# Generated by pormake.
# Topology vcf, (6)-cn, num edge types: 1
# Building blocks:
#     Node 0, Type 0, BuildingBlock: IZENUY_clean_sbu_0, # of connection points: 6
#     Node 1, Type 0, BuildingBlock: IZENUY_clean_sbu_0, # of connection points: 6
#     Node 2, Type 0, BuildingBlock: IZENUY_clean_sbu_0, # of connection points: 6
#     Node 3, Type 0, BuildingBlock: IZENUY_clean_sbu_0, # of connection points: 6
#     Node 4, Type 0, BuildingBlock: IZENUY_clean_sbu_0, # of connection points: 6
#     Node 5, Type 0, BuildingBlock: IZENUY_clean_sbu_0, # of connection points: 6
#     Node 6, Type 0, BuildingBlock: IZENUY_clean_sbu_0, # of connection points: 6
#     Node 7, Type 0, BuildingBlock: IZENUY_clean_sbu_0, # of connection points: 6
#     Node 8, Type 0, BuildingBlock: IZENUY_clean_sbu_0, # of connection points: 6
#     Node 9, Type 0, BuildingBlock: IZENUY_clean_sbu_0, # of connection points: 6
#     Node 10, Type 0, BuildingBlock: IZENUY_clean_sbu_0, # of connection points: 6
#     Node 11, Type 0, BuildingBlock: IZENUY_clean_sbu_0, # of connection points: 6
#     Node 12, Type 0, BuildingBlock: IZENUY_clean_sbu_0, # of connection points: 6
#     Node 13, Type 0, BuildingBlock: IZENUY_clean_sbu_0, # of connection points: 6
#     Node 14, Type 0, BuildingBlock: IZENUY_clean_sbu_0, # of connection points: 6
#     Node 15, Type 0, BuildingBlock: IZENUY_clean_sbu_0, # of connection points: 6
#     Node 16, Type 0, BuildingBlock: IZENUY_clean_sbu_0, # of connection points: 6
#     Node 17, Type 0, BuildingBlock: IZENUY_clean_sbu_0, # of connection points: 6
#     Node 18, Type 0, BuildingBlock: IZENUY_clean_sbu_0, # of connection points: 6
#     Node 19, Type 0, BuildingBlock: IZENUY_clean_sbu_0, # of connection points: 6
#     Node 20, Type 0, BuildingBlock: IZENUY_clean_sbu_0, # of connection points: 6
#     Node 21, Type 0, BuildingBlock: IZENUY_clean_sbu_0, # of connection points: 6
#     Node 22, Type 0, BuildingBlock: IZENUY_clean_sbu_0, # of connection points: 6
#     Node 23, Type 0, BuildingBlock: IZENUY_clean_sbu_0, # of connection points: 6
#     Node 24, Type 0, BuildingBlock: IZENUY_clean_sbu_0, # of connection points: 6
#     Node 25, Type 0, BuildingBlock: IZENUY_clean_sbu_0, # of connection points: 6
#     Node 26, Type 0, BuildingBlock: IZENUY_clean_sbu_0, # of connection points: 6
#     Node 27, Type 0, BuildingBlock: IZENUY_clean_sbu_0, # of connection points: 6
#     Node 28, Type 0, BuildingBlock: IZENUY_clean_sbu_0, # of connection points: 6
#     Node 29, Type 0, BuildingBlock: IZENUY_clean_sbu_0, # of connection points: 6
#     Node 30, Type 0, BuildingBlock: IZENUY_clean_sbu_0, # of connection points: 6
#     Node 31, Type 0, BuildingBlock: IZENUY_clean_sbu_0, # of connection points: 6
#     Edge 32, Type (0, 0), BuildingBlock: OJICUG_clean_linker_0, # of connection points: 2
#     Edge 33, Type (0, 0), BuildingBlock: OJICUG_clean_linker_0, # of connection points: 2
#     Edge 34, Type (0, 0), BuildingBlock: OJICUG_clean_linker_0, # of connection points: 2
#     Edge 35, Type (0, 0), BuildingBlock: OJICUG_clean_linker_0, # of connection points: 2
#     Edge 36, Type (0, 0), BuildingBlock: OJICUG_clean_linker_0, # of connection points: 2
#     Edge 37, Type (0, 0), BuildingBlock: OJICUG_clean_linker_0, # of connection points: 2
#     Edge 38, Type (0, 0), BuildingBlock: OJICUG_clean_linker_0, # of connection points: 2
#     Edge 39, Type (0, 0), BuildingBlock: OJICUG_clean_linker_0, # of connection points: 2
#     Edge 40, Type (0, 0), BuildingBlock: OJICUG_clean_linker_0, # of connection points: 2
#     Edge 41, Type (0, 0), BuildingBlock: OJICUG_clean_linker_0, # of connection points: 2
#     Edge 42, Type (0, 0), BuildingBlock: OJICUG_clean_linker_0, # of connection points: 2
#     Edge 43, Type (0, 0), BuildingBlock: OJICUG_clean_linker_0, # of connection points: 2
#     Edge 44, Type (0, 0), BuildingBlock: OJICUG_clean_linker_0, # of connection points: 2
#     Edge 45, Type (0, 0), BuildingBlock: OJICUG_clean_linker_0, # of connection points: 2
#     Edge 46, Type (0, 0), BuildingBlock: OJICUG_clean_linker_0, # of connection points: 2
#     Edge 47, Type (0, 0), BuildingBlock: OJICUG_clean_linker_0, # of connection points: 2
#     Edge 48, Type (0, 0), BuildingBlock: OJICUG_clean_linker_0, # of connection points: 2
#     Edge 49, Type (0, 0), BuildingBlock: OJICUG_clean_linker_0, # of connection points: 2
#     Edge 50, Type (0, 0), BuildingBlock: OJICUG_clean_linker_0, # of connection points: 2
#     Edge 51, Type (0, 0), BuildingBlock: OJICUG_clean_linker_0, # of connection points: 2
#     Edge 52, Type (0, 0), BuildingBlock: OJICUG_clean_linker_0, # of connection points: 2
#     Edge 53, Type (0, 0), BuildingBlock: OJICUG_clean_linker_0, # of connection points: 2
#     Edge 54, Type (0, 0), BuildingBlock: OJICUG_clean_linker_0, # of connection points: 2
#     Edge 55, Type (0, 0), BuildingBlock: OJICUG_clean_linker_0, # of connection points: 2
#     Edge 56, Type (0, 0), BuildingBlock: OJICUG_clean_linker_0, # of connection points: 2
#     Edge 57, Type (0, 0), BuildingBlock: OJICUG_clean_linker_0, # of connection points: 2
#     Edge 58, Type (0, 0), BuildingBlock: OJICUG_clean_linker_0, # of connection points: 2
#     Edge 59, Type (0, 0), BuildingBlock: OJICUG_clean_linker_0, # of connection points: 2
#     Edge 60, Type (0, 0), BuildingBlock: OJICUG_clean_linker_0, # of connection points: 2
#     Edge 61, Type (0, 0), BuildingBlock: OJICUG_clean_linker_0, # of connection points: 2
#     Edge 62, Type (0, 0), BuildingBlock: OJICUG_clean_linker_0, # of connection points: 2
#     Edge 63, Type (0, 0), BuildingBlock: OJICUG_clean_linker_0, # of connection points: 2
#     Edge 64, Type (0, 0), BuildingBlock: OJICUG_clean_linker_0, # of connection points: 2
#     Edge 65, Type (0, 0), BuildingBlock: OJICUG_clean_linker_0, # of connection points: 2
#     Edge 66, Type (0, 0), BuildingBlock: OJICUG_clean_linker_0, # of connection points: 2
#     Edge 67, Type (0, 0), BuildingBlock: OJICUG_clean_linker_0, # of connection points: 2
#     Edge 68, Type (0, 0), BuildingBlock: OJICUG_clean_linker_0, # of connection points: 2
#     Edge 69, Type (0, 0), BuildingBlock: OJICUG_clean_linker_0, # of connection points: 2
#     Edge 70, Type (0, 0), BuildingBlock: OJICUG_clean_linker_0, # of connection points: 2
#     Edge 71, Type (0, 0), BuildingBlock: OJICUG_clean_linker_0, # of connection points: 2
#     Edge 72, Type (0, 0), BuildingBlock: OJICUG_clean_linker_0, # of connection points: 2
#     Edge 73, Type (0, 0), BuildingBlock: OJICUG_clean_linker_0, # of connection points: 2
#     Edge 74, Type (0, 0), BuildingBlock: OJICUG_clean_linker_0, # of connection points: 2
#     Edge 75, Type (0, 0), BuildingBlock: OJICUG_clean_linker_0, # of connection points: 2
#     Edge 76, Type (0, 0), BuildingBlock: OJICUG_clean_linker_0, # of connection points: 2
#     Edge 77, Type (0, 0), BuildingBlock: OJICUG_clean_linker_0, # of connection points: 2
#     Edge 78, Type (0, 0), BuildingBlock: OJICUG_clean_linker_0, # of connection points: 2
#     Edge 79, Type (0, 0), BuildingBlock: OJICUG_clean_linker_0, # of connection points: 2
#     Edge 80, Type (0, 0), BuildingBlock: OJICUG_clean_linker_0, # of connection points: 2
#     Edge 81, Type (0, 0), BuildingBlock: OJICUG_clean_linker_0, # of connection points: 2
#     Edge 82, Type (0, 0), BuildingBlock: OJICUG_clean_linker_0, # of connection points: 2
#     Edge 83, Type (0, 0), BuildingBlock: OJICUG_clean_linker_0, # of connection points: 2
#     Edge 84, Type (0, 0), BuildingBlock: OJICUG_clean_linker_0, # of connection points: 2
#     Edge 85, Type (0, 0), BuildingBlock: OJICUG_clean_linker_0, # of connection points: 2
#     Edge 86, Type (0, 0), BuildingBlock: OJICUG_clean_linker_0, # of connection points: 2
#     Edge 87, Type (0, 0), BuildingBlock: OJICUG_clean_linker_0, # of connection points: 2
#     Edge 88, Type (0, 0), BuildingBlock: OJICUG_clean_linker_0, # of connection points: 2
#     Edge 89, Type (0, 0), BuildingBlock: OJICUG_clean_linker_0, # of connection points: 2
#     Edge 90, Type (0, 0), BuildingBlock: OJICUG_clean_linker_0, # of connection points: 2
#     Edge 91, Type (0, 0), BuildingBlock: OJICUG_clean_linker_0, # of connection points: 2
#     Edge 92, Type (0, 0), BuildingBlock: OJICUG_clean_linker_0, # of connection points: 2
#     Edge 93, Type (0, 0), BuildingBlock: OJICUG_clean_linker_0, # of connection points: 2
#     Edge 94, Type (0, 0), BuildingBlock: OJICUG_clean_linker_0, # of connection points: 2
#     Edge 95, Type (0, 0), BuildingBlock: OJICUG_clean_linker_0, # of connection points: 2
#     Edge 96, Type (0, 0), BuildingBlock: OJICUG_clean_linker_0, # of connection points: 2
#     Edge 97, Type (0, 0), BuildingBlock: OJICUG_clean_linker_0, # of connection points: 2
#     Edge 98, Type (0, 0), BuildingBlock: OJICUG_clean_linker_0, # of connection points: 2
#     Edge 99, Type (0, 0), BuildingBlock: OJICUG_clean_linker_0, # of connection points: 2
#     Edge 100, Type (0, 0), BuildingBlock: OJICUG_clean_linker_0, # of connection points: 2
#     Edge 101, Type (0, 0), BuildingBlock: OJICUG_clean_linker_0, # of connection points: 2
#     Edge 102, Type (0, 0), BuildingBlock: OJICUG_clean_linker_0, # of connection points: 2
#     Edge 103, Type (0, 0), BuildingBlock: OJICUG_clean_linker_0, # of connection points: 2
#     Edge 104, Type (0, 0), BuildingBlock: OJICUG_clean_linker_0, # of connection points: 2
#     Edge 105, Type (0, 0), BuildingBlock: OJICUG_clean_linker_0, # of connection points: 2
#     Edge 106, Type (0, 0), BuildingBlock: OJICUG_clean_linker_0, # of connection points: 2
#     Edge 107, Type (0, 0), BuildingBlock: OJICUG_clean_linker_0, # of connection points: 2
#     Edge 108, Type (0, 0), BuildingBlock: OJICUG_clean_linker_0, # of connection points: 2
#     Edge 109, Type (0, 0), BuildingBlock: OJICUG_clean_linker_0, # of connection points: 2
#     Edge 110, Type (0, 0), BuildingBlock: OJICUG_clean_linker_0, # of connection points: 2
#     Edge 111, Type (0, 0), BuildingBlock: OJICUG_clean_linker_0, # of connection points: 2
#     Edge 112, Type (0, 0), BuildingBlock: OJICUG_clean_linker_0, # of connection points: 2
#     Edge 113, Type (0, 0), BuildingBlock: OJICUG_clean_linker_0, # of connection points: 2
#     Edge 114, Type (0, 0), BuildingBlock: OJICUG_clean_linker_0, # of connection points: 2
#     Edge 115, Type (0, 0), BuildingBlock: OJICUG_clean_linker_0, # of connection points: 2
#     Edge 116, Type (0, 0), BuildingBlock: OJICUG_clean_linker_0, # of connection points: 2
#     Edge 117, Type (0, 0), BuildingBlock: OJICUG_clean_linker_0, # of connection points: 2
#     Edge 118, Type (0, 0), BuildingBlock: OJICUG_clean_linker_0, # of connection points: 2
#     Edge 119, Type (0, 0), BuildingBlock: OJICUG_clean_linker_0, # of connection points: 2
#     Edge 120, Type (0, 0), BuildingBlock: OJICUG_clean_linker_0, # of connection points: 2
#     Edge 121, Type (0, 0), BuildingBlock: OJICUG_clean_linker_0, # of connection points: 2
#     Edge 122, Type (0, 0), BuildingBlock: OJICUG_clean_linker_0, # of connection points: 2
#     Edge 123, Type (0, 0), BuildingBlock: OJICUG_clean_linker_0, # of connection points: 2
#     Edge 124, Type (0, 0), BuildingBlock: OJICUG_clean_linker_0, # of connection points: 2
#     Edge 125, Type (0, 0), BuildingBlock: OJICUG_clean_linker_0, # of connection points: 2
#     Edge 126, Type (0, 0), BuildingBlock: OJICUG_clean_linker_0, # of connection points: 2
#     Edge 127, Type (0, 0), BuildingBlock: OJICUG_clean_linker_0, # of connection points: 2
# Relax obj value: 0.262
# Max RMSD: 0.251
# Mean RMSD: 0.250
data_MOF--net-vcf--node1-IZENUY_clean_sbu_0--edge1-OJICUG_clean_linker_0
_symmetry_space_group_name_H-M    P1
_symmetry_Int_Tables_number       1
_symmetry_cell_setting            triclinic
loop_
_symmetry_equiv_pos_as_xyz
'x, y, z'
_cell_length_a     31.039175
_cell_length_b     26.772566
_cell_length_c     63.964897
_cell_angle_alpha  90.000981
_cell_angle_beta   90.00173
_cell_angle_gamma 89.999649
loop_
_atom_site_label
_atom_site_type_symbol
_atom_site_fract_x
_atom_site_fract_y
_atom_site_fract_z
_atom_type_partial_charge
Fe0 Fe 0.03683 0.25669 0.08477 0.0
Fe1 Fe 0.05813 0.36751 0.08061 0.0
O2 O 0.05477 0.30737 0.06937 0.0
Fe3 Fe 0.06875 0.29814 0.04279 0.0
O4 O 1.01539 0.27529 0.03651 0.0
O5 O 1.01091 0.22291 0.06284 0.0
O6 O 0.98535 0.28632 0.08926 0.0
C7 C 0.98045 0.32945 0.09672 0.0
C8 C 0.10098 0.21139 0.06334 0.0
O9 O 1.01249 0.35845 0.09868 0.0
C10 C 0.13078 0.36507 0.05286 0.0
O11 O 0.06036 0.28053 0.10947 0.0
O12 O 0.097 0.34678 0.09964 0.0
O13 O 0.08956 0.23392 0.04676 0.0
O14 O 0.0868 0.22471 0.08089 0.0
C15 C 0.0269 0.39326 0.04296 0.0
O16 O 0.10391 0.38821 0.06427 0.0
O17 O 0.12309 0.3209 0.04703 0.0
C18 C 0.09081 0.31156 0.11233 0.0
O19 O 0.0195 0.39145 0.06225 0.0
O20 O 0.05077 0.36072 0.03433 0.0
C21 C 0.99873 0.23729 0.04486 0.0
Fe22 Fe 0.21816 0.93323 0.04281 0.0
Fe23 Fe 0.25017 0.97453 0.0848 0.0
O24 O 0.23215 0.92393 0.06938 0.0
Fe25 Fe 0.22873 0.86377 0.0806 0.0
O26 O 0.26734 0.83983 0.06223 0.0
O27 O 0.23608 0.87064 0.03432 0.0
O28 O 0.27153 0.95603 0.03652 0.0
C29 C 0.28826 -0.00602 0.04489 0.0
C30 C 0.15607 0.86635 0.05286 0.0
O31 O 0.27614 0.00832 0.06289 0.0
C32 C 0.1961 0.91971 0.11234 0.0
O33 O 0.19742 -0.00252 0.0468 0.0
O34 O 0.20025 0.00663 0.08094 0.0
O35 O 0.18294 0.84316 0.06426 0.0
O36 O 0.1638 0.91052 0.04704 0.0
C37 C 0.30646 0.90165 0.09672 0.0
O38 O 0.2266 0.95069 0.1095 0.0
O39 O 0.18989 0.88451 0.09964 0.0
C40 C 0.18615 0.02009 0.06339 0.0
O41 O 0.30161 0.9448 0.08928 0.0
O42 O 0.27438 0.87271 0.09867 0.0
C43 C 0.25994 0.83807 0.04294 0.0
Fe44 Fe 0.03668 0.97468 0.21451 0.0
Fe45 Fe 0.05804 0.86388 0.21869 0.0
O46 O 0.05465 0.92404 0.22992 0.0
Fe47 Fe 0.06862 0.93331 0.2565 0.0
O48 O 1.01525 0.95614 0.26277 0.0
O49 O 1.01072 0.00847 0.23642 0.0
O50 O 0.98522 0.945 0.21001 0.0
C51 C 0.98034 0.90186 0.20256 0.0
C52 C 0.10074 0.02012 0.23593 0.0
O53 O 1.01241 0.87288 0.20062 0.0
C54 C 0.13068 0.86641 0.24645 0.0
O55 O 0.06024 0.95083 0.18981 0.0
O56 O 0.0969 0.8846 0.19966 0.0
O57 O 0.08939 -0.00246 0.25252 0.0
O58 O 0.08662 0.00671 0.21838 0.0
C59 C 0.0268 0.83818 0.25635 0.0
O60 O 0.10381 0.84323 0.23504 0.0
O61 O 0.12297 0.91058 0.25227 0.0
C62 C 0.09072 0.91981 0.18697 0.0
O63 O 0.0194 0.83995 0.23706 0.0
O64 O 0.05067 0.87073 0.26497 0.0
C65 C 0.99856 -0.00589 0.25441 0.0
Fe66 Fe 0.21804 0.29819 0.25655 0.0
Fe67 Fe 0.25005 0.25681 0.21457 0.0
O68 O 0.23205 0.30745 0.22997 0.0
Fe69 Fe 0.22867 0.3676 0.21874 0.0
O70 O 0.26728 0.39154 0.23711 0.0
O71 O 0.23599 0.36078 0.26502 0.0
O72 O 0.2714 0.27536 0.26285 0.0
C73 C 0.2881 0.23738 0.25449 0.0
C74 C 0.156 0.36511 0.24647 0.0
O75 O 0.27597 0.22302 0.2365 0.0
C76 C 0.19605 0.31163 0.18701 0.0
O77 O 0.19726 0.23397 0.25257 0.0
O78 O 0.2001 0.22478 0.21843 0.0
O79 O 0.18288 0.38826 0.23507 0.0
O80 O 0.1637 0.32094 0.2523 0.0
C81 C 0.30639 0.32961 0.20264 0.0
O82 O 0.22653 0.28064 0.18986 0.0
O83 O 0.18983 0.34685 0.1997 0.0
C84 C 0.18593 0.2114 0.23597 0.0
O85 O 0.30151 0.28648 0.2101 0.0
O86 O 0.27432 0.35858 0.20068 0.0
C87 C 0.25986 0.39334 0.2564 0.0
Fe88 Fe 0.9681 0.68323 1.00654 0.0
Fe89 Fe 0.97869 0.61382 0.96872 0.0
O90 O 0.98208 0.67397 0.97996 0.0
Fe91 Fe 1.00005 0.72461 0.96455 0.0
O92 O 0.026 0.75841 0.98647 0.0
O93 O 0.02147 0.70608 1.01282 0.0
O94 O 0.98607 0.62065 1.01501 0.0
C95 C 1.00993 0.58809 1.00638 0.0
C96 C 0.93596 0.77003 0.98597 0.0
O97 O 1.01732 0.58988 0.98709 0.0
C98 C 0.94603 0.66977 0.937 0.0
O99 O 0.91376 0.66047 1.00231 0.0
O100 O 0.93291 0.59315 0.98507 0.0
O101 O 0.9501 0.75664 0.96842 0.0
O102 O 0.94731 0.74746 1.00256 0.0
C103 C 0.05639 0.6518 0.9526 0.0
O104 O 0.93982 0.63455 0.94969 0.0
O105 O 0.9765 0.70077 0.93985 0.0
C106 C 0.90606 0.6163 0.99648 0.0
O107 O 0.02432 0.62283 0.95065 0.0
O108 O 0.05151 0.69494 0.96006 0.0
C109 C 0.03815 0.74405 1.00446 0.0
Fe110 Fe 0.78677 0.0068 0.96453 0.0
Fe111 Fe 0.81872 0.04817 1.00652 0.0
O112 O 0.80475 0.05744 0.97994 0.0
Fe113 Fe 0.80815 0.11759 0.96871 0.0
O114 O 0.76252 0.10859 0.95063 0.0
O115 O 0.73532 0.03649 0.96004 0.0
O116 O 0.76081 0.97303 0.98645 0.0
C117 C 0.74865 0.9874 1.00443 0.0
C118 C 0.84083 0.06161 0.937 0.0
O119 O 0.76534 0.02537 1.0128 0.0
C120 C 0.8808 0.11505 0.99646 0.0
O121 O 0.83671 0.97475 0.96841 0.0
O122 O 0.83948 0.98394 1.00255 0.0
O123 O 0.84702 0.09683 0.94968 0.0
O124 O 0.81033 0.03063 0.93983 0.0
C125 C 0.77692 0.14333 1.00636 0.0
O126 O 0.87307 0.07089 1.00229 0.0
O127 O 0.85394 0.13823 0.98505 0.0
C128 C 0.85084 0.96136 0.98596 0.0
O129 O 0.80078 0.11077 1.01499 0.0
O130 O 0.76953 0.14155 0.98707 0.0
C131 C 0.73045 0.07963 0.95259 0.0
Fe132 Fe 0.97885 0.11748 0.83065 0.0
Fe133 Fe 1.00024 0.00669 0.83482 0.0
O134 O 0.98225 0.05733 0.81942 0.0
Fe135 Fe 0.96824 0.04806 0.79284 0.0
O136 O 0.98616 0.11066 0.78437 0.0
O137 O 1.01746 0.14143 0.81228 0.0
O138 O 0.02451 0.10849 0.84871 0.0
C139 C 0.05657 0.07952 0.84676 0.0
C140 C 0.90617 0.11493 0.80292 0.0
O141 O 0.05169 0.03638 0.83931 0.0
C142 C 0.93619 0.96121 0.8134 0.0
O143 O 0.94001 0.09674 0.84969 0.0
O144 O 0.97669 0.03052 0.85952 0.0
O145 O 0.91389 0.07077 0.79709 0.0
O146 O 0.93305 0.13811 0.81432 0.0
C147 C 0.03832 0.98731 0.79491 0.0
O148 O 0.9503 0.97464 0.83095 0.0
O149 O 0.9475 0.98382 0.79682 0.0
C150 C 0.94622 0.06152 0.86237 0.0
O151 O 0.02619 0.97293 0.8129 0.0
O152 O 0.02162 0.02527 0.78655 0.0
C153 C 1.01004 0.14322 0.79299 0.0
Fe154 Fe 0.80816 0.6138 0.83058 0.0
Fe155 Fe 0.78683 0.72461 0.83473 0.0
O156 O 0.80479 0.67394 0.81934 0.0
Fe157 Fe 0.81879 0.68318 0.79276 0.0
O158 O 0.80081 0.6206 0.7843 0.0
O159 O 0.76953 0.58987 0.81222 0.0
O160 O 0.76252 0.62286 0.84864 0.0
C161 C 0.73046 0.65183 0.84668 0.0
C162 C 0.88081 0.61622 0.80283 0.0
O163 O 0.73535 0.69496 0.83922 0.0
C164 C 0.85099 0.76994 0.81332 0.0
O165 O 0.84702 0.63454 0.84961 0.0
O166 O 0.81035 0.70077 0.85944 0.0
O167 O 0.87313 0.6604 0.797 0.0
O168 O 0.85394 0.59309 0.81424 0.0
C169 C 0.74877 0.74404 0.79482 0.0
O170 O 0.83679 0.75661 0.83087 0.0
O171 O 0.83961 0.74739 0.79673 0.0
C172 C 0.84082 0.66976 0.8623 0.0
O173 O 0.76091 0.7584 0.81281 0.0
O174 O 0.76544 0.70604 0.78647 0.0
C175 C 0.77694 0.58805 0.79293 0.0
Fe176 Fe 0.05823 0.86759 0.58063 0.0
Fe177 Fe 0.06882 0.79818 0.54282 0.0
O178 O 0.05482 0.80745 0.56939 0.0
Fe179 Fe 0.03681 0.75682 0.5848 0.0
O180 O 0.98537 0.78652 0.58928 0.0
O181 O 1.01257 0.85862 0.59869 0.0
O182 O 0.01963 0.89157 0.56226 0.0
C183 C 0.02704 0.89334 0.54297 0.0
C184 C 0.09084 0.81161 0.61236 0.0
O185 O 0.0509 0.86078 0.53435 0.0
C186 C 0.10087 0.71133 0.56338 0.0
O187 O 0.10404 0.88822 0.5643 0.0
O188 O 0.12317 0.82087 0.54706 0.0
O189 O 0.06035 0.78064 0.6095 0.0
O190 O 0.09707 0.84683 0.59967 0.0
C191 C 0.99873 0.73743 0.54489 0.0
O192 O 0.08956 0.73393 0.5468 0.0
O193 O 0.08675 0.72475 0.58093 0.0
C194 C 0.1309 0.86503 0.55289 0.0
O195 O 1.01544 0.77539 0.53652 0.0
O196 O 1.01086 0.72306 0.56287 0.0
C197 C 0.9805 0.82966 0.59673 0.0
Fe198 Fe 0.21823 0.43328 0.54277 0.0
Fe199 Fe 0.25016 0.47467 0.58476 0.0
O200 O 0.23221 0.42402 0.56935 0.0
Fe201 Fe 0.22885 0.36387 0.58058 0.0
O202 O 0.2675 0.33996 0.56222 0.0
O203 O 0.23621 0.3707 0.5343 0.0
O204 O 0.27158 0.45614 0.53649 0.0
C205 C 0.28825 0.49412 0.54486 0.0
C206 C 0.15621 0.36632 0.55282 0.0
O207 O 0.2761 0.50848 0.56284 0.0
C208 C 0.19615 0.41979 0.61231 0.0
O209 O 0.19742 0.49749 0.54675 0.0
O210 O 0.2002 0.50667 0.58089 0.0
O211 O 0.18308 0.34317 0.56424 0.0
O212 O 0.16389 0.4105 0.547 0.0
C213 C 0.30653 0.4019 0.59671 0.0
O214 O 0.22661 0.45081 0.60946 0.0
O215 O 0.18997 0.38457 0.59961 0.0
C216 C 0.18604 0.52004 0.56334 0.0
O217 O 0.30163 0.44503 0.58925 0.0
O218 O 0.27447 0.37291 0.59866 0.0
C219 C 0.2601 0.33816 0.54293 0.0
Fe220 Fe 0.03675 0.47444 0.7145 0.0
Fe221 Fe 0.05823 0.36368 0.71869 0.0
O222 O 0.05479 0.42384 0.72992 0.0
Fe223 Fe 0.06878 0.43316 0.75649 0.0
O224 O 1.01539 0.45593 0.76278 0.0
O225 O 1.01076 0.50821 0.73641 0.0
O226 O 0.98532 0.44468 0.71002 0.0
C227 C 0.98048 0.40152 0.70258 0.0
C228 C 0.10072 0.52006 0.73591 0.0
O229 O 1.01258 0.3726 0.70063 0.0
C230 C 0.13089 0.3663 0.74644 0.0
O231 O 0.06032 0.4506 0.6898 0.0
O232 O 0.09706 0.38444 0.69965 0.0
O233 O 0.08949 0.49742 0.7525 0.0
O234 O 0.08665 0.50656 0.71836 0.0
C235 C 0.02703 0.33798 0.75636 0.0
O236 O 0.10404 0.3431 0.73504 0.0
O237 O 0.12315 0.41047 0.75226 0.0
C238 C 0.09083 0.41964 0.68696 0.0
O239 O 0.01964 0.33972 0.73707 0.0
O240 O 0.05088 0.37056 0.76497 0.0
C241 C 0.99865 0.49387 0.75441 0.0
Fe242 Fe 0.21819 0.79806 0.75656 0.0
Fe243 Fe 0.25009 0.75659 0.71458 0.0
O244 O 0.23217 0.80728 0.72998 0.0
Fe245 Fe 0.22882 0.86742 0.71874 0.0
O246 O 0.26746 0.89135 0.7371 0.0
O247 O 0.23618 0.86064 0.76502 0.0
O248 O 0.27154 0.77519 0.76284 0.0
C249 C 0.28819 0.73719 0.75448 0.0
C250 C 0.15617 0.865 0.74649 0.0
O251 O 0.276 0.7228 0.7365 0.0
C252 C 0.19611 0.81147 0.68702 0.0
O253 O 0.19736 0.73386 0.7526 0.0
O254 O 0.20011 0.72463 0.71846 0.0
O255 O 0.18305 0.88814 0.73508 0.0
O256 O 0.16386 0.82084 0.75232 0.0
C257 C 0.30648 0.82933 0.70262 0.0
O258 O 0.22656 0.78043 0.68988 0.0
O259 O 0.18994 0.8467 0.69971 0.0
C260 C 0.1859 0.71134 0.73601 0.0
O261 O 0.30157 0.7862 0.71008 0.0
O262 O 0.27444 0.85833 0.70067 0.0
C263 C 0.26006 0.89317 0.75638 0.0
Fe264 Fe 0.96826 0.18327 0.50647 0.0
Fe265 Fe 0.97883 0.1138 0.46867 0.0
O266 O 0.98226 0.17397 0.47989 0.0
Fe267 Fe 1.00029 0.22457 0.46448 0.0
O268 O 0.02627 0.25833 0.48639 0.0
O269 O 0.02164 0.20605 0.51276 0.0
O270 O 0.98615 0.12067 0.51495 0.0
C271 C 1.01002 0.0881 0.50634 0.0
C272 C 0.93633 0.2702 0.48589 0.0
O273 O 1.01743 0.08985 0.48705 0.0
C274 C 0.94622 0.16976 0.43694 0.0
O275 O 0.91389 0.16059 0.50223 0.0
O276 O 0.93302 0.09321 0.48501 0.0
O277 O 0.95038 0.25668 0.46834 0.0
O278 O 0.94755 0.24753 0.50248 0.0
C279 C 0.05657 0.15167 0.45256 0.0
O280 O 0.94 0.13455 0.44963 0.0
O281 O 0.97671 0.20073 0.43978 0.0
C282 C 0.90616 0.11641 0.49641 0.0
O283 O 0.02448 0.12273 0.45061 0.0
O284 O 0.05172 0.19483 0.46 0.0
C285 C 0.03838 0.24398 0.50439 0.0
Fe286 Fe 0.7869 0.50665 0.46462 0.0
Fe287 Fe 0.81881 0.54817 0.50659 0.0
O288 O 0.80483 0.55735 0.48001 0.0
Fe289 Fe 0.80816 0.61748 0.46875 0.0
O290 O 0.76253 0.60837 0.45069 0.0
O291 O 0.7354 0.53625 0.46012 0.0
O292 O 0.76101 0.47287 0.48655 0.0
C293 C 0.74883 0.48727 0.50453 0.0
C294 C 0.84085 0.5615 0.43704 0.0
O295 O 0.76547 0.52529 0.51287 0.0
C296 C 0.88082 0.61511 0.4965 0.0
O297 O 0.83689 0.4747 0.46849 0.0
O298 O 0.83966 0.48397 0.50263 0.0
O299 O 0.84703 0.59675 0.44972 0.0
O300 O 0.8104 0.53047 0.4399 0.0
C301 C 0.77694 0.64328 0.50639 0.0
O302 O 0.87314 0.57096 0.50234 0.0
O303 O 0.85394 0.63823 0.48508 0.0
C304 C 0.85114 0.46147 0.48605 0.0
O305 O 0.80081 0.61075 0.51503 0.0
O306 O 0.76952 0.64143 0.48711 0.0
C307 C 0.73049 0.57937 0.45265 0.0
Fe308 Fe 0.97864 0.61763 0.33062 0.0
Fe309 Fe 1.00003 0.50684 0.33477 0.0
O310 O 0.98204 0.55749 0.31937 0.0
Fe311 Fe 0.96804 0.54824 0.29279 0.0
O312 O 0.98599 0.61083 0.28433 0.0
O313 O 1.01724 0.6416 0.31225 0.0
O314 O 0.02429 0.60862 0.34868 0.0
C315 C 0.05636 0.57966 0.34672 0.0
C316 C 0.90598 0.61513 0.30287 0.0
O317 O 0.05149 0.53652 0.33926 0.0
C318 C 0.93592 0.46144 0.31336 0.0
O319 O 0.93979 0.59686 0.34965 0.0
O320 O 0.9765 0.53066 0.35948 0.0
O321 O 0.9137 0.57097 0.29703 0.0
O322 O 0.93284 0.63829 0.31428 0.0
C323 C 0.0381 0.48743 0.29486 0.0
O324 O 0.95008 0.4748 0.33091 0.0
O325 O 0.94727 0.48401 0.29677 0.0
C326 C 0.94601 0.56164 0.36234 0.0
O327 O 0.02596 0.47307 0.31285 0.0
O328 O 0.02141 0.52541 0.2865 0.0
C329 C 1.00984 0.64339 0.29296 0.0
Fe330 Fe 0.78673 0.22467 0.33479 0.0
Fe331 Fe 0.81865 0.18332 0.29279 0.0
O332 O 0.80469 0.17404 0.31937 0.0
Fe333 Fe 0.80808 0.11388 0.3306 0.0
O334 O 0.76246 0.12288 0.34868 0.0
O335 O 0.73527 0.195 0.33929 0.0
O336 O 0.76076 0.25847 0.31288 0.0
C337 C 0.7486 0.24411 0.29489 0.0
C338 C 0.84078 0.16981 0.36232 0.0
O339 O 0.76528 0.20615 0.28653 0.0
C340 C 0.88071 0.1164 0.30284 0.0
O341 O 0.83667 0.2567 0.33092 0.0
O342 O 0.83943 0.24754 0.29678 0.0
O343 O 0.84696 0.1346 0.34963 0.0
O344 O 0.8103 0.20081 0.35949 0.0
C345 C 0.77683 0.08818 0.29295 0.0
O346 O 0.87301 0.16057 0.29702 0.0
O347 O 0.85385 0.09323 0.31425 0.0
C348 C 0.85079 0.27012 0.31337 0.0
O349 O 0.80069 0.12073 0.28432 0.0
O350 O 0.76944 0.08996 0.31224 0.0
C351 C 0.7304 0.15185 0.34673 0.0
Fe352 Fe 0.53681 0.25682 0.58484 0.0
Fe353 Fe 0.55824 0.36761 0.58068 0.0
O354 O 0.55482 0.30746 0.56944 0.0
Fe355 Fe 0.5688 0.29819 0.54286 0.0
O356 O 0.51542 0.27542 0.53657 0.0
O357 O 0.51085 0.22307 0.56292 0.0
O358 O 0.48537 0.28653 0.58933 0.0
C359 C 0.4805 0.32967 0.59678 0.0
C360 C 0.60085 0.21133 0.56342 0.0
O361 O 0.51258 0.35863 0.59874 0.0
C362 C 0.6309 0.36504 0.55294 0.0
O363 O 0.56036 0.28063 0.60955 0.0
O364 O 0.59707 0.34683 0.59972 0.0
O365 O 0.58954 0.23395 0.54684 0.0
O366 O 0.58674 0.22475 0.58097 0.0
C367 C 0.52704 0.39337 0.54302 0.0
O368 O 0.60404 0.38822 0.56435 0.0
O369 O 0.62317 0.32088 0.54711 0.0
C370 C 0.59085 0.31161 0.6124 0.0
O371 O 0.51964 0.3916 0.56231 0.0
O372 O 0.5509 0.3608 0.5344 0.0
C373 C 0.49871 0.23745 0.54493 0.0
Fe374 Fe 0.71821 0.9333 0.54274 0.0
Fe375 Fe 0.75016 0.97468 0.58473 0.0
O376 O 0.73221 0.92404 0.56932 0.0
Fe377 Fe 0.72885 0.86388 0.58054 0.0
O378 O 0.76749 0.83999 0.56218 0.0
O379 O 0.7362 0.87073 0.53427 0.0
O380 O 0.77156 0.95618 0.53646 0.0
C381 C 0.78824 -0.00584 0.54482 0.0
C382 C 0.6562 0.86633 0.5528 0.0
O383 O 0.77609 0.0085 0.56281 0.0
C384 C 0.69616 0.91979 0.61227 0.0
O385 O 0.69739 -0.00249 0.54673 0.0
O386 O 0.7002 0.00668 0.58087 0.0
O387 O 0.68308 0.84319 0.5642 0.0
O388 O 0.66388 0.91051 0.54698 0.0
C389 C 0.80653 0.9019 0.59667 0.0
O390 O 0.72662 0.95081 0.60943 0.0
O391 O 0.68998 0.88458 0.59958 0.0
C392 C 0.68602 0.02005 0.56332 0.0
O393 O 0.80164 0.94504 0.58921 0.0
O394 O 0.77448 0.87292 0.59862 0.0
C395 C 0.76009 0.8382 0.54289 0.0
Fe396 Fe 0.5582 0.86369 0.71865 0.0
Fe397 Fe 0.56876 0.93316 0.75645 0.0
O398 O 0.55476 0.92385 0.72987 0.0
Fe399 Fe 0.53673 0.97446 0.71446 0.0
O400 O 0.4853 0.94471 0.70998 0.0
O401 O 0.51254 0.87262 0.70058 0.0
O402 O 0.51961 0.83972 0.73702 0.0
C403 C 0.52701 0.83797 0.75631 0.0
C404 C 0.5908 0.91966 0.68692 0.0
O405 O 0.55087 0.87055 0.76493 0.0
C406 C 0.60068 0.02009 0.73588 0.0
O407 O 0.60401 0.84311 0.73499 0.0
O408 O 0.62313 0.91048 0.75221 0.0
O409 O 0.5603 0.95064 0.68976 0.0
O410 O 0.59703 0.88446 0.69961 0.0
C411 C 0.49864 -0.00614 0.75437 0.0
O412 O 0.58946 -0.00258 0.75246 0.0
O413 O 0.58664 0.00657 0.71833 0.0
C414 C 0.63087 0.86631 0.74639 0.0
O415 O 0.51537 0.95592 0.76274 0.0
O416 O 0.51074 0.00821 0.73638 0.0
C417 C 0.48046 0.90156 0.70253 0.0
Fe418 Fe 0.71819 0.29804 0.75661 0.0
Fe419 Fe 0.75009 0.25655 0.71463 0.0
O420 O 0.73218 0.30724 0.73003 0.0
Fe421 Fe 0.72885 0.36738 0.71878 0.0
O422 O 0.76751 0.3913 0.73714 0.0
O423 O 0.73621 0.36061 0.76506 0.0
O424 O 0.77154 0.27515 0.76289 0.0
C425 C 0.78818 0.23713 0.75454 0.0
C426 C 0.6562 0.365 0.74653 0.0
O427 O 0.77599 0.22275 0.73656 0.0
C428 C 0.69614 0.31145 0.68707 0.0
O429 O 0.69734 0.23384 0.75264 0.0
O430 O 0.7001 0.22461 0.7185 0.0
O431 O 0.68309 0.38813 0.73512 0.0
O432 O 0.66387 0.32084 0.75237 0.0
C433 C 0.80652 0.32927 0.70268 0.0
O434 O 0.72658 0.2804 0.68992 0.0
O435 O 0.68997 0.34668 0.69975 0.0
C436 C 0.68587 0.21136 0.73605 0.0
O437 O 0.80159 0.28614 0.71014 0.0
O438 O 0.77448 0.35828 0.70071 0.0
C439 C 0.76009 0.39313 0.75643 0.0
Fe440 Fe 0.46824 0.68325 0.50648 0.0
Fe441 Fe 0.47878 0.61378 0.46868 0.0
O442 O 0.48222 0.67394 0.4799 0.0
Fe443 Fe 0.50024 0.72454 0.46448 0.0
O444 O 0.52623 0.75831 0.48639 0.0
O445 O 0.52163 0.70603 0.51275 0.0
O446 O 0.48615 0.62066 0.51496 0.0
C447 C 0.51 0.58807 0.50634 0.0
C448 C 0.43627 0.77014 0.4859 0.0
O449 O 0.51739 0.58982 0.48705 0.0
C450 C 0.44615 0.66974 0.43695 0.0
O451 O 0.41387 0.66056 0.50225 0.0
O452 O 0.43299 0.59319 0.48502 0.0
O453 O 0.45033 0.75665 0.46835 0.0
O454 O 0.44753 0.7475 0.50248 0.0
C455 C 0.55652 0.65164 0.45256 0.0
O456 O 0.43994 0.63453 0.44964 0.0
O457 O 0.47666 0.7007 0.43978 0.0
C458 C 0.40614 0.61639 0.49643 0.0
O459 O 0.52443 0.62271 0.45061 0.0
O460 O 0.55167 0.6948 0.45999 0.0
C461 C 0.53835 0.74397 0.50438 0.0
Fe462 Fe 0.28694 0.0067 0.46461 0.0
Fe463 Fe 0.31886 0.04817 0.50659 0.0
O464 O 0.30487 0.05738 0.48 0.0
Fe465 Fe 0.30822 0.11752 0.46876 0.0
O466 O 0.26259 0.10843 0.45069 0.0
O467 O 0.23546 0.03631 0.46012 0.0
O468 O 0.26104 0.9729 0.48653 0.0
C469 C 0.24887 0.98728 0.50451 0.0
C470 C 0.34092 0.06156 0.43705 0.0
O471 O 0.26552 0.02529 0.51287 0.0
C472 C 0.38087 0.11513 0.49651 0.0
O473 O 0.33693 0.97474 0.46848 0.0
O474 O 0.3397 0.98397 0.50262 0.0
O475 O 0.34709 0.0968 0.44973 0.0
O476 O 0.31046 0.03054 0.4399 0.0
C477 C 0.27698 0.14328 0.5064 0.0
O478 O 0.37319 0.07096 0.50234 0.0
O479 O 0.35399 0.13825 0.48509 0.0
C480 C 0.35115 0.96146 0.48603 0.0
O481 O 0.30086 0.11074 0.51504 0.0
O482 O 0.26958 0.14145 0.48712 0.0
C483 C 0.23054 0.07943 0.45265 0.0
Fe484 Fe 0.50009 0.0068 0.33478 0.0
Fe485 Fe 0.46805 0.0482 0.29281 0.0
O486 O 0.48208 0.05745 0.31938 0.0
Fe487 Fe 0.4787 0.11759 0.33062 0.0
O488 O 0.52436 0.10858 0.34867 0.0
O489 O 0.55155 0.03649 0.33925 0.0
O490 O 0.52601 0.97304 0.31285 0.0
C491 C 0.53812 0.9874 0.29485 0.0
C492 C 0.4461 0.06162 0.36235 0.0
O493 O 0.52141 0.02538 0.2865 0.0
C494 C 0.406 0.11509 0.3029 0.0
O495 O 0.45014 0.97476 0.33092 0.0
O496 O 0.44729 0.98396 0.29679 0.0
O497 O 0.43987 0.09684 0.34967 0.0
O498 O 0.47658 0.03063 0.35949 0.0
C499 C 0.50986 0.14335 0.29296 0.0
O500 O 0.41371 0.07092 0.29707 0.0
O501 O 0.43289 0.13825 0.3143 0.0
C502 C 0.43599 0.96136 0.31338 0.0
O503 O 0.48598 0.11079 0.28434 0.0
O504 O 0.51729 0.14155 0.31224 0.0
C505 C 0.55643 0.07962 0.34671 0.0
Fe506 Fe 0.28668 0.72472 0.33478 0.0
Fe507 Fe 0.31859 0.68331 0.29279 0.0
O508 O 0.30463 0.67407 0.31938 0.0
Fe509 Fe 0.30801 0.61392 0.33061 0.0
O510 O 0.26239 0.62295 0.34869 0.0
O511 O 0.23521 0.69507 0.33928 0.0
O512 O 0.26072 0.75851 0.31287 0.0
C513 C 0.24855 0.74413 0.29488 0.0
C514 C 0.34071 0.66987 0.36233 0.0
O515 O 0.26522 0.70615 0.28652 0.0
C516 C 0.38064 0.61639 0.30285 0.0
O517 O 0.33663 0.75674 0.3309 0.0
O518 O 0.33938 0.74753 0.29677 0.0
O519 O 0.34689 0.63465 0.34964 0.0
O520 O 0.31024 0.70088 0.35948 0.0
C521 C 0.27675 0.58818 0.29297 0.0
O522 O 0.37293 0.66056 0.29702 0.0
O523 O 0.35378 0.59324 0.31427 0.0
C524 C 0.35078 0.77008 0.31335 0.0
O525 O 0.30062 0.62073 0.28434 0.0
O526 O 0.26936 0.58998 0.31226 0.0
C527 C 0.23033 0.65193 0.34674 0.0
Fe528 Fe 0.53683 0.75664 0.0847 0.0
Fe529 Fe 0.55809 0.86747 0.08056 0.0
O530 O 0.55474 0.80734 0.06931 0.0
Fe531 Fe 0.5687 0.79814 0.04273 0.0
O532 O 0.51535 0.77526 0.03645 0.0
O533 O 0.51092 0.72285 0.06278 0.0
O534 O 0.48534 0.78624 0.0892 0.0
C535 C 0.48043 0.82937 0.09667 0.0
C536 C 0.60106 0.71147 0.06327 0.0
O537 O 0.51247 0.85837 0.09863 0.0
C538 C 0.63072 0.86508 0.0528 0.0
O539 O 0.56036 0.78047 0.10941 0.0
O540 O 0.59698 0.84674 0.09958 0.0
O541 O 0.58955 0.73395 0.04668 0.0
O542 O 0.58682 0.72469 0.08082 0.0
C543 C 0.52683 0.89325 0.04292 0.0
O544 O 0.60386 0.88821 0.06422 0.0
O545 O 0.62303 0.82093 0.04696 0.0
C546 C 0.59081 0.8115 0.11227 0.0
O547 O 0.51944 0.89142 0.06221 0.0
O548 O 0.5507 0.86072 0.03428 0.0
C549 C 0.49872 0.73724 0.0448 0.0
Fe550 Fe 0.71814 0.43326 0.04287 0.0
Fe551 Fe 0.75019 0.47455 0.08486 0.0
O552 O 0.73216 0.42395 0.06944 0.0
Fe553 Fe 0.72873 0.36379 0.08066 0.0
O554 O 0.76732 0.33984 0.06228 0.0
O555 O 0.73603 0.37066 0.03438 0.0
O556 O 0.77153 0.45603 0.03657 0.0
C557 C 0.78827 0.49397 0.04494 0.0
C558 C 0.65605 0.36641 0.05293 0.0
O559 O 0.77618 0.50831 0.06294 0.0
C560 C 0.69613 0.41974 0.1124 0.0
O561 O 0.69745 0.49753 0.04686 0.0
O562 O 0.70029 0.50667 0.081 0.0
O563 O 0.68292 0.3432 0.06432 0.0
O564 O 0.66378 0.41058 0.04711 0.0
C565 C 0.80647 0.40166 0.09678 0.0
O566 O 0.72662 0.45072 0.10955 0.0
O567 O 0.6899 0.38454 0.09971 0.0
C568 C 0.68626 0.52021 0.06345 0.0
O569 O 0.80162 0.44481 0.08934 0.0
O570 O 0.77439 0.37272 0.09873 0.0
C571 C 0.75991 0.33809 0.043 0.0
Fe572 Fe 0.53668 0.47468 0.21456 0.0
Fe573 Fe 0.55804 0.36389 0.21874 0.0
O574 O 0.55465 0.42405 0.22997 0.0
Fe575 Fe 0.56862 0.43332 0.25655 0.0
O576 O 0.51525 0.45615 0.26282 0.0
O577 O 0.51073 0.50848 0.23647 0.0
O578 O 0.48523 0.44501 0.21006 0.0
C579 C 0.48035 0.40186 0.20261 0.0
C580 C 0.60077 0.5201 0.23598 0.0
O581 O 0.51242 0.3729 0.20066 0.0
C582 C 0.63068 0.3664 0.2465 0.0
O583 O 0.56025 0.45083 0.18986 0.0
O584 O 0.59691 0.38461 0.19972 0.0
O585 O 0.5894 0.49755 0.25257 0.0
O586 O 0.58663 0.50671 0.21843 0.0
C587 C 0.52679 0.33818 0.25639 0.0
O588 O 0.60381 0.34323 0.23509 0.0
O589 O 0.62297 0.41057 0.25232 0.0
C590 C 0.59073 0.41982 0.18702 0.0
O591 O 0.5194 0.33996 0.2371 0.0
O592 O 0.55066 0.37074 0.26502 0.0
C593 C 0.49856 0.49412 0.25446 0.0
Fe594 Fe 0.71804 0.79822 0.2565 0.0
Fe595 Fe 0.75004 0.75682 0.21453 0.0
O596 O 0.73204 0.80747 0.22993 0.0
Fe597 Fe 0.72864 0.86761 0.21868 0.0
O598 O 0.76725 0.89159 0.23705 0.0
O599 O 0.73598 0.86082 0.26497 0.0
O600 O 0.77141 0.77541 0.2628 0.0
C601 C 0.78811 0.73743 0.25444 0.0
C602 C 0.65598 0.86511 0.24643 0.0
O603 O 0.77598 0.72306 0.23645 0.0
C604 C 0.69602 0.81162 0.18696 0.0
O605 O 0.69728 0.73399 0.25253 0.0
O606 O 0.70009 0.72478 0.21839 0.0
O607 O 0.68284 0.88827 0.23501 0.0
O608 O 0.66369 0.82094 0.25226 0.0
C609 C 0.80637 0.82964 0.20258 0.0
O610 O 0.7265 0.78063 0.18982 0.0
O611 O 0.6898 0.84685 0.19964 0.0
C612 C 0.68596 0.71139 0.23594 0.0
O613 O 0.80149 0.7865 0.21004 0.0
O614 O 0.7743 0.8586 0.20062 0.0
C615 C 0.75984 0.89338 0.25634 0.0
Fe616 Fe 0.46815 0.18327 1.00656 0.0
Fe617 Fe 0.47878 0.11388 0.96874 0.0
O618 O 0.48215 0.17402 0.97998 0.0
Fe619 Fe 0.50012 0.22468 0.96458 0.0
O620 O 0.52603 0.25848 0.9865 0.0
O621 O 0.5215 0.20613 1.01285 0.0
O622 O 0.48612 0.12069 1.01502 0.0
C623 C 0.50999 0.08814 1.0064 0.0
C624 C 0.43597 0.27003 0.98599 0.0
O625 O 0.51741 0.08995 0.98711 0.0
C626 C 0.44613 0.16982 0.93701 0.0
O627 O 0.41381 0.16049 1.00232 0.0
O628 O 0.433 0.09318 0.98507 0.0
O629 O 0.45015 0.25668 0.96844 0.0
O630 O 0.44734 0.24748 1.00258 0.0
C631 C 0.55648 0.15189 0.95264 0.0
O632 O 0.43993 0.1346 0.9497 0.0
O633 O 0.4766 0.20083 0.93987 0.0
C634 C 0.40612 0.11632 0.99649 0.0
O635 O 0.52443 0.12292 0.95068 0.0
O636 O 0.55159 0.19503 0.9601 0.0
C637 C 0.53818 0.24412 1.00449 0.0
Fe638 Fe 0.28669 0.50675 0.96452 0.0
Fe639 Fe 0.31869 0.54813 1.0065 0.0
O640 O 0.30468 0.55739 0.97992 0.0
Fe641 Fe 0.30807 0.61754 0.96868 0.0
O642 O 0.26242 0.60853 0.95062 0.0
O643 O 0.23524 0.53643 0.96003 0.0
O644 O 0.26075 0.47299 0.98644 0.0
C645 C 0.24862 0.48736 1.00443 0.0
C646 C 0.34072 0.56157 0.93696 0.0
O647 O 0.26532 0.52533 1.01279 0.0
C648 C 0.38075 0.61501 0.99642 0.0
O649 O 0.33663 0.4747 0.96838 0.0
O650 O 0.33944 0.48389 1.00252 0.0
O651 O 0.34691 0.59679 0.94965 0.0
O652 O 0.31024 0.53057 0.93981 0.0
C653 C 0.27688 0.64328 1.00634 0.0
O654 O 0.37304 0.57085 1.00224 0.0
O655 O 0.35387 0.63819 0.98502 0.0
C656 C 0.35076 0.4613 0.98593 0.0
O657 O 0.30076 0.61073 1.01496 0.0
O658 O 0.26946 0.64148 0.98705 0.0
C659 C 0.23036 0.57957 0.95258 0.0
Fe660 Fe 0.50018 0.50674 0.83481 0.0
Fe661 Fe 0.46822 0.54809 0.79282 0.0
O662 O 0.4822 0.55737 0.8194 0.0
Fe663 Fe 0.47879 0.61752 0.83062 0.0
O664 O 0.52442 0.60854 0.8487 0.0
O665 O 0.55163 0.53643 0.8393 0.0
O666 O 0.52614 0.47296 0.8129 0.0
C667 C 0.5383 0.48733 0.79491 0.0
C668 C 0.44613 0.56156 0.86235 0.0
O669 O 0.5216 0.52529 0.78654 0.0
C670 C 0.40613 0.61496 0.80288 0.0
O671 O 0.45024 0.47468 0.83094 0.0
O672 O 0.44747 0.48385 0.7968 0.0
O673 O 0.43993 0.59678 0.84966 0.0
O674 O 0.47661 0.53057 0.85951 0.0
C675 C 0.51001 0.64324 0.79297 0.0
O676 O 0.41386 0.57079 0.79705 0.0
O677 O 0.433 0.63814 0.81428 0.0
C678 C 0.43613 0.46127 0.81338 0.0
O679 O 0.48615 0.61068 0.78435 0.0
O680 O 0.51741 0.64147 0.81226 0.0
C681 C 0.5565 0.57958 0.84675 0.0
Fe682 Fe 0.28688 0.22456 0.83476 0.0
Fe683 Fe 0.31883 0.18316 0.79278 0.0
O684 O 0.30485 0.17391 0.81936 0.0
Fe685 Fe 0.30824 0.11377 0.8306 0.0
O686 O 0.26261 0.1228 0.84867 0.0
O687 O 0.23542 0.1949 0.83925 0.0
O688 O 0.26094 0.25836 0.81285 0.0
C689 C 0.24879 0.24401 0.79486 0.0
C690 C 0.34091 0.16973 0.86232 0.0
O691 O 0.26547 0.20602 0.7865 0.0
C692 C 0.38087 0.11622 0.80283 0.0
O693 O 0.33683 0.25658 0.8309 0.0
O694 O 0.33963 0.24738 0.79676 0.0
O695 O 0.34711 0.13451 0.84963 0.0
O696 O 0.31042 0.20072 0.85947 0.0
C697 C 0.277 0.08803 0.79295 0.0
O698 O 0.37317 0.1604 0.79701 0.0
O699 O 0.35401 0.09308 0.81426 0.0
C700 C 0.351 0.26995 0.81335 0.0
O701 O 0.30085 0.12058 0.78431 0.0
O702 O 0.26961 0.08982 0.81224 0.0
C703 C 0.23054 0.15176 0.84671 0.0
C704 C 0.13355 0.13921 0.04348 0.0
C705 C 0.12458 0.16359 0.06247 0.0
H706 H 0.15987 0.07381 0.02873 0.0
C707 C 0.13519 0.13983 0.08135 0.0
H708 H 0.12538 0.15647 0.02869 0.0
C709 C 0.15361 0.09276 0.08138 0.0
C710 C 0.16287 0.06812 0.06253 0.0
H711 H 0.12879 0.15727 0.09632 0.0
H712 H 0.16101 0.07601 0.09638 0.0
C713 C 0.15273 0.09174 0.0435 0.0
C714 C 0.15242 0.13939 0.21796 0.0
C715 C 0.16245 0.16351 0.23683 0.0
H716 H 0.12703 0.07529 0.20296 0.0
C717 C 0.15297 0.13945 0.25584 0.0
H718 H 0.15924 0.15655 0.20298 0.0
C719 C 0.13379 0.09198 0.25583 0.0
C720 C 0.12415 0.06805 0.23681 0.0
H721 H 0.1607 0.15698 0.27063 0.0
H722 H 0.12621 0.07432 0.27061 0.0
C723 C 0.13399 0.09233 0.21795 0.0
C724 C 0.90295 0.84194 1.00584 0.0
C725 C 0.91254 0.81795 0.98683 0.0
H726 H 0.8761 0.907 1.02063 0.0
C727 C 0.90264 0.84218 0.96796 0.0
H728 H 0.91057 0.82433 1.02063 0.0
C729 C 0.88424 0.88925 0.96796 0.0
C730 C 0.87427 0.91344 0.98683 0.0
H731 H 0.90956 0.82509 0.95298 0.0
H732 H 0.87737 0.90637 0.95298 0.0
C733 C 0.88378 0.88942 1.00584 0.0
C734 C 0.90332 0.88874 0.83138 0.0
C735 C 0.91285 0.91323 0.81253 0.0
H736 H 0.8783 0.82435 0.84632 0.0
C737 C 0.90294 0.88949 0.7935 0.0
H738 H 0.91053 0.90561 0.84637 0.0
C739 C 0.88375 0.84202 0.79347 0.0
C740 C 0.87454 0.81777 0.81247 0.0
H741 H 0.91028 0.9073 0.77872 0.0
H742 H 0.87578 0.82465 0.77868 0.0
C743 C 0.88489 0.84168 0.83134 0.0
C744 C 0.13386 0.63895 0.58137 0.0
C745 C 0.12423 0.66337 0.56251 0.0
H746 H 0.15895 0.57463 0.59633 0.0
C747 C 0.13405 0.63955 0.54349 0.0
H748 H 0.12674 0.65589 0.59637 0.0
C749 C 0.15322 0.59207 0.54347 0.0
C750 C 0.16252 0.5679 0.56248 0.0
H751 H 0.12663 0.6573 0.52871 0.0
H752 H 0.16111 0.57464 0.52868 0.0
C753 C 0.15228 0.59189 0.58135 0.0
C754 C 0.15358 0.639 0.75586 0.0
C755 C 0.16221 0.66362 0.73688 0.0
H756 H 0.12758 0.57339 0.77058 0.0
C757 C 0.15118 0.64014 0.718 0.0
H758 H 0.16208 0.65604 0.77065 0.0
C759 C 0.13275 0.59308 0.71794 0.0
C760 C 0.12391 0.56815 0.73678 0.0
H761 H 0.15727 0.6578 0.70305 0.0
H762 H 0.12504 0.57654 0.70294 0.0
C763 C 0.1344 0.59153 0.75581 0.0
C764 C 0.88323 0.38897 0.50588 0.0
C765 C 0.87492 0.4138 0.48691 0.0
H766 H 0.90895 0.32317 0.52056 0.0
C767 C 0.88631 0.39058 0.46803 0.0
H768 H 0.87445 0.40582 0.52067 0.0
C769 C 0.90475 0.34352 0.46795 0.0
C770 C 0.91323 0.31835 0.48677 0.0
H771 H 0.88049 0.40844 0.45309 0.0
H772 H 0.91274 0.32718 0.45294 0.0
C773 C 0.90242 0.3415 0.5058 0.0
C774 C 0.90302 0.38946 0.29348 0.0
C775 C 0.91246 0.41354 0.31249 0.0
H776 H 0.87631 0.32432 0.2787 0.0
C777 C 0.90239 0.38942 0.33136 0.0
H778 H 0.91078 0.40699 0.27869 0.0
C779 C 0.88398 0.34235 0.33137 0.0
C780 C 0.87419 0.31806 0.3125 0.0
H781 H 0.90917 0.4066 0.34634 0.0
H782 H 0.87698 0.32532 0.34635 0.0
C783 C 0.88385 0.34198 0.29349 0.0
C784 C 0.63404 0.13959 0.54351 0.0
C785 C 0.6242 0.16336 0.56254 0.0
H786 H 0.66113 0.07472 0.52868 0.0
C787 C 0.6338 0.1389 0.58139 0.0
H788 H 0.62664 0.15738 0.52873 0.0
C789 C 0.65222 0.09184 0.58135 0.0
C790 C 0.66249 0.06789 0.56247 0.0
H791 H 0.62666 0.1558 0.59639 0.0
H792 H 0.65887 0.07454 0.59633 0.0
C793 C 0.65321 0.09212 0.54348 0.0
C794 C 0.6324 0.09333 0.71794 0.0
C795 C 0.6238 0.06822 0.73676 0.0
H796 H 0.65674 0.1582 0.70309 0.0
C797 C 0.63451 0.09142 0.7558 0.0
H798 H 0.6245 0.07694 0.70294 0.0
C799 C 0.65369 0.13889 0.75588 0.0
C800 C 0.6621 0.16368 0.73691 0.0
H801 H 0.62788 0.07314 0.77056 0.0
H802 H 0.66238 0.15579 0.77067 0.0
C803 C 0.65083 0.14039 0.71803 0.0
C804 C 0.40423 0.84317 0.46794 0.0
C805 C 0.4131 0.81824 0.48677 0.0
H806 H 0.37971 0.90789 0.45305 0.0
C807 C 0.40265 0.84162 0.50581 0.0
H808 H 0.41191 0.82662 0.45294 0.0
C809 C 0.38348 0.8891 0.50587 0.0
C810 C 0.37483 0.91372 0.48689 0.0
H811 H 0.40948 0.82348 0.52057 0.0
H812 H 0.37502 0.90616 0.52066 0.0
C813 C 0.38582 0.89024 0.46801 0.0
C814 C 0.38466 0.84187 0.33135 0.0
C815 C 0.37432 0.81793 0.31248 0.0
H816 H 0.4103 0.90582 0.34637 0.0
C817 C 0.38352 0.84215 0.29348 0.0
H818 H 0.37807 0.82457 0.34633 0.0
C819 C 0.40271 0.88962 0.29349 0.0
C820 C 0.41263 0.91339 0.31251 0.0
H821 H 0.37555 0.82476 0.27869 0.0
H822 H 0.41005 0.90741 0.27871 0.0
C823 C 0.40309 0.88893 0.33137 0.0
C824 C 0.63655 0.6408 0.08128 0.0
C825 C 0.6249 0.66385 0.06239 0.0
H826 H 0.66317 0.57753 0.09638 0.0
C827 C 0.63299 0.63886 0.04344 0.0
H828 H 0.63091 0.65878 0.09621 0.0
C829 C 0.65218 0.59139 0.04353 0.0
C830 C 0.66321 0.5684 0.06257 0.0
H831 H 0.62401 0.65558 0.02866 0.0
H832 H 0.65851 0.57293 0.02878 0.0
C833 C 0.65499 0.59374 0.08137 0.0
C834 C 0.65286 0.63956 0.25584 0.0
C835 C 0.66255 0.66345 0.23682 0.0
H836 H 0.62591 0.57458 0.27064 0.0
C837 C 0.65275 0.63914 0.21796 0.0
H838 H 0.66041 0.65723 0.27062 0.0
C839 C 0.63432 0.59208 0.21797 0.0
C840 C 0.62424 0.56799 0.23684 0.0
H841 H 0.65975 0.65616 0.20296 0.0
H842 H 0.62753 0.5749 0.20299 0.0
C843 C 0.63368 0.59208 0.25585 0.0
C844 C 0.38375 0.38891 0.96795 0.0
C845 C 0.37413 0.41333 0.9868 0.0
H846 H 0.40884 0.32458 0.95299 0.0
C847 C 0.38396 0.38954 1.00583 0.0
H848 H 0.37661 0.40583 0.95295 0.0
C849 C 0.40315 0.34207 1.00585 0.0
C850 C 0.41244 0.31788 0.98685 0.0
H851 H 0.37655 0.4073 1.02061 0.0
H852 H 0.41106 0.32465 1.02064 0.0
C853 C 0.40218 0.34185 0.96797 0.0
C854 C 0.38389 0.34193 0.79348 0.0
C855 C 0.37447 0.31783 0.81249 0.0
H856 H 0.41059 0.4071 0.77871 0.0
C857 C 0.38457 0.34192 0.83136 0.0
H858 H 0.37612 0.32443 0.77869 0.0
C859 C 0.40297 0.38899 0.83137 0.0
C860 C 0.41274 0.41331 0.81251 0.0
H861 H 0.37779 0.32473 0.84634 0.0
H862 H 0.40998 0.406 0.84637 0.0
C863 C 0.40306 0.38941 0.79349 0.0
C864 C 0.92786 0.39924 0.1022 0.0
C865 C 0.93634 0.3477 0.1013 0.0
H866 H 0.88002 0.45681 0.10157 0.0
C867 C 0.90147 0.31416 0.10195 0.0
H868 H 0.95394 0.4261 0.10164 0.0
C869 C 0.85903 0.33179 0.1021 0.0
C870 C 0.85056 0.38333 0.10133 0.0
H871 H 0.90689 0.27422 0.10134 0.0
H872 H 0.83296 0.30493 0.10147 0.0
C873 C 0.88543 0.41686 0.10208 0.0
C874 C 0.40144 0.81411 0.10187 0.0
C875 C 0.43632 0.84764 0.10123 0.0
H876 H 0.33293 0.8049 0.10139 0.0
C877 C 0.42786 0.89917 0.10213 0.0
H878 H 0.40685 0.77416 0.10126 0.0
C879 C 0.38543 0.91681 0.10201 0.0
C880 C 0.35055 0.8833 0.10127 0.0
H881 H 0.45394 0.92603 0.10158 0.0
H882 H 0.38002 0.95677 0.10151 0.0
C883 C 0.35901 0.83175 0.10203 0.0
C884 C 0.88534 0.8144 0.19732 0.0
C885 C 0.85047 0.84793 0.19802 0.0
H886 H 0.95384 0.80516 0.19778 0.0
C887 C 0.85894 0.89947 0.19718 0.0
H888 H 0.87992 0.77445 0.19789 0.0
C889 C 0.90137 0.91709 0.19731 0.0
C890 C 0.93624 0.88356 0.19801 0.0
H891 H 0.83286 0.92633 0.19777 0.0
H892 H 0.90679 0.95704 0.19786 0.0
C893 C 0.92777 0.83202 0.19718 0.0
C894 C 0.38536 0.31438 0.19738 0.0
C895 C 0.35049 0.34791 0.19807 0.0
H896 H 0.45387 0.30516 0.19784 0.0
C897 C 0.35895 0.39945 0.19722 0.0
H898 H 0.37995 0.27443 0.19796 0.0
C899 C 0.40138 0.41708 0.19735 0.0
C900 C 0.43625 0.38356 0.19806 0.0
H901 H 0.33287 0.4263 0.19781 0.0
H902 H 0.40679 0.45703 0.1979 0.0
C903 C 0.42779 0.33201 0.19724 0.0
C904 C 0.13536 0.66703 0.94734 0.0
C905 C 0.10048 0.63351 0.94804 0.0
H906 H 0.20386 0.67627 0.94778 0.0
C907 C 0.10895 0.58197 0.9472 0.0
H908 H 0.12994 0.70699 0.9479 0.0
C909 C 0.15138 0.56434 0.94733 0.0
C910 C 0.18626 0.59787 0.94802 0.0
H911 H 0.08288 0.55511 0.9478 0.0
H912 H 0.1568 0.52439 0.94789 0.0
C913 C 0.17779 0.64941 0.94719 0.0
C914 C 0.60905 0.08207 0.9472 0.0
C915 C 0.60059 0.13361 0.94807 0.0
H916 H 0.65688 0.02448 0.94786 0.0
C917 C 0.63546 0.16713 0.94739 0.0
H918 H 0.58297 0.05522 0.94778 0.0
C919 C 0.67789 0.1495 0.94724 0.0
C920 C 0.68635 0.09795 0.94804 0.0
H921 H 0.63005 0.20708 0.94799 0.0
H922 H 0.70397 0.17635 0.94786 0.0
C923 C 0.65147 0.06444 0.94732 0.0
C924 C 0.17798 0.08193 0.85213 0.0
C925 C 0.18644 0.13347 0.85128 0.0
H926 H 0.13014 0.02435 0.85145 0.0
C927 C 0.15157 0.167 0.85198 0.0
H928 H 0.20406 0.05508 0.85153 0.0
C929 C 0.10914 0.14937 0.85213 0.0
C930 C 0.10067 0.09783 0.85131 0.0
H931 H 0.15698 0.20695 0.85141 0.0
H932 H 0.08306 0.17622 0.85153 0.0
C933 C 0.13555 0.0643 0.852 0.0
C934 C 0.63547 0.56438 0.85201 0.0
C935 C 0.60059 0.5979 0.85129 0.0
H936 H 0.70397 0.55516 0.85155 0.0
C937 C 0.60906 0.64945 0.85208 0.0
H938 H 0.63006 0.52443 0.85148 0.0
C939 C 0.65149 0.66708 0.85193 0.0
C940 C 0.68636 0.63355 0.85125 0.0
H941 H 0.58298 0.6763 0.85147 0.0
H942 H 0.6569 0.70703 0.85133 0.0
C943 C 0.6779 0.58202 0.85213 0.0
C944 C 0.88551 0.91716 0.60192 0.0
C945 C 0.85063 0.88363 0.60124 0.0
H946 H 0.95401 0.92638 0.60146 0.0
C947 C 0.8591 0.83209 0.60211 0.0
H948 H 0.88009 0.9571 0.60133 0.0
C949 C 0.90153 0.81446 0.60199 0.0
C950 C 0.9364 0.84798 0.60128 0.0
H951 H 0.83303 0.80523 0.60153 0.0
H952 H 0.90694 0.77451 0.60145 0.0
C953 C 0.92794 0.89953 0.60207 0.0
C954 C 0.3591 0.33209 0.60216 0.0
C955 C 0.35063 0.38363 0.60129 0.0
H956 H 0.40695 0.27451 0.60151 0.0
C957 C 0.3855 0.41716 0.60197 0.0
H958 H 0.33303 0.30523 0.60158 0.0
C959 C 0.42793 0.39953 0.60212 0.0
C960 C 0.4364 0.34799 0.60133 0.0
H961 H 0.38009 0.45711 0.60137 0.0
H962 H 0.45401 0.42639 0.60151 0.0
C963 C 0.40153 0.31446 0.60205 0.0
C964 C 0.92794 0.33161 0.69732 0.0
C965 C 0.9364 0.38316 0.69804 0.0
H966 H 0.8801 0.27403 0.69814 0.0
C967 C 0.90152 0.41667 0.69726 0.0
H968 H 0.95402 0.30477 0.69799 0.0
C969 C 0.85909 0.39904 0.69715 0.0
C970 C 0.85063 0.3475 0.6981 0.0
H971 H 0.90693 0.45663 0.69774 0.0
H972 H 0.83302 0.4259 0.69768 0.0
C973 C 0.88551 0.31397 0.69749 0.0
C974 C 0.40149 0.91673 0.69724 0.0
C975 C 0.43637 0.88321 0.69799 0.0
H976 H 0.33299 0.92598 0.69767 0.0
C977 C 0.4279 0.83166 0.69724 0.0
H978 H 0.40691 0.95669 0.69774 0.0
C979 C 0.38547 0.81404 0.6974 0.0
C980 C 0.35059 0.84758 0.69804 0.0
H981 H 0.45398 0.80482 0.69788 0.0
H982 H 0.38005 0.77409 0.69803 0.0
C983 C 0.35906 0.89911 0.69712 0.0
C984 C 0.17797 0.14922 0.44716 0.0
C985 C 0.18643 0.09768 0.44807 0.0
H986 H 0.13012 0.2068 0.44777 0.0
C987 C 0.15156 0.06415 0.44743 0.0
H988 H 0.20404 0.17608 0.44771 0.0
C989 C 0.10913 0.08178 0.44726 0.0
C990 C 0.10066 0.13333 0.44802 0.0
H991 H 0.15697 0.02421 0.44805 0.0
H992 H 0.08305 0.05493 0.4479 0.0
C993 C 0.13554 0.16685 0.44727 0.0
C994 C 0.67791 0.64916 0.44716 0.0
C995 C 0.68638 0.59762 0.44808 0.0
H996 H 0.63008 0.70675 0.44776 0.0
C997 C 0.6515 0.56409 0.44744 0.0
H998 H 0.70399 0.67601 0.4477 0.0
C999 C 0.60907 0.58173 0.44728 0.0
C1000 C 0.60061 0.63328 0.44802 0.0
H1001 H 0.65691 0.52415 0.44808 0.0
H1002 H 0.58299 0.55489 0.44792 0.0
C1003 C 0.63549 0.66679 0.44726 0.0
C1004 C 0.13534 0.56445 0.35198 0.0
C1005 C 0.10046 0.59797 0.35128 0.0
H1006 H 0.20384 0.55523 0.35153 0.0
C1007 C 0.10892 0.64951 0.35211 0.0
H1008 H 0.12992 0.5245 0.35142 0.0
C1009 C 0.15135 0.66715 0.35198 0.0
C1010 C 0.18622 0.63363 0.35129 0.0
H1011 H 0.08284 0.67636 0.35151 0.0
H1012 H 0.15676 0.7071 0.35141 0.0
C1013 C 0.17776 0.58208 0.35213 0.0
C1014 C 0.67783 0.08201 0.35211 0.0
C1015 C 0.6863 0.13355 0.35129 0.0
H1016 H 0.62999 0.02443 0.35139 0.0
C1017 C 0.65142 0.16708 0.352 0.0
H1018 H 0.70391 0.05515 0.3515 0.0
C1019 C 0.609 0.14945 0.35213 0.0
C1020 C 0.60053 0.09791 0.35128 0.0
H1021 H 0.65684 0.20703 0.35145 0.0
H1022 H 0.58292 0.17631 0.35154 0.0
C1023 C 0.63541 0.06438 0.35196 0.0
C1024 C 0.13054 0.35553 0.14073 0.0
C1025 C 0.11688 0.31041 0.1317 0.0
H1026 H 0.16577 0.39106 0.16531 0.0
C1027 C 0.13002 0.26509 0.14082 0.0
H1028 H 0.12095 0.39103 0.13405 0.0
C1029 C 0.15691 0.26511 0.15851 0.0
C1030 C 0.16998 0.31045 0.16763 0.0
H1031 H 0.12024 0.22979 0.13403 0.0
H1032 H 0.16676 0.22982 0.16528 0.0
C1033 C 0.15624 0.35555 0.15862 0.0
C1034 C 0.12999 0.96628 0.1585 0.0
C1035 C 0.11681 0.92096 0.1676 0.0
H1036 H 0.1668 0.00153 0.13406 0.0
C1037 C 0.13048 0.87583 0.15858 0.0
H1038 H 0.12021 0.00158 0.16528 0.0
C1039 C 0.15621 0.87581 0.1407 0.0
C1040 C 0.16999 0.92091 0.1317 0.0
H1041 H 0.12085 0.84034 0.16525 0.0
H1042 H 0.16574 0.84029 0.13402 0.0
C1043 C 0.15693 0.96625 0.14083 0.0
C1044 C 0.90622 0.62581 0.90861 0.0
C1045 C 0.91995 0.67093 0.91762 0.0
H1046 H 0.87095 0.59031 0.88404 0.0
C1047 C 0.90689 0.71626 0.90848 0.0
H1048 H 0.91574 0.59031 0.91531 0.0
C1049 C 0.88001 0.71626 0.89079 0.0
C1050 C 0.86688 0.67093 0.88168 0.0
H1051 H 0.91673 0.75155 0.91525 0.0
H1052 H 0.87024 0.75155 0.884 0.0
C1053 C 0.88054 0.62581 0.89071 0.0
C1054 C 0.90649 0.10549 0.89077 0.0
C1055 C 0.92014 0.06037 0.88174 0.0
H1056 H 0.87122 0.14103 0.91533 0.0
C1057 C 0.90695 0.01505 0.89084 0.0
H1058 H 0.91611 0.14099 0.8841 0.0
C1059 C 0.88001 0.01507 0.90851 0.0
C1060 C 0.86695 0.06042 0.91764 0.0
H1061 H 0.91672 0.97975 0.88406 0.0
H1062 H 0.87013 0.97979 0.91528 0.0
C1063 C 0.88074 0.10552 0.90864 0.0
C1064 C 0.15642 0.85547 0.65862 0.0
C1065 C 0.17004 0.81033 0.66765 0.0
H1066 H 0.12122 0.89102 0.63404 0.0
C1067 C 0.15684 0.76502 0.65854 0.0
H1068 H 0.16606 0.89096 0.66529 0.0
C1069 C 0.12994 0.76506 0.64086 0.0
C1070 C 0.11693 0.81041 0.63173 0.0
H1071 H 0.16659 0.72972 0.66533 0.0
H1072 H 0.12006 0.72978 0.63409 0.0
C1073 C 0.13072 0.85551 0.64073 0.0
C1074 C 0.15687 0.46623 0.64078 0.0
C1075 C 0.17007 0.42092 0.63168 0.0
H1076 H 0.12006 0.50147 0.66522 0.0
C1077 C 0.15645 0.37579 0.6407 0.0
H1078 H 0.16662 0.50154 0.63399 0.0
C1079 C 0.13073 0.37575 0.65859 0.0
C1080 C 0.11693 0.42084 0.66759 0.0
H1081 H 0.16609 0.3403 0.63404 0.0
H1082 H 0.12124 0.34023 0.66528 0.0
C1083 C 0.12995 0.46619 0.65846 0.0
C1084 C 0.88006 0.21629 0.39079 0.0
C1085 C 0.86691 0.17097 0.38168 0.0
H1086 H 0.91686 0.25156 0.41523 0.0
C1087 C 0.88061 0.12585 0.39069 0.0
H1088 H 0.87024 0.25159 0.38402 0.0
C1089 C 0.90636 0.12583 0.40857 0.0
C1090 C 0.92011 0.17094 0.41757 0.0
H1091 H 0.87101 0.09035 0.38401 0.0
H1092 H 0.91592 0.09033 0.41524 0.0
C1093 C 0.90701 0.21628 0.40846 0.0
C1094 C 0.88008 0.51506 0.40855 0.0
C1095 C 0.86689 0.56037 0.41766 0.0
H1096 H 0.91683 0.47982 0.38409 0.0
C1097 C 0.88048 0.6055 0.40862 0.0
H1098 H 0.87035 0.47975 0.41535 0.0
C1099 C 0.90616 0.60554 0.39072 0.0
C1100 C 0.91994 0.56044 0.38171 0.0
H1101 H 0.87086 0.64099 0.41529 0.0
H1102 H 0.91563 0.64105 0.38402 0.0
C1103 C 0.90695 0.51509 0.39086 0.0
C1104 C 0.62995 0.26505 0.64091 0.0
C1105 C 0.61694 0.3104 0.63177 0.0
H1106 H 0.6666 0.2297 0.66538 0.0
C1107 C 0.63074 0.35549 0.64078 0.0
H1108 H 0.62006 0.22977 0.63414 0.0
C1109 C 0.65645 0.35545 0.65867 0.0
C1110 C 0.67006 0.31031 0.6677 0.0
H1111 H 0.62125 0.39101 0.63409 0.0
H1112 H 0.66609 0.39094 0.66534 0.0
C1113 C 0.65686 0.265 0.65859 0.0
C1114 C 0.65688 0.96624 0.64075 0.0
C1115 C 0.67006 0.92093 0.63164 0.0
H1116 H 0.62007 0.00149 0.66519 0.0
C1117 C 0.65642 0.8758 0.64066 0.0
H1118 H 0.66664 0.00155 0.63396 0.0
C1119 C 0.63069 0.87577 0.65855 0.0
C1120 C 0.6169 0.92086 0.66755 0.0
H1121 H 0.66605 0.84031 0.63399 0.0
H1122 H 0.62118 0.84025 0.66523 0.0
C1123 C 0.62995 0.96621 0.65842 0.0
C1124 C 0.4062 0.62584 0.4086 0.0
C1125 C 0.42003 0.67094 0.41759 0.0
H1126 H 0.37079 0.59039 0.38406 0.0
C1127 C 0.40699 0.71629 0.40845 0.0
H1128 H 0.4157 0.59033 0.41528 0.0
C1129 C 0.38004 0.71632 0.39079 0.0
C1130 C 0.36682 0.67101 0.38169 0.0
H1131 H 0.4169 0.75157 0.41521 0.0
H1132 H 0.37029 0.75163 0.384 0.0
C1133 C 0.38045 0.62588 0.39072 0.0
C1134 C 0.3801 0.01509 0.40855 0.0
C1135 C 0.36698 0.06041 0.41767 0.0
H1136 H 0.4168 0.97981 0.38408 0.0
C1137 C 0.38066 0.10553 0.40865 0.0
H1138 H 0.37031 0.97979 0.41533 0.0
C1139 C 0.40634 0.10555 0.39075 0.0
C1140 C 0.42005 0.06044 0.38173 0.0
H1141 H 0.37109 0.14103 0.41533 0.0
H1142 H 0.41588 0.14105 0.38407 0.0
C1143 C 0.40698 0.0151 0.39086 0.0
C1144 C 0.63049 0.85549 0.14068 0.0
C1145 C 0.61687 0.81036 0.13164 0.0
H1146 H 0.66568 0.89104 0.16527 0.0
C1147 C 0.63005 0.76505 0.14076 0.0
H1148 H 0.62088 0.89098 0.134 0.0
C1149 C 0.65693 0.76508 0.15845 0.0
C1150 C 0.66995 0.81043 0.16758 0.0
H1151 H 0.6203 0.72974 0.13396 0.0
H1152 H 0.6668 0.7298 0.16522 0.0
C1153 C 0.65618 0.85552 0.15858 0.0
C1154 C 0.65626 0.37583 0.14077 0.0
C1155 C 0.67003 0.42093 0.13176 0.0
H1156 H 0.6209 0.34035 0.16532 0.0
C1157 C 0.65695 0.46627 0.14089 0.0
H1158 H 0.66579 0.34032 0.13408 0.0
C1159 C 0.63001 0.4663 0.15856 0.0
C1160 C 0.61684 0.42098 0.16766 0.0
H1161 H 0.66682 0.50156 0.13412 0.0
H1162 H 0.62022 0.50159 0.16534 0.0
C1163 C 0.63052 0.37585 0.15865 0.0
C1164 C 0.38002 0.21626 0.89083 0.0
C1165 C 0.36699 0.17092 0.88169 0.0
H1166 H 0.41666 0.25158 0.91531 0.0
C1167 C 0.38076 0.12581 0.8907 0.0
H1168 H 0.37016 0.25154 0.88406 0.0
C1169 C 0.40645 0.12584 0.9086 0.0
C1170 C 0.42008 0.17096 0.91763 0.0
H1171 H 0.37126 0.0903 0.884 0.0
H1172 H 0.41606 0.09034 0.91527 0.0
C1173 C 0.40691 0.21628 0.90852 0.0
C1174 C 0.37997 0.51506 0.9085 0.0
C1175 C 0.36681 0.56039 0.9176 0.0
H1176 H 0.41677 0.47977 0.88406 0.0
C1177 C 0.3805 0.60551 0.90858 0.0
H1178 H 0.37016 0.47977 0.91528 0.0
C1179 C 0.40625 0.60551 0.8907 0.0
C1180 C 0.42001 0.56039 0.88171 0.0
H1181 H 0.3709 0.64101 0.91525 0.0
H1182 H 0.41581 0.64101 0.88402 0.0
C1183 C 0.40691 0.51506 0.89083 0.0
C1184 C 0.0449 0.45502 1.01515 0.0
C1185 C 0.01991 0.44164 0.03257 0.0
H1186 H 0.06284 0.5127 0.99379 0.0
C1187 C 0.99334 0.47777 0.04198 0.0
H1188 H 0.06645 0.42841 1.00784 0.0
C1189 C 0.99194 0.52635 0.0342 0.0
C1190 C 1.01693 0.53973 1.01678 0.0
H1191 H 0.97401 0.46867 0.05556 0.0
H1192 H 0.97039 0.55297 0.04151 0.0
C1193 C 0.04351 0.50361 1.00738 0.0
C1194 C 0.29494 0.70503 0.03414 0.0
C1195 C 0.2699 0.69164 1.01674 0.0
H1196 H 0.31291 0.76271 0.0555 0.0
C1197 C 0.24329 0.72776 1.00735 0.0
H1198 H 0.31651 0.67842 0.04144 0.0
C1199 C 0.2419 0.77634 1.01513 0.0
C1200 C 0.26693 0.78972 0.03254 0.0
H1201 H 0.22393 0.71865 0.99378 0.0
H1202 H 0.22033 0.80295 1.00784 0.0
C1203 C 0.29355 0.75361 0.04192 0.0
C1204 C 0.04477 0.77647 0.28418 0.0
C1205 C 0.01981 0.78982 0.26675 0.0
H1206 H 0.06268 0.71883 0.30557 0.0
C1207 C 0.99326 0.75366 0.25734 0.0
H1208 H 0.06628 0.80311 0.2915 0.0
C1209 C 0.99187 0.70509 0.26512 0.0
C1210 C 1.01684 0.69175 0.28256 0.0
H1211 H 0.97395 0.76273 0.24374 0.0
H1212 H 0.97035 0.67845 0.25781 0.0
C1213 C 0.04338 0.7279 0.29197 0.0
C1214 C 0.24185 0.45508 0.28421 0.0
C1215 C 0.26684 0.44171 0.26679 0.0
H1216 H 0.22389 0.51276 0.30557 0.0
C1217 C 0.29339 0.47785 0.25738 0.0
H1218 H 0.22032 0.42845 0.29152 0.0
C1219 C 0.29476 0.52644 0.26515 0.0
C1220 C 0.26977 0.53981 0.28257 0.0
H1221 H 0.31272 0.46877 0.24379 0.0
H1222 H 0.31628 0.55307 0.25784 0.0
C1223 C 0.24322 0.50367 0.29198 0.0
C1224 C 0.79349 0.25361 0.04198 0.0
C1225 C 0.7669 0.28974 0.03258 0.0
H1226 H 0.81644 0.17841 0.0415 0.0
C1227 C 0.74192 0.27638 1.01516 0.0
H1228 H 0.81281 0.26269 0.05557 0.0
C1229 C 0.74333 0.22781 1.00737 0.0
C1230 C 0.76991 0.19168 1.01677 0.0
H1231 H 0.72037 0.30301 1.00786 0.0
H1232 H 0.72401 0.21873 0.99378 0.0
C1233 C 0.79489 0.20504 0.03419 0.0
C1234 C 0.04362 0.2277 0.79198 0.0
C1235 C 1.01703 0.19157 0.78258 0.0
H1236 H 0.06658 0.30289 0.79149 0.0
C1237 C 0.99203 0.20493 0.76516 0.0
H1238 H 0.06295 0.21861 0.80556 0.0
C1239 C 0.99344 0.2535 0.75737 0.0
C1240 C 0.02003 0.28963 0.76677 0.0
H1241 H 0.97047 0.17831 0.75786 0.0
H1242 H 0.9741 0.26259 0.74379 0.0
C1243 C 0.04502 0.27627 0.78419 0.0
C1244 C 0.79366 0.47762 0.7574 0.0
C1245 C 0.76705 0.44153 0.76681 0.0
H1246 H 0.81661 0.55283 0.75785 0.0
C1247 C 0.74199 0.45497 0.78419 0.0
H1248 H 0.81305 0.46848 0.74384 0.0
C1249 C 0.74335 0.50358 0.79194 0.0
C1250 C 0.76997 0.53967 0.78254 0.0
H1251 H 0.72042 0.42838 0.7915 0.0
H1252 H 0.72397 0.51272 0.8055 0.0
C1253 C 0.79503 0.52623 0.76515 0.0
C1254 C 0.99344 0.97781 0.54196 0.0
C1255 C 0.02004 0.9417 0.53256 0.0
H1256 H 0.97045 0.053 0.54146 0.0
C1257 C 0.04505 0.95508 0.51515 0.0
H1258 H 0.97409 0.96872 0.55554 0.0
C1259 C 0.04364 0.00365 0.50737 0.0
C1260 C 1.01703 0.03976 0.51675 0.0
H1261 H 0.06662 0.92846 0.50786 0.0
H1262 H 0.06299 0.01274 0.49379 0.0
C1263 C 0.99202 0.02639 0.53417 0.0
C1264 C 0.29507 0.20509 0.53418 0.0
C1265 C 0.27001 0.19166 0.51679 0.0
H1266 H 0.31307 0.26282 0.5555 0.0
C1267 C 0.24339 0.22775 0.50739 0.0
H1268 H 0.31665 0.17849 0.54148 0.0
C1269 C 0.24202 0.27636 0.51515 0.0
C1270 C 0.26707 0.28978 0.53254 0.0
H1271 H 0.22401 0.21862 0.49383 0.0
H1272 H 0.22044 0.30295 0.50785 0.0
C1273 C 0.29369 0.25369 0.54194 0.0
C1274 C 0.29498 0.02628 0.76513 0.0
C1275 C 0.27 0.03966 0.78255 0.0
H1276 H 0.31292 0.96859 0.74377 0.0
C1277 C 0.24344 0.00353 0.79196 0.0
H1278 H 0.31652 0.0529 0.75781 0.0
C1279 C 0.24205 0.95494 0.78419 0.0
C1280 C 0.26704 0.94156 0.76677 0.0
H1281 H 0.22411 0.01263 0.80555 0.0
H1282 H 0.22052 0.92832 0.7915 0.0
C1283 C 0.2936 0.97769 0.75735 0.0
C1284 C 0.7937 0.75374 0.54189 0.0
C1285 C 0.76706 0.78981 0.5325 0.0
H1286 H 0.81667 0.67855 0.54144 0.0
C1287 C 0.74197 0.77636 0.51513 0.0
H1288 H 0.81311 0.76289 0.55545 0.0
C1289 C 0.74334 0.72775 0.50738 0.0
C1290 C 0.76998 0.69167 0.51677 0.0
H1291 H 0.72037 0.80294 0.50783 0.0
H1292 H 0.72394 0.71859 0.49382 0.0
C1293 C 0.79507 0.70513 0.53414 0.0
C1294 C 0.7934 0.97788 0.25733 0.0
C1295 C 0.76682 0.94175 0.26674 0.0
H1296 H 0.81635 0.05308 0.25781 0.0
C1297 C 0.74184 0.95512 0.28416 0.0
H1298 H 0.81273 0.96879 0.24375 0.0
C1299 C 0.74324 0.0037 0.29194 0.0
C1300 C 0.76982 0.03983 0.28254 0.0
H1301 H 0.72029 0.9285 0.29147 0.0
H1302 H 0.72391 0.01279 0.30553 0.0
C1303 C 0.7948 0.02646 0.26512 0.0
C1304 C 0.4935 0.47787 0.54201 0.0
C1305 C 0.52005 0.44172 0.53261 0.0
H1306 H 0.47055 0.55307 0.54151 0.0
C1307 C 0.54499 0.45504 0.51517 0.0
H1308 H 0.4742 0.46882 0.55561 0.0
C1309 C 0.54358 0.5036 0.50737 0.0
C1310 C 0.51702 0.53975 0.51676 0.0
H1311 H 0.56652 0.4284 0.50786 0.0
H1312 H 0.56287 0.51265 0.49376 0.0
C1313 C 0.49208 0.52643 0.53421 0.0
C1314 C 0.49346 0.75348 0.75732 0.0
C1315 C 0.52002 0.78963 0.76673 0.0
H1316 H 0.47051 0.67828 0.75782 0.0
C1317 C 0.54498 0.77629 0.78416 0.0
H1318 H 0.47414 0.76254 0.74373 0.0
C1319 C 0.54357 0.72773 0.79196 0.0
C1320 C 0.51701 0.69158 0.78256 0.0
H1321 H 0.56651 0.80293 0.79147 0.0
H1322 H 0.56288 0.71867 0.80555 0.0
C1323 C 0.49205 0.70492 0.76512 0.0
C1324 C 0.49319 0.25371 0.25739 0.0
C1325 C 0.5198 0.28982 0.26679 0.0
H1326 H 0.47022 0.17852 0.25786 0.0
C1327 C 0.54483 0.27641 0.28419 0.0
H1328 H 0.47382 0.26283 0.24382 0.0
C1329 C 0.54345 0.22782 0.29196 0.0
C1330 C 0.51683 0.19171 0.28256 0.0
H1331 H 0.56641 0.30301 0.29149 0.0
H1332 H 0.56282 0.2187 0.30553 0.0
C1333 C 0.4918 0.20512 0.26516 0.0
C1334 C 0.5449 0.95505 1.01514 0.0
C1335 C 0.51987 0.94165 0.03254 0.0
H1336 H 0.56291 0.01276 0.99381 0.0
C1337 C 0.4933 0.97777 0.04196 0.0
H1338 H 0.56645 0.92843 1.00783 0.0
C1339 C 0.49194 0.02637 0.03419 0.0
C1340 C 0.51697 0.03977 1.01679 0.0
H1341 H 0.47394 0.96865 0.05553 0.0
H1342 H 0.47039 0.05298 0.0415 0.0
C1343 C 0.54355 0.00365 1.00738 0.0
C1344 C 0.1736 0.44382 0.04777 0.0
C1345 C 0.16455 0.39435 0.04178 0.0
H1346 H 0.20674 0.51193 0.04069 0.0
C1347 C 0.18399 0.37557 1.02351 0.0
H1348 H 0.15898 0.45971 0.06163 0.0
C1349 C 0.21076 0.40588 1.01126 0.0
C1350 C 0.21921 0.45557 1.01709 0.0
H1351 H 0.17747 0.33786 1.01825 0.0
H1352 H 0.22485 0.39027 0.99721 0.0
C1353 C 0.20074 0.47393 0.03565 0.0
C1354 C 0.11314 0.78767 0.0478 0.0
C1355 C 0.12227 0.8371 0.04178 0.0
H1356 H 0.07992 0.71959 0.04075 0.0
C1357 C 0.1029 0.85583 1.02348 0.0
H1358 H 0.12771 0.77181 0.06168 0.0
C1359 C 0.07611 0.82551 1.01124 0.0
C1360 C 0.06757 0.77586 1.0171 0.0
H1361 H 0.10949 0.8935 1.0182 0.0
H1362 H 0.06206 0.84108 0.99718 0.0
C1363 C 0.08598 0.75755 0.03569 0.0
C1364 C 0.21065 0.82561 0.28807 0.0
C1365 C 0.21914 0.77592 0.28223 0.0
H1366 H 0.17733 0.89361 0.28108 0.0
C1367 C 0.20068 0.75757 0.26366 0.0
H1368 H 0.22473 0.84121 0.30212 0.0
C1369 C 0.17353 0.78768 0.25154 0.0
C1370 C 0.16446 0.83714 0.25753 0.0
H1371 H 0.2067 0.71958 0.25862 0.0
H1372 H 0.15893 0.7718 0.23767 0.0
C1373 C 0.18387 0.85592 0.27582 0.0
C1374 C 0.11313 0.44383 0.25153 0.0
C1375 C 0.1222 0.39438 0.25754 0.0
H1376 H 0.07994 0.51194 0.25859 0.0
C1377 C 0.10278 0.37563 0.27582 0.0
H1378 H 0.12773 0.4597 0.23766 0.0
C1379 C 0.076 0.40595 0.28806 0.0
C1380 C 0.06751 0.45563 0.28221 0.0
H1381 H 0.10932 0.33795 0.2811 0.0
H1382 H 0.06191 0.39037 0.30211 0.0
C1383 C 0.08596 0.47395 0.26364 0.0
C1384 C 0.85294 0.60576 0.02588 0.0
C1385 C 0.8723 0.58702 1.00758 0.0
H1386 H 0.81216 0.59101 0.0522 0.0
C1387 C 0.86319 0.53758 1.00157 0.0
H1388 H 0.85951 0.64343 0.03116 0.0
C1389 C 0.83606 0.50745 1.0137 0.0
C1390 C 0.81767 0.52576 0.03228 0.0
H1391 H 0.87775 0.52172 0.98768 0.0
H1392 H 0.83002 0.46948 1.00864 0.0
C1393 C 0.82619 0.57543 0.03813 0.0
C1394 C 0.92371 0.19374 1.00153 0.0
C1395 C 0.91461 0.14429 1.00753 0.0
H1396 H 0.95691 0.26182 1.00859 0.0
C1397 C 0.93402 0.12552 0.02581 0.0
H1398 H 0.90911 0.20961 0.98765 0.0
C1399 C 0.96081 0.15583 0.03805 0.0
C1400 C 0.96932 0.2055 0.03221 0.0
H1401 H 0.92746 0.08784 0.03109 0.0
H1402 H 0.97489 0.14023 0.05211 0.0
C1403 C 0.95088 0.22384 1.01364 0.0
C1404 C 0.85289 0.12537 0.77359 0.0
C1405 C 0.87234 0.14416 0.79186 0.0
H1406 H 0.81197 0.14005 0.74731 0.0
C1407 C 0.86326 0.19362 0.79786 0.0
H1408 H 0.85943 0.08768 0.76832 0.0
C1409 C 0.83607 0.22371 0.78575 0.0
C1410 C 0.81759 0.20535 0.76719 0.0
H1411 H 0.87789 0.20951 0.81172 0.0
H1412 H 0.83006 0.2617 0.79079 0.0
C1413 C 0.82608 0.15566 0.76135 0.0
C1414 C 0.96074 0.57534 0.76121 0.0
C1415 C 0.96924 0.52566 0.76706 0.0
H1416 H 0.92743 0.64335 0.76818 0.0
C1417 C 0.9508 0.50734 0.78563 0.0
H1418 H 0.97481 0.59092 0.74715 0.0
C1419 C 0.92365 0.53747 0.79775 0.0
C1420 C 0.91457 0.58693 0.79174 0.0
H1421 H 0.95682 0.46936 0.79069 0.0
H1422 H 0.90905 0.52162 0.81162 0.0
C1423 C 0.93398 0.60567 0.77345 0.0
C1424 C 0.17382 0.94372 0.54784 0.0
C1425 C 0.16472 0.89428 0.54183 0.0
H1426 H 0.20703 0.0118 0.54079 0.0
C1427 C 0.18415 0.87551 0.52355 0.0
H1428 H 0.15922 0.9596 0.56171 0.0
C1429 C 0.21095 0.90581 0.51132 0.0
C1430 C 0.21946 0.95548 0.51716 0.0
H1431 H 0.17759 0.83783 0.51828 0.0
H1432 H 0.22504 0.89022 0.49727 0.0
C1433 C 0.201 0.97382 0.53573 0.0
C1434 C 0.11337 0.28757 0.54774 0.0
C1435 C 0.12245 0.33703 0.54174 0.0
H1436 H 0.08021 0.21947 0.54067 0.0
C1437 C 0.10305 0.35578 0.52345 0.0
H1438 H 0.12796 0.27171 0.56162 0.0
C1439 C 0.07629 0.32545 0.5112 0.0
C1440 C 0.06779 0.27578 0.51704 0.0
H1441 H 0.10959 0.39346 0.51818 0.0
H1442 H 0.06222 0.34104 0.49714 0.0
C1443 C 0.08623 0.25745 0.53562 0.0
C1444 C 0.20102 0.25753 0.76361 0.0
C1445 C 0.21938 0.27581 0.78221 0.0
H1446 H 0.15933 0.2718 0.7376 0.0
C1447 C 0.2108 0.32546 0.78808 0.0
H1448 H 0.20711 0.21958 0.75853 0.0
C1449 C 0.18402 0.35577 0.77583 0.0
C1450 C 0.16469 0.33706 0.75752 0.0
H1451 H 0.22481 0.34101 0.80215 0.0
H1452 H 0.17739 0.39342 0.78113 0.0
C1453 C 0.17386 0.28764 0.75149 0.0
C1454 C 0.11337 0.94377 0.75158 0.0
C1455 C 0.1224 0.89429 0.75756 0.0
H1456 H 0.08023 0.01188 0.75866 0.0
C1457 C 0.10295 0.87551 0.77583 0.0
H1458 H 0.128 0.95965 0.73772 0.0
C1459 C 0.07618 0.90582 0.78808 0.0
C1460 C 0.06773 0.95552 0.78225 0.0
H1461 H 0.10946 0.8378 0.78109 0.0
H1462 H 0.06207 0.89021 0.80212 0.0
C1463 C 0.08621 0.97388 0.7637 0.0
C1464 C 0.83605 0.00764 0.51359 0.0
C1465 C 0.81765 0.02596 0.53217 0.0
H1466 H 0.87777 0.02189 0.48759 0.0
C1467 C 0.8262 0.07562 0.53803 0.0
H1468 H 0.82998 0.96968 0.50852 0.0
C1469 C 0.85299 0.10593 0.52579 0.0
C1470 C 0.87235 0.08718 0.50749 0.0
H1471 H 0.81216 0.09119 0.5521 0.0
H1472 H 0.85959 0.14359 0.53107 0.0
C1473 C 0.86321 0.03775 0.50147 0.0
C1474 C 0.92364 0.69388 0.50157 0.0
C1475 C 0.9146 0.64441 0.50756 0.0
H1476 H 0.9568 0.76199 0.50864 0.0
C1477 C 0.93407 0.62563 0.52583 0.0
H1478 H 0.909 0.70976 0.48771 0.0
C1479 C 0.96086 0.65595 0.53807 0.0
C1480 C 0.96931 0.70564 0.53224 0.0
H1481 H 0.92756 0.58793 0.5311 0.0
H1482 H 0.97498 0.64035 0.55211 0.0
C1483 C 0.95081 0.72399 0.51368 0.0
C1484 C 0.8631 0.69385 0.2978 0.0
C1485 C 0.87219 0.6444 0.29179 0.0
H1486 H 0.82991 0.76194 0.29073 0.0
C1487 C 0.85279 0.62565 0.2735 0.0
H1488 H 0.87768 0.70971 0.31167 0.0
C1489 C 0.82602 0.65596 0.26126 0.0
C1490 C 0.81751 0.70564 0.2671 0.0
H1491 H 0.85935 0.58797 0.26823 0.0
H1492 H 0.81196 0.64038 0.2472 0.0
C1493 C 0.83594 0.72396 0.28568 0.0
C1494 C 0.93388 0.10589 0.27346 0.0
C1495 C 0.91449 0.08714 0.29175 0.0
H1496 H 0.9747 0.09116 0.24716 0.0
C1497 C 0.92358 0.03769 0.29776 0.0
H1498 H 0.92731 0.14357 0.26819 0.0
C1499 C 0.95073 0.00757 0.28564 0.0
C1500 C 0.96915 0.0259 0.26706 0.0
H1501 H 0.90901 0.02182 0.31164 0.0
H1502 H 0.95676 0.96959 0.29069 0.0
C1503 C 0.96064 0.07558 0.26121 0.0
C1504 C 0.70097 0.47383 0.53575 0.0
C1505 C 0.71943 0.45548 0.51719 0.0
H1506 H 0.6592 0.45962 0.56174 0.0
C1507 C 0.71093 0.40579 0.51135 0.0
H1508 H 0.70699 0.51182 0.5408 0.0
C1509 C 0.68414 0.37549 0.5236 0.0
C1510 C 0.66471 0.39428 0.54187 0.0
H1511 H 0.72502 0.39019 0.4973 0.0
H1512 H 0.67759 0.33781 0.51833 0.0
C1513 C 0.6738 0.44373 0.54787 0.0
C1514 C 0.60302 0.85578 0.52343 0.0
C1515 C 0.62243 0.83704 0.54172 0.0
H1516 H 0.56218 0.84103 0.49713 0.0
C1517 C 0.61337 0.78758 0.54772 0.0
H1518 H 0.60957 0.89346 0.51815 0.0
C1519 C 0.58622 0.75745 0.5356 0.0
C1520 C 0.56777 0.77577 0.51703 0.0
H1521 H 0.62796 0.77173 0.5616 0.0
H1522 H 0.5802 0.71947 0.54066 0.0
C1523 C 0.57626 0.82545 0.51118 0.0
C1524 C 0.6738 0.78763 0.75146 0.0
C1525 C 0.66467 0.83707 0.75747 0.0
H1526 H 0.70702 0.71955 0.75852 0.0
C1527 C 0.68404 0.85581 0.77577 0.0
H1528 H 0.65924 0.77177 0.73758 0.0
C1529 C 0.71082 0.8255 0.78802 0.0
C1530 C 0.71936 0.77584 0.78216 0.0
H1531 H 0.67745 0.89348 0.78105 0.0
H1532 H 0.72486 0.84108 0.80208 0.0
C1533 C 0.70096 0.75752 0.76358 0.0
C1534 C 0.58625 0.47391 0.76372 0.0
C1535 C 0.56772 0.45554 0.78227 0.0
H1536 H 0.62808 0.45968 0.73776 0.0
C1537 C 0.57614 0.40584 0.78809 0.0
H1538 H 0.58028 0.51191 0.75868 0.0
C1539 C 0.60293 0.37552 0.77585 0.0
C1540 C 0.62242 0.3943 0.75759 0.0
H1541 H 0.562 0.39022 0.80212 0.0
H1542 H 0.60941 0.33781 0.78111 0.0
C1543 C 0.61341 0.44379 0.75161 0.0
C1544 C 0.3632 0.53773 0.5015 0.0
C1545 C 0.37234 0.58716 0.50751 0.0
H1546 H 0.32999 0.46965 0.50855 0.0
C1547 C 0.35298 0.6059 0.52581 0.0
H1548 H 0.37776 0.52187 0.48761 0.0
C1549 C 0.3262 0.57559 0.53806 0.0
C1550 C 0.31766 0.52593 0.5322 0.0
H1551 H 0.35957 0.64357 0.53109 0.0
H1552 H 0.31217 0.59116 0.55212 0.0
C1553 C 0.33605 0.50761 0.51362 0.0
C1554 C 0.45082 0.22402 0.51372 0.0
C1555 C 0.46931 0.20566 0.53228 0.0
H1556 H 0.40904 0.20978 0.48774 0.0
C1557 C 0.46086 0.15597 0.5381 0.0
H1558 H 0.45681 0.26202 0.50868 0.0
C1559 C 0.43409 0.12565 0.52586 0.0
C1560 C 0.41464 0.14442 0.50759 0.0
H1561 H 0.47497 0.14036 0.55215 0.0
H1562 H 0.42758 0.08794 0.53112 0.0
C1563 C 0.42367 0.1939 0.5016 0.0
C1564 C 0.36313 0.19381 0.29783 0.0
C1565 C 0.3722 0.14435 0.29183 0.0
H1566 H 0.32994 0.26191 0.29076 0.0
C1567 C 0.35277 0.12559 0.27355 0.0
H1568 H 0.37774 0.20968 0.3117 0.0
C1569 C 0.32599 0.1559 0.2613 0.0
C1570 C 0.3175 0.20559 0.26714 0.0
H1571 H 0.35932 0.0879 0.26827 0.0
H1572 H 0.3119 0.14031 0.24725 0.0
C1573 C 0.33596 0.22392 0.28571 0.0
C1574 C 0.45068 0.50757 0.28567 0.0
C1575 C 0.46914 0.52591 0.2671 0.0
H1576 H 0.40891 0.5218 0.31165 0.0
C1577 C 0.46064 0.57558 0.26126 0.0
H1578 H 0.45671 0.46959 0.29072 0.0
C1579 C 0.43385 0.60589 0.2735 0.0
C1580 C 0.41443 0.58713 0.29178 0.0
H1581 H 0.47472 0.59117 0.2472 0.0
H1582 H 0.42729 0.64358 0.26822 0.0
C1583 C 0.42351 0.53768 0.29778 0.0
C1584 C 0.67355 0.94384 0.04774 0.0
C1585 C 0.66451 0.89438 0.04174 0.0
H1586 H 0.70672 0.01195 0.04068 0.0
C1587 C 0.68398 0.87561 1.02347 0.0
H1588 H 0.65891 0.95972 0.0616 0.0
C1589 C 0.71077 0.90592 1.01124 0.0
C1590 C 0.71922 0.95561 1.01707 0.0
H1591 H 0.67746 0.83791 1.0182 0.0
H1592 H 0.72489 0.89032 0.99719 0.0
C1593 C 0.70072 0.97396 0.03563 0.0
C1594 C 0.61313 0.28773 0.04786 0.0
C1595 C 0.62225 0.33716 0.04185 0.0
H1596 H 0.57992 0.21964 0.0408 0.0
C1597 C 0.60288 0.35591 1.02355 0.0
H1598 H 0.62769 0.27187 0.06174 0.0
C1599 C 0.57611 0.32559 1.0113 0.0
C1600 C 0.56757 0.27593 1.01715 0.0
H1601 H 0.60947 0.39357 1.01827 0.0
H1602 H 0.56207 0.34117 0.99723 0.0
C1603 C 0.58597 0.25761 0.03574 0.0
C1604 C 0.71066 0.32558 0.28811 0.0
C1605 C 0.71917 0.27591 0.28225 0.0
H1606 H 0.6773 0.39357 0.28115 0.0
C1607 C 0.70073 0.25758 0.26368 0.0
H1608 H 0.72473 0.34116 0.30216 0.0
C1609 C 0.67356 0.2877 0.25157 0.0
C1610 C 0.66447 0.33714 0.25758 0.0
H1611 H 0.70677 0.21961 0.25862 0.0
H1612 H 0.65897 0.27183 0.23769 0.0
C1613 C 0.68387 0.35589 0.27587 0.0
C1614 C 0.57602 0.90593 0.28803 0.0
C1615 C 0.56751 0.95561 0.28219 0.0
H1616 H 0.60935 0.83793 0.28106 0.0
C1617 C 0.58595 0.97394 0.26362 0.0
H1618 H 0.56195 0.89034 0.30209 0.0
C1619 C 0.6131 0.94383 0.2515 0.0
C1620 C 0.62219 0.89438 0.2575 0.0
H1621 H 0.57991 0.01192 0.25857 0.0
H1622 H 0.62769 0.9597 0.23762 0.0
C1623 C 0.60279 0.87562 0.27579 0.0
C1624 C 0.33612 0.00746 1.01367 0.0
C1625 C 0.31767 0.02578 0.03225 0.0
H1626 H 0.37787 0.02172 0.98768 0.0
C1627 C 0.32617 0.07545 0.03809 0.0
H1628 H 0.33009 0.96948 1.00862 0.0
C1629 C 0.35294 0.10578 0.02585 0.0
C1630 C 0.37235 0.08703 1.00756 0.0
H1631 H 0.31209 0.09103 0.05215 0.0
H1632 H 0.35949 0.14346 0.03113 0.0
C1633 C 0.36327 0.03758 1.00156 0.0
C1634 C 0.46083 0.65576 0.03798 0.0
C1635 C 0.4693 0.70545 0.03215 0.0
H1636 H 0.4275 0.58777 0.03101 0.0
C1637 C 0.45081 0.72382 1.0136 0.0
H1638 H 0.47495 0.64015 0.05202 0.0
C1639 C 0.42363 0.69372 1.00149 0.0
C1640 C 0.41457 0.64425 1.00748 0.0
H1641 H 0.45682 0.76181 1.00855 0.0
H1642 H 0.409 0.70961 0.98763 0.0
C1643 C 0.43403 0.62546 0.02574 0.0
C1644 C 0.36322 0.69363 0.79782 0.0
C1645 C 0.37232 0.64419 0.79181 0.0
H1646 H 0.33001 0.76171 0.79076 0.0
C1647 C 0.3529 0.62542 0.77353 0.0
H1648 H 0.37781 0.70951 0.81169 0.0
C1649 C 0.3261 0.65572 0.76129 0.0
C1650 C 0.3176 0.70539 0.76713 0.0
H1651 H 0.35946 0.58774 0.76826 0.0
H1652 H 0.31203 0.64012 0.74724 0.0
C1653 C 0.33604 0.72374 0.78571 0.0
C1654 C 0.46073 0.07534 0.76119 0.0
C1655 C 0.46924 0.02566 0.76703 0.0
H1656 H 0.42743 0.14335 0.76817 0.0
C1657 C 0.45083 0.00735 0.78562 0.0
H1658 H 0.47477 0.09091 0.74712 0.0
C1659 C 0.42371 0.03748 0.79774 0.0
C1660 C 0.41462 0.08693 0.79174 0.0
H1661 H 0.45687 0.96937 0.79067 0.0
H1662 H 0.40914 0.02163 0.81163 0.0
C1663 C 0.43399 0.10567 0.77344 0.0
loop_
_geom_bond_atom_site_label_1
_geom_bond_atom_site_label_2
_geom_bond_distance
_geom_bond_site_symmetry_2
_ccdc_geom_bond_type
Fe0 O2 1.918 . S
Fe0 O5 1.997 1_455 S
Fe0 O6 2.002 1_455 S
Fe0 O11 1.976 . S
Fe0 O14 1.996 . S
Fe1 O2 1.918 . S
Fe1 O9 1.997 1_455 S
Fe1 O12 1.996 . S
Fe1 O16 1.976 . S
Fe1 O19 2.002 . S
O2 Fe0 1.918 . S
O2 Fe1 1.918 . S
O2 Fe3 1.918 . S
Fe3 O2 1.918 . S
Fe3 O4 2.002 . S
Fe3 O13 1.976 . S
Fe3 O17 1.996 . S
Fe3 O20 1.997 . S
O4 Fe3 2.002 . S
O4 C21 1.295 1_455 S
O5 Fe0 1.997 1_655 S
O5 C21 1.235 . S
O6 Fe0 2.002 1_655 S
O6 C7 1.295 . S
C7 O6 1.295 . S
C7 O9 1.235 . S
C8 O13 1.287 . S
C8 O14 1.255 . S
O9 Fe1 1.997 1_655 S
O9 C7 1.235 . S
C10 O16 1.287 . S
C10 O17 1.255 . S
O11 Fe0 1.976 . S
O11 C18 1.287 . S
O12 Fe1 1.996 . S
O12 C18 1.255 . S
O13 Fe3 1.976 . S
O13 C8 1.287 . S
O14 Fe0 1.996 . S
O14 C8 1.255 . S
C15 O19 1.295 . S
C15 O20 1.235 . S
O16 Fe1 1.976 . S
O16 C10 1.287 . S
O17 Fe3 1.996 . S
O17 C10 1.255 . S
C18 O11 1.287 . S
C18 O12 1.255 . S
O19 Fe1 2.002 . S
O19 C15 1.295 . S
O20 Fe3 1.997 . S
O20 C15 1.235 . S
C21 O4 1.295 1_655 S
C21 O5 1.235 . S
Fe22 O24 1.918 . S
Fe22 O27 1.997 . S
Fe22 O28 2.002 . S
Fe22 O33 1.976 . S
Fe22 O36 1.996 . S
Fe23 O24 1.918 . S
Fe23 O31 1.997 1_565 S
Fe23 O34 1.996 1_565 S
Fe23 O38 1.976 . S
Fe23 O41 2.002 . S
O24 Fe22 1.918 . S
O24 Fe23 1.918 . S
O24 Fe25 1.918 . S
Fe25 O24 1.918 . S
Fe25 O26 2.002 . S
Fe25 O35 1.976 . S
Fe25 O39 1.996 . S
Fe25 O42 1.997 . S
O26 Fe25 2.002 . S
O26 C43 1.295 . S
O27 Fe22 1.997 . S
O27 C43 1.235 . S
O28 Fe22 2.002 . S
O28 C29 1.289 1_565 S
C29 O28 1.289 1_545 S
C29 O31 1.236 . S
C30 O35 1.287 . S
C30 O36 1.255 . S
O31 Fe23 1.997 1_545 S
O31 C29 1.236 . S
C32 O38 1.287 . S
C32 O39 1.255 . S
O33 Fe22 1.976 . S
O33 C40 1.287 1_565 S
O34 Fe23 1.996 1_545 S
O34 C40 1.255 . S
O35 Fe25 1.976 . S
O35 C30 1.287 . S
O36 Fe22 1.996 . S
O36 C30 1.255 . S
C37 O41 1.295 . S
C37 O42 1.235 . S
O38 Fe23 1.976 . S
O38 C32 1.287 . S
O39 Fe25 1.996 . S
O39 C32 1.255 . S
C40 O33 1.287 1_545 S
C40 O34 1.255 . S
O41 Fe23 2.002 . S
O41 C37 1.295 . S
O42 Fe25 1.997 . S
O42 C37 1.235 . S
C43 O26 1.295 . S
C43 O27 1.235 . S
Fe44 O46 1.918 . S
Fe44 O49 1.997 1_465 S
Fe44 O50 2.002 1_455 S
Fe44 O55 1.976 . S
Fe44 O58 1.996 1_565 S
Fe45 O46 1.918 . S
Fe45 O53 1.997 1_455 S
Fe45 O56 1.996 . S
Fe45 O60 1.976 . S
Fe45 O63 2.002 . S
O46 Fe44 1.918 . S
O46 Fe45 1.918 . S
O46 Fe47 1.918 . S
Fe47 O46 1.918 . S
Fe47 O48 2.002 . S
Fe47 O57 1.976 . S
Fe47 O61 1.996 . S
Fe47 O64 1.997 . S
O48 Fe47 2.002 . S
O48 C65 1.289 1_465 S
O49 Fe44 1.997 1_645 S
O49 C65 1.236 . S
O50 Fe44 2.002 1_655 S
O50 C51 1.295 . S
C51 O50 1.295 . S
C51 O53 1.235 . S
C52 O57 1.287 1_545 S
C52 O58 1.255 . S
O53 Fe45 1.997 1_655 S
O53 C51 1.235 . S
C54 O60 1.287 . S
C54 O61 1.255 . S
O55 Fe44 1.976 . S
O55 C62 1.287 . S
O56 Fe45 1.996 . S
O56 C62 1.255 . S
O57 Fe47 1.976 . S
O57 C52 1.287 1_565 S
O58 Fe44 1.996 1_545 S
O58 C52 1.255 . S
C59 O63 1.295 . S
C59 O64 1.235 . S
O60 Fe45 1.976 . S
O60 C54 1.287 . S
O61 Fe47 1.996 . S
O61 C54 1.255 . S
C62 O55 1.287 . S
C62 O56 1.255 . S
O63 Fe45 2.002 . S
O63 C59 1.295 . S
O64 Fe47 1.997 . S
O64 C59 1.235 . S
C65 O48 1.289 1_645 S
C65 O49 1.236 . S
Fe66 O68 1.918 . S
Fe66 O71 1.997 . S
Fe66 O72 2.002 . S
Fe66 O77 1.976 . S
Fe66 O80 1.996 . S
Fe67 O68 1.918 . S
Fe67 O75 1.997 . S
Fe67 O78 1.996 . S
Fe67 O82 1.976 . S
Fe67 O85 2.002 . S
O68 Fe66 1.918 . S
O68 Fe67 1.918 . S
O68 Fe69 1.918 . S
Fe69 O68 1.918 . S
Fe69 O70 2.002 . S
Fe69 O79 1.976 . S
Fe69 O83 1.996 . S
Fe69 O86 1.997 . S
O70 Fe69 2.002 . S
O70 C87 1.295 . S
O71 Fe66 1.997 . S
O71 C87 1.235 . S
O72 Fe66 2.002 . S
O72 C73 1.295 . S
C73 O72 1.295 . S
C73 O75 1.235 . S
C74 O79 1.287 . S
C74 O80 1.255 . S
O75 Fe67 1.997 . S
O75 C73 1.235 . S
C76 O82 1.287 . S
C76 O83 1.255 . S
O77 Fe66 1.976 . S
O77 C84 1.287 . S
O78 Fe67 1.996 . S
O78 C84 1.255 . S
O79 Fe69 1.976 . S
O79 C74 1.287 . S
O80 Fe66 1.996 . S
O80 C74 1.255 . S
C81 O85 1.295 . S
C81 O86 1.235 . S
O82 Fe67 1.976 . S
O82 C76 1.287 . S
O83 Fe69 1.996 . S
O83 C76 1.255 . S
C84 O77 1.287 . S
C84 O78 1.255 . S
O85 Fe67 2.002 . S
O85 C81 1.295 . S
O86 Fe69 1.997 . S
O86 C81 1.235 . S
C87 O70 1.295 . S
C87 O71 1.235 . S
Fe88 O90 1.918 . S
Fe88 O93 1.997 . S
Fe88 O94 2.002 . S
Fe88 O99 1.976 . S
Fe88 O102 1.996 . S
Fe89 O90 1.918 . S
Fe89 O97 1.997 . S
Fe89 O100 1.996 . S
Fe89 O104 1.976 . S
Fe89 O107 2.002 1_655 S
O90 Fe88 1.918 . S
O90 Fe89 1.918 . S
O90 Fe91 1.918 . S
Fe91 O90 1.918 . S
Fe91 O92 2.002 1_655 S
Fe91 O101 1.976 . S
Fe91 O105 1.996 . S
Fe91 O108 1.997 1_655 S
O92 Fe91 2.002 1_455 S
O92 C109 1.295 . S
O93 Fe88 1.997 . S
O93 C109 1.235 1_655 S
O94 Fe88 2.002 . S
O94 C95 1.295 . S
C95 O94 1.295 . S
C95 O97 1.235 . S
C96 O101 1.287 . S
C96 O102 1.255 . S
O97 Fe89 1.997 . S
O97 C95 1.235 . S
C98 O104 1.287 . S
C98 O105 1.255 . S
O99 Fe88 1.976 . S
O99 C106 1.287 . S
O100 Fe89 1.996 . S
O100 C106 1.255 . S
O101 Fe91 1.976 . S
O101 C96 1.287 . S
O102 Fe88 1.996 . S
O102 C96 1.255 . S
C103 O107 1.295 . S
C103 O108 1.235 . S
O104 Fe89 1.976 . S
O104 C98 1.287 . S
O105 Fe91 1.996 . S
O105 C98 1.255 . S
C106 O99 1.287 . S
C106 O100 1.255 . S
O107 Fe89 2.002 1_455 S
O107 C103 1.295 . S
O108 Fe91 1.997 1_455 S
O108 C103 1.235 . S
C109 O92 1.295 . S
C109 O93 1.235 1_455 S
Fe110 O112 1.918 . S
Fe110 O115 1.997 . S
Fe110 O116 2.002 1_545 S
Fe110 O121 1.976 1_545 S
Fe110 O124 1.996 . S
Fe111 O112 1.918 . S
Fe111 O119 1.997 . S
Fe111 O122 1.979 1_545 S
Fe111 O126 1.976 . S
Fe111 O129 2.002 . S
O112 Fe110 1.918 . S
O112 Fe111 1.918 . S
O112 Fe113 1.918 . S
Fe113 O112 1.918 . S
Fe113 O114 2.002 . S
Fe113 O123 1.976 . S
Fe113 O127 1.996 . S
Fe113 O130 1.997 . S
O114 Fe113 2.002 . S
O114 C131 1.295 . S
O115 Fe110 1.997 . S
O115 C131 1.235 . S
O116 Fe110 2.002 1_565 S
O116 C117 1.295 . S
C117 O116 1.295 . S
C117 O119 1.235 1_565 S
C118 O123 1.287 . S
C118 O124 1.255 . S
O119 Fe111 1.997 . S
O119 C117 1.235 1_545 S
C120 O126 1.287 . S
C120 O127 1.255 . S
O121 Fe110 1.976 1_565 S
O121 C128 1.287 . S
O122 Fe111 1.979 1_565 S
O122 C128 1.267 . S
O123 Fe113 1.976 . S
O123 C118 1.287 . S
O124 Fe110 1.996 . S
O124 C118 1.255 . S
C125 O129 1.295 . S
C125 O130 1.235 . S
O126 Fe111 1.976 . S
O126 C120 1.287 . S
O127 Fe113 1.996 . S
O127 C120 1.255 . S
C128 O121 1.287 . S
C128 O122 1.267 . S
O129 Fe111 2.002 . S
O129 C125 1.295 . S
O130 Fe113 1.997 . S
O130 C125 1.235 . S
C131 O114 1.295 . S
C131 O115 1.235 . S
Fe132 O134 1.918 . S
Fe132 O137 1.997 . S
Fe132 O138 2.002 1_655 S
Fe132 O143 1.976 . S
Fe132 O146 1.996 . S
Fe133 O134 1.918 . S
Fe133 O141 1.997 1_655 S
Fe133 O144 1.996 . S
Fe133 O148 1.976 1_545 S
Fe133 O151 2.002 1_645 S
O134 Fe132 1.918 . S
O134 Fe133 1.918 . S
O134 Fe135 1.918 . S
Fe135 O134 1.918 . S
Fe135 O136 2.002 . S
Fe135 O145 1.976 . S
Fe135 O149 1.979 1_545 S
Fe135 O152 1.997 . S
O136 Fe135 2.002 . S
O136 C153 1.295 . S
O137 Fe132 1.997 . S
O137 C153 1.235 . S
O138 Fe132 2.002 1_455 S
O138 C139 1.295 . S
C139 O138 1.295 . S
C139 O141 1.235 . S
C140 O145 1.287 . S
C140 O146 1.255 . S
O141 Fe133 1.997 1_455 S
O141 C139 1.235 . S
C142 O148 1.287 . S
C142 O149 1.267 . S
O143 Fe132 1.976 . S
O143 C150 1.287 . S
O144 Fe133 1.996 . S
O144 C150 1.255 . S
O145 Fe135 1.976 . S
O145 C140 1.287 . S
O146 Fe132 1.996 . S
O146 C140 1.255 . S
C147 O151 1.295 . S
C147 O152 1.235 1_465 S
O148 Fe133 1.976 1_565 S
O148 C142 1.287 . S
O149 Fe135 1.979 1_565 S
O149 C142 1.267 . S
C150 O143 1.287 . S
C150 O144 1.255 . S
O151 Fe133 2.002 1_465 S
O151 C147 1.295 . S
O152 Fe135 1.997 . S
O152 C147 1.235 1_645 S
C153 O136 1.295 . S
C153 O137 1.235 . S
Fe154 O156 1.918 . S
Fe154 O159 1.997 . S
Fe154 O160 2.002 . S
Fe154 O165 1.976 . S
Fe154 O168 1.996 . S
Fe155 O156 1.918 . S
Fe155 O163 1.997 . S
Fe155 O166 1.996 . S
Fe155 O170 1.976 . S
Fe155 O173 2.002 . S
O156 Fe154 1.918 . S
O156 Fe155 1.918 . S
O156 Fe157 1.918 . S
Fe157 O156 1.918 . S
Fe157 O158 2.002 . S
Fe157 O167 1.976 . S
Fe157 O171 1.996 . S
Fe157 O174 1.997 . S
O158 Fe157 2.002 . S
O158 C175 1.295 . S
O159 Fe154 1.997 . S
O159 C175 1.235 . S
O160 Fe154 2.002 . S
O160 C161 1.295 . S
C161 O160 1.295 . S
C161 O163 1.235 . S
C162 O167 1.287 . S
C162 O168 1.255 . S
O163 Fe155 1.997 . S
O163 C161 1.235 . S
C164 O170 1.287 . S
C164 O171 1.255 . S
O165 Fe154 1.976 . S
O165 C172 1.287 . S
O166 Fe155 1.996 . S
O166 C172 1.255 . S
O167 Fe157 1.976 . S
O167 C162 1.287 . S
O168 Fe154 1.996 . S
O168 C162 1.255 . S
C169 O173 1.295 . S
C169 O174 1.235 . S
O170 Fe155 1.976 . S
O170 C164 1.287 . S
O171 Fe157 1.996 . S
O171 C164 1.255 . S
C172 O165 1.287 . S
C172 O166 1.255 . S
O173 Fe155 2.002 . S
O173 C169 1.295 . S
O174 Fe157 1.997 . S
O174 C169 1.235 . S
C175 O158 1.295 . S
C175 O159 1.235 . S
Fe176 O178 1.918 . S
Fe176 O181 1.997 1_455 S
Fe176 O182 2.002 . S
Fe176 O187 1.976 . S
Fe176 O190 1.996 . S
Fe177 O178 1.918 . S
Fe177 O185 1.997 . S
Fe177 O188 1.996 . S
Fe177 O192 1.976 . S
Fe177 O195 2.002 . S
O178 Fe176 1.918 . S
O178 Fe177 1.918 . S
O178 Fe179 1.918 . S
Fe179 O178 1.918 . S
Fe179 O180 2.002 1_455 S
Fe179 O189 1.976 . S
Fe179 O193 1.996 . S
Fe179 O196 1.997 1_455 S
O180 Fe179 2.002 1_655 S
O180 C197 1.295 . S
O181 Fe176 1.997 1_655 S
O181 C197 1.235 . S
O182 Fe176 2.002 . S
O182 C183 1.295 . S
C183 O182 1.295 . S
C183 O185 1.235 . S
C184 O189 1.287 . S
C184 O190 1.255 . S
O185 Fe177 1.997 . S
O185 C183 1.235 . S
C186 O192 1.287 . S
C186 O193 1.255 . S
O187 Fe176 1.976 . S
O187 C194 1.287 . S
O188 Fe177 1.996 . S
O188 C194 1.255 . S
O189 Fe179 1.976 . S
O189 C184 1.287 . S
O190 Fe176 1.996 . S
O190 C184 1.255 . S
C191 O195 1.295 1_655 S
C191 O196 1.235 . S
O192 Fe177 1.976 . S
O192 C186 1.287 . S
O193 Fe179 1.996 . S
O193 C186 1.255 . S
C194 O187 1.287 . S
C194 O188 1.255 . S
O195 Fe177 2.002 . S
O195 C191 1.295 1_455 S
O196 Fe179 1.997 1_655 S
O196 C191 1.235 . S
C197 O180 1.295 . S
C197 O181 1.235 . S
Fe198 O200 1.918 . S
Fe198 O203 1.997 . S
Fe198 O204 2.002 . S
Fe198 O209 1.976 . S
Fe198 O212 1.996 . S
Fe199 O200 1.918 . S
Fe199 O207 1.997 . S
Fe199 O210 1.996 . S
Fe199 O214 1.976 . S
Fe199 O217 2.002 . S
O200 Fe198 1.918 . S
O200 Fe199 1.918 . S
O200 Fe201 1.918 . S
Fe201 O200 1.918 . S
Fe201 O202 2.002 . S
Fe201 O211 1.976 . S
Fe201 O215 1.996 . S
Fe201 O218 1.997 . S
O202 Fe201 2.002 . S
O202 C219 1.295 . S
O203 Fe198 1.997 . S
O203 C219 1.235 . S
O204 Fe198 2.002 . S
O204 C205 1.295 . S
C205 O204 1.295 . S
C205 O207 1.235 . S
C206 O211 1.287 . S
C206 O212 1.255 . S
O207 Fe199 1.997 . S
O207 C205 1.235 . S
C208 O214 1.287 . S
C208 O215 1.255 . S
O209 Fe198 1.976 . S
O209 C216 1.287 . S
O210 Fe199 1.996 . S
O210 C216 1.255 . S
O211 Fe201 1.976 . S
O211 C206 1.287 . S
O212 Fe198 1.996 . S
O212 C206 1.255 . S
C213 O217 1.295 . S
C213 O218 1.235 . S
O214 Fe199 1.976 . S
O214 C208 1.287 . S
O215 Fe201 1.996 . S
O215 C208 1.255 . S
C216 O209 1.287 . S
C216 O210 1.255 . S
O217 Fe199 2.002 . S
O217 C213 1.295 . S
O218 Fe201 1.997 . S
O218 C213 1.235 . S
C219 O202 1.295 . S
C219 O203 1.235 . S
Fe220 O222 1.918 . S
Fe220 O225 1.997 1_455 S
Fe220 O226 2.002 1_455 S
Fe220 O231 1.976 . S
Fe220 O234 1.996 . S
Fe221 O222 1.918 . S
Fe221 O229 1.997 1_455 S
Fe221 O232 1.996 . S
Fe221 O236 1.976 . S
Fe221 O239 2.002 . S
O222 Fe220 1.918 . S
O222 Fe221 1.918 . S
O222 Fe223 1.918 . S
Fe223 O222 1.918 . S
Fe223 O224 2.002 . S
Fe223 O233 1.976 . S
Fe223 O237 1.996 . S
Fe223 O240 1.997 . S
O224 Fe223 2.002 . S
O224 C241 1.295 1_455 S
O225 Fe220 1.997 1_655 S
O225 C241 1.235 . S
O226 Fe220 2.002 1_655 S
O226 C227 1.295 . S
C227 O226 1.295 . S
C227 O229 1.235 . S
C228 O233 1.287 . S
C228 O234 1.255 . S
O229 Fe221 1.997 1_655 S
O229 C227 1.235 . S
C230 O236 1.287 . S
C230 O237 1.255 . S
O231 Fe220 1.976 . S
O231 C238 1.287 . S
O232 Fe221 1.996 . S
O232 C238 1.255 . S
O233 Fe223 1.976 . S
O233 C228 1.287 . S
O234 Fe220 1.996 . S
O234 C228 1.255 . S
C235 O239 1.295 . S
C235 O240 1.235 . S
O236 Fe221 1.976 . S
O236 C230 1.287 . S
O237 Fe223 1.996 . S
O237 C230 1.255 . S
C238 O231 1.287 . S
C238 O232 1.255 . S
O239 Fe221 2.002 . S
O239 C235 1.295 . S
O240 Fe223 1.997 . S
O240 C235 1.235 . S
C241 O224 1.295 1_655 S
C241 O225 1.235 . S
Fe242 O244 1.918 . S
Fe242 O247 1.997 . S
Fe242 O248 2.002 . S
Fe242 O253 1.976 . S
Fe242 O256 1.996 . S
Fe243 O244 1.918 . S
Fe243 O251 1.997 . S
Fe243 O254 1.996 . S
Fe243 O258 1.976 . S
Fe243 O261 2.002 . S
O244 Fe242 1.918 . S
O244 Fe243 1.918 . S
O244 Fe245 1.918 . S
Fe245 O244 1.918 . S
Fe245 O246 2.002 . S
Fe245 O255 1.976 . S
Fe245 O259 1.996 . S
Fe245 O262 1.997 . S
O246 Fe245 2.002 . S
O246 C263 1.295 . S
O247 Fe242 1.997 . S
O247 C263 1.235 . S
O248 Fe242 2.002 . S
O248 C249 1.295 . S
C249 O248 1.295 . S
C249 O251 1.235 . S
C250 O255 1.287 . S
C250 O256 1.255 . S
O251 Fe243 1.997 . S
O251 C249 1.235 . S
C252 O258 1.287 . S
C252 O259 1.255 . S
O253 Fe242 1.976 . S
O253 C260 1.287 . S
O254 Fe243 1.996 . S
O254 C260 1.255 . S
O255 Fe245 1.976 . S
O255 C250 1.287 . S
O256 Fe242 1.996 . S
O256 C250 1.255 . S
C257 O261 1.295 . S
C257 O262 1.235 . S
O258 Fe243 1.976 . S
O258 C252 1.287 . S
O259 Fe245 1.996 . S
O259 C252 1.255 . S
C260 O253 1.287 . S
C260 O254 1.255 . S
O261 Fe243 2.002 . S
O261 C257 1.295 . S
O262 Fe245 1.997 . S
O262 C257 1.235 . S
C263 O246 1.295 . S
C263 O247 1.235 . S
Fe264 O266 1.918 . S
Fe264 O269 1.997 . S
Fe264 O270 2.002 . S
Fe264 O275 1.976 . S
Fe264 O278 1.996 . S
Fe265 O266 1.918 . S
Fe265 O273 1.997 . S
Fe265 O276 1.996 . S
Fe265 O280 1.976 . S
Fe265 O283 2.002 1_655 S
O266 Fe264 1.918 . S
O266 Fe265 1.918 . S
O266 Fe267 1.918 . S
Fe267 O266 1.918 . S
Fe267 O268 2.002 1_655 S
Fe267 O277 1.976 . S
Fe267 O281 1.996 . S
Fe267 O284 1.997 1_655 S
O268 Fe267 2.002 1_455 S
O268 C285 1.295 . S
O269 Fe264 1.997 . S
O269 C285 1.235 1_655 S
O270 Fe264 2.002 . S
O270 C271 1.295 . S
C271 O270 1.295 . S
C271 O273 1.235 . S
C272 O277 1.287 . S
C272 O278 1.255 . S
O273 Fe265 1.997 . S
O273 C271 1.235 . S
C274 O280 1.287 . S
C274 O281 1.255 . S
O275 Fe264 1.976 . S
O275 C282 1.287 . S
O276 Fe265 1.996 . S
O276 C282 1.255 . S
O277 Fe267 1.976 . S
O277 C272 1.287 . S
O278 Fe264 1.996 . S
O278 C272 1.255 . S
C279 O283 1.295 . S
C279 O284 1.235 . S
O280 Fe265 1.976 . S
O280 C274 1.287 . S
O281 Fe267 1.996 . S
O281 C274 1.255 . S
C282 O275 1.287 . S
C282 O276 1.255 . S
O283 Fe265 2.002 1_455 S
O283 C279 1.295 . S
O284 Fe267 1.997 1_455 S
O284 C279 1.235 . S
C285 O268 1.295 . S
C285 O269 1.235 1_455 S
Fe286 O288 1.918 . S
Fe286 O291 1.997 . S
Fe286 O292 2.002 . S
Fe286 O297 1.976 . S
Fe286 O300 1.996 . S
Fe287 O288 1.918 . S
Fe287 O295 1.997 . S
Fe287 O298 1.996 . S
Fe287 O302 1.976 . S
Fe287 O305 2.002 . S
O288 Fe286 1.918 . S
O288 Fe287 1.918 . S
O288 Fe289 1.918 . S
Fe289 O288 1.918 . S
Fe289 O290 2.002 . S
Fe289 O299 1.976 . S
Fe289 O303 1.996 . S
Fe289 O306 1.997 . S
O290 Fe289 2.002 . S
O290 C307 1.295 . S
O291 Fe286 1.997 . S
O291 C307 1.235 . S
O292 Fe286 2.002 . S
O292 C293 1.295 . S
C293 O292 1.295 . S
C293 O295 1.235 . S
C294 O299 1.287 . S
C294 O300 1.255 . S
O295 Fe287 1.997 . S
O295 C293 1.235 . S
C296 O302 1.287 . S
C296 O303 1.255 . S
O297 Fe286 1.976 . S
O297 C304 1.287 . S
O298 Fe287 1.996 . S
O298 C304 1.255 . S
O299 Fe289 1.976 . S
O299 C294 1.287 . S
O300 Fe286 1.996 . S
O300 C294 1.255 . S
C301 O305 1.295 . S
C301 O306 1.235 . S
O302 Fe287 1.976 . S
O302 C296 1.287 . S
O303 Fe289 1.996 . S
O303 C296 1.255 . S
C304 O297 1.287 . S
C304 O298 1.255 . S
O305 Fe287 2.002 . S
O305 C301 1.295 . S
O306 Fe289 1.997 . S
O306 C301 1.235 . S
C307 O290 1.295 . S
C307 O291 1.235 . S
Fe308 O310 1.918 . S
Fe308 O313 1.997 . S
Fe308 O314 2.002 1_655 S
Fe308 O319 1.976 . S
Fe308 O322 1.996 . S
Fe309 O310 1.918 . S
Fe309 O317 1.997 1_655 S
Fe309 O320 1.996 . S
Fe309 O324 1.976 . S
Fe309 O327 2.002 1_655 S
O310 Fe308 1.918 . S
O310 Fe309 1.918 . S
O310 Fe311 1.918 . S
Fe311 O310 1.918 . S
Fe311 O312 2.002 . S
Fe311 O321 1.976 . S
Fe311 O325 1.996 . S
Fe311 O328 1.997 . S
O312 Fe311 2.002 . S
O312 C329 1.295 . S
O313 Fe308 1.997 . S
O313 C329 1.235 . S
O314 Fe308 2.002 1_455 S
O314 C315 1.295 . S
C315 O314 1.295 . S
C315 O317 1.235 . S
C316 O321 1.287 . S
C316 O322 1.255 . S
O317 Fe309 1.997 1_455 S
O317 C315 1.235 . S
C318 O324 1.287 . S
C318 O325 1.255 . S
O319 Fe308 1.976 . S
O319 C326 1.287 . S
O320 Fe309 1.996 . S
O320 C326 1.255 . S
O321 Fe311 1.976 . S
O321 C316 1.287 . S
O322 Fe308 1.996 . S
O322 C316 1.255 . S
C323 O327 1.295 . S
C323 O328 1.235 1_455 S
O324 Fe309 1.976 . S
O324 C318 1.287 . S
O325 Fe311 1.996 . S
O325 C318 1.255 . S
C326 O319 1.287 . S
C326 O320 1.255 . S
O327 Fe309 2.002 1_455 S
O327 C323 1.295 . S
O328 Fe311 1.997 . S
O328 C323 1.235 1_655 S
C329 O312 1.295 . S
C329 O313 1.235 . S
Fe330 O332 1.918 . S
Fe330 O335 1.997 . S
Fe330 O336 2.002 . S
Fe330 O341 1.976 . S
Fe330 O344 1.996 . S
Fe331 O332 1.918 . S
Fe331 O339 1.997 . S
Fe331 O342 1.996 . S
Fe331 O346 1.976 . S
Fe331 O349 2.002 . S
O332 Fe330 1.918 . S
O332 Fe331 1.918 . S
O332 Fe333 1.918 . S
Fe333 O332 1.918 . S
Fe333 O334 2.002 . S
Fe333 O343 1.976 . S
Fe333 O347 1.996 . S
Fe333 O350 1.997 . S
O334 Fe333 2.002 . S
O334 C351 1.295 . S
O335 Fe330 1.997 . S
O335 C351 1.235 . S
O336 Fe330 2.002 . S
O336 C337 1.295 . S
C337 O336 1.295 . S
C337 O339 1.235 . S
C338 O343 1.287 . S
C338 O344 1.255 . S
O339 Fe331 1.997 . S
O339 C337 1.235 . S
C340 O346 1.287 . S
C340 O347 1.255 . S
O341 Fe330 1.976 . S
O341 C348 1.287 . S
O342 Fe331 1.996 . S
O342 C348 1.255 . S
O343 Fe333 1.976 . S
O343 C338 1.287 . S
O344 Fe330 1.996 . S
O344 C338 1.255 . S
C345 O349 1.295 . S
C345 O350 1.235 . S
O346 Fe331 1.976 . S
O346 C340 1.287 . S
O347 Fe333 1.996 . S
O347 C340 1.255 . S
C348 O341 1.287 . S
C348 O342 1.255 . S
O349 Fe331 2.002 . S
O349 C345 1.295 . S
O350 Fe333 1.997 . S
O350 C345 1.235 . S
C351 O334 1.295 . S
C351 O335 1.235 . S
Fe352 O354 1.918 . S
Fe352 O357 1.997 . S
Fe352 O358 2.002 . S
Fe352 O363 1.976 . S
Fe352 O366 1.996 . S
Fe353 O354 1.918 . S
Fe353 O361 1.997 . S
Fe353 O364 1.996 . S
Fe353 O368 1.976 . S
Fe353 O371 2.002 . S
O354 Fe352 1.918 . S
O354 Fe353 1.918 . S
O354 Fe355 1.918 . S
Fe355 O354 1.918 . S
Fe355 O356 2.002 . S
Fe355 O365 1.976 . S
Fe355 O369 1.996 . S
Fe355 O372 1.997 . S
O356 Fe355 2.002 . S
O356 C373 1.295 . S
O357 Fe352 1.997 . S
O357 C373 1.235 . S
O358 Fe352 2.002 . S
O358 C359 1.295 . S
C359 O358 1.295 . S
C359 O361 1.235 . S
C360 O365 1.287 . S
C360 O366 1.255 . S
O361 Fe353 1.997 . S
O361 C359 1.235 . S
C362 O368 1.287 . S
C362 O369 1.255 . S
O363 Fe352 1.976 . S
O363 C370 1.287 . S
O364 Fe353 1.996 . S
O364 C370 1.255 . S
O365 Fe355 1.976 . S
O365 C360 1.287 . S
O366 Fe352 1.996 . S
O366 C360 1.255 . S
C367 O371 1.295 . S
C367 O372 1.235 . S
O368 Fe353 1.976 . S
O368 C362 1.287 . S
O369 Fe355 1.996 . S
O369 C362 1.255 . S
C370 O363 1.287 . S
C370 O364 1.255 . S
O371 Fe353 2.002 . S
O371 C367 1.295 . S
O372 Fe355 1.997 . S
O372 C367 1.235 . S
C373 O356 1.295 . S
C373 O357 1.235 . S
Fe374 O376 1.918 . S
Fe374 O379 1.997 . S
Fe374 O380 2.002 . S
Fe374 O385 1.976 . S
Fe374 O388 1.996 . S
Fe375 O376 1.918 . S
Fe375 O383 1.997 1_565 S
Fe375 O386 1.996 1_565 S
Fe375 O390 1.976 . S
Fe375 O393 2.002 . S
O376 Fe374 1.918 . S
O376 Fe375 1.918 . S
O376 Fe377 1.918 . S
Fe377 O376 1.918 . S
Fe377 O378 2.002 . S
Fe377 O387 1.976 . S
Fe377 O391 1.996 . S
Fe377 O394 1.997 . S
O378 Fe377 2.002 . S
O378 C395 1.295 . S
O379 Fe374 1.997 . S
O379 C395 1.235 . S
O380 Fe374 2.002 . S
O380 C381 1.289 1_565 S
C381 O380 1.289 1_545 S
C381 O383 1.236 . S
C382 O387 1.287 . S
C382 O388 1.255 . S
O383 Fe375 1.997 1_545 S
O383 C381 1.236 . S
C384 O390 1.287 . S
C384 O391 1.255 . S
O385 Fe374 1.976 . S
O385 C392 1.287 1_565 S
O386 Fe375 1.996 1_545 S
O386 C392 1.255 . S
O387 Fe377 1.976 . S
O387 C382 1.287 . S
O388 Fe374 1.996 . S
O388 C382 1.255 . S
C389 O393 1.295 . S
C389 O394 1.235 . S
O390 Fe375 1.976 . S
O390 C384 1.287 . S
O391 Fe377 1.996 . S
O391 C384 1.255 . S
C392 O385 1.287 1_545 S
C392 O386 1.255 . S
O393 Fe375 2.002 . S
O393 C389 1.295 . S
O394 Fe377 1.997 . S
O394 C389 1.235 . S
C395 O378 1.295 . S
C395 O379 1.235 . S
Fe396 O398 1.918 . S
Fe396 O401 1.997 . S
Fe396 O402 2.002 . S
Fe396 O407 1.976 . S
Fe396 O410 1.996 . S
Fe397 O398 1.918 . S
Fe397 O405 1.997 . S
Fe397 O408 1.996 . S
Fe397 O412 1.976 . S
Fe397 O415 2.002 . S
O398 Fe396 1.918 . S
O398 Fe397 1.918 . S
O398 Fe399 1.918 . S
Fe399 O398 1.918 . S
Fe399 O400 2.002 . S
Fe399 O409 1.976 . S
Fe399 O413 1.996 1_565 S
Fe399 O416 1.997 1_565 S
O400 Fe399 2.002 . S
O400 C417 1.295 . S
O401 Fe396 1.997 . S
O401 C417 1.235 . S
O402 Fe396 2.002 . S
O402 C403 1.295 . S
C403 O402 1.295 . S
C403 O405 1.235 . S
C404 O409 1.287 . S
C404 O410 1.255 . S
O405 Fe397 1.997 . S
O405 C403 1.235 . S
C406 O412 1.287 1_545 S
C406 O413 1.255 . S
O407 Fe396 1.976 . S
O407 C414 1.287 . S
O408 Fe397 1.996 . S
O408 C414 1.255 . S
O409 Fe399 1.976 . S
O409 C404 1.287 . S
O410 Fe396 1.996 . S
O410 C404 1.255 . S
C411 O415 1.289 1_545 S
C411 O416 1.236 . S
O412 Fe397 1.976 . S
O412 C406 1.287 1_565 S
O413 Fe399 1.996 1_545 S
O413 C406 1.255 . S
C414 O407 1.287 . S
C414 O408 1.255 . S
O415 Fe397 2.002 . S
O415 C411 1.289 1_565 S
O416 Fe399 1.997 1_545 S
O416 C411 1.236 . S
C417 O400 1.295 . S
C417 O401 1.235 . S
Fe418 O420 1.918 . S
Fe418 O423 1.997 . S
Fe418 O424 2.002 . S
Fe418 O429 1.976 . S
Fe418 O432 1.996 . S
Fe419 O420 1.918 . S
Fe419 O427 1.997 . S
Fe419 O430 1.996 . S
Fe419 O434 1.976 . S
Fe419 O437 2.002 . S
O420 Fe418 1.918 . S
O420 Fe419 1.918 . S
O420 Fe421 1.918 . S
Fe421 O420 1.918 . S
Fe421 O422 2.002 . S
Fe421 O431 1.976 . S
Fe421 O435 1.996 . S
Fe421 O438 1.997 . S
O422 Fe421 2.002 . S
O422 C439 1.295 . S
O423 Fe418 1.997 . S
O423 C439 1.235 . S
O424 Fe418 2.002 . S
O424 C425 1.295 . S
C425 O424 1.295 . S
C425 O427 1.235 . S
C426 O431 1.287 . S
C426 O432 1.255 . S
O427 Fe419 1.997 . S
O427 C425 1.235 . S
C428 O434 1.287 . S
C428 O435 1.255 . S
O429 Fe418 1.976 . S
O429 C436 1.287 . S
O430 Fe419 1.996 . S
O430 C436 1.255 . S
O431 Fe421 1.976 . S
O431 C426 1.287 . S
O432 Fe418 1.996 . S
O432 C426 1.255 . S
C433 O437 1.295 . S
C433 O438 1.235 . S
O434 Fe419 1.976 . S
O434 C428 1.287 . S
O435 Fe421 1.996 . S
O435 C428 1.255 . S
C436 O429 1.287 . S
C436 O430 1.255 . S
O437 Fe419 2.002 . S
O437 C433 1.295 . S
O438 Fe421 1.997 . S
O438 C433 1.235 . S
C439 O422 1.295 . S
C439 O423 1.235 . S
Fe440 O442 1.918 . S
Fe440 O445 1.997 . S
Fe440 O446 2.002 . S
Fe440 O451 1.976 . S
Fe440 O454 1.996 . S
Fe441 O442 1.918 . S
Fe441 O449 1.997 . S
Fe441 O452 1.996 . S
Fe441 O456 1.976 . S
Fe441 O459 2.002 . S
O442 Fe440 1.918 . S
O442 Fe441 1.918 . S
O442 Fe443 1.918 . S
Fe443 O442 1.918 . S
Fe443 O444 2.002 . S
Fe443 O453 1.976 . S
Fe443 O457 1.996 . S
Fe443 O460 1.997 . S
O444 Fe443 2.002 . S
O444 C461 1.295 . S
O445 Fe440 1.997 . S
O445 C461 1.235 . S
O446 Fe440 2.002 . S
O446 C447 1.295 . S
C447 O446 1.295 . S
C447 O449 1.235 . S
C448 O453 1.287 . S
C448 O454 1.255 . S
O449 Fe441 1.997 . S
O449 C447 1.235 . S
C450 O456 1.287 . S
C450 O457 1.255 . S
O451 Fe440 1.976 . S
O451 C458 1.287 . S
O452 Fe441 1.996 . S
O452 C458 1.255 . S
O453 Fe443 1.976 . S
O453 C448 1.287 . S
O454 Fe440 1.996 . S
O454 C448 1.255 . S
C455 O459 1.295 . S
C455 O460 1.235 . S
O456 Fe441 1.976 . S
O456 C450 1.287 . S
O457 Fe443 1.996 . S
O457 C450 1.255 . S
C458 O451 1.287 . S
C458 O452 1.255 . S
O459 Fe441 2.002 . S
O459 C455 1.295 . S
O460 Fe443 1.997 . S
O460 C455 1.235 . S
C461 O444 1.295 . S
C461 O445 1.235 . S
Fe462 O464 1.918 . S
Fe462 O467 1.997 . S
Fe462 O468 2.002 1_545 S
Fe462 O473 1.976 1_545 S
Fe462 O476 1.996 . S
Fe463 O464 1.918 . S
Fe463 O471 1.997 . S
Fe463 O474 1.979 1_545 S
Fe463 O478 1.976 . S
Fe463 O481 2.002 . S
O464 Fe462 1.918 . S
O464 Fe463 1.918 . S
O464 Fe465 1.918 . S
Fe465 O464 1.918 . S
Fe465 O466 2.002 . S
Fe465 O475 1.976 . S
Fe465 O479 1.996 . S
Fe465 O482 1.997 . S
O466 Fe465 2.002 . S
O466 C483 1.295 . S
O467 Fe462 1.997 . S
O467 C483 1.235 . S
O468 Fe462 2.002 1_565 S
O468 C469 1.295 . S
C469 O468 1.295 . S
C469 O471 1.235 1_565 S
C470 O475 1.287 . S
C470 O476 1.255 . S
O471 Fe463 1.997 . S
O471 C469 1.235 1_545 S
C472 O478 1.287 . S
C472 O479 1.255 . S
O473 Fe462 1.976 1_565 S
O473 C480 1.287 . S
O474 Fe463 1.979 1_565 S
O474 C480 1.267 . S
O475 Fe465 1.976 . S
O475 C470 1.287 . S
O476 Fe462 1.996 . S
O476 C470 1.255 . S
C477 O481 1.295 . S
C477 O482 1.235 . S
O478 Fe463 1.976 . S
O478 C472 1.287 . S
O479 Fe465 1.996 . S
O479 C472 1.255 . S
C480 O473 1.287 . S
C480 O474 1.267 . S
O481 Fe463 2.002 . S
O481 C477 1.295 . S
O482 Fe465 1.997 . S
O482 C477 1.235 . S
C483 O466 1.295 . S
C483 O467 1.235 . S
Fe484 O486 1.918 . S
Fe484 O489 1.997 . S
Fe484 O490 2.002 1_545 S
Fe484 O495 1.976 1_545 S
Fe484 O498 1.996 . S
Fe485 O486 1.918 . S
Fe485 O493 1.997 . S
Fe485 O496 1.979 1_545 S
Fe485 O500 1.976 . S
Fe485 O503 2.002 . S
O486 Fe484 1.918 . S
O486 Fe485 1.918 . S
O486 Fe487 1.918 . S
Fe487 O486 1.918 . S
Fe487 O488 2.002 . S
Fe487 O497 1.976 . S
Fe487 O501 1.996 . S
Fe487 O504 1.997 . S
O488 Fe487 2.002 . S
O488 C505 1.295 . S
O489 Fe484 1.997 . S
O489 C505 1.235 . S
O490 Fe484 2.002 1_565 S
O490 C491 1.295 . S
C491 O490 1.295 . S
C491 O493 1.235 1_565 S
C492 O497 1.287 . S
C492 O498 1.255 . S
O493 Fe485 1.997 . S
O493 C491 1.235 1_545 S
C494 O500 1.287 . S
C494 O501 1.255 . S
O495 Fe484 1.976 1_565 S
O495 C502 1.287 . S
O496 Fe485 1.979 1_565 S
O496 C502 1.267 . S
O497 Fe487 1.976 . S
O497 C492 1.287 . S
O498 Fe484 1.996 . S
O498 C492 1.255 . S
C499 O503 1.295 . S
C499 O504 1.235 . S
O500 Fe485 1.976 . S
O500 C494 1.287 . S
O501 Fe487 1.996 . S
O501 C494 1.255 . S
C502 O495 1.287 . S
C502 O496 1.267 . S
O503 Fe485 2.002 . S
O503 C499 1.295 . S
O504 Fe487 1.997 . S
O504 C499 1.235 . S
C505 O488 1.295 . S
C505 O489 1.235 . S
Fe506 O508 1.918 . S
Fe506 O511 1.997 . S
Fe506 O512 2.002 . S
Fe506 O517 1.976 . S
Fe506 O520 1.996 . S
Fe507 O508 1.918 . S
Fe507 O515 1.997 . S
Fe507 O518 1.996 . S
Fe507 O522 1.976 . S
Fe507 O525 2.002 . S
O508 Fe506 1.918 . S
O508 Fe507 1.918 . S
O508 Fe509 1.918 . S
Fe509 O508 1.918 . S
Fe509 O510 2.002 . S
Fe509 O519 1.976 . S
Fe509 O523 1.996 . S
Fe509 O526 1.997 . S
O510 Fe509 2.002 . S
O510 C527 1.295 . S
O511 Fe506 1.997 . S
O511 C527 1.235 . S
O512 Fe506 2.002 . S
O512 C513 1.295 . S
C513 O512 1.295 . S
C513 O515 1.235 . S
C514 O519 1.287 . S
C514 O520 1.255 . S
O515 Fe507 1.997 . S
O515 C513 1.235 . S
C516 O522 1.287 . S
C516 O523 1.255 . S
O517 Fe506 1.976 . S
O517 C524 1.287 . S
O518 Fe507 1.996 . S
O518 C524 1.255 . S
O519 Fe509 1.976 . S
O519 C514 1.287 . S
O520 Fe506 1.996 . S
O520 C514 1.255 . S
C521 O525 1.295 . S
C521 O526 1.235 . S
O522 Fe507 1.976 . S
O522 C516 1.287 . S
O523 Fe509 1.996 . S
O523 C516 1.255 . S
C524 O517 1.287 . S
C524 O518 1.255 . S
O525 Fe507 2.002 . S
O525 C521 1.295 . S
O526 Fe509 1.997 . S
O526 C521 1.235 . S
C527 O510 1.295 . S
C527 O511 1.235 . S
Fe528 O530 1.918 . S
Fe528 O533 1.997 . S
Fe528 O534 2.002 . S
Fe528 O539 1.976 . S
Fe528 O542 1.996 . S
Fe529 O530 1.918 . S
Fe529 O537 1.997 . S
Fe529 O540 1.996 . S
Fe529 O544 1.976 . S
Fe529 O547 2.002 . S
O530 Fe528 1.918 . S
O530 Fe529 1.918 . S
O530 Fe531 1.918 . S
Fe531 O530 1.918 . S
Fe531 O532 2.002 . S
Fe531 O541 1.976 . S
Fe531 O545 1.996 . S
Fe531 O548 1.997 . S
O532 Fe531 2.002 . S
O532 C549 1.295 . S
O533 Fe528 1.997 . S
O533 C549 1.235 . S
O534 Fe528 2.002 . S
O534 C535 1.295 . S
C535 O534 1.295 . S
C535 O537 1.235 . S
C536 O541 1.287 . S
C536 O542 1.255 . S
O537 Fe529 1.997 . S
O537 C535 1.235 . S
C538 O544 1.287 . S
C538 O545 1.255 . S
O539 Fe528 1.976 . S
O539 C546 1.287 . S
O540 Fe529 1.996 . S
O540 C546 1.255 . S
O541 Fe531 1.976 . S
O541 C536 1.287 . S
O542 Fe528 1.996 . S
O542 C536 1.255 . S
C543 O547 1.295 . S
C543 O548 1.235 . S
O544 Fe529 1.976 . S
O544 C538 1.287 . S
O545 Fe531 1.996 . S
O545 C538 1.255 . S
C546 O539 1.287 . S
C546 O540 1.255 . S
O547 Fe529 2.002 . S
O547 C543 1.295 . S
O548 Fe531 1.997 . S
O548 C543 1.235 . S
C549 O532 1.295 . S
C549 O533 1.235 . S
Fe550 O552 1.918 . S
Fe550 O555 1.997 . S
Fe550 O556 2.002 . S
Fe550 O561 1.976 . S
Fe550 O564 1.996 . S
Fe551 O552 1.918 . S
Fe551 O559 1.997 . S
Fe551 O562 1.996 . S
Fe551 O566 1.976 . S
Fe551 O569 2.002 . S
O552 Fe550 1.918 . S
O552 Fe551 1.918 . S
O552 Fe553 1.918 . S
Fe553 O552 1.918 . S
Fe553 O554 2.002 . S
Fe553 O563 1.976 . S
Fe553 O567 1.996 . S
Fe553 O570 1.997 . S
O554 Fe553 2.002 . S
O554 C571 1.295 . S
O555 Fe550 1.997 . S
O555 C571 1.235 . S
O556 Fe550 2.002 . S
O556 C557 1.295 . S
C557 O556 1.295 . S
C557 O559 1.235 . S
C558 O563 1.287 . S
C558 O564 1.255 . S
O559 Fe551 1.997 . S
O559 C557 1.235 . S
C560 O566 1.287 . S
C560 O567 1.255 . S
O561 Fe550 1.976 . S
O561 C568 1.287 . S
O562 Fe551 1.996 . S
O562 C568 1.255 . S
O563 Fe553 1.976 . S
O563 C558 1.287 . S
O564 Fe550 1.996 . S
O564 C558 1.255 . S
C565 O569 1.295 . S
C565 O570 1.235 . S
O566 Fe551 1.976 . S
O566 C560 1.287 . S
O567 Fe553 1.996 . S
O567 C560 1.255 . S
C568 O561 1.287 . S
C568 O562 1.255 . S
O569 Fe551 2.002 . S
O569 C565 1.295 . S
O570 Fe553 1.997 . S
O570 C565 1.235 . S
C571 O554 1.295 . S
C571 O555 1.235 . S
Fe572 O574 1.918 . S
Fe572 O577 1.997 . S
Fe572 O578 2.002 . S
Fe572 O583 1.976 . S
Fe572 O586 1.996 . S
Fe573 O574 1.918 . S
Fe573 O581 1.997 . S
Fe573 O584 1.996 . S
Fe573 O588 1.976 . S
Fe573 O591 2.002 . S
O574 Fe572 1.918 . S
O574 Fe573 1.918 . S
O574 Fe575 1.918 . S
Fe575 O574 1.918 . S
Fe575 O576 2.002 . S
Fe575 O585 1.976 . S
Fe575 O589 1.996 . S
Fe575 O592 1.997 . S
O576 Fe575 2.002 . S
O576 C593 1.295 . S
O577 Fe572 1.997 . S
O577 C593 1.235 . S
O578 Fe572 2.002 . S
O578 C579 1.295 . S
C579 O578 1.295 . S
C579 O581 1.235 . S
C580 O585 1.287 . S
C580 O586 1.255 . S
O581 Fe573 1.997 . S
O581 C579 1.235 . S
C582 O588 1.287 . S
C582 O589 1.255 . S
O583 Fe572 1.976 . S
O583 C590 1.287 . S
O584 Fe573 1.996 . S
O584 C590 1.255 . S
O585 Fe575 1.976 . S
O585 C580 1.287 . S
O586 Fe572 1.996 . S
O586 C580 1.255 . S
C587 O591 1.295 . S
C587 O592 1.235 . S
O588 Fe573 1.976 . S
O588 C582 1.287 . S
O589 Fe575 1.996 . S
O589 C582 1.255 . S
C590 O583 1.287 . S
C590 O584 1.255 . S
O591 Fe573 2.002 . S
O591 C587 1.295 . S
O592 Fe575 1.997 . S
O592 C587 1.235 . S
C593 O576 1.295 . S
C593 O577 1.235 . S
Fe594 O596 1.918 . S
Fe594 O599 1.997 . S
Fe594 O600 2.002 . S
Fe594 O605 1.976 . S
Fe594 O608 1.996 . S
Fe595 O596 1.918 . S
Fe595 O603 1.997 . S
Fe595 O606 1.996 . S
Fe595 O610 1.976 . S
Fe595 O613 2.002 . S
O596 Fe594 1.918 . S
O596 Fe595 1.918 . S
O596 Fe597 1.918 . S
Fe597 O596 1.918 . S
Fe597 O598 2.002 . S
Fe597 O607 1.976 . S
Fe597 O611 1.996 . S
Fe597 O614 1.997 . S
O598 Fe597 2.002 . S
O598 C615 1.295 . S
O599 Fe594 1.997 . S
O599 C615 1.235 . S
O600 Fe594 2.002 . S
O600 C601 1.295 . S
C601 O600 1.295 . S
C601 O603 1.235 . S
C602 O607 1.287 . S
C602 O608 1.255 . S
O603 Fe595 1.997 . S
O603 C601 1.235 . S
C604 O610 1.287 . S
C604 O611 1.255 . S
O605 Fe594 1.976 . S
O605 C612 1.287 . S
O606 Fe595 1.996 . S
O606 C612 1.255 . S
O607 Fe597 1.976 . S
O607 C602 1.287 . S
O608 Fe594 1.996 . S
O608 C602 1.255 . S
C609 O613 1.295 . S
C609 O614 1.235 . S
O610 Fe595 1.976 . S
O610 C604 1.287 . S
O611 Fe597 1.996 . S
O611 C604 1.255 . S
C612 O605 1.287 . S
C612 O606 1.255 . S
O613 Fe595 2.002 . S
O613 C609 1.295 . S
O614 Fe597 1.997 . S
O614 C609 1.235 . S
C615 O598 1.295 . S
C615 O599 1.235 . S
Fe616 O618 1.918 . S
Fe616 O621 1.997 . S
Fe616 O622 2.002 . S
Fe616 O627 1.976 . S
Fe616 O630 1.996 . S
Fe617 O618 1.918 . S
Fe617 O625 1.997 . S
Fe617 O628 1.996 . S
Fe617 O632 1.976 . S
Fe617 O635 2.002 . S
O618 Fe616 1.918 . S
O618 Fe617 1.918 . S
O618 Fe619 1.918 . S
Fe619 O618 1.918 . S
Fe619 O620 2.002 . S
Fe619 O629 1.976 . S
Fe619 O633 1.996 . S
Fe619 O636 1.997 . S
O620 Fe619 2.002 . S
O620 C637 1.295 . S
O621 Fe616 1.997 . S
O621 C637 1.235 . S
O622 Fe616 2.002 . S
O622 C623 1.295 . S
C623 O622 1.295 . S
C623 O625 1.235 . S
C624 O629 1.287 . S
C624 O630 1.255 . S
O625 Fe617 1.997 . S
O625 C623 1.235 . S
C626 O632 1.287 . S
C626 O633 1.255 . S
O627 Fe616 1.976 . S
O627 C634 1.287 . S
O628 Fe617 1.996 . S
O628 C634 1.255 . S
O629 Fe619 1.976 . S
O629 C624 1.287 . S
O630 Fe616 1.996 . S
O630 C624 1.255 . S
C631 O635 1.295 . S
C631 O636 1.235 . S
O632 Fe617 1.976 . S
O632 C626 1.287 . S
O633 Fe619 1.996 . S
O633 C626 1.255 . S
C634 O627 1.287 . S
C634 O628 1.255 . S
O635 Fe617 2.002 . S
O635 C631 1.295 . S
O636 Fe619 1.997 . S
O636 C631 1.235 . S
C637 O620 1.295 . S
C637 O621 1.235 . S
Fe638 O640 1.918 . S
Fe638 O643 1.997 . S
Fe638 O644 2.002 . S
Fe638 O649 1.976 . S
Fe638 O652 1.996 . S
Fe639 O640 1.918 . S
Fe639 O647 1.997 . S
Fe639 O650 1.996 . S
Fe639 O654 1.976 . S
Fe639 O657 2.002 . S
O640 Fe638 1.918 . S
O640 Fe639 1.918 . S
O640 Fe641 1.918 . S
Fe641 O640 1.918 . S
Fe641 O642 2.002 . S
Fe641 O651 1.976 . S
Fe641 O655 1.996 . S
Fe641 O658 1.997 . S
O642 Fe641 2.002 . S
O642 C659 1.295 . S
O643 Fe638 1.997 . S
O643 C659 1.235 . S
O644 Fe638 2.002 . S
O644 C645 1.295 . S
C645 O644 1.295 . S
C645 O647 1.235 . S
C646 O651 1.287 . S
C646 O652 1.255 . S
O647 Fe639 1.997 . S
O647 C645 1.235 . S
C648 O654 1.287 . S
C648 O655 1.255 . S
O649 Fe638 1.976 . S
O649 C656 1.287 . S
O650 Fe639 1.996 . S
O650 C656 1.255 . S
O651 Fe641 1.976 . S
O651 C646 1.287 . S
O652 Fe638 1.996 . S
O652 C646 1.255 . S
C653 O657 1.295 . S
C653 O658 1.235 . S
O654 Fe639 1.976 . S
O654 C648 1.287 . S
O655 Fe641 1.996 . S
O655 C648 1.255 . S
C656 O649 1.287 . S
C656 O650 1.255 . S
O657 Fe639 2.002 . S
O657 C653 1.295 . S
O658 Fe641 1.997 . S
O658 C653 1.235 . S
C659 O642 1.295 . S
C659 O643 1.235 . S
Fe660 O662 1.918 . S
Fe660 O665 1.997 . S
Fe660 O666 2.002 . S
Fe660 O671 1.976 . S
Fe660 O674 1.996 . S
Fe661 O662 1.918 . S
Fe661 O669 1.997 . S
Fe661 O672 1.996 . S
Fe661 O676 1.976 . S
Fe661 O679 2.002 . S
O662 Fe660 1.918 . S
O662 Fe661 1.918 . S
O662 Fe663 1.918 . S
Fe663 O662 1.918 . S
Fe663 O664 2.002 . S
Fe663 O673 1.976 . S
Fe663 O677 1.996 . S
Fe663 O680 1.997 . S
O664 Fe663 2.002 . S
O664 C681 1.295 . S
O665 Fe660 1.997 . S
O665 C681 1.235 . S
O666 Fe660 2.002 . S
O666 C667 1.295 . S
C667 O666 1.295 . S
C667 O669 1.235 . S
C668 O673 1.287 . S
C668 O674 1.255 . S
O669 Fe661 1.997 . S
O669 C667 1.235 . S
C670 O676 1.287 . S
C670 O677 1.255 . S
O671 Fe660 1.976 . S
O671 C678 1.287 . S
O672 Fe661 1.996 . S
O672 C678 1.255 . S
O673 Fe663 1.976 . S
O673 C668 1.287 . S
O674 Fe660 1.996 . S
O674 C668 1.255 . S
C675 O679 1.295 . S
C675 O680 1.235 . S
O676 Fe661 1.976 . S
O676 C670 1.287 . S
O677 Fe663 1.996 . S
O677 C670 1.255 . S
C678 O671 1.287 . S
C678 O672 1.255 . S
O679 Fe661 2.002 . S
O679 C675 1.295 . S
O680 Fe663 1.997 . S
O680 C675 1.235 . S
C681 O664 1.295 . S
C681 O665 1.235 . S
Fe682 O684 1.918 . S
Fe682 O687 1.997 . S
Fe682 O688 2.002 . S
Fe682 O693 1.976 . S
Fe682 O696 1.996 . S
Fe683 O684 1.918 . S
Fe683 O691 1.997 . S
Fe683 O694 1.996 . S
Fe683 O698 1.976 . S
Fe683 O701 2.002 . S
O684 Fe682 1.918 . S
O684 Fe683 1.918 . S
O684 Fe685 1.918 . S
Fe685 O684 1.918 . S
Fe685 O686 2.002 . S
Fe685 O695 1.976 . S
Fe685 O699 1.996 . S
Fe685 O702 1.997 . S
O686 Fe685 2.002 . S
O686 C703 1.295 . S
O687 Fe682 1.997 . S
O687 C703 1.235 . S
O688 Fe682 2.002 . S
O688 C689 1.295 . S
C689 O688 1.295 . S
C689 O691 1.235 . S
C690 O695 1.287 . S
C690 O696 1.255 . S
O691 Fe683 1.997 . S
O691 C689 1.235 . S
C692 O698 1.287 . S
C692 O699 1.255 . S
O693 Fe682 1.976 . S
O693 C700 1.287 . S
O694 Fe683 1.996 . S
O694 C700 1.255 . S
O695 Fe685 1.976 . S
O695 C690 1.287 . S
O696 Fe682 1.996 . S
O696 C690 1.255 . S
C697 O701 1.295 . S
C697 O702 1.235 . S
O698 Fe683 1.976 . S
O698 C692 1.287 . S
O699 Fe685 1.996 . S
O699 C692 1.255 . S
C700 O693 1.287 . S
C700 O694 1.255 . S
O701 Fe683 2.002 . S
O701 C697 1.295 . S
O702 Fe685 1.997 . S
O702 C697 1.235 . S
C703 O686 1.295 . S
C703 O687 1.235 . S
C704 C705 1.387 . S
C704 H708 0.950 . S
C704 C713 1.390 . S
C705 C704 1.387 . S
C705 C707 1.387 . S
H706 C713 0.950 . S
C707 C705 1.387 . S
C707 C709 1.390 . S
C707 H711 0.950 . S
H708 C704 0.950 . S
C709 C707 1.390 . S
C709 C710 1.387 . S
C709 H712 0.950 . S
C710 C709 1.387 . S
C710 C713 1.387 . S
H711 C707 0.950 . S
H712 C709 0.950 . S
C713 C704 1.390 . S
C713 H706 0.950 . S
C713 C710 1.387 . S
C714 C715 1.387 . S
C714 H718 0.950 . S
C714 C723 1.390 . S
C715 C714 1.387 . S
C715 C717 1.387 . S
H716 C723 0.950 . S
C717 C715 1.387 . S
C717 C719 1.390 . S
C717 H721 0.950 . S
H718 C714 0.950 . S
C719 C717 1.390 . S
C719 C720 1.387 . S
C719 H722 0.950 . S
C720 C719 1.387 . S
C720 C723 1.387 . S
H721 C717 0.950 . S
H722 C719 0.950 . S
C723 C714 1.390 . S
C723 H716 0.950 . S
C723 C720 1.387 . S
C724 C725 1.387 . S
C724 H728 0.950 . S
C724 C733 1.390 . S
C725 C724 1.387 . S
C725 C727 1.387 . S
H726 C733 0.950 . S
C727 C725 1.387 . S
C727 C729 1.390 . S
C727 H731 0.950 . S
H728 C724 0.950 . S
C729 C727 1.390 . S
C729 C730 1.387 . S
C729 H732 0.950 . S
C730 C729 1.387 . S
C730 C733 1.387 . S
H731 C727 0.950 . S
H732 C729 0.950 . S
C733 C724 1.390 . S
C733 H726 0.950 . S
C733 C730 1.387 . S
C734 C735 1.387 . S
C734 H738 0.950 . S
C734 C743 1.390 . S
C735 C734 1.387 . S
C735 C737 1.387 . S
H736 C743 0.950 . S
C737 C735 1.387 . S
C737 C739 1.390 . S
C737 H741 0.950 . S
H738 C734 0.950 . S
C739 C737 1.390 . S
C739 C740 1.387 . S
C739 H742 0.950 . S
C740 C739 1.387 . S
C740 C743 1.387 . S
H741 C737 0.950 . S
H742 C739 0.950 . S
C743 C734 1.390 . S
C743 H736 0.950 . S
C743 C740 1.387 . S
C744 C745 1.387 . S
C744 H748 0.950 . S
C744 C753 1.390 . S
C745 C744 1.387 . S
C745 C747 1.387 . S
H746 C753 0.950 . S
C747 C745 1.387 . S
C747 C749 1.390 . S
C747 H751 0.950 . S
H748 C744 0.950 . S
C749 C747 1.390 . S
C749 C750 1.387 . S
C749 H752 0.950 . S
C750 C749 1.387 . S
C750 C753 1.387 . S
H751 C747 0.950 . S
H752 C749 0.950 . S
C753 C744 1.390 . S
C753 H746 0.950 . S
C753 C750 1.387 . S
C754 C755 1.387 . S
C754 H758 0.950 . S
C754 C763 1.390 . S
C755 C754 1.387 . S
C755 C757 1.387 . S
H756 C763 0.950 . S
C757 C755 1.387 . S
C757 C759 1.390 . S
C757 H761 0.950 . S
H758 C754 0.950 . S
C759 C757 1.390 . S
C759 C760 1.387 . S
C759 H762 0.950 . S
C760 C759 1.387 . S
C760 C763 1.387 . S
H761 C757 0.950 . S
H762 C759 0.950 . S
C763 C754 1.390 . S
C763 H756 0.950 . S
C763 C760 1.387 . S
C764 C765 1.387 . S
C764 H768 0.950 . S
C764 C773 1.390 . S
C765 C764 1.387 . S
C765 C767 1.387 . S
H766 C773 0.950 . S
C767 C765 1.387 . S
C767 C769 1.390 . S
C767 H771 0.950 . S
H768 C764 0.950 . S
C769 C767 1.390 . S
C769 C770 1.387 . S
C769 H772 0.950 . S
C770 C769 1.387 . S
C770 C773 1.387 . S
H771 C767 0.950 . S
H772 C769 0.950 . S
C773 C764 1.390 . S
C773 H766 0.950 . S
C773 C770 1.387 . S
C774 C775 1.387 . S
C774 H778 0.950 . S
C774 C783 1.390 . S
C775 C774 1.387 . S
C775 C777 1.387 . S
H776 C783 0.950 . S
C777 C775 1.387 . S
C777 C779 1.390 . S
C777 H781 0.950 . S
H778 C774 0.950 . S
C779 C777 1.390 . S
C779 C780 1.387 . S
C779 H782 0.950 . S
C780 C779 1.387 . S
C780 C783 1.387 . S
H781 C777 0.950 . S
H782 C779 0.950 . S
C783 C774 1.390 . S
C783 H776 0.950 . S
C783 C780 1.387 . S
C784 C785 1.387 . S
C784 H788 0.950 . S
C784 C793 1.390 . S
C785 C784 1.387 . S
C785 C787 1.387 . S
H786 C793 0.950 . S
C787 C785 1.387 . S
C787 C789 1.390 . S
C787 H791 0.950 . S
H788 C784 0.950 . S
C789 C787 1.390 . S
C789 C790 1.387 . S
C789 H792 0.950 . S
C790 C789 1.387 . S
C790 C793 1.387 . S
H791 C787 0.950 . S
H792 C789 0.950 . S
C793 C784 1.390 . S
C793 H786 0.950 . S
C793 C790 1.387 . S
C794 C795 1.387 . S
C794 H798 0.950 . S
C794 C803 1.390 . S
C795 C794 1.387 . S
C795 C797 1.387 . S
H796 C803 0.950 . S
C797 C795 1.387 . S
C797 C799 1.390 . S
C797 H801 0.950 . S
H798 C794 0.950 . S
C799 C797 1.390 . S
C799 C800 1.387 . S
C799 H802 0.950 . S
C800 C799 1.387 . S
C800 C803 1.387 . S
H801 C797 0.950 . S
H802 C799 0.950 . S
C803 C794 1.390 . S
C803 H796 0.950 . S
C803 C800 1.387 . S
C804 C805 1.387 . S
C804 H808 0.950 . S
C804 C813 1.390 . S
C805 C804 1.387 . S
C805 C807 1.387 . S
H806 C813 0.950 . S
C807 C805 1.387 . S
C807 C809 1.390 . S
C807 H811 0.950 . S
H808 C804 0.950 . S
C809 C807 1.390 . S
C809 C810 1.387 . S
C809 H812 0.950 . S
C810 C809 1.387 . S
C810 C813 1.387 . S
H811 C807 0.950 . S
H812 C809 0.950 . S
C813 C804 1.390 . S
C813 H806 0.950 . S
C813 C810 1.387 . S
C814 C815 1.387 . S
C814 H818 0.950 . S
C814 C823 1.390 . S
C815 C814 1.387 . S
C815 C817 1.387 . S
H816 C823 0.950 . S
C817 C815 1.387 . S
C817 C819 1.390 . S
C817 H821 0.950 . S
H818 C814 0.950 . S
C819 C817 1.390 . S
C819 C820 1.387 . S
C819 H822 0.950 . S
C820 C819 1.387 . S
C820 C823 1.387 . S
H821 C817 0.950 . S
H822 C819 0.950 . S
C823 C814 1.390 . S
C823 H816 0.950 . S
C823 C820 1.387 . S
C824 C825 1.387 . S
C824 H828 0.950 . S
C824 C833 1.390 . S
C825 C824 1.387 . S
C825 C827 1.387 . S
H826 C833 0.950 . S
C827 C825 1.387 . S
C827 C829 1.390 . S
C827 H831 0.950 . S
H828 C824 0.950 . S
C829 C827 1.390 . S
C829 C830 1.387 . S
C829 H832 0.950 . S
C830 C829 1.387 . S
C830 C833 1.387 . S
H831 C827 0.950 . S
H832 C829 0.950 . S
C833 C824 1.390 . S
C833 H826 0.950 . S
C833 C830 1.387 . S
C834 C835 1.387 . S
C834 H838 0.950 . S
C834 C843 1.390 . S
C835 C834 1.387 . S
C835 C837 1.387 . S
H836 C843 0.950 . S
C837 C835 1.387 . S
C837 C839 1.390 . S
C837 H841 0.950 . S
H838 C834 0.950 . S
C839 C837 1.390 . S
C839 C840 1.387 . S
C839 H842 0.950 . S
C840 C839 1.387 . S
C840 C843 1.387 . S
H841 C837 0.950 . S
H842 C839 0.950 . S
C843 C834 1.390 . S
C843 H836 0.950 . S
C843 C840 1.387 . S
C844 C845 1.387 . S
C844 H848 0.950 . S
C844 C853 1.390 . S
C845 C844 1.387 . S
C845 C847 1.387 . S
H846 C853 0.950 . S
C847 C845 1.387 . S
C847 C849 1.390 . S
C847 H851 0.950 . S
H848 C844 0.950 . S
C849 C847 1.390 . S
C849 C850 1.387 . S
C849 H852 0.950 . S
C850 C849 1.387 . S
C850 C853 1.387 . S
H851 C847 0.950 . S
H852 C849 0.950 . S
C853 C844 1.390 . S
C853 H846 0.950 . S
C853 C850 1.387 . S
C854 C855 1.387 . S
C854 H858 0.950 . S
C854 C863 1.390 . S
C855 C854 1.387 . S
C855 C857 1.387 . S
H856 C863 0.950 . S
C857 C855 1.387 . S
C857 C859 1.390 . S
C857 H861 0.950 . S
H858 C854 0.950 . S
C859 C857 1.390 . S
C859 C860 1.387 . S
C859 H862 0.950 . S
C860 C859 1.387 . S
C860 C863 1.387 . S
H861 C857 0.950 . S
H862 C859 0.950 . S
C863 C854 1.390 . S
C863 H856 0.950 . S
C863 C860 1.387 . S
C864 C865 1.387 . S
C864 H868 0.950 . S
C864 C873 1.390 . S
C865 C864 1.387 . S
C865 C867 1.387 . S
H866 C873 0.950 . S
C867 C865 1.387 . S
C867 C869 1.390 . S
C867 H871 0.950 . S
H868 C864 0.950 . S
C869 C867 1.390 . S
C869 C870 1.387 . S
C869 H872 0.950 . S
C870 C869 1.387 . S
C870 C873 1.387 . S
H871 C867 0.950 . S
H872 C869 0.950 . S
C873 C864 1.390 . S
C873 H866 0.950 . S
C873 C870 1.387 . S
C874 C875 1.387 . S
C874 H878 0.950 . S
C874 C883 1.390 . S
C875 C874 1.387 . S
C875 C877 1.387 . S
H876 C883 0.950 . S
C877 C875 1.387 . S
C877 C879 1.390 . S
C877 H881 0.950 . S
H878 C874 0.950 . S
C879 C877 1.390 . S
C879 C880 1.387 . S
C879 H882 0.950 . S
C880 C879 1.387 . S
C880 C883 1.387 . S
H881 C877 0.950 . S
H882 C879 0.950 . S
C883 C874 1.390 . S
C883 H876 0.950 . S
C883 C880 1.387 . S
C884 C885 1.387 . S
C884 H888 0.950 . S
C884 C893 1.390 . S
C885 C884 1.387 . S
C885 C887 1.387 . S
H886 C893 0.950 . S
C887 C885 1.387 . S
C887 C889 1.390 . S
C887 H891 0.950 . S
H888 C884 0.950 . S
C889 C887 1.390 . S
C889 C890 1.387 . S
C889 H892 0.950 . S
C890 C889 1.387 . S
C890 C893 1.387 . S
H891 C887 0.950 . S
H892 C889 0.950 . S
C893 C884 1.390 . S
C893 H886 0.950 . S
C893 C890 1.387 . S
C894 C895 1.387 . S
C894 H898 0.950 . S
C894 C903 1.390 . S
C895 C894 1.387 . S
C895 C897 1.387 . S
H896 C903 0.950 . S
C897 C895 1.387 . S
C897 C899 1.390 . S
C897 H901 0.950 . S
H898 C894 0.950 . S
C899 C897 1.390 . S
C899 C900 1.387 . S
C899 H902 0.950 . S
C900 C899 1.387 . S
C900 C903 1.387 . S
H901 C897 0.950 . S
H902 C899 0.950 . S
C903 C894 1.390 . S
C903 H896 0.950 . S
C903 C900 1.387 . S
C904 C905 1.387 . S
C904 H908 0.950 . S
C904 C913 1.390 . S
C905 C904 1.387 . S
C905 C907 1.387 . S
H906 C913 0.950 . S
C907 C905 1.387 . S
C907 C909 1.390 . S
C907 H911 0.950 . S
H908 C904 0.950 . S
C909 C907 1.390 . S
C909 C910 1.387 . S
C909 H912 0.950 . S
C910 C909 1.387 . S
C910 C913 1.387 . S
H911 C907 0.950 . S
H912 C909 0.950 . S
C913 C904 1.390 . S
C913 H906 0.950 . S
C913 C910 1.387 . S
C914 C915 1.387 . S
C914 H918 0.950 . S
C914 C923 1.390 . S
C915 C914 1.387 . S
C915 C917 1.387 . S
H916 C923 0.950 . S
C917 C915 1.387 . S
C917 C919 1.390 . S
C917 H921 0.950 . S
H918 C914 0.950 . S
C919 C917 1.390 . S
C919 C920 1.387 . S
C919 H922 0.950 . S
C920 C919 1.387 . S
C920 C923 1.387 . S
H921 C917 0.950 . S
H922 C919 0.950 . S
C923 C914 1.390 . S
C923 H916 0.950 . S
C923 C920 1.387 . S
C924 C925 1.387 . S
C924 H928 0.950 . S
C924 C933 1.390 . S
C925 C924 1.387 . S
C925 C927 1.387 . S
H926 C933 0.950 . S
C927 C925 1.387 . S
C927 C929 1.390 . S
C927 H931 0.950 . S
H928 C924 0.950 . S
C929 C927 1.390 . S
C929 C930 1.387 . S
C929 H932 0.950 . S
C930 C929 1.387 . S
C930 C933 1.387 . S
H931 C927 0.950 . S
H932 C929 0.950 . S
C933 C924 1.390 . S
C933 H926 0.950 . S
C933 C930 1.387 . S
C934 C935 1.387 . S
C934 H938 0.950 . S
C934 C943 1.390 . S
C935 C934 1.387 . S
C935 C937 1.387 . S
H936 C943 0.950 . S
C937 C935 1.387 . S
C937 C939 1.390 . S
C937 H941 0.950 . S
H938 C934 0.950 . S
C939 C937 1.390 . S
C939 C940 1.387 . S
C939 H942 0.950 . S
C940 C939 1.387 . S
C940 C943 1.387 . S
H941 C937 0.950 . S
H942 C939 0.950 . S
C943 C934 1.390 . S
C943 H936 0.950 . S
C943 C940 1.387 . S
C944 C945 1.387 . S
C944 H948 0.950 . S
C944 C953 1.390 . S
C945 C944 1.387 . S
C945 C947 1.387 . S
H946 C953 0.950 . S
C947 C945 1.387 . S
C947 C949 1.390 . S
C947 H951 0.950 . S
H948 C944 0.950 . S
C949 C947 1.390 . S
C949 C950 1.387 . S
C949 H952 0.950 . S
C950 C949 1.387 . S
C950 C953 1.387 . S
H951 C947 0.950 . S
H952 C949 0.950 . S
C953 C944 1.390 . S
C953 H946 0.950 . S
C953 C950 1.387 . S
C954 C955 1.387 . S
C954 H958 0.950 . S
C954 C963 1.390 . S
C955 C954 1.387 . S
C955 C957 1.387 . S
H956 C963 0.950 . S
C957 C955 1.387 . S
C957 C959 1.390 . S
C957 H961 0.950 . S
H958 C954 0.950 . S
C959 C957 1.390 . S
C959 C960 1.387 . S
C959 H962 0.950 . S
C960 C959 1.387 . S
C960 C963 1.387 . S
H961 C957 0.950 . S
H962 C959 0.950 . S
C963 C954 1.390 . S
C963 H956 0.950 . S
C963 C960 1.387 . S
C964 C965 1.387 . S
C964 H968 0.950 . S
C964 C973 1.390 . S
C965 C964 1.387 . S
C965 C967 1.387 . S
H966 C973 0.950 . S
C967 C965 1.387 . S
C967 C969 1.390 . S
C967 H971 0.950 . S
H968 C964 0.950 . S
C969 C967 1.390 . S
C969 C970 1.387 . S
C969 H972 0.950 . S
C970 C969 1.387 . S
C970 C973 1.387 . S
H971 C967 0.950 . S
H972 C969 0.950 . S
C973 C964 1.390 . S
C973 H966 0.950 . S
C973 C970 1.387 . S
C974 C975 1.387 . S
C974 H978 0.950 . S
C974 C983 1.390 . S
C975 C974 1.387 . S
C975 C977 1.387 . S
H976 C983 0.950 . S
C977 C975 1.387 . S
C977 C979 1.390 . S
C977 H981 0.950 . S
H978 C974 0.950 . S
C979 C977 1.390 . S
C979 C980 1.387 . S
C979 H982 0.950 . S
C980 C979 1.387 . S
C980 C983 1.387 . S
H981 C977 0.950 . S
H982 C979 0.950 . S
C983 C974 1.390 . S
C983 H976 0.950 . S
C983 C980 1.387 . S
C984 C985 1.387 . S
C984 H988 0.950 . S
C984 C993 1.390 . S
C985 C984 1.387 . S
C985 C987 1.387 . S
H986 C993 0.950 . S
C987 C985 1.387 . S
C987 C989 1.390 . S
C987 H991 0.950 . S
H988 C984 0.950 . S
C989 C987 1.390 . S
C989 C990 1.387 . S
C989 H992 0.950 . S
C990 C989 1.387 . S
C990 C993 1.387 . S
H991 C987 0.950 . S
H992 C989 0.950 . S
C993 C984 1.390 . S
C993 H986 0.950 . S
C993 C990 1.387 . S
C994 C995 1.387 . S
C994 H998 0.950 . S
C994 C1003 1.390 . S
C995 C994 1.387 . S
C995 C997 1.387 . S
H996 C1003 0.950 . S
C997 C995 1.387 . S
C997 C999 1.390 . S
C997 H1001 0.950 . S
H998 C994 0.950 . S
C999 C997 1.390 . S
C999 C1000 1.387 . S
C999 H1002 0.950 . S
C1000 C999 1.387 . S
C1000 C1003 1.387 . S
H1001 C997 0.950 . S
H1002 C999 0.950 . S
C1003 C994 1.390 . S
C1003 H996 0.950 . S
C1003 C1000 1.387 . S
C1004 C1005 1.387 . S
C1004 H1008 0.950 . S
C1004 C1013 1.390 . S
C1005 C1004 1.387 . S
C1005 C1007 1.387 . S
H1006 C1013 0.950 . S
C1007 C1005 1.387 . S
C1007 C1009 1.390 . S
C1007 H1011 0.950 . S
H1008 C1004 0.950 . S
C1009 C1007 1.390 . S
C1009 C1010 1.387 . S
C1009 H1012 0.950 . S
C1010 C1009 1.387 . S
C1010 C1013 1.387 . S
H1011 C1007 0.950 . S
H1012 C1009 0.950 . S
C1013 C1004 1.390 . S
C1013 H1006 0.950 . S
C1013 C1010 1.387 . S
C1014 C1015 1.387 . S
C1014 H1018 0.950 . S
C1014 C1023 1.390 . S
C1015 C1014 1.387 . S
C1015 C1017 1.387 . S
H1016 C1023 0.950 . S
C1017 C1015 1.387 . S
C1017 C1019 1.390 . S
C1017 H1021 0.950 . S
H1018 C1014 0.950 . S
C1019 C1017 1.390 . S
C1019 C1020 1.387 . S
C1019 H1022 0.950 . S
C1020 C1019 1.387 . S
C1020 C1023 1.387 . S
H1021 C1017 0.950 . S
H1022 C1019 0.950 . S
C1023 C1014 1.390 . S
C1023 H1016 0.950 . S
C1023 C1020 1.387 . S
C1024 C1025 1.387 . S
C1024 H1028 0.950 . S
C1024 C1033 1.390 . S
C1025 C1024 1.387 . S
C1025 C1027 1.387 . S
H1026 C1033 0.950 . S
C1027 C1025 1.387 . S
C1027 C1029 1.390 . S
C1027 H1031 0.950 . S
H1028 C1024 0.950 . S
C1029 C1027 1.390 . S
C1029 C1030 1.387 . S
C1029 H1032 0.950 . S
C1030 C1029 1.387 . S
C1030 C1033 1.387 . S
H1031 C1027 0.950 . S
H1032 C1029 0.950 . S
C1033 C1024 1.390 . S
C1033 H1026 0.950 . S
C1033 C1030 1.387 . S
C1034 C1035 1.387 . S
C1034 H1038 0.950 . S
C1034 C1043 1.390 . S
C1035 C1034 1.387 . S
C1035 C1037 1.387 . S
H1036 C1043 0.950 . S
C1037 C1035 1.387 . S
C1037 C1039 1.390 . S
C1037 H1041 0.950 . S
H1038 C1034 0.950 . S
C1039 C1037 1.390 . S
C1039 C1040 1.387 . S
C1039 H1042 0.950 . S
C1040 C1039 1.387 . S
C1040 C1043 1.387 . S
H1041 C1037 0.950 . S
H1042 C1039 0.950 . S
C1043 C1034 1.390 . S
C1043 H1036 0.950 . S
C1043 C1040 1.387 . S
C1044 C1045 1.387 . S
C1044 H1048 0.950 . S
C1044 C1053 1.390 . S
C1045 C1044 1.387 . S
C1045 C1047 1.387 . S
H1046 C1053 0.950 . S
C1047 C1045 1.387 . S
C1047 C1049 1.390 . S
C1047 H1051 0.950 . S
H1048 C1044 0.950 . S
C1049 C1047 1.390 . S
C1049 C1050 1.387 . S
C1049 H1052 0.950 . S
C1050 C1049 1.387 . S
C1050 C1053 1.387 . S
H1051 C1047 0.950 . S
H1052 C1049 0.950 . S
C1053 C1044 1.390 . S
C1053 H1046 0.950 . S
C1053 C1050 1.387 . S
C1054 C1055 1.387 . S
C1054 H1058 0.950 . S
C1054 C1063 1.390 . S
C1055 C1054 1.387 . S
C1055 C1057 1.387 . S
H1056 C1063 0.950 . S
C1057 C1055 1.387 . S
C1057 C1059 1.390 . S
C1057 H1061 0.950 . S
H1058 C1054 0.950 . S
C1059 C1057 1.390 . S
C1059 C1060 1.387 . S
C1059 H1062 0.950 . S
C1060 C1059 1.387 . S
C1060 C1063 1.387 . S
H1061 C1057 0.950 . S
H1062 C1059 0.950 . S
C1063 C1054 1.390 . S
C1063 H1056 0.950 . S
C1063 C1060 1.387 . S
C1064 C1065 1.387 . S
C1064 H1068 0.950 . S
C1064 C1073 1.390 . S
C1065 C1064 1.387 . S
C1065 C1067 1.387 . S
H1066 C1073 0.950 . S
C1067 C1065 1.387 . S
C1067 C1069 1.390 . S
C1067 H1071 0.950 . S
H1068 C1064 0.950 . S
C1069 C1067 1.390 . S
C1069 C1070 1.387 . S
C1069 H1072 0.950 . S
C1070 C1069 1.387 . S
C1070 C1073 1.387 . S
H1071 C1067 0.950 . S
H1072 C1069 0.950 . S
C1073 C1064 1.390 . S
C1073 H1066 0.950 . S
C1073 C1070 1.387 . S
C1074 C1075 1.387 . S
C1074 H1078 0.950 . S
C1074 C1083 1.390 . S
C1075 C1074 1.387 . S
C1075 C1077 1.387 . S
H1076 C1083 0.950 . S
C1077 C1075 1.387 . S
C1077 C1079 1.390 . S
C1077 H1081 0.950 . S
H1078 C1074 0.950 . S
C1079 C1077 1.390 . S
C1079 C1080 1.387 . S
C1079 H1082 0.950 . S
C1080 C1079 1.387 . S
C1080 C1083 1.387 . S
H1081 C1077 0.950 . S
H1082 C1079 0.950 . S
C1083 C1074 1.390 . S
C1083 H1076 0.950 . S
C1083 C1080 1.387 . S
C1084 C1085 1.387 . S
C1084 H1088 0.950 . S
C1084 C1093 1.390 . S
C1085 C1084 1.387 . S
C1085 C1087 1.387 . S
H1086 C1093 0.950 . S
C1087 C1085 1.387 . S
C1087 C1089 1.390 . S
C1087 H1091 0.950 . S
H1088 C1084 0.950 . S
C1089 C1087 1.390 . S
C1089 C1090 1.387 . S
C1089 H1092 0.950 . S
C1090 C1089 1.387 . S
C1090 C1093 1.387 . S
H1091 C1087 0.950 . S
H1092 C1089 0.950 . S
C1093 C1084 1.390 . S
C1093 H1086 0.950 . S
C1093 C1090 1.387 . S
C1094 C1095 1.387 . S
C1094 H1098 0.950 . S
C1094 C1103 1.390 . S
C1095 C1094 1.387 . S
C1095 C1097 1.387 . S
H1096 C1103 0.950 . S
C1097 C1095 1.387 . S
C1097 C1099 1.390 . S
C1097 H1101 0.950 . S
H1098 C1094 0.950 . S
C1099 C1097 1.390 . S
C1099 C1100 1.387 . S
C1099 H1102 0.950 . S
C1100 C1099 1.387 . S
C1100 C1103 1.387 . S
H1101 C1097 0.950 . S
H1102 C1099 0.950 . S
C1103 C1094 1.390 . S
C1103 H1096 0.950 . S
C1103 C1100 1.387 . S
C1104 C1105 1.387 . S
C1104 H1108 0.950 . S
C1104 C1113 1.390 . S
C1105 C1104 1.387 . S
C1105 C1107 1.387 . S
H1106 C1113 0.950 . S
C1107 C1105 1.387 . S
C1107 C1109 1.390 . S
C1107 H1111 0.950 . S
H1108 C1104 0.950 . S
C1109 C1107 1.390 . S
C1109 C1110 1.387 . S
C1109 H1112 0.950 . S
C1110 C1109 1.387 . S
C1110 C1113 1.387 . S
H1111 C1107 0.950 . S
H1112 C1109 0.950 . S
C1113 C1104 1.390 . S
C1113 H1106 0.950 . S
C1113 C1110 1.387 . S
C1114 C1115 1.387 . S
C1114 H1118 0.950 . S
C1114 C1123 1.390 . S
C1115 C1114 1.387 . S
C1115 C1117 1.387 . S
H1116 C1123 0.950 . S
C1117 C1115 1.387 . S
C1117 C1119 1.390 . S
C1117 H1121 0.950 . S
H1118 C1114 0.950 . S
C1119 C1117 1.390 . S
C1119 C1120 1.387 . S
C1119 H1122 0.950 . S
C1120 C1119 1.387 . S
C1120 C1123 1.387 . S
H1121 C1117 0.950 . S
H1122 C1119 0.950 . S
C1123 C1114 1.390 . S
C1123 H1116 0.950 . S
C1123 C1120 1.387 . S
C1124 C1125 1.387 . S
C1124 H1128 0.950 . S
C1124 C1133 1.390 . S
C1125 C1124 1.387 . S
C1125 C1127 1.387 . S
H1126 C1133 0.950 . S
C1127 C1125 1.387 . S
C1127 C1129 1.390 . S
C1127 H1131 0.950 . S
H1128 C1124 0.950 . S
C1129 C1127 1.390 . S
C1129 C1130 1.387 . S
C1129 H1132 0.950 . S
C1130 C1129 1.387 . S
C1130 C1133 1.387 . S
H1131 C1127 0.950 . S
H1132 C1129 0.950 . S
C1133 C1124 1.390 . S
C1133 H1126 0.950 . S
C1133 C1130 1.387 . S
C1134 C1135 1.387 . S
C1134 H1138 0.950 . S
C1134 C1143 1.390 . S
C1135 C1134 1.387 . S
C1135 C1137 1.387 . S
H1136 C1143 0.950 . S
C1137 C1135 1.387 . S
C1137 C1139 1.390 . S
C1137 H1141 0.950 . S
H1138 C1134 0.950 . S
C1139 C1137 1.390 . S
C1139 C1140 1.387 . S
C1139 H1142 0.950 . S
C1140 C1139 1.387 . S
C1140 C1143 1.387 . S
H1141 C1137 0.950 . S
H1142 C1139 0.950 . S
C1143 C1134 1.390 . S
C1143 H1136 0.950 . S
C1143 C1140 1.387 . S
C1144 C1145 1.387 . S
C1144 H1148 0.950 . S
C1144 C1153 1.390 . S
C1145 C1144 1.387 . S
C1145 C1147 1.387 . S
H1146 C1153 0.950 . S
C1147 C1145 1.387 . S
C1147 C1149 1.390 . S
C1147 H1151 0.950 . S
H1148 C1144 0.950 . S
C1149 C1147 1.390 . S
C1149 C1150 1.387 . S
C1149 H1152 0.950 . S
C1150 C1149 1.387 . S
C1150 C1153 1.387 . S
H1151 C1147 0.950 . S
H1152 C1149 0.950 . S
C1153 C1144 1.390 . S
C1153 H1146 0.950 . S
C1153 C1150 1.387 . S
C1154 C1155 1.387 . S
C1154 H1158 0.950 . S
C1154 C1163 1.390 . S
C1155 C1154 1.387 . S
C1155 C1157 1.387 . S
H1156 C1163 0.950 . S
C1157 C1155 1.387 . S
C1157 C1159 1.390 . S
C1157 H1161 0.950 . S
H1158 C1154 0.950 . S
C1159 C1157 1.390 . S
C1159 C1160 1.387 . S
C1159 H1162 0.950 . S
C1160 C1159 1.387 . S
C1160 C1163 1.387 . S
H1161 C1157 0.950 . S
H1162 C1159 0.950 . S
C1163 C1154 1.390 . S
C1163 H1156 0.950 . S
C1163 C1160 1.387 . S
C1164 C1165 1.387 . S
C1164 H1168 0.950 . S
C1164 C1173 1.390 . S
C1165 C1164 1.387 . S
C1165 C1167 1.387 . S
H1166 C1173 0.950 . S
C1167 C1165 1.387 . S
C1167 C1169 1.390 . S
C1167 H1171 0.950 . S
H1168 C1164 0.950 . S
C1169 C1167 1.390 . S
C1169 C1170 1.387 . S
C1169 H1172 0.950 . S
C1170 C1169 1.387 . S
C1170 C1173 1.387 . S
H1171 C1167 0.950 . S
H1172 C1169 0.950 . S
C1173 C1164 1.390 . S
C1173 H1166 0.950 . S
C1173 C1170 1.387 . S
C1174 C1175 1.387 . S
C1174 H1178 0.950 . S
C1174 C1183 1.390 . S
C1175 C1174 1.387 . S
C1175 C1177 1.387 . S
H1176 C1183 0.950 . S
C1177 C1175 1.387 . S
C1177 C1179 1.390 . S
C1177 H1181 0.950 . S
H1178 C1174 0.950 . S
C1179 C1177 1.390 . S
C1179 C1180 1.387 . S
C1179 H1182 0.950 . S
C1180 C1179 1.387 . S
C1180 C1183 1.387 . S
H1181 C1177 0.950 . S
H1182 C1179 0.950 . S
C1183 C1174 1.390 . S
C1183 H1176 0.950 . S
C1183 C1180 1.387 . S
C1184 C1185 1.387 1_556 S
C1184 H1188 0.950 . S
C1184 C1193 1.390 1_455 S
C1185 C1184 1.387 1_554 S
C1185 C1187 1.387 . S
H1186 C1193 0.950 . S
C1187 C1185 1.387 . S
C1187 C1189 1.390 1_455 S
C1187 H1191 0.950 . S
H1188 C1184 0.950 . S
C1189 C1187 1.390 1_655 S
C1189 C1190 1.387 1_554 S
C1189 H1192 0.950 . S
C1190 C1189 1.387 1_556 S
C1190 C1193 1.387 . S
H1191 C1187 0.950 . S
H1192 C1189 0.950 . S
C1193 C1184 1.390 1_655 S
C1193 H1186 0.950 . S
C1193 C1190 1.387 . S
C1194 C1195 1.387 1_554 S
C1194 H1198 0.950 . S
C1194 C1203 1.390 . S
C1195 C1194 1.387 1_556 S
C1195 C1197 1.387 . S
H1196 C1203 0.950 . S
C1197 C1195 1.387 . S
C1197 C1199 1.390 . S
C1197 H1201 0.950 . S
H1198 C1194 0.950 . S
C1199 C1197 1.390 . S
C1199 C1200 1.387 1_556 S
C1199 H1202 0.950 . S
C1200 C1199 1.387 1_554 S
C1200 C1203 1.387 . S
H1201 C1197 0.950 . S
H1202 C1199 0.950 . S
C1203 C1194 1.390 . S
C1203 H1196 0.950 . S
C1203 C1200 1.387 . S
C1204 C1205 1.387 1_655 S
C1204 H1208 0.950 . S
C1204 C1213 1.390 . S
C1205 C1204 1.387 1_455 S
C1205 C1207 1.387 . S
H1206 C1213 0.950 . S
C1207 C1205 1.387 . S
C1207 C1209 1.390 . S
C1207 H1211 0.950 . S
H1208 C1204 0.950 . S
C1209 C1207 1.390 . S
C1209 C1210 1.387 1_455 S
C1209 H1212 0.950 . S
C1210 C1209 1.387 1_655 S
C1210 C1213 1.387 . S
H1211 C1207 0.950 . S
H1212 C1209 0.950 . S
C1213 C1204 1.390 . S
C1213 H1206 0.950 . S
C1213 C1210 1.387 . S
C1214 C1215 1.387 . S
C1214 H1218 0.950 . S
C1214 C1223 1.390 . S
C1215 C1214 1.387 . S
C1215 C1217 1.387 . S
H1216 C1223 0.950 . S
C1217 C1215 1.387 . S
C1217 C1219 1.390 . S
C1217 H1221 0.950 . S
H1218 C1214 0.950 . S
C1219 C1217 1.390 . S
C1219 C1220 1.387 . S
C1219 H1222 0.950 . S
C1220 C1219 1.387 . S
C1220 C1223 1.387 . S
H1221 C1217 0.950 . S
H1222 C1219 0.950 . S
C1223 C1214 1.390 . S
C1223 H1216 0.950 . S
C1223 C1220 1.387 . S
C1224 C1225 1.387 . S
C1224 H1228 0.950 . S
C1224 C1233 1.390 . S
C1225 C1224 1.387 . S
C1225 C1227 1.387 1_554 S
H1226 C1233 0.950 . S
C1227 C1225 1.387 1_556 S
C1227 C1229 1.390 . S
C1227 H1231 0.950 . S
H1228 C1224 0.950 . S
C1229 C1227 1.390 . S
C1229 C1230 1.387 . S
C1229 H1232 0.950 . S
C1230 C1229 1.387 . S
C1230 C1233 1.387 1_556 S
H1231 C1227 0.950 . S
H1232 C1229 0.950 . S
C1233 C1224 1.390 . S
C1233 H1226 0.950 . S
C1233 C1230 1.387 1_554 S
C1234 C1235 1.387 . S
C1234 H1238 0.950 . S
C1234 C1243 1.390 1_655 S
C1235 C1234 1.387 . S
C1235 C1237 1.387 . S
H1236 C1243 0.950 . S
C1237 C1235 1.387 . S
C1237 C1239 1.390 1_655 S
C1237 H1241 0.950 . S
H1238 C1234 0.950 . S
C1239 C1237 1.390 1_455 S
C1239 C1240 1.387 . S
C1239 H1242 0.950 . S
C1240 C1239 1.387 . S
C1240 C1243 1.387 . S
H1241 C1237 0.950 . S
H1242 C1239 0.950 . S
C1243 C1234 1.390 1_455 S
C1243 H1236 0.950 . S
C1243 C1240 1.387 . S
C1244 C1245 1.387 . S
C1244 H1248 0.950 . S
C1244 C1253 1.390 . S
C1245 C1244 1.387 . S
C1245 C1247 1.387 . S
H1246 C1253 0.950 . S
C1247 C1245 1.387 . S
C1247 C1249 1.390 . S
C1247 H1251 0.950 . S
H1248 C1244 0.950 . S
C1249 C1247 1.390 . S
C1249 C1250 1.387 . S
C1249 H1252 0.950 . S
C1250 C1249 1.387 . S
C1250 C1253 1.387 . S
H1251 C1247 0.950 . S
H1252 C1249 0.950 . S
C1253 C1244 1.390 . S
C1253 H1246 0.950 . S
C1253 C1250 1.387 . S
C1254 C1255 1.387 1_655 S
C1254 H1258 0.950 . S
C1254 C1263 1.390 1_565 S
C1255 C1254 1.387 1_455 S
C1255 C1257 1.387 . S
H1256 C1263 0.950 . S
C1257 C1255 1.387 . S
C1257 C1259 1.390 1_565 S
C1257 H1261 0.950 . S
H1258 C1254 0.950 . S
C1259 C1257 1.390 1_545 S
C1259 C1260 1.387 1_455 S
C1259 H1262 0.950 . S
C1260 C1259 1.387 1_655 S
C1260 C1263 1.387 . S
H1261 C1257 0.950 . S
H1262 C1259 0.950 . S
C1263 C1254 1.390 1_545 S
C1263 H1256 0.950 . S
C1263 C1260 1.387 . S
C1264 C1265 1.387 . S
C1264 H1268 0.950 . S
C1264 C1273 1.390 . S
C1265 C1264 1.387 . S
C1265 C1267 1.387 . S
H1266 C1273 0.950 . S
C1267 C1265 1.387 . S
C1267 C1269 1.390 . S
C1267 H1271 0.950 . S
H1268 C1264 0.950 . S
C1269 C1267 1.390 . S
C1269 C1270 1.387 . S
C1269 H1272 0.950 . S
C1270 C1269 1.387 . S
C1270 C1273 1.387 . S
H1271 C1267 0.950 . S
H1272 C1269 0.950 . S
C1273 C1264 1.390 . S
C1273 H1266 0.950 . S
C1273 C1270 1.387 . S
C1274 C1275 1.387 . S
C1274 H1278 0.950 . S
C1274 C1283 1.390 1_545 S
C1275 C1274 1.387 . S
C1275 C1277 1.387 . S
H1276 C1283 0.950 . S
C1277 C1275 1.387 . S
C1277 C1279 1.390 1_545 S
C1277 H1281 0.950 . S
H1278 C1274 0.950 . S
C1279 C1277 1.390 1_565 S
C1279 C1280 1.387 . S
C1279 H1282 0.950 . S
C1280 C1279 1.387 . S
C1280 C1283 1.387 . S
H1281 C1277 0.950 . S
H1282 C1279 0.950 . S
C1283 C1274 1.390 1_565 S
C1283 H1276 0.950 . S
C1283 C1280 1.387 . S
C1284 C1285 1.387 . S
C1284 H1288 0.950 . S
C1284 C1293 1.390 . S
C1285 C1284 1.387 . S
C1285 C1287 1.387 . S
H1286 C1293 0.950 . S
C1287 C1285 1.387 . S
C1287 C1289 1.390 . S
C1287 H1291 0.950 . S
H1288 C1284 0.950 . S
C1289 C1287 1.390 . S
C1289 C1290 1.387 . S
C1289 H1292 0.950 . S
C1290 C1289 1.387 . S
C1290 C1293 1.387 . S
H1291 C1287 0.950 . S
H1292 C1289 0.950 . S
C1293 C1284 1.390 . S
C1293 H1286 0.950 . S
C1293 C1290 1.387 . S
C1294 C1295 1.387 . S
C1294 H1298 0.950 . S
C1294 C1303 1.390 1_565 S
C1295 C1294 1.387 . S
C1295 C1297 1.387 . S
H1296 C1303 0.950 . S
C1297 C1295 1.387 . S
C1297 C1299 1.390 1_565 S
C1297 H1301 0.950 . S
H1298 C1294 0.950 . S
C1299 C1297 1.390 1_545 S
C1299 C1300 1.387 . S
C1299 H1302 0.950 . S
C1300 C1299 1.387 . S
C1300 C1303 1.387 . S
H1301 C1297 0.950 . S
H1302 C1299 0.950 . S
C1303 C1294 1.390 1_545 S
C1303 H1296 0.950 . S
C1303 C1300 1.387 . S
C1304 C1305 1.387 . S
C1304 H1308 0.950 . S
C1304 C1313 1.390 . S
C1305 C1304 1.387 . S
C1305 C1307 1.387 . S
H1306 C1313 0.950 . S
C1307 C1305 1.387 . S
C1307 C1309 1.390 . S
C1307 H1311 0.950 . S
H1308 C1304 0.950 . S
C1309 C1307 1.390 . S
C1309 C1310 1.387 . S
C1309 H1312 0.950 . S
C1310 C1309 1.387 . S
C1310 C1313 1.387 . S
H1311 C1307 0.950 . S
H1312 C1309 0.950 . S
C1313 C1304 1.390 . S
C1313 H1306 0.950 . S
C1313 C1310 1.387 . S
C1314 C1315 1.387 . S
C1314 H1318 0.950 . S
C1314 C1323 1.390 . S
C1315 C1314 1.387 . S
C1315 C1317 1.387 . S
H1316 C1323 0.950 . S
C1317 C1315 1.387 . S
C1317 C1319 1.390 . S
C1317 H1321 0.950 . S
H1318 C1314 0.950 . S
C1319 C1317 1.390 . S
C1319 C1320 1.387 . S
C1319 H1322 0.950 . S
C1320 C1319 1.387 . S
C1320 C1323 1.387 . S
H1321 C1317 0.950 . S
H1322 C1319 0.950 . S
C1323 C1314 1.390 . S
C1323 H1316 0.950 . S
C1323 C1320 1.387 . S
C1324 C1325 1.387 . S
C1324 H1328 0.950 . S
C1324 C1333 1.390 . S
C1325 C1324 1.387 . S
C1325 C1327 1.387 . S
H1326 C1333 0.950 . S
C1327 C1325 1.387 . S
C1327 C1329 1.390 . S
C1327 H1331 0.950 . S
H1328 C1324 0.950 . S
C1329 C1327 1.390 . S
C1329 C1330 1.387 . S
C1329 H1332 0.950 . S
C1330 C1329 1.387 . S
C1330 C1333 1.387 . S
H1331 C1327 0.950 . S
H1332 C1329 0.950 . S
C1333 C1324 1.390 . S
C1333 H1326 0.950 . S
C1333 C1330 1.387 . S
C1334 C1335 1.387 1_556 S
C1334 H1338 0.950 . S
C1334 C1343 1.390 1_565 S
C1335 C1334 1.387 1_554 S
C1335 C1337 1.387 . S
H1336 C1343 0.950 . S
C1337 C1335 1.387 . S
C1337 C1339 1.390 1_565 S
C1337 H1341 0.950 . S
H1338 C1334 0.950 . S
C1339 C1337 1.390 1_545 S
C1339 C1340 1.387 1_554 S
C1339 H1342 0.950 . S
C1340 C1339 1.387 1_556 S
C1340 C1343 1.387 . S
H1341 C1337 0.950 . S
H1342 C1339 0.950 . S
C1343 C1334 1.390 1_545 S
C1343 H1336 0.950 . S
C1343 C1340 1.387 . S
C1344 C1345 1.387 . S
C1344 H1348 0.950 . S
C1344 C1353 1.390 . S
C1345 C1344 1.387 . S
C1345 C1347 1.387 . S
H1346 C1353 0.950 . S
C1347 C1345 1.387 . S
C1347 C1349 1.390 1_554 S
C1347 H1351 0.950 1_554 S
H1348 C1344 0.950 . S
C1349 C1347 1.390 1_556 S
C1349 C1350 1.387 . S
C1349 H1352 0.950 . S
C1350 C1349 1.387 . S
C1350 C1353 1.387 1_556 S
H1351 C1347 0.950 1_556 S
H1352 C1349 0.950 . S
C1353 C1344 1.390 . S
C1353 H1346 0.950 . S
C1353 C1350 1.387 1_554 S
C1354 C1355 1.387 . S
C1354 H1358 0.950 . S
C1354 C1363 1.390 . S
C1355 C1354 1.387 . S
C1355 C1357 1.387 . S
H1356 C1363 0.950 . S
C1357 C1355 1.387 . S
C1357 C1359 1.390 1_554 S
C1357 H1361 0.950 1_554 S
H1358 C1354 0.950 . S
C1359 C1357 1.390 1_556 S
C1359 C1360 1.387 . S
C1359 H1362 0.950 . S
C1360 C1359 1.387 . S
C1360 C1363 1.387 1_556 S
H1361 C1357 0.950 1_556 S
H1362 C1359 0.950 . S
C1363 C1354 1.390 . S
C1363 H1356 0.950 . S
C1363 C1360 1.387 1_554 S
C1364 C1365 1.387 . S
C1364 H1368 0.950 . S
C1364 C1373 1.390 . S
C1365 C1364 1.387 . S
C1365 C1367 1.387 . S
H1366 C1373 0.950 . S
C1367 C1365 1.387 . S
C1367 C1369 1.390 . S
C1367 H1371 0.950 . S
H1368 C1364 0.950 . S
C1369 C1367 1.390 . S
C1369 C1370 1.387 . S
C1369 H1372 0.950 . S
C1370 C1369 1.387 . S
C1370 C1373 1.387 . S
H1371 C1367 0.950 . S
H1372 C1369 0.950 . S
C1373 C1364 1.390 . S
C1373 H1366 0.950 . S
C1373 C1370 1.387 . S
C1374 C1375 1.387 . S
C1374 H1378 0.950 . S
C1374 C1383 1.390 . S
C1375 C1374 1.387 . S
C1375 C1377 1.387 . S
H1376 C1383 0.950 . S
C1377 C1375 1.387 . S
C1377 C1379 1.390 . S
C1377 H1381 0.950 . S
H1378 C1374 0.950 . S
C1379 C1377 1.390 . S
C1379 C1380 1.387 . S
C1379 H1382 0.950 . S
C1380 C1379 1.387 . S
C1380 C1383 1.387 . S
H1381 C1377 0.950 . S
H1382 C1379 0.950 . S
C1383 C1374 1.390 . S
C1383 H1376 0.950 . S
C1383 C1380 1.387 . S
C1384 C1385 1.387 . S
C1384 H1388 0.950 1_556 S
C1384 C1393 1.390 1_556 S
C1385 C1384 1.387 . S
C1385 C1387 1.387 . S
H1386 C1393 0.950 . S
C1387 C1385 1.387 . S
C1387 C1389 1.390 . S
C1387 H1391 0.950 . S
H1388 C1384 0.950 1_554 S
C1389 C1387 1.390 . S
C1389 C1390 1.387 1_556 S
C1389 H1392 0.950 . S
C1390 C1389 1.387 1_554 S
C1390 C1393 1.387 . S
H1391 C1387 0.950 . S
H1392 C1389 0.950 . S
C1393 C1384 1.390 1_554 S
C1393 H1386 0.950 . S
C1393 C1390 1.387 . S
C1394 C1395 1.387 . S
C1394 H1398 0.950 . S
C1394 C1403 1.390 . S
C1395 C1394 1.387 . S
C1395 C1397 1.387 . S
H1396 C1403 0.950 . S
C1397 C1395 1.387 . S
C1397 C1399 1.390 1_556 S
C1397 H1401 0.950 1_556 S
H1398 C1394 0.950 . S
C1399 C1397 1.390 1_554 S
C1399 C1400 1.387 . S
C1399 H1402 0.950 . S
C1400 C1399 1.387 . S
C1400 C1403 1.387 1_554 S
H1401 C1397 0.950 1_554 S
H1402 C1399 0.950 . S
C1403 C1394 1.390 . S
C1403 H1396 0.950 . S
C1403 C1400 1.387 1_556 S
C1404 C1405 1.387 . S
C1404 H1408 0.950 . S
C1404 C1413 1.390 . S
C1405 C1404 1.387 . S
C1405 C1407 1.387 . S
H1406 C1413 0.950 . S
C1407 C1405 1.387 . S
C1407 C1409 1.390 . S
C1407 H1411 0.950 . S
H1408 C1404 0.950 . S
C1409 C1407 1.390 . S
C1409 C1410 1.387 . S
C1409 H1412 0.950 . S
C1410 C1409 1.387 . S
C1410 C1413 1.387 . S
H1411 C1407 0.950 . S
H1412 C1409 0.950 . S
C1413 C1404 1.390 . S
C1413 H1406 0.950 . S
C1413 C1410 1.387 . S
C1414 C1415 1.387 . S
C1414 H1418 0.950 . S
C1414 C1423 1.390 . S
C1415 C1414 1.387 . S
C1415 C1417 1.387 . S
H1416 C1423 0.950 . S
C1417 C1415 1.387 . S
C1417 C1419 1.390 . S
C1417 H1421 0.950 . S
H1418 C1414 0.950 . S
C1419 C1417 1.390 . S
C1419 C1420 1.387 . S
C1419 H1422 0.950 . S
C1420 C1419 1.387 . S
C1420 C1423 1.387 . S
H1421 C1417 0.950 . S
H1422 C1419 0.950 . S
C1423 C1414 1.390 . S
C1423 H1416 0.950 . S
C1423 C1420 1.387 . S
C1424 C1425 1.387 . S
C1424 H1428 0.950 . S
C1424 C1433 1.390 . S
C1425 C1424 1.387 . S
C1425 C1427 1.387 . S
H1426 C1433 0.950 1_545 S
C1427 C1425 1.387 . S
C1427 C1429 1.390 . S
C1427 H1431 0.950 . S
H1428 C1424 0.950 . S
C1429 C1427 1.390 . S
C1429 C1430 1.387 . S
C1429 H1432 0.950 . S
C1430 C1429 1.387 . S
C1430 C1433 1.387 . S
H1431 C1427 0.950 . S
H1432 C1429 0.950 . S
C1433 C1424 1.390 . S
C1433 H1426 0.950 1_565 S
C1433 C1430 1.387 . S
C1434 C1435 1.387 . S
C1434 H1438 0.950 . S
C1434 C1443 1.390 . S
C1435 C1434 1.387 . S
C1435 C1437 1.387 . S
H1436 C1443 0.950 . S
C1437 C1435 1.387 . S
C1437 C1439 1.390 . S
C1437 H1441 0.950 . S
H1438 C1434 0.950 . S
C1439 C1437 1.390 . S
C1439 C1440 1.387 . S
C1439 H1442 0.950 . S
C1440 C1439 1.387 . S
C1440 C1443 1.387 . S
H1441 C1437 0.950 . S
H1442 C1439 0.950 . S
C1443 C1434 1.390 . S
C1443 H1436 0.950 . S
C1443 C1440 1.387 . S
C1444 C1445 1.387 . S
C1444 H1448 0.950 . S
C1444 C1453 1.390 . S
C1445 C1444 1.387 . S
C1445 C1447 1.387 . S
H1446 C1453 0.950 . S
C1447 C1445 1.387 . S
C1447 C1449 1.390 . S
C1447 H1451 0.950 . S
H1448 C1444 0.950 . S
C1449 C1447 1.390 . S
C1449 C1450 1.387 . S
C1449 H1452 0.950 . S
C1450 C1449 1.387 . S
C1450 C1453 1.387 . S
H1451 C1447 0.950 . S
H1452 C1449 0.950 . S
C1453 C1444 1.390 . S
C1453 H1446 0.950 . S
C1453 C1450 1.387 . S
C1454 C1455 1.387 . S
C1454 H1458 0.950 . S
C1454 C1463 1.390 . S
C1455 C1454 1.387 . S
C1455 C1457 1.387 . S
H1456 C1463 0.950 1_545 S
C1457 C1455 1.387 . S
C1457 C1459 1.390 . S
C1457 H1461 0.950 . S
H1458 C1454 0.950 . S
C1459 C1457 1.390 . S
C1459 C1460 1.387 . S
C1459 H1462 0.950 . S
C1460 C1459 1.387 . S
C1460 C1463 1.387 . S
H1461 C1457 0.950 . S
H1462 C1459 0.950 . S
C1463 C1454 1.390 . S
C1463 H1456 0.950 1_565 S
C1463 C1460 1.387 . S
C1464 C1465 1.387 . S
C1464 H1468 0.950 1_545 S
C1464 C1473 1.390 . S
C1465 C1464 1.387 . S
C1465 C1467 1.387 . S
H1466 C1473 0.950 . S
C1467 C1465 1.387 . S
C1467 C1469 1.390 . S
C1467 H1471 0.950 . S
H1468 C1464 0.950 1_565 S
C1469 C1467 1.390 . S
C1469 C1470 1.387 . S
C1469 H1472 0.950 . S
C1470 C1469 1.387 . S
C1470 C1473 1.387 . S
H1471 C1467 0.950 . S
H1472 C1469 0.950 . S
C1473 C1464 1.390 . S
C1473 H1466 0.950 . S
C1473 C1470 1.387 . S
C1474 C1475 1.387 . S
C1474 H1478 0.950 . S
C1474 C1483 1.390 . S
C1475 C1474 1.387 . S
C1475 C1477 1.387 . S
H1476 C1483 0.950 . S
C1477 C1475 1.387 . S
C1477 C1479 1.390 . S
C1477 H1481 0.950 . S
H1478 C1474 0.950 . S
C1479 C1477 1.390 . S
C1479 C1480 1.387 . S
C1479 H1482 0.950 . S
C1480 C1479 1.387 . S
C1480 C1483 1.387 . S
H1481 C1477 0.950 . S
H1482 C1479 0.950 . S
C1483 C1474 1.390 . S
C1483 H1476 0.950 . S
C1483 C1480 1.387 . S
C1484 C1485 1.387 . S
C1484 H1488 0.950 . S
C1484 C1493 1.390 . S
C1485 C1484 1.387 . S
C1485 C1487 1.387 . S
H1486 C1493 0.950 . S
C1487 C1485 1.387 . S
C1487 C1489 1.390 . S
C1487 H1491 0.950 . S
H1488 C1484 0.950 . S
C1489 C1487 1.390 . S
C1489 C1490 1.387 . S
C1489 H1492 0.950 . S
C1490 C1489 1.387 . S
C1490 C1493 1.387 . S
H1491 C1487 0.950 . S
H1492 C1489 0.950 . S
C1493 C1484 1.390 . S
C1493 H1486 0.950 . S
C1493 C1490 1.387 . S
C1494 C1495 1.387 . S
C1494 H1498 0.950 . S
C1494 C1503 1.390 . S
C1495 C1494 1.387 . S
C1495 C1497 1.387 . S
H1496 C1503 0.931 1_455 S
C1497 C1495 1.387 . S
C1497 C1499 1.390 . S
C1497 H1501 0.950 . S
H1498 C1494 0.950 . S
C1499 C1497 1.390 . S
C1499 C1500 1.387 . S
C1499 H1502 0.950 1_545 S
C1500 C1499 1.387 . S
C1500 C1503 1.387 . S
H1501 C1497 0.950 . S
H1502 C1499 0.950 1_565 S
C1503 C1494 1.390 . S
C1503 H1496 0.931 1_655 S
C1503 C1500 1.387 . S
C1504 C1505 1.387 . S
C1504 H1508 0.950 . S
C1504 C1513 1.390 . S
C1505 C1504 1.387 . S
C1505 C1507 1.387 . S
H1506 C1513 0.950 . S
C1507 C1505 1.387 . S
C1507 C1509 1.390 . S
C1507 H1511 0.950 . S
H1508 C1504 0.950 . S
C1509 C1507 1.390 . S
C1509 C1510 1.387 . S
C1509 H1512 0.950 . S
C1510 C1509 1.387 . S
C1510 C1513 1.387 . S
H1511 C1507 0.950 . S
H1512 C1509 0.950 . S
C1513 C1504 1.390 . S
C1513 H1506 0.950 . S
C1513 C1510 1.387 . S
C1514 C1515 1.387 . S
C1514 H1518 0.950 . S
C1514 C1523 1.390 . S
C1515 C1514 1.387 . S
C1515 C1517 1.387 . S
H1516 C1523 0.950 . S
C1517 C1515 1.387 . S
C1517 C1519 1.390 . S
C1517 H1521 0.950 . S
H1518 C1514 0.950 . S
C1519 C1517 1.390 . S
C1519 C1520 1.387 . S
C1519 H1522 0.950 . S
C1520 C1519 1.387 . S
C1520 C1523 1.387 . S
H1521 C1517 0.950 . S
H1522 C1519 0.950 . S
C1523 C1514 1.390 . S
C1523 H1516 0.950 . S
C1523 C1520 1.387 . S
C1524 C1525 1.387 . S
C1524 H1528 0.950 . S
C1524 C1533 1.390 . S
C1525 C1524 1.387 . S
C1525 C1527 1.387 . S
H1526 C1533 0.950 . S
C1527 C1525 1.387 . S
C1527 C1529 1.390 . S
C1527 H1531 0.950 . S
H1528 C1524 0.950 . S
C1529 C1527 1.390 . S
C1529 C1530 1.387 . S
C1529 H1532 0.950 . S
C1530 C1529 1.387 . S
C1530 C1533 1.387 . S
H1531 C1527 0.950 . S
H1532 C1529 0.950 . S
C1533 C1524 1.390 . S
C1533 H1526 0.950 . S
C1533 C1530 1.387 . S
C1534 C1535 1.387 . S
C1534 H1538 0.950 . S
C1534 C1543 1.390 . S
C1535 C1534 1.387 . S
C1535 C1537 1.387 . S
H1536 C1543 0.950 . S
C1537 C1535 1.387 . S
C1537 C1539 1.390 . S
C1537 H1541 0.950 . S
H1538 C1534 0.950 . S
C1539 C1537 1.390 . S
C1539 C1540 1.387 . S
C1539 H1542 0.950 . S
C1540 C1539 1.387 . S
C1540 C1543 1.387 . S
H1541 C1537 0.950 . S
H1542 C1539 0.950 . S
C1543 C1534 1.390 . S
C1543 H1536 0.950 . S
C1543 C1540 1.387 . S
C1544 C1545 1.387 . S
C1544 H1548 0.950 . S
C1544 C1553 1.390 . S
C1545 C1544 1.387 . S
C1545 C1547 1.387 . S
H1546 C1553 0.950 . S
C1547 C1545 1.387 . S
C1547 C1549 1.390 . S
C1547 H1551 0.950 . S
H1548 C1544 0.950 . S
C1549 C1547 1.390 . S
C1549 C1550 1.387 . S
C1549 H1552 0.950 . S
C1550 C1549 1.387 . S
C1550 C1553 1.387 . S
H1551 C1547 0.950 . S
H1552 C1549 0.950 . S
C1553 C1544 1.390 . S
C1553 H1546 0.950 . S
C1553 C1550 1.387 . S
C1554 C1555 1.387 . S
C1554 H1558 0.950 . S
C1554 C1563 1.390 . S
C1555 C1554 1.387 . S
C1555 C1557 1.387 . S
H1556 C1563 0.950 . S
C1557 C1555 1.387 . S
C1557 C1559 1.390 . S
C1557 H1561 0.950 . S
H1558 C1554 0.950 . S
C1559 C1557 1.390 . S
C1559 C1560 1.387 . S
C1559 H1562 0.950 . S
C1560 C1559 1.387 . S
C1560 C1563 1.387 . S
H1561 C1557 0.950 . S
H1562 C1559 0.950 . S
C1563 C1554 1.390 . S
C1563 H1556 0.950 . S
C1563 C1560 1.387 . S
C1564 C1565 1.387 . S
C1564 H1568 0.950 . S
C1564 C1573 1.390 . S
C1565 C1564 1.387 . S
C1565 C1567 1.387 . S
H1566 C1573 0.950 . S
C1567 C1565 1.387 . S
C1567 C1569 1.390 . S
C1567 H1571 0.950 . S
H1568 C1564 0.950 . S
C1569 C1567 1.390 . S
C1569 C1570 1.387 . S
C1569 H1572 0.950 . S
C1570 C1569 1.387 . S
C1570 C1573 1.387 . S
H1571 C1567 0.950 . S
H1572 C1569 0.950 . S
C1573 C1564 1.390 . S
C1573 H1566 0.950 . S
C1573 C1570 1.387 . S
C1574 C1575 1.387 . S
C1574 H1578 0.950 . S
C1574 C1583 1.390 . S
C1575 C1574 1.387 . S
C1575 C1577 1.387 . S
H1576 C1583 0.950 . S
C1577 C1575 1.387 . S
C1577 C1579 1.390 . S
C1577 H1581 0.950 . S
H1578 C1574 0.950 . S
C1579 C1577 1.390 . S
C1579 C1580 1.387 . S
C1579 H1582 0.950 . S
C1580 C1579 1.387 . S
C1580 C1583 1.387 . S
H1581 C1577 0.950 . S
H1582 C1579 0.950 . S
C1583 C1574 1.390 . S
C1583 H1576 0.950 . S
C1583 C1580 1.387 . S
C1584 C1585 1.387 . S
C1584 H1588 0.950 . S
C1584 C1593 1.390 . S
C1585 C1584 1.387 . S
C1585 C1587 1.387 . S
H1586 C1593 0.950 1_545 S
C1587 C1585 1.387 . S
C1587 C1589 1.390 1_554 S
C1587 H1591 0.950 . S
H1588 C1584 0.950 . S
C1589 C1587 1.390 1_556 S
C1589 C1590 1.387 . S
C1589 H1592 0.950 . S
C1590 C1589 1.387 . S
C1590 C1593 1.387 1_556 S
H1591 C1587 0.950 . S
H1592 C1589 0.950 . S
C1593 C1584 1.390 . S
C1593 H1586 0.950 1_565 S
C1593 C1590 1.387 1_554 S
C1594 C1595 1.387 . S
C1594 H1598 0.950 . S
C1594 C1603 1.390 . S
C1595 C1594 1.387 . S
C1595 C1597 1.387 . S
H1596 C1603 0.950 . S
C1597 C1595 1.387 . S
C1597 C1599 1.390 1_554 S
C1597 H1601 0.950 1_554 S
H1598 C1594 0.950 . S
C1599 C1597 1.390 1_556 S
C1599 C1600 1.387 . S
C1599 H1602 0.950 . S
C1600 C1599 1.387 . S
C1600 C1603 1.387 1_556 S
H1601 C1597 0.950 1_556 S
H1602 C1599 0.950 . S
C1603 C1594 1.390 . S
C1603 H1596 0.950 . S
C1603 C1600 1.387 1_554 S
C1604 C1605 1.387 . S
C1604 H1608 0.950 . S
C1604 C1613 1.390 . S
C1605 C1604 1.387 . S
C1605 C1607 1.387 . S
H1606 C1613 0.950 . S
C1607 C1605 1.387 . S
C1607 C1609 1.390 . S
C1607 H1611 0.950 . S
H1608 C1604 0.950 . S
C1609 C1607 1.390 . S
C1609 C1610 1.387 . S
C1609 H1612 0.950 . S
C1610 C1609 1.387 . S
C1610 C1613 1.387 . S
H1611 C1607 0.950 . S
H1612 C1609 0.950 . S
C1613 C1604 1.390 . S
C1613 H1606 0.950 . S
C1613 C1610 1.387 . S
C1614 C1615 1.387 . S
C1614 H1618 0.950 . S
C1614 C1623 1.390 . S
C1615 C1614 1.387 . S
C1615 C1617 1.387 . S
H1616 C1623 0.950 . S
C1617 C1615 1.387 . S
C1617 C1619 1.390 . S
C1617 H1621 0.950 1_565 S
H1618 C1614 0.950 . S
C1619 C1617 1.390 . S
C1619 C1620 1.387 . S
C1619 H1622 0.950 . S
C1620 C1619 1.387 . S
C1620 C1623 1.387 . S
H1621 C1617 0.950 1_545 S
H1622 C1619 0.950 . S
C1623 C1614 1.390 . S
C1623 H1616 0.950 . S
C1623 C1620 1.387 . S
C1624 C1625 1.387 1_556 S
C1624 H1628 0.950 1_545 S
C1624 C1633 1.390 . S
C1625 C1624 1.387 1_554 S
C1625 C1627 1.387 . S
H1626 C1633 0.950 . S
C1627 C1625 1.387 . S
C1627 C1629 1.390 1_554 S
C1627 H1631 0.950 . S
H1628 C1624 0.950 1_565 S
C1629 C1627 1.390 1_556 S
C1629 C1630 1.387 . S
C1629 H1632 0.950 . S
C1630 C1629 1.387 . S
C1630 C1633 1.387 . S
H1631 C1627 0.950 . S
H1632 C1629 0.950 . S
C1633 C1624 1.390 . S
C1633 H1626 0.950 . S
C1633 C1630 1.387 . S
C1634 C1635 1.387 . S
C1634 H1638 0.950 . S
C1634 C1643 1.390 1_554 S
C1635 C1634 1.387 . S
C1635 C1637 1.387 1_554 S
H1636 C1643 0.950 1_554 S
C1637 C1635 1.387 1_556 S
C1637 C1639 1.390 . S
C1637 H1641 0.950 . S
H1638 C1634 0.950 . S
C1639 C1637 1.390 . S
C1639 C1640 1.387 . S
C1639 H1642 0.950 . S
C1640 C1639 1.387 . S
C1640 C1643 1.387 . S
H1641 C1637 0.950 . S
H1642 C1639 0.950 . S
C1643 C1634 1.390 1_556 S
C1643 H1636 0.950 1_556 S
C1643 C1640 1.387 . S
C1644 C1645 1.387 . S
C1644 H1648 0.950 . S
C1644 C1653 1.390 . S
C1645 C1644 1.387 . S
C1645 C1647 1.387 . S
H1646 C1653 0.950 . S
C1647 C1645 1.387 . S
C1647 C1649 1.390 . S
C1647 H1651 0.950 . S
H1648 C1644 0.950 . S
C1649 C1647 1.390 . S
C1649 C1650 1.387 . S
C1649 H1652 0.950 . S
C1650 C1649 1.387 . S
C1650 C1653 1.387 . S
H1651 C1647 0.950 . S
H1652 C1649 0.950 . S
C1653 C1644 1.390 . S
C1653 H1646 0.950 . S
C1653 C1650 1.387 . S
C1654 C1655 1.387 . S
C1654 H1658 0.950 . S
C1654 C1663 1.390 . S
C1655 C1654 1.387 . S
C1655 C1657 1.387 . S
H1656 C1663 0.950 . S
C1657 C1655 1.387 . S
C1657 C1659 1.390 . S
C1657 H1661 0.950 1_545 S
H1658 C1654 0.950 . S
C1659 C1657 1.390 . S
C1659 C1660 1.387 . S
C1659 H1662 0.950 . S
C1660 C1659 1.387 . S
C1660 C1663 1.387 . S
H1661 C1657 0.950 1_565 S
H1662 C1659 0.950 . S
C1663 C1654 1.390 . S
C1663 H1656 0.950 . S
C1663 C1660 1.387 . S
C705 C8 1.282 . S
C710 C40 1.282 . S
C715 C84 1.285 . S
C720 C52 1.285 . S
C725 C96 1.284 . S
C730 C128 1.284 . S
C735 C142 1.281 . S
C740 C164 1.281 . S
C745 C186 1.285 . S
C750 C216 1.285 . S
C755 C260 1.282 . S
C760 C228 1.282 . S
C765 C304 1.284 . S
C770 C272 1.284 . S
C775 C318 1.284 . S
C780 C348 1.284 . S
C785 C360 1.282 . S
C790 C392 1.282 . S
C795 C406 1.285 . S
C800 C436 1.285 . S
C805 C448 1.281 . S
C810 C480 1.281 . S
C815 C524 1.281 . S
C820 C502 1.281 . S
C825 C536 1.285 . S
C830 C568 1.285 . S
C835 C612 1.282 . S
C840 C580 1.282 . S
C845 C656 1.281 . S
C850 C624 1.281 . S
C855 C700 1.284 . S
C860 C678 1.284 . S
C865 C7 1.651 . S
C870 C565 1.651 . S
C875 C535 1.652 . S
C880 C37 1.652 . S
C885 C609 1.651 . S
C890 C51 1.651 . S
C895 C81 1.652 . S
C900 C579 1.652 . S
C905 C103 1.661 . S
C910 C659 1.661 . S
C915 C631 1.661 . S
C920 C131 1.661 . S
C925 C703 1.660 . S
C930 C139 1.660 . S
C935 C681 1.661 . S
C940 C161 1.661 . S
C945 C389 1.652 . S
C950 C197 1.652 . S
C955 C213 1.652 . S
C960 C359 1.652 . S
C965 C227 1.652 . S
C970 C433 1.652 . S
C975 C417 1.651 . S
C980 C257 1.651 . S
C985 C483 1.661 . S
C990 C279 1.661 . S
C995 C307 1.661 . S
C1000 C455 1.661 . S
C1005 C315 1.661 . S
C1010 C527 1.661 . S
C1015 C351 1.660 . S
C1020 C505 1.660 . S
C1025 C18 1.578 . S
C1030 C76 1.578 . S
C1035 C62 1.580 . S
C1040 C32 1.580 . S
C1045 C98 1.583 . S
C1050 C172 1.583 . S
C1055 C150 1.583 . S
C1060 C118 1.583 . S
C1065 C252 1.578 . S
C1070 C184 1.578 . S
C1075 C208 1.580 . S
C1080 C238 1.580 . S
C1085 C338 1.582 . S
C1090 C274 1.582 . S
C1095 C294 1.582 . S
C1100 C326 1.582 . S
C1105 C370 1.580 . S
C1110 C428 1.580 . S
C1115 C384 1.580 . S
C1120 C404 1.580 . S
C1125 C450 1.583 . S
C1130 C514 1.583 . S
C1135 C470 1.582 . S
C1140 C492 1.582 . S
C1145 C546 1.578 . S
C1150 C604 1.578 . S
C1155 C560 1.578 . S
C1160 C590 1.578 . S
C1165 C690 1.582 . S
C1170 C626 1.582 . S
C1175 C646 1.582 . S
C1180 C668 1.582 . S
C1185 C15 1.176 . S
C1190 C95 1.187 . S
C1195 C653 1.189 . S
C1200 C43 1.178 . S
C1205 C59 1.176 . S
C1210 C329 1.188 . S
C1215 C87 1.177 . S
C1220 C521 1.188 . S
C1225 C571 1.178 . S
C1230 C125 1.190 . S
C1235 C153 1.188 . S
C1240 C235 1.176 . S
C1245 C439 1.178 . S
C1250 C175 1.189 . S
C1255 C183 1.178 . S
C1260 C271 1.190 . S
C1265 C477 1.190 . S
C1270 C219 1.179 . S
C1275 C697 1.189 . S
C1280 C263 1.178 . S
C1285 C395 1.179 . S
C1290 C301 1.191 . S
C1295 C615 1.178 . S
C1300 C345 1.189 . S
C1305 C367 1.178 . S
C1310 C447 1.190 . S
C1315 C403 1.178 . S
C1320 C675 1.189 . S
C1325 C587 1.178 . S
C1330 C499 1.189 . S
C1335 C543 1.176 . S
C1340 C623 1.188 . S
C1345 C10 1.382 . S
C1350 C645 1.447 . S
C1355 C30 1.382 . S
C1360 C109 1.447 . S
C1365 C513 1.448 . S
C1370 C54 1.385 . S
C1375 C74 1.382 . S
C1380 C323 1.447 . S
C1385 C106 1.395 . S
C1390 C557 1.450 . S
C1395 C120 1.397 . S
C1400 C21 1.451 . S
C1405 C140 1.394 . S
C1410 C425 1.450 . S
C1415 C241 1.450 . S
C1420 C162 1.394 . S
C1425 C194 1.382 . S
C1430 C469 1.447 . S
C1435 C206 1.382 . S
C1440 C285 1.447 . S
C1445 C689 1.447 . S
C1450 C230 1.382 . S
C1455 C250 1.381 . S
C1460 C147 1.447 . S
C1465 C381 1.458 . S
C1470 C282 1.397 . S
C1475 C296 1.397 . S
C1480 C191 1.451 . S
C1485 C316 1.397 . S
C1490 C601 1.451 . S
C1495 C340 1.394 . S
C1500 C65 1.456 . S
C1505 C293 1.447 . S
C1510 C362 1.382 . S
C1515 C382 1.384 . S
C1520 C461 1.448 . S
C1525 C414 1.381 . S
C1530 C169 1.447 . S
C1535 C667 1.447 . S
C1540 C426 1.381 . S
C1545 C458 1.397 . S
C1550 C205 1.451 . S
C1555 C373 1.451 . S
C1560 C472 1.397 . S
C1565 C494 1.397 . S
C1570 C73 1.451 . S
C1575 C593 1.451 . S
C1580 C516 1.397 . S
C1585 C538 1.381 . S
C1590 C117 1.447 . S
C1595 C558 1.382 . S
C1600 C637 1.447 . S
C1605 C337 1.448 . S
C1610 C582 1.385 . S
C1615 C491 1.448 . S
C1620 C602 1.385 . S
C1625 C29 1.458 . S
C1630 C634 1.397 . S
C1635 C549 1.450 . S
C1640 C648 1.394 . S
C1645 C670 1.397 . S
C1650 C249 1.451 . S
C1655 C411 1.456 . S
C1660 C692 1.393 . S
