# Generated by pormake.
# Topology sxa, (6)-cn, num edge types: 1
# Building blocks:
#     Node 0, Type 0, BuildingBlock: OJICUG_clean_sbu_0, # of connection points: 6
#     Node 1, Type 0, BuildingBlock: OJICUG_clean_sbu_0, # of connection points: 6
#     Node 2, Type 0, BuildingBlock: OJICUG_clean_sbu_0, # of connection points: 6
#     Node 3, Type 0, BuildingBlock: OJICUG_clean_sbu_0, # of connection points: 6
#     Edge 4, Type (0, 0), BuildingBlock: UVAHIK_clean_linker_0, # of connection points: 2
#     Edge 5, Type (0, 0), BuildingBlock: UVAHIK_clean_linker_0, # of connection points: 2
#     Edge 6, Type (0, 0), BuildingBlock: UVAHIK_clean_linker_0, # of connection points: 2
#     Edge 7, Type (0, 0), BuildingBlock: UVAHIK_clean_linker_0, # of connection points: 2
#     Edge 8, Type (0, 0), BuildingBlock: UVAHIK_clean_linker_0, # of connection points: 2
#     Edge 9, Type (0, 0), BuildingBlock: UVAHIK_clean_linker_0, # of connection points: 2
#     Edge 10, Type (0, 0), BuildingBlock: UVAHIK_clean_linker_0, # of connection points: 2
#     Edge 11, Type (0, 0), BuildingBlock: UVAHIK_clean_linker_0, # of connection points: 2
#     Edge 12, Type (0, 0), BuildingBlock: UVAHIK_clean_linker_0, # of connection points: 2
#     Edge 13, Type (0, 0), BuildingBlock: UVAHIK_clean_linker_0, # of connection points: 2
#     Edge 14, Type (0, 0), BuildingBlock: UVAHIK_clean_linker_0, # of connection points: 2
#     Edge 15, Type (0, 0), BuildingBlock: UVAHIK_clean_linker_0, # of connection points: 2
# Relax obj value: 0.172
# Max RMSD: 0.251
# Mean RMSD: 0.251
data_MOF--net-sxa--node1-OJICUG_clean_sbu_0--edge1-UVAHIK_clean_linker_0
_symmetry_space_group_name_H-M    P1
_symmetry_Int_Tables_number       1
_symmetry_cell_setting            triclinic
loop_
_symmetry_equiv_pos_as_xyz
'x, y, z'
_cell_length_a     32.400817
_cell_length_b     38.008198
_cell_length_c     22.560501
_cell_angle_alpha  90.072431
_cell_angle_beta   90.008745
_cell_angle_gamma 113.26527
loop_
_atom_site_label
_atom_site_type_symbol
_atom_site_fract_x
_atom_site_fract_y
_atom_site_fract_z
_atom_type_partial_charge
Sc0 Sc -0.00837 0.76884 0.14029 0.0
Sc1 Sc 0.02535 0.81819 0.2743 0.0
Sc2 Sc 0.96053 0.72049 0.27535 0.0
O3 O -0.00748 0.76916 0.22957 0.0
C4 C 0.89065 0.71684 0.17587 0.0
C5 C 0.98868 0.84952 0.16269 0.0
C6 C 0.93926 0.78199 0.35173 0.0
C7 C 0.09328 0.82108 0.17259 0.0
C8 C -0.005 0.68832 0.1625 0.0
C9 C 0.048 0.75723 0.35022 0.0
O10 O 0.92148 0.73289 0.13805 0.0
O11 O 0.01006 0.8541 0.21126 0.0
O12 O 0.94091 0.7493 0.34554 0.0
O13 O 0.06172 0.80476 0.13576 0.0
O14 O 0.97458 0.68409 0.21177 0.0
O15 O 0.04639 0.78992 0.34379 0.0
O16 O 0.00863 0.71962 0.13394 0.0
O17 O 0.0867 0.82561 0.22734 0.0
O18 O 0.02207 0.7277 0.32187 0.0
O19 O 0.9745 0.81801 0.13451 0.0
O20 O 0.89829 0.71273 0.23038 0.0
O21 O 0.96462 0.81128 0.32255 0.0
Sc22 Sc 0.49286 0.26847 0.13999 0.0
Sc23 Sc 0.52391 0.3169 0.27523 0.0
Sc24 Sc 0.45954 0.21908 0.27386 0.0
O25 O 0.49207 0.26816 0.22929 0.0
C26 C 0.39138 0.21571 0.17213 0.0
C27 C 0.48899 0.3488 0.16258 0.0
C28 C 0.43648 0.27982 0.35005 0.0
C29 C 0.59377 0.32085 0.17554 0.0
C30 C 0.49651 0.18803 0.1621 0.0
C31 C 0.54575 0.25566 0.35131 0.0
O32 O 0.42286 0.23228 0.1354 0.0
O33 O 0.50944 0.35312 0.21186 0.0
O34 O 0.43819 0.24718 0.34338 0.0
O35 O 0.56292 0.30467 0.13774 0.0
O36 O 0.4752 0.18336 0.21072 0.0
O37 O 0.544 0.28831 0.34518 0.0
O38 O 0.51035 0.2195 0.13397 0.0
O39 O 0.58617 0.32495 0.23009 0.0
O40 O 0.52034 0.2263 0.32219 0.0
O41 O 0.47551 0.3175 0.13389 0.0
O42 O 0.39805 0.21122 0.22685 0.0
O43 O 0.46237 0.30942 0.32193 0.0
Sc44 Sc 0.99126 0.26842 0.89088 0.0
Sc45 Sc 0.95908 0.21973 0.75605 0.0
Sc46 Sc 0.02386 0.31748 0.75663 0.0
O47 O -0.00858 0.26854 0.80158 0.0
C48 C 0.98782 0.34894 0.86882 0.0
C49 C 0.89002 0.2163 0.85655 0.0
C50 C 0.93718 0.28102 0.68008 0.0
C51 C -0.00544 0.1879 0.86825 0.0
C52 C 0.0926 0.32077 0.8575 0.0
C53 C 0.04607 0.25636 0.68027 0.0
O54 O 0.97402 0.31751 0.89707 0.0
O55 O 0.8972 0.21208 0.80189 0.0
O56 O 0.96283 0.3104 0.70896 0.0
O57 O 0.00845 0.2193 0.89674 0.0
O58 O 0.08559 0.32516 0.80287 0.0
O59 O 0.02026 0.22688 0.70871 0.0
O60 O 0.06134 0.30446 0.89465 0.0
O61 O 0.9737 0.18353 0.81928 0.0
O62 O 0.04452 0.28907 0.68685 0.0
O63 O 0.92117 0.23238 0.89401 0.0
O64 O 0.00885 0.35347 0.81998 0.0
O65 O 0.93877 0.24831 0.68628 0.0
Sc66 Sc 0.49389 0.76859 0.89102 0.0
Sc67 Sc 0.46095 0.71922 0.75685 0.0
Sc68 Sc 0.52531 0.81702 0.75608 0.0
O69 O 0.49336 0.76828 0.80173 0.0
C70 C 0.4902 0.84895 0.8686 0.0
C71 C 0.39249 0.7159 0.8581 0.0
C72 C 0.43809 0.78001 0.68077 0.0
C73 C 0.49748 0.6881 0.86883 0.0
C74 C 0.59491 0.82092 0.85609 0.0
C75 C 0.54729 0.75581 0.67993 0.0
O76 O 0.47655 0.81763 0.89711 0.0
O77 O 0.39932 0.71139 0.80342 0.0
O78 O 0.46386 0.80957 0.70918 0.0
O79 O 0.51131 0.71958 0.89707 0.0
O80 O 0.58745 0.825 0.8015 0.0
O81 O 0.52193 0.72645 0.70897 0.0
O82 O 0.56396 0.80477 0.89371 0.0
O83 O 0.47634 0.68345 0.82005 0.0
O84 O 0.54541 0.78842 0.68606 0.0
O85 O 0.42387 0.73243 0.89508 0.0
O86 O 0.51082 0.85326 0.81948 0.0
O87 O 0.43987 0.74738 0.68722 0.0
C88 C -0.00055 0.41831 0.86739 0.0
C89 C 0.98277 0.3826 0.89623 0.0
C90 C -0.0005 0.45103 0.89584 0.0
C91 C -0.00083 0.4898 0.04562 0.0
H92 H 0.97391 0.56809 0.96189 0.0
C93 C 0.98265 0.61878 0.16401 0.0
C94 C -0.00053 0.65444 0.135 0.0
C95 C 0.98209 0.5859 0.13555 0.0
C96 C 0.98166 0.54674 0.98573 0.0
H97 H 0.95121 0.35322 0.97698 0.0
H98 H 0.95089 0.41024 0.02622 0.0
H99 H 0.96677 0.50957 0.91022 0.0
H100 H 0.03067 0.68351 0.05389 0.0
H101 H 0.03015 0.62622 1.00466 0.0
H102 H 0.01412 0.52698 0.12111 0.0
C103 C 0.96468 0.41299 0.98192 0.0
C104 C 0.97742 0.51313 0.95613 0.0
C105 C 0.96454 0.38022 0.95343 0.0
C106 C 0.01726 0.65657 0.07759 0.0
C107 C 0.01663 0.62364 0.0491 0.0
C108 C 0.00342 0.52342 0.07521 0.0
C109 C 0.9829 0.44891 0.95388 0.0
C110 C 0.98615 0.48425 0.9857 0.0
C111 C -0.00168 0.5878 0.07735 0.0
C112 C -0.00524 0.55233 0.04563 0.0
H113 H 0.01374 0.42132 0.82335 0.0
H114 H 0.01407 0.47825 0.87307 0.0
H115 H 0.00695 0.46846 0.06945 0.0
H116 H 0.96866 0.61595 0.2082 0.0
H117 H 0.96746 0.55874 0.15848 0.0
C118 C 0.50095 0.41826 0.16435 0.0
C119 C 0.48439 0.38262 0.13515 0.0
C120 C 0.50157 0.45112 0.13589 0.0
C121 C 0.50294 0.49027 0.98603 0.0
H122 H 0.4772 0.5686 0.06923 0.0
C123 C 0.48606 0.61877 0.86722 0.0
C124 C 0.50254 0.65447 0.89625 0.0
C125 C 0.48583 0.58605 0.89571 0.0
C126 C 0.48511 0.54724 0.04556 0.0
H127 H 0.45367 0.35353 0.05369 0.0
H128 H 0.45429 0.41078 1.00447 0.0
H129 H 0.46961 0.51005 0.1209 0.0
H130 H 0.53359 0.68384 0.97737 0.0
H131 H 0.53361 0.62681 0.02668 0.0
H132 H 0.51839 0.52745 0.91067 0.0
C133 C 0.46756 0.41337 0.04907 0.0
C134 C 0.48062 0.51361 0.07515 0.0
C135 C 0.46686 0.38046 0.07755 0.0
C136 C 0.52043 0.65685 0.95367 0.0
C137 C 0.52011 0.62407 0.98219 0.0
C138 C 0.50742 0.5239 0.95643 0.0
C139 C 0.48567 0.44922 0.0775 0.0
C140 C 0.48944 0.48469 0.04575 0.0
C141 C 0.50205 0.58816 0.95397 0.0
C142 C 0.49855 0.5528 0.98582 0.0
H143 H 0.51473 0.4211 0.20869 0.0
H144 H 0.51603 0.47828 0.15898 0.0
H145 H 0.51083 0.46891 0.96235 0.0
H146 H 0.47203 0.61577 0.82301 0.0
H147 H 0.4714 0.55883 0.87278 0.0
C148 C 0.50223 0.91841 0.86696 0.0
C149 C 0.48554 0.88277 0.89602 0.0
C150 C 0.50272 0.95128 0.89539 0.0
C151 C 0.50332 0.99047 0.0452 0.0
H152 H 0.47774 0.06864 0.96159 0.0
C153 C 0.48529 0.11876 0.16361 0.0
C154 C 0.50182 0.15446 0.13475 0.0
C155 C 0.48536 0.08609 0.13516 0.0
C156 C 0.4856 0.04733 0.98538 0.0
H157 H 0.45446 0.8537 0.97718 0.0
H158 H 0.45486 0.91096 0.02637 0.0
H159 H 0.47057 1.01012 0.90993 0.0
H160 H 0.53326 0.18388 0.05397 0.0
H161 H 0.53379 0.12694 1.00473 0.0
H162 H 0.51829 0.02767 0.12067 0.0
C163 C 0.46834 0.91354 0.98191 0.0
C164 C 0.48135 1.01372 0.95579 0.0
C165 C 0.46777 0.88063 0.95345 0.0
C166 C 0.52005 0.15689 0.07754 0.0
C167 C 0.52003 0.12416 0.04905 0.0
C168 C 0.50756 0.02409 0.07479 0.0
C169 C 0.48655 0.94938 0.95362 0.0
C170 C 0.49011 0.98485 0.98534 0.0
C171 C 0.50193 0.08825 0.07711 0.0
C172 C 0.49873 0.05293 0.04526 0.0
H173 H 0.5162 0.92125 0.82275 0.0
H174 H 0.51727 0.97843 0.87243 0.0
H175 H 0.51115 0.96915 0.069 0.0
H176 H 0.47101 0.11572 0.20766 0.0
H177 H 0.47089 0.05886 0.15794 0.0
C178 C 0.00048 0.91893 0.16447 0.0
C179 C 0.98368 0.88322 0.13546 0.0
C180 C 0.00072 0.95169 0.13614 0.0
C181 C 0.95239 0.98509 1.0099 0.0
H182 H 0.06073 0.07754 0.02559 0.0
C183 C 0.98237 0.1184 0.86654 0.0
C184 C -0.00076 0.1541 0.89558 0.0
C185 C 0.98191 0.08557 0.89492 0.0
C186 C 0.03007 0.05209 0.02118 0.0
H187 H 0.95227 0.85395 0.05444 0.0
H188 H 0.95295 0.91112 1.00504 0.0
H189 H 0.05454 0.01975 0.07837 0.0
H190 H 0.03049 0.18327 0.97673 0.0
H191 H 0.02945 0.12601 0.02619 0.0
H192 H 0.92793 1.01743 0.95268 0.0
C193 C 0.96573 0.91372 0.0499 0.0
C194 C 0.02646 0.01895 0.05156 0.0
C195 C 0.96547 0.8809 0.07824 0.0
C196 C 0.01725 0.15633 0.9529 0.0
C197 C 0.01678 0.12346 0.98128 0.0
C198 C 0.95601 1.01823 0.97951 0.0
C199 C 0.98417 0.94965 0.07807 0.0
C200 C 0.98756 0.98503 0.04635 0.0
C201 C -0.00167 0.08755 0.95305 0.0
C202 C -0.00509 0.05215 0.98474 0.0
H203 H 0.01451 0.92185 0.20867 0.0
H204 H 0.01431 0.97876 0.1596 0.0
H205 H 0.92173 0.95963 1.00549 0.0
H206 H 0.96846 0.11553 0.82227 0.0
H207 H 0.96829 0.05851 0.87144 0.0
C208 C 0.38153 0.75199 0.60026 0.0
C209 C 0.40254 0.78189 0.6409 0.0
C210 C 0.34405 0.75017 0.5679 0.0
C211 C 0.25036 0.78163 0.57398 0.0
H212 H 0.23095 0.74558 0.41131 0.0
C213 C 0.10456 0.78505 0.43077 0.0
C214 C 0.08351 0.75521 0.39005 0.0
C215 C 0.14199 0.78675 0.46312 0.0
C216 C 0.23552 0.75511 0.45701 0.0
H217 H 0.40138 0.83421 0.6776 0.0
H218 H 0.33579 0.83127 0.62032 0.0
H219 H 0.30149 0.75498 0.46071 0.0
H220 H 0.08454 0.70289 0.35317 0.0
H221 H 0.15005 0.70563 0.41046 0.0
H222 H 0.1844 0.78176 0.57029 0.0
C223 C 0.34825 0.80894 0.61423 0.0
C224 C 0.2761 0.76072 0.48527 0.0
C225 C 0.38611 0.81088 0.64657 0.0
C226 C 0.09984 0.72618 0.38427 0.0
C227 C 0.13765 0.728 0.41662 0.0
C228 C 0.20979 0.77602 0.54572 0.0
C229 C 0.32634 0.77817 0.57523 0.0
C230 C 0.28405 0.77404 0.54414 0.0
C231 C 0.15961 0.7587 0.45572 0.0
C232 C 0.20185 0.76273 0.48684 0.0
H233 H 0.3933 0.72919 0.59451 0.0
H234 H 0.3279 0.7259 0.5388 0.0
H235 H 0.25494 0.79118 0.61968 0.0
H236 H 0.09285 0.80788 0.4366 0.0
H237 H 0.15817 0.81099 0.49229 0.0
C238 C 0.10227 0.28403 0.59941 0.0
C239 C 0.08145 0.25429 0.64024 0.0
C240 C 0.13971 0.2858 0.56702 0.0
C241 C 0.23366 0.25465 0.57333 0.0
H242 H 0.25293 0.29049 0.4107 0.0
C243 C 0.37993 0.25182 0.43043 0.0
C244 C 0.40086 0.28168 0.38983 0.0
C245 C 0.34238 0.24993 0.46267 0.0
C246 C 0.24839 0.28101 0.45639 0.0
H247 H 0.08286 0.20219 0.67722 0.0
H248 H 0.14836 0.20503 0.61986 0.0
H249 H 0.1823 0.28088 0.45995 0.0
H250 H 0.39947 0.33385 0.35307 0.0
H251 H 0.33376 0.33079 0.41016 0.0
H252 H 0.29974 0.25477 0.56976 0.0
C253 C 0.1358 0.22728 0.61365 0.0
C254 C 0.20776 0.27529 0.48457 0.0
C255 C 0.09798 0.22539 0.64603 0.0
C256 C 0.38428 0.31055 0.38408 0.0
C257 C 0.34635 0.30854 0.41631 0.0
C258 C 0.27428 0.26036 0.54514 0.0
C259 C 0.15756 0.25791 0.57449 0.0
C260 C 0.19987 0.26207 0.54344 0.0
C261 C 0.32452 0.27781 0.45528 0.0
C262 C 0.28218 0.2736 0.48629 0.0
H263 H 0.09041 0.30676 0.59356 0.0
H264 H 0.15572 0.30997 0.5378 0.0
H265 H 0.22912 0.24518 0.61902 0.0
H266 H 0.39182 0.22911 0.43623 0.0
H267 H 0.32632 0.22569 0.49175 0.0
C268 C 0.88452 0.31147 0.64716 0.0
C269 C 0.90184 0.28315 0.6401 0.0
C270 C 0.84653 0.30939 0.61499 0.0
C271 C 0.77531 0.26229 0.48472 0.0
H272 H 0.68182 0.27935 0.57198 0.0
C273 C 0.5985 0.22534 0.38438 0.0
C274 C 0.58107 0.25359 0.3914 0.0
C275 C 0.6365 0.2275 0.41658 0.0
C276 C 0.7077 0.27473 0.5468 0.0
H277 H 0.89422 0.23164 0.59138 0.0
H278 H 0.82861 0.2281 0.53589 0.0
H279 H 0.75282 0.28961 0.62079 0.0
H280 H 0.58854 0.30508 0.44009 0.0
H281 H 0.65419 0.30876 0.49562 0.0
H282 H 0.73019 0.24741 0.41074 0.0
C283 C 0.84411 0.25195 0.56598 0.0
C284 C 0.74853 0.28083 0.57473 0.0
C285 C 0.88171 0.25389 0.59818 0.0
C286 C 0.60112 0.28287 0.43332 0.0
C287 C 0.63875 0.2849 0.46555 0.0
C288 C 0.73448 0.25619 0.4568 0.0
C289 C 0.82541 0.27916 0.57478 0.0
C290 C 0.78286 0.27466 0.54407 0.0
C291 C 0.65755 0.25775 0.45677 0.0
C292 C 0.70014 0.26234 0.48746 0.0
H293 H 0.8991 0.33427 0.67924 0.0
H294 H 0.83329 0.33112 0.62224 0.0
H295 H 0.80119 0.25767 0.45954 0.0
H296 H 0.58398 0.20252 0.35231 0.0
H297 H 0.64981 0.2058 0.40936 0.0
C298 C 0.88573 0.81172 0.38402 0.0
C299 C 0.90403 0.78412 0.39188 0.0
C300 C 0.84753 0.80923 0.41604 0.0
C301 C 0.75011 0.73734 0.49429 0.0
H302 H 0.73281 0.82582 0.55533 0.0
C303 C 0.60103 0.72626 0.64785 0.0
C304 C 0.58272 0.75385 0.64 0.0
C305 C 0.63932 0.72882 0.61597 0.0
C306 C 0.73685 0.80081 0.53793 0.0
H307 H 0.89834 0.73382 0.44239 0.0
H308 H 0.83285 0.73006 0.49857 0.0
H309 H 0.80279 0.83448 0.50511 0.0
H310 H 0.58853 0.80425 0.58969 0.0
H311 H 0.65417 0.80815 0.53375 0.0
H312 H 0.68417 0.70367 0.52707 0.0
C313 C 0.84696 0.75293 0.46659 0.0
C314 C 0.77705 0.80582 0.50916 0.0
C315 C 0.88481 0.75531 0.43462 0.0
C316 C 0.60206 0.78275 0.59744 0.0
C317 C 0.64 0.78522 0.56562 0.0
C318 C 0.70992 0.73232 0.52304 0.0
C319 C 0.82704 0.77918 0.45663 0.0
C320 C 0.78424 0.77414 0.48707 0.0
C321 C 0.6599 0.75895 0.57554 0.0
C322 C 0.70272 0.764 0.54513 0.0
H323 H 0.89954 0.83408 0.35118 0.0
H324 H 0.83298 0.8299 0.40718 0.0
H325 H 0.75415 0.71232 0.47688 0.0
H326 H 0.58713 0.70381 0.68055 0.0
H327 H 0.65386 0.70814 0.62481 0.0
C328 C 0.32285 0.72755 0.85054 0.0
C329 C 0.34723 0.70923 0.87937 0.0
C330 C 0.2918 0.7373 0.8823 0.0
C331 C 0.281 0.76371 0.03541 0.0
H332 H 0.17344 0.77408 0.97923 0.0
C333 C 0.1626 0.80887 0.17994 0.0
C334 C 0.13836 0.82731 0.15106 0.0
C335 C 0.19338 0.7988 0.14817 0.0
C336 C 0.20393 0.77198 0.99512 0.0
H337 H 0.35418 0.68187 0.96065 0.0
H338 H 0.29861 0.69733 1.01534 0.0
H339 H 0.20783 0.73971 0.91896 0.0
H340 H 0.13142 0.85449 0.06959 0.0
H341 H 0.18655 0.83848 1.01487 0.0
H342 H 0.27712 0.79601 0.11155 0.0
C343 C 0.30451 0.70549 0.96913 0.0
C344 C 0.22332 0.75197 0.96078 0.0
C345 C 0.33571 0.69606 0.9376 0.0
C346 C 0.14978 0.84023 0.09269 0.0
C347 C 0.18071 0.83047 0.06115 0.0
C348 C 0.26161 0.78372 0.06975 0.0
C349 C 0.28464 0.72849 0.943 0.0
C350 C 0.26201 0.74754 0.98061 0.0
C351 C 0.20044 0.8074 0.08739 0.0
C352 C 0.22294 0.78818 0.0499 0.0
H353 H 0.33162 0.73843 0.80589 0.0
H354 H 0.27684 0.75488 0.86083 0.0
H355 H 0.3115 0.76163 0.0513 0.0
H356 H 0.1539 0.79818 0.2247 0.0
H357 H 0.20824 0.78117 0.16973 0.0
C358 C 0.14971 0.34043 0.93668 0.0
C359 C 0.13787 0.32718 0.87848 0.0
C360 C 0.18072 0.3307 0.96808 0.0
C361 C 0.26099 0.28336 0.95953 0.0
H362 H 0.20714 0.23983 0.11031 0.0
C363 C 0.33481 0.19584 0.09226 0.0
C364 C 0.34619 0.20905 0.15057 0.0
C365 C 0.30371 0.20526 0.06052 0.0
C366 C 0.22266 0.25197 0.0685 0.0
H367 H 0.1528 0.29754 0.80491 0.0
H368 H 0.20729 0.28061 0.85961 0.0
H369 H 0.17302 0.27431 0.04996 0.0
H370 H 0.3304 0.23832 0.22393 0.0
H371 H 0.27581 0.25477 0.16863 0.0
H372 H 0.31068 0.26108 0.9781 0.0
C373 C 0.19269 0.29846 0.88115 0.0
C374 C 0.20342 0.27203 0.03412 0.0
C375 C 0.16182 0.30849 0.84953 0.0
C376 C 0.32174 0.2274 0.17923 0.0
C377 C 0.2908 0.23715 0.14725 0.0
C378 C 0.28026 0.26331 0.99393 0.0
C379 C 0.2001 0.30735 0.94184 0.0
C380 C 0.22247 0.28806 0.97935 0.0
C381 C 0.28379 0.2283 0.0865 0.0
C382 C 0.26125 0.24733 0.04875 0.0
H383 H 0.13158 0.35489 0.95983 0.0
H384 H 0.18683 0.33892 1.01428 0.0
H385 H 0.2765 0.2955 0.91771 0.0
H386 H 0.35333 0.18163 0.06934 0.0
H387 H 0.29792 0.19705 1.01429 0.0
C388 C 0.65157 0.34066 0.09732 0.0
C389 C 0.63928 0.32742 0.15538 0.0
C390 C 0.6829 0.33102 0.06647 0.0
C391 C 0.71359 0.24899 0.06246 0.0
H392 H 0.79437 0.30507 0.93698 0.0
C393 C 0.83275 0.1969 0.93546 0.0
C394 C 0.84471 0.21 0.87727 0.0
C395 C 0.8017 0.20671 0.96666 0.0
C396 C 0.7712 0.28884 0.97114 0.0
H397 H 0.65389 0.29803 0.22944 0.0
H398 H 0.70957 0.28175 0.17585 0.0
H399 H 0.76287 0.33862 1.00356 0.0
H400 H 0.82984 0.23938 0.80341 0.0
H401 H 0.77465 0.25597 0.85762 0.0
H402 H 0.72192 0.19921 0.03003 0.0
C403 C 0.69431 0.29892 0.15379 0.0
C404 C 0.75364 0.30819 1.0097 0.0
C405 C 0.66312 0.30885 0.18485 0.0
C406 C 0.82085 0.22865 0.84809 0.0
C407 C 0.78995 0.23877 0.8795 0.0
C408 C 0.73115 0.22964 0.0239 0.0
C409 C 0.70227 0.30783 0.09322 0.0
C410 C 0.72467 0.28848 0.05582 0.0
C411 C 0.78229 0.22994 0.94014 0.0
C412 C 0.76008 0.24934 0.97774 0.0
H413 H 0.63336 0.35485 0.07368 0.0
H414 H 0.68835 0.33845 0.01997 0.0
H415 H 0.6904 0.23275 0.09658 0.0
H416 H 0.85099 0.18265 0.95888 0.0
H417 H 0.79647 0.19935 1.0132 0.0
C418 C 0.83265 0.69688 0.09784 0.0
C419 C 0.84517 0.71042 0.15576 0.0
C420 C 0.80146 0.7066 0.06685 0.0
C421 C 0.77171 0.78912 0.0619 0.0
H422 H 0.69029 0.73264 0.937 0.0
C423 C 0.6526 0.84097 0.93454 0.0
C424 C 0.64036 0.82749 0.87652 0.0
C425 C 0.68377 0.83134 0.96575 0.0
C426 C 0.71365 0.74896 0.97099 0.0
H427 H 0.83113 0.74048 0.22949 0.0
H428 H 0.77569 0.75692 0.17565 0.0
H429 H 0.72154 0.69918 1.00397 0.0
H430 H 0.65491 0.79766 0.80288 0.0
H431 H 0.71028 0.78136 0.85712 0.0
H432 H 0.76378 0.83891 0.02893 0.0
C433 C 0.79065 0.73944 0.1538 0.0
C434 C 0.73106 0.72968 1.00977 0.0
C435 C 0.8217 0.72942 0.185 0.0
C436 C 0.66411 0.80868 0.84743 0.0
C437 C 0.69512 0.79873 0.87885 0.0
C438 C 0.75428 0.80841 0.02312 0.0
C439 C 0.78247 0.73018 0.09332 0.0
C440 C 0.76026 0.74953 0.05569 0.0
C441 C 0.703 0.8079 0.9394 0.0
C442 C 0.72513 0.78856 0.97717 0.0
H443 H 0.8506 0.68237 0.07437 0.0
H444 H 0.79584 0.6989 0.02042 0.0
H445 H 0.79508 0.80546 0.09586 0.0
H446 H 0.63445 0.85535 0.95788 0.0
H447 H 0.68919 0.83897 1.01222 0.0
loop_
_geom_bond_atom_site_label_1
_geom_bond_atom_site_label_2
_geom_bond_distance
_geom_bond_site_symmetry_2
_ccdc_geom_bond_type
Sc0 O3 2.025 . S
Sc0 O10 2.079 1_455 S
Sc0 O13 2.131 . S
Sc0 O16 2.115 1_455 S
Sc0 O19 2.096 . S
Sc1 O3 2.037 . S
Sc1 O11 2.105 . S
Sc1 O15 2.105 . S
Sc1 O17 2.105 . S
Sc1 O21 2.105 1_455 S
Sc2 O3 2.014 1_655 S
Sc2 O12 2.105 . S
Sc2 O14 2.105 . S
Sc2 O18 2.105 1_655 S
Sc2 O20 2.105 . S
O3 Sc0 2.025 . S
O3 Sc1 2.037 . S
O3 Sc2 2.014 1_455 S
C4 O10 1.268 . S
C4 O20 1.268 . S
C5 O11 1.268 . S
C5 O19 1.268 . S
C6 O12 1.268 . S
C6 O21 1.268 . S
C7 O13 1.268 . S
C7 O17 1.268 . S
C8 O14 1.268 . S
C8 O16 1.268 . S
C9 O15 1.268 . S
C9 O18 1.268 . S
O10 Sc0 2.079 1_655 S
O10 C4 1.268 . S
O11 Sc1 2.105 . S
O11 C5 1.268 . S
O12 Sc2 2.105 . S
O12 C6 1.268 . S
O13 Sc0 2.131 . S
O13 C7 1.268 . S
O14 Sc2 2.105 . S
O14 C8 1.268 . S
O15 Sc1 2.105 . S
O15 C9 1.268 . S
O16 Sc0 2.115 1_655 S
O16 C8 1.268 . S
O17 Sc1 2.105 . S
O17 C7 1.268 . S
O18 Sc2 2.105 1_455 S
O18 C9 1.268 . S
O19 Sc0 2.096 . S
O19 C5 1.268 . S
O20 Sc2 2.105 . S
O20 C4 1.268 . S
O21 Sc1 2.105 1_655 S
O21 C6 1.268 . S
Sc22 O25 2.025 . S
Sc22 O32 2.105 . S
Sc22 O35 2.105 . S
Sc22 O38 2.105 . S
Sc22 O41 2.105 . S
Sc23 O25 2.025 . S
Sc23 O33 2.105 . S
Sc23 O37 2.105 . S
Sc23 O39 2.105 . S
Sc23 O43 2.105 . S
Sc24 O25 2.025 . S
Sc24 O34 2.105 . S
Sc24 O36 2.105 . S
Sc24 O40 2.105 . S
Sc24 O42 2.105 . S
O25 Sc22 2.025 . S
O25 Sc23 2.025 . S
O25 Sc24 2.025 . S
C26 O32 1.268 . S
C26 O42 1.268 . S
C27 O33 1.268 . S
C27 O41 1.268 . S
C28 O34 1.268 . S
C28 O43 1.268 . S
C29 O35 1.268 . S
C29 O39 1.268 . S
C30 O36 1.268 . S
C30 O38 1.268 . S
C31 O37 1.268 . S
C31 O40 1.268 . S
O32 Sc22 2.105 . S
O32 C26 1.268 . S
O33 Sc23 2.105 . S
O33 C27 1.268 . S
O34 Sc24 2.105 . S
O34 C28 1.268 . S
O35 Sc22 2.105 . S
O35 C29 1.268 . S
O36 Sc24 2.105 . S
O36 C30 1.268 . S
O37 Sc23 2.105 . S
O37 C31 1.268 . S
O38 Sc22 2.105 . S
O38 C30 1.268 . S
O39 Sc23 2.105 . S
O39 C29 1.268 . S
O40 Sc24 2.105 . S
O40 C31 1.268 . S
O41 Sc22 2.105 . S
O41 C27 1.268 . S
O42 Sc24 2.105 . S
O42 C26 1.268 . S
O43 Sc23 2.105 . S
O43 C28 1.268 . S
Sc44 O47 2.025 . S
Sc44 O54 2.096 . S
Sc44 O57 2.115 1_455 S
Sc44 O60 2.131 . S
Sc44 O63 2.079 1_455 S
Sc45 O47 2.014 1_655 S
Sc45 O55 2.105 . S
Sc45 O59 2.105 1_655 S
Sc45 O61 2.105 . S
Sc45 O65 2.105 . S
Sc46 O47 2.037 . S
Sc46 O56 2.105 1_455 S
Sc46 O58 2.105 . S
Sc46 O62 2.105 . S
Sc46 O64 2.105 . S
O47 Sc44 2.025 . S
O47 Sc45 2.014 1_455 S
O47 Sc46 2.037 . S
C48 O54 1.268 . S
C48 O64 1.268 . S
C49 O55 1.268 . S
C49 O63 1.268 . S
C50 O56 1.268 . S
C50 O65 1.268 . S
C51 O57 1.268 . S
C51 O61 1.268 . S
C52 O58 1.268 . S
C52 O60 1.268 . S
C53 O59 1.268 . S
C53 O62 1.268 . S
O54 Sc44 2.096 . S
O54 C48 1.268 . S
O55 Sc45 2.105 . S
O55 C49 1.268 . S
O56 Sc46 2.105 1_655 S
O56 C50 1.268 . S
O57 Sc44 2.115 1_655 S
O57 C51 1.268 . S
O58 Sc46 2.105 . S
O58 C52 1.268 . S
O59 Sc45 2.105 1_455 S
O59 C53 1.268 . S
O60 Sc44 2.131 . S
O60 C52 1.268 . S
O61 Sc45 2.105 . S
O61 C51 1.268 . S
O62 Sc46 2.105 . S
O62 C53 1.268 . S
O63 Sc44 2.079 1_655 S
O63 C49 1.268 . S
O64 Sc46 2.105 . S
O64 C48 1.268 . S
O65 Sc45 2.105 . S
O65 C50 1.268 . S
Sc66 O69 2.025 . S
Sc66 O76 2.105 . S
Sc66 O79 2.105 . S
Sc66 O82 2.105 . S
Sc66 O85 2.105 . S
Sc67 O69 2.025 . S
Sc67 O77 2.105 . S
Sc67 O81 2.105 . S
Sc67 O83 2.105 . S
Sc67 O87 2.105 . S
Sc68 O69 2.025 . S
Sc68 O78 2.105 . S
Sc68 O80 2.105 . S
Sc68 O84 2.105 . S
Sc68 O86 2.105 . S
O69 Sc66 2.025 . S
O69 Sc67 2.025 . S
O69 Sc68 2.025 . S
C70 O76 1.268 . S
C70 O86 1.268 . S
C71 O77 1.268 . S
C71 O85 1.268 . S
C72 O78 1.268 . S
C72 O87 1.268 . S
C73 O79 1.268 . S
C73 O83 1.268 . S
C74 O80 1.268 . S
C74 O82 1.268 . S
C75 O81 1.268 . S
C75 O84 1.268 . S
O76 Sc66 2.105 . S
O76 C70 1.268 . S
O77 Sc67 2.105 . S
O77 C71 1.268 . S
O78 Sc68 2.105 . S
O78 C72 1.268 . S
O79 Sc66 2.105 . S
O79 C73 1.268 . S
O80 Sc68 2.105 . S
O80 C74 1.268 . S
O81 Sc67 2.105 . S
O81 C75 1.268 . S
O82 Sc66 2.105 . S
O82 C74 1.268 . S
O83 Sc67 2.105 . S
O83 C73 1.268 . S
O84 Sc68 2.105 . S
O84 C75 1.268 . S
O85 Sc66 2.105 . S
O85 C71 1.268 . S
O86 Sc68 2.105 . S
O86 C70 1.268 . S
O87 Sc67 2.105 . S
O87 C72 1.268 . S
C88 C89 1.349 1_655 S
C88 C90 1.327 . S
C88 H113 0.950 . S
C89 C88 1.349 1_455 S
C89 C105 1.349 . S
C90 C88 1.327 . S
C90 C109 1.429 1_655 S
C90 H114 0.950 . S
C91 C108 1.574 . S
C91 C110 1.368 1_554 S
C91 H115 0.949 . S
H92 C96 0.949 . S
C93 C94 1.349 1_455 S
C93 C95 1.327 . S
C93 H116 0.950 . S
C94 C93 1.349 1_655 S
C94 C106 1.349 . S
C95 C93 1.327 . S
C95 C111 1.428 1_455 S
C95 H117 0.950 . S
C96 H92 0.949 . S
C96 C104 1.574 . S
C96 C112 1.366 1_656 S
H97 C105 0.950 . S
H98 C103 0.950 1_554 S
H99 C104 0.949 . S
H100 C106 0.950 . S
H101 C107 0.950 1_556 S
H102 C108 0.949 . S
C103 H98 0.950 1_556 S
C103 C105 1.327 . S
C103 C109 1.429 . S
C104 C96 1.574 . S
C104 H99 0.949 . S
C104 C110 1.368 1_655 S
C105 C89 1.349 . S
C105 H97 0.950 . S
C105 C103 1.327 . S
C106 C94 1.349 . S
C106 H100 0.950 . S
C106 C107 1.327 . S
C107 H101 0.950 1_554 S
C107 C106 1.327 . S
C107 C111 1.431 . S
C108 C91 1.574 . S
C108 H102 0.949 . S
C108 C112 1.373 . S
C109 C90 1.429 1_455 S
C109 C103 1.429 . S
C109 C110 1.523 . S
C110 C91 1.368 1_556 S
C110 C104 1.368 1_455 S
C110 C109 1.523 . S
C111 C95 1.428 1_655 S
C111 C107 1.431 . S
C111 C112 1.518 1_655 S
C112 C96 1.366 1_454 S
C112 C108 1.373 . S
C112 C111 1.518 1_455 S
H113 C88 0.950 . S
H114 C90 0.950 . S
H115 C91 0.949 . S
H116 C93 0.950 . S
H117 C95 0.950 . S
C118 C119 1.349 . S
C118 C120 1.327 . S
C118 H143 0.950 . S
C119 C118 1.349 . S
C119 C135 1.349 . S
C120 C118 1.327 . S
C120 C139 1.429 . S
C120 H144 0.950 . S
C121 C138 1.574 . S
C121 C140 1.368 1_556 S
C121 H145 0.949 . S
H122 C126 0.949 . S
C123 C124 1.349 . S
C123 C125 1.327 . S
C123 H146 0.950 . S
C124 C123 1.349 . S
C124 C136 1.349 . S
C125 C123 1.327 . S
C125 C141 1.429 . S
C125 H147 0.950 . S
C126 H122 0.949 . S
C126 C134 1.574 . S
C126 C142 1.368 1_554 S
H127 C135 0.950 . S
H128 C133 0.950 . S
H129 C134 0.949 . S
H130 C136 0.950 . S
H131 C137 0.950 . S
H132 C138 0.949 . S
C133 H128 0.950 . S
C133 C135 1.327 . S
C133 C139 1.429 . S
C134 C126 1.574 . S
C134 H129 0.949 . S
C134 C140 1.368 . S
C135 C119 1.349 . S
C135 H127 0.950 . S
C135 C133 1.327 . S
C136 C124 1.349 . S
C136 H130 0.950 . S
C136 C137 1.327 . S
C137 H131 0.950 . S
C137 C136 1.327 . S
C137 C141 1.429 . S
C138 C121 1.574 . S
C138 H132 0.949 . S
C138 C142 1.368 . S
C139 C120 1.429 . S
C139 C133 1.429 . S
C139 C140 1.523 . S
C140 C121 1.368 1_554 S
C140 C134 1.368 . S
C140 C139 1.523 . S
C141 C125 1.429 . S
C141 C137 1.429 . S
C141 C142 1.523 . S
C142 C126 1.368 1_556 S
C142 C138 1.368 . S
C142 C141 1.523 . S
H143 C118 0.950 . S
H144 C120 0.950 . S
H145 C121 0.949 . S
H146 C123 0.950 . S
H147 C125 0.950 . S
C148 C149 1.349 . S
C148 C150 1.327 . S
C148 H173 0.950 . S
C149 C148 1.349 . S
C149 C165 1.349 . S
C150 C148 1.327 . S
C150 C169 1.429 . S
C150 H174 0.950 . S
C151 C168 1.574 1_565 S
C151 C170 1.368 1_554 S
C151 H175 0.949 . S
H152 C156 0.949 . S
C153 C154 1.349 . S
C153 C155 1.327 . S
C153 H176 0.950 . S
C154 C153 1.349 . S
C154 C166 1.349 . S
C155 C153 1.327 . S
C155 C171 1.429 . S
C155 H177 0.950 . S
C156 H152 0.949 . S
C156 C164 1.574 1_545 S
C156 C172 1.368 1_556 S
H157 C165 0.950 . S
H158 C163 0.950 1_554 S
H159 C164 0.949 . S
H160 C166 0.950 . S
H161 C167 0.950 1_556 S
H162 C168 0.949 . S
C163 H158 0.950 1_556 S
C163 C165 1.327 . S
C163 C169 1.429 . S
C164 C156 1.574 1_565 S
C164 H159 0.949 . S
C164 C170 1.368 . S
C165 C149 1.349 . S
C165 H157 0.950 . S
C165 C163 1.327 . S
C166 C154 1.349 . S
C166 H160 0.950 . S
C166 C167 1.327 . S
C167 H161 0.950 1_554 S
C167 C166 1.327 . S
C167 C171 1.429 . S
C168 C151 1.574 1_545 S
C168 H162 0.949 . S
C168 C172 1.368 . S
C169 C150 1.429 . S
C169 C163 1.429 . S
C169 C170 1.523 . S
C170 C151 1.368 1_556 S
C170 C164 1.368 . S
C170 C169 1.523 . S
C171 C155 1.429 . S
C171 C167 1.429 . S
C171 C172 1.523 . S
C172 C156 1.368 1_554 S
C172 C168 1.368 . S
C172 C171 1.523 . S
H173 C148 0.950 . S
H174 C150 0.950 . S
H175 C151 0.949 . S
H176 C153 0.950 . S
H177 C155 0.950 . S
C178 C179 1.349 . S
C178 C180 1.327 . S
C178 H203 0.950 . S
C179 C178 1.349 . S
C179 C195 1.349 1_455 S
C180 C178 1.327 . S
C180 C199 1.429 . S
C180 H204 0.950 . S
C181 C198 1.563 1_565 S
C181 C200 1.368 1_656 S
C181 H205 0.949 . S
H182 C186 0.949 . S
C183 C184 1.349 . S
C183 C185 1.327 . S
C183 H206 0.950 . S
C184 C183 1.349 . S
C184 C196 1.349 1_655 S
C185 C183 1.327 . S
C185 C201 1.432 . S
C185 H207 0.950 . S
C186 H182 0.949 . S
C186 C194 1.563 1_545 S
C186 C202 1.374 1_554 S
H187 C195 0.950 . S
H188 C193 0.939 1_556 S
H189 C194 0.952 . S
H190 C196 0.950 . S
H191 C197 0.939 1_554 S
H192 C198 0.952 . S
C193 H188 0.939 1_554 S
C193 C195 1.327 . S
C193 C199 1.429 1_655 S
C194 C186 1.563 1_565 S
C194 H189 0.952 . S
C194 C200 1.376 . S
C195 C179 1.349 1_655 S
C195 H187 0.950 . S
C195 C193 1.327 . S
C196 C184 1.349 1_455 S
C196 H190 0.950 . S
C196 C197 1.327 . S
C197 H191 0.939 1_556 S
C197 C196 1.327 . S
C197 C201 1.427 1_455 S
C198 C181 1.563 1_545 S
C198 H192 0.952 . S
C198 C202 1.372 1_655 S
C199 C180 1.429 . S
C199 C193 1.429 1_455 S
C199 C200 1.523 . S
C200 C181 1.368 1_454 S
C200 C194 1.376 . S
C200 C199 1.523 . S
C201 C185 1.432 . S
C201 C197 1.427 1_655 S
C201 C202 1.518 1_655 S
C202 C186 1.374 1_556 S
C202 C198 1.372 1_455 S
C202 C201 1.518 1_455 S
H203 C178 0.950 . S
H204 C180 0.950 . S
H205 C181 0.949 . S
H206 C183 0.950 . S
H207 C185 0.950 . S
C208 C209 1.349 . S
C208 C210 1.327 . S
C208 H233 0.950 . S
C209 C208 1.349 . S
C209 C225 1.349 . S
C210 C208 1.327 . S
C210 C229 1.429 . S
C210 H234 0.950 . S
C211 C228 1.574 . S
C211 C230 1.368 . S
C211 H235 0.949 . S
H212 C216 0.949 . S
C213 C214 1.349 . S
C213 C215 1.327 . S
C213 H236 0.950 . S
C214 C213 1.349 . S
C214 C226 1.349 . S
C215 C213 1.327 . S
C215 C231 1.429 . S
C215 H237 0.950 . S
C216 H212 0.949 . S
C216 C224 1.574 . S
C216 C232 1.368 . S
H217 C225 0.950 . S
H218 C223 0.950 . S
H219 C224 0.949 . S
H220 C226 0.950 . S
H221 C227 0.950 . S
H222 C228 0.949 . S
C223 H218 0.950 . S
C223 C225 1.327 . S
C223 C229 1.429 . S
C224 C216 1.574 . S
C224 H219 0.949 . S
C224 C230 1.368 . S
C225 C209 1.349 . S
C225 H217 0.950 . S
C225 C223 1.327 . S
C226 C214 1.349 . S
C226 H220 0.950 . S
C226 C227 1.327 . S
C227 H221 0.950 . S
C227 C226 1.327 . S
C227 C231 1.429 . S
C228 C211 1.574 . S
C228 H222 0.949 . S
C228 C232 1.368 . S
C229 C210 1.429 . S
C229 C223 1.429 . S
C229 C230 1.523 . S
C230 C211 1.368 . S
C230 C224 1.368 . S
C230 C229 1.523 . S
C231 C215 1.429 . S
C231 C227 1.429 . S
C231 C232 1.523 . S
C232 C216 1.368 . S
C232 C228 1.368 . S
C232 C231 1.523 . S
H233 C208 0.950 . S
H234 C210 0.950 . S
H235 C211 0.949 . S
H236 C213 0.950 . S
H237 C215 0.950 . S
C238 C239 1.349 . S
C238 C240 1.327 . S
C238 H263 0.950 . S
C239 C238 1.349 . S
C239 C255 1.349 . S
C240 C238 1.327 . S
C240 C259 1.429 . S
C240 H264 0.950 . S
C241 C258 1.574 . S
C241 C260 1.368 . S
C241 H265 0.949 . S
H242 C246 0.949 . S
C243 C244 1.349 . S
C243 C245 1.327 . S
C243 H266 0.950 . S
C244 C243 1.349 . S
C244 C256 1.349 . S
C245 C243 1.327 . S
C245 C261 1.429 . S
C245 H267 0.950 . S
C246 H242 0.949 . S
C246 C254 1.574 . S
C246 C262 1.368 . S
H247 C255 0.950 . S
H248 C253 0.950 . S
H249 C254 0.949 . S
H250 C256 0.950 . S
H251 C257 0.950 . S
H252 C258 0.949 . S
C253 H248 0.950 . S
C253 C255 1.327 . S
C253 C259 1.429 . S
C254 C246 1.574 . S
C254 H249 0.949 . S
C254 C260 1.368 . S
C255 C239 1.349 . S
C255 H247 0.950 . S
C255 C253 1.327 . S
C256 C244 1.349 . S
C256 H250 0.950 . S
C256 C257 1.327 . S
C257 H251 0.950 . S
C257 C256 1.327 . S
C257 C261 1.429 . S
C258 C241 1.574 . S
C258 H252 0.949 . S
C258 C262 1.368 . S
C259 C240 1.429 . S
C259 C253 1.429 . S
C259 C260 1.523 . S
C260 C241 1.368 . S
C260 C254 1.368 . S
C260 C259 1.523 . S
C261 C245 1.429 . S
C261 C257 1.429 . S
C261 C262 1.523 . S
C262 C246 1.368 . S
C262 C258 1.368 . S
C262 C261 1.523 . S
H263 C238 0.950 . S
H264 C240 0.950 . S
H265 C241 0.949 . S
H266 C243 0.950 . S
H267 C245 0.950 . S
C268 C269 1.349 . S
C268 C270 1.327 . S
C268 H293 0.950 . S
C269 C268 1.349 . S
C269 C285 1.349 . S
C270 C268 1.327 . S
C270 C289 1.429 . S
C270 H294 0.950 . S
C271 C288 1.574 . S
C271 C290 1.368 . S
C271 H295 0.949 . S
H272 C276 0.949 . S
C273 C274 1.349 . S
C273 C275 1.327 . S
C273 H296 0.950 . S
C274 C273 1.349 . S
C274 C286 1.349 . S
C275 C273 1.327 . S
C275 C291 1.429 . S
C275 H297 0.950 . S
C276 H272 0.949 . S
C276 C284 1.574 . S
C276 C292 1.368 . S
H277 C285 0.950 . S
H278 C283 0.950 . S
H279 C284 0.949 . S
H280 C286 0.950 . S
H281 C287 0.950 . S
H282 C288 0.949 . S
C283 H278 0.950 . S
C283 C285 1.327 . S
C283 C289 1.429 . S
C284 C276 1.574 . S
C284 H279 0.949 . S
C284 C290 1.368 . S
C285 C269 1.349 . S
C285 H277 0.950 . S
C285 C283 1.327 . S
C286 C274 1.349 . S
C286 H280 0.950 . S
C286 C287 1.327 . S
C287 H281 0.950 . S
C287 C286 1.327 . S
C287 C291 1.429 . S
C288 C271 1.574 . S
C288 H282 0.949 . S
C288 C292 1.368 . S
C289 C270 1.429 . S
C289 C283 1.429 . S
C289 C290 1.523 . S
C290 C271 1.368 . S
C290 C284 1.368 . S
C290 C289 1.523 . S
C291 C275 1.429 . S
C291 C287 1.429 . S
C291 C292 1.523 . S
C292 C276 1.368 . S
C292 C288 1.368 . S
C292 C291 1.523 . S
H293 C268 0.950 . S
H294 C270 0.950 . S
H295 C271 0.949 . S
H296 C273 0.950 . S
H297 C275 0.950 . S
C298 C299 1.349 . S
C298 C300 1.327 . S
C298 H323 0.950 . S
C299 C298 1.349 . S
C299 C315 1.349 . S
C300 C298 1.327 . S
C300 C319 1.429 . S
C300 H324 0.950 . S
C301 C318 1.574 . S
C301 C320 1.368 . S
C301 H325 0.949 . S
H302 C306 0.949 . S
C303 C304 1.349 . S
C303 C305 1.327 . S
C303 H326 0.950 . S
C304 C303 1.349 . S
C304 C316 1.349 . S
C305 C303 1.327 . S
C305 C321 1.429 . S
C305 H327 0.950 . S
C306 H302 0.949 . S
C306 C314 1.574 . S
C306 C322 1.368 . S
H307 C315 0.950 . S
H308 C313 0.950 . S
H309 C314 0.949 . S
H310 C316 0.950 . S
H311 C317 0.950 . S
H312 C318 0.949 . S
C313 H308 0.950 . S
C313 C315 1.327 . S
C313 C319 1.429 . S
C314 C306 1.574 . S
C314 H309 0.949 . S
C314 C320 1.368 . S
C315 C299 1.349 . S
C315 H307 0.950 . S
C315 C313 1.327 . S
C316 C304 1.349 . S
C316 H310 0.950 . S
C316 C317 1.327 . S
C317 H311 0.950 . S
C317 C316 1.327 . S
C317 C321 1.429 . S
C318 C301 1.574 . S
C318 H312 0.949 . S
C318 C322 1.368 . S
C319 C300 1.429 . S
C319 C313 1.429 . S
C319 C320 1.523 . S
C320 C301 1.368 . S
C320 C314 1.368 . S
C320 C319 1.523 . S
C321 C305 1.429 . S
C321 C317 1.429 . S
C321 C322 1.523 . S
C322 C306 1.368 . S
C322 C318 1.368 . S
C322 C321 1.523 . S
H323 C298 0.950 . S
H324 C300 0.950 . S
H325 C301 0.949 . S
H326 C303 0.950 . S
H327 C305 0.950 . S
C328 C329 1.349 . S
C328 C330 1.327 . S
C328 H353 0.950 . S
C329 C328 1.349 . S
C329 C345 1.349 . S
C330 C328 1.327 . S
C330 C349 1.429 . S
C330 H354 0.950 . S
C331 C348 1.574 . S
C331 C350 1.368 1_554 S
C331 H355 0.949 . S
H332 C336 0.949 . S
C333 C334 1.349 . S
C333 C335 1.327 . S
C333 H356 0.950 . S
C334 C333 1.349 . S
C334 C346 1.349 . S
C335 C333 1.327 . S
C335 C351 1.429 . S
C335 H357 0.950 . S
C336 H332 0.949 . S
C336 C344 1.574 . S
C336 C352 1.368 1_556 S
H337 C345 0.950 . S
H338 C343 0.950 1_554 S
H339 C344 0.949 . S
H340 C346 0.950 . S
H341 C347 0.950 1_556 S
H342 C348 0.949 . S
C343 H338 0.950 1_556 S
C343 C345 1.327 . S
C343 C349 1.429 . S
C344 C336 1.574 . S
C344 H339 0.949 . S
C344 C350 1.368 . S
C345 C329 1.349 . S
C345 H337 0.950 . S
C345 C343 1.327 . S
C346 C334 1.349 . S
C346 H340 0.950 . S
C346 C347 1.327 . S
C347 H341 0.950 1_554 S
C347 C346 1.327 . S
C347 C351 1.429 . S
C348 C331 1.574 . S
C348 H342 0.949 . S
C348 C352 1.368 . S
C349 C330 1.429 . S
C349 C343 1.429 . S
C349 C350 1.523 . S
C350 C331 1.368 1_556 S
C350 C344 1.368 . S
C350 C349 1.523 . S
C351 C335 1.429 . S
C351 C347 1.429 . S
C351 C352 1.523 . S
C352 C336 1.368 1_554 S
C352 C348 1.368 . S
C352 C351 1.523 . S
H353 C328 0.950 . S
H354 C330 0.950 . S
H355 C331 0.949 . S
H356 C333 0.950 . S
H357 C335 0.950 . S
C358 C359 1.349 . S
C358 C360 1.327 . S
C358 H383 0.950 . S
C359 C358 1.349 . S
C359 C375 1.349 . S
C360 C358 1.327 . S
C360 C379 1.429 . S
C360 H384 0.950 . S
C361 C378 1.574 . S
C361 C380 1.368 . S
C361 H385 0.949 . S
H362 C366 0.949 . S
C363 C364 1.349 . S
C363 C365 1.327 . S
C363 H386 0.950 . S
C364 C363 1.349 . S
C364 C376 1.349 . S
C365 C363 1.327 . S
C365 C381 1.429 . S
C365 H387 0.950 . S
C366 H362 0.949 . S
C366 C374 1.574 . S
C366 C382 1.368 . S
H367 C375 0.950 . S
H368 C373 0.950 . S
H369 C374 0.949 . S
H370 C376 0.950 . S
H371 C377 0.950 . S
H372 C378 0.949 . S
C373 H368 0.950 . S
C373 C375 1.327 . S
C373 C379 1.429 . S
C374 C366 1.574 . S
C374 H369 0.949 . S
C374 C380 1.368 1_554 S
C375 C359 1.349 . S
C375 H367 0.950 . S
C375 C373 1.327 . S
C376 C364 1.349 . S
C376 H370 0.950 . S
C376 C377 1.327 . S
C377 H371 0.950 . S
C377 C376 1.327 . S
C377 C381 1.429 . S
C378 C361 1.574 . S
C378 H372 0.949 . S
C378 C382 1.368 1_556 S
C379 C360 1.429 . S
C379 C373 1.429 . S
C379 C380 1.523 . S
C380 C361 1.368 . S
C380 C374 1.368 1_556 S
C380 C379 1.523 . S
C381 C365 1.429 . S
C381 C377 1.429 . S
C381 C382 1.523 . S
C382 C366 1.368 . S
C382 C378 1.368 1_554 S
C382 C381 1.523 . S
H383 C358 0.950 . S
H384 C360 0.950 . S
H385 C361 0.949 . S
H386 C363 0.950 . S
H387 C365 0.950 . S
C388 C389 1.349 . S
C388 C390 1.327 . S
C388 H413 0.950 . S
C389 C388 1.349 . S
C389 C405 1.349 . S
C390 C388 1.327 . S
C390 C409 1.429 . S
C390 H414 0.950 . S
C391 C408 1.574 . S
C391 C410 1.368 . S
C391 H415 0.949 . S
H392 C396 0.949 . S
C393 C394 1.349 . S
C393 C395 1.327 . S
C393 H416 0.950 . S
C394 C393 1.349 . S
C394 C406 1.349 . S
C395 C393 1.327 . S
C395 C411 1.429 . S
C395 H417 0.950 . S
C396 H392 0.949 . S
C396 C404 1.574 . S
C396 C412 1.368 . S
H397 C405 0.950 . S
H398 C403 0.950 . S
H399 C404 0.949 . S
H400 C406 0.950 . S
H401 C407 0.950 . S
H402 C408 0.949 . S
C403 H398 0.950 . S
C403 C405 1.327 . S
C403 C409 1.429 . S
C404 C396 1.574 . S
C404 H399 0.949 . S
C404 C410 1.368 1_556 S
C405 C389 1.349 . S
C405 H397 0.950 . S
C405 C403 1.327 . S
C406 C394 1.349 . S
C406 H400 0.950 . S
C406 C407 1.327 . S
C407 H401 0.950 . S
C407 C406 1.327 . S
C407 C411 1.429 . S
C408 C391 1.574 . S
C408 H402 0.949 . S
C408 C412 1.368 1_554 S
C409 C390 1.429 . S
C409 C403 1.429 . S
C409 C410 1.523 . S
C410 C391 1.368 . S
C410 C404 1.368 1_554 S
C410 C409 1.523 . S
C411 C395 1.429 . S
C411 C407 1.429 . S
C411 C412 1.523 . S
C412 C396 1.368 . S
C412 C408 1.368 1_556 S
C412 C411 1.523 . S
H413 C388 0.950 . S
H414 C390 0.950 . S
H415 C391 0.949 . S
H416 C393 0.950 . S
H417 C395 0.950 . S
C418 C419 1.349 . S
C418 C420 1.327 . S
C418 H443 0.950 . S
C419 C418 1.349 . S
C419 C435 1.349 . S
C420 C418 1.327 . S
C420 C439 1.429 . S
C420 H444 0.950 . S
C421 C438 1.574 . S
C421 C440 1.368 . S
C421 H445 0.949 . S
H422 C426 0.949 . S
C423 C424 1.349 . S
C423 C425 1.327 . S
C423 H446 0.950 . S
C424 C423 1.349 . S
C424 C436 1.349 . S
C425 C423 1.327 . S
C425 C441 1.429 . S
C425 H447 0.950 . S
C426 H422 0.949 . S
C426 C434 1.574 . S
C426 C442 1.368 . S
H427 C435 0.950 . S
H428 C433 0.950 . S
H429 C434 0.949 . S
H430 C436 0.950 . S
H431 C437 0.950 . S
H432 C438 0.949 . S
C433 H428 0.950 . S
C433 C435 1.327 . S
C433 C439 1.429 . S
C434 C426 1.574 . S
C434 H429 0.949 . S
C434 C440 1.368 1_556 S
C435 C419 1.349 . S
C435 H427 0.950 . S
C435 C433 1.327 . S
C436 C424 1.349 . S
C436 H430 0.950 . S
C436 C437 1.327 . S
C437 H431 0.950 . S
C437 C436 1.327 . S
C437 C441 1.429 . S
C438 C421 1.574 . S
C438 H432 0.949 . S
C438 C442 1.368 1_554 S
C439 C420 1.429 . S
C439 C433 1.429 . S
C439 C440 1.523 . S
C440 C421 1.368 . S
C440 C434 1.368 1_554 S
C440 C439 1.523 . S
C441 C425 1.429 . S
C441 C437 1.429 . S
C441 C442 1.523 . S
C442 C426 1.368 . S
C442 C438 1.368 1_556 S
C442 C441 1.523 . S
H443 C418 0.950 . S
H444 C420 0.950 . S
H445 C421 0.949 . S
H446 C423 0.950 . S
H447 C425 0.950 . S
C89 C48 1.566 . S
C94 C8 1.566 . S
C119 C27 1.566 . S
C124 C73 1.566 . S
C149 C70 1.566 . S
C154 C30 1.566 . S
C179 C5 1.566 . S
C184 C51 1.566 . S
C209 C72 2.182 . S
C214 C9 2.182 . S
C239 C53 2.182 . S
C244 C28 2.182 . S
C269 C50 2.182 . S
C274 C31 2.182 . S
C299 C6 2.182 . S
C304 C75 2.182 . S
C329 C71 0.356 . S
C334 C7 0.356 . S
C359 C52 0.356 . S
C364 C26 0.356 . S
C389 C29 0.356 . S
C394 C49 0.356 . S
C419 C4 0.356 . S
C424 C74 0.356 . S
