# Generated by pormake.
# Topology wfj, (8)-cn, num edge types: 1
# Building blocks:
#     Node 0, Type 0, BuildingBlock: TAGTUT_clean_sbu_3, # of connection points: 8
#     Node 1, Type 0, BuildingBlock: TAGTUT_clean_sbu_3, # of connection points: 8
#     Node 2, Type 0, BuildingBlock: TAGTUT_clean_sbu_3, # of connection points: 8
#     Node 3, Type 0, BuildingBlock: TAGTUT_clean_sbu_3, # of connection points: 8
#     Node 4, Type 0, BuildingBlock: TAGTUT_clean_sbu_3, # of connection points: 8
#     Node 5, Type 0, BuildingBlock: TAGTUT_clean_sbu_3, # of connection points: 8
#     Node 6, Type 0, BuildingBlock: TAGTUT_clean_sbu_3, # of connection points: 8
#     Node 7, Type 0, BuildingBlock: TAGTUT_clean_sbu_3, # of connection points: 8
#     Node 8, Type 0, BuildingBlock: TAGTUT_clean_sbu_3, # of connection points: 8
#     Node 9, Type 0, BuildingBlock: TAGTUT_clean_sbu_3, # of connection points: 8
#     Node 10, Type 0, BuildingBlock: TAGTUT_clean_sbu_3, # of connection points: 8
#     Node 11, Type 0, BuildingBlock: TAGTUT_clean_sbu_3, # of connection points: 8
#     Node 12, Type 0, BuildingBlock: TAGTUT_clean_sbu_3, # of connection points: 8
#     Node 13, Type 0, BuildingBlock: TAGTUT_clean_sbu_3, # of connection points: 8
#     Node 14, Type 0, BuildingBlock: TAGTUT_clean_sbu_3, # of connection points: 8
#     Node 15, Type 0, BuildingBlock: TAGTUT_clean_sbu_3, # of connection points: 8
#     Edge 16, Type (0, 0), BuildingBlock: AJUNOK_clean_linker_0, # of connection points: 2
#     Edge 17, Type (0, 0), BuildingBlock: AJUNOK_clean_linker_0, # of connection points: 2
#     Edge 18, Type (0, 0), BuildingBlock: AJUNOK_clean_linker_0, # of connection points: 2
#     Edge 19, Type (0, 0), BuildingBlock: AJUNOK_clean_linker_0, # of connection points: 2
#     Edge 20, Type (0, 0), BuildingBlock: AJUNOK_clean_linker_0, # of connection points: 2
#     Edge 21, Type (0, 0), BuildingBlock: AJUNOK_clean_linker_0, # of connection points: 2
#     Edge 22, Type (0, 0), BuildingBlock: AJUNOK_clean_linker_0, # of connection points: 2
#     Edge 23, Type (0, 0), BuildingBlock: AJUNOK_clean_linker_0, # of connection points: 2
#     Edge 24, Type (0, 0), BuildingBlock: AJUNOK_clean_linker_0, # of connection points: 2
#     Edge 25, Type (0, 0), BuildingBlock: AJUNOK_clean_linker_0, # of connection points: 2
#     Edge 26, Type (0, 0), BuildingBlock: AJUNOK_clean_linker_0, # of connection points: 2
#     Edge 27, Type (0, 0), BuildingBlock: AJUNOK_clean_linker_0, # of connection points: 2
#     Edge 28, Type (0, 0), BuildingBlock: AJUNOK_clean_linker_0, # of connection points: 2
#     Edge 29, Type (0, 0), BuildingBlock: AJUNOK_clean_linker_0, # of connection points: 2
#     Edge 30, Type (0, 0), BuildingBlock: AJUNOK_clean_linker_0, # of connection points: 2
#     Edge 31, Type (0, 0), BuildingBlock: AJUNOK_clean_linker_0, # of connection points: 2
#     Edge 32, Type (0, 0), BuildingBlock: AJUNOK_clean_linker_0, # of connection points: 2
#     Edge 33, Type (0, 0), BuildingBlock: AJUNOK_clean_linker_0, # of connection points: 2
#     Edge 34, Type (0, 0), BuildingBlock: AJUNOK_clean_linker_0, # of connection points: 2
#     Edge 35, Type (0, 0), BuildingBlock: AJUNOK_clean_linker_0, # of connection points: 2
#     Edge 36, Type (0, 0), BuildingBlock: AJUNOK_clean_linker_0, # of connection points: 2
#     Edge 37, Type (0, 0), BuildingBlock: AJUNOK_clean_linker_0, # of connection points: 2
#     Edge 38, Type (0, 0), BuildingBlock: AJUNOK_clean_linker_0, # of connection points: 2
#     Edge 39, Type (0, 0), BuildingBlock: AJUNOK_clean_linker_0, # of connection points: 2
#     Edge 40, Type (0, 0), BuildingBlock: AJUNOK_clean_linker_0, # of connection points: 2
#     Edge 41, Type (0, 0), BuildingBlock: AJUNOK_clean_linker_0, # of connection points: 2
#     Edge 42, Type (0, 0), BuildingBlock: AJUNOK_clean_linker_0, # of connection points: 2
#     Edge 43, Type (0, 0), BuildingBlock: AJUNOK_clean_linker_0, # of connection points: 2
#     Edge 44, Type (0, 0), BuildingBlock: AJUNOK_clean_linker_0, # of connection points: 2
#     Edge 45, Type (0, 0), BuildingBlock: AJUNOK_clean_linker_0, # of connection points: 2
#     Edge 46, Type (0, 0), BuildingBlock: AJUNOK_clean_linker_0, # of connection points: 2
#     Edge 47, Type (0, 0), BuildingBlock: AJUNOK_clean_linker_0, # of connection points: 2
#     Edge 48, Type (0, 0), BuildingBlock: AJUNOK_clean_linker_0, # of connection points: 2
#     Edge 49, Type (0, 0), BuildingBlock: AJUNOK_clean_linker_0, # of connection points: 2
#     Edge 50, Type (0, 0), BuildingBlock: AJUNOK_clean_linker_0, # of connection points: 2
#     Edge 51, Type (0, 0), BuildingBlock: AJUNOK_clean_linker_0, # of connection points: 2
#     Edge 52, Type (0, 0), BuildingBlock: AJUNOK_clean_linker_0, # of connection points: 2
#     Edge 53, Type (0, 0), BuildingBlock: AJUNOK_clean_linker_0, # of connection points: 2
#     Edge 54, Type (0, 0), BuildingBlock: AJUNOK_clean_linker_0, # of connection points: 2
#     Edge 55, Type (0, 0), BuildingBlock: AJUNOK_clean_linker_0, # of connection points: 2
#     Edge 56, Type (0, 0), BuildingBlock: AJUNOK_clean_linker_0, # of connection points: 2
#     Edge 57, Type (0, 0), BuildingBlock: AJUNOK_clean_linker_0, # of connection points: 2
#     Edge 58, Type (0, 0), BuildingBlock: AJUNOK_clean_linker_0, # of connection points: 2
#     Edge 59, Type (0, 0), BuildingBlock: AJUNOK_clean_linker_0, # of connection points: 2
#     Edge 60, Type (0, 0), BuildingBlock: AJUNOK_clean_linker_0, # of connection points: 2
#     Edge 61, Type (0, 0), BuildingBlock: AJUNOK_clean_linker_0, # of connection points: 2
#     Edge 62, Type (0, 0), BuildingBlock: AJUNOK_clean_linker_0, # of connection points: 2
#     Edge 63, Type (0, 0), BuildingBlock: AJUNOK_clean_linker_0, # of connection points: 2
#     Edge 64, Type (0, 0), BuildingBlock: AJUNOK_clean_linker_0, # of connection points: 2
#     Edge 65, Type (0, 0), BuildingBlock: AJUNOK_clean_linker_0, # of connection points: 2
#     Edge 66, Type (0, 0), BuildingBlock: AJUNOK_clean_linker_0, # of connection points: 2
#     Edge 67, Type (0, 0), BuildingBlock: AJUNOK_clean_linker_0, # of connection points: 2
#     Edge 68, Type (0, 0), BuildingBlock: AJUNOK_clean_linker_0, # of connection points: 2
#     Edge 69, Type (0, 0), BuildingBlock: AJUNOK_clean_linker_0, # of connection points: 2
#     Edge 70, Type (0, 0), BuildingBlock: AJUNOK_clean_linker_0, # of connection points: 2
#     Edge 71, Type (0, 0), BuildingBlock: AJUNOK_clean_linker_0, # of connection points: 2
#     Edge 72, Type (0, 0), BuildingBlock: AJUNOK_clean_linker_0, # of connection points: 2
#     Edge 73, Type (0, 0), BuildingBlock: AJUNOK_clean_linker_0, # of connection points: 2
#     Edge 74, Type (0, 0), BuildingBlock: AJUNOK_clean_linker_0, # of connection points: 2
#     Edge 75, Type (0, 0), BuildingBlock: AJUNOK_clean_linker_0, # of connection points: 2
#     Edge 76, Type (0, 0), BuildingBlock: AJUNOK_clean_linker_0, # of connection points: 2
#     Edge 77, Type (0, 0), BuildingBlock: AJUNOK_clean_linker_0, # of connection points: 2
#     Edge 78, Type (0, 0), BuildingBlock: AJUNOK_clean_linker_0, # of connection points: 2
#     Edge 79, Type (0, 0), BuildingBlock: AJUNOK_clean_linker_0, # of connection points: 2
# Relax obj value: 0.293
# Max RMSD: 0.264
# Mean RMSD: 0.259
data_MOF--net-wfj--node1-TAGTUT_clean_sbu_3--edge1-AJUNOK_clean_linker_0
_symmetry_space_group_name_H-M    P1
_symmetry_Int_Tables_number       1
_symmetry_cell_setting            triclinic
loop_
_symmetry_equiv_pos_as_xyz
'x, y, z'
_cell_length_a     49.426288
_cell_length_b     49.438133
_cell_length_c     11.936136
_cell_angle_alpha  89.869115
_cell_angle_beta   90.04135
_cell_angle_gamma 90.450441
loop_
_atom_site_label
_atom_site_type_symbol
_atom_site_fract_x
_atom_site_fract_y
_atom_site_fract_z
_atom_type_partial_charge
C0 C 0.15474 0.33876 0.39705 0.0
C1 C 0.22424 0.30057 0.39045 0.0
C2 C 0.23061 0.30194 0.73237 0.0
Mg3 Mg 0.10808 0.36467 0.52126 0.0
Mg4 Mg 0.11093 0.39877 0.7592 0.0
O5 O 0.1188 0.36711 0.68268 0.0
Mg6 Mg 0.15644 0.35435 0.66374 0.0
O7 O 0.19259 0.33684 0.63326 0.0
Mg8 Mg 0.17971 0.29982 0.57926 0.0
Mg9 Mg 0.22167 0.34763 0.54006 0.0
C10 C 0.14777 0.368 0.93175 0.0
O11 O 0.17791 0.3964 0.6762 0.0
O12 O 0.06508 0.37379 0.58149 0.0
O13 O 0.20001 0.38525 0.52806 0.0
O14 O 0.11932 0.41058 0.49022 0.0
O15 O 0.06752 0.39581 0.74534 0.0
O16 O 0.12907 0.42873 0.65691 0.0
O17 O 0.14016 0.31278 0.66192 0.0
O18 O 0.10232 0.31777 0.56152 0.0
C19 C 0.11845 0.30312 0.62064 0.0
C20 C 0.05379 0.3846 0.66676 0.0
O21 O 0.15833 0.35314 0.85544 0.0
O22 O 0.21665 0.28802 0.47813 0.0
O23 O 0.13126 0.3873 0.91155 0.0
O24 O 0.2062 0.29249 0.72788 0.0
O25 O 0.22205 0.32606 0.38345 0.0
O26 O 0.23959 0.32124 0.66862 0.0
O27 O 0.15132 0.35605 0.4745 0.0
O28 O 0.16204 0.31476 0.41876 0.0
C29 C 0.12931 0.42976 0.55031 0.0
C30 C 0.19992 0.39753 0.62084 0.0
C31 C 0.35392 0.44384 0.88221 0.0
C32 C 0.30423 0.36542 0.78712 0.0
C33 C 0.37996 0.31421 0.88476 0.0
Mg34 Mg 0.40754 0.46368 0.83542 0.0
Mg35 Mg 0.44779 0.4389 0.65691 0.0
O36 O 0.43146 0.43225 0.79483 0.0
Mg37 Mg 0.40112 0.40445 0.78175 0.0
O38 O 0.36951 0.38005 0.7825 0.0
Mg39 Mg 0.3584 0.37992 0.94533 0.0
Mg40 Mg 0.36091 0.35074 0.69018 0.0
C41 C 0.4588 0.37779 0.70748 0.0
O42 O 0.39745 0.40403 0.58727 0.0
O43 O 0.44491 0.48865 0.8518 0.0
O44 O 0.37831 0.36468 0.53298 0.0
O45 O 0.4072 0.48356 0.65603 0.0
O46 O 0.46872 0.47655 0.69912 0.0
O47 O 0.41621 0.4493 0.5492 0.0
O48 O 0.40148 0.39921 0.97046 0.0
O49 O 0.4092 0.44262 0.01474 0.0
C50 C 0.40585 0.41758 0.0435 0.0
C51 C 0.46363 0.49294 0.77963 0.0
O52 O 0.43634 0.37442 0.76118 0.0
O53 O 0.31435 0.37018 0.88444 0.0
O54 O 0.46392 0.3988 0.6472 0.0
O55 O 0.37374 0.3335 0.95268 0.0
O56 O 0.31844 0.3567 0.70542 0.0
O57 O 0.37689 0.31686 0.77908 0.0
O58 O 0.37089 0.43843 0.80539 0.0
O59 O 0.3449 0.42495 0.94522 0.0
C60 C 0.41121 0.4741 0.55806 0.0
C61 C 0.38996 0.38732 0.5107 0.0
C62 C 0.30474 0.60611 0.1189 0.0
C63 C 0.38161 0.55363 0.01978 0.0
C64 C 0.43696 0.62622 0.13345 0.0
Mg65 Mg 0.28727 0.66122 0.08386 0.0
Mg66 Mg 0.31483 0.702 0.91281 0.0
O67 O 0.31978 0.68455 0.05036 0.0
Mg68 Mg 0.34683 0.65432 0.03522 0.0
O69 O 0.3707 0.62206 0.03067 0.0
Mg70 Mg 0.36933 0.60727 0.18743 0.0
Mg71 Mg 0.39857 0.61111 0.936 0.0
C72 C 0.37425 0.71425 0.98095 0.0
O73 O 0.34855 0.65379 0.83937 0.0
O74 O 0.26441 0.69963 0.10245 0.0
O75 O 0.38513 0.63035 0.78338 0.0
O76 O 0.26874 0.6625 0.90309 0.0
O77 O 0.27814 0.72394 0.95235 0.0
O78 O 0.30313 0.67227 0.79523 0.0
O79 O 0.35083 0.65056 0.22463 0.0
O80 O 0.30761 0.66063 0.26529 0.0
C81 C 0.33203 0.65495 0.29594 0.0
C82 C 0.26122 0.71879 0.03117 0.0
O83 O 0.37703 0.6913 0.03226 0.0
O84 O 0.37801 0.56321 0.11885 0.0
O85 O 0.35512 0.71863 0.91042 0.0
O86 O 0.41714 0.62095 0.20145 0.0
O87 O 0.38994 0.56864 0.93942 0.0
O88 O 0.43395 0.62355 0.02761 0.0
O89 O 0.31089 0.62441 0.04793 0.0
O90 O 0.32347 0.59514 0.1768 0.0
C91 C 0.27833 0.66642 0.80499 0.0
C92 C 0.36419 0.64463 0.76228 0.0
C93 C 0.09209 0.58977 0.12252 0.0
C94 C 0.02244 0.52001 0.32245 0.0
C95 C 0.03029 0.57149 0.58721 0.0
Mg96 Mg 0.12583 0.63815 0.24242 0.0
Mg97 Mg 0.15559 0.63361 0.49297 0.0
O98 O 0.12865 0.62169 0.39632 0.0
Mg99 Mg 0.10551 0.58868 0.38514 0.0
O100 O 0.07821 0.55845 0.35851 0.0
Mg101 Mg 0.0462 0.58192 0.32016 0.0
Mg102 Mg 0.07021 0.53656 0.48051 0.0
C103 C 0.12103 0.59563 0.65495 0.0
O104 O 0.13713 0.55412 0.39552 0.0
O105 O 0.13408 0.68093 0.31732 0.0
O106 O 0.11151 0.52455 0.49718 0.0
O107 O 0.17346 0.62648 0.22318 0.0
O108 O 0.14444 0.6757 0.49837 0.0
O109 O 0.19117 0.62425 0.39577 0.0
O110 O 0.07101 0.61652 0.3791 0.0
O111 O 0.07997 0.65061 0.26735 0.0
C112 C 0.06391 0.63824 0.33394 0.0
C113 C 0.13647 0.69045 0.41691 0.0
O114 O 0.10455 0.5876 0.5781 0.0
O115 O 0.02321 0.54369 0.2788 0.0
O116 O 0.14213 0.61024 0.6359 0.0
O117 O 0.02528 0.5793 0.48798 0.0
O118 O 0.03859 0.51228 0.40027 0.0
O119 O 0.05268 0.56019 0.60911 0.0
O120 O 0.11009 0.59425 0.19717 0.0
O121 O 0.06743 0.58456 0.14879 0.0
C122 C 0.19378 0.62218 0.2894 0.0
C123 C 0.13376 0.5316 0.44919 0.0
C124 C 0.89688 0.70014 0.49992 0.0
C125 C 0.94995 0.6238 0.41796 0.0
C126 C 0.8794 0.57105 0.54942 0.0
Mg127 Mg 0.84259 0.71994 0.52956 0.0
Mg128 Mg 0.7944 0.68538 0.32584 0.0
O129 O 0.81691 0.68571 0.46681 0.0
Mg130 Mg 0.84702 0.6578 0.44704 0.0
O131 O 0.88052 0.63519 0.43656 0.0
Mg132 Mg 0.89719 0.63821 0.58814 0.0
Mg133 Mg 0.89196 0.60707 0.34576 0.0
C134 C 0.79217 0.62519 0.36484 0.0
O135 O 0.84678 0.6576 0.25303 0.0
O136 O 0.80006 0.70597 0.49191 0.0
O137 O 0.86849 0.61921 0.20482 0.0
O138 O 0.8423 0.74276 0.3605 0.0
O139 O 0.76018 0.70363 0.42143 0.0
O140 O 0.82692 0.70995 0.25753 0.0
O141 O 0.85325 0.65385 0.63587 0.0
O142 O 0.84351 0.69577 0.69257 0.0
C143 C 0.84878 0.67099 0.71357 0.0
C144 C 0.77518 0.71295 0.49932 0.0
O145 O 0.81098 0.62503 0.44032 0.0
O146 O 0.94009 0.62822 0.51579 0.0
O147 O 0.79232 0.64295 0.28742 0.0
O148 O 0.88455 0.59186 0.61098 0.0
O149 O 0.93487 0.61594 0.33711 0.0
O150 O 0.88123 0.57226 0.44289 0.0
O151 O 0.8744 0.69349 0.45686 0.0
O152 O 0.91005 0.68327 0.55908 0.0
C153 C 0.82581 0.73463 0.28589 0.0
C154 C 0.85491 0.64035 0.17986 0.0
C155 C 0.55005 0.63691 0.2515 0.0
C156 C 0.62986 0.6831 0.16819 0.0
C157 C 0.67891 0.6136 0.30253 0.0
Mg158 Mg 0.52867 0.58415 0.26438 0.0
Mg159 Mg 0.54934 0.52614 0.18176 0.0
O160 O 0.55852 0.55695 0.25801 0.0
Mg161 Mg 0.58842 0.58361 0.21622 0.0
O162 O 0.61402 0.61459 0.19711 0.0
Mg163 Mg 0.61198 0.63358 0.34668 0.0
Mg164 Mg 0.64118 0.62379 0.09724 0.0
C165 C 0.61278 0.51978 0.20807 0.0
O166 O 0.58684 0.58047 0.02184 0.0
O167 O 0.49921 0.55291 0.32321 0.0
O168 O 0.62484 0.60137 0.9571 0.0
O169 O 0.51566 0.57629 0.07807 0.0
O170 O 0.5124 0.51225 0.26578 0.0
O171 O 0.54105 0.54164 0.02364 0.0
O172 O 0.59228 0.59193 0.40281 0.0
O173 O 0.54782 0.58923 0.44377 0.0
C174 C 0.57289 0.59087 0.47415 0.0
C175 C 0.49545 0.52756 0.3159 0.0
O176 O 0.61819 0.54547 0.21648 0.0
O177 O 0.62513 0.67431 0.2674 0.0
O178 O 0.58882 0.5101 0.19552 0.0
O179 O 0.65913 0.62007 0.36846 0.0
O180 O 0.63551 0.66705 0.08781 0.0
O181 O 0.67592 0.61308 0.19589 0.0
O182 O 0.55658 0.61491 0.20654 0.0
O183 O 0.5667 0.64876 0.31737 0.0
C184 C 0.52495 0.56078 0.00106 0.0
C185 C 0.60281 0.58793 0.94199 0.0
C186 C 0.61355 0.29423 0.95642 0.0
C187 C 0.56518 0.37449 0.8731 0.0
C188 C 0.6352 0.42078 0.03669 0.0
Mg189 Mg 0.66987 0.27773 0.9909 0.0
Mg190 Mg 0.72708 0.30799 0.93395 0.0
O191 O 0.69239 0.31127 0.98522 0.0
Mg192 Mg 0.66308 0.33701 0.93887 0.0
O193 O 0.63018 0.358 0.9093 0.0
Mg194 Mg 0.61174 0.35488 0.05864 0.0
Mg195 Mg 0.62562 0.38822 0.8199 0.0
C196 C 0.72035 0.37185 0.9614 0.0
O197 O 0.6695 0.3363 0.74502 0.0
O198 O 0.7036 0.25577 0.06844 0.0
O199 O 0.64873 0.3737 0.67875 0.0
O200 O 0.68578 0.264 0.81445 0.0
O201 O 0.74322 0.27712 0.04567 0.0
O202 O 0.72 0.29233 0.77287 0.0
O203 O 0.65283 0.33882 0.12491 0.0
O204 O 0.65894 0.29513 0.16612 0.0
C205 C 0.65454 0.31961 0.19677 0.0
C206 C 0.72881 0.25786 0.08644 0.0
O207 O 0.69432 0.37232 0.95558 0.0
O208 O 0.57182 0.36692 0.97207 0.0
O209 O 0.73438 0.35023 0.9519 0.0
O210 O 0.62534 0.40045 0.09147 0.0
O211 O 0.58254 0.38347 0.80243 0.0
O212 O 0.63798 0.42009 0.9303 0.0
O213 O 0.63634 0.30166 0.91967 0.0
O214 O 0.59969 0.30978 0.01931 0.0
C215 C 0.70397 0.27305 0.74674 0.0
C216 C 0.66221 0.35191 0.66389 0.0
C217 C 0.90457 0.4104 0.96588 0.0
C218 C 0.94642 0.47258 0.03178 0.0
C219 C 0.94734 0.50228 0.72262 0.0
Mg220 Mg 0.87716 0.36843 0.81224 0.0
Mg221 Mg 0.84351 0.37823 0.57916 0.0
O222 O 0.87402 0.38631 0.66358 0.0
Mg223 Mg 0.88857 0.42287 0.70445 0.0
O224 O 0.9086 0.45697 0.75828 0.0
Mg225 Mg 0.94504 0.44023 0.80344 0.0
Mg226 Mg 0.90024 0.4811 0.8788 0.0
C227 C 0.87394 0.42127 0.42926 0.0
O228 O 0.84785 0.44681 0.71593 0.0
O229 O 0.86949 0.32634 0.72414 0.0
O230 O 0.85862 0.46781 0.86956 0.0
O231 O 0.83145 0.37783 0.84749 0.0
O232 O 0.84893 0.33489 0.56113 0.0
O233 O 0.81262 0.39132 0.68673 0.0
O234 O 0.92997 0.40576 0.68917 0.0
O235 O 0.92283 0.36495 0.76677 0.0
C236 C 0.9381 0.3822 0.71598 0.0
C237 C 0.86026 0.31837 0.62902 0.0
O238 O 0.88859 0.43068 0.51044 0.0
O239 O 0.95845 0.46828 0.93985 0.0
O240 O 0.85491 0.40382 0.44291 0.0
O241 O 0.95524 0.47796 0.699 0.0
O242 O 0.92073 0.47316 0.03567 0.0
O243 O 0.92744 0.50771 0.78831 0.0
O244 O 0.88627 0.41027 0.89039 0.0
O245 O 0.9292 0.41382 0.93999 0.0
C246 C 0.81196 0.38881 0.79273 0.0
C247 C 0.84888 0.46905 0.7712 0.0
C248 C 0.65872 0.82762 0.83405 0.0
C249 C 0.73459 0.78126 0.85563 0.0
C250 C 0.7286 0.78695 0.2121 0.0
Mg251 Mg 0.6146 0.85827 0.9713 0.0
Mg252 Mg 0.62482 0.89261 0.20546 0.0
O253 O 0.62967 0.86089 0.12588 0.0
Mg254 Mg 0.66517 0.84475 0.09672 0.0
O255 O 0.69847 0.8233 0.05405 0.0
Mg256 Mg 0.68159 0.78724 0.02113 0.0
Mg257 Mg 0.73432 0.83037 0.01422 0.0
C258 C 0.66206 0.85983 0.36778 0.0
O259 O 0.68999 0.88488 0.10112 0.0
O260 O 0.57348 0.86859 0.05297 0.0
O261 O 0.71957 0.87061 0.9802 0.0
O262 O 0.62753 0.90397 0.93443 0.0
O263 O 0.58177 0.88918 0.21694 0.0
O264 O 0.64053 0.92243 0.09663 0.0
O265 O 0.64489 0.80503 0.10623 0.0
O266 O 0.6062 0.81231 0.0153 0.0
C267 C 0.62199 0.79687 0.07185 0.0
C268 C 0.56551 0.87799 0.14745 0.0
O269 O 0.67011 0.84405 0.28905 0.0
O270 O 0.71583 0.77088 0.91511 0.0
O271 O 0.64742 0.88065 0.34957 0.0
O272 O 0.70591 0.77706 0.17716 0.0
O273 O 0.74298 0.80546 0.87022 0.0
O274 O 0.74126 0.80672 0.16409 0.0
O275 O 0.65668 0.84616 0.90821 0.0
O276 O 0.66461 0.80344 0.86094 0.0
C277 C 0.63891 0.92321 0.99029 0.0
C278 C 0.71425 0.8852 0.06444 0.0
C279 C 0.8584 0.94163 0.39341 0.0
C280 C 0.81079 0.86027 0.29582 0.0
C281 C 0.88707 0.81241 0.39867 0.0
Mg282 Mg 0.91222 0.96293 0.34622 0.0
Mg283 Mg 0.95167 0.93718 0.16615 0.0
O284 O 0.93644 0.93138 0.30699 0.0
Mg285 Mg 0.90651 0.90305 0.29476 0.0
O286 O 0.87531 0.87803 0.29482 0.0
Mg287 Mg 0.86388 0.8776 0.45701 0.0
Mg288 Mg 0.86818 0.84816 0.20303 0.0
C289 C 0.9647 0.8775 0.22204 0.0
O290 O 0.903 0.90175 0.09999 0.0
O291 O 0.95025 0.98808 0.35594 0.0
O292 O 0.8848 0.86212 0.04471 0.0
O293 O 0.91131 0.98263 0.16655 0.0
O294 O 0.97346 0.97449 0.20313 0.0
O295 O 0.91881 0.94737 0.0645 0.0
O296 O 0.90648 0.89834 0.48324 0.0
O297 O 0.91412 0.94187 0.52701 0.0
C298 C 0.91058 0.91684 0.55613 0.0
C299 C 0.96887 0.99146 0.28202 0.0
O300 O 0.94263 0.8738 0.27814 0.0
O301 O 0.82025 0.86598 0.3935 0.0
O302 O 0.96775 0.89709 0.15221 0.0
O303 O 0.88001 0.83146 0.46631 0.0
O304 O 0.8256 0.85162 0.21606 0.0
O305 O 0.8846 0.81505 0.29287 0.0
O306 O 0.87583 0.9369 0.31757 0.0
O307 O 0.84959 0.92242 0.45541 0.0
C308 C 0.91455 0.97229 0.0697 0.0
C309 C 0.89581 0.88508 0.02287 0.0
C310 C 0.80186 0.11009 0.62141 0.0
C311 C 0.87773 0.05339 0.53206 0.0
C312 C 0.93353 0.12518 0.65397 0.0
Mg313 Mg 0.78487 0.16786 0.62844 0.0
Mg314 Mg 0.82348 0.20201 0.40525 0.0
O315 O 0.82105 0.18951 0.56629 0.0
Mg316 Mg 0.84636 0.15603 0.55287 0.0
O317 O 0.86715 0.12171 0.546 0.0
Mg318 Mg 0.86581 0.10731 0.70169 0.0
Mg319 Mg 0.89548 0.11131 0.45415 0.0
C320 C 0.87968 0.20721 0.47528 0.0
O321 O 0.84661 0.15389 0.35866 0.0
O322 O 0.80251 0.20885 0.57128 0.0
O323 O 0.8841 0.13191 0.30274 0.0
O324 O 0.76278 0.17147 0.4602 0.0
O325 O 0.80051 0.2381 0.4344 0.0
O326 O 0.7979 0.16946 0.3487 0.0
O327 O 0.85069 0.15194 0.74125 0.0
O328 O 0.80922 0.16492 0.79312 0.0
C329 C 0.83347 0.15783 0.81698 0.0
C330 C 0.78979 0.22855 0.52323 0.0
O331 O 0.88157 0.18798 0.54738 0.0
O332 O 0.87359 0.06245 0.63189 0.0
O333 O 0.86668 0.2023 0.38558 0.0
O334 O 0.91383 0.11939 0.72166 0.0
O335 O 0.88614 0.06896 0.45399 0.0
O336 O 0.93028 0.1236 0.54807 0.0
O337 O 0.80823 0.13137 0.56671 0.0
O338 O 0.81988 0.09735 0.6775 0.0
C339 C 0.7728 0.17322 0.36187 0.0
C340 C 0.86277 0.14557 0.28212 0.0
C341 C 0.5872 0.08929 0.5586 0.0
C342 C 0.54132 0.0122 0.72261 0.0
C343 C 0.52431 0.05256 0.98198 0.0
Mg344 Mg 0.62089 0.13203 0.70174 0.0
Mg345 Mg 0.64927 0.12391 0.94871 0.0
O346 O 0.62346 0.11242 0.84733 0.0
Mg347 Mg 0.60066 0.07953 0.82156 0.0
O348 O 0.57251 0.0501 0.77917 0.0
Mg349 Mg 0.53808 0.07715 0.73862 0.0
Mg350 Mg 0.56981 0.02472 0.90601 0.0
C351 C 0.61675 0.08153 0.0952 0.0
O352 O 0.63401 0.04668 0.81551 0.0
O353 O 0.63113 0.17334 0.78332 0.0
O354 O 0.61201 0.01748 0.9298 0.0
O355 O 0.66835 0.12064 0.6785 0.0
O356 O 0.63853 0.16586 0.96513 0.0
O357 O 0.68466 0.11665 0.85327 0.0
O358 O 0.5655 0.10549 0.83255 0.0
O359 O 0.57535 0.14341 0.74368 0.0
C360 C 0.55934 0.12924 0.80492 0.0
C361 C 0.63272 0.18182 0.88456 0.0
O362 O 0.6006 0.07409 0.01583 0.0
O363 O 0.55497 0.03444 0.72696 0.0
O364 O 0.63692 0.09759 0.08105 0.0
O365 O 0.51394 0.06437 0.89744 0.0
O366 O 0.54548 0.99591 0.80363 0.0
O367 O 0.54942 0.05538 -0.00265 0.0
O368 O 0.60514 0.08998 0.63561 0.0
O369 O 0.56203 0.08711 0.58115 0.0
C370 C 0.68801 0.11564 0.74731 0.0
C371 C 0.63289 0.02473 0.87361 0.0
C372 C 0.39652 0.20254 0.98955 0.0
C373 C 0.44496 0.12252 0.90302 0.0
C374 C 0.37112 0.07524 0.04414 0.0
Mg375 Mg 0.34173 0.22076 0.00429 0.0
Mg376 Mg 0.2894 0.19759 0.86441 0.0
O377 O 0.31538 0.18914 0.97248 0.0
Mg378 Mg 0.34438 0.16118 0.94193 0.0
O379 O 0.37719 0.13824 0.9258 0.0
Mg380 Mg 0.3944 0.14063 0.07929 0.0
Mg381 Mg 0.38518 0.10923 0.83355 0.0
C382 C 0.28258 0.134 0.89499 0.0
O383 O 0.34271 0.16185 0.74905 0.0
O384 O 0.30525 0.24328 0.061 0.0
O385 O 0.36329 0.12372 0.6889 0.0
O386 O 0.34126 0.24119 0.83183 0.0
O387 O 0.26867 0.2274 0.96957 0.0
O388 O 0.31811 0.21084 0.74456 0.0
O389 O 0.35137 0.15697 0.13045 0.0
O390 O 0.34412 0.20009 0.17494 0.0
C391 C 0.34832 0.17555 0.20347 0.0
C392 C 0.27977 0.24262 0.04374 0.0
O393 O 0.30677 0.12955 0.9342 0.0
O394 O 0.43641 0.1287 0.00147 0.0
O395 O 0.27479 0.15708 0.85904 0.0
O396 O 0.37958 0.0952 0.10426 0.0
O397 O 0.42873 0.11465 0.82591 0.0
O398 O 0.37119 0.07643 0.93703 0.0
O399 O 0.37455 0.1955 0.94429 0.0
O400 O 0.40896 0.18598 0.053 0.0
C401 C 0.32321 0.23558 0.76042 0.0
C402 C 0.35014 0.14559 0.67102 0.0
C403 C 0.07087 0.09182 0.97567 0.0
C404 C 0.99731 0.02571 0.81701 0.0
C405 C 0.02782 0.059 0.50146 0.0
Mg406 Mg 0.10896 0.13563 0.85299 0.0
Mg407 Mg 0.13817 0.12887 0.60115 0.0
O408 O 0.11097 0.11879 0.69961 0.0
Mg409 Mg 0.08725 0.08638 0.7184 0.0
O410 O 0.05889 0.05827 0.7596 0.0
Mg411 Mg 0.02782 0.08391 0.76312 0.0
Mg412 Mg 0.05201 0.02599 0.69011 0.0
C413 C 0.10109 0.09188 0.44385 0.0
O414 O 0.1192 0.0503 0.72021 0.0
O415 O 0.12201 0.17716 0.78106 0.0
O416 O 0.0925 0.01269 0.70803 0.0
O417 O 0.15558 0.1214 0.87131 0.0
O418 O 0.13292 0.17249 0.60036 0.0
O419 O 0.17242 0.1162 0.69791 0.0
O420 O 0.0543 0.11655 0.71051 0.0
O421 O 0.06353 0.15001 0.82562 0.0
C422 C 0.0472 0.13807 0.75852 0.0
C423 C 0.12731 0.18737 0.68467 0.0
O424 O 0.08586 0.08319 0.52401 0.0
O425 O 0.99965 0.05126 0.81827 0.0
O426 O 0.12209 0.1069 0.4589 0.0
O427 O 0.01753 0.07516 0.57405 0.0
O428 O 0.0156 0.0107 0.77399 0.0
O429 O 0.04344 0.0399 0.53013 0.0
O430 O 0.09016 0.09372 0.90425 0.0
O431 O 0.04588 0.08924 0.9449 0.0
C432 C 0.17521 0.11513 0.80452 0.0
C433 C 0.11572 0.02426 0.71738 0.0
C434 C 0.11415 0.80192 0.48385 0.0
C435 C 0.07208 0.88175 0.39581 0.0
C436 C 0.14336 0.92677 0.55522 0.0
Mg437 Mg 0.16731 0.78009 0.50693 0.0
Mg438 Mg 0.22596 0.80254 0.43147 0.0
O439 O 0.19466 0.81015 0.50625 0.0
Mg440 Mg 0.16822 0.83958 0.46173 0.0
O441 O 0.13764 0.8642 0.43615 0.0
Mg442 Mg 0.11788 0.86184 0.58396 0.0
Mg443 Mg 0.13295 0.89325 0.34075 0.0
C444 C 0.23042 0.86588 0.47445 0.0
O445 O 0.17364 0.83843 0.26702 0.0
O446 O 0.19821 0.75066 0.56584 0.0
O447 O 0.15562 0.87727 0.20085 0.0
O448 O 0.17657 0.76829 0.32055 0.0
O449 O 0.23909 0.76509 0.5124 0.0
O450 O 0.21122 0.79492 0.27114 0.0
O451 O 0.15842 0.84242 0.6468 0.0
O452 O 0.16173 0.79824 0.68847 0.0
C453 C 0.15975 0.82322 0.71887 0.0
C454 C 0.22362 0.74746 0.5594 0.0
O455 O 0.20468 0.8703 0.47555 0.0
O456 O 0.07839 0.8759 0.49722 0.0
O457 O 0.24093 0.84255 0.45793 0.0
O458 O 0.1338 0.9067 0.6125 0.0
O459 O 0.08985 0.88876 0.32324 0.0
O460 O 0.14534 0.92574 0.44845 0.0
O461 O 0.13706 0.80832 0.44595 0.0
O462 O 0.10189 0.8179 0.54979 0.0
C463 C 0.19248 0.77827 0.24576 0.0
C464 C 0.16778 0.8547 0.18615 0.0
C465 C 0.42838 0.9094 0.51418 0.0
C466 C 0.47325 0.98611 0.33689 0.0
C467 C 0.49185 0.94281 0.08902 0.0
Mg468 Mg 0.39447 0.86614 0.36501 0.0
Mg469 Mg 0.36229 0.8816 0.13001 0.0
O470 O 0.39268 0.88583 0.21869 0.0
Mg471 Mg 0.41496 0.91863 0.24892 0.0
O472 O 0.44269 0.94795 0.29079 0.0
Mg473 Mg 0.47764 0.92174 0.33763 0.0
Mg474 Mg 0.44605 0.97097 0.15588 0.0
C475 C 0.39832 0.91905 0.97773 0.0
O476 O 0.38115 0.9518 0.24376 0.0
O477 O 0.38184 0.82591 0.2726 0.0
O478 O 0.40444 0.97899 0.12557 0.0
O479 O 0.34982 0.87975 0.40006 0.0
O480 O 0.3663 0.83866 0.10418 0.0
O481 O 0.33089 0.89369 0.24002 0.0
O482 O 0.45 0.89265 0.24556 0.0
O483 O 0.43824 0.85341 0.32106 0.0
C484 C 0.45505 0.86825 0.26763 0.0
C485 C 0.37478 0.82038 0.17142 0.0
O486 O 0.41579 0.92367 0.0557 0.0
O487 O 0.45952 0.96388 0.33736 0.0
O488 O 0.37569 0.90688 -0.00549 0.0
O489 O 0.50226 0.93306 0.17791 0.0
O490 O 0.46993 0.0011 0.25104 0.0
O491 O 0.46687 0.93904 0.07425 0.0
O492 O 0.41068 0.90806 0.43589 0.0
O493 O 0.45351 0.91292 0.49363 0.0
C494 C 0.33006 0.89041 0.34603 0.0
C495 C 0.3828 0.97255 0.1781 0.0
C496 C 0.11605 0.25604 0.54415 0.0
C497 C 0.11475 0.27373 0.63581 0.0
C498 C 0.12045 0.22817 0.56034 0.0
C499 C 0.12381 0.21709 0.66873 0.0
H500 H 0.11508 0.26396 0.45953 0.0
H501 H 0.12148 0.2153 0.4872 0.0
S502 S 0.12183 0.25556 0.93588 0.0
N503 N 0.11677 0.27853 0.83776 0.0
N504 N 0.12503 0.22658 0.86895 0.0
C505 C 0.12192 0.23475 0.76085 0.0
C506 C 0.1174 0.26291 0.74413 0.0
C507 C 0.50585 0.36378 0.67652 0.0
C508 C 0.48339 0.36429 0.7487 0.0
C509 C 0.53217 0.36665 0.71809 0.0
C510 C 0.53714 0.36946 0.8337 0.0
H511 H 0.50289 0.36435 0.58655 0.0
H512 H 0.54865 0.36774 0.65838 0.0
S513 S 0.48576 0.36507 0.05961 0.0
N514 N 0.46811 0.36283 0.94245 0.0
N515 N 0.51774 0.36753 0.02085 0.0
C516 C 0.51517 0.36635 0.90759 0.0
C517 C 0.48826 0.36358 0.86501 0.0
C518 C 0.37867 0.76957 0.1945 0.0
C519 C 0.37965 0.79273 0.12556 0.0
C520 C 0.38114 0.74339 0.1489 0.0
C521 C 0.38498 0.73942 0.03288 0.0
H522 H 0.3744 0.77158 0.28308 0.0
H523 H 0.37746 0.72618 0.20333 0.0
S524 S 0.39522 0.79339 0.82076 0.0
N525 N 0.38942 0.80989 0.93829 0.0
N526 N 0.39391 0.76097 0.85398 0.0
C527 C 0.38888 0.76249 0.96574 0.0
C528 C 0.38611 0.78901 0.01147 0.0
C529 C 0.98946 0.62948 0.28439 0.0
C530 C 0.97906 0.63073 0.39471 0.0
C531 C 0.01674 0.63582 0.26039 0.0
C532 C 0.03471 0.64395 0.34544 0.0
H533 H 0.97667 0.62274 0.21609 0.0
H534 H 0.02428 0.63228 0.17652 0.0
S535 S 0.01819 0.6516 0.64665 0.0
N536 N 0.98937 0.64192 0.5888 0.0
N537 N 0.04021 0.65364 0.54304 0.0
C538 C 0.02434 0.64655 0.45455 0.0
C539 C 0.99674 0.63995 0.47943 0.0
C540 C 0.89174 0.74746 0.57204 0.0
C541 C 0.90388 0.72939 0.49605 0.0
C542 C 0.88822 0.77507 0.54491 0.0
C543 C 0.89674 0.78554 0.4407 0.0
H544 H 0.88267 0.73972 0.64836 0.0
H545 H 0.87689 0.78766 0.602 0.0
S546 S 0.93435 0.7475 0.22273 0.0
N547 N 0.92747 0.72466 0.31988 0.0
N548 N 0.92195 0.77623 0.2698 0.0
C549 C 0.91146 0.76814 0.3698 0.0
C550 C 0.91476 0.74018 0.39723 0.0
C551 C 0.50135 0.63377 0.31605 0.0
C552 C 0.52076 0.64406 0.23964 0.0
C553 C 0.4739 0.62946 0.28454 0.0
C554 C 0.46469 0.6351 0.17485 0.0
H555 H 0.50787 0.62679 0.39769 0.0
H556 H 0.46031 0.62002 0.34434 0.0
S557 S 0.50687 0.66549 0.94777 0.0
N558 N 0.52813 0.6618 0.05323 0.0
N559 N 0.47727 0.65466 -0.00565 0.0
C560 C 0.48362 0.64736 0.10102 0.0
C561 C 0.51133 0.6516 0.13324 0.0
C562 C 0.60953 0.25414 0.83792 0.0
C563 C 0.60847 0.265 0.94651 0.0
C564 C 0.61728 0.22737 0.81932 0.0
C565 C 0.62454 0.21021 0.90867 0.0
H566 H 0.60641 0.26714 0.76584 0.0
H567 H 0.61846 0.22046 0.73342 0.0
S568 S 0.62282 0.22844 0.21076 0.0
N569 N 0.61339 0.25629 0.14533 0.0
N570 N 0.62803 0.20578 0.11178 0.0
C571 C 0.62206 0.22043 0.01864 0.0
C572 C 0.61388 0.24778 0.03723 0.0
C573 C 0.98388 0.38587 0.79697 0.0
C574 C 0.96714 0.37773 0.70825 0.0
C575 C 0.01188 0.3881 0.78256 0.0
C576 C 0.02405 0.38225 0.67875 0.0
H577 H 0.97521 0.39157 0.87669 0.0
H578 H 0.02397 0.39473 0.85322 0.0
S579 S 0.98825 0.35903 0.42179 0.0
N580 N 0.96399 0.36327 0.51498 0.0
N581 N 0.01675 0.36689 0.48672 0.0
C582 C 0.00732 0.3733 0.59019 0.0
C583 C 0.97881 0.37122 0.60524 0.0
C584 C 0.62656 0.72193 0.03181 0.0
C585 C 0.62562 0.71235 0.14341 0.0
C586 C 0.62219 0.74932 0.00606 0.0
C587 C 0.61639 0.76804 0.0907 0.0
H588 H 0.63132 0.70834 0.96372 0.0
H589 H 0.625 0.75616 0.92051 0.0
S590 S 0.61053 0.754 0.39463 0.0
N591 N 0.61741 0.72435 0.33858 0.0
N592 N 0.60938 0.77554 0.28895 0.0
C593 C 0.61445 0.75874 0.20147 0.0
C594 C 0.619 0.73101 0.22819 0.0
C595 C 0.01327 0.86751 0.19923 0.0
C596 C 0.99054 0.86796 0.26999 0.0
C597 C 0.03939 0.87183 0.24122 0.0
C598 C 0.04402 0.8764 0.35618 0.0
H599 H 0.01062 0.8663 0.10922 0.0
H600 H 0.05599 0.87235 0.18205 0.0
S601 S 0.99192 0.8748 0.57991 0.0
N602 N 0.97473 0.86992 0.46294 0.0
N603 N 0.02396 0.87745 0.54212 0.0
C604 C 0.02181 0.87418 0.42943 0.0
C605 C 0.99509 0.86988 0.38641 0.0
C606 C 0.87626 0.24228 0.63095 0.0
C607 C 0.87815 0.23592 0.51591 0.0
C608 C 0.87043 0.26882 0.66738 0.0
C609 C 0.86575 0.29004 0.59048 0.0
H610 H 0.87852 0.22655 0.69346 0.0
H611 H 0.86906 0.27261 0.75651 0.0
S612 S 0.87084 0.28474 0.2805 0.0
N613 N 0.87697 0.25387 0.3261 0.0
N614 N 0.86538 0.30296 0.39371 0.0
C615 C 0.86832 0.28403 0.47558 0.0
C616 C 0.87471 0.25729 0.43875 0.0
C617 C 0.52113 0.13361 0.93655 0.0
C618 C 0.53063 0.13595 0.82557 0.0
C619 C 0.49357 0.12962 0.96077 0.0
C620 C 0.47419 0.1272 0.8748 0.0
H621 H 0.53545 0.1332 0.00537 0.0
H622 H 0.48759 0.12736 0.0476 0.0
S623 S 0.48833 0.13411 0.56971 0.0
N624 N 0.51838 0.13715 0.62921 0.0
N625 N 0.46652 0.12979 0.67313 0.0
C626 C 0.48331 0.13073 0.76322 0.0
C627 C 0.51146 0.13511 0.73902 0.0
C628 C 0.40311 0.26985 0.84975 0.0
C629 C 0.39037 0.28746 0.92615 0.0
C630 C 0.40887 0.24284 0.87749 0.0
C631 C 0.40268 0.23207 0.98356 0.0
H632 H 0.40725 0.27645 0.76484 0.0
H633 H 0.41611 0.22962 0.81188 0.0
S634 S 0.37219 0.26999 0.21916 0.0
N635 N 0.37378 0.29239 0.11645 0.0
N636 N 0.38552 0.24193 0.16929 0.0
C637 C 0.39224 0.25001 0.06413 0.0
C638 C 0.38587 0.27755 0.03537 0.0
C639 C 0.9802 0.14361 0.61379 0.0
C640 C 0.96139 0.1338 0.69386 0.0
C641 C 0.00751 0.14844 0.64027 0.0
C642 C 0.01772 0.14431 0.74878 0.0
H643 H 0.97421 0.14637 0.52725 0.0
H644 H 0.02127 0.15359 0.57268 0.0
S645 S 0.97714 0.12238 -0.00538 0.0
N646 N 0.95503 0.12248 0.89056 0.0
N647 N 0.00631 0.13236 0.94036 0.0
C648 C 0.99894 0.13664 0.83226 0.0
C649 C 0.97091 0.13124 0.80497 0.0
C650 C 0.1177 0.73481 0.35037 0.0
C651 C 0.12651 0.71842 0.43976 0.0
C652 C 0.10894 0.76137 0.36817 0.0
C653 C 0.10819 0.7727 0.47616 0.0
H654 H 0.1186 0.72758 0.26492 0.0
H655 H 0.10512 0.774 0.29558 0.0
S656 S 0.12405 0.73717 0.74138 0.0
N657 N 0.13025 0.71461 0.64303 0.0
N658 N 0.11336 0.76444 0.67514 0.0
C659 C 0.11418 0.75578 0.56728 0.0
C660 C 0.12362 0.72878 0.54942 0.0
C661 C 0.51791 0.86404 0.10399 0.0
C662 C 0.53735 0.87219 0.18348 0.0
C663 C 0.49119 0.8585 0.13567 0.0
C664 C 0.48302 0.86045 0.24799 0.0
H665 H 0.52302 0.86305 0.01586 0.0
H666 H 0.47631 0.85484 0.07057 0.0
S667 S 0.52622 0.87781 0.49082 0.0
N668 N 0.5468 0.87948 0.38206 0.0
N669 N 0.49641 0.86887 0.43992 0.0
C670 C 0.50249 0.86656 0.32934 0.0
C671 C 0.52966 0.87264 0.29744 0.0
C672 C 0.1463 0.3274 0.19745 0.0
C673 C 0.15246 0.34695 0.27919 0.0
C674 C 0.14606 0.33416 0.0838 0.0
C675 C 0.1519 0.36066 0.04879 0.0
H676 H 0.1415 0.30676 0.22146 0.0
H677 H 0.14048 0.31879 0.02327 0.0
S678 S 0.174 0.4179 0.22618 0.0
N679 N 0.16779 0.39306 0.31547 0.0
N680 N 0.16663 0.40578 0.10098 0.0
C681 C 0.15891 0.38017 0.12858 0.0
C682 C 0.15936 0.37331 0.24426 0.0
C683 C 0.38973 0.42109 0.35401 0.0
C684 C 0.39468 0.39462 0.39185 0.0
C685 C 0.39482 0.42872 0.2427 0.0
C686 C 0.40353 0.40983 0.1633 0.0
H687 H 0.38136 0.43597 0.41015 0.0
H688 H 0.39147 0.44945 0.21816 0.0
S689 S 0.41936 0.33769 0.21928 0.0
N690 N 0.40948 0.34953 0.34172 0.0
N691 N 0.41725 0.36329 0.13073 0.0
C692 C 0.40817 0.3831 0.19963 0.0
C693 C 0.4039 0.37558 0.31394 0.0
C694 C 0.33804 0.67434 0.48806 0.0
C695 C 0.33872 0.65193 0.41587 0.0
C696 C 0.34645 0.67212 0.60053 0.0
C697 C 0.35602 0.64746 0.64352 0.0
H698 H 0.33128 0.69376 0.45707 0.0
H699 H 0.34567 0.68981 0.65377 0.0
S700 S 0.36135 0.58273 0.48846 0.0
N701 N 0.34941 0.60438 0.39569 0.0
N702 N 0.3653 0.60014 0.60524 0.0
C703 C 0.35688 0.625 0.57158 0.0
C704 C 0.34823 0.62726 0.45809 0.0
C705 C 0.08687 0.59313 0.80684 0.0
C706 C 0.11393 0.59084 0.77268 0.0
C707 C 0.07996 0.59247 0.92027 0.0
C708 C 0.09994 0.58985 0.00346 0.0
H709 H 0.07106 0.59679 0.74608 0.0
H710 H 0.05888 0.59481 0.94279 0.0
S711 S 0.17365 0.58121 0.95603 0.0
N712 N 0.16067 0.58442 0.82929 0.0
N713 N 0.14785 0.58332 0.0432 0.0
C714 C 0.12707 0.58688 0.97004 0.0
C715 C 0.13403 0.58739 0.85443 0.0
C716 C 0.83382 0.66652 0.02343 0.0
C717 C 0.8518 0.64643 0.05969 0.0
C718 C 0.83291 0.67435 0.91078 0.0
C719 C 0.84978 0.66217 0.83091 0.0
H720 H 0.82056 0.67645 0.08232 0.0
H721 H 0.81887 0.69001 0.88605 0.0
S722 S 0.90119 0.60936 0.88276 0.0
N723 N 0.88733 0.61488 0.00593 0.0
N724 N 0.88527 0.62968 0.7958 0.0
C725 C 0.86754 0.6419 0.86573 0.0
C726 C 0.86862 0.63396 0.97979 0.0
C727 C 0.5621 0.59768 0.67748 0.0
C728 C 0.58003 0.58873 0.5942 0.0
C729 C 0.5691 0.59618 0.79135 0.0
C730 C 0.5939 0.58503 0.82535 0.0
H731 H 0.54289 0.60652 0.65451 0.0
H732 H 0.55534 0.60439 0.85295 0.0
S733 S 0.64711 0.55711 0.64197 0.0
N734 N 0.62324 0.56719 0.55491 0.0
N735 N 0.63599 0.56434 0.7687 0.0
C736 C 0.61166 0.57547 0.74354 0.0
C737 C 0.60477 0.57721 0.62799 0.0
C738 C 0.667 0.36118 0.45958 0.0
C739 C 0.66411 0.34226 0.54683 0.0
C740 C 0.66343 0.35366 0.34742 0.0
C741 C 0.65677 0.32685 0.31739 0.0
H742 H 0.67142 0.38219 0.47837 0.0
H743 H 0.66599 0.36913 0.28379 0.0
S744 S 0.64583 0.26968 0.51488 0.0
N745 N 0.65316 0.29569 0.5963 0.0
N746 N 0.64734 0.2813 0.38518 0.0
C747 C 0.65412 0.3076 0.40386 0.0
C748 C 0.65754 0.31535 0.51849 0.0
C749 C 0.8629 0.42353 0.22673 0.0
C750 C 0.88254 0.42495 0.31212 0.0
C751 C 0.87006 0.41811 0.11562 0.0
C752 C 0.89717 0.41361 0.0856 0.0
H753 H 0.84163 0.42546 0.247 0.0
H754 H 0.85416 0.41728 0.05317 0.0
S755 S 0.9564 0.4159 0.27852 0.0
N756 N 0.93021 0.4225 0.35921 0.0
N757 N 0.94391 0.41158 0.15152 0.0
C758 C 0.91711 0.41564 0.17028 0.0
C759 C 0.90978 0.42171 0.28293 0.0
C760 C 0.65653 0.86231 0.68251 0.0
C761 C 0.65957 0.83511 0.71396 0.0
C762 C 0.65933 0.87041 0.571 0.0
C763 C 0.66527 0.85165 0.48598 0.0
H764 H 0.65192 0.87761 0.74431 0.0
H765 H 0.65609 0.89153 0.55102 0.0
S766 S 0.67674 0.77812 0.52376 0.0
N767 N 0.66997 0.78939 0.65063 0.0
N768 N 0.67532 0.80483 0.44114 0.0
C769 C 0.66929 0.82452 0.51632 0.0
C770 C 0.66624 0.81617 0.63002 0.0
C771 C 0.89393 0.91916 0.8671 0.0
C772 C 0.90008 0.89286 0.9041 0.0
C773 C 0.89862 0.92728 0.75593 0.0
C774 C 0.90835 0.90896 0.67599 0.0
H775 H 0.88482 0.93348 0.92375 0.0
H776 H 0.8939 0.94784 0.73219 0.0
S777 S 0.92614 0.83708 0.72859 0.0
N778 N 0.91609 0.84836 0.85172 0.0
N779 N 0.92342 0.86291 0.6415 0.0
C780 C 0.9139 0.8823 0.71139 0.0
C781 C 0.90988 0.87435 0.82531 0.0
C782 C 0.82886 0.14621 0.1289 0.0
C783 C 0.85565 0.15039 0.16455 0.0
C784 C 0.82178 0.14899 0.0162 0.0
C785 C 0.84138 0.15562 0.93528 0.0
H786 H 0.81342 0.13983 0.18768 0.0
H787 H 0.80095 0.14523 0.99199 0.0
S788 S 0.914 0.17038 0.98748 0.0
N789 N 0.9016 0.16266 0.11206 0.0
N790 N 0.88842 0.16766 0.89903 0.0
C791 C 0.86822 0.16013 0.97005 0.0
C792 C 0.87535 0.15749 0.08507 0.0
C793 C 0.57551 0.08596 0.35599 0.0
C794 C 0.59543 0.08593 0.44057 0.0
C795 C 0.58218 0.08144 0.244 0.0
C796 C 0.60907 0.07699 0.21228 0.0
H797 H 0.55459 0.09016 0.37567 0.0
H798 H 0.56645 0.08341 0.18135 0.0
S799 S 0.66859 0.0722 0.4005 0.0
N800 N 0.64304 0.07883 0.48478 0.0
N801 N 0.65552 0.07073 0.27332 0.0
C802 C 0.62904 0.07562 0.29592 0.0
C803 C 0.62228 0.08016 0.41018 0.0
C804 C 0.34185 0.13472 0.47065 0.0
C805 C 0.34722 0.15408 0.55386 0.0
C806 C 0.3424 0.14179 0.35714 0.0
C807 C 0.34838 0.16846 0.32333 0.0
H808 H 0.33753 0.1139 0.49345 0.0
H809 H 0.33804 0.12627 0.29566 0.0
S810 S 0.36672 0.22589 0.50897 0.0
N811 N 0.36103 0.2003 0.59491 0.0
N812 N 0.36096 0.21396 0.38214 0.0
C813 C 0.3539 0.18796 0.40599 0.0
C814 C 0.3536 0.18067 0.52124 0.0
C815 C 0.0592 0.09613 0.17959 0.0
C816 C 0.07821 0.09005 0.09586 0.0
C817 C 0.06638 0.09535 0.29338 0.0
C818 C 0.09252 0.0878 0.32713 0.0
H819 H 0.03895 0.10239 0.15711 0.0
H820 H 0.05177 0.10189 0.35502 0.0
S821 S 0.14912 0.06782 0.14287 0.0
N822 N 0.12406 0.07472 0.05616 0.0
N823 N 0.13706 0.07312 0.26977 0.0
C824 C 0.1114 0.08085 0.24497 0.0
C825 C 0.10433 0.0819 0.12942 0.0
C826 C 0.16044 0.81968 0.03826 0.0
C827 C 0.17026 0.84544 0.0689 0.0
C828 C 0.15748 0.8123 0.92509 0.0
C829 C 0.16353 0.83075 0.83855 0.0
H830 H 0.15373 0.80556 0.10213 0.0
H831 H 0.14953 0.79238 0.90547 0.0
S832 S 0.19148 0.90033 0.87548 0.0
N833 N 0.18725 0.88888 0.00433 0.0
N834 N 0.1815 0.87555 0.79242 0.0
C835 C 0.17402 0.85641 0.86863 0.0
C836 C 0.17733 0.86366 0.98347 0.0
C837 C 0.43913 0.9088 0.71757 0.0
C838 C 0.41986 0.91237 0.63187 0.0
C839 C 0.43263 0.91343 0.82962 0.0
C840 C 0.40659 0.92173 0.86025 0.0
H841 H 0.45937 0.90198 0.69825 0.0
H842 H 0.44768 0.90898 0.89293 0.0
S843 S 0.34988 0.93764 0.66841 0.0
N844 N 0.37439 0.92741 0.58503 0.0
N845 N 0.36212 0.93568 0.79691 0.0
C846 C 0.38745 0.92652 0.77562 0.0
C847 C 0.39405 0.92185 0.66117 0.0
C848 C 0.23085 0.28976 0.18788 0.0
C849 C 0.23761 0.28547 0.30117 0.0
C850 C 0.24332 0.27474 0.10273 0.0
C851 C 0.26338 0.25584 0.1294 0.0
H852 H 0.21572 0.30456 0.16532 0.0
H853 H 0.23783 0.27844 0.01635 0.0
S854 S 0.28764 0.23693 0.41289 0.0
N855 N 0.26482 0.26052 0.43507 0.0
N856 N 0.28858 0.23282 0.27593 0.0
C857 C 0.2698 0.25115 0.24243 0.0
C858 C 0.25689 0.26592 0.32828 0.0
C859 C 0.46088 0.49087 0.33198 0.0
C860 C 0.47038 0.51633 0.36553 0.0
C861 C 0.43858 0.4789 0.38443 0.0
C862 C 0.42529 0.49155 0.47488 0.0
H863 H 0.47131 0.4796 0.26759 0.0
H864 H 0.43363 0.45836 0.36088 0.0
S865 S 0.43837 0.56129 0.57649 0.0
N866 N 0.46182 0.55616 0.48066 0.0
N867 N 0.42005 0.53325 0.58013 0.0
C868 C 0.43261 0.51837 0.50013 0.0
C869 C 0.45528 0.53074 0.44606 0.0
C870 C 0.27256 0.69149 0.62631 0.0
C871 C 0.26038 0.67845 0.71885 0.0
C872 C 0.26034 0.7134 0.57322 0.0
C873 C 0.23487 0.72238 0.60745 0.0
H874 H 0.29291 0.68666 0.60203 0.0
H875 H 0.27143 0.72399 0.508 0.0
S876 S 0.1901 0.68889 0.81735 0.0
N877 N 0.21858 0.67173 0.82306 0.0
N878 N 0.19494 0.71244 0.72111 0.0
C879 C 0.22059 0.70685 0.68781 0.0
C880 C 0.23336 0.68476 0.74318 0.0
C881 C 0.00932 0.4813 0.20485 0.0
C882 C 0.00172 0.50166 0.27922 0.0
C883 C 0.99037 0.47019 0.13094 0.0
C884 C 0.96331 0.47911 0.12976 0.0
H885 H 0.03039 0.47575 0.19655 0.0
H886 H 0.9974 0.45584 0.06917 0.0
S887 S 0.9328 0.52841 0.32462 0.0
N888 N 0.96516 0.52779 0.35932 0.0
N889 N 0.92917 0.50639 0.22166 0.0
C890 C 0.95492 0.49722 0.21272 0.0
C891 C 0.97433 0.50875 0.28709 0.0
C892 C 0.73761 0.73255 0.61166 0.0
C893 C 0.76534 0.73186 0.58632 0.0
C894 C 0.7279 0.74841 0.69988 0.0
C895 C 0.74543 0.76495 0.7632 0.0
H896 H 0.72335 0.72013 0.5653 0.0
H897 H 0.70647 0.74778 0.71851 0.0
S898 S 0.81967 0.77073 0.73227 0.0
N899 N 0.81019 0.749 0.63492 0.0
N900 N 0.79156 0.77975 0.79601 0.0
C901 C 0.77302 0.76492 0.73792 0.0
C902 C 0.78306 0.74812 0.65068 0.0
C903 C 0.76563 0.22594 0.13444 0.0
C904 C 0.74039 0.23704 0.1587 0.0
C905 C 0.77518 0.20391 0.19593 0.0
C906 C 0.75989 0.19253 0.28458 0.0
H907 H 0.77782 0.23397 0.06649 0.0
H908 H 0.79507 0.19633 0.17561 0.0
S909 S 0.692 0.21464 0.37895 0.0
N910 N 0.70008 0.23549 0.27604 0.0
N911 N 0.71767 0.19368 0.38978 0.0
C912 C 0.73424 0.20324 0.30751 0.0
C913 C 0.72468 0.22573 0.24559 0.0
C914 C 0.96542 0.98704 0.8448 0.0
C915 C 0.97262 0.01388 0.8677 0.0
C916 C 0.94373 0.97473 0.90006 0.0
C917 C 0.92879 0.98852 0.98305 0.0
H918 H 0.9772 0.97508 0.78691 0.0
H919 H 0.94048 0.95341 0.88454 0.0
S920 S 0.93537 0.06116 0.05375 0.0
N921 N 0.95992 0.05558 0.96326 0.0
N922 N 0.91945 0.03193 0.06873 0.0
C923 C 0.93384 0.01622 -0.00264 0.0
C924 C 0.95582 0.02896 0.94002 0.0
C925 C 0.49989 0.9728 0.5074 0.0
C926 C 0.49131 0.99302 0.43191 0.0
C927 C 0.51542 0.97918 0.60268 0.0
C928 C 0.5228 0.00607 0.62686 0.0
H929 H 0.49469 0.95182 0.49288 0.0
H930 H 0.52197 0.96288 0.65679 0.0
S931 S 0.50221 0.06665 0.46276 0.0
N932 N 0.48964 0.04095 0.39169 0.0
N933 N 0.51786 0.05314 0.57102 0.0
C934 C 0.51352 0.02643 0.55335 0.0
C935 C 0.49808 0.01988 0.45583 0.0
C936 C 0.1632 0.4983 0.53029 0.0
C937 C 0.15169 0.5086 0.43186 0.0
C938 C 0.15775 0.47162 0.56379 0.0
C939 C 0.14129 0.45437 0.49806 0.0
H940 H 0.17205 0.51204 0.591 0.0
H941 H 0.16438 0.46541 0.64639 0.0
S942 S 0.11648 0.46931 0.21163 0.0
N943 N 0.13177 0.49747 0.25204 0.0
N944 N 0.12004 0.44769 0.31622 0.0
C945 C 0.13475 0.46291 0.38916 0.0
C946 C 0.14128 0.48983 0.35414 0.0
C947 C 0.27431 0.38797 0.65074 0.0
C948 C 0.27729 0.3764 0.75777 0.0
C949 C 0.2496 0.39799 0.61413 0.0
C950 C 0.22625 0.39598 0.68076 0.0
H951 H 0.29123 0.38905 0.59317 0.0
H952 H 0.24833 0.40549 0.52885 0.0
S953 S 0.22441 0.37322 0.97753 0.0
N954 N 0.25615 0.3687 0.93902 0.0
N955 N 0.20867 0.38567 0.86681 0.0
C956 C 0.22931 0.38684 0.79212 0.0
C957 C 0.25507 0.3774 0.83118 0.0
C958 C 0.37045 0.51829 0.87611 0.0
C959 C 0.37199 0.52561 0.99022 0.0
C960 C 0.36076 0.49291 0.84213 0.0
C961 C 0.35351 0.47275 0.92012 0.0
H962 H 0.3769 0.53224 0.81111 0.0
H963 H 0.36076 0.48833 0.75348 0.0
S964 S 0.34598 0.48378 0.22637 0.0
N965 N 0.3593 0.51241 0.17976 0.0
N966 N 0.34283 0.46388 0.11588 0.0
C967 C 0.35235 0.48046 0.03382 0.0
C968 C 0.36147 0.50689 0.06875 0.0
C969 C 0.22779 0.6175 0.12916 0.0
C970 C 0.22143 0.61486 0.24395 0.0
C971 C 0.25421 0.61265 0.08815 0.0
C972 C 0.27574 0.60506 0.15957 0.0
H973 H 0.21248 0.62424 0.07071 0.0
H974 H 0.25804 0.61579 -0.00018 0.0
S975 S 0.26979 0.59314 0.46606 0.0
N976 N 0.23909 0.6021 0.42733 0.0
N977 N 0.28808 0.59353 0.35058 0.0
C978 C 0.26934 0.60105 0.27345 0.0
C979 C 0.24253 0.60594 0.31538 0.0
C980 C 0.86088 0.51854 0.77173 0.0
C981 C 0.8546 0.49499 0.70969 0.0
C982 C 0.86884 0.54278 0.71961 0.0
C983 C 0.8706 0.54494 0.60242 0.0
H984 H 0.86016 0.51823 0.86243 0.0
H985 H 0.87377 0.55991 0.77225 0.0
S986 S 0.85292 0.49053 0.39927 0.0
N987 N 0.84821 0.47637 0.52317 0.0
N988 N 0.86325 0.52173 0.42474 0.0
C989 C 0.86327 0.52191 0.53862 0.0
C990 C 0.85514 0.49712 0.59211 0.0
C991 C 0.72584 0.59502 0.27778 0.0
C992 C 0.70725 0.60916 0.34554 0.0
C993 C 0.754 0.59675 0.29546 0.0
C994 C 0.76508 0.61235 0.38281 0.0
H995 H 0.71874 0.58415 0.20459 0.0
H996 H 0.76729 0.58791 0.23359 0.0
S997 S 0.72567 0.65066 0.59329 0.0
N998 N 0.70228 0.63711 0.51131 0.0
N999 N 0.75505 0.64017 0.54454 0.0
C1000 C 0.74672 0.62436 0.45798 0.0
C1001 C 0.71791 0.62279 0.43956 0.0
C1002 C 0.63084 0.47546 0.25799 0.0
C1003 C 0.63389 0.49922 0.19358 0.0
C1004 C 0.63383 0.44977 0.20965 0.0
C1005 C 0.64057 0.44697 0.09569 0.0
H1006 H 0.62203 0.47661 0.34097 0.0
H1007 H 0.62829 0.43221 0.25922 0.0
S1008 S 0.66026 0.50324 0.90409 0.0
N1009 N 0.65064 0.51848 0.02021 0.0
N1010 N 0.65747 0.47048 0.92941 0.0
C1011 C 0.64856 0.47063 0.03712 0.0
C1012 C 0.64525 0.49674 0.08665 0.0
C1013 C 0.76006 0.39598 0.02208 0.0
C1014 C 0.73635 0.39682 0.95662 0.0
C1015 C 0.78538 0.39502 0.96942 0.0
C1016 C 0.78735 0.39784 0.85236 0.0
H1017 H 0.75882 0.38959 0.10886 0.0
H1018 H 0.80289 0.38963 0.01908 0.0
S1019 S 0.7318 0.41958 0.6629 0.0
N1020 N 0.71687 0.41351 0.7842 0.0
N1021 N 0.76433 0.41404 0.68371 0.0
C1022 C 0.76431 0.40715 0.79404 0.0
C1023 C 0.7387 0.40737 0.84844 0.0
C1024 C 0.63998 0.95519 0.82572 0.0
C1025 C 0.64898 0.94821 0.93365 0.0
C1026 C 0.64232 0.982 0.78695 0.0
C1027 C 0.6521 0.00267 0.85797 0.0
H1028 H 0.62866 0.94075 0.77578 0.0
H1029 H 0.63156 0.98732 0.71097 0.0
S1030 S 0.68893 0.99266 0.12388 0.0
N1031 N 0.67717 0.96229 0.09162 0.0
N1032 N 0.67926 0.01283 0.02114 0.0
C1033 C 0.66636 0.99479 0.95356 0.0
C1034 C 0.66475 0.96752 -0.00766 0.0
C1035 C 0.75985 0.86487 0.3032 0.0
C1036 C 0.78508 0.87252 0.25918 0.0
C1037 C 0.73583 0.87169 0.24658 0.0
C1038 C 0.73653 0.88694 0.14652 0.0
H1039 H 0.75869 0.85228 0.37693 0.0
H1040 H 0.71704 0.8631 0.27618 0.0
S1041 S 0.7971 0.91851 0.01768 0.0
N1042 N 0.80897 0.90099 0.12463 0.0
N1043 N 0.76399 0.91386 0.01971 0.0
C1044 C 0.76138 0.89767 0.11137 0.0
C1045 C 0.78564 0.89053 0.16764 0.0
C1046 C 0.86048 0.9772 0.54584 0.0
C1047 C 0.85673 0.97034 0.43205 0.0
C1048 C 0.86697 0.00398 0.57904 0.0
C1049 C 0.86981 0.02498 0.49956 0.0
H1050 H 0.85984 0.96149 0.60898 0.0
H1051 H 0.87062 0.00802 0.66692 0.0
S1052 S 0.85583 0.01845 0.19369 0.0
N1053 N 0.85224 0.98741 0.24281 0.0
N1054 N 0.86383 0.0373 0.30287 0.0
C1055 C 0.86387 0.01855 0.38647 0.0
C1056 C 0.85739 0.99146 0.35346 0.0
C1057 C 0.75254 0.11443 0.56895 0.0
C1058 C 0.77241 0.1056 0.6457 0.0
C1059 C 0.725 0.11644 0.59919 0.0
C1060 C 0.71612 0.10933 0.70741 0.0
H1061 H 0.75852 0.1207 0.48566 0.0
H1062 H 0.71088 0.12471 0.53898 0.0
S1063 S 0.75917 0.07991 0.93289 0.0
N1064 N 0.78051 0.08645 0.82999 0.0
N1065 N 0.72919 0.08902 0.8859 0.0
C1066 C 0.7355 0.09805 0.78133 0.0
C1067 C 0.76345 0.09635 0.75073 0.0
C1068 C 0.35317 0.02766 0.03011 0.0
C1069 C 0.36305 0.04898 0.09768 0.0
C1070 C 0.35269 0.00083 0.06903 0.0
C1071 C 0.36265 0.99425 0.17589 0.0
H1072 H 0.34809 0.03121 0.94305 0.0
H1073 H 0.34879 0.98487 0.00887 0.0
S1074 S 0.38168 0.04303 0.398 0.0
N1075 N 0.37591 0.06215 0.28697 0.0
N1076 N 0.37537 0.01161 0.3583 0.0
C1077 C 0.36745 0.01572 0.25059 0.0
C1078 C 0.36806 0.04313 0.21136 0.0
C1079 C 0.22348 0.10104 0.7718 0.0
C1080 C 0.20324 0.10944 0.84776 0.0
C1081 C 0.25122 0.10339 0.79739 0.0
C1082 C 0.26003 0.11412 0.90014 0.0
H1083 H 0.21805 0.09492 0.6876 0.0
H1084 H 0.2657 0.10028 0.73062 0.0
S1085 S 0.21585 0.13202 0.13948 0.0
N1086 N 0.19439 0.1235 0.03919 0.0
N1087 N 0.2464 0.12778 0.0866 0.0
C1088 C 0.24013 0.1184 0.98278 0.0
C1089 C 0.21179 0.11629 0.95666 0.0
C1090 C 0.14207 0.9563 0.72613 0.0
C1091 C 0.14838 0.9533 0.61182 0.0
C1092 C 0.13742 0.98198 0.77196 0.0
C1093 C 0.13839 0.0054 0.70457 0.0
H1094 H 0.13789 0.93872 0.77782 0.0
H1095 H 0.12882 0.98302 0.85534 0.0
S1096 S 0.16349 0.00952 0.41323 0.0
N1097 N 0.16308 0.97682 0.44205 0.0
N1098 N 0.15328 0.02475 0.52849 0.0
C1099 C 0.14969 0.00311 0.59748 0.0
C1100 C 0.15463 0.97703 0.55039 0.0
C1101 C 0.25522 0.90141 0.37788 0.0
C1102 C 0.25025 0.88799 0.47939 0.0
C1103 C 0.28181 0.90524 0.34006 0.0
C1104 C 0.30403 0.89594 0.40353 0.0
H1105 H 0.23879 0.90474 0.31935 0.0
H1106 H 0.28464 0.9127 0.25545 0.0
S1107 S 0.30082 0.87015 0.69534 0.0
N1108 N 0.26889 0.87369 0.65753 0.0
N1109 N 0.31902 0.88044 0.58711 0.0
C1110 C 0.29915 0.88781 0.51472 0.0
C1111 C 0.27205 0.88437 0.55326 0.0
C1112 C 0.25224 0.25883 0.70994 0.0
C1113 C 0.25112 0.28322 0.76904 0.0
C1114 C 0.27596 0.24419 0.70552 0.0
C1115 C 0.29931 0.25303 0.76234 0.0
H1116 H 0.23529 0.25202 0.65932 0.0
H1117 H 0.27596 0.22579 0.65639 0.0
S1118 S 0.30374 0.31185 0.95459 0.0
N1119 N 0.27305 0.31345 0.90036 0.0
N1120 N 0.31829 0.28575 0.89453 0.0
C1121 C 0.29784 0.27668 0.82796 0.0
C1122 C 0.27349 0.2917 0.8314 0.0
C1123 C 0.46683 0.54012 0.84728 0.0
C1124 C 0.47889 0.51832 0.79059 0.0
C1125 C 0.48277 0.56038 0.89561 0.0
C1126 C 0.51102 0.55818 0.89269 0.0
H1127 H 0.4453 0.54004 0.86452 0.0
H1128 H 0.47311 0.5744 0.95236 0.0
S1129 S 0.55071 0.51275 0.70927 0.0
N1130 N 0.51919 0.50182 0.69763 0.0
N1131 N 0.54948 0.5392 0.79318 0.0
C1132 C 0.52244 0.54073 0.81229 0.0
C1133 C 0.50621 0.52032 0.76179 0.0
C1134 C 0.21456 0.7773 0.06179 0.0
C1135 C 0.19552 0.76528 0.13552 0.0
C1136 C 0.23543 0.76177 0.01693 0.0
C1137 C 0.23601 0.73395 0.03842 0.0
H1138 H 0.21675 0.79912 0.0581 0.0
H1139 H 0.25247 0.77189 0.97755 0.0
S1140 S 0.18059 0.69216 0.15683 0.0
N1141 N 0.17138 0.72368 0.1804 0.0
N1142 N 0.20966 0.69406 0.08968 0.0
C1143 C 0.21273 0.72134 0.0821 0.0
C1144 C 0.19202 0.73724 0.12985 0.0
C1145 C 0.98067 0.56487 0.6054 0.0
C1146 C 0.00661 0.56353 0.65541 0.0
C1147 C 0.96083 0.54534 0.6292 0.0
C1148 C 0.96649 0.52432 0.70388 0.0
H1149 H 0.9767 0.57899 0.53809 0.0
H1150 H 0.94179 0.54569 0.58414 0.0
S1151 S 0.02607 0.51871 0.89101 0.0
N1152 N 0.033 0.54479 0.80904 0.0
N1153 N 0.99596 0.50766 0.8513 0.0
C1154 C 0.99025 0.52554 0.76806 0.0
C1155 C 0.01015 0.54563 0.74562 0.0
C1156 C 0.75243 0.74506 0.21602 0.0
C1157 C 0.74619 0.76887 0.27365 0.0
C1158 C 0.77844 0.73471 0.21906 0.0
C1159 C 0.79863 0.74659 0.28644 0.0
H1160 H 0.73834 0.73645 0.15593 0.0
H1161 H 0.78285 0.71765 0.16544 0.0
S1162 S 0.78982 0.80576 0.4739 0.0
N1163 N 0.76006 0.80153 0.41327 0.0
N1164 N 0.80936 0.78182 0.42298 0.0
C1165 C 0.79171 0.7689 0.35367 0.0
C1166 C 0.76515 0.77964 0.34852 0.0
C1167 C 0.74856 0.2214 0.64157 0.0
C1168 C 0.76179 0.23571 0.55519 0.0
C1169 C 0.72462 0.23098 0.68898 0.0
C1170 C 0.71401 0.25599 0.65583 0.0
H1171 H 0.75768 0.20389 0.67965 0.0
H1172 H 0.71697 0.2209 0.76342 0.0
S1173 S 0.73662 0.29763 0.41454 0.0
N1174 N 0.75866 0.27274 0.42084 0.0
N1175 N 0.71499 0.29194 0.51737 0.0
C1176 C 0.72481 0.26849 0.55985 0.0
C1177 C 0.74866 0.25825 0.50867 0.0
C1178 C 0.01275 0.01631 0.27162 0.0
C1179 C 0.98471 0.01653 0.28778 0.0
C1180 C 0.02866 0.03704 0.31748 0.0
C1181 C 0.0166 0.0566 0.3875 0.0
H1182 H 0.02258 0.99879 0.23623 0.0
H1183 H 0.0504 0.0343 0.31856 0.0
S1184 S 0.94452 0.07441 0.38766 0.0
N1185 N 0.94555 0.04449 0.32681 0.0
N1186 N 0.97607 0.08276 0.41759 0.0
C1187 C 0.98899 0.06107 0.37419 0.0
C1188 C 0.97267 0.04043 0.32613 0.0
C1189 C 0.52098 0.98379 0.1181 0.0
C1190 C 0.50193 0.96967 0.05256 0.0
C1191 C 0.52642 0.01114 0.09892 0.0
C1192 C 0.51357 0.02547 0.0119 0.0
H1193 H 0.53107 0.97404 0.18772 0.0
H1194 H 0.54129 0.02108 0.15181 0.0
S1195 S 0.46285 0.99737 0.8127 0.0
N1196 N 0.47085 0.97168 0.89437 0.0
N1197 N 0.48094 0.02325 0.85874 0.0
C1198 C 0.49451 0.01159 0.9452 0.0
C1199 C 0.48908 0.98362 0.9644 0.0
loop_
_geom_bond_atom_site_label_1
_geom_bond_atom_site_label_2
_geom_bond_distance
_geom_bond_site_symmetry_2
_ccdc_geom_bond_type
C0 O27 1.312 . S
C0 O28 1.208 . S
C1 O22 1.331 . S
C1 O25 1.244 . S
C2 O24 1.264 . S
C2 O26 1.273 . S
Mg3 O5 1.936 . S
Mg3 O12 2.081 . S
Mg3 O14 2.023 . S
Mg3 O18 2.031 . S
Mg3 O27 2.291 . S
Mg4 O5 1.963 . S
Mg4 O15 1.942 . S
Mg4 O16 1.955 . S
Mg4 O23 1.986 . S
O5 Mg3 1.936 . S
O5 Mg4 1.963 . S
O5 Mg6 1.915 . S
Mg6 O5 1.915 . S
Mg6 O7 1.915 . S
Mg6 O11 2.013 . S
Mg6 O17 2.114 . S
Mg6 O21 2.013 . S
Mg6 O27 2.114 . S
O7 Mg6 1.915 . S
O7 Mg8 1.936 . S
O7 Mg9 1.963 . S
Mg8 O7 1.936 . S
Mg8 O17 2.291 . S
Mg8 O22 2.081 . S
Mg8 O24 2.023 . S
Mg8 O28 2.031 . S
Mg9 O7 1.963 . S
Mg9 O13 1.986 . S
Mg9 O25 1.942 . S
Mg9 O26 1.955 . S
C10 O21 1.191 . S
C10 O23 1.307 . S
O11 Mg6 2.013 . S
O11 C30 1.191 . S
O12 Mg3 2.081 . S
O12 C20 1.331 . S
O13 Mg9 1.986 . S
O13 C30 1.307 . S
O14 Mg3 2.023 . S
O14 C29 1.264 . S
O15 Mg4 1.942 . S
O15 C20 1.244 . S
O16 Mg4 1.955 . S
O16 C29 1.273 . S
O17 Mg6 2.114 . S
O17 Mg8 2.291 . S
O17 C19 1.312 . S
O18 Mg3 2.031 . S
O18 C19 1.208 . S
C19 O17 1.312 . S
C19 O18 1.208 . S
C20 O12 1.331 . S
C20 O15 1.244 . S
O21 Mg6 2.013 . S
O21 C10 1.191 . S
O22 C1 1.331 . S
O22 Mg8 2.081 . S
O23 Mg4 1.986 . S
O23 C10 1.307 . S
O24 C2 1.264 . S
O24 Mg8 2.023 . S
O25 C1 1.244 . S
O25 Mg9 1.942 . S
O26 C2 1.273 . S
O26 Mg9 1.955 . S
O27 C0 1.312 . S
O27 Mg3 2.291 . S
O27 Mg6 2.114 . S
O28 C0 1.208 . S
O28 Mg8 2.031 . S
C29 O14 1.264 . S
C29 O16 1.273 . S
C30 O11 1.191 . S
C30 O13 1.307 . S
C31 O58 1.312 . S
C31 O59 1.208 . S
C32 O53 1.331 . S
C32 O56 1.244 . S
C33 O55 1.264 . S
C33 O57 1.273 . S
Mg34 O36 1.936 . S
Mg34 O43 2.081 . S
Mg34 O45 2.023 . S
Mg34 O49 2.031 1_556 S
Mg34 O58 2.291 . S
Mg35 O36 1.963 . S
Mg35 O46 1.942 . S
Mg35 O47 1.955 . S
Mg35 O54 1.986 . S
O36 Mg34 1.936 . S
O36 Mg35 1.963 . S
O36 Mg37 1.915 . S
Mg37 O36 1.915 . S
Mg37 O38 1.915 . S
Mg37 O42 2.013 . S
Mg37 O48 2.114 . S
Mg37 O52 2.013 . S
Mg37 O58 2.114 . S
O38 Mg37 1.915 . S
O38 Mg39 1.936 . S
O38 Mg40 1.963 . S
Mg39 O38 1.936 . S
Mg39 O48 2.291 . S
Mg39 O53 2.081 . S
Mg39 O55 2.023 . S
Mg39 O59 2.031 . S
Mg40 O38 1.963 . S
Mg40 O44 1.986 . S
Mg40 O56 1.942 . S
Mg40 O57 1.955 . S
C41 O52 1.191 . S
C41 O54 1.307 . S
O42 Mg37 2.013 . S
O42 C61 1.191 . S
O43 Mg34 2.081 . S
O43 C51 1.331 . S
O44 Mg40 1.986 . S
O44 C61 1.307 . S
O45 Mg34 2.023 . S
O45 C60 1.264 . S
O46 Mg35 1.942 . S
O46 C51 1.244 . S
O47 Mg35 1.955 . S
O47 C60 1.273 . S
O48 Mg37 2.114 . S
O48 Mg39 2.291 . S
O48 C50 1.312 1_556 S
O49 Mg34 2.031 1_554 S
O49 C50 1.208 . S
C50 O48 1.312 1_554 S
C50 O49 1.208 . S
C51 O43 1.331 . S
C51 O46 1.244 . S
O52 Mg37 2.013 . S
O52 C41 1.191 . S
O53 C32 1.331 . S
O53 Mg39 2.081 . S
O54 Mg35 1.986 . S
O54 C41 1.307 . S
O55 C33 1.264 . S
O55 Mg39 2.023 . S
O56 C32 1.244 . S
O56 Mg40 1.942 . S
O57 C33 1.273 . S
O57 Mg40 1.955 . S
O58 C31 1.312 . S
O58 Mg34 2.291 . S
O58 Mg37 2.114 . S
O59 C31 1.208 . S
O59 Mg39 2.031 . S
C60 O45 1.264 . S
C60 O47 1.273 . S
C61 O42 1.191 . S
C61 O44 1.307 . S
C62 O89 1.312 . S
C62 O90 1.208 . S
C63 O84 1.331 1_556 S
C63 O87 1.244 . S
C64 O86 1.264 . S
C64 O88 1.273 . S
Mg65 O67 1.936 . S
Mg65 O74 2.081 . S
Mg65 O76 2.023 1_554 S
Mg65 O80 2.031 . S
Mg65 O89 2.291 . S
Mg66 O67 1.963 1_556 S
Mg66 O77 1.942 1_556 S
Mg66 O78 1.955 . S
Mg66 O85 1.986 . S
O67 Mg65 1.936 . S
O67 Mg66 1.963 1_554 S
O67 Mg68 1.915 . S
Mg68 O67 1.915 . S
Mg68 O69 1.915 1_554 S
Mg68 O73 2.013 1_554 S
Mg68 O79 2.114 . S
Mg68 O83 2.013 . S
Mg68 O89 2.114 . S
O69 Mg68 1.915 1_556 S
O69 Mg70 1.936 1_556 S
O69 Mg71 1.963 . S
Mg70 O69 1.936 1_554 S
Mg70 O79 2.291 . S
Mg70 O84 2.081 . S
Mg70 O86 2.023 . S
Mg70 O90 2.031 . S
Mg71 O69 1.963 . S
Mg71 O75 1.986 . S
Mg71 O87 1.942 . S
Mg71 O88 1.955 1_556 S
C72 O83 1.191 . S
C72 O85 1.307 1_554 S
O73 Mg68 2.013 1_556 S
O73 C92 1.191 . S
O74 Mg65 2.081 . S
O74 C82 1.331 . S
O75 Mg71 1.986 . S
O75 C92 1.307 . S
O76 Mg65 2.023 1_556 S
O76 C91 1.264 . S
O77 Mg66 1.942 1_554 S
O77 C82 1.244 . S
O78 Mg66 1.955 . S
O78 C91 1.273 . S
O79 Mg68 2.114 . S
O79 Mg70 2.291 . S
O79 C81 1.312 . S
O80 Mg65 2.031 . S
O80 C81 1.208 . S
C81 O79 1.312 . S
C81 O80 1.208 . S
C82 O74 1.331 . S
C82 O77 1.244 . S
O83 Mg68 2.013 . S
O83 C72 1.191 . S
O84 C63 1.331 1_554 S
O84 Mg70 2.081 . S
O85 Mg66 1.986 . S
O85 C72 1.307 1_556 S
O86 C64 1.264 . S
O86 Mg70 2.023 . S
O87 C63 1.244 . S
O87 Mg71 1.942 . S
O88 C64 1.273 . S
O88 Mg71 1.955 1_554 S
O89 C62 1.312 . S
O89 Mg65 2.291 . S
O89 Mg68 2.114 . S
O90 C62 1.208 . S
O90 Mg70 2.031 . S
C91 O76 1.264 . S
C91 O78 1.273 . S
C92 O73 1.191 . S
C92 O75 1.307 . S
C93 O120 1.312 . S
C93 O121 1.208 . S
C94 O115 1.331 . S
C94 O118 1.244 . S
C95 O117 1.264 . S
C95 O119 1.273 . S
Mg96 O98 1.936 . S
Mg96 O105 2.081 . S
Mg96 O107 2.023 . S
Mg96 O111 2.031 . S
Mg96 O120 2.291 . S
Mg97 O98 1.963 . S
Mg97 O108 1.942 . S
Mg97 O109 1.955 . S
Mg97 O116 1.986 . S
O98 Mg96 1.936 . S
O98 Mg97 1.963 . S
O98 Mg99 1.915 . S
Mg99 O98 1.915 . S
Mg99 O100 1.915 . S
Mg99 O104 2.013 . S
Mg99 O110 2.114 . S
Mg99 O114 2.013 . S
Mg99 O120 2.114 . S
O100 Mg99 1.915 . S
O100 Mg101 1.936 . S
O100 Mg102 1.963 . S
Mg101 O100 1.936 . S
Mg101 O110 2.291 . S
Mg101 O115 2.081 . S
Mg101 O117 2.023 . S
Mg101 O121 2.031 . S
Mg102 O100 1.963 . S
Mg102 O106 1.986 . S
Mg102 O118 1.942 . S
Mg102 O119 1.955 . S
C103 O114 1.191 . S
C103 O116 1.307 . S
O104 Mg99 2.013 . S
O104 C123 1.191 . S
O105 Mg96 2.081 . S
O105 C113 1.331 . S
O106 Mg102 1.986 . S
O106 C123 1.307 . S
O107 Mg96 2.023 . S
O107 C122 1.264 . S
O108 Mg97 1.942 . S
O108 C113 1.244 . S
O109 Mg97 1.955 . S
O109 C122 1.273 . S
O110 Mg99 2.114 . S
O110 Mg101 2.291 . S
O110 C112 1.312 . S
O111 Mg96 2.031 . S
O111 C112 1.208 . S
C112 O110 1.312 . S
C112 O111 1.208 . S
C113 O105 1.331 . S
C113 O108 1.244 . S
O114 Mg99 2.013 . S
O114 C103 1.191 . S
O115 C94 1.331 . S
O115 Mg101 2.081 . S
O116 Mg97 1.986 . S
O116 C103 1.307 . S
O117 C95 1.264 . S
O117 Mg101 2.023 . S
O118 C94 1.244 . S
O118 Mg102 1.942 . S
O119 C95 1.273 . S
O119 Mg102 1.955 . S
O120 C93 1.312 . S
O120 Mg96 2.291 . S
O120 Mg99 2.114 . S
O121 C93 1.208 . S
O121 Mg101 2.031 . S
C122 O107 1.264 . S
C122 O109 1.273 . S
C123 O104 1.191 . S
C123 O106 1.307 . S
C124 O151 1.312 . S
C124 O152 1.208 . S
C125 O146 1.331 . S
C125 O149 1.244 . S
C126 O148 1.264 . S
C126 O150 1.273 . S
Mg127 O129 1.936 . S
Mg127 O136 2.081 . S
Mg127 O138 2.023 . S
Mg127 O142 2.031 . S
Mg127 O151 2.291 . S
Mg128 O129 1.963 . S
Mg128 O139 1.942 . S
Mg128 O140 1.955 . S
Mg128 O147 1.986 . S
O129 Mg127 1.936 . S
O129 Mg128 1.963 . S
O129 Mg130 1.915 . S
Mg130 O129 1.915 . S
Mg130 O131 1.915 . S
Mg130 O135 2.013 . S
Mg130 O141 2.114 . S
Mg130 O145 2.013 . S
Mg130 O151 2.114 . S
O131 Mg130 1.915 . S
O131 Mg132 1.936 . S
O131 Mg133 1.963 . S
Mg132 O131 1.936 . S
Mg132 O141 2.291 . S
Mg132 O146 2.081 . S
Mg132 O148 2.023 . S
Mg132 O152 2.031 . S
Mg133 O131 1.963 . S
Mg133 O137 1.986 . S
Mg133 O149 1.942 . S
Mg133 O150 1.955 . S
C134 O145 1.191 . S
C134 O147 1.307 . S
O135 Mg130 2.013 . S
O135 C154 1.191 . S
O136 Mg127 2.081 . S
O136 C144 1.331 . S
O137 Mg133 1.986 . S
O137 C154 1.307 . S
O138 Mg127 2.023 . S
O138 C153 1.264 . S
O139 Mg128 1.942 . S
O139 C144 1.244 . S
O140 Mg128 1.955 . S
O140 C153 1.273 . S
O141 Mg130 2.114 . S
O141 Mg132 2.291 . S
O141 C143 1.312 . S
O142 Mg127 2.031 . S
O142 C143 1.208 . S
C143 O141 1.312 . S
C143 O142 1.208 . S
C144 O136 1.331 . S
C144 O139 1.244 . S
O145 Mg130 2.013 . S
O145 C134 1.191 . S
O146 C125 1.331 . S
O146 Mg132 2.081 . S
O147 Mg128 1.986 . S
O147 C134 1.307 . S
O148 C126 1.264 . S
O148 Mg132 2.023 . S
O149 C125 1.244 . S
O149 Mg133 1.942 . S
O150 C126 1.273 . S
O150 Mg133 1.955 . S
O151 C124 1.312 . S
O151 Mg127 2.291 . S
O151 Mg130 2.114 . S
O152 C124 1.208 . S
O152 Mg132 2.031 . S
C153 O138 1.264 . S
C153 O140 1.273 . S
C154 O135 1.191 . S
C154 O137 1.307 . S
C155 O182 1.312 . S
C155 O183 1.208 . S
C156 O177 1.331 . S
C156 O180 1.244 . S
C157 O179 1.264 . S
C157 O181 1.273 . S
Mg158 O160 1.936 . S
Mg158 O167 2.081 . S
Mg158 O169 2.023 . S
Mg158 O173 2.031 . S
Mg158 O182 2.291 . S
Mg159 O160 1.963 . S
Mg159 O170 1.942 . S
Mg159 O171 1.955 . S
Mg159 O178 1.986 . S
O160 Mg158 1.936 . S
O160 Mg159 1.963 . S
O160 Mg161 1.915 . S
Mg161 O160 1.915 . S
Mg161 O162 1.915 . S
Mg161 O166 2.013 . S
Mg161 O172 2.114 . S
Mg161 O176 2.013 . S
Mg161 O182 2.114 . S
O162 Mg161 1.915 . S
O162 Mg163 1.936 . S
O162 Mg164 1.963 . S
Mg163 O162 1.936 . S
Mg163 O172 2.291 . S
Mg163 O177 2.081 . S
Mg163 O179 2.023 . S
Mg163 O183 2.031 . S
Mg164 O162 1.963 . S
Mg164 O168 1.986 . S
Mg164 O180 1.942 . S
Mg164 O181 1.955 . S
C165 O176 1.191 . S
C165 O178 1.307 . S
O166 Mg161 2.013 . S
O166 C185 1.191 . S
O167 Mg158 2.081 . S
O167 C175 1.331 . S
O168 Mg164 1.986 . S
O168 C185 1.307 . S
O169 Mg158 2.023 . S
O169 C184 1.264 . S
O170 Mg159 1.942 . S
O170 C175 1.244 . S
O171 Mg159 1.955 . S
O171 C184 1.273 . S
O172 Mg161 2.114 . S
O172 Mg163 2.291 . S
O172 C174 1.312 . S
O173 Mg158 2.031 . S
O173 C174 1.208 . S
C174 O172 1.312 . S
C174 O173 1.208 . S
C175 O167 1.331 . S
C175 O170 1.244 . S
O176 Mg161 2.013 . S
O176 C165 1.191 . S
O177 C156 1.331 . S
O177 Mg163 2.081 . S
O178 Mg159 1.986 . S
O178 C165 1.307 . S
O179 C157 1.264 . S
O179 Mg163 2.023 . S
O180 C156 1.244 . S
O180 Mg164 1.942 . S
O181 C157 1.273 . S
O181 Mg164 1.955 . S
O182 C155 1.312 . S
O182 Mg158 2.291 . S
O182 Mg161 2.114 . S
O183 C155 1.208 . S
O183 Mg163 2.031 . S
C184 O169 1.264 . S
C184 O171 1.273 . S
C185 O166 1.191 . S
C185 O168 1.307 . S
C186 O213 1.312 . S
C186 O214 1.208 . S
C187 O208 1.339 . S
C187 O211 1.244 . S
C188 O210 1.264 . S
C188 O212 1.273 . S
Mg189 O191 1.936 . S
Mg189 O198 2.081 . S
Mg189 O200 2.023 1_554 S
Mg189 O204 2.031 . S
Mg189 O213 2.291 . S
Mg190 O191 1.963 1_556 S
Mg190 O201 1.942 1_556 S
Mg190 O202 1.955 . S
Mg190 O209 1.986 . S
O191 Mg189 1.936 . S
O191 Mg190 1.963 1_554 S
O191 Mg192 1.915 . S
Mg192 O191 1.915 . S
Mg192 O193 1.915 1_554 S
Mg192 O197 2.013 1_554 S
Mg192 O203 2.114 . S
Mg192 O207 2.013 . S
Mg192 O213 2.114 . S
O193 Mg192 1.915 1_556 S
O193 Mg194 1.936 1_556 S
O193 Mg195 1.963 . S
Mg194 O193 1.936 1_554 S
Mg194 O203 2.291 . S
Mg194 O208 2.075 1_554 S
Mg194 O210 2.023 . S
Mg194 O214 2.031 . S
Mg195 O193 1.963 . S
Mg195 O199 1.986 . S
Mg195 O211 1.942 . S
Mg195 O212 1.955 1_556 S
C196 O207 1.191 . S
C196 O209 1.307 1_554 S
O197 Mg192 2.013 1_556 S
O197 C216 1.191 . S
O198 Mg189 2.081 . S
O198 C206 1.331 . S
O199 Mg195 1.986 . S
O199 C216 1.307 . S
O200 Mg189 2.023 1_556 S
O200 C215 1.264 . S
O201 Mg190 1.942 1_554 S
O201 C206 1.244 . S
O202 Mg190 1.955 . S
O202 C215 1.273 . S
O203 Mg192 2.114 . S
O203 Mg194 2.291 . S
O203 C205 1.312 . S
O204 Mg189 2.031 . S
O204 C205 1.208 . S
C205 O203 1.312 . S
C205 O204 1.208 . S
C206 O198 1.331 . S
C206 O201 1.244 . S
O207 Mg192 2.013 . S
O207 C196 1.191 . S
O208 C187 1.339 . S
O208 Mg194 2.075 1_556 S
O209 Mg190 1.986 . S
O209 C196 1.307 1_556 S
O210 C188 1.264 . S
O210 Mg194 2.023 . S
O211 C187 1.244 . S
O211 Mg195 1.942 . S
O212 C188 1.273 . S
O212 Mg195 1.955 1_554 S
O213 C186 1.312 . S
O213 Mg189 2.291 . S
O213 Mg192 2.114 . S
O214 C186 1.208 . S
O214 Mg194 2.031 . S
C215 O200 1.264 . S
C215 O202 1.273 . S
C216 O197 1.191 . S
C216 O199 1.307 . S
C217 O244 1.312 . S
C217 O245 1.208 . S
C218 O239 1.331 . S
C218 O242 1.244 . S
C219 O241 1.264 . S
C219 O243 1.273 . S
Mg220 O222 1.936 . S
Mg220 O229 2.081 . S
Mg220 O231 2.023 . S
Mg220 O235 2.031 . S
Mg220 O244 2.291 . S
Mg221 O222 1.963 . S
Mg221 O232 1.942 . S
Mg221 O233 1.955 . S
Mg221 O240 1.986 . S
O222 Mg220 1.936 . S
O222 Mg221 1.963 . S
O222 Mg223 1.915 . S
Mg223 O222 1.915 . S
Mg223 O224 1.915 . S
Mg223 O228 2.013 . S
Mg223 O234 2.114 . S
Mg223 O238 2.013 . S
Mg223 O244 2.114 . S
O224 Mg223 1.915 . S
O224 Mg225 1.936 . S
O224 Mg226 1.963 . S
Mg225 O224 1.936 . S
Mg225 O234 2.291 . S
Mg225 O239 2.081 . S
Mg225 O241 2.023 . S
Mg225 O245 2.031 . S
Mg226 O224 1.963 . S
Mg226 O230 1.986 . S
Mg226 O242 1.942 . S
Mg226 O243 1.955 . S
C227 O238 1.191 . S
C227 O240 1.307 . S
O228 Mg223 2.013 . S
O228 C247 1.191 . S
O229 Mg220 2.081 . S
O229 C237 1.331 . S
O230 Mg226 1.986 . S
O230 C247 1.307 . S
O231 Mg220 2.023 . S
O231 C246 1.264 . S
O232 Mg221 1.942 . S
O232 C237 1.244 . S
O233 Mg221 1.955 . S
O233 C246 1.273 . S
O234 Mg223 2.114 . S
O234 Mg225 2.291 . S
O234 C236 1.312 . S
O235 Mg220 2.031 . S
O235 C236 1.208 . S
C236 O234 1.312 . S
C236 O235 1.208 . S
C237 O229 1.331 . S
C237 O232 1.244 . S
O238 Mg223 2.013 . S
O238 C227 1.191 . S
O239 C218 1.331 . S
O239 Mg225 2.081 . S
O240 Mg221 1.986 . S
O240 C227 1.307 . S
O241 C219 1.264 . S
O241 Mg225 2.023 . S
O242 C218 1.244 . S
O242 Mg226 1.942 . S
O243 C219 1.273 . S
O243 Mg226 1.955 . S
O244 C217 1.312 . S
O244 Mg220 2.291 . S
O244 Mg223 2.114 . S
O245 C217 1.208 . S
O245 Mg225 2.031 . S
C246 O231 1.264 . S
C246 O233 1.273 . S
C247 O228 1.191 . S
C247 O230 1.307 . S
C248 O275 1.312 . S
C248 O276 1.208 . S
C249 O270 1.331 . S
C249 O273 1.244 . S
C250 O272 1.264 . S
C250 O274 1.273 . S
Mg251 O253 1.936 1_556 S
Mg251 O260 2.081 1_556 S
Mg251 O262 2.023 . S
Mg251 O266 2.031 . S
Mg251 O275 2.291 . S
Mg252 O253 1.963 . S
Mg252 O263 1.942 . S
Mg252 O264 1.955 . S
Mg252 O271 1.986 . S
O253 Mg251 1.936 1_554 S
O253 Mg252 1.963 . S
O253 Mg254 1.915 . S
Mg254 O253 1.915 . S
Mg254 O255 1.915 . S
Mg254 O259 2.013 . S
Mg254 O265 2.114 . S
Mg254 O269 2.013 . S
Mg254 O275 2.114 1_554 S
O255 Mg254 1.915 . S
O255 Mg256 1.936 1_554 S
O255 Mg257 1.963 . S
Mg256 O255 1.936 1_556 S
Mg256 O265 2.291 1_556 S
Mg256 O270 2.081 . S
Mg256 O272 2.023 1_556 S
Mg256 O276 2.031 . S
Mg257 O255 1.963 . S
Mg257 O261 1.986 . S
Mg257 O273 1.942 1_554 S
Mg257 O274 1.955 . S
C258 O269 1.191 . S
C258 O271 1.307 . S
O259 Mg254 2.013 . S
O259 C278 1.191 . S
O260 Mg251 2.081 1_554 S
O260 C268 1.331 . S
O261 Mg257 1.986 . S
O261 C278 1.307 . S
O262 Mg251 2.023 . S
O262 C277 1.264 . S
O263 Mg252 1.942 . S
O263 C268 1.244 . S
O264 Mg252 1.955 . S
O264 C277 1.273 1_554 S
O265 Mg254 2.114 . S
O265 Mg256 2.291 1_554 S
O265 C267 1.312 . S
O266 Mg251 2.031 . S
O266 C267 1.208 1_556 S
C267 O265 1.312 . S
C267 O266 1.208 1_554 S
C268 O260 1.331 . S
C268 O263 1.244 . S
O269 Mg254 2.013 . S
O269 C258 1.191 . S
O270 C249 1.331 . S
O270 Mg256 2.081 . S
O271 Mg252 1.986 . S
O271 C258 1.307 . S
O272 C250 1.264 . S
O272 Mg256 2.023 1_554 S
O273 C249 1.244 . S
O273 Mg257 1.942 1_556 S
O274 C250 1.273 . S
O274 Mg257 1.955 . S
O275 C248 1.312 . S
O275 Mg251 2.291 . S
O275 Mg254 2.114 1_556 S
O276 C248 1.208 . S
O276 Mg256 2.031 . S
C277 O262 1.264 . S
C277 O264 1.273 1_556 S
C278 O259 1.191 . S
C278 O261 1.307 . S
C279 O306 1.312 . S
C279 O307 1.208 . S
C280 O301 1.331 . S
C280 O304 1.244 . S
C281 O303 1.264 . S
C281 O305 1.273 . S
Mg282 O284 1.936 . S
Mg282 O291 2.081 . S
Mg282 O293 2.023 . S
Mg282 O297 2.031 . S
Mg282 O306 2.291 . S
Mg283 O284 1.963 . S
Mg283 O294 1.942 1_655 S
Mg283 O295 1.955 . S
Mg283 O302 1.986 . S
O284 Mg282 1.936 . S
O284 Mg283 1.963 . S
O284 Mg285 1.915 . S
Mg285 O284 1.915 . S
Mg285 O286 1.915 . S
Mg285 O290 2.013 . S
Mg285 O296 2.114 . S
Mg285 O300 2.013 . S
Mg285 O306 2.114 . S
O286 Mg285 1.915 . S
O286 Mg287 1.936 . S
O286 Mg288 1.963 . S
Mg287 O286 1.936 . S
Mg287 O296 2.291 . S
Mg287 O301 2.081 . S
Mg287 O303 2.023 . S
Mg287 O307 2.031 . S
Mg288 O286 1.963 . S
Mg288 O292 1.986 . S
Mg288 O304 1.942 . S
Mg288 O305 1.955 . S
C289 O300 1.191 . S
C289 O302 1.307 . S
O290 Mg285 2.013 . S
O290 C309 1.191 . S
O291 Mg282 2.081 . S
O291 C299 1.331 1_655 S
O292 Mg288 1.986 . S
O292 C309 1.307 . S
O293 Mg282 2.023 . S
O293 C308 1.264 . S
O294 Mg283 1.942 1_455 S
O294 C299 1.244 . S
O295 Mg283 1.955 . S
O295 C308 1.273 . S
O296 Mg285 2.114 . S
O296 Mg287 2.291 . S
O296 C298 1.312 . S
O297 Mg282 2.031 . S
O297 C298 1.208 . S
C298 O296 1.312 . S
C298 O297 1.208 . S
C299 O291 1.331 1_455 S
C299 O294 1.244 . S
O300 Mg285 2.013 . S
O300 C289 1.191 . S
O301 C280 1.331 . S
O301 Mg287 2.081 . S
O302 Mg283 1.986 . S
O302 C289 1.307 . S
O303 C281 1.264 . S
O303 Mg287 2.023 . S
O304 C280 1.244 . S
O304 Mg288 1.942 . S
O305 C281 1.273 . S
O305 Mg288 1.955 . S
O306 C279 1.312 . S
O306 Mg282 2.291 . S
O306 Mg285 2.114 . S
O307 C279 1.208 . S
O307 Mg287 2.031 . S
C308 O293 1.264 . S
C308 O295 1.273 . S
C309 O290 1.191 . S
C309 O292 1.307 . S
C310 O337 1.312 . S
C310 O338 1.208 . S
C311 O332 1.331 . S
C311 O335 1.244 . S
C312 O334 1.264 . S
C312 O336 1.273 . S
Mg313 O315 1.936 . S
Mg313 O322 2.081 . S
Mg313 O324 2.023 . S
Mg313 O328 2.031 . S
Mg313 O337 2.291 . S
Mg314 O315 1.963 . S
Mg314 O325 1.942 . S
Mg314 O326 1.955 . S
Mg314 O333 1.986 . S
O315 Mg313 1.936 . S
O315 Mg314 1.963 . S
O315 Mg316 1.915 . S
Mg316 O315 1.915 . S
Mg316 O317 1.915 . S
Mg316 O321 2.013 . S
Mg316 O327 2.114 . S
Mg316 O331 2.013 . S
Mg316 O337 2.114 . S
O317 Mg316 1.915 . S
O317 Mg318 1.936 . S
O317 Mg319 1.963 . S
Mg318 O317 1.936 . S
Mg318 O327 2.291 . S
Mg318 O332 2.081 . S
Mg318 O334 2.023 . S
Mg318 O338 2.031 . S
Mg319 O317 1.963 . S
Mg319 O323 1.986 . S
Mg319 O335 1.942 . S
Mg319 O336 1.955 . S
C320 O331 1.191 . S
C320 O333 1.307 . S
O321 Mg316 2.013 . S
O321 C340 1.191 . S
O322 Mg313 2.081 . S
O322 C330 1.331 . S
O323 Mg319 1.986 . S
O323 C340 1.307 . S
O324 Mg313 2.023 . S
O324 C339 1.264 . S
O325 Mg314 1.942 . S
O325 C330 1.244 . S
O326 Mg314 1.955 . S
O326 C339 1.273 . S
O327 Mg316 2.114 . S
O327 Mg318 2.291 . S
O327 C329 1.312 . S
O328 Mg313 2.031 . S
O328 C329 1.208 . S
C329 O327 1.312 . S
C329 O328 1.208 . S
C330 O322 1.331 . S
C330 O325 1.244 . S
O331 Mg316 2.013 . S
O331 C320 1.191 . S
O332 C311 1.331 . S
O332 Mg318 2.081 . S
O333 Mg314 1.986 . S
O333 C320 1.307 . S
O334 C312 1.264 . S
O334 Mg318 2.023 . S
O335 C311 1.244 . S
O335 Mg319 1.942 . S
O336 C312 1.273 . S
O336 Mg319 1.955 . S
O337 C310 1.312 . S
O337 Mg313 2.291 . S
O337 Mg316 2.114 . S
O338 C310 1.208 . S
O338 Mg318 2.031 . S
C339 O324 1.264 . S
C339 O326 1.273 . S
C340 O321 1.191 . S
C340 O323 1.307 . S
C341 O368 1.312 . S
C341 O369 1.208 . S
C342 O363 1.331 1_565 S
C342 O366 1.244 . S
C343 O365 1.264 . S
C343 O367 1.273 . S
Mg344 O346 1.936 . S
Mg344 O353 2.081 . S
Mg344 O355 2.023 . S
Mg344 O359 2.031 . S
Mg344 O368 2.291 . S
Mg345 O346 1.963 . S
Mg345 O356 1.942 . S
Mg345 O357 1.955 . S
Mg345 O364 1.986 1_556 S
O346 Mg344 1.936 . S
O346 Mg345 1.963 . S
O346 Mg347 1.915 . S
Mg347 O346 1.915 . S
Mg347 O348 1.915 . S
Mg347 O352 2.013 . S
Mg347 O358 2.114 . S
Mg347 O362 2.013 . S
Mg347 O368 2.114 . S
O348 Mg347 1.915 . S
O348 Mg349 1.936 . S
O348 Mg350 1.963 . S
Mg349 O348 1.936 . S
Mg349 O358 2.291 . S
Mg349 O363 2.081 . S
Mg349 O365 2.023 . S
Mg349 O369 2.031 . S
Mg350 O348 1.963 . S
Mg350 O354 1.986 . S
Mg350 O366 1.942 1_545 S
Mg350 O367 1.955 . S
C351 O362 1.191 1_554 S
C351 O364 1.307 . S
O352 Mg347 2.013 . S
O352 C371 1.191 . S
O353 Mg344 2.081 . S
O353 C361 1.331 . S
O354 Mg350 1.986 . S
O354 C371 1.307 . S
O355 Mg344 2.023 . S
O355 C370 1.264 . S
O356 Mg345 1.942 . S
O356 C361 1.244 . S
O357 Mg345 1.955 . S
O357 C370 1.273 . S
O358 Mg347 2.114 . S
O358 Mg349 2.291 . S
O358 C360 1.312 . S
O359 Mg344 2.031 . S
O359 C360 1.208 . S
C360 O358 1.312 . S
C360 O359 1.208 . S
C361 O353 1.331 . S
C361 O356 1.244 . S
O362 Mg347 2.013 . S
O362 C351 1.191 1_556 S
O363 C342 1.331 1_545 S
O363 Mg349 2.081 . S
O364 Mg345 1.986 1_554 S
O364 C351 1.307 . S
O365 C343 1.264 . S
O365 Mg349 2.023 . S
O366 C342 1.244 . S
O366 Mg350 1.942 1_565 S
O367 C343 1.273 . S
O367 Mg350 1.955 . S
O368 C341 1.312 . S
O368 Mg344 2.291 . S
O368 Mg347 2.114 . S
O369 C341 1.208 . S
O369 Mg349 2.031 . S
C370 O355 1.264 . S
C370 O357 1.273 . S
C371 O352 1.191 . S
C371 O354 1.307 . S
C372 O399 1.312 . S
C372 O400 1.208 . S
C373 O394 1.331 . S
C373 O397 1.244 . S
C374 O396 1.264 . S
C374 O398 1.273 . S
Mg375 O377 1.936 . S
Mg375 O384 2.081 . S
Mg375 O386 2.023 1_554 S
Mg375 O390 2.031 . S
Mg375 O399 2.291 . S
Mg376 O377 1.963 1_556 S
Mg376 O387 1.942 1_556 S
Mg376 O388 1.955 . S
Mg376 O395 1.986 . S
O377 Mg375 1.936 . S
O377 Mg376 1.963 1_554 S
O377 Mg378 1.915 1_554 S
Mg378 O377 1.915 1_556 S
Mg378 O379 1.915 . S
Mg378 O383 2.013 . S
Mg378 O389 2.114 1_556 S
Mg378 O393 2.013 1_556 S
Mg378 O399 2.114 1_556 S
O379 Mg378 1.915 . S
O379 Mg380 1.936 1_556 S
O379 Mg381 1.963 . S
Mg380 O379 1.936 1_554 S
Mg380 O389 2.291 . S
Mg380 O394 2.081 1_554 S
Mg380 O396 2.023 . S
Mg380 O400 2.031 . S
Mg381 O379 1.963 . S
Mg381 O385 1.986 . S
Mg381 O397 1.942 . S
Mg381 O398 1.955 1_556 S
C382 O393 1.191 1_556 S
C382 O395 1.307 . S
O383 Mg378 2.013 . S
O383 C402 1.191 . S
O384 Mg375 2.081 . S
O384 C392 1.331 . S
O385 Mg381 1.986 . S
O385 C402 1.307 . S
O386 Mg375 2.023 1_556 S
O386 C401 1.264 . S
O387 Mg376 1.942 1_554 S
O387 C392 1.244 . S
O388 Mg376 1.955 . S
O388 C401 1.273 . S
O389 Mg378 2.114 1_554 S
O389 Mg380 2.291 . S
O389 C391 1.312 . S
O390 Mg375 2.031 . S
O390 C391 1.208 . S
C391 O389 1.312 . S
C391 O390 1.208 . S
C392 O384 1.331 . S
C392 O387 1.244 . S
O393 Mg378 2.013 1_554 S
O393 C382 1.191 1_554 S
O394 C373 1.331 . S
O394 Mg380 2.081 1_556 S
O395 Mg376 1.986 . S
O395 C382 1.307 . S
O396 C374 1.264 . S
O396 Mg380 2.023 . S
O397 C373 1.244 . S
O397 Mg381 1.942 . S
O398 C374 1.273 . S
O398 Mg381 1.955 1_554 S
O399 C372 1.312 . S
O399 Mg375 2.291 . S
O399 Mg378 2.114 1_554 S
O400 C372 1.208 . S
O400 Mg380 2.031 . S
C401 O386 1.264 . S
C401 O388 1.273 . S
C402 O383 1.191 . S
C402 O385 1.307 . S
C403 O430 1.312 1_554 S
C403 O431 1.208 1_554 S
C404 O425 1.331 1_565 S
C404 O428 1.244 . S
C405 O427 1.264 . S
C405 O429 1.273 . S
Mg406 O408 1.936 . S
Mg406 O415 2.081 . S
Mg406 O417 2.023 . S
Mg406 O421 2.031 . S
Mg406 O430 2.291 . S
Mg407 O408 1.963 . S
Mg407 O418 1.942 . S
Mg407 O419 1.955 . S
Mg407 O426 1.986 . S
O408 Mg406 1.936 . S
O408 Mg407 1.963 . S
O408 Mg409 1.915 . S
Mg409 O408 1.915 . S
Mg409 O410 1.915 . S
Mg409 O414 2.013 . S
Mg409 O420 2.114 . S
Mg409 O424 2.013 . S
Mg409 O430 2.114 . S
O410 Mg409 1.915 . S
O410 Mg411 1.936 . S
O410 Mg412 1.963 . S
Mg411 O410 1.936 . S
Mg411 O420 2.291 . S
Mg411 O425 2.081 . S
Mg411 O427 2.023 . S
Mg411 O431 2.031 . S
Mg412 O410 1.963 . S
Mg412 O416 1.986 . S
Mg412 O428 1.942 1_545 S
Mg412 O429 1.955 . S
C413 O424 1.191 . S
C413 O426 1.307 . S
O414 Mg409 2.013 . S
O414 C433 1.191 . S
O415 Mg406 2.081 . S
O415 C423 1.331 . S
O416 Mg412 1.986 . S
O416 C433 1.307 . S
O417 Mg406 2.023 . S
O417 C432 1.264 . S
O418 Mg407 1.942 . S
O418 C423 1.244 . S
O419 Mg407 1.955 . S
O419 C432 1.273 . S
O420 Mg409 2.114 . S
O420 Mg411 2.291 . S
O420 C422 1.312 . S
O421 Mg406 2.031 . S
O421 C422 1.208 . S
C422 O420 1.312 . S
C422 O421 1.208 . S
C423 O415 1.331 . S
C423 O418 1.244 . S
O424 Mg409 2.013 . S
O424 C413 1.191 . S
O425 C404 1.331 1_545 S
O425 Mg411 2.081 . S
O426 Mg407 1.986 . S
O426 C413 1.307 . S
O427 C405 1.264 . S
O427 Mg411 2.023 . S
O428 C404 1.244 . S
O428 Mg412 1.942 1_565 S
O429 C405 1.273 . S
O429 Mg412 1.955 . S
O430 C403 1.312 1_556 S
O430 Mg406 2.291 . S
O430 Mg409 2.114 . S
O431 C403 1.208 1_556 S
O431 Mg411 2.031 . S
C432 O417 1.264 . S
C432 O419 1.273 . S
C433 O414 1.191 . S
C433 O416 1.307 . S
C434 O461 1.312 . S
C434 O462 1.208 . S
C435 O456 1.331 . S
C435 O459 1.244 . S
C436 O458 1.264 . S
C436 O460 1.273 . S
Mg437 O439 1.936 . S
Mg437 O446 2.081 . S
Mg437 O448 2.023 . S
Mg437 O452 2.031 . S
Mg437 O461 2.291 . S
Mg438 O439 1.963 . S
Mg438 O449 1.942 . S
Mg438 O450 1.955 . S
Mg438 O457 1.986 . S
O439 Mg437 1.936 . S
O439 Mg438 1.963 . S
O439 Mg440 1.915 . S
Mg440 O439 1.915 . S
Mg440 O441 1.915 . S
Mg440 O445 2.013 . S
Mg440 O451 2.114 . S
Mg440 O455 2.013 . S
Mg440 O461 2.114 . S
O441 Mg440 1.915 . S
O441 Mg442 1.936 . S
O441 Mg443 1.963 . S
Mg442 O441 1.936 . S
Mg442 O451 2.291 . S
Mg442 O456 2.081 . S
Mg442 O458 2.023 . S
Mg442 O462 2.031 . S
Mg443 O441 1.963 . S
Mg443 O447 1.986 . S
Mg443 O459 1.942 . S
Mg443 O460 1.955 . S
C444 O455 1.191 . S
C444 O457 1.307 . S
O445 Mg440 2.013 . S
O445 C464 1.191 . S
O446 Mg437 2.081 . S
O446 C454 1.331 . S
O447 Mg443 1.986 . S
O447 C464 1.307 . S
O448 Mg437 2.023 . S
O448 C463 1.264 . S
O449 Mg438 1.942 . S
O449 C454 1.244 . S
O450 Mg438 1.955 . S
O450 C463 1.273 . S
O451 Mg440 2.114 . S
O451 Mg442 2.291 . S
O451 C453 1.312 . S
O452 Mg437 2.031 . S
O452 C453 1.208 . S
C453 O451 1.312 . S
C453 O452 1.208 . S
C454 O446 1.331 . S
C454 O449 1.244 . S
O455 Mg440 2.013 . S
O455 C444 1.191 . S
O456 C435 1.331 . S
O456 Mg442 2.081 . S
O457 Mg438 1.986 . S
O457 C444 1.307 . S
O458 C436 1.264 . S
O458 Mg442 2.023 . S
O459 C435 1.244 . S
O459 Mg443 1.942 . S
O460 C436 1.273 . S
O460 Mg443 1.955 . S
O461 C434 1.312 . S
O461 Mg437 2.291 . S
O461 Mg440 2.114 . S
O462 C434 1.208 . S
O462 Mg442 2.031 . S
C463 O448 1.264 . S
C463 O450 1.273 . S
C464 O445 1.191 . S
C464 O447 1.307 . S
C465 O492 1.312 . S
C465 O493 1.208 . S
C466 O487 1.331 1_545 S
C466 O490 1.244 . S
C467 O489 1.264 . S
C467 O491 1.273 . S
Mg468 O470 1.936 . S
Mg468 O477 2.081 . S
Mg468 O479 2.023 . S
Mg468 O483 2.031 . S
Mg468 O492 2.291 . S
Mg469 O470 1.963 . S
Mg469 O480 1.942 . S
Mg469 O481 1.955 . S
Mg469 O488 1.986 . S
O470 Mg468 1.936 . S
O470 Mg469 1.963 . S
O470 Mg471 1.915 . S
Mg471 O470 1.915 . S
Mg471 O472 1.915 . S
Mg471 O476 2.013 . S
Mg471 O482 2.114 . S
Mg471 O486 2.013 . S
Mg471 O492 2.114 . S
O472 Mg471 1.915 . S
O472 Mg473 1.936 . S
O472 Mg474 1.963 . S
Mg473 O472 1.936 . S
Mg473 O482 2.291 . S
Mg473 O487 2.081 . S
Mg473 O489 2.023 . S
Mg473 O493 2.031 . S
Mg474 O472 1.963 . S
Mg474 O478 1.986 . S
Mg474 O490 1.942 1_565 S
Mg474 O491 1.955 . S
C475 O486 1.191 . S
C475 O488 1.307 . S
O476 Mg471 2.013 . S
O476 C495 1.191 . S
O477 Mg468 2.081 . S
O477 C485 1.331 . S
O478 Mg474 1.986 . S
O478 C495 1.307 . S
O479 Mg468 2.023 . S
O479 C494 1.264 . S
O480 Mg469 1.942 . S
O480 C485 1.244 . S
O481 Mg469 1.955 . S
O481 C494 1.273 . S
O482 Mg471 2.114 . S
O482 Mg473 2.291 . S
O482 C484 1.312 . S
O483 Mg468 2.031 . S
O483 C484 1.208 . S
C484 O482 1.312 . S
C484 O483 1.208 . S
C485 O477 1.331 . S
C485 O480 1.244 . S
O486 Mg471 2.013 . S
O486 C475 1.191 . S
O487 C466 1.331 1_565 S
O487 Mg473 2.081 . S
O488 Mg469 1.986 . S
O488 C475 1.307 . S
O489 C467 1.264 . S
O489 Mg473 2.023 . S
O490 C466 1.244 . S
O490 Mg474 1.942 1_545 S
O491 C467 1.273 . S
O491 Mg474 1.955 . S
O492 C465 1.312 . S
O492 Mg468 2.291 . S
O492 Mg471 2.114 . S
O493 C465 1.208 . S
O493 Mg473 2.031 . S
C494 O479 1.264 . S
C494 O481 1.273 . S
C495 O476 1.191 . S
C495 O478 1.307 . S
C496 C497 1.369 . S
C496 C498 1.419 . S
C496 H500 0.930 . S
C497 C496 1.369 . S
C497 C506 1.429 . S
C498 C496 1.419 . S
C498 C499 1.363 . S
C498 H501 0.929 . S
C499 C498 1.363 . S
C499 C505 1.428 . S
H500 C496 0.930 . S
H501 C498 0.929 . S
S502 N503 1.613 . S
S502 N504 1.610 . S
N503 S502 1.613 . S
N503 C506 1.350 . S
N504 S502 1.610 . S
N504 C505 1.351 . S
C505 C499 1.428 . S
C505 N504 1.351 . S
C505 C506 1.434 . S
C506 C497 1.429 . S
C506 N503 1.350 . S
C506 C505 1.434 . S
C507 C508 1.369 . S
C507 C509 1.419 . S
C507 H511 0.930 . S
C508 C507 1.369 . S
C508 C517 1.429 . S
C509 C507 1.419 . S
C509 C510 1.363 . S
C509 H512 0.929 . S
C510 C509 1.363 . S
C510 C516 1.428 . S
H511 C507 0.930 . S
H512 C509 0.929 . S
S513 N514 1.613 . S
S513 N515 1.610 . S
N514 S513 1.613 . S
N514 C517 1.350 . S
N515 S513 1.610 . S
N515 C516 1.351 . S
C516 C510 1.428 . S
C516 N515 1.351 . S
C516 C517 1.434 . S
C517 C508 1.429 . S
C517 N514 1.350 . S
C517 C516 1.434 . S
C518 C519 1.369 . S
C518 C520 1.419 . S
C518 H522 0.930 . S
C519 C518 1.369 . S
C519 C528 1.429 . S
C520 C518 1.419 . S
C520 C521 1.363 . S
C520 H523 0.929 . S
C521 C520 1.363 . S
C521 C527 1.428 . S
H522 C518 0.930 . S
H523 C520 0.929 . S
S524 N525 1.613 1_556 S
S524 N526 1.610 . S
N525 S524 1.613 1_554 S
N525 C528 1.350 . S
N526 S524 1.610 . S
N526 C527 1.351 1_556 S
C527 C521 1.428 . S
C527 N526 1.351 1_554 S
C527 C528 1.434 . S
C528 C519 1.429 . S
C528 N525 1.350 . S
C528 C527 1.434 . S
C529 C530 1.369 . S
C529 C531 1.419 . S
C529 H533 0.930 . S
C530 C529 1.369 . S
C530 C539 1.429 . S
C531 C529 1.419 . S
C531 C532 1.363 1_655 S
C531 H534 0.929 . S
C532 C531 1.363 1_455 S
C532 C538 1.428 1_455 S
H533 C529 0.930 . S
H534 C531 0.929 . S
S535 N536 1.613 . S
S535 N537 1.610 1_655 S
N536 S535 1.613 . S
N536 C539 1.350 . S
N537 S535 1.610 1_455 S
N537 C538 1.351 1_455 S
C538 C532 1.428 1_655 S
C538 N537 1.351 1_655 S
C538 C539 1.434 . S
C539 C530 1.429 . S
C539 N536 1.350 . S
C539 C538 1.434 . S
C540 C541 1.369 . S
C540 C542 1.419 . S
C540 H544 0.930 . S
C541 C540 1.369 . S
C541 C550 1.429 . S
C542 C540 1.419 . S
C542 C543 1.363 . S
C542 H545 0.929 . S
C543 C542 1.363 . S
C543 C549 1.428 . S
H544 C540 0.930 . S
H545 C542 0.929 . S
S546 N547 1.613 . S
S546 N548 1.610 . S
N547 S546 1.613 . S
N547 C550 1.350 . S
N548 S546 1.610 . S
N548 C549 1.351 . S
C549 C543 1.428 . S
C549 N548 1.351 . S
C549 C550 1.434 . S
C550 C541 1.429 . S
C550 N547 1.350 . S
C550 C549 1.434 . S
C551 C552 1.369 . S
C551 C553 1.419 . S
C551 H555 0.930 . S
C552 C551 1.369 . S
C552 C561 1.429 . S
C553 C551 1.419 . S
C553 C554 1.363 . S
C553 H556 0.929 . S
C554 C553 1.363 . S
C554 C560 1.428 . S
H555 C551 0.930 . S
H556 C553 0.929 . S
S557 N558 1.613 . S
S557 N559 1.610 . S
N558 S557 1.613 . S
N558 C561 1.350 . S
N559 S557 1.610 . S
N559 C560 1.351 . S
C560 C554 1.428 . S
C560 N559 1.351 . S
C560 C561 1.434 . S
C561 C552 1.429 . S
C561 N558 1.350 . S
C561 C560 1.434 . S
C562 C563 1.369 . S
C562 C564 1.419 . S
C562 H566 0.930 . S
C563 C562 1.369 . S
C563 C572 1.429 1_556 S
C564 C562 1.419 . S
C564 C565 1.363 . S
C564 H567 0.929 . S
C565 C564 1.363 . S
C565 C571 1.428 . S
H566 C562 0.930 . S
H567 C564 0.929 . S
S568 N569 1.613 . S
S568 N570 1.610 . S
N569 S568 1.613 . S
N569 C572 1.350 . S
N570 S568 1.610 . S
N570 C571 1.351 1_554 S
C571 C565 1.428 . S
C571 N570 1.351 1_556 S
C571 C572 1.434 1_556 S
C572 C563 1.429 1_554 S
C572 N569 1.350 . S
C572 C571 1.434 1_554 S
C573 C574 1.369 1_455 S
C573 C575 1.419 . S
C573 H577 0.930 . S
C574 C573 1.369 1_655 S
C574 C583 1.429 1_655 S
C575 C573 1.419 . S
C575 C576 1.363 . S
C575 H578 0.929 . S
C576 C575 1.363 . S
C576 C582 1.428 . S
H577 C573 0.930 . S
H578 C575 0.929 . S
S579 N580 1.613 1_455 S
S579 N581 1.610 . S
N580 S579 1.613 1_655 S
N580 C583 1.350 1_655 S
N581 S579 1.610 . S
N581 C582 1.351 . S
C582 C576 1.428 . S
C582 N581 1.351 . S
C582 C583 1.434 . S
C583 C574 1.429 1_455 S
C583 N580 1.350 1_455 S
C583 C582 1.434 . S
C584 C585 1.369 . S
C584 C586 1.419 . S
C584 H588 0.930 . S
C585 C584 1.369 . S
C585 C594 1.429 . S
C586 C584 1.419 . S
C586 C587 1.363 . S
C586 H589 0.929 . S
C587 C586 1.363 . S
C587 C593 1.428 . S
H588 C584 0.930 . S
H589 C586 0.929 . S
S590 N591 1.613 . S
S590 N592 1.610 . S
N591 S590 1.613 . S
N591 C594 1.350 . S
N592 S590 1.610 . S
N592 C593 1.351 . S
C593 C587 1.428 . S
C593 N592 1.351 . S
C593 C594 1.434 . S
C594 C585 1.429 . S
C594 N591 1.350 . S
C594 C593 1.434 . S
C595 C596 1.369 1_455 S
C595 C597 1.419 . S
C595 H599 0.930 . S
C596 C595 1.369 1_655 S
C596 C605 1.429 1_655 S
C597 C595 1.419 . S
C597 C598 1.363 . S
C597 H600 0.929 . S
C598 C597 1.363 . S
C598 C604 1.428 . S
H599 C595 0.930 . S
H600 C597 0.929 . S
S601 N602 1.613 1_455 S
S601 N603 1.610 . S
N602 S601 1.613 1_655 S
N602 C605 1.350 1_655 S
N603 S601 1.610 . S
N603 C604 1.351 . S
C604 C598 1.428 . S
C604 N603 1.351 . S
C604 C605 1.434 . S
C605 C596 1.429 1_455 S
C605 N602 1.350 1_455 S
C605 C604 1.434 . S
C606 C607 1.369 . S
C606 C608 1.419 . S
C606 H610 0.930 . S
C607 C606 1.369 . S
C607 C616 1.429 . S
C608 C606 1.419 . S
C608 C609 1.363 . S
C608 H611 0.929 . S
C609 C608 1.363 . S
C609 C615 1.428 . S
H610 C606 0.930 . S
H611 C608 0.929 . S
S612 N613 1.613 . S
S612 N614 1.610 . S
N613 S612 1.613 . S
N613 C616 1.350 . S
N614 S612 1.610 . S
N614 C615 1.351 . S
C615 C609 1.428 . S
C615 N614 1.351 . S
C615 C616 1.434 . S
C616 C607 1.429 . S
C616 N613 1.350 . S
C616 C615 1.434 . S
C617 C618 1.369 . S
C617 C619 1.419 . S
C617 H621 0.930 . S
C618 C617 1.369 . S
C618 C627 1.429 . S
C619 C617 1.419 . S
C619 C620 1.363 . S
C619 H622 0.929 . S
C620 C619 1.363 . S
C620 C626 1.428 . S
H621 C617 0.930 . S
H622 C619 0.929 . S
S623 N624 1.613 . S
S623 N625 1.610 . S
N624 S623 1.613 . S
N624 C627 1.350 . S
N625 S623 1.610 . S
N625 C626 1.351 . S
C626 C620 1.428 . S
C626 N625 1.351 . S
C626 C627 1.434 . S
C627 C618 1.429 . S
C627 N624 1.350 . S
C627 C626 1.434 . S
C628 C629 1.369 . S
C628 C630 1.419 . S
C628 H632 0.930 . S
C629 C628 1.369 . S
C629 C638 1.429 1_556 S
C630 C628 1.419 . S
C630 C631 1.363 . S
C630 H633 0.929 . S
C631 C630 1.363 . S
C631 C637 1.428 1_556 S
H632 C628 0.930 . S
H633 C630 0.929 . S
S634 N635 1.613 . S
S634 N636 1.610 . S
N635 S634 1.613 . S
N635 C638 1.350 . S
N636 S634 1.610 . S
N636 C637 1.351 . S
C637 C631 1.428 1_554 S
C637 N636 1.351 . S
C637 C638 1.434 . S
C638 C629 1.429 1_554 S
C638 N635 1.350 . S
C638 C637 1.434 . S
C639 C640 1.369 . S
C639 C641 1.419 . S
C639 H643 0.930 . S
C640 C639 1.369 . S
C640 C649 1.429 . S
C641 C639 1.419 . S
C641 C642 1.373 . S
C641 H644 0.929 . S
C642 C641 1.373 . S
C642 C648 1.441 . S
H643 C639 0.930 . S
H644 C641 0.929 . S
S645 N646 1.613 . S
S645 N647 1.610 . S
N646 S645 1.613 . S
N646 C649 1.350 . S
N647 S645 1.610 . S
N647 C648 1.351 . S
C648 C642 1.441 . S
C648 N647 1.351 . S
C648 C649 1.434 . S
C649 C640 1.429 . S
C649 N646 1.350 . S
C649 C648 1.434 . S
C650 C651 1.369 . S
C650 C652 1.419 . S
C650 H654 0.930 . S
C651 C650 1.369 . S
C651 C660 1.429 . S
C652 C650 1.419 . S
C652 C653 1.363 . S
C652 H655 0.929 . S
C653 C652 1.363 . S
C653 C659 1.428 . S
H654 C650 0.930 . S
H655 C652 0.929 . S
S656 N657 1.613 . S
S656 N658 1.610 . S
N657 S656 1.613 . S
N657 C660 1.350 . S
N658 S656 1.610 . S
N658 C659 1.351 . S
C659 C653 1.428 . S
C659 N658 1.351 . S
C659 C660 1.434 . S
C660 C651 1.429 . S
C660 N657 1.350 . S
C660 C659 1.434 . S
C661 C662 1.369 . S
C661 C663 1.419 . S
C661 H665 0.930 . S
C662 C661 1.369 . S
C662 C671 1.429 . S
C663 C661 1.419 . S
C663 C664 1.363 . S
C663 H666 0.929 . S
C664 C663 1.363 . S
C664 C670 1.428 . S
H665 C661 0.930 . S
H666 C663 0.929 . S
S667 N668 1.613 . S
S667 N669 1.610 . S
N668 S667 1.613 . S
N668 C671 1.350 . S
N669 S667 1.610 . S
N669 C670 1.351 . S
C670 C664 1.428 . S
C670 N669 1.351 . S
C670 C671 1.434 . S
C671 C662 1.429 . S
C671 N668 1.350 . S
C671 C670 1.434 . S
C672 C673 1.369 . S
C672 C674 1.419 1_554 S
C672 H676 0.930 . S
C673 C672 1.369 . S
C673 C682 1.429 . S
C674 C672 1.419 1_556 S
C674 C675 1.363 . S
C674 H677 0.929 . S
C675 C674 1.363 . S
C675 C681 1.428 . S
H676 C672 0.930 . S
H677 C674 0.929 . S
S678 N679 1.613 . S
S678 N680 1.610 1_554 S
N679 S678 1.613 . S
N679 C682 1.350 . S
N680 S678 1.610 1_556 S
N680 C681 1.351 . S
C681 C675 1.428 . S
C681 N680 1.351 . S
C681 C682 1.434 1_556 S
C682 C673 1.429 . S
C682 N679 1.350 . S
C682 C681 1.434 1_554 S
C683 C684 1.369 . S
C683 C685 1.419 . S
C683 H687 0.930 . S
C684 C683 1.369 . S
C684 C693 1.429 . S
C685 C683 1.419 . S
C685 C686 1.363 . S
C685 H688 0.929 . S
C686 C685 1.363 . S
C686 C692 1.428 . S
H687 C683 0.930 . S
H688 C685 0.929 . S
S689 N690 1.613 . S
S689 N691 1.610 . S
N690 S689 1.613 . S
N690 C693 1.350 . S
N691 S689 1.610 . S
N691 C692 1.351 . S
C692 C686 1.428 . S
C692 N691 1.351 . S
C692 C693 1.434 . S
C693 C684 1.429 . S
C693 N690 1.350 . S
C693 C692 1.434 . S
C694 C695 1.369 . S
C694 C696 1.419 . S
C694 H698 0.930 . S
C695 C694 1.369 . S
C695 C704 1.429 . S
C696 C694 1.419 . S
C696 C697 1.363 . S
C696 H699 0.929 . S
C697 C696 1.363 . S
C697 C703 1.428 . S
H698 C694 0.930 . S
H699 C696 0.929 . S
S700 N701 1.613 . S
S700 N702 1.610 . S
N701 S700 1.613 . S
N701 C704 1.350 . S
N702 S700 1.610 . S
N702 C703 1.351 . S
C703 C697 1.428 . S
C703 N702 1.351 . S
C703 C704 1.434 . S
C704 C695 1.429 . S
C704 N701 1.350 . S
C704 C703 1.434 . S
C705 C706 1.369 . S
C705 C707 1.419 . S
C705 H709 0.930 . S
C706 C705 1.369 . S
C706 C715 1.429 . S
C707 C705 1.419 . S
C707 C708 1.363 . S
C707 H710 0.929 . S
C708 C707 1.363 . S
C708 C714 1.428 . S
H709 C705 0.930 . S
H710 C707 0.929 . S
S711 N712 1.613 . S
S711 N713 1.610 . S
N712 S711 1.613 . S
N712 C715 1.350 . S
N713 S711 1.610 . S
N713 C714 1.351 . S
C714 C708 1.428 . S
C714 N713 1.351 . S
C714 C715 1.434 . S
C715 C706 1.429 . S
C715 N712 1.350 . S
C715 C714 1.434 . S
C716 C717 1.369 . S
C716 C718 1.419 1_554 S
C716 H720 0.930 . S
C717 C716 1.369 . S
C717 C726 1.429 . S
C718 C716 1.419 1_556 S
C718 C719 1.363 . S
C718 H721 0.929 . S
C719 C718 1.363 . S
C719 C725 1.428 . S
H720 C716 0.930 . S
H721 C718 0.929 . S
S722 N723 1.613 . S
S722 N724 1.610 1_554 S
N723 S722 1.613 . S
N723 C726 1.350 . S
N724 S722 1.610 1_556 S
N724 C725 1.351 . S
C725 C719 1.428 . S
C725 N724 1.351 . S
C725 C726 1.434 1_556 S
C726 C717 1.429 . S
C726 N723 1.350 . S
C726 C725 1.434 1_554 S
C727 C728 1.369 . S
C727 C729 1.419 . S
C727 H731 0.930 . S
C728 C727 1.369 . S
C728 C737 1.429 . S
C729 C727 1.419 . S
C729 C730 1.363 . S
C729 H732 0.929 . S
C730 C729 1.363 . S
C730 C736 1.428 . S
H731 C727 0.930 . S
H732 C729 0.929 . S
S733 N734 1.613 . S
S733 N735 1.610 . S
N734 S733 1.613 . S
N734 C737 1.350 . S
N735 S733 1.610 . S
N735 C736 1.351 . S
C736 C730 1.428 . S
C736 N735 1.351 . S
C736 C737 1.434 . S
C737 C728 1.429 . S
C737 N734 1.350 . S
C737 C736 1.434 . S
C738 C739 1.369 . S
C738 C740 1.419 . S
C738 H742 0.930 . S
C739 C738 1.369 . S
C739 C748 1.429 . S
C740 C738 1.419 . S
C740 C741 1.363 . S
C740 H743 0.929 . S
C741 C740 1.363 . S
C741 C747 1.428 . S
H742 C738 0.930 . S
H743 C740 0.929 . S
S744 N745 1.613 . S
S744 N746 1.610 . S
N745 S744 1.613 . S
N745 C748 1.350 . S
N746 S744 1.610 . S
N746 C747 1.351 . S
C747 C741 1.428 . S
C747 N746 1.351 . S
C747 C748 1.434 . S
C748 C739 1.429 . S
C748 N745 1.350 . S
C748 C747 1.434 . S
C749 C750 1.369 . S
C749 C751 1.419 . S
C749 H753 0.930 . S
C750 C749 1.369 . S
C750 C759 1.429 . S
C751 C749 1.419 . S
C751 C752 1.363 . S
C751 H754 0.929 . S
C752 C751 1.363 . S
C752 C758 1.428 . S
H753 C749 0.930 . S
H754 C751 0.929 . S
S755 N756 1.613 . S
S755 N757 1.610 . S
N756 S755 1.613 . S
N756 C759 1.350 . S
N757 S755 1.610 . S
N757 C758 1.351 . S
C758 C752 1.428 . S
C758 N757 1.351 . S
C758 C759 1.434 . S
C759 C750 1.429 . S
C759 N756 1.350 . S
C759 C758 1.434 . S
C760 C761 1.369 . S
C760 C762 1.419 . S
C760 H764 0.930 . S
C761 C760 1.369 . S
C761 C770 1.429 . S
C762 C760 1.419 . S
C762 C763 1.363 . S
C762 H765 0.929 . S
C763 C762 1.363 . S
C763 C769 1.428 . S
H764 C760 0.930 . S
H765 C762 0.929 . S
S766 N767 1.613 . S
S766 N768 1.610 . S
N767 S766 1.613 . S
N767 C770 1.350 . S
N768 S766 1.610 . S
N768 C769 1.351 . S
C769 C763 1.428 . S
C769 N768 1.351 . S
C769 C770 1.434 . S
C770 C761 1.429 . S
C770 N767 1.350 . S
C770 C769 1.434 . S
C771 C772 1.369 . S
C771 C773 1.419 . S
C771 H775 0.930 . S
C772 C771 1.369 . S
C772 C781 1.429 . S
C773 C771 1.419 . S
C773 C774 1.363 . S
C773 H776 0.929 . S
C774 C773 1.363 . S
C774 C780 1.428 . S
H775 C771 0.930 . S
H776 C773 0.929 . S
S777 N778 1.613 . S
S777 N779 1.610 . S
N778 S777 1.613 . S
N778 C781 1.350 . S
N779 S777 1.610 . S
N779 C780 1.351 . S
C780 C774 1.428 . S
C780 N779 1.351 . S
C780 C781 1.434 . S
C781 C772 1.429 . S
C781 N778 1.350 . S
C781 C780 1.434 . S
C782 C783 1.369 . S
C782 C784 1.419 1_554 S
C782 H786 0.930 . S
C783 C782 1.369 . S
C783 C792 1.429 . S
C784 C782 1.419 1_556 S
C784 C785 1.363 . S
C784 H787 0.929 . S
C785 C784 1.363 . S
C785 C791 1.428 . S
H786 C782 0.930 . S
H787 C784 0.929 . S
S788 N789 1.613 . S
S788 N790 1.610 1_554 S
N789 S788 1.613 . S
N789 C792 1.350 . S
N790 S788 1.610 1_556 S
N790 C791 1.351 . S
C791 C785 1.428 . S
C791 N790 1.351 . S
C791 C792 1.434 1_556 S
C792 C783 1.429 . S
C792 N789 1.350 . S
C792 C791 1.434 1_554 S
C793 C794 1.369 . S
C793 C795 1.419 . S
C793 H797 0.930 . S
C794 C793 1.369 . S
C794 C803 1.429 . S
C795 C793 1.419 . S
C795 C796 1.363 . S
C795 H798 0.929 . S
C796 C795 1.363 . S
C796 C802 1.428 . S
H797 C793 0.930 . S
H798 C795 0.929 . S
S799 N800 1.613 . S
S799 N801 1.610 . S
N800 S799 1.613 . S
N800 C803 1.350 . S
N801 S799 1.610 . S
N801 C802 1.351 . S
C802 C796 1.428 . S
C802 N801 1.351 . S
C802 C803 1.434 . S
C803 C794 1.429 . S
C803 N800 1.350 . S
C803 C802 1.434 . S
C804 C805 1.369 . S
C804 C806 1.419 . S
C804 H808 0.930 . S
C805 C804 1.369 . S
C805 C814 1.429 . S
C806 C804 1.419 . S
C806 C807 1.363 . S
C806 H809 0.929 . S
C807 C806 1.363 . S
C807 C813 1.428 . S
H808 C804 0.930 . S
H809 C806 0.929 . S
S810 N811 1.613 . S
S810 N812 1.610 . S
N811 S810 1.613 . S
N811 C814 1.350 . S
N812 S810 1.610 . S
N812 C813 1.351 . S
C813 C807 1.428 . S
C813 N812 1.351 . S
C813 C814 1.434 . S
C814 C805 1.429 . S
C814 N811 1.350 . S
C814 C813 1.434 . S
C815 C816 1.369 . S
C815 C817 1.419 . S
C815 H819 0.930 . S
C816 C815 1.369 . S
C816 C825 1.429 . S
C817 C815 1.419 . S
C817 C818 1.363 . S
C817 H820 0.929 . S
C818 C817 1.363 . S
C818 C824 1.428 . S
H819 C815 0.930 . S
H820 C817 0.929 . S
S821 N822 1.613 . S
S821 N823 1.610 . S
N822 S821 1.613 . S
N822 C825 1.350 . S
N823 S821 1.610 . S
N823 C824 1.351 . S
C824 C818 1.428 . S
C824 N823 1.351 . S
C824 C825 1.434 . S
C825 C816 1.429 . S
C825 N822 1.350 . S
C825 C824 1.434 . S
C826 C827 1.369 . S
C826 C828 1.419 1_554 S
C826 H830 0.930 . S
C827 C826 1.369 . S
C827 C836 1.429 . S
C828 C826 1.419 1_556 S
C828 C829 1.363 . S
C828 H831 0.929 . S
C829 C828 1.363 . S
C829 C835 1.428 . S
H830 C826 0.930 . S
H831 C828 0.929 . S
S832 N833 1.613 1_556 S
S832 N834 1.610 . S
N833 S832 1.613 1_554 S
N833 C836 1.350 . S
N834 S832 1.610 . S
N834 C835 1.351 . S
C835 C829 1.428 . S
C835 N834 1.351 . S
C835 C836 1.434 1_556 S
C836 C827 1.429 . S
C836 N833 1.350 . S
C836 C835 1.434 1_554 S
C837 C838 1.369 . S
C837 C839 1.419 . S
C837 H841 0.930 . S
C838 C837 1.369 . S
C838 C847 1.429 . S
C839 C837 1.419 . S
C839 C840 1.363 . S
C839 H842 0.929 . S
C840 C839 1.363 . S
C840 C846 1.428 . S
H841 C837 0.930 . S
H842 C839 0.929 . S
S843 N844 1.613 . S
S843 N845 1.610 . S
N844 S843 1.613 . S
N844 C847 1.350 . S
N845 S843 1.610 . S
N845 C846 1.351 . S
C846 C840 1.428 . S
C846 N845 1.351 . S
C846 C847 1.434 . S
C847 C838 1.429 . S
C847 N844 1.350 . S
C847 C846 1.434 . S
C848 C849 1.369 . S
C848 C850 1.419 . S
C848 H852 0.930 . S
C849 C848 1.369 . S
C849 C858 1.429 . S
C850 C848 1.419 . S
C850 C851 1.363 . S
C850 H853 0.929 . S
C851 C850 1.363 . S
C851 C857 1.428 . S
H852 C848 0.930 . S
H853 C850 0.929 . S
S854 N855 1.613 . S
S854 N856 1.610 . S
N855 S854 1.613 . S
N855 C858 1.350 . S
N856 S854 1.610 . S
N856 C857 1.351 . S
C857 C851 1.428 . S
C857 N856 1.351 . S
C857 C858 1.434 . S
C858 C849 1.429 . S
C858 N855 1.350 . S
C858 C857 1.434 . S
C859 C860 1.369 . S
C859 C861 1.419 . S
C859 H863 0.930 . S
C860 C859 1.369 . S
C860 C869 1.429 . S
C861 C859 1.419 . S
C861 C862 1.363 . S
C861 H864 0.929 . S
C862 C861 1.363 . S
C862 C868 1.428 . S
H863 C859 0.930 . S
H864 C861 0.929 . S
S865 N866 1.613 . S
S865 N867 1.610 . S
N866 S865 1.613 . S
N866 C869 1.350 . S
N867 S865 1.610 . S
N867 C868 1.351 . S
C868 C862 1.428 . S
C868 N867 1.351 . S
C868 C869 1.434 . S
C869 C860 1.429 . S
C869 N866 1.350 . S
C869 C868 1.434 . S
C870 C871 1.369 . S
C870 C872 1.419 . S
C870 H874 0.930 . S
C871 C870 1.369 . S
C871 C880 1.429 . S
C872 C870 1.419 . S
C872 C873 1.363 . S
C872 H875 0.929 . S
C873 C872 1.363 . S
C873 C879 1.428 . S
H874 C870 0.930 . S
H875 C872 0.929 . S
S876 N877 1.613 . S
S876 N878 1.610 1_554 S
N877 S876 1.613 . S
N877 C880 1.350 1_554 S
N878 S876 1.610 1_556 S
N878 C879 1.351 . S
C879 C873 1.428 . S
C879 N878 1.351 . S
C879 C880 1.434 . S
C880 C871 1.429 . S
C880 N877 1.350 1_556 S
C880 C879 1.434 . S
C881 C882 1.369 1_556 S
C881 C883 1.397 1_455 S
C881 H885 0.930 . S
C882 C881 1.369 1_554 S
C882 C891 1.428 . S
C883 C881 1.397 1_655 S
C883 C884 1.385 . S
C883 H886 0.929 . S
C884 C883 1.385 . S
C884 C890 1.428 1_556 S
H885 C881 0.930 . S
H886 C883 0.929 . S
S887 N888 1.613 . S
S887 N889 1.610 . S
N888 S887 1.613 . S
N888 C891 1.350 1_655 S
N889 S887 1.610 . S
N889 C890 1.351 . S
C890 C884 1.428 1_554 S
C890 N889 1.351 . S
C890 C891 1.435 1_655 S
C891 C882 1.428 . S
C891 N888 1.350 1_455 S
C891 C890 1.435 1_455 S
C892 C893 1.369 . S
C892 C894 1.419 . S
C892 H896 0.930 . S
C893 C892 1.369 . S
C893 C902 1.429 . S
C894 C892 1.419 . S
C894 C895 1.363 . S
C894 H897 0.929 . S
C895 C894 1.363 . S
C895 C901 1.428 . S
H896 C892 0.930 . S
H897 C894 0.929 . S
S898 N899 1.613 . S
S898 N900 1.610 . S
N899 S898 1.613 . S
N899 C902 1.350 . S
N900 S898 1.610 . S
N900 C901 1.351 . S
C901 C895 1.428 . S
C901 N900 1.351 . S
C901 C902 1.434 . S
C902 C893 1.429 . S
C902 N899 1.350 . S
C902 C901 1.434 . S
C903 C904 1.369 . S
C903 C905 1.419 . S
C903 H907 0.930 . S
C904 C903 1.369 . S
C904 C913 1.429 . S
C905 C903 1.419 . S
C905 C906 1.363 . S
C905 H908 0.929 . S
C906 C905 1.363 . S
C906 C912 1.428 . S
H907 C903 0.930 . S
H908 C905 0.929 . S
S909 N910 1.613 . S
S909 N911 1.610 . S
N910 S909 1.613 . S
N910 C913 1.350 . S
N911 S909 1.610 . S
N911 C912 1.351 . S
C912 C906 1.428 . S
C912 N911 1.351 . S
C912 C913 1.434 . S
C913 C904 1.429 . S
C913 N910 1.350 . S
C913 C912 1.434 . S
C914 C915 1.369 1_554 S
C914 C916 1.419 1_455 S
C914 H918 0.930 1_554 S
C915 C914 1.369 1_556 S
C915 C924 1.429 1_566 S
C916 C914 1.419 1_655 S
C916 C917 1.363 1_565 S
C916 H919 0.929 . S
C917 C916 1.363 1_545 S
C917 C923 1.428 . S
H918 C914 0.930 1_556 S
H919 C916 0.929 . S
S920 N921 1.613 . S
S920 N922 1.610 1_455 S
N921 S920 1.613 . S
N921 C924 1.350 . S
N922 S920 1.610 1_655 S
N922 C923 1.351 . S
C923 C917 1.428 . S
C923 N922 1.351 . S
C923 C924 1.434 1_655 S
C924 C915 1.429 1_544 S
C924 N921 1.350 . S
C924 C923 1.434 1_455 S
C925 C926 1.369 1_565 S
C925 C927 1.419 . S
C925 H929 0.930 . S
C926 C925 1.369 1_545 S
C926 C935 1.429 . S
C927 C925 1.419 . S
C927 C928 1.363 . S
C927 H930 0.929 . S
C928 C927 1.363 . S
C928 C934 1.428 1_565 S
H929 C925 0.930 . S
H930 C927 0.929 . S
S931 N932 1.613 . S
S931 N933 1.610 . S
N932 S931 1.613 . S
N932 C935 1.350 . S
N933 S931 1.610 . S
N933 C934 1.351 . S
C934 C928 1.428 1_545 S
C934 N933 1.351 . S
C934 C935 1.434 . S
C935 C926 1.429 . S
C935 N932 1.350 . S
C935 C934 1.434 . S
C936 C937 1.369 . S
C936 C938 1.419 . S
C936 H940 0.930 . S
C937 C936 1.369 . S
C937 C946 1.429 . S
C938 C936 1.419 . S
C938 C939 1.363 . S
C938 H941 0.929 . S
C939 C938 1.363 . S
C939 C945 1.428 . S
H940 C936 0.930 . S
H941 C938 0.929 . S
S942 N943 1.613 . S
S942 N944 1.610 . S
N943 S942 1.613 . S
N943 C946 1.350 . S
N944 S942 1.610 . S
N944 C945 1.351 . S
C945 C939 1.428 . S
C945 N944 1.351 . S
C945 C946 1.434 . S
C946 C937 1.429 . S
C946 N943 1.350 . S
C946 C945 1.434 . S
C947 C948 1.369 . S
C947 C949 1.419 . S
C947 H951 0.930 . S
C948 C947 1.369 . S
C948 C957 1.429 . S
C949 C947 1.419 . S
C949 C950 1.363 . S
C949 H952 0.929 . S
C950 C949 1.363 . S
C950 C956 1.428 . S
H951 C947 0.930 . S
H952 C949 0.929 . S
S953 N954 1.613 . S
S953 N955 1.610 . S
N954 S953 1.613 . S
N954 C957 1.350 . S
N955 S953 1.610 . S
N955 C956 1.351 . S
C956 C950 1.428 . S
C956 N955 1.351 . S
C956 C957 1.434 . S
C957 C948 1.429 . S
C957 N954 1.350 . S
C957 C956 1.434 . S
C958 C959 1.369 . S
C958 C960 1.419 . S
C958 H962 0.930 . S
C959 C958 1.369 . S
C959 C968 1.429 . S
C960 C958 1.419 . S
C960 C961 1.363 . S
C960 H963 0.929 . S
C961 C960 1.363 . S
C961 C967 1.428 . S
H962 C958 0.930 . S
H963 C960 0.929 . S
S964 N965 1.613 . S
S964 N966 1.610 1_554 S
N965 S964 1.613 . S
N965 C968 1.350 1_554 S
N966 S964 1.610 1_556 S
N966 C967 1.351 . S
C967 C961 1.428 . S
C967 N966 1.351 . S
C967 C968 1.434 . S
C968 C959 1.429 . S
C968 N965 1.350 1_556 S
C968 C967 1.434 . S
C969 C970 1.369 . S
C969 C971 1.419 1_554 S
C969 H973 0.930 1_554 S
C970 C969 1.369 . S
C970 C979 1.429 . S
C971 C969 1.419 1_556 S
C971 C972 1.363 1_556 S
C971 H974 0.929 . S
C972 C971 1.363 1_554 S
C972 C978 1.428 . S
H973 C969 0.930 1_556 S
H974 C971 0.929 . S
S975 N976 1.613 . S
S975 N977 1.610 . S
N976 S975 1.613 . S
N976 C979 1.350 . S
N977 S975 1.610 . S
N977 C978 1.351 . S
C978 C972 1.428 . S
C978 N977 1.351 . S
C978 C979 1.434 . S
C979 C970 1.429 . S
C979 N976 1.350 . S
C979 C978 1.434 . S
C980 C981 1.369 . S
C980 C982 1.419 . S
C980 H984 0.930 . S
C981 C980 1.369 . S
C981 C990 1.429 . S
C982 C980 1.419 . S
C982 C983 1.363 . S
C982 H985 0.929 . S
C983 C982 1.363 . S
C983 C989 1.428 . S
H984 C980 0.930 . S
H985 C982 0.929 . S
S986 N987 1.613 . S
S986 N988 1.610 . S
N987 S986 1.613 . S
N987 C990 1.350 . S
N988 S986 1.610 . S
N988 C989 1.351 . S
C989 C983 1.428 . S
C989 N988 1.351 . S
C989 C990 1.434 . S
C990 C981 1.429 . S
C990 N987 1.350 . S
C990 C989 1.434 . S
C991 C992 1.369 . S
C991 C993 1.419 . S
C991 H995 0.930 . S
C992 C991 1.369 . S
C992 C1001 1.429 . S
C993 C991 1.419 . S
C993 C994 1.363 . S
C993 H996 0.929 . S
C994 C993 1.363 . S
C994 C1000 1.428 . S
H995 C991 0.930 . S
H996 C993 0.929 . S
S997 N998 1.613 . S
S997 N999 1.610 . S
N998 S997 1.613 . S
N998 C1001 1.350 . S
N999 S997 1.610 . S
N999 C1000 1.351 . S
C1000 C994 1.428 . S
C1000 N999 1.351 . S
C1000 C1001 1.434 . S
C1001 C992 1.429 . S
C1001 N998 1.350 . S
C1001 C1000 1.434 . S
C1002 C1003 1.369 . S
C1002 C1004 1.419 . S
C1002 H1006 0.930 . S
C1003 C1002 1.369 . S
C1003 C1012 1.429 . S
C1004 C1002 1.419 . S
C1004 C1005 1.363 . S
C1004 H1007 0.929 . S
C1005 C1004 1.363 . S
C1005 C1011 1.428 . S
H1006 C1002 0.930 . S
H1007 C1004 0.929 . S
S1008 N1009 1.613 1_556 S
S1008 N1010 1.610 1_556 S
N1009 S1008 1.613 1_554 S
N1009 C1012 1.350 . S
N1010 S1008 1.610 1_554 S
N1010 C1011 1.351 . S
C1011 C1005 1.428 . S
C1011 N1010 1.351 . S
C1011 C1012 1.434 . S
C1012 C1003 1.429 . S
C1012 N1009 1.350 . S
C1012 C1011 1.434 . S
C1013 C1014 1.369 . S
C1013 C1015 1.419 . S
C1013 H1017 0.930 1_556 S
C1014 C1013 1.369 . S
C1014 C1023 1.429 . S
C1015 C1013 1.419 . S
C1015 C1016 1.363 . S
C1015 H1018 0.929 . S
C1016 C1015 1.363 . S
C1016 C1022 1.428 . S
H1017 C1013 0.930 1_554 S
H1018 C1015 0.929 . S
S1019 N1020 1.613 . S
S1019 N1021 1.610 . S
N1020 S1019 1.613 . S
N1020 C1023 1.350 . S
N1021 S1019 1.610 . S
N1021 C1022 1.351 . S
C1022 C1016 1.428 . S
C1022 N1021 1.351 . S
C1022 C1023 1.434 . S
C1023 C1014 1.429 . S
C1023 N1020 1.350 . S
C1023 C1022 1.434 . S
C1024 C1025 1.369 . S
C1024 C1026 1.419 . S
C1024 H1028 0.930 . S
C1025 C1024 1.369 . S
C1025 C1034 1.429 . S
C1026 C1024 1.419 . S
C1026 C1027 1.386 . S
C1026 H1029 0.929 . S
C1027 C1026 1.386 . S
C1027 C1033 1.439 . S
H1028 C1024 0.930 . S
H1029 C1026 0.929 . S
S1030 N1031 1.613 . S
S1030 N1032 1.610 1_564 S
N1031 S1030 1.613 . S
N1031 C1034 1.350 1_554 S
N1032 S1030 1.610 1_546 S
N1032 C1033 1.351 1_545 S
C1033 C1027 1.439 . S
C1033 N1032 1.351 1_565 S
C1033 C1034 1.434 . S
C1034 C1025 1.429 . S
C1034 N1031 1.350 1_556 S
C1034 C1033 1.434 . S
C1035 C1036 1.369 . S
C1035 C1037 1.419 . S
C1035 H1039 0.930 . S
C1036 C1035 1.369 . S
C1036 C1045 1.429 . S
C1037 C1035 1.419 . S
C1037 C1038 1.363 . S
C1037 H1040 0.929 . S
C1038 C1037 1.363 . S
C1038 C1044 1.428 . S
H1039 C1035 0.930 . S
H1040 C1037 0.929 . S
S1041 N1042 1.613 1_556 S
S1041 N1043 1.610 . S
N1042 S1041 1.613 1_554 S
N1042 C1045 1.350 . S
N1043 S1041 1.610 . S
N1043 C1044 1.351 1_556 S
C1044 C1038 1.428 . S
C1044 N1043 1.351 1_554 S
C1044 C1045 1.434 . S
C1045 C1036 1.429 . S
C1045 N1042 1.350 . S
C1045 C1044 1.434 . S
C1046 C1047 1.369 1_545 S
C1046 C1048 1.419 . S
C1046 H1050 0.930 1_545 S
C1047 C1046 1.369 1_565 S
C1047 C1056 1.429 1_565 S
C1048 C1046 1.419 . S
C1048 C1049 1.363 . S
C1048 H1051 0.929 . S
C1049 C1048 1.363 . S
C1049 C1055 1.428 . S
H1050 C1046 0.930 1_565 S
H1051 C1048 0.929 . S
S1052 N1053 1.613 . S
S1052 N1054 1.610 . S
N1053 S1052 1.613 . S
N1053 C1056 1.350 . S
N1054 S1052 1.610 . S
N1054 C1055 1.351 . S
C1055 C1049 1.428 . S
C1055 N1054 1.351 . S
C1055 C1056 1.434 . S
C1056 C1047 1.429 1_545 S
C1056 N1053 1.350 . S
C1056 C1055 1.434 . S
C1057 C1058 1.369 . S
C1057 C1059 1.419 . S
C1057 H1061 0.930 . S
C1058 C1057 1.369 . S
C1058 C1067 1.429 . S
C1059 C1057 1.419 . S
C1059 C1060 1.363 . S
C1059 H1062 0.929 . S
C1060 C1059 1.363 . S
C1060 C1066 1.428 . S
H1061 C1057 0.930 . S
H1062 C1059 0.929 . S
S1063 N1064 1.613 . S
S1063 N1065 1.610 . S
N1064 S1063 1.613 . S
N1064 C1067 1.350 . S
N1065 S1063 1.610 . S
N1065 C1066 1.351 . S
C1066 C1060 1.428 . S
C1066 N1065 1.351 . S
C1066 C1067 1.434 . S
C1067 C1058 1.429 . S
C1067 N1064 1.350 . S
C1067 C1066 1.434 . S
C1068 C1069 1.369 . S
C1068 C1070 1.419 . S
C1068 H1072 0.930 . S
C1069 C1068 1.369 . S
C1069 C1078 1.429 . S
C1070 C1068 1.419 . S
C1070 C1071 1.363 . S
C1070 H1073 0.929 . S
C1071 C1070 1.363 . S
C1071 C1077 1.428 . S
H1072 C1068 0.930 . S
H1073 C1070 0.929 . S
S1074 N1075 1.613 . S
S1074 N1076 1.610 . S
N1075 S1074 1.613 . S
N1075 C1078 1.350 . S
N1076 S1074 1.610 . S
N1076 C1077 1.351 . S
C1077 C1071 1.428 . S
C1077 N1076 1.351 . S
C1077 C1078 1.434 . S
C1078 C1069 1.429 . S
C1078 N1075 1.350 . S
C1078 C1077 1.434 . S
C1079 C1080 1.369 . S
C1079 C1081 1.419 . S
C1079 H1083 0.930 . S
C1080 C1079 1.369 . S
C1080 C1089 1.429 1_556 S
C1081 C1079 1.419 . S
C1081 C1082 1.363 . S
C1081 H1084 0.929 . S
C1082 C1081 1.363 . S
C1082 C1088 1.428 1_556 S
H1083 C1079 0.930 . S
H1084 C1081 0.929 . S
S1085 N1086 1.613 . S
S1085 N1087 1.610 . S
N1086 S1085 1.613 . S
N1086 C1089 1.350 . S
N1087 S1085 1.610 . S
N1087 C1088 1.351 . S
C1088 C1082 1.428 1_554 S
C1088 N1087 1.351 . S
C1088 C1089 1.434 . S
C1089 C1080 1.429 1_554 S
C1089 N1086 1.350 . S
C1089 C1088 1.434 . S
C1090 C1091 1.369 . S
C1090 C1092 1.419 . S
C1090 H1094 0.930 . S
C1091 C1090 1.369 . S
C1091 C1100 1.429 . S
C1092 C1090 1.419 . S
C1092 C1093 1.363 . S
C1092 H1095 0.929 . S
C1093 C1092 1.363 . S
C1093 C1099 1.428 . S
H1094 C1090 0.930 . S
H1095 C1092 0.929 . S
S1096 N1097 1.613 . S
S1096 N1098 1.610 1_565 S
N1097 S1096 1.613 . S
N1097 C1100 1.350 . S
N1098 S1096 1.610 1_545 S
N1098 C1099 1.351 1_545 S
C1099 C1093 1.428 . S
C1099 N1098 1.351 1_565 S
C1099 C1100 1.434 . S
C1100 C1091 1.429 . S
C1100 N1097 1.350 . S
C1100 C1099 1.434 . S
C1101 C1102 1.369 . S
C1101 C1103 1.419 . S
C1101 H1105 0.930 . S
C1102 C1101 1.369 . S
C1102 C1111 1.429 . S
C1103 C1101 1.419 . S
C1103 C1104 1.363 . S
C1103 H1106 0.929 . S
C1104 C1103 1.363 . S
C1104 C1110 1.428 . S
H1105 C1101 0.930 . S
H1106 C1103 0.929 . S
S1107 N1108 1.613 . S
S1107 N1109 1.610 . S
N1108 S1107 1.613 . S
N1108 C1111 1.350 . S
N1109 S1107 1.610 . S
N1109 C1110 1.351 . S
C1110 C1104 1.428 . S
C1110 N1109 1.351 . S
C1110 C1111 1.434 . S
C1111 C1102 1.429 . S
C1111 N1108 1.350 . S
C1111 C1110 1.434 . S
C1112 C1113 1.369 . S
C1112 C1114 1.419 . S
C1112 H1116 0.930 . S
C1113 C1112 1.369 . S
C1113 C1122 1.429 . S
C1114 C1112 1.419 . S
C1114 C1115 1.363 . S
C1114 H1117 0.929 . S
C1115 C1114 1.363 . S
C1115 C1121 1.428 . S
H1116 C1112 0.930 . S
H1117 C1114 0.929 . S
S1118 N1119 1.613 . S
S1118 N1120 1.610 . S
N1119 S1118 1.613 . S
N1119 C1122 1.350 . S
N1120 S1118 1.610 . S
N1120 C1121 1.351 . S
C1121 C1115 1.428 . S
C1121 N1120 1.351 . S
C1121 C1122 1.434 . S
C1122 C1113 1.429 . S
C1122 N1119 1.350 . S
C1122 C1121 1.434 . S
C1123 C1124 1.369 1_554 S
C1123 C1125 1.419 . S
C1123 H1127 0.930 . S
C1124 C1123 1.369 1_556 S
C1124 C1133 1.429 1_556 S
C1125 C1123 1.419 . S
C1125 C1126 1.363 . S
C1125 H1128 0.929 . S
C1126 C1125 1.363 . S
C1126 C1132 1.428 . S
H1127 C1123 0.930 . S
H1128 C1125 0.929 . S
S1129 N1130 1.613 1_554 S
S1129 N1131 1.610 . S
N1130 S1129 1.613 1_556 S
N1130 C1133 1.350 1_556 S
N1131 S1129 1.610 . S
N1131 C1132 1.351 . S
C1132 C1126 1.428 . S
C1132 N1131 1.351 . S
C1132 C1133 1.434 . S
C1133 C1124 1.429 1_554 S
C1133 N1130 1.350 1_554 S
C1133 C1132 1.434 . S
C1134 C1135 1.369 . S
C1134 C1136 1.419 . S
C1134 H1138 0.930 . S
C1135 C1134 1.369 . S
C1135 C1144 1.429 . S
C1136 C1134 1.419 . S
C1136 C1137 1.363 . S
C1136 H1139 0.929 . S
C1137 C1136 1.363 . S
C1137 C1143 1.428 . S
H1138 C1134 0.930 . S
H1139 C1136 0.929 . S
S1140 N1141 1.613 . S
S1140 N1142 1.610 . S
N1141 S1140 1.613 . S
N1141 C1144 1.350 . S
N1142 S1140 1.610 . S
N1142 C1143 1.351 . S
C1143 C1137 1.428 . S
C1143 N1142 1.351 . S
C1143 C1144 1.434 . S
C1144 C1135 1.429 . S
C1144 N1141 1.350 . S
C1144 C1143 1.434 . S
C1145 C1146 1.369 . S
C1145 C1147 1.419 . S
C1145 H1149 0.930 . S
C1146 C1145 1.369 . S
C1146 C1155 1.429 1_655 S
C1147 C1145 1.419 . S
C1147 C1148 1.363 1_655 S
C1147 H1150 0.929 . S
C1148 C1147 1.363 1_455 S
C1148 C1154 1.428 . S
H1149 C1145 0.930 . S
H1150 C1147 0.929 . S
S1151 N1152 1.613 . S
S1151 N1153 1.610 . S
N1152 S1151 1.613 . S
N1152 C1155 1.350 . S
N1153 S1151 1.610 . S
N1153 C1154 1.351 . S
C1154 C1148 1.428 . S
C1154 N1153 1.351 . S
C1154 C1155 1.434 . S
C1155 C1146 1.429 1_455 S
C1155 N1152 1.350 . S
C1155 C1154 1.434 . S
C1156 C1157 1.369 . S
C1156 C1158 1.419 . S
C1156 H1160 0.930 . S
C1157 C1156 1.369 . S
C1157 C1166 1.429 . S
C1158 C1156 1.419 . S
C1158 C1159 1.363 . S
C1158 H1161 0.929 . S
C1159 C1158 1.363 . S
C1159 C1165 1.428 . S
H1160 C1156 0.930 . S
H1161 C1158 0.929 . S
S1162 N1163 1.613 . S
S1162 N1164 1.610 . S
N1163 S1162 1.613 . S
N1163 C1166 1.350 . S
N1164 S1162 1.610 . S
N1164 C1165 1.351 . S
C1165 C1159 1.428 . S
C1165 N1164 1.351 . S
C1165 C1166 1.434 . S
C1166 C1157 1.429 . S
C1166 N1163 1.350 . S
C1166 C1165 1.434 . S
C1167 C1168 1.369 . S
C1167 C1169 1.419 . S
C1167 H1171 0.930 . S
C1168 C1167 1.369 . S
C1168 C1177 1.429 . S
C1169 C1167 1.419 . S
C1169 C1170 1.363 . S
C1169 H1172 0.929 . S
C1170 C1169 1.363 . S
C1170 C1176 1.428 . S
H1171 C1167 0.930 . S
H1172 C1169 0.929 . S
S1173 N1174 1.613 . S
S1173 N1175 1.610 . S
N1174 S1173 1.613 . S
N1174 C1177 1.350 . S
N1175 S1173 1.610 . S
N1175 C1176 1.351 . S
C1176 C1170 1.428 . S
C1176 N1175 1.351 . S
C1176 C1177 1.434 . S
C1177 C1168 1.429 . S
C1177 N1174 1.350 . S
C1177 C1176 1.434 . S
C1178 C1179 1.369 . S
C1178 C1180 1.419 1_565 S
C1178 H1182 0.930 . S
C1179 C1178 1.369 . S
C1179 C1188 1.429 1_455 S
C1180 C1178 1.419 1_545 S
C1180 C1181 1.363 1_455 S
C1180 H1183 0.929 . S
C1181 C1180 1.363 1_655 S
C1181 C1187 1.428 . S
H1182 C1178 0.930 . S
H1183 C1180 0.929 . S
S1184 N1185 1.613 . S
S1184 N1186 1.610 1_565 S
N1185 S1184 1.613 . S
N1185 C1188 1.350 . S
N1186 S1184 1.610 1_545 S
N1186 C1187 1.351 . S
C1187 C1181 1.428 . S
C1187 N1186 1.351 . S
C1187 C1188 1.434 1_545 S
C1188 C1179 1.429 1_655 S
C1188 N1185 1.350 . S
C1188 C1187 1.434 1_565 S
C1189 C1190 1.369 . S
C1189 C1191 1.419 1_565 S
C1189 H1193 0.930 . S
C1190 C1189 1.369 . S
C1190 C1199 1.429 1_554 S
C1191 C1189 1.419 1_545 S
C1191 C1192 1.363 1_554 S
C1191 H1194 0.929 . S
C1192 C1191 1.363 1_556 S
C1192 C1198 1.428 . S
H1193 C1189 0.930 . S
H1194 C1191 0.929 . S
S1195 N1196 1.613 . S
S1195 N1197 1.610 1_565 S
N1196 S1195 1.613 . S
N1196 C1199 1.350 . S
N1197 S1195 1.610 1_545 S
N1197 C1198 1.351 . S
C1198 C1192 1.428 . S
C1198 N1197 1.351 . S
C1198 C1199 1.434 1_545 S
C1199 C1190 1.429 1_556 S
C1199 N1196 1.350 . S
C1199 C1198 1.434 1_565 S
C497 C19 1.763 . S
C499 C423 1.753 . S
C508 C41 1.571 . S
C510 C187 1.773 . S
C519 C485 1.820 . S
C521 C72 1.611 . S
C530 C125 1.806 . S
C532 C112 1.817 . S
C541 C124 1.941 . S
C543 C281 1.910 . S
C552 C155 2.014 . S
C554 C64 1.992 . S
C563 C186 1.821 1_556 S
C565 C361 1.818 . S
C574 C236 1.750 . S
C576 C20 1.735 . S
C585 C156 1.757 . S
C587 C267 1.762 . S
C596 C289 1.570 . S
C598 C435 1.773 . S
C607 C320 1.615 . S
C609 C237 1.823 . S
C618 C360 1.812 . S
C620 C373 1.806 . S
C629 C33 1.913 . S
C631 C372 1.936 1_556 S
C640 C312 1.995 . S
C642 C422 1.993 1_655 S
C651 C113 1.819 . S
C653 C434 1.820 . S
C662 C268 1.740 . S
C664 C484 1.746 . S
C673 C0 1.541 . S
C675 C10 1.551 . S
C684 C61 1.551 . S
C686 C50 1.544 . S
C695 C81 1.544 . S
C697 C92 1.560 . S
C706 C103 1.556 . S
C708 C93 1.546 1_556 S
C717 C154 1.549 . S
C719 C143 1.542 . S
C728 C174 1.547 . S
C730 C185 1.555 1_556 S
C739 C216 1.563 . S
C741 C205 1.547 . S
C750 C227 1.559 . S
C752 C217 1.543 1_554 S
C761 C248 1.535 . S
C763 C258 1.554 . S
C772 C309 1.552 1_556 S
C774 C298 1.543 . S
C783 C340 1.557 . S
C785 C329 1.549 . S
C794 C341 1.548 . S
C796 C351 1.554 . S
C805 C402 1.555 . S
C807 C391 1.538 . S
C816 C403 1.546 . S
C818 C413 1.556 . S
C827 C464 1.558 . S
C829 C453 1.552 . S
C838 C465 1.546 . S
C840 C475 1.557 1_556 S
C849 C1 0.953 . S
C851 C392 0.958 . S
C860 C175 1.013 . S
C862 C60 0.960 . S
C871 C91 1.003 . S
C873 C454 1.042 . S
C882 C94 0.992 . S
C884 C218 0.994 . S
C893 C144 0.953 . S
C895 C249 0.958 . S
C904 C206 1.039 . S
C906 C339 1.006 . S
C915 C404 0.998 . S
C917 C308 0.975 1_545 S
C926 C466 1.003 . S
C928 C342 0.985 . S
C937 C123 1.704 . S
C939 C29 1.991 . S
C948 C32 1.827 . S
C950 C30 1.534 . S
C959 C63 1.856 . S
C961 C31 1.742 . S
C970 C122 2.022 . S
C972 C62 1.917 . S
C981 C247 1.714 . S
C983 C126 1.999 . S
C992 C157 2.055 . S
C994 C134 1.784 . S
C1003 C165 1.754 . S
C1005 C188 2.028 . S
C1014 C196 1.694 1_556 S
C1016 C246 1.975 . S
C1025 C277 1.987 . S
C1027 C371 1.671 1_565 S
C1036 C280 1.829 . S
C1038 C278 1.545 . S
C1047 C279 1.750 . S
C1049 C311 1.860 . S
C1058 C310 1.916 . S
C1060 C370 2.022 . S
C1069 C374 1.999 . S
C1071 C495 1.716 1_545 S
C1080 C432 2.054 . S
C1082 C382 1.782 . S
C1091 C436 2.027 . S
C1093 C433 1.754 1_565 S
C1102 C444 1.684 . S
C1104 C494 1.975 . S
C1113 C2 1.000 . S
C1115 C401 1.006 . S
C1124 C51 0.966 . S
C1126 C184 0.917 . S
C1135 C463 0.873 . S
C1137 C82 0.915 . S
C1146 C95 0.945 1_655 S
C1148 C219 0.969 1_455 S
C1157 C250 0.995 . S
C1159 C153 1.009 . S
C1168 C330 0.921 . S
C1170 C215 0.873 . S
C1179 C299 0.942 . S
C1181 C405 0.936 1_655 S
C1190 C467 0.972 . S
C1192 C343 0.948 . S
