# Generated by pormake.
# Topology smd, (6)-cn, num edge types: 1
# Building blocks:
#     Node 0, Type 0, BuildingBlock: BETDAH_clean_sbu_0, # of connection points: 6
#     Node 1, Type 0, BuildingBlock: BETDAH_clean_sbu_0, # of connection points: 6
#     Node 2, Type 0, BuildingBlock: BETDAH_clean_sbu_0, # of connection points: 6
#     Node 3, Type 0, BuildingBlock: BETDAH_clean_sbu_0, # of connection points: 6
#     Node 4, Type 0, BuildingBlock: BETDAH_clean_sbu_0, # of connection points: 6
#     Node 5, Type 0, BuildingBlock: BETDAH_clean_sbu_0, # of connection points: 6
#     Node 6, Type 0, BuildingBlock: BETDAH_clean_sbu_0, # of connection points: 6
#     Node 7, Type 0, BuildingBlock: BETDAH_clean_sbu_0, # of connection points: 6
#     Node 8, Type 0, BuildingBlock: BETDAH_clean_sbu_0, # of connection points: 6
#     Node 9, Type 0, BuildingBlock: BETDAH_clean_sbu_0, # of connection points: 6
#     Node 10, Type 0, BuildingBlock: BETDAH_clean_sbu_0, # of connection points: 6
#     Node 11, Type 0, BuildingBlock: BETDAH_clean_sbu_0, # of connection points: 6
#     Node 12, Type 0, BuildingBlock: BETDAH_clean_sbu_0, # of connection points: 6
#     Node 13, Type 0, BuildingBlock: BETDAH_clean_sbu_0, # of connection points: 6
#     Node 14, Type 0, BuildingBlock: BETDAH_clean_sbu_0, # of connection points: 6
#     Node 15, Type 0, BuildingBlock: BETDAH_clean_sbu_0, # of connection points: 6
#     Node 16, Type 0, BuildingBlock: BETDAH_clean_sbu_0, # of connection points: 6
#     Node 17, Type 0, BuildingBlock: BETDAH_clean_sbu_0, # of connection points: 6
#     Edge 18, Type (0, 0), BuildingBlock: AJUNOK_clean_linker_0, # of connection points: 2
#     Edge 19, Type (0, 0), BuildingBlock: AJUNOK_clean_linker_0, # of connection points: 2
#     Edge 20, Type (0, 0), BuildingBlock: AJUNOK_clean_linker_0, # of connection points: 2
#     Edge 21, Type (0, 0), BuildingBlock: AJUNOK_clean_linker_0, # of connection points: 2
#     Edge 22, Type (0, 0), BuildingBlock: AJUNOK_clean_linker_0, # of connection points: 2
#     Edge 23, Type (0, 0), BuildingBlock: AJUNOK_clean_linker_0, # of connection points: 2
#     Edge 24, Type (0, 0), BuildingBlock: AJUNOK_clean_linker_0, # of connection points: 2
#     Edge 25, Type (0, 0), BuildingBlock: AJUNOK_clean_linker_0, # of connection points: 2
#     Edge 26, Type (0, 0), BuildingBlock: AJUNOK_clean_linker_0, # of connection points: 2
#     Edge 27, Type (0, 0), BuildingBlock: AJUNOK_clean_linker_0, # of connection points: 2
#     Edge 28, Type (0, 0), BuildingBlock: AJUNOK_clean_linker_0, # of connection points: 2
#     Edge 29, Type (0, 0), BuildingBlock: AJUNOK_clean_linker_0, # of connection points: 2
#     Edge 30, Type (0, 0), BuildingBlock: AJUNOK_clean_linker_0, # of connection points: 2
#     Edge 31, Type (0, 0), BuildingBlock: AJUNOK_clean_linker_0, # of connection points: 2
#     Edge 32, Type (0, 0), BuildingBlock: AJUNOK_clean_linker_0, # of connection points: 2
#     Edge 33, Type (0, 0), BuildingBlock: AJUNOK_clean_linker_0, # of connection points: 2
#     Edge 34, Type (0, 0), BuildingBlock: AJUNOK_clean_linker_0, # of connection points: 2
#     Edge 35, Type (0, 0), BuildingBlock: AJUNOK_clean_linker_0, # of connection points: 2
#     Edge 36, Type (0, 0), BuildingBlock: AJUNOK_clean_linker_0, # of connection points: 2
#     Edge 37, Type (0, 0), BuildingBlock: AJUNOK_clean_linker_0, # of connection points: 2
#     Edge 38, Type (0, 0), BuildingBlock: AJUNOK_clean_linker_0, # of connection points: 2
#     Edge 39, Type (0, 0), BuildingBlock: AJUNOK_clean_linker_0, # of connection points: 2
#     Edge 40, Type (0, 0), BuildingBlock: AJUNOK_clean_linker_0, # of connection points: 2
#     Edge 41, Type (0, 0), BuildingBlock: AJUNOK_clean_linker_0, # of connection points: 2
#     Edge 42, Type (0, 0), BuildingBlock: AJUNOK_clean_linker_0, # of connection points: 2
#     Edge 43, Type (0, 0), BuildingBlock: AJUNOK_clean_linker_0, # of connection points: 2
#     Edge 44, Type (0, 0), BuildingBlock: AJUNOK_clean_linker_0, # of connection points: 2
#     Edge 45, Type (0, 0), BuildingBlock: AJUNOK_clean_linker_0, # of connection points: 2
#     Edge 46, Type (0, 0), BuildingBlock: AJUNOK_clean_linker_0, # of connection points: 2
#     Edge 47, Type (0, 0), BuildingBlock: AJUNOK_clean_linker_0, # of connection points: 2
#     Edge 48, Type (0, 0), BuildingBlock: AJUNOK_clean_linker_0, # of connection points: 2
#     Edge 49, Type (0, 0), BuildingBlock: AJUNOK_clean_linker_0, # of connection points: 2
#     Edge 50, Type (0, 0), BuildingBlock: AJUNOK_clean_linker_0, # of connection points: 2
#     Edge 51, Type (0, 0), BuildingBlock: AJUNOK_clean_linker_0, # of connection points: 2
#     Edge 52, Type (0, 0), BuildingBlock: AJUNOK_clean_linker_0, # of connection points: 2
#     Edge 53, Type (0, 0), BuildingBlock: AJUNOK_clean_linker_0, # of connection points: 2
#     Edge 54, Type (0, 0), BuildingBlock: AJUNOK_clean_linker_0, # of connection points: 2
#     Edge 55, Type (0, 0), BuildingBlock: AJUNOK_clean_linker_0, # of connection points: 2
#     Edge 56, Type (0, 0), BuildingBlock: AJUNOK_clean_linker_0, # of connection points: 2
#     Edge 57, Type (0, 0), BuildingBlock: AJUNOK_clean_linker_0, # of connection points: 2
#     Edge 58, Type (0, 0), BuildingBlock: AJUNOK_clean_linker_0, # of connection points: 2
#     Edge 59, Type (0, 0), BuildingBlock: AJUNOK_clean_linker_0, # of connection points: 2
#     Edge 60, Type (0, 0), BuildingBlock: AJUNOK_clean_linker_0, # of connection points: 2
#     Edge 61, Type (0, 0), BuildingBlock: AJUNOK_clean_linker_0, # of connection points: 2
#     Edge 62, Type (0, 0), BuildingBlock: AJUNOK_clean_linker_0, # of connection points: 2
#     Edge 63, Type (0, 0), BuildingBlock: AJUNOK_clean_linker_0, # of connection points: 2
#     Edge 64, Type (0, 0), BuildingBlock: AJUNOK_clean_linker_0, # of connection points: 2
#     Edge 65, Type (0, 0), BuildingBlock: AJUNOK_clean_linker_0, # of connection points: 2
#     Edge 66, Type (0, 0), BuildingBlock: AJUNOK_clean_linker_0, # of connection points: 2
#     Edge 67, Type (0, 0), BuildingBlock: AJUNOK_clean_linker_0, # of connection points: 2
#     Edge 68, Type (0, 0), BuildingBlock: AJUNOK_clean_linker_0, # of connection points: 2
#     Edge 69, Type (0, 0), BuildingBlock: AJUNOK_clean_linker_0, # of connection points: 2
#     Edge 70, Type (0, 0), BuildingBlock: AJUNOK_clean_linker_0, # of connection points: 2
#     Edge 71, Type (0, 0), BuildingBlock: AJUNOK_clean_linker_0, # of connection points: 2
# Relax obj value: 0.300
# Max RMSD: 0.384
# Mean RMSD: 0.352
data_MOF--net-smd--node1-BETDAH_clean_sbu_0--edge1-AJUNOK_clean_linker_0
_symmetry_space_group_name_H-M    P1
_symmetry_Int_Tables_number       1
_symmetry_cell_setting            triclinic
loop_
_symmetry_equiv_pos_as_xyz
'x, y, z'
_cell_length_a     47.766052
_cell_length_b     47.884284
_cell_length_c     20.892122
_cell_angle_alpha  93.25072
_cell_angle_beta   93.399916
_cell_angle_gamma 120.03288
loop_
_atom_site_label
_atom_site_type_symbol
_atom_site_fract_x
_atom_site_fract_y
_atom_site_fract_z
_atom_type_partial_charge
Ho0 Ho 0.03464 0.25353 0.59164 0.0
Ho1 Ho 0.99633 0.23112 0.47456 0.0
C2 C 0.97134 0.17985 0.57074 0.0
C3 C 0.06143 0.28091 0.70788 0.0
C4 C 0.05153 0.27389 0.77388 0.0
C5 C 0.01855 0.25754 0.78506 0.0
C6 C 1.00949 0.25156 0.84775 0.0
C7 C 0.03316 0.26153 0.90085 0.0
C8 C 0.06616 0.27822 0.88945 0.0
C9 C 0.0752 0.28427 0.8267 0.0
C10 C 0.0572 0.22045 0.52019 0.0
C11 C 0.06039 0.29813 0.46735 0.0
C12 C 0.9684 0.21609 0.35703 0.0
C13 C 0.97848 0.22318 0.29121 0.0
C14 C 1.01133 0.23829 0.27926 0.0
C15 C 0.0202 0.24488 0.21651 0.0
C16 C 0.9964 0.23613 0.16424 0.0
C17 C 0.96359 0.22134 0.17669 0.0
C18 C 0.95478 0.21498 0.23939 0.0
C19 C 0.97238 0.25508 0.57123 0.0
O20 O 0.9869 0.20662 0.61219 0.0
O21 O 0.97842 0.18271 0.51099 0.0
O22 O 0.06756 0.26072 0.6762 0.0
O23 O 0.04445 0.28922 0.67123 0.0
O24 O 0.04987 0.21625 0.57886 0.0
O25 O 0.04777 0.23938 0.49905 0.0
O26 O 0.03558 0.27341 0.43394 0.0
O27 O 0.06531 0.29729 0.53119 0.0
O28 O 0.97184 0.24045 0.39505 0.0
O29 O 0.97717 0.19801 0.38711 0.0
O30 O 0.95529 0.22797 0.53496 0.0
O31 O 1.00052 0.2672 0.55378 0.0
H32 H 0.99974 0.24952 0.7453 0.0
H33 H 0.9839 0.23939 0.85469 0.0
H34 H 0.08503 0.28624 0.92904 0.0
H35 H 0.10077 0.2971 0.81944 0.0
H36 H 0.03013 0.24482 0.31826 0.0
H37 H 0.04567 0.25628 0.20865 0.0
H38 H 0.94469 0.21487 0.13788 0.0
H39 H 0.92933 0.20356 0.24741 0.0
Ho40 Ho 0.79129 0.77046 0.4855 0.0
Ho41 Ho 0.77885 0.79437 0.59738 0.0
C42 C 0.80152 0.84414 0.49793 0.0
C43 C 0.78827 0.74119 0.37369 0.0
C44 C 0.78517 0.74672 0.305 0.0
C45 C 0.76232 0.75498 0.28129 0.0
C46 C 0.75913 0.75919 0.2159 0.0
C47 C 0.77873 0.75534 0.17266 0.0
C48 C 0.8017 0.74729 0.19662 0.0
C49 C 0.80477 0.7429 0.26195 0.0
C50 C 0.84903 0.80538 0.55995 0.0
C51 C 0.77108 0.72542 0.61043 0.0
C52 C 0.7705 0.81111 0.71196 0.0
C53 C 0.77116 0.80102 0.77753 0.0
C54 C 0.79219 0.79 0.79805 0.0
C55 C 0.79241 0.7808 0.86061 0.0
C56 C 0.77136 0.78205 0.90364 0.0
C57 C 0.75008 0.79271 0.88249 0.0
C58 C 0.74999 0.80205 0.82015 0.0
C59 C 0.72874 0.77093 0.49636 0.0
O60 O 0.7901 0.81704 0.45774 0.0
O61 O 0.80769 0.84207 0.55882 0.0
O62 O 0.81545 0.76126 0.40832 0.0
O63 O 0.76339 0.73423 0.40546 0.0
O64 O 0.84351 0.80961 0.50092 0.0
O65 O 0.82153 0.78608 0.58035 0.0
O66 O 0.76921 0.74934 0.6386 0.0
O67 O 0.78027 0.72762 0.55031 0.0
O68 O 0.74681 0.78987 0.67036 0.0
O69 O 0.79815 0.82597 0.68672 0.0
O70 O 0.74009 0.79818 0.53174 0.0
O71 O 0.74454 0.75821 0.51695 0.0
H72 H 0.74693 0.75827 0.31324 0.0
H73 H 0.74165 0.766 0.19941 0.0
H74 H 0.81713 0.74409 0.16462 0.0
H75 H 0.82244 0.73641 0.27885 0.0
H76 H 0.8085 0.7886 0.76586 0.0
H77 H 0.80898 0.77256 0.87532 0.0
H78 H 0.73394 0.79449 0.91463 0.0
H79 H 0.73347 0.81033 0.80531 0.0
Ho80 Ho 0.2425 0.99552 0.57202 0.0
Ho81 Ho 0.25443 0.03143 0.47327 0.0
C82 C 0.22748 0.05729 0.57205 0.0
C83 C 0.23743 0.97268 0.6838 0.0
C84 C 0.24401 0.98373 0.75314 0.0
C85 C 0.26503 0.01638 0.77647 0.0
C86 C 0.27017 0.02595 0.84291 0.0
C87 C 0.25431 1.00301 0.88683 0.0
C88 C 0.23356 0.97037 0.8629 0.0
C89 C 0.22852 0.96087 0.79682 0.0
C90 C 0.19017 0.95927 0.48372 0.0
C91 C 0.26518 0.97313 0.44427 0.0
C92 C 0.26875 0.05991 0.36756 0.0
C93 C 0.26704 0.05141 0.29791 0.0
C94 C 0.24819 0.01926 0.26995 0.0
C95 C 0.24729 1.01188 0.2037 0.0
C96 C 0.26536 0.03647 0.16434 0.0
C97 C 0.2842 0.06861 0.19271 0.0
C98 C 0.28506 0.07596 0.25887 0.0
C99 C 0.30419 0.05925 0.57666 0.0
O100 O 0.23788 0.04116 0.60796 0.0
O101 O 0.22565 0.05201 0.50983 0.0
O102 O 0.21433 0.97469 0.65206 0.0
O103 O 0.26245 0.98144 0.65135 0.0
O104 O 0.20755 0.94932 0.51304 0.0
O105 O 0.2042 0.99036 0.49716 0.0
O106 O 0.25308 0.98934 0.41796 0.0
O107 O 0.2676 0.97427 0.50853 0.0
O108 O 0.28902 0.05573 0.40449 0.0
O109 O 0.24127 0.05039 0.39217 0.0
O110 O 0.29137 0.07404 0.54798 0.0
O111 O 0.28994 0.03088 0.54924 0.0
H112 H 0.27716 0.03442 0.74339 0.0
H113 H 0.28593 0.05134 0.85974 0.0
H114 H 0.22121 0.95211 0.89545 0.0
H115 H 0.2123 0.93556 0.77972 0.0
H116 H 0.23415 0.99992 0.29921 0.0
H117 H 0.2326 0.98688 0.18325 0.0
H118 H 0.29786 0.08816 0.16358 0.0
H119 H 0.29974 0.10093 0.27958 0.0
Ho120 Ho 0.03538 0.79844 0.60663 0.0
Ho121 Ho 0.99581 0.77147 0.49235 0.0
C122 C 0.97613 0.72721 0.61329 0.0
C123 C 0.06298 0.8153 0.72451 0.0
C124 C 0.05333 0.80755 0.79009 0.0
C125 C 0.02083 0.79421 0.80346 0.0
C126 C 1.01237 0.78721 0.86619 0.0
C127 C 0.03619 0.79322 0.91666 0.0
C128 C 0.06868 0.80657 0.90285 0.0
C129 C 0.0771 0.81357 0.84023 0.0
C130 C 0.06154 0.7765 0.51239 0.0
C131 C 0.05988 0.8481 0.508 0.0
C132 C 0.97164 0.75261 0.37234 0.0
C133 C 0.98234 0.75828 0.30694 0.0
C134 C 1.01503 0.77081 0.29567 0.0
C135 C 0.02428 0.77595 0.23287 0.0
C136 C 1.00104 0.76879 0.1803 0.0
C137 C 0.96841 0.75637 0.19214 0.0
C138 C 0.95919 0.75111 0.25469 0.0
C139 C 0.96286 0.788 0.57491 0.0
O140 O 0.99512 0.75542 0.64597 0.0
O141 O 0.97419 0.72555 0.54889 0.0
O142 O 0.06189 0.79201 0.68691 0.0
O143 O 0.05171 0.83128 0.69413 0.0
O144 O 0.07739 0.80353 0.54924 0.0
O145 O 0.03311 0.76215 0.52912 0.0
O146 O 0.04125 0.82068 0.46885 0.0
O147 O 0.05707 0.84675 0.56971 0.0
O148 O 0.97225 0.77681 0.40564 0.0
O149 O 0.98203 0.73735 0.40753 0.0
O150 O 0.95112 0.76116 0.53847 0.0
O151 O 0.99341 0.80536 0.56784 0.0
H152 H 1.00203 0.78928 0.76552 0.0
H153 H 0.98714 0.77687 0.87517 0.0
H154 H 0.08772 0.8121 0.94072 0.0
H155 H 0.10232 0.8239 0.83102 0.0
H156 H 0.03337 0.7768 0.33537 0.0
H157 H 0.0497 0.78605 0.2256 0.0
H158 H 0.94991 0.75047 0.15281 0.0
H159 H 0.93386 0.74144 0.2623 0.0
Ho160 Ho 0.24944 0.22632 0.47899 0.0
Ho161 Ho 0.24289 0.25643 0.58633 0.0
C162 C 0.26444 0.29641 0.45895 0.0
C163 C 0.25664 0.20661 0.36545 0.0
C164 C 0.25531 0.21403 0.2978 0.0
C165 C 0.23638 0.22712 0.27544 0.0
C166 C 0.23629 0.23457 0.21135 0.0
C167 C 0.25477 0.22869 0.16826 0.0
C168 C 0.27363 0.2156 0.19095 0.0
C169 C 0.27392 0.20842 0.25499 0.0
C170 C 0.30248 0.25217 0.57558 0.0
C171 C 0.22574 0.17836 0.5785 0.0
C172 C 0.24368 0.27902 0.70365 0.0
C173 C 0.24773 0.27258 0.77107 0.0
C174 C 0.26533 0.25745 0.78901 0.0
C175 C 0.26797 0.25104 0.85321 0.0
C176 C 0.25287 0.25939 0.90063 0.0
C177 C 0.23584 0.2751 0.8824 0.0
C178 C 0.23329 0.28155 0.81842 0.0
C179 C 0.18913 0.23894 0.50402 0.0
O180 O 0.24997 0.26685 0.43118 0.0
O181 O 0.26767 0.30028 0.52356 0.0
O182 O 0.28051 0.22904 0.40495 0.0
O183 O 0.22937 0.19298 0.39189 0.0
O184 O 0.2883 0.22314 0.54604 0.0
O185 O 0.28776 0.2654 0.55223 0.0
O186 O 0.23747 0.20653 0.61591 0.0
O187 O 0.22195 0.179 0.51659 0.0
O188 O 0.2174 0.25721 0.66858 0.0
O189 O 0.26904 0.29004 0.67142 0.0
O190 O 0.20782 0.26723 0.53475 0.0
O191 O 0.20202 0.22113 0.51374 0.0
H192 H 0.22196 0.23188 0.3076 0.0
H193 H 0.22157 0.24469 0.1953 0.0
H194 H 0.2885 0.21126 0.15928 0.0
H195 H 0.28885 0.19855 0.27122 0.0
H196 H 0.27689 0.25049 0.75342 0.0
H197 H 0.28191 0.2396 0.86574 0.0
H198 H 0.22385 0.2818 0.91743 0.0
H199 H 0.21968 0.29333 0.80573 0.0
Ho200 Ho 0.777 0.99782 0.59479 0.0
Ho201 Ho 0.79049 0.03094 0.48898 0.0
C202 C 0.76983 0.05848 0.61836 0.0
C203 C 0.7658 0.97316 0.70406 0.0
C204 C 0.77157 0.98613 0.77264 0.0
C205 C 0.80307 1.00801 0.80212 0.0
C206 C 0.80794 0.01968 0.86716 0.0
C207 C 0.78144 1.01 0.90394 0.0
C208 C 0.74995 0.98829 0.87433 0.0
C209 C 0.74509 0.97647 0.80939 0.0
C210 C 0.72652 0.97065 0.49286 0.0
C211 C 0.80152 0.96834 0.49657 0.0
C212 C 0.78939 0.05597 0.382 0.0
C213 C 0.7978 0.05498 0.3155 0.0
C214 C 0.79814 0.02778 0.28758 0.0
C215 C 0.79874 0.02349 0.22101 0.0
C216 C 0.79913 0.04636 0.18107 0.0
C217 C 0.80103 0.07464 0.20985 0.0
C218 C 0.80012 0.07877 0.27644 0.0
C219 C 0.84824 0.05464 0.56164 0.0
O220 O 0.77397 0.0373 0.64725 0.0
O221 O 0.77367 0.06045 0.55522 0.0
O222 O 0.74441 0.97631 0.66823 0.0
O223 O 0.79128 0.97905 0.67433 0.0
O224 O 0.73783 0.9549 0.52291 0.0
O225 O 0.74303 0.99935 0.51796 0.0
O226 O 0.7899 0.98229 0.45745 0.0
O227 O 0.80772 0.97936 0.5573 0.0
O228 O 0.81273 0.07108 0.42867 0.0
O229 O 0.76627 0.02855 0.39741 0.0
O230 O 0.84211 0.04276 0.5019 0.0
O231 O 0.82118 0.04812 0.58336 0.0
H232 H 0.82401 0.01609 0.77512 0.0
H233 H 0.83245 0.03641 0.88873 0.0
H234 H 0.72911 0.97989 0.90174 0.0
H235 H 0.72059 0.95957 0.78792 0.0
H236 H 0.79613 1.00898 0.31677 0.0
H237 H 0.79727 1.00146 0.20044 0.0
H238 H 0.8023 0.09316 0.1807 0.0
H239 H 0.79973 0.09985 0.297 0.0
Ho240 Ho 0.66998 0.57032 0.78866 0.0
Ho241 Ho 0.71282 0.58664 0.90332 0.0
C242 C 0.72947 0.55445 0.79378 0.0
C243 C 0.64305 0.5708 0.67612 0.0
C244 C 0.65293 0.57433 0.60908 0.0
C245 C 0.68547 0.59434 0.59674 0.0
C246 C 0.69422 0.5971 0.53317 0.0
C247 C 0.67076 0.57966 0.48018 0.0
C248 C 0.63817 0.56003 0.49285 0.0
C249 C 0.62943 0.5574 0.5563 0.0
C250 C 0.64594 0.51735 0.85774 0.0
C251 C 0.65391 0.59859 0.9228 0.0
C252 C 0.73978 0.59647 1.02089 0.0
C253 C 0.72867 0.59446 0.08678 0.0
C254 C 0.69605 0.57371 0.09744 0.0
C255 C 0.68618 0.57154 0.16005 0.0
C256 C 0.70868 0.58984 0.214 0.0
C257 C 0.74118 0.61108 0.20276 0.0
C258 C 0.751 0.6133 0.14012 0.0
C259 C 0.73633 0.63115 0.80976 0.0
O260 O 0.71476 0.56676 0.75847 0.0
O261 O 0.72416 0.55171 0.85438 0.0
O262 O 0.63761 0.54443 0.701 0.0
O263 O 0.65904 0.59605 0.71817 0.0
O264 O 0.64926 0.51711 0.79671 0.0
O265 O 0.6592 0.54705 0.88097 0.0
O266 O 0.68029 0.60007 0.94777 0.0
O267 O 0.64328 0.58691 0.86043 0.0
O268 O 0.74103 0.61959 0.98858 0.0
O269 O 0.72794 0.56914 0.98425 0.0
O270 O 0.75361 0.62162 0.84207 0.0
O271 O 0.70894 0.61711 0.83054 0.0
H272 H 0.70423 0.60768 0.63625 0.0
H273 H 0.71953 0.61246 0.52558 0.0
H274 H 0.61925 0.54681 0.45352 0.0
H275 H 0.60416 0.54201 0.56415 0.0
H276 H 0.67812 0.55922 0.05726 0.0
H277 H 0.66077 0.5557 0.16603 0.0
H278 H 0.75927 0.62558 0.24268 0.0
H279 H 0.77626 0.6296 0.13344 0.0
Ho280 Ho 0.45872 0.107 0.80712 0.0
Ho281 Ho 0.44793 0.13344 0.91785 0.0
C282 C 0.47076 0.18126 0.81758 0.0
C283 C 0.45515 0.07787 0.69452 0.0
C284 C 0.45454 0.08593 0.62686 0.0
C285 C 0.44004 0.10392 0.60798 0.0
C286 C 0.43849 0.1105 0.54369 0.0
C287 C 0.4517 0.09962 0.49652 0.0
C288 C 0.46589 0.08131 0.51545 0.0
C289 C 0.46732 0.07459 0.57987 0.0
C290 C 0.51715 0.14297 0.87951 0.0
C291 C 0.43888 0.06506 0.93678 0.0
C292 C 0.44068 0.15231 1.03195 0.0
C293 C 0.44244 0.14383 0.09883 0.0
C294 C 0.45877 0.12742 0.11679 0.0
C295 C 0.4598 0.11949 0.18037 0.0
C296 C 0.44495 0.12824 0.22756 0.0
C297 C 0.42822 0.14421 0.20897 0.0
C298 C 0.42696 0.15185 0.14542 0.0
C299 C 0.39647 0.10795 0.81835 0.0
O300 O 0.4576 0.15351 0.77889 0.0
O301 O 0.47871 0.1799 0.87767 0.0
O302 O 0.48214 0.09507 0.73187 0.0
O303 O 0.43027 0.07303 0.72438 0.0
O304 O 0.51113 0.14598 0.81992 0.0
O305 O 0.48993 0.12386 0.90097 0.0
O306 O 0.44007 0.09077 0.96358 0.0
O307 O 0.44569 0.06465 0.875 0.0
O308 O 0.41678 0.13012 0.99203 0.0
O309 O 0.46788 0.16674 1.00511 0.0
O310 O 0.40827 0.13571 0.85177 0.0
O311 O 0.41253 0.09569 0.83998 0.0
H312 H 0.4296 0.11269 0.64288 0.0
H313 H 0.42657 0.12386 0.53082 0.0
H314 H 0.47628 0.07249 0.48056 0.0
H315 H 0.47835 0.06043 0.59295 0.0
H316 H 0.47082 0.12081 0.08179 0.0
H317 H 0.47281 0.10712 0.19299 0.0
H318 H 0.41595 0.15072 0.24366 0.0
H319 H 0.4139 0.16416 0.13266 0.0
Ho320 Ho 0.93006 0.36774 0.8042 0.0
Ho321 Ho 0.91312 0.33456 0.8981 0.0
C322 C 0.85347 0.30719 0.81064 0.0
C323 C 0.94185 0.38882 0.6907 0.0
C324 C 0.93638 0.37794 0.62125 0.0
C325 C 0.93173 0.34764 0.598 0.0
C326 C 0.92759 0.3388 0.53137 0.0
C327 C 0.92773 0.35998 0.48707 0.0
C328 C 0.93264 0.39032 0.51088 0.0
C329 C 0.93683 0.39913 0.57717 0.0
C330 C 0.919 0.4065 0.88565 0.0
C331 C 0.97888 0.39383 0.93668 0.0
C332 C 0.90668 0.30595 1.00332 0.0
C333 C 0.90924 0.31403 0.07336 0.0
C334 C 0.9133 0.34374 0.09874 0.0
C335 C 0.91617 0.35108 0.16556 0.0
C336 C 0.91496 0.32881 0.20816 0.0
C337 C 0.9114 0.2993 0.18237 0.0
C338 C 0.90851 0.29199 0.1156 0.0
C339 C 0.9327 0.30686 0.79779 0.0
O340 O 0.87794 0.32041 0.77305 0.0
O341 O 0.86169 0.3175 0.87106 0.0
O342 O 0.91668 0.38441 0.7193 0.0
O343 O 0.96106 0.38284 0.72651 0.0
O344 O 0.94445 0.41555 0.85555 0.0
O345 O 0.90111 0.37514 0.87683 0.0
O346 O 0.95088 0.37816 0.95871 0.0
O347 O 0.97883 0.3906 0.87273 0.0
O348 O 0.93367 0.32063 0.97657 0.0
O349 O 0.88258 0.30496 0.96848 0.0
O350 O 0.90577 0.29232 0.82385 0.0
O351 O 0.94734 0.33526 0.82503 0.0
H352 H 0.93134 0.33092 0.63121 0.0
H353 H 0.92393 0.31528 0.51446 0.0
H354 H 0.93367 0.40749 0.47815 0.0
H355 H 0.94072 0.42274 0.5941 0.0
H356 H 0.91432 0.36126 0.06693 0.0
H357 H 0.91963 0.37432 0.18393 0.0
H358 H 0.91039 0.28168 0.21385 0.0
H359 H 0.90568 0.26904 0.0969 0.0
Ho360 Ho 0.70327 0.13601 0.9257 0.0
Ho361 Ho 0.66335 0.11201 0.80718 0.0
C362 C 0.64017 0.06838 0.93422 0.0
C363 C 0.73035 0.15112 0.04364 0.0
C364 C 0.71999 0.1419 0.10866 0.0
C365 C 0.68853 0.13303 0.12424 0.0
C366 C 0.67966 0.125 0.18652 0.0
C367 C 0.70204 0.12572 0.23466 0.0
C368 C 0.73313 0.13358 0.21806 0.0
C369 C 0.74198 0.14162 0.15594 0.0
C370 C 0.72694 0.11242 0.82886 0.0
C371 C 0.72878 0.18519 0.8237 0.0
C372 C 0.63575 0.08378 0.69191 0.0
C373 C 0.64597 0.08926 0.62552 0.0
C374 C 0.67774 0.09787 0.61259 0.0
C375 C 0.68697 0.10267 0.54978 0.0
C376 C 0.66493 0.09971 0.49823 0.0
C377 C 0.63305 0.09082 0.51129 0.0
C378 C 0.62371 0.08564 0.57409 0.0
C379 C 0.64249 0.14615 0.88004 0.0
O380 O 0.66565 0.0929 0.96635 0.0
O381 O 0.63381 0.06905 0.87067 0.0
O382 O 0.72971 0.12852 1.00441 0.0
O383 O 0.71973 0.16807 1.01444 0.0
O384 O 0.74422 0.13834 0.8678 0.0
O385 O 0.69861 0.10015 0.84537 0.0
O386 O 0.71111 0.15803 0.78375 0.0
O387 O 0.72328 0.1838 0.88468 0.0
O388 O 0.63129 0.10563 0.72176 0.0
O389 O 0.65096 0.07413 0.73028 0.0
O390 O 0.64891 0.14976 0.8208 0.0
O391 O 0.65157 0.12689 0.90047 0.0
H392 H 0.67089 0.13257 0.08847 0.0
H393 H 0.65548 0.11893 0.19744 0.0
H394 H 0.7507 0.13351 0.25318 0.0
H395 H 0.76618 0.1478 0.14489 0.0
H396 H 0.69554 0.10097 0.65104 0.0
H397 H 0.71143 0.10858 0.54166 0.0
H398 H 0.61541 0.08839 0.47308 0.0
H399 H 0.59907 0.07898 0.58255 0.0
Ho400 Ho 0.90528 0.5883 0.9045 0.0
Ho401 Ho 0.92677 0.57098 0.79708 0.0
C402 C 0.9766 0.60219 0.93293 0.0
C403 C 0.88925 0.59885 1.0166 0.0
C404 C 0.89865 0.59777 0.08502 0.0
C405 C 0.9156 0.58186 0.10198 0.0
C406 C 0.9228 0.57964 0.16703 0.0
C407 C 0.91317 0.59324 0.21659 0.0
C408 C 0.89701 0.60994 0.19929 0.0
C409 C 0.88976 0.61207 0.13426 0.0
C410 C 0.92292 0.63214 0.80953 0.0
C411 C 0.85163 0.55487 0.79377 0.0
C412 C 0.95342 0.57086 0.6914 0.0
C413 C 0.94735 0.57428 0.62253 0.0
C414 C 0.93183 0.59135 0.60372 0.0
C415 C 0.92663 0.59454 0.53828 0.0
C416 C 0.93656 0.58051 0.49016 0.0
C417 C 0.95238 0.56376 0.50944 0.0
C418 C 0.95765 0.56065 0.57478 0.0
C419 C 0.89812 0.5176 0.86396 0.0
O420 O 0.95368 0.60607 0.95468 0.0
O421 O 0.97184 0.58716 0.87353 0.0
O422 O 0.91116 0.62165 0.98624 0.0
O423 O 0.87373 0.57109 0.98097 0.0
O424 O 0.89669 0.62186 0.83868 0.0
O425 O 0.93745 0.6188 0.83295 0.0
O426 O 0.8774 0.56719 0.75988 0.0
O427 O 0.85693 0.55262 0.85466 0.0
O428 O 0.93187 0.54468 0.71421 0.0
O429 O 0.96307 0.59637 0.73183 0.0
O430 O 0.89187 0.51823 0.80311 0.0
O431 O 0.91686 0.5471 0.88872 0.0
H432 H 0.92298 0.57085 0.0649 0.0
H433 H 0.93591 0.56725 0.17855 0.0
H434 H 0.88925 0.62069 0.23607 0.0
H435 H 0.87674 0.62453 0.1224 0.0
H436 H 0.92367 0.60216 0.63959 0.0
H437 H 0.91439 0.6076 0.52524 0.0
H438 H 0.96103 0.55329 0.47396 0.0
H439 H 0.96992 0.54765 0.58807 0.0
Ho440 Ho 0.4495 0.33924 0.91394 0.0
Ho441 Ho 0.46151 0.36733 0.81761 0.0
C442 C 0.44184 0.39817 0.93879 0.0
C443 C 0.43572 0.31494 1.02426 0.0
C444 C 0.44019 0.32556 0.09396 0.0
C445 C 0.46367 0.35712 0.11983 0.0
C446 C 0.46678 0.36648 0.18607 0.0
C447 C 0.44646 0.34447 0.22773 0.0
C448 C 0.4227 0.31307 0.20119 0.0
C449 C 0.41967 0.30375 0.13516 0.0
C450 C 0.39632 0.30746 0.81528 0.0
C451 C 0.46974 0.30427 0.81914 0.0
C452 C 0.47893 0.39657 0.71281 0.0
C453 C 0.46833 0.39115 0.64292 0.0
C454 C 0.44382 0.36063 0.61383 0.0
C455 C 0.4387 0.35417 0.54634 0.0
C456 C 0.45822 0.37798 0.50679 0.0
C457 C 0.48145 0.40899 0.53623 0.0
C458 C 0.4865 0.41544 0.60349 0.0
C459 C 0.51637 0.41253 0.92053 0.0
O460 O 0.45296 0.38209 0.96782 0.0
O461 O 0.43893 0.39433 0.8742 0.0
O462 O 0.41681 0.32136 0.98843 0.0
O463 O 0.46134 0.31986 0.99631 0.0
O464 O 0.40934 0.29411 0.84827 0.0
O465 O 0.41188 0.33694 0.83558 0.0
O466 O 0.45747 0.3179 0.78128 0.0
O467 O 0.47671 0.31585 0.87956 0.0
O468 O 0.48769 0.37677 0.73349 0.0
O469 O 0.46209 0.40213 0.75322 0.0
O470 O 0.50134 0.38256 0.89563 0.0
O471 O 0.50062 0.38248 0.89459 0.0
H472 H 0.4795 0.37453 0.08887 0.0
H473 H 0.48488 0.39106 0.20457 0.0
H474 H 0.40672 0.29549 0.23172 0.0
H475 H 0.40119 0.27935 0.11618 0.0
H476 H 0.42969 0.34139 0.64329 0.0
H477 H 0.42054 0.33007 0.52521 0.0
H478 H 0.49639 0.42808 0.50722 0.0
H479 H 0.50566 0.43907 0.62479 0.0
Ho480 Ho 0.37448 0.926 0.25095 0.0
Ho481 Ho 0.33457 0.89702 0.13766 0.0
C482 C 0.31236 0.84896 0.23848 0.0
C483 C 0.39817 0.94755 0.37082 0.0
C484 C 0.38756 0.94194 0.43649 0.0
C485 C 0.35454 0.9257 0.44739 0.0
C486 C 0.34545 0.91964 0.51023 0.0
C487 C 0.36917 0.92937 0.56316 0.0
C488 C 0.40214 0.94633 0.55191 0.0
C489 C 0.41118 0.95246 0.48938 0.0
C490 C 0.4076 0.90839 0.17241 0.0
C491 C 0.3945 0.96498 0.1238 0.0
C492 C 0.30616 0.88146 1.02008 0.0
C493 C 0.31577 0.88766 0.95371 0.0
C494 C 0.34825 0.90075 0.94062 0.0
C495 C 0.35695 0.9075 0.87789 0.0
C496 C 0.33334 0.9009 0.8264 0.0
C497 C 0.30082 0.88786 0.83997 0.0
C498 C 0.29219 0.88138 0.90283 0.0
C499 C 0.30936 0.92097 0.23087 0.0
O500 O 0.33039 0.87686 0.27632 0.0
O501 O 0.31454 0.84943 0.17645 0.0
O502 O 0.39958 0.92409 0.33924 0.0
O503 O 0.38611 0.96081 0.33386 0.0
O504 O 0.41947 0.93554 0.208 0.0
O505 O 0.37688 0.89094 0.17814 0.0
O506 O 0.3775 0.93551 0.09582 0.0
O507 O 0.394 0.96935 0.18747 0.0
O508 O 0.31076 0.90653 0.0572 0.0
O509 O 0.31439 0.86323 0.05093 0.0
O510 O 0.29346 0.89297 0.19731 0.0
O511 O 0.33731 0.93485 0.21194 0.0
H512 H 0.33585 0.91737 0.40733 0.0
H513 H 0.31986 0.90662 0.51726 0.0
H514 H 0.42103 0.95482 0.59161 0.0
H515 H 0.43677 0.96523 0.48224 0.0
H516 H 0.36693 0.90586 0.97887 0.0
H517 H 0.38229 0.91821 0.86989 0.0
H518 H 0.2819 0.8823 0.80181 0.0
H519 H 0.26697 0.87142 0.91172 0.0
Ho520 Ho 0.13343 0.44441 0.16045 0.0
Ho521 Ho 0.12392 0.472 0.27276 0.0
C522 C 0.14818 0.52013 0.17103 0.0
C523 C 0.12871 0.4152 0.04755 0.0
C524 C 0.13074 0.42441 0.98033 0.0
C525 C 0.11491 0.44064 0.95772 0.0
C526 C 0.11469 0.44707 0.89314 0.0
C527 C 0.13058 0.43782 0.84948 0.0
C528 C 0.14677 0.42196 0.87222 0.0
C529 C 0.14674 0.41524 0.93689 0.0
C530 C 0.19197 0.47941 0.23229 0.0
C531 C 0.11405 0.40319 0.29117 0.0
C532 C 0.1161 0.49036 0.38657 0.0
C533 C 0.12008 0.48323 0.45361 0.0
C534 C 0.14022 0.47075 0.47121 0.0
C535 C 0.14244 0.46279 0.53428 0.0
C536 C 0.12491 0.46754 0.58149 0.0
C537 C 0.10487 0.48016 0.56344 0.0
C538 C 0.10246 0.48783 0.5003 0.0
C539 C 0.07202 0.44514 0.1733 0.0
O540 O 0.13422 0.492 0.13304 0.0
O541 O 0.15435 0.51895 0.23229 0.0
O542 O 0.15523 0.42895 0.0871 0.0
O543 O 0.10436 0.41334 0.07543 0.0
O544 O 0.18614 0.48262 0.17274 0.0
O545 O 0.16462 0.4612 0.25388 0.0
O546 O 0.12144 0.43115 0.32011 0.0
O547 O 0.11673 0.40115 0.22728 0.0
O548 O 0.09277 0.4665 0.34822 0.0
O549 O 0.14257 0.50651 0.3581 0.0
O550 O 0.08374 0.47301 0.20616 0.0
O551 O 0.08833 0.43353 0.1962 0.0
H552 H 0.10225 0.44804 0.98975 0.0
H553 H 0.10214 0.45945 0.87734 0.0
H554 H 0.15886 0.41412 0.83964 0.0
H555 H 0.15882 0.40243 0.95273 0.0
H556 H 0.15382 0.46662 0.43593 0.0
H557 H 0.15739 0.4523 0.54563 0.0
H558 H 0.09114 0.48433 0.59835 0.0
H559 H 0.08666 0.49728 0.48786 0.0
Ho560 Ho 0.57304 0.6645 0.2469 0.0
Ho561 Ho 0.58835 0.69949 0.14926 0.0
C562 C 0.56181 0.72799 0.24006 0.0
C563 C 0.56577 0.64159 0.35892 0.0
C564 C 0.57315 0.65176 0.42877 0.0
C565 C 0.59947 0.68206 0.45411 0.0
C566 C 0.60605 0.69037 0.52103 0.0
C567 C 0.58648 0.66848 0.56358 0.0
C568 C 0.56 0.63838 0.53767 0.0
C569 C 0.55349 0.63011 0.47105 0.0
C570 C 0.52174 0.62899 0.15706 0.0
C571 C 0.59174 0.63911 0.11792 0.0
C572 C 0.60915 0.72755 0.04509 0.0
C573 C 0.60562 0.71861 0.97518 0.0
C574 C 0.58111 0.6881 0.94646 0.0
C575 C 0.57926 0.67974 0.8803 0.0
C576 C 0.60195 0.70171 0.84185 0.0
C577 C 0.62643 0.73221 0.871 0.0
C578 C 0.6283 0.7405 0.93707 0.0
C579 C 0.63752 0.72488 0.25415 0.0
O580 O 0.57198 0.71252 0.27828 0.0
O581 O 0.55808 0.71946 0.17867 0.0
O582 O 0.5901 0.64763 0.3259 0.0
O583 O 0.54459 0.6468 0.32808 0.0
O584 O 0.53706 0.61818 0.19068 0.0
O585 O 0.53646 0.66018 0.16887 0.0
O586 O 0.57858 0.65446 0.09296 0.0
O587 O 0.59733 0.64286 0.18216 0.0
O588 O 0.62402 0.71643 0.08041 0.0
O589 O 0.58392 0.72535 0.07067 0.0
O590 O 0.62613 0.74074 0.22529 0.0
O591 O 0.62195 0.69651 0.22696 0.0
H592 H 0.61486 0.69921 0.4223 0.0
H593 H 0.62657 0.71379 0.53955 0.0
H594 H 0.54397 0.62133 0.56894 0.0
H595 H 0.53297 0.60669 0.45245 0.0
H596 H 0.56349 0.67077 0.97511 0.0
H597 H 0.55983 0.65625 0.85905 0.0
H598 H 0.64435 0.74954 0.84277 0.0
H599 H 0.64766 0.764 0.95855 0.0
Ho600 Ho 0.37377 0.46582 0.26112 0.0
Ho601 Ho 0.33262 0.439 0.14845 0.0
C602 C 0.31412 0.39771 0.2733 0.0
C603 C 0.40248 0.47829 0.3779 0.0
C604 C 0.39247 0.47131 0.44391 0.0
C605 C 0.36014 0.45962 0.45719 0.0
C606 C 0.35108 0.45228 0.51959 0.0
C607 C 0.37417 0.45663 0.5703 0.0
C608 C 0.40654 0.46861 0.5568 0.0
C609 C 0.41551 0.47568 0.49432 0.0
C610 C 0.3978 0.44395 0.16126 0.0
C611 C 0.39419 0.51664 0.1671 0.0
C612 C 0.30833 0.41987 1.02807 0.0
C613 C 0.31896 0.42448 0.96214 0.0
C614 C 0.35155 0.43646 0.95061 0.0
C615 C 0.36066 0.44032 0.88741 0.0
C616 C 0.33738 0.43234 0.83431 0.0
C617 C 0.30486 0.42064 0.84649 0.0
C618 C 0.2958 0.41666 0.90947 0.0
C619 C 0.301 0.45603 0.23227 0.0
O620 O 0.33099 0.42692 0.30238 0.0
O621 O 0.3138 0.39435 0.20911 0.0
O622 O 0.39653 0.45336 0.3386 0.0
O623 O 0.39592 0.49824 0.34935 0.0
O624 O 0.41411 0.47141 0.19674 0.0
O625 O 0.37025 0.42968 0.18181 0.0
O626 O 0.37658 0.48945 0.12683 0.0
O627 O 0.39232 0.51446 0.22886 0.0
O628 O 0.31776 0.40421 0.0642 0.0
O629 O 0.30985 0.44469 0.0607 0.0
O630 O 0.28831 0.42943 0.19452 0.0
O631 O 0.33157 0.4731 0.22533 0.0
H632 H 0.34188 0.45623 0.41945 0.0
H633 H 0.32606 0.44366 0.52837 0.0
H634 H 0.42491 0.47214 0.5945 0.0
H635 H 0.44056 0.48452 0.48534 0.0
H636 H 0.36996 0.44292 0.99041 0.0
H637 H 0.38592 0.44941 0.88006 0.0
H638 H 0.28638 0.41508 0.80738 0.0
H639 H 0.27056 0.4076 0.91708 0.0
Ho640 Ho 0.58981 0.90119 0.14145 0.0
Ho641 Ho 0.57816 0.92774 0.2526 0.0
C642 C 0.59579 0.96832 0.12078 0.0
C643 C 0.59954 0.88421 1.02816 0.0
C644 C 0.59551 0.89145 0.96109 0.0
C645 C 0.57468 0.90312 0.94331 0.0
C646 C 0.57227 0.91108 0.88026 0.0
C647 C 0.59032 0.90714 0.83313 0.0
C648 C 0.61121 0.89553 0.85144 0.0
C649 C 0.6138 0.88785 0.91457 0.0
C650 C 0.64054 0.92702 0.2429 0.0
C651 C 0.56569 0.85308 0.24185 0.0
C652 C 0.58099 0.95641 0.3651 0.0
C653 C 0.58048 0.94803 0.43285 0.0
C654 C 0.59831 0.93379 0.45562 0.0
C655 C 0.5994 0.92782 0.52044 0.0
C656 C 0.58246 0.93558 0.56424 0.0
C657 C 0.56449 0.94966 0.54135 0.0
C658 C 0.56359 0.95586 0.47647 0.0
C659 C 0.5203 0.89065 0.17945 0.0
O660 O 0.59099 0.94109 0.09318 0.0
O661 O 0.59222 0.97026 0.18431 0.0
O662 O 0.62201 0.90842 0.06721 0.0
O663 O 0.57306 0.86689 0.05588 0.0
O664 O 0.62931 0.89957 0.20891 0.0
O665 O 0.62438 0.93904 0.22054 0.0
O666 O 0.57857 0.88085 0.28062 0.0
O667 O 0.55912 0.85442 0.18086 0.0
O668 O 0.55432 0.94024 0.32631 0.0
O669 O 0.60604 0.96066 0.33662 0.0
O670 O 0.52611 0.88799 0.23937 0.0
O671 O 0.54755 0.90994 0.15852 0.0
H672 H 0.56054 0.90649 0.97836 0.0
H673 H 0.55665 0.92081 0.8688 0.0
H674 H 0.62542 0.89206 0.81668 0.0
H675 H 0.6302 0.87912 0.92712 0.0
H676 H 0.61172 0.9275 0.42345 0.0
H677 H 0.61336 0.91685 0.53625 0.0
H678 H 0.55161 0.95646 0.57391 0.0
H679 H 0.54999 0.96718 0.46055 0.0
Ho680 Ho 0.1182 0.66901 0.273 0.0
Ho681 Ho 0.133 0.70543 0.17486 0.0
C682 C 0.10971 0.72821 0.30107 0.0
C683 C 0.10024 0.6399 0.37714 0.0
C684 C 0.10407 0.64839 0.44727 0.0
C685 C 0.12567 0.68007 0.47534 0.0
C686 C 0.12861 0.68753 0.54214 0.0
C687 C 0.11012 0.66339 0.58198 0.0
C688 C 0.08827 0.6318 0.55339 0.0
C689 C 0.08533 0.62439 0.48669 0.0
C690 C 0.07057 0.64351 0.16539 0.0
C691 C 0.14743 0.64314 0.18013 0.0
C692 C 0.13922 0.728 0.06271 0.0
C693 C 0.13422 0.71677 0.99361 0.0
C694 C 0.1122 0.6844 0.9699 0.0
C695 C 0.10746 0.67477 0.90362 0.0
C696 C 0.12481 0.69733 0.86008 0.0
C697 C 0.14676 0.72967 0.8843 0.0
C698 C 0.15142 0.73925 0.95036 0.0
C699 C 0.18365 0.7402 0.26629 0.0
O700 O 0.12183 0.71218 0.32803 0.0
O701 O 0.10736 0.72669 0.23675 0.0
O702 O 0.08305 0.64887 0.34263 0.0
O703 O 0.12621 0.64485 0.35072 0.0
O704 O 0.08195 0.62797 0.19524 0.0
O705 O 0.08483 0.67139 0.19448 0.0
O706 O 0.13776 0.65941 0.14272 0.0
O707 O 0.14786 0.64828 0.24198 0.0
O708 O 0.1626 0.72754 0.09711 0.0
O709 O 0.11329 0.71796 0.09285 0.0
O710 O 0.1675 0.75104 0.23533 0.0
O711 O 0.16927 0.70918 0.2523 0.0
H712 H 0.14028 0.69898 0.44569 0.0
H713 H 0.14564 0.71208 0.56279 0.0
H714 H 0.07317 0.61286 0.58253 0.0
H715 H 0.06829 0.59988 0.46581 0.0
H716 H 0.09856 0.66667 1.00249 0.0
H717 H 0.08994 0.64981 0.88638 0.0
H718 H 0.1606 0.74756 0.85212 0.0
H719 H 0.16846 0.76434 0.96773 0.0
C720 C 0.10369 0.34738 0.3266 0.0
C721 C 0.10126 0.37555 0.33548 0.0
C722 C 0.09273 0.32355 0.37191 0.0
C723 C 0.07983 0.32701 0.42971 0.0
H724 H 0.11387 0.34354 0.28433 0.0
H725 H 0.09372 0.30171 0.36084 0.0
S726 S 0.06335 0.39307 0.47252 0.0
N727 N 0.08062 0.40258 0.40485 0.0
N728 N 0.06267 0.3595 0.48901 0.0
C729 C 0.07707 0.35469 0.43868 0.0
C730 C 0.08708 0.37831 0.3922 0.0
C731 C 0.69559 0.77899 0.40503 0.0
C732 C 0.70483 0.75873 0.43544 0.0
C733 C 0.67431 0.76818 0.34682 0.0
C734 C 0.66118 0.73655 0.31535 0.0
H735 H 0.70508 0.80362 0.42614 0.0
H736 H 0.66805 0.78486 0.32631 0.0
S737 S 0.67653 0.67327 0.37515 0.0
N738 N 0.69733 0.70458 0.42998 0.0
N739 N 0.65962 0.68528 0.32032 0.0
C740 C 0.67035 0.71617 0.34523 0.0
C741 C 0.69142 0.72692 0.40499 0.0
C742 C 0.30896 0.97499 0.37741 0.0
C743 C 0.27785 0.95672 0.39921 0.0
C744 C 0.31891 0.96336 0.32411 0.0
C745 C 0.29831 0.93276 0.28883 0.0
H746 H 0.32545 0.99924 0.40025 0.0
H747 H 0.34281 0.97903 0.3094 0.0
S748 S 0.21371 0.87565 0.32323 0.0
N749 N 0.22612 0.9066 0.3786 0.0
N750 N 0.24465 0.88467 0.28049 0.0
C751 C 0.26718 0.91419 0.31035 0.0
C752 C 0.25703 0.92614 0.36448 0.0
C753 C 0.3404 0.10323 0.66932 0.0
C754 C 0.32814 0.07174 0.63778 0.0
C755 C 0.36198 0.11464 0.7273 0.0
C756 C 0.3722 0.09507 0.75774 0.0
H757 H 0.33333 0.11936 0.64899 0.0
H758 H 0.37085 0.13917 0.74828 0.0
S759 S 0.34642 1.01026 0.69748 0.0
N760 N 0.32893 0.02158 0.64242 0.0
N761 N 0.36616 0.04155 0.75266 0.0
C762 C 0.35944 0.06334 0.72751 0.0
C763 C 0.33844 0.05214 0.66758 0.0
C764 C 0.92352 0.26161 0.71023 0.0
C765 C 0.94319 0.29368 0.74051 0.0
C766 C 0.93266 0.24943 0.65599 0.0
C767 C 0.96205 0.26855 0.62831 0.0
H768 H 0.90065 0.24561 0.72858 0.0
H769 H 0.91652 0.22461 0.63582 0.0
S770 S 0.02196 0.35463 0.68613 0.0
N771 N 0.99372 0.34423 0.73643 0.0
N772 N 1.00995 0.32219 0.63509 0.0
C773 C 0.98164 0.30074 0.6576 0.0
C774 C 0.97255 0.31298 0.71309 0.0
C775 C 0.78002 0.68329 0.6692 0.0
C776 C 0.7603 0.69645 0.6505 0.0
C777 C 0.77259 0.66231 0.72001 0.0
C778 C 0.7453 0.65368 0.75537 0.0
H779 H 0.80206 0.69027 0.64643 0.0
H780 H 0.78868 0.65318 0.73224 0.0
S781 S 0.68637 0.68212 0.72719 0.0
N782 N 0.71187 0.69829 0.67231 0.0
N783 N 0.69937 0.66145 0.76745 0.0
C784 C 0.72562 0.66669 0.73661 0.0
C785 C 0.7327 0.68721 0.68472 0.0
C786 C 0.97906 0.68932 0.69021 0.0
C787 C 0.95966 0.69831 0.65291 0.0
C788 C 0.9668 0.66788 0.73901 0.0
C789 C 0.93452 0.65467 0.75542 0.0
H790 H 1.00451 0.6998 0.68285 0.0
H791 H 0.9833 0.66237 0.7656 0.0
S792 S 0.87306 0.67018 0.67352 0.0
N793 N 0.90583 0.69151 0.63622 0.0
N794 N 0.88332 0.65255 0.72855 0.0
C795 C 0.91475 0.66336 0.71844 0.0
C796 C 0.92711 0.68474 0.66754 0.0
C797 C 0.33874 0.29754 0.66498 0.0
C798 C 0.32694 0.26564 0.63608 0.0
C799 C 0.36053 0.31049 0.72242 0.0
C800 C 0.37195 0.29239 0.75489 0.0
H801 H 0.33112 0.31289 0.64288 0.0
H802 H 0.36859 0.33513 0.74148 0.0
S803 S 0.35038 0.20824 0.69883 0.0
N804 N 0.33004 0.21687 0.64443 0.0
N805 N 0.37011 0.24072 0.75142 0.0
C806 C 0.36067 0.2606 0.72624 0.0
C807 C 0.33859 0.24746 0.66745 0.0
C808 C 0.71731 0.06955 0.73767 0.0
C809 C 0.73755 0.10085 0.77011 0.0
C810 C 0.72689 0.05759 0.68453 0.0
C811 C 0.75716 0.07618 0.65958 0.0
H812 H 0.6941 0.05356 0.75481 0.0
H813 H 0.71088 0.03269 0.66451 0.0
S814 S 0.81963 0.15989 0.72569 0.0
N815 N 0.78966 0.1505 0.77146 0.0
N816 N 0.80749 0.12792 0.67308 0.0
C817 C 0.77744 0.10774 0.69067 0.0
C818 C 0.76773 0.12001 0.74512 0.0
C819 C 0.67182 0.91817 0.33688 0.0
C820 C 0.66297 0.93867 0.3061 0.0
C821 C 0.69177 0.92824 0.39684 0.0
C822 C 0.70367 0.95926 0.43022 0.0
H823 H 0.66318 0.89393 0.31445 0.0
H824 H 0.69801 0.91151 0.4171 0.0
S825 S 0.68817 0.02273 0.37135 0.0
N826 N 0.66991 0.99261 0.31333 0.0
N827 N 0.7035 1.00987 0.42758 0.0
C828 C 0.69442 0.9797 0.40048 0.0
C829 C 0.6753 0.96995 0.33837 0.0
C830 C 0.05305 0.73696 0.41442 0.0
C831 C 0.07369 0.76592 0.45478 0.0
C832 C 0.06411 0.72644 0.36137 0.0
C833 C 0.09645 0.74424 0.34526 0.0
H834 H 0.02819 0.7217 0.42475 0.0
H835 H 0.04743 0.70328 0.3344 0.0
S836 S 0.16097 0.82126 0.4354 0.0
N837 N 0.12858 0.81215 0.47354 0.0
N838 N 0.14915 0.7921 0.3762 0.0
C839 C 0.11727 0.77323 0.38499 0.0
C840 C 0.106 0.78412 0.43863 0.0
C841 C 0.28696 0.37491 0.37521 0.0
C842 C 0.29864 0.37026 0.31665 0.0
C843 C 0.27683 0.35207 0.42219 0.0
C844 C 0.2783 0.32341 0.41383 0.0
H845 H 0.28579 0.39673 0.38516 0.0
H846 H 0.26743 0.35678 0.46485 0.0
S847 S 0.31258 0.30222 0.27562 0.0
N848 N 0.31402 0.33599 0.25759 0.0
N849 N 0.29628 0.29404 0.34462 0.0
C850 C 0.2911 0.31919 0.35656 0.0
C851 C 0.30087 0.34215 0.30858 0.0
C852 C 0.02115 0.4409 1.01539 0.0
C853 C 1.00826 0.40895 0.98652 0.0
C854 C 0.04149 0.4524 0.07477 0.0
C855 C 0.04977 0.43257 0.10969 0.0
H856 H 1.01428 0.45683 0.99339 0.0
H857 H 0.04991 0.47688 0.09384 0.0
S858 S 0.01946 0.34563 0.0589 0.0
N859 N 1.00431 0.35718 0.99979 0.0
N860 N 0.04064 0.37797 0.11128 0.0
C861 C 0.03639 0.40032 0.08172 0.0
C862 C 1.01629 0.38885 1.0207 0.0
C863 C 0.6051 0.60286 0.96001 0.0
C864 C 0.63701 0.60858 0.97172 0.0
C865 C 0.59002 0.61121 1.00851 0.0
C866 C 0.60554 0.62473 0.07184 0.0
H867 H 0.59175 0.59211 0.91309 0.0
H868 H 0.56594 0.60741 0.99596 0.0
S869 S 0.68989 0.64765 0.12782 0.0
N870 N 0.6844 0.63187 0.05273 0.0
N871 N 0.65508 0.64492 0.14184 0.0
C872 C 0.63713 0.63045 0.08428 0.0
C873 C 0.65299 0.62313 0.03498 0.0
C874 C 0.41628 0.04173 0.04054 0.0
C875 C 0.42902 0.03828 0.98228 0.0
C876 C 0.40757 0.01956 0.08775 0.0
C877 C 0.41039 0.99187 0.07987 0.0
H878 H 0.41231 0.06185 0.05026 0.0
H879 H 0.3971 0.0235 0.12951 0.0
S880 S 0.44425 0.97109 0.9406 0.0
N881 N 0.44553 1.0049 0.92287 0.0
N882 N 0.42842 0.96273 1.01011 0.0
C883 C 0.42343 0.98794 1.02267 0.0
C884 C 0.4328 1.01101 0.97454 0.0
C885 C 0.60695 0.04197 1.02803 0.0
C886 C 0.62227 0.03965 0.97305 0.0
C887 C 0.59868 0.01994 0.07682 0.0
C888 C 0.60659 0.99514 0.0747 0.0
H889 H 0.60201 0.06165 0.03426 0.0
H890 H 0.58618 0.02249 0.1163 0.0
S891 S 0.65229 0.98242 0.9475 0.0
N892 N 0.64739 1.0121 0.92385 0.0
N893 N 0.63458 0.97286 1.01468 0.0
C894 C 0.62325 0.99378 1.02103 0.0
C895 C 0.63042 0.0153 0.97093 0.0
C896 C 0.03669 0.65236 0.07962 0.0
C897 C 0.04933 0.63315 0.10113 0.0
C898 C 1.01583 0.6434 1.0219 0.0
C899 C 1.00628 0.61467 0.98134 0.0
H900 H 0.04208 0.67417 0.10894 0.0
H901 H 1.00579 0.6586 1.01037 0.0
S902 S 0.0344 0.55671 1.01096 0.0
N903 N 0.0522 0.5847 0.07299 0.0
N904 N 1.01288 0.56791 0.96583 0.0
C905 C 0.01986 0.59592 1.00027 0.0
C906 C 0.04119 0.60504 0.05959 0.0
C907 C 0.43661 0.45422 0.07247 0.0
C908 C 0.40754 0.43335 0.09953 0.0
C909 C 0.44626 0.44416 1.01617 0.0
C910 C 0.42697 0.41296 0.98214 0.0
H911 H 0.45268 0.47837 0.09615 0.0
H912 H 0.46986 0.46053 1.00093 0.0
S913 S 0.34932 0.34818 0.03288 0.0
N914 N 0.36033 0.37909 0.08749 0.0
N915 N 0.37756 0.36112 0.9823 0.0
C916 C 0.39766 0.39222 1.00816 0.0
C917 C 0.38818 0.4021 0.06603 0.0
C918 C 0.11215 0.24559 0.47168 0.0
C919 C 0.08804 0.22041 0.50304 0.0
C920 C 0.14363 0.24952 0.46784 0.0
C921 C 0.15296 0.22823 0.49373 0.0
H922 H 0.10745 0.26371 0.45332 0.0
H923 H 0.16155 0.27061 0.44688 0.0
S924 S 0.09859 0.15688 0.57716 0.0
N925 N 0.0758 0.17274 0.55795 0.0
N926 N 0.13401 0.17988 0.54955 0.0
C927 C 0.12853 0.20195 0.52206 0.0
C928 C 0.09658 0.19817 0.52693 0.0
C929 C 0.7806 0.91137 0.52566 0.0
C930 C 0.79745 0.93464 0.48262 0.0
C931 C 0.78079 0.88197 0.52636 0.0
C932 C 0.79775 0.87326 0.48392 0.0
H933 H 0.76797 0.91653 0.5617 0.0
H934 H 0.76826 0.86624 0.56282 0.0
S935 S 0.84501 0.92421 0.35849 0.0
N936 N 0.83098 0.94589 0.39378 0.0
N937 N 0.83112 0.89055 0.39474 0.0
C938 C 0.81364 0.89545 0.4382 0.0
C939 C 0.81355 0.92594 0.43764 0.0
C940 C 0.11046 0.87681 0.44613 0.0
C941 C 0.08909 0.87866 0.48793 0.0
C942 C 0.1419 0.90392 0.44056 0.0
C943 C 0.15363 0.93484 0.47482 0.0
H944 H 0.10392 0.8536 0.42114 0.0
H945 H 0.15801 0.90007 0.41171 0.0
S946 S 0.10681 0.95378 0.58749 0.0
N947 N 0.08204 0.91511 0.56213 0.0
N948 N 0.13985 0.96536 0.55008 0.0
C949 C 0.13173 0.93748 0.51366 0.0
C950 C 0.10003 0.90976 0.52049 0.0
C951 C 0.24853 0.14479 0.62918 0.0
C952 C 0.22206 0.14664 0.59961 0.0
C953 C 0.24905 0.11504 0.62731 0.0
C954 C 0.22297 0.08544 0.59619 0.0
H955 H 0.27014 0.16692 0.64924 0.0
H956 H 0.27117 0.11588 0.64567 0.0
S957 S 0.14643 0.07592 0.51758 0.0
N958 N 0.16803 0.11489 0.54315 0.0
N959 N 0.16888 0.0602 0.54005 0.0
C960 C 0.19562 0.08676 0.57084 0.0
C961 C 0.19516 0.11678 0.57253 0.0
C962 C 0.88493 0.11474 0.60904 0.0
C963 C 0.88132 0.08534 0.58054 0.0
C964 C 0.91485 0.14503 0.61136 0.0
C965 C 0.94264 0.14752 0.58504 0.0
H966 H 0.86396 0.11478 0.626 0.0
H967 H 0.91546 0.16692 0.62996 0.0
S968 S 0.94742 0.07779 0.51116 0.0
N969 N 0.90975 0.06114 0.53064 0.0
N970 N 0.96458 0.11691 0.53416 0.0
C971 C 0.93965 0.11807 0.55983 0.0
C972 C 0.90958 0.0875 0.5579 0.0
C973 C 0.9367 0.82185 0.549 0.0
C974 C 0.93917 0.79976 0.58754 0.0
C975 C 0.9086 0.82509 0.54458 0.0
C976 C 0.88113 0.80641 0.57821 0.0
H977 H 0.95562 0.83509 0.51823 0.0
H978 H 0.90772 0.84126 0.51135 0.0
S979 S 0.87642 0.74757 0.69154 0.0
N980 N 0.91223 0.76066 0.66405 0.0
N981 N 0.86027 0.76699 0.65637 0.0
C982 C 0.88424 0.78581 0.62014 0.0
C983 C 0.91279 0.78237 0.62434 0.0
C984 C 0.8136 0.57333 0.74423 0.0
C985 C 0.81811 0.54943 0.77224 0.0
C986 C 0.7837 0.57342 0.74485 0.0
C987 C 0.75685 0.54947 0.7733 0.0
H988 H 0.83401 0.59348 0.72627 0.0
H989 H 0.78259 0.59377 0.72756 0.0
S990 S 0.75412 0.47882 0.84415 0.0
N991 N 0.79129 0.49922 0.82232 0.0
N992 N 0.73617 0.49925 0.82326 0.0
C993 C 0.76038 0.52416 0.79638 0.0
C994 C 0.79053 0.52413 0.79582 0.0
C995 C 0.48127 0.2621 0.76042 0.0
C996 C 0.46485 0.27044 0.80533 0.0
C997 C 0.48154 0.23223 0.76023 0.0
C998 C 0.46565 0.20961 0.80532 0.0
H999 H 0.49544 0.27942 0.72766 0.0
H1000 H 0.49579 0.22777 0.72713 0.0
S1001 S 0.41804 0.21923 0.93088 0.0
N1002 N 0.43083 0.25211 0.89305 0.0
N1003 N 0.43242 0.1983 0.89465 0.0
C1004 C 0.44839 0.21755 0.84844 0.0
C1005 C 0.4477 0.24716 0.8479 0.0
C1006 C 0.76312 0.23798 0.76831 0.0
C1007 C 0.76088 0.21387 0.80777 0.0
C1008 C 0.79338 0.26732 0.76389 0.0
C1009 C 0.82305 0.27352 0.79712 0.0
H1010 H 0.74112 0.23508 0.7436 0.0
H1011 H 0.79318 0.2859 0.737 0.0
S1012 S 0.83092 0.21827 0.90559 0.0
N1013 N 0.79181 0.19955 0.88118 0.0
N1014 N 0.8473 0.2516 0.86876 0.0
C1015 C 0.82092 0.24874 0.83384 0.0
C1016 C 0.79044 0.21995 0.84023 0.0
C1017 C 0.92693 0.49055 0.9192 0.0
C1018 C 0.89928 0.4878 0.88416 0.0
C1019 C 0.93142 0.4634 0.92431 0.0
C1020 C 0.90832 0.4316 0.8961 0.0
H1021 H 0.9464 0.51427 0.93918 0.0
H1022 H 0.95429 0.46778 0.94779 0.0
S1023 S 0.83048 0.41029 0.80283 0.0
N1024 N 0.84753 0.44966 0.82341 0.0
N1025 N 0.85576 0.39943 0.83415 0.0
C1026 C 0.87973 0.4282 0.86427 0.0
C1027 C 0.87535 0.45591 0.85813 0.0
C1028 C 0.56673 0.46887 0.94104 0.0
C1029 C 0.55142 0.43709 0.90897 0.0
C1030 C 0.59779 0.49413 0.92753 0.0
C1031 C 0.61544 0.48922 0.88052 0.0
H1032 H 0.55406 0.47464 0.97603 0.0
H1033 H 0.6074 0.51808 0.9524 0.0
S1034 S 0.58775 0.41049 0.78381 0.0
N1035 N 0.55785 0.40237 0.82897 0.0
N1036 N 0.61522 0.44906 0.80365 0.0
C1037 C 0.60085 0.45728 0.84943 0.0
C1038 C 0.56933 0.43156 0.86342 0.0
C1039 C 0.58327 0.11903 0.91002 0.0
C1040 C 0.61233 0.14716 0.89783 0.0
C1041 C 0.55288 0.11826 0.91014 0.0
C1042 C 0.54992 0.1456 0.89822 0.0
H1043 H 0.58348 0.09676 0.91525 0.0
H1044 H 0.53119 0.09542 0.91526 0.0
S1045 S 0.61877 0.22601 0.8699 0.0
N1046 N 0.63582 0.20356 0.87825 0.0
N1047 N 0.57987 0.20217 0.87858 0.0
C1048 C 0.57913 0.17412 0.88954 0.0
C1049 C 0.60981 0.17489 0.88934 0.0
C1050 C 0.48788 0.9152 0.13167 0.0
C1051 C 0.48843 0.88956 0.16076 0.0
C1052 C 0.46022 0.91906 0.13018 0.0
C1053 C 0.43129 0.89726 0.15645 0.0
H1054 H 0.5098 0.93389 0.11426 0.0
H1055 H 0.46226 0.94062 0.11169 0.0
S1056 S 0.41864 0.82434 0.233 0.0
N1057 N 0.45619 0.84066 0.21268 0.0
N1058 N 0.4047 0.84776 0.20873 0.0
C1059 C 0.43071 0.87031 0.18153 0.0
C1060 C 0.45902 0.86657 0.18391 0.0
C1061 C 0.17623 0.61086 0.1543 0.0
C1062 C 0.14724 0.61206 0.15762 0.0
C1063 C 0.17643 0.58095 0.15265 0.0
C1064 C 0.14762 0.55048 0.15331 0.0
H1065 H 0.19925 0.63336 0.1572 0.0
H1066 H 0.1996 0.58192 0.15436 0.0
S1067 S 0.06643 0.54022 0.17344 0.0
N1068 N 0.09007 0.57942 0.17037 0.0
N1069 N 0.09017 0.52502 0.16298 0.0
C1070 C 0.1189 0.55172 0.15607 0.0
C1071 C 0.11879 0.5818 0.15939 0.0
C1072 C 0.47522 0.57576 0.10389 0.0
C1073 C 0.48563 0.60555 0.14136 0.0
C1074 C 0.44408 0.54791 0.1064 0.0
C1075 C 0.42191 0.54808 0.14793 0.0
H1076 H 0.49231 0.57321 0.07581 0.0
H1077 H 0.4386 0.52535 0.07995 0.0
S1078 S 0.43578 0.6201 0.25319 0.0
N1079 N 0.46968 0.63354 0.21799 0.0
N1080 N 0.4121 0.5818 0.22395 0.0
C1081 C 0.43126 0.57826 0.18262 0.0
C1082 C 0.46271 0.6067 0.17911 0.0
C1083 C 0.54771 0.76913 0.29455 0.0
C1084 C 0.56748 0.76196 0.2568 0.0
C1085 C 0.54868 0.79961 0.29471 0.0
C1086 C 0.56924 0.82411 0.2567 0.0
H1087 H 0.53006 0.7505 0.32105 0.0
H1088 H 0.53183 0.80316 0.32159 0.0
S1089 S 0.62544 0.81745 0.149 0.0
N1090 N 0.60862 0.783 0.18196 0.0
N1091 N 0.60937 0.83787 0.18021 0.0
C1092 C 0.58942 0.81715 0.22051 0.0
C1093 C 0.58885 0.78691 0.22117 0.0
C1094 C 0.26347 0.82123 0.3036 0.0
C1095 C 0.28405 0.81883 0.26056 0.0
C1096 C 0.23219 0.79445 0.31044 0.0
C1097 C 0.22007 0.76354 0.27617 0.0
H1098 H 0.27039 0.84462 0.32825 0.0
H1099 H 0.2164 0.79863 0.33969 0.0
S1100 S 0.26536 0.74318 0.16211 0.0
N1101 N 0.29049 0.78189 0.18653 0.0
N1102 N 0.23274 0.73212 0.20069 0.0
C1103 C 0.2414 0.76025 0.23679 0.0
C1104 C 0.27295 0.78762 0.22877 0.0
C1105 C 0.27895 0.49463 0.22322 0.0
C1106 C 0.27831 0.46806 0.25046 0.0
C1107 C 0.25192 0.49956 0.2225 0.0
C1108 C 0.2229 0.47843 0.24945 0.0
H1109 H 0.29938 0.51029 0.19773 0.0
H1110 H 0.25305 0.51914 0.19705 0.0
S1111 S 0.20975 0.40659 0.3315 0.0
N1112 N 0.24665 0.42139 0.3084 0.0
N1113 N 0.19686 0.43102 0.30847 0.0
C1114 C 0.22296 0.45309 0.28068 0.0
C1115 C 0.25025 0.44784 0.28064 0.0
C1116 C 0.03045 0.27274 0.08318 0.0
C1117 C 1.00565 0.2421 0.09691 0.0
C1118 C 0.03917 0.27884 1.02001 0.0
C1119 C 0.02354 0.25453 0.96781 0.0
H1120 H 0.04292 0.29235 0.12144 0.0
H1121 H 0.05804 0.30296 1.01188 0.0
S1122 S 0.95926 0.16928 0.97902 0.0
N1123 N 0.96701 0.18667 0.05347 0.0
N1124 N 0.98346 0.19795 0.93548 0.0
C1125 C 0.99913 0.22363 0.98122 0.0
C1126 C 0.99021 0.21748 0.04542 0.0
C1127 C 0.80429 0.78068 0.07372 0.0
C1128 C 0.77609 0.76074 0.10325 0.0
C1129 C 0.80255 0.78698 1.00913 0.0
C1130 C 0.77252 0.77359 0.97119 0.0
H1131 H 0.82794 0.79212 0.10119 0.0
H1132 H 0.8249 0.80308 0.98918 0.0
S1133 S 0.69169 0.7169 1.02307 0.0
N1134 N 0.71731 0.7258 0.08788 0.0
N1135 N 0.71406 0.73747 0.96666 0.0
C1136 C 0.74417 0.75291 0.99955 0.0
C1137 C 0.74594 0.74655 0.0654 0.0
C1138 C 0.23305 1.00928 0.05777 0.0
C1139 C 0.26353 0.02867 0.09354 0.0
C1140 C 0.23043 1.00153 0.99112 0.0
C1141 C 0.25816 1.01277 0.9573 0.0
H1142 H 0.21096 1.00026 0.0814 0.0
H1143 H 0.20638 0.9867 0.96572 0.0
S1144 S 0.34381 0.06279 1.02892 0.0
N1145 N 0.32218 0.05804 0.09049 0.0
N1146 N 0.31721 0.0434 0.96515 0.0
C1147 C 0.28884 0.03214 0.99242 0.0
C1148 C 0.29153 0.04007 0.06046 0.0
C1149 C 1.00763 0.79688 1.01154 0.0
C1150 C 0.02731 0.78632 0.98375 0.0
C1151 C 0.99944 0.79122 0.07493 0.0
C1152 C 1.01055 0.77477 0.11333 0.0
H1153 H 0.99886 0.81006 0.98438 0.0
H1154 H 0.98453 0.80017 0.0943 0.0
S1155 S 0.06041 0.73972 0.06158 0.0
N1156 N 0.05615 0.75698 0.99844 0.0
N1157 N 0.04083 0.74643 0.11743 0.0
C1158 C 0.02988 0.7637 0.08587 0.0
C1159 C 0.0382 0.76943 1.02125 0.0
C1160 C 0.26085 0.26704 0.08513 0.0
C1161 C 0.25446 0.23617 0.09983 0.0
C1162 C 0.26075 0.27448 1.0209 0.0
C1163 C 0.25414 0.25134 0.96864 0.0
H1164 H 0.26629 0.2857 0.12363 0.0
H1165 H 0.26606 0.29865 1.01213 0.0
S1166 S 0.23349 0.16621 0.9813 0.0
N1167 N 0.24003 0.18194 0.05683 0.0
N1168 N 0.23943 0.19569 0.93657 0.0
C1169 C 0.24744 0.2203 0.98286 0.0
C1170 C 0.24768 0.2128 0.0482 0.0
C1171 C 0.81411 0.02755 0.08094 0.0
C1172 C 0.79583 0.03961 0.10962 0.0
C1173 C 0.80979 0.01875 1.01434 0.0
C1174 C 0.78683 0.02141 0.97373 0.0
H1175 H 0.83177 0.02464 0.11031 0.0
H1176 H 0.82398 1.009 0.99472 0.0
S1177 S 0.73359 0.05274 1.02387 0.0
N1178 N 0.75418 0.05427 0.09161 0.0
N1179 N 0.74661 0.03834 0.9664 0.0
C1180 C 0.76885 0.03406 1.00141 0.0
C1181 C 0.77327 0.04308 0.06925 0.0
C1182 C 0.70984 0.61442 0.3261 0.0
C1183 C 0.69851 0.58673 0.28163 0.0
C1184 C 0.70103 0.61198 0.38982 0.0
C1185 C 0.68021 0.58177 0.41216 0.0
H1186 H 0.72546 0.63833 0.31142 0.0
H1187 H 0.71029 0.63407 0.42165 0.0
S1188 S 0.64627 0.50155 0.31776 0.0
N1189 N 0.66704 0.52783 0.26688 0.0
N1190 N 0.65025 0.52338 0.38536 0.0
C1191 C 0.66908 0.55389 0.36856 0.0
C1192 C 0.67822 0.55633 0.30387 0.0
C1193 C 0.44121 0.08331 0.37601 0.0
C1194 C 0.45072 0.10742 0.42801 0.0
C1195 C 0.43963 0.09016 0.31151 0.0
C1196 C 0.44736 0.12137 0.29622 0.0
H1197 H 0.43442 0.05878 0.38523 0.0
H1198 H 0.43176 0.07072 0.27335 0.0
S1199 S 0.47688 0.19387 0.41359 0.0
N1200 N 0.47031 0.16441 0.45882 0.0
N1201 N 0.46698 0.17704 0.33843 0.0
C1202 C 0.45751 0.14578 0.3476 0.0
C1203 C 0.45926 0.13888 0.41309 0.0
C1204 C 0.93877 0.33169 0.3209 0.0
C1205 C 0.91736 0.33623 0.2793 0.0
C1206 C 0.94163 0.33888 0.38801 0.0
C1207 C 0.92318 0.35087 0.41615 0.0
H1208 H 0.95388 0.32304 0.30133 0.0
H1209 H 0.95893 0.33568 0.41794 0.0
S1210 S 0.86113 0.36378 0.3293 0.0
N1211 N 0.87574 0.35128 0.27178 0.0
N1212 N 0.88107 0.36473 0.39748 0.0
C1213 C 0.9011 0.35473 0.37523 0.0
C1214 C 0.89822 0.34745 0.30703 0.0
C1215 C 0.66349 0.09206 0.31388 0.0
C1216 C 0.69326 0.11904 0.30222 0.0
C1217 C 0.65467 0.08581 0.37699 0.0
C1218 C 0.67516 0.10633 0.43138 0.0
H1219 H 0.64693 0.07545 0.27387 0.0
H1220 H 0.63166 0.06455 0.3832 0.0
S1221 S 0.75478 0.18153 0.42702 0.0
N1222 N 0.74262 0.16714 0.35063 0.0
N1223 N 0.72605 0.15571 0.46842 0.0
C1224 C 0.70489 0.13351 0.42023 0.0
C1225 C 0.71391 0.13977 0.35607 0.0
C1226 C 0.93246 0.61648 0.33298 0.0
C1227 C 0.91931 0.58958 0.28603 0.0
C1228 C 0.9379 0.6134 0.39859 0.0
C1229 C 0.93042 0.58327 0.42017 0.0
H1230 H 0.93891 0.64022 0.31883 0.0
H1231 H 0.94842 0.63489 0.4326 0.0
S1232 S 0.89271 0.50479 0.3179 0.0
N1233 N 0.89716 0.53145 0.26676 0.0
N1234 N 0.9073 0.52567 0.3894 0.0
C1235 C 0.91682 0.55613 0.37385 0.0
C1236 C 0.91132 0.55927 0.30713 0.0
C1237 C 0.42247 0.34649 0.33141 0.0
C1238 C 0.45003 0.35389 0.2987 0.0
C1239 C 0.42521 0.35437 0.39837 0.0
C1240 C 0.45564 0.37009 0.43548 0.0
H1241 H 0.39856 0.33466 0.30494 0.0
H1242 H 0.40336 0.34834 0.42119 0.0
S1243 S 0.53491 0.39216 0.37456 0.0
N1244 N 0.50849 0.37614 0.30973 0.0
N1245 N 0.51365 0.39099 0.43488 0.0
C1246 C 0.4833 0.37727 0.40351 0.0
C1247 C 0.48051 0.36921 0.33546 0.0
C1248 C 0.33729 0.92838 0.65633 0.0
C1249 C 0.3598 0.92141 0.6298 0.0
C1250 C 0.32896 0.92179 0.71959 0.0
C1251 C 0.34251 0.90761 0.75894 0.0
H1252 H 0.32645 0.93957 0.62837 0.0
H1253 H 0.31208 0.92832 0.73809 0.0
S1254 S 0.40001 0.88145 0.70947 0.0
N1255 N 0.39393 0.89769 0.64636 0.0
N1256 N 0.37786 0.88467 0.76396 0.0
C1257 C 0.36444 0.89979 0.73214 0.0
C1258 C 0.37312 0.90679 0.66806 0.0
C1259 C 0.10005 0.43604 0.74525 0.0
C1260 C 0.12975 0.44449 0.78042 0.0
C1261 C 0.09869 0.44307 0.68104 0.0
C1262 C 0.12702 0.45915 0.64913 0.0
H1263 H 0.07757 0.42376 0.76755 0.0
H1264 H 0.07515 0.43574 0.65613 0.0
S1265 S 0.21117 0.48804 0.72097 0.0
N1266 N 0.18826 0.47044 0.77899 0.0
N1267 N 0.1859 0.48423 0.65912 0.0
C1268 C 0.1569 0.46772 0.68386 0.0
C1269 C 0.15822 0.46029 0.74914 0.0
C1270 C 0.60046 0.715 0.72754 0.0
C1271 C 0.59965 0.69331 0.7712 0.0
C1272 C 0.59703 0.70715 0.66064 0.0
C1273 C 0.59269 0.67731 0.6347 0.0
H1274 H 0.60295 0.73792 0.7452 0.0
H1275 H 0.59685 0.72422 0.62897 0.0
S1276 S 0.59315 0.61387 0.72833 0.0
N1277 N 0.59708 0.64195 0.78374 0.0
N1278 N 0.59075 0.62722 0.65819 0.0
C1279 C 0.59305 0.65591 0.67788 0.0
C1280 C 0.59648 0.66388 0.74599 0.0
C1281 C 0.37463 0.4662 0.7538 0.0
C1282 C 0.34704 0.43725 0.7668 0.0
C1283 C 0.38333 0.47209 0.69059 0.0
C1284 C 0.36479 0.44936 0.63732 0.0
H1285 H 0.3893 0.48487 0.79268 0.0
H1286 H 0.40443 0.495 0.68324 0.0
S1287 S 0.29247 0.36815 0.64528 0.0
N1288 N 0.30277 0.38442 0.72088 0.0
N1289 N 0.3189 0.39566 0.6026 0.0
C1290 C 0.33764 0.41997 0.6497 0.0
C1291 C 0.32885 0.41389 0.7141 0.0
C1292 C 0.61577 0.93194 0.73297 0.0
C1293 C 0.58766 0.91514 0.76523 0.0
C1294 C 0.61389 0.93867 0.6686 0.0
C1295 C 0.58384 0.9291 0.63348 0.0
H1296 H 0.63954 0.94011 0.75776 0.0
H1297 H 0.63625 0.95164 0.64619 0.0
S1298 S 0.50281 0.88323 0.69381 0.0
N1299 N 0.52862 0.88818 0.75559 0.0
N1300 N 0.52525 0.90122 0.63546 0.0
C1301 C 0.55557 0.91249 0.66511 0.0
C1302 C 0.55744 0.90544 0.73057 0.0
C1303 C 0.11241 0.6985 0.67853 0.0
C1304 C 0.11346 0.67123 0.6531 0.0
C1305 C 0.11567 0.70648 0.74532 0.0
C1306 C 0.12017 0.68754 0.78946 0.0
H1307 H 0.10876 0.71368 0.64652 0.0
H1308 H 0.1145 0.7276 0.76257 0.0
S1309 S 0.1268 0.61485 0.74771 0.0
N1310 N 0.12063 0.626 0.67736 0.0
N1311 N 0.12681 0.64102 0.80272 0.0
C1312 C 0.1214 0.66028 0.76468 0.0
C1313 C 0.11806 0.65214 0.69664 0.0
loop_
_geom_bond_atom_site_label_1
_geom_bond_atom_site_label_2
_geom_bond_distance
_geom_bond_site_symmetry_2
_ccdc_geom_bond_type
Ho0 C3 2.811 . S
Ho0 O20 2.322 1_455 S
Ho0 O22 2.378 . S
Ho0 O23 2.524 1_455 S
Ho0 O24 2.381 . S
Ho0 O25 2.669 . S
Ho0 O27 2.346 . S
Ho0 O31 2.305 1_455 S
Ho1 C12 2.811 . S
Ho1 O21 2.346 . S
Ho1 O25 2.305 1_655 S
Ho1 O26 2.322 1_655 S
Ho1 O28 2.378 . S
Ho1 O29 2.524 1_655 S
Ho1 O30 2.381 . S
Ho1 O31 2.669 . S
C2 O20 1.259 . S
C2 O21 1.268 . S
C3 Ho0 2.811 . S
C3 C4 1.488 . S
C3 O22 1.215 . S
C3 O23 1.289 1_455 S
C4 C3 1.488 . S
C4 C5 1.348 1_455 S
C4 C9 1.413 . S
C5 C4 1.348 1_655 S
C5 C6 1.442 . S
C5 H32 0.930 . S
C6 C5 1.442 . S
C6 C7 1.381 1_655 S
C6 H33 0.931 . S
C7 C6 1.381 1_455 S
C7 C8 1.321 . S
C8 C7 1.321 . S
C8 C9 1.403 . S
C8 H34 0.934 . S
C9 C4 1.413 . S
C9 C8 1.403 . S
C9 H35 0.930 . S
C10 O24 1.275 . S
C10 O25 1.256 . S
C11 O26 1.259 . S
C11 O27 1.268 . S
C12 Ho1 2.811 . S
C12 C13 1.488 . S
C12 O28 1.215 . S
C12 O29 1.289 1_655 S
C13 C12 1.488 . S
C13 C14 1.348 1_655 S
C13 C18 1.413 . S
C14 C13 1.348 1_455 S
C14 C15 1.442 . S
C14 H36 0.930 . S
C15 C14 1.442 . S
C15 C16 1.381 . S
C15 H37 0.931 . S
C16 C15 1.381 . S
C16 C17 1.321 1_455 S
C17 C16 1.321 1_655 S
C17 C18 1.403 . S
C17 H38 0.934 . S
C18 C13 1.413 . S
C18 C17 1.403 . S
C18 H39 0.930 . S
C19 O30 1.275 . S
C19 O31 1.256 . S
O20 Ho0 2.322 1_655 S
O20 C2 1.259 . S
O21 Ho1 2.346 . S
O21 C2 1.268 . S
O22 Ho0 2.378 . S
O22 C3 1.215 . S
O23 Ho0 2.524 1_655 S
O23 C3 1.289 1_655 S
O24 Ho0 2.381 . S
O24 C10 1.275 . S
O25 Ho0 2.669 . S
O25 Ho1 2.305 1_455 S
O25 C10 1.256 . S
O26 Ho1 2.322 1_455 S
O26 C11 1.259 . S
O27 Ho0 2.346 . S
O27 C11 1.268 . S
O28 Ho1 2.378 . S
O28 C12 1.215 . S
O29 Ho1 2.524 1_455 S
O29 C12 1.289 1_455 S
O30 Ho1 2.381 . S
O30 C19 1.275 . S
O31 Ho0 2.305 1_655 S
O31 Ho1 2.669 . S
O31 C19 1.256 . S
H32 C5 0.930 . S
H33 C6 0.931 . S
H34 C8 0.934 . S
H35 C9 0.930 . S
H36 C14 0.930 . S
H37 C15 0.931 . S
H38 C17 0.934 . S
H39 C18 0.930 . S
Ho40 C43 2.811 . S
Ho40 O60 2.322 . S
Ho40 O62 2.378 . S
Ho40 O63 2.524 . S
Ho40 O64 2.381 . S
Ho40 O65 2.669 . S
Ho40 O67 2.346 . S
Ho40 O71 2.305 . S
Ho41 C52 2.811 . S
Ho41 O61 2.346 . S
Ho41 O65 2.305 . S
Ho41 O66 2.322 . S
Ho41 O68 2.378 . S
Ho41 O69 2.524 . S
Ho41 O70 2.381 . S
Ho41 O71 2.669 . S
C42 O60 1.259 . S
C42 O61 1.268 . S
C43 Ho40 2.811 . S
C43 C44 1.488 . S
C43 O62 1.215 . S
C43 O63 1.289 . S
C44 C43 1.488 . S
C44 C45 1.348 . S
C44 C49 1.413 . S
C45 C44 1.348 . S
C45 C46 1.442 . S
C45 H72 0.930 . S
C46 C45 1.442 . S
C46 C47 1.381 . S
C46 H73 0.931 . S
C47 C46 1.381 . S
C47 C48 1.321 . S
C48 C47 1.321 . S
C48 C49 1.403 . S
C48 H74 0.934 . S
C49 C44 1.413 . S
C49 C48 1.403 . S
C49 H75 0.930 . S
C50 O64 1.275 . S
C50 O65 1.256 . S
C51 O66 1.259 . S
C51 O67 1.268 . S
C52 Ho41 2.811 . S
C52 C53 1.488 . S
C52 O68 1.215 . S
C52 O69 1.289 . S
C53 C52 1.488 . S
C53 C54 1.348 . S
C53 C58 1.413 . S
C54 C53 1.348 . S
C54 C55 1.442 . S
C54 H76 0.930 . S
C55 C54 1.442 . S
C55 C56 1.381 . S
C55 H77 0.931 . S
C56 C55 1.381 . S
C56 C57 1.321 . S
C57 C56 1.321 . S
C57 C58 1.403 . S
C57 H78 0.934 . S
C58 C53 1.413 . S
C58 C57 1.403 . S
C58 H79 0.930 . S
C59 O70 1.275 . S
C59 O71 1.256 . S
O60 Ho40 2.322 . S
O60 C42 1.259 . S
O61 Ho41 2.346 . S
O61 C42 1.268 . S
O62 Ho40 2.378 . S
O62 C43 1.215 . S
O63 Ho40 2.524 . S
O63 C43 1.289 . S
O64 Ho40 2.381 . S
O64 C50 1.275 . S
O65 Ho40 2.669 . S
O65 Ho41 2.305 . S
O65 C50 1.256 . S
O66 Ho41 2.322 . S
O66 C51 1.259 . S
O67 Ho40 2.346 . S
O67 C51 1.268 . S
O68 Ho41 2.378 . S
O68 C52 1.215 . S
O69 Ho41 2.524 . S
O69 C52 1.289 . S
O70 Ho41 2.381 . S
O70 C59 1.275 . S
O71 Ho40 2.305 . S
O71 Ho41 2.669 . S
O71 C59 1.256 . S
H72 C45 0.930 . S
H73 C46 0.931 . S
H74 C48 0.934 . S
H75 C49 0.930 . S
H76 C54 0.930 . S
H77 C55 0.931 . S
H78 C57 0.934 . S
H79 C58 0.930 . S
Ho80 C83 2.811 . S
Ho80 O100 2.322 1_565 S
Ho80 O102 2.378 . S
Ho80 O103 2.524 1_565 S
Ho80 O104 2.381 . S
Ho80 O105 2.669 . S
Ho80 O107 2.346 . S
Ho80 O111 2.305 1_565 S
Ho81 C92 2.811 . S
Ho81 O101 2.346 . S
Ho81 O105 2.305 1_545 S
Ho81 O106 2.322 1_545 S
Ho81 O108 2.378 . S
Ho81 O109 2.524 1_545 S
Ho81 O110 2.381 . S
Ho81 O111 2.669 . S
C82 O100 1.259 . S
C82 O101 1.268 . S
C83 Ho80 2.811 . S
C83 C84 1.488 1_565 S
C83 O102 1.215 . S
C83 O103 1.289 1_565 S
C84 C83 1.488 1_545 S
C84 C85 1.348 . S
C84 C89 1.413 1_545 S
C85 C84 1.348 . S
C85 C86 1.442 . S
C85 H112 0.930 . S
C86 C85 1.442 . S
C86 C87 1.381 . S
C86 H113 0.931 . S
C87 C86 1.381 . S
C87 C88 1.321 1_545 S
C88 C87 1.321 1_565 S
C88 C89 1.403 . S
C88 H114 0.934 . S
C89 C84 1.413 1_565 S
C89 C88 1.403 . S
C89 H115 0.930 . S
C90 O104 1.275 . S
C90 O105 1.256 . S
C91 O106 1.259 . S
C91 O107 1.268 . S
C92 Ho81 2.811 . S
C92 C93 1.486 1_545 S
C92 O108 1.215 . S
C92 O109 1.289 1_545 S
C93 C92 1.486 1_565 S
C93 C94 1.354 . S
C93 C98 1.409 1_565 S
C94 C93 1.354 . S
C94 C95 1.442 . S
C94 H116 0.930 . S
C95 C94 1.442 . S
C95 C96 1.381 . S
C95 H117 0.931 . S
C96 C95 1.381 . S
C96 C97 1.321 1_565 S
C97 C96 1.321 1_545 S
C97 C98 1.403 . S
C97 H118 0.934 . S
C98 C93 1.409 1_545 S
C98 C97 1.403 . S
C98 H119 0.930 . S
C99 O110 1.275 . S
C99 O111 1.256 . S
O100 Ho80 2.322 1_545 S
O100 C82 1.259 . S
O101 Ho81 2.346 . S
O101 C82 1.268 . S
O102 Ho80 2.378 . S
O102 C83 1.215 . S
O103 Ho80 2.524 1_545 S
O103 C83 1.289 1_545 S
O104 Ho80 2.381 . S
O104 C90 1.275 . S
O105 Ho80 2.669 . S
O105 Ho81 2.305 1_565 S
O105 C90 1.256 . S
O106 Ho81 2.322 1_565 S
O106 C91 1.259 . S
O107 Ho80 2.346 . S
O107 C91 1.268 . S
O108 Ho81 2.378 . S
O108 C92 1.215 . S
O109 Ho81 2.524 1_565 S
O109 C92 1.289 1_565 S
O110 Ho81 2.381 . S
O110 C99 1.275 . S
O111 Ho80 2.305 1_545 S
O111 Ho81 2.669 . S
O111 C99 1.256 . S
H112 C85 0.930 . S
H113 C86 0.931 . S
H114 C88 0.934 . S
H115 C89 0.930 . S
H116 C94 0.930 . S
H117 C95 0.931 . S
H118 C97 0.934 . S
H119 C98 0.930 . S
Ho120 C123 2.811 . S
Ho120 O140 2.322 1_455 S
Ho120 O142 2.378 . S
Ho120 O143 2.524 1_455 S
Ho120 O144 2.381 . S
Ho120 O145 2.669 . S
Ho120 O147 2.346 . S
Ho120 O151 2.305 1_455 S
Ho121 C132 2.811 . S
Ho121 O141 2.346 . S
Ho121 O145 2.305 1_655 S
Ho121 O146 2.322 1_655 S
Ho121 O148 2.378 . S
Ho121 O149 2.524 1_655 S
Ho121 O150 2.381 . S
Ho121 O151 2.669 . S
C122 O140 1.259 . S
C122 O141 1.268 . S
C123 Ho120 2.811 . S
C123 C124 1.488 . S
C123 O142 1.215 . S
C123 O143 1.289 1_455 S
C124 C123 1.488 . S
C124 C125 1.348 1_455 S
C124 C129 1.413 . S
C125 C124 1.348 1_655 S
C125 C126 1.442 . S
C125 H152 0.930 . S
C126 C125 1.442 . S
C126 C127 1.381 1_655 S
C126 H153 0.931 . S
C127 C126 1.381 1_455 S
C127 C128 1.321 . S
C128 C127 1.321 . S
C128 C129 1.403 . S
C128 H154 0.934 . S
C129 C124 1.413 . S
C129 C128 1.403 . S
C129 H155 0.930 . S
C130 O144 1.275 . S
C130 O145 1.256 . S
C131 O146 1.259 . S
C131 O147 1.268 . S
C132 Ho121 2.811 . S
C132 C133 1.488 . S
C132 O148 1.215 . S
C132 O149 1.289 1_655 S
C133 C132 1.488 . S
C133 C134 1.348 1_655 S
C133 C138 1.413 . S
C134 C133 1.348 1_455 S
C134 C135 1.442 . S
C134 H156 0.930 . S
C135 C134 1.442 . S
C135 C136 1.381 1_455 S
C135 H157 0.931 . S
C136 C135 1.381 1_655 S
C136 C137 1.321 . S
C137 C136 1.321 . S
C137 C138 1.403 . S
C137 H158 0.934 . S
C138 C133 1.413 . S
C138 C137 1.403 . S
C138 H159 0.930 . S
C139 O150 1.275 . S
C139 O151 1.256 . S
O140 Ho120 2.322 1_655 S
O140 C122 1.259 . S
O141 Ho121 2.346 . S
O141 C122 1.268 . S
O142 Ho120 2.378 . S
O142 C123 1.215 . S
O143 Ho120 2.524 1_655 S
O143 C123 1.289 1_655 S
O144 Ho120 2.381 . S
O144 C130 1.275 . S
O145 Ho120 2.669 . S
O145 Ho121 2.305 1_455 S
O145 C130 1.256 . S
O146 Ho121 2.322 1_455 S
O146 C131 1.259 . S
O147 Ho120 2.346 . S
O147 C131 1.268 . S
O148 Ho121 2.378 . S
O148 C132 1.215 . S
O149 Ho121 2.524 1_455 S
O149 C132 1.289 1_455 S
O150 Ho121 2.381 . S
O150 C139 1.275 . S
O151 Ho120 2.305 1_655 S
O151 Ho121 2.669 . S
O151 C139 1.256 . S
H152 C125 0.930 . S
H153 C126 0.931 . S
H154 C128 0.934 . S
H155 C129 0.930 . S
H156 C134 0.930 . S
H157 C135 0.931 . S
H158 C137 0.934 . S
H159 C138 0.930 . S
Ho160 C163 2.811 . S
Ho160 O180 2.322 . S
Ho160 O182 2.378 . S
Ho160 O183 2.524 . S
Ho160 O184 2.381 . S
Ho160 O185 2.669 . S
Ho160 O187 2.346 . S
Ho160 O191 2.305 . S
Ho161 C172 2.811 . S
Ho161 O181 2.346 . S
Ho161 O185 2.305 . S
Ho161 O186 2.322 . S
Ho161 O188 2.378 . S
Ho161 O189 2.524 . S
Ho161 O190 2.381 . S
Ho161 O191 2.669 . S
C162 O180 1.259 . S
C162 O181 1.268 . S
C163 Ho160 2.811 . S
C163 C164 1.488 . S
C163 O182 1.215 . S
C163 O183 1.289 . S
C164 C163 1.488 . S
C164 C165 1.348 . S
C164 C169 1.413 . S
C165 C164 1.348 . S
C165 C166 1.442 . S
C165 H192 0.930 . S
C166 C165 1.442 . S
C166 C167 1.381 . S
C166 H193 0.931 . S
C167 C166 1.381 . S
C167 C168 1.321 . S
C168 C167 1.321 . S
C168 C169 1.403 . S
C168 H194 0.934 . S
C169 C164 1.413 . S
C169 C168 1.403 . S
C169 H195 0.930 . S
C170 O184 1.275 . S
C170 O185 1.256 . S
C171 O186 1.259 . S
C171 O187 1.268 . S
C172 Ho161 2.811 . S
C172 C173 1.488 . S
C172 O188 1.215 . S
C172 O189 1.289 . S
C173 C172 1.488 . S
C173 C174 1.348 . S
C173 C178 1.413 . S
C174 C173 1.348 . S
C174 C175 1.442 . S
C174 H196 0.930 . S
C175 C174 1.442 . S
C175 C176 1.381 . S
C175 H197 0.931 . S
C176 C175 1.381 . S
C176 C177 1.321 . S
C177 C176 1.321 . S
C177 C178 1.403 . S
C177 H198 0.934 . S
C178 C173 1.413 . S
C178 C177 1.403 . S
C178 H199 0.930 . S
C179 O190 1.275 . S
C179 O191 1.256 . S
O180 Ho160 2.322 . S
O180 C162 1.259 . S
O181 Ho161 2.346 . S
O181 C162 1.268 . S
O182 Ho160 2.378 . S
O182 C163 1.215 . S
O183 Ho160 2.524 . S
O183 C163 1.289 . S
O184 Ho160 2.381 . S
O184 C170 1.275 . S
O185 Ho160 2.669 . S
O185 Ho161 2.305 . S
O185 C170 1.256 . S
O186 Ho161 2.322 . S
O186 C171 1.259 . S
O187 Ho160 2.346 . S
O187 C171 1.268 . S
O188 Ho161 2.378 . S
O188 C172 1.215 . S
O189 Ho161 2.524 . S
O189 C172 1.289 . S
O190 Ho161 2.381 . S
O190 C179 1.275 . S
O191 Ho160 2.305 . S
O191 Ho161 2.669 . S
O191 C179 1.256 . S
H192 C165 0.930 . S
H193 C166 0.931 . S
H194 C168 0.934 . S
H195 C169 0.930 . S
H196 C174 0.930 . S
H197 C175 0.931 . S
H198 C177 0.934 . S
H199 C178 0.930 . S
Ho200 C203 2.811 . S
Ho200 O220 2.322 1_565 S
Ho200 O222 2.378 . S
Ho200 O223 2.524 1_565 S
Ho200 O224 2.381 . S
Ho200 O225 2.669 . S
Ho200 O227 2.346 . S
Ho200 O231 2.305 1_565 S
Ho201 C212 2.811 . S
Ho201 O221 2.346 . S
Ho201 O225 2.305 1_545 S
Ho201 O226 2.322 1_545 S
Ho201 O228 2.378 . S
Ho201 O229 2.524 1_545 S
Ho201 O230 2.381 . S
Ho201 O231 2.669 . S
C202 O220 1.259 . S
C202 O221 1.268 . S
C203 Ho200 2.811 . S
C203 C204 1.488 1_565 S
C203 O222 1.215 . S
C203 O223 1.289 1_565 S
C204 C203 1.488 1_545 S
C204 C205 1.348 . S
C204 C209 1.413 1_545 S
C205 C204 1.348 . S
C205 C206 1.442 . S
C205 H232 0.930 . S
C206 C205 1.442 . S
C206 C207 1.381 . S
C206 H233 0.931 . S
C207 C206 1.381 . S
C207 C208 1.321 1_545 S
C208 C207 1.321 1_565 S
C208 C209 1.403 . S
C208 H234 0.934 . S
C209 C204 1.413 1_565 S
C209 C208 1.403 . S
C209 H235 0.930 . S
C210 O224 1.275 . S
C210 O225 1.256 . S
C211 O226 1.259 . S
C211 O227 1.268 . S
C212 Ho201 2.811 . S
C212 C213 1.488 . S
C212 O228 1.215 . S
C212 O229 1.289 1_545 S
C213 C212 1.488 . S
C213 C214 1.348 1_545 S
C213 C218 1.413 . S
C214 C213 1.348 1_565 S
C214 C215 1.442 . S
C214 H236 0.930 . S
C215 C214 1.442 . S
C215 C216 1.381 . S
C215 H237 0.931 . S
C216 C215 1.381 . S
C216 C217 1.321 1_565 S
C217 C216 1.321 1_545 S
C217 C218 1.403 . S
C217 H238 0.934 . S
C218 C213 1.413 . S
C218 C217 1.403 . S
C218 H239 0.930 . S
C219 O230 1.275 . S
C219 O231 1.256 . S
O220 Ho200 2.322 1_545 S
O220 C202 1.259 . S
O221 Ho201 2.346 . S
O221 C202 1.268 . S
O222 Ho200 2.378 . S
O222 C203 1.215 . S
O223 Ho200 2.524 1_545 S
O223 C203 1.289 1_545 S
O224 Ho200 2.381 . S
O224 C210 1.275 . S
O225 Ho200 2.669 . S
O225 Ho201 2.305 1_565 S
O225 C210 1.256 . S
O226 Ho201 2.322 1_565 S
O226 C211 1.259 . S
O227 Ho200 2.346 . S
O227 C211 1.268 . S
O228 Ho201 2.378 . S
O228 C212 1.215 . S
O229 Ho201 2.524 1_565 S
O229 C212 1.289 1_565 S
O230 Ho201 2.381 . S
O230 C219 1.275 . S
O231 Ho200 2.305 1_545 S
O231 Ho201 2.669 . S
O231 C219 1.256 . S
H232 C205 0.930 . S
H233 C206 0.931 . S
H234 C208 0.934 . S
H235 C209 0.930 . S
H236 C214 0.930 . S
H237 C215 0.931 . S
H238 C217 0.934 . S
H239 C218 0.930 . S
Ho240 C243 2.811 . S
Ho240 O260 2.322 . S
Ho240 O262 2.378 . S
Ho240 O263 2.524 . S
Ho240 O264 2.381 . S
Ho240 O265 2.669 . S
Ho240 O267 2.346 . S
Ho240 O271 2.305 . S
Ho241 C252 2.811 . S
Ho241 O261 2.346 . S
Ho241 O265 2.305 . S
Ho241 O266 2.322 . S
Ho241 O268 2.378 . S
Ho241 O269 2.524 . S
Ho241 O270 2.381 . S
Ho241 O271 2.669 . S
C242 O260 1.259 . S
C242 O261 1.268 . S
C243 Ho240 2.811 . S
C243 C244 1.488 . S
C243 O262 1.215 . S
C243 O263 1.289 . S
C244 C243 1.488 . S
C244 C245 1.348 . S
C244 C249 1.413 . S
C245 C244 1.348 . S
C245 C246 1.442 . S
C245 H272 0.930 . S
C246 C245 1.442 . S
C246 C247 1.381 . S
C246 H273 0.931 . S
C247 C246 1.381 . S
C247 C248 1.321 . S
C248 C247 1.321 . S
C248 C249 1.403 . S
C248 H274 0.934 . S
C249 C244 1.413 . S
C249 C248 1.403 . S
C249 H275 0.930 . S
C250 O264 1.275 . S
C250 O265 1.256 . S
C251 O266 1.259 . S
C251 O267 1.268 . S
C252 Ho241 2.811 . S
C252 C253 1.488 1_556 S
C252 O268 1.215 . S
C252 O269 1.289 . S
C253 C252 1.488 1_554 S
C253 C254 1.348 . S
C253 C258 1.413 . S
C254 C253 1.348 . S
C254 C255 1.442 . S
C254 H276 0.930 . S
C255 C254 1.442 . S
C255 C256 1.381 . S
C255 H277 0.931 . S
C256 C255 1.381 . S
C256 C257 1.321 . S
C257 C256 1.321 . S
C257 C258 1.403 . S
C257 H278 0.934 . S
C258 C253 1.413 . S
C258 C257 1.403 . S
C258 H279 0.930 . S
C259 O270 1.275 . S
C259 O271 1.256 . S
O260 Ho240 2.322 . S
O260 C242 1.259 . S
O261 Ho241 2.346 . S
O261 C242 1.268 . S
O262 Ho240 2.378 . S
O262 C243 1.215 . S
O263 Ho240 2.524 . S
O263 C243 1.289 . S
O264 Ho240 2.381 . S
O264 C250 1.275 . S
O265 Ho240 2.669 . S
O265 Ho241 2.305 . S
O265 C250 1.256 . S
O266 Ho241 2.322 . S
O266 C251 1.259 . S
O267 Ho240 2.346 . S
O267 C251 1.268 . S
O268 Ho241 2.378 . S
O268 C252 1.215 . S
O269 Ho241 2.524 . S
O269 C252 1.289 . S
O270 Ho241 2.381 . S
O270 C259 1.275 . S
O271 Ho240 2.305 . S
O271 Ho241 2.669 . S
O271 C259 1.256 . S
H272 C245 0.930 . S
H273 C246 0.931 . S
H274 C248 0.934 . S
H275 C249 0.930 . S
H276 C254 0.930 . S
H277 C255 0.931 . S
H278 C257 0.934 . S
H279 C258 0.930 . S
Ho280 C283 2.811 . S
Ho280 O300 2.322 . S
Ho280 O302 2.378 . S
Ho280 O303 2.524 . S
Ho280 O304 2.381 . S
Ho280 O305 2.669 . S
Ho280 O307 2.346 . S
Ho280 O311 2.305 . S
Ho281 C292 2.811 . S
Ho281 O301 2.346 . S
Ho281 O305 2.305 . S
Ho281 O306 2.322 . S
Ho281 O308 2.378 . S
Ho281 O309 2.524 . S
Ho281 O310 2.381 . S
Ho281 O311 2.669 . S
C282 O300 1.259 . S
C282 O301 1.268 . S
C283 Ho280 2.811 . S
C283 C284 1.488 . S
C283 O302 1.215 . S
C283 O303 1.289 . S
C284 C283 1.488 . S
C284 C285 1.348 . S
C284 C289 1.413 . S
C285 C284 1.348 . S
C285 C286 1.442 . S
C285 H312 0.930 . S
C286 C285 1.442 . S
C286 C287 1.381 . S
C286 H313 0.931 . S
C287 C286 1.381 . S
C287 C288 1.321 . S
C288 C287 1.321 . S
C288 C289 1.403 . S
C288 H314 0.934 . S
C289 C284 1.413 . S
C289 C288 1.403 . S
C289 H315 0.930 . S
C290 O304 1.275 . S
C290 O305 1.256 . S
C291 O306 1.259 . S
C291 O307 1.268 . S
C292 Ho281 2.811 . S
C292 C293 1.488 1_556 S
C292 O308 1.215 . S
C292 O309 1.289 . S
C293 C292 1.488 1_554 S
C293 C294 1.348 . S
C293 C298 1.413 . S
C294 C293 1.348 . S
C294 C295 1.442 . S
C294 H316 0.930 . S
C295 C294 1.442 . S
C295 C296 1.381 . S
C295 H317 0.931 . S
C296 C295 1.381 . S
C296 C297 1.321 . S
C297 C296 1.321 . S
C297 C298 1.403 . S
C297 H318 0.934 . S
C298 C293 1.413 . S
C298 C297 1.403 . S
C298 H319 0.930 . S
C299 O310 1.275 . S
C299 O311 1.256 . S
O300 Ho280 2.322 . S
O300 C282 1.259 . S
O301 Ho281 2.346 . S
O301 C282 1.268 . S
O302 Ho280 2.378 . S
O302 C283 1.215 . S
O303 Ho280 2.524 . S
O303 C283 1.289 . S
O304 Ho280 2.381 . S
O304 C290 1.275 . S
O305 Ho280 2.669 . S
O305 Ho281 2.305 . S
O305 C290 1.256 . S
O306 Ho281 2.322 . S
O306 C291 1.259 . S
O307 Ho280 2.346 . S
O307 C291 1.268 . S
O308 Ho281 2.378 . S
O308 C292 1.215 . S
O309 Ho281 2.524 . S
O309 C292 1.289 . S
O310 Ho281 2.381 . S
O310 C299 1.275 . S
O311 Ho280 2.305 . S
O311 Ho281 2.669 . S
O311 C299 1.256 . S
H312 C285 0.930 . S
H313 C286 0.931 . S
H314 C288 0.934 . S
H315 C289 0.930 . S
H316 C294 0.930 . S
H317 C295 0.931 . S
H318 C297 0.934 . S
H319 C298 0.930 . S
Ho320 C323 2.811 . S
Ho320 O340 2.322 . S
Ho320 O342 2.378 . S
Ho320 O343 2.524 . S
Ho320 O344 2.381 . S
Ho320 O345 2.669 . S
Ho320 O347 2.346 . S
Ho320 O351 2.305 . S
Ho321 C332 2.811 . S
Ho321 O341 2.346 . S
Ho321 O345 2.305 . S
Ho321 O346 2.322 . S
Ho321 O348 2.378 . S
Ho321 O349 2.524 . S
Ho321 O350 2.381 . S
Ho321 O351 2.669 . S
C322 O340 1.259 . S
C322 O341 1.268 . S
C323 Ho320 2.811 . S
C323 C324 1.488 . S
C323 O342 1.215 . S
C323 O343 1.289 . S
C324 C323 1.488 . S
C324 C325 1.348 . S
C324 C329 1.413 . S
C325 C324 1.348 . S
C325 C326 1.442 . S
C325 H352 0.930 . S
C326 C325 1.442 . S
C326 C327 1.381 . S
C326 H353 0.931 . S
C327 C326 1.381 . S
C327 C328 1.321 . S
C328 C327 1.321 . S
C328 C329 1.403 . S
C328 H354 0.934 . S
C329 C324 1.413 . S
C329 C328 1.403 . S
C329 H355 0.930 . S
C330 O344 1.275 . S
C330 O345 1.256 . S
C331 O346 1.259 . S
C331 O347 1.268 . S
C332 Ho321 2.811 . S
C332 C333 1.488 1_556 S
C332 O348 1.215 . S
C332 O349 1.289 . S
C333 C332 1.488 1_554 S
C333 C334 1.348 . S
C333 C338 1.413 . S
C334 C333 1.348 . S
C334 C335 1.442 . S
C334 H356 0.930 . S
C335 C334 1.442 . S
C335 C336 1.381 . S
C335 H357 0.931 . S
C336 C335 1.381 . S
C336 C337 1.321 . S
C337 C336 1.321 . S
C337 C338 1.403 . S
C337 H358 0.934 . S
C338 C333 1.413 . S
C338 C337 1.403 . S
C338 H359 0.930 . S
C339 O350 1.275 . S
C339 O351 1.256 . S
O340 Ho320 2.322 . S
O340 C322 1.259 . S
O341 Ho321 2.346 . S
O341 C322 1.268 . S
O342 Ho320 2.378 . S
O342 C323 1.215 . S
O343 Ho320 2.524 . S
O343 C323 1.289 . S
O344 Ho320 2.381 . S
O344 C330 1.275 . S
O345 Ho320 2.669 . S
O345 Ho321 2.305 . S
O345 C330 1.256 . S
O346 Ho321 2.322 . S
O346 C331 1.259 . S
O347 Ho320 2.346 . S
O347 C331 1.268 . S
O348 Ho321 2.378 . S
O348 C332 1.215 . S
O349 Ho321 2.524 . S
O349 C332 1.289 . S
O350 Ho321 2.381 . S
O350 C339 1.275 . S
O351 Ho320 2.305 . S
O351 Ho321 2.669 . S
O351 C339 1.256 . S
H352 C325 0.930 . S
H353 C326 0.931 . S
H354 C328 0.934 . S
H355 C329 0.930 . S
H356 C334 0.930 . S
H357 C335 0.931 . S
H358 C337 0.934 . S
H359 C338 0.930 . S
Ho360 C363 2.804 1_556 S
Ho360 O380 2.322 . S
Ho360 O382 2.378 . S
Ho360 O383 2.524 . S
Ho360 O384 2.381 . S
Ho360 O385 2.669 . S
Ho360 O387 2.346 . S
Ho360 O391 2.305 . S
Ho361 C372 2.811 . S
Ho361 O381 2.346 . S
Ho361 O385 2.305 . S
Ho361 O386 2.322 . S
Ho361 O388 2.378 . S
Ho361 O389 2.524 . S
Ho361 O390 2.381 . S
Ho361 O391 2.669 . S
C362 O380 1.259 . S
C362 O381 1.268 . S
C363 Ho360 2.804 1_554 S
C363 C364 1.495 . S
C363 O382 1.212 1_554 S
C363 O383 1.286 1_554 S
C364 C363 1.495 . S
C364 C365 1.348 . S
C364 C369 1.413 . S
C365 C364 1.348 . S
C365 C366 1.442 . S
C365 H392 0.930 . S
C366 C365 1.442 . S
C366 C367 1.381 . S
C366 H393 0.931 . S
C367 C366 1.381 . S
C367 C368 1.321 . S
C368 C367 1.321 . S
C368 C369 1.403 . S
C368 H394 0.934 . S
C369 C364 1.413 . S
C369 C368 1.403 . S
C369 H395 0.930 . S
C370 O384 1.275 . S
C370 O385 1.256 . S
C371 O386 1.259 . S
C371 O387 1.268 . S
C372 Ho361 2.811 . S
C372 C373 1.488 . S
C372 O388 1.215 . S
C372 O389 1.289 . S
C373 C372 1.488 . S
C373 C374 1.348 . S
C373 C378 1.413 . S
C374 C373 1.348 . S
C374 C375 1.442 . S
C374 H396 0.930 . S
C375 C374 1.442 . S
C375 C376 1.381 . S
C375 H397 0.931 . S
C376 C375 1.381 . S
C376 C377 1.321 . S
C377 C376 1.321 . S
C377 C378 1.403 . S
C377 H398 0.934 . S
C378 C373 1.413 . S
C378 C377 1.403 . S
C378 H399 0.930 . S
C379 O390 1.275 . S
C379 O391 1.256 . S
O380 Ho360 2.322 . S
O380 C362 1.259 . S
O381 Ho361 2.346 . S
O381 C362 1.268 . S
O382 Ho360 2.378 . S
O382 C363 1.212 1_556 S
O383 Ho360 2.524 . S
O383 C363 1.286 1_556 S
O384 Ho360 2.381 . S
O384 C370 1.275 . S
O385 Ho360 2.669 . S
O385 Ho361 2.305 . S
O385 C370 1.256 . S
O386 Ho361 2.322 . S
O386 C371 1.259 . S
O387 Ho360 2.346 . S
O387 C371 1.268 . S
O388 Ho361 2.378 . S
O388 C372 1.215 . S
O389 Ho361 2.524 . S
O389 C372 1.289 . S
O390 Ho361 2.381 . S
O390 C379 1.275 . S
O391 Ho360 2.305 . S
O391 Ho361 2.669 . S
O391 C379 1.256 . S
H392 C365 0.930 . S
H393 C366 0.931 . S
H394 C368 0.934 . S
H395 C369 0.930 . S
H396 C374 0.930 . S
H397 C375 0.931 . S
H398 C377 0.934 . S
H399 C378 0.930 . S
Ho400 C403 2.811 1_556 S
Ho400 O420 2.322 . S
Ho400 O422 2.376 1_556 S
Ho400 O423 2.524 . S
Ho400 O424 2.381 . S
Ho400 O425 2.669 . S
Ho400 O427 2.346 . S
Ho400 O431 2.305 . S
Ho401 C412 2.811 . S
Ho401 O421 2.346 . S
Ho401 O425 2.305 . S
Ho401 O426 2.322 . S
Ho401 O428 2.378 . S
Ho401 O429 2.524 . S
Ho401 O430 2.381 . S
Ho401 O431 2.669 . S
C402 O420 1.259 . S
C402 O421 1.268 . S
C403 Ho400 2.811 1_554 S
C403 C404 1.488 . S
C403 O422 1.217 . S
C403 O423 1.289 1_554 S
C404 C403 1.488 . S
C404 C405 1.348 . S
C404 C409 1.413 . S
C405 C404 1.348 . S
C405 C406 1.442 . S
C405 H432 0.930 . S
C406 C405 1.442 . S
C406 C407 1.381 . S
C406 H433 0.931 . S
C407 C406 1.381 . S
C407 C408 1.321 . S
C408 C407 1.321 . S
C408 C409 1.403 . S
C408 H434 0.934 . S
C409 C404 1.413 . S
C409 C408 1.403 . S
C409 H435 0.930 . S
C410 O424 1.275 . S
C410 O425 1.256 . S
C411 O426 1.259 . S
C411 O427 1.268 . S
C412 Ho401 2.811 . S
C412 C413 1.488 . S
C412 O428 1.215 . S
C412 O429 1.289 . S
C413 C412 1.488 . S
C413 C414 1.348 . S
C413 C418 1.413 . S
C414 C413 1.348 . S
C414 C415 1.442 . S
C414 H436 0.930 . S
C415 C414 1.442 . S
C415 C416 1.381 . S
C415 H437 0.931 . S
C416 C415 1.381 . S
C416 C417 1.321 . S
C417 C416 1.321 . S
C417 C418 1.403 . S
C417 H438 0.934 . S
C418 C413 1.413 . S
C418 C417 1.403 . S
C418 H439 0.930 . S
C419 O430 1.275 . S
C419 O431 1.256 . S
O420 Ho400 2.322 . S
O420 C402 1.259 . S
O421 Ho401 2.346 . S
O421 C402 1.268 . S
O422 Ho400 2.376 1_554 S
O422 C403 1.217 . S
O423 Ho400 2.524 . S
O423 C403 1.289 1_556 S
O424 Ho400 2.381 . S
O424 C410 1.275 . S
O425 Ho400 2.669 . S
O425 Ho401 2.305 . S
O425 C410 1.256 . S
O426 Ho401 2.322 . S
O426 C411 1.259 . S
O427 Ho400 2.346 . S
O427 C411 1.268 . S
O428 Ho401 2.378 . S
O428 C412 1.215 . S
O429 Ho401 2.524 . S
O429 C412 1.289 . S
O430 Ho401 2.381 . S
O430 C419 1.275 . S
O431 Ho400 2.305 . S
O431 Ho401 2.669 . S
O431 C419 1.256 . S
H432 C405 0.930 . S
H433 C406 0.931 . S
H434 C408 0.934 . S
H435 C409 0.930 . S
H436 C414 0.930 . S
H437 C415 0.931 . S
H438 C417 0.934 . S
H439 C418 0.930 . S
Ho440 C443 2.817 . S
Ho440 O460 2.322 . S
Ho440 O462 2.378 . S
Ho440 O463 2.524 . S
Ho440 O464 2.381 . S
Ho440 O465 2.669 . S
Ho440 O467 2.346 . S
Ho440 O471 2.305 . S
Ho441 C452 2.811 . S
Ho441 O461 2.346 . S
Ho441 O465 2.305 . S
Ho441 O466 2.322 . S
Ho441 O468 2.378 . S
Ho441 O469 2.524 . S
Ho441 O470 2.381 . S
Ho441 O471 2.669 . S
C442 O460 1.259 . S
C442 O461 1.268 . S
C443 Ho440 2.817 . S
C443 C444 1.482 1_556 S
C443 O462 1.218 . S
C443 O463 1.293 . S
C444 C443 1.482 1_554 S
C444 C445 1.348 . S
C444 C449 1.413 . S
C445 C444 1.348 . S
C445 C446 1.442 . S
C445 H472 0.930 . S
C446 C445 1.442 . S
C446 C447 1.381 . S
C446 H473 0.931 . S
C447 C446 1.381 . S
C447 C448 1.321 . S
C448 C447 1.321 . S
C448 C449 1.403 . S
C448 H474 0.934 . S
C449 C444 1.413 . S
C449 C448 1.403 . S
C449 H475 0.930 . S
C450 O464 1.275 . S
C450 O465 1.256 . S
C451 O466 1.259 . S
C451 O467 1.268 . S
C452 Ho441 2.811 . S
C452 C453 1.488 . S
C452 O468 1.215 . S
C452 O469 1.289 . S
C453 C452 1.488 . S
C453 C454 1.348 . S
C453 C458 1.413 . S
C454 C453 1.348 . S
C454 C455 1.442 . S
C454 H476 0.930 . S
C455 C454 1.442 . S
C455 C456 1.381 . S
C455 H477 0.931 . S
C456 C455 1.381 . S
C456 C457 1.321 . S
C457 C456 1.321 . S
C457 C458 1.403 . S
C457 H478 0.934 . S
C458 C453 1.413 . S
C458 C457 1.403 . S
C458 H479 0.930 . S
C459 O470 1.275 . S
C459 O471 1.256 . S
O460 Ho440 2.322 . S
O460 C442 1.259 . S
O461 Ho441 2.346 . S
O461 C442 1.268 . S
O462 Ho440 2.378 . S
O462 C443 1.218 . S
O463 Ho440 2.524 . S
O463 C443 1.293 . S
O464 Ho440 2.381 . S
O464 C450 1.275 . S
O465 Ho440 2.669 . S
O465 Ho441 2.305 . S
O465 C450 1.256 . S
O466 Ho441 2.322 . S
O466 C451 1.259 . S
O467 Ho440 2.346 . S
O467 C451 1.268 . S
O468 Ho441 2.378 . S
O468 C452 1.215 . S
O469 Ho441 2.524 . S
O469 C452 1.289 . S
O470 Ho441 2.381 . S
O470 C459 1.275 . S
O471 Ho440 2.305 . S
O471 Ho441 2.669 . S
O471 C459 1.256 . S
H472 C445 0.930 . S
H473 C446 0.931 . S
H474 C448 0.934 . S
H475 C449 0.930 . S
H476 C454 0.930 . S
H477 C455 0.931 . S
H478 C457 0.934 . S
H479 C458 0.930 . S
Ho480 C483 2.811 . S
Ho480 O500 2.322 . S
Ho480 O502 2.378 . S
Ho480 O503 2.524 . S
Ho480 O504 2.381 . S
Ho480 O505 2.669 . S
Ho480 O507 2.346 . S
Ho480 O511 2.305 . S
Ho481 C492 2.811 1_554 S
Ho481 O501 2.346 . S
Ho481 O505 2.305 . S
Ho481 O506 2.322 . S
Ho481 O508 2.378 1_554 S
Ho481 O509 2.524 1_554 S
Ho481 O510 2.381 . S
Ho481 O511 2.669 . S
C482 O500 1.259 . S
C482 O501 1.268 . S
C483 Ho480 2.811 . S
C483 C484 1.488 . S
C483 O502 1.215 . S
C483 O503 1.289 . S
C484 C483 1.488 . S
C484 C485 1.348 . S
C484 C489 1.413 . S
C485 C484 1.348 . S
C485 C486 1.442 . S
C485 H512 0.930 . S
C486 C485 1.442 . S
C486 C487 1.381 . S
C486 H513 0.931 . S
C487 C486 1.381 . S
C487 C488 1.321 . S
C488 C487 1.321 . S
C488 C489 1.403 . S
C488 H514 0.934 . S
C489 C484 1.413 . S
C489 C488 1.403 . S
C489 H515 0.930 . S
C490 O504 1.275 . S
C490 O505 1.256 . S
C491 O506 1.259 . S
C491 O507 1.268 . S
C492 Ho481 2.811 1_556 S
C492 C493 1.488 . S
C492 O508 1.215 . S
C492 O509 1.289 . S
C493 C492 1.488 . S
C493 C494 1.348 . S
C493 C498 1.413 . S
C494 C493 1.348 . S
C494 C495 1.442 . S
C494 H516 0.930 . S
C495 C494 1.442 . S
C495 C496 1.381 . S
C495 H517 0.931 . S
C496 C495 1.381 . S
C496 C497 1.321 . S
C497 C496 1.321 . S
C497 C498 1.403 . S
C497 H518 0.934 . S
C498 C493 1.413 . S
C498 C497 1.403 . S
C498 H519 0.930 . S
C499 O510 1.275 . S
C499 O511 1.256 . S
O500 Ho480 2.322 . S
O500 C482 1.259 . S
O501 Ho481 2.346 . S
O501 C482 1.268 . S
O502 Ho480 2.378 . S
O502 C483 1.215 . S
O503 Ho480 2.524 . S
O503 C483 1.289 . S
O504 Ho480 2.381 . S
O504 C490 1.275 . S
O505 Ho480 2.669 . S
O505 Ho481 2.305 . S
O505 C490 1.256 . S
O506 Ho481 2.322 . S
O506 C491 1.259 . S
O507 Ho480 2.346 . S
O507 C491 1.268 . S
O508 Ho481 2.378 1_556 S
O508 C492 1.215 . S
O509 Ho481 2.524 1_556 S
O509 C492 1.289 . S
O510 Ho481 2.381 . S
O510 C499 1.275 . S
O511 Ho480 2.305 . S
O511 Ho481 2.669 . S
O511 C499 1.256 . S
H512 C485 0.930 . S
H513 C486 0.931 . S
H514 C488 0.934 . S
H515 C489 0.930 . S
H516 C494 0.930 . S
H517 C495 0.931 . S
H518 C497 0.934 . S
H519 C498 0.930 . S
Ho520 C523 2.811 1_554 S
Ho520 O540 2.322 . S
Ho520 O542 2.378 1_554 S
Ho520 O543 2.524 1_554 S
Ho520 O544 2.381 . S
Ho520 O545 2.669 . S
Ho520 O547 2.346 . S
Ho520 O551 2.305 . S
Ho521 C532 2.811 . S
Ho521 O541 2.346 . S
Ho521 O545 2.305 . S
Ho521 O546 2.322 . S
Ho521 O548 2.378 . S
Ho521 O549 2.524 . S
Ho521 O550 2.381 . S
Ho521 O551 2.669 . S
C522 O540 1.259 . S
C522 O541 1.268 . S
C523 Ho520 2.811 1_556 S
C523 C524 1.488 . S
C523 O542 1.215 . S
C523 O543 1.289 . S
C524 C523 1.488 . S
C524 C525 1.348 . S
C524 C529 1.413 . S
C525 C524 1.348 . S
C525 C526 1.442 . S
C525 H552 0.930 . S
C526 C525 1.442 . S
C526 C527 1.381 . S
C526 H553 0.931 . S
C527 C526 1.381 . S
C527 C528 1.321 . S
C528 C527 1.321 . S
C528 C529 1.403 . S
C528 H554 0.934 . S
C529 C524 1.413 . S
C529 C528 1.403 . S
C529 H555 0.930 . S
C530 O544 1.275 . S
C530 O545 1.256 . S
C531 O546 1.259 . S
C531 O547 1.268 . S
C532 Ho521 2.811 . S
C532 C533 1.488 . S
C532 O548 1.215 . S
C532 O549 1.289 . S
C533 C532 1.488 . S
C533 C534 1.348 . S
C533 C538 1.413 . S
C534 C533 1.348 . S
C534 C535 1.442 . S
C534 H556 0.930 . S
C535 C534 1.442 . S
C535 C536 1.381 . S
C535 H557 0.931 . S
C536 C535 1.381 . S
C536 C537 1.321 . S
C537 C536 1.321 . S
C537 C538 1.403 . S
C537 H558 0.934 . S
C538 C533 1.413 . S
C538 C537 1.403 . S
C538 H559 0.930 . S
C539 O550 1.275 . S
C539 O551 1.256 . S
O540 Ho520 2.322 . S
O540 C522 1.259 . S
O541 Ho521 2.346 . S
O541 C522 1.268 . S
O542 Ho520 2.378 1_556 S
O542 C523 1.215 . S
O543 Ho520 2.524 1_556 S
O543 C523 1.289 . S
O544 Ho520 2.381 . S
O544 C530 1.275 . S
O545 Ho520 2.669 . S
O545 Ho521 2.305 . S
O545 C530 1.256 . S
O546 Ho521 2.322 . S
O546 C531 1.259 . S
O547 Ho520 2.346 . S
O547 C531 1.268 . S
O548 Ho521 2.378 . S
O548 C532 1.215 . S
O549 Ho521 2.524 . S
O549 C532 1.289 . S
O550 Ho521 2.381 . S
O550 C539 1.275 . S
O551 Ho520 2.305 . S
O551 Ho521 2.669 . S
O551 C539 1.256 . S
H552 C525 0.930 . S
H553 C526 0.931 . S
H554 C528 0.934 . S
H555 C529 0.930 . S
H556 C534 0.930 . S
H557 C535 0.931 . S
H558 C537 0.934 . S
H559 C538 0.930 . S
Ho560 C563 2.811 . S
Ho560 O580 2.322 . S
Ho560 O582 2.378 . S
Ho560 O583 2.524 . S
Ho560 O584 2.381 . S
Ho560 O585 2.669 . S
Ho560 O587 2.346 . S
Ho560 O591 2.305 . S
Ho561 C572 2.811 1_554 S
Ho561 O581 2.346 . S
Ho561 O585 2.305 . S
Ho561 O586 2.322 . S
Ho561 O588 2.378 . S
Ho561 O589 2.524 . S
Ho561 O590 2.381 . S
Ho561 O591 2.669 . S
C562 O580 1.259 . S
C562 O581 1.268 . S
C563 Ho560 2.811 . S
C563 C564 1.488 . S
C563 O582 1.215 . S
C563 O583 1.289 . S
C564 C563 1.488 . S
C564 C565 1.348 . S
C564 C569 1.413 . S
C565 C564 1.348 . S
C565 C566 1.442 . S
C565 H592 0.930 . S
C566 C565 1.442 . S
C566 C567 1.381 . S
C566 H593 0.931 . S
C567 C566 1.381 . S
C567 C568 1.321 . S
C568 C567 1.321 . S
C568 C569 1.403 . S
C568 H594 0.934 . S
C569 C564 1.413 . S
C569 C568 1.403 . S
C569 H595 0.930 . S
C570 O584 1.275 . S
C570 O585 1.256 . S
C571 O586 1.259 . S
C571 O587 1.268 . S
C572 Ho561 2.811 1_556 S
C572 C573 1.488 . S
C572 O588 1.215 1_556 S
C572 O589 1.289 1_556 S
C573 C572 1.488 . S
C573 C574 1.348 . S
C573 C578 1.413 . S
C574 C573 1.348 . S
C574 C575 1.442 . S
C574 H596 0.930 . S
C575 C574 1.442 . S
C575 C576 1.381 . S
C575 H597 0.931 . S
C576 C575 1.381 . S
C576 C577 1.321 . S
C577 C576 1.321 . S
C577 C578 1.403 . S
C577 H598 0.934 . S
C578 C573 1.413 . S
C578 C577 1.403 . S
C578 H599 0.930 . S
C579 O590 1.275 . S
C579 O591 1.256 . S
O580 Ho560 2.322 . S
O580 C562 1.259 . S
O581 Ho561 2.346 . S
O581 C562 1.268 . S
O582 Ho560 2.378 . S
O582 C563 1.215 . S
O583 Ho560 2.524 . S
O583 C563 1.289 . S
O584 Ho560 2.381 . S
O584 C570 1.275 . S
O585 Ho560 2.669 . S
O585 Ho561 2.305 . S
O585 C570 1.256 . S
O586 Ho561 2.322 . S
O586 C571 1.259 . S
O587 Ho560 2.346 . S
O587 C571 1.268 . S
O588 Ho561 2.378 . S
O588 C572 1.215 1_554 S
O589 Ho561 2.524 . S
O589 C572 1.289 1_554 S
O590 Ho561 2.381 . S
O590 C579 1.275 . S
O591 Ho560 2.305 . S
O591 Ho561 2.669 . S
O591 C579 1.256 . S
H592 C565 0.930 . S
H593 C566 0.931 . S
H594 C568 0.934 . S
H595 C569 0.930 . S
H596 C574 0.930 . S
H597 C575 0.931 . S
H598 C577 0.934 . S
H599 C578 0.930 . S
Ho600 C603 2.811 . S
Ho600 O620 2.322 . S
Ho600 O622 2.378 . S
Ho600 O623 2.524 . S
Ho600 O624 2.381 . S
Ho600 O625 2.669 . S
Ho600 O627 2.346 . S
Ho600 O631 2.305 . S
Ho601 C612 2.811 1_554 S
Ho601 O621 2.346 . S
Ho601 O625 2.305 . S
Ho601 O626 2.322 . S
Ho601 O628 2.378 . S
Ho601 O629 2.524 . S
Ho601 O630 2.381 . S
Ho601 O631 2.669 . S
C602 O620 1.259 . S
C602 O621 1.268 . S
C603 Ho600 2.811 . S
C603 C604 1.488 . S
C603 O622 1.215 . S
C603 O623 1.289 . S
C604 C603 1.488 . S
C604 C605 1.348 . S
C604 C609 1.413 . S
C605 C604 1.348 . S
C605 C606 1.442 . S
C605 H632 0.930 . S
C606 C605 1.442 . S
C606 C607 1.381 . S
C606 H633 0.931 . S
C607 C606 1.381 . S
C607 C608 1.321 . S
C608 C607 1.321 . S
C608 C609 1.403 . S
C608 H634 0.934 . S
C609 C604 1.413 . S
C609 C608 1.403 . S
C609 H635 0.930 . S
C610 O624 1.275 . S
C610 O625 1.256 . S
C611 O626 1.259 . S
C611 O627 1.268 . S
C612 Ho601 2.811 1_556 S
C612 C613 1.488 . S
C612 O628 1.215 1_556 S
C612 O629 1.289 1_556 S
C613 C612 1.488 . S
C613 C614 1.348 . S
C613 C618 1.413 . S
C614 C613 1.348 . S
C614 C615 1.442 . S
C614 H636 0.930 . S
C615 C614 1.442 . S
C615 C616 1.381 . S
C615 H637 0.931 . S
C616 C615 1.381 . S
C616 C617 1.321 . S
C617 C616 1.321 . S
C617 C618 1.403 . S
C617 H638 0.934 . S
C618 C613 1.413 . S
C618 C617 1.403 . S
C618 H639 0.930 . S
C619 O630 1.275 . S
C619 O631 1.256 . S
O620 Ho600 2.322 . S
O620 C602 1.259 . S
O621 Ho601 2.346 . S
O621 C602 1.268 . S
O622 Ho600 2.378 . S
O622 C603 1.215 . S
O623 Ho600 2.524 . S
O623 C603 1.289 . S
O624 Ho600 2.381 . S
O624 C610 1.275 . S
O625 Ho600 2.669 . S
O625 Ho601 2.305 . S
O625 C610 1.256 . S
O626 Ho601 2.322 . S
O626 C611 1.259 . S
O627 Ho600 2.346 . S
O627 C611 1.268 . S
O628 Ho601 2.378 . S
O628 C612 1.215 1_554 S
O629 Ho601 2.524 . S
O629 C612 1.289 1_554 S
O630 Ho601 2.381 . S
O630 C619 1.275 . S
O631 Ho600 2.305 . S
O631 Ho601 2.669 . S
O631 C619 1.256 . S
H632 C605 0.930 . S
H633 C606 0.931 . S
H634 C608 0.934 . S
H635 C609 0.930 . S
H636 C614 0.930 . S
H637 C615 0.931 . S
H638 C617 0.934 . S
H639 C618 0.930 . S
Ho640 C643 2.811 . S
Ho640 O660 2.322 . S
Ho640 O662 2.378 . S
Ho640 O663 2.524 . S
Ho640 O664 2.381 . S
Ho640 O665 2.669 . S
Ho640 O667 2.346 . S
Ho640 O671 2.305 . S
Ho641 C652 2.811 . S
Ho641 O661 2.346 . S
Ho641 O665 2.305 . S
Ho641 O666 2.322 . S
Ho641 O668 2.378 . S
Ho641 O669 2.524 . S
Ho641 O670 2.381 . S
Ho641 O671 2.669 . S
C642 O660 1.259 . S
C642 O661 1.268 . S
C643 Ho640 2.811 . S
C643 C644 1.488 1_554 S
C643 O662 1.215 . S
C643 O663 1.289 . S
C644 C643 1.488 1_556 S
C644 C645 1.348 . S
C644 C649 1.413 . S
C645 C644 1.348 . S
C645 C646 1.442 . S
C645 H672 0.930 . S
C646 C645 1.442 . S
C646 C647 1.381 . S
C646 H673 0.931 . S
C647 C646 1.381 . S
C647 C648 1.321 . S
C648 C647 1.321 . S
C648 C649 1.403 . S
C648 H674 0.934 . S
C649 C644 1.413 . S
C649 C648 1.403 . S
C649 H675 0.930 . S
C650 O664 1.275 . S
C650 O665 1.256 . S
C651 O666 1.259 . S
C651 O667 1.268 . S
C652 Ho641 2.811 . S
C652 C653 1.488 . S
C652 O668 1.215 . S
C652 O669 1.289 . S
C653 C652 1.488 . S
C653 C654 1.348 . S
C653 C658 1.413 . S
C654 C653 1.348 . S
C654 C655 1.442 . S
C654 H676 0.930 . S
C655 C654 1.442 . S
C655 C656 1.381 . S
C655 H677 0.931 . S
C656 C655 1.381 . S
C656 C657 1.321 . S
C657 C656 1.321 . S
C657 C658 1.403 . S
C657 H678 0.934 . S
C658 C653 1.413 . S
C658 C657 1.403 . S
C658 H679 0.930 . S
C659 O670 1.275 . S
C659 O671 1.256 . S
O660 Ho640 2.322 . S
O660 C642 1.259 . S
O661 Ho641 2.346 . S
O661 C642 1.268 . S
O662 Ho640 2.378 . S
O662 C643 1.215 . S
O663 Ho640 2.524 . S
O663 C643 1.289 . S
O664 Ho640 2.381 . S
O664 C650 1.275 . S
O665 Ho640 2.669 . S
O665 Ho641 2.305 . S
O665 C650 1.256 . S
O666 Ho641 2.322 . S
O666 C651 1.259 . S
O667 Ho640 2.346 . S
O667 C651 1.268 . S
O668 Ho641 2.378 . S
O668 C652 1.215 . S
O669 Ho641 2.524 . S
O669 C652 1.289 . S
O670 Ho641 2.381 . S
O670 C659 1.275 . S
O671 Ho640 2.305 . S
O671 Ho641 2.669 . S
O671 C659 1.256 . S
H672 C645 0.930 . S
H673 C646 0.931 . S
H674 C648 0.934 . S
H675 C649 0.930 . S
H676 C654 0.930 . S
H677 C655 0.931 . S
H678 C657 0.934 . S
H679 C658 0.930 . S
Ho680 C683 2.811 . S
Ho680 O700 2.322 . S
Ho680 O702 2.378 . S
Ho680 O703 2.524 . S
Ho680 O704 2.381 . S
Ho680 O705 2.669 . S
Ho680 O707 2.346 . S
Ho680 O711 2.305 . S
Ho681 C692 2.811 . S
Ho681 O701 2.346 . S
Ho681 O705 2.305 . S
Ho681 O706 2.322 . S
Ho681 O708 2.378 . S
Ho681 O709 2.524 . S
Ho681 O710 2.381 . S
Ho681 O711 2.669 . S
C682 O700 1.259 . S
C682 O701 1.268 . S
C683 Ho680 2.811 . S
C683 C684 1.488 . S
C683 O702 1.215 . S
C683 O703 1.289 . S
C684 C683 1.488 . S
C684 C685 1.348 . S
C684 C689 1.413 . S
C685 C684 1.348 . S
C685 C686 1.442 . S
C685 H712 0.930 . S
C686 C685 1.442 . S
C686 C687 1.381 . S
C686 H713 0.931 . S
C687 C686 1.381 . S
C687 C688 1.321 . S
C688 C687 1.321 . S
C688 C689 1.403 . S
C688 H714 0.934 . S
C689 C684 1.413 . S
C689 C688 1.403 . S
C689 H715 0.930 . S
C690 O704 1.275 . S
C690 O705 1.256 . S
C691 O706 1.259 . S
C691 O707 1.268 . S
C692 Ho681 2.811 . S
C692 C693 1.488 1_554 S
C692 O708 1.215 . S
C692 O709 1.289 . S
C693 C692 1.488 1_556 S
C693 C694 1.348 . S
C693 C698 1.413 . S
C694 C693 1.348 . S
C694 C695 1.442 . S
C694 H716 0.930 . S
C695 C694 1.442 . S
C695 C696 1.381 . S
C695 H717 0.931 . S
C696 C695 1.381 . S
C696 C697 1.321 . S
C697 C696 1.321 . S
C697 C698 1.403 . S
C697 H718 0.934 . S
C698 C693 1.413 . S
C698 C697 1.403 . S
C698 H719 0.930 . S
C699 O710 1.275 . S
C699 O711 1.256 . S
O700 Ho680 2.322 . S
O700 C682 1.259 . S
O701 Ho681 2.346 . S
O701 C682 1.268 . S
O702 Ho680 2.378 . S
O702 C683 1.215 . S
O703 Ho680 2.524 . S
O703 C683 1.289 . S
O704 Ho680 2.381 . S
O704 C690 1.275 . S
O705 Ho680 2.669 . S
O705 Ho681 2.305 . S
O705 C690 1.256 . S
O706 Ho681 2.322 . S
O706 C691 1.259 . S
O707 Ho680 2.346 . S
O707 C691 1.268 . S
O708 Ho681 2.378 . S
O708 C692 1.215 . S
O709 Ho681 2.524 . S
O709 C692 1.289 . S
O710 Ho681 2.381 . S
O710 C699 1.275 . S
O711 Ho680 2.305 . S
O711 Ho681 2.669 . S
O711 C699 1.256 . S
H712 C685 0.930 . S
H713 C686 0.931 . S
H714 C688 0.934 . S
H715 C689 0.930 . S
H716 C694 0.930 . S
H717 C695 0.931 . S
H718 C697 0.934 . S
H719 C698 0.930 . S
C720 C721 1.369 . S
C720 C722 1.419 . S
C720 H724 0.930 . S
C721 C720 1.369 . S
C721 C730 1.429 . S
C722 C720 1.419 . S
C722 C723 1.363 . S
C722 H725 0.929 . S
C723 C722 1.363 . S
C723 C729 1.428 . S
H724 C720 0.930 . S
H725 C722 0.929 . S
S726 N727 1.613 . S
S726 N728 1.610 . S
N727 S726 1.613 . S
N727 C730 1.350 . S
N728 S726 1.610 . S
N728 C729 1.351 . S
C729 C723 1.428 . S
C729 N728 1.351 . S
C729 C730 1.434 . S
C730 C721 1.429 . S
C730 N727 1.350 . S
C730 C729 1.434 . S
C731 C732 1.369 . S
C731 C733 1.419 . S
C731 H735 0.930 . S
C732 C731 1.369 . S
C732 C741 1.429 . S
C733 C731 1.419 . S
C733 C734 1.363 . S
C733 H736 0.929 . S
C734 C733 1.363 . S
C734 C740 1.428 . S
H735 C731 0.930 . S
H736 C733 0.929 . S
S737 N738 1.613 . S
S737 N739 1.610 . S
N738 S737 1.613 . S
N738 C741 1.350 . S
N739 S737 1.610 . S
N739 C740 1.351 . S
C740 C734 1.428 . S
C740 N739 1.351 . S
C740 C741 1.434 . S
C741 C732 1.429 . S
C741 N738 1.350 . S
C741 C740 1.434 . S
C742 C743 1.369 . S
C742 C744 1.419 . S
C742 H746 0.930 . S
C743 C742 1.369 . S
C743 C752 1.429 . S
C744 C742 1.419 . S
C744 C745 1.363 . S
C744 H747 0.929 . S
C745 C744 1.363 . S
C745 C751 1.428 . S
H746 C742 0.930 . S
H747 C744 0.929 . S
S748 N749 1.613 . S
S748 N750 1.610 . S
N749 S748 1.613 . S
N749 C752 1.350 . S
N750 S748 1.610 . S
N750 C751 1.351 . S
C751 C745 1.428 . S
C751 N750 1.351 . S
C751 C752 1.434 . S
C752 C743 1.429 . S
C752 N749 1.350 . S
C752 C751 1.434 . S
C753 C754 1.369 . S
C753 C755 1.419 . S
C753 H757 0.930 . S
C754 C753 1.369 . S
C754 C763 1.429 . S
C755 C753 1.419 . S
C755 C756 1.363 . S
C755 H758 0.929 . S
C756 C755 1.363 . S
C756 C762 1.428 . S
H757 C753 0.930 . S
H758 C755 0.929 . S
S759 N760 1.613 . S
S759 N761 1.610 . S
N760 S759 1.613 . S
N760 C763 1.350 . S
N761 S759 1.610 . S
N761 C762 1.351 . S
C762 C756 1.428 . S
C762 N761 1.351 . S
C762 C763 1.434 . S
C763 C754 1.429 . S
C763 N760 1.350 . S
C763 C762 1.434 . S
C764 C765 1.369 . S
C764 C766 1.419 . S
C764 H768 0.930 . S
C765 C764 1.369 . S
C765 C774 1.429 . S
C766 C764 1.419 . S
C766 C767 1.363 . S
C766 H769 0.929 . S
C767 C766 1.363 . S
C767 C773 1.428 . S
H768 C764 0.930 . S
H769 C766 0.929 . S
S770 N771 1.613 1_455 S
S770 N772 1.610 1_455 S
N771 S770 1.613 1_655 S
N771 C774 1.350 . S
N772 S770 1.610 1_655 S
N772 C773 1.351 . S
C773 C767 1.428 . S
C773 N772 1.351 . S
C773 C774 1.434 . S
C774 C765 1.429 . S
C774 N771 1.350 . S
C774 C773 1.434 . S
C775 C776 1.369 . S
C775 C777 1.419 . S
C775 H779 0.930 . S
C776 C775 1.369 . S
C776 C785 1.429 . S
C777 C775 1.419 . S
C777 C778 1.363 . S
C777 H780 0.929 . S
C778 C777 1.363 . S
C778 C784 1.428 . S
H779 C775 0.930 . S
H780 C777 0.929 . S
S781 N782 1.613 . S
S781 N783 1.610 . S
N782 S781 1.613 . S
N782 C785 1.350 . S
N783 S781 1.610 . S
N783 C784 1.351 . S
C784 C778 1.428 . S
C784 N783 1.351 . S
C784 C785 1.434 . S
C785 C776 1.429 . S
C785 N782 1.350 . S
C785 C784 1.434 . S
C786 C787 1.369 . S
C786 C788 1.419 . S
C786 H790 0.930 . S
C787 C786 1.369 . S
C787 C796 1.429 . S
C788 C786 1.419 . S
C788 C789 1.363 . S
C788 H791 0.929 . S
C789 C788 1.363 . S
C789 C795 1.428 . S
H790 C786 0.930 . S
H791 C788 0.929 . S
S792 N793 1.613 . S
S792 N794 1.610 . S
N793 S792 1.613 . S
N793 C796 1.350 . S
N794 S792 1.610 . S
N794 C795 1.351 . S
C795 C789 1.428 . S
C795 N794 1.351 . S
C795 C796 1.434 . S
C796 C787 1.429 . S
C796 N793 1.350 . S
C796 C795 1.434 . S
C797 C798 1.369 . S
C797 C799 1.419 . S
C797 H801 0.930 . S
C798 C797 1.369 . S
C798 C807 1.429 . S
C799 C797 1.419 . S
C799 C800 1.363 . S
C799 H802 0.929 . S
C800 C799 1.363 . S
C800 C806 1.428 . S
H801 C797 0.930 . S
H802 C799 0.929 . S
S803 N804 1.613 . S
S803 N805 1.610 . S
N804 S803 1.613 . S
N804 C807 1.350 . S
N805 S803 1.610 . S
N805 C806 1.351 . S
C806 C800 1.428 . S
C806 N805 1.351 . S
C806 C807 1.434 . S
C807 C798 1.429 . S
C807 N804 1.350 . S
C807 C806 1.434 . S
C808 C809 1.369 . S
C808 C810 1.419 . S
C808 H812 0.930 . S
C809 C808 1.369 . S
C809 C818 1.429 . S
C810 C808 1.419 . S
C810 C811 1.363 . S
C810 H813 0.929 . S
C811 C810 1.363 . S
C811 C817 1.428 . S
H812 C808 0.930 . S
H813 C810 0.929 . S
S814 N815 1.613 . S
S814 N816 1.610 . S
N815 S814 1.613 . S
N815 C818 1.350 . S
N816 S814 1.610 . S
N816 C817 1.351 . S
C817 C811 1.428 . S
C817 N816 1.351 . S
C817 C818 1.434 . S
C818 C809 1.429 . S
C818 N815 1.350 . S
C818 C817 1.434 . S
C819 C820 1.369 . S
C819 C821 1.419 . S
C819 H823 0.930 . S
C820 C819 1.369 . S
C820 C829 1.429 . S
C821 C819 1.419 . S
C821 C822 1.363 . S
C821 H824 0.929 . S
C822 C821 1.363 . S
C822 C828 1.428 . S
H823 C819 0.930 . S
H824 C821 0.929 . S
S825 N826 1.613 1_545 S
S825 N827 1.622 . S
N826 S825 1.613 1_565 S
N826 C829 1.350 . S
N827 S825 1.622 . S
N827 C828 1.338 1_545 S
C828 C822 1.428 . S
C828 N827 1.338 1_565 S
C828 C829 1.434 . S
C829 C820 1.429 . S
C829 N826 1.350 . S
C829 C828 1.434 . S
C830 C831 1.369 . S
C830 C832 1.419 . S
C830 H834 0.930 . S
C831 C830 1.369 . S
C831 C840 1.429 . S
C832 C830 1.419 . S
C832 C833 1.363 . S
C832 H835 0.929 . S
C833 C832 1.363 . S
C833 C839 1.428 . S
H834 C830 0.930 . S
H835 C832 0.929 . S
S836 N837 1.613 . S
S836 N838 1.610 . S
N837 S836 1.613 . S
N837 C840 1.350 . S
N838 S836 1.610 . S
N838 C839 1.351 . S
C839 C833 1.428 . S
C839 N838 1.351 . S
C839 C840 1.434 . S
C840 C831 1.429 . S
C840 N837 1.350 . S
C840 C839 1.434 . S
C841 C842 1.369 . S
C841 C843 1.419 . S
C841 H845 0.930 . S
C842 C841 1.369 . S
C842 C851 1.429 . S
C843 C841 1.419 . S
C843 C844 1.363 . S
C843 H846 0.929 . S
C844 C843 1.363 . S
C844 C850 1.428 . S
H845 C841 0.930 . S
H846 C843 0.929 . S
S847 N848 1.613 . S
S847 N849 1.610 . S
N848 S847 1.613 . S
N848 C851 1.350 . S
N849 S847 1.610 . S
N849 C850 1.351 . S
C850 C844 1.428 . S
C850 N849 1.351 . S
C850 C851 1.434 . S
C851 C842 1.429 . S
C851 N848 1.350 . S
C851 C850 1.434 . S
C852 C853 1.369 . S
C852 C854 1.419 1_656 S
C852 H856 0.930 . S
C853 C852 1.369 . S
C853 C862 1.429 . S
C854 C852 1.419 1_454 S
C854 C855 1.363 . S
C854 H857 0.929 . S
C855 C854 1.363 . S
C855 C861 1.429 . S
H856 C852 0.930 . S
H857 C854 0.929 . S
S858 N859 1.613 1_554 S
S858 N860 1.610 . S
N859 S858 1.613 1_556 S
N859 C862 1.350 . S
N860 S858 1.610 . S
N860 C861 1.357 1_655 S
C861 C855 1.429 . S
C861 N860 1.357 1_455 S
C861 C862 1.427 1_454 S
C862 C853 1.429 . S
C862 N859 1.350 . S
C862 C861 1.427 1_656 S
C863 C864 1.369 . S
C863 C865 1.419 . S
C863 H867 0.930 . S
C864 C863 1.369 . S
C864 C873 1.429 . S
C865 C863 1.419 . S
C865 C866 1.363 1_556 S
C865 H868 0.929 . S
C866 C865 1.363 1_554 S
C866 C872 1.428 . S
H867 C863 0.930 . S
H868 C865 0.929 . S
S869 N870 1.613 1_554 S
S869 N871 1.610 . S
N870 S869 1.613 1_556 S
N870 C873 1.350 . S
N871 S869 1.610 . S
N871 C872 1.351 . S
C872 C866 1.428 . S
C872 N871 1.351 . S
C872 C873 1.434 1_554 S
C873 C864 1.429 . S
C873 N870 1.350 . S
C873 C872 1.434 1_556 S
C874 C875 1.369 . S
C874 C876 1.419 1_556 S
C874 H878 0.930 . S
C875 C874 1.369 . S
C875 C884 1.429 1_545 S
C876 C874 1.419 1_554 S
C876 C877 1.363 1_545 S
C876 H879 0.929 . S
C877 C876 1.363 1_565 S
C877 C883 1.428 1_554 S
H878 C874 0.930 . S
H879 C876 0.929 . S
S880 N881 1.613 . S
S880 N882 1.610 . S
N881 S880 1.613 . S
N881 C884 1.350 . S
N882 S880 1.610 . S
N882 C883 1.351 . S
C883 C877 1.428 1_556 S
C883 N882 1.351 . S
C883 C884 1.434 . S
C884 C875 1.429 1_565 S
C884 N881 1.350 . S
C884 C883 1.434 . S
C885 C886 1.369 . S
C885 C887 1.419 1_556 S
C885 H889 0.930 . S
C886 C885 1.369 . S
C886 C895 1.429 1_545 S
C887 C885 1.419 1_554 S
C887 C888 1.363 1_545 S
C887 H890 0.929 . S
C888 C887 1.363 1_565 S
C888 C894 1.428 . S
H889 C885 0.930 . S
H890 C887 0.929 . S
S891 N892 1.613 . S
S891 N893 1.610 1_556 S
N892 S891 1.613 . S
N892 C895 1.350 . S
N893 S891 1.610 1_554 S
N893 C894 1.351 . S
C894 C888 1.428 . S
C894 N893 1.351 . S
C894 C895 1.434 1_554 S
C895 C886 1.429 1_565 S
C895 N892 1.350 . S
C895 C894 1.434 1_556 S
C896 C897 1.369 1_655 S
C896 C898 1.419 . S
C896 H900 0.930 . S
C897 C896 1.369 1_455 S
C897 C906 1.429 . S
C898 C896 1.419 . S
C898 C899 1.363 1_554 S
C898 H901 0.929 . S
C899 C898 1.363 1_556 S
C899 C905 1.428 1_655 S
H900 C896 0.930 . S
H901 C898 0.929 . S
S902 N903 1.613 1_556 S
S902 N904 1.610 . S
N903 S902 1.613 1_554 S
N903 C906 1.350 . S
N904 S902 1.610 . S
N904 C905 1.351 . S
C905 C899 1.428 1_455 S
C905 N904 1.351 . S
C905 C906 1.434 1_556 S
C906 C897 1.429 . S
C906 N903 1.350 . S
C906 C905 1.434 1_554 S
C907 C908 1.369 . S
C907 C909 1.419 . S
C907 H911 0.930 . S
C908 C907 1.369 . S
C908 C917 1.429 . S
C909 C907 1.419 . S
C909 C910 1.363 1_554 S
C909 H912 0.929 . S
C910 C909 1.363 1_556 S
C910 C916 1.428 . S
H911 C907 0.930 . S
H912 C909 0.929 . S
S913 N914 1.613 1_556 S
S913 N915 1.610 . S
N914 S913 1.613 1_554 S
N914 C917 1.350 . S
N915 S913 1.610 . S
N915 C916 1.351 . S
C916 C910 1.428 . S
C916 N915 1.351 . S
C916 C917 1.434 1_556 S
C917 C908 1.429 . S
C917 N914 1.350 . S
C917 C916 1.434 1_554 S
C918 C919 1.369 . S
C918 C920 1.419 . S
C918 H922 0.930 . S
C919 C918 1.369 . S
C919 C928 1.429 . S
C920 C918 1.419 . S
C920 C921 1.363 . S
C920 H923 0.929 . S
C921 C920 1.363 . S
C921 C927 1.428 . S
H922 C918 0.930 . S
H923 C920 0.929 . S
S924 N925 1.613 . S
S924 N926 1.610 . S
N925 S924 1.613 . S
N925 C928 1.350 . S
N926 S924 1.610 . S
N926 C927 1.351 . S
C927 C921 1.428 . S
C927 N926 1.351 . S
C927 C928 1.434 . S
C928 C919 1.429 . S
C928 N925 1.350 . S
C928 C927 1.434 . S
C929 C930 1.369 . S
C929 C931 1.419 . S
C929 H933 0.930 . S
C930 C929 1.369 . S
C930 C939 1.429 . S
C931 C929 1.419 . S
C931 C932 1.363 . S
C931 H934 0.929 . S
C932 C931 1.363 . S
C932 C938 1.428 . S
H933 C929 0.930 . S
H934 C931 0.929 . S
S935 N936 1.613 . S
S935 N937 1.610 . S
N936 S935 1.613 . S
N936 C939 1.350 . S
N937 S935 1.610 . S
N937 C938 1.351 . S
C938 C932 1.428 . S
C938 N937 1.351 . S
C938 C939 1.434 . S
C939 C930 1.429 . S
C939 N936 1.350 . S
C939 C938 1.434 . S
C940 C941 1.369 . S
C940 C942 1.419 . S
C940 H944 0.930 . S
C941 C940 1.369 . S
C941 C950 1.429 . S
C942 C940 1.419 . S
C942 C943 1.363 . S
C942 H945 0.929 . S
C943 C942 1.363 . S
C943 C949 1.428 . S
H944 C940 0.930 . S
H945 C942 0.929 . S
S946 N947 1.613 . S
S946 N948 1.610 . S
N947 S946 1.613 . S
N947 C950 1.350 . S
N948 S946 1.610 . S
N948 C949 1.351 . S
C949 C943 1.428 . S
C949 N948 1.351 . S
C949 C950 1.434 . S
C950 C941 1.429 . S
C950 N947 1.350 . S
C950 C949 1.434 . S
C951 C952 1.369 . S
C951 C953 1.419 . S
C951 H955 0.930 . S
C952 C951 1.369 . S
C952 C961 1.429 . S
C953 C951 1.419 . S
C953 C954 1.363 . S
C953 H956 0.929 . S
C954 C953 1.363 . S
C954 C960 1.428 . S
H955 C951 0.930 . S
H956 C953 0.929 . S
S957 N958 1.613 . S
S957 N959 1.610 . S
N958 S957 1.613 . S
N958 C961 1.350 . S
N959 S957 1.610 . S
N959 C960 1.351 . S
C960 C954 1.428 . S
C960 N959 1.351 . S
C960 C961 1.434 . S
C961 C952 1.429 . S
C961 N958 1.350 . S
C961 C960 1.434 . S
C962 C963 1.369 . S
C962 C964 1.419 . S
C962 H966 0.930 . S
C963 C962 1.369 . S
C963 C972 1.429 . S
C964 C962 1.419 . S
C964 C965 1.363 . S
C964 H967 0.929 . S
C965 C964 1.363 . S
C965 C971 1.428 . S
H966 C962 0.930 . S
H967 C964 0.929 . S
S968 N969 1.613 . S
S968 N970 1.610 . S
N969 S968 1.613 . S
N969 C972 1.350 . S
N970 S968 1.610 . S
N970 C971 1.351 . S
C971 C965 1.428 . S
C971 N970 1.351 . S
C971 C972 1.434 . S
C972 C963 1.429 . S
C972 N969 1.350 . S
C972 C971 1.434 . S
C973 C974 1.369 . S
C973 C975 1.419 . S
C973 H977 0.930 . S
C974 C973 1.369 . S
C974 C983 1.429 . S
C975 C973 1.419 . S
C975 C976 1.363 . S
C975 H978 0.929 . S
C976 C975 1.363 . S
C976 C982 1.428 . S
H977 C973 0.930 . S
H978 C975 0.929 . S
S979 N980 1.613 . S
S979 N981 1.610 . S
N980 S979 1.613 . S
N980 C983 1.350 . S
N981 S979 1.610 . S
N981 C982 1.351 . S
C982 C976 1.428 . S
C982 N981 1.351 . S
C982 C983 1.434 . S
C983 C974 1.429 . S
C983 N980 1.350 . S
C983 C982 1.434 . S
C984 C985 1.369 . S
C984 C986 1.419 . S
C984 H988 0.930 . S
C985 C984 1.369 . S
C985 C994 1.429 . S
C986 C984 1.419 . S
C986 C987 1.363 . S
C986 H989 0.929 . S
C987 C986 1.363 . S
C987 C993 1.428 . S
H988 C984 0.930 . S
H989 C986 0.929 . S
S990 N991 1.613 . S
S990 N992 1.610 . S
N991 S990 1.613 . S
N991 C994 1.350 . S
N992 S990 1.610 . S
N992 C993 1.351 . S
C993 C987 1.428 . S
C993 N992 1.351 . S
C993 C994 1.434 . S
C994 C985 1.429 . S
C994 N991 1.350 . S
C994 C993 1.434 . S
C995 C996 1.369 . S
C995 C997 1.419 . S
C995 H999 0.930 . S
C996 C995 1.369 . S
C996 C1005 1.429 . S
C997 C995 1.419 . S
C997 C998 1.363 . S
C997 H1000 0.929 . S
C998 C997 1.363 . S
C998 C1004 1.428 . S
H999 C995 0.930 . S
H1000 C997 0.929 . S
S1001 N1002 1.613 . S
S1001 N1003 1.610 . S
N1002 S1001 1.613 . S
N1002 C1005 1.350 . S
N1003 S1001 1.610 . S
N1003 C1004 1.351 . S
C1004 C998 1.428 . S
C1004 N1003 1.351 . S
C1004 C1005 1.434 . S
C1005 C996 1.429 . S
C1005 N1002 1.350 . S
C1005 C1004 1.434 . S
C1006 C1007 1.369 . S
C1006 C1008 1.419 . S
C1006 H1010 0.930 . S
C1007 C1006 1.369 . S
C1007 C1016 1.429 . S
C1008 C1006 1.419 . S
C1008 C1009 1.363 . S
C1008 H1011 0.929 . S
C1009 C1008 1.363 . S
C1009 C1015 1.428 . S
H1010 C1006 0.930 . S
H1011 C1008 0.929 . S
S1012 N1013 1.613 . S
S1012 N1014 1.610 . S
N1013 S1012 1.613 . S
N1013 C1016 1.350 . S
N1014 S1012 1.610 . S
N1014 C1015 1.351 . S
C1015 C1009 1.428 . S
C1015 N1014 1.351 . S
C1015 C1016 1.434 . S
C1016 C1007 1.429 . S
C1016 N1013 1.350 . S
C1016 C1015 1.434 . S
C1017 C1018 1.369 . S
C1017 C1019 1.419 . S
C1017 H1021 0.930 . S
C1018 C1017 1.369 . S
C1018 C1027 1.429 . S
C1019 C1017 1.419 . S
C1019 C1020 1.363 . S
C1019 H1022 0.929 . S
C1020 C1019 1.363 . S
C1020 C1026 1.428 . S
H1021 C1017 0.930 . S
H1022 C1019 0.929 . S
S1023 N1024 1.613 . S
S1023 N1025 1.610 . S
N1024 S1023 1.613 . S
N1024 C1027 1.350 . S
N1025 S1023 1.610 . S
N1025 C1026 1.351 . S
C1026 C1020 1.428 . S
C1026 N1025 1.351 . S
C1026 C1027 1.434 . S
C1027 C1018 1.429 . S
C1027 N1024 1.350 . S
C1027 C1026 1.434 . S
C1028 C1029 1.369 . S
C1028 C1030 1.419 . S
C1028 H1032 0.930 . S
C1029 C1028 1.369 . S
C1029 C1038 1.429 . S
C1030 C1028 1.419 . S
C1030 C1031 1.363 . S
C1030 H1033 0.929 . S
C1031 C1030 1.363 . S
C1031 C1037 1.428 . S
H1032 C1028 0.930 . S
H1033 C1030 0.929 . S
S1034 N1035 1.613 . S
S1034 N1036 1.610 . S
N1035 S1034 1.613 . S
N1035 C1038 1.350 . S
N1036 S1034 1.610 . S
N1036 C1037 1.351 . S
C1037 C1031 1.428 . S
C1037 N1036 1.351 . S
C1037 C1038 1.434 . S
C1038 C1029 1.429 . S
C1038 N1035 1.350 . S
C1038 C1037 1.434 . S
C1039 C1040 1.369 . S
C1039 C1041 1.419 . S
C1039 H1043 0.930 . S
C1040 C1039 1.369 . S
C1040 C1049 1.429 . S
C1041 C1039 1.419 . S
C1041 C1042 1.363 . S
C1041 H1044 0.929 . S
C1042 C1041 1.363 . S
C1042 C1048 1.428 . S
H1043 C1039 0.930 . S
H1044 C1041 0.929 . S
S1045 N1046 1.613 . S
S1045 N1047 1.610 . S
N1046 S1045 1.613 . S
N1046 C1049 1.350 . S
N1047 S1045 1.610 . S
N1047 C1048 1.351 . S
C1048 C1042 1.428 . S
C1048 N1047 1.351 . S
C1048 C1049 1.434 . S
C1049 C1040 1.429 . S
C1049 N1046 1.350 . S
C1049 C1048 1.434 . S
C1050 C1051 1.369 . S
C1050 C1052 1.419 . S
C1050 H1054 0.930 . S
C1051 C1050 1.369 . S
C1051 C1060 1.429 . S
C1052 C1050 1.419 . S
C1052 C1053 1.363 . S
C1052 H1055 0.929 . S
C1053 C1052 1.363 . S
C1053 C1059 1.428 . S
H1054 C1050 0.930 . S
H1055 C1052 0.929 . S
S1056 N1057 1.613 . S
S1056 N1058 1.610 . S
N1057 S1056 1.613 . S
N1057 C1060 1.350 . S
N1058 S1056 1.610 . S
N1058 C1059 1.351 . S
C1059 C1053 1.428 . S
C1059 N1058 1.351 . S
C1059 C1060 1.434 . S
C1060 C1051 1.429 . S
C1060 N1057 1.350 . S
C1060 C1059 1.434 . S
C1061 C1062 1.369 . S
C1061 C1063 1.419 . S
C1061 H1065 0.930 . S
C1062 C1061 1.369 . S
C1062 C1071 1.429 . S
C1063 C1061 1.419 . S
C1063 C1064 1.363 . S
C1063 H1066 0.929 . S
C1064 C1063 1.363 . S
C1064 C1070 1.428 . S
H1065 C1061 0.930 . S
H1066 C1063 0.929 . S
S1067 N1068 1.613 . S
S1067 N1069 1.610 . S
N1068 S1067 1.613 . S
N1068 C1071 1.350 . S
N1069 S1067 1.610 . S
N1069 C1070 1.351 . S
C1070 C1064 1.428 . S
C1070 N1069 1.351 . S
C1070 C1071 1.434 . S
C1071 C1062 1.429 . S
C1071 N1068 1.350 . S
C1071 C1070 1.434 . S
C1072 C1073 1.369 . S
C1072 C1074 1.419 . S
C1072 H1076 0.930 . S
C1073 C1072 1.369 . S
C1073 C1082 1.429 . S
C1074 C1072 1.419 . S
C1074 C1075 1.363 . S
C1074 H1077 0.929 . S
C1075 C1074 1.363 . S
C1075 C1081 1.428 . S
H1076 C1072 0.930 . S
H1077 C1074 0.929 . S
S1078 N1079 1.613 . S
S1078 N1080 1.610 . S
N1079 S1078 1.613 . S
N1079 C1082 1.350 . S
N1080 S1078 1.610 . S
N1080 C1081 1.351 . S
C1081 C1075 1.428 . S
C1081 N1080 1.351 . S
C1081 C1082 1.434 . S
C1082 C1073 1.429 . S
C1082 N1079 1.350 . S
C1082 C1081 1.434 . S
C1083 C1084 1.369 . S
C1083 C1085 1.419 . S
C1083 H1087 0.930 . S
C1084 C1083 1.369 . S
C1084 C1093 1.429 . S
C1085 C1083 1.419 . S
C1085 C1086 1.363 . S
C1085 H1088 0.929 . S
C1086 C1085 1.363 . S
C1086 C1092 1.428 . S
H1087 C1083 0.930 . S
H1088 C1085 0.929 . S
S1089 N1090 1.613 . S
S1089 N1091 1.610 . S
N1090 S1089 1.613 . S
N1090 C1093 1.350 . S
N1091 S1089 1.610 . S
N1091 C1092 1.351 . S
C1092 C1086 1.428 . S
C1092 N1091 1.351 . S
C1092 C1093 1.434 . S
C1093 C1084 1.429 . S
C1093 N1090 1.350 . S
C1093 C1092 1.434 . S
C1094 C1095 1.369 . S
C1094 C1096 1.419 . S
C1094 H1098 0.930 . S
C1095 C1094 1.369 . S
C1095 C1104 1.429 . S
C1096 C1094 1.419 . S
C1096 C1097 1.363 . S
C1096 H1099 0.929 . S
C1097 C1096 1.363 . S
C1097 C1103 1.428 . S
H1098 C1094 0.930 . S
H1099 C1096 0.929 . S
S1100 N1101 1.613 . S
S1100 N1102 1.610 . S
N1101 S1100 1.613 . S
N1101 C1104 1.350 . S
N1102 S1100 1.610 . S
N1102 C1103 1.351 . S
C1103 C1097 1.428 . S
C1103 N1102 1.351 . S
C1103 C1104 1.434 . S
C1104 C1095 1.429 . S
C1104 N1101 1.350 . S
C1104 C1103 1.434 . S
C1105 C1106 1.369 . S
C1105 C1107 1.419 . S
C1105 H1109 0.930 . S
C1106 C1105 1.369 . S
C1106 C1115 1.429 . S
C1107 C1105 1.419 . S
C1107 C1108 1.363 . S
C1107 H1110 0.929 . S
C1108 C1107 1.363 . S
C1108 C1114 1.428 . S
H1109 C1105 0.930 . S
H1110 C1107 0.929 . S
S1111 N1112 1.613 . S
S1111 N1113 1.610 . S
N1112 S1111 1.613 . S
N1112 C1115 1.350 . S
N1113 S1111 1.610 . S
N1113 C1114 1.351 . S
C1114 C1108 1.428 . S
C1114 N1113 1.351 . S
C1114 C1115 1.434 . S
C1115 C1106 1.429 . S
C1115 N1112 1.350 . S
C1115 C1114 1.434 . S
C1116 C1117 1.369 . S
C1116 C1118 1.419 1_554 S
C1116 H1120 0.930 . S
C1117 C1116 1.369 . S
C1117 C1126 1.429 1_455 S
C1118 C1116 1.419 1_556 S
C1118 C1119 1.363 . S
C1118 H1121 0.929 . S
C1119 C1118 1.363 . S
C1119 C1125 1.428 1_456 S
H1120 C1116 0.930 . S
H1121 C1118 0.929 . S
S1122 N1123 1.613 . S
S1122 N1124 1.610 . S
N1123 S1122 1.613 . S
N1123 C1126 1.350 . S
N1124 S1122 1.610 . S
N1124 C1125 1.351 . S
C1125 C1119 1.428 1_654 S
C1125 N1124 1.351 . S
C1125 C1126 1.434 . S
C1126 C1117 1.429 1_655 S
C1126 N1123 1.350 . S
C1126 C1125 1.434 . S
C1127 C1128 1.369 1_556 S
C1127 C1129 1.419 . S
C1127 H1131 0.930 . S
C1128 C1127 1.369 1_554 S
C1128 C1137 1.429 . S
C1129 C1127 1.419 . S
C1129 C1130 1.363 . S
C1129 H1132 0.929 . S
C1130 C1129 1.363 . S
C1130 C1136 1.428 . S
H1131 C1127 0.930 . S
H1132 C1129 0.929 . S
S1133 N1134 1.613 . S
S1133 N1135 1.610 1_554 S
N1134 S1133 1.613 . S
N1134 C1137 1.350 . S
N1135 S1133 1.610 1_556 S
N1135 C1136 1.351 . S
C1136 C1130 1.428 . S
C1136 N1135 1.351 . S
C1136 C1137 1.434 1_556 S
C1137 C1128 1.429 . S
C1137 N1134 1.350 . S
C1137 C1136 1.434 1_554 S
C1138 C1139 1.369 . S
C1138 C1140 1.419 1_554 S
C1138 H1142 0.930 . S
C1139 C1138 1.369 . S
C1139 C1148 1.429 1_565 S
C1140 C1138 1.419 1_556 S
C1140 C1141 1.363 1_565 S
C1140 H1143 0.929 . S
C1141 C1140 1.363 1_545 S
C1141 C1147 1.428 . S
H1142 C1138 0.930 . S
H1143 C1140 0.929 . S
S1144 N1145 1.613 . S
S1144 N1146 1.610 1_554 S
N1145 S1144 1.613 . S
N1145 C1148 1.350 . S
N1146 S1144 1.610 1_556 S
N1146 C1147 1.351 . S
C1147 C1141 1.428 . S
C1147 N1146 1.351 . S
C1147 C1148 1.434 1_556 S
C1148 C1139 1.429 1_545 S
C1148 N1145 1.350 . S
C1148 C1147 1.434 1_554 S
C1149 C1150 1.369 1_655 S
C1149 C1151 1.419 1_556 S
C1149 H1153 0.930 . S
C1150 C1149 1.369 1_455 S
C1150 C1159 1.429 1_556 S
C1151 C1149 1.419 1_554 S
C1151 C1152 1.363 1_655 S
C1151 H1154 0.929 . S
C1152 C1151 1.363 1_455 S
C1152 C1158 1.428 . S
H1153 C1149 0.930 . S
H1154 C1151 0.929 . S
S1155 N1156 1.613 . S
S1155 N1157 1.610 . S
N1156 S1155 1.613 . S
N1156 C1159 1.350 . S
N1157 S1155 1.610 . S
N1157 C1158 1.351 . S
C1158 C1152 1.428 . S
C1158 N1157 1.351 . S
C1158 C1159 1.434 . S
C1159 C1150 1.429 1_554 S
C1159 N1156 1.350 . S
C1159 C1158 1.434 . S
C1160 C1161 1.369 . S
C1160 C1162 1.419 1_554 S
C1160 H1164 0.930 . S
C1161 C1160 1.369 . S
C1161 C1170 1.429 . S
C1162 C1160 1.419 1_556 S
C1162 C1163 1.363 . S
C1162 H1165 0.929 . S
C1163 C1162 1.363 . S
C1163 C1169 1.428 1_556 S
H1164 C1160 0.930 . S
H1165 C1162 0.929 . S
S1166 N1167 1.613 . S
S1166 N1168 1.610 . S
N1167 S1166 1.613 . S
N1167 C1170 1.350 . S
N1168 S1166 1.610 . S
N1168 C1169 1.351 . S
C1169 C1163 1.428 1_554 S
C1169 N1168 1.351 . S
C1169 C1170 1.434 . S
C1170 C1161 1.429 . S
C1170 N1167 1.350 . S
C1170 C1169 1.434 . S
C1171 C1172 1.369 . S
C1171 C1173 1.419 1_564 S
C1171 H1175 0.930 . S
C1172 C1171 1.369 . S
C1172 C1181 1.429 1_565 S
C1173 C1171 1.419 1_546 S
C1173 C1174 1.363 . S
C1173 H1176 0.929 1_545 S
C1174 C1173 1.363 . S
C1174 C1180 1.428 1_556 S
H1175 C1171 0.930 . S
H1176 C1173 0.929 1_565 S
S1177 N1178 1.613 . S
S1177 N1179 1.610 . S
N1178 S1177 1.613 . S
N1178 C1181 1.350 . S
N1179 S1177 1.610 . S
N1179 C1180 1.351 . S
C1180 C1174 1.428 1_554 S
C1180 N1179 1.351 . S
C1180 C1181 1.434 . S
C1181 C1172 1.429 1_545 S
C1181 N1178 1.350 . S
C1181 C1180 1.434 . S
C1182 C1183 1.369 . S
C1182 C1184 1.419 . S
C1182 H1186 0.930 . S
C1183 C1182 1.369 . S
C1183 C1192 1.429 . S
C1184 C1182 1.419 . S
C1184 C1185 1.363 . S
C1184 H1187 0.929 . S
C1185 C1184 1.363 . S
C1185 C1191 1.428 . S
H1186 C1182 0.930 . S
H1187 C1184 0.929 . S
S1188 N1189 1.613 . S
S1188 N1190 1.610 . S
N1189 S1188 1.613 . S
N1189 C1192 1.350 . S
N1190 S1188 1.610 . S
N1190 C1191 1.351 . S
C1191 C1185 1.428 . S
C1191 N1190 1.351 . S
C1191 C1192 1.434 . S
C1192 C1183 1.429 . S
C1192 N1189 1.350 . S
C1192 C1191 1.434 . S
C1193 C1194 1.369 . S
C1193 C1195 1.419 . S
C1193 H1197 0.930 . S
C1194 C1193 1.369 . S
C1194 C1203 1.429 . S
C1195 C1193 1.419 . S
C1195 C1196 1.363 . S
C1195 H1198 0.929 . S
C1196 C1195 1.363 . S
C1196 C1202 1.428 . S
H1197 C1193 0.930 . S
H1198 C1195 0.929 . S
S1199 N1200 1.613 . S
S1199 N1201 1.610 . S
N1200 S1199 1.613 . S
N1200 C1203 1.350 . S
N1201 S1199 1.610 . S
N1201 C1202 1.351 . S
C1202 C1196 1.428 . S
C1202 N1201 1.351 . S
C1202 C1203 1.434 . S
C1203 C1194 1.429 . S
C1203 N1200 1.350 . S
C1203 C1202 1.434 . S
C1204 C1205 1.369 . S
C1204 C1206 1.419 . S
C1204 H1208 0.930 . S
C1205 C1204 1.369 . S
C1205 C1214 1.429 . S
C1206 C1204 1.419 . S
C1206 C1207 1.363 . S
C1206 H1209 0.929 . S
C1207 C1206 1.363 . S
C1207 C1213 1.428 . S
H1208 C1204 0.930 . S
H1209 C1206 0.929 . S
S1210 N1211 1.613 . S
S1210 N1212 1.610 . S
N1211 S1210 1.613 . S
N1211 C1214 1.350 . S
N1212 S1210 1.610 . S
N1212 C1213 1.351 . S
C1213 C1207 1.428 . S
C1213 N1212 1.351 . S
C1213 C1214 1.434 . S
C1214 C1205 1.429 . S
C1214 N1211 1.350 . S
C1214 C1213 1.434 . S
C1215 C1216 1.369 . S
C1215 C1217 1.419 . S
C1215 H1219 0.930 . S
C1216 C1215 1.369 . S
C1216 C1225 1.429 . S
C1217 C1215 1.419 . S
C1217 C1218 1.363 . S
C1217 H1220 0.929 . S
C1218 C1217 1.363 . S
C1218 C1224 1.428 . S
H1219 C1215 0.930 . S
H1220 C1217 0.929 . S
S1221 N1222 1.613 . S
S1221 N1223 1.610 . S
N1222 S1221 1.613 . S
N1222 C1225 1.350 . S
N1223 S1221 1.610 . S
N1223 C1224 1.351 . S
C1224 C1218 1.428 . S
C1224 N1223 1.351 . S
C1224 C1225 1.434 . S
C1225 C1216 1.429 . S
C1225 N1222 1.350 . S
C1225 C1224 1.434 . S
C1226 C1227 1.369 . S
C1226 C1228 1.419 . S
C1226 H1230 0.930 . S
C1227 C1226 1.369 . S
C1227 C1236 1.429 . S
C1228 C1226 1.419 . S
C1228 C1229 1.363 . S
C1228 H1231 0.929 . S
C1229 C1228 1.363 . S
C1229 C1235 1.428 . S
H1230 C1226 0.930 . S
H1231 C1228 0.929 . S
S1232 N1233 1.613 . S
S1232 N1234 1.610 . S
N1233 S1232 1.613 . S
N1233 C1236 1.350 . S
N1234 S1232 1.610 . S
N1234 C1235 1.351 . S
C1235 C1229 1.428 . S
C1235 N1234 1.351 . S
C1235 C1236 1.434 . S
C1236 C1227 1.429 . S
C1236 N1233 1.350 . S
C1236 C1235 1.434 . S
C1237 C1238 1.369 . S
C1237 C1239 1.419 . S
C1237 H1241 0.930 . S
C1238 C1237 1.369 . S
C1238 C1247 1.429 . S
C1239 C1237 1.419 . S
C1239 C1240 1.363 . S
C1239 H1242 0.929 . S
C1240 C1239 1.363 . S
C1240 C1246 1.428 . S
H1241 C1237 0.930 . S
H1242 C1239 0.929 . S
S1243 N1244 1.613 . S
S1243 N1245 1.610 . S
N1244 S1243 1.613 . S
N1244 C1247 1.350 . S
N1245 S1243 1.610 . S
N1245 C1246 1.351 . S
C1246 C1240 1.428 . S
C1246 N1245 1.351 . S
C1246 C1247 1.434 . S
C1247 C1238 1.429 . S
C1247 N1244 1.350 . S
C1247 C1246 1.434 . S
C1248 C1249 1.369 . S
C1248 C1250 1.419 . S
C1248 H1252 0.930 . S
C1249 C1248 1.369 . S
C1249 C1258 1.429 . S
C1250 C1248 1.419 . S
C1250 C1251 1.363 . S
C1250 H1253 0.929 . S
C1251 C1250 1.363 . S
C1251 C1257 1.428 . S
H1252 C1248 0.930 . S
H1253 C1250 0.929 . S
S1254 N1255 1.613 . S
S1254 N1256 1.610 . S
N1255 S1254 1.613 . S
N1255 C1258 1.350 . S
N1256 S1254 1.610 . S
N1256 C1257 1.351 . S
C1257 C1251 1.428 . S
C1257 N1256 1.351 . S
C1257 C1258 1.434 . S
C1258 C1249 1.429 . S
C1258 N1255 1.350 . S
C1258 C1257 1.434 . S
C1259 C1260 1.369 . S
C1259 C1261 1.419 . S
C1259 H1263 0.930 . S
C1260 C1259 1.369 . S
C1260 C1269 1.429 . S
C1261 C1259 1.419 . S
C1261 C1262 1.363 . S
C1261 H1264 0.929 . S
C1262 C1261 1.363 . S
C1262 C1268 1.428 . S
H1263 C1259 0.930 . S
H1264 C1261 0.929 . S
S1265 N1266 1.613 . S
S1265 N1267 1.610 . S
N1266 S1265 1.613 . S
N1266 C1269 1.350 . S
N1267 S1265 1.610 . S
N1267 C1268 1.351 . S
C1268 C1262 1.428 . S
C1268 N1267 1.351 . S
C1268 C1269 1.434 . S
C1269 C1260 1.429 . S
C1269 N1266 1.350 . S
C1269 C1268 1.434 . S
C1270 C1271 1.369 . S
C1270 C1272 1.419 . S
C1270 H1274 0.930 . S
C1271 C1270 1.369 . S
C1271 C1280 1.429 . S
C1272 C1270 1.419 . S
C1272 C1273 1.363 . S
C1272 H1275 0.929 . S
C1273 C1272 1.363 . S
C1273 C1279 1.428 . S
H1274 C1270 0.930 . S
H1275 C1272 0.929 . S
S1276 N1277 1.613 . S
S1276 N1278 1.610 . S
N1277 S1276 1.613 . S
N1277 C1280 1.350 . S
N1278 S1276 1.610 . S
N1278 C1279 1.351 . S
C1279 C1273 1.428 . S
C1279 N1278 1.351 . S
C1279 C1280 1.434 . S
C1280 C1271 1.429 . S
C1280 N1277 1.350 . S
C1280 C1279 1.434 . S
C1281 C1282 1.369 . S
C1281 C1283 1.419 . S
C1281 H1285 0.930 . S
C1282 C1281 1.369 . S
C1282 C1291 1.429 . S
C1283 C1281 1.419 . S
C1283 C1284 1.363 . S
C1283 H1286 0.929 . S
C1284 C1283 1.363 . S
C1284 C1290 1.428 . S
H1285 C1281 0.930 . S
H1286 C1283 0.929 . S
S1287 N1288 1.613 . S
S1287 N1289 1.610 . S
N1288 S1287 1.613 . S
N1288 C1291 1.350 . S
N1289 S1287 1.610 . S
N1289 C1290 1.351 . S
C1290 C1284 1.428 . S
C1290 N1289 1.351 . S
C1290 C1291 1.434 . S
C1291 C1282 1.429 . S
C1291 N1288 1.350 . S
C1291 C1290 1.434 . S
C1292 C1293 1.369 . S
C1292 C1294 1.419 . S
C1292 H1296 0.930 . S
C1293 C1292 1.369 . S
C1293 C1302 1.429 . S
C1294 C1292 1.419 . S
C1294 C1295 1.363 . S
C1294 H1297 0.929 . S
C1295 C1294 1.363 . S
C1295 C1301 1.428 . S
H1296 C1292 0.930 . S
H1297 C1294 0.929 . S
S1298 N1299 1.613 . S
S1298 N1300 1.610 . S
N1299 S1298 1.613 . S
N1299 C1302 1.350 . S
N1300 S1298 1.610 . S
N1300 C1301 1.351 . S
C1301 C1295 1.428 . S
C1301 N1300 1.351 . S
C1301 C1302 1.434 . S
C1302 C1293 1.429 . S
C1302 N1299 1.350 . S
C1302 C1301 1.434 . S
C1303 C1304 1.369 . S
C1303 C1305 1.419 . S
C1303 H1307 0.930 . S
C1304 C1303 1.369 . S
C1304 C1313 1.429 . S
C1305 C1303 1.419 . S
C1305 C1306 1.363 . S
C1305 H1308 0.929 . S
C1306 C1305 1.363 . S
C1306 C1312 1.428 . S
H1307 C1303 0.930 . S
H1308 C1305 0.929 . S
S1309 N1310 1.613 . S
S1309 N1311 1.610 . S
N1310 S1309 1.613 . S
N1310 C1313 1.350 . S
N1311 S1309 1.610 . S
N1311 C1312 1.351 . S
C1312 C1306 1.428 . S
C1312 N1311 1.351 . S
C1312 C1313 1.434 . S
C1313 C1304 1.429 . S
C1313 N1310 1.350 . S
C1313 C1312 1.434 . S
C721 C531 2.484 . S
C723 C11 2.498 . S
C732 C59 2.013 . S
C734 C579 2.003 . S
C743 C91 2.263 . S
C745 C499 2.297 . S
C754 C99 1.853 . S
C756 C299 1.859 . S
C765 C339 2.157 . S
C767 C19 2.153 . S
C776 C51 2.332 . S
C778 C259 2.377 . S
C787 C122 2.256 . S
C789 C410 2.269 . S
C798 C170 1.722 . S
C800 C450 1.721 . S
C809 C370 1.994 . S
C811 C202 1.952 . S
C820 C650 2.026 . S
C822 C210 2.021 . S
C831 C130 2.288 . S
C833 C682 2.265 . S
C842 C602 2.516 . S
C844 C162 2.480 . S
C853 C331 2.142 . S
C855 C539 2.191 . S
C864 C251 2.389 . S
C866 C571 2.378 . S
C875 C291 2.642 . S
C877 C491 2.666 . S
C886 C362 2.775 . S
C888 C642 2.760 . S
C897 C690 2.314 . S
C899 C402 2.303 . S
C908 C610 2.599 . S
C910 C442 2.561 . S
C919 C10 1.472 . S
C921 C179 1.470 . S
C930 C211 1.889 . S
C932 C42 1.890 . S
C941 C131 1.681 . S
C943 C90 1.545 . S
C952 C171 1.913 . S
C954 C82 1.965 . S
C963 C219 1.710 . S
C965 C2 1.736 . S
C974 C139 1.551 . S
C976 C50 1.605 . S
C985 C411 1.991 . S
C987 C242 1.979 . S
C996 C451 2.050 . S
C998 C282 2.039 . S
C1007 C371 2.079 . S
C1009 C322 1.968 . S
C1018 C419 1.530 . S
C1020 C330 1.533 . S
C1029 C459 1.458 . S
C1031 C250 1.592 . S
C1040 C379 1.495 . S
C1042 C290 1.505 . S
C1051 C659 1.615 . S
C1053 C490 1.560 . S
C1062 C691 1.970 . S
C1064 C522 1.921 . S
C1073 C570 1.714 . S
C1075 C611 1.738 . S
C1084 C562 2.081 . S
C1086 C651 2.085 . S
C1095 C482 1.847 . S
C1097 C699 1.712 . S
C1106 C619 1.589 . S
C1108 C530 1.587 . S
C1117 C16 1.386 . S
C1119 C7 1.396 . S
C1128 C47 1.526 . S
C1130 C56 1.536 . S
C1139 C96 1.407 . S
C1141 C87 1.412 . S
C1150 C127 1.505 . S
C1152 C136 1.494 1_455 S
C1161 C167 1.373 . S
C1163 C176 1.382 . S
C1172 C216 1.598 . S
C1174 C207 1.608 . S
C1183 C256 1.765 . S
C1185 C247 1.776 . S
C1194 C287 1.352 . S
C1196 C296 1.344 . S
C1205 C336 1.782 . S
C1207 C327 1.787 . S
C1216 C367 1.344 . S
C1218 C376 1.340 . S
C1227 C407 1.715 . S
C1229 C416 1.723 . S
C1238 C447 1.368 . S
C1240 C456 1.378 . S
C1249 C487 1.373 . S
C1251 C496 1.364 . S
C1260 C527 1.508 . S
C1262 C536 1.497 . S
C1271 C576 1.414 . S
C1273 C567 1.405 . S
C1282 C616 1.548 . S
C1284 C607 1.556 . S
C1293 C647 1.360 . S
C1295 C656 1.370 . S
C1304 C687 1.498 . S
C1306 C696 1.505 . S
