# Generated by pormake.
# Topology ukf, (4)-cn, num edge types: 1
# Building blocks:
#     Node 0, Type 0, BuildingBlock: QUQFOY_clean_sbu_3, # of connection points: 4
#     Node 1, Type 0, BuildingBlock: QUQFOY_clean_sbu_3, # of connection points: 4
#     Node 2, Type 0, BuildingBlock: QUQFOY_clean_sbu_3, # of connection points: 4
#     Node 3, Type 0, BuildingBlock: QUQFOY_clean_sbu_3, # of connection points: 4
#     Node 4, Type 0, BuildingBlock: QUQFOY_clean_sbu_3, # of connection points: 4
#     Node 5, Type 0, BuildingBlock: QUQFOY_clean_sbu_3, # of connection points: 4
#     Node 6, Type 0, BuildingBlock: QUQFOY_clean_sbu_3, # of connection points: 4
#     Node 7, Type 0, BuildingBlock: QUQFOY_clean_sbu_3, # of connection points: 4
#     Node 8, Type 0, BuildingBlock: QUQFOY_clean_sbu_3, # of connection points: 4
#     Node 9, Type 0, BuildingBlock: QUQFOY_clean_sbu_3, # of connection points: 4
#     Node 10, Type 0, BuildingBlock: QUQFOY_clean_sbu_3, # of connection points: 4
#     Node 11, Type 0, BuildingBlock: QUQFOY_clean_sbu_3, # of connection points: 4
#     Edge 12, Type (0, 0), BuildingBlock: OJICUG_clean_linker_0, # of connection points: 2
#     Edge 13, Type (0, 0), BuildingBlock: OJICUG_clean_linker_0, # of connection points: 2
#     Edge 14, Type (0, 0), BuildingBlock: OJICUG_clean_linker_0, # of connection points: 2
#     Edge 15, Type (0, 0), BuildingBlock: OJICUG_clean_linker_0, # of connection points: 2
#     Edge 16, Type (0, 0), BuildingBlock: OJICUG_clean_linker_0, # of connection points: 2
#     Edge 17, Type (0, 0), BuildingBlock: OJICUG_clean_linker_0, # of connection points: 2
#     Edge 18, Type (0, 0), BuildingBlock: OJICUG_clean_linker_0, # of connection points: 2
#     Edge 19, Type (0, 0), BuildingBlock: OJICUG_clean_linker_0, # of connection points: 2
#     Edge 20, Type (0, 0), BuildingBlock: OJICUG_clean_linker_0, # of connection points: 2
#     Edge 21, Type (0, 0), BuildingBlock: OJICUG_clean_linker_0, # of connection points: 2
#     Edge 22, Type (0, 0), BuildingBlock: OJICUG_clean_linker_0, # of connection points: 2
#     Edge 23, Type (0, 0), BuildingBlock: OJICUG_clean_linker_0, # of connection points: 2
#     Edge 24, Type (0, 0), BuildingBlock: OJICUG_clean_linker_0, # of connection points: 2
#     Edge 25, Type (0, 0), BuildingBlock: OJICUG_clean_linker_0, # of connection points: 2
#     Edge 26, Type (0, 0), BuildingBlock: OJICUG_clean_linker_0, # of connection points: 2
#     Edge 27, Type (0, 0), BuildingBlock: OJICUG_clean_linker_0, # of connection points: 2
#     Edge 28, Type (0, 0), BuildingBlock: OJICUG_clean_linker_0, # of connection points: 2
#     Edge 29, Type (0, 0), BuildingBlock: OJICUG_clean_linker_0, # of connection points: 2
#     Edge 30, Type (0, 0), BuildingBlock: OJICUG_clean_linker_0, # of connection points: 2
#     Edge 31, Type (0, 0), BuildingBlock: OJICUG_clean_linker_0, # of connection points: 2
#     Edge 32, Type (0, 0), BuildingBlock: OJICUG_clean_linker_0, # of connection points: 2
#     Edge 33, Type (0, 0), BuildingBlock: OJICUG_clean_linker_0, # of connection points: 2
#     Edge 34, Type (0, 0), BuildingBlock: OJICUG_clean_linker_0, # of connection points: 2
#     Edge 35, Type (0, 0), BuildingBlock: OJICUG_clean_linker_0, # of connection points: 2
# Relax obj value: 0.130
# Max RMSD: 0.097
# Mean RMSD: 0.097
data_MOF--net-ukf--node1-QUQFOY_clean_sbu_3--edge1-OJICUG_clean_linker_0
_symmetry_space_group_name_H-M    P1
_symmetry_Int_Tables_number       1
_symmetry_cell_setting            triclinic
loop_
_symmetry_equiv_pos_as_xyz
'x, y, z'
_cell_length_a     23.915727
_cell_length_b     23.729714
_cell_length_c     51.497282
_cell_angle_alpha  89.740271
_cell_angle_beta   89.961907
_cell_angle_gamma 120.42096
loop_
_atom_site_label
_atom_site_type_symbol
_atom_site_fract_x
_atom_site_fract_y
_atom_site_fract_z
_atom_type_partial_charge
C0 C 0.25049 0.11671 0.00446 0.0
O1 O 0.27429 0.16376 0.9883 0.0
Cd2 Cd 0.3686 0.26808 -0.00289 0.0
O3 O 0.27681 0.12283 0.02652 0.0
Cd4 Cd 0.37108 0.20728 0.04987 0.0
C5 C 0.47868 0.21864 0.00608 0.0
O6 O 0.36321 0.30375 0.03984 0.0
O7 O 0.45609 0.32054 0.05301 0.0
O8 O 0.31069 0.17278 0.09091 0.0
C9 C 0.42018 0.34381 0.04751 0.0
O10 O 0.46451 0.25668 -0.006 0.0
C11 C 0.35616 0.17203 0.10332 0.0
O12 O 0.44607 0.18582 0.02576 0.0
O13 O 0.40659 0.18457 0.09054 0.0
C14 C 0.10311 0.24748 0.33901 0.0
O15 O 0.0811 0.26948 0.32181 0.0
Cd16 Cd 0.08183 0.36964 0.32729 0.0
O17 O 0.12376 0.27707 0.36054 0.0
Cd18 Cd 0.13424 0.3736 0.38267 0.0
C19 C 0.24387 0.47314 0.33906 0.0
O20 O 0.03506 0.36974 0.36862 0.0
O21 O 0.11218 0.46236 0.38266 0.0
O22 O 0.1024 0.31623 0.4248 0.0
C23 C 0.05369 0.42773 0.37567 0.0
O24 O 0.19617 0.45616 0.32375 0.0
C25 C 0.14944 0.36257 0.43685 0.0
O26 O 0.2356 0.44703 0.36139 0.0
O27 O 0.1894 0.4117 0.42353 0.0
C28 C 0.84351 0.12144 0.6716 0.0
O29 O 0.80103 0.09915 0.65386 0.0
Cd30 Cd 0.70231 0.1004 0.6578 0.0
O31 O 0.83274 0.14179 0.69279 0.0
Cd32 Cd 0.74405 0.14955 0.71337 0.0
C33 C 0.76058 0.26297 0.67065 0.0
O34 O 0.64885 0.05 0.69798 0.0
O35 O 0.63457 0.1284 0.71083 0.0
O36 O 0.76358 0.11204 0.7551 0.0
C37 C 0.60996 0.0693 0.70415 0.0
O38 O 0.73155 0.21555 0.6549 0.0
C39 C 0.7619 0.15655 0.76806 0.0
O40 O 0.77596 0.25387 0.69326 0.0
O41 O 0.75436 0.19824 0.75546 0.0
C42 C 0.7045 0.85539 0.00618 0.0
O43 O 0.68581 0.81052 0.98938 0.0
Cd44 Cd 0.58636 0.70896 -0.00538 0.0
O45 O 0.67213 0.84593 0.02698 0.0
Cd46 Cd 0.57513 0.75742 0.04823 0.0
C47 C 0.47933 0.76351 0.00237 0.0
O48 O 0.58162 0.66121 0.03657 0.0
O49 O 0.48827 0.64506 0.04908 0.0
O50 O 0.63203 0.78575 0.08988 0.0
C51 C 0.52378 0.62135 0.04363 0.0
O52 O 0.49904 0.73334 0.98807 0.0
C53 C 0.58608 0.78607 0.10211 0.0
O54 O 0.50255 0.78247 0.02496 0.0
O55 O 0.53671 0.77539 0.08906 0.0
C56 C 0.84008 0.71964 0.33482 0.0
O57 O 0.86137 0.69741 0.31751 0.0
Cd58 Cd 0.85931 0.59652 0.32364 0.0
O59 O 0.8197 0.6899 0.35645 0.0
Cd60 Cd 0.80882 0.59291 0.37852 0.0
C61 C 0.69757 0.49366 0.33606 0.0
O62 O 0.90777 0.59573 0.36457 0.0
O63 O 0.82926 0.50321 0.37851 0.0
O64 O 0.84199 0.65081 0.42018 0.0
C65 C 0.88824 0.53759 0.37195 0.0
O66 O 0.74491 0.51 0.32052 0.0
C67 C 0.79531 0.60478 0.43271 0.0
O68 O 0.70652 0.52031 0.35818 0.0
O69 O 0.75488 0.5554 0.41985 0.0
C70 C 0.1083 0.86373 0.66326 0.0
O71 O 0.15104 0.88106 0.64562 0.0
Cd72 Cd 0.24855 0.87804 0.652 0.0
O73 O 0.11698 0.84545 0.6854 0.0
Cd74 Cd 0.19848 0.83089 0.7084 0.0
C75 C 0.19044 0.7168 0.66773 0.0
O76 O 0.29675 0.92591 0.69293 0.0
O77 O 0.30651 0.84726 0.70963 0.0
O78 O 0.20367 0.87981 0.75054 0.0
C79 C 0.33342 0.90558 0.70125 0.0
O80 O 0.21871 0.76287 0.65115 0.0
C81 C 0.17164 0.82568 0.76243 0.0
O82 O 0.1744 0.72724 0.68996 0.0
O83 O 0.15057 0.77406 0.74909 0.0
C84 C 0.84473 0.7256 0.63943 0.0
O85 O 0.80231 0.7042 0.65732 0.0
Cd86 Cd 0.70369 0.60182 0.65353 0.0
O87 O 0.83458 0.69375 0.61844 0.0
Cd88 Cd 0.74804 0.59394 0.59826 0.0
C89 C 0.76154 0.49786 0.64242 0.0
O90 O 0.65339 0.59864 0.61268 0.0
O91 O 0.63658 0.5053 0.59914 0.0
O92 O 0.77274 0.65101 0.55622 0.0
C93 C 0.61337 0.54047 0.60599 0.0
O94 O 0.73176 0.51579 0.65779 0.0
C95 C 0.77244 0.6046 0.54393 0.0
O96 O 0.77806 0.52255 0.61981 0.0
O97 O 0.7627 0.55505 0.55704 0.0
C98 C 0.11409 0.854 0.97259 0.0
O99 O 0.08986 0.80772 0.98908 0.0
Cd100 Cd 0.08779 0.70714 0.98184 0.0
O101 O 0.13495 0.84668 0.95087 0.0
Cd102 Cd 0.14408 0.76292 0.92652 0.0
C103 C 0.24938 0.76315 0.96965 0.0
O104 O 0.04552 0.66477 0.93964 0.0
O105 O 0.12179 0.65179 0.9233 0.0
O106 O 0.09816 0.77003 0.88541 0.0
C107 C 0.06362 0.62637 0.93112 0.0
O108 O 0.20095 0.7346 0.98499 0.0
C109 C 0.15158 0.79711 0.87316 0.0
O110 O 0.24342 0.7815 0.94707 0.0
O111 O 0.20211 0.80989 0.88586 0.0
C112 C 0.23537 0.11674 0.31259 0.0
O113 O 0.25706 0.09517 0.33008 0.0
Cd114 Cd 0.35672 0.09645 0.32496 0.0
O115 O 0.26498 0.13682 0.29096 0.0
Cd116 Cd 0.36111 0.14524 0.26955 0.0
C117 C 0.46062 0.25875 0.31114 0.0
O118 O 0.35757 0.04594 0.28476 0.0
O119 O 0.4502 0.12501 0.27155 0.0
O120 O 0.30465 0.10825 0.22771 0.0
C121 C 0.41569 0.06559 0.27811 0.0
O122 O 0.44339 0.21145 0.32705 0.0
C123 C 0.35103 0.15367 0.21484 0.0
O124 O 0.4344 0.24947 0.28892 0.0
O125 O 0.39962 0.19564 0.22757 0.0
C126 C 0.10807 0.25534 0.64659 0.0
O127 O 0.15173 0.2785 0.66387 0.0
Cd128 Cd 0.25123 0.37894 0.65729 0.0
O129 O 0.11726 0.28416 0.62476 0.0
Cd130 Cd 0.20305 0.38058 0.60209 0.0
C131 C 0.19322 0.48184 0.64434 0.0
O132 O 0.29849 0.37693 0.6162 0.0
O133 O 0.31439 0.46902 0.60109 0.0
O134 O 0.17598 0.32071 0.5608 0.0
C135 C 0.33803 0.43437 0.60827 0.0
O136 O 0.22431 0.46593 0.65995 0.0
C137 C 0.17569 0.36647 0.54802 0.0
O138 O 0.17494 0.45439 0.62237 0.0
O139 O 0.18595 0.41664 0.56058 0.0
C140 C 0.83863 0.12052 0.97713 0.0
O141 O 0.86223 0.16713 -0.00673 0.0
Cd142 Cd 0.87209 0.27138 0.98408 0.0
O143 O 0.81794 0.12713 0.95526 0.0
Cd144 Cd 0.80658 0.21122 0.9325 0.0
C145 C 0.71193 0.22085 0.97745 0.0
O146 O 0.91177 0.30896 0.941 0.0
O147 O 0.83323 0.32352 0.92931 0.0
O148 O 0.82973 0.17703 0.89103 0.0
C149 C 0.89324 0.34791 0.93354 0.0
O150 O 0.76489 0.25967 0.98884 0.0
C151 C 0.7823 0.17559 0.87934 0.0
O152 O 0.71102 0.18809 0.95781 0.0
O153 O 0.74512 0.18777 0.89271 0.0
C154 C 0.70607 0.84926 0.30986 0.0
O155 O 0.68518 0.87106 0.32751 0.0
Cd156 Cd 0.58513 0.86969 0.32336 0.0
O157 O 0.6752 0.82838 0.28864 0.0
Cd158 Cd 0.57792 0.81815 0.26789 0.0
C159 C 0.48025 0.70692 0.3113 0.0
O160 O 0.58241 0.91788 0.28262 0.0
O161 O 0.48974 0.83978 0.26932 0.0
O162 O 0.634 0.85303 0.22583 0.0
C163 C 0.52438 0.89879 0.27614 0.0
O164 O 0.49845 0.75483 0.32676 0.0
C165 C 0.58774 0.80692 0.2134 0.0
O166 O 0.50532 0.71524 0.28882 0.0
O167 O 0.53896 0.7657 0.22646 0.0
C168 C 0.13365 0.9358 0.00684 0.0
C169 C 0.13017 0.92029 0.98038 0.0
H170 H 0.17473 0.01126 0.03534 0.0
C171 C 0.15414 0.971 0.96187 0.0
H172 H 0.11501 0.89783 0.02158 0.0
C173 C 0.18798 0.0361 0.96977 0.0
C174 C 0.19889 0.05131 -0.00371 0.0
H175 H 0.15123 0.96047 0.94131 0.0
H176 H 0.2104 0.07399 0.95508 0.0
C177 C 0.16814 0.00086 0.01475 0.0
C178 C 0.12324 0.18312 0.30612 0.0
C179 C 0.1168 0.19535 0.3323 0.0
H180 H 0.16614 0.1476 0.27918 0.0
C181 C 0.13593 0.16694 0.35173 0.0
H182 H 0.10822 0.20369 0.29068 0.0
C183 C 0.16852 0.13417 0.34512 0.0
C184 C 0.18318 0.13022 0.319 0.0
H185 H 0.13047 0.1746 0.37208 0.0
H186 H 0.1875 0.11763 0.3606 0.0
C187 C 0.15663 0.15113 0.29951 0.0
C188 C 0.92976 0.13883 0.63999 0.0
C189 C 0.9098 0.13554 0.66589 0.0
H190 H 0.00966 0.17957 0.61344 0.0
C191 C 0.9565 0.15794 0.68568 0.0
H192 H 0.89487 0.12112 0.62431 0.0
C193 C 0.02236 0.19085 0.67944 0.0
C194 C 0.04221 0.20244 0.65332 0.0
H195 H 0.94242 0.15491 0.70587 0.0
H196 H 0.05727 0.21264 0.695 0.0
C197 C -0.00442 0.17246 0.63373 0.0
C198 C 0.77417 0.94023 0.97362 0.0
C199 C 0.75662 0.92227 -0.00032 0.0
H200 H 0.81506 0.01845 0.94593 0.0
C201 C 0.78035 0.97115 0.01875 0.0
H202 H 0.7573 0.90369 0.95849 0.0
C203 C 0.81415 0.037 0.01155 0.0
C204 C 0.82385 0.05471 0.98518 0.0
H205 H 0.76848 0.95867 0.03906 0.0
H206 H 0.82702 0.07353 0.02648 0.0
C207 C 0.80716 0.00601 0.9664 0.0
C208 C 0.78476 0.8157 0.29589 0.0
C209 C 0.75905 0.83656 0.31568 0.0
H210 H 0.8329 0.76327 0.28654 0.0
C211 C 0.77533 0.83313 0.34162 0.0
H212 H 0.77405 0.81892 0.27568 0.0
C213 C 0.80854 0.80069 0.34786 0.0
C214 C 0.82659 0.77207 0.32823 0.0
H215 H 0.75707 0.8497 0.3573 0.0
H216 H 0.81513 0.79327 0.36815 0.0
C217 C 0.81874 0.78401 0.30212 0.0
C218 C 0.93049 0.79936 0.67039 0.0
C219 C 0.91046 0.7806 0.64467 0.0
H220 H 0.01059 0.84225 0.69658 0.0
C221 C 0.95694 0.80577 0.62466 0.0
H222 H 0.89574 0.78175 0.68621 0.0
C223 C 0.02283 0.84105 0.6306 0.0
C224 C 0.04292 0.85084 0.65664 0.0
H225 H 0.94276 0.79334 0.60457 0.0
H226 H 0.0576 0.85437 0.61493 0.0
C227 C -0.00362 0.83404 0.67635 0.0
C228 C 0.65327 0.27771 -0.00983 0.0
C229 C 0.65204 0.21891 0.98548 0.0
H230 H 0.59817 0.32327 -0.00041 0.0
C231 C 0.59317 0.15941 0.98754 0.0
H232 H 0.6981 0.32416 0.98845 0.0
C233 C 0.53637 0.15883 -0.00531 0.0
C234 C 0.53759 0.21788 -0.00125 0.0
H235 H 0.59134 0.11356 0.98393 0.0
H236 H 0.49142 0.11257 -0.00345 0.0
C237 C 0.59626 0.27724 -0.00368 0.0
C238 C 0.35146 0.56781 0.35125 0.0
C239 C 0.30836 0.52801 0.33185 0.0
H240 H 0.43977 0.65637 0.35992 0.0
C241 C 0.32539 0.54431 0.30567 0.0
H242 H 0.33945 0.55648 0.37162 0.0
C243 C 0.38344 0.6007 0.299 0.0
C244 C 0.42463 0.64258 0.31841 0.0
H245 H 0.29316 0.51428 0.29035 0.0
H246 H 0.39439 0.61318 0.27864 0.0
C247 C 0.40873 0.62505 0.34459 0.0
C248 C 0.77345 0.34563 0.63733 0.0
C249 C 0.77049 0.32771 0.66353 0.0
H250 H 0.7746 0.41462 0.61016 0.0
C251 C 0.77108 0.36965 0.68286 0.0
H252 H 0.77335 0.31433 0.62206 0.0
C253 C 0.77048 0.42642 0.67607 0.0
C254 C 0.77085 0.443 0.64984 0.0
H255 H 0.76861 0.35693 0.70323 0.0
H256 H 0.76805 0.45641 0.69132 0.0
C257 C 0.77441 0.40316 0.63056 0.0
C258 C 0.35473 0.76997 0.9592 0.0
C259 C 0.31211 0.7711 0.9777 0.0
H260 H 0.44111 0.76589 0.95255 0.0
C261 C 0.32773 0.77512 0.00415 0.0
H262 H 0.34366 0.76666 0.93867 0.0
C263 C 0.38398 0.77601 0.01204 0.0
C264 C 0.42486 0.77131 -0.00635 0.0
H265 H 0.29585 0.7764 0.0188 0.0
H266 H 0.39387 0.77745 0.03263 0.0
C267 C 0.41027 0.76927 0.96713 0.0
C268 C 0.55695 0.36449 0.29753 0.0
C269 C 0.5163 0.32347 0.31746 0.0
H270 H 0.647 0.45053 0.28783 0.0
C271 C 0.53282 0.34219 0.34341 0.0
H272 H 0.54547 0.35106 0.27733 0.0
C273 C 0.59021 0.39973 0.34937 0.0
C274 C 0.63283 0.43865 0.32949 0.0
H275 H 0.50219 0.31154 0.35911 0.0
H276 H 0.6027 0.41194 0.3696 0.0
C277 C 0.61515 0.4212 0.30351 0.0
C278 C 0.17828 0.5743 0.63058 0.0
C279 C 0.18377 0.53704 0.65066 0.0
H280 H 0.17668 0.66102 0.62028 0.0
C281 C 0.18526 0.5562 0.67652 0.0
H282 H 0.17719 0.56079 0.61044 0.0
C283 C 0.1836 0.61289 0.68215 0.0
C284 C 0.18202 0.65216 0.66198 0.0
H285 H 0.18918 0.5282 0.69236 0.0
H286 H 0.18683 0.62764 0.70223 0.0
C287 C 0.17821 0.63176 0.63618 0.0
C288 C 0.41134 0.18887 0.14579 0.0
C289 C 0.35338 0.16308 0.1317 0.0
H290 H 0.4557 0.20719 0.18317 0.0
C291 C 0.29391 0.13281 0.14512 0.0
H292 H 0.45789 0.2129 0.13598 0.0
C293 C 0.29263 0.12852 0.17226 0.0
C294 C 0.35086 0.15615 0.18629 0.0
H295 H 0.24855 0.11265 0.13465 0.0
H296 H 0.24635 0.10498 0.18228 0.0
C297 C 0.41011 0.18613 0.17281 0.0
C298 C 0.18918 0.42153 0.47851 0.0
C299 C 0.1559 0.36195 0.46525 0.0
H300 H 0.22018 0.46931 0.5151 0.0
C301 C 0.12835 0.30309 0.4794 0.0
H302 H 0.21046 0.46764 0.4681 0.0
C303 C 0.13504 0.30405 0.50644 0.0
C304 C 0.16769 0.36389 0.51964 0.0
H305 H 0.10242 0.25654 0.46956 0.0
H306 H 0.11409 0.25822 0.51703 0.0
C307 C 0.19435 0.4225 0.50544 0.0
C308 C 0.80276 0.13651 0.83722 0.0
C309 C 0.77392 0.16616 0.85107 0.0
H310 H 0.8206 0.10913 0.79978 0.0
C311 C 0.74003 0.1909 0.83748 0.0
H312 H 0.8292 0.11713 0.84729 0.0
C313 C 0.73667 0.18792 0.81049 0.0
C314 C 0.76577 0.15875 0.79658 0.0
H315 H 0.7177 0.21439 0.84764 0.0
H316 H 0.71101 0.2083 0.80049 0.0
C317 C 0.79792 0.13201 0.81013 0.0
C318 C 0.64678 0.82525 0.14397 0.0
C319 C 0.58771 0.79402 0.13047 0.0
H320 H 0.69321 0.85494 0.18111 0.0
C321 C 0.52926 0.76768 0.14439 0.0
H322 H 0.69248 0.8459 0.13362 0.0
C323 C 0.52967 0.77129 0.17137 0.0
C324 C 0.58855 0.80271 0.18493 0.0
H325 H 0.48304 0.74294 0.13447 0.0
H326 H 0.48377 0.75004 0.18162 0.0
C327 C 0.64721 0.83039 0.17104 0.0
C328 C 0.81182 0.66541 0.50174 0.0
C329 C 0.77954 0.60603 0.51552 0.0
H330 H 0.84333 0.71171 0.46439 0.0
C331 C 0.75244 0.54694 0.5019 0.0
H332 H 0.83311 0.7116 0.51188 0.0
C333 C 0.7568 0.54702 0.47495 0.0
C334 C 0.7897 0.60618 0.46111 0.0
H335 H 0.7269 0.50048 0.51204 0.0
H336 H 0.7352 0.5006 0.46496 0.0
C337 C 0.81769 0.66548 0.47469 0.0
C338 C 0.10254 0.76485 0.82927 0.0
C339 C 0.15411 0.80869 0.84503 0.0
H340 H 0.06838 0.73531 0.79042 0.0
C341 C 0.20944 0.86083 0.83351 0.0
H342 H 0.05951 0.72405 0.83775 0.0
C343 C 0.21359 0.86838 0.80654 0.0
C344 C 0.16341 0.82259 0.79075 0.0
H345 H 0.2497 0.89523 0.84534 0.0
H346 H 0.25727 0.90823 0.798 0.0
C347 C 0.10763 0.77111 0.80228 0.0
C348 C 0.43011 0.50737 0.04463 0.0
C349 C 0.49751 0.55042 0.0442 0.0
H350 H 0.3527 0.40779 0.04575 0.0
C351 C 0.53928 0.52513 0.04481 0.0
H352 H 0.39683 0.52569 0.04411 0.0
C353 C 0.51401 0.4578 0.04618 0.0
C354 C 0.44659 0.41474 0.04647 0.0
H355 H 0.59141 0.55736 0.0446 0.0
H356 H 0.54729 0.43948 0.04675 0.0
C357 C 0.40484 0.44001 0.04553 0.0
C358 C -0.00171 0.55065 0.37197 0.0
C359 C 0.93074 0.50969 0.37169 0.0
H360 H 0.09039 0.55647 0.37381 0.0
C361 C 0.90382 0.44157 0.37197 0.0
H362 H 0.02011 0.60331 0.37183 0.0
C363 C 0.94391 0.41476 0.37272 0.0
C364 C 0.01141 0.45571 0.3737 0.0
H365 H 0.85176 0.40894 0.37165 0.0
H366 H 0.92205 0.36209 0.37309 0.0
C367 C 0.03835 0.52384 0.37322 0.0
C368 C 0.50005 0.05486 0.69986 0.0
C369 C 0.53953 0.02698 0.70189 0.0
H370 H 0.40344 0.03782 0.69763 0.0
C371 C 0.51101 0.95881 0.7026 0.0
H372 H 0.52104 0.1074 0.69912 0.0
C373 C 0.44368 0.91907 0.70216 0.0
C374 C 0.40422 0.94705 0.70048 0.0
H375 H 0.54058 0.93632 0.70419 0.0
H376 H 0.42255 0.86654 0.70326 0.0
C377 C 0.4329 0.01515 0.69891 0.0
C378 C 0.5008 0.44547 0.60842 0.0
C379 C 0.54308 0.51345 0.60764 0.0
H380 H 0.40219 0.36704 0.60968 0.0
C381 C 0.51759 0.55521 0.60788 0.0
H382 H 0.51939 0.41226 0.60837 0.0
C383 C 0.4507 0.52933 0.60821 0.0
C384 C 0.4084 0.46136 0.60882 0.0
H385 H 0.54927 0.60778 0.60725 0.0
H386 H 0.43211 0.56255 0.60798 0.0
C387 C 0.4339 0.41962 0.60926 0.0
C388 C 0.04585 0.51332 0.93062 0.0
C389 C 0.02036 0.55516 0.93188 0.0
H390 H 0.02523 0.41427 0.93055 0.0
C391 C 0.9531 0.52843 0.93376 0.0
H392 H 0.09767 0.53284 0.92924 0.0
C393 C 0.91185 0.46091 0.93408 0.0
C394 C 0.93726 0.41901 0.93302 0.0
H395 H 0.93229 0.55968 0.93467 0.0
H396 H 0.86005 0.44156 0.93542 0.0
C397 C 0.00458 0.44566 0.93145 0.0
C398 C 0.42915 0.91432 0.27846 0.0
C399 C 0.49674 0.94144 0.27809 0.0
H400 H 0.35036 0.93277 0.27919 0.0
C401 C 0.53744 0.00947 0.27889 0.0
H402 H 0.39674 0.86187 0.27803 0.0
C403 C 0.51089 0.0499 0.2792 0.0
C404 C 0.4433 0.0228 0.27919 0.0
H405 H 0.58969 0.03146 0.27861 0.0
H406 H 0.5433 0.10237 0.27929 0.0
C407 C 0.40261 0.95474 0.27924 0.0
loop_
_geom_bond_atom_site_label_1
_geom_bond_atom_site_label_2
_geom_bond_distance
_geom_bond_site_symmetry_2
_ccdc_geom_bond_type
C0 O1 1.306 . S
C0 O3 1.160 . S
O1 C0 1.306 . S
O1 Cd2 2.228 1_554 S
Cd2 O1 2.228 1_556 S
Cd2 O6 2.273 1_556 S
Cd2 O10 2.277 1_556 S
O3 C0 1.160 . S
O3 Cd4 2.203 . S
Cd4 O3 2.203 . S
Cd4 O6 2.411 . S
Cd4 O7 2.333 . S
Cd4 O8 2.352 . S
Cd4 O12 2.277 . S
Cd4 O13 2.356 . S
C5 O10 1.209 . S
C5 O12 1.226 . S
O6 Cd2 2.273 1_554 S
O6 Cd4 2.411 . S
O6 C9 1.320 . S
O7 Cd4 2.333 . S
O7 C9 1.214 . S
O8 Cd4 2.352 . S
O8 C11 1.258 . S
C9 O6 1.320 . S
C9 O7 1.214 . S
O10 Cd2 2.277 1_554 S
O10 C5 1.209 . S
C11 O8 1.258 . S
C11 O13 1.282 . S
O12 Cd4 2.277 . S
O12 C5 1.226 . S
O13 Cd4 2.356 . S
O13 C11 1.282 . S
C14 O15 1.306 . S
C14 O17 1.160 . S
O15 C14 1.306 . S
O15 Cd16 2.228 . S
Cd16 O15 2.228 . S
Cd16 O20 2.273 . S
Cd16 O24 2.277 . S
O17 C14 1.160 . S
O17 Cd18 2.203 . S
Cd18 O17 2.203 . S
Cd18 O20 2.411 . S
Cd18 O21 2.333 . S
Cd18 O22 2.352 . S
Cd18 O26 2.277 . S
Cd18 O27 2.356 . S
C19 O24 1.209 . S
C19 O26 1.226 . S
O20 Cd16 2.273 . S
O20 Cd18 2.411 . S
O20 C23 1.320 . S
O21 Cd18 2.333 . S
O21 C23 1.214 . S
O22 Cd18 2.352 . S
O22 C25 1.258 . S
C23 O20 1.320 . S
C23 O21 1.214 . S
O24 Cd16 2.277 . S
O24 C19 1.209 . S
C25 O22 1.258 . S
C25 O27 1.282 . S
O26 Cd18 2.277 . S
O26 C19 1.226 . S
O27 Cd18 2.356 . S
O27 C25 1.282 . S
C28 O29 1.306 . S
C28 O31 1.160 . S
O29 C28 1.306 . S
O29 Cd30 2.228 . S
Cd30 O29 2.228 . S
Cd30 O34 2.273 . S
Cd30 O38 2.277 . S
O31 C28 1.160 . S
O31 Cd32 2.203 . S
Cd32 O31 2.203 . S
Cd32 O34 2.411 . S
Cd32 O35 2.333 . S
Cd32 O36 2.352 . S
Cd32 O40 2.277 . S
Cd32 O41 2.356 . S
C33 O38 1.209 . S
C33 O40 1.226 . S
O34 Cd30 2.273 . S
O34 Cd32 2.411 . S
O34 C37 1.320 . S
O35 Cd32 2.333 . S
O35 C37 1.214 . S
O36 Cd32 2.352 . S
O36 C39 1.258 . S
C37 O34 1.320 . S
C37 O35 1.214 . S
O38 Cd30 2.277 . S
O38 C33 1.209 . S
C39 O36 1.258 . S
C39 O41 1.282 . S
O40 Cd32 2.277 . S
O40 C33 1.226 . S
O41 Cd32 2.356 . S
O41 C39 1.282 . S
C42 O43 1.306 . S
C42 O45 1.160 . S
O43 C42 1.306 . S
O43 Cd44 2.228 1_554 S
Cd44 O43 2.228 1_556 S
Cd44 O48 2.273 1_556 S
Cd44 O52 2.277 1_556 S
O45 C42 1.160 . S
O45 Cd46 2.203 . S
Cd46 O45 2.203 . S
Cd46 O48 2.411 . S
Cd46 O49 2.333 . S
Cd46 O50 2.352 . S
Cd46 O54 2.277 . S
Cd46 O55 2.356 . S
C47 O52 1.209 . S
C47 O54 1.226 . S
O48 Cd44 2.273 1_554 S
O48 Cd46 2.411 . S
O48 C51 1.320 . S
O49 Cd46 2.333 . S
O49 C51 1.214 . S
O50 Cd46 2.352 . S
O50 C53 1.258 . S
C51 O48 1.320 . S
C51 O49 1.214 . S
O52 Cd44 2.277 1_554 S
O52 C47 1.209 . S
C53 O50 1.258 . S
C53 O55 1.282 . S
O54 Cd46 2.277 . S
O54 C47 1.226 . S
O55 Cd46 2.356 . S
O55 C53 1.282 . S
C56 O57 1.306 . S
C56 O59 1.160 . S
O57 C56 1.306 . S
O57 Cd58 2.228 . S
Cd58 O57 2.228 . S
Cd58 O62 2.273 . S
Cd58 O66 2.277 . S
O59 C56 1.160 . S
O59 Cd60 2.203 . S
Cd60 O59 2.203 . S
Cd60 O62 2.411 . S
Cd60 O63 2.333 . S
Cd60 O64 2.352 . S
Cd60 O68 2.277 . S
Cd60 O69 2.356 . S
C61 O66 1.209 . S
C61 O68 1.226 . S
O62 Cd58 2.273 . S
O62 Cd60 2.411 . S
O62 C65 1.320 . S
O63 Cd60 2.333 . S
O63 C65 1.214 . S
O64 Cd60 2.352 . S
O64 C67 1.258 . S
C65 O62 1.320 . S
C65 O63 1.214 . S
O66 Cd58 2.277 . S
O66 C61 1.209 . S
C67 O64 1.258 . S
C67 O69 1.282 . S
O68 Cd60 2.277 . S
O68 C61 1.226 . S
O69 Cd60 2.356 . S
O69 C67 1.282 . S
C70 O71 1.306 . S
C70 O73 1.160 . S
O71 C70 1.306 . S
O71 Cd72 2.228 . S
Cd72 O71 2.228 . S
Cd72 O76 2.273 . S
Cd72 O80 2.277 . S
O73 C70 1.160 . S
O73 Cd74 2.203 . S
Cd74 O73 2.203 . S
Cd74 O76 2.411 . S
Cd74 O77 2.333 . S
Cd74 O78 2.352 . S
Cd74 O82 2.277 . S
Cd74 O83 2.356 . S
C75 O80 1.209 . S
C75 O82 1.226 . S
O76 Cd72 2.273 . S
O76 Cd74 2.411 . S
O76 C79 1.320 . S
O77 Cd74 2.333 . S
O77 C79 1.214 . S
O78 Cd74 2.352 . S
O78 C81 1.258 . S
C79 O76 1.320 . S
C79 O77 1.214 . S
O80 Cd72 2.277 . S
O80 C75 1.209 . S
C81 O78 1.258 . S
C81 O83 1.282 . S
O82 Cd74 2.277 . S
O82 C75 1.226 . S
O83 Cd74 2.356 . S
O83 C81 1.282 . S
C84 O85 1.306 . S
C84 O87 1.160 . S
O85 C84 1.306 . S
O85 Cd86 2.228 . S
Cd86 O85 2.228 . S
Cd86 O90 2.273 . S
Cd86 O94 2.277 . S
O87 C84 1.160 . S
O87 Cd88 2.203 . S
Cd88 O87 2.203 . S
Cd88 O90 2.411 . S
Cd88 O91 2.333 . S
Cd88 O92 2.352 . S
Cd88 O96 2.277 . S
Cd88 O97 2.356 . S
C89 O94 1.209 . S
C89 O96 1.226 . S
O90 Cd86 2.273 . S
O90 Cd88 2.411 . S
O90 C93 1.320 . S
O91 Cd88 2.333 . S
O91 C93 1.214 . S
O92 Cd88 2.352 . S
O92 C95 1.258 . S
C93 O90 1.320 . S
C93 O91 1.214 . S
O94 Cd86 2.277 . S
O94 C89 1.209 . S
C95 O92 1.258 . S
C95 O97 1.282 . S
O96 Cd88 2.277 . S
O96 C89 1.226 . S
O97 Cd88 2.356 . S
O97 C95 1.282 . S
C98 O99 1.306 . S
C98 O101 1.160 . S
O99 C98 1.306 . S
O99 Cd100 2.228 1_556 S
Cd100 O99 2.228 1_554 S
Cd100 O104 2.273 1_554 S
Cd100 O108 2.277 1_554 S
O101 C98 1.160 . S
O101 Cd102 2.203 . S
Cd102 O101 2.203 . S
Cd102 O104 2.411 . S
Cd102 O105 2.333 . S
Cd102 O106 2.352 . S
Cd102 O110 2.277 . S
Cd102 O111 2.356 . S
C103 O108 1.209 . S
C103 O110 1.226 . S
O104 Cd100 2.273 1_556 S
O104 Cd102 2.411 . S
O104 C107 1.320 . S
O105 Cd102 2.333 . S
O105 C107 1.214 . S
O106 Cd102 2.352 . S
O106 C109 1.258 . S
C107 O104 1.320 . S
C107 O105 1.214 . S
O108 Cd100 2.277 1_556 S
O108 C103 1.209 . S
C109 O106 1.258 . S
C109 O111 1.282 . S
O110 Cd102 2.277 . S
O110 C103 1.226 . S
O111 Cd102 2.356 . S
O111 C109 1.282 . S
C112 O113 1.306 . S
C112 O115 1.160 . S
O113 C112 1.306 . S
O113 Cd114 2.228 . S
Cd114 O113 2.228 . S
Cd114 O118 2.273 . S
Cd114 O122 2.277 . S
O115 C112 1.160 . S
O115 Cd116 2.203 . S
Cd116 O115 2.203 . S
Cd116 O118 2.411 . S
Cd116 O119 2.333 . S
Cd116 O120 2.352 . S
Cd116 O124 2.277 . S
Cd116 O125 2.356 . S
C117 O122 1.209 . S
C117 O124 1.226 . S
O118 Cd114 2.273 . S
O118 Cd116 2.411 . S
O118 C121 1.320 . S
O119 Cd116 2.333 . S
O119 C121 1.214 . S
O120 Cd116 2.352 . S
O120 C123 1.258 . S
C121 O118 1.320 . S
C121 O119 1.214 . S
O122 Cd114 2.277 . S
O122 C117 1.209 . S
C123 O120 1.258 . S
C123 O125 1.282 . S
O124 Cd116 2.277 . S
O124 C117 1.226 . S
O125 Cd116 2.356 . S
O125 C123 1.282 . S
C126 O127 1.306 . S
C126 O129 1.160 . S
O127 C126 1.306 . S
O127 Cd128 2.228 . S
Cd128 O127 2.228 . S
Cd128 O132 2.273 . S
Cd128 O136 2.277 . S
O129 C126 1.160 . S
O129 Cd130 2.203 . S
Cd130 O129 2.203 . S
Cd130 O132 2.411 . S
Cd130 O133 2.333 . S
Cd130 O134 2.352 . S
Cd130 O138 2.277 . S
Cd130 O139 2.356 . S
C131 O136 1.209 . S
C131 O138 1.226 . S
O132 Cd128 2.273 . S
O132 Cd130 2.411 . S
O132 C135 1.320 . S
O133 Cd130 2.333 . S
O133 C135 1.214 . S
O134 Cd130 2.352 . S
O134 C137 1.258 . S
C135 O132 1.320 . S
C135 O133 1.214 . S
O136 Cd128 2.277 . S
O136 C131 1.209 . S
C137 O134 1.258 . S
C137 O139 1.282 . S
O138 Cd130 2.277 . S
O138 C131 1.226 . S
O139 Cd130 2.356 . S
O139 C137 1.282 . S
C140 O141 1.306 . S
C140 O143 1.160 . S
O141 C140 1.306 . S
O141 Cd142 2.228 1_556 S
Cd142 O141 2.228 1_554 S
Cd142 O146 2.273 1_554 S
Cd142 O150 2.277 1_554 S
O143 C140 1.160 . S
O143 Cd144 2.203 . S
Cd144 O143 2.203 . S
Cd144 O146 2.411 . S
Cd144 O147 2.333 . S
Cd144 O148 2.352 . S
Cd144 O152 2.277 . S
Cd144 O153 2.356 . S
C145 O150 1.209 . S
C145 O152 1.226 . S
O146 Cd142 2.273 1_556 S
O146 Cd144 2.411 . S
O146 C149 1.320 . S
O147 Cd144 2.333 . S
O147 C149 1.214 . S
O148 Cd144 2.352 . S
O148 C151 1.258 . S
C149 O146 1.320 . S
C149 O147 1.214 . S
O150 Cd142 2.277 1_556 S
O150 C145 1.209 . S
C151 O148 1.258 . S
C151 O153 1.282 . S
O152 Cd144 2.277 . S
O152 C145 1.226 . S
O153 Cd144 2.356 . S
O153 C151 1.282 . S
C154 O155 1.306 . S
C154 O157 1.160 . S
O155 C154 1.306 . S
O155 Cd156 2.228 . S
Cd156 O155 2.228 . S
Cd156 O160 2.273 . S
Cd156 O164 2.277 . S
O157 C154 1.160 . S
O157 Cd158 2.203 . S
Cd158 O157 2.203 . S
Cd158 O160 2.411 . S
Cd158 O161 2.333 . S
Cd158 O162 2.352 . S
Cd158 O166 2.277 . S
Cd158 O167 2.356 . S
C159 O164 1.209 . S
C159 O166 1.226 . S
O160 Cd156 2.273 . S
O160 Cd158 2.411 . S
O160 C163 1.320 . S
O161 Cd158 2.333 . S
O161 C163 1.214 . S
O162 Cd158 2.352 . S
O162 C165 1.258 . S
C163 O160 1.320 . S
C163 O161 1.214 . S
O164 Cd156 2.277 . S
O164 C159 1.209 . S
C165 O162 1.258 . S
C165 O167 1.282 . S
O166 Cd158 2.277 . S
O166 C159 1.226 . S
O167 Cd158 2.356 . S
O167 C165 1.282 . S
C168 C169 1.387 . S
C168 H172 0.950 . S
C168 C177 1.390 1_566 S
C169 C168 1.387 . S
C169 C171 1.387 . S
H170 C177 0.950 . S
C171 C169 1.387 . S
C171 C173 1.390 1_566 S
C171 H175 0.950 . S
H172 C168 0.950 . S
C173 C171 1.390 1_544 S
C173 C174 1.387 . S
C173 H176 0.950 . S
C174 C173 1.387 . S
C174 C177 1.387 . S
H175 C171 0.950 . S
H176 C173 0.950 . S
C177 C168 1.390 1_544 S
C177 H170 0.950 . S
C177 C174 1.387 . S
C178 C179 1.387 . S
C178 H182 0.950 . S
C178 C187 1.390 . S
C179 C178 1.387 . S
C179 C181 1.387 . S
H180 C187 0.950 . S
C181 C179 1.387 . S
C181 C183 1.390 . S
C181 H185 0.950 . S
H182 C178 0.950 . S
C183 C181 1.390 . S
C183 C184 1.387 . S
C183 H186 0.950 . S
C184 C183 1.387 . S
C184 C187 1.387 . S
H185 C181 0.950 . S
H186 C183 0.950 . S
C187 C178 1.390 . S
C187 H180 0.950 . S
C187 C184 1.387 . S
C188 C189 1.387 . S
C188 H192 0.950 . S
C188 C197 1.390 1_655 S
C189 C188 1.387 . S
C189 C191 1.387 . S
H190 C197 0.950 . S
C191 C189 1.387 . S
C191 C193 1.390 1_655 S
C191 H195 0.950 . S
H192 C188 0.950 . S
C193 C191 1.390 1_455 S
C193 C194 1.387 . S
C193 H196 0.950 . S
C194 C193 1.387 . S
C194 C197 1.387 . S
H195 C191 0.950 . S
H196 C193 0.950 . S
C197 C188 1.390 1_455 S
C197 H190 0.950 . S
C197 C194 1.387 . S
C198 C199 1.387 . S
C198 H202 0.950 . S
C198 C207 1.390 1_564 S
C199 C198 1.387 . S
C199 C201 1.387 . S
H200 C207 0.950 . S
C201 C199 1.387 . S
C201 C203 1.390 1_564 S
C201 H205 0.950 . S
H202 C198 0.950 . S
C203 C201 1.390 1_546 S
C203 C204 1.387 . S
C203 H206 0.950 . S
C204 C203 1.387 . S
C204 C207 1.387 . S
H205 C201 0.950 . S
H206 C203 0.950 . S
C207 C198 1.390 1_546 S
C207 H200 0.950 . S
C207 C204 1.387 . S
C208 C209 1.387 . S
C208 H212 0.950 . S
C208 C217 1.390 . S
C209 C208 1.387 . S
C209 C211 1.387 . S
H210 C217 0.950 . S
C211 C209 1.387 . S
C211 C213 1.390 . S
C211 H215 0.950 . S
H212 C208 0.950 . S
C213 C211 1.390 . S
C213 C214 1.387 . S
C213 H216 0.950 . S
C214 C213 1.387 . S
C214 C217 1.387 . S
H215 C211 0.950 . S
H216 C213 0.950 . S
C217 C208 1.390 . S
C217 H210 0.950 . S
C217 C214 1.387 . S
C218 C219 1.387 . S
C218 H222 0.950 . S
C218 C227 1.390 1_655 S
C219 C218 1.387 . S
C219 C221 1.387 . S
H220 C227 0.950 . S
C221 C219 1.387 . S
C221 C223 1.390 1_655 S
C221 H225 0.950 . S
H222 C218 0.950 . S
C223 C221 1.390 1_455 S
C223 C224 1.387 . S
C223 H226 0.950 . S
C224 C223 1.387 . S
C224 C227 1.387 . S
H225 C221 0.950 . S
H226 C223 0.950 . S
C227 C218 1.390 1_455 S
C227 H220 0.950 . S
C227 C224 1.387 . S
C228 C229 1.387 . S
C228 H232 0.950 . S
C228 C237 1.390 1_556 S
C229 C228 1.387 . S
C229 C231 1.387 . S
H230 C237 0.950 . S
C231 C229 1.387 . S
C231 C233 1.390 1_556 S
C231 H235 0.950 . S
H232 C228 0.950 . S
C233 C231 1.390 1_554 S
C233 C234 1.387 . S
C233 H236 0.950 . S
C234 C233 1.387 . S
C234 C237 1.387 . S
H235 C231 0.950 . S
H236 C233 0.950 . S
C237 C228 1.390 1_554 S
C237 H230 0.950 . S
C237 C234 1.387 . S
C238 C239 1.387 . S
C238 H242 0.950 . S
C238 C247 1.390 . S
C239 C238 1.387 . S
C239 C241 1.387 . S
H240 C247 0.950 . S
C241 C239 1.387 . S
C241 C243 1.390 . S
C241 H245 0.950 . S
H242 C238 0.950 . S
C243 C241 1.390 . S
C243 C244 1.387 . S
C243 H246 0.950 . S
C244 C243 1.387 . S
C244 C247 1.387 . S
H245 C241 0.950 . S
H246 C243 0.950 . S
C247 C238 1.390 . S
C247 H240 0.950 . S
C247 C244 1.387 . S
C248 C249 1.387 . S
C248 H252 0.950 . S
C248 C257 1.390 . S
C249 C248 1.387 . S
C249 C251 1.387 . S
H250 C257 0.950 . S
C251 C249 1.387 . S
C251 C253 1.390 . S
C251 H255 0.950 . S
H252 C248 0.950 . S
C253 C251 1.390 . S
C253 C254 1.387 . S
C253 H256 0.950 . S
C254 C253 1.387 . S
C254 C257 1.387 . S
H255 C251 0.950 . S
H256 C253 0.950 . S
C257 C248 1.390 . S
C257 H250 0.950 . S
C257 C254 1.387 . S
C258 C259 1.387 . S
C258 H262 0.950 . S
C258 C267 1.390 1_556 S
C259 C258 1.387 . S
C259 C261 1.387 . S
H260 C267 0.950 . S
C261 C259 1.387 . S
C261 C263 1.390 1_556 S
C261 H265 0.950 . S
H262 C258 0.950 . S
C263 C261 1.390 1_554 S
C263 C264 1.387 . S
C263 H266 0.950 . S
C264 C263 1.387 . S
C264 C267 1.387 . S
H265 C261 0.950 . S
H266 C263 0.950 . S
C267 C258 1.390 1_554 S
C267 H260 0.950 . S
C267 C264 1.387 . S
C268 C269 1.387 . S
C268 H272 0.950 . S
C268 C277 1.390 . S
C269 C268 1.387 . S
C269 C271 1.387 . S
H270 C277 0.950 . S
C271 C269 1.387 . S
C271 C273 1.390 . S
C271 H275 0.950 . S
H272 C268 0.950 . S
C273 C271 1.390 . S
C273 C274 1.387 . S
C273 H276 0.950 . S
C274 C273 1.387 . S
C274 C277 1.387 . S
H275 C271 0.950 . S
H276 C273 0.950 . S
C277 C268 1.390 . S
C277 H270 0.950 . S
C277 C274 1.387 . S
C278 C279 1.387 . S
C278 H282 0.950 . S
C278 C287 1.390 . S
C279 C278 1.387 . S
C279 C281 1.387 . S
H280 C287 0.950 . S
C281 C279 1.387 . S
C281 C283 1.390 . S
C281 H285 0.950 . S
H282 C278 0.950 . S
C283 C281 1.390 . S
C283 C284 1.387 . S
C283 H286 0.950 . S
C284 C283 1.387 . S
C284 C287 1.387 . S
H285 C281 0.950 . S
H286 C283 0.950 . S
C287 C278 1.390 . S
C287 H280 0.950 . S
C287 C284 1.387 . S
C288 C289 1.387 . S
C288 H292 0.950 . S
C288 C297 1.390 . S
C289 C288 1.387 . S
C289 C291 1.387 . S
H290 C297 0.950 . S
C291 C289 1.387 . S
C291 C293 1.390 . S
C291 H295 0.950 . S
H292 C288 0.950 . S
C293 C291 1.390 . S
C293 C294 1.387 . S
C293 H296 0.950 . S
C294 C293 1.387 . S
C294 C297 1.387 . S
H295 C291 0.950 . S
H296 C293 0.950 . S
C297 C288 1.390 . S
C297 H290 0.950 . S
C297 C294 1.387 . S
C298 C299 1.387 . S
C298 H302 0.950 . S
C298 C307 1.390 . S
C299 C298 1.387 . S
C299 C301 1.387 . S
H300 C307 0.950 . S
C301 C299 1.387 . S
C301 C303 1.390 . S
C301 H305 0.950 . S
H302 C298 0.950 . S
C303 C301 1.390 . S
C303 C304 1.387 . S
C303 H306 0.950 . S
C304 C303 1.387 . S
C304 C307 1.387 . S
H305 C301 0.950 . S
H306 C303 0.950 . S
C307 C298 1.390 . S
C307 H300 0.950 . S
C307 C304 1.387 . S
C308 C309 1.387 . S
C308 H312 0.950 . S
C308 C317 1.390 . S
C309 C308 1.387 . S
C309 C311 1.387 . S
H310 C317 0.950 . S
C311 C309 1.387 . S
C311 C313 1.390 . S
C311 H315 0.950 . S
H312 C308 0.950 . S
C313 C311 1.390 . S
C313 C314 1.387 . S
C313 H316 0.950 . S
C314 C313 1.387 . S
C314 C317 1.387 . S
H315 C311 0.950 . S
H316 C313 0.950 . S
C317 C308 1.390 . S
C317 H310 0.950 . S
C317 C314 1.387 . S
C318 C319 1.387 . S
C318 H322 0.950 . S
C318 C327 1.390 . S
C319 C318 1.387 . S
C319 C321 1.387 . S
H320 C327 0.950 . S
C321 C319 1.387 . S
C321 C323 1.390 . S
C321 H325 0.950 . S
H322 C318 0.950 . S
C323 C321 1.390 . S
C323 C324 1.387 . S
C323 H326 0.950 . S
C324 C323 1.387 . S
C324 C327 1.387 . S
H325 C321 0.950 . S
H326 C323 0.950 . S
C327 C318 1.390 . S
C327 H320 0.950 . S
C327 C324 1.387 . S
C328 C329 1.387 . S
C328 H332 0.950 . S
C328 C337 1.390 . S
C329 C328 1.387 . S
C329 C331 1.387 . S
H330 C337 0.950 . S
C331 C329 1.387 . S
C331 C333 1.390 . S
C331 H335 0.950 . S
H332 C328 0.950 . S
C333 C331 1.390 . S
C333 C334 1.387 . S
C333 H336 0.950 . S
C334 C333 1.387 . S
C334 C337 1.387 . S
H335 C331 0.950 . S
H336 C333 0.950 . S
C337 C328 1.390 . S
C337 H330 0.950 . S
C337 C334 1.387 . S
C338 C339 1.387 . S
C338 H342 0.950 . S
C338 C347 1.390 . S
C339 C338 1.387 . S
C339 C341 1.387 . S
H340 C347 0.950 . S
C341 C339 1.387 . S
C341 C343 1.390 . S
C341 H345 0.950 . S
H342 C338 0.950 . S
C343 C341 1.390 . S
C343 C344 1.387 . S
C343 H346 0.950 . S
C344 C343 1.387 . S
C344 C347 1.387 . S
H345 C341 0.950 . S
H346 C343 0.950 . S
C347 C338 1.390 . S
C347 H340 0.950 . S
C347 C344 1.387 . S
C348 C349 1.387 . S
C348 H352 0.950 . S
C348 C357 1.390 . S
C349 C348 1.387 . S
C349 C351 1.387 . S
H350 C357 0.950 . S
C351 C349 1.387 . S
C351 C353 1.390 . S
C351 H355 0.950 . S
H352 C348 0.950 . S
C353 C351 1.390 . S
C353 C354 1.387 . S
C353 H356 0.950 . S
C354 C353 1.387 . S
C354 C357 1.387 . S
H355 C351 0.950 . S
H356 C353 0.950 . S
C357 C348 1.390 . S
C357 H350 0.950 . S
C357 C354 1.387 . S
C358 C359 1.387 . S
C358 H362 0.950 . S
C358 C367 1.390 1_655 S
C359 C358 1.387 . S
C359 C361 1.387 . S
H360 C367 0.950 . S
C361 C359 1.387 . S
C361 C363 1.390 1_655 S
C361 H365 0.950 . S
H362 C358 0.950 . S
C363 C361 1.390 1_455 S
C363 C364 1.387 . S
C363 H366 0.950 . S
C364 C363 1.387 . S
C364 C367 1.387 . S
H365 C361 0.950 . S
H366 C363 0.950 . S
C367 C358 1.390 1_455 S
C367 H360 0.950 . S
C367 C364 1.387 . S
C368 C369 1.387 . S
C368 H372 0.950 . S
C368 C377 1.390 1_545 S
C369 C368 1.387 . S
C369 C371 1.387 . S
H370 C377 0.950 . S
C371 C369 1.387 . S
C371 C373 1.390 1_545 S
C371 H375 0.950 . S
H372 C368 0.950 . S
C373 C371 1.390 1_565 S
C373 C374 1.387 . S
C373 H376 0.950 . S
C374 C373 1.387 . S
C374 C377 1.387 . S
H375 C371 0.950 . S
H376 C373 0.950 . S
C377 C368 1.390 1_565 S
C377 H370 0.950 . S
C377 C374 1.387 . S
C378 C379 1.387 . S
C378 H382 0.950 . S
C378 C387 1.390 . S
C379 C378 1.387 . S
C379 C381 1.387 . S
H380 C387 0.950 . S
C381 C379 1.387 . S
C381 C383 1.390 . S
C381 H385 0.950 . S
H382 C378 0.950 . S
C383 C381 1.390 . S
C383 C384 1.387 . S
C383 H386 0.950 . S
C384 C383 1.387 . S
C384 C387 1.387 . S
H385 C381 0.950 . S
H386 C383 0.950 . S
C387 C378 1.390 . S
C387 H380 0.950 . S
C387 C384 1.387 . S
C388 C389 1.387 . S
C388 H392 0.950 . S
C388 C397 1.390 1_455 S
C389 C388 1.387 . S
C389 C391 1.387 . S
H390 C397 0.950 . S
C391 C389 1.387 . S
C391 C393 1.390 1_455 S
C391 H395 0.950 . S
H392 C388 0.950 . S
C393 C391 1.390 1_655 S
C393 C394 1.387 . S
C393 H396 0.950 . S
C394 C393 1.387 . S
C394 C397 1.387 . S
H395 C391 0.950 . S
H396 C393 0.950 . S
C397 C388 1.390 1_655 S
C397 H390 0.950 . S
C397 C394 1.387 . S
C398 C399 1.387 . S
C398 H402 0.950 . S
C398 C407 1.390 1_565 S
C399 C398 1.387 . S
C399 C401 1.387 . S
H400 C407 0.950 . S
C401 C399 1.387 . S
C401 C403 1.390 1_565 S
C401 H405 0.950 . S
H402 C398 0.950 . S
C403 C401 1.390 1_545 S
C403 C404 1.387 . S
C403 H406 0.950 . S
C404 C403 1.387 . S
C404 C407 1.387 . S
H405 C401 0.950 . S
H406 C403 0.950 . S
C407 C398 1.390 1_545 S
C407 H400 0.950 . S
C407 C404 1.387 . S
C169 C98 1.436 . S
C174 C0 1.436 . S
C179 C14 1.435 . S
C184 C112 1.434 . S
C189 C28 1.436 . S
C194 C126 1.435 . S
C199 C42 1.435 . S
C204 C140 1.434 . S
C209 C154 1.434 . S
C214 C56 1.435 . S
C219 C84 1.436 . S
C224 C70 1.434 . S
C229 C145 1.464 . S
C234 C5 1.464 . S
C239 C19 1.464 . S
C244 C159 1.463 . S
C249 C33 1.463 . S
C254 C89 1.464 . S
C259 C103 1.464 . S
C264 C47 1.464 . S
C269 C117 1.464 . S
C274 C61 1.463 . S
C279 C131 1.464 . S
C284 C75 1.463 . S
C289 C11 1.676 . S
C294 C123 1.675 . S
C299 C25 1.676 . S
C304 C137 1.676 . S
C309 C151 1.677 . S
C314 C39 1.676 . S
C319 C53 1.677 . S
C324 C165 1.676 . S
C329 C95 1.676 . S
C334 C67 1.676 . S
C339 C109 1.675 . S
C344 C81 1.677 . S
C349 C51 1.452 . S
C354 C9 1.452 . S
C359 C65 1.455 . S
C364 C23 1.455 . S
C369 C37 1.452 . S
C374 C79 1.452 . S
C379 C93 1.452 . S
C384 C135 1.452 . S
C389 C107 1.455 . S
C394 C149 1.455 . S
C399 C163 1.455 . S
C404 C121 1.455 . S
