# Generated by pormake.
# Topology uop, (4)-cn, num edge types: 1
# Building blocks:
#     Node 0, Type 0, BuildingBlock: MUDLON_clean_sbu_0, # of connection points: 4
#     Node 1, Type 0, BuildingBlock: MUDLON_clean_sbu_0, # of connection points: 4
#     Node 2, Type 0, BuildingBlock: MUDLON_clean_sbu_0, # of connection points: 4
#     Node 3, Type 0, BuildingBlock: MUDLON_clean_sbu_0, # of connection points: 4
#     Node 4, Type 0, BuildingBlock: MUDLON_clean_sbu_0, # of connection points: 4
#     Node 5, Type 0, BuildingBlock: MUDLON_clean_sbu_0, # of connection points: 4
#     Node 6, Type 0, BuildingBlock: MUDLON_clean_sbu_0, # of connection points: 4
#     Node 7, Type 0, BuildingBlock: MUDLON_clean_sbu_0, # of connection points: 4
#     Node 8, Type 0, BuildingBlock: MUDLON_clean_sbu_0, # of connection points: 4
#     Node 9, Type 0, BuildingBlock: MUDLON_clean_sbu_0, # of connection points: 4
#     Node 10, Type 0, BuildingBlock: MUDLON_clean_sbu_0, # of connection points: 4
#     Node 11, Type 0, BuildingBlock: MUDLON_clean_sbu_0, # of connection points: 4
#     Edge 12, Type (0, 0), BuildingBlock: XUDNAN_clean_linker_2, # of connection points: 2
#     Edge 13, Type (0, 0), BuildingBlock: XUDNAN_clean_linker_2, # of connection points: 2
#     Edge 14, Type (0, 0), BuildingBlock: XUDNAN_clean_linker_2, # of connection points: 2
#     Edge 15, Type (0, 0), BuildingBlock: XUDNAN_clean_linker_2, # of connection points: 2
#     Edge 16, Type (0, 0), BuildingBlock: XUDNAN_clean_linker_2, # of connection points: 2
#     Edge 17, Type (0, 0), BuildingBlock: XUDNAN_clean_linker_2, # of connection points: 2
#     Edge 18, Type (0, 0), BuildingBlock: XUDNAN_clean_linker_2, # of connection points: 2
#     Edge 19, Type (0, 0), BuildingBlock: XUDNAN_clean_linker_2, # of connection points: 2
#     Edge 20, Type (0, 0), BuildingBlock: XUDNAN_clean_linker_2, # of connection points: 2
#     Edge 21, Type (0, 0), BuildingBlock: XUDNAN_clean_linker_2, # of connection points: 2
#     Edge 22, Type (0, 0), BuildingBlock: XUDNAN_clean_linker_2, # of connection points: 2
#     Edge 23, Type (0, 0), BuildingBlock: XUDNAN_clean_linker_2, # of connection points: 2
#     Edge 24, Type (0, 0), BuildingBlock: XUDNAN_clean_linker_2, # of connection points: 2
#     Edge 25, Type (0, 0), BuildingBlock: XUDNAN_clean_linker_2, # of connection points: 2
#     Edge 26, Type (0, 0), BuildingBlock: XUDNAN_clean_linker_2, # of connection points: 2
#     Edge 27, Type (0, 0), BuildingBlock: XUDNAN_clean_linker_2, # of connection points: 2
#     Edge 28, Type (0, 0), BuildingBlock: XUDNAN_clean_linker_2, # of connection points: 2
#     Edge 29, Type (0, 0), BuildingBlock: XUDNAN_clean_linker_2, # of connection points: 2
#     Edge 30, Type (0, 0), BuildingBlock: XUDNAN_clean_linker_2, # of connection points: 2
#     Edge 31, Type (0, 0), BuildingBlock: XUDNAN_clean_linker_2, # of connection points: 2
#     Edge 32, Type (0, 0), BuildingBlock: XUDNAN_clean_linker_2, # of connection points: 2
#     Edge 33, Type (0, 0), BuildingBlock: XUDNAN_clean_linker_2, # of connection points: 2
#     Edge 34, Type (0, 0), BuildingBlock: XUDNAN_clean_linker_2, # of connection points: 2
#     Edge 35, Type (0, 0), BuildingBlock: XUDNAN_clean_linker_2, # of connection points: 2
# Relax obj value: 0.173
# Max RMSD: 0.295
# Mean RMSD: 0.295
data_MOF--net-uop--node1-MUDLON_clean_sbu_0--edge1-XUDNAN_clean_linker_2
_symmetry_space_group_name_H-M    P1
_symmetry_Int_Tables_number       1
_symmetry_cell_setting            triclinic
loop_
_symmetry_equiv_pos_as_xyz
'x, y, z'
_cell_length_a     34.254822
_cell_length_b     34.486559
_cell_length_c     47.795633
_cell_angle_alpha  89.949828
_cell_angle_beta   90.023332
_cell_angle_gamma 120.0582
loop_
_atom_site_label
_atom_site_type_symbol
_atom_site_fract_x
_atom_site_fract_y
_atom_site_fract_z
_atom_type_partial_charge
Mg0 Mg 0.27569 0.42043 0.20482 0.0
C1 C 0.25591 0.49518 0.19599 0.0
O2 O 0.23432 0.46934 0.17461 0.0
C3 C 0.30717 0.3693 0.23932 0.0
O4 O 0.31565 0.36167 0.21374 0.0
C5 C 0.18301 0.33752 0.20122 0.0
O6 O 0.19766 0.32883 0.22446 0.0
O7 O 0.20947 0.37269 0.18747 0.0
O8 O 0.27556 0.48239 0.21322 0.0
O9 O 0.33447 0.43909 0.17827 0.0
C10 C 0.35086 0.47282 0.16197 0.0
O11 O 0.32833 0.49387 0.15777 0.0
O12 O 0.2889 0.39329 0.2427 0.0
Mg13 Mg 0.86141 0.26957 0.54081 0.0
C14 C 0.89711 0.36017 0.51961 0.0
O15 O 0.87139 0.35699 0.5409 0.0
C16 C 0.82085 0.17056 0.53629 0.0
O17 O 0.79292 0.17387 0.55364 0.0
C18 C 0.91377 0.26948 0.593 0.0
O19 O 0.9024 0.22895 0.58451 0.0
O20 O 0.89923 0.2917 0.57974 0.0
O21 O 0.89942 0.32573 0.51273 0.0
O22 O 0.79468 0.26218 0.54349 0.0
C23 C 0.7709 0.24981 0.52133 0.0
O24 O 0.78714 0.24073 0.49895 0.0
O25 O 0.8544 0.20628 0.52692 0.0
Mg26 Mg 0.61755 0.84578 0.87737 0.0
C27 C 0.53499 0.76006 0.85978 0.0
O28 O 0.54453 0.78272 0.83625 0.0
C29 C 0.66731 0.90121 0.92951 0.0
O30 O 0.70056 0.89575 0.92071 0.0
C31 C 0.6714 0.81214 0.84636 0.0
O32 O 0.63338 0.79178 0.83231 0.0
O33 O 0.67571 0.83958 0.86553 0.0
O34 O 0.55989 0.77827 0.88107 0.0
O35 O 0.59801 0.88311 0.84945 0.0
C36 C 0.56024 0.87881 0.85662 0.0
O37 O 0.53839 0.85195 0.87759 0.0
O38 O 0.62995 0.88234 0.91643 0.0
Mg39 Mg 0.74947 0.60663 0.20168 0.0
C40 C 0.76839 0.54327 0.17352 0.0
O41 O 0.77503 0.57369 0.15462 0.0
C42 C 0.71363 0.63942 0.24703 0.0
O43 O 0.69404 0.64427 0.22475 0.0
C44 C 0.84673 0.66118 0.19971 0.0
O45 O 0.83714 0.63071 0.21914 0.0
O46 O 0.81414 0.66143 0.187 0.0
O47 O 0.75638 0.54751 0.19798 0.0
O48 O 0.68768 0.58862 0.17875 0.0
C49 C 0.67814 0.61112 0.16184 0.0
O50 O 0.70941 0.65185 0.1548 0.0
O51 O 0.7394 0.62296 0.24418 0.0
Mg52 Mg 0.15347 0.75469 0.53193 0.0
C53 C 0.1069 0.67653 0.49201 0.0
O54 O 0.14825 0.69376 0.48244 0.0
C55 C 0.15563 0.8435 0.52972 0.0
O56 O 0.12987 0.82608 0.55184 0.0
C57 C 0.10198 0.71304 0.58572 0.0
O58 O 0.08363 0.67702 0.56994 0.0
O59 O 0.13362 0.74956 0.5757 0.0
O60 O 0.09873 0.69755 0.51084 0.0
O61 O 0.21299 0.74871 0.52539 0.0
C62 C 0.2529 0.78205 0.52552 0.0
O63 O 0.25947 0.82183 0.53219 0.0
O64 O 0.16848 0.82006 0.51624 0.0
Mg65 Mg 0.43128 0.14811 0.87264 0.0
C66 C 0.51541 0.23191 0.85709 0.0
O67 O 0.49838 0.21555 0.83236 0.0
C68 C 0.36571 0.08794 0.9173 0.0
O69 O 0.33714 0.09014 0.89997 0.0
C70 C 0.34649 0.14571 0.84544 0.0
O71 O 0.33019 0.1026 0.84155 0.0
O72 O 0.3851 0.16913 0.85664 0.0
O73 O 0.49446 0.21009 0.87883 0.0
O74 O 0.44679 0.10796 0.84467 0.0
C75 C 0.42569 0.06563 0.84757 0.0
O76 O 0.39079 0.04714 0.86449 0.0
O77 O 0.40766 0.11053 0.91187 0.0
Mg78 Mg 0.60986 0.77071 0.4712 0.0
C79 C 0.56078 0.67602 0.47738 0.0
O80 O 0.55124 0.68615 0.45276 0.0
C81 C 0.69742 0.85601 0.48297 0.0
O82 O 0.71066 0.83976 0.46259 0.0
C83 C 0.62544 0.75289 0.40959 0.0
O84 O 0.58695 0.75123 0.40442 0.0
O85 O 0.64182 0.76219 0.43415 0.0
O86 O 0.58712 0.70788 0.49347 0.0
O87 O 0.54781 0.77161 0.46324 0.0
C88 C 0.53909 0.7976 0.47739 0.0
O89 O 0.57008 0.82689 0.49428 0.0
O90 O 0.65741 0.83272 0.49229 0.0
Mg91 Mg 0.8727 0.59173 0.8061 0.0
C92 C 0.79542 0.52155 0.83488 0.0
O93 O 0.82107 0.5501 0.8542 0.0
C94 C 0.92821 0.65225 0.76037 0.0
O95 O 0.93352 0.67992 0.78082 0.0
C96 C 0.83023 0.64721 0.80934 0.0
O97 O 0.80953 0.61951 0.78853 0.0
O98 O 0.86129 0.64439 0.82215 0.0
O99 O 0.80811 0.53008 0.80949 0.0
O100 O 0.9177 0.57746 0.83054 0.0
C101 C 0.95907 0.59445 0.82408 0.0
O102 O 0.97613 0.62587 0.80485 0.0
O103 O 0.90155 0.61051 0.76414 0.0
Mg104 Mg 0.26567 0.85608 0.14042 0.0
C105 C 0.28012 0.78984 0.17129 0.0
O106 O 0.29403 0.8233 0.189 0.0
C107 C 0.30675 0.89637 0.08285 0.0
O108 O 0.34485 0.90475 0.09465 0.0
C109 C 0.17382 0.81337 0.16872 0.0
O110 O 0.1866 0.785 0.17676 0.0
O111 O 0.20129 0.8479 0.15484 0.0
O112 O 0.26559 0.79345 0.14746 0.0
O113 O 0.32619 0.90784 0.16122 0.0
C114 C 0.347 0.94852 0.15332 0.0
O115 O 0.32842 0.96168 0.13428 0.0
O116 O 0.27006 0.87471 0.09647 0.0
Mg117 Mg 0.40567 0.25671 0.4723 0.0
C118 C 0.44304 0.35257 0.47566 0.0
O119 O 0.46113 0.34564 0.45336 0.0
C120 C 0.34318 0.15948 0.47704 0.0
O121 O 0.37186 0.1625 0.45772 0.0
C122 C 0.37145 0.27649 0.42042 0.0
O123 O 0.35103 0.28599 0.44027 0.0
O124 O 0.39744 0.26161 0.42736 0.0
O125 O 0.41517 0.31898 0.49005 0.0
O126 O 0.4661 0.2556 0.48473 0.0
C127 C 0.48908 0.24272 0.47075 0.0
O128 O 0.47689 0.22804 0.44507 0.0
O129 O 0.34807 0.19541 0.48778 0.0
Mg130 Mg 0.18315 0.40202 0.8006 0.0
C131 C 0.26188 0.46682 0.83331 0.0
O132 O 0.23603 0.4371 0.85205 0.0
C133 C 0.12869 0.35822 0.74916 0.0
O134 O 0.11624 0.32297 0.76519 0.0
C135 C 0.2257 0.34634 0.8097 0.0
O136 O 0.25955 0.38465 0.80107 0.0
O137 O 0.18693 0.34258 0.81208 0.0
O138 O 0.24893 0.46084 0.80794 0.0
O139 O 0.13709 0.41583 0.82412 0.0
C140 C 0.14382 0.45457 0.81775 0.0
O141 O 0.17624 0.4788 0.79993 0.0
O142 O 0.1592 0.39635 0.75787 0.0
Mg143 Mg 0.76976 0.17745 0.13235 0.0
C144 C 0.77196 0.26166 0.15056 0.0
O145 O 0.75961 0.23865 0.174 0.0
C146 C 0.76864 0.11864 0.08408 0.0
O147 O 0.79621 0.11293 0.10041 0.0
C148 C 0.86833 0.21502 0.14081 0.0
O149 O 0.86704 0.24095 0.1211 0.0
O150 O 0.83121 0.18337 0.15031 0.0
O151 O 0.7791 0.24436 0.12907 0.0
O152 O 0.70692 0.13752 0.15524 0.0
C153 C 0.67419 0.13949 0.14405 0.0
O154 O 0.68254 0.16546 0.12209 0.0
O155 O 0.75516 0.14535 0.0916 0.0
H156 H 0.24585 0.70989 0.14252 0.0
H157 H 0.3143 0.7761 0.21942 0.0
H158 H 0.31369 0.70755 0.23459 0.0
H159 H 0.1736 0.6011 0.17322 0.0
H160 H 0.17712 0.57059 0.14364 0.0
H161 H 0.18278 0.62495 0.13861 0.0
H162 H 0.26003 0.65288 0.11439 0.0
H163 H 0.25449 0.59856 0.11924 0.0
H164 H 0.30356 0.64786 0.13239 0.0
H165 H 0.30679 0.63233 0.24136 0.0
H166 H 0.29451 0.55547 0.23885 0.0
H167 H 0.2296 0.53745 0.15805 0.0
C168 C 0.26078 0.70998 0.16252 0.0
C169 C 0.28014 0.74847 0.17975 0.0
C170 C 0.2992 0.74711 0.20582 0.0
C171 C 0.29902 0.70828 0.21467 0.0
C172 C 0.27951 0.6709 0.1973 0.0
C173 C 0.26075 0.67135 0.17177 0.0
C174 C 0.24214 0.62658 0.15709 0.0
C175 C 0.19087 0.60451 0.1529 0.0
C176 C 0.26653 0.6318 0.12913 0.0
C177 C 0.25363 0.6011 0.1783 0.0
C178 C 0.27514 0.62728 0.20135 0.0
C179 C 0.28981 0.61141 0.22346 0.0
C180 C 0.28267 0.56769 0.22186 0.0
C181 C 0.26095 0.54031 0.19834 0.0
C182 C 0.24599 0.55733 0.17643 0.0
H183 H 0.71192 0.22326 0.47717 0.0
H184 H 0.73066 0.27342 0.5623 0.0
H185 H 0.65942 0.27484 0.55895 0.0
H186 H 0.66843 0.28903 0.44931 0.0
H187 H 0.62817 0.24582 0.42655 0.0
H188 H 0.6793 0.24638 0.43608 0.0
H189 H 0.63256 0.16522 0.4549 0.0
H190 H 0.58123 0.1643 0.4453 0.0
H191 H 0.58949 0.15227 0.48081 0.0
H192 H 0.58824 0.27414 0.54562 0.0
H193 H 0.5211 0.26994 0.52377 0.0
H194 H 0.54835 0.21988 0.4472 0.0
C195 C 0.7009 0.23419 0.49523 0.0
C196 C 0.72691 0.24823 0.52003 0.0
C197 C 0.71129 0.26239 0.54312 0.0
C198 C 0.67087 0.26334 0.54141 0.0
C199 C 0.64638 0.2498 0.51653 0.0
C200 C 0.66063 0.23524 0.49391 0.0
C201 C 0.62852 0.22337 0.46939 0.0
C202 C 0.65255 0.25293 0.44383 0.0
C203 C 0.60666 0.17332 0.46219 0.0
C204 C 0.59435 0.23428 0.48159 0.0
C205 C 0.60521 0.24926 0.50885 0.0
C206 C 0.57925 0.2622 0.52435 0.0
C207 C 0.54117 0.25974 0.51169 0.0
C208 C 0.5293 0.24453 0.48373 0.0
C209 C 0.55635 0.23154 0.4686 0.0
H210 H 0.47633 0.71195 0.81762 0.0
H211 H 0.50494 0.70399 0.90529 0.0
H212 H 0.43931 0.6273 0.90761 0.0
H213 H 0.35618 0.65329 0.82371 0.0
H214 H 0.34673 0.62499 0.79059 0.0
H215 H 0.39646 0.67883 0.79573 0.0
H216 H 0.44665 0.64544 0.78169 0.0
H217 H 0.39706 0.59144 0.77656 0.0
H218 H 0.44075 0.59714 0.8001 0.0
H219 H 0.36982 0.55224 0.9006 0.0
H220 H 0.30112 0.48412 0.88497 0.0
H221 H 0.31814 0.54083 0.80168 0.0
C222 C 0.46893 0.69411 0.83732 0.0
C223 C 0.49583 0.71401 0.8613 0.0
C224 C 0.48487 0.68946 0.88665 0.0
C225 C 0.44768 0.64587 0.88817 0.0
C226 C 0.4219 0.62731 0.86414 0.0
C227 C 0.43203 0.65062 0.83919 0.0
C228 C 0.3986 0.62324 0.8165 0.0
C229 C 0.37298 0.64648 0.80603 0.0
C230 C 0.42218 0.61376 0.79228 0.0
C231 C 0.36787 0.58092 0.83263 0.0
C232 C 0.38197 0.58396 0.86005 0.0
C233 C 0.35855 0.54942 0.87915 0.0
C234 C 0.31953 0.51085 0.87005 0.0
C235 C 0.30426 0.50706 0.84208 0.0
C236 C 0.32907 0.54256 0.82314 0.0
H237 H 0.75122 0.46969 0.20559 0.0
H238 H 0.79835 0.5298 0.12368 0.0
H239 H 0.8061 0.46542 0.10946 0.0
H240 H 0.82456 0.42196 0.21179 0.0
H241 H 0.78234 0.37163 0.2288 0.0
H242 H 0.78175 0.42324 0.23305 0.0
H243 H 0.69926 0.38443 0.2152 0.0
H244 H 0.69963 0.33275 0.21086 0.0
H245 H 0.68571 0.35674 0.18169 0.0
H246 H 0.80671 0.39385 0.10335 0.0
H247 H 0.80055 0.31951 0.10604 0.0
H248 H 0.75328 0.30544 0.19179 0.0
C249 C 0.76346 0.46943 0.18475 0.0
C250 C 0.77417 0.50486 0.16578 0.0
C251 C 0.78986 0.5031 0.13862 0.0
C252 C 0.79446 0.46667 0.13031 0.0
C253 C 0.7833 0.43218 0.14938 0.0
C254 C 0.76822 0.43319 0.17605 0.0
C255 C 0.75772 0.39121 0.19221 0.0
C256 C 0.78844 0.40271 0.21799 0.0
C257 C 0.7076 0.36473 0.20046 0.0
C258 C 0.76893 0.36644 0.17036 0.0
C259 C 0.78373 0.39074 0.14584 0.0
C260 C 0.79535 0.37453 0.12248 0.0
C261 C 0.79169 0.33224 0.12421 0.0
C262 C 0.77651 0.30664 0.14912 0.0
C263 C 0.76518 0.32422 0.17248 0.0
H264 H 0.51072 0.85126 0.50171 0.0
H265 H 0.46228 0.72679 0.45589 0.0
H266 H 0.38386 0.70987 0.46275 0.0
H267 H 0.42575 0.81068 0.55287 0.0
H268 H 0.42103 0.8604 0.55436 0.0
H269 H 0.47361 0.8645 0.54431 0.0
H270 H 0.47356 0.90352 0.49798 0.0
H271 H 0.42122 0.90008 0.50804 0.0
H272 H 0.42528 0.87686 0.47512 0.0
H273 H 0.31072 0.70321 0.47829 0.0
H274 H 0.24787 0.71093 0.49707 0.0
H275 H 0.34378 0.84106 0.53133 0.0
C276 C 0.48368 0.82077 0.49273 0.0
C277 C 0.49267 0.79033 0.47827 0.0
C278 C 0.45629 0.75075 0.46691 0.0
C279 C 0.41159 0.74074 0.4708 0.0
C280 C 0.40388 0.7709 0.4858 0.0
C281 C 0.4389 0.81047 0.49618 0.0
C282 C 0.42139 0.83687 0.51185 0.0
C283 C 0.43634 0.84348 0.54267 0.0
C284 C 0.43624 0.882 0.49737 0.0
C285 C 0.37102 0.80555 0.50912 0.0
C286 C 0.36166 0.7676 0.49412 0.0
C287 C 0.31761 0.73302 0.48978 0.0
C288 C 0.28215 0.73761 0.50069 0.0
C289 C 0.29088 0.77666 0.51561 0.0
C290 C 0.336 0.81095 0.51987 0.0
H291 H 0.56979 0.28481 0.81445 0.0
H292 H 0.55665 0.278 0.90496 0.0
H293 H 0.62629 0.35152 0.90875 0.0
H294 H 0.69085 0.33631 0.81254 0.0
H295 H 0.69728 0.371 0.78269 0.0
H296 H 0.64628 0.31789 0.78703 0.0
H297 H 0.59908 0.35753 0.78418 0.0
H298 H 0.64994 0.41079 0.7799 0.0
H299 H 0.61127 0.40294 0.80781 0.0
H300 H 0.69642 0.42562 0.90282 0.0
H301 H 0.76408 0.49499 0.88787 0.0
H302 H 0.73272 0.45396 0.80102 0.0
C303 C 0.58153 0.29871 0.83509 0.0
C304 C 0.55768 0.2756 0.85944 0.0
C305 C 0.57431 0.295 0.88603 0.0
C306 C 0.61381 0.33678 0.88839 0.0
C307 C 0.63634 0.35869 0.86398 0.0
C308 C 0.62097 0.34033 0.83784 0.0
C309 C 0.65177 0.37077 0.81495 0.0
C310 C 0.67279 0.34761 0.79833 0.0
C311 C 0.6265 0.38643 0.79557 0.0
C312 C 0.6869 0.40917 0.83233 0.0
C313 C 0.67717 0.40147 0.86055 0.0
C314 C 0.70444 0.432 0.88079 0.0
C315 C 0.74283 0.47139 0.87203 0.0
C316 C 0.75384 0.48 0.84324 0.0
C317 C 0.72529 0.44839 0.82316 0.0
H318 H 0.60489 0.53184 0.17796 0.0
H319 H 0.64315 0.64955 0.12676 0.0
H320 H 0.56264 0.62179 0.11635 0.0
H321 H 0.50678 0.45162 0.13584 0.0
H322 H 0.47478 0.42286 0.16655 0.0
H323 H 0.53541 0.44914 0.16686 0.0
H324 H 0.53878 0.49511 0.2106 0.0
H325 H 0.47833 0.46904 0.21042 0.0
H326 H 0.5126 0.52924 0.20939 0.0
H327 H 0.47749 0.58489 0.11576 0.0
H328 H 0.39577 0.54337 0.12579 0.0
H329 H 0.41393 0.44998 0.1774 0.0
C330 C 0.59658 0.55144 0.16404 0.0
C331 C 0.6305 0.59285 0.15305 0.0
C332 C 0.61787 0.61765 0.13531 0.0
C333 C 0.5722 0.60207 0.12923 0.0
C334 C 0.5396 0.56151 0.14091 0.0
C335 C 0.55132 0.53648 0.15786 0.0
C336 C 0.51 0.49598 0.16972 0.0
C337 C 0.50655 0.45232 0.1591 0.0
C338 C 0.50994 0.49747 0.20193 0.0
C339 C 0.47308 0.50271 0.15746 0.0
C340 C 0.49073 0.54037 0.14061 0.0
C341 C 0.46329 0.555 0.12857 0.0
C342 C 0.41686 0.53116 0.13441 0.0
C343 C 0.39827 0.4932 0.15224 0.0
C344 C 0.42683 0.47836 0.16331 0.0
H345 H 0.02471 0.62486 0.51694 0.0
H346 H 0.11358 0.62087 0.45375 0.0
H347 H 0.06364 0.539 0.44956 0.0
H348 H 1.00661 0.53132 0.55212 0.0
H349 H 0.94836 0.51131 0.56076 0.0
H350 H 0.98602 0.5701 0.55507 0.0
H351 H 0.93292 0.5709 0.51672 0.0
H352 H 0.8947 0.51202 0.52249 0.0
H353 H 0.91639 0.53213 0.4879 0.0
H354 H 1.01018 0.45632 0.45746 0.0
H355 H 0.95686 0.38079 0.47593 0.0
H356 H 0.90372 0.43981 0.53382 0.0
C357 C 0.03295 0.60709 0.50152 0.0
C358 C 0.07297 0.62939 0.48556 0.0
C359 C 0.08296 0.6046 0.46609 0.0
C360 C 0.05476 0.55804 0.46354 0.0
C361 C 0.01652 0.53682 0.48044 0.0
C362 C 1.00534 0.56069 0.49883 0.0
C363 C 0.9651 0.52978 0.51664 0.0
C364 C 0.97728 0.53601 0.54798 0.0
C365 C 0.92489 0.53662 0.51056 0.0
C366 C 0.95635 0.48474 0.50614 0.0
C367 C 0.98591 0.48935 0.48503 0.0
C368 C 0.98629 0.45229 0.47361 0.0
C369 C 0.95598 0.40953 0.48427 0.0
C370 C 0.92594 0.4043 0.50621 0.0
C371 C 0.92582 0.44249 0.51682 0.0
H372 H 0.39751 0.97787 0.85872 0.0
H373 H 0.50089 0.09388 0.81447 0.0
H374 H 0.54199 0.05328 0.80533 0.0
H375 H 0.4688 0.95503 0.89446 0.0
H376 H 0.43429 0.89485 0.89347 0.0
H377 H 0.40839 0.92892 0.89122 0.0
H378 H 0.37012 0.89065 0.84448 0.0
H379 H 0.39568 0.85603 0.84669 0.0
H380 H 0.40412 0.88973 0.81599 0.0
H381 H 0.57774 1.0043 0.80777 0.0
H382 H 0.60415 0.95205 0.82171 0.0
H383 H 0.47737 0.86935 0.86475 0.0
C384 C 0.42795 0.99427 0.84624 0.0
C385 C 0.44579 0.03899 0.83719 0.0
C386 C 0.48633 0.0595 0.82146 0.0
C387 C 0.50991 0.03666 0.81613 0.0
C388 C 0.49233 0.99321 0.82645 0.0
C389 C 0.45195 0.97211 0.84093 0.0
C390 C 0.44275 0.9276 0.85273 0.0
C391 C 0.43834 0.92659 0.88485 0.0
C392 C 0.40067 0.8887 0.83915 0.0
C393 C 0.48514 0.92777 0.84372 0.0
C394 C 0.51306 0.96539 0.82812 0.0
C395 C 0.55573 0.9743 0.8195 0.0
C396 C 0.57049 0.94446 0.82751 0.0
C397 C 0.54282 0.90659 0.84427 0.0
C398 C 0.49925 0.89781 0.85177 0.0
H399 H 0.53522 0.60798 0.44078 0.0
H400 H 0.54668 0.6366 0.52968 0.0
H401 H 0.51354 0.55528 0.53977 0.0
H402 H 0.43086 0.50424 0.44205 0.0
H403 H 0.44817 0.47902 0.41541 0.0
H404 H 0.47109 0.53878 0.41576 0.0
H405 H 0.55225 0.55117 0.41722 0.0
H406 H 0.52963 0.49151 0.41662 0.0
H407 H 0.56731 0.52465 0.44432 0.0
H408 H 0.47632 0.46871 0.53911 0.0
H409 H 0.44788 0.38849 0.52796 0.0
H410 H 0.46625 0.42098 0.43958 0.0
C411 C 0.53057 0.59726 0.46244 0.0
C412 C 0.543 0.62839 0.48449 0.0
C413 C 0.53725 0.61312 0.5125 0.0
C414 C 0.51827 0.56707 0.51837 0.0
C415 C 0.50589 0.53715 0.49596 0.0
C416 C 0.51251 0.55199 0.46857 0.0
C417 C 0.49879 0.51411 0.44803 0.0
C418 C 0.45991 0.50873 0.42921 0.0
C419 C 0.53942 0.52076 0.43053 0.0
C420 C 0.48327 0.4753 0.46803 0.0
C421 C 0.48685 0.48878 0.49561 0.0
C422 C 0.47366 0.45798 0.51758 0.0
C423 C 0.45734 0.41255 0.5111 0.0
C424 C 0.45524 0.39883 0.48296 0.0
C425 C 0.46791 0.43064 0.46131 0.0
H426 H 0.04582 0.61848 0.81069 0.0
H427 H 0.93 0.52047 0.85795 0.0
H428 H 0.96865 0.47731 0.86648 0.0
H429 H 0.065 0.54366 0.77547 0.0
H430 H 0.12569 0.57687 0.7757 0.0
H431 H 0.09252 0.60388 0.77755 0.0
H432 H 0.13298 0.6437 0.82348 0.0
H433 H 0.16673 0.61709 0.82164 0.0
H434 H 0.13398 0.61089 0.85256 0.0
H435 H 0.01583 0.4392 0.86376 0.0
H436 H 0.06814 0.41182 0.85134 0.0
H437 H 0.15216 0.53561 0.80626 0.0
C438 C 0.02904 0.58868 0.82356 0.0
C439 C 0.98492 0.573 0.8337 0.0
C440 C 0.96395 0.53338 0.85009 0.0
C441 C 0.98564 0.50858 0.85505 0.0
C442 C 0.02848 0.5241 0.84375 0.0
C443 C 0.05015 0.56363 0.82866 0.0
C444 C 0.09423 0.57121 0.81662 0.0
C445 C 0.09432 0.57404 0.78444 0.0
C446 C 0.13435 0.61321 0.82934 0.0
C447 C 0.09328 0.52904 0.82638 0.0
C448 C 0.05545 0.50239 0.84227 0.0
C449 C 0.046 0.46023 0.85177 0.0
C450 C 0.07581 0.44488 0.84459 0.0
C451 C 0.11433 0.47158 0.82792 0.0
C452 C 0.12328 0.51444 0.81923 0.0
H453 H 0.40857 0.02772 0.12893 0.0
H454 H 0.3946 0.93427 0.19434 0.0
H455 H 0.47694 0.97724 0.20236 0.0
H456 H 0.50528 0.03752 0.09964 0.0
H457 H 0.53083 0.09612 0.09098 0.0
H458 H 0.47047 0.06215 0.09325 0.0
H459 H 0.46856 0.1166 0.12983 0.0
H460 H 0.52902 0.15107 0.12751 0.0
H461 H 0.50259 0.12984 0.16098 0.0
H462 H 0.56225 0.02624 0.19967 0.0
H463 H 0.64213 0.07706 0.18668 0.0
H464 H 0.59907 0.13708 0.12275 0.0
C465 C 0.42255 0.01697 0.14552 0.0
C466 C 0.39499 0.97783 0.16118 0.0
C467 C 0.41496 0.96434 0.1822 0.0
C468 C 0.46173 0.98855 0.18692 0.0
C469 C 0.48812 0.02624 0.17049 0.0
C470 C 0.46912 0.04051 0.15034 0.0
C471 C 0.50496 0.07974 0.1339 0.0
C472 C 0.50274 0.06816 0.1026 0.0
C473 C 0.50104 0.12181 0.13833 0.0
C474 C 0.54716 0.08471 0.14749 0.0
C475 C 0.5369 0.05392 0.16874 0.0
C476 C 0.57063 0.05087 0.1833 0.0
C477 C 0.61592 0.07983 0.17577 0.0
C478 C 0.62698 0.11118 0.15377 0.0
C479 C 0.59194 0.11377 0.13981 0.0
H480 H 0.29241 0.37564 0.29548 0.0
H481 H 0.3508 0.32123 0.23794 0.0
H482 H 0.37324 0.29121 0.27774 0.0
H483 H 0.37703 0.40857 0.34901 0.0
H484 H 0.33758 0.39346 0.37751 0.0
H485 H 0.32582 0.41057 0.34445 0.0
H486 H 0.24925 0.33638 0.34175 0.0
H487 H 0.26078 0.31907 0.37481 0.0
H488 H 0.24814 0.28369 0.3445 0.0
H489 H 0.39082 0.26814 0.32402 0.0
H490 H 0.40041 0.25253 0.37332 0.0
H491 H 0.32952 0.32075 0.40047 0.0
C492 C 0.30984 0.35736 0.29124 0.0
C493 C 0.3198 0.35085 0.26352 0.0
C494 C 0.34269 0.32668 0.25894 0.0
C495 C 0.35565 0.30948 0.28143 0.0
C496 C 0.34544 0.31656 0.30846 0.0
C497 C 0.32295 0.33982 0.31347 0.0
C498 C 0.31606 0.34271 0.34454 0.0
C499 C 0.34059 0.39174 0.35445 0.0
C500 C 0.26555 0.31904 0.35182 0.0
C501 C 0.33813 0.31746 0.35617 0.0
C502 C 0.35503 0.30278 0.33505 0.0
C503 C 0.37754 0.27932 0.34075 0.0
C504 C 0.38288 0.27063 0.3688 0.0
C505 C 0.36555 0.28516 0.39077 0.0
C506 C 0.34287 0.30883 0.38419 0.0
H507 H 0.94204 0.22931 0.63141 0.0
H508 H 0.96159 0.35872 0.60587 0.0
H509 H 0.02114 0.3957 0.64154 0.0
H510 H 0.95697 0.25395 0.70544 0.0
H511 H 0.98548 0.22272 0.71144 0.0
H512 H 0.94486 0.20664 0.68358 0.0
H513 H 1.00503 0.21289 0.64816 0.0
H514 H 0.04597 0.22946 0.67588 0.0
H515 H 0.05797 0.26468 0.6455 0.0
H516 H 0.08036 0.41896 0.67898 0.0
H517 H 0.12928 0.42608 0.71893 0.0
H518 H 0.06921 0.28143 0.72135 0.0
C519 C 0.95874 0.26541 0.63337 0.0
C520 C 0.9472 0.29111 0.61577 0.0
C521 C 0.96969 0.33827 0.61916 0.0
C522 C 1.00377 0.35964 0.63926 0.0
C523 C 1.01474 0.3334 0.65601 0.0
C524 C 0.99249 0.28728 0.65357 0.0
C525 C 1.00978 0.26679 0.67479 0.0
C526 C 0.97203 0.2357 0.69501 0.0
C527 C 0.03095 0.242 0.6602 0.0
C528 C 0.04528 0.30861 0.6895 0.0
C529 C 0.04796 0.34671 0.67813 0.0
C530 C 0.07846 0.38934 0.68812 0.0
C531 C 0.10629 0.39306 0.71073 0.0
C532 C 0.10308 0.35434 0.7233 0.0
C533 C 0.07246 0.31167 0.71223 0.0
H534 H 0.73693 0.93815 0.96768 0.0
H535 H 0.61438 0.93699 0.94284 0.0
H536 H 0.62862 0.9941 0.97854 0.0
H537 H 0.72462 0.95032 0.04207 0.0
H538 H 0.78429 0.98622 0.04777 0.0
H539 H 0.76464 0.94536 0.02007 0.0
H540 H 0.81186 0.00816 0.98432 0.0
H541 H 0.83132 0.04928 0.01187 0.0
H542 H 0.8037 0.05577 0.9816 0.0
H543 H 0.65744 0.05346 0.01535 0.0
H544 H 0.69479 0.10569 0.05448 0.0
H545 H 0.79702 0.06642 0.05728 0.0
C546 C 0.713 0.94977 0.96985 0.0
C547 C 0.67459 0.93313 0.95239 0.0
C548 C 0.64396 0.94905 0.956 0.0
C549 C 0.65186 0.9817 0.97614 0.0
C550 C 0.69029 0.99782 0.99273 0.0
C551 C 0.72006 0.98201 0.99013 0.0
C552 C 0.75816 1.00422 0.01118 0.0
C553 C 0.75789 0.96946 0.03148 0.0
C554 C 0.80397 0.03094 0.99635 0.0
C555 C 0.7452 0.03509 0.02589 0.0
C556 C 0.7062 0.03116 0.01468 0.0
C557 C 0.68787 0.05667 0.02443 0.0
C558 C 0.70951 0.08644 0.04659 0.0
C559 C 0.74882 0.09014 0.05901 0.0
C560 C 0.76698 0.06429 0.04829 0.0
H561 H 0.60096 0.73166 0.35443 0.0
H562 H 0.69867 0.74178 0.41619 0.0
H563 H 0.73149 0.71318 0.38163 0.0
H564 H 0.58213 0.63023 0.3228 0.0
H565 H 0.57764 0.64686 0.28773 0.0
H566 H 0.56236 0.66921 0.31708 0.0
H567 H 0.61877 0.75005 0.30072 0.0
H568 H 0.63394 0.72795 0.27117 0.0
H569 H 0.67696 0.76614 0.29489 0.0
H570 H 0.75174 0.68022 0.34078 0.0
H571 H 0.76101 0.65056 0.29567 0.0
H572 H 0.6513 0.66372 0.26057 0.0
C573 C 0.62948 0.72823 0.36065 0.0
C574 C 0.64715 0.73898 0.38807 0.0
C575 C 0.68453 0.73391 0.39531 0.0
C576 C 0.70337 0.71753 0.37584 0.0
C577 C 0.68471 0.70662 0.34914 0.0
C578 C 0.6489 0.71217 0.34143 0.0
C579 C 0.63522 0.69806 0.31138 0.0
C580 C 0.58645 0.65875 0.30966 0.0
C581 C 0.64162 0.73793 0.29349 0.0
C582 C 0.66876 0.6835 0.30345 0.0
C583 C 0.69688 0.68844 0.32554 0.0
C584 C 0.73007 0.67644 0.32328 0.0
C585 C 0.73498 0.65947 0.29762 0.0
C586 C 0.70703 0.65496 0.27456 0.0
C587 C 0.6734 0.66698 0.27772 0.0
H588 H 0.03536 0.6402 0.6138 0.0
H589 H 0.12467 0.78401 0.62076 0.0
H590 H 0.089 0.78369 0.66564 0.0
H591 H 0.93719 0.6367 0.64165 0.0
H592 H 0.91807 0.585 0.66052 0.0
H593 H 0.95135 0.5959 0.62927 0.0
H594 H 1.00959 0.58366 0.65664 0.0
H595 H 0.97628 0.5723 0.68793 0.0
H596 H 0.03478 0.61561 0.68797 0.0
H597 H 0.04204 0.7686 0.70858 0.0
H598 H 0.99028 0.73917 0.74872 0.0
H599 H 0.93163 0.60462 0.71477 0.0
C600 C 0.04771 0.6716 0.62486 0.0
C601 C 0.08289 0.71218 0.6137 0.0
C602 C 0.09793 0.7525 0.62887 0.0
C603 C 0.07776 0.75269 0.65435 0.0
C604 C 0.04275 0.71227 0.66451 0.0
C605 C 0.02809 0.67238 0.65043 0.0
C606 C 0.98983 0.63363 0.66604 0.0
C607 C 0.94655 0.61152 0.64831 0.0
C608 C 1.00345 0.59928 0.67519 0.0
C609 C 0.98506 0.65808 0.69099 0.0
C610 C 0.01586 0.70343 0.68958 0.0
C611 C 0.01792 0.73313 0.70999 0.0
C612 C 0.9882 0.71601 0.73271 0.0
C613 C 0.95681 0.66952 0.73499 0.0
C614 C 0.95512 0.6403 0.71365 0.0
H615 H 0.38019 0.95769 0.05235 0.0
H616 H 0.23368 0.88386 0.05245 0.0
H617 H 0.23334 0.92458 0.01014 0.0
H618 H 0.39333 0.06202 0.03173 0.0
H619 H 0.44158 0.07766 0.0096 0.0
H620 H 0.4309 0.04082 0.03891 0.0
H621 H 0.43093 0.98117 0.00603 0.0
H622 H 0.44214 0.01803 0.97662 0.0
H623 H 0.39401 0.96217 0.97605 0.0
H624 H 0.24837 0.97586 0.96965 0.0
H625 H 0.2778 0.03146 0.93158 0.0
H626 H 0.41481 0.07232 0.95709 0.0
C627 C 0.34802 0.94951 0.04321 0.0
C628 C 0.30692 0.91741 0.05574 0.0
C629 C 0.2656 0.90819 0.04327 0.0
C630 C 0.26504 0.93121 0.01923 0.0
C631 C 0.30606 0.96331 0.00781 0.0
C632 C 0.34682 0.97223 0.01917 0.0
C633 C 0.38604 0.00914 0.00307 0.0
C634 C 0.41463 0.04981 0.02196 0.0
C635 C 0.41498 0.99156 0.98964 0.0
C636 C 0.36087 0.01985 0.98108 0.0
C637 C 0.31478 0.99297 0.98426 0.0
C638 C 0.2844 0.99691 0.96681 0.0
C639 C 0.30151 0.02877 0.94528 0.0
C640 C 0.34864 0.05634 0.94126 0.0
C641 C 0.37862 0.05182 0.95958 0.0
H642 H 0.95236 0.28406 0.12709 0.0
H643 H 0.88443 0.16598 0.17984 0.0
H644 H 0.95822 0.182 0.19887 0.0
H645 H 0.05157 0.2752 0.1116 0.0
H646 H 0.08934 0.33491 0.11284 0.0
H647 H 0.03147 0.31288 0.10241 0.0
H648 H 0.02118 0.35942 0.14122 0.0
H649 H 0.07899 0.38167 0.15171 0.0
H650 H 0.03434 0.35362 0.17696 0.0
H651 H 0.03936 0.21288 0.21353 0.0
H652 H 0.1209 0.25679 0.22357 0.0
H653 H 0.1358 0.35476 0.1611 0.0
C654 C 0.9529 0.26127 0.14248 0.0
C655 C 0.91248 0.22361 0.15191 0.0
C656 C 0.91485 0.19496 0.17225 0.0
C657 C 0.95665 0.20375 0.18313 0.0
C658 C 0.99578 0.24128 0.17344 0.0
C659 C 0.99423 0.26958 0.15357 0.0
C660 C 0.04095 0.30859 0.14741 0.0
C661 C 0.0541 0.30782 0.11674 0.0
C662 C 0.04403 0.35347 0.15478 0.0
C663 C 0.06909 0.29815 0.16715 0.0
C664 C 0.04241 0.25904 0.18186 0.0
C665 C 0.06056 0.24337 0.202 0.0
C666 C 0.10699 0.26861 0.20755 0.0
C667 C 0.13493 0.30919 0.19306 0.0
C668 C 0.11558 0.32367 0.17232 0.0
H669 H 0.74662 0.08903 0.54759 0.0
H670 H 0.87608 0.15079 0.5052 0.0
H671 H 0.86104 0.07596 0.49011 0.0
H672 H 0.74641 0.98832 0.5712 0.0
H673 H 0.68679 0.95273 0.56519 0.0
H674 H 0.70907 0.01079 0.57418 0.0
H675 H 0.67325 0.02229 0.52945 0.0
H676 H 0.65074 0.9643 0.52039 0.0
H677 H 0.68602 1.00752 0.49588 0.0
H678 H 0.83019 0.99463 0.47786 0.0
H679 H 0.78481 0.91378 0.46763 0.0
H680 H 0.67528 0.90545 0.51787 0.0
C681 C 0.77209 0.08689 0.53538 0.0
C682 C 0.81266 0.12582 0.52767 0.0
C683 C 0.8448 0.12146 0.51138 0.0
C684 C 0.83662 0.07908 0.50281 0.0
C685 C 0.79617 0.04142 0.5107 0.0
C686 C 0.7644 0.04495 0.52656 0.0
C687 C 0.72266 0.99959 0.53105 0.0
C688 C 0.71585 0.98713 0.56226 0.0
C689 C 0.68071 0.99837 0.51843 0.0
C690 C 0.73559 0.96999 0.51486 0.0
C691 C 0.77829 0.99468 0.5035 0.0
C692 C 0.79685 0.97492 0.48681 0.0
C693 C 0.77078 0.92892 0.48114 0.0
C694 C 0.7265 0.90314 0.49201 0.0
C695 C 0.70916 0.92402 0.50948 0.0
H696 H 0.76077 0.65528 0.78793 0.0
H697 H 0.86782 0.71291 0.84977 0.0
H698 H 0.8424 0.76583 0.86392 0.0
H699 H 0.76383 0.75842 0.76785 0.0
H700 H 0.70345 0.73138 0.76404 0.0
H701 H 0.73199 0.70028 0.75783 0.0
H702 H 0.68065 0.6409 0.79436 0.0
H703 H 0.65188 0.67169 0.80059 0.0
H704 H 0.67733 0.65854 0.82934 0.0
H705 H 0.80233 0.81035 0.8725 0.0
H706 H 0.75003 0.84004 0.87596 0.0
H707 H 0.66983 0.75213 0.80837 0.0
C708 C 0.77927 0.67927 0.80428 0.0
C709 C 0.81643 0.68003 0.81768 0.0
C710 C 0.83931 0.71175 0.83916 0.0
C711 C 0.82518 0.74201 0.84728 0.0
C712 C 0.78821 0.74013 0.83366 0.0
C713 C 0.7656 0.70946 0.81263 0.0
C714 C 0.72563 0.71262 0.8021 0.0
C715 C 0.73161 0.72651 0.77112 0.0
C716 C 0.68126 0.66832 0.8069 0.0
C717 C 0.72875 0.74949 0.82072 0.0
C718 C 0.76523 0.76529 0.83865 0.0
C719 C 0.77387 0.79839 0.85842 0.0
C720 C 0.74401 0.81513 0.86019 0.0
C721 C 0.70584 0.79855 0.8424 0.0
C722 C 0.69879 0.76581 0.82217 0.0
H723 H 0.92003 0.65688 0.21732 0.0
H724 H 0.88195 0.7363 0.16583 0.0
H725 H 0.96262 0.78759 0.15446 0.0
H726 H 0.02367 0.74785 0.24494 0.0
H727 H 0.05256 0.71627 0.24365 0.0
H728 H 0.99236 0.68774 0.24862 0.0
H729 H 0.98131 0.63775 0.20547 0.0
H730 H 0.04142 0.66593 0.20044 0.0
H731 H 1.00531 0.66374 0.17231 0.0
H732 H 0.0487 0.82935 0.1483 0.0
H733 H 0.13013 0.85439 0.14547 0.0
H734 H 0.10937 0.74548 0.20046 0.0
C735 C 0.92847 0.68526 0.20383 0.0
C736 C 0.89463 0.69276 0.19262 0.0
C737 C 0.9073 0.72996 0.17472 0.0
C738 C 0.95304 0.75931 0.16824 0.0
C739 C 0.98554 0.75082 0.17974 0.0
C740 C 0.97361 0.71445 0.19704 0.0
C741 C 1.01427 0.71109 0.20576 0.0
C742 C 0.02111 0.71605 0.23763 0.0
C743 C 1.01033 0.66703 0.19536 0.0
C744 C 0.0512 0.75112 0.19055 0.0
C745 C 0.03422 0.77399 0.17584 0.0
C746 C 0.06224 0.81169 0.15982 0.0
C747 C 0.10851 0.82578 0.15842 0.0
C748 C 0.12624 0.80196 0.17275 0.0
C749 C 0.09705 0.76456 0.18929 0.0
H750 H 0.21956 0.89366 0.49025 0.0
H751 H 0.13382 0.90216 0.55392 0.0
H752 H 0.16943 0.98357 0.5456 0.0
H753 H 0.31776 0.99347 0.5078 0.0
H754 H 0.33719 0.00904 0.47232 0.0
H755 H 0.30211 0.9509 0.48138 0.0
H756 H 0.24474 0.94205 0.443 0.0
H757 H 0.27981 1.00018 0.43368 0.0
H758 H 0.22157 0.97885 0.44297 0.0
H759 H 0.21863 0.06531 0.53277 0.0
H760 H 0.2763 0.14016 0.51566 0.0
H761 H 0.32932 0.0776 0.46049 0.0
C762 C 0.20762 0.91243 0.50209 0.0
C763 C 0.17371 0.8914 0.52267 0.0
C764 C 0.15961 0.91742 0.53797 0.0
C765 C 0.17963 0.96373 0.53339 0.0
C766 C 0.21361 0.98355 0.51336 0.0
C767 C 0.22727 0.95865 0.49783 0.0
C768 C 0.26596 0.98827 0.47854 0.0
C769 C 0.30824 0.98524 0.48544 0.0
C770 C 0.25218 0.97664 0.44772 0.0
C771 C 0.27246 0.0338 0.486 0.0
C772 C 0.24183 0.03044 0.50601 0.0
C773 C 0.2425 0.0683 0.51689 0.0
C774 C 0.27543 0.11068 0.5071 0.0
C775 C 0.30726 0.11482 0.48667 0.0
C776 C 0.30532 0.07568 0.47595 0.0
H777 H 0.30605 0.35117 0.82049 0.0
H778 H 0.16293 0.2563 0.81254 0.0
H779 H 0.17785 0.19368 0.81998 0.0
H780 H 0.34649 0.28736 0.78545 0.0
H781 H 0.39376 0.30405 0.80864 0.0
H782 H 0.37145 0.34084 0.8029 0.0
H783 H 0.35974 0.34367 0.85628 0.0
H784 H 0.38235 0.30716 0.86221 0.0
H785 H 0.32723 0.2921 0.87537 0.0
H786 H 0.21008 0.14132 0.82632 0.0
H787 H 0.25534 0.10464 0.83506 0.0
H788 H 0.37634 0.23521 0.84046 0.0
C789 C 0.27774 0.31724 0.82035 0.0
C790 C 0.23333 0.30854 0.81578 0.0
C791 C 0.19721 0.26369 0.81607 0.0
C792 C 0.20542 0.22796 0.82015 0.0
C793 C 0.24983 0.23778 0.82423 0.0
C794 C 0.28525 0.28144 0.82472 0.0
C795 C 0.32976 0.28346 0.83005 0.0
C796 C 0.36226 0.30521 0.80528 0.0
C797 C 0.351 0.30804 0.85762 0.0
C798 C 0.31408 0.23406 0.83226 0.0
C799 C 0.26795 0.2081 0.82866 0.0
C800 C 0.24617 0.1614 0.82934 0.0
C801 C 0.27217 0.14086 0.83418 0.0
C802 C 0.31934 0.16703 0.83855 0.0
C803 C 0.34033 0.21421 0.83739 0.0
loop_
_geom_bond_atom_site_label_1
_geom_bond_atom_site_label_2
_geom_bond_distance
_geom_bond_site_symmetry_2
_ccdc_geom_bond_type
Mg0 O7 2.141 . S
Mg0 O8 2.048 . S
Mg0 O9 2.048 . S
Mg0 O12 2.141 . S
C1 O2 1.313 . S
C1 O8 1.195 . S
O2 C1 1.313 . S
C3 O4 1.245 . S
C3 O12 1.289 . S
O4 C3 1.245 . S
C5 O6 1.245 . S
C5 O7 1.289 . S
O6 C5 1.245 . S
O7 Mg0 2.141 . S
O7 C5 1.289 . S
O8 Mg0 2.048 . S
O8 C1 1.195 . S
O9 Mg0 2.048 . S
O9 C10 1.195 . S
C10 O9 1.195 . S
C10 O11 1.313 . S
O11 C10 1.313 . S
O12 Mg0 2.141 . S
O12 C3 1.289 . S
Mg13 O20 2.141 . S
Mg13 O21 2.048 . S
Mg13 O22 2.048 . S
Mg13 O25 2.141 . S
C14 O15 1.313 . S
C14 O21 1.195 . S
O15 C14 1.313 . S
C16 O17 1.245 . S
C16 O25 1.289 . S
O17 C16 1.245 . S
C18 O19 1.245 . S
C18 O20 1.289 . S
O19 C18 1.245 . S
O20 Mg13 2.141 . S
O20 C18 1.289 . S
O21 Mg13 2.048 . S
O21 C14 1.195 . S
O22 Mg13 2.048 . S
O22 C23 1.195 . S
C23 O22 1.195 . S
C23 O24 1.313 . S
O24 C23 1.313 . S
O25 Mg13 2.141 . S
O25 C16 1.289 . S
Mg26 O33 2.141 . S
Mg26 O34 2.048 . S
Mg26 O35 2.048 . S
Mg26 O38 2.141 . S
C27 O28 1.313 . S
C27 O34 1.195 . S
O28 C27 1.313 . S
C29 O30 1.245 . S
C29 O38 1.289 . S
O30 C29 1.245 . S
C31 O32 1.245 . S
C31 O33 1.289 . S
O32 C31 1.245 . S
O33 Mg26 2.141 . S
O33 C31 1.289 . S
O34 Mg26 2.048 . S
O34 C27 1.195 . S
O35 Mg26 2.048 . S
O35 C36 1.195 . S
C36 O35 1.195 . S
C36 O37 1.313 . S
O37 C36 1.313 . S
O38 Mg26 2.141 . S
O38 C29 1.289 . S
Mg39 O46 2.141 . S
Mg39 O47 2.048 . S
Mg39 O48 2.048 . S
Mg39 O51 2.141 . S
C40 O41 1.313 . S
C40 O47 1.195 . S
O41 C40 1.313 . S
C42 O43 1.245 . S
C42 O51 1.289 . S
O43 C42 1.245 . S
C44 O45 1.245 . S
C44 O46 1.289 . S
O45 C44 1.245 . S
O46 Mg39 2.141 . S
O46 C44 1.289 . S
O47 Mg39 2.048 . S
O47 C40 1.195 . S
O48 Mg39 2.048 . S
O48 C49 1.195 . S
C49 O48 1.195 . S
C49 O50 1.313 . S
O50 C49 1.313 . S
O51 Mg39 2.141 . S
O51 C42 1.289 . S
Mg52 O59 2.141 . S
Mg52 O60 2.048 . S
Mg52 O61 2.048 . S
Mg52 O64 2.141 . S
C53 O54 1.313 . S
C53 O60 1.195 . S
O54 C53 1.313 . S
C55 O56 1.245 . S
C55 O64 1.289 . S
O56 C55 1.245 . S
C57 O58 1.245 . S
C57 O59 1.289 . S
O58 C57 1.245 . S
O59 Mg52 2.141 . S
O59 C57 1.289 . S
O60 Mg52 2.048 . S
O60 C53 1.195 . S
O61 Mg52 2.048 . S
O61 C62 1.195 . S
C62 O61 1.195 . S
C62 O63 1.313 . S
O63 C62 1.313 . S
O64 Mg52 2.141 . S
O64 C55 1.289 . S
Mg65 O72 2.141 . S
Mg65 O73 2.048 . S
Mg65 O74 2.048 . S
Mg65 O77 2.141 . S
C66 O67 1.313 . S
C66 O73 1.195 . S
O67 C66 1.313 . S
C68 O69 1.245 . S
C68 O77 1.289 . S
O69 C68 1.245 . S
C70 O71 1.245 . S
C70 O72 1.289 . S
O71 C70 1.245 . S
O72 Mg65 2.141 . S
O72 C70 1.289 . S
O73 Mg65 2.048 . S
O73 C66 1.195 . S
O74 Mg65 2.048 . S
O74 C75 1.195 . S
C75 O74 1.195 . S
C75 O76 1.313 . S
O76 C75 1.313 . S
O77 Mg65 2.141 . S
O77 C68 1.289 . S
Mg78 O85 2.141 . S
Mg78 O86 2.048 . S
Mg78 O87 2.048 . S
Mg78 O90 2.141 . S
C79 O80 1.313 . S
C79 O86 1.195 . S
O80 C79 1.313 . S
C81 O82 1.245 . S
C81 O90 1.289 . S
O82 C81 1.245 . S
C83 O84 1.245 . S
C83 O85 1.289 . S
O84 C83 1.245 . S
O85 Mg78 2.141 . S
O85 C83 1.289 . S
O86 Mg78 2.048 . S
O86 C79 1.195 . S
O87 Mg78 2.048 . S
O87 C88 1.195 . S
C88 O87 1.195 . S
C88 O89 1.313 . S
O89 C88 1.313 . S
O90 Mg78 2.141 . S
O90 C81 1.289 . S
Mg91 O98 2.141 . S
Mg91 O99 2.048 . S
Mg91 O100 2.048 . S
Mg91 O103 2.141 . S
C92 O93 1.313 . S
C92 O99 1.195 . S
O93 C92 1.313 . S
C94 O95 1.245 . S
C94 O103 1.289 . S
O95 C94 1.245 . S
C96 O97 1.245 . S
C96 O98 1.289 . S
O97 C96 1.245 . S
O98 Mg91 2.141 . S
O98 C96 1.289 . S
O99 Mg91 2.048 . S
O99 C92 1.195 . S
O100 Mg91 2.048 . S
O100 C101 1.195 . S
C101 O100 1.195 . S
C101 O102 1.313 . S
O102 C101 1.313 . S
O103 Mg91 2.141 . S
O103 C94 1.289 . S
Mg104 O111 2.141 . S
Mg104 O112 2.048 . S
Mg104 O113 2.048 . S
Mg104 O116 2.141 . S
C105 O106 1.313 . S
C105 O112 1.195 . S
O106 C105 1.313 . S
C107 O108 1.245 . S
C107 O116 1.289 . S
O108 C107 1.245 . S
C109 O110 1.245 . S
C109 O111 1.289 . S
O110 C109 1.245 . S
O111 Mg104 2.141 . S
O111 C109 1.289 . S
O112 Mg104 2.048 . S
O112 C105 1.195 . S
O113 Mg104 2.048 . S
O113 C114 1.195 . S
C114 O113 1.195 . S
C114 O115 1.313 . S
O115 C114 1.313 . S
O116 Mg104 2.141 . S
O116 C107 1.289 . S
Mg117 O124 2.141 . S
Mg117 O125 2.048 . S
Mg117 O126 2.048 . S
Mg117 O129 2.141 . S
C118 O119 1.313 . S
C118 O125 1.195 . S
O119 C118 1.313 . S
C120 O121 1.245 . S
C120 O129 1.289 . S
O121 C120 1.245 . S
C122 O123 1.245 . S
C122 O124 1.289 . S
O123 C122 1.245 . S
O124 Mg117 2.141 . S
O124 C122 1.289 . S
O125 Mg117 2.048 . S
O125 C118 1.195 . S
O126 Mg117 2.048 . S
O126 C127 1.195 . S
C127 O126 1.195 . S
C127 O128 1.313 . S
O128 C127 1.313 . S
O129 Mg117 2.141 . S
O129 C120 1.289 . S
Mg130 O137 2.141 . S
Mg130 O138 2.048 . S
Mg130 O139 2.048 . S
Mg130 O142 2.141 . S
C131 O132 1.313 . S
C131 O138 1.195 . S
O132 C131 1.313 . S
C133 O134 1.245 . S
C133 O142 1.289 . S
O134 C133 1.245 . S
C135 O136 1.245 . S
C135 O137 1.289 . S
O136 C135 1.245 . S
O137 Mg130 2.141 . S
O137 C135 1.289 . S
O138 Mg130 2.048 . S
O138 C131 1.195 . S
O139 Mg130 2.048 . S
O139 C140 1.195 . S
C140 O139 1.195 . S
C140 O141 1.313 . S
O141 C140 1.313 . S
O142 Mg130 2.141 . S
O142 C133 1.289 . S
Mg143 O150 2.141 . S
Mg143 O151 2.048 . S
Mg143 O152 2.048 . S
Mg143 O155 2.141 . S
C144 O145 1.313 . S
C144 O151 1.195 . S
O145 C144 1.313 . S
C146 O147 1.245 . S
C146 O155 1.289 . S
O147 C146 1.245 . S
C148 O149 1.245 . S
C148 O150 1.289 . S
O149 C148 1.245 . S
O150 Mg143 2.141 . S
O150 C148 1.289 . S
O151 Mg143 2.048 . S
O151 C144 1.195 . S
O152 Mg143 2.048 . S
O152 C153 1.195 . S
C153 O152 1.195 . S
C153 O154 1.313 . S
O154 C153 1.313 . S
O155 Mg143 2.141 . S
O155 C146 1.289 . S
H156 C168 0.930 . S
H157 C170 0.930 . S
H158 C171 0.930 . S
H159 C175 0.959 . S
H160 C175 0.959 . S
H161 C175 0.961 . S
H162 C176 0.960 . S
H163 C176 0.961 . S
H164 C176 0.959 . S
H165 C179 0.929 . S
H166 C180 0.931 . S
H167 C182 0.930 . S
C168 H156 0.930 . S
C168 C169 1.399 . S
C168 C173 1.399 . S
C169 C168 1.399 . S
C169 C170 1.376 . S
C170 H157 0.930 . S
C170 C169 1.376 . S
C170 C171 1.388 . S
C171 H158 0.930 . S
C171 C170 1.388 . S
C171 C172 1.390 . S
C172 C171 1.390 . S
C172 C173 1.394 . S
C172 C178 1.465 . S
C173 C168 1.399 . S
C173 C172 1.394 . S
C173 C174 1.516 . S
C174 C173 1.516 . S
C174 C175 1.502 . S
C174 C176 1.561 . S
C174 C177 1.526 . S
C175 H159 0.959 . S
C175 H160 0.959 . S
C175 H161 0.961 . S
C175 C174 1.502 . S
C176 H162 0.960 . S
C176 H163 0.961 . S
C176 H164 0.959 . S
C176 C174 1.561 . S
C177 C174 1.526 . S
C177 C178 1.396 . S
C177 C182 1.390 . S
C178 C172 1.465 . S
C178 C177 1.396 . S
C178 C179 1.399 . S
C179 H165 0.929 . S
C179 C178 1.399 . S
C179 C180 1.385 . S
C180 H166 0.931 . S
C180 C179 1.385 . S
C180 C181 1.389 . S
C181 C180 1.389 . S
C181 C182 1.387 . S
C182 H167 0.930 . S
C182 C177 1.390 . S
C182 C181 1.387 . S
H183 C195 0.930 . S
H184 C197 0.930 . S
H185 C198 0.930 . S
H186 C202 0.959 . S
H187 C202 0.959 . S
H188 C202 0.961 . S
H189 C203 0.960 . S
H190 C203 0.961 . S
H191 C203 0.959 . S
H192 C206 0.929 . S
H193 C207 0.931 . S
H194 C209 0.930 . S
C195 H183 0.930 . S
C195 C196 1.399 . S
C195 C200 1.399 . S
C196 C195 1.399 . S
C196 C197 1.376 . S
C197 H184 0.930 . S
C197 C196 1.376 . S
C197 C198 1.388 . S
C198 H185 0.930 . S
C198 C197 1.388 . S
C198 C199 1.390 . S
C199 C198 1.390 . S
C199 C200 1.394 . S
C199 C205 1.465 . S
C200 C195 1.399 . S
C200 C199 1.394 . S
C200 C201 1.516 . S
C201 C200 1.516 . S
C201 C202 1.502 . S
C201 C203 1.561 . S
C201 C204 1.526 . S
C202 H186 0.959 . S
C202 H187 0.959 . S
C202 H188 0.961 . S
C202 C201 1.502 . S
C203 H189 0.960 . S
C203 H190 0.961 . S
C203 H191 0.959 . S
C203 C201 1.561 . S
C204 C201 1.526 . S
C204 C205 1.396 . S
C204 C209 1.390 . S
C205 C199 1.465 . S
C205 C204 1.396 . S
C205 C206 1.399 . S
C206 H192 0.929 . S
C206 C205 1.399 . S
C206 C207 1.385 . S
C207 H193 0.931 . S
C207 C206 1.385 . S
C207 C208 1.389 . S
C208 C207 1.389 . S
C208 C209 1.387 . S
C209 H194 0.930 . S
C209 C204 1.390 . S
C209 C208 1.387 . S
H210 C222 0.930 . S
H211 C224 0.930 . S
H212 C225 0.930 . S
H213 C229 0.959 . S
H214 C229 0.959 . S
H215 C229 0.961 . S
H216 C230 0.960 . S
H217 C230 0.961 . S
H218 C230 0.959 . S
H219 C233 0.929 . S
H220 C234 0.931 . S
H221 C236 0.930 . S
C222 H210 0.930 . S
C222 C223 1.399 . S
C222 C227 1.399 . S
C223 C222 1.399 . S
C223 C224 1.376 . S
C224 H211 0.930 . S
C224 C223 1.376 . S
C224 C225 1.388 . S
C225 H212 0.930 . S
C225 C224 1.388 . S
C225 C226 1.390 . S
C226 C225 1.390 . S
C226 C227 1.394 . S
C226 C232 1.465 . S
C227 C222 1.399 . S
C227 C226 1.394 . S
C227 C228 1.516 . S
C228 C227 1.516 . S
C228 C229 1.502 . S
C228 C230 1.561 . S
C228 C231 1.526 . S
C229 H213 0.959 . S
C229 H214 0.959 . S
C229 H215 0.961 . S
C229 C228 1.502 . S
C230 H216 0.960 . S
C230 H217 0.961 . S
C230 H218 0.959 . S
C230 C228 1.561 . S
C231 C228 1.526 . S
C231 C232 1.396 . S
C231 C236 1.390 . S
C232 C226 1.465 . S
C232 C231 1.396 . S
C232 C233 1.399 . S
C233 H219 0.929 . S
C233 C232 1.399 . S
C233 C234 1.385 . S
C234 H220 0.931 . S
C234 C233 1.385 . S
C234 C235 1.389 . S
C235 C234 1.389 . S
C235 C236 1.387 . S
C236 H221 0.930 . S
C236 C231 1.390 . S
C236 C235 1.387 . S
H237 C249 0.930 . S
H238 C251 0.930 . S
H239 C252 0.930 . S
H240 C256 0.959 . S
H241 C256 0.959 . S
H242 C256 0.961 . S
H243 C257 0.960 . S
H244 C257 0.961 . S
H245 C257 0.959 . S
H246 C260 0.929 . S
H247 C261 0.931 . S
H248 C263 0.930 . S
C249 H237 0.930 . S
C249 C250 1.399 . S
C249 C254 1.399 . S
C250 C249 1.399 . S
C250 C251 1.376 . S
C251 H238 0.930 . S
C251 C250 1.376 . S
C251 C252 1.388 . S
C252 H239 0.930 . S
C252 C251 1.388 . S
C252 C253 1.390 . S
C253 C252 1.390 . S
C253 C254 1.394 . S
C253 C259 1.465 . S
C254 C249 1.399 . S
C254 C253 1.394 . S
C254 C255 1.516 . S
C255 C254 1.516 . S
C255 C256 1.502 . S
C255 C257 1.561 . S
C255 C258 1.526 . S
C256 H240 0.959 . S
C256 H241 0.959 . S
C256 H242 0.961 . S
C256 C255 1.502 . S
C257 H243 0.960 . S
C257 H244 0.961 . S
C257 H245 0.959 . S
C257 C255 1.561 . S
C258 C255 1.526 . S
C258 C259 1.396 . S
C258 C263 1.390 . S
C259 C253 1.465 . S
C259 C258 1.396 . S
C259 C260 1.399 . S
C260 H246 0.929 . S
C260 C259 1.399 . S
C260 C261 1.385 . S
C261 H247 0.931 . S
C261 C260 1.385 . S
C261 C262 1.389 . S
C262 C261 1.389 . S
C262 C263 1.387 . S
C263 H248 0.930 . S
C263 C258 1.390 . S
C263 C262 1.387 . S
H264 C276 0.930 . S
H265 C278 0.930 . S
H266 C279 0.930 . S
H267 C283 0.959 . S
H268 C283 0.959 . S
H269 C283 0.961 . S
H270 C284 0.960 . S
H271 C284 0.961 . S
H272 C284 0.959 . S
H273 C287 0.929 . S
H274 C288 0.931 . S
H275 C290 0.930 . S
C276 H264 0.930 . S
C276 C277 1.399 . S
C276 C281 1.399 . S
C277 C276 1.399 . S
C277 C278 1.376 . S
C278 H265 0.930 . S
C278 C277 1.376 . S
C278 C279 1.388 . S
C279 H266 0.930 . S
C279 C278 1.388 . S
C279 C280 1.390 . S
C280 C279 1.390 . S
C280 C281 1.394 . S
C280 C286 1.465 . S
C281 C276 1.399 . S
C281 C280 1.394 . S
C281 C282 1.516 . S
C282 C281 1.516 . S
C282 C283 1.502 . S
C282 C284 1.561 . S
C282 C285 1.526 . S
C283 H267 0.959 . S
C283 H268 0.959 . S
C283 H269 0.961 . S
C283 C282 1.502 . S
C284 H270 0.960 . S
C284 H271 0.961 . S
C284 H272 0.959 . S
C284 C282 1.561 . S
C285 C282 1.526 . S
C285 C286 1.396 . S
C285 C290 1.390 . S
C286 C280 1.465 . S
C286 C285 1.396 . S
C286 C287 1.399 . S
C287 H273 0.929 . S
C287 C286 1.399 . S
C287 C288 1.385 . S
C288 H274 0.931 . S
C288 C287 1.385 . S
C288 C289 1.389 . S
C289 C288 1.389 . S
C289 C290 1.387 . S
C290 H275 0.930 . S
C290 C285 1.390 . S
C290 C289 1.387 . S
H291 C303 0.930 . S
H292 C305 0.930 . S
H293 C306 0.930 . S
H294 C310 0.959 . S
H295 C310 0.959 . S
H296 C310 0.961 . S
H297 C311 0.960 . S
H298 C311 0.961 . S
H299 C311 0.959 . S
H300 C314 0.929 . S
H301 C315 0.931 . S
H302 C317 0.930 . S
C303 H291 0.930 . S
C303 C304 1.399 . S
C303 C308 1.399 . S
C304 C303 1.399 . S
C304 C305 1.376 . S
C305 H292 0.930 . S
C305 C304 1.376 . S
C305 C306 1.388 . S
C306 H293 0.930 . S
C306 C305 1.388 . S
C306 C307 1.390 . S
C307 C306 1.390 . S
C307 C308 1.394 . S
C307 C313 1.465 . S
C308 C303 1.399 . S
C308 C307 1.394 . S
C308 C309 1.516 . S
C309 C308 1.516 . S
C309 C310 1.502 . S
C309 C311 1.561 . S
C309 C312 1.526 . S
C310 H294 0.959 . S
C310 H295 0.959 . S
C310 H296 0.961 . S
C310 C309 1.502 . S
C311 H297 0.960 . S
C311 H298 0.961 . S
C311 H299 0.959 . S
C311 C309 1.561 . S
C312 C309 1.526 . S
C312 C313 1.396 . S
C312 C317 1.390 . S
C313 C307 1.465 . S
C313 C312 1.396 . S
C313 C314 1.399 . S
C314 H300 0.929 . S
C314 C313 1.399 . S
C314 C315 1.385 . S
C315 H301 0.931 . S
C315 C314 1.385 . S
C315 C316 1.389 . S
C316 C315 1.389 . S
C316 C317 1.387 . S
C317 H302 0.930 . S
C317 C312 1.390 . S
C317 C316 1.387 . S
H318 C330 0.930 . S
H319 C332 0.930 . S
H320 C333 0.930 . S
H321 C337 0.959 . S
H322 C337 0.959 . S
H323 C337 0.961 . S
H324 C338 0.960 . S
H325 C338 0.961 . S
H326 C338 0.959 . S
H327 C341 0.929 . S
H328 C342 0.931 . S
H329 C344 0.930 . S
C330 H318 0.930 . S
C330 C331 1.399 . S
C330 C335 1.399 . S
C331 C330 1.399 . S
C331 C332 1.376 . S
C332 H319 0.930 . S
C332 C331 1.376 . S
C332 C333 1.388 . S
C333 H320 0.930 . S
C333 C332 1.388 . S
C333 C334 1.390 . S
C334 C333 1.390 . S
C334 C335 1.394 . S
C334 C340 1.465 . S
C335 C330 1.399 . S
C335 C334 1.394 . S
C335 C336 1.516 . S
C336 C335 1.516 . S
C336 C337 1.502 . S
C336 C338 1.561 . S
C336 C339 1.526 . S
C337 H321 0.959 . S
C337 H322 0.959 . S
C337 H323 0.961 . S
C337 C336 1.502 . S
C338 H324 0.960 . S
C338 H325 0.961 . S
C338 H326 0.959 . S
C338 C336 1.561 . S
C339 C336 1.526 . S
C339 C340 1.396 . S
C339 C344 1.390 . S
C340 C334 1.465 . S
C340 C339 1.396 . S
C340 C341 1.399 . S
C341 H327 0.929 . S
C341 C340 1.399 . S
C341 C342 1.385 . S
C342 H328 0.931 . S
C342 C341 1.385 . S
C342 C343 1.389 . S
C343 C342 1.389 . S
C343 C344 1.387 . S
C344 H329 0.930 . S
C344 C339 1.390 . S
C344 C343 1.387 . S
H345 C357 0.930 . S
H346 C359 0.930 . S
H347 C360 0.930 . S
H348 C364 0.959 . S
H349 C364 0.959 . S
H350 C364 0.961 . S
H351 C365 0.960 . S
H352 C365 0.961 1_655 S
H353 C365 0.959 . S
H354 C368 0.938 . S
H355 C369 0.931 . S
H356 C371 0.930 . S
C357 H345 0.930 . S
C357 C358 1.399 . S
C357 C362 1.399 . S
C358 C357 1.399 . S
C358 C359 1.376 . S
C359 H346 0.930 . S
C359 C358 1.376 . S
C359 C360 1.388 . S
C360 H347 0.930 . S
C360 C359 1.388 . S
C360 C361 1.390 . S
C361 C360 1.390 . S
C361 C362 1.394 . S
C361 C367 1.465 1_455 S
C362 C357 1.399 . S
C362 C361 1.394 . S
C362 C363 1.516 1_455 S
C363 C362 1.516 1_655 S
C363 C364 1.502 . S
C363 C365 1.561 1_655 S
C363 C366 1.526 . S
C364 H348 0.959 . S
C364 H349 0.959 . S
C364 H350 0.961 . S
C364 C363 1.502 . S
C365 H351 0.960 . S
C365 H352 0.961 1_455 S
C365 H353 0.959 . S
C365 C363 1.561 1_455 S
C366 C363 1.526 . S
C366 C367 1.396 . S
C366 C371 1.390 . S
C367 C361 1.465 1_655 S
C367 C366 1.396 . S
C367 C368 1.399 . S
C368 H354 0.938 . S
C368 C367 1.399 . S
C368 C369 1.385 . S
C369 H355 0.931 . S
C369 C368 1.385 . S
C369 C370 1.389 . S
C370 C369 1.389 . S
C370 C371 1.387 . S
C371 H356 0.930 . S
C371 C366 1.390 . S
C371 C370 1.387 . S
H372 C384 0.930 . S
H373 C386 0.930 . S
H374 C387 0.930 . S
H375 C391 0.959 . S
H376 C391 0.959 . S
H377 C391 0.961 . S
H378 C392 0.946 1_545 S
H379 C392 0.961 . S
H380 C392 0.959 1_545 S
H381 C395 0.929 1_545 S
H382 C396 0.931 . S
H383 C398 0.930 . S
C384 H372 0.930 . S
C384 C385 1.399 . S
C384 C389 1.399 . S
C385 C384 1.399 . S
C385 C386 1.376 . S
C386 H373 0.930 . S
C386 C385 1.376 . S
C386 C387 1.388 . S
C387 H374 0.930 . S
C387 C386 1.388 . S
C387 C388 1.390 . S
C388 C387 1.390 . S
C388 C389 1.394 . S
C388 C394 1.465 1_545 S
C389 C384 1.399 . S
C389 C388 1.394 . S
C389 C390 1.516 1_545 S
C390 C389 1.516 1_565 S
C390 C391 1.502 . S
C390 C392 1.561 . S
C390 C393 1.526 . S
C391 H375 0.959 . S
C391 H376 0.959 . S
C391 H377 0.961 . S
C391 C390 1.502 . S
C392 H378 0.946 1_565 S
C392 H379 0.961 . S
C392 H380 0.959 1_565 S
C392 C390 1.561 . S
C393 C390 1.526 . S
C393 C394 1.396 . S
C393 C398 1.390 . S
C394 C388 1.465 1_565 S
C394 C393 1.396 . S
C394 C395 1.399 . S
C395 H381 0.929 1_565 S
C395 C394 1.399 . S
C395 C396 1.385 . S
C396 H382 0.931 . S
C396 C395 1.385 . S
C396 C397 1.389 . S
C397 C396 1.389 . S
C397 C398 1.387 . S
C398 H383 0.930 . S
C398 C393 1.390 . S
C398 C397 1.387 . S
H399 C411 0.930 . S
H400 C413 0.930 . S
H401 C414 0.930 . S
H402 C418 0.959 . S
H403 C418 0.959 . S
H404 C418 0.961 . S
H405 C419 0.960 . S
H406 C419 0.961 . S
H407 C419 0.959 . S
H408 C422 0.929 . S
H409 C423 0.931 . S
H410 C425 0.930 . S
C411 H399 0.930 . S
C411 C412 1.399 . S
C411 C416 1.399 . S
C412 C411 1.399 . S
C412 C413 1.376 . S
C413 H400 0.930 . S
C413 C412 1.376 . S
C413 C414 1.388 . S
C414 H401 0.930 . S
C414 C413 1.388 . S
C414 C415 1.390 . S
C415 C414 1.390 . S
C415 C416 1.394 . S
C415 C421 1.465 . S
C416 C411 1.399 . S
C416 C415 1.394 . S
C416 C417 1.516 . S
C417 C416 1.516 . S
C417 C418 1.502 . S
C417 C419 1.561 . S
C417 C420 1.526 . S
C418 H402 0.959 . S
C418 H403 0.959 . S
C418 H404 0.961 . S
C418 C417 1.502 . S
C419 H405 0.960 . S
C419 H406 0.961 . S
C419 H407 0.959 . S
C419 C417 1.561 . S
C420 C417 1.526 . S
C420 C421 1.396 . S
C420 C425 1.390 . S
C421 C415 1.465 . S
C421 C420 1.396 . S
C421 C422 1.399 . S
C422 H408 0.929 . S
C422 C421 1.399 . S
C422 C423 1.385 . S
C423 H409 0.931 . S
C423 C422 1.385 . S
C423 C424 1.389 . S
C424 C423 1.389 . S
C424 C425 1.387 . S
C425 H410 0.930 . S
C425 C420 1.390 . S
C425 C424 1.387 . S
H426 C438 0.930 . S
H427 C440 0.930 . S
H428 C441 0.930 . S
H429 C445 0.959 . S
H430 C445 0.959 . S
H431 C445 0.961 . S
H432 C446 0.960 . S
H433 C446 0.961 . S
H434 C446 0.959 . S
H435 C449 0.929 . S
H436 C450 0.931 . S
H437 C452 0.930 . S
C438 H426 0.930 . S
C438 C439 1.399 . S
C438 C443 1.399 . S
C439 C438 1.399 . S
C439 C440 1.376 . S
C440 H427 0.930 . S
C440 C439 1.376 . S
C440 C441 1.388 . S
C441 H428 0.930 . S
C441 C440 1.388 . S
C441 C442 1.390 . S
C442 C441 1.390 . S
C442 C443 1.394 . S
C442 C448 1.465 1_655 S
C443 C438 1.399 . S
C443 C442 1.394 . S
C443 C444 1.516 1_655 S
C444 C443 1.516 1_455 S
C444 C445 1.502 . S
C444 C446 1.561 1_455 S
C444 C447 1.526 . S
C445 H429 0.959 . S
C445 H430 0.959 . S
C445 H431 0.961 . S
C445 C444 1.502 . S
C446 H432 0.960 . S
C446 H433 0.961 . S
C446 H434 0.959 . S
C446 C444 1.561 1_655 S
C447 C444 1.526 . S
C447 C448 1.396 . S
C447 C452 1.390 . S
C448 C442 1.465 1_455 S
C448 C447 1.396 . S
C448 C449 1.399 . S
C449 H435 0.929 . S
C449 C448 1.399 . S
C449 C450 1.385 . S
C450 H436 0.931 . S
C450 C449 1.385 . S
C450 C451 1.389 . S
C451 C450 1.389 . S
C451 C452 1.387 . S
C452 H437 0.930 . S
C452 C447 1.390 . S
C452 C451 1.387 . S
H453 C465 0.930 . S
H454 C467 0.930 . S
H455 C468 0.930 . S
H456 C472 0.959 . S
H457 C472 0.959 . S
H458 C472 0.961 . S
H459 C473 0.960 . S
H460 C473 0.961 1_545 S
H461 C473 0.959 . S
H462 C476 0.935 . S
H463 C477 0.931 . S
H464 C479 0.930 . S
C465 H453 0.930 . S
C465 C466 1.399 . S
C465 C470 1.399 . S
C466 C465 1.399 . S
C466 C467 1.376 . S
C467 H454 0.930 . S
C467 C466 1.376 . S
C467 C468 1.388 . S
C468 H455 0.930 . S
C468 C467 1.388 . S
C468 C469 1.390 . S
C469 C468 1.390 . S
C469 C470 1.394 . S
C469 C475 1.465 1_565 S
C470 C465 1.399 . S
C470 C469 1.394 . S
C470 C471 1.516 1_565 S
C471 C470 1.516 1_545 S
C471 C472 1.502 . S
C471 C473 1.561 1_545 S
C471 C474 1.526 . S
C472 H456 0.959 . S
C472 H457 0.959 . S
C472 H458 0.961 . S
C472 C471 1.502 . S
C473 H459 0.960 . S
C473 H460 0.961 1_565 S
C473 H461 0.959 . S
C473 C471 1.561 1_565 S
C474 C471 1.526 . S
C474 C475 1.396 . S
C474 C479 1.390 . S
C475 C469 1.465 1_545 S
C475 C474 1.396 . S
C475 C476 1.399 . S
C476 H462 0.935 . S
C476 C475 1.399 . S
C476 C477 1.385 . S
C477 H463 0.931 . S
C477 C476 1.385 . S
C477 C478 1.389 . S
C478 C477 1.389 . S
C478 C479 1.387 . S
C479 H464 0.930 . S
C479 C474 1.390 . S
C479 C478 1.387 . S
H480 C492 0.930 . S
H481 C494 0.930 . S
H482 C495 0.930 . S
H483 C499 0.959 . S
H484 C499 0.959 . S
H485 C499 0.961 . S
H486 C500 0.960 . S
H487 C500 0.961 . S
H488 C500 0.959 . S
H489 C503 0.929 . S
H490 C504 0.931 . S
H491 C506 0.930 . S
C492 H480 0.930 . S
C492 C493 1.399 . S
C492 C497 1.399 . S
C493 C492 1.399 . S
C493 C494 1.376 . S
C494 H481 0.930 . S
C494 C493 1.376 . S
C494 C495 1.388 . S
C495 H482 0.930 . S
C495 C494 1.388 . S
C495 C496 1.390 . S
C496 C495 1.390 . S
C496 C497 1.394 . S
C496 C502 1.465 . S
C497 C492 1.399 . S
C497 C496 1.394 . S
C497 C498 1.516 . S
C498 C497 1.516 . S
C498 C499 1.502 . S
C498 C500 1.561 . S
C498 C501 1.526 . S
C499 H483 0.959 . S
C499 H484 0.959 . S
C499 H485 0.961 . S
C499 C498 1.502 . S
C500 H486 0.960 . S
C500 H487 0.961 . S
C500 H488 0.959 . S
C500 C498 1.561 . S
C501 C498 1.526 . S
C501 C502 1.396 . S
C501 C506 1.390 . S
C502 C496 1.465 . S
C502 C501 1.396 . S
C502 C503 1.399 . S
C503 H489 0.929 . S
C503 C502 1.399 . S
C503 C504 1.385 . S
C504 H490 0.931 . S
C504 C503 1.385 . S
C504 C505 1.389 . S
C505 C504 1.389 . S
C505 C506 1.387 . S
C506 H491 0.930 . S
C506 C501 1.390 . S
C506 C505 1.387 . S
H507 C519 0.930 . S
H508 C521 0.930 . S
H509 C522 0.930 . S
H510 C526 0.959 . S
H511 C526 0.959 . S
H512 C526 0.961 . S
H513 C527 0.960 . S
H514 C527 0.961 . S
H515 C527 0.959 . S
H516 C530 0.929 . S
H517 C531 0.931 . S
H518 C533 0.927 1_655 S
C519 H507 0.930 . S
C519 C520 1.399 . S
C519 C524 1.399 . S
C520 C519 1.399 . S
C520 C521 1.376 1_655 S
C521 H508 0.930 . S
C521 C520 1.376 1_455 S
C521 C522 1.388 . S
C522 H509 0.930 . S
C522 C521 1.388 . S
C522 C523 1.390 . S
C523 C522 1.390 . S
C523 C524 1.394 1_455 S
C523 C529 1.465 . S
C524 C519 1.399 . S
C524 C523 1.394 1_655 S
C524 C525 1.516 . S
C525 C524 1.516 . S
C525 C526 1.502 . S
C525 C527 1.561 . S
C525 C528 1.526 . S
C526 H510 0.959 . S
C526 H511 0.959 . S
C526 H512 0.961 . S
C526 C525 1.502 . S
C527 H513 0.960 . S
C527 H514 0.961 . S
C527 H515 0.959 . S
C527 C525 1.561 . S
C528 C525 1.526 . S
C528 C529 1.396 1_655 S
C528 C533 1.389 1_655 S
C529 C523 1.465 . S
C529 C528 1.396 1_455 S
C529 C530 1.399 . S
C530 H516 0.929 . S
C530 C529 1.399 . S
C530 C531 1.385 . S
C531 H517 0.931 . S
C531 C530 1.385 . S
C531 C532 1.389 . S
C532 C531 1.389 . S
C532 C533 1.391 . S
C533 H518 0.927 1_455 S
C533 C528 1.389 1_455 S
C533 C532 1.391 . S
H534 C546 0.930 . S
H535 C548 0.930 . S
H536 C549 0.930 . S
H537 C553 0.959 . S
H538 C553 0.959 . S
H539 C553 0.961 1_556 S
H540 C554 0.960 . S
H541 C554 0.961 1_554 S
H542 C554 0.959 . S
H543 C557 0.929 . S
H544 C558 0.931 . S
H545 C560 0.930 . S
C546 H534 0.930 . S
C546 C547 1.399 . S
C546 C551 1.399 . S
C547 C546 1.399 . S
C547 C548 1.376 . S
C548 H535 0.930 . S
C548 C547 1.376 . S
C548 C549 1.388 . S
C549 H536 0.930 . S
C549 C548 1.388 . S
C549 C550 1.390 . S
C550 C549 1.390 . S
C550 C551 1.394 . S
C550 C556 1.465 1_566 S
C551 C546 1.399 . S
C551 C550 1.394 . S
C551 C552 1.516 1_565 S
C552 C551 1.516 1_545 S
C552 C553 1.502 1_546 S
C552 C554 1.561 . S
C552 C555 1.526 1_556 S
C553 H537 0.959 . S
C553 H538 0.959 . S
C553 H539 0.961 1_554 S
C553 C552 1.502 1_564 S
C554 H540 0.960 . S
C554 H541 0.961 1_556 S
C554 H542 0.959 . S
C554 C552 1.561 . S
C555 C552 1.526 1_554 S
C555 C556 1.396 . S
C555 C560 1.390 . S
C556 C550 1.465 1_544 S
C556 C555 1.396 . S
C556 C557 1.399 . S
C557 H543 0.929 . S
C557 C556 1.399 . S
C557 C558 1.385 . S
C558 H544 0.931 . S
C558 C557 1.385 . S
C558 C559 1.389 . S
C559 C558 1.389 . S
C559 C560 1.387 . S
C560 H545 0.930 . S
C560 C555 1.390 . S
C560 C559 1.387 . S
H561 C573 0.930 . S
H562 C575 0.930 . S
H563 C576 0.930 . S
H564 C580 0.959 . S
H565 C580 0.959 . S
H566 C580 0.961 . S
H567 C581 0.960 . S
H568 C581 0.961 . S
H569 C581 0.959 . S
H570 C584 0.929 . S
H571 C585 0.931 . S
H572 C587 0.930 . S
C573 H561 0.930 . S
C573 C574 1.399 . S
C573 C578 1.399 . S
C574 C573 1.399 . S
C574 C575 1.376 . S
C575 H562 0.930 . S
C575 C574 1.376 . S
C575 C576 1.388 . S
C576 H563 0.930 . S
C576 C575 1.388 . S
C576 C577 1.390 . S
C577 C576 1.390 . S
C577 C578 1.394 . S
C577 C583 1.465 . S
C578 C573 1.399 . S
C578 C577 1.394 . S
C578 C579 1.516 . S
C579 C578 1.516 . S
C579 C580 1.502 . S
C579 C581 1.561 . S
C579 C582 1.526 . S
C580 H564 0.959 . S
C580 H565 0.959 . S
C580 H566 0.961 . S
C580 C579 1.502 . S
C581 H567 0.960 . S
C581 H568 0.961 . S
C581 H569 0.959 . S
C581 C579 1.561 . S
C582 C579 1.526 . S
C582 C583 1.396 . S
C582 C587 1.390 . S
C583 C577 1.465 . S
C583 C582 1.396 . S
C583 C584 1.399 . S
C584 H570 0.929 . S
C584 C583 1.399 . S
C584 C585 1.385 . S
C585 H571 0.931 . S
C585 C584 1.385 . S
C585 C586 1.389 . S
C586 C585 1.389 . S
C586 C587 1.387 . S
C587 H572 0.930 . S
C587 C582 1.390 . S
C587 C586 1.387 . S
H588 C600 0.934 . S
H589 C602 0.930 . S
H590 C603 0.930 . S
H591 C607 0.959 . S
H592 C607 0.959 . S
H593 C607 0.961 . S
H594 C608 0.960 . S
H595 C608 0.961 . S
H596 C608 0.959 . S
H597 C611 0.929 . S
H598 C612 0.931 . S
H599 C614 0.930 . S
C600 H588 0.934 . S
C600 C601 1.393 1_655 S
C600 C605 1.400 . S
C601 C600 1.393 1_455 S
C601 C602 1.376 . S
C602 H589 0.930 . S
C602 C601 1.376 . S
C602 C603 1.388 . S
C603 H590 0.930 . S
C603 C602 1.388 . S
C603 C604 1.390 . S
C604 C603 1.390 . S
C604 C605 1.394 1_455 S
C604 C610 1.465 . S
C605 C600 1.400 . S
C605 C604 1.394 1_655 S
C605 C606 1.516 . S
C606 C605 1.516 . S
C606 C607 1.502 . S
C606 C608 1.561 . S
C606 C609 1.526 . S
C607 H591 0.959 . S
C607 H592 0.959 . S
C607 H593 0.961 . S
C607 C606 1.502 . S
C608 H594 0.960 . S
C608 H595 0.961 . S
C608 H596 0.959 . S
C608 C606 1.561 . S
C609 C606 1.526 . S
C609 C610 1.396 1_655 S
C609 C614 1.390 . S
C610 C604 1.465 . S
C610 C609 1.396 1_455 S
C610 C611 1.399 . S
C611 H597 0.929 . S
C611 C610 1.399 . S
C611 C612 1.385 . S
C612 H598 0.931 . S
C612 C611 1.385 . S
C612 C613 1.389 1_455 S
C613 C612 1.389 1_655 S
C613 C614 1.387 . S
C614 H599 0.930 . S
C614 C609 1.390 . S
C614 C613 1.387 . S
H615 C627 0.930 . S
H616 C629 0.930 . S
H617 C630 0.930 . S
H618 C634 0.959 . S
H619 C634 0.959 . S
H620 C634 0.961 . S
H621 C635 0.960 . S
H622 C635 0.961 . S
H623 C635 0.959 . S
H624 C638 0.929 . S
H625 C639 0.931 . S
H626 C641 0.930 . S
C627 H615 0.930 . S
C627 C628 1.399 1_545 S
C627 C632 1.399 . S
C628 C627 1.399 1_565 S
C628 C629 1.376 . S
C629 H616 0.930 . S
C629 C628 1.376 . S
C629 C630 1.388 . S
C630 H617 0.930 . S
C630 C629 1.388 . S
C630 C631 1.390 . S
C631 C630 1.390 . S
C631 C632 1.394 1_565 S
C631 C637 1.465 1_554 S
C632 C627 1.399 . S
C632 C631 1.394 1_545 S
C632 C633 1.516 . S
C633 C632 1.516 . S
C633 C634 1.502 . S
C633 C635 1.561 . S
C633 C636 1.526 1_554 S
C634 H618 0.959 . S
C634 H619 0.959 . S
C634 H620 0.961 . S
C634 C633 1.502 . S
C635 H621 0.960 . S
C635 H622 0.961 . S
C635 H623 0.959 . S
C635 C633 1.561 . S
C636 C633 1.526 1_556 S
C636 C637 1.396 1_545 S
C636 C641 1.390 . S
C637 C631 1.465 1_556 S
C637 C636 1.396 1_565 S
C637 C638 1.399 . S
C638 H624 0.929 . S
C638 C637 1.399 . S
C638 C639 1.385 . S
C639 H625 0.931 . S
C639 C638 1.385 . S
C639 C640 1.389 1_565 S
C640 C639 1.389 1_545 S
C640 C641 1.387 . S
C641 H626 0.930 . S
C641 C636 1.390 . S
C641 C640 1.387 . S
H642 C654 0.930 . S
H643 C656 0.930 . S
H644 C657 0.930 . S
H645 C661 0.959 . S
H646 C661 0.959 1_455 S
H647 C661 0.961 . S
H648 C662 0.960 . S
H649 C662 0.961 . S
H650 C662 0.959 . S
H651 C665 0.929 . S
H652 C666 0.931 . S
H653 C668 0.930 . S
C654 H642 0.930 . S
C654 C655 1.399 . S
C654 C659 1.399 . S
C655 C654 1.399 . S
C655 C656 1.376 . S
C656 H643 0.930 . S
C656 C655 1.376 . S
C656 C657 1.388 . S
C657 H644 0.930 . S
C657 C656 1.388 . S
C657 C658 1.390 . S
C658 C657 1.390 . S
C658 C659 1.394 . S
C658 C664 1.465 1_655 S
C659 C654 1.399 . S
C659 C658 1.394 . S
C659 C660 1.516 . S
C660 C659 1.516 . S
C660 C661 1.502 . S
C660 C662 1.561 . S
C660 C663 1.526 1_655 S
C661 H645 0.959 . S
C661 H646 0.959 1_655 S
C661 H647 0.961 . S
C661 C660 1.502 . S
C662 H648 0.960 . S
C662 H649 0.961 . S
C662 H650 0.959 . S
C662 C660 1.561 . S
C663 C660 1.526 1_455 S
C663 C664 1.396 . S
C663 C668 1.390 . S
C664 C658 1.465 1_455 S
C664 C663 1.396 . S
C664 C665 1.399 . S
C665 H651 0.929 . S
C665 C664 1.399 . S
C665 C666 1.385 . S
C666 H652 0.931 . S
C666 C665 1.385 . S
C666 C667 1.389 . S
C667 C666 1.389 . S
C667 C668 1.387 . S
C668 H653 0.930 . S
C668 C663 1.390 . S
C668 C667 1.387 . S
H669 C681 0.930 . S
H670 C683 0.930 . S
H671 C684 0.930 . S
H672 C688 0.959 . S
H673 C688 0.959 . S
H674 C688 0.961 1_545 S
H675 C689 0.960 . S
H676 C689 0.961 . S
H677 C689 0.959 . S
H678 C692 0.929 . S
H679 C693 0.931 . S
H680 C695 0.930 . S
C681 H669 0.930 . S
C681 C682 1.399 . S
C681 C686 1.399 . S
C682 C681 1.399 . S
C682 C683 1.376 . S
C683 H670 0.930 . S
C683 C682 1.376 . S
C683 C684 1.388 . S
C684 H671 0.930 . S
C684 C683 1.388 . S
C684 C685 1.390 . S
C685 C684 1.390 . S
C685 C686 1.394 . S
C685 C691 1.465 1_545 S
C686 C681 1.399 . S
C686 C685 1.394 . S
C686 C687 1.516 1_545 S
C687 C686 1.516 1_565 S
C687 C688 1.502 . S
C687 C689 1.561 . S
C687 C690 1.526 . S
C688 H672 0.959 . S
C688 H673 0.959 . S
C688 H674 0.961 1_565 S
C688 C687 1.502 . S
C689 H675 0.960 . S
C689 H676 0.961 . S
C689 H677 0.959 . S
C689 C687 1.561 . S
C690 C687 1.526 . S
C690 C691 1.396 . S
C690 C695 1.390 . S
C691 C685 1.465 1_565 S
C691 C690 1.396 . S
C691 C692 1.399 . S
C692 H678 0.929 . S
C692 C691 1.399 . S
C692 C693 1.385 . S
C693 H679 0.931 . S
C693 C692 1.385 . S
C693 C694 1.389 . S
C694 C693 1.389 . S
C694 C695 1.387 . S
C695 H680 0.930 . S
C695 C690 1.390 . S
C695 C694 1.387 . S
H696 C708 0.930 . S
H697 C710 0.930 . S
H698 C711 0.930 . S
H699 C715 0.959 . S
H700 C715 0.959 . S
H701 C715 0.961 . S
H702 C716 0.960 . S
H703 C716 0.961 . S
H704 C716 0.959 . S
H705 C719 0.929 . S
H706 C720 0.931 . S
H707 C722 0.930 . S
C708 H696 0.930 . S
C708 C709 1.399 . S
C708 C713 1.399 . S
C709 C708 1.399 . S
C709 C710 1.376 . S
C710 H697 0.930 . S
C710 C709 1.376 . S
C710 C711 1.388 . S
C711 H698 0.930 . S
C711 C710 1.388 . S
C711 C712 1.390 . S
C712 C711 1.390 . S
C712 C713 1.394 . S
C712 C718 1.465 . S
C713 C708 1.399 . S
C713 C712 1.394 . S
C713 C714 1.516 . S
C714 C713 1.516 . S
C714 C715 1.502 . S
C714 C716 1.561 . S
C714 C717 1.526 . S
C715 H699 0.959 . S
C715 H700 0.959 . S
C715 H701 0.961 . S
C715 C714 1.502 . S
C716 H702 0.960 . S
C716 H703 0.961 . S
C716 H704 0.959 . S
C716 C714 1.561 . S
C717 C714 1.526 . S
C717 C718 1.396 . S
C717 C722 1.390 . S
C718 C712 1.465 . S
C718 C717 1.396 . S
C718 C719 1.399 . S
C719 H705 0.929 . S
C719 C718 1.399 . S
C719 C720 1.385 . S
C720 H706 0.931 . S
C720 C719 1.385 . S
C720 C721 1.389 . S
C721 C720 1.389 . S
C721 C722 1.387 . S
C722 H707 0.930 . S
C722 C717 1.390 . S
C722 C721 1.387 . S
H723 C735 0.930 . S
H724 C737 0.930 . S
H725 C738 0.930 . S
H726 C742 0.959 . S
H727 C742 0.959 . S
H728 C742 0.961 1_655 S
H729 C743 0.960 . S
H730 C743 0.961 . S
H731 C743 0.959 . S
H732 C746 0.929 . S
H733 C747 0.931 . S
H734 C749 0.930 . S
C735 H723 0.930 . S
C735 C736 1.399 . S
C735 C740 1.399 . S
C736 C735 1.399 . S
C736 C737 1.376 . S
C737 H724 0.930 . S
C737 C736 1.376 . S
C737 C738 1.388 . S
C738 H725 0.930 . S
C738 C737 1.388 . S
C738 C739 1.390 . S
C739 C738 1.390 . S
C739 C740 1.394 . S
C739 C745 1.465 1_655 S
C740 C735 1.399 . S
C740 C739 1.394 . S
C740 C741 1.516 1_655 S
C741 C740 1.516 1_455 S
C741 C742 1.502 . S
C741 C743 1.561 . S
C741 C744 1.526 . S
C742 H726 0.959 . S
C742 H727 0.959 . S
C742 H728 0.961 1_455 S
C742 C741 1.502 . S
C743 H729 0.960 . S
C743 H730 0.961 . S
C743 H731 0.959 . S
C743 C741 1.561 . S
C744 C741 1.526 . S
C744 C745 1.396 . S
C744 C749 1.390 . S
C745 C739 1.465 1_455 S
C745 C744 1.396 . S
C745 C746 1.399 . S
C746 H732 0.929 . S
C746 C745 1.399 . S
C746 C747 1.385 . S
C747 H733 0.931 . S
C747 C746 1.385 . S
C747 C748 1.389 . S
C748 C747 1.389 . S
C748 C749 1.387 . S
C749 H734 0.930 . S
C749 C744 1.390 . S
C749 C748 1.387 . S
H750 C762 0.930 . S
H751 C764 0.930 . S
H752 C765 0.930 . S
H753 C769 0.959 . S
H754 C769 0.953 1_545 S
H755 C769 0.961 . S
H756 C770 0.960 . S
H757 C770 0.961 . S
H758 C770 0.959 . S
H759 C773 0.929 . S
H760 C774 0.931 . S
H761 C776 0.930 . S
C762 H750 0.930 . S
C762 C763 1.399 . S
C762 C767 1.399 . S
C763 C762 1.399 . S
C763 C764 1.376 . S
C764 H751 0.930 . S
C764 C763 1.376 . S
C764 C765 1.388 . S
C765 H752 0.930 . S
C765 C764 1.388 . S
C765 C766 1.390 . S
C766 C765 1.390 . S
C766 C767 1.394 . S
C766 C772 1.465 1_565 S
C767 C762 1.399 . S
C767 C766 1.394 . S
C767 C768 1.516 . S
C768 C767 1.516 . S
C768 C769 1.502 . S
C768 C770 1.561 . S
C768 C771 1.526 1_565 S
C769 H753 0.959 . S
C769 H754 0.953 1_565 S
C769 H755 0.961 . S
C769 C768 1.502 . S
C770 H756 0.960 . S
C770 H757 0.961 . S
C770 H758 0.959 . S
C770 C768 1.561 . S
C771 C768 1.526 1_545 S
C771 C772 1.396 . S
C771 C776 1.390 . S
C772 C766 1.465 1_545 S
C772 C771 1.396 . S
C772 C773 1.399 . S
C773 H759 0.929 . S
C773 C772 1.399 . S
C773 C774 1.385 . S
C774 H760 0.931 . S
C774 C773 1.385 . S
C774 C775 1.389 . S
C775 C774 1.389 . S
C775 C776 1.387 . S
C776 H761 0.930 . S
C776 C771 1.390 . S
C776 C775 1.387 . S
H777 C789 0.930 . S
H778 C791 0.930 . S
H779 C792 0.930 . S
H780 C796 0.959 . S
H781 C796 0.959 . S
H782 C796 0.961 . S
H783 C797 0.960 . S
H784 C797 0.961 . S
H785 C797 0.959 . S
H786 C800 0.929 . S
H787 C801 0.931 . S
H788 C803 0.930 . S
C789 H777 0.930 . S
C789 C790 1.399 . S
C789 C794 1.399 . S
C790 C789 1.399 . S
C790 C791 1.376 . S
C791 H778 0.930 . S
C791 C790 1.376 . S
C791 C792 1.388 . S
C792 H779 0.930 . S
C792 C791 1.388 . S
C792 C793 1.390 . S
C793 C792 1.390 . S
C793 C794 1.394 . S
C793 C799 1.465 . S
C794 C789 1.399 . S
C794 C793 1.394 . S
C794 C795 1.516 . S
C795 C794 1.516 . S
C795 C796 1.502 . S
C795 C797 1.561 . S
C795 C798 1.526 . S
C796 H780 0.959 . S
C796 H781 0.959 . S
C796 H782 0.961 . S
C796 C795 1.502 . S
C797 H783 0.960 . S
C797 H784 0.961 . S
C797 H785 0.959 . S
C797 C795 1.561 . S
C798 C795 1.526 . S
C798 C799 1.396 . S
C798 C803 1.390 . S
C799 C793 1.465 . S
C799 C798 1.396 . S
C799 C800 1.399 . S
C800 H786 0.929 . S
C800 C799 1.399 . S
C800 C801 1.385 . S
C801 H787 0.931 . S
C801 C800 1.385 . S
C801 C802 1.389 . S
C802 C801 1.389 . S
C802 C803 1.387 . S
C803 H788 0.930 . S
C803 C798 1.390 . S
C803 C802 1.387 . S
C169 C105 2.599 . S
C181 C1 2.560 . S
C196 C23 2.415 . S
C208 C127 2.466 . S
C223 C27 2.578 . S
C235 C131 2.600 . S
C250 C40 2.601 . S
C262 C144 2.560 . S
C277 C88 2.416 . S
C289 C62 2.465 . S
C304 C66 2.571 . S
C316 C92 2.604 . S
C331 C49 1.321 . S
C343 C10 1.344 . S
C358 C53 1.359 . S
C370 C14 1.353 . S
C385 C75 1.371 . S
C397 C36 1.342 . S
C412 C79 1.364 . S
C424 C118 1.371 . S
C439 C101 1.371 . S
C451 C140 1.355 . S
C466 C114 1.372 . S
C478 C153 1.351 . S
C493 C3 2.108 . S
C505 C122 1.967 . S
C520 C18 1.982 . S
C532 C133 2.080 . S
C547 C29 2.097 . S
C559 C146 2.089 . S
C574 C83 1.989 . S
C586 C42 2.087 . S
C601 C57 1.904 . S
C613 C94 2.126 . S
C628 C107 2.079 . S
C640 C68 2.123 . S
C655 C148 1.290 . S
C667 C5 1.246 . S
C682 C16 1.300 . S
C694 C81 1.308 . S
C709 C96 1.275 . S
C721 C31 1.313 . S
C736 C44 1.285 . S
C748 C109 1.307 . S
C763 C55 1.323 . S
C775 C120 1.315 . S
C790 C135 1.307 . S
C802 C70 1.243 . S
