# Generated by pormake.
# Topology wfa, (4)-cn, num edge types: 1
# Building blocks:
#     Node 0, Type 0, BuildingBlock: ICAMEG_clean_sbu_1, # of connection points: 4
#     Node 1, Type 0, BuildingBlock: ICAMEG_clean_sbu_1, # of connection points: 4
#     Node 2, Type 0, BuildingBlock: ICAMEG_clean_sbu_1, # of connection points: 4
#     Node 3, Type 0, BuildingBlock: ICAMEG_clean_sbu_1, # of connection points: 4
#     Node 4, Type 0, BuildingBlock: ICAMEG_clean_sbu_1, # of connection points: 4
#     Node 5, Type 0, BuildingBlock: ICAMEG_clean_sbu_1, # of connection points: 4
#     Node 6, Type 0, BuildingBlock: ICAMEG_clean_sbu_1, # of connection points: 4
#     Node 7, Type 0, BuildingBlock: ICAMEG_clean_sbu_1, # of connection points: 4
#     Node 8, Type 0, BuildingBlock: ICAMEG_clean_sbu_1, # of connection points: 4
#     Node 9, Type 0, BuildingBlock: ICAMEG_clean_sbu_1, # of connection points: 4
#     Node 10, Type 0, BuildingBlock: ICAMEG_clean_sbu_1, # of connection points: 4
#     Node 11, Type 0, BuildingBlock: ICAMEG_clean_sbu_1, # of connection points: 4
#     Node 12, Type 0, BuildingBlock: ICAMEG_clean_sbu_1, # of connection points: 4
#     Node 13, Type 0, BuildingBlock: ICAMEG_clean_sbu_1, # of connection points: 4
#     Node 14, Type 0, BuildingBlock: ICAMEG_clean_sbu_1, # of connection points: 4
#     Node 15, Type 0, BuildingBlock: ICAMEG_clean_sbu_1, # of connection points: 4
#     Edge 16, Type (0, 0), BuildingBlock: OJICUG_clean_linker_0, # of connection points: 2
#     Edge 17, Type (0, 0), BuildingBlock: OJICUG_clean_linker_0, # of connection points: 2
#     Edge 18, Type (0, 0), BuildingBlock: OJICUG_clean_linker_0, # of connection points: 2
#     Edge 19, Type (0, 0), BuildingBlock: OJICUG_clean_linker_0, # of connection points: 2
#     Edge 20, Type (0, 0), BuildingBlock: OJICUG_clean_linker_0, # of connection points: 2
#     Edge 21, Type (0, 0), BuildingBlock: OJICUG_clean_linker_0, # of connection points: 2
#     Edge 22, Type (0, 0), BuildingBlock: OJICUG_clean_linker_0, # of connection points: 2
#     Edge 23, Type (0, 0), BuildingBlock: OJICUG_clean_linker_0, # of connection points: 2
#     Edge 24, Type (0, 0), BuildingBlock: OJICUG_clean_linker_0, # of connection points: 2
#     Edge 25, Type (0, 0), BuildingBlock: OJICUG_clean_linker_0, # of connection points: 2
#     Edge 26, Type (0, 0), BuildingBlock: OJICUG_clean_linker_0, # of connection points: 2
#     Edge 27, Type (0, 0), BuildingBlock: OJICUG_clean_linker_0, # of connection points: 2
#     Edge 28, Type (0, 0), BuildingBlock: OJICUG_clean_linker_0, # of connection points: 2
#     Edge 29, Type (0, 0), BuildingBlock: OJICUG_clean_linker_0, # of connection points: 2
#     Edge 30, Type (0, 0), BuildingBlock: OJICUG_clean_linker_0, # of connection points: 2
#     Edge 31, Type (0, 0), BuildingBlock: OJICUG_clean_linker_0, # of connection points: 2
#     Edge 32, Type (0, 0), BuildingBlock: OJICUG_clean_linker_0, # of connection points: 2
#     Edge 33, Type (0, 0), BuildingBlock: OJICUG_clean_linker_0, # of connection points: 2
#     Edge 34, Type (0, 0), BuildingBlock: OJICUG_clean_linker_0, # of connection points: 2
#     Edge 35, Type (0, 0), BuildingBlock: OJICUG_clean_linker_0, # of connection points: 2
#     Edge 36, Type (0, 0), BuildingBlock: OJICUG_clean_linker_0, # of connection points: 2
#     Edge 37, Type (0, 0), BuildingBlock: OJICUG_clean_linker_0, # of connection points: 2
#     Edge 38, Type (0, 0), BuildingBlock: OJICUG_clean_linker_0, # of connection points: 2
#     Edge 39, Type (0, 0), BuildingBlock: OJICUG_clean_linker_0, # of connection points: 2
#     Edge 40, Type (0, 0), BuildingBlock: OJICUG_clean_linker_0, # of connection points: 2
#     Edge 41, Type (0, 0), BuildingBlock: OJICUG_clean_linker_0, # of connection points: 2
#     Edge 42, Type (0, 0), BuildingBlock: OJICUG_clean_linker_0, # of connection points: 2
#     Edge 43, Type (0, 0), BuildingBlock: OJICUG_clean_linker_0, # of connection points: 2
#     Edge 44, Type (0, 0), BuildingBlock: OJICUG_clean_linker_0, # of connection points: 2
#     Edge 45, Type (0, 0), BuildingBlock: OJICUG_clean_linker_0, # of connection points: 2
#     Edge 46, Type (0, 0), BuildingBlock: OJICUG_clean_linker_0, # of connection points: 2
#     Edge 47, Type (0, 0), BuildingBlock: OJICUG_clean_linker_0, # of connection points: 2
# Relax obj value: 0.078
# Max RMSD: 0.218
# Mean RMSD: 0.190
data_MOF--net-wfa--node1-ICAMEG_clean_sbu_1--edge1-OJICUG_clean_linker_0
_symmetry_space_group_name_H-M    P1
_symmetry_Int_Tables_number       1
_symmetry_cell_setting            triclinic
loop_
_symmetry_equiv_pos_as_xyz
'x, y, z'
_cell_length_a     35.379837
_cell_length_b     35.379944
_cell_length_c     19.875675
_cell_angle_alpha  89.144095
_cell_angle_beta   89.144393
_cell_angle_gamma 88.958898
loop_
_atom_site_label
_atom_site_type_symbol
_atom_site_fract_x
_atom_site_fract_y
_atom_site_fract_z
_atom_type_partial_charge
Co0 Co 0.65184 0.98147 0.10837 0.0
Co1 Co 0.64837 0.05779 0.99772 0.0
O2 O 0.67354 0.01304 0.03641 0.0
C3 C 0.72276 0.00774 0.16419 0.0
O4 O 0.71264 0.04032 0.13701 0.0
C5 C 0.67179 0.01068 0.88053 0.0
O6 O 0.66014 0.98047 0.91329 0.0
O7 O 0.60135 0.02942 0.98394 0.0
O8 O 0.60004 0.98544 0.06675 0.0
H9 H 0.5402 0.14979 0.96669 0.0
H10 H 0.72112 0.95401 0.03795 0.0
O11 O 0.70264 0.97872 0.1543 0.0
H12 H 0.62413 0.8596 0.99305 0.0
H13 H 0.65283 0.87234 0.27404 0.0
H14 H 0.58079 0.98351 0.19003 0.0
H15 H 0.60911 0.91467 0.06405 0.0
H16 H 0.67857 0.91222 0.18182 0.0
O17 O 0.66759 0.04328 0.90629 0.0
H18 H 0.57359 0.09506 0.01776 0.0
H19 H 0.66936 0.11449 0.89131 0.0
H20 H 0.55386 0.94425 0.28185 0.0
H21 H 0.73753 0.89916 0.96722 0.0
H22 H 0.58999 0.8882 0.32446 0.0
H23 H 0.68875 0.85161 0.94412 0.0
O24 O 0.63898 0.02615 0.16267 0.0
H25 H 0.78826 0.07994 0.98244 0.0
H26 H 0.66487 0.1325 0.05725 0.0
H27 H 0.72256 0.16914 0.07369 0.0
H28 H 0.78475 0.14309 0.03544 0.0
H29 H 0.72997 0.04395 0.96804 0.0
H30 H 0.63671 0.16925 0.83821 0.0
H31 H 0.57184 0.18722 0.87677 0.0
O32 O 0.62898 0.07368 0.08834 0.0
C33 C 0.58415 0.00466 0.01948 0.0
C34 C 0.56853 0.14222 0.94984 0.0
C35 C 0.6227 0.15309 0.87763 0.0
N36 N 0.6235 0.10178 0.95795 0.0
C37 C 0.58768 0.11142 0.97884 0.0
C38 C 0.64102 0.12209 0.90786 0.0
C39 C 0.58625 0.16312 0.89899 0.0
C40 C 0.69992 0.93316 0.02873 0.0
N41 N 0.66428 0.9374 0.0552 0.0
C42 C 0.7093 0.90228 0.98841 0.0
C43 C 0.6819 0.87564 0.97538 0.0
C44 C 0.64562 0.88013 1.00277 0.0
C45 C 0.63726 0.9114 0.04278 0.0
C46 C 0.63677 0.8966 0.25571 0.0
C47 C 0.59653 0.95898 0.20785 0.0
C48 C 0.65121 0.91929 0.20356 0.0
N49 N 0.63101 0.94989 0.18002 0.0
C50 C 0.5812 0.93693 0.26005 0.0
C51 C 0.6015 0.90551 0.284 0.0
C52 C 0.62882 0.05989 0.14801 0.0
C53 C 0.76131 0.09166 0.99912 0.0
C54 C 0.69188 0.12074 0.04121 0.0
C55 C 0.72444 0.1417 0.05042 0.0
C56 C 0.75933 0.12705 0.02899 0.0
N57 N 0.694 0.08619 0.01135 0.0
C58 C 0.72817 0.07148 0.9908 0.0
Co59 Co 0.52479 0.65057 0.10108 0.0
Co60 Co 0.44951 0.65111 0.99203 0.0
O61 O 0.49437 0.67382 0.02958 0.0
C62 C 0.49985 0.72308 0.15599 0.0
O63 O 0.46733 0.71476 0.12959 0.0
C64 C 0.49835 0.6718 0.87333 0.0
O65 O 0.52815 0.65921 0.90584 0.0
O66 O 0.47699 0.60243 0.9783 0.0
O67 O 0.5199 0.59903 0.06057 0.0
H68 H 0.35536 0.54835 0.96212 0.0
H69 H 0.55468 0.71783 0.02913 0.0
O70 O 0.52849 0.70126 0.14595 0.0
H71 H 0.64653 0.61468 0.98232 0.0
H72 H 0.63311 0.64528 0.26273 0.0
H73 H 0.52023 0.58019 0.18413 0.0
H74 H 0.59071 0.60349 0.05534 0.0
H75 H 0.59426 0.67328 0.17194 0.0
O76 O 0.46543 0.66914 0.89983 0.0
H77 H 0.41002 0.57861 0.01314 0.0
H78 H 0.39469 0.67524 0.8864 0.0
H79 H 0.55839 0.55108 0.27464 0.0
H80 H 0.61037 0.73043 0.95645 0.0
H81 H 0.61534 0.58366 0.31444 0.0
H82 H 0.65662 0.67853 0.93232 0.0
O83 O 0.47927 0.64059 0.15681 0.0
H84 H 0.42938 0.79181 0.97108 0.0
H85 H 0.3748 0.67219 0.05348 0.0
H86 H 0.33851 0.73183 0.06716 0.0
H87 H 0.36544 0.79208 0.02452 0.0
H88 H 0.46512 0.73171 0.96004 0.0
H89 H 0.34016 0.64578 0.83341 0.0
H90 H 0.32026 0.58199 0.87155 0.0
O91 O 0.43229 0.63284 0.08349 0.0
C92 C 0.50092 0.58404 0.0139 0.0
C93 C 0.3638 0.57622 0.94527 0.0
C94 C 0.3553 0.6309 0.87294 0.0
N95 N 0.40538 0.62875 0.95313 0.0
C96 C 0.39457 0.59359 0.97424 0.0
C97 C 0.3862 0.64741 0.90311 0.0
C98 C 0.34417 0.59505 0.89423 0.0
C99 C 0.57498 0.69528 0.01955 0.0
N100 N 0.56957 0.66003 0.04655 0.0
C101 C 0.60634 0.70251 0.9781 0.0
C102 C 0.63224 0.67336 0.96448 0.0
C103 C 0.62658 0.63751 0.99246 0.0
C104 C 0.59488 0.63132 0.03362 0.0
C105 C 0.60845 0.63075 0.24562 0.0
C106 C 0.54511 0.59442 0.20081 0.0
C107 C 0.58633 0.64648 0.19429 0.0
N108 N 0.55528 0.62817 0.17218 0.0
C109 C 0.56655 0.57785 0.25226 0.0
C110 C 0.59846 0.59617 0.27463 0.0
C111 C 0.4455 0.63206 0.143 0.0
C112 C 0.41725 0.76572 0.98959 0.0
C113 C 0.38706 0.6984 0.03602 0.0
C114 C 0.36627 0.73205 0.04357 0.0
C115 C 0.38143 0.76586 0.01972 0.0
N116 N 0.42195 0.69841 0.00554 0.0
C117 C 0.43729 0.73155 0.98318 0.0
Co118 Co 0.85004 0.52867 0.09459 0.0
Co119 Co 0.85498 0.45206 0.98894 0.0
O120 O 0.82942 0.49723 0.02415 0.0
C121 C 0.7772 0.50468 0.14945 0.0
O122 O 0.78711 0.47201 0.12364 0.0
C123 C 0.83195 0.49792 0.86848 0.0
O124 O 0.84322 0.52858 0.89804 0.0
O125 O 0.90229 0.48032 0.97253 0.0
O126 O 0.9028 0.52271 0.05561 0.0
H127 H 0.9629 0.35882 0.96646 0.0
H128 H 0.78344 0.55802 0.02051 0.0
O129 O 0.7982 0.53323 0.1386 0.0
H130 H 0.88537 0.64763 0.96867 0.0
H131 H 0.84835 0.63966 0.25028 0.0
H132 H 0.91844 0.52488 0.17955 0.0
H133 H 0.89636 0.59329 0.04565 0.0
H134 H 0.82367 0.5995 0.16101 0.0
O135 O 0.83684 0.46561 0.89656 0.0
H136 H 0.9293 0.41469 0.01179 0.0
H137 H 0.83543 0.39428 0.88744 0.0
H138 H 0.94428 0.56434 0.26858 0.0
H139 H 0.77099 0.61232 0.94404 0.0
H140 H 0.90918 0.62224 0.30445 0.0
H141 H 0.82232 0.65738 0.91728 0.0
O142 O 0.86 0.48404 0.15265 0.0
H143 H 0.71528 0.42947 0.97646 0.0
H144 H 0.83764 0.37801 0.05493 0.0
H145 H 0.77983 0.3413 0.07441 0.0
H146 H 0.71821 0.36672 0.03414 0.0
H147 H 0.77369 0.46553 0.95891 0.0
H148 H 0.86834 0.33838 0.84002 0.0
H149 H 0.93236 0.32027 0.88046 0.0
O150 O 0.87307 0.43704 0.08067 0.0
C151 C 0.9194 0.50371 0.00906 0.0
C152 C 0.93495 0.36644 0.94878 0.0
C153 C 0.88188 0.35501 0.87772 0.0
N154 N 0.88033 0.4076 0.95267 0.0
C155 C 0.91569 0.39792 0.9745 0.0
C156 C 0.86343 0.3867 0.90467 0.0
C157 C 0.91784 0.34488 0.90018 0.0
C158 C 0.80568 0.57788 0.00989 0.0
N159 N 0.84051 0.57261 0.03758 0.0
C160 C 0.79856 0.60843 0.96628 0.0
C161 C 0.82738 0.63367 0.95119 0.0
C162 C 0.86279 0.62819 0.97997 0.0
C163 C 0.86888 0.59733 0.02335 0.0
C164 C 0.86399 0.61459 0.23489 0.0
C165 C 0.90314 0.55018 0.19449 0.0
C166 C 0.85014 0.59174 0.18442 0.0
N167 N 0.86984 0.56017 0.16448 0.0
C168 C 0.91785 0.57234 0.24512 0.0
C169 C 0.89812 0.6048 0.26528 0.0
C170 C 0.87119 0.45053 0.13983 0.0
C171 C 0.74202 0.41798 0.99389 0.0
C172 C 0.81086 0.38954 0.03805 0.0
C173 C 0.77823 0.36854 0.049 0.0
C174 C 0.74365 0.38285 0.02646 0.0
N175 N 0.80912 0.4238 0.00539 0.0
C176 C 0.77523 0.4382 0.9838 0.0
Co177 Co 0.98119 0.85268 0.10408 0.0
Co178 Co 0.05827 0.85508 0.99541 0.0
O179 O 0.01344 0.8308 0.03337 0.0
C180 C 0.00672 0.78018 0.16034 0.0
O181 O 0.03948 0.78964 0.13403 0.0
C182 C 0.01273 0.83197 0.87771 0.0
O183 O 0.98209 0.84468 0.90852 0.0
O184 O 0.02932 0.90289 0.97888 0.0
O185 O 0.98583 0.9047 0.06252 0.0
H186 H 0.15027 0.96059 0.96498 0.0
H187 H 0.95413 0.78544 0.03341 0.0
O188 O 0.97778 0.80147 0.14998 0.0
H189 H 0.86137 0.88724 0.98264 0.0
H190 H 0.86984 0.85385 0.26488 0.0
H191 H 0.98262 0.92233 0.18567 0.0
H192 H 0.91528 0.89883 0.05647 0.0
H193 H 0.91092 0.82771 0.17478 0.0
O194 O 0.04506 0.83613 0.90397 0.0
H195 H 0.09464 0.92885 0.01398 0.0
H196 H 0.11646 0.83308 0.89204 0.0
H197 H 0.94218 0.94963 0.27543 0.0
H198 H 0.90035 0.77243 0.96002 0.0
H199 H 0.8853 0.91533 0.31559 0.0
H200 H 0.85368 0.82366 0.93384 0.0
O201 O 0.02537 0.86308 0.16003 0.0
H202 H 0.08267 0.71474 0.98644 0.0
H203 H 0.13228 0.83667 0.05918 0.0
H204 H 0.16938 0.77808 0.07992 0.0
H205 H 0.14479 0.7166 0.04283 0.0
H206 H 0.04609 0.77383 0.96812 0.0
H207 H 0.17213 0.86407 0.84105 0.0
H208 H 0.18942 0.92809 0.87835 0.0
O209 O 0.07284 0.87392 0.08618 0.0
C210 C 0.00484 0.92054 0.01493 0.0
C211 C 0.14302 0.93262 0.94863 0.0
C212 C 0.15525 0.87845 0.87899 0.0
N213 N 0.10247 0.87904 0.95629 0.0
C214 C 0.11167 0.91442 0.97643 0.0
C215 C 0.12369 0.86109 0.90797 0.0
C216 C 0.16491 0.91442 0.89971 0.0
C217 C 0.9336 0.80767 0.02301 0.0
N218 N 0.93772 0.84278 0.0493 0.0
C219 C 0.90334 0.80022 0.98114 0.0
C220 C 0.8772 0.829 0.96638 0.0
C221 C 0.88151 0.86469 0.99369 0.0
C222 C 0.91214 0.87112 0.03531 0.0
C223 C 0.89446 0.86913 0.24762 0.0
C224 C 0.95775 0.90738 0.20247 0.0
C225 C 0.91783 0.85446 0.19668 0.0
N226 N 0.94886 0.8737 0.17442 0.0
C227 C 0.93504 0.92291 0.2535 0.0
C228 C 0.90315 0.90363 0.27607 0.0
C229 C 0.05886 0.87335 0.14584 0.0
C230 C 0.09373 0.74135 1.00272 0.0
C231 C 0.12115 0.80998 0.04362 0.0
C232 C 0.14237 0.7769 0.05526 0.0
C233 C 0.12855 0.74241 0.03445 0.0
N234 N 0.08712 0.80875 0.0121 0.0
C235 C 0.07324 0.77497 0.99209 0.0
Co236 Co 0.15273 0.02274 0.40623 0.0
Co237 Co 0.14983 0.94581 0.51518 0.0
O238 O 0.17441 0.99042 0.47702 0.0
C239 C 0.22497 0.99659 0.34981 0.0
O240 O 0.2153 0.96393 0.37629 0.0
C241 C 0.1731 0.99141 0.63268 0.0
O242 O 0.16053 0.02205 0.60169 0.0
O243 O 0.10222 0.97508 0.53155 0.0
O244 O 0.10066 0.01854 0.44784 0.0
H245 H 0.04371 0.85456 0.54593 0.0
H246 H 0.22022 0.04939 0.47666 0.0
O247 O 0.20394 0.02572 0.36023 0.0
H248 H 0.11912 0.14294 0.52728 0.0
H249 H 0.15231 0.13391 0.24504 0.0
H250 H 0.08302 0.02174 0.32471 0.0
H251 H 0.10709 0.08903 0.45369 0.0
H252 H 0.17818 0.09275 0.33526 0.0
O253 O 0.16884 0.95906 0.60658 0.0
H254 H 0.07583 0.9099 0.4967 0.0
H255 H 0.17141 0.88766 0.6189 0.0
H256 H 0.056 0.06226 0.23483 0.0
H257 H 0.23368 0.10315 0.5498 0.0
H258 H 0.0907 0.11885 0.19443 0.0
H259 H 0.1828 0.15022 0.5759 0.0
O260 O 0.14196 0.97859 0.35049 0.0
H261 H 0.28997 0.92035 0.52505 0.0
H262 H 0.16779 0.87161 0.45172 0.0
H263 H 0.22613 0.83401 0.43158 0.0
H264 H 0.28773 0.85815 0.46901 0.0
H265 H 0.23114 0.95747 0.54265 0.0
H266 H 0.14004 0.83226 0.67011 0.0
H267 H 0.07592 0.81532 0.63277 0.0
O268 O 0.1309 0.93124 0.42446 0.0
C269 C 0.08471 0.99964 0.49544 0.0
C270 C 0.07171 0.86165 0.56228 0.0
C271 C 0.12578 0.84918 0.63206 0.0
N272 N 0.12557 0.90184 0.5545 0.0
C273 C 0.09014 0.89283 0.53435 0.0
C274 C 0.14336 0.88058 0.60296 0.0
C275 C 0.08976 0.83972 0.61133 0.0
C276 C 0.19814 0.07009 0.48703 0.0
N277 N 0.16298 0.0662 0.46083 0.0
C278 C 0.20585 0.10034 0.52875 0.0
C279 C 0.17727 0.12671 0.54347 0.0
C280 C 0.14152 0.12262 0.51626 0.0
C281 C 0.13484 0.092 0.47478 0.0
C282 C 0.13685 0.10943 0.2624 0.0
C283 C 0.09816 0.04647 0.30781 0.0
C284 C 0.15137 0.08601 0.31341 0.0
N285 N 0.13191 0.05515 0.3358 0.0
C286 C 0.08277 0.06924 0.25671 0.0
C287 C 0.10228 0.10096 0.23401 0.0
C288 C 0.1315 0.94518 0.36478 0.0
C289 C 0.2633 0.90949 0.5086 0.0
C290 C 0.19454 0.88257 0.46736 0.0
C291 C 0.22747 0.86106 0.45608 0.0
C292 C 0.26203 0.87462 0.47708 0.0
N293 N 0.19598 0.91664 0.4987 0.0
C294 C 0.22983 0.93028 0.51883 0.0
Co295 Co 0.47516 0.15365 0.4122 0.0
Co296 Co 0.55144 0.14905 0.51871 0.0
O297 O 0.50623 0.17438 0.48309 0.0
C298 C 0.49899 0.22662 0.35766 0.0
O299 O 0.53161 0.2169 0.38386 0.0
C300 C 0.50508 0.17182 0.63887 0.0
O301 O 0.47448 0.16077 0.60884 0.0
O302 O 0.52346 0.1015 0.53451 0.0
O303 O 0.48118 0.10093 0.45124 0.0
H304 H 0.64531 0.04171 0.54196 0.0
H305 H 0.44525 0.22011 0.486 0.0
O306 O 0.47052 0.20548 0.36818 0.0
H307 H 0.35574 0.11787 0.53626 0.0
H308 H 0.36482 0.1549 0.25503 0.0
H309 H 0.47956 0.08525 0.32727 0.0
H310 H 0.41052 0.10706 0.46021 0.0
H311 H 0.40449 0.17974 0.34486 0.0
O312 O 0.53746 0.16694 0.61107 0.0
H313 H 0.58941 0.07499 0.496 0.0
H314 H 0.60871 0.16889 0.6209 0.0
H315 H 0.44059 0.05927 0.23769 0.0
H316 H 0.39051 0.23237 0.56158 0.0
H317 H 0.38271 0.09415 0.20106 0.0
H318 H 0.34549 0.18089 0.58753 0.0
O319 O 0.52005 0.14389 0.35465 0.0
H320 H 0.57302 0.28889 0.53235 0.0
H321 H 0.62559 0.16702 0.45366 0.0
H322 H 0.66199 0.22511 0.43508 0.0
H323 H 0.63603 0.28648 0.47553 0.0
H324 H 0.53727 0.23022 0.549 0.0
H325 H 0.66462 0.13631 0.66893 0.0
H326 H 0.68328 0.07242 0.62863 0.0
O327 O 0.56692 0.13122 0.42708 0.0
C328 C 0.50017 0.08435 0.49783 0.0
C329 C 0.63745 0.0696 0.55961 0.0
C330 C 0.64824 0.12269 0.63097 0.0
N331 N 0.59594 0.12396 0.55537 0.0
C332 C 0.60594 0.08868 0.53354 0.0
C333 C 0.61654 0.14096 0.60367 0.0
C334 C 0.65868 0.08681 0.60856 0.0
C335 C 0.42542 0.19779 0.49629 0.0
N336 N 0.43095 0.16298 0.46866 0.0
C337 C 0.39462 0.20481 0.5394 0.0
C338 C 0.3694 0.1759 0.55403 0.0
C339 C 0.37516 0.14051 0.52533 0.0
C340 C 0.40627 0.13453 0.48247 0.0
C341 C 0.38988 0.13937 0.27075 0.0
C342 C 0.45426 0.10046 0.312 0.0
C343 C 0.41246 0.1533 0.32154 0.0
N344 N 0.44403 0.13372 0.34189 0.0
C345 C 0.43238 0.08567 0.26106 0.0
C346 C 0.39994 0.10528 0.24047 0.0
C347 C 0.5536 0.13298 0.36779 0.0
C348 C 0.58475 0.26226 0.51488 0.0
C349 C 0.61381 0.1937 0.47058 0.0
C350 C 0.63464 0.22648 0.46015 0.0
C351 C 0.62003 0.26092 0.48278 0.0
N352 N 0.57942 0.19514 0.50284 0.0
C353 C 0.56471 0.2289 0.52446 0.0
Co354 Co 0.35326 0.47806 0.40642 0.0
Co355 Co 0.3526 0.55346 0.51521 0.0
O356 O 0.32999 0.50847 0.47794 0.0
C357 C 0.28054 0.50259 0.35195 0.0
O358 O 0.28877 0.53516 0.37828 0.0
C359 C 0.33207 0.50476 0.63417 0.0
O360 O 0.34466 0.47491 0.60179 0.0
O361 O 0.40137 0.52614 0.5289 0.0
O362 O 0.40483 0.48322 0.44665 0.0
H363 H 0.45509 0.64802 0.54416 0.0
H364 H 0.28624 0.44795 0.47883 0.0
O365 O 0.30251 0.47407 0.36184 0.0
H366 H 0.38987 0.35663 0.52556 0.0
H367 H 0.35875 0.36952 0.24525 0.0
H368 H 0.42347 0.48281 0.323 0.0
H369 H 0.40069 0.4124 0.45221 0.0
H370 H 0.33073 0.40838 0.336 0.0
O371 O 0.3347 0.53764 0.60752 0.0
H372 H 0.42496 0.59314 0.49363 0.0
H373 H 0.32843 0.60839 0.62067 0.0
H374 H 0.45261 0.44464 0.23252 0.0
H375 H 0.27401 0.39231 0.55184 0.0
H376 H 0.42021 0.38749 0.19314 0.0
H377 H 0.32615 0.34633 0.57593 0.0
O378 O 0.36294 0.52356 0.35045 0.0
H379 H 0.21186 0.57323 0.53649 0.0
H380 H 0.33126 0.62806 0.4536 0.0
H381 H 0.27153 0.66422 0.44014 0.0
H382 H 0.21141 0.63718 0.48309 0.0
H383 H 0.27206 0.53764 0.54742 0.0
H384 H 0.35778 0.66314 0.67318 0.0
H385 H 0.42145 0.68319 0.63464 0.0
O386 O 0.37071 0.5706 0.42362 0.0
C387 C 0.41981 0.50227 0.49325 0.0
C388 C 0.42728 0.63951 0.56119 0.0
C389 C 0.37266 0.64797 0.63369 0.0
N390 N 0.37487 0.59773 0.55381 0.0
C391 C 0.40997 0.60862 0.5325 0.0
C392 C 0.35622 0.61694 0.6038 0.0
C393 C 0.40844 0.65919 0.61217 0.0
C394 C 0.30889 0.42776 0.48839 0.0
N395 N 0.34407 0.4333 0.46119 0.0
C396 C 0.30187 0.39644 0.53003 0.0
C397 C 0.33115 0.37068 0.54362 0.0
C398 C 0.36693 0.37647 0.51543 0.0
C399 C 0.37292 0.40814 0.47409 0.0
C400 C 0.37321 0.39427 0.26217 0.0
C401 C 0.40933 0.45784 0.30649 0.0
C402 C 0.35747 0.41639 0.31347 0.0
N403 N 0.37567 0.44756 0.33534 0.0
C404 C 0.42591 0.4364 0.25507 0.0
C405 C 0.4077 0.40437 0.23293 0.0
C406 C 0.3714 0.55737 0.36413 0.0
C407 C 0.23791 0.58542 0.51789 0.0
C408 C 0.30511 0.61575 0.47118 0.0
C409 C 0.2714 0.63646 0.46375 0.0
C410 C 0.23766 0.62124 0.48776 0.0
N411 N 0.30521 0.58087 0.50174 0.0
C412 C 0.27212 0.56546 0.52423 0.0
Co413 Co 0.02263 0.35328 0.40134 0.0
Co414 Co 0.94586 0.35674 0.51099 0.0
O415 O 0.99076 0.33158 0.47286 0.0
C416 C 0.99643 0.28243 0.34516 0.0
O417 O 0.96379 0.2926 0.37205 0.0
C418 C 0.99259 0.33338 0.62863 0.0
O419 O 0.02283 0.34526 0.59626 0.0
O420 O 0.97415 0.40377 0.52513 0.0
O421 O 0.01856 0.40506 0.44303 0.0
H422 H 0.85352 0.46477 0.54023 0.0
H423 H 0.04969 0.28392 0.47198 0.0
O424 O 0.02546 0.3025 0.35532 0.0
H425 H 0.14396 0.38078 0.51856 0.0
H426 H 0.13243 0.35219 0.23714 0.0
H427 H 0.02103 0.42438 0.31978 0.0
H428 H 0.08928 0.39588 0.44666 0.0
H429 H 0.09212 0.32647 0.32876 0.0
O430 O 0.96005 0.33751 0.60258 0.0
H431 H 0.90868 0.43149 0.4904 0.0
H432 H 0.88872 0.33579 0.61672 0.0
H433 H 0.06073 0.45129 0.22854 0.0
H434 H 0.10416 0.26742 0.5436 0.0
H435 H 0.11689 0.41509 0.18662 0.0
H436 H 0.15163 0.31614 0.56756 0.0
O437 O 0.97819 0.36624 0.34647 0.0
H438 H 0.92372 0.21684 0.52595 0.0
H439 H 0.87139 0.34021 0.45054 0.0
H440 H 0.83487 0.28251 0.43358 0.0
H441 H 0.86081 0.22032 0.4721 0.0
H442 H 0.95961 0.27514 0.54086 0.0
H443 H 0.83352 0.36834 0.6686 0.0
H444 H 0.81556 0.43309 0.62934 0.0
O445 O 0.93032 0.3761 0.42017 0.0
C446 C 0.99913 0.42095 0.49004 0.0
C447 C 0.86108 0.43649 0.55735 0.0
C448 C 0.8499 0.38235 0.62949 0.0
N449 N 0.90171 0.38162 0.55019 0.0
C450 C 0.89212 0.4174 0.52904 0.0
C451 C 0.88115 0.36409 0.59996 0.0
C452 C 0.83988 0.41875 0.60777 0.0
C453 C 0.07052 0.30508 0.48156 0.0
N454 N 0.06646 0.34074 0.45507 0.0
C455 C 0.10118 0.29565 0.52238 0.0
C456 C 0.12777 0.32302 0.5359 0.0
C457 C 0.12347 0.35931 0.50847 0.0
C458 C 0.09242 0.36773 0.46795 0.0
C459 C 0.10812 0.36829 0.25517 0.0
C460 C 0.04561 0.4086 0.30225 0.0
C461 C 0.08519 0.35386 0.30698 0.0
N462 N 0.05452 0.3741 0.33014 0.0
C463 C 0.06791 0.42393 0.25039 0.0
C464 C 0.09939 0.40359 0.22683 0.0
C465 C 0.94437 0.37633 0.36068 0.0
C466 C 0.91205 0.24379 0.50915 0.0
C467 C 0.8831 0.31321 0.46672 0.0
C468 C 0.86221 0.28064 0.45721 0.0
C469 C 0.8768 0.24575 0.4788 0.0
N470 N 0.91753 0.3111 0.49702 0.0
C471 C 0.93217 0.27694 0.51776 0.0
Co472 Co 0.35272 0.02217 0.90331 0.0
Co473 Co 0.35665 0.94523 0.01254 0.0
O474 O 0.33121 0.99003 0.97463 0.0
C475 C 0.28214 0.99549 0.84678 0.0
O476 O 0.29252 0.9629 0.87362 0.0
C477 C 0.33324 0.99176 0.13033 0.0
O478 O 0.3451 0.02203 0.09802 0.0
O479 O 0.40352 0.97375 0.02667 0.0
O480 O 0.40451 0.01842 0.94503 0.0
H481 H 0.46513 0.85335 0.04071 0.0
H482 H 0.28312 0.04859 0.97394 0.0
O483 O 0.30195 0.02467 0.85719 0.0
H484 H 0.37923 0.14346 0.02141 0.0
H485 H 0.35091 0.13229 0.7398 0.0
H486 H 0.42384 0.02122 0.82181 0.0
H487 H 0.39478 0.08906 0.94912 0.0
H488 H 0.32543 0.09159 0.83109 0.0
O489 O 0.33741 0.95924 0.10422 0.0
H490 H 0.43157 0.90851 0.99154 0.0
H491 H 0.33614 0.88783 0.11814 0.0
H492 H 0.45052 0.06131 0.7309 0.0
H493 H 0.26617 0.10278 0.04594 0.0
H494 H 0.41395 0.11731 0.6893 0.0
H495 H 0.31452 0.15055 0.07035 0.0
O496 O 0.36605 0.97792 0.84823 0.0
H497 H 0.21693 0.9222 0.02822 0.0
H498 H 0.34047 0.87075 0.95181 0.0
H499 H 0.28297 0.83387 0.93509 0.0
H500 H 0.2207 0.85937 0.97414 0.0
H501 H 0.27501 0.95847 0.0428 0.0
H502 H 0.36897 0.8326 0.16936 0.0
H503 H 0.43371 0.81497 0.12951 0.0
O504 O 0.37601 0.9299 0.92161 0.0
C505 C 0.42053 0.99893 0.99183 0.0
C506 C 0.43685 0.86075 0.05804 0.0
C507 C 0.38287 0.84915 0.13034 0.0
N508 N 0.3818 0.90117 0.05149 0.0
C509 C 0.41759 0.8918 0.03011 0.0
C510 C 0.36444 0.88042 0.10119 0.0
C511 C 0.41926 0.83932 0.10832 0.0
C512 C 0.30411 0.06956 0.98371 0.0
N513 N 0.33981 0.06581 0.95725 0.0
C514 C 0.29443 0.10006 0.02475 0.0
C515 C 0.32159 0.12682 0.03851 0.0
C516 C 0.35792 0.12284 0.01112 0.0
C517 C 0.36659 0.09195 0.97037 0.0
C518 C 0.36717 0.10805 0.75769 0.0
C519 C 0.4079 0.04573 0.80442 0.0
C520 C 0.35288 0.0849 0.80931 0.0
N521 N 0.37332 0.05434 0.83231 0.0
C522 C 0.42309 0.06825 0.75274 0.0
C523 C 0.40255 0.09964 0.72936 0.0
C524 C 0.37625 0.9441 0.86223 0.0
C525 C 0.24391 0.91073 0.01117 0.0
C526 C 0.31342 0.88228 0.96818 0.0
C527 C 0.28097 0.86118 0.95881 0.0
C528 C 0.24603 0.87552 0.98071 0.0
N529 N 0.31115 0.91666 0.99861 0.0
C530 C 0.27694 0.93107 0.01959 0.0
Co531 Co 0.47798 0.35365 0.90666 0.0
Co532 Co 0.5535 0.35308 0.01515 0.0
O533 O 0.5085 0.3304 0.97803 0.0
C534 C 0.5025 0.28094 0.8521 0.0
O535 O 0.53511 0.28923 0.87823 0.0
C536 C 0.50501 0.33238 0.13427 0.0
O537 O 0.47512 0.34505 0.10209 0.0
O538 O 0.52608 0.40177 0.02913 0.0
O539 O 0.48315 0.40522 0.94689 0.0
H540 H 0.64788 0.45575 0.04388 0.0
H541 H 0.44803 0.2866 0.9792 0.0
O542 O 0.47397 0.3029 0.86208 0.0
H543 H 0.35671 0.39017 0.02639 0.0
H544 H 0.36921 0.35908 0.74598 0.0
H545 H 0.48256 0.42388 0.82324 0.0
H546 H 0.41235 0.40103 0.95274 0.0
H547 H 0.40822 0.33107 0.83653 0.0
O548 O 0.53785 0.33504 0.10747 0.0
H549 H 0.59296 0.42556 0.99361 0.0
H550 H 0.60865 0.32894 0.12027 0.0
H551 H 0.44423 0.45301 0.73296 0.0
H552 H 0.39252 0.27433 0.0525 0.0
H553 H 0.38705 0.42057 0.69383 0.0
H554 H 0.34655 0.32644 0.07684 0.0
O555 O 0.5234 0.36338 0.85051 0.0
H556 H 0.57355 0.21234 0.03554 0.0
H557 H 0.62805 0.33199 0.95313 0.0
H558 H 0.66427 0.27234 0.93905 0.0
H559 H 0.63738 0.21208 0.9817 0.0
H560 H 0.53791 0.27247 0.04713 0.0
H561 H 0.66345 0.35834 0.17252 0.0
H562 H 0.68331 0.42209 0.134 0.0
O563 O 0.57046 0.37132 0.92355 0.0
C564 C 0.50219 0.4202 0.99351 0.0
C565 C 0.63946 0.4279 0.06088 0.0
C566 C 0.64817 0.37323 0.13316 0.0
N567 N 0.59777 0.37542 0.05361 0.0
C568 C 0.60854 0.41056 0.03234 0.0
C569 C 0.61711 0.35676 0.10343 0.0
C570 C 0.65928 0.40906 0.11167 0.0
C571 C 0.42784 0.30924 0.98886 0.0
N572 N 0.4333 0.34442 0.96162 0.0
C573 C 0.39658 0.30219 0.03067 0.0
C574 C 0.37084 0.33146 0.04439 0.0
C575 C 0.37654 0.36724 0.01616 0.0
C576 C 0.40814 0.37325 0.97465 0.0
C577 C 0.39397 0.37355 0.76279 0.0
C578 C 0.45757 0.40972 0.80684 0.0
C579 C 0.41618 0.35782 0.81398 0.0
N580 N 0.44737 0.37604 0.83572 0.0
C581 C 0.43605 0.42629 0.75553 0.0
C582 C 0.404 0.40806 0.73353 0.0
C583 C 0.55718 0.37196 0.86409 0.0
C584 C 0.58566 0.23844 0.01706 0.0
C585 C 0.61582 0.30578 0.97062 0.0
C586 C 0.63655 0.27212 0.96283 0.0
C587 C 0.62142 0.2383 0.98668 0.0
N588 N 0.58099 0.30577 1.00138 0.0
C589 C 0.56568 0.27262 0.02377 0.0
Co590 Co 0.15337 0.47497 0.91208 0.0
Co591 Co 0.14876 0.55139 0.01827 0.0
O592 O 0.17408 0.50613 0.98287 0.0
C593 C 0.2264 0.49867 0.85765 0.0
O594 O 0.21669 0.53132 0.88375 0.0
C595 C 0.17146 0.50518 0.13861 0.0
O596 O 0.16036 0.47456 0.10873 0.0
O597 O 0.1012 0.52344 0.03414 0.0
O598 O 0.10062 0.48111 0.95096 0.0
H599 H 0.0414 0.64528 0.04096 0.0
H600 H 0.21975 0.4451 0.98614 0.0
O601 O 0.20523 0.47023 0.86819 0.0
H602 H 0.11734 0.35585 0.03682 0.0
H603 H 0.15461 0.36437 0.75552 0.0
H604 H 0.08505 0.47932 0.82695 0.0
H605 H 0.10667 0.41047 0.96034 0.0
H606 H 0.17943 0.40418 0.84516 0.0
O607 O 0.1666 0.53753 0.11069 0.0
H608 H 0.07472 0.58934 0.99526 0.0
H609 H 0.16854 0.6088 0.12027 0.0
H610 H 0.05907 0.44022 0.73754 0.0
H611 H 0.23188 0.39052 0.06213 0.0
H612 H 0.0939 0.38223 0.70132 0.0
H613 H 0.18031 0.34564 0.08831 0.0
O614 O 0.1437 0.5198 0.8543 0.0
H615 H 0.28858 0.57301 0.03207 0.0
H616 H 0.16675 0.62546 0.95296 0.0
H617 H 0.22484 0.66186 0.93438 0.0
H618 H 0.28619 0.63596 0.97505 0.0
H619 H 0.22991 0.53726 0.04873 0.0
H620 H 0.13591 0.66475 0.16806 0.0
H621 H 0.07203 0.68335 0.12756 0.0
O622 O 0.13098 0.56676 0.92654 0.0
C623 C 0.08404 0.50015 0.99748 0.0
C624 C 0.06927 0.63745 0.05869 0.0
C625 C 0.12232 0.64833 0.13012 0.0
N626 N 0.12365 0.59594 0.0547 0.0
C627 C 0.08838 0.60591 0.03277 0.0
C628 C 0.14061 0.6166 0.10296 0.0
C629 C 0.08644 0.65874 0.10761 0.0
C630 C 0.19741 0.42532 0.99652 0.0
N631 N 0.16262 0.43084 0.96877 0.0
C632 C 0.20435 0.39461 0.03986 0.0
C633 C 0.17539 0.36947 0.05462 0.0
C634 C 0.14003 0.37521 0.02579 0.0
C635 C 0.13412 0.40624 0.98269 0.0
C636 C 0.13909 0.38948 0.77106 0.0
C637 C 0.10024 0.45398 0.81185 0.0
C638 C 0.15302 0.41213 0.82174 0.0
N639 N 0.13347 0.44376 0.84187 0.0
C640 C 0.08545 0.43202 0.76101 0.0
C641 C 0.10503 0.39952 0.74065 0.0
C642 C 0.1328 0.55337 0.8673 0.0
C643 C 0.26196 0.58471 0.0145 0.0
C644 C 0.19342 0.61371 0.96997 0.0
C645 C 0.2262 0.63454 0.95954 0.0
C646 C 0.26064 0.61996 0.98229 0.0
N647 N 0.19485 0.57936 1.00235 0.0
C648 C 0.2286 0.56467 0.02408 0.0
Co649 Co 0.02337 0.15268 0.9042 0.0
Co650 Co 0.94677 0.15011 0.01397 0.0
O651 O 0.99136 0.17451 0.9753 0.0
C652 C 0.99736 0.22503 0.84794 0.0
O653 O 0.96471 0.2155 0.87467 0.0
C654 C 0.99272 0.17346 0.13105 0.0
O655 O 0.02333 0.16109 0.09972 0.0
O656 O 0.97594 0.10241 0.03017 0.0
O657 O 0.0191 0.10066 0.94598 0.0
H658 H 0.85529 0.04427 0.04623 0.0
H659 H 0.05053 0.22009 0.97421 0.0
O660 O 0.02641 0.20385 0.8581 0.0
H661 H 0.14406 0.11875 0.02346 0.0
H662 H 0.13391 0.15178 0.7416 0.0
H663 H 0.02181 0.08291 0.82291 0.0
H664 H 0.08968 0.10682 0.95087 0.0
H665 H 0.09321 0.17784 0.83231 0.0
O666 O 0.96031 0.16912 0.10521 0.0
H667 H 0.91051 0.0762 0.9961 0.0
H668 H 0.88899 0.17199 0.11813 0.0
H669 H 0.06187 0.0557 0.73256 0.0
H670 H 0.10475 0.23344 0.04637 0.0
H671 H 0.11841 0.0902 0.69134 0.0
H672 H 0.15182 0.18244 0.07175 0.0
O673 O 0.97897 0.14206 0.84897 0.0
H674 H 0.92185 0.29034 0.02351 0.0
H675 H 0.87242 0.16825 0.95121 0.0
H676 H 0.83496 0.2267 0.93122 0.0
H677 H 0.85944 0.28825 0.96815 0.0
H678 H 0.9588 0.2314 0.04102 0.0
H679 H 0.83375 0.14082 0.17023 0.0
H680 H 0.81653 0.07666 0.13354 0.0
O681 O 0.93185 0.13115 0.92347 0.0
C682 C 1.00033 0.08481 0.99384 0.0
C683 C 0.86252 0.07228 0.06233 0.0
C684 C 0.85047 0.12647 0.13202 0.0
N685 N 0.90281 0.12603 0.05379 0.0
C686 C 0.89363 0.0906 0.0339 0.0
C687 C 0.88179 0.14394 0.10241 0.0
C688 C 0.84084 0.09043 0.11162 0.0
C689 C 0.07122 0.19795 0.9843 0.0
N690 N 0.06707 0.16279 0.95826 0.0
C691 C 0.10173 0.2056 0.02547 0.0
C692 C 0.1281 0.17695 0.03978 0.0
C693 C 0.12374 0.14119 0.01275 0.0
C694 C 0.09285 0.13458 0.97185 0.0
C695 C 0.10944 0.13642 0.75932 0.0
C696 C 0.04653 0.09796 0.80565 0.0
C697 C 0.08628 0.15104 0.81061 0.0
N698 N 0.05544 0.1317 0.83345 0.0
C699 C 0.06904 0.08247 0.75429 0.0
C700 C 0.10073 0.10186 0.73113 0.0
C701 C 0.94558 0.13169 0.86365 0.0
C702 C 0.91083 0.26369 0.0073 0.0
C703 C 0.88352 0.19498 0.96664 0.0
C704 C 0.86209 0.22797 0.95544 0.0
C705 C 0.87585 0.26251 0.97615 0.0
N706 N 0.9177 0.19634 0.99763 0.0
C707 C 0.93153 0.23016 0.01747 0.0
Co708 Co 0.85252 0.98077 0.60515 0.0
Co709 Co 0.85492 0.05743 0.49553 0.0
O710 O 0.83065 0.01271 0.53399 0.0
C711 C 0.7799 0.00628 0.661 0.0
O712 O 0.78928 0.03901 0.63443 0.0
C713 C 0.83179 0.01154 0.37821 0.0
O714 O 0.84425 0.98092 0.40941 0.0
O715 O 0.90276 0.02845 0.47938 0.0
O716 O 0.90457 0.98537 0.56369 0.0
H717 H 0.96045 0.14932 0.46374 0.0
H718 H 0.78543 0.95327 0.53462 0.0
O719 O 0.8013 0.97738 0.65093 0.0
H720 H 0.88743 0.8604 0.48567 0.0
H721 H 0.85377 0.87009 0.76744 0.0
H722 H 0.9221 0.98268 0.6869 0.0
H723 H 0.89887 0.91475 0.55859 0.0
H724 H 0.82766 0.91071 0.67669 0.0
O725 O 0.83603 0.04392 0.4042 0.0
H726 H 0.92867 0.09396 0.51369 0.0
H727 H 0.83289 0.11523 0.39151 0.0
H728 H 0.94937 0.9427 0.7773 0.0
H729 H 0.77258 0.89906 0.46211 0.0
H730 H 0.91515 0.88591 0.81814 0.0
H731 H 0.82391 0.85233 0.43687 0.0
O732 O 0.86277 0.0252 0.66057 0.0
H733 H 0.71456 0.08165 0.4863 0.0
H734 H 0.83644 0.13167 0.55842 0.0
H735 H 0.77782 0.16879 0.57872 0.0
H736 H 0.71636 0.144 0.54193 0.0
H737 H 0.77369 0.04507 0.46837 0.0
H738 H 0.86392 0.17061 0.33957 0.0
H739 H 0.92799 0.18801 0.3764 0.0
O740 O 0.87373 0.07234 0.58612 0.0
C741 C 0.92042 0.00417 0.51586 0.0
C742 C 0.93247 0.14201 0.44757 0.0
C743 C 0.87829 0.15392 0.37779 0.0
N744 N 0.87886 0.10152 0.45591 0.0
C745 C 0.91424 0.11082 0.4759 0.0
C746 C 0.8609 0.12252 0.40731 0.0
C747 C 0.91429 0.16365 0.39827 0.0
C748 C 0.80771 0.93272 0.5246 0.0
N749 N 0.84279 0.93705 0.5509 0.0
C750 C 0.80035 0.90222 0.48323 0.0
C751 C 0.82918 0.87604 0.469 0.0
C752 C 0.86484 0.88058 0.49631 0.0
C753 C 0.87118 0.91145 0.5374 0.0
C754 C 0.86902 0.89467 0.74989 0.0
C755 C 0.90718 0.95785 0.70399 0.0
C756 C 0.85436 0.91778 0.69857 0.0
N757 N 0.87355 0.94877 0.67595 0.0
C758 C 0.9227 0.9354 0.75538 0.0
C759 C 0.90346 0.90356 0.77833 0.0
C760 C 0.87309 0.05862 0.64596 0.0
C761 C 0.74117 0.09281 0.50243 0.0
C762 C 0.80976 0.12045 0.54299 0.0
C763 C 0.77667 0.14168 0.55438 0.0
C764 C 0.74219 0.12775 0.53374 0.0
N765 N 0.80856 0.0863 0.51186 0.0
C766 C 0.7748 0.07232 0.49202 0.0
Co767 Co 0.52856 0.8503 0.59497 0.0
Co768 Co 0.4517 0.85536 0.48993 0.0
O769 O 0.49692 0.82974 0.52477 0.0
C770 C 0.50461 0.77747 0.64993 0.0
O771 O 0.47188 0.78744 0.62436 0.0
C772 C 0.49725 0.83233 0.36918 0.0
O773 O 0.52796 0.84371 0.39846 0.0
O774 O 0.47998 0.90263 0.4733 0.0
O775 O 0.52258 0.90308 0.55605 0.0
H776 H 0.35847 0.96335 0.46859 0.0
H777 H 0.55762 0.78369 0.52062 0.0
O778 O 0.53316 0.79845 0.63894 0.0
H779 H 0.64722 0.88552 0.468 0.0
H780 H 0.63998 0.84846 0.74972 0.0
H781 H 0.52509 0.9187 0.67997 0.0
H782 H 0.59313 0.89655 0.54552 0.0
H783 H 0.59953 0.82383 0.6608 0.0
O784 O 0.465 0.8372 0.39747 0.0
H785 H 0.41452 0.92972 0.51316 0.0
H786 H 0.3936 0.83594 0.38889 0.0
H787 H 0.56483 0.94448 0.76866 0.0
H788 H 0.61167 0.7712 0.44361 0.0
H789 H 0.62279 0.90931 0.80402 0.0
H790 H 0.65672 0.82247 0.41645 0.0
O791 O 0.48409 0.86032 0.65339 0.0
H792 H 0.42887 0.71569 0.47768 0.0
H793 H 0.37777 0.83813 0.55649 0.0
H794 H 0.34104 0.78037 0.5763 0.0
H795 H 0.36627 0.71871 0.53588 0.0
H796 H 0.46497 0.77405 0.45979 0.0
H797 H 0.33751 0.86889 0.34223 0.0
H798 H 0.31955 0.93287 0.38309 0.0
O799 O 0.43693 0.87344 0.58176 0.0
C800 C 0.50348 0.9197 0.50964 0.0
C801 C 0.36601 0.93542 0.45076 0.0
C802 C 0.3543 0.8824 0.37974 0.0
N803 N 0.40718 0.88078 0.45405 0.0
C804 C 0.3976 0.91614 0.47604 0.0
C805 C 0.3861 0.86393 0.40625 0.0
C806 C 0.34426 0.91834 0.40241 0.0
C807 C 0.57748 0.8059 0.50983 0.0
N808 N 0.57235 0.84073 0.5376 0.0
C809 C 0.60789 0.79876 0.46591 0.0
C810 C 0.63312 0.82756 0.45061 0.0
C811 C 0.62779 0.86295 0.47947 0.0
C812 C 0.59706 0.86907 0.52316 0.0
C813 C 0.61488 0.86412 0.73455 0.0
C814 C 0.55041 0.90336 0.69469 0.0
C815 C 0.59188 0.85031 0.68427 0.0
N816 N 0.56027 0.87005 0.66461 0.0
C817 C 0.57273 0.91804 0.74513 0.0
C818 C 0.60522 0.89827 0.76501 0.0
C819 C 0.45056 0.87153 0.64081 0.0
C820 C 0.41747 0.74244 0.49518 0.0
C821 C 0.38923 0.81132 0.53953 0.0
C822 C 0.36821 0.77873 0.55067 0.0
C823 C 0.38241 0.74412 0.52804 0.0
N824 N 0.4234 0.80954 0.50659 0.0
C825 C 0.4377 0.77563 0.4849 0.0
Co826 Co 0.65017 0.52528 0.60044 0.0
Co827 Co 0.65073 0.44985 0.49174 0.0
O828 O 0.67343 0.49477 0.52906 0.0
C829 C 0.72275 0.50052 0.65528 0.0
O830 O 0.71443 0.46795 0.62904 0.0
C831 C 0.67146 0.49847 0.37282 0.0
O832 O 0.65878 0.52832 0.40512 0.0
O833 O 0.60207 0.47733 0.47779 0.0
O834 O 0.59863 0.52025 0.56003 0.0
H835 H 0.54796 0.35564 0.46239 0.0
H836 H 0.71736 0.55515 0.52823 0.0
O837 O 0.70089 0.52911 0.6452 0.0
H838 H 0.61404 0.64673 0.48096 0.0
H839 H 0.64479 0.6339 0.76143 0.0
H840 H 0.57985 0.52075 0.68362 0.0
H841 H 0.60298 0.59104 0.5544 0.0
H842 H 0.67282 0.59491 0.67086 0.0
O843 O 0.66881 0.4656 0.3995 0.0
H844 H 0.5782 0.41043 0.51301 0.0
H845 H 0.67487 0.39482 0.38646 0.0
H846 H 0.5507 0.55906 0.77391 0.0
H847 H 0.72983 0.61071 0.45515 0.0
H848 H 0.58321 0.61614 0.81331 0.0
H849 H 0.67785 0.65682 0.43079 0.0
O850 O 0.64028 0.47983 0.65641 0.0
H851 H 0.79145 0.42968 0.47139 0.0
H852 H 0.67174 0.37523 0.5536 0.0
H853 H 0.73136 0.33897 0.5677 0.0
H854 H 0.79165 0.36584 0.52518 0.0
H855 H 0.73135 0.46539 0.45985 0.0
H856 H 0.64543 0.34014 0.33388 0.0
H857 H 0.58164 0.32031 0.37216 0.0
O858 O 0.63241 0.4328 0.58326 0.0
C859 C 0.58365 0.50124 0.51338 0.0
C860 C 0.57584 0.36405 0.44549 0.0
C861 C 0.63054 0.35538 0.37328 0.0
N862 N 0.62837 0.40565 0.45307 0.0
C863 C 0.5932 0.39489 0.47423 0.0
C864 C 0.64704 0.38636 0.40321 0.0
C865 C 0.59468 0.34428 0.39463 0.0
C866 C 0.69478 0.5754 0.51855 0.0
N867 N 0.65955 0.56998 0.54565 0.0
C868 C 0.70193 0.60668 0.47687 0.0
C869 C 0.67274 0.6325 0.46313 0.0
C870 C 0.63691 0.62684 0.49121 0.0
C871 C 0.63079 0.59522 0.5326 0.0
C872 C 0.63029 0.60918 0.7445 0.0
C873 C 0.59405 0.5457 0.70013 0.0
C874 C 0.64604 0.58698 0.6933 0.0
N875 N 0.62777 0.55586 0.6714 0.0
C876 C 0.57746 0.56721 0.75145 0.0
C877 C 0.59573 0.5992 0.7736 0.0
C878 C 0.63169 0.44606 0.64273 0.0
C879 C 0.76533 0.41758 0.48984 0.0
C880 C 0.69796 0.38746 0.53616 0.0
C881 C 0.73161 0.36669 0.54396 0.0
C882 C 0.76544 0.38181 0.52018 0.0
N883 N 0.698 0.4223 0.50548 0.0
C884 C 0.73117 0.4376 0.48315 0.0
Co885 Co 0.98187 0.65218 0.60747 0.0
Co886 Co 0.05827 0.64856 0.49699 0.0
O887 O 0.0136 0.67386 0.53571 0.0
C888 C 0.00859 0.7228 0.66382 0.0
O889 O 0.04112 0.71255 0.63658 0.0
C890 C 0.01118 0.67209 0.37988 0.0
O891 O 0.98098 0.66045 0.41268 0.0
O892 O 0.02977 0.60165 0.48313 0.0
O893 O 0.98555 0.60045 0.56554 0.0
H894 H 0.14997 0.54015 0.46597 0.0
H895 H 0.95487 0.72177 0.53747 0.0
O896 O 0.97943 0.70291 0.65373 0.0
H897 H 0.8599 0.62548 0.4917 0.0
H898 H 0.87267 0.65352 0.77295 0.0
H899 H 0.98345 0.58098 0.6887 0.0
H900 H 0.91484 0.60997 0.56273 0.0
H901 H 0.91275 0.6792 0.68096 0.0
O902 O 0.0438 0.66786 0.40559 0.0
H903 H 0.0953 0.57368 0.51698 0.0
H904 H 0.11504 0.6694 0.39059 0.0
H905 H 0.94397 0.55411 0.78028 0.0
H906 H 0.90016 0.73867 0.46672 0.0
H907 H 0.88811 0.59049 0.82301 0.0
H908 H 0.85232 0.69024 0.44319 0.0
O909 O 0.02645 0.63894 0.66176 0.0
H910 H 0.08096 0.78834 0.4814 0.0
H911 H 0.13303 0.66482 0.5566 0.0
H912 H 0.1699 0.72238 0.57288 0.0
H913 H 0.14409 0.78464 0.53442 0.0
H914 H 0.04471 0.7302 0.46727 0.0
H915 H 0.16975 0.63662 0.33756 0.0
H916 H 0.18754 0.57171 0.37618 0.0
O917 O 0.0741 0.62909 0.58759 0.0
C918 C 0.00483 0.58453 0.51836 0.0
C919 C 0.14247 0.5685 0.44911 0.0
C920 C 0.15353 0.62265 0.37695 0.0
N921 N 0.10219 0.62357 0.4572 0.0
C922 C 0.11171 0.58773 0.47808 0.0
C923 C 0.12256 0.64105 0.40713 0.0
C924 C 0.16346 0.58617 0.39832 0.0
C925 C 0.9339 0.70073 0.52806 0.0
N926 N 0.9379 0.66501 0.5543 0.0
C927 C 0.90309 0.71039 0.48773 0.0
C928 C 0.8763 0.68318 0.47445 0.0
C929 C 0.88055 0.64682 0.50161 0.0
C930 C 0.91174 0.63818 0.54164 0.0
C931 C 0.89684 0.63735 0.75456 0.0
C932 C 0.959 0.59683 0.70658 0.0
C933 C 0.91965 0.65175 0.70255 0.0
N934 N 0.95014 0.63141 0.67894 0.0
C935 C 0.93683 0.58153 0.75864 0.0
C936 C 0.90552 0.60197 0.78265 0.0
C937 C 0.0602 0.62879 0.64719 0.0
C938 C 0.09256 0.76137 0.49819 0.0
C939 C 0.12137 0.69187 0.54051 0.0
C940 C 0.14245 0.72435 0.54962 0.0
C941 C 0.12795 0.75928 0.52806 0.0
N942 N 0.08682 0.6941 0.51065 0.0
C943 C 0.07224 0.72831 0.49002 0.0
C944 C 0.56816 0.12916 0.2449 0.0
C945 C 0.57717 0.11907 0.31153 0.0
H946 H 0.57816 0.11872 0.14036 0.0
C947 C 0.60664 0.09287 0.32347 0.0
H948 H 0.54585 0.14968 0.23429 0.0
C949 C 0.62474 0.07486 0.2698 0.0
C950 C 0.61411 0.08325 0.20332 0.0
H951 H 0.61436 0.08471 0.37424 0.0
H952 H 0.64618 0.05342 0.28044 0.0
C953 C 0.58674 0.1116 0.19114 0.0
C954 C 0.41125 0.60991 0.31963 0.0
C955 C 0.38526 0.58133 0.308 0.0
H956 H 0.4509 0.64844 0.27597 0.0
C957 C 0.37562 0.57317 0.24143 0.0
H958 H 0.41914 0.61688 0.37034 0.0
C959 C 0.39338 0.59163 0.18738 0.0
C960 C 0.42158 0.61802 0.19903 0.0
H961 H 0.35532 0.55152 0.23105 0.0
H962 H 0.3866 0.58357 0.13667 0.0
C963 C 0.42953 0.62785 0.26559 0.0
C964 C 0.91183 0.39806 0.18475 0.0
C965 C 0.88526 0.42726 0.19633 0.0
H966 H 0.95154 0.35899 0.22832 0.0
C967 C 0.87491 0.43629 0.26283 0.0
H968 H 0.9202 0.39035 0.13408 0.0
C969 C 0.89251 0.41799 0.31683 0.0
C970 C 0.92116 0.39087 0.30503 0.0
H971 H 0.85412 0.4584 0.27314 0.0
H972 H 0.88514 0.42656 0.36751 0.0
C973 C 0.92987 0.38024 0.23867 0.0
C974 C 0.07261 0.87719 0.26843 0.0
C975 C 0.08159 0.88742 0.20149 0.0
H976 H 0.082 0.88692 0.37281 0.0
C977 C 0.11019 0.91368 0.18888 0.0
H978 H 0.05094 0.85669 0.27963 0.0
C979 C 0.12759 0.93134 0.24226 0.0
C980 C 0.11719 0.92256 0.30919 0.0
H981 H 0.1178 0.92204 0.13788 0.0
H982 H 0.14842 0.95271 0.23106 0.0
C983 C 0.0905 0.89436 0.32182 0.0
C984 C 0.38017 0.92983 0.74017 0.0
C985 C 0.3909 0.92108 0.80645 0.0
H986 H 0.3902 0.92034 0.63551 0.0
C987 C 0.4182 0.89256 0.81804 0.0
H988 H 0.35878 0.95139 0.72998 0.0
C989 C 0.43654 0.87514 0.76391 0.0
C990 C 0.42737 0.88552 0.69749 0.0
H991 H 0.42685 0.88517 0.86867 0.0
H992 H 0.45876 0.85444 0.77406 0.0
C993 C 0.39803 0.91195 0.68612 0.0
C994 C 0.59131 0.39394 0.68728 0.0
C995 C 0.61766 0.42221 0.69884 0.0
H996 H 0.5513 0.35583 0.73105 0.0
C997 C 0.62747 0.43023 0.76538 0.0
H998 H 0.58327 0.3871 0.63658 0.0
C999 C 0.60959 0.41195 0.81946 0.0
C1000 C 0.58107 0.38587 0.80791 0.0
H1001 H 0.64803 0.45164 0.7757 0.0
H1002 H 0.61656 0.41989 0.87015 0.0
C1003 C 0.5729 0.37618 0.74137 0.0
C1004 C 0.07508 0.6247 0.76898 0.0
C1005 C 0.08346 0.61399 0.70256 0.0
H1006 H 0.0848 0.61435 0.87347 0.0
C1007 C 0.11166 0.58645 0.69049 0.0
H1008 H 0.05376 0.64627 0.77953 0.0
C1009 C 0.12908 0.56781 0.74433 0.0
C1010 C 0.119 0.57692 0.81092 0.0
H1011 H 0.11876 0.5778 0.63974 0.0
H1012 H 0.14949 0.54538 0.73382 0.0
C1013 C 0.09295 0.60654 0.82274 0.0
C1014 C 0.93137 0.12756 0.74131 0.0
C1015 C 0.92274 0.11734 0.80838 0.0
H1016 H 0.9218 0.11751 0.63712 0.0
C1017 C 0.89449 0.09076 0.82145 0.0
H1018 H 0.95277 0.1483 0.72976 0.0
C1019 C 0.87715 0.07277 0.76837 0.0
C1020 C 0.88725 0.08153 0.70129 0.0
H1021 H 0.88716 0.0824 0.87257 0.0
H1022 H 0.85663 0.05116 0.77991 0.0
C1023 C 0.91354 0.11006 0.68823 0.0
C1024 C 0.70304 0.04016 0.78029 0.0
C1025 C 0.69476 0.00735 0.81787 0.0
H1026 H 0.73631 0.06547 0.70241 0.0
C1027 C 0.71192 0.97284 0.79886 0.0
H1028 H 0.69018 0.06719 0.79309 0.0
C1029 C 0.73853 0.97176 0.74567 0.0
C1030 C 0.7482 0.00515 0.71063 0.0
H1031 H 0.70619 0.94706 0.82699 0.0
H1032 H 0.75252 0.94515 0.7338 0.0
C1033 C 0.72948 0.0391 0.72777 0.0
C1034 C 0.53859 0.73634 0.73614 0.0
C1035 C 0.50571 0.74599 0.70022 0.0
H1036 H 0.56231 0.70471 0.81911 0.0
C1037 C 0.4719 0.72772 0.71752 0.0
H1038 H 0.56507 0.74997 0.72423 0.0
C1039 C 0.47032 0.70202 0.7712 0.0
C1040 C 0.50248 0.69387 0.80966 0.0
H1041 H 0.44592 0.73463 0.69164 0.0
H1042 H 0.44332 0.68966 0.78419 0.0
C1043 C 0.53701 0.71037 0.79036 0.0
C1044 C 0.79217 0.53492 0.78492 0.0
C1045 C 0.80817 0.50037 0.80766 0.0
H1046 H 0.75242 0.56234 0.71841 0.0
C1047 C 0.79793 0.4669 0.77607 0.0
H1048 H 0.7993 0.56121 0.80849 0.0
C1049 C 0.77107 0.46754 0.72562 0.0
C1050 C 0.75399 0.50169 0.70416 0.0
H1051 H 0.80964 0.43977 0.79196 0.0
H1052 H 0.7628 0.4408 0.70506 0.0
C1053 C 0.76521 0.53556 0.73359 0.0
C1054 C 0.97538 0.79322 0.7969 0.0
C1055 C 0.01008 0.80795 0.81726 0.0
H1056 H 0.94741 0.75463 0.73223 0.0
C1057 C 0.04329 0.79654 0.78308 0.0
H1058 H 0.94925 0.80128 0.82239 0.0
C1059 C 0.04222 0.76992 0.73215 0.0
C1060 C 0.0079 0.75402 0.71318 0.0
H1061 H 0.07052 0.80727 0.79705 0.0
H1062 H 0.06877 0.76095 0.7091 0.0
C1063 C 0.97431 0.7664 0.74541 0.0
C1064 C 0.20828 0.96089 0.72766 0.0
C1065 C 0.19706 0.99408 0.69321 0.0
H1066 H 0.24367 0.93541 0.80193 0.0
C1067 C 0.21192 0.02876 0.7134 0.0
H1068 H 0.19743 0.93369 0.71383 0.0
C1069 C 0.23869 0.02981 0.76497 0.0
C1070 C 0.2509 0.99623 0.79745 0.0
H1071 H 0.20401 0.05487 0.6877 0.0
H1072 H 0.25058 0.05668 0.77799 0.0
C1073 C 0.23484 0.96195 0.77868 0.0
C1074 C 0.46802 0.21177 0.72209 0.0
C1075 C 0.50252 0.19546 0.69987 0.0
H1076 H 0.44067 0.2518 0.78816 0.0
C1077 C 0.53592 0.2053 0.73209 0.0
H1078 H 0.44178 0.20494 0.69804 0.0
C1079 C 0.5353 0.23215 0.78255 0.0
C1080 C 0.50122 0.24962 0.8034 0.0
H1081 H 0.56302 0.19332 0.71663 0.0
H1082 H 0.56202 0.24017 0.80351 0.0
C1083 C 0.46738 0.23872 0.77344 0.0
C1084 C 0.29361 0.46617 0.71743 0.0
C1085 C 0.30997 0.50071 0.69783 0.0
H1086 H 0.25413 0.43811 0.78381 0.0
C1087 C 0.30164 0.53297 0.73595 0.0
H1088 H 0.29941 0.4408 0.68894 0.0
C1089 C 0.27592 0.53143 0.7896 0.0
C1090 C 0.25784 0.49758 0.80725 0.0
H1091 H 0.31387 0.55998 0.72272 0.0
H1092 H 0.26884 0.55747 0.81516 0.0
C1093 C 0.26763 0.46463 0.77164 0.0
C1094 C 0.03051 0.2936 0.71073 0.0
C1095 C 0.99585 0.31023 0.69111 0.0
H1096 H 0.05844 0.2534 0.77626 0.0
C1097 C 0.96294 0.30129 0.72788 0.0
H1098 H 0.05637 0.29983 0.68322 0.0
C1099 C 0.9641 0.27478 0.78028 0.0
C1100 C 0.99824 0.25666 0.79816 0.0
H1101 H 0.9358 0.31371 0.71459 0.0
H1102 H 0.93769 0.26748 0.80505 0.0
C1103 C 0.03168 0.26693 0.76382 0.0
C1104 C 0.27447 0.96322 0.28174 0.0
C1105 C 0.25657 0.99742 0.29993 0.0
H1106 H 0.31322 0.93487 0.2158 0.0
C1107 C 0.267 0.03088 0.26583 0.0
H1108 H 0.26705 0.9368 0.30634 0.0
C1109 C 0.29363 0.02968 0.21269 0.0
C1110 C 0.31008 0.99499 0.19279 0.0
H1111 H 0.25362 0.05767 0.2785 0.0
H1112 H 0.30001 0.05557 0.18538 0.0
C1113 C 0.30096 0.96205 0.22931 0.0
C1114 C 0.53184 0.27596 0.28932 0.0
C1115 C 0.49794 0.25803 0.30722 0.0
H1116 H 0.5604 0.31381 0.22229 0.0
C1117 C 0.46495 0.26797 0.27185 0.0
H1118 H 0.55791 0.26875 0.31467 0.0
C1119 C 0.46647 0.29398 0.21768 0.0
C1120 C 0.50104 0.3102 0.19786 0.0
H1121 H 0.43839 0.2546 0.28422 0.0
H1122 H 0.44105 0.29991 0.1894 0.0
C1123 C 0.53336 0.3017 0.2357 0.0
C1124 C 0.23212 0.5355 0.28177 0.0
C1125 C 0.24929 0.50137 0.30311 0.0
H1126 H 0.19352 0.56326 0.21552 0.0
C1127 C 0.23814 0.4675 0.27356 0.0
H1128 H 0.24036 0.56224 0.30237 0.0
C1129 C 0.2112 0.46814 0.22221 0.0
C1130 C 0.19514 0.50268 0.19957 0.0
H1131 H 0.25099 0.44074 0.28866 0.0
H1132 H 0.20414 0.44186 0.19851 0.0
C1133 C 0.20527 0.53613 0.23133 0.0
C1134 C 0.96232 0.20783 0.22707 0.0
C1135 C 0.99543 0.19729 0.19172 0.0
H1136 H 0.93677 0.24269 0.30208 0.0
C1137 C 0.02998 0.21275 0.21113 0.0
H1138 H 0.93522 0.19648 0.21388 0.0
C1139 C 0.03093 0.23951 0.26273 0.0
C1140 C 0.99739 0.2511 0.29601 0.0
H1141 H 0.05602 0.20536 0.18474 0.0
H1142 H 0.05767 0.25191 0.27507 0.0
C1143 C 0.96328 0.23437 0.27815 0.0
C1144 C 0.77058 0.04102 0.23154 0.0
C1145 C 0.75407 0.00685 0.21336 0.0
H1146 H 0.80832 0.06913 0.29599 0.0
C1147 C 0.76589 0.97329 0.24633 0.0
H1148 H 0.76205 0.06754 0.2079 0.0
C1149 C 0.79268 0.97426 0.29788 0.0
C1150 C 0.80793 0.00885 0.31757 0.0
H1151 H 0.75366 0.9465 0.23374 0.0
H1152 H 0.80026 0.94819 0.324 0.0
C1153 C 0.79715 0.042 0.28256 0.0
C1154 C 0.5342 0.79277 0.28521 0.0
C1155 C 0.49961 0.80845 0.30847 0.0
H1156 H 0.56167 0.75329 0.21826 0.0
C1157 C 0.46609 0.79783 0.2775 0.0
H1158 H 0.56053 0.8002 0.30831 0.0
C1159 C 0.46673 0.77094 0.22709 0.0
C1160 C 0.50095 0.75424 0.20503 0.0
H1161 H 0.43891 0.80927 0.29381 0.0
H1162 H 0.43997 0.76241 0.20695 0.0
C1163 C 0.53485 0.7658 0.23391 0.0
C1164 C 0.70199 0.47028 0.27111 0.0
C1165 C 0.69361 0.50253 0.30921 0.0
H1166 H 0.7348 0.44582 0.19189 0.0
C1167 C 0.70991 0.53709 0.28961 0.0
H1168 H 0.68979 0.44325 0.28434 0.0
C1169 C 0.73591 0.53866 0.23542 0.0
C1170 C 0.74575 0.50573 0.19982 0.0
H1171 H 0.70407 0.56246 0.31809 0.0
H1172 H 0.74937 0.5652 0.22325 0.0
C1173 C 0.72771 0.47185 0.21746 0.0
C1174 C 0.97221 0.73884 0.2451 0.0
C1175 C 0.00559 0.74848 0.20997 0.0
H1176 H 0.94755 0.70655 0.32651 0.0
C1177 C 0.03954 0.72972 0.22704 0.0
H1178 H 0.94561 0.75287 0.23329 0.0
C1179 C 0.04062 0.7033 0.27957 0.0
C1180 C 0.00783 0.69506 0.31723 0.0
H1181 H 0.06589 0.73651 0.20158 0.0
H1182 H 0.06764 0.69041 0.2923 0.0
C1183 C 0.97331 0.71225 0.29831 0.0
C1184 C 0.48411 0.02498 0.95801 0.0
C1185 C 0.46217 0.00212 1.00123 0.0
H1186 H 0.53937 0.04304 0.92849 0.0
C1187 C 0.48102 0.97905 0.04909 0.0
H1188 H 0.47085 0.04281 0.92005 0.0
C1189 C 0.52053 0.97879 0.05349 0.0
C1190 C 0.54248 1.00163 0.01023 0.0
H1191 H 0.46529 0.96072 0.08299 0.0
H1192 H 0.53379 0.96095 0.09144 0.0
C1193 C 0.52364 0.02472 0.9624 0.0
C1194 C 0.47835 0.48477 0.95739 0.0
C1195 C 0.50019 0.46203 1.00118 0.0
H1196 H 0.4622 0.54066 0.92558 0.0
C1197 C 0.52342 0.47999 0.04755 0.0
H1198 H 0.46042 0.47213 0.92054 0.0
C1199 C 0.52483 0.51948 0.04994 0.0
C1200 C 0.50298 0.54221 0.00616 0.0
H1201 H 0.54099 0.46358 0.08174 0.0
H1202 H 0.54275 0.53212 0.0868 0.0
C1203 C 0.47977 0.52425 0.95978 0.0
C1204 C 0.98122 0.48114 0.95766 0.0
C1205 C 0.9615 0.50468 1.00334 0.0
H1206 H 0.03477 0.46027 0.92121 0.0
C1207 C 0.98265 0.52554 0.0488 0.0
H1208 H 0.9661 0.46428 0.92224 0.0
C1209 C 0.02222 0.52283 0.04875 0.0
C1210 C 0.04193 0.49927 1.0031 0.0
H1211 H 0.96866 0.54368 0.08523 0.0
H1212 H 0.03734 0.53969 0.08417 0.0
C1213 C 0.02079 0.47842 0.95763 0.0
C1214 C 0.02617 0.02125 0.95802 0.0
C1215 C 0.0032 0.04287 1.00187 0.0
H1216 H 0.04399 0.96616 0.92626 0.0
C1217 C 0.9797 0.02367 0.04837 0.0
H1218 H 0.04438 0.03485 0.92106 0.0
C1219 C 0.97909 0.9841 0.05078 0.0
C1220 C 0.00204 0.96248 0.00693 0.0
H1221 H 0.96129 0.03917 0.08258 0.0
H1222 H 0.96086 0.97051 0.08772 0.0
C1223 C 0.02557 0.98167 0.96045 0.0
C1224 C 0.02351 0.97911 0.54982 0.0
C1225 C 0.04277 0.00257 0.50335 0.0
H1226 H 0.9703 0.96029 0.589 0.0
C1227 C 0.02121 0.02552 0.45938 0.0
H1228 H 0.03897 0.96071 0.58413 0.0
C1229 C 0.98163 0.02491 0.46164 0.0
C1230 C 0.96237 1.00141 0.50807 0.0
H1231 H 0.03485 0.0437 0.42243 0.0
H1232 H 0.96616 0.0433 0.42733 0.0
C1233 C 0.98394 0.97849 0.55207 0.0
C1234 C 0.52547 0.98293 0.54921 0.0
C1235 C 0.50452 0.9618 0.50386 0.0
H1236 H 0.53974 0.03762 0.58445 0.0
C1237 C 0.48096 0.98154 0.45823 0.0
H1238 H 0.54363 0.96894 0.58559 0.0
C1239 C 0.47831 0.02111 0.45814 0.0
C1240 C 0.49924 0.04224 0.50351 0.0
H1241 H 0.46403 0.96643 0.4229 0.0
H1242 H 0.46014 0.03511 0.42176 0.0
C1243 C 0.52282 0.02251 0.54911 0.0
C1244 C 0.51908 0.52506 0.5495 0.0
C1245 C 0.54182 0.50324 0.50569 0.0
H1246 H 0.46317 0.54113 0.5814 0.0
C1247 C 0.52387 0.47999 0.45934 0.0
H1248 H 0.53171 0.543 0.58634 0.0
C1249 C 0.48439 0.47852 0.45703 0.0
C1250 C 0.46164 0.50033 0.50085 0.0
H1251 H 0.54029 0.46245 0.42513 0.0
H1252 H 0.47176 0.46057 0.4202 0.0
C1253 C 0.47959 0.52359 0.54718 0.0
C1254 C 0.02474 0.52411 0.46089 0.0
C1255 C 1.00168 0.5429 0.50886 0.0
H1256 H 0.04284 0.4714 0.41831 0.0
C1257 C 0.97884 0.52089 0.55202 0.0
H1258 H 0.04305 0.53988 0.42703 0.0
C1259 C 0.9791 0.48137 0.54744 0.0
C1260 C 0.00217 0.46259 0.4995 0.0
H1261 H 0.96102 0.5341 0.59006 0.0
H1262 H 0.96079 0.46559 0.58129 0.0
C1263 C 0.02501 0.4846 0.45634 0.0
loop_
_geom_bond_atom_site_label_1
_geom_bond_atom_site_label_2
_geom_bond_distance
_geom_bond_site_symmetry_2
_ccdc_geom_bond_type
Co0 O2 2.143 . S
Co0 O8 2.074 . S
Co0 O11 2.093 . S
Co0 O24 2.097 1_565 S
Co0 N41 2.151 . S
Co0 N49 2.214 . S
Co1 O2 2.160 1_545 S
Co1 O7 2.058 1_545 S
Co1 O17 2.057 1_554 S
Co1 O32 2.037 . S
Co1 N36 2.145 1_554 S
Co1 N57 2.257 . S
O2 Co0 2.143 . S
O2 Co1 2.160 1_565 S
C3 O4 1.278 1_565 S
C3 O11 1.224 . S
O4 C3 1.278 1_545 S
C5 O6 1.219 1_546 S
C5 O17 1.256 . S
O6 C5 1.219 1_564 S
O7 Co1 2.058 1_565 S
O7 C33 1.269 . S
O8 Co0 2.074 . S
O8 C33 1.257 . S
H9 C34 0.930 . S
H10 C40 0.930 . S
O11 Co0 2.093 . S
O11 C3 1.224 . S
H12 C44 0.929 . S
H13 C46 0.930 . S
H14 C47 0.930 . S
H15 C45 0.929 . S
H16 C48 0.928 . S
O17 Co1 2.057 1_556 S
O17 C5 1.256 . S
H18 C37 0.929 1_554 S
H19 C38 0.929 . S
H20 C50 0.931 . S
H21 C42 0.929 . S
H22 C51 0.930 . S
H23 C43 0.931 . S
O24 Co0 2.097 1_545 S
O24 C52 1.214 . S
H25 C53 0.929 . S
H26 C54 0.929 . S
H27 C55 0.930 . S
H28 C56 0.929 . S
H29 C58 0.930 . S
H30 C35 0.930 . S
H31 C39 0.930 . S
O32 Co1 2.037 . S
O32 C52 1.234 . S
C33 O7 1.269 . S
C33 O8 1.257 . S
C34 H9 0.930 . S
C34 C37 1.388 . S
C34 C39 1.418 . S
C35 H30 0.930 . S
C35 C38 1.404 . S
C35 C39 1.353 . S
N36 Co1 2.145 1_556 S
N36 C37 1.397 . S
N36 C38 1.334 . S
C37 H18 0.929 1_556 S
C37 C34 1.388 . S
C37 N36 1.397 . S
C38 H19 0.929 . S
C38 C35 1.404 . S
C38 N36 1.334 . S
C39 H31 0.930 . S
C39 C34 1.418 . S
C39 C35 1.353 . S
C40 H10 0.930 . S
C40 N41 1.330 . S
C40 C42 1.446 . S
N41 Co0 2.151 . S
N41 C40 1.330 . S
N41 C45 1.418 . S
C42 H21 0.929 . S
C42 C40 1.446 . S
C42 C43 1.332 . S
C43 H23 0.931 . S
C43 C42 1.332 . S
C43 C44 1.267 . S
C44 H12 0.929 . S
C44 C43 1.267 . S
C44 C45 1.251 . S
C45 H15 0.929 . S
C45 N41 1.418 . S
C45 C44 1.251 . S
C46 H13 0.930 . S
C46 C48 1.406 . S
C46 C51 1.261 . S
C47 H14 0.930 . S
C47 N49 1.325 . S
C47 C50 1.357 . S
C48 H16 0.928 . S
C48 C46 1.406 . S
C48 N49 1.261 . S
N49 Co0 2.214 . S
N49 C47 1.325 . S
N49 C48 1.261 . S
C50 H20 0.931 . S
C50 C47 1.357 . S
C50 C51 1.312 . S
C51 H22 0.930 . S
C51 C46 1.261 . S
C51 C50 1.312 . S
C52 O24 1.214 . S
C52 O32 1.234 . S
C53 H25 0.929 . S
C53 C56 1.391 . S
C53 C58 1.391 . S
C54 H26 0.929 . S
C54 C55 1.390 . S
C54 N57 1.391 . S
C55 H27 0.930 . S
C55 C54 1.390 . S
C55 C56 1.392 . S
C56 H28 0.929 . S
C56 C53 1.391 . S
C56 C55 1.392 . S
N57 Co1 2.257 . S
N57 C54 1.391 . S
N57 C58 1.388 . S
C58 H29 0.930 . S
C58 C53 1.391 . S
C58 N57 1.388 . S
Co59 O61 2.143 . S
Co59 O67 2.074 . S
Co59 O70 2.093 . S
Co59 O83 2.097 . S
Co59 N100 2.151 . S
Co59 N108 2.214 . S
Co60 O61 2.160 . S
Co60 O66 2.058 . S
Co60 O76 2.057 1_554 S
Co60 O91 2.037 . S
Co60 N95 2.145 1_554 S
Co60 N116 2.257 . S
O61 Co59 2.143 . S
O61 Co60 2.160 . S
C62 O63 1.278 . S
C62 O70 1.224 . S
O63 C62 1.278 . S
C64 O65 1.245 1_556 S
C64 O76 1.232 . S
O65 C64 1.245 1_554 S
O66 Co60 2.058 . S
O66 C92 1.269 . S
O67 Co59 2.074 . S
O67 C92 1.257 . S
H68 C93 0.930 . S
H69 C99 0.930 . S
O70 Co59 2.093 . S
O70 C62 1.224 . S
H71 C103 0.929 . S
H72 C105 0.930 . S
H73 C106 0.930 . S
H74 C104 0.929 . S
H75 C107 0.928 . S
O76 Co60 2.057 1_556 S
O76 C64 1.232 . S
H77 C96 0.929 . S
H78 C97 0.929 . S
H79 C109 0.931 . S
H80 C101 0.929 . S
H81 C110 0.930 . S
H82 C102 0.931 . S
O83 Co59 2.097 . S
O83 C111 1.214 . S
H84 C112 0.929 . S
H85 C113 0.929 . S
H86 C114 0.930 . S
H87 C115 0.929 . S
H88 C117 0.930 . S
H89 C94 0.930 . S
H90 C98 0.930 . S
O91 Co60 2.037 . S
O91 C111 1.234 . S
C92 O66 1.269 . S
C92 O67 1.257 . S
C93 H68 0.930 . S
C93 C96 1.388 1_556 S
C93 C98 1.418 . S
C94 H89 0.930 . S
C94 C97 1.404 . S
C94 C98 1.353 . S
N95 Co60 2.145 1_556 S
N95 C96 1.397 1_556 S
N95 C97 1.334 . S
C96 H77 0.929 . S
C96 C93 1.388 1_554 S
C96 N95 1.397 1_554 S
C97 H78 0.929 . S
C97 C94 1.404 . S
C97 N95 1.334 . S
C98 H90 0.930 . S
C98 C93 1.418 . S
C98 C94 1.353 . S
C99 H69 0.930 . S
C99 N100 1.330 . S
C99 C101 1.446 . S
N100 Co59 2.151 . S
N100 C99 1.330 . S
N100 C104 1.418 . S
C101 H80 0.929 . S
C101 C99 1.446 . S
C101 C102 1.332 . S
C102 H82 0.931 . S
C102 C101 1.332 . S
C102 C103 1.267 . S
C103 H71 0.929 . S
C103 C102 1.267 . S
C103 C104 1.251 . S
C104 H74 0.929 . S
C104 N100 1.418 . S
C104 C103 1.251 . S
C105 H72 0.930 . S
C105 C107 1.406 . S
C105 C110 1.261 . S
C106 H73 0.930 . S
C106 N108 1.325 . S
C106 C109 1.357 . S
C107 H75 0.928 . S
C107 C105 1.406 . S
C107 N108 1.261 . S
N108 Co59 2.214 . S
N108 C106 1.325 . S
N108 C107 1.261 . S
C109 H79 0.931 . S
C109 C106 1.357 . S
C109 C110 1.312 . S
C110 H81 0.930 . S
C110 C105 1.261 . S
C110 C109 1.312 . S
C111 O83 1.214 . S
C111 O91 1.234 . S
C112 H84 0.929 . S
C112 C115 1.391 . S
C112 C117 1.391 . S
C113 H85 0.929 . S
C113 C114 1.390 . S
C113 N116 1.391 . S
C114 H86 0.930 . S
C114 C113 1.390 . S
C114 C115 1.392 . S
C115 H87 0.929 . S
C115 C112 1.391 . S
C115 C114 1.392 . S
N116 Co60 2.257 . S
N116 C113 1.391 . S
N116 C117 1.388 . S
C117 H88 0.930 . S
C117 C112 1.391 . S
C117 N116 1.388 . S
Co118 O120 2.143 . S
Co118 O126 2.074 . S
Co118 O129 2.093 . S
Co118 O142 2.097 . S
Co118 N159 2.151 . S
Co118 N167 2.214 . S
Co119 O120 2.160 . S
Co119 O125 2.058 . S
Co119 O135 2.057 1_554 S
Co119 O150 2.037 . S
Co119 N154 2.145 1_554 S
Co119 N175 2.257 . S
O120 Co118 2.143 . S
O120 Co119 2.160 . S
C121 O122 1.278 . S
C121 O129 1.224 . S
O122 C121 1.278 . S
C123 O124 1.245 1_556 S
C123 O135 1.232 . S
O124 C123 1.245 1_554 S
O125 Co119 2.058 . S
O125 C151 1.269 . S
O126 Co118 2.074 . S
O126 C151 1.257 . S
H127 C152 0.930 . S
H128 C158 0.930 . S
O129 Co118 2.093 . S
O129 C121 1.224 . S
H130 C162 0.929 . S
H131 C164 0.930 . S
H132 C165 0.930 . S
H133 C163 0.929 . S
H134 C166 0.928 . S
O135 Co119 2.057 1_556 S
O135 C123 1.232 . S
H136 C155 0.929 . S
H137 C156 0.929 . S
H138 C168 0.931 1_455 S
H139 C160 0.929 . S
H140 C169 0.930 . S
H141 C161 0.931 . S
O142 Co118 2.097 . S
O142 C170 1.214 . S
H143 C171 0.929 . S
H144 C172 0.929 . S
H145 C173 0.930 . S
H146 C174 0.929 . S
H147 C176 0.930 . S
H148 C153 0.930 . S
H149 C157 0.930 . S
O150 Co119 2.037 . S
O150 C170 1.234 . S
C151 O125 1.269 . S
C151 O126 1.257 . S
C152 H127 0.930 . S
C152 C155 1.388 1_556 S
C152 C157 1.418 . S
C153 H148 0.930 . S
C153 C156 1.404 . S
C153 C157 1.353 . S
N154 Co119 2.145 1_556 S
N154 C155 1.397 1_556 S
N154 C156 1.334 . S
C155 H136 0.929 . S
C155 C152 1.388 1_554 S
C155 N154 1.397 1_554 S
C156 H137 0.929 . S
C156 C153 1.404 . S
C156 N154 1.334 . S
C157 H149 0.930 . S
C157 C152 1.418 . S
C157 C153 1.353 . S
C158 H128 0.930 . S
C158 N159 1.330 . S
C158 C160 1.446 . S
N159 Co118 2.151 . S
N159 C158 1.330 . S
N159 C163 1.418 . S
C160 H139 0.929 . S
C160 C158 1.446 . S
C160 C161 1.332 . S
C161 H141 0.931 . S
C161 C160 1.332 . S
C161 C162 1.267 . S
C162 H130 0.929 . S
C162 C161 1.267 . S
C162 C163 1.251 . S
C163 H133 0.929 . S
C163 N159 1.418 . S
C163 C162 1.251 . S
C164 H131 0.930 . S
C164 C166 1.406 . S
C164 C169 1.261 . S
C165 H132 0.930 . S
C165 N167 1.325 . S
C165 C168 1.357 . S
C166 H134 0.928 . S
C166 C164 1.406 . S
C166 N167 1.261 . S
N167 Co118 2.214 . S
N167 C165 1.325 . S
N167 C166 1.261 . S
C168 H138 0.931 1_655 S
C168 C165 1.357 . S
C168 C169 1.312 . S
C169 H140 0.930 . S
C169 C164 1.261 . S
C169 C168 1.312 . S
C170 O142 1.214 . S
C170 O150 1.234 . S
C171 H143 0.929 . S
C171 C174 1.391 . S
C171 C176 1.391 . S
C172 H144 0.929 . S
C172 C173 1.390 . S
C172 N175 1.391 . S
C173 H145 0.930 . S
C173 C172 1.390 . S
C173 C174 1.392 . S
C174 H146 0.929 . S
C174 C171 1.391 . S
C174 C173 1.392 . S
N175 Co119 2.257 . S
N175 C172 1.391 . S
N175 C176 1.388 . S
C176 H147 0.930 . S
C176 C171 1.391 . S
C176 N175 1.388 . S
Co177 O179 2.143 . S
Co177 O185 2.074 . S
Co177 O188 2.093 . S
Co177 O201 2.097 1_655 S
Co177 N218 2.151 . S
Co177 N226 2.214 . S
Co178 O179 2.160 1_455 S
Co178 O184 2.050 1_455 S
Co178 O194 2.057 1_554 S
Co178 O209 2.037 . S
Co178 N213 2.145 1_554 S
Co178 N234 2.257 . S
O179 Co177 2.143 . S
O179 Co178 2.160 1_655 S
C180 O181 1.278 1_655 S
C180 O188 1.224 . S
O181 C180 1.278 1_455 S
C182 O183 1.270 . S
C182 O194 1.207 1_655 S
O183 C182 1.270 . S
O184 Co178 2.050 1_655 S
O184 C210 1.276 . S
O185 Co177 2.074 . S
O185 C210 1.257 . S
H186 C211 0.930 . S
H187 C217 0.930 . S
O188 Co177 2.093 . S
O188 C180 1.224 . S
H189 C221 0.929 . S
H190 C223 0.930 . S
H191 C224 0.930 . S
H192 C222 0.929 . S
H193 C225 0.928 . S
O194 Co178 2.057 1_556 S
O194 C182 1.207 1_455 S
H195 C214 0.929 1_554 S
H196 C215 0.929 . S
H197 C227 0.931 . S
H198 C219 0.929 . S
H199 C228 0.930 . S
H200 C220 0.931 . S
O201 Co177 2.097 1_455 S
O201 C229 1.214 . S
H202 C230 0.929 . S
H203 C231 0.929 . S
H204 C232 0.930 . S
H205 C233 0.929 . S
H206 C235 0.930 . S
H207 C212 0.930 . S
H208 C216 0.930 . S
O209 Co178 2.037 . S
O209 C229 1.234 . S
C210 O184 1.276 . S
C210 O185 1.257 . S
C211 H186 0.930 . S
C211 C214 1.388 . S
C211 C216 1.418 . S
C212 H207 0.930 . S
C212 C215 1.404 . S
C212 C216 1.353 . S
N213 Co178 2.145 1_556 S
N213 C214 1.397 . S
N213 C215 1.334 . S
C214 H195 0.929 1_556 S
C214 C211 1.388 . S
C214 N213 1.397 . S
C215 H196 0.929 . S
C215 C212 1.404 . S
C215 N213 1.334 . S
C216 H208 0.930 . S
C216 C211 1.418 . S
C216 C212 1.353 . S
C217 H187 0.930 . S
C217 N218 1.330 . S
C217 C219 1.446 . S
N218 Co177 2.151 . S
N218 C217 1.330 . S
N218 C222 1.418 . S
C219 H198 0.929 . S
C219 C217 1.446 . S
C219 C220 1.332 . S
C220 H200 0.931 . S
C220 C219 1.332 . S
C220 C221 1.267 . S
C221 H189 0.929 . S
C221 C220 1.267 . S
C221 C222 1.251 . S
C222 H192 0.929 . S
C222 N218 1.418 . S
C222 C221 1.251 . S
C223 H190 0.930 . S
C223 C225 1.406 . S
C223 C228 1.261 . S
C224 H191 0.930 . S
C224 N226 1.325 . S
C224 C227 1.357 . S
C225 H193 0.928 . S
C225 C223 1.406 . S
C225 N226 1.261 . S
N226 Co177 2.214 . S
N226 C224 1.325 . S
N226 C225 1.261 . S
C227 H197 0.931 . S
C227 C224 1.357 . S
C227 C228 1.312 . S
C228 H199 0.930 . S
C228 C223 1.261 . S
C228 C227 1.312 . S
C229 O201 1.214 . S
C229 O209 1.234 . S
C230 H202 0.929 . S
C230 C233 1.391 . S
C230 C235 1.391 . S
C231 H203 0.929 . S
C231 C232 1.390 . S
C231 N234 1.391 . S
C232 H204 0.930 . S
C232 C231 1.390 . S
C232 C233 1.392 . S
C233 H205 0.929 . S
C233 C230 1.391 . S
C233 C232 1.392 . S
N234 Co178 2.257 . S
N234 C231 1.391 . S
N234 C235 1.388 . S
C235 H206 0.930 . S
C235 C230 1.391 . S
C235 N234 1.388 . S
Co236 O238 2.143 . S
Co236 O244 2.074 . S
Co236 O247 2.093 . S
Co236 O260 2.097 1_545 S
Co236 N277 2.151 . S
Co236 N285 2.214 . S
Co237 O238 2.160 1_565 S
Co237 O243 2.050 1_565 S
Co237 O253 2.057 . S
Co237 O268 2.037 . S
Co237 N272 2.145 . S
Co237 N293 2.257 . S
O238 Co236 2.143 . S
O238 Co237 2.160 1_545 S
C239 O240 1.278 1_545 S
C239 O247 1.224 . S
O240 C239 1.278 1_565 S
C241 O242 1.270 . S
C241 O253 1.207 1_545 S
O242 C241 1.270 . S
O243 Co237 2.050 1_545 S
O243 C269 1.276 . S
O244 Co236 2.074 . S
O244 C269 1.257 . S
H245 C270 0.930 . S
H246 C276 0.930 . S
O247 Co236 2.093 . S
O247 C239 1.224 . S
H248 C280 0.929 . S
H249 C282 0.930 . S
H250 C283 0.930 . S
H251 C281 0.929 . S
H252 C284 0.928 . S
O253 Co237 2.057 . S
O253 C241 1.207 1_565 S
H254 C273 0.929 . S
H255 C274 0.929 . S
H256 C286 0.931 . S
H257 C278 0.929 . S
H258 C287 0.930 . S
H259 C279 0.931 . S
O260 Co236 2.097 1_565 S
O260 C288 1.214 . S
H261 C289 0.929 . S
H262 C290 0.929 . S
H263 C291 0.930 . S
H264 C292 0.929 . S
H265 C294 0.930 . S
H266 C271 0.930 . S
H267 C275 0.930 . S
O268 Co237 2.037 . S
O268 C288 1.234 . S
C269 O243 1.276 . S
C269 O244 1.257 . S
C270 H245 0.930 . S
C270 C273 1.388 . S
C270 C275 1.418 . S
C271 H266 0.930 . S
C271 C274 1.404 . S
C271 C275 1.353 . S
N272 Co237 2.145 . S
N272 C273 1.397 . S
N272 C274 1.334 . S
C273 H254 0.929 . S
C273 C270 1.388 . S
C273 N272 1.397 . S
C274 H255 0.929 . S
C274 C271 1.404 . S
C274 N272 1.334 . S
C275 H267 0.930 . S
C275 C270 1.418 . S
C275 C271 1.353 . S
C276 H246 0.930 . S
C276 N277 1.330 . S
C276 C278 1.446 . S
N277 Co236 2.151 . S
N277 C276 1.330 . S
N277 C281 1.418 . S
C278 H257 0.929 . S
C278 C276 1.446 . S
C278 C279 1.332 . S
C279 H259 0.931 . S
C279 C278 1.332 . S
C279 C280 1.267 . S
C280 H248 0.929 . S
C280 C279 1.267 . S
C280 C281 1.251 . S
C281 H251 0.929 . S
C281 N277 1.418 . S
C281 C280 1.251 . S
C282 H249 0.930 . S
C282 C284 1.406 . S
C282 C287 1.261 . S
C283 H250 0.930 . S
C283 N285 1.325 . S
C283 C286 1.357 . S
C284 H252 0.928 . S
C284 C282 1.406 . S
C284 N285 1.261 . S
N285 Co236 2.214 . S
N285 C283 1.325 . S
N285 C284 1.261 . S
C286 H256 0.931 . S
C286 C283 1.357 . S
C286 C287 1.312 . S
C287 H258 0.930 . S
C287 C282 1.261 . S
C287 C286 1.312 . S
C288 O260 1.214 . S
C288 O268 1.234 . S
C289 H261 0.929 . S
C289 C292 1.391 . S
C289 C294 1.391 . S
C290 H262 0.929 . S
C290 C291 1.390 . S
C290 N293 1.391 . S
C291 H263 0.930 . S
C291 C290 1.390 . S
C291 C292 1.392 . S
C292 H264 0.929 . S
C292 C289 1.391 . S
C292 C291 1.392 . S
N293 Co237 2.257 . S
N293 C290 1.391 . S
N293 C294 1.388 . S
C294 H265 0.930 . S
C294 C289 1.391 . S
C294 N293 1.388 . S
Co295 O297 2.143 . S
Co295 O303 2.074 . S
Co295 O306 2.093 . S
Co295 O319 2.097 . S
Co295 N336 2.151 . S
Co295 N344 2.214 . S
Co296 O297 2.160 . S
Co296 O302 2.058 . S
Co296 O312 2.057 . S
Co296 O327 2.037 . S
Co296 N331 2.145 . S
Co296 N352 2.257 . S
O297 Co295 2.143 . S
O297 Co296 2.160 . S
C298 O299 1.278 . S
C298 O306 1.224 . S
O299 C298 1.278 . S
C300 O301 1.245 . S
C300 O312 1.232 . S
O301 C300 1.245 . S
O302 Co296 2.058 . S
O302 C328 1.269 . S
O303 Co295 2.074 . S
O303 C328 1.257 . S
H304 C329 0.930 . S
H305 C335 0.930 . S
O306 Co295 2.093 . S
O306 C298 1.224 . S
H307 C339 0.929 . S
H308 C341 0.930 . S
H309 C342 0.930 . S
H310 C340 0.929 . S
H311 C343 0.928 . S
O312 Co296 2.057 . S
O312 C300 1.232 . S
H313 C332 0.929 . S
H314 C333 0.929 . S
H315 C345 0.931 1_565 S
H316 C337 0.929 . S
H317 C346 0.930 . S
H318 C338 0.931 . S
O319 Co295 2.097 . S
O319 C347 1.214 . S
H320 C348 0.929 . S
H321 C349 0.929 . S
H322 C350 0.930 . S
H323 C351 0.929 . S
H324 C353 0.930 . S
H325 C330 0.930 . S
H326 C334 0.930 . S
O327 Co296 2.037 . S
O327 C347 1.234 . S
C328 O302 1.269 . S
C328 O303 1.257 . S
C329 H304 0.930 . S
C329 C332 1.388 . S
C329 C334 1.418 . S
C330 H325 0.930 . S
C330 C333 1.404 . S
C330 C334 1.353 . S
N331 Co296 2.145 . S
N331 C332 1.397 . S
N331 C333 1.334 . S
C332 H313 0.929 . S
C332 C329 1.388 . S
C332 N331 1.397 . S
C333 H314 0.929 . S
C333 C330 1.404 . S
C333 N331 1.334 . S
C334 H326 0.930 . S
C334 C329 1.418 . S
C334 C330 1.353 . S
C335 H305 0.930 . S
C335 N336 1.330 . S
C335 C337 1.446 . S
N336 Co295 2.151 . S
N336 C335 1.330 . S
N336 C340 1.418 . S
C337 H316 0.929 . S
C337 C335 1.446 . S
C337 C338 1.332 . S
C338 H318 0.931 . S
C338 C337 1.332 . S
C338 C339 1.267 . S
C339 H307 0.929 . S
C339 C338 1.267 . S
C339 C340 1.251 . S
C340 H310 0.929 . S
C340 N336 1.418 . S
C340 C339 1.251 . S
C341 H308 0.930 . S
C341 C343 1.406 . S
C341 C346 1.261 . S
C342 H309 0.930 . S
C342 N344 1.325 . S
C342 C345 1.357 . S
C343 H311 0.928 . S
C343 C341 1.406 . S
C343 N344 1.261 . S
N344 Co295 2.214 . S
N344 C342 1.325 . S
N344 C343 1.261 . S
C345 H315 0.931 1_545 S
C345 C342 1.357 . S
C345 C346 1.312 . S
C346 H317 0.930 . S
C346 C341 1.261 . S
C346 C345 1.312 . S
C347 O319 1.214 . S
C347 O327 1.234 . S
C348 H320 0.929 . S
C348 C351 1.391 . S
C348 C353 1.391 . S
C349 H321 0.929 . S
C349 C350 1.390 . S
C349 N352 1.391 . S
C350 H322 0.930 . S
C350 C349 1.390 . S
C350 C351 1.392 . S
C351 H323 0.929 . S
C351 C348 1.391 . S
C351 C350 1.392 . S
N352 Co296 2.257 . S
N352 C349 1.391 . S
N352 C353 1.388 . S
C353 H324 0.930 . S
C353 C348 1.391 . S
C353 N352 1.388 . S
Co354 O356 2.143 . S
Co354 O362 2.074 . S
Co354 O365 2.093 . S
Co354 O378 2.097 . S
Co354 N395 2.151 . S
Co354 N403 2.214 . S
Co355 O356 2.160 . S
Co355 O361 2.058 . S
Co355 O371 2.057 . S
Co355 O386 2.037 . S
Co355 N390 2.145 . S
Co355 N411 2.257 . S
O356 Co354 2.143 . S
O356 Co355 2.160 . S
C357 O358 1.278 . S
C357 O365 1.224 . S
O358 C357 1.278 . S
C359 O360 1.245 . S
C359 O371 1.232 . S
O360 C359 1.245 . S
O361 Co355 2.058 . S
O361 C387 1.269 . S
O362 Co354 2.074 . S
O362 C387 1.257 . S
H363 C388 0.930 . S
H364 C394 0.930 . S
O365 Co354 2.093 . S
O365 C357 1.224 . S
H366 C398 0.929 . S
H367 C400 0.930 . S
H368 C401 0.930 . S
H369 C399 0.929 . S
H370 C402 0.928 . S
O371 Co355 2.057 . S
O371 C359 1.232 . S
H372 C391 0.929 . S
H373 C392 0.929 . S
H374 C404 0.931 . S
H375 C396 0.929 . S
H376 C405 0.930 . S
H377 C397 0.931 . S
O378 Co354 2.097 . S
O378 C406 1.214 . S
H379 C407 0.929 . S
H380 C408 0.929 . S
H381 C409 0.930 . S
H382 C410 0.929 . S
H383 C412 0.930 . S
H384 C389 0.930 . S
H385 C393 0.930 . S
O386 Co355 2.037 . S
O386 C406 1.234 . S
C387 O361 1.269 . S
C387 O362 1.257 . S
C388 H363 0.930 . S
C388 C391 1.388 . S
C388 C393 1.418 . S
C389 H384 0.930 . S
C389 C392 1.404 . S
C389 C393 1.353 . S
N390 Co355 2.145 . S
N390 C391 1.397 . S
N390 C392 1.334 . S
C391 H372 0.929 . S
C391 C388 1.388 . S
C391 N390 1.397 . S
C392 H373 0.929 . S
C392 C389 1.404 . S
C392 N390 1.334 . S
C393 H385 0.930 . S
C393 C388 1.418 . S
C393 C389 1.353 . S
C394 H364 0.930 . S
C394 N395 1.330 . S
C394 C396 1.446 . S
N395 Co354 2.151 . S
N395 C394 1.330 . S
N395 C399 1.418 . S
C396 H375 0.929 . S
C396 C394 1.446 . S
C396 C397 1.332 . S
C397 H377 0.931 . S
C397 C396 1.332 . S
C397 C398 1.267 . S
C398 H366 0.929 . S
C398 C397 1.267 . S
C398 C399 1.251 . S
C399 H369 0.929 . S
C399 N395 1.418 . S
C399 C398 1.251 . S
C400 H367 0.930 . S
C400 C402 1.406 . S
C400 C405 1.261 . S
C401 H368 0.930 . S
C401 N403 1.325 . S
C401 C404 1.357 . S
C402 H370 0.928 . S
C402 C400 1.406 . S
C402 N403 1.261 . S
N403 Co354 2.214 . S
N403 C401 1.325 . S
N403 C402 1.261 . S
C404 H374 0.931 . S
C404 C401 1.357 . S
C404 C405 1.312 . S
C405 H376 0.930 . S
C405 C400 1.261 . S
C405 C404 1.312 . S
C406 O378 1.214 . S
C406 O386 1.234 . S
C407 H379 0.929 . S
C407 C410 1.391 . S
C407 C412 1.391 . S
C408 H380 0.929 . S
C408 C409 1.390 . S
C408 N411 1.391 . S
C409 H381 0.930 . S
C409 C408 1.390 . S
C409 C410 1.392 . S
C410 H382 0.929 . S
C410 C407 1.391 . S
C410 C409 1.392 . S
N411 Co355 2.257 . S
N411 C408 1.391 . S
N411 C412 1.388 . S
C412 H383 0.930 . S
C412 C407 1.391 . S
C412 N411 1.388 . S
Co413 O415 2.143 . S
Co413 O421 2.074 . S
Co413 O424 2.093 . S
Co413 O437 2.097 1_455 S
Co413 N454 2.151 . S
Co413 N462 2.214 . S
Co414 O415 2.160 1_655 S
Co414 O420 2.058 1_655 S
Co414 O430 2.057 . S
Co414 O445 2.037 . S
Co414 N449 2.145 . S
Co414 N470 2.257 . S
O415 Co413 2.143 . S
O415 Co414 2.160 1_455 S
C416 O417 1.278 1_455 S
C416 O424 1.224 . S
O417 C416 1.278 1_655 S
C418 O419 1.219 1_655 S
C418 O430 1.256 . S
O419 C418 1.219 1_455 S
O420 Co414 2.058 1_455 S
O420 C446 1.269 . S
O421 Co413 2.074 . S
O421 C446 1.257 . S
H422 C447 0.930 . S
H423 C453 0.930 . S
O424 Co413 2.093 . S
O424 C416 1.224 . S
H425 C457 0.929 . S
H426 C459 0.930 . S
H427 C460 0.930 . S
H428 C458 0.929 . S
H429 C461 0.928 . S
O430 Co414 2.057 . S
O430 C418 1.256 . S
H431 C450 0.929 . S
H432 C451 0.929 . S
H433 C463 0.931 . S
H434 C455 0.929 . S
H435 C464 0.930 . S
H436 C456 0.931 . S
O437 Co413 2.097 1_655 S
O437 C465 1.214 . S
H438 C466 0.929 . S
H439 C467 0.929 . S
H440 C468 0.930 . S
H441 C469 0.929 . S
H442 C471 0.930 . S
H443 C448 0.930 . S
H444 C452 0.930 . S
O445 Co414 2.037 . S
O445 C465 1.234 . S
C446 O420 1.269 . S
C446 O421 1.257 . S
C447 H422 0.930 . S
C447 C450 1.388 . S
C447 C452 1.418 . S
C448 H443 0.930 . S
C448 C451 1.404 . S
C448 C452 1.353 . S
N449 Co414 2.145 . S
N449 C450 1.397 . S
N449 C451 1.334 . S
C450 H431 0.929 . S
C450 C447 1.388 . S
C450 N449 1.397 . S
C451 H432 0.929 . S
C451 C448 1.404 . S
C451 N449 1.334 . S
C452 H444 0.930 . S
C452 C447 1.418 . S
C452 C448 1.353 . S
C453 H423 0.930 . S
C453 N454 1.330 . S
C453 C455 1.446 . S
N454 Co413 2.151 . S
N454 C453 1.330 . S
N454 C458 1.418 . S
C455 H434 0.929 . S
C455 C453 1.446 . S
C455 C456 1.332 . S
C456 H436 0.931 . S
C456 C455 1.332 . S
C456 C457 1.267 . S
C457 H425 0.929 . S
C457 C456 1.267 . S
C457 C458 1.251 . S
C458 H428 0.929 . S
C458 N454 1.418 . S
C458 C457 1.251 . S
C459 H426 0.930 . S
C459 C461 1.406 . S
C459 C464 1.261 . S
C460 H427 0.930 . S
C460 N462 1.325 . S
C460 C463 1.357 . S
C461 H429 0.928 . S
C461 C459 1.406 . S
C461 N462 1.261 . S
N462 Co413 2.214 . S
N462 C460 1.325 . S
N462 C461 1.261 . S
C463 H433 0.931 . S
C463 C460 1.357 . S
C463 C464 1.312 . S
C464 H435 0.930 . S
C464 C459 1.261 . S
C464 C463 1.312 . S
C465 O437 1.214 . S
C465 O445 1.234 . S
C466 H438 0.929 . S
C466 C469 1.391 . S
C466 C471 1.391 . S
C467 H439 0.929 . S
C467 C468 1.390 . S
C467 N470 1.391 . S
C468 H440 0.930 . S
C468 C467 1.390 . S
C468 C469 1.392 . S
C469 H441 0.929 . S
C469 C466 1.391 . S
C469 C468 1.392 . S
N470 Co414 2.257 . S
N470 C467 1.391 . S
N470 C471 1.388 . S
C471 H442 0.930 . S
C471 C466 1.391 . S
C471 N470 1.388 . S
Co472 O474 2.143 . S
Co472 O480 2.074 . S
Co472 O483 2.093 . S
Co472 O496 2.097 1_545 S
Co472 N513 2.151 . S
Co472 N521 2.214 . S
Co473 O474 2.160 1_565 S
Co473 O479 2.058 1_565 S
Co473 O489 2.057 1_556 S
Co473 O504 2.037 . S
Co473 N508 2.145 1_556 S
Co473 N529 2.257 . S
O474 Co472 2.143 . S
O474 Co473 2.160 1_545 S
C475 O476 1.278 1_545 S
C475 O483 1.224 . S
O476 C475 1.278 1_565 S
C477 O478 1.219 1_564 S
C477 O489 1.256 . S
O478 C477 1.219 1_546 S
O479 Co473 2.058 1_545 S
O479 C505 1.269 . S
O480 Co472 2.074 . S
O480 C505 1.257 . S
H481 C506 0.930 . S
H482 C512 0.930 . S
O483 Co472 2.093 . S
O483 C475 1.224 . S
H484 C516 0.929 . S
H485 C518 0.930 . S
H486 C519 0.930 . S
H487 C517 0.929 . S
H488 C520 0.928 . S
O489 Co473 2.057 1_554 S
O489 C477 1.256 . S
H490 C509 0.929 1_556 S
H491 C510 0.929 . S
H492 C522 0.931 . S
H493 C514 0.929 . S
H494 C523 0.930 . S
H495 C515 0.931 . S
O496 Co472 2.097 1_565 S
O496 C524 1.214 . S
H497 C525 0.929 . S
H498 C526 0.929 . S
H499 C527 0.930 . S
H500 C528 0.929 . S
H501 C530 0.930 . S
H502 C507 0.930 . S
H503 C511 0.930 . S
O504 Co473 2.037 . S
O504 C524 1.234 . S
C505 O479 1.269 . S
C505 O480 1.257 . S
C506 H481 0.930 . S
C506 C509 1.388 . S
C506 C511 1.418 . S
C507 H502 0.930 . S
C507 C510 1.404 . S
C507 C511 1.353 . S
N508 Co473 2.145 1_554 S
N508 C509 1.397 . S
N508 C510 1.334 . S
C509 H490 0.929 1_554 S
C509 C506 1.388 . S
C509 N508 1.397 . S
C510 H491 0.929 . S
C510 C507 1.404 . S
C510 N508 1.334 . S
C511 H503 0.930 . S
C511 C506 1.418 . S
C511 C507 1.353 . S
C512 H482 0.930 . S
C512 N513 1.330 . S
C512 C514 1.446 . S
N513 Co472 2.151 . S
N513 C512 1.330 . S
N513 C517 1.418 . S
C514 H493 0.929 . S
C514 C512 1.446 . S
C514 C515 1.332 . S
C515 H495 0.931 . S
C515 C514 1.332 . S
C515 C516 1.267 . S
C516 H484 0.929 . S
C516 C515 1.267 . S
C516 C517 1.251 . S
C517 H487 0.929 . S
C517 N513 1.418 . S
C517 C516 1.251 . S
C518 H485 0.930 . S
C518 C520 1.406 . S
C518 C523 1.261 . S
C519 H486 0.930 . S
C519 N521 1.325 . S
C519 C522 1.357 . S
C520 H488 0.928 . S
C520 C518 1.406 . S
C520 N521 1.261 . S
N521 Co472 2.214 . S
N521 C519 1.325 . S
N521 C520 1.261 . S
C522 H492 0.931 . S
C522 C519 1.357 . S
C522 C523 1.312 . S
C523 H494 0.930 . S
C523 C518 1.261 . S
C523 C522 1.312 . S
C524 O496 1.214 . S
C524 O504 1.234 . S
C525 H497 0.929 . S
C525 C528 1.391 . S
C525 C530 1.391 . S
C526 H498 0.929 . S
C526 C527 1.390 . S
C526 N529 1.391 . S
C527 H499 0.930 . S
C527 C526 1.390 . S
C527 C528 1.392 . S
C528 H500 0.929 . S
C528 C525 1.391 . S
C528 C527 1.392 . S
N529 Co473 2.257 . S
N529 C526 1.391 . S
N529 C530 1.388 . S
C530 H501 0.930 . S
C530 C525 1.391 . S
C530 N529 1.388 . S
Co531 O533 2.143 . S
Co531 O539 2.074 . S
Co531 O542 2.093 . S
Co531 O555 2.097 . S
Co531 N572 2.151 . S
Co531 N580 2.214 . S
Co532 O533 2.160 . S
Co532 O538 2.058 . S
Co532 O548 2.057 1_556 S
Co532 O563 2.037 . S
Co532 N567 2.145 1_556 S
Co532 N588 2.257 . S
O533 Co531 2.143 . S
O533 Co532 2.160 . S
C534 O535 1.278 . S
C534 O542 1.224 . S
O535 C534 1.278 . S
C536 O537 1.245 1_554 S
C536 O548 1.232 . S
O537 C536 1.245 1_556 S
O538 Co532 2.058 . S
O538 C564 1.269 . S
O539 Co531 2.074 . S
O539 C564 1.257 . S
H540 C565 0.930 . S
H541 C571 0.930 . S
O542 Co531 2.093 . S
O542 C534 1.224 . S
H543 C575 0.929 . S
H544 C577 0.930 . S
H545 C578 0.930 . S
H546 C576 0.929 . S
H547 C579 0.928 . S
O548 Co532 2.057 1_554 S
O548 C536 1.232 . S
H549 C568 0.929 . S
H550 C569 0.929 . S
H551 C581 0.931 . S
H552 C573 0.929 . S
H553 C582 0.930 . S
H554 C574 0.931 . S
O555 Co531 2.097 . S
O555 C583 1.214 . S
H556 C584 0.929 . S
H557 C585 0.929 . S
H558 C586 0.930 . S
H559 C587 0.929 . S
H560 C589 0.930 . S
H561 C566 0.930 . S
H562 C570 0.930 . S
O563 Co532 2.037 . S
O563 C583 1.234 . S
C564 O538 1.269 . S
C564 O539 1.257 . S
C565 H540 0.930 . S
C565 C568 1.388 1_554 S
C565 C570 1.418 . S
C566 H561 0.930 . S
C566 C569 1.404 . S
C566 C570 1.353 . S
N567 Co532 2.145 1_554 S
N567 C568 1.397 1_554 S
N567 C569 1.334 . S
C568 H549 0.929 . S
C568 C565 1.388 1_556 S
C568 N567 1.397 1_556 S
C569 H550 0.929 . S
C569 C566 1.404 . S
C569 N567 1.334 . S
C570 H562 0.930 . S
C570 C565 1.418 . S
C570 C566 1.353 . S
C571 H541 0.930 . S
C571 N572 1.330 . S
C571 C573 1.446 . S
N572 Co531 2.151 . S
N572 C571 1.330 . S
N572 C576 1.418 . S
C573 H552 0.929 . S
C573 C571 1.446 . S
C573 C574 1.332 . S
C574 H554 0.931 . S
C574 C573 1.332 . S
C574 C575 1.267 . S
C575 H543 0.929 . S
C575 C574 1.267 . S
C575 C576 1.251 . S
C576 H546 0.929 . S
C576 N572 1.418 . S
C576 C575 1.251 . S
C577 H544 0.930 . S
C577 C579 1.406 . S
C577 C582 1.261 . S
C578 H545 0.930 . S
C578 N580 1.325 . S
C578 C581 1.357 . S
C579 H547 0.928 . S
C579 C577 1.406 . S
C579 N580 1.261 . S
N580 Co531 2.214 . S
N580 C578 1.325 . S
N580 C579 1.261 . S
C581 H551 0.931 . S
C581 C578 1.357 . S
C581 C582 1.312 . S
C582 H553 0.930 . S
C582 C577 1.261 . S
C582 C581 1.312 . S
C583 O555 1.214 . S
C583 O563 1.234 . S
C584 H556 0.929 . S
C584 C587 1.391 . S
C584 C589 1.391 . S
C585 H557 0.929 . S
C585 C586 1.390 . S
C585 N588 1.391 . S
C586 H558 0.930 . S
C586 C585 1.390 . S
C586 C587 1.392 . S
C587 H559 0.929 . S
C587 C584 1.391 . S
C587 C586 1.392 . S
N588 Co532 2.257 . S
N588 C585 1.391 . S
N588 C589 1.388 . S
C589 H560 0.930 . S
C589 C584 1.391 . S
C589 N588 1.388 . S
Co590 O592 2.143 . S
Co590 O598 2.074 . S
Co590 O601 2.093 . S
Co590 O614 2.097 . S
Co590 N631 2.151 . S
Co590 N639 2.214 . S
Co591 O592 2.160 . S
Co591 O597 2.058 . S
Co591 O607 2.057 1_556 S
Co591 O622 2.037 . S
Co591 N626 2.145 1_556 S
Co591 N647 2.257 . S
O592 Co590 2.143 . S
O592 Co591 2.160 . S
C593 O594 1.278 . S
C593 O601 1.224 . S
O594 C593 1.278 . S
C595 O596 1.245 1_554 S
C595 O607 1.232 . S
O596 C595 1.245 1_556 S
O597 Co591 2.058 . S
O597 C623 1.269 . S
O598 Co590 2.074 . S
O598 C623 1.257 . S
H599 C624 0.930 . S
H600 C630 0.930 . S
O601 Co590 2.093 . S
O601 C593 1.224 . S
H602 C634 0.929 . S
H603 C636 0.930 . S
H604 C637 0.930 . S
H605 C635 0.929 . S
H606 C638 0.928 . S
O607 Co591 2.057 1_554 S
O607 C595 1.232 . S
H608 C627 0.929 . S
H609 C628 0.929 . S
H610 C640 0.931 1_655 S
H611 C632 0.929 . S
H612 C641 0.930 . S
H613 C633 0.931 . S
O614 Co590 2.097 . S
O614 C642 1.214 . S
H615 C643 0.929 . S
H616 C644 0.929 . S
H617 C645 0.930 . S
H618 C646 0.929 . S
H619 C648 0.930 . S
H620 C625 0.930 . S
H621 C629 0.930 . S
O622 Co591 2.037 . S
O622 C642 1.234 . S
C623 O597 1.269 . S
C623 O598 1.257 . S
C624 H599 0.930 . S
C624 C627 1.388 1_554 S
C624 C629 1.418 . S
C625 H620 0.930 . S
C625 C628 1.404 . S
C625 C629 1.353 . S
N626 Co591 2.145 1_554 S
N626 C627 1.397 1_554 S
N626 C628 1.334 . S
C627 H608 0.929 . S
C627 C624 1.388 1_556 S
C627 N626 1.397 1_556 S
C628 H609 0.929 . S
C628 C625 1.404 . S
C628 N626 1.334 . S
C629 H621 0.930 . S
C629 C624 1.418 . S
C629 C625 1.353 . S
C630 H600 0.930 . S
C630 N631 1.330 . S
C630 C632 1.446 . S
N631 Co590 2.151 . S
N631 C630 1.330 . S
N631 C635 1.418 . S
C632 H611 0.929 . S
C632 C630 1.446 . S
C632 C633 1.332 . S
C633 H613 0.931 . S
C633 C632 1.332 . S
C633 C634 1.267 . S
C634 H602 0.929 . S
C634 C633 1.267 . S
C634 C635 1.251 . S
C635 H605 0.929 . S
C635 N631 1.418 . S
C635 C634 1.251 . S
C636 H603 0.930 . S
C636 C638 1.406 . S
C636 C641 1.261 . S
C637 H604 0.930 . S
C637 N639 1.325 . S
C637 C640 1.357 . S
C638 H606 0.928 . S
C638 C636 1.406 . S
C638 N639 1.261 . S
N639 Co590 2.214 . S
N639 C637 1.325 . S
N639 C638 1.261 . S
C640 H610 0.931 1_455 S
C640 C637 1.357 . S
C640 C641 1.312 . S
C641 H612 0.930 . S
C641 C636 1.261 . S
C641 C640 1.312 . S
C642 O614 1.214 . S
C642 O622 1.234 . S
C643 H615 0.929 . S
C643 C646 1.391 . S
C643 C648 1.391 . S
C644 H616 0.929 . S
C644 C645 1.390 . S
C644 N647 1.391 . S
C645 H617 0.930 . S
C645 C644 1.390 . S
C645 C646 1.392 . S
C646 H618 0.929 . S
C646 C643 1.391 . S
C646 C645 1.392 . S
N647 Co591 2.257 . S
N647 C644 1.391 . S
N647 C648 1.388 . S
C648 H619 0.930 . S
C648 C643 1.391 . S
C648 N647 1.388 . S
Co649 O651 2.143 . S
Co649 O657 2.074 . S
Co649 O660 2.093 . S
Co649 O673 2.097 1_455 S
Co649 N690 2.151 . S
Co649 N698 2.214 . S
Co650 O651 2.160 1_655 S
Co650 O656 2.050 1_655 S
Co650 O666 2.057 1_556 S
Co650 O681 2.037 . S
Co650 N685 2.145 1_556 S
Co650 N706 2.257 . S
O651 Co649 2.143 . S
O651 Co650 2.160 1_455 S
C652 O653 1.278 1_455 S
C652 O660 1.224 . S
O653 C652 1.278 1_655 S
C654 O655 1.270 . S
C654 O666 1.207 1_455 S
O655 C654 1.270 . S
O656 Co650 2.050 1_455 S
O656 C682 1.276 . S
O657 Co649 2.074 . S
O657 C682 1.257 . S
H658 C683 0.930 . S
H659 C689 0.930 . S
O660 Co649 2.093 . S
O660 C652 1.224 . S
H661 C693 0.929 . S
H662 C695 0.930 . S
H663 C696 0.930 . S
H664 C694 0.929 . S
H665 C697 0.928 . S
O666 Co650 2.057 1_554 S
O666 C654 1.207 1_655 S
H667 C686 0.929 1_556 S
H668 C687 0.929 . S
H669 C699 0.931 . S
H670 C691 0.929 . S
H671 C700 0.930 . S
H672 C692 0.931 . S
O673 Co649 2.097 1_655 S
O673 C701 1.214 . S
H674 C702 0.929 . S
H675 C703 0.929 . S
H676 C704 0.930 . S
H677 C705 0.929 . S
H678 C707 0.930 . S
H679 C684 0.930 . S
H680 C688 0.930 . S
O681 Co650 2.037 . S
O681 C701 1.234 . S
C682 O656 1.276 . S
C682 O657 1.257 . S
C683 H658 0.930 . S
C683 C686 1.388 . S
C683 C688 1.418 . S
C684 H679 0.930 . S
C684 C687 1.404 . S
C684 C688 1.353 . S
N685 Co650 2.145 1_554 S
N685 C686 1.397 . S
N685 C687 1.334 . S
C686 H667 0.929 1_554 S
C686 C683 1.388 . S
C686 N685 1.397 . S
C687 H668 0.929 . S
C687 C684 1.404 . S
C687 N685 1.334 . S
C688 H680 0.930 . S
C688 C683 1.418 . S
C688 C684 1.353 . S
C689 H659 0.930 . S
C689 N690 1.330 . S
C689 C691 1.446 . S
N690 Co649 2.151 . S
N690 C689 1.330 . S
N690 C694 1.418 . S
C691 H670 0.929 . S
C691 C689 1.446 . S
C691 C692 1.332 . S
C692 H672 0.931 . S
C692 C691 1.332 . S
C692 C693 1.267 . S
C693 H661 0.929 . S
C693 C692 1.267 . S
C693 C694 1.251 . S
C694 H664 0.929 . S
C694 N690 1.418 . S
C694 C693 1.251 . S
C695 H662 0.930 . S
C695 C697 1.406 . S
C695 C700 1.261 . S
C696 H663 0.930 . S
C696 N698 1.325 . S
C696 C699 1.357 . S
C697 H665 0.928 . S
C697 C695 1.406 . S
C697 N698 1.261 . S
N698 Co649 2.214 . S
N698 C696 1.325 . S
N698 C697 1.261 . S
C699 H669 0.931 . S
C699 C696 1.357 . S
C699 C700 1.312 . S
C700 H671 0.930 . S
C700 C695 1.261 . S
C700 C699 1.312 . S
C701 O673 1.214 . S
C701 O681 1.234 . S
C702 H674 0.929 . S
C702 C705 1.391 . S
C702 C707 1.391 . S
C703 H675 0.929 . S
C703 C704 1.390 . S
C703 N706 1.391 . S
C704 H676 0.930 . S
C704 C703 1.390 . S
C704 C705 1.392 . S
C705 H677 0.929 . S
C705 C702 1.391 . S
C705 C704 1.392 . S
N706 Co650 2.257 . S
N706 C703 1.391 . S
N706 C707 1.388 . S
C707 H678 0.930 . S
C707 C702 1.391 . S
C707 N706 1.388 . S
Co708 O710 2.143 . S
Co708 O716 2.074 . S
Co708 O719 2.093 . S
Co708 O732 2.097 1_565 S
Co708 N749 2.151 . S
Co708 N757 2.214 . S
Co709 O710 2.160 1_545 S
Co709 O715 2.050 1_545 S
Co709 O725 2.057 . S
Co709 O740 2.037 . S
Co709 N744 2.145 . S
Co709 N765 2.257 . S
O710 Co708 2.143 . S
O710 Co709 2.160 1_565 S
C711 O712 1.278 1_565 S
C711 O719 1.224 . S
O712 C711 1.278 1_545 S
C713 O714 1.270 . S
C713 O725 1.207 1_565 S
O714 C713 1.270 . S
O715 Co709 2.050 1_565 S
O715 C741 1.276 . S
O716 Co708 2.074 . S
O716 C741 1.257 . S
H717 C742 0.930 . S
H718 C748 0.930 . S
O719 Co708 2.093 . S
O719 C711 1.224 . S
H720 C752 0.929 . S
H721 C754 0.930 . S
H722 C755 0.930 . S
H723 C753 0.929 . S
H724 C756 0.928 . S
O725 Co709 2.057 . S
O725 C713 1.207 1_545 S
H726 C745 0.929 . S
H727 C746 0.929 . S
H728 C758 0.931 . S
H729 C750 0.929 . S
H730 C759 0.930 . S
H731 C751 0.931 . S
O732 Co708 2.097 1_545 S
O732 C760 1.214 . S
H733 C761 0.929 . S
H734 C762 0.929 . S
H735 C763 0.930 . S
H736 C764 0.929 . S
H737 C766 0.930 . S
H738 C743 0.930 . S
H739 C747 0.930 . S
O740 Co709 2.037 . S
O740 C760 1.234 . S
C741 O715 1.276 . S
C741 O716 1.257 . S
C742 H717 0.930 . S
C742 C745 1.388 . S
C742 C747 1.418 . S
C743 H738 0.930 . S
C743 C746 1.404 . S
C743 C747 1.353 . S
N744 Co709 2.145 . S
N744 C745 1.397 . S
N744 C746 1.334 . S
C745 H726 0.929 . S
C745 C742 1.388 . S
C745 N744 1.397 . S
C746 H727 0.929 . S
C746 C743 1.404 . S
C746 N744 1.334 . S
C747 H739 0.930 . S
C747 C742 1.418 . S
C747 C743 1.353 . S
C748 H718 0.930 . S
C748 N749 1.330 . S
C748 C750 1.446 . S
N749 Co708 2.151 . S
N749 C748 1.330 . S
N749 C753 1.418 . S
C750 H729 0.929 . S
C750 C748 1.446 . S
C750 C751 1.332 . S
C751 H731 0.931 . S
C751 C750 1.332 . S
C751 C752 1.267 . S
C752 H720 0.929 . S
C752 C751 1.267 . S
C752 C753 1.251 . S
C753 H723 0.929 . S
C753 N749 1.418 . S
C753 C752 1.251 . S
C754 H721 0.930 . S
C754 C756 1.406 . S
C754 C759 1.261 . S
C755 H722 0.930 . S
C755 N757 1.325 . S
C755 C758 1.357 . S
C756 H724 0.928 . S
C756 C754 1.406 . S
C756 N757 1.261 . S
N757 Co708 2.214 . S
N757 C755 1.325 . S
N757 C756 1.261 . S
C758 H728 0.931 . S
C758 C755 1.357 . S
C758 C759 1.312 . S
C759 H730 0.930 . S
C759 C754 1.261 . S
C759 C758 1.312 . S
C760 O732 1.214 . S
C760 O740 1.234 . S
C761 H733 0.929 . S
C761 C764 1.391 . S
C761 C766 1.391 . S
C762 H734 0.929 . S
C762 C763 1.390 . S
C762 N765 1.391 . S
C763 H735 0.930 . S
C763 C762 1.390 . S
C763 C764 1.392 . S
C764 H736 0.929 . S
C764 C761 1.391 . S
C764 C763 1.392 . S
N765 Co709 2.257 . S
N765 C762 1.391 . S
N765 C766 1.388 . S
C766 H737 0.930 . S
C766 C761 1.391 . S
C766 N765 1.388 . S
Co767 O769 2.143 . S
Co767 O775 2.074 . S
Co767 O778 2.093 . S
Co767 O791 2.097 . S
Co767 N808 2.151 . S
Co767 N816 2.214 . S
Co768 O769 2.160 . S
Co768 O774 2.058 . S
Co768 O784 2.057 . S
Co768 O799 2.037 . S
Co768 N803 2.145 . S
Co768 N824 2.257 . S
O769 Co767 2.143 . S
O769 Co768 2.160 . S
C770 O771 1.278 . S
C770 O778 1.224 . S
O771 C770 1.278 . S
C772 O773 1.245 . S
C772 O784 1.232 . S
O773 C772 1.245 . S
O774 Co768 2.058 . S
O774 C800 1.269 . S
O775 Co767 2.074 . S
O775 C800 1.257 . S
H776 C801 0.930 . S
H777 C807 0.930 . S
O778 Co767 2.093 . S
O778 C770 1.224 . S
H779 C811 0.929 . S
H780 C813 0.930 . S
H781 C814 0.930 . S
H782 C812 0.929 . S
H783 C815 0.928 . S
O784 Co768 2.057 . S
O784 C772 1.232 . S
H785 C804 0.929 . S
H786 C805 0.929 . S
H787 C817 0.931 1_545 S
H788 C809 0.929 . S
H789 C818 0.930 . S
H790 C810 0.931 . S
O791 Co767 2.097 . S
O791 C819 1.214 . S
H792 C820 0.929 . S
H793 C821 0.929 . S
H794 C822 0.930 . S
H795 C823 0.929 . S
H796 C825 0.930 . S
H797 C802 0.930 . S
H798 C806 0.930 . S
O799 Co768 2.037 . S
O799 C819 1.234 . S
C800 O774 1.269 . S
C800 O775 1.257 . S
C801 H776 0.930 . S
C801 C804 1.388 . S
C801 C806 1.418 . S
C802 H797 0.930 . S
C802 C805 1.404 . S
C802 C806 1.353 . S
N803 Co768 2.145 . S
N803 C804 1.397 . S
N803 C805 1.334 . S
C804 H785 0.929 . S
C804 C801 1.388 . S
C804 N803 1.397 . S
C805 H786 0.929 . S
C805 C802 1.404 . S
C805 N803 1.334 . S
C806 H798 0.930 . S
C806 C801 1.418 . S
C806 C802 1.353 . S
C807 H777 0.930 . S
C807 N808 1.330 . S
C807 C809 1.446 . S
N808 Co767 2.151 . S
N808 C807 1.330 . S
N808 C812 1.418 . S
C809 H788 0.929 . S
C809 C807 1.446 . S
C809 C810 1.332 . S
C810 H790 0.931 . S
C810 C809 1.332 . S
C810 C811 1.267 . S
C811 H779 0.929 . S
C811 C810 1.267 . S
C811 C812 1.251 . S
C812 H782 0.929 . S
C812 N808 1.418 . S
C812 C811 1.251 . S
C813 H780 0.930 . S
C813 C815 1.406 . S
C813 C818 1.261 . S
C814 H781 0.930 . S
C814 N816 1.325 . S
C814 C817 1.357 . S
C815 H783 0.928 . S
C815 C813 1.406 . S
C815 N816 1.261 . S
N816 Co767 2.214 . S
N816 C814 1.325 . S
N816 C815 1.261 . S
C817 H787 0.931 1_565 S
C817 C814 1.357 . S
C817 C818 1.312 . S
C818 H789 0.930 . S
C818 C813 1.261 . S
C818 C817 1.312 . S
C819 O791 1.214 . S
C819 O799 1.234 . S
C820 H792 0.929 . S
C820 C823 1.391 . S
C820 C825 1.391 . S
C821 H793 0.929 . S
C821 C822 1.390 . S
C821 N824 1.391 . S
C822 H794 0.930 . S
C822 C821 1.390 . S
C822 C823 1.392 . S
C823 H795 0.929 . S
C823 C820 1.391 . S
C823 C822 1.392 . S
N824 Co768 2.257 . S
N824 C821 1.391 . S
N824 C825 1.388 . S
C825 H796 0.930 . S
C825 C820 1.391 . S
C825 N824 1.388 . S
Co826 O828 2.143 . S
Co826 O834 2.074 . S
Co826 O837 2.093 . S
Co826 O850 2.097 . S
Co826 N867 2.151 . S
Co826 N875 2.214 . S
Co827 O828 2.160 . S
Co827 O833 2.058 . S
Co827 O843 2.057 . S
Co827 O858 2.037 . S
Co827 N862 2.145 . S
Co827 N883 2.257 . S
O828 Co826 2.143 . S
O828 Co827 2.160 . S
C829 O830 1.278 . S
C829 O837 1.224 . S
O830 C829 1.278 . S
C831 O832 1.245 . S
C831 O843 1.232 . S
O832 C831 1.245 . S
O833 Co827 2.058 . S
O833 C859 1.269 . S
O834 Co826 2.074 . S
O834 C859 1.257 . S
H835 C860 0.930 . S
H836 C866 0.930 . S
O837 Co826 2.093 . S
O837 C829 1.224 . S
H838 C870 0.929 . S
H839 C872 0.930 . S
H840 C873 0.930 . S
H841 C871 0.929 . S
H842 C874 0.928 . S
O843 Co827 2.057 . S
O843 C831 1.232 . S
H844 C863 0.929 . S
H845 C864 0.929 . S
H846 C876 0.931 . S
H847 C868 0.929 . S
H848 C877 0.930 . S
H849 C869 0.931 . S
O850 Co826 2.097 . S
O850 C878 1.214 . S
H851 C879 0.929 . S
H852 C880 0.929 . S
H853 C881 0.930 . S
H854 C882 0.929 . S
H855 C884 0.930 . S
H856 C861 0.930 . S
H857 C865 0.930 . S
O858 Co827 2.037 . S
O858 C878 1.234 . S
C859 O833 1.269 . S
C859 O834 1.257 . S
C860 H835 0.930 . S
C860 C863 1.388 . S
C860 C865 1.418 . S
C861 H856 0.930 . S
C861 C864 1.404 . S
C861 C865 1.353 . S
N862 Co827 2.145 . S
N862 C863 1.397 . S
N862 C864 1.334 . S
C863 H844 0.929 . S
C863 C860 1.388 . S
C863 N862 1.397 . S
C864 H845 0.929 . S
C864 C861 1.404 . S
C864 N862 1.334 . S
C865 H857 0.930 . S
C865 C860 1.418 . S
C865 C861 1.353 . S
C866 H836 0.930 . S
C866 N867 1.330 . S
C866 C868 1.446 . S
N867 Co826 2.151 . S
N867 C866 1.330 . S
N867 C871 1.418 . S
C868 H847 0.929 . S
C868 C866 1.446 . S
C868 C869 1.332 . S
C869 H849 0.931 . S
C869 C868 1.332 . S
C869 C870 1.267 . S
C870 H838 0.929 . S
C870 C869 1.267 . S
C870 C871 1.251 . S
C871 H841 0.929 . S
C871 N867 1.418 . S
C871 C870 1.251 . S
C872 H839 0.930 . S
C872 C874 1.406 . S
C872 C877 1.261 . S
C873 H840 0.930 . S
C873 N875 1.325 . S
C873 C876 1.357 . S
C874 H842 0.928 . S
C874 C872 1.406 . S
C874 N875 1.261 . S
N875 Co826 2.214 . S
N875 C873 1.325 . S
N875 C874 1.261 . S
C876 H846 0.931 . S
C876 C873 1.357 . S
C876 C877 1.312 . S
C877 H848 0.930 . S
C877 C872 1.261 . S
C877 C876 1.312 . S
C878 O850 1.214 . S
C878 O858 1.234 . S
C879 H851 0.929 . S
C879 C882 1.391 . S
C879 C884 1.391 . S
C880 H852 0.929 . S
C880 C881 1.390 . S
C880 N883 1.391 . S
C881 H853 0.930 . S
C881 C880 1.390 . S
C881 C882 1.392 . S
C882 H854 0.929 . S
C882 C879 1.391 . S
C882 C881 1.392 . S
N883 Co827 2.257 . S
N883 C880 1.391 . S
N883 C884 1.388 . S
C884 H855 0.930 . S
C884 C879 1.391 . S
C884 N883 1.388 . S
Co885 O887 2.143 . S
Co885 O893 2.074 . S
Co885 O896 2.093 . S
Co885 O909 2.097 1_655 S
Co885 N926 2.151 . S
Co885 N934 2.214 . S
Co886 O887 2.160 1_455 S
Co886 O892 2.058 1_455 S
Co886 O902 2.057 . S
Co886 O917 2.037 . S
Co886 N921 2.145 . S
Co886 N942 2.257 . S
O887 Co885 2.143 . S
O887 Co886 2.160 1_655 S
C888 O889 1.278 1_655 S
C888 O896 1.224 . S
O889 C888 1.278 1_455 S
C890 O891 1.219 1_455 S
C890 O902 1.256 . S
O891 C890 1.219 1_655 S
O892 Co886 2.058 1_655 S
O892 C918 1.269 . S
O893 Co885 2.074 . S
O893 C918 1.257 . S
H894 C919 0.930 . S
H895 C925 0.930 . S
O896 Co885 2.093 . S
O896 C888 1.224 . S
H897 C929 0.929 . S
H898 C931 0.930 . S
H899 C932 0.930 . S
H900 C930 0.929 . S
H901 C933 0.928 . S
O902 Co886 2.057 . S
O902 C890 1.256 . S
H903 C922 0.929 . S
H904 C923 0.929 . S
H905 C935 0.931 . S
H906 C927 0.929 . S
H907 C936 0.930 . S
H908 C928 0.931 . S
O909 Co885 2.097 1_455 S
O909 C937 1.214 . S
H910 C938 0.929 . S
H911 C939 0.929 . S
H912 C940 0.930 . S
H913 C941 0.929 . S
H914 C943 0.930 . S
H915 C920 0.930 . S
H916 C924 0.930 . S
O917 Co886 2.037 . S
O917 C937 1.234 . S
C918 O892 1.269 . S
C918 O893 1.257 . S
C919 H894 0.930 . S
C919 C922 1.388 . S
C919 C924 1.418 . S
C920 H915 0.930 . S
C920 C923 1.404 . S
C920 C924 1.353 . S
N921 Co886 2.145 . S
N921 C922 1.397 . S
N921 C923 1.334 . S
C922 H903 0.929 . S
C922 C919 1.388 . S
C922 N921 1.397 . S
C923 H904 0.929 . S
C923 C920 1.404 . S
C923 N921 1.334 . S
C924 H916 0.930 . S
C924 C919 1.418 . S
C924 C920 1.353 . S
C925 H895 0.930 . S
C925 N926 1.330 . S
C925 C927 1.446 . S
N926 Co885 2.151 . S
N926 C925 1.330 . S
N926 C930 1.418 . S
C927 H906 0.929 . S
C927 C925 1.446 . S
C927 C928 1.332 . S
C928 H908 0.931 . S
C928 C927 1.332 . S
C928 C929 1.267 . S
C929 H897 0.929 . S
C929 C928 1.267 . S
C929 C930 1.251 . S
C930 H900 0.929 . S
C930 N926 1.418 . S
C930 C929 1.251 . S
C931 H898 0.930 . S
C931 C933 1.406 . S
C931 C936 1.261 . S
C932 H899 0.930 . S
C932 N934 1.325 . S
C932 C935 1.357 . S
C933 H901 0.928 . S
C933 C931 1.406 . S
C933 N934 1.261 . S
N934 Co885 2.214 . S
N934 C932 1.325 . S
N934 C933 1.261 . S
C935 H905 0.931 . S
C935 C932 1.357 . S
C935 C936 1.312 . S
C936 H907 0.930 . S
C936 C931 1.261 . S
C936 C935 1.312 . S
C937 O909 1.214 . S
C937 O917 1.234 . S
C938 H910 0.929 . S
C938 C941 1.391 . S
C938 C943 1.391 . S
C939 H911 0.929 . S
C939 C940 1.390 . S
C939 N942 1.391 . S
C940 H912 0.930 . S
C940 C939 1.390 . S
C940 C941 1.392 . S
C941 H913 0.929 . S
C941 C938 1.391 . S
C941 C940 1.392 . S
N942 Co886 2.257 . S
N942 C939 1.391 . S
N942 C943 1.388 . S
C943 H914 0.930 . S
C943 C938 1.391 . S
C943 N942 1.388 . S
C944 C945 1.387 . S
C944 H948 0.950 . S
C944 C953 1.390 . S
C945 C944 1.387 . S
C945 C947 1.387 . S
H946 C953 0.950 . S
C947 C945 1.387 . S
C947 C949 1.390 . S
C947 H951 0.950 . S
H948 C944 0.950 . S
C949 C947 1.390 . S
C949 C950 1.387 . S
C949 H952 0.950 . S
C950 C949 1.387 . S
C950 C953 1.387 . S
H951 C947 0.950 . S
H952 C949 0.950 . S
C953 C944 1.390 . S
C953 H946 0.950 . S
C953 C950 1.387 . S
C954 C955 1.387 . S
C954 H958 0.950 . S
C954 C963 1.390 . S
C955 C954 1.387 . S
C955 C957 1.387 . S
H956 C963 0.950 . S
C957 C955 1.387 . S
C957 C959 1.390 . S
C957 H961 0.950 . S
H958 C954 0.950 . S
C959 C957 1.390 . S
C959 C960 1.387 . S
C959 H962 0.950 . S
C960 C959 1.387 . S
C960 C963 1.387 . S
H961 C957 0.950 . S
H962 C959 0.950 . S
C963 C954 1.390 . S
C963 H956 0.950 . S
C963 C960 1.387 . S
C964 C965 1.387 . S
C964 H968 0.950 . S
C964 C973 1.390 . S
C965 C964 1.387 . S
C965 C967 1.387 . S
H966 C973 0.950 . S
C967 C965 1.387 . S
C967 C969 1.390 . S
C967 H971 0.950 . S
H968 C964 0.950 . S
C969 C967 1.390 . S
C969 C970 1.387 . S
C969 H972 0.950 . S
C970 C969 1.387 . S
C970 C973 1.387 . S
H971 C967 0.950 . S
H972 C969 0.950 . S
C973 C964 1.390 . S
C973 H966 0.950 . S
C973 C970 1.387 . S
C974 C975 1.387 . S
C974 H978 0.950 . S
C974 C983 1.390 . S
C975 C974 1.387 . S
C975 C977 1.387 . S
H976 C983 0.950 . S
C977 C975 1.387 . S
C977 C979 1.390 . S
C977 H981 0.950 . S
H978 C974 0.950 . S
C979 C977 1.390 . S
C979 C980 1.387 . S
C979 H982 0.950 . S
C980 C979 1.387 . S
C980 C983 1.387 . S
H981 C977 0.950 . S
H982 C979 0.950 . S
C983 C974 1.390 . S
C983 H976 0.950 . S
C983 C980 1.387 . S
C984 C985 1.387 . S
C984 H988 0.950 . S
C984 C993 1.390 . S
C985 C984 1.387 . S
C985 C987 1.387 . S
H986 C993 0.950 . S
C987 C985 1.387 . S
C987 C989 1.390 . S
C987 H991 0.950 . S
H988 C984 0.950 . S
C989 C987 1.390 . S
C989 C990 1.387 . S
C989 H992 0.950 . S
C990 C989 1.387 . S
C990 C993 1.387 . S
H991 C987 0.950 . S
H992 C989 0.950 . S
C993 C984 1.390 . S
C993 H986 0.950 . S
C993 C990 1.387 . S
C994 C995 1.387 . S
C994 H998 0.950 . S
C994 C1003 1.390 . S
C995 C994 1.387 . S
C995 C997 1.387 . S
H996 C1003 0.950 . S
C997 C995 1.387 . S
C997 C999 1.390 . S
C997 H1001 0.950 . S
H998 C994 0.950 . S
C999 C997 1.390 . S
C999 C1000 1.387 . S
C999 H1002 0.950 . S
C1000 C999 1.387 . S
C1000 C1003 1.387 . S
H1001 C997 0.950 . S
H1002 C999 0.950 . S
C1003 C994 1.390 . S
C1003 H996 0.950 . S
C1003 C1000 1.387 . S
C1004 C1005 1.387 . S
C1004 H1008 0.950 . S
C1004 C1013 1.390 . S
C1005 C1004 1.387 . S
C1005 C1007 1.387 . S
H1006 C1013 0.950 . S
C1007 C1005 1.387 . S
C1007 C1009 1.390 . S
C1007 H1011 0.950 . S
H1008 C1004 0.950 . S
C1009 C1007 1.390 . S
C1009 C1010 1.387 . S
C1009 H1012 0.950 . S
C1010 C1009 1.387 . S
C1010 C1013 1.387 . S
H1011 C1007 0.950 . S
H1012 C1009 0.950 . S
C1013 C1004 1.390 . S
C1013 H1006 0.950 . S
C1013 C1010 1.387 . S
C1014 C1015 1.387 . S
C1014 H1018 0.950 . S
C1014 C1023 1.390 . S
C1015 C1014 1.387 . S
C1015 C1017 1.387 . S
H1016 C1023 0.950 . S
C1017 C1015 1.387 . S
C1017 C1019 1.390 . S
C1017 H1021 0.950 . S
H1018 C1014 0.950 . S
C1019 C1017 1.390 . S
C1019 C1020 1.387 . S
C1019 H1022 0.950 . S
C1020 C1019 1.387 . S
C1020 C1023 1.387 . S
H1021 C1017 0.950 . S
H1022 C1019 0.950 . S
C1023 C1014 1.390 . S
C1023 H1016 0.950 . S
C1023 C1020 1.387 . S
C1024 C1025 1.387 1_545 S
C1024 H1028 0.950 . S
C1024 C1033 1.390 . S
C1025 C1024 1.387 1_565 S
C1025 C1027 1.387 . S
H1026 C1033 0.950 . S
C1027 C1025 1.387 . S
C1027 C1029 1.390 . S
C1027 H1031 0.950 . S
H1028 C1024 0.950 . S
C1029 C1027 1.390 . S
C1029 C1030 1.387 . S
C1029 H1032 0.950 . S
C1030 C1029 1.387 . S
C1030 C1033 1.387 1_565 S
H1031 C1027 0.950 . S
H1032 C1029 0.950 . S
C1033 C1024 1.390 . S
C1033 H1026 0.950 . S
C1033 C1030 1.387 1_545 S
C1034 C1035 1.387 . S
C1034 H1038 0.950 . S
C1034 C1043 1.390 . S
C1035 C1034 1.387 . S
C1035 C1037 1.387 . S
H1036 C1043 0.950 . S
C1037 C1035 1.387 . S
C1037 C1039 1.390 . S
C1037 H1041 0.950 . S
H1038 C1034 0.950 . S
C1039 C1037 1.390 . S
C1039 C1040 1.387 . S
C1039 H1042 0.950 . S
C1040 C1039 1.387 . S
C1040 C1043 1.387 . S
H1041 C1037 0.950 . S
H1042 C1039 0.950 . S
C1043 C1034 1.390 . S
C1043 H1036 0.950 . S
C1043 C1040 1.387 . S
C1044 C1045 1.387 . S
C1044 H1048 0.950 . S
C1044 C1053 1.390 . S
C1045 C1044 1.387 . S
C1045 C1047 1.387 . S
H1046 C1053 0.950 . S
C1047 C1045 1.387 . S
C1047 C1049 1.390 . S
C1047 H1051 0.950 . S
H1048 C1044 0.950 . S
C1049 C1047 1.390 . S
C1049 C1050 1.387 . S
C1049 H1052 0.950 . S
C1050 C1049 1.387 . S
C1050 C1053 1.387 . S
H1051 C1047 0.950 . S
H1052 C1049 0.950 . S
C1053 C1044 1.390 . S
C1053 H1046 0.950 . S
C1053 C1050 1.387 . S
C1054 C1055 1.387 . S
C1054 H1058 0.950 . S
C1054 C1063 1.390 . S
C1055 C1054 1.387 . S
C1055 C1057 1.387 1_655 S
H1056 C1063 0.950 . S
C1057 C1055 1.387 1_455 S
C1057 C1059 1.390 . S
C1057 H1061 0.950 . S
H1058 C1054 0.950 . S
C1059 C1057 1.390 . S
C1059 C1060 1.387 1_455 S
C1059 H1062 0.950 . S
C1060 C1059 1.387 1_655 S
C1060 C1063 1.387 . S
H1061 C1057 0.950 . S
H1062 C1059 0.950 . S
C1063 C1054 1.390 . S
C1063 H1056 0.950 . S
C1063 C1060 1.387 . S
C1064 C1065 1.387 1_565 S
C1064 H1068 0.950 . S
C1064 C1073 1.390 . S
C1065 C1064 1.387 1_545 S
C1065 C1067 1.387 . S
H1066 C1073 0.950 . S
C1067 C1065 1.387 . S
C1067 C1069 1.390 . S
C1067 H1071 0.950 . S
H1068 C1064 0.950 . S
C1069 C1067 1.390 . S
C1069 C1070 1.387 . S
C1069 H1072 0.950 . S
C1070 C1069 1.387 . S
C1070 C1073 1.387 1_545 S
H1071 C1067 0.950 . S
H1072 C1069 0.950 . S
C1073 C1064 1.390 . S
C1073 H1066 0.950 . S
C1073 C1070 1.387 1_565 S
C1074 C1075 1.387 . S
C1074 H1078 0.950 . S
C1074 C1083 1.390 . S
C1075 C1074 1.387 . S
C1075 C1077 1.387 . S
H1076 C1083 0.950 . S
C1077 C1075 1.387 . S
C1077 C1079 1.390 . S
C1077 H1081 0.950 . S
H1078 C1074 0.950 . S
C1079 C1077 1.390 . S
C1079 C1080 1.387 . S
C1079 H1082 0.950 . S
C1080 C1079 1.387 . S
C1080 C1083 1.387 . S
H1081 C1077 0.950 . S
H1082 C1079 0.950 . S
C1083 C1074 1.390 . S
C1083 H1076 0.950 . S
C1083 C1080 1.387 . S
C1084 C1085 1.387 . S
C1084 H1088 0.950 . S
C1084 C1093 1.390 . S
C1085 C1084 1.387 . S
C1085 C1087 1.387 . S
H1086 C1093 0.950 . S
C1087 C1085 1.387 . S
C1087 C1089 1.390 . S
C1087 H1091 0.950 . S
H1088 C1084 0.950 . S
C1089 C1087 1.390 . S
C1089 C1090 1.387 . S
C1089 H1092 0.950 . S
C1090 C1089 1.387 . S
C1090 C1093 1.387 . S
H1091 C1087 0.950 . S
H1092 C1089 0.950 . S
C1093 C1084 1.390 . S
C1093 H1086 0.950 . S
C1093 C1090 1.387 . S
C1094 C1095 1.387 . S
C1094 H1098 0.950 . S
C1094 C1103 1.390 . S
C1095 C1094 1.387 . S
C1095 C1097 1.387 1_455 S
H1096 C1103 0.950 . S
C1097 C1095 1.387 1_655 S
C1097 C1099 1.390 1_655 S
C1097 H1101 0.950 . S
H1098 C1094 0.950 . S
C1099 C1097 1.390 1_455 S
C1099 C1100 1.387 . S
C1099 H1102 0.950 1_455 S
C1100 C1099 1.387 . S
C1100 C1103 1.387 . S
H1101 C1097 0.950 . S
H1102 C1099 0.950 1_655 S
C1103 C1094 1.390 . S
C1103 H1096 0.950 . S
C1103 C1100 1.387 . S
C1104 C1105 1.387 1_565 S
C1104 H1108 0.950 . S
C1104 C1113 1.390 . S
C1105 C1104 1.387 1_545 S
C1105 C1107 1.387 . S
H1106 C1113 0.950 . S
C1107 C1105 1.387 . S
C1107 C1109 1.390 . S
C1107 H1111 0.950 . S
H1108 C1104 0.950 . S
C1109 C1107 1.390 . S
C1109 C1110 1.387 . S
C1109 H1112 0.950 . S
C1110 C1109 1.387 . S
C1110 C1113 1.387 1_545 S
H1111 C1107 0.950 . S
H1112 C1109 0.950 . S
C1113 C1104 1.390 . S
C1113 H1106 0.950 . S
C1113 C1110 1.387 1_565 S
C1114 C1115 1.387 . S
C1114 H1118 0.950 . S
C1114 C1123 1.390 . S
C1115 C1114 1.387 . S
C1115 C1117 1.387 . S
H1116 C1123 0.950 . S
C1117 C1115 1.387 . S
C1117 C1119 1.390 . S
C1117 H1121 0.950 . S
H1118 C1114 0.950 . S
C1119 C1117 1.390 . S
C1119 C1120 1.387 . S
C1119 H1122 0.950 . S
C1120 C1119 1.387 . S
C1120 C1123 1.387 . S
H1121 C1117 0.950 . S
H1122 C1119 0.950 . S
C1123 C1114 1.390 . S
C1123 H1116 0.950 . S
C1123 C1120 1.387 . S
C1124 C1125 1.387 . S
C1124 H1128 0.950 . S
C1124 C1133 1.390 . S
C1125 C1124 1.387 . S
C1125 C1127 1.387 . S
H1126 C1133 0.950 . S
C1127 C1125 1.387 . S
C1127 C1129 1.390 . S
C1127 H1131 0.950 . S
H1128 C1124 0.950 . S
C1129 C1127 1.390 . S
C1129 C1130 1.387 . S
C1129 H1132 0.950 . S
C1130 C1129 1.387 . S
C1130 C1133 1.387 . S
H1131 C1127 0.950 . S
H1132 C1129 0.950 . S
C1133 C1124 1.390 . S
C1133 H1126 0.950 . S
C1133 C1130 1.387 . S
C1134 C1135 1.387 1_655 S
C1134 H1138 0.950 . S
C1134 C1143 1.390 . S
C1135 C1134 1.387 1_455 S
C1135 C1137 1.387 . S
H1136 C1143 0.950 . S
C1137 C1135 1.387 . S
C1137 C1139 1.390 . S
C1137 H1141 0.950 . S
H1138 C1134 0.950 . S
C1139 C1137 1.390 . S
C1139 C1140 1.387 . S
C1139 H1142 0.950 . S
C1140 C1139 1.387 . S
C1140 C1143 1.387 1_455 S
H1141 C1137 0.950 . S
H1142 C1139 0.950 . S
C1143 C1134 1.390 . S
C1143 H1136 0.950 . S
C1143 C1140 1.387 1_655 S
C1144 C1145 1.387 1_545 S
C1144 H1148 0.950 . S
C1144 C1153 1.390 . S
C1145 C1144 1.387 1_565 S
C1145 C1147 1.387 . S
H1146 C1153 0.950 . S
C1147 C1145 1.387 . S
C1147 C1149 1.390 . S
C1147 H1151 0.950 . S
H1148 C1144 0.950 . S
C1149 C1147 1.390 . S
C1149 C1150 1.387 . S
C1149 H1152 0.950 . S
C1150 C1149 1.387 . S
C1150 C1153 1.387 1_565 S
H1151 C1147 0.950 . S
H1152 C1149 0.950 . S
C1153 C1144 1.390 . S
C1153 H1146 0.950 . S
C1153 C1150 1.387 1_545 S
C1154 C1155 1.387 . S
C1154 H1158 0.950 . S
C1154 C1163 1.390 . S
C1155 C1154 1.387 . S
C1155 C1157 1.387 . S
H1156 C1163 0.950 . S
C1157 C1155 1.387 . S
C1157 C1159 1.390 . S
C1157 H1161 0.950 . S
H1158 C1154 0.950 . S
C1159 C1157 1.390 . S
C1159 C1160 1.387 . S
C1159 H1162 0.950 . S
C1160 C1159 1.387 . S
C1160 C1163 1.387 . S
H1161 C1157 0.950 . S
H1162 C1159 0.950 . S
C1163 C1154 1.390 . S
C1163 H1156 0.950 . S
C1163 C1160 1.387 . S
C1164 C1165 1.387 . S
C1164 H1168 0.950 . S
C1164 C1173 1.390 . S
C1165 C1164 1.387 . S
C1165 C1167 1.387 . S
H1166 C1173 0.950 . S
C1167 C1165 1.387 . S
C1167 C1169 1.390 . S
C1167 H1171 0.950 . S
H1168 C1164 0.950 . S
C1169 C1167 1.390 . S
C1169 C1170 1.387 . S
C1169 H1172 0.950 . S
C1170 C1169 1.387 . S
C1170 C1173 1.387 . S
H1171 C1167 0.950 . S
H1172 C1169 0.950 . S
C1173 C1164 1.390 . S
C1173 H1166 0.950 . S
C1173 C1170 1.387 . S
C1174 C1175 1.387 . S
C1174 H1178 0.950 1_655 S
C1174 C1183 1.390 1_655 S
C1175 C1174 1.387 . S
C1175 C1177 1.387 . S
H1176 C1183 0.950 . S
C1177 C1175 1.387 . S
C1177 C1179 1.390 . S
C1177 H1181 0.950 . S
H1178 C1174 0.950 1_455 S
C1179 C1177 1.390 . S
C1179 C1180 1.387 . S
C1179 H1182 0.950 . S
C1180 C1179 1.387 . S
C1180 C1183 1.387 1_655 S
H1181 C1177 0.950 . S
H1182 C1179 0.950 . S
C1183 C1174 1.390 1_455 S
C1183 H1176 0.950 . S
C1183 C1180 1.387 1_455 S
C1184 C1185 1.387 1_565 S
C1184 H1188 0.950 . S
C1184 C1193 1.390 . S
C1185 C1184 1.387 1_545 S
C1185 C1187 1.387 1_556 S
H1186 C1193 0.950 . S
C1187 C1185 1.387 1_554 S
C1187 C1189 1.390 . S
C1187 H1191 0.950 . S
H1188 C1184 0.950 . S
C1189 C1187 1.390 . S
C1189 C1190 1.387 1_545 S
C1189 H1192 0.950 . S
C1190 C1189 1.387 1_565 S
C1190 C1193 1.387 1_554 S
H1191 C1187 0.950 . S
H1192 C1189 0.950 . S
C1193 C1184 1.390 . S
C1193 H1186 0.950 . S
C1193 C1190 1.387 1_556 S
C1194 C1195 1.387 . S
C1194 H1198 0.950 . S
C1194 C1203 1.390 . S
C1195 C1194 1.387 . S
C1195 C1197 1.387 1_556 S
H1196 C1203 0.950 . S
C1197 C1195 1.387 1_554 S
C1197 C1199 1.390 . S
C1197 H1201 0.950 . S
H1198 C1194 0.950 . S
C1199 C1197 1.390 . S
C1199 C1200 1.387 . S
C1199 H1202 0.950 . S
C1200 C1199 1.387 . S
C1200 C1203 1.387 1_554 S
H1201 C1197 0.950 . S
H1202 C1199 0.950 . S
C1203 C1194 1.390 . S
C1203 H1196 0.950 . S
C1203 C1200 1.387 1_556 S
C1204 C1205 1.387 1_556 S
C1204 H1208 0.950 . S
C1204 C1213 1.390 1_655 S
C1205 C1204 1.387 1_554 S
C1205 C1207 1.387 . S
H1206 C1213 0.950 . S
C1207 C1205 1.387 . S
C1207 C1209 1.390 1_655 S
C1207 H1211 0.950 . S
H1208 C1204 0.950 . S
C1209 C1207 1.390 1_455 S
C1209 C1210 1.387 1_554 S
C1209 H1212 0.950 . S
C1210 C1209 1.387 1_556 S
C1210 C1213 1.387 . S
H1211 C1207 0.950 . S
H1212 C1209 0.950 . S
C1213 C1204 1.390 1_455 S
C1213 H1206 0.950 . S
C1213 C1210 1.387 . S
C1214 C1215 1.387 . S
C1214 H1218 0.950 . S
C1214 C1223 1.390 1_445 S
C1215 C1214 1.387 . S
C1215 C1217 1.387 1_556 S
H1216 C1223 0.950 . S
C1217 C1215 1.387 1_554 S
C1217 C1219 1.390 1_445 S
C1217 H1221 0.950 . S
H1218 C1214 0.950 . S
C1219 C1217 1.390 1_665 S
C1219 C1220 1.387 . S
C1219 H1222 0.950 . S
C1220 C1219 1.387 . S
C1220 C1223 1.387 1_554 S
H1221 C1217 0.950 . S
H1222 C1219 0.950 . S
C1223 C1214 1.390 1_665 S
C1223 H1216 0.950 . S
C1223 C1220 1.387 1_556 S
C1224 C1225 1.387 . S
C1224 H1228 0.950 . S
C1224 C1233 1.390 1_455 S
C1225 C1224 1.387 . S
C1225 C1227 1.387 1_545 S
H1226 C1233 0.950 . S
C1227 C1225 1.387 1_565 S
C1227 C1229 1.390 1_455 S
C1227 H1231 0.950 . S
H1228 C1224 0.950 . S
C1229 C1227 1.390 1_655 S
C1229 C1230 1.387 . S
C1229 H1232 0.950 . S
C1230 C1229 1.387 . S
C1230 C1233 1.387 1_565 S
H1231 C1227 0.950 . S
H1232 C1229 0.950 . S
C1233 C1224 1.390 1_655 S
C1233 H1226 0.950 . S
C1233 C1230 1.387 1_545 S
C1234 C1235 1.387 . S
C1234 H1238 0.950 . S
C1234 C1243 1.390 1_565 S
C1235 C1234 1.387 . S
C1235 C1237 1.387 . S
H1236 C1243 0.950 . S
C1237 C1235 1.387 . S
C1237 C1239 1.390 1_565 S
C1237 H1241 0.950 . S
H1238 C1234 0.950 . S
C1239 C1237 1.390 1_545 S
C1239 C1240 1.387 . S
C1239 H1242 0.950 . S
C1240 C1239 1.387 . S
C1240 C1243 1.387 . S
H1241 C1237 0.950 . S
H1242 C1239 0.950 . S
C1243 C1234 1.390 1_545 S
C1243 H1236 0.950 . S
C1243 C1240 1.387 . S
C1244 C1245 1.387 . S
C1244 H1248 0.950 . S
C1244 C1253 1.390 . S
C1245 C1244 1.387 . S
C1245 C1247 1.387 . S
H1246 C1253 0.950 . S
C1247 C1245 1.387 . S
C1247 C1249 1.390 . S
C1247 H1251 0.950 . S
H1248 C1244 0.950 . S
C1249 C1247 1.390 . S
C1249 C1250 1.387 . S
C1249 H1252 0.950 . S
C1250 C1249 1.387 . S
C1250 C1253 1.387 . S
H1251 C1247 0.950 . S
H1252 C1249 0.950 . S
C1253 C1244 1.390 . S
C1253 H1246 0.950 . S
C1253 C1250 1.387 . S
C1254 C1255 1.387 . S
C1254 H1258 0.950 . S
C1254 C1263 1.390 1_655 S
C1255 C1254 1.387 . S
C1255 C1257 1.387 . S
H1256 C1263 0.950 . S
C1257 C1255 1.387 . S
C1257 C1259 1.390 1_655 S
C1257 H1261 0.950 . S
H1258 C1254 0.950 . S
C1259 C1257 1.390 1_455 S
C1259 C1260 1.387 . S
C1259 H1262 0.950 . S
C1260 C1259 1.387 . S
C1260 C1263 1.387 . S
H1261 C1257 0.950 . S
H1262 C1259 0.950 . S
C1263 C1254 1.390 1_455 S
C1263 H1256 0.950 . S
C1263 C1260 1.387 . S
C945 C347 0.852 . S
C950 C52 0.849 . S
C955 C406 1.000 . S
C960 C111 0.999 . S
C965 C170 0.851 . S
C970 C465 0.847 . S
C975 C229 0.715 . S
C980 C288 0.711 . S
C985 C524 0.851 . S
C990 C819 0.850 . S
C995 C878 0.999 . S
C1000 C583 1.000 . S
C1005 C937 0.852 . S
C1010 C642 0.851 . S
C1015 C701 0.719 . S
C1020 C760 0.714 . S
C1025 C5 1.573 1_565 S
C1030 C711 1.490 . S
C1035 C770 1.654 . S
C1040 C64 1.785 . S
C1045 C123 1.803 . S
C1050 C829 1.701 . S
C1055 C182 1.615 . S
C1060 C888 1.537 . S
C1065 C241 1.615 . S
C1070 C475 1.537 . S
C1075 C300 1.803 . S
C1080 C534 1.702 . S
C1085 C359 1.787 . S
C1090 C593 1.657 . S
C1095 C418 1.574 1_455 S
C1100 C652 1.493 . S
C1105 C239 1.492 . S
C1110 C477 1.574 1_545 S
C1115 C298 1.657 . S
C1120 C536 1.786 . S
C1125 C357 1.702 . S
C1130 C595 1.803 . S
C1135 C654 1.616 . S
C1140 C416 1.539 . S
C1145 C3 1.540 . S
C1150 C713 1.616 . S
C1155 C772 1.803 . S
C1160 C62 1.700 . S
C1165 C831 1.786 . S
C1170 C121 1.656 . S
C1175 C180 1.490 . S
C1180 C890 1.573 1_655 S
C1185 C505 1.596 . S
C1190 C33 1.596 . S
C1195 C564 1.877 . S
C1200 C92 1.877 . S
C1205 C151 2.060 . S
C1210 C623 2.060 . S
C1215 C682 1.726 . S
C1220 C210 1.725 . S
C1225 C269 1.727 . S
C1230 C741 1.726 . S
C1235 C800 2.059 . S
C1240 C328 2.059 . S
C1245 C859 1.877 . S
C1250 C387 1.877 . S
C1255 C918 1.599 . S
C1260 C446 1.598 . S
