# Generated by pormake.
# Topology sms, (6)-cn, num edge types: 1
# Building blocks:
#     Node 0, Type 0, BuildingBlock: IZENUY_clean_sbu_0, # of connection points: 6
#     Node 1, Type 0, BuildingBlock: IZENUY_clean_sbu_0, # of connection points: 6
#     Node 2, Type 0, BuildingBlock: IZENUY_clean_sbu_0, # of connection points: 6
#     Node 3, Type 0, BuildingBlock: IZENUY_clean_sbu_0, # of connection points: 6
#     Node 4, Type 0, BuildingBlock: IZENUY_clean_sbu_0, # of connection points: 6
#     Node 5, Type 0, BuildingBlock: IZENUY_clean_sbu_0, # of connection points: 6
#     Node 6, Type 0, BuildingBlock: IZENUY_clean_sbu_0, # of connection points: 6
#     Node 7, Type 0, BuildingBlock: IZENUY_clean_sbu_0, # of connection points: 6
#     Node 8, Type 0, BuildingBlock: IZENUY_clean_sbu_0, # of connection points: 6
#     Node 9, Type 0, BuildingBlock: IZENUY_clean_sbu_0, # of connection points: 6
#     Node 10, Type 0, BuildingBlock: IZENUY_clean_sbu_0, # of connection points: 6
#     Node 11, Type 0, BuildingBlock: IZENUY_clean_sbu_0, # of connection points: 6
#     Node 12, Type 0, BuildingBlock: IZENUY_clean_sbu_0, # of connection points: 6
#     Node 13, Type 0, BuildingBlock: IZENUY_clean_sbu_0, # of connection points: 6
#     Node 14, Type 0, BuildingBlock: IZENUY_clean_sbu_0, # of connection points: 6
#     Node 15, Type 0, BuildingBlock: IZENUY_clean_sbu_0, # of connection points: 6
#     Node 16, Type 0, BuildingBlock: IZENUY_clean_sbu_0, # of connection points: 6
#     Node 17, Type 0, BuildingBlock: IZENUY_clean_sbu_0, # of connection points: 6
#     Edge 18, Type (0, 0), BuildingBlock: OJICUG_clean_linker_0, # of connection points: 2
#     Edge 19, Type (0, 0), BuildingBlock: OJICUG_clean_linker_0, # of connection points: 2
#     Edge 20, Type (0, 0), BuildingBlock: OJICUG_clean_linker_0, # of connection points: 2
#     Edge 21, Type (0, 0), BuildingBlock: OJICUG_clean_linker_0, # of connection points: 2
#     Edge 22, Type (0, 0), BuildingBlock: OJICUG_clean_linker_0, # of connection points: 2
#     Edge 23, Type (0, 0), BuildingBlock: OJICUG_clean_linker_0, # of connection points: 2
#     Edge 24, Type (0, 0), BuildingBlock: OJICUG_clean_linker_0, # of connection points: 2
#     Edge 25, Type (0, 0), BuildingBlock: OJICUG_clean_linker_0, # of connection points: 2
#     Edge 26, Type (0, 0), BuildingBlock: OJICUG_clean_linker_0, # of connection points: 2
#     Edge 27, Type (0, 0), BuildingBlock: OJICUG_clean_linker_0, # of connection points: 2
#     Edge 28, Type (0, 0), BuildingBlock: OJICUG_clean_linker_0, # of connection points: 2
#     Edge 29, Type (0, 0), BuildingBlock: OJICUG_clean_linker_0, # of connection points: 2
#     Edge 30, Type (0, 0), BuildingBlock: OJICUG_clean_linker_0, # of connection points: 2
#     Edge 31, Type (0, 0), BuildingBlock: OJICUG_clean_linker_0, # of connection points: 2
#     Edge 32, Type (0, 0), BuildingBlock: OJICUG_clean_linker_0, # of connection points: 2
#     Edge 33, Type (0, 0), BuildingBlock: OJICUG_clean_linker_0, # of connection points: 2
#     Edge 34, Type (0, 0), BuildingBlock: OJICUG_clean_linker_0, # of connection points: 2
#     Edge 35, Type (0, 0), BuildingBlock: OJICUG_clean_linker_0, # of connection points: 2
#     Edge 36, Type (0, 0), BuildingBlock: OJICUG_clean_linker_0, # of connection points: 2
#     Edge 37, Type (0, 0), BuildingBlock: OJICUG_clean_linker_0, # of connection points: 2
#     Edge 38, Type (0, 0), BuildingBlock: OJICUG_clean_linker_0, # of connection points: 2
#     Edge 39, Type (0, 0), BuildingBlock: OJICUG_clean_linker_0, # of connection points: 2
#     Edge 40, Type (0, 0), BuildingBlock: OJICUG_clean_linker_0, # of connection points: 2
#     Edge 41, Type (0, 0), BuildingBlock: OJICUG_clean_linker_0, # of connection points: 2
#     Edge 42, Type (0, 0), BuildingBlock: OJICUG_clean_linker_0, # of connection points: 2
#     Edge 43, Type (0, 0), BuildingBlock: OJICUG_clean_linker_0, # of connection points: 2
#     Edge 44, Type (0, 0), BuildingBlock: OJICUG_clean_linker_0, # of connection points: 2
#     Edge 45, Type (0, 0), BuildingBlock: OJICUG_clean_linker_0, # of connection points: 2
#     Edge 46, Type (0, 0), BuildingBlock: OJICUG_clean_linker_0, # of connection points: 2
#     Edge 47, Type (0, 0), BuildingBlock: OJICUG_clean_linker_0, # of connection points: 2
#     Edge 48, Type (0, 0), BuildingBlock: OJICUG_clean_linker_0, # of connection points: 2
#     Edge 49, Type (0, 0), BuildingBlock: OJICUG_clean_linker_0, # of connection points: 2
#     Edge 50, Type (0, 0), BuildingBlock: OJICUG_clean_linker_0, # of connection points: 2
#     Edge 51, Type (0, 0), BuildingBlock: OJICUG_clean_linker_0, # of connection points: 2
#     Edge 52, Type (0, 0), BuildingBlock: OJICUG_clean_linker_0, # of connection points: 2
#     Edge 53, Type (0, 0), BuildingBlock: OJICUG_clean_linker_0, # of connection points: 2
#     Edge 54, Type (0, 0), BuildingBlock: OJICUG_clean_linker_0, # of connection points: 2
#     Edge 55, Type (0, 0), BuildingBlock: OJICUG_clean_linker_0, # of connection points: 2
#     Edge 56, Type (0, 0), BuildingBlock: OJICUG_clean_linker_0, # of connection points: 2
#     Edge 57, Type (0, 0), BuildingBlock: OJICUG_clean_linker_0, # of connection points: 2
#     Edge 58, Type (0, 0), BuildingBlock: OJICUG_clean_linker_0, # of connection points: 2
#     Edge 59, Type (0, 0), BuildingBlock: OJICUG_clean_linker_0, # of connection points: 2
#     Edge 60, Type (0, 0), BuildingBlock: OJICUG_clean_linker_0, # of connection points: 2
#     Edge 61, Type (0, 0), BuildingBlock: OJICUG_clean_linker_0, # of connection points: 2
#     Edge 62, Type (0, 0), BuildingBlock: OJICUG_clean_linker_0, # of connection points: 2
#     Edge 63, Type (0, 0), BuildingBlock: OJICUG_clean_linker_0, # of connection points: 2
#     Edge 64, Type (0, 0), BuildingBlock: OJICUG_clean_linker_0, # of connection points: 2
#     Edge 65, Type (0, 0), BuildingBlock: OJICUG_clean_linker_0, # of connection points: 2
#     Edge 66, Type (0, 0), BuildingBlock: OJICUG_clean_linker_0, # of connection points: 2
#     Edge 67, Type (0, 0), BuildingBlock: OJICUG_clean_linker_0, # of connection points: 2
#     Edge 68, Type (0, 0), BuildingBlock: OJICUG_clean_linker_0, # of connection points: 2
#     Edge 69, Type (0, 0), BuildingBlock: OJICUG_clean_linker_0, # of connection points: 2
#     Edge 70, Type (0, 0), BuildingBlock: OJICUG_clean_linker_0, # of connection points: 2
#     Edge 71, Type (0, 0), BuildingBlock: OJICUG_clean_linker_0, # of connection points: 2
# Relax obj value: 0.430
# Max RMSD: 0.158
# Mean RMSD: 0.158
data_MOF--net-sms--node1-IZENUY_clean_sbu_0--edge1-OJICUG_clean_linker_0
_symmetry_space_group_name_H-M    P1
_symmetry_Int_Tables_number       1
_symmetry_cell_setting            triclinic
loop_
_symmetry_equiv_pos_as_xyz
'x, y, z'
_cell_length_a     28.487702
_cell_length_b     28.486027
_cell_length_c     43.442223
_cell_angle_alpha  90.038996
_cell_angle_beta   89.936021
_cell_angle_gamma 120.04763
loop_
_atom_site_label
_atom_site_type_symbol
_atom_site_fract_x
_atom_site_fract_y
_atom_site_fract_z
_atom_type_partial_charge
Fe0 Fe 0.23387 0.46537 0.11329 0.0
Fe1 Fe 0.17191 0.3426 0.10417 0.0
O2 O 0.20612 0.40895 0.0884 0.0
Fe3 Fe 0.21315 0.41981 0.04802 0.0
O4 O 0.28027 0.48202 0.05039 0.0
O5 O 0.30145 0.48667 0.09939 0.0
O6 O 0.24727 0.43171 0.14521 0.0
C7 C 0.25627 0.39265 0.14459 0.0
C8 C 0.19169 0.49893 0.06523 0.0
O9 O 0.2321 0.35456 0.12557 0.0
C10 C 0.10637 0.33097 0.05495 0.0
O11 O 0.16757 0.44647 0.12789 0.0
O12 O 0.14328 0.36139 0.13751 0.0
O13 O 0.17738 0.4578 0.0486 0.0
O14 O 0.22566 0.51032 0.08662 0.0
C15 C 0.23149 0.3348 0.05346 0.0
O16 O 0.10994 0.32613 0.08363 0.0
O17 O 0.14813 0.35957 0.03874 0.0
C18 C 0.13585 0.40172 0.14044 0.0
O19 O 0.19433 0.31289 0.07364 0.0
O20 O 0.24864 0.38268 0.04442 0.0
C21 C 0.31564 0.49787 0.07159 0.0
Fe22 Fe 0.55072 0.76739 0.11583 0.0
Fe23 Fe 0.6713 0.83386 0.10165 0.0
O24 O 0.60333 0.79829 0.08864 0.0
Fe25 Fe 0.58741 0.79363 0.04897 0.0
O26 O 0.52395 0.795 0.05497 0.0
O27 O 0.52413 0.81058 0.10463 0.0
O28 O 0.58704 0.81544 0.14692 0.0
C29 C 0.62258 0.86487 0.14481 0.0
C30 C 0.51375 0.69162 0.06787 0.0
O31 O 0.65836 0.88076 0.12406 0.0
C32 C 0.67946 0.78019 0.05135 0.0
O33 O 0.57499 0.72277 0.12766 0.0
O34 O 0.65871 0.78824 0.13521 0.0
O35 O 0.55201 0.71963 0.04952 0.0
O36 O 0.50417 0.71333 0.09045 0.0
C37 C 0.66952 0.89893 0.05267 0.0
O38 O 0.6874 0.7895 0.07987 0.0
O39 O 0.64839 0.79192 0.03647 0.0
C40 C 0.62141 0.73907 0.13874 0.0
O41 O 0.6956 0.88464 0.07033 0.0
O42 O 0.6209 0.86648 0.04567 0.0
C43 C 0.5086 0.81223 0.07765 0.0
Fe44 Fe 0.16592 0.83137 0.099 0.0
Fe45 Fe 0.21062 0.79121 0.04665 0.0
O46 O 0.19864 0.79588 0.08625 0.0
Fe47 Fe 0.21985 0.76513 0.11371 0.0
O48 O 0.15065 0.72049 0.12534 0.0
O49 O 0.1329 0.78624 0.13273 0.0
O50 O 0.10572 0.78666 0.07723 0.0
C51 C 0.10441 0.77667 0.04879 0.0
C52 C 0.2455 0.86304 0.14218 0.0
O53 O 0.14737 0.78814 0.03401 0.0
C54 C 0.30781 0.81067 0.07608 0.0
O55 O 0.19204 0.88169 0.06754 0.0
O56 O 0.24924 0.86416 0.04313 0.0
O57 O 0.23124 0.81353 0.14449 0.0
O58 O 0.22551 0.87879 0.12146 0.0
C59 C 0.18297 0.68932 0.06553 0.0
O60 O 0.27599 0.79374 0.05306 0.0
O61 O 0.28975 0.80832 0.10289 0.0
C62 C 0.23229 0.89611 0.04975 0.0
O63 O 0.17289 0.71722 0.04709 0.0
O64 O 0.21291 0.7109 0.08862 0.0
C65 C 0.12095 0.73716 0.13662 0.0
Fe66 Fe 0.41628 0.20917 0.99224 0.0
Fe67 Fe 0.45291 0.23552 0.92538 0.0
O68 O 0.40033 0.20457 0.95258 0.0
Fe69 Fe 0.33235 0.16901 0.93959 0.0
O70 O 0.31627 0.21335 0.96141 0.0
O71 O 0.3553 0.21086 1.00478 0.0
O72 O 0.45167 0.28317 0.99173 0.0
C73 C 0.48991 0.31121 0.97338 0.0
C74 C 0.33417 0.10388 0.98852 0.0
O75 O 0.49948 0.28955 0.95077 0.0
C76 C 0.38103 0.13806 0.89639 0.0
O77 O 0.47975 0.20781 0.9862 0.0
O78 O 0.47954 0.19233 0.93653 0.0
O79 O 0.30807 0.1182 0.97089 0.0
O80 O 0.3828 0.13632 0.99551 0.0
C81 C 0.38219 0.26384 0.90253 0.0
O82 O 0.41657 0.18749 0.89428 0.0
O83 O 0.34527 0.12215 0.91714 0.0
C84 C 0.4951 0.19066 0.96349 0.0
O85 O 0.42861 0.28014 0.9136 0.0
O86 O 0.3449 0.21466 0.90605 0.0
C87 C 0.32423 0.22263 0.98993 0.0
Fe88 Fe 0.83783 0.17142 0.94216 0.0
Fe89 Fe 0.79308 0.21157 0.99448 0.0
O90 O 0.8051 0.20691 0.95489 0.0
Fe91 Fe 0.78391 0.23766 0.92741 0.0
O92 O 0.77256 0.18927 0.89664 0.0
O93 O 0.77825 0.12401 0.91969 0.0
O94 O 0.81168 0.1211 0.97362 0.0
C95 C 0.77142 0.10667 0.9914 0.0
C96 C 0.88284 0.26564 0.90454 0.0
O97 O 0.75445 0.13863 0.998 0.0
C98 C 0.82074 0.31347 0.97559 0.0
O99 O 0.89801 0.21614 0.96394 0.0
O100 O 0.85632 0.21466 1.00715 0.0
O101 O 0.85312 0.28231 0.91581 0.0
O102 O 0.87089 0.21656 0.90843 0.0
C103 C 0.69591 0.19214 0.96501 0.0
O104 O 0.8308 0.28556 0.99405 0.0
O105 O 0.79082 0.29188 0.9525 0.0
C106 C 0.8993 0.22611 0.99239 0.0
O107 O 0.7277 0.20903 0.98805 0.0
O108 O 0.71399 0.19447 0.93821 0.0
C109 C 0.7583 0.13976 0.89896 0.0
Fe110 Fe 0.83171 0.66021 0.93711 0.0
Fe111 Fe 0.79051 0.58295 0.99325 0.0
O112 O 0.79751 0.59384 0.95287 0.0
Fe113 Fe 0.76972 0.53744 0.92796 0.0
O114 O 0.836 0.55634 0.91334 0.0
O115 O 0.86031 0.64143 0.90375 0.0
O116 O 0.89369 0.67664 0.95763 0.0
C117 C 0.89729 0.67179 0.9863 0.0
C118 C 0.74733 0.61021 0.89671 0.0
O119 O 0.85555 0.64317 1.00252 0.0
C120 C 0.68799 0.50494 0.96969 0.0
O121 O 0.80932 0.6899 0.96767 0.0
O122 O 0.75504 0.62009 0.99689 0.0
O123 O 0.75631 0.57115 0.89607 0.0
O124 O 0.77151 0.64828 0.91574 0.0
C125 C 0.81193 0.50383 0.97597 0.0
O126 O 0.72338 0.52076 0.99087 0.0
O127 O 0.70216 0.51616 0.94188 0.0
C128 C 0.77218 0.66798 0.98786 0.0
O129 O 0.82626 0.54495 0.99262 0.0
O130 O 0.77793 0.49246 0.9546 0.0
C131 C 0.86774 0.60111 0.90081 0.0
Fe132 Fe 0.9008 0.79872 0.44674 0.0
Fe133 Fe 0.83803 0.67599 0.43757 0.0
O134 O 0.87117 0.74237 0.4218 0.0
Fe135 Fe 0.87507 0.7533 0.38143 0.0
O136 O 0.94894 0.79057 0.38187 0.0
O137 O 0.95414 0.84326 0.42002 0.0
O138 O 0.94746 0.77867 0.46107 0.0
C139 C 0.93364 0.73364 0.4735 0.0
C140 C 0.85217 0.83224 0.40529 0.0
O141 O 0.88541 0.69402 0.47077 0.0
C142 C 0.77105 0.66915 0.38696 0.0
O143 O 0.85373 0.76553 0.47876 0.0
O144 O 0.79054 0.68903 0.45912 0.0
O145 O 0.87111 0.81596 0.38397 0.0
O146 O 0.85528 0.82108 0.43308 0.0
C147 C 0.89142 0.66354 0.38822 0.0
O148 O 0.78579 0.64691 0.40714 0.0
O149 O 0.80234 0.71691 0.37789 0.0
C150 C 0.80527 0.72722 0.47818 0.0
O151 O 0.88277 0.65856 0.41688 0.0
O152 O 0.87891 0.69263 0.37205 0.0
C153 C 0.9763 0.83157 0.39851 0.0
Fe154 Fe 0.24976 0.12395 0.3809 0.0
Fe155 Fe 0.21378 0.09703 0.44789 0.0
O156 O 0.26606 0.12823 0.42051 0.0
Fe157 Fe 0.33418 0.16387 0.43336 0.0
O158 O 0.35851 0.2147 0.40212 0.0
O159 O 0.28385 0.19691 0.37763 0.0
O160 O 0.18673 0.12606 0.38731 0.0
C161 C 0.17163 0.14281 0.41033 0.0
C162 C 0.34182 0.11008 0.38291 0.0
O163 O 0.18699 0.1402 0.43719 0.0
C164 C 0.28481 0.06899 0.47044 0.0
O165 O 0.21371 0.04998 0.38109 0.0
O166 O 0.16678 0.043 0.42254 0.0
O167 O 0.35028 0.11978 0.41138 0.0
O168 O 0.31021 0.1214 0.36822 0.0
C169 C 0.2858 0.19456 0.47688 0.0
O170 O 0.23837 0.05243 0.45931 0.0
O171 O 0.3219 0.11822 0.46685 0.0
C172 C 0.17548 0.02177 0.39939 0.0
O173 O 0.25043 0.14505 0.47901 0.0
O174 O 0.32128 0.21062 0.45595 0.0
C175 C 0.33267 0.22907 0.38436 0.0
Fe176 Fe 0.83199 0.16815 0.43404 0.0
Fe177 Fe 0.87619 0.1278 0.3816 0.0
O178 O 0.86474 0.13278 0.42123 0.0
Fe179 Fe 0.88641 0.10227 0.44856 0.0
O180 O 0.81743 0.05758 0.46046 0.0
O181 O 0.79912 0.12299 0.4678 0.0
O182 O 0.77166 0.12317 0.41237 0.0
C183 C 0.77037 0.11359 0.38389 0.0
C184 C 0.9119 0.20006 0.47704 0.0
O185 O 0.8133 0.12554 0.369 0.0
C186 C 0.97363 0.14692 0.41049 0.0
O187 O 0.85825 0.21847 0.40253 0.0
O188 O 0.91529 0.20065 0.37809 0.0
O189 O 0.89796 0.15066 0.47931 0.0
O190 O 0.89161 0.21569 0.45644 0.0
C191 C 0.84802 0.02605 0.40088 0.0
O192 O 0.94124 0.12962 0.38774 0.0
O193 O 0.95621 0.14552 0.43738 0.0
C194 C 0.89875 0.23287 0.38491 0.0
O195 O 0.83782 0.05378 0.38235 0.0
O196 O 0.87916 0.04804 0.42345 0.0
C197 C 0.78742 0.07397 0.47163 0.0
Fe198 Fe 0.00221 0.50587 0.27509 0.0
Fe199 Fe 0.08667 0.54592 0.32756 0.0
O200 O 0.07035 0.54148 0.28795 0.0
Fe201 Fe 0.12258 0.57249 0.26058 0.0
O202 O 0.09798 0.61702 0.24898 0.0
O203 O 0.01453 0.55114 0.24142 0.0
O204 O 0.98639 0.55031 0.29692 0.0
C205 C 0.99471 0.55997 0.32541 0.0
C206 C 0.05064 0.47462 0.23195 0.0
O207 O 0.02622 0.54858 0.34017 0.0
C208 C 0.16472 0.52683 0.29822 0.0
O209 O 0.97786 0.45537 0.30645 0.0
O210 O 0.05254 0.47299 0.33087 0.0
O211 O 0.08587 0.52417 0.22971 0.0
O212 O 0.0147 0.45871 0.25261 0.0
C213 C 0.16091 0.648 0.30894 0.0
O214 O 0.14971 0.54371 0.32123 0.0
O215 O 0.14933 0.5294 0.27138 0.0
C216 C 0.00371 0.44091 0.32412 0.0
O217 O 0.12276 0.61988 0.3273 0.0
O218 O 0.16958 0.62666 0.28582 0.0
C219 C 0.05168 0.60026 0.23759 0.0
Fe220 Fe 0.50422 0.50154 0.27352 0.0
Fe221 Fe 0.46015 0.54183 0.32602 0.0
O222 O 0.47158 0.53696 0.28638 0.0
Fe223 Fe 0.4499 0.56758 0.25906 0.0
O224 O 0.43844 0.51942 0.22809 0.0
O225 O 0.44447 0.45434 0.25112 0.0
O226 O 0.47777 0.45096 0.30495 0.0
C227 C 0.43741 0.43665 0.3227 0.0
C228 C 0.54917 0.59611 0.23628 0.0
O229 O 0.42097 0.46896 0.32952 0.0
C230 C 0.48829 0.64365 0.30686 0.0
O231 O 0.56461 0.54627 0.29525 0.0
O232 O 0.52297 0.54399 0.3386 0.0
O233 O 0.51888 0.61233 0.24724 0.0
O234 O 0.53733 0.547 0.23989 0.0
C235 C 0.36272 0.52284 0.2972 0.0
O236 O 0.49856 0.61586 0.32531 0.0
O237 O 0.45713 0.62172 0.28428 0.0
C238 C 0.56589 0.55592 0.32372 0.0
O239 O 0.39518 0.5401 0.31991 0.0
O240 O 0.38004 0.52429 0.27025 0.0
C241 C 0.42461 0.47004 0.2303 0.0
Fe242 Fe 0.4976 0.99375 0.27045 0.0
Fe243 Fe 0.46125 0.91649 0.32656 0.0
O244 O 0.46503 0.92737 0.28619 0.0
Fe245 Fe 0.43593 0.87099 0.26128 0.0
O246 O 0.48319 0.90446 0.22934 0.0
O247 O 0.54559 0.98143 0.249 0.0
O248 O 0.54977 0.02318 0.30093 0.0
C249 C 0.56494 1.00104 0.32095 0.0
C250 C 0.40237 0.9352 0.23418 0.0
O251 O 0.53396 0.95319 0.33 0.0
C252 C 0.36027 0.83793 0.30947 0.0
O253 O 0.45235 0.0105 0.29109 0.0
O254 O 0.45709 0.97702 0.33593 0.0
O255 O 0.38892 0.89039 0.24676 0.0
O256 O 0.45029 0.9753 0.23713 0.0
C257 C 0.48469 0.83785 0.30285 0.0
O258 O 0.38743 0.87895 0.32613 0.0
O259 O 0.38257 0.82632 0.28799 0.0
C260 C 0.44405 0.00572 0.3198 0.0
O261 O 0.46551 0.85398 0.32411 0.0
O262 O 0.48179 0.84915 0.27507 0.0
C263 C 0.53142 0.94329 0.22998 0.0
Fe264 Fe 0.50606 0.0092 0.77078 0.0
Fe265 Fe 0.54241 0.08649 0.71468 0.0
O266 O 0.53864 0.07559 0.75505 0.0
Fe267 Fe 0.56775 0.13195 0.77997 0.0
O268 O 0.61476 0.11253 0.79447 0.0
O269 O 0.55338 0.02763 0.80409 0.0
O270 O 0.55131 0.99246 0.75012 0.0
C271 C 0.55961 0.99726 0.72142 0.0
C272 C 0.47226 0.05964 0.81126 0.0
O273 O 0.54657 0.02597 0.70529 0.0
C274 C 0.51899 0.16513 0.73843 0.0
O275 O 0.4539 0.9798 0.74029 0.0
O276 O 0.4697 0.0498 0.71125 0.0
O277 O 0.5205 0.09846 0.81191 0.0
O278 O 0.45809 0.02152 0.79223 0.0
C279 C 0.6434 0.16504 0.73177 0.0
O280 O 0.53816 0.14901 0.71716 0.0
O281 O 0.5219 0.15381 0.7662 0.0
C282 C 0.43872 0.00195 0.72029 0.0
O283 O 0.61623 0.12403 0.71511 0.0
O284 O 0.62111 0.17664 0.75327 0.0
C285 C 0.60131 0.06771 0.80704 0.0
Fe286 Fe 0.88111 0.43044 0.7807 0.0
Fe287 Fe 1.00147 0.49707 0.76617 0.0
O288 O 0.93332 0.46148 0.75332 0.0
Fe289 Fe 0.91697 0.45706 0.71372 0.0
O290 O 0.85394 0.45927 0.72008 0.0
O291 O 0.85435 0.47353 0.76993 0.0
O292 O 0.91784 0.47874 0.81158 0.0
C293 C 0.95307 0.52829 0.80933 0.0
C294 C 0.84274 0.35497 0.73232 0.0
O295 O 0.98899 0.54422 0.78867 0.0
C296 C 0.00893 0.44301 0.71583 0.0
O297 O 0.90572 0.38591 0.79227 0.0
O298 O 0.98917 0.45178 0.79982 0.0
O299 O 0.88088 0.3831 0.71396 0.0
O300 O 0.83409 0.37629 0.75545 0.0
C301 C 0.99994 0.56207 0.71717 0.0
O302 O 0.01727 0.45266 0.74432 0.0
O303 O 0.97742 0.4544 0.70108 0.0
C304 C 0.95203 0.40265 0.80364 0.0
O305 O 0.0258 0.54759 0.73482 0.0
O306 O 0.95111 0.52999 0.71042 0.0
C307 C 0.83893 0.47612 0.74311 0.0
Fe308 Fe 0.49939 0.50143 0.76779 0.0
Fe309 Fe 0.5435 0.46114 0.7153 0.0
O310 O 0.53204 0.46601 0.75494 0.0
Fe311 Fe 0.55369 0.43538 0.78227 0.0
O312 O 0.48469 0.39064 0.79407 0.0
O313 O 0.46625 0.45598 0.80142 0.0
O314 O 0.43901 0.45671 0.74604 0.0
C315 C 0.43775 0.44706 0.71757 0.0
C316 C 0.57896 0.53292 0.81102 0.0
O317 O 0.48068 0.45898 0.70271 0.0
C318 C 0.6409 0.48012 0.74416 0.0
O319 O 0.52586 0.55202 0.73635 0.0
O320 O 0.58268 0.53402 0.7118 0.0
O321 O 0.56513 0.48354 0.81323 0.0
O322 O 0.55913 0.54863 0.79019 0.0
C323 C 0.51535 0.35932 0.73447 0.0
O324 O 0.60847 0.46288 0.72144 0.0
O325 O 0.62356 0.47867 0.7711 0.0
C326 C 0.56623 0.56632 0.71862 0.0
O327 O 0.50508 0.38712 0.71601 0.0
O328 O 0.54648 0.38125 0.75705 0.0
C329 C 0.4544 0.40686 0.80502 0.0
Fe330 Fe 0.75388 0.87901 0.66036 0.0
Fe331 Fe 0.78987 0.90591 0.59337 0.0
O332 O 0.73759 0.87471 0.62075 0.0
Fe333 Fe 0.66947 0.83907 0.60789 0.0
O334 O 0.65336 0.88316 0.62986 0.0
O335 O 0.69344 0.88156 0.67303 0.0
O336 O 0.78993 0.95299 0.66016 0.0
C337 C 0.82817 0.98119 0.64186 0.0
C338 C 0.67098 0.77388 0.65691 0.0
O339 O 0.83687 0.95994 0.61871 0.0
C340 C 0.71786 0.80837 0.56439 0.0
O341 O 0.81691 0.8769 0.65396 0.0
O342 O 0.81666 0.86274 0.60408 0.0
O343 O 0.64514 0.78824 0.63914 0.0
O344 O 0.7198 0.80605 0.66365 0.0
C345 C 0.71884 0.93393 0.57082 0.0
O346 O 0.75323 0.85788 0.56226 0.0
O347 O 0.68238 0.79231 0.58531 0.0
C348 C 0.83202 0.86014 0.63094 0.0
O349 O 0.76528 0.9505 0.58194 0.0
O350 O 0.68175 0.8847 0.5744 0.0
C351 C 0.66182 0.89287 0.65833 0.0
Fe352 Fe 0.12746 0.87518 0.65968 0.0
Fe353 Fe 0.11722 0.90069 0.59271 0.0
O354 O 0.1389 0.87019 0.62005 0.0
Fe355 Fe 0.17164 0.83481 0.60723 0.0
O356 O 0.14539 0.7845 0.63874 0.0
O357 O 0.08836 0.80234 0.66319 0.0
O358 O 0.06241 0.87337 0.65354 0.0
C359 C 0.03001 0.85605 0.63079 0.0
C360 C 0.23327 0.88938 0.65738 0.0
O361 O 0.04742 0.85745 0.6039 0.0
C362 C 0.2162 0.92898 0.56964 0.0
O363 O 0.16584 0.9492 0.65892 0.0
O364 O 0.12448 0.95493 0.61782 0.0
O365 O 0.23197 0.8798 0.6289 0.0
O366 O 0.19035 0.87744 0.67227 0.0
C367 C 0.09173 0.8029 0.56423 0.0
O368 O 0.1862 0.94538 0.58081 0.0
O369 O 0.2045 0.87996 0.57347 0.0
C370 C 0.15562 0.97693 0.64039 0.0
O371 O 0.10566 0.8523 0.56197 0.0
O372 O 0.11201 0.78727 0.58484 0.0
C373 C 0.10489 0.77011 0.65637 0.0
Fe374 Fe 0.16565 0.327 0.60368 0.0
Fe375 Fe 0.12858 0.24968 0.65982 0.0
O376 O 0.1325 0.26062 0.61944 0.0
Fe377 Fe 0.10288 0.20427 0.59451 0.0
O378 O 0.14997 0.23745 0.56249 0.0
O379 O 0.21315 0.31395 0.58214 0.0
O380 O 0.21788 0.35607 0.63411 0.0
C381 C 0.23261 0.33385 0.6543 0.0
C382 C 0.07005 0.26934 0.56774 0.0
O383 O 0.20131 0.28608 0.66337 0.0
C384 C 0.02737 0.1714 0.64272 0.0
O385 O 0.12091 0.34443 0.62435 0.0
O386 O 0.12473 0.31035 0.66918 0.0
O387 O 0.05622 0.22431 0.58017 0.0
O388 O 0.11827 0.30896 0.57047 0.0
C389 C 0.1515 0.17075 0.63597 0.0
O390 O 0.05471 0.2124 0.65937 0.0
O391 O 0.04954 0.15972 0.62122 0.0
C392 C 0.11223 0.33944 0.65302 0.0
O393 O 0.13255 0.18703 0.65728 0.0
O394 O 0.14841 0.18192 0.60818 0.0
C395 C 0.19842 0.27577 0.56308 0.0
C396 C 0.1858 0.6182 0.03324 0.0
C397 C 0.16656 0.6325 0.05934 0.0
H398 H 0.20834 0.56233 1.0144 0.0
C399 C 0.14474 0.59591 0.08394 0.0
H400 H 0.20383 0.64648 1.01432 0.0
C401 C 0.14779 0.5487 0.0841 0.0
C402 C 0.17214 0.53697 0.05955 0.0
H403 H 0.13019 0.60646 0.1044 0.0
H404 H 0.13554 0.52386 0.10465 0.0
C405 C 0.18856 0.57033 0.03333 0.0
C406 C 0.46266 0.59758 0.08575 0.0
C407 C 0.47387 0.63475 0.06183 0.0
H408 H 0.40355 0.52418 0.10731 0.0
C409 C 0.43663 0.62117 0.03768 0.0
H410 H 0.49074 0.60769 0.10476 0.0
C411 C 0.38615 0.5734 0.03925 0.0
C412 C 0.37256 0.53929 0.06514 0.0
H413 H 0.44417 0.64991 1.01936 0.0
H414 H 0.35621 0.56589 0.02169 0.0
C415 C 0.4125 0.55015 0.08737 0.0
C416 C 0.44914 0.8457 0.0984 0.0
C417 C 0.46328 0.82287 0.07396 0.0
H418 H 0.38911 0.86075 0.11788 0.0
C419 C 0.42986 0.80448 0.04777 0.0
H420 H 0.47458 0.86119 0.11865 0.0
C421 C 0.38062 0.80414 0.04733 0.0
C422 C 0.36422 0.82224 0.07308 0.0
H423 H 0.43992 0.78705 0.02846 0.0
H424 H 0.35395 0.78642 0.02774 0.0
C425 C 0.40014 0.84544 0.09795 0.0
C426 C 0.55463 0.15732 0.94266 0.0
C427 C 0.54045 0.18003 0.96714 0.0
H428 H 0.61468 0.14234 0.92313 0.0
C429 C 0.57383 0.1983 0.99335 0.0
H430 H 0.52923 0.14193 0.92239 0.0
C431 C 0.62306 0.19861 0.99377 0.0
C432 C 0.63951 0.18062 0.96799 0.0
H433 H 0.56374 0.21563 1.01269 0.0
H434 H 0.64969 0.21623 1.01339 0.0
C435 C 0.60363 0.15756 0.94309 0.0
C436 C 0.85575 0.45403 0.95701 0.0
C437 C 0.8315 0.46579 0.98161 0.0
H438 H 0.8733 0.39629 0.93667 0.0
C439 C 0.81521 0.43247 1.00784 0.0
H440 H 0.86791 0.47886 0.93645 0.0
C441 C 0.81799 0.38461 1.00792 0.0
C442 C 0.83713 0.37028 0.98177 0.0
H443 H 0.79551 0.4405 0.02681 0.0
H444 H 0.80006 0.35637 0.02686 0.0
C445 C 0.85884 0.40684 0.95716 0.0
C446 C 0.61752 0.42938 1.00201 0.0
C447 C 0.63108 0.46353 0.97615 0.0
H448 H 0.55952 0.35284 0.02187 0.0
C449 C 0.59112 0.45271 0.95394 0.0
H450 H 0.64747 0.43686 1.01955 0.0
C451 C 0.54096 0.40529 0.95555 0.0
C452 C 0.52978 0.36807 0.97944 0.0
H453 H 0.60006 0.47872 0.93402 0.0
H454 H 0.51287 0.39521 0.93655 0.0
C455 C 0.56704 0.38161 1.00358 0.0
C456 C 0.80552 0.93244 0.4194 0.0
C457 C 0.83098 0.96908 0.39517 0.0
H458 H 0.79171 0.85961 0.44138 0.0
C459 C 0.85418 0.95503 0.37096 0.0
H460 H 0.78791 0.94293 0.43846 0.0
C461 C 0.85692 0.90732 0.37272 0.0
C462 C 0.8369 0.87377 0.39887 0.0
H463 H 0.875 0.98336 0.35239 0.0
H464 H 0.87893 0.89942 0.35505 0.0
C465 C 0.80833 0.88512 0.42123 0.0
C466 C 0.0702 0.88047 0.41706 0.0
C467 C 0.03399 0.8693 0.39267 0.0
H468 H 0.14558 0.93791 0.4375 0.0
C469 C 0.05084 0.90338 0.36675 0.0
H470 H 0.05766 0.85509 0.4374 0.0
C471 C 0.10148 0.95133 0.36684 0.0
C472 C 0.13511 0.96504 0.39285 0.0
H473 H 0.02293 0.89588 0.34798 0.0
H474 H 0.11162 0.98009 0.3482 0.0
C475 C 0.12045 0.92781 0.4171 0.0
C476 C 0.09329 0.13735 0.3811 0.0
C477 C 0.12713 0.1548 0.40711 0.0
H478 H 0.01771 0.12146 0.36161 0.0
C479 C 0.11423 0.17813 0.43185 0.0
H480 H 0.1024 0.11957 0.36158 0.0
C481 C 0.06595 0.1793 0.43184 0.0
C482 C 0.02952 0.15707 0.40713 0.0
H483 H 0.14007 0.19294 0.45197 0.0
H484 H 0.05584 0.19495 0.45198 0.0
C485 C 0.04477 0.13846 0.38111 0.0
C486 C 0.29193 0.53136 0.32689 0.0
C487 C 0.30688 0.5127 0.30076 0.0
H488 H 0.23451 0.5503 0.34672 0.0
C489 C 0.27012 0.49029 0.27622 0.0
H490 H 0.31925 0.54849 0.34627 0.0
C491 C 0.22175 0.49128 0.2765 0.0
C492 C 0.20917 0.51475 0.30131 0.0
H493 H 0.28 0.47462 0.25601 0.0
H494 H 0.1956 0.47628 0.2565 0.0
C495 C 0.24337 0.5324 0.32716 0.0
C496 C 0.4819 0.71447 0.33687 0.0
C497 C 0.50529 0.70059 0.31268 0.0
H498 H 0.4572 0.77007 0.35287 0.0
C499 C 0.53111 0.73749 0.28861 0.0
H500 H 0.46081 0.68594 0.35531 0.0
C501 C 0.52856 0.78498 0.28692 0.0
C502 C 0.49982 0.79619 0.30924 0.0
H503 H 0.54888 0.72715 0.26956 0.0
H504 H 0.54551 0.81075 0.26689 0.0
C505 C 0.47938 0.76231 0.33524 0.0
C506 C 0.21605 0.74169 0.29096 0.0
C507 C 0.20128 0.70474 0.31535 0.0
H508 H 0.27902 0.81399 0.27041 0.0
C509 C 0.23492 0.71863 0.34137 0.0
H510 H 0.1909 0.73144 0.27055 0.0
C511 C 0.28565 0.76645 0.34133 0.0
C512 C 0.3026 0.80016 0.31527 0.0
H513 H 0.22467 0.69007 0.36013 0.0
H514 H 0.31352 0.7741 0.36015 0.0
C515 C 0.26641 0.78887 0.29086 0.0
C516 C 0.47514 0.218 0.75439 0.0
C517 C 0.50386 0.2068 0.73206 0.0
H518 H 0.45482 0.2758 0.77178 0.0
C519 C 0.52427 0.24068 0.70606 0.0
H520 H 0.45821 0.19222 0.77442 0.0
C521 C 0.52173 0.28851 0.70444 0.0
C522 C 0.49836 0.30238 0.72864 0.0
H523 H 0.54642 0.23291 0.68842 0.0
H524 H 0.5428 0.31704 0.68599 0.0
C525 C 0.47257 0.26547 0.75272 0.0
C526 C 0.73726 0.21407 0.75037 0.0
C527 C 0.70107 0.20281 0.72596 0.0
H528 H 0.81276 0.27147 0.77068 0.0
C529 C 0.718 0.23656 0.69991 0.0
H530 H 0.72465 0.18891 0.7708 0.0
C531 C 0.76873 0.28438 0.69989 0.0
C532 C 0.80237 0.29824 0.7259 0.0
H533 H 0.69012 0.22893 0.68111 0.0
H534 H 0.77896 0.31296 0.68114 0.0
C535 C 0.78762 0.26125 0.75028 0.0
C536 C 0.78184 0.51156 0.76488 0.0
C537 C 0.79446 0.48818 0.74004 0.0
H538 H 0.72356 0.52816 0.7854 0.0
C539 C 0.76029 0.47061 0.71418 0.0
H540 H 0.80797 0.5265 0.78489 0.0
C541 C 0.71173 0.47165 0.71446 0.0
C542 C 0.69675 0.49024 0.74061 0.0
H543 H 0.76918 0.45279 0.6946 0.0
H544 H 0.68444 0.45459 0.69506 0.0
C545 C 0.73347 0.51255 0.76517 0.0
C546 C 0.93768 0.82363 0.60945 0.0
C547 C 0.97413 0.84589 0.63415 0.0
H548 H 0.86356 0.80996 0.58932 0.0
C549 C 0.95888 0.86452 0.66017 0.0
H550 H 0.94779 0.80796 0.58931 0.0
C551 C 0.91036 0.86562 0.66018 0.0
C552 C 0.87651 0.84815 0.63417 0.0
H553 H 0.98595 0.88154 0.67966 0.0
H554 H 0.90125 0.88342 0.67969 0.0
C555 C 0.8894 0.82479 0.60945 0.0
C556 C 0.19535 0.11787 0.62004 0.0
C557 C 0.16677 0.12922 0.64239 0.0
H558 H 0.21578 0.06007 0.6028 0.0
C559 C 0.14673 0.09566 0.66854 0.0
H560 H 0.21198 0.14339 0.59989 0.0
C561 C 0.14947 0.04795 0.6703 0.0
C562 C 0.17267 0.0339 0.64609 0.0
H563 H 0.12472 0.10356 0.6862 0.0
H564 H 0.12863 0.01961 0.68886 0.0
C565 C 0.19816 0.07055 0.62187 0.0
C566 C 0.95281 0.09962 0.67448 0.0
C567 C 0.96967 0.13366 0.64855 0.0
H568 H 0.89202 0.02294 0.69306 0.0
C569 C 0.93346 0.12246 0.62415 0.0
H570 H 0.98071 0.10715 0.69326 0.0
C571 C 0.88322 0.07511 0.62412 0.0
C572 C 0.86854 0.03792 0.64839 0.0
H573 H 0.94601 0.14781 0.6038 0.0
H574 H 0.85809 0.06499 0.60372 0.0
C575 C 0.90217 0.05167 0.6744 0.0
C576 C 0.09634 0.38675 0.19361 0.0
C577 C 0.09676 0.40187 0.16278 0.0
H578 H 0.07942 0.39773 0.24051 0.0
C579 C 0.06934 0.42967 0.1549 0.0
H580 H 0.11798 0.36613 0.20033 0.0
C581 C 0.04753 0.44766 0.17771 0.0
C582 C 0.05208 0.4376 0.20882 0.0
H583 H 0.06896 0.44161 0.13127 0.0
H584 H 0.0316 0.47375 0.17124 0.0
C585 C 0.07415 0.4047 0.21657 0.0
C586 C 0.63734 0.72367 0.19301 0.0
C587 C 0.62452 0.70424 0.16275 0.0
H588 H 0.62313 0.70307 0.24087 0.0
C589 C 0.59935 0.64804 0.15745 0.0
H590 H 0.65591 0.7667 0.19772 0.0
C591 C 0.58139 0.61158 0.18213 0.0
C592 C 0.58746 0.63101 0.21237 0.0
H593 H 0.58863 0.63219 0.13425 0.0
H594 H 0.55701 0.56855 0.1774 0.0
C595 C 0.61841 0.68722 0.21769 0.0
C596 C 0.30816 0.90775 0.2194 0.0
C597 C 0.36351 0.93532 0.2117 0.0
H598 H 0.22648 0.86409 0.2028 0.0
C599 C 0.37868 0.95049 0.18091 0.0
H600 H 0.29547 0.89576 0.24299 0.0
C601 C 0.33885 0.93279 0.15782 0.0
C602 C 0.28369 0.90011 0.16539 0.0
H603 H 0.42105 0.97094 0.17432 0.0
H604 H 0.35143 0.93974 0.13392 0.0
C605 C 0.26863 0.89004 0.19646 0.0
C606 C 0.41269 0.0732 0.88548 0.0
C607 C 0.38577 0.10026 0.87526 0.0
H608 H 0.46182 0.03864 0.87264 0.0
C609 C 0.37912 0.10413 0.84352 0.0
H610 H 0.41989 0.07143 0.90983 0.0
C611 C 0.40212 0.08441 0.82229 0.0
C612 C 0.43314 0.06173 0.83255 0.0
H613 H 0.36006 0.12639 0.83515 0.0
H614 H 0.40007 0.09161 0.79797 0.0
C615 C 0.4368 0.05463 0.86425 0.0
C616 C 0.96869 0.39052 0.85836 0.0
C617 C 0.95494 0.36908 0.82853 0.0
H618 H 0.95614 0.37318 0.90665 0.0
C619 C 0.9294 0.31256 0.82445 0.0
H620 H 0.98755 0.43384 0.86213 0.0
C621 C 0.91239 0.27782 0.84991 0.0
C622 C 0.91963 0.29926 0.87973 0.0
H623 H 0.91791 0.29517 0.80161 0.0
H624 H 0.88797 0.2345 0.84612 0.0
C625 C 0.95056 0.35578 0.88383 0.0
C626 C 0.61036 0.56708 0.86391 0.0
C627 C 0.62133 0.57083 0.83221 0.0
H628 H 0.64312 0.57924 0.9096 0.0
C629 C 0.6755 0.5975 0.8222 0.0
H630 H 0.56888 0.54508 0.87213 0.0
C631 C 0.71786 0.61573 0.8436 0.0
C632 C 0.70661 0.60866 0.87527 0.0
H633 H 0.68481 0.59915 0.79789 0.0
H634 H 0.75896 0.63138 0.83537 0.0
C635 C 0.65277 0.58643 0.8853 0.0
C636 C 0.95614 0.55523 0.86358 0.0
C637 C 0.95161 0.5653 0.83247 0.0
H638 H 0.93465 0.56125 0.91 0.0
C639 C 0.92953 0.5982 0.82471 0.0
H640 H 0.97207 0.52916 0.87005 0.0
C641 C 0.90731 0.61612 0.84766 0.0
C642 C 0.90686 0.60099 0.87849 0.0
H643 H 0.92428 0.60517 0.80076 0.0
H644 H 0.88566 0.63673 0.84093 0.0
C645 C 0.93429 0.57321 0.88638 0.0
C646 C 0.40425 0.35489 0.88385 0.0
C647 C 0.37906 0.29869 0.87853 0.0
H648 H 0.4466 0.43439 0.86392 0.0
C649 C 0.36621 0.27928 0.84827 0.0
H650 H 0.41499 0.37071 0.90706 0.0
C651 C 0.38514 0.31577 0.8236 0.0
C652 C 0.41611 0.37197 0.82894 0.0
H653 H 0.34762 0.23626 0.84355 0.0
H654 H 0.3804 0.29994 0.80041 0.0
C655 C 0.4222 0.39137 0.85918 0.0
C656 C 0.69553 0.09509 0.82176 0.0
C657 C 0.64019 0.06755 0.82948 0.0
H658 H 0.77723 0.1387 0.83832 0.0
C659 C 0.62506 0.05235 0.86028 0.0
H660 H 0.70819 0.10709 0.79817 0.0
C661 C 0.66492 0.07002 0.88335 0.0
C662 C 0.72007 0.10269 0.87575 0.0
H663 H 0.58269 0.03192 0.86688 0.0
H664 H 0.65237 0.06307 0.90726 0.0
C665 C 0.73508 0.11276 0.84468 0.0
C666 C 0.59094 0.92973 0.15574 0.0
C667 C 0.61787 0.90268 0.16594 0.0
H668 H 0.54181 0.96429 0.1686 0.0
C669 C 0.62456 0.89883 0.19768 0.0
H670 H 0.58371 0.9315 0.13139 0.0
C671 C 0.60157 0.91854 0.21892 0.0
C672 C 0.57054 0.94121 0.20868 0.0
H673 H 0.64363 0.87657 0.20604 0.0
H674 H 0.60364 0.91135 0.24324 0.0
C675 C 0.56684 0.9483 0.17698 0.0
C676 C 0.05327 0.64703 0.15737 0.0
C677 C 0.08417 0.70356 0.16145 0.0
H678 H 0.01627 0.569 0.17907 0.0
C679 C 0.09136 0.72503 0.19125 0.0
H680 H 0.04773 0.62962 0.13455 0.0
C681 C 0.07432 0.69031 0.21673 0.0
C682 C 0.0488 0.63379 0.21267 0.0
H683 H 0.11575 0.76836 0.19503 0.0
H684 H 0.08577 0.70774 0.23957 0.0
C685 C 0.0351 0.61232 0.18284 0.0
C686 C 0.32809 0.40548 0.21912 0.0
C687 C 0.38226 0.43212 0.20912 0.0
H688 H 0.24462 0.37159 0.20595 0.0
C689 C 0.39323 0.43582 0.17741 0.0
H690 H 0.31878 0.40387 0.24343 0.0
C691 C 0.35081 0.41644 0.15602 0.0
C692 C 0.29698 0.39423 0.16605 0.0
H693 H 0.43471 0.45781 0.16919 0.0
H694 H 0.36046 0.4236 0.13172 0.0
C695 C 0.28573 0.38722 0.19772 0.0
C696 C 0.71572 0.77556 0.51114 0.0
C697 C 0.72194 0.77064 0.54283 0.0
H698 H 0.73573 0.76276 0.46541 0.0
C699 C 0.74709 0.74167 0.55272 0.0
H700 H 0.69795 0.79916 0.50303 0.0
C701 C 0.76993 0.72212 0.53123 0.0
C702 C 0.76671 0.73012 0.49959 0.0
H703 H 0.75391 0.73898 0.57703 0.0
H704 H 0.79373 0.70459 0.5394 0.0
C705 C 0.7374 0.75485 0.48967 0.0
C706 C 0.30246 0.05505 0.52469 0.0
C707 C 0.28815 0.03462 0.49468 0.0
H708 H 0.2905 0.03607 0.57281 0.0
C709 C 0.26245 0.97824 0.48995 0.0
H710 H 0.32149 0.09824 0.52896 0.0
C711 C 0.24563 0.94263 0.51502 0.0
C712 C 0.25332 0.96308 0.54509 0.0
H713 H 0.25058 0.96162 0.46697 0.0
H714 H 0.22093 0.89946 0.5108 0.0
C715 C 0.2846 0.01944 0.54976 0.0
C716 C 0.97595 0.24364 0.55382 0.0
C717 C 0.0311 0.2704 0.54573 0.0
H718 H 0.89392 0.20142 0.53775 0.0
C719 C 0.04583 0.28598 0.51494 0.0
H720 H 0.96364 0.2314 0.57743 0.0
C721 C 0.0056 0.26924 0.49215 0.0
C722 C 0.95052 0.23717 0.50005 0.0
H723 H 0.08804 0.30591 0.50807 0.0
H724 H 0.01772 0.27625 0.46818 0.0
C725 C 0.93602 0.22696 0.53119 0.0
C726 C 0.23382 0.28089 0.51003 0.0
C727 C 0.237 0.27285 0.54167 0.0
H728 H 0.24986 0.26405 0.46424 0.0
C729 C 0.26624 0.24805 0.5516 0.0
H730 H 0.21007 0.29847 0.50187 0.0
C731 C 0.2879 0.22733 0.53013 0.0
C732 C 0.28174 0.23229 0.49844 0.0
H733 H 0.26787 0.24012 0.57586 0.0
H734 H 0.30562 0.20368 0.53825 0.0
C735 C 0.25665 0.26132 0.48855 0.0
C736 C 0.758 0.0603 0.52625 0.0
C737 C 0.75031 0.03986 0.49618 0.0
H738 H 0.75307 0.04131 0.57429 0.0
C739 C 0.71903 0.98351 0.4915 0.0
H740 H 0.78271 0.10347 0.53047 0.0
C741 C 0.70117 0.94789 0.51657 0.0
C742 C 0.71549 0.96831 0.54658 0.0
H743 H 0.71313 0.96689 0.46845 0.0
H744 H 0.68215 0.9047 0.51228 0.0
C745 C 0.74119 0.02469 0.55132 0.0
C746 C 0.06764 0.77603 0.51009 0.0
C747 C 0.05311 0.76579 0.54123 0.0
H748 H 0.04008 0.77161 0.46384 0.0
C749 C 0.99802 0.73371 0.5491 0.0
H750 H 0.10976 0.80157 0.50355 0.0
C751 C 0.95782 0.71698 0.5263 0.0
C752 C 0.97257 0.73258 0.49552 0.0
H753 H 0.98589 0.72669 0.57308 0.0
H754 H 0.9156 0.69705 0.53316 0.0
C755 C 0.02774 0.75935 0.48744 0.0
C756 C 0.26278 0.31072 1.0057 0.0
C757 C 0.25154 0.30267 0.03737 0.0
H758 H 0.29347 0.29081 0.96587 0.0
C759 C 0.26188 0.26592 0.05326 0.0
H760 H 0.25486 0.33863 0.99287 0.0
C761 C 0.28521 0.23931 0.03787 0.0
C762 C 0.29695 0.24791 1.00621 0.0
H763 H 0.25369 0.25924 0.07771 0.0
H764 H 0.29423 0.2122 0.05072 0.0
C765 C 0.2846 0.28314 0.99021 0.0
C766 C 0.7763 0.02812 1.01406 0.0
C767 C 0.74603 0.05326 1.00675 0.0
H768 H 0.77609 0.95985 0.03525 0.0
C769 C 0.69109 0.02776 1.01517 0.0
H770 H 0.81886 0.04718 1.00804 0.0
C771 C 0.66661 0.97777 0.03019 0.0
C772 C 0.69683 0.95276 0.0378 0.0
H773 H 0.6668 0.04621 1.00981 0.0
H774 H 0.62398 0.95879 0.03608 0.0
C775 C 0.75204 0.97854 0.02985 0.0
C776 C 0.99923 0.72339 0.9849 0.0
C777 C 0.95065 0.70138 1.00179 0.0
H778 H 0.08605 0.76424 0.98646 0.0
C779 C 0.9533 0.70609 0.03405 0.0
H780 H 0.99854 0.72024 0.96004 0.0
C781 C 0.00321 0.73148 0.04912 0.0
C782 C 0.05183 0.75244 0.03237 0.0
H783 H 0.9167 0.68979 0.04779 0.0
H784 H 0.00354 0.73371 0.07402 0.0
C785 C 0.04934 0.74842 1.00006 0.0
C786 C 0.71897 0.71957 0.05109 0.0
C787 C 0.70675 0.75489 0.0351 0.0
H788 H 0.74862 0.664 0.04843 0.0
C789 C 0.7186 0.76357 1.00345 0.0
H790 H 0.71002 0.71186 0.07543 0.0
C791 C 0.74191 0.73694 0.98807 0.0
C792 C 0.75213 0.7001 1.00395 0.0
H793 H 0.70967 0.79075 0.99061 0.0
H794 H 0.75019 0.74368 0.96363 0.0
C795 C 0.74078 0.69198 0.03561 0.0
C796 C 0.22741 0.9747 0.02713 0.0
C797 C 0.25768 0.94953 0.0344 0.0
H798 H 0.22763 0.043 1.00599 0.0
C799 C 0.31259 0.975 0.02594 0.0
H800 H 0.18487 0.95565 0.03318 0.0
C801 C 0.33707 0.025 1.01093 0.0
C802 C 0.30687 0.05004 1.00337 0.0
H803 H 0.33688 0.95652 0.03126 0.0
H804 H 0.37969 0.04396 1.00502 0.0
C805 C 0.25167 0.02429 1.01135 0.0
C806 C 0.95432 0.25438 0.04114 0.0
C807 C 0.95186 0.25033 1.00883 0.0
H808 H 0.00508 0.28257 0.08118 0.0
C809 C 1.0005 0.27125 0.9921 0.0
H810 H 0.9176 0.2386 0.05473 0.0
C811 C 0.05039 0.29662 1.00719 0.0
C812 C 0.05301 0.30136 0.03945 0.0
H813 H 1.00019 0.26899 0.9672 0.0
H814 H 0.08701 0.31289 0.99346 0.0
C815 C 0.00441 0.2794 0.05632 0.0
C816 C 0.91319 0.62939 0.3404 0.0
C817 C 0.91511 0.63392 0.37266 0.0
H818 H 0.93629 0.60234 0.30033 0.0
C819 C 0.94178 0.61203 0.38948 0.0
H820 H 0.89281 0.6456 0.32671 0.0
C821 C 0.96718 0.58739 0.37424 0.0
C822 C 0.9659 0.58366 0.34191 0.0
H823 H 0.94415 0.61507 0.41435 0.0
H824 H 0.9882 0.57172 0.38778 0.0
C825 C 0.93805 0.60439 0.32523 0.0
C826 C 0.35607 0.35784 0.34577 0.0
C827 C 0.41123 0.383 0.33784 0.0
H828 H 0.28814 0.28932 0.36645 0.0
C829 C 0.44093 0.35749 0.34566 0.0
H830 H 0.3322 0.37659 0.34002 0.0
C831 C 0.41593 0.30799 0.36156 0.0
C832 C 0.36054 0.28264 0.36913 0.0
H833 H 0.48363 0.37628 0.34002 0.0
H834 H 0.4396 0.2891 0.36742 0.0
C835 C 0.33087 0.30793 0.3609 0.0
C836 C 0.62076 0.02468 0.36847 0.0
C837 C 0.61731 0.03295 0.33687 0.0
H838 H 0.67168 0.04462 0.40812 0.0
C839 C 0.6643 0.06989 0.32088 0.0
H840 H 0.58501 0.99662 0.38137 0.0
C841 C 0.71438 0.09659 0.33611 0.0
C842 C 0.71773 0.08789 0.36772 0.0
H843 H 0.66259 0.07674 0.29648 0.0
H844 H 0.75041 0.12393 0.3232 0.0
C845 C 0.67028 0.05235 0.38381 0.0
C846 C 0.39826 0.06541 0.38293 0.0
C847 C 0.3704 0.08622 0.36633 0.0
H848 H 0.4432 0.0239 0.38132 0.0
C849 C 0.36876 0.08228 0.33401 0.0
H850 H 0.40027 0.0676 0.40782 0.0
C851 C 0.39382 0.05737 0.3187 0.0
C852 C 0.42051 0.03542 0.33543 0.0
H853 H 0.3477 0.09799 0.32053 0.0
H854 H 0.3912 0.05421 0.29383 0.0
C855 C 0.42278 0.04015 0.36769 0.0
C856 C 0.0055 0.36192 0.34727 0.0
C857 C 0.97584 0.38728 0.33918 0.0
H858 H 0.00404 0.293 0.36784 0.0
C859 C 0.92041 0.36185 0.3466 0.0
H860 H 0.04827 0.38062 0.3418 0.0
C861 C 0.89532 0.31215 0.36225 0.0
C862 C 0.92499 0.28658 0.36994 0.0
H863 H 0.89677 0.38082 0.34082 0.0
H864 H 0.85258 0.29328 0.3678 0.0
C865 C 0.9802 0.31182 0.36215 0.0
C866 C 0.7153 0.64586 0.33938 0.0
C867 C 0.71872 0.63735 0.37096 0.0
H868 H 0.66448 0.6258 0.29967 0.0
C869 C 0.67179 0.59993 0.38683 0.0
H870 H 0.75099 0.67425 0.32656 0.0
C871 C 0.62182 0.57296 0.37151 0.0
C872 C 0.6185 0.58184 0.33992 0.0
H873 H 0.67346 0.59285 0.41119 0.0
H874 H 0.58583 0.54525 0.38433 0.0
C875 C 0.66588 0.6179 0.32395 0.0
C876 C 0.63486 0.92066 0.70722 0.0
C877 C 0.63325 0.91675 0.6749 0.0
H878 H 0.61238 0.94871 0.74739 0.0
C879 C 0.60544 0.93761 0.6583 0.0
H880 H 0.65587 0.90491 0.72071 0.0
C881 C 0.58093 0.96288 0.67352 0.0
C882 C 0.58315 0.96757 0.70578 0.0
H883 H 0.60347 0.93544 0.6334 0.0
H884 H 0.56055 0.97916 0.65989 0.0
C885 C 0.6098 0.94558 0.72253 0.0
C886 C 0.02345 0.69118 0.67916 0.0
C887 C 0.07865 0.71641 0.67135 0.0
H888 H 0.95539 0.62239 0.69953 0.0
C889 C 0.10832 0.69081 0.67902 0.0
H890 H 0.99962 0.71001 0.67349 0.0
C891 C 0.08323 0.64112 0.69467 0.0
C892 C 0.02781 0.6157 0.70211 0.0
H893 H 0.15105 0.70968 0.67345 0.0
H894 H 0.10686 0.62214 0.70043 0.0
C895 C 0.99816 0.64108 0.69404 0.0
C896 C 0.33188 0.40304 0.65444 0.0
C897 C 0.28494 0.36564 0.67031 0.0
H898 H 0.41784 0.4577 0.65695 0.0
C899 C 0.28834 0.35716 0.70189 0.0
H900 H 0.33022 0.41011 0.63007 0.0
C901 C 0.33775 0.38511 0.71733 0.0
C902 C 0.38514 0.42114 0.70136 0.0
H903 H 0.25263 0.32878 0.71471 0.0
H904 H 0.33914 0.37722 0.74162 0.0
C905 C 0.38185 0.43 0.66977 0.0
C906 C 0.06563 0.39862 0.71599 0.0
C907 C 0.03774 0.41931 0.69932 0.0
H908 H 0.11089 0.35745 0.71451 0.0
C909 C 0.03642 0.41555 0.66699 0.0
H910 H 0.06741 0.4007 0.74089 0.0
C911 C 0.06183 0.39091 0.65175 0.0
C912 C 0.08854 0.36907 0.66857 0.0
H913 H 0.01537 0.43119 0.65345 0.0
H914 H 0.05943 0.38784 0.62688 0.0
C915 C 0.09049 0.37363 0.70083 0.0
C916 C 0.64758 0.64514 0.69554 0.0
C917 C 0.59241 0.61997 0.70347 0.0
H918 H 0.71552 0.71366 0.67487 0.0
C919 C 0.56271 0.64547 0.69563 0.0
H920 H 0.67145 0.62641 0.70132 0.0
C921 C 0.58771 0.69496 0.67972 0.0
C922 C 0.6431 0.72032 0.67216 0.0
H923 H 0.52001 0.62668 0.70126 0.0
H924 H 0.56404 0.71385 0.67385 0.0
C925 C 0.67278 0.69504 0.68041 0.0
C926 C 0.28929 0.90638 0.70514 0.0
C927 C 0.28592 0.9151 0.67354 0.0
H928 H 0.34109 0.92622 0.74476 0.0
C929 C 0.33335 0.95066 0.65745 0.0
H930 H 0.25326 0.87902 0.71805 0.0
C931 C 0.38288 0.97833 0.67278 0.0
C932 C 0.38634 0.97005 0.70437 0.0
H933 H 0.33194 0.9584 0.63314 0.0
H934 H 0.41862 0.00641 0.65987 0.0
C935 C 0.33937 0.93309 0.72037 0.0
loop_
_geom_bond_atom_site_label_1
_geom_bond_atom_site_label_2
_geom_bond_distance
_geom_bond_site_symmetry_2
_ccdc_geom_bond_type
Fe0 O2 1.918 . S
Fe0 O5 1.997 . S
Fe0 O6 2.002 . S
Fe0 O11 1.976 . S
Fe0 O14 1.996 . S
Fe1 O2 1.918 . S
Fe1 O9 1.997 . S
Fe1 O12 1.996 . S
Fe1 O16 1.976 . S
Fe1 O19 2.002 . S
O2 Fe0 1.918 . S
O2 Fe1 1.918 . S
O2 Fe3 1.918 . S
Fe3 O2 1.918 . S
Fe3 O4 2.002 . S
Fe3 O13 1.976 . S
Fe3 O17 1.996 . S
Fe3 O20 1.997 . S
O4 Fe3 2.002 . S
O4 C21 1.295 . S
O5 Fe0 1.997 . S
O5 C21 1.235 . S
O6 Fe0 2.002 . S
O6 C7 1.295 . S
C7 O6 1.295 . S
C7 O9 1.235 . S
C8 O13 1.287 . S
C8 O14 1.255 . S
O9 Fe1 1.997 . S
O9 C7 1.235 . S
C10 O16 1.287 . S
C10 O17 1.255 . S
O11 Fe0 1.976 . S
O11 C18 1.287 . S
O12 Fe1 1.996 . S
O12 C18 1.255 . S
O13 Fe3 1.976 . S
O13 C8 1.287 . S
O14 Fe0 1.996 . S
O14 C8 1.255 . S
C15 O19 1.295 . S
C15 O20 1.235 . S
O16 Fe1 1.976 . S
O16 C10 1.287 . S
O17 Fe3 1.996 . S
O17 C10 1.255 . S
C18 O11 1.287 . S
C18 O12 1.255 . S
O19 Fe1 2.002 . S
O19 C15 1.295 . S
O20 Fe3 1.997 . S
O20 C15 1.235 . S
C21 O4 1.295 . S
C21 O5 1.235 . S
Fe22 O24 1.918 . S
Fe22 O27 1.997 . S
Fe22 O28 2.002 . S
Fe22 O33 1.976 . S
Fe22 O36 1.996 . S
Fe23 O24 1.918 . S
Fe23 O31 1.997 . S
Fe23 O34 1.996 . S
Fe23 O38 1.976 . S
Fe23 O41 2.002 . S
O24 Fe22 1.918 . S
O24 Fe23 1.918 . S
O24 Fe25 1.918 . S
Fe25 O24 1.918 . S
Fe25 O26 2.002 . S
Fe25 O35 1.976 . S
Fe25 O39 1.996 . S
Fe25 O42 1.997 . S
O26 Fe25 2.002 . S
O26 C43 1.295 . S
O27 Fe22 1.997 . S
O27 C43 1.235 . S
O28 Fe22 2.002 . S
O28 C29 1.295 . S
C29 O28 1.295 . S
C29 O31 1.235 . S
C30 O35 1.287 . S
C30 O36 1.255 . S
O31 Fe23 1.997 . S
O31 C29 1.235 . S
C32 O38 1.287 . S
C32 O39 1.255 . S
O33 Fe22 1.976 . S
O33 C40 1.287 . S
O34 Fe23 1.996 . S
O34 C40 1.255 . S
O35 Fe25 1.976 . S
O35 C30 1.287 . S
O36 Fe22 1.996 . S
O36 C30 1.255 . S
C37 O41 1.295 . S
C37 O42 1.235 . S
O38 Fe23 1.976 . S
O38 C32 1.287 . S
O39 Fe25 1.996 . S
O39 C32 1.255 . S
C40 O33 1.287 . S
C40 O34 1.255 . S
O41 Fe23 2.002 . S
O41 C37 1.295 . S
O42 Fe25 1.997 . S
O42 C37 1.235 . S
C43 O26 1.295 . S
C43 O27 1.235 . S
Fe44 O46 1.918 . S
Fe44 O49 1.997 . S
Fe44 O50 2.002 . S
Fe44 O55 1.976 . S
Fe44 O58 1.996 . S
Fe45 O46 1.918 . S
Fe45 O53 1.997 . S
Fe45 O56 1.996 . S
Fe45 O60 1.976 . S
Fe45 O63 2.002 . S
O46 Fe44 1.918 . S
O46 Fe45 1.918 . S
O46 Fe47 1.918 . S
Fe47 O46 1.918 . S
Fe47 O48 2.002 . S
Fe47 O57 1.976 . S
Fe47 O61 1.996 . S
Fe47 O64 1.997 . S
O48 Fe47 2.002 . S
O48 C65 1.295 . S
O49 Fe44 1.997 . S
O49 C65 1.235 . S
O50 Fe44 2.002 . S
O50 C51 1.295 . S
C51 O50 1.295 . S
C51 O53 1.235 . S
C52 O57 1.287 . S
C52 O58 1.255 . S
O53 Fe45 1.997 . S
O53 C51 1.235 . S
C54 O60 1.287 . S
C54 O61 1.255 . S
O55 Fe44 1.976 . S
O55 C62 1.287 . S
O56 Fe45 1.996 . S
O56 C62 1.255 . S
O57 Fe47 1.976 . S
O57 C52 1.287 . S
O58 Fe44 1.996 . S
O58 C52 1.255 . S
C59 O63 1.295 . S
C59 O64 1.235 . S
O60 Fe45 1.976 . S
O60 C54 1.287 . S
O61 Fe47 1.996 . S
O61 C54 1.255 . S
C62 O55 1.287 . S
C62 O56 1.255 . S
O63 Fe45 2.002 . S
O63 C59 1.295 . S
O64 Fe47 1.997 . S
O64 C59 1.235 . S
C65 O48 1.295 . S
C65 O49 1.235 . S
Fe66 O68 1.918 . S
Fe66 O71 1.997 . S
Fe66 O72 2.002 . S
Fe66 O77 1.976 . S
Fe66 O80 1.996 . S
Fe67 O68 1.918 . S
Fe67 O75 1.997 . S
Fe67 O78 1.996 . S
Fe67 O82 1.976 . S
Fe67 O85 2.002 . S
O68 Fe66 1.918 . S
O68 Fe67 1.918 . S
O68 Fe69 1.918 . S
Fe69 O68 1.918 . S
Fe69 O70 2.002 . S
Fe69 O79 1.976 . S
Fe69 O83 1.996 . S
Fe69 O86 1.997 . S
O70 Fe69 2.002 . S
O70 C87 1.295 . S
O71 Fe66 1.997 . S
O71 C87 1.235 . S
O72 Fe66 2.002 . S
O72 C73 1.295 . S
C73 O72 1.295 . S
C73 O75 1.235 . S
C74 O79 1.287 . S
C74 O80 1.255 . S
O75 Fe67 1.997 . S
O75 C73 1.235 . S
C76 O82 1.287 . S
C76 O83 1.255 . S
O77 Fe66 1.976 . S
O77 C84 1.287 . S
O78 Fe67 1.996 . S
O78 C84 1.255 . S
O79 Fe69 1.976 . S
O79 C74 1.287 . S
O80 Fe66 1.996 . S
O80 C74 1.255 . S
C81 O85 1.295 . S
C81 O86 1.235 . S
O82 Fe67 1.976 . S
O82 C76 1.287 . S
O83 Fe69 1.996 . S
O83 C76 1.255 . S
C84 O77 1.287 . S
C84 O78 1.255 . S
O85 Fe67 2.002 . S
O85 C81 1.295 . S
O86 Fe69 1.997 . S
O86 C81 1.235 . S
C87 O70 1.295 . S
C87 O71 1.235 . S
Fe88 O90 1.918 . S
Fe88 O93 1.997 . S
Fe88 O94 2.002 . S
Fe88 O99 1.976 . S
Fe88 O102 1.996 . S
Fe89 O90 1.918 . S
Fe89 O97 1.997 . S
Fe89 O100 1.996 . S
Fe89 O104 1.976 . S
Fe89 O107 2.002 . S
O90 Fe88 1.918 . S
O90 Fe89 1.918 . S
O90 Fe91 1.918 . S
Fe91 O90 1.918 . S
Fe91 O92 2.002 . S
Fe91 O101 1.976 . S
Fe91 O105 1.996 . S
Fe91 O108 1.997 . S
O92 Fe91 2.002 . S
O92 C109 1.295 . S
O93 Fe88 1.997 . S
O93 C109 1.235 . S
O94 Fe88 2.002 . S
O94 C95 1.295 . S
C95 O94 1.295 . S
C95 O97 1.235 . S
C96 O101 1.287 . S
C96 O102 1.255 . S
O97 Fe89 1.997 . S
O97 C95 1.235 . S
C98 O104 1.287 . S
C98 O105 1.255 . S
O99 Fe88 1.976 . S
O99 C106 1.287 . S
O100 Fe89 1.996 . S
O100 C106 1.255 . S
O101 Fe91 1.976 . S
O101 C96 1.287 . S
O102 Fe88 1.996 . S
O102 C96 1.255 . S
C103 O107 1.295 . S
C103 O108 1.235 . S
O104 Fe89 1.976 . S
O104 C98 1.287 . S
O105 Fe91 1.996 . S
O105 C98 1.255 . S
C106 O99 1.287 . S
C106 O100 1.255 . S
O107 Fe89 2.002 . S
O107 C103 1.295 . S
O108 Fe91 1.997 . S
O108 C103 1.235 . S
C109 O92 1.295 . S
C109 O93 1.235 . S
Fe110 O112 1.918 . S
Fe110 O115 1.997 . S
Fe110 O116 2.002 . S
Fe110 O121 1.976 . S
Fe110 O124 1.996 . S
Fe111 O112 1.918 . S
Fe111 O119 1.997 . S
Fe111 O122 1.996 . S
Fe111 O126 1.976 . S
Fe111 O129 2.002 . S
O112 Fe110 1.918 . S
O112 Fe111 1.918 . S
O112 Fe113 1.918 . S
Fe113 O112 1.918 . S
Fe113 O114 2.002 . S
Fe113 O123 1.976 . S
Fe113 O127 1.996 . S
Fe113 O130 1.997 . S
O114 Fe113 2.002 . S
O114 C131 1.295 . S
O115 Fe110 1.997 . S
O115 C131 1.235 . S
O116 Fe110 2.002 . S
O116 C117 1.295 . S
C117 O116 1.295 . S
C117 O119 1.235 . S
C118 O123 1.287 . S
C118 O124 1.255 . S
O119 Fe111 1.997 . S
O119 C117 1.235 . S
C120 O126 1.287 . S
C120 O127 1.255 . S
O121 Fe110 1.976 . S
O121 C128 1.287 . S
O122 Fe111 1.996 . S
O122 C128 1.255 . S
O123 Fe113 1.976 . S
O123 C118 1.287 . S
O124 Fe110 1.996 . S
O124 C118 1.255 . S
C125 O129 1.295 . S
C125 O130 1.235 . S
O126 Fe111 1.976 . S
O126 C120 1.287 . S
O127 Fe113 1.996 . S
O127 C120 1.255 . S
C128 O121 1.287 . S
C128 O122 1.255 . S
O129 Fe111 2.002 . S
O129 C125 1.295 . S
O130 Fe113 1.997 . S
O130 C125 1.235 . S
C131 O114 1.295 . S
C131 O115 1.235 . S
Fe132 O134 1.918 . S
Fe132 O137 1.997 . S
Fe132 O138 2.002 . S
Fe132 O143 1.976 . S
Fe132 O146 1.996 . S
Fe133 O134 1.918 . S
Fe133 O141 1.997 . S
Fe133 O144 1.996 . S
Fe133 O148 1.976 . S
Fe133 O151 2.002 . S
O134 Fe132 1.918 . S
O134 Fe133 1.918 . S
O134 Fe135 1.918 . S
Fe135 O134 1.918 . S
Fe135 O136 2.002 . S
Fe135 O145 1.976 . S
Fe135 O149 1.996 . S
Fe135 O152 1.997 . S
O136 Fe135 2.002 . S
O136 C153 1.295 . S
O137 Fe132 1.997 . S
O137 C153 1.235 . S
O138 Fe132 2.002 . S
O138 C139 1.295 . S
C139 O138 1.295 . S
C139 O141 1.235 . S
C140 O145 1.287 . S
C140 O146 1.255 . S
O141 Fe133 1.997 . S
O141 C139 1.235 . S
C142 O148 1.287 . S
C142 O149 1.255 . S
O143 Fe132 1.976 . S
O143 C150 1.287 . S
O144 Fe133 1.996 . S
O144 C150 1.255 . S
O145 Fe135 1.976 . S
O145 C140 1.287 . S
O146 Fe132 1.996 . S
O146 C140 1.255 . S
C147 O151 1.295 . S
C147 O152 1.235 . S
O148 Fe133 1.976 . S
O148 C142 1.287 . S
O149 Fe135 1.996 . S
O149 C142 1.255 . S
C150 O143 1.287 . S
C150 O144 1.255 . S
O151 Fe133 2.002 . S
O151 C147 1.295 . S
O152 Fe135 1.997 . S
O152 C147 1.235 . S
C153 O136 1.295 . S
C153 O137 1.235 . S
Fe154 O156 1.918 . S
Fe154 O159 1.997 . S
Fe154 O160 2.002 . S
Fe154 O165 1.976 . S
Fe154 O168 1.996 . S
Fe155 O156 1.918 . S
Fe155 O163 1.997 . S
Fe155 O166 1.996 . S
Fe155 O170 1.976 . S
Fe155 O173 2.002 . S
O156 Fe154 1.918 . S
O156 Fe155 1.918 . S
O156 Fe157 1.918 . S
Fe157 O156 1.918 . S
Fe157 O158 2.002 . S
Fe157 O167 1.976 . S
Fe157 O171 1.996 . S
Fe157 O174 1.997 . S
O158 Fe157 2.002 . S
O158 C175 1.295 . S
O159 Fe154 1.997 . S
O159 C175 1.235 . S
O160 Fe154 2.002 . S
O160 C161 1.295 . S
C161 O160 1.295 . S
C161 O163 1.235 . S
C162 O167 1.287 . S
C162 O168 1.255 . S
O163 Fe155 1.997 . S
O163 C161 1.235 . S
C164 O170 1.287 . S
C164 O171 1.255 . S
O165 Fe154 1.976 . S
O165 C172 1.287 . S
O166 Fe155 1.996 . S
O166 C172 1.255 . S
O167 Fe157 1.976 . S
O167 C162 1.287 . S
O168 Fe154 1.996 . S
O168 C162 1.255 . S
C169 O173 1.295 . S
C169 O174 1.235 . S
O170 Fe155 1.976 . S
O170 C164 1.287 . S
O171 Fe157 1.996 . S
O171 C164 1.255 . S
C172 O165 1.287 . S
C172 O166 1.255 . S
O173 Fe155 2.002 . S
O173 C169 1.295 . S
O174 Fe157 1.997 . S
O174 C169 1.235 . S
C175 O158 1.295 . S
C175 O159 1.235 . S
Fe176 O178 1.918 . S
Fe176 O181 1.997 . S
Fe176 O182 2.002 . S
Fe176 O187 1.976 . S
Fe176 O190 1.996 . S
Fe177 O178 1.918 . S
Fe177 O185 1.997 . S
Fe177 O188 1.996 . S
Fe177 O192 1.976 . S
Fe177 O195 2.002 . S
O178 Fe176 1.918 . S
O178 Fe177 1.918 . S
O178 Fe179 1.918 . S
Fe179 O178 1.918 . S
Fe179 O180 2.002 . S
Fe179 O189 1.976 . S
Fe179 O193 1.996 . S
Fe179 O196 1.997 . S
O180 Fe179 2.002 . S
O180 C197 1.295 . S
O181 Fe176 1.997 . S
O181 C197 1.235 . S
O182 Fe176 2.002 . S
O182 C183 1.295 . S
C183 O182 1.295 . S
C183 O185 1.235 . S
C184 O189 1.287 . S
C184 O190 1.255 . S
O185 Fe177 1.997 . S
O185 C183 1.235 . S
C186 O192 1.287 . S
C186 O193 1.255 . S
O187 Fe176 1.976 . S
O187 C194 1.287 . S
O188 Fe177 1.996 . S
O188 C194 1.255 . S
O189 Fe179 1.976 . S
O189 C184 1.287 . S
O190 Fe176 1.996 . S
O190 C184 1.255 . S
C191 O195 1.295 . S
C191 O196 1.235 . S
O192 Fe177 1.976 . S
O192 C186 1.287 . S
O193 Fe179 1.996 . S
O193 C186 1.255 . S
C194 O187 1.287 . S
C194 O188 1.255 . S
O195 Fe177 2.002 . S
O195 C191 1.295 . S
O196 Fe179 1.997 . S
O196 C191 1.235 . S
C197 O180 1.295 . S
C197 O181 1.235 . S
Fe198 O200 1.918 1_655 S
Fe198 O203 1.997 1_655 S
Fe198 O204 2.002 . S
Fe198 O209 1.976 . S
Fe198 O212 1.996 1_655 S
Fe199 O200 1.918 . S
Fe199 O207 1.997 . S
Fe199 O210 1.996 . S
Fe199 O214 1.976 . S
Fe199 O217 2.002 . S
O200 Fe198 1.918 1_455 S
O200 Fe199 1.918 . S
O200 Fe201 1.918 . S
Fe201 O200 1.918 . S
Fe201 O202 2.002 . S
Fe201 O211 1.976 . S
Fe201 O215 1.996 . S
Fe201 O218 1.997 . S
O202 Fe201 2.002 . S
O202 C219 1.295 . S
O203 Fe198 1.997 1_455 S
O203 C219 1.235 . S
O204 Fe198 2.002 . S
O204 C205 1.295 . S
C205 O204 1.295 . S
C205 O207 1.235 1_655 S
C206 O211 1.287 . S
C206 O212 1.255 . S
O207 Fe199 1.997 . S
O207 C205 1.235 1_455 S
C208 O214 1.287 . S
C208 O215 1.255 . S
O209 Fe198 1.976 . S
O209 C216 1.287 . S
O210 Fe199 1.996 . S
O210 C216 1.255 1_455 S
O211 Fe201 1.976 . S
O211 C206 1.287 . S
O212 Fe198 1.996 1_455 S
O212 C206 1.255 . S
C213 O217 1.295 . S
C213 O218 1.235 . S
O214 Fe199 1.976 . S
O214 C208 1.287 . S
O215 Fe201 1.996 . S
O215 C208 1.255 . S
C216 O209 1.287 . S
C216 O210 1.255 1_655 S
O217 Fe199 2.002 . S
O217 C213 1.295 . S
O218 Fe201 1.997 . S
O218 C213 1.235 . S
C219 O202 1.295 . S
C219 O203 1.235 . S
Fe220 O222 1.918 . S
Fe220 O225 1.997 . S
Fe220 O226 2.002 . S
Fe220 O231 1.976 . S
Fe220 O234 1.996 . S
Fe221 O222 1.918 . S
Fe221 O229 1.997 . S
Fe221 O232 1.996 . S
Fe221 O236 1.976 . S
Fe221 O239 2.002 . S
O222 Fe220 1.918 . S
O222 Fe221 1.918 . S
O222 Fe223 1.918 . S
Fe223 O222 1.918 . S
Fe223 O224 2.002 . S
Fe223 O233 1.976 . S
Fe223 O237 1.996 . S
Fe223 O240 1.997 . S
O224 Fe223 2.002 . S
O224 C241 1.295 . S
O225 Fe220 1.997 . S
O225 C241 1.235 . S
O226 Fe220 2.002 . S
O226 C227 1.295 . S
C227 O226 1.295 . S
C227 O229 1.235 . S
C228 O233 1.287 . S
C228 O234 1.255 . S
O229 Fe221 1.997 . S
O229 C227 1.235 . S
C230 O236 1.287 . S
C230 O237 1.255 . S
O231 Fe220 1.976 . S
O231 C238 1.287 . S
O232 Fe221 1.996 . S
O232 C238 1.255 . S
O233 Fe223 1.976 . S
O233 C228 1.287 . S
O234 Fe220 1.996 . S
O234 C228 1.255 . S
C235 O239 1.295 . S
C235 O240 1.235 . S
O236 Fe221 1.976 . S
O236 C230 1.287 . S
O237 Fe223 1.996 . S
O237 C230 1.255 . S
C238 O231 1.287 . S
C238 O232 1.255 . S
O239 Fe221 2.002 . S
O239 C235 1.295 . S
O240 Fe223 1.997 . S
O240 C235 1.235 . S
C241 O224 1.295 . S
C241 O225 1.235 . S
Fe242 O244 1.918 1_545 S
Fe242 O247 1.997 1_545 S
Fe242 O248 2.002 . S
Fe242 O253 1.976 . S
Fe242 O256 1.996 1_545 S
Fe243 O244 1.918 . S
Fe243 O251 1.997 . S
Fe243 O254 1.996 . S
Fe243 O258 1.976 . S
Fe243 O261 2.002 . S
O244 Fe242 1.918 1_565 S
O244 Fe243 1.918 . S
O244 Fe245 1.918 . S
Fe245 O244 1.918 . S
Fe245 O246 2.002 . S
Fe245 O255 1.976 . S
Fe245 O259 1.996 . S
Fe245 O262 1.997 . S
O246 Fe245 2.002 . S
O246 C263 1.295 . S
O247 Fe242 1.997 1_565 S
O247 C263 1.235 . S
O248 Fe242 2.002 . S
O248 C249 1.295 . S
C249 O248 1.295 . S
C249 O251 1.235 1_545 S
C250 O255 1.287 . S
C250 O256 1.255 . S
O251 Fe243 1.997 . S
O251 C249 1.235 1_565 S
C252 O258 1.287 . S
C252 O259 1.255 . S
O253 Fe242 1.976 . S
O253 C260 1.287 . S
O254 Fe243 1.996 . S
O254 C260 1.255 1_565 S
O255 Fe245 1.976 . S
O255 C250 1.287 . S
O256 Fe242 1.996 1_565 S
O256 C250 1.255 . S
C257 O261 1.295 . S
C257 O262 1.235 . S
O258 Fe243 1.976 . S
O258 C252 1.287 . S
O259 Fe245 1.996 . S
O259 C252 1.255 . S
C260 O253 1.287 . S
C260 O254 1.255 1_545 S
O261 Fe243 2.002 . S
O261 C257 1.295 . S
O262 Fe245 1.997 . S
O262 C257 1.235 . S
C263 O246 1.295 . S
C263 O247 1.235 . S
Fe264 O266 1.918 1_565 S
Fe264 O269 1.997 1_565 S
Fe264 O270 2.002 . S
Fe264 O275 1.976 . S
Fe264 O278 1.996 1_565 S
Fe265 O266 1.918 . S
Fe265 O273 1.997 . S
Fe265 O276 1.996 . S
Fe265 O280 1.976 . S
Fe265 O283 2.002 . S
O266 Fe264 1.918 1_545 S
O266 Fe265 1.918 . S
O266 Fe267 1.918 . S
Fe267 O266 1.918 . S
Fe267 O268 2.002 . S
Fe267 O277 1.976 . S
Fe267 O281 1.996 . S
Fe267 O284 1.997 . S
O268 Fe267 2.002 . S
O268 C285 1.295 . S
O269 Fe264 1.997 1_545 S
O269 C285 1.235 . S
O270 Fe264 2.002 . S
O270 C271 1.295 . S
C271 O270 1.295 . S
C271 O273 1.235 1_565 S
C272 O277 1.287 . S
C272 O278 1.255 . S
O273 Fe265 1.997 . S
O273 C271 1.235 1_545 S
C274 O280 1.287 . S
C274 O281 1.255 . S
O275 Fe264 1.976 . S
O275 C282 1.287 . S
O276 Fe265 1.996 . S
O276 C282 1.255 1_545 S
O277 Fe267 1.976 . S
O277 C272 1.287 . S
O278 Fe264 1.996 1_545 S
O278 C272 1.255 . S
C279 O283 1.295 . S
C279 O284 1.235 . S
O280 Fe265 1.976 . S
O280 C274 1.287 . S
O281 Fe267 1.996 . S
O281 C274 1.255 . S
C282 O275 1.287 . S
C282 O276 1.255 1_565 S
O283 Fe265 2.002 . S
O283 C279 1.295 . S
O284 Fe267 1.997 . S
O284 C279 1.235 . S
C285 O268 1.295 . S
C285 O269 1.235 . S
Fe286 O288 1.918 . S
Fe286 O291 1.997 . S
Fe286 O292 2.002 . S
Fe286 O297 1.976 . S
Fe286 O300 1.996 . S
Fe287 O288 1.918 1_455 S
Fe287 O295 1.997 1_455 S
Fe287 O298 1.996 1_455 S
Fe287 O302 1.976 . S
Fe287 O305 2.002 . S
O288 Fe286 1.918 . S
O288 Fe287 1.918 1_655 S
O288 Fe289 1.918 . S
Fe289 O288 1.918 . S
Fe289 O290 2.002 . S
Fe289 O299 1.976 . S
Fe289 O303 1.996 . S
Fe289 O306 1.997 . S
O290 Fe289 2.002 . S
O290 C307 1.295 . S
O291 Fe286 1.997 . S
O291 C307 1.235 . S
O292 Fe286 2.002 . S
O292 C293 1.295 . S
C293 O292 1.295 . S
C293 O295 1.235 . S
C294 O299 1.287 . S
C294 O300 1.255 . S
O295 Fe287 1.997 1_655 S
O295 C293 1.235 . S
C296 O302 1.287 . S
C296 O303 1.255 1_455 S
O297 Fe286 1.976 . S
O297 C304 1.287 . S
O298 Fe287 1.996 1_655 S
O298 C304 1.255 . S
O299 Fe289 1.976 . S
O299 C294 1.287 . S
O300 Fe286 1.996 . S
O300 C294 1.255 . S
C301 O305 1.295 . S
C301 O306 1.235 1_455 S
O302 Fe287 1.976 . S
O302 C296 1.287 . S
O303 Fe289 1.996 . S
O303 C296 1.255 1_655 S
C304 O297 1.287 . S
C304 O298 1.255 . S
O305 Fe287 2.002 . S
O305 C301 1.295 . S
O306 Fe289 1.997 . S
O306 C301 1.235 1_655 S
C307 O290 1.295 . S
C307 O291 1.235 . S
Fe308 O310 1.918 . S
Fe308 O313 1.997 . S
Fe308 O314 2.002 . S
Fe308 O319 1.976 . S
Fe308 O322 1.996 . S
Fe309 O310 1.918 . S
Fe309 O317 1.997 . S
Fe309 O320 1.996 . S
Fe309 O324 1.976 . S
Fe309 O327 2.002 . S
O310 Fe308 1.918 . S
O310 Fe309 1.918 . S
O310 Fe311 1.918 . S
Fe311 O310 1.918 . S
Fe311 O312 2.002 . S
Fe311 O321 1.976 . S
Fe311 O325 1.996 . S
Fe311 O328 1.997 . S
O312 Fe311 2.002 . S
O312 C329 1.295 . S
O313 Fe308 1.997 . S
O313 C329 1.235 . S
O314 Fe308 2.002 . S
O314 C315 1.295 . S
C315 O314 1.295 . S
C315 O317 1.235 . S
C316 O321 1.287 . S
C316 O322 1.255 . S
O317 Fe309 1.997 . S
O317 C315 1.235 . S
C318 O324 1.287 . S
C318 O325 1.255 . S
O319 Fe308 1.976 . S
O319 C326 1.287 . S
O320 Fe309 1.996 . S
O320 C326 1.255 . S
O321 Fe311 1.976 . S
O321 C316 1.287 . S
O322 Fe308 1.996 . S
O322 C316 1.255 . S
C323 O327 1.295 . S
C323 O328 1.235 . S
O324 Fe309 1.976 . S
O324 C318 1.287 . S
O325 Fe311 1.996 . S
O325 C318 1.255 . S
C326 O319 1.287 . S
C326 O320 1.255 . S
O327 Fe309 2.002 . S
O327 C323 1.295 . S
O328 Fe311 1.997 . S
O328 C323 1.235 . S
C329 O312 1.295 . S
C329 O313 1.235 . S
Fe330 O332 1.918 . S
Fe330 O335 1.997 . S
Fe330 O336 2.002 . S
Fe330 O341 1.976 . S
Fe330 O344 1.996 . S
Fe331 O332 1.918 . S
Fe331 O339 1.997 . S
Fe331 O342 1.996 . S
Fe331 O346 1.976 . S
Fe331 O349 2.002 . S
O332 Fe330 1.918 . S
O332 Fe331 1.918 . S
O332 Fe333 1.918 . S
Fe333 O332 1.918 . S
Fe333 O334 2.002 . S
Fe333 O343 1.976 . S
Fe333 O347 1.996 . S
Fe333 O350 1.997 . S
O334 Fe333 2.002 . S
O334 C351 1.295 . S
O335 Fe330 1.997 . S
O335 C351 1.235 . S
O336 Fe330 2.002 . S
O336 C337 1.295 . S
C337 O336 1.295 . S
C337 O339 1.235 . S
C338 O343 1.287 . S
C338 O344 1.255 . S
O339 Fe331 1.997 . S
O339 C337 1.235 . S
C340 O346 1.287 . S
C340 O347 1.255 . S
O341 Fe330 1.976 . S
O341 C348 1.287 . S
O342 Fe331 1.996 . S
O342 C348 1.255 . S
O343 Fe333 1.976 . S
O343 C338 1.287 . S
O344 Fe330 1.996 . S
O344 C338 1.255 . S
C345 O349 1.295 . S
C345 O350 1.235 . S
O346 Fe331 1.976 . S
O346 C340 1.287 . S
O347 Fe333 1.996 . S
O347 C340 1.255 . S
C348 O341 1.287 . S
C348 O342 1.255 . S
O349 Fe331 2.002 . S
O349 C345 1.295 . S
O350 Fe333 1.997 . S
O350 C345 1.235 . S
C351 O334 1.295 . S
C351 O335 1.235 . S
Fe352 O354 1.918 . S
Fe352 O357 1.997 . S
Fe352 O358 2.002 . S
Fe352 O363 1.976 . S
Fe352 O366 1.996 . S
Fe353 O354 1.918 . S
Fe353 O361 1.997 . S
Fe353 O364 1.996 . S
Fe353 O368 1.976 . S
Fe353 O371 2.002 . S
O354 Fe352 1.918 . S
O354 Fe353 1.918 . S
O354 Fe355 1.918 . S
Fe355 O354 1.918 . S
Fe355 O356 2.002 . S
Fe355 O365 1.976 . S
Fe355 O369 1.996 . S
Fe355 O372 1.997 . S
O356 Fe355 2.002 . S
O356 C373 1.295 . S
O357 Fe352 1.997 . S
O357 C373 1.235 . S
O358 Fe352 2.002 . S
O358 C359 1.295 . S
C359 O358 1.295 . S
C359 O361 1.235 . S
C360 O365 1.287 . S
C360 O366 1.255 . S
O361 Fe353 1.997 . S
O361 C359 1.235 . S
C362 O368 1.287 . S
C362 O369 1.255 . S
O363 Fe352 1.976 . S
O363 C370 1.287 . S
O364 Fe353 1.996 . S
O364 C370 1.255 . S
O365 Fe355 1.976 . S
O365 C360 1.287 . S
O366 Fe352 1.996 . S
O366 C360 1.255 . S
C367 O371 1.295 . S
C367 O372 1.235 . S
O368 Fe353 1.976 . S
O368 C362 1.287 . S
O369 Fe355 1.996 . S
O369 C362 1.255 . S
C370 O363 1.287 . S
C370 O364 1.255 . S
O371 Fe353 2.002 . S
O371 C367 1.295 . S
O372 Fe355 1.997 . S
O372 C367 1.235 . S
C373 O356 1.295 . S
C373 O357 1.235 . S
Fe374 O376 1.918 . S
Fe374 O379 1.997 . S
Fe374 O380 2.002 . S
Fe374 O385 1.976 . S
Fe374 O388 1.996 . S
Fe375 O376 1.918 . S
Fe375 O383 1.997 . S
Fe375 O386 1.996 . S
Fe375 O390 1.976 . S
Fe375 O393 2.002 . S
O376 Fe374 1.918 . S
O376 Fe375 1.918 . S
O376 Fe377 1.918 . S
Fe377 O376 1.918 . S
Fe377 O378 2.002 . S
Fe377 O387 1.976 . S
Fe377 O391 1.996 . S
Fe377 O394 1.997 . S
O378 Fe377 2.002 . S
O378 C395 1.295 . S
O379 Fe374 1.997 . S
O379 C395 1.235 . S
O380 Fe374 2.002 . S
O380 C381 1.295 . S
C381 O380 1.295 . S
C381 O383 1.235 . S
C382 O387 1.287 . S
C382 O388 1.255 . S
O383 Fe375 1.997 . S
O383 C381 1.235 . S
C384 O390 1.287 . S
C384 O391 1.255 . S
O385 Fe374 1.976 . S
O385 C392 1.287 . S
O386 Fe375 1.996 . S
O386 C392 1.255 . S
O387 Fe377 1.976 . S
O387 C382 1.287 . S
O388 Fe374 1.996 . S
O388 C382 1.255 . S
C389 O393 1.295 . S
C389 O394 1.235 . S
O390 Fe375 1.976 . S
O390 C384 1.287 . S
O391 Fe377 1.996 . S
O391 C384 1.255 . S
C392 O385 1.287 . S
C392 O386 1.255 . S
O393 Fe375 2.002 . S
O393 C389 1.295 . S
O394 Fe377 1.997 . S
O394 C389 1.235 . S
C395 O378 1.295 . S
C395 O379 1.235 . S
C396 C397 1.387 . S
C396 H400 0.961 . S
C396 C405 1.390 . S
C397 C396 1.387 . S
C397 C399 1.387 . S
H398 C405 0.947 . S
C399 C397 1.387 . S
C399 C401 1.390 . S
C399 H403 0.950 . S
H400 C396 0.961 . S
C401 C399 1.390 . S
C401 C402 1.387 . S
C401 H404 0.950 . S
C402 C401 1.387 . S
C402 C405 1.387 . S
H403 C399 0.950 . S
H404 C401 0.950 . S
C405 C396 1.390 . S
C405 H398 0.947 . S
C405 C402 1.387 . S
C406 C407 1.387 . S
C406 H410 0.950 . S
C406 C415 1.390 . S
C407 C406 1.387 . S
C407 C409 1.387 . S
H408 C415 0.950 . S
C409 C407 1.387 . S
C409 C411 1.390 . S
C409 H413 0.947 . S
H410 C406 0.950 . S
C411 C409 1.390 . S
C411 C412 1.387 . S
C411 H414 0.961 . S
C412 C411 1.387 . S
C412 C415 1.387 . S
H413 C409 0.947 . S
H414 C411 0.961 . S
C415 C406 1.390 . S
C415 H408 0.950 . S
C415 C412 1.387 . S
C416 C417 1.387 . S
C416 H420 0.950 . S
C416 C425 1.390 . S
C417 C416 1.387 . S
C417 C419 1.387 . S
H418 C425 0.950 . S
C419 C417 1.387 . S
C419 C421 1.390 . S
C419 H423 0.950 . S
H420 C416 0.950 . S
C421 C419 1.390 . S
C421 C422 1.387 . S
C421 H424 0.950 . S
C422 C421 1.387 . S
C422 C425 1.387 . S
H423 C419 0.950 . S
H424 C421 0.950 . S
C425 C416 1.390 . S
C425 H418 0.950 . S
C425 C422 1.387 . S
C426 C427 1.387 . S
C426 H430 0.950 . S
C426 C435 1.390 . S
C427 C426 1.387 . S
C427 C429 1.387 . S
H428 C435 0.950 . S
C429 C427 1.387 . S
C429 C431 1.390 . S
C429 H433 0.950 . S
H430 C426 0.950 . S
C431 C429 1.390 . S
C431 C432 1.387 . S
C431 H434 0.950 . S
C432 C431 1.387 . S
C432 C435 1.387 . S
H433 C429 0.950 . S
H434 C431 0.950 . S
C435 C426 1.390 . S
C435 H428 0.950 . S
C435 C432 1.387 . S
C436 C437 1.387 . S
C436 H440 0.950 . S
C436 C445 1.390 . S
C437 C436 1.387 . S
C437 C439 1.387 . S
H438 C445 0.950 . S
C439 C437 1.387 . S
C439 C441 1.390 . S
C439 H443 0.961 . S
H440 C436 0.950 . S
C441 C439 1.390 . S
C441 C442 1.387 . S
C441 H444 0.947 . S
C442 C441 1.387 . S
C442 C445 1.387 . S
H443 C439 0.961 . S
H444 C441 0.947 . S
C445 C436 1.390 . S
C445 H438 0.950 . S
C445 C442 1.387 . S
C446 C447 1.387 . S
C446 H450 0.947 . S
C446 C455 1.390 . S
C447 C446 1.387 . S
C447 C449 1.387 . S
H448 C455 0.961 . S
C449 C447 1.387 . S
C449 C451 1.390 . S
C449 H453 0.950 . S
H450 C446 0.947 . S
C451 C449 1.390 . S
C451 C452 1.387 . S
C451 H454 0.950 . S
C452 C451 1.387 . S
C452 C455 1.387 . S
H453 C449 0.950 . S
H454 C451 0.950 . S
C455 C446 1.390 . S
C455 H448 0.961 . S
C455 C452 1.387 . S
C456 C457 1.387 . S
C456 H460 0.950 . S
C456 C465 1.390 . S
C457 C456 1.387 . S
C457 C459 1.387 . S
H458 C465 0.950 . S
C459 C457 1.387 . S
C459 C461 1.390 . S
C459 H463 0.950 . S
H460 C456 0.950 . S
C461 C459 1.390 . S
C461 C462 1.387 . S
C461 H464 0.950 . S
C462 C461 1.387 . S
C462 C465 1.387 . S
H463 C459 0.950 . S
H464 C461 0.950 . S
C465 C456 1.390 . S
C465 H458 0.950 . S
C465 C462 1.387 . S
C466 C467 1.387 . S
C466 H470 0.950 . S
C466 C475 1.390 . S
C467 C466 1.387 . S
C467 C469 1.387 . S
H468 C475 0.950 . S
C469 C467 1.387 . S
C469 C471 1.390 . S
C469 H473 0.950 . S
H470 C466 0.950 . S
C471 C469 1.390 . S
C471 C472 1.387 . S
C471 H474 0.950 . S
C472 C471 1.387 . S
C472 C475 1.387 . S
H473 C469 0.950 . S
H474 C471 0.950 . S
C475 C466 1.390 . S
C475 H468 0.950 . S
C475 C472 1.387 . S
C476 C477 1.387 . S
C476 H480 0.950 . S
C476 C485 1.390 . S
C477 C476 1.387 . S
C477 C479 1.387 . S
H478 C485 0.950 . S
C479 C477 1.387 . S
C479 C481 1.390 . S
C479 H483 0.950 . S
H480 C476 0.950 . S
C481 C479 1.390 . S
C481 C482 1.387 . S
C481 H484 0.950 . S
C482 C481 1.387 . S
C482 C485 1.387 . S
H483 C479 0.950 . S
H484 C481 0.950 . S
C485 C476 1.390 . S
C485 H478 0.950 . S
C485 C482 1.387 . S
C486 C487 1.387 . S
C486 H490 0.950 . S
C486 C495 1.390 . S
C487 C486 1.387 . S
C487 C489 1.387 . S
H488 C495 0.950 . S
C489 C487 1.387 . S
C489 C491 1.390 . S
C489 H493 0.950 . S
H490 C486 0.950 . S
C491 C489 1.390 . S
C491 C492 1.387 . S
C491 H494 0.950 . S
C492 C491 1.387 . S
C492 C495 1.387 . S
H493 C489 0.950 . S
H494 C491 0.950 . S
C495 C486 1.390 . S
C495 H488 0.950 . S
C495 C492 1.387 . S
C496 C497 1.387 . S
C496 H500 0.950 . S
C496 C505 1.390 . S
C497 C496 1.387 . S
C497 C499 1.387 . S
H498 C505 0.950 . S
C499 C497 1.387 . S
C499 C501 1.390 . S
C499 H503 0.950 . S
H500 C496 0.950 . S
C501 C499 1.390 . S
C501 C502 1.387 . S
C501 H504 0.950 . S
C502 C501 1.387 . S
C502 C505 1.387 . S
H503 C499 0.950 . S
H504 C501 0.950 . S
C505 C496 1.390 . S
C505 H498 0.950 . S
C505 C502 1.387 . S
C506 C507 1.387 . S
C506 H510 0.950 . S
C506 C515 1.390 . S
C507 C506 1.387 . S
C507 C509 1.387 . S
H508 C515 0.950 . S
C509 C507 1.387 . S
C509 C511 1.390 . S
C509 H513 0.950 . S
H510 C506 0.950 . S
C511 C509 1.390 . S
C511 C512 1.387 . S
C511 H514 0.950 . S
C512 C511 1.387 . S
C512 C515 1.387 . S
H513 C509 0.950 . S
H514 C511 0.950 . S
C515 C506 1.390 . S
C515 H508 0.950 . S
C515 C512 1.387 . S
C516 C517 1.387 . S
C516 H520 0.950 . S
C516 C525 1.390 . S
C517 C516 1.387 . S
C517 C519 1.387 . S
H518 C525 0.950 . S
C519 C517 1.387 . S
C519 C521 1.390 . S
C519 H523 0.950 . S
H520 C516 0.950 . S
C521 C519 1.390 . S
C521 C522 1.387 . S
C521 H524 0.950 . S
C522 C521 1.387 . S
C522 C525 1.387 . S
H523 C519 0.950 . S
H524 C521 0.950 . S
C525 C516 1.390 . S
C525 H518 0.950 . S
C525 C522 1.387 . S
C526 C527 1.387 . S
C526 H530 0.950 . S
C526 C535 1.390 . S
C527 C526 1.387 . S
C527 C529 1.387 . S
H528 C535 0.950 . S
C529 C527 1.387 . S
C529 C531 1.390 . S
C529 H533 0.950 . S
H530 C526 0.950 . S
C531 C529 1.390 . S
C531 C532 1.387 . S
C531 H534 0.950 . S
C532 C531 1.387 . S
C532 C535 1.387 . S
H533 C529 0.950 . S
H534 C531 0.950 . S
C535 C526 1.390 . S
C535 H528 0.950 . S
C535 C532 1.387 . S
C536 C537 1.387 . S
C536 H540 0.950 . S
C536 C545 1.390 . S
C537 C536 1.387 . S
C537 C539 1.387 . S
H538 C545 0.950 . S
C539 C537 1.387 . S
C539 C541 1.390 . S
C539 H543 0.950 . S
H540 C536 0.950 . S
C541 C539 1.390 . S
C541 C542 1.387 . S
C541 H544 0.950 . S
C542 C541 1.387 . S
C542 C545 1.387 . S
H543 C539 0.950 . S
H544 C541 0.950 . S
C545 C536 1.390 . S
C545 H538 0.950 . S
C545 C542 1.387 . S
C546 C547 1.387 . S
C546 H550 0.950 . S
C546 C555 1.390 . S
C547 C546 1.387 . S
C547 C549 1.387 . S
H548 C555 0.950 . S
C549 C547 1.387 . S
C549 C551 1.390 . S
C549 H553 0.950 . S
H550 C546 0.950 . S
C551 C549 1.390 . S
C551 C552 1.387 . S
C551 H554 0.950 . S
C552 C551 1.387 . S
C552 C555 1.387 . S
H553 C549 0.950 . S
H554 C551 0.950 . S
C555 C546 1.390 . S
C555 H548 0.950 . S
C555 C552 1.387 . S
C556 C557 1.387 . S
C556 H560 0.950 . S
C556 C565 1.390 . S
C557 C556 1.387 . S
C557 C559 1.387 . S
H558 C565 0.950 . S
C559 C557 1.387 . S
C559 C561 1.390 . S
C559 H563 0.950 . S
H560 C556 0.950 . S
C561 C559 1.390 . S
C561 C562 1.387 . S
C561 H564 0.950 . S
C562 C561 1.387 . S
C562 C565 1.387 . S
H563 C559 0.950 . S
H564 C561 0.950 . S
C565 C556 1.390 . S
C565 H558 0.950 . S
C565 C562 1.387 . S
C566 C567 1.387 . S
C566 H570 0.950 . S
C566 C575 1.390 . S
C567 C566 1.387 . S
C567 C569 1.387 . S
H568 C575 0.950 . S
C569 C567 1.387 . S
C569 C571 1.390 . S
C569 H573 0.950 . S
H570 C566 0.950 . S
C571 C569 1.390 . S
C571 C572 1.387 . S
C571 H574 0.950 . S
C572 C571 1.387 . S
C572 C575 1.387 . S
H573 C569 0.950 . S
H574 C571 0.950 . S
C575 C566 1.390 . S
C575 H568 0.950 . S
C575 C572 1.387 . S
C576 C577 1.387 . S
C576 H580 0.950 . S
C576 C585 1.390 . S
C577 C576 1.387 . S
C577 C579 1.387 . S
H578 C585 0.950 . S
C579 C577 1.387 . S
C579 C581 1.390 . S
C579 H583 0.950 . S
H580 C576 0.950 . S
C581 C579 1.390 . S
C581 C582 1.387 . S
C581 H584 0.950 1_455 S
C582 C581 1.387 . S
C582 C585 1.387 . S
H583 C579 0.950 . S
H584 C581 0.950 1_655 S
C585 C576 1.390 . S
C585 H578 0.950 . S
C585 C582 1.387 . S
C586 C587 1.387 . S
C586 H590 0.950 . S
C586 C595 1.390 . S
C587 C586 1.387 . S
C587 C589 1.387 . S
H588 C595 0.950 . S
C589 C587 1.387 . S
C589 C591 1.390 . S
C589 H593 0.950 . S
H590 C586 0.950 . S
C591 C589 1.390 . S
C591 C592 1.387 . S
C591 H594 0.950 . S
C592 C591 1.387 . S
C592 C595 1.387 . S
H593 C589 0.950 . S
H594 C591 0.950 . S
C595 C586 1.390 . S
C595 H588 0.950 . S
C595 C592 1.387 . S
C596 C597 1.387 . S
C596 H600 0.950 1_565 S
C596 C605 1.390 . S
C597 C596 1.387 . S
C597 C599 1.387 . S
H598 C605 0.950 . S
C599 C597 1.387 . S
C599 C601 1.390 . S
C599 H603 0.950 . S
H600 C596 0.950 1_545 S
C601 C599 1.390 . S
C601 C602 1.387 . S
C601 H604 0.950 . S
C602 C601 1.387 . S
C602 C605 1.387 . S
H603 C599 0.950 . S
H604 C601 0.950 . S
C605 C596 1.390 . S
C605 H598 0.950 . S
C605 C602 1.387 . S
C606 C607 1.387 . S
C606 H610 0.950 . S
C606 C615 1.390 . S
C607 C606 1.387 . S
C607 C609 1.387 . S
H608 C615 0.950 1_565 S
C609 C607 1.387 . S
C609 C611 1.390 . S
C609 H613 0.950 . S
H610 C606 0.950 . S
C611 C609 1.390 . S
C611 C612 1.387 . S
C611 H614 0.950 . S
C612 C611 1.387 . S
C612 C615 1.387 . S
H613 C609 0.950 . S
H614 C611 0.950 . S
C615 C606 1.390 . S
C615 H608 0.950 1_545 S
C615 C612 1.387 . S
C616 C617 1.387 . S
C616 H620 0.950 1_655 S
C616 C625 1.390 . S
C617 C616 1.387 . S
C617 C619 1.387 . S
H618 C625 0.950 . S
C619 C617 1.387 . S
C619 C621 1.390 . S
C619 H623 0.950 . S
H620 C616 0.950 1_455 S
C621 C619 1.390 . S
C621 C622 1.387 . S
C621 H624 0.950 . S
C622 C621 1.387 . S
C622 C625 1.387 . S
H623 C619 0.950 . S
H624 C621 0.950 . S
C625 C616 1.390 . S
C625 H618 0.950 . S
C625 C622 1.387 . S
C626 C627 1.387 . S
C626 H630 0.950 . S
C626 C635 1.390 . S
C627 C626 1.387 . S
C627 C629 1.387 . S
H628 C635 0.950 . S
C629 C627 1.387 . S
C629 C631 1.390 . S
C629 H633 0.950 . S
H630 C626 0.950 . S
C631 C629 1.390 . S
C631 C632 1.387 . S
C631 H634 0.950 . S
C632 C631 1.387 . S
C632 C635 1.387 . S
H633 C629 0.950 . S
H634 C631 0.950 . S
C635 C626 1.390 . S
C635 H628 0.950 . S
C635 C632 1.387 . S
C636 C637 1.387 . S
C636 H640 0.950 . S
C636 C645 1.390 . S
C637 C636 1.387 . S
C637 C639 1.387 . S
H638 C645 0.950 . S
C639 C637 1.387 . S
C639 C641 1.390 . S
C639 H643 0.950 . S
H640 C636 0.950 . S
C641 C639 1.390 . S
C641 C642 1.387 . S
C641 H644 0.950 . S
C642 C641 1.387 . S
C642 C645 1.387 . S
H643 C639 0.950 . S
H644 C641 0.950 . S
C645 C636 1.390 . S
C645 H638 0.950 . S
C645 C642 1.387 . S
C646 C647 1.387 . S
C646 H650 0.950 . S
C646 C655 1.390 . S
C647 C646 1.387 . S
C647 C649 1.387 . S
H648 C655 0.950 . S
C649 C647 1.387 . S
C649 C651 1.390 . S
C649 H653 0.950 . S
H650 C646 0.950 . S
C651 C649 1.390 . S
C651 C652 1.387 . S
C651 H654 0.950 . S
C652 C651 1.387 . S
C652 C655 1.387 . S
H653 C649 0.950 . S
H654 C651 0.950 . S
C655 C646 1.390 . S
C655 H648 0.950 . S
C655 C652 1.387 . S
C656 C657 1.387 . S
C656 H660 0.950 . S
C656 C665 1.390 . S
C657 C656 1.387 . S
C657 C659 1.387 . S
H658 C665 0.950 . S
C659 C657 1.387 . S
C659 C661 1.390 . S
C659 H663 0.950 1_545 S
H660 C656 0.950 . S
C661 C659 1.390 . S
C661 C662 1.387 . S
C661 H664 0.950 . S
C662 C661 1.387 . S
C662 C665 1.387 . S
H663 C659 0.950 1_565 S
H664 C661 0.950 . S
C665 C656 1.390 . S
C665 H658 0.950 . S
C665 C662 1.387 . S
C666 C667 1.387 . S
C666 H670 0.950 . S
C666 C675 1.390 . S
C667 C666 1.387 . S
C667 C669 1.387 . S
H668 C675 0.950 1_545 S
C669 C667 1.387 . S
C669 C671 1.390 . S
C669 H673 0.950 . S
H670 C666 0.950 . S
C671 C669 1.390 . S
C671 C672 1.387 . S
C671 H674 0.950 . S
C672 C671 1.387 . S
C672 C675 1.387 . S
H673 C669 0.950 . S
H674 C671 0.950 . S
C675 C666 1.390 . S
C675 H668 0.950 1_565 S
C675 C672 1.387 . S
C676 C677 1.387 . S
C676 H680 0.950 . S
C676 C685 1.390 . S
C677 C676 1.387 . S
C677 C679 1.387 . S
H678 C685 0.950 . S
C679 C677 1.387 . S
C679 C681 1.390 . S
C679 H683 0.950 . S
H680 C676 0.950 . S
C681 C679 1.390 . S
C681 C682 1.387 . S
C681 H684 0.950 1_455 S
C682 C681 1.387 . S
C682 C685 1.387 . S
H683 C679 0.950 . S
H684 C681 0.950 1_655 S
C685 C676 1.390 . S
C685 H678 0.950 . S
C685 C682 1.387 . S
C686 C687 1.387 . S
C686 H690 0.950 . S
C686 C695 1.390 . S
C687 C686 1.387 . S
C687 C689 1.387 . S
H688 C695 0.950 . S
C689 C687 1.387 . S
C689 C691 1.390 . S
C689 H693 0.950 . S
H690 C686 0.950 . S
C691 C689 1.390 . S
C691 C692 1.387 . S
C691 H694 0.950 . S
C692 C691 1.387 . S
C692 C695 1.387 . S
H693 C689 0.950 . S
H694 C691 0.950 . S
C695 C686 1.390 . S
C695 H688 0.950 . S
C695 C692 1.387 . S
C696 C697 1.387 . S
C696 H700 0.950 . S
C696 C705 1.390 . S
C697 C696 1.387 . S
C697 C699 1.387 . S
H698 C705 0.950 . S
C699 C697 1.387 . S
C699 C701 1.390 . S
C699 H703 0.950 . S
H700 C696 0.950 . S
C701 C699 1.390 . S
C701 C702 1.387 . S
C701 H704 0.950 . S
C702 C701 1.387 . S
C702 C705 1.387 . S
H703 C699 0.950 . S
H704 C701 0.950 . S
C705 C696 1.390 . S
C705 H698 0.950 . S
C705 C702 1.387 . S
C706 C707 1.387 . S
C706 H710 0.950 . S
C706 C715 1.390 1_545 S
C707 C706 1.387 . S
C707 C709 1.387 . S
H708 C715 0.950 . S
C709 C707 1.387 . S
C709 C711 1.390 1_545 S
C709 H713 0.950 . S
H710 C706 0.950 . S
C711 C709 1.390 1_565 S
C711 C712 1.387 . S
C711 H714 0.950 . S
C712 C711 1.387 . S
C712 C715 1.387 . S
H713 C709 0.950 . S
H714 C711 0.950 . S
C715 C706 1.390 1_565 S
C715 H708 0.950 . S
C715 C712 1.387 . S
C716 C717 1.387 1_655 S
C716 H720 0.950 . S
C716 C725 1.390 . S
C717 C716 1.387 1_455 S
C717 C719 1.387 . S
H718 C725 0.950 . S
C719 C717 1.387 . S
C719 C721 1.390 . S
C719 H723 0.950 . S
H720 C716 0.950 . S
C721 C719 1.390 . S
C721 C722 1.387 1_455 S
C721 H724 0.950 . S
C722 C721 1.387 1_655 S
C722 C725 1.387 . S
H723 C719 0.950 . S
H724 C721 0.950 . S
C725 C716 1.390 . S
C725 H718 0.950 . S
C725 C722 1.387 . S
C726 C727 1.387 . S
C726 H730 0.950 . S
C726 C735 1.390 . S
C727 C726 1.387 . S
C727 C729 1.387 . S
H728 C735 0.950 . S
C729 C727 1.387 . S
C729 C731 1.390 . S
C729 H733 0.950 . S
H730 C726 0.950 . S
C731 C729 1.390 . S
C731 C732 1.387 . S
C731 H734 0.950 . S
C732 C731 1.387 . S
C732 C735 1.387 . S
H733 C729 0.950 . S
H734 C731 0.950 . S
C735 C726 1.390 . S
C735 H728 0.950 . S
C735 C732 1.387 . S
C736 C737 1.387 . S
C736 H740 0.950 . S
C736 C745 1.390 1_545 S
C737 C736 1.387 . S
C737 C739 1.387 . S
H738 C745 0.950 . S
C739 C737 1.387 . S
C739 C741 1.390 1_545 S
C739 H743 0.950 . S
H740 C736 0.950 . S
C741 C739 1.390 1_565 S
C741 C742 1.387 . S
C741 H744 0.950 . S
C742 C741 1.387 . S
C742 C745 1.387 . S
H743 C739 0.950 . S
H744 C741 0.950 . S
C745 C736 1.390 1_565 S
C745 H738 0.950 . S
C745 C742 1.387 . S
C746 C747 1.387 . S
C746 H750 0.950 . S
C746 C755 1.390 1_455 S
C747 C746 1.387 . S
C747 C749 1.387 . S
H748 C755 0.950 . S
C749 C747 1.387 . S
C749 C751 1.390 1_455 S
C749 H753 0.950 . S
H750 C746 0.950 . S
C751 C749 1.390 1_655 S
C751 C752 1.387 . S
C751 H754 0.950 . S
C752 C751 1.387 . S
C752 C755 1.387 . S
H753 C749 0.950 . S
H754 C751 0.950 . S
C755 C746 1.390 1_655 S
C755 H748 0.950 . S
C755 C752 1.387 . S
C756 C757 1.387 1_556 S
C756 H760 0.950 . S
C756 C765 1.390 . S
C757 C756 1.387 1_554 S
C757 C759 1.387 . S
H758 C765 0.950 . S
C759 C757 1.387 . S
C759 C761 1.390 . S
C759 H763 0.950 . S
H760 C756 0.950 . S
C761 C759 1.390 . S
C761 C762 1.387 1_554 S
C761 H764 0.950 . S
C762 C761 1.387 1_556 S
C762 C765 1.387 . S
H763 C759 0.950 . S
H764 C761 0.950 . S
C765 C756 1.390 . S
C765 H758 0.950 . S
C765 C762 1.387 . S
C766 C767 1.387 . S
C766 H770 0.950 . S
C766 C775 1.390 1_546 S
C767 C766 1.387 . S
C767 C769 1.387 . S
H768 C775 0.950 . S
C769 C767 1.387 . S
C769 C771 1.390 1_546 S
C769 H773 0.950 . S
H770 C766 0.950 . S
C771 C769 1.390 1_564 S
C771 C772 1.387 . S
C771 H774 0.950 . S
C772 C771 1.387 . S
C772 C775 1.387 . S
H773 C769 0.950 . S
H774 C771 0.950 . S
C775 C766 1.390 1_564 S
C775 H768 0.950 . S
C775 C772 1.387 . S
C776 C777 1.387 . S
C776 H780 0.950 . S
C776 C785 1.390 1_656 S
C777 C776 1.387 . S
C777 C779 1.387 . S
H778 C785 0.950 . S
C779 C777 1.387 . S
C779 C781 1.390 1_656 S
C779 H783 0.950 . S
H780 C776 0.950 . S
C781 C779 1.390 1_454 S
C781 C782 1.387 . S
C781 H784 0.950 . S
C782 C781 1.387 . S
C782 C785 1.387 . S
H783 C779 0.950 . S
H784 C781 0.950 . S
C785 C776 1.390 1_454 S
C785 H778 0.950 . S
C785 C782 1.387 . S
C786 C787 1.387 . S
C786 H790 0.950 . S
C786 C795 1.390 . S
C787 C786 1.387 . S
C787 C789 1.387 1_554 S
H788 C795 0.950 . S
C789 C787 1.387 1_556 S
C789 C791 1.390 . S
C789 H793 0.950 . S
H790 C786 0.950 . S
C791 C789 1.390 . S
C791 C792 1.387 . S
C791 H794 0.950 . S
C792 C791 1.387 . S
C792 C795 1.387 1_556 S
H793 C789 0.950 . S
H794 C791 0.950 . S
C795 C786 1.390 . S
C795 H788 0.950 . S
C795 C792 1.387 1_554 S
C796 C797 1.387 . S
C796 H800 0.950 . S
C796 C805 1.390 1_564 S
C797 C796 1.387 . S
C797 C799 1.387 . S
H798 C805 0.950 . S
C799 C797 1.387 . S
C799 C801 1.390 1_564 S
C799 H803 0.950 . S
H800 C796 0.950 . S
C801 C799 1.390 1_546 S
C801 C802 1.387 . S
C801 H804 0.950 . S
C802 C801 1.387 . S
C802 C805 1.387 . S
H803 C799 0.950 . S
H804 C801 0.950 . S
C805 C796 1.390 1_546 S
C805 H798 0.950 . S
C805 C802 1.387 . S
C806 C807 1.387 1_554 S
C806 H810 0.950 . S
C806 C815 1.390 1_655 S
C807 C806 1.387 1_556 S
C807 C809 1.387 . S
H808 C815 0.950 . S
C809 C807 1.387 . S
C809 C811 1.390 1_655 S
C809 H813 0.950 . S
H810 C806 0.950 . S
C811 C809 1.390 1_455 S
C811 C812 1.387 1_556 S
C811 H814 0.950 . S
C812 C811 1.387 1_554 S
C812 C815 1.387 . S
H813 C809 0.950 . S
H814 C811 0.950 . S
C815 C806 1.390 1_455 S
C815 H808 0.950 . S
C815 C812 1.387 . S
C816 C817 1.387 . S
C816 H820 0.950 . S
C816 C825 1.390 . S
C817 C816 1.387 . S
C817 C819 1.387 . S
H818 C825 0.950 . S
C819 C817 1.387 . S
C819 C821 1.390 . S
C819 H823 0.950 . S
H820 C816 0.950 . S
C821 C819 1.390 . S
C821 C822 1.387 . S
C821 H824 0.950 . S
C822 C821 1.387 . S
C822 C825 1.387 . S
H823 C819 0.950 . S
H824 C821 0.950 . S
C825 C816 1.390 . S
C825 H818 0.950 . S
C825 C822 1.387 . S
C826 C827 1.387 . S
C826 H830 0.950 . S
C826 C835 1.390 . S
C827 C826 1.387 . S
C827 C829 1.387 . S
H828 C835 0.950 . S
C829 C827 1.387 . S
C829 C831 1.390 . S
C829 H833 0.950 . S
H830 C826 0.950 . S
C831 C829 1.390 . S
C831 C832 1.387 . S
C831 H834 0.950 . S
C832 C831 1.387 . S
C832 C835 1.387 . S
H833 C829 0.950 . S
H834 C831 0.950 . S
C835 C826 1.390 . S
C835 H828 0.950 . S
C835 C832 1.387 . S
C836 C837 1.387 . S
C836 H840 0.950 1_545 S
C836 C845 1.390 . S
C837 C836 1.387 . S
C837 C839 1.387 . S
H838 C845 0.950 . S
C839 C837 1.387 . S
C839 C841 1.390 . S
C839 H843 0.950 . S
H840 C836 0.950 1_565 S
C841 C839 1.390 . S
C841 C842 1.387 . S
C841 H844 0.950 . S
C842 C841 1.387 . S
C842 C845 1.387 . S
H843 C839 0.950 . S
H844 C841 0.950 . S
C845 C836 1.390 . S
C845 H838 0.950 . S
C845 C842 1.387 . S
C846 C847 1.387 . S
C846 H850 0.950 . S
C846 C855 1.390 . S
C847 C846 1.387 . S
C847 C849 1.387 . S
H848 C855 0.950 1_565 S
C849 C847 1.387 . S
C849 C851 1.390 . S
C849 H853 0.950 . S
H850 C846 0.950 . S
C851 C849 1.390 . S
C851 C852 1.387 . S
C851 H854 0.950 . S
C852 C851 1.387 . S
C852 C855 1.387 . S
H853 C849 0.950 . S
H854 C851 0.950 . S
C855 C846 1.390 . S
C855 H848 0.950 1_545 S
C855 C852 1.387 . S
C856 C857 1.387 . S
C856 H860 0.950 1_655 S
C856 C865 1.390 . S
C857 C856 1.387 . S
C857 C859 1.387 . S
H858 C865 0.950 . S
C859 C857 1.387 . S
C859 C861 1.390 . S
C859 H863 0.950 . S
H860 C856 0.950 1_455 S
C861 C859 1.390 . S
C861 C862 1.387 . S
C861 H864 0.950 . S
C862 C861 1.387 . S
C862 C865 1.387 . S
H863 C859 0.950 . S
H864 C861 0.950 . S
C865 C856 1.390 . S
C865 H858 0.950 . S
C865 C862 1.387 . S
C866 C867 1.387 . S
C866 H870 0.950 . S
C866 C875 1.390 . S
C867 C866 1.387 . S
C867 C869 1.387 . S
H868 C875 0.950 . S
C869 C867 1.387 . S
C869 C871 1.390 . S
C869 H873 0.950 . S
H870 C866 0.950 . S
C871 C869 1.390 . S
C871 C872 1.387 . S
C871 H874 0.950 . S
C872 C871 1.387 . S
C872 C875 1.387 . S
H873 C869 0.950 . S
H874 C871 0.950 . S
C875 C866 1.390 . S
C875 H868 0.950 . S
C875 C872 1.387 . S
C876 C877 1.387 . S
C876 H880 0.950 . S
C876 C885 1.390 . S
C877 C876 1.387 . S
C877 C879 1.387 . S
H878 C885 0.950 . S
C879 C877 1.387 . S
C879 C881 1.390 . S
C879 H883 0.950 . S
H880 C876 0.950 . S
C881 C879 1.390 . S
C881 C882 1.387 . S
C881 H884 0.950 1_565 S
C882 C881 1.387 . S
C882 C885 1.387 . S
H883 C879 0.950 . S
H884 C881 0.950 1_545 S
C885 C876 1.390 . S
C885 H878 0.950 . S
C885 C882 1.387 . S
C886 C887 1.387 . S
C886 H890 0.950 . S
C886 C895 1.390 . S
C887 C886 1.387 . S
C887 C889 1.387 . S
H888 C895 0.950 1_655 S
C889 C887 1.387 . S
C889 C891 1.390 . S
C889 H893 0.950 . S
H890 C886 0.950 . S
C891 C889 1.390 . S
C891 C892 1.387 . S
C891 H894 0.950 . S
C892 C891 1.387 . S
C892 C895 1.387 . S
H893 C889 0.950 . S
H894 C891 0.950 . S
C895 C886 1.390 . S
C895 H888 0.950 1_455 S
C895 C892 1.387 . S
C896 C897 1.387 . S
C896 H900 0.950 . S
C896 C905 1.390 . S
C897 C896 1.387 . S
C897 C899 1.387 . S
H898 C905 0.950 . S
C899 C897 1.387 . S
C899 C901 1.390 . S
C899 H903 0.950 . S
H900 C896 0.950 . S
C901 C899 1.390 . S
C901 C902 1.387 . S
C901 H904 0.950 . S
C902 C901 1.387 . S
C902 C905 1.387 . S
H903 C899 0.950 . S
H904 C901 0.950 . S
C905 C896 1.390 . S
C905 H898 0.950 . S
C905 C902 1.387 . S
C906 C907 1.387 . S
C906 H910 0.950 . S
C906 C915 1.390 . S
C907 C906 1.387 . S
C907 C909 1.387 . S
H908 C915 0.950 . S
C909 C907 1.387 . S
C909 C911 1.390 . S
C909 H913 0.950 . S
H910 C906 0.950 . S
C911 C909 1.390 . S
C911 C912 1.387 . S
C911 H914 0.950 . S
C912 C911 1.387 . S
C912 C915 1.387 . S
H913 C909 0.950 . S
H914 C911 0.950 . S
C915 C906 1.390 . S
C915 H908 0.950 . S
C915 C912 1.387 . S
C916 C917 1.387 . S
C916 H920 0.950 . S
C916 C925 1.390 . S
C917 C916 1.387 . S
C917 C919 1.387 . S
H918 C925 0.950 . S
C919 C917 1.387 . S
C919 C921 1.390 . S
C919 H923 0.950 . S
H920 C916 0.950 . S
C921 C919 1.390 . S
C921 C922 1.387 . S
C921 H924 0.950 . S
C922 C921 1.387 . S
C922 C925 1.387 . S
H923 C919 0.950 . S
H924 C921 0.950 . S
C925 C916 1.390 . S
C925 H918 0.950 . S
C925 C922 1.387 . S
C926 C927 1.387 . S
C926 H930 0.950 . S
C926 C935 1.390 . S
C927 C926 1.387 . S
C927 C929 1.387 . S
H928 C935 0.950 . S
C929 C927 1.387 . S
C929 C931 1.390 . S
C929 H933 0.950 . S
H930 C926 0.950 . S
C931 C929 1.390 . S
C931 C932 1.387 . S
C931 H934 0.950 1_565 S
C932 C931 1.387 . S
C932 C935 1.387 . S
H933 C929 0.950 . S
H934 C931 0.950 1_545 S
C935 C926 1.390 . S
C935 H928 0.950 . S
C935 C932 1.387 . S
C397 C59 1.203 . S
C402 C8 1.210 . S
C407 C30 1.211 . S
C412 C21 1.200 . S
C417 C43 1.200 . S
C422 C54 1.211 . S
C427 C84 1.211 . S
C432 C103 1.200 . S
C437 C125 1.200 . S
C442 C98 1.211 . S
C447 C120 1.210 . S
C452 C73 1.203 . S
C457 C191 1.200 1_565 S
C462 C140 1.211 . S
C467 C153 1.200 1_455 S
C472 C172 1.211 1_565 S
C477 C161 1.203 . S
C482 C186 1.210 1_455 S
C487 C235 1.202 . S
C492 C208 1.210 . S
C497 C230 1.210 . S
C502 C257 1.203 . S
C507 C213 1.200 . S
C512 C252 1.212 . S
C517 C274 1.211 . S
C522 C323 1.200 . S
C527 C279 1.200 . S
C532 C294 1.211 . S
C537 C307 1.201 . S
C542 C318 1.210 . S
C547 C359 1.200 1_655 S
C552 C348 1.211 . S
C557 C389 1.200 . S
C562 C370 1.211 1_545 S
C567 C384 1.210 1_655 S
C572 C337 1.203 1_545 S
C577 C18 1.275 . S
C582 C206 1.274 . S
C587 C40 1.274 . S
C592 C228 1.274 . S
C597 C250 1.273 . S
C602 C52 1.273 . S
C607 C76 1.272 . S
C612 C272 1.274 . S
C617 C304 1.273 . S
C622 C96 1.273 . S
C627 C316 1.275 . S
C632 C118 1.273 . S
C637 C293 1.327 . S
C642 C131 1.330 . S
C647 C81 1.328 . S
C652 C329 1.328 . S
C657 C285 1.330 . S
C662 C109 1.327 . S
C667 C29 1.330 . S
C672 C263 1.327 . S
C677 C65 1.328 . S
C682 C219 1.328 . S
C687 C241 1.330 . S
C692 C7 1.327 . S
C697 C340 1.274 . S
C702 C150 1.272 . S
C707 C164 1.273 . S
C712 C362 1.273 . S
C717 C382 1.273 . S
C722 C184 1.275 . S
C727 C395 1.327 . S
C732 C169 1.330 . S
C737 C197 1.328 . S
C742 C345 1.328 . S
C747 C367 1.328 . S
C752 C139 1.329 . S
C757 C15 1.412 . S
C762 C87 1.412 . S
C767 C95 1.413 . S
C772 C37 1.413 . S
C777 C117 1.413 . S
C782 C51 1.413 . S
C787 C32 1.321 . S
C792 C128 1.320 . S
C797 C62 1.320 . S
C802 C74 1.320 . S
C807 C106 1.320 . S
C812 C10 1.320 . S
C817 C147 1.413 . S
C822 C205 1.413 . S
C827 C227 1.412 . S
C832 C175 1.412 . S
C837 C249 1.412 . S
C842 C183 1.412 . S
C847 C162 1.321 . S
C852 C260 1.320 . S
C857 C216 1.321 . S
C862 C194 1.321 . S
C867 C142 1.320 . S
C872 C238 1.321 . S
C877 C351 1.413 . S
C882 C271 1.413 . S
C887 C373 1.412 . S
C892 C301 1.412 . S
C897 C381 1.413 . S
C902 C315 1.413 . S
C907 C296 1.321 . S
C912 C392 1.320 . S
C917 C326 1.321 . S
C922 C338 1.321 . S
C927 C360 1.320 . S
C932 C282 1.321 . S
