# Generated by pormake.
# Topology unm, (4)-cn, num edge types: 1
# Building blocks:
#     Node 0, Type 0, BuildingBlock: QUQFOY_clean_sbu_1, # of connection points: 4
#     Node 1, Type 0, BuildingBlock: QUQFOY_clean_sbu_1, # of connection points: 4
#     Node 2, Type 0, BuildingBlock: QUQFOY_clean_sbu_1, # of connection points: 4
#     Node 3, Type 0, BuildingBlock: QUQFOY_clean_sbu_1, # of connection points: 4
#     Node 4, Type 0, BuildingBlock: QUQFOY_clean_sbu_1, # of connection points: 4
#     Node 5, Type 0, BuildingBlock: QUQFOY_clean_sbu_1, # of connection points: 4
#     Node 6, Type 0, BuildingBlock: QUQFOY_clean_sbu_1, # of connection points: 4
#     Node 7, Type 0, BuildingBlock: QUQFOY_clean_sbu_1, # of connection points: 4
#     Edge 8, Type (0, 0), BuildingBlock: TEMPAE_clean_linker_10, # of connection points: 2
#     Edge 9, Type (0, 0), BuildingBlock: TEMPAE_clean_linker_10, # of connection points: 2
#     Edge 10, Type (0, 0), BuildingBlock: TEMPAE_clean_linker_10, # of connection points: 2
#     Edge 11, Type (0, 0), BuildingBlock: TEMPAE_clean_linker_10, # of connection points: 2
#     Edge 12, Type (0, 0), BuildingBlock: TEMPAE_clean_linker_10, # of connection points: 2
#     Edge 13, Type (0, 0), BuildingBlock: TEMPAE_clean_linker_10, # of connection points: 2
#     Edge 14, Type (0, 0), BuildingBlock: TEMPAE_clean_linker_10, # of connection points: 2
#     Edge 15, Type (0, 0), BuildingBlock: TEMPAE_clean_linker_10, # of connection points: 2
#     Edge 16, Type (0, 0), BuildingBlock: TEMPAE_clean_linker_10, # of connection points: 2
#     Edge 17, Type (0, 0), BuildingBlock: TEMPAE_clean_linker_10, # of connection points: 2
#     Edge 18, Type (0, 0), BuildingBlock: TEMPAE_clean_linker_10, # of connection points: 2
#     Edge 19, Type (0, 0), BuildingBlock: TEMPAE_clean_linker_10, # of connection points: 2
#     Edge 20, Type (0, 0), BuildingBlock: TEMPAE_clean_linker_10, # of connection points: 2
#     Edge 21, Type (0, 0), BuildingBlock: TEMPAE_clean_linker_10, # of connection points: 2
#     Edge 22, Type (0, 0), BuildingBlock: TEMPAE_clean_linker_10, # of connection points: 2
#     Edge 23, Type (0, 0), BuildingBlock: TEMPAE_clean_linker_10, # of connection points: 2
# Relax obj value: 0.173
# Max RMSD: 0.172
# Mean RMSD: 0.172
data_MOF--net-unm--node1-QUQFOY_clean_sbu_1--edge1-TEMPAE_clean_linker_10
_symmetry_space_group_name_H-M    P1
_symmetry_Int_Tables_number       1
_symmetry_cell_setting            triclinic
loop_
_symmetry_equiv_pos_as_xyz
'x, y, z'
_cell_length_a     28.027374
_cell_length_b     28.03248
_cell_length_c     44.699033
_cell_angle_alpha  89.975008
_cell_angle_beta   90.022801
_cell_angle_gamma 90.069923
loop_
_atom_site_label
_atom_site_type_symbol
_atom_site_fract_x
_atom_site_fract_y
_atom_site_fract_z
_atom_type_partial_charge
O0 O 0.2124 0.27218 0.12414 0.0
Cd1 Cd 0.21078 0.30642 0.16525 0.0
Cd2 Cd 0.12042 0.25481 0.16551 0.0
O3 O 0.14917 0.22503 0.12785 0.0
O4 O 0.27529 0.33635 0.16882 0.0
O5 O 0.24933 0.28064 0.19976 0.0
C6 C 0.28294 0.30949 0.1917 0.0
C7 C 0.06581 0.21194 0.19485 0.0
C8 C 0.18534 0.23989 0.11348 0.0
C9 C 0.12026 0.3628 0.16517 0.0
O10 O 0.09849 0.32375 0.16085 0.0
O11 O 0.16485 0.36363 0.17026 0.0
O12 O 0.05718 0.22229 0.16737 0.0
O13 O 0.10716 0.22322 0.20546 0.0
O14 O 0.23715 0.70724 0.60997 0.0
Cd15 Cd 0.20242 0.70544 0.65095 0.0
Cd16 Cd 0.2469 0.61428 0.6492 0.0
O17 O 0.28179 0.6424 0.61315 0.0
O18 O 0.17535 0.77088 0.65543 0.0
O19 O 0.22961 0.74133 0.68611 0.0
C20 C 0.20212 0.77632 0.6786 0.0
C21 C 0.28338 0.56113 0.68225 0.0
C22 C 0.26892 0.67972 0.59923 0.0
C23 C 0.14038 0.61859 0.64848 0.0
O24 O 0.17761 0.59519 0.64197 0.0
O25 O 0.14302 0.66224 0.65587 0.0
O26 O 0.27713 0.55064 0.6545 0.0
O27 O 0.27207 0.60357 0.69096 0.0
O28 O 0.79222 0.69183 0.11185 0.0
Cd29 Cd 0.79681 0.67382 0.15664 0.0
Cd30 Cd 0.86423 0.73902 0.15254 0.0
O31 O 0.82512 0.76277 0.1167 0.0
O32 O 0.73715 0.63853 0.1667 0.0
O33 O 0.75578 0.70892 0.18597 0.0
C34 C 0.72597 0.67382 0.18383 0.0
C35 C 0.90205 0.78747 0.18729 0.0
C36 C 0.8024 0.73254 0.10104 0.0
C37 C 0.89476 0.63933 0.15937 0.0
O38 O 0.90409 0.67839 0.14629 0.0
O39 O 0.85336 0.63207 0.16997 0.0
O40 O 0.91452 0.78757 0.15954 0.0
O41 O 0.8645 0.76343 0.19477 0.0
O42 O 0.79463 0.29814 0.62233 0.0
Cd43 Cd 0.81663 0.30757 0.66608 0.0
Cd44 Cd 0.75235 0.37941 0.65871 0.0
O45 O 0.72605 0.33626 0.62541 0.0
O46 O 0.8545 0.24914 0.67534 0.0
O47 O 0.78736 0.26742 0.69857 0.0
C48 C 0.82248 0.23817 0.69486 0.0
C49 C 0.70534 0.4284 0.68866 0.0
C50 C 0.75443 0.30928 0.61115 0.0
C51 C 0.85517 0.4043 0.66225 0.0
O52 O 0.81549 0.41393 0.65003 0.0
O53 O 0.86146 0.36412 0.67476 0.0
O54 O 0.70803 0.43462 0.66017 0.0
O55 O 0.72562 0.39107 0.69988 0.0
O56 O 0.70091 0.18966 0.38551 0.0
Cd57 Cd 0.6963 0.16605 0.34212 0.0
Cd58 Cd 0.62479 0.23482 0.34164 0.0
O59 O 0.65958 0.25623 0.38019 0.0
O60 O 0.75776 0.13379 0.3325 0.0
O61 O 0.73341 0.20009 0.31028 0.0
C62 C 0.76565 0.16749 0.31346 0.0
C63 C 0.58253 0.28652 0.31061 0.0
C64 C 0.68584 0.22902 0.39593 0.0
C65 C 0.59827 0.1304 0.33621 0.0
O66 O 0.5861 0.17269 0.34269 0.0
O67 O 0.64181 0.11959 0.33246 0.0
O68 O 0.571 0.28068 0.33823 0.0
O69 O 0.62176 0.26732 0.30141 0.0
O70 O 0.27133 0.20512 0.88372 0.0
Cd71 Cd 0.30325 0.20146 0.84195 0.0
Cd72 Cd 0.25613 0.11367 0.84394 0.0
O73 O 0.2245 0.14165 0.88122 0.0
O74 O 0.33098 0.26615 0.83536 0.0
O75 O 0.27391 0.23588 0.80694 0.0
C76 C 0.30251 0.2708 0.81293 0.0
C77 C 0.21672 0.06526 0.80949 0.0
C78 C 0.23942 0.17832 0.89506 0.0
C79 C 0.3624 0.11285 0.8432 0.0
O80 O 0.32443 0.09069 0.84983 0.0
O81 O 0.36124 0.15682 0.83639 0.0
O82 O 0.222 0.05245 0.83695 0.0
O83 O 0.23037 0.10766 0.802 0.0
O84 O 0.2753 0.77163 0.37208 0.0
Cd85 Cd 0.27071 0.81047 0.3333 0.0
Cd86 Cd 0.36443 0.76011 0.3229 0.0
O87 O 0.34493 0.736 0.3649 0.0
O88 O 0.20463 0.83674 0.33249 0.0
O89 O 0.23216 0.78641 0.29855 0.0
C90 C 0.19748 0.81228 0.3085 0.0
C91 C 0.42146 0.71499 0.29684 0.0
C92 C 0.30857 0.74441 0.38106 0.0
C93 C 0.35763 0.8695 0.32184 0.0
O94 O 0.38038 0.83098 0.3178 0.0
O95 O 0.314 0.86945 0.32939 0.0
O96 O 0.43075 0.73464 0.3221 0.0
O97 O 0.37849 0.7185 0.28672 0.0
O98 O 0.71151 0.79707 0.87087 0.0
Cd99 Cd 0.69186 0.80716 0.82679 0.0
Cd100 Cd 0.75385 0.88067 0.83732 0.0
O101 O 0.77925 0.8371 0.87069 0.0
O102 O 0.65299 0.74917 0.81795 0.0
O103 O 0.72077 0.76555 0.7949 0.0
C104 C 0.68508 0.73698 0.79882 0.0
C105 C 0.80032 0.93134 0.80804 0.0
C106 C 0.7504 0.80876 0.88355 0.0
C107 C 0.65103 0.90265 0.83133 0.0
O108 O 0.68924 0.91252 0.84522 0.0
O109 O 0.64704 0.86332 0.81747 0.0
O110 O 0.79667 0.93728 0.83652 0.0
O111 O 0.78145 0.89345 0.79653 0.0
C112 C 0.23772 0.22208 0.0697 0.0
C113 C 0.19205 0.2244 0.08227 0.0
C114 C 0.24376 0.21211 0.03917 0.0
C115 C 0.20306 0.20623 0.0207 0.0
C116 C 0.15688 0.20817 0.03339 0.0
C117 C 0.15198 0.21643 0.06415 0.0
C118 C 0.29362 0.20866 0.02658 0.0
C119 C 0.11264 0.20354 0.01429 0.0
C120 C 0.22275 0.23215 0.93827 0.0
C121 C 0.22469 0.18604 0.92632 0.0
C122 C 0.21392 0.23929 0.96884 0.0
C123 C 0.20881 0.19928 0.98796 0.0
C124 C 0.21026 0.15266 0.9759 0.0
C125 C 0.21739 0.14664 0.9451 0.0
C126 C 0.21092 0.28959 0.98076 0.0
C127 C 0.20638 0.10913 0.99568 0.0
H128 H 0.26867 0.22827 0.08375 0.0
H129 H 0.11656 0.21902 0.07377 0.0
H130 H 0.29783 0.17486 0.01395 0.0
H131 H 0.29999 0.23838 0.01068 0.0
H132 H 0.32133 0.21016 0.04434 0.0
H133 H 0.07935 0.20523 0.02773 0.0
H134 H 0.1119 0.23265 -0.00254 0.0
H135 H 0.11309 0.16934 0.00185 0.0
H136 H 0.22843 0.26258 0.92371 0.0
H137 H 0.21969 0.1109 0.93594 0.0
H138 H 0.24125 0.29655 0.99609 0.0
H139 H 0.17762 0.29425 0.99386 0.0
H140 H 0.21168 0.31664 0.96259 0.0
H141 H 0.23616 0.10896 0.01206 0.0
H142 H 0.2075 0.07537 0.9827 0.0
H143 H 0.17268 0.11007 0.00865 0.0
C144 C 0.2965 0.64819 0.55017 0.0
C145 C 0.28578 0.68751 0.56836 0.0
C146 C 0.30416 0.65383 0.51938 0.0
C147 C 0.30233 0.70004 0.50672 0.0
C148 C 0.29471 0.74019 0.52535 0.0
C149 C 0.28576 0.73336 0.55592 0.0
C150 C 0.31109 0.61008 0.50016 0.0
C151 C 0.29395 0.79019 0.51277 0.0
C152 C 0.34978 0.72208 0.42842 0.0
C153 C 0.30728 0.72674 0.41212 0.0
C154 C 0.3489 0.71252 0.45923 0.0
C155 C 0.30449 0.70626 0.47376 0.0
C156 C 0.26162 0.70828 0.45702 0.0
C157 C 0.26351 0.71923 0.42645 0.0
C158 C 0.39524 0.71163 0.47645 0.0
C159 C 0.21363 0.70038 0.47158 0.0
H160 H 0.29601 0.61259 0.55966 0.0
H161 H 0.27768 0.7638 0.56999 0.0
H162 H 0.27952 0.60528 0.48547 0.0
H163 H 0.3426 0.61443 0.48542 0.0
H164 H 0.31578 0.57721 0.51374 0.0
H165 H 0.29307 0.8177 0.53065 0.0
H166 H 0.32579 0.79644 0.49855 0.0
H167 H 0.26199 0.79482 0.49842 0.0
H168 H 0.38368 0.72844 0.41743 0.0
H169 H 0.23065 0.72261 0.4138 0.0
H170 H 0.3979 0.67858 0.49 0.0
H171 H 0.39627 0.74217 0.49223 0.0
H172 H 0.42684 0.71387 0.46152 0.0
H173 H 0.2138 0.66665 0.48458 0.0
H174 H 0.1842 0.69882 0.45495 0.0
H175 H 0.20612 0.7298 0.48748 0.0
C176 C 0.79044 0.70523 0.0486 0.0
C177 C 0.79236 0.74275 0.0693 0.0
C178 C 0.78501 0.71427 0.01795 0.0
C179 C 0.78007 0.76188 0.00793 0.0
C180 C 0.78087 0.79986 0.02881 0.0
C181 C 0.78771 0.78986 0.05927 0.0
C182 C 0.78539 0.67296 0.99627 0.0
C183 C 0.77439 0.85099 0.01899 0.0
C184 C 0.80511 0.79389 0.92686 0.0
C185 C 0.75902 0.79363 0.91472 0.0
C186 C 0.8127 0.78247 0.95708 0.0
C187 C 0.77309 0.77189 0.97562 0.0
C188 C 0.72654 0.77139 0.96342 0.0
C189 C 0.72015 0.78166 0.93303 0.0
C190 C 0.86297 0.7821 0.96923 0.0
C191 C 0.68334 0.76128 0.98262 0.0
H192 H 0.79471 0.66879 0.05627 0.0
H193 H 0.78916 0.81887 0.07528 0.0
H194 H 0.75115 0.67148 0.98385 0.0
H195 H 0.81416 0.67809 0.97952 0.0
H196 H 0.79094 0.63817 0.00765 0.0
H197 H 0.77455 0.87621 0.03816 0.0
H198 H 0.80333 0.86129 0.00334 0.0
H199 H 0.74014 0.85486 0.00677 0.0
H200 H 0.83521 0.80301 0.91273 0.0
H201 H 0.68435 0.78195 0.92384 0.0
H202 H 0.87059 0.74725 0.97999 0.0
H203 H 0.86691 0.80998 0.98666 0.0
H204 H 0.89 0.78859 0.95151 0.0
H205 H 0.68651 0.72557 0.99311 0.0
H206 H 0.64954 0.76253 0.96965 0.0
H207 H 0.68123 0.78781 0.00099 0.0
C208 C 0.70412 0.20468 0.44821 0.0
C209 C 0.69615 0.24124 0.42738 0.0
C210 C 0.71183 0.21497 0.47848 0.0
C211 C 0.71288 0.26307 0.488 0.0
C212 C 0.70542 0.30023 0.46703 0.0
C213 C 0.69644 0.28881 0.43696 0.0
C214 C 0.71855 0.17436 0.50031 0.0
C215 C 0.70753 0.35198 0.47628 0.0
C216 C 0.69587 0.29155 0.57039 0.0
C217 C 0.74324 0.29518 0.58015 0.0
C218 C 0.68536 0.28046 0.54047 0.0
C219 C 0.72315 0.27438 0.5198 0.0
C220 C 0.77101 0.27838 0.52955 0.0
C221 C 0.78047 0.28805 0.55971 0.0
C222 C 0.63392 0.27511 0.53101 0.0
C223 C 0.81224 0.27321 0.50803 0.0
H224 H 0.70326 0.16779 0.44094 0.0
H225 H 0.69035 0.3171 0.42087 0.0
H226 H 0.75456 0.17638 0.51053 0.0
H227 H 0.69219 0.17719 0.51873 0.0
H228 H 0.71449 0.13891 0.48949 0.0
H229 H 0.70152 0.37659 0.45716 0.0
H230 H 0.68027 0.35926 0.49366 0.0
H231 H 0.7429 0.35999 0.48628 0.0
H232 H 0.66708 0.29702 0.58621 0.0
H233 H 0.81716 0.29153 0.5671 0.0
H234 H 0.62818 0.23935 0.52097 0.0
H235 H 0.62514 0.30191 0.5136 0.0
H236 H 0.60881 0.27958 0.55002 0.0
H237 H 0.81197 0.23708 0.49793 0.0
H238 H 0.84732 0.27893 0.51905 0.0
H239 H 0.80854 0.29927 0.48948 0.0
C240 C 0.36091 0.34956 0.20257 0.0
C241 C 0.32908 0.31175 0.20785 0.0
C242 C 0.40497 0.35217 0.21748 0.0
C243 C 0.41781 0.31574 0.23784 0.0
C244 C 0.38596 0.27731 0.24313 0.0
C245 C 0.34183 0.27598 0.22824 0.0
C246 C 0.43763 0.394 0.21158 0.0
C247 C 0.39857 0.23744 0.26446 0.0
C248 C 0.546 0.28956 0.25977 0.0
C249 C 0.54669 0.3056 0.28948 0.0
C250 C 0.50504 0.29501 0.24196 0.0
C251 C 0.46423 0.3177 0.25405 0.0
C252 C 0.46648 0.33797 0.28301 0.0
C253 C 0.5076 0.33141 0.30046 0.0
C254 C 0.50412 0.27288 0.21118 0.0
C255 C 0.42419 0.3634 0.2965 0.0
H256 H 0.35122 0.37747 0.18692 0.0
H257 H 0.31754 0.24656 0.2323 0.0
H258 H 0.44474 0.41339 0.23275 0.0
H259 H 0.47249 0.3812 0.20303 0.0
H260 H 0.42234 0.41943 0.19511 0.0
H261 H 0.37042 0.20955 0.26553 0.0
H262 H 0.43253 0.22044 0.25749 0.0
H263 H 0.40407 0.25201 0.28728 0.0
H264 H 0.57594 0.26928 0.25121 0.0
H265 H 0.50801 0.34407 0.32337 0.0
H266 H 0.48888 0.29804 0.1946 0.0
H267 H 0.48091 0.24078 0.21153 0.0
H268 H 0.54026 0.26204 0.2036 0.0
H269 H 0.40884 0.38918 0.28032 0.0
H270 H 0.43382 0.38277 0.31732 0.0
H271 H 0.39595 0.33701 0.30193 0.0
C272 C 0.23627 0.83158 0.71707 0.0
C273 C 0.20073 0.82126 0.69599 0.0
C274 C 0.23512 0.8741 0.73365 0.0
C275 C 0.19709 0.90671 0.7294 0.0
C276 C 0.16111 0.89647 0.70814 0.0
C277 C 0.16355 0.85404 0.69153 0.0
C278 C 0.27454 0.88404 0.75585 0.0
C279 C 0.11965 0.92996 0.7033 0.0
C280 C 0.17786 0.98832 0.79586 0.0
C281 C 0.20246 0.02949 0.78691 0.0
C282 C 0.17323 0.94911 0.77659 0.0
C283 C 0.19458 0.95078 0.74791 0.0
C284 C 0.21696 0.99334 0.73809 0.0
C285 C 0.22023 0.03244 0.75766 0.0
C286 C 0.14798 0.90486 0.78763 0.0
C287 C 0.24048 0.99643 0.70778 0.0
H288 H 0.26522 0.80655 0.72048 0.0
H289 H 0.13583 0.84621 0.67534 0.0
H290 H 0.29143 0.91898 0.75086 0.0
H291 H 0.25953 0.88623 0.77876 0.0
H292 H 0.30257 0.85606 0.75559 0.0
H293 H 0.09506 0.91722 0.6855 0.0
H294 H 0.09917 0.93383 0.7244 0.0
H295 H 0.13287 0.96594 0.6971 0.0
H296 H 0.1639 0.986 0.81843 0.0
H297 H 0.23968 0.06402 0.75074 0.0
H298 H 0.17445 0.8761 0.79147 0.0
H299 H 0.12233 0.8918 0.77059 0.0
H300 H 0.12845 0.91129 0.80887 0.0
H301 H 0.27239 0.97303 0.70742 0.0
H302 H 0.25187 0.03338 0.70228 0.0
H303 H 0.21594 0.98361 0.69004 0.0
C304 C 0.50236 0.67917 0.29338 0.0
C305 C 0.46079 0.69473 0.27894 0.0
C306 C 0.54409 0.66964 0.27719 0.0
C307 C 0.54449 0.67678 0.24585 0.0
C308 C 0.50174 0.68952 0.23091 0.0
C309 C 0.46015 0.69796 0.24767 0.0
C310 C 0.58856 0.655 0.2939 0.0
C311 C 0.50077 0.69775 0.19754 0.0
C312 C 0.66328 0.71635 0.21331 0.0
C313 C 0.67977 0.67433 0.19989 0.0
C314 C 0.61893 0.71771 0.22785 0.0
C315 C 0.59063 0.67584 0.22937 0.0
C316 C 0.60716 0.63322 0.216 0.0
C317 C 0.65142 0.63305 0.20125 0.0
C318 C 0.60236 0.76402 0.24162 0.0
C319 C 0.57834 0.58774 0.21754 0.0
H320 H 0.50285 0.67637 0.31758 0.0
H321 H 0.42816 0.71035 0.23646 0.0
H322 H 0.60602 0.62437 0.28265 0.0
H323 H 0.61441 0.685 0.29397 0.0
H324 H 0.58082 0.645 0.31746 0.0
H325 H 0.46384 0.70194 0.1889 0.0
H326 H 0.52119 0.7306 0.19217 0.0
H327 H 0.51812 0.66777 0.18559 0.0
H328 H 0.68482 0.74844 0.21217 0.0
H329 H 0.66397 0.60039 0.19096 0.0
H330 H 0.59802 0.75955 0.26613 0.0
H331 H 0.56702 0.77407 0.23238 0.0
H332 H 0.62776 0.79377 0.23752 0.0
H333 H 0.57288 0.57734 0.24125 0.0
H334 H 0.59593 0.55775 0.20565 0.0
H335 H 0.54252 0.59345 0.20761 0.0
C336 C 0.78739 0.1775 0.72965 0.0
C337 C 0.82539 0.19259 0.7116 0.0
C338 C 0.78878 0.13327 0.74439 0.0
C339 C 0.82932 0.10351 0.74118 0.0
C340 C 0.86813 0.11886 0.72337 0.0
C341 C 0.86563 0.16312 0.70871 0.0
C342 C 0.74658 0.11813 0.76315 0.0
C343 C 0.91211 0.08838 0.71964 0.0
C344 C 0.84024 0.01046 0.80237 0.0
C345 C 0.81807 0.97089 0.78906 0.0
C346 C 0.84686 0.0531 0.78643 0.0
C347 C 0.83063 0.05634 0.75651 0.0
C348 C 0.81149 0.01542 0.74227 0.0
C349 C 0.80564 0.97305 0.7587 0.0
C350 C 0.86821 0.09562 0.80229 0.0
C351 C 0.79393 0.01734 0.71036 0.0
H352 H 0.75614 0.19995 0.73193 0.0
H353 H 0.89524 0.17454 0.69484 0.0
H354 H 0.73168 0.08417 0.75445 0.0
H355 H 0.75812 0.11157 0.78654 0.0
H356 H 0.71779 0.14534 0.76334 0.0
H357 H 0.93969 0.10595 0.70559 0.0
H358 H 0.92785 0.08024 0.74184 0.0
H359 H 0.90234 0.05384 0.70919 0.0
H360 H 0.85023 0.00899 0.82579 0.0
H361 H 0.78837 0.94271 0.74826 0.0
H362 H 0.83995 0.12247 0.8065 0.0
H363 H 0.89579 0.11288 0.78814 0.0
H364 H 0.88456 0.08568 0.82406 0.0
H365 H 0.76147 0.0399 0.70919 0.0
H366 H 0.78502 0.98138 0.70152 0.0
H367 H 0.82117 0.03386 0.69563 0.0
C368 C 0.84243 0.13024 0.29691 0.0
C369 C 0.81097 0.16918 0.29641 0.0
C370 C 0.88602 0.13172 0.28141 0.0
C371 C 0.89869 0.17333 0.26534 0.0
C372 C 0.86715 0.2128 0.26485 0.0
C373 C 0.82356 0.21013 0.28023 0.0
C374 C 0.91839 0.08871 0.28212 0.0
C375 C 0.87951 0.25799 0.24812 0.0
C376 C 0.02719 0.20217 0.24492 0.0
C377 C 0.02703 0.19336 0.21405 0.0
C378 C 0.98619 0.19385 0.26228 0.0
C379 C 0.94445 0.17566 0.24846 0.0
C380 C 0.94535 0.16348 0.21774 0.0
C381 C 0.9865 0.17283 0.20087 0.0
C382 C 0.9866 0.20747 0.29495 0.0
C383 C 0.90196 0.14312 0.20228 0.0
H384 H 0.83292 0.09839 0.30932 0.0
H385 H 0.79959 0.24044 0.27988 0.0
H386 H 0.92463 0.07563 0.25903 0.0
H387 H 0.95364 0.09868 0.29153 0.0
H388 H 0.90332 0.05907 0.29567 0.0
H389 H 0.85166 0.28588 0.25057 0.0
H390 H 0.9139 0.27252 0.25641 0.0
H391 H 0.88407 0.25009 0.22398 0.0
H392 H 0.05831 0.21833 0.25518 0.0
H393 H 0.9863 0.16567 0.17703 0.0
H394 H 0.97233 0.17796 0.30885 0.0
H395 H 0.9631 0.23882 0.29843 0.0
H396 H 0.023 0.21662 0.30298 0.0
H397 H 0.88708 0.1129 0.21533 0.0
H398 H 0.91016 0.1305 0.17929 0.0
H399 H 0.87384 0.17085 0.20081 0.0
C400 C 0.28307 0.52638 0.73373 0.0
C401 C 0.29701 0.52334 0.70368 0.0
C402 C 0.28682 0.48671 0.75281 0.0
C403 C 0.3057 0.44338 0.74164 0.0
C404 C 0.32278 0.4412 0.71188 0.0
C405 C 0.31786 0.48109 0.69319 0.0
C406 C 0.2679 0.49033 0.78435 0.0
C407 C 0.34411 0.39601 0.69931 0.0
C408 C 0.34198 0.34638 0.79653 0.0
C409 C 0.30309 0.31491 0.79473 0.0
C410 C 0.34343 0.3883 0.77936 0.0
C411 C 0.30466 0.39943 0.76033 0.0
C412 C 0.26505 0.36804 0.75866 0.0
C413 C 0.26496 0.3259 0.77568 0.0
C414 C 0.38665 0.42037 0.7813 0.0
C415 C 0.22273 0.37899 0.7389 0.0
H416 H 0.26656 0.55883 0.74187 0.0
H417 H 0.32887 0.47864 0.66999 0.0
H418 H 0.23592 0.46726 0.78671 0.0
H419 H 0.29486 0.47739 0.8006 0.0
H420 H 0.25789 0.52745 0.79035 0.0
H421 H 0.36016 0.40165 0.67686 0.0
H422 H 0.37198 0.38195 0.71458 0.0
H423 H 0.31601 0.36827 0.69738 0.0
H424 H 0.37173 0.33793 0.81109 0.0
H425 H 0.23472 0.30185 0.77433 0.0
H426 H 0.37585 0.45666 0.78847 0.0
H427 H 0.40336 0.42387 0.75891 0.0
H428 H 0.4138 0.40665 0.79724 0.0
H429 H 0.20771 0.41436 0.7448 0.0
H430 H 0.19408 0.35176 0.74092 0.0
H431 H 0.23421 0.38078 0.71518 0.0
C432 C 0.11689 0.84872 0.30083 0.0
C433 C 0.15083 0.81409 0.29299 0.0
C434 C 0.0726 0.85113 0.28619 0.0
C435 C 0.06182 0.81774 0.26345 0.0
C436 C 0.09578 0.78244 0.25564 0.0
C437 C 0.13999 0.78126 0.27037 0.0
C438 C 0.03757 0.8896 0.29484 0.0
C439 C 0.08545 0.74588 0.23167 0.0
C440 C 0.93647 0.78597 0.23869 0.0
C441 C 0.93542 0.80627 0.21002 0.0
C442 C 0.97629 0.79205 0.25739 0.0
C443 C 0.01545 0.81967 0.24728 0.0
C444 C 0.01227 0.84427 0.2197 0.0
C445 C 0.97238 0.83702 0.20129 0.0
C446 C 0.97822 0.76528 0.28668 0.0
C447 C 0.05273 0.87499 0.20841 0.0
H448 H 0.12512 0.87437 0.31822 0.0
H449 H 0.16594 0.7543 0.2643 0.0
H450 H 0.02964 0.91241 0.27517 0.0
H451 H 0.00338 0.87332 0.30208 0.0
H452 H 0.05123 0.91258 0.31319 0.0
H453 H 0.11513 0.72004 0.22883 0.0
H454 H 0.0525 0.72582 0.2373 0.0
H455 H 0.07918 0.76403 0.20996 0.0
H456 H 0.9081 0.76201 0.24553 0.0
H457 H 0.97156 0.8531 0.17923 0.0
H458 H 0.99199 0.78848 0.30483 0.0
H459 H 0.00309 0.7347 0.28448 0.0
H460 H 0.94266 0.75131 0.29332 0.0
H461 H 0.06626 0.89861 0.22643 0.0
H462 H 0.04178 0.89737 0.18908 0.0
H463 H 0.0827 0.85184 0.20124 0.0
C464 C 0.6635 0.50621 0.69477 0.0
C465 C 0.68722 0.46739 0.70785 0.0
C466 C 0.657 0.54896 0.71054 0.0
C467 C 0.67484 0.55302 0.74005 0.0
C468 C 0.69528 0.51269 0.75421 0.0
C469 C 0.70106 0.4702 0.73795 0.0
C470 C 0.63426 0.59084 0.6948 0.0
C471 C 0.71444 0.51548 0.78573 0.0
C472 C 0.71885 0.67527 0.76435 0.0
C473 C 0.68165 0.69077 0.78286 0.0
C474 C 0.71696 0.63051 0.75032 0.0
C475 C 0.67678 0.60059 0.7548 0.0
C476 C 0.63883 0.61625 0.77317 0.0
C477 C 0.64175 0.66112 0.78702 0.0
C478 C 0.75821 0.61506 0.73087 0.0
C479 C 0.59533 0.58551 0.77832 0.0
H480 H 0.65238 0.50418 0.67157 0.0
H481 H 0.71948 0.44041 0.74821 0.0
H482 H 0.60746 0.60819 0.70944 0.0
H483 H 0.66201 0.61785 0.68958 0.0
H484 H 0.61663 0.58014 0.67357 0.0
H485 H 0.72367 0.47974 0.79478 0.0
H486 H 0.74704 0.53798 0.78598 0.0
H487 H 0.68805 0.53246 0.80081 0.0
H488 H 0.74982 0.69788 0.76109 0.0
H489 H 0.6128 0.67281 0.8013 0.0
H490 H 0.74543 0.60768 0.70784 0.0
H491 H 0.77374 0.58148 0.73969 0.0
H492 H 0.78683 0.64244 0.72972 0.0
H493 H 0.57828 0.5766 0.75663 0.0
H494 H 0.56851 0.60325 0.79283 0.0
H495 H 0.60596 0.55136 0.78893 0.0
C496 C 0.97246 0.60423 0.14353 0.0
C497 C 0.93203 0.60248 0.16199 0.0
C498 C 0.00713 0.56832 0.14474 0.0
C499 C 0.0015 0.53027 0.16523 0.0
C500 C 0.96183 0.5294 0.18481 0.0
C501 C 0.92727 0.56534 0.18276 0.0
C502 C 0.04856 0.56996 0.12316 0.0
C503 C 0.95508 0.48968 0.20726 0.0
C504 C 0.05131 0.40899 0.14621 0.0
C505 C 0.09251 0.4073 0.16394 0.0
C506 C 0.02227 0.44945 0.14581 0.0
C507 C 0.03423 0.48886 0.16408 0.0
C508 C 0.07625 0.48782 0.18169 0.0
C509 C 0.10534 0.44704 0.18115 0.0
C510 C 0.97829 0.44962 0.12623 0.0
C511 C 0.08957 0.52904 0.20175 0.0
H512 H 0.97633 0.63294 0.12745 0.0
H513 H 0.8964 0.56421 0.19735 0.0
H514 H 0.08279 0.56557 0.1353 0.0
H515 H 0.04558 0.53995 0.10708 0.0
H516 H 0.04981 0.6039 0.11034 0.0
H517 H 0.92511 0.49686 0.22288 0.0
H518 H 0.94766 0.45576 0.19534 0.0
H519 H 0.98817 0.48446 0.22049 0.0
H520 H 0.04166 0.37844 0.1326 0.0
H521 H 0.13709 0.44558 0.19498 0.0
H522 H 0.97844 0.48144 0.11145 0.0
H523 H 0.94585 0.45173 0.14037 0.0
H524 H 0.9757 0.41718 0.11205 0.0
H525 H 0.09117 0.56264 0.18868 0.0
H526 H 0.1245 0.52351 0.21298 0.0
H527 H 0.06175 0.53376 0.21915 0.0
C528 C 0.9349 0.43397 0.67905 0.0
C529 C 0.89402 0.43987 0.66138 0.0
C530 C 0.97248 0.46692 0.6777 0.0
C531 C 0.96926 0.50623 0.65791 0.0
C532 C 0.92769 0.51297 0.64051 0.0
C533 C 0.89042 0.47982 0.64258 0.0
C534 C 0.01615 0.459 0.69687 0.0
C535 C 0.9233 0.5542 0.61891 0.0
C536 C 0.0579 0.60726 0.66841 0.0
C537 C 0.09428 0.5934 0.64877 0.0
C538 C 0.01633 0.57968 0.67132 0.0
C539 C 0.01098 0.53802 0.65373 0.0
C540 C 0.04665 0.52528 0.63284 0.0
C541 C 0.08809 0.55291 0.63083 0.0
C542 C 0.97916 0.59393 0.69404 0.0
C543 C 0.04171 0.48165 0.61323 0.0
H544 H 0.93766 0.40346 0.69386 0.0
H545 H 0.85887 0.48465 0.62887 0.0
H546 H 0.04733 0.45117 0.6824 0.0
H547 H 0.02465 0.49176 0.70974 0.0
H548 H 0.01143 0.42893 0.71281 0.0
H549 H 0.88734 0.55616 0.60852 0.0
H550 H 0.93067 0.58841 0.63048 0.0
H551 H 0.95021 0.5504 0.60087 0.0
H552 H 0.06284 0.63843 0.68243 0.0
H553 H 0.11604 0.54244 0.61541 0.0
H554 H 0.97723 0.56651 0.71191 0.0
H555 H 0.94342 0.59577 0.68345 0.0
H556 H 0.98721 0.62896 0.70452 0.0
H557 H 0.04158 0.44906 0.62732 0.0
H558 H 0.07117 0.47866 0.59671 0.0
H559 H 0.00731 0.48262 0.60096 0.0
C560 C 0.56785 0.04747 0.34195 0.0
C561 C 0.56079 0.09434 0.33225 0.0
C562 C 0.53128 0.01356 0.33939 0.0
C563 C 0.48746 0.02669 0.32586 0.0
C564 C 0.48068 0.07379 0.31537 0.0
C565 C 0.51724 0.10734 0.31917 0.0
C566 C 0.53931 0.9639 0.3515 0.0
C567 C 0.43513 0.08858 0.29988 0.0
C568 C 0.41785 0.92074 0.29717 0.0
C569 C 0.38438 0.91435 0.32005 0.0
C570 C 0.44972 0.9592 0.29779 0.0
C571 C 0.44907 0.99074 0.32249 0.0
C572 C 0.41401 0.98547 0.34507 0.0
C573 C 0.38143 0.94756 0.34331 0.0
C574 C 0.48552 0.96469 0.27277 0.0
C575 C 0.41301 0.01775 0.37209 0.0
H576 H 0.60149 0.03772 0.35225 0.0
H577 H 0.51211 0.14365 0.31142 0.0
H578 H 0.51093 0.95474 0.36784 0.0
H579 H 0.53722 0.93751 0.33307 0.0
H580 H 0.57454 0.9602 0.36266 0.0
H581 H 0.43609 0.12637 0.29238 0.0
H582 H 0.42879 0.06548 0.28011 0.0
H583 H 0.40431 0.0838 0.31514 0.0
H584 H 0.41987 0.89487 0.27918 0.0
H585 H 0.35584 0.94201 0.36117 0.0
H586 H 0.52167 0.95556 0.28107 0.0
H587 H 0.48664 0.00222 0.2649 0.0
H588 H 0.47715 0.94119 0.25345 0.0
H589 H 0.4458 0.0121 0.38556 0.0
H590 H 0.3815 0.01095 0.38656 0.0
H591 H 0.41268 0.05571 0.36513 0.0
C592 C 0.41135 0.04279 0.85782 0.0
C593 C 0.40767 0.08622 0.84245 0.0
C594 C 0.45267 0.01508 0.85591 0.0
C595 C 0.49094 0.0309 0.83783 0.0
C596 C 0.48786 0.07509 0.82262 0.0
C597 C 0.44625 0.10253 0.82531 0.0
C598 C 0.45505 0.9685 0.87288 0.0
C599 C 0.52794 0.09269 0.80292 0.0
C600 C 0.61065 0.97378 0.85305 0.0
C601 C 0.61108 0.93681 0.83191 0.0
C602 C 0.57222 0.0055 0.85476 0.0
C603 C 0.53371 0.00045 0.83457 0.0
C604 C 0.53459 0.96417 0.81256 0.0
C605 C 0.57318 0.93247 0.81164 0.0
C606 C 0.57208 0.04335 0.87881 0.0
C607 C 0.49429 0.95821 0.79043 0.0
H608 H 0.38172 0.03026 0.8713 0.0
H609 H 0.44336 0.13598 0.81327 0.0
H610 H 0.45837 0.93837 0.85694 0.0
H611 H 0.48709 0.96793 0.88746 0.0
H612 H 0.42298 0.96243 0.88698 0.0
H613 H 0.52046 0.12846 0.79329 0.0
H614 H 0.56167 0.09457 0.81586 0.0
H615 H 0.53376 0.06717 0.78431 0.0
H616 H 0.63986 0.97727 0.8688 0.0
H617 H 0.57361 0.90424 0.79508 0.0
H618 H 0.5422 0.03668 0.89455 0.0
H619 H 0.56626 0.07906 0.86878 0.0
H620 H 0.60594 0.04407 0.89174 0.0
H621 H 0.4612 0.9479 0.80242 0.0
H622 H 0.50215 0.93057 0.77333 0.0
H623 H 0.4871 0.99251 0.77888 0.0
loop_
_geom_bond_atom_site_label_1
_geom_bond_atom_site_label_2
_geom_bond_distance
_geom_bond_site_symmetry_2
_ccdc_geom_bond_type
O0 Cd1 2.223 . S
O0 C8 1.315 . S
Cd1 O0 2.223 . S
Cd1 O4 2.297 . S
Cd1 O5 2.439 . S
Cd1 O11 2.240 . S
Cd2 O3 2.240 . S
Cd2 O10 2.223 . S
Cd2 O12 2.297 . S
Cd2 O13 2.439 . S
O3 Cd2 2.240 . S
O3 C8 1.279 . S
O4 Cd1 2.297 . S
O4 C6 1.247 . S
O5 Cd1 2.439 . S
O5 C6 1.208 . S
C6 O4 1.247 . S
C6 O5 1.208 . S
C7 O12 1.247 . S
C7 O13 1.208 . S
C8 O0 1.315 . S
C8 O3 1.279 . S
C9 O10 1.315 . S
C9 O11 1.279 . S
O10 Cd2 2.223 . S
O10 C9 1.315 . S
O11 Cd1 2.240 . S
O11 C9 1.279 . S
O12 Cd2 2.297 . S
O12 C7 1.247 . S
O13 Cd2 2.439 . S
O13 C7 1.208 . S
O14 Cd15 2.223 . S
O14 C22 1.315 . S
Cd15 O14 2.223 . S
Cd15 O18 2.297 . S
Cd15 O19 2.439 . S
Cd15 O25 2.240 . S
Cd16 O17 2.240 . S
Cd16 O24 2.223 . S
Cd16 O26 2.297 . S
Cd16 O27 2.439 . S
O17 Cd16 2.240 . S
O17 C22 1.279 . S
O18 Cd15 2.297 . S
O18 C20 1.247 . S
O19 Cd15 2.439 . S
O19 C20 1.208 . S
C20 O18 1.247 . S
C20 O19 1.208 . S
C21 O26 1.247 . S
C21 O27 1.208 . S
C22 O14 1.315 . S
C22 O17 1.279 . S
C23 O24 1.315 . S
C23 O25 1.279 . S
O24 Cd16 2.223 . S
O24 C23 1.315 . S
O25 Cd15 2.240 . S
O25 C23 1.279 . S
O26 Cd16 2.297 . S
O26 C21 1.247 . S
O27 Cd16 2.439 . S
O27 C21 1.208 . S
O28 Cd29 2.223 . S
O28 C36 1.315 . S
Cd29 O28 2.223 . S
Cd29 O32 2.297 . S
Cd29 O33 2.439 . S
Cd29 O39 2.240 . S
Cd30 O31 2.240 . S
Cd30 O38 2.223 . S
Cd30 O40 2.297 . S
Cd30 O41 2.439 . S
O31 Cd30 2.240 . S
O31 C36 1.279 . S
O32 Cd29 2.297 . S
O32 C34 1.247 . S
O33 Cd29 2.439 . S
O33 C34 1.208 . S
C34 O32 1.247 . S
C34 O33 1.208 . S
C35 O40 1.247 . S
C35 O41 1.208 . S
C36 O28 1.315 . S
C36 O31 1.279 . S
C37 O38 1.315 . S
C37 O39 1.279 . S
O38 Cd30 2.223 . S
O38 C37 1.315 . S
O39 Cd29 2.240 . S
O39 C37 1.279 . S
O40 Cd30 2.297 . S
O40 C35 1.247 . S
O41 Cd30 2.439 . S
O41 C35 1.208 . S
O42 Cd43 2.223 . S
O42 C50 1.315 . S
Cd43 O42 2.223 . S
Cd43 O46 2.297 . S
Cd43 O47 2.439 . S
Cd43 O53 2.240 . S
Cd44 O45 2.240 . S
Cd44 O52 2.223 . S
Cd44 O54 2.297 . S
Cd44 O55 2.439 . S
O45 Cd44 2.240 . S
O45 C50 1.279 . S
O46 Cd43 2.297 . S
O46 C48 1.247 . S
O47 Cd43 2.439 . S
O47 C48 1.208 . S
C48 O46 1.247 . S
C48 O47 1.208 . S
C49 O54 1.247 . S
C49 O55 1.208 . S
C50 O42 1.315 . S
C50 O45 1.279 . S
C51 O52 1.315 . S
C51 O53 1.279 . S
O52 Cd44 2.223 . S
O52 C51 1.315 . S
O53 Cd43 2.240 . S
O53 C51 1.279 . S
O54 Cd44 2.297 . S
O54 C49 1.247 . S
O55 Cd44 2.439 . S
O55 C49 1.208 . S
O56 Cd57 2.223 . S
O56 C64 1.315 . S
Cd57 O56 2.223 . S
Cd57 O60 2.297 . S
Cd57 O61 2.439 . S
Cd57 O67 2.240 . S
Cd58 O59 2.240 . S
Cd58 O66 2.223 . S
Cd58 O68 2.297 . S
Cd58 O69 2.439 . S
O59 Cd58 2.240 . S
O59 C64 1.279 . S
O60 Cd57 2.297 . S
O60 C62 1.247 . S
O61 Cd57 2.439 . S
O61 C62 1.208 . S
C62 O60 1.247 . S
C62 O61 1.208 . S
C63 O68 1.247 . S
C63 O69 1.208 . S
C64 O56 1.315 . S
C64 O59 1.279 . S
C65 O66 1.315 . S
C65 O67 1.279 . S
O66 Cd58 2.223 . S
O66 C65 1.315 . S
O67 Cd57 2.240 . S
O67 C65 1.279 . S
O68 Cd58 2.297 . S
O68 C63 1.247 . S
O69 Cd58 2.439 . S
O69 C63 1.208 . S
O70 Cd71 2.223 . S
O70 C78 1.315 . S
Cd71 O70 2.223 . S
Cd71 O74 2.297 . S
Cd71 O75 2.439 . S
Cd71 O81 2.240 . S
Cd72 O73 2.240 . S
Cd72 O80 2.223 . S
Cd72 O82 2.297 . S
Cd72 O83 2.439 . S
O73 Cd72 2.240 . S
O73 C78 1.279 . S
O74 Cd71 2.297 . S
O74 C76 1.247 . S
O75 Cd71 2.439 . S
O75 C76 1.208 . S
C76 O74 1.247 . S
C76 O75 1.208 . S
C77 O82 1.247 . S
C77 O83 1.208 . S
C78 O70 1.315 . S
C78 O73 1.279 . S
C79 O80 1.315 . S
C79 O81 1.279 . S
O80 Cd72 2.223 . S
O80 C79 1.315 . S
O81 Cd71 2.240 . S
O81 C79 1.279 . S
O82 Cd72 2.297 . S
O82 C77 1.247 . S
O83 Cd72 2.439 . S
O83 C77 1.208 . S
O84 Cd85 2.223 . S
O84 C92 1.315 . S
Cd85 O84 2.223 . S
Cd85 O88 2.297 . S
Cd85 O89 2.439 . S
Cd85 O95 2.240 . S
Cd86 O87 2.240 . S
Cd86 O94 2.223 . S
Cd86 O96 2.297 . S
Cd86 O97 2.439 . S
O87 Cd86 2.240 . S
O87 C92 1.279 . S
O88 Cd85 2.297 . S
O88 C90 1.247 . S
O89 Cd85 2.439 . S
O89 C90 1.208 . S
C90 O88 1.247 . S
C90 O89 1.208 . S
C91 O96 1.247 . S
C91 O97 1.208 . S
C92 O84 1.315 . S
C92 O87 1.279 . S
C93 O94 1.315 . S
C93 O95 1.279 . S
O94 Cd86 2.223 . S
O94 C93 1.315 . S
O95 Cd85 2.240 . S
O95 C93 1.279 . S
O96 Cd86 2.297 . S
O96 C91 1.247 . S
O97 Cd86 2.439 . S
O97 C91 1.208 . S
O98 Cd99 2.223 . S
O98 C106 1.315 . S
Cd99 O98 2.223 . S
Cd99 O102 2.297 . S
Cd99 O103 2.439 . S
Cd99 O109 2.240 . S
Cd100 O101 2.240 . S
Cd100 O108 2.223 . S
Cd100 O110 2.297 . S
Cd100 O111 2.439 . S
O101 Cd100 2.240 . S
O101 C106 1.279 . S
O102 Cd99 2.297 . S
O102 C104 1.247 . S
O103 Cd99 2.439 . S
O103 C104 1.208 . S
C104 O102 1.247 . S
C104 O103 1.208 . S
C105 O110 1.247 . S
C105 O111 1.208 . S
C106 O98 1.315 . S
C106 O101 1.279 . S
C107 O108 1.315 . S
C107 O109 1.279 . S
O108 Cd100 2.223 . S
O108 C107 1.315 . S
O109 Cd99 2.240 . S
O109 C107 1.279 . S
O110 Cd100 2.297 . S
O110 C105 1.247 . S
O111 Cd100 2.439 . S
O111 C105 1.208 . S
C112 C113 1.391 . S
C112 C114 1.394 . S
C112 H128 0.931 . S
C113 C112 1.391 . S
C113 C117 1.376 . S
C114 C112 1.394 . S
C114 C115 1.369 . S
C114 C118 1.531 . S
C115 C114 1.369 . S
C115 C116 1.410 . S
C115 C123 1.503 1_554 S
C116 C115 1.410 . S
C116 C117 1.392 . S
C116 C119 1.511 1_554 S
C117 C113 1.376 . S
C117 C116 1.392 . S
C117 H129 0.929 . S
C118 C114 1.531 . S
C118 H130 0.960 . S
C118 H131 0.962 . S
C118 H132 0.960 . S
C119 C116 1.511 1_556 S
C119 H133 0.961 . S
C119 H134 0.961 . S
C119 H135 0.961 . S
C120 C121 1.370 . S
C120 C122 1.363 . S
C120 H136 0.931 . S
C121 C120 1.370 . S
C121 C125 1.408 . S
C122 C120 1.363 . S
C122 C123 1.370 . S
C122 C126 1.524 . S
C123 C115 1.503 1_556 S
C123 C122 1.370 . S
C123 C124 1.403 . S
C124 C123 1.403 . S
C124 C125 1.404 . S
C124 C127 1.539 . S
C125 C121 1.408 . S
C125 C124 1.404 . S
C125 H137 0.930 . S
C126 C122 1.524 . S
C126 H138 0.956 . S
C126 H139 0.961 . S
C126 H140 0.961 . S
C127 C124 1.539 . S
C127 H141 0.958 1_556 S
C127 H142 0.961 . S
C127 H143 0.960 1_556 S
H128 C112 0.931 . S
H129 C117 0.929 . S
H130 C118 0.960 . S
H131 C118 0.962 . S
H132 C118 0.960 . S
H133 C119 0.961 . S
H134 C119 0.961 . S
H135 C119 0.961 . S
H136 C120 0.931 . S
H137 C125 0.930 . S
H138 C126 0.956 . S
H139 C126 0.961 . S
H140 C126 0.961 . S
H141 C127 0.958 1_554 S
H142 C127 0.961 . S
H143 C127 0.960 1_554 S
C144 C145 1.391 . S
C144 C146 1.394 . S
C144 H160 0.931 . S
C145 C144 1.391 . S
C145 C149 1.376 . S
C146 C144 1.394 . S
C146 C147 1.369 . S
C146 C150 1.531 . S
C147 C146 1.369 . S
C147 C148 1.410 . S
C147 C155 1.503 . S
C148 C147 1.410 . S
C148 C149 1.392 . S
C148 C151 1.511 . S
C149 C145 1.376 . S
C149 C148 1.392 . S
C149 H161 0.929 . S
C150 C146 1.531 . S
C150 H162 0.960 . S
C150 H163 0.962 . S
C150 H164 0.960 . S
C151 C148 1.511 . S
C151 H165 0.961 . S
C151 H166 0.961 . S
C151 H167 0.961 . S
C152 C153 1.370 . S
C152 C154 1.363 . S
C152 H168 0.931 . S
C153 C152 1.370 . S
C153 C157 1.408 . S
C154 C152 1.363 . S
C154 C155 1.370 . S
C154 C158 1.524 . S
C155 C147 1.503 . S
C155 C154 1.370 . S
C155 C156 1.403 . S
C156 C155 1.403 . S
C156 C157 1.404 . S
C156 C159 1.539 . S
C157 C153 1.408 . S
C157 C156 1.404 . S
C157 H169 0.930 . S
C158 C154 1.524 . S
C158 H170 0.956 . S
C158 H171 0.961 . S
C158 H172 0.961 . S
C159 C156 1.539 . S
C159 H173 0.958 . S
C159 H174 0.961 . S
C159 H175 0.960 . S
H160 C144 0.931 . S
H161 C149 0.929 . S
H162 C150 0.960 . S
H163 C150 0.962 . S
H164 C150 0.960 . S
H165 C151 0.961 . S
H166 C151 0.961 . S
H167 C151 0.961 . S
H168 C152 0.931 . S
H169 C157 0.930 . S
H170 C158 0.956 . S
H171 C158 0.961 . S
H172 C158 0.961 . S
H173 C159 0.958 . S
H174 C159 0.961 . S
H175 C159 0.960 . S
C176 C177 1.391 . S
C176 C178 1.394 . S
C176 H192 0.931 . S
C177 C176 1.391 . S
C177 C181 1.376 . S
C178 C176 1.394 . S
C178 C179 1.369 . S
C178 C182 1.531 1_554 S
C179 C178 1.369 . S
C179 C180 1.410 . S
C179 C187 1.503 1_554 S
C180 C179 1.410 . S
C180 C181 1.392 . S
C180 C183 1.511 . S
C181 C177 1.376 . S
C181 C180 1.392 . S
C181 H193 0.929 . S
C182 C178 1.531 1_556 S
C182 H194 0.960 . S
C182 H195 0.962 . S
C182 H196 0.960 . S
C183 C180 1.511 . S
C183 H197 0.961 . S
C183 H198 0.961 . S
C183 H199 0.961 . S
C184 C185 1.370 . S
C184 C186 1.363 . S
C184 H200 0.931 . S
C185 C184 1.370 . S
C185 C189 1.408 . S
C186 C184 1.363 . S
C186 C187 1.370 . S
C186 C190 1.524 . S
C187 C179 1.503 1_556 S
C187 C186 1.370 . S
C187 C188 1.403 . S
C188 C187 1.403 . S
C188 C189 1.404 . S
C188 C191 1.539 . S
C189 C185 1.408 . S
C189 C188 1.404 . S
C189 H201 0.930 . S
C190 C186 1.524 . S
C190 H202 0.956 . S
C190 H203 0.961 1_556 S
C190 H204 0.961 . S
C191 C188 1.539 . S
C191 H205 0.958 . S
C191 H206 0.961 . S
C191 H207 0.960 1_556 S
H192 C176 0.931 . S
H193 C181 0.929 . S
H194 C182 0.960 . S
H195 C182 0.962 . S
H196 C182 0.960 . S
H197 C183 0.961 . S
H198 C183 0.961 . S
H199 C183 0.961 . S
H200 C184 0.931 . S
H201 C189 0.930 . S
H202 C190 0.956 . S
H203 C190 0.961 1_554 S
H204 C190 0.961 . S
H205 C191 0.958 . S
H206 C191 0.961 . S
H207 C191 0.960 1_554 S
C208 C209 1.391 . S
C208 C210 1.394 . S
C208 H224 0.931 . S
C209 C208 1.391 . S
C209 C213 1.376 . S
C210 C208 1.394 . S
C210 C211 1.369 . S
C210 C214 1.531 . S
C211 C210 1.369 . S
C211 C212 1.410 . S
C211 C219 1.503 . S
C212 C211 1.410 . S
C212 C213 1.392 . S
C212 C215 1.511 . S
C213 C209 1.376 . S
C213 C212 1.392 . S
C213 H225 0.929 . S
C214 C210 1.531 . S
C214 H226 0.960 . S
C214 H227 0.962 . S
C214 H228 0.960 . S
C215 C212 1.511 . S
C215 H229 0.961 . S
C215 H230 0.961 . S
C215 H231 0.961 . S
C216 C217 1.370 . S
C216 C218 1.363 . S
C216 H232 0.931 . S
C217 C216 1.370 . S
C217 C221 1.408 . S
C218 C216 1.363 . S
C218 C219 1.370 . S
C218 C222 1.524 . S
C219 C211 1.503 . S
C219 C218 1.370 . S
C219 C220 1.403 . S
C220 C219 1.403 . S
C220 C221 1.404 . S
C220 C223 1.539 . S
C221 C217 1.408 . S
C221 C220 1.404 . S
C221 H233 0.930 . S
C222 C218 1.524 . S
C222 H234 0.956 . S
C222 H235 0.961 . S
C222 H236 0.961 . S
C223 C220 1.539 . S
C223 H237 0.958 . S
C223 H238 0.961 . S
C223 H239 0.960 . S
H224 C208 0.931 . S
H225 C213 0.929 . S
H226 C214 0.960 . S
H227 C214 0.962 . S
H228 C214 0.960 . S
H229 C215 0.961 . S
H230 C215 0.961 . S
H231 C215 0.961 . S
H232 C216 0.931 . S
H233 C221 0.930 . S
H234 C222 0.956 . S
H235 C222 0.961 . S
H236 C222 0.961 . S
H237 C223 0.958 . S
H238 C223 0.961 . S
H239 C223 0.960 . S
C240 C241 1.391 . S
C240 C242 1.394 . S
C240 H256 0.931 . S
C241 C240 1.391 . S
C241 C245 1.376 . S
C242 C240 1.394 . S
C242 C243 1.369 . S
C242 C246 1.531 . S
C243 C242 1.369 . S
C243 C244 1.410 . S
C243 C251 1.503 . S
C244 C243 1.410 . S
C244 C245 1.392 . S
C244 C247 1.511 . S
C245 C241 1.376 . S
C245 C244 1.392 . S
C245 H257 0.929 . S
C246 C242 1.531 . S
C246 H258 0.960 . S
C246 H259 0.962 . S
C246 H260 0.960 . S
C247 C244 1.511 . S
C247 H261 0.961 . S
C247 H262 0.961 . S
C247 H263 0.961 . S
C248 C249 1.370 . S
C248 C250 1.363 . S
C248 H264 0.931 . S
C249 C248 1.370 . S
C249 C253 1.408 . S
C250 C248 1.363 . S
C250 C251 1.370 . S
C250 C254 1.524 . S
C251 C243 1.503 . S
C251 C250 1.370 . S
C251 C252 1.403 . S
C252 C251 1.403 . S
C252 C253 1.404 . S
C252 C255 1.539 . S
C253 C249 1.408 . S
C253 C252 1.404 . S
C253 H265 0.930 . S
C254 C250 1.524 . S
C254 H266 0.956 . S
C254 H267 0.961 . S
C254 H268 0.961 . S
C255 C252 1.539 . S
C255 H269 0.958 . S
C255 H270 0.961 . S
C255 H271 0.960 . S
H256 C240 0.931 . S
H257 C245 0.929 . S
H258 C246 0.960 . S
H259 C246 0.962 . S
H260 C246 0.960 . S
H261 C247 0.961 . S
H262 C247 0.961 . S
H263 C247 0.961 . S
H264 C248 0.931 . S
H265 C253 0.930 . S
H266 C254 0.956 . S
H267 C254 0.961 . S
H268 C254 0.961 . S
H269 C255 0.958 . S
H270 C255 0.961 . S
H271 C255 0.960 . S
C272 C273 1.391 . S
C272 C274 1.394 . S
C272 H288 0.931 . S
C273 C272 1.391 . S
C273 C277 1.376 . S
C274 C272 1.394 . S
C274 C275 1.369 . S
C274 C278 1.531 . S
C275 C274 1.369 . S
C275 C276 1.410 . S
C275 C283 1.503 . S
C276 C275 1.410 . S
C276 C277 1.392 . S
C276 C279 1.511 . S
C277 C273 1.376 . S
C277 C276 1.392 . S
C277 H289 0.929 . S
C278 C274 1.531 . S
C278 H290 0.960 . S
C278 H291 0.962 . S
C278 H292 0.960 . S
C279 C276 1.511 . S
C279 H293 0.961 . S
C279 H294 0.961 . S
C279 H295 0.961 . S
C280 C281 1.370 1_565 S
C280 C282 1.363 . S
C280 H296 0.931 1_565 S
C281 C280 1.370 1_545 S
C281 C285 1.408 1_545 S
C282 C280 1.363 . S
C282 C283 1.370 . S
C282 C286 1.524 . S
C283 C275 1.503 . S
C283 C282 1.370 . S
C283 C284 1.403 . S
C284 C283 1.403 . S
C284 C285 1.404 . S
C284 C287 1.539 . S
C285 C281 1.408 1_565 S
C285 C284 1.404 . S
C285 H297 0.930 . S
C286 C282 1.524 . S
C286 H298 0.956 . S
C286 H299 0.961 . S
C286 H300 0.961 . S
C287 C284 1.539 . S
C287 H301 0.958 . S
C287 H302 0.961 . S
C287 H303 0.960 . S
H288 C272 0.931 . S
H289 C277 0.929 . S
H290 C278 0.960 . S
H291 C278 0.962 . S
H292 C278 0.960 . S
H293 C279 0.961 . S
H294 C279 0.961 . S
H295 C279 0.961 . S
H296 C280 0.931 1_545 S
H297 C285 0.930 . S
H298 C286 0.956 . S
H299 C286 0.961 . S
H300 C286 0.961 . S
H301 C287 0.958 . S
H302 C287 0.961 . S
H303 C287 0.960 . S
C304 C305 1.391 . S
C304 C306 1.394 . S
C304 H320 0.931 . S
C305 C304 1.391 . S
C305 C309 1.376 . S
C306 C304 1.394 . S
C306 C307 1.369 . S
C306 C310 1.531 . S
C307 C306 1.369 . S
C307 C308 1.410 . S
C307 C315 1.503 . S
C308 C307 1.410 . S
C308 C309 1.392 . S
C308 C311 1.511 . S
C309 C305 1.376 . S
C309 C308 1.392 . S
C309 H321 0.929 . S
C310 C306 1.531 . S
C310 H322 0.960 . S
C310 H323 0.962 . S
C310 H324 0.960 . S
C311 C308 1.511 . S
C311 H325 0.961 . S
C311 H326 0.961 . S
C311 H327 0.961 . S
C312 C313 1.370 . S
C312 C314 1.363 . S
C312 H328 0.931 . S
C313 C312 1.370 . S
C313 C317 1.408 . S
C314 C312 1.363 . S
C314 C315 1.370 . S
C314 C318 1.524 . S
C315 C307 1.503 . S
C315 C314 1.370 . S
C315 C316 1.403 . S
C316 C315 1.403 . S
C316 C317 1.404 . S
C316 C319 1.539 . S
C317 C313 1.408 . S
C317 C316 1.404 . S
C317 H329 0.930 . S
C318 C314 1.524 . S
C318 H330 0.956 . S
C318 H331 0.961 . S
C318 H332 0.961 . S
C319 C316 1.539 . S
C319 H333 0.958 . S
C319 H334 0.961 . S
C319 H335 0.960 . S
H320 C304 0.931 . S
H321 C309 0.929 . S
H322 C310 0.960 . S
H323 C310 0.962 . S
H324 C310 0.960 . S
H325 C311 0.961 . S
H326 C311 0.961 . S
H327 C311 0.961 . S
H328 C312 0.931 . S
H329 C317 0.930 . S
H330 C318 0.956 . S
H331 C318 0.961 . S
H332 C318 0.961 . S
H333 C319 0.958 . S
H334 C319 0.961 . S
H335 C319 0.960 . S
C336 C337 1.391 . S
C336 C338 1.394 . S
C336 H352 0.931 . S
C337 C336 1.391 . S
C337 C341 1.376 . S
C338 C336 1.394 . S
C338 C339 1.369 . S
C338 C342 1.531 . S
C339 C338 1.369 . S
C339 C340 1.410 . S
C339 C347 1.503 . S
C340 C339 1.410 . S
C340 C341 1.392 . S
C340 C343 1.511 . S
C341 C337 1.376 . S
C341 C340 1.392 . S
C341 H353 0.929 . S
C342 C338 1.531 . S
C342 H354 0.960 . S
C342 H355 0.962 . S
C342 H356 0.960 . S
C343 C340 1.511 . S
C343 H357 0.961 . S
C343 H358 0.961 . S
C343 H359 0.961 . S
C344 C345 1.370 1_545 S
C344 C346 1.363 . S
C344 H360 0.931 . S
C345 C344 1.370 1_565 S
C345 C349 1.408 . S
C346 C344 1.363 . S
C346 C347 1.370 . S
C346 C350 1.524 . S
C347 C339 1.503 . S
C347 C346 1.370 . S
C347 C348 1.403 . S
C348 C347 1.403 . S
C348 C349 1.404 1_545 S
C348 C351 1.539 . S
C349 C345 1.408 . S
C349 C348 1.404 1_565 S
C349 H361 0.930 . S
C350 C346 1.524 . S
C350 H362 0.956 . S
C350 H363 0.961 . S
C350 H364 0.961 . S
C351 C348 1.539 . S
C351 H365 0.958 . S
C351 H366 0.961 1_545 S
C351 H367 0.960 . S
H352 C336 0.931 . S
H353 C341 0.929 . S
H354 C342 0.960 . S
H355 C342 0.962 . S
H356 C342 0.960 . S
H357 C343 0.961 . S
H358 C343 0.961 . S
H359 C343 0.961 . S
H360 C344 0.931 . S
H361 C349 0.930 . S
H362 C350 0.956 . S
H363 C350 0.961 . S
H364 C350 0.961 . S
H365 C351 0.958 . S
H366 C351 0.961 1_565 S
H367 C351 0.960 . S
C368 C369 1.391 . S
C368 C370 1.394 . S
C368 H384 0.931 . S
C369 C368 1.391 . S
C369 C373 1.376 . S
C370 C368 1.394 . S
C370 C371 1.369 . S
C370 C374 1.531 . S
C371 C370 1.369 . S
C371 C372 1.410 . S
C371 C379 1.503 . S
C372 C371 1.410 . S
C372 C373 1.392 . S
C372 C375 1.511 . S
C373 C369 1.376 . S
C373 C372 1.392 . S
C373 H385 0.929 . S
C374 C370 1.531 . S
C374 H386 0.960 . S
C374 H387 0.962 . S
C374 H388 0.960 . S
C375 C372 1.511 . S
C375 H389 0.961 . S
C375 H390 0.961 . S
C375 H391 0.961 . S
C376 C377 1.370 1_655 S
C376 C378 1.363 . S
C376 H392 0.931 . S
C377 C376 1.370 1_455 S
C377 C381 1.408 1_455 S
C378 C376 1.363 . S
C378 C379 1.370 . S
C378 C382 1.524 . S
C379 C371 1.503 . S
C379 C378 1.370 . S
C379 C380 1.403 . S
C380 C379 1.403 . S
C380 C381 1.404 . S
C380 C383 1.539 . S
C381 C377 1.408 1_655 S
C381 C380 1.404 . S
C381 H393 0.930 1_655 S
C382 C378 1.524 . S
C382 H394 0.956 . S
C382 H395 0.961 . S
C382 H396 0.961 . S
C383 C380 1.539 . S
C383 H397 0.958 . S
C383 H398 0.961 . S
C383 H399 0.960 . S
H384 C368 0.931 . S
H385 C373 0.929 . S
H386 C374 0.960 . S
H387 C374 0.962 . S
H388 C374 0.960 . S
H389 C375 0.961 . S
H390 C375 0.961 . S
H391 C375 0.961 . S
H392 C376 0.931 . S
H393 C381 0.930 1_455 S
H394 C382 0.956 . S
H395 C382 0.961 . S
H396 C382 0.961 . S
H397 C383 0.958 . S
H398 C383 0.961 . S
H399 C383 0.960 . S
C400 C401 1.391 . S
C400 C402 1.394 . S
C400 H416 0.931 . S
C401 C400 1.391 . S
C401 C405 1.376 . S
C402 C400 1.394 . S
C402 C403 1.369 . S
C402 C406 1.531 . S
C403 C402 1.369 . S
C403 C404 1.410 . S
C403 C411 1.503 . S
C404 C403 1.410 . S
C404 C405 1.392 . S
C404 C407 1.511 . S
C405 C401 1.376 . S
C405 C404 1.392 . S
C405 H417 0.929 . S
C406 C402 1.531 . S
C406 H418 0.960 . S
C406 H419 0.962 . S
C406 H420 0.960 . S
C407 C404 1.511 . S
C407 H421 0.961 . S
C407 H422 0.961 . S
C407 H423 0.961 . S
C408 C409 1.370 . S
C408 C410 1.363 . S
C408 H424 0.931 . S
C409 C408 1.370 . S
C409 C413 1.408 . S
C410 C408 1.363 . S
C410 C411 1.370 . S
C410 C414 1.524 . S
C411 C403 1.503 . S
C411 C410 1.370 . S
C411 C412 1.403 . S
C412 C411 1.403 . S
C412 C413 1.404 . S
C412 C415 1.539 . S
C413 C409 1.408 . S
C413 C412 1.404 . S
C413 H425 0.930 . S
C414 C410 1.524 . S
C414 H426 0.956 . S
C414 H427 0.961 . S
C414 H428 0.961 . S
C415 C412 1.539 . S
C415 H429 0.958 . S
C415 H430 0.961 . S
C415 H431 0.960 . S
H416 C400 0.931 . S
H417 C405 0.929 . S
H418 C406 0.960 . S
H419 C406 0.962 . S
H420 C406 0.960 . S
H421 C407 0.961 . S
H422 C407 0.961 . S
H423 C407 0.961 . S
H424 C408 0.931 . S
H425 C413 0.930 . S
H426 C414 0.956 . S
H427 C414 0.961 . S
H428 C414 0.961 . S
H429 C415 0.958 . S
H430 C415 0.961 . S
H431 C415 0.960 . S
C432 C433 1.391 . S
C432 C434 1.394 . S
C432 H448 0.931 . S
C433 C432 1.391 . S
C433 C437 1.376 . S
C434 C432 1.394 . S
C434 C435 1.369 . S
C434 C438 1.531 . S
C435 C434 1.369 . S
C435 C436 1.410 . S
C435 C443 1.503 . S
C436 C435 1.410 . S
C436 C437 1.392 . S
C436 C439 1.511 . S
C437 C433 1.376 . S
C437 C436 1.392 . S
C437 H449 0.929 . S
C438 C434 1.531 . S
C438 H450 0.960 . S
C438 H451 0.962 . S
C438 H452 0.960 . S
C439 C436 1.511 . S
C439 H453 0.961 . S
C439 H454 0.961 . S
C439 H455 0.961 . S
C440 C441 1.370 1_455 S
C440 C442 1.363 . S
C440 H456 0.931 . S
C441 C440 1.370 1_655 S
C441 C445 1.408 1_655 S
C442 C440 1.363 . S
C442 C443 1.370 . S
C442 C446 1.524 . S
C443 C435 1.503 . S
C443 C442 1.370 . S
C443 C444 1.403 . S
C444 C443 1.403 . S
C444 C445 1.404 . S
C444 C447 1.539 . S
C445 C441 1.408 1_455 S
C445 C444 1.404 . S
C445 H457 0.930 1_455 S
C446 C442 1.524 . S
C446 H458 0.956 . S
C446 H459 0.961 . S
C446 H460 0.961 . S
C447 C444 1.539 . S
C447 H461 0.958 . S
C447 H462 0.961 . S
C447 H463 0.960 . S
H448 C432 0.931 . S
H449 C437 0.929 . S
H450 C438 0.960 . S
H451 C438 0.962 . S
H452 C438 0.960 . S
H453 C439 0.961 . S
H454 C439 0.961 . S
H455 C439 0.961 . S
H456 C440 0.931 . S
H457 C445 0.930 1_655 S
H458 C446 0.956 . S
H459 C446 0.961 . S
H460 C446 0.961 . S
H461 C447 0.958 . S
H462 C447 0.961 . S
H463 C447 0.960 . S
C464 C465 1.391 . S
C464 C466 1.394 . S
C464 H480 0.931 . S
C465 C464 1.391 . S
C465 C469 1.376 . S
C466 C464 1.394 . S
C466 C467 1.369 . S
C466 C470 1.531 . S
C467 C466 1.369 . S
C467 C468 1.410 . S
C467 C475 1.503 . S
C468 C467 1.410 . S
C468 C469 1.392 . S
C468 C471 1.511 . S
C469 C465 1.376 . S
C469 C468 1.392 . S
C469 H481 0.929 . S
C470 C466 1.531 . S
C470 H482 0.960 . S
C470 H483 0.962 . S
C470 H484 0.960 . S
C471 C468 1.511 . S
C471 H485 0.961 . S
C471 H486 0.961 . S
C471 H487 0.961 . S
C472 C473 1.370 . S
C472 C474 1.363 . S
C472 H488 0.931 . S
C473 C472 1.370 . S
C473 C477 1.408 . S
C474 C472 1.363 . S
C474 C475 1.370 . S
C474 C478 1.524 . S
C475 C467 1.503 . S
C475 C474 1.370 . S
C475 C476 1.403 . S
C476 C475 1.403 . S
C476 C477 1.404 . S
C476 C479 1.539 . S
C477 C473 1.408 . S
C477 C476 1.404 . S
C477 H489 0.930 . S
C478 C474 1.524 . S
C478 H490 0.956 . S
C478 H491 0.961 . S
C478 H492 0.961 . S
C479 C476 1.539 . S
C479 H493 0.958 . S
C479 H494 0.961 . S
C479 H495 0.960 . S
H480 C464 0.931 . S
H481 C469 0.929 . S
H482 C470 0.960 . S
H483 C470 0.962 . S
H484 C470 0.960 . S
H485 C471 0.961 . S
H486 C471 0.961 . S
H487 C471 0.961 . S
H488 C472 0.931 . S
H489 C477 0.930 . S
H490 C478 0.956 . S
H491 C478 0.961 . S
H492 C478 0.961 . S
H493 C479 0.958 . S
H494 C479 0.961 . S
H495 C479 0.960 . S
C496 C497 1.391 . S
C496 C498 1.394 . S
C496 H512 0.931 . S
C497 C496 1.391 . S
C497 C501 1.376 . S
C498 C496 1.394 . S
C498 C499 1.369 . S
C498 C502 1.531 1_655 S
C499 C498 1.369 . S
C499 C500 1.410 . S
C499 C507 1.503 1_655 S
C500 C499 1.410 . S
C500 C501 1.392 . S
C500 C503 1.511 . S
C501 C497 1.376 . S
C501 C500 1.392 . S
C501 H513 0.929 . S
C502 C498 1.531 1_455 S
C502 H514 0.960 . S
C502 H515 0.962 . S
C502 H516 0.960 . S
C503 C500 1.511 . S
C503 H517 0.961 . S
C503 H518 0.961 . S
C503 H519 0.961 . S
C504 C505 1.370 . S
C504 C506 1.363 . S
C504 H520 0.931 . S
C505 C504 1.370 . S
C505 C509 1.408 . S
C506 C504 1.363 . S
C506 C507 1.370 . S
C506 C510 1.524 . S
C507 C499 1.503 1_455 S
C507 C506 1.370 . S
C507 C508 1.403 . S
C508 C507 1.403 . S
C508 C509 1.404 . S
C508 C511 1.539 . S
C509 C505 1.408 . S
C509 C508 1.404 . S
C509 H521 0.930 . S
C510 C506 1.524 . S
C510 H522 0.956 . S
C510 H523 0.961 1_455 S
C510 H524 0.961 . S
C511 C508 1.539 . S
C511 H525 0.958 . S
C511 H526 0.961 . S
C511 H527 0.960 1_455 S
H512 C496 0.931 . S
H513 C501 0.929 . S
H514 C502 0.960 . S
H515 C502 0.962 . S
H516 C502 0.960 . S
H517 C503 0.961 . S
H518 C503 0.961 . S
H519 C503 0.961 . S
H520 C504 0.931 . S
H521 C509 0.930 . S
H522 C510 0.956 . S
H523 C510 0.961 1_655 S
H524 C510 0.961 . S
H525 C511 0.958 . S
H526 C511 0.961 . S
H527 C511 0.960 1_655 S
C528 C529 1.391 . S
C528 C530 1.394 . S
C528 H544 0.931 . S
C529 C528 1.391 . S
C529 C533 1.376 . S
C530 C528 1.394 . S
C530 C531 1.369 . S
C530 C534 1.531 1_655 S
C531 C530 1.369 . S
C531 C532 1.410 . S
C531 C539 1.503 1_655 S
C532 C531 1.410 . S
C532 C533 1.392 . S
C532 C535 1.511 . S
C533 C529 1.376 . S
C533 C532 1.392 . S
C533 H545 0.929 . S
C534 C530 1.531 1_455 S
C534 H546 0.960 . S
C534 H547 0.962 . S
C534 H548 0.960 . S
C535 C532 1.511 . S
C535 H549 0.961 . S
C535 H550 0.961 . S
C535 H551 0.961 . S
C536 C537 1.370 . S
C536 C538 1.363 . S
C536 H552 0.931 . S
C537 C536 1.370 . S
C537 C541 1.408 . S
C538 C536 1.363 . S
C538 C539 1.370 . S
C538 C542 1.524 . S
C539 C531 1.503 1_455 S
C539 C538 1.370 . S
C539 C540 1.403 . S
C540 C539 1.403 . S
C540 C541 1.404 . S
C540 C543 1.539 1_455 S
C541 C537 1.408 . S
C541 C540 1.404 . S
C541 H553 0.930 . S
C542 C538 1.524 . S
C542 H554 0.956 . S
C542 H555 0.961 . S
C542 H556 0.961 . S
C543 C540 1.539 1_655 S
C543 H557 0.958 . S
C543 H558 0.961 . S
C543 H559 0.960 . S
H544 C528 0.931 . S
H545 C533 0.929 . S
H546 C534 0.960 . S
H547 C534 0.962 . S
H548 C534 0.960 . S
H549 C535 0.961 . S
H550 C535 0.961 . S
H551 C535 0.961 . S
H552 C536 0.931 . S
H553 C541 0.930 . S
H554 C542 0.956 . S
H555 C542 0.961 . S
H556 C542 0.961 . S
H557 C543 0.958 . S
H558 C543 0.961 . S
H559 C543 0.960 . S
C560 C561 1.391 . S
C560 C562 1.394 . S
C560 H576 0.931 . S
C561 C560 1.391 . S
C561 C565 1.376 . S
C562 C560 1.394 . S
C562 C563 1.369 . S
C562 C566 1.531 1_545 S
C563 C562 1.369 . S
C563 C564 1.410 . S
C563 C571 1.503 1_545 S
C564 C563 1.410 . S
C564 C565 1.392 . S
C564 C567 1.511 . S
C565 C561 1.376 . S
C565 C564 1.392 . S
C565 H577 0.929 . S
C566 C562 1.531 1_565 S
C566 H578 0.960 . S
C566 H579 0.962 . S
C566 H580 0.960 . S
C567 C564 1.511 . S
C567 H581 0.961 . S
C567 H582 0.961 . S
C567 H583 0.961 . S
C568 C569 1.370 . S
C568 C570 1.363 . S
C568 H584 0.931 . S
C569 C568 1.370 . S
C569 C573 1.408 . S
C570 C568 1.363 . S
C570 C571 1.370 . S
C570 C574 1.524 . S
C571 C563 1.503 1_565 S
C571 C570 1.370 . S
C571 C572 1.403 . S
C572 C571 1.403 . S
C572 C573 1.404 . S
C572 C575 1.539 1_565 S
C573 C569 1.408 . S
C573 C572 1.404 . S
C573 H585 0.930 . S
C574 C570 1.524 . S
C574 H586 0.956 . S
C574 H587 0.961 . S
C574 H588 0.961 . S
C575 C572 1.539 1_545 S
C575 H589 0.958 . S
C575 H590 0.961 . S
C575 H591 0.960 . S
H576 C560 0.931 . S
H577 C565 0.929 . S
H578 C566 0.960 . S
H579 C566 0.962 . S
H580 C566 0.960 . S
H581 C567 0.961 . S
H582 C567 0.961 . S
H583 C567 0.961 . S
H584 C568 0.931 . S
H585 C573 0.930 . S
H586 C574 0.956 . S
H587 C574 0.961 . S
H588 C574 0.961 . S
H589 C575 0.958 . S
H590 C575 0.961 . S
H591 C575 0.960 . S
C592 C593 1.391 . S
C592 C594 1.394 . S
C592 H608 0.931 . S
C593 C592 1.391 . S
C593 C597 1.376 . S
C594 C592 1.394 . S
C594 C595 1.369 . S
C594 C598 1.531 1_545 S
C595 C594 1.369 . S
C595 C596 1.410 . S
C595 C603 1.503 1_545 S
C596 C595 1.410 . S
C596 C597 1.392 . S
C596 C599 1.511 . S
C597 C593 1.376 . S
C597 C596 1.392 . S
C597 H609 0.929 . S
C598 C594 1.531 1_565 S
C598 H610 0.960 . S
C598 H611 0.962 . S
C598 H612 0.960 . S
C599 C596 1.511 . S
C599 H613 0.961 . S
C599 H614 0.961 . S
C599 H615 0.961 . S
C600 C601 1.370 . S
C600 C602 1.363 . S
C600 H616 0.931 . S
C601 C600 1.370 . S
C601 C605 1.408 . S
C602 C600 1.363 . S
C602 C603 1.370 . S
C602 C606 1.524 . S
C603 C595 1.503 1_565 S
C603 C602 1.370 . S
C603 C604 1.403 . S
C604 C603 1.403 . S
C604 C605 1.404 . S
C604 C607 1.539 1_565 S
C605 C601 1.408 . S
C605 C604 1.404 . S
C605 H617 0.930 . S
C606 C602 1.524 . S
C606 H618 0.956 . S
C606 H619 0.961 . S
C606 H620 0.961 . S
C607 C604 1.539 1_545 S
C607 H621 0.958 1_545 S
C607 H622 0.961 . S
C607 H623 0.960 . S
H608 C592 0.931 . S
H609 C597 0.929 . S
H610 C598 0.960 . S
H611 C598 0.962 . S
H612 C598 0.960 . S
H613 C599 0.961 . S
H614 C599 0.961 . S
H615 C599 0.961 . S
H616 C600 0.931 . S
H617 C605 0.930 . S
H618 C606 0.956 . S
H619 C606 0.961 . S
H620 C606 0.961 . S
H621 C607 0.958 1_565 S
H622 C607 0.961 . S
H623 C607 0.960 . S
C113 C8 1.517 . S
C121 C78 1.523 . S
C145 C22 1.503 . S
C153 C92 1.511 . S
C177 C36 1.497 . S
C185 C106 1.513 . S
C209 C64 1.491 . S
C217 C50 1.522 . S
C241 C6 1.493 . S
C249 C63 1.479 . S
C273 C20 1.500 . S
C281 C77 1.484 . S
C305 C91 1.506 . S
C313 C34 1.476 . S
C337 C48 1.458 . S
C345 C105 1.496 . S
C369 C62 1.445 . S
C377 C7 1.488 . S
C401 C21 1.499 . S
C409 C76 1.483 . S
C433 C90 1.445 . S
C441 C35 1.488 . S
C465 C49 1.466 . S
C473 C104 1.470 . S
C497 C37 0.963 . S
C505 C9 0.976 . S
C529 C51 0.980 . S
C537 C23 1.010 . S
C561 C65 0.971 . S
C569 C93 1.011 . S
C593 C79 0.988 . S
C601 C107 0.968 . S
