# Generated by pormake.
# Topology whj, (6)-cn, num edge types: 1
# Building blocks:
#     Node 0, Type 0, BuildingBlock: IZENUY_clean_sbu_0, # of connection points: 6
#     Node 1, Type 0, BuildingBlock: IZENUY_clean_sbu_0, # of connection points: 6
#     Node 2, Type 0, BuildingBlock: IZENUY_clean_sbu_0, # of connection points: 6
#     Node 3, Type 0, BuildingBlock: IZENUY_clean_sbu_0, # of connection points: 6
#     Node 4, Type 0, BuildingBlock: IZENUY_clean_sbu_0, # of connection points: 6
#     Node 5, Type 0, BuildingBlock: IZENUY_clean_sbu_0, # of connection points: 6
#     Node 6, Type 0, BuildingBlock: IZENUY_clean_sbu_0, # of connection points: 6
#     Node 7, Type 0, BuildingBlock: IZENUY_clean_sbu_0, # of connection points: 6
#     Node 8, Type 0, BuildingBlock: IZENUY_clean_sbu_0, # of connection points: 6
#     Node 9, Type 0, BuildingBlock: IZENUY_clean_sbu_0, # of connection points: 6
#     Node 10, Type 0, BuildingBlock: IZENUY_clean_sbu_0, # of connection points: 6
#     Node 11, Type 0, BuildingBlock: IZENUY_clean_sbu_0, # of connection points: 6
#     Node 12, Type 0, BuildingBlock: IZENUY_clean_sbu_0, # of connection points: 6
#     Node 13, Type 0, BuildingBlock: IZENUY_clean_sbu_0, # of connection points: 6
#     Node 14, Type 0, BuildingBlock: IZENUY_clean_sbu_0, # of connection points: 6
#     Node 15, Type 0, BuildingBlock: IZENUY_clean_sbu_0, # of connection points: 6
#     Edge 16, Type (0, 0), BuildingBlock: TEMPAE_clean_linker_10, # of connection points: 2
#     Edge 17, Type (0, 0), BuildingBlock: TEMPAE_clean_linker_10, # of connection points: 2
#     Edge 18, Type (0, 0), BuildingBlock: TEMPAE_clean_linker_10, # of connection points: 2
#     Edge 19, Type (0, 0), BuildingBlock: TEMPAE_clean_linker_10, # of connection points: 2
#     Edge 20, Type (0, 0), BuildingBlock: TEMPAE_clean_linker_10, # of connection points: 2
#     Edge 21, Type (0, 0), BuildingBlock: TEMPAE_clean_linker_10, # of connection points: 2
#     Edge 22, Type (0, 0), BuildingBlock: TEMPAE_clean_linker_10, # of connection points: 2
#     Edge 23, Type (0, 0), BuildingBlock: TEMPAE_clean_linker_10, # of connection points: 2
#     Edge 24, Type (0, 0), BuildingBlock: TEMPAE_clean_linker_10, # of connection points: 2
#     Edge 25, Type (0, 0), BuildingBlock: TEMPAE_clean_linker_10, # of connection points: 2
#     Edge 26, Type (0, 0), BuildingBlock: TEMPAE_clean_linker_10, # of connection points: 2
#     Edge 27, Type (0, 0), BuildingBlock: TEMPAE_clean_linker_10, # of connection points: 2
#     Edge 28, Type (0, 0), BuildingBlock: TEMPAE_clean_linker_10, # of connection points: 2
#     Edge 29, Type (0, 0), BuildingBlock: TEMPAE_clean_linker_10, # of connection points: 2
#     Edge 30, Type (0, 0), BuildingBlock: TEMPAE_clean_linker_10, # of connection points: 2
#     Edge 31, Type (0, 0), BuildingBlock: TEMPAE_clean_linker_10, # of connection points: 2
#     Edge 32, Type (0, 0), BuildingBlock: TEMPAE_clean_linker_10, # of connection points: 2
#     Edge 33, Type (0, 0), BuildingBlock: TEMPAE_clean_linker_10, # of connection points: 2
#     Edge 34, Type (0, 0), BuildingBlock: TEMPAE_clean_linker_10, # of connection points: 2
#     Edge 35, Type (0, 0), BuildingBlock: TEMPAE_clean_linker_10, # of connection points: 2
#     Edge 36, Type (0, 0), BuildingBlock: TEMPAE_clean_linker_10, # of connection points: 2
#     Edge 37, Type (0, 0), BuildingBlock: TEMPAE_clean_linker_10, # of connection points: 2
#     Edge 38, Type (0, 0), BuildingBlock: TEMPAE_clean_linker_10, # of connection points: 2
#     Edge 39, Type (0, 0), BuildingBlock: TEMPAE_clean_linker_10, # of connection points: 2
#     Edge 40, Type (0, 0), BuildingBlock: TEMPAE_clean_linker_10, # of connection points: 2
#     Edge 41, Type (0, 0), BuildingBlock: TEMPAE_clean_linker_10, # of connection points: 2
#     Edge 42, Type (0, 0), BuildingBlock: TEMPAE_clean_linker_10, # of connection points: 2
#     Edge 43, Type (0, 0), BuildingBlock: TEMPAE_clean_linker_10, # of connection points: 2
#     Edge 44, Type (0, 0), BuildingBlock: TEMPAE_clean_linker_10, # of connection points: 2
#     Edge 45, Type (0, 0), BuildingBlock: TEMPAE_clean_linker_10, # of connection points: 2
#     Edge 46, Type (0, 0), BuildingBlock: TEMPAE_clean_linker_10, # of connection points: 2
#     Edge 47, Type (0, 0), BuildingBlock: TEMPAE_clean_linker_10, # of connection points: 2
#     Edge 48, Type (0, 0), BuildingBlock: TEMPAE_clean_linker_10, # of connection points: 2
#     Edge 49, Type (0, 0), BuildingBlock: TEMPAE_clean_linker_10, # of connection points: 2
#     Edge 50, Type (0, 0), BuildingBlock: TEMPAE_clean_linker_10, # of connection points: 2
#     Edge 51, Type (0, 0), BuildingBlock: TEMPAE_clean_linker_10, # of connection points: 2
#     Edge 52, Type (0, 0), BuildingBlock: TEMPAE_clean_linker_10, # of connection points: 2
#     Edge 53, Type (0, 0), BuildingBlock: TEMPAE_clean_linker_10, # of connection points: 2
#     Edge 54, Type (0, 0), BuildingBlock: TEMPAE_clean_linker_10, # of connection points: 2
#     Edge 55, Type (0, 0), BuildingBlock: TEMPAE_clean_linker_10, # of connection points: 2
#     Edge 56, Type (0, 0), BuildingBlock: TEMPAE_clean_linker_10, # of connection points: 2
#     Edge 57, Type (0, 0), BuildingBlock: TEMPAE_clean_linker_10, # of connection points: 2
#     Edge 58, Type (0, 0), BuildingBlock: TEMPAE_clean_linker_10, # of connection points: 2
#     Edge 59, Type (0, 0), BuildingBlock: TEMPAE_clean_linker_10, # of connection points: 2
#     Edge 60, Type (0, 0), BuildingBlock: TEMPAE_clean_linker_10, # of connection points: 2
#     Edge 61, Type (0, 0), BuildingBlock: TEMPAE_clean_linker_10, # of connection points: 2
#     Edge 62, Type (0, 0), BuildingBlock: TEMPAE_clean_linker_10, # of connection points: 2
#     Edge 63, Type (0, 0), BuildingBlock: TEMPAE_clean_linker_10, # of connection points: 2
# Relax obj value: 0.270
# Max RMSD: 0.261
# Mean RMSD: 0.261
data_MOF--net-whj--node1-IZENUY_clean_sbu_0--edge1-TEMPAE_clean_linker_10
_symmetry_space_group_name_H-M    P1
_symmetry_Int_Tables_number       1
_symmetry_cell_setting            triclinic
loop_
_symmetry_equiv_pos_as_xyz
'x, y, z'
_cell_length_a     37.331932
_cell_length_b     37.312703
_cell_length_c     47.756497
_cell_angle_alpha  89.949146
_cell_angle_beta   89.967735
_cell_angle_gamma 89.891134
loop_
_atom_site_label
_atom_site_type_symbol
_atom_site_fract_x
_atom_site_fract_y
_atom_site_fract_z
_atom_type_partial_charge
Fe0 Fe 0.68992 0.01567 0.08379 0.0
Fe1 Fe 0.64062 0.06266 0.11979 0.0
O2 O 0.68339 0.05292 0.10611 0.0
Fe3 Fe 0.71991 0.08147 0.11429 0.0
O4 O 0.74454 0.07306 0.08168 0.0
O5 O 0.70576 0.04463 0.05545 0.0
O6 O 0.64492 0.01733 0.06766 0.0
C7 C 0.62087 0.04137 0.0678 0.0
C8 C 0.75189 0.01638 0.119 0.0
O9 O 0.6214 0.06597 0.0856 0.0
C10 C 0.67978 0.08166 0.16481 0.0
O11 O 0.67422 0.98421 0.11028 0.0
O12 O 0.62701 0.01538 0.12347 0.0
O13 O 0.74332 0.04486 0.13188 0.0
O14 O 0.73585 1.00726 0.09657 0.0
C15 C 0.66668 0.12903 0.10075 0.0
O16 O 0.65695 0.06015 0.15538 0.0
O17 O 0.70204 0.09629 0.14841 0.0
C18 C 0.64393 0.98587 0.12212 0.0
O19 O 0.64644 0.11174 0.11736 0.0
O20 O 0.69837 0.11858 0.0963 0.0
C21 C 0.73279 0.06474 0.05773 0.0
Fe22 Fe 0.44869 0.71612 0.11349 0.0
Fe23 Fe 0.51682 0.69037 0.08338 0.0
O24 O 0.47888 0.68113 0.10448 0.0
Fe25 Fe 0.4703 0.63679 0.11562 0.0
O26 O 0.42133 0.64067 0.11287 0.0
O27 O 0.41241 0.69401 0.09479 0.0
O28 O 0.45614 0.74186 0.08132 0.0
C29 C 0.46617 0.73184 0.05723 0.0
C30 C 0.4483 0.67159 0.16239 0.0
O31 O 0.48845 0.7064 0.05466 0.0
C32 C 0.54672 0.64318 0.12049 0.0
O33 O 0.484 0.74115 0.13173 0.0
O34 O 0.52252 0.73598 0.09692 0.0
O35 O 0.47043 0.64979 0.15205 0.0
O36 O 0.43478 0.69613 0.14728 0.0
C37 C 0.49504 0.6221 0.06366 0.0
O38 O 0.5475 0.67467 0.11053 0.0
O39 O 0.51803 0.6249 0.1197 0.0
C40 C 0.51194 0.75172 0.11897 0.0
O41 O 0.51849 0.64622 0.06632 0.0
O42 O 0.46899 0.6205 0.08013 0.0
C43 C 0.40326 0.66166 0.09751 0.0
Fe44 Fe 0.81223 0.44365 0.11437 0.0
Fe45 Fe 0.84446 0.50646 0.08128 0.0
O46 O 0.8497 0.47008 0.10465 0.0
Fe47 Fe 0.89258 0.45915 0.11758 0.0
O48 O 0.88451 0.41054 0.11808 0.0
O49 O 0.8323 0.40439 0.09795 0.0
O50 O 0.78828 0.4503 0.08121 0.0
C51 C 0.80017 0.45726 0.05695 0.0
C52 C 0.85481 0.44473 0.16419 0.0
O53 O 0.8274 0.477 0.05394 0.0
C54 C 0.89208 0.53567 0.118 0.0
O55 O 0.78955 0.48234 0.1301 0.0
O56 O 0.79894 0.51727 0.09348 0.0
O57 O 0.87781 0.46484 0.15315 0.0
O58 O 0.83001 0.43122 0.14939 0.0
C59 C 0.91185 0.47684 0.065 0.0
O60 O 0.86131 0.53808 0.10711 0.0
O61 O 0.90849 0.50588 0.11874 0.0
C62 C 0.78171 0.50996 0.11574 0.0
O63 O 0.88938 0.50238 0.0651 0.0
O64 O 0.90992 0.45247 0.08298 0.0
C65 C 0.86374 0.39314 0.10217 0.0
Fe66 Fe 1.00725 0.83527 0.08558 0.0
Fe67 Fe 0.04867 0.89241 0.11791 0.0
O68 O 0.0451 0.84755 0.1058 0.0
Fe69 Fe 0.08006 0.81654 0.11337 0.0
O70 O 0.08717 0.8058 0.07691 0.0
O71 O 0.03142 0.80453 0.06208 0.0
O72 O 0.01539 0.87055 0.05971 0.0
C73 C 0.01535 0.90324 0.06616 0.0
C74 C 0.01598 0.77441 0.11761 0.0
O75 O 0.02122 0.91264 0.09093 0.0
C76 C 0.0824 0.85452 0.16184 0.0
O77 O 0.9765 0.86364 0.10627 0.0
O78 O 1.0094 0.88736 0.1401 0.0
O79 O 0.04984 0.77777 0.11795 0.0
O80 O 0.99579 0.79916 0.10898 0.0
C81 C 0.11468 0.87974 0.09502 0.0
O82 O 0.07754 0.88249 0.14763 0.0
O83 O 0.07687 0.82421 0.15113 0.0
C84 C 0.97903 0.87929 0.12992 0.0
O85 O 0.08693 0.89919 0.09546 0.0
O86 O 0.11592 0.85039 0.10868 0.0
C87 C 0.06433 0.79747 0.05868 0.0
Fe88 Fe 0.18701 0.01534 0.42366 0.0
Fe89 Fe 0.13522 0.96508 0.3934 0.0
O90 O 0.17927 0.97626 0.40364 0.0
Fe91 Fe 0.21553 0.94763 0.39495 0.0
O92 O 0.241 0.95743 0.4268 0.0
O93 O 0.20405 0.98875 0.45298 0.0
O94 O 0.14286 0.01599 0.4408 0.0
C95 C 0.12006 0.99149 0.44463 0.0
C96 C 0.24838 1.01188 0.388 0.0
O97 O 0.11971 0.96439 0.42917 0.0
C98 C 0.17041 0.94366 0.34662 0.0
O99 O 0.1702 0.04381 0.39563 0.0
O100 O 0.12121 1.01226 0.38823 0.0
O101 O 0.23863 0.98336 0.3757 0.0
O102 O 0.23235 0.02237 0.40995 0.0
C103 C 0.16386 0.90011 0.41278 0.0
O104 O 0.14752 0.96462 0.35693 0.0
O105 O 0.19583 0.93164 0.36162 0.0
C106 C 0.13871 0.04138 0.38595 0.0
O107 O 0.14153 0.91621 0.39721 0.0
O108 O 0.19555 0.91135 0.41478 0.0
C109 C 0.23013 0.96717 0.45075 0.0
Fe110 Fe 0.51367 0.18636 0.42594 0.0
Fe111 Fe 0.56039 0.13672 0.38971 0.0
O112 O 0.55098 0.17955 0.40357 0.0
Fe113 Fe 0.57982 0.21585 0.39537 0.0
O114 O 0.57168 0.2403 0.42792 0.0
O115 O 0.54236 0.2024 0.45439 0.0
O116 O 0.51508 0.14119 0.44218 0.0
C117 C 0.53869 0.11667 0.44168 0.0
C118 C 0.51489 0.24844 0.39069 0.0
O119 O 0.56328 0.11717 0.42383 0.0
C120 C 0.58013 0.17593 0.3448 0.0
O121 O 0.48225 0.17086 0.39943 0.0
O122 O 0.51308 0.1236 0.38587 0.0
O123 O 0.54339 0.23973 0.37785 0.0
O124 O 0.50555 0.23236 0.41307 0.0
C125 C 0.62694 0.16211 0.40878 0.0
O126 O 0.55833 0.15324 0.35408 0.0
O127 O 0.59458 0.19812 0.36128 0.0
C128 C 0.48377 0.14078 0.38729 0.0
O129 O 0.60945 0.14201 0.39226 0.0
O130 O 0.61675 0.19389 0.41328 0.0
C131 C 0.56319 0.22893 0.45194 0.0
Fe132 Fe 0.39528 0.54851 0.3904 0.0
Fe133 Fe 0.31971 0.58053 0.39588 0.0
O134 O 0.35087 0.54584 0.40377 0.0
Fe135 Fe 0.33981 0.50915 0.42589 0.0
O136 O 0.37633 0.52 0.45045 0.0
O137 O 0.41585 0.5216 0.41735 0.0
O138 O 0.40321 0.58762 0.41184 0.0
C139 C 0.38349 0.61521 0.41303 0.0
C140 C 0.38114 0.4785 0.38085 0.0
O141 O 0.35363 0.61649 0.40004 0.0
C142 C 0.27812 0.51581 0.39384 0.0
O143 O 0.38509 0.57667 0.36046 0.0
O144 O 0.32688 0.57677 0.358 0.0
O145 O 0.36735 0.47734 0.40534 0.0
O146 O 0.38874 0.50835 0.36937 0.0
C147 C 0.30158 0.56684 0.45147 0.0
O148 O 0.28149 0.54964 0.3919 0.0
O149 O 0.30232 0.49608 0.40414 0.0
C150 C 0.35693 0.58181 0.34672 0.0
O151 O 0.30871 0.58879 0.43225 0.0
O152 O 0.30992 0.53411 0.44934 0.0
C153 C 0.40858 0.52218 0.44285 0.0
Fe154 Fe 0.96465 0.39106 0.39703 0.0
Fe155 Fe 0.94753 0.31069 0.39818 0.0
O156 O 0.97561 0.347 0.40755 0.0
Fe157 Fe 0.01378 0.3393 0.42862 0.0
O158 O 0.0134 0.38347 0.44578 0.0
O159 O 0.96222 0.40637 0.43275 0.0
O160 O 0.91575 0.38459 0.39953 0.0
C161 C 0.8992 0.36235 0.41485 0.0
C162 C 0.04132 0.38785 0.39181 0.0
O163 O 0.91047 0.33063 0.41723 0.0
C164 C 1.01219 0.27812 0.39261 0.0
O165 O 0.96573 0.37884 0.36062 0.0
O166 O 0.93265 0.33053 0.36454 0.0
O167 O 0.04338 0.35629 0.40146 0.0
O168 O 1.01197 0.40525 0.39311 0.0
C169 C 0.96509 0.29567 0.45439 0.0
O170 O 0.98406 0.28784 0.37971 0.0
O171 O 0.02171 0.29404 0.41488 0.0
C172 C 0.94482 0.35625 0.34997 0.0
O173 O 0.9563 0.28498 0.43018 0.0
O174 O 0.98607 0.32206 0.45718 0.0
C175 C 0.98869 0.40634 0.44881 0.0
Fe176 Fe 0.32048 0.94564 0.8976 0.0
Fe177 Fe 0.39518 0.98103 0.89708 0.0
O178 O 0.34972 0.98091 0.90815 0.0
Fe179 Fe 0.33484 0.01586 0.93055 0.0
O180 O 0.30319 0.98881 0.95066 0.0
O181 O 0.30794 0.93463 0.93328 0.0
O182 O 0.35534 0.91039 0.90142 0.0
C183 C 0.38546 0.91116 0.91403 0.0
C184 C 0.27656 1.00939 0.89566 0.0
O185 O 0.40331 0.93981 0.91577 0.0
C186 C 0.38108 0.05172 0.89143 0.0
O187 O 0.32999 0.95184 0.86024 0.0
O188 O 0.38794 0.9567 0.8648 0.0
O189 O 0.3003 0.02918 0.90631 0.0
O190 O 0.28095 0.97561 0.89336 0.0
C191 C 0.4014 1.00621 0.95202 0.0
O192 O 0.38948 0.02335 0.87832 0.0
O193 O 0.36371 0.04984 0.91429 0.0
C194 C 0.36107 0.94968 0.84997 0.0
O195 O 0.41263 1.00456 0.92727 0.0
O196 O 0.36835 1.00502 0.95714 0.0
C197 C 0.29781 0.95553 0.95236 0.0
Fe198 Fe 0.55213 0.3956 0.89621 0.0
Fe199 Fe 0.51618 0.33619 0.92989 0.0
O200 O 0.55136 0.35018 0.90729 0.0
Fe201 Fe 0.58568 0.3199 0.89647 0.0
O202 O 0.62185 0.35345 0.89977 0.0
O203 O 0.59414 0.40261 0.9139 0.0
O204 O 0.53028 0.41298 0.92717 0.0
C205 C 0.53224 0.40165 0.9519 0.0
C206 C 0.58022 0.36043 0.84853 0.0
O207 O 0.52934 0.36855 0.95687 0.0
C208 C 0.52056 0.27944 0.89303 0.0
O209 O 0.50922 0.39122 0.87826 0.0
O210 O 0.48277 0.36706 0.91479 0.0
O211 O 0.57915 0.32954 0.85924 0.0
O212 O 0.57487 0.38773 0.86333 0.0
C213 C 0.57555 0.29671 0.95095 0.0
O214 O 0.50134 0.30309 0.90469 0.0
O215 O 0.55457 0.2818 0.89238 0.0
C216 C 0.48088 0.38395 0.8917 0.0
O217 O 0.54234 0.30264 0.94921 0.0
O218 O 0.59671 0.30686 0.93206 0.0
C219 C 0.62215 0.38375 0.91201 0.0
Fe220 Fe 0.20621 0.58212 0.89691 0.0
Fe221 Fe 0.13296 0.54392 0.89805 0.0
O222 O 0.17907 0.54504 0.90714 0.0
Fe223 Fe 0.19703 0.50909 0.92705 0.0
O224 O 0.22964 0.53605 0.94666 0.0
O225 O 0.2205 0.59131 0.93245 0.0
O226 O 0.17033 0.61564 0.90312 0.0
C227 C 0.14167 0.61278 0.91744 0.0
C228 C 0.25125 0.52046 0.88901 0.0
O229 O 0.12488 0.58351 0.91874 0.0
C230 C 0.14863 0.47405 0.88915 0.0
O231 O 0.19467 0.57751 0.85986 0.0
O232 O 0.13715 0.57044 0.86623 0.0
O233 O 0.22931 0.4989 0.89997 0.0
O234 O 0.24646 0.55423 0.89013 0.0
C235 C 0.13217 0.51509 0.9523 0.0
O236 O 0.13858 0.50293 0.87747 0.0
O237 O 0.16778 0.47512 0.91113 0.0
C238 C 0.16303 0.57878 0.85063 0.0
O239 O 0.11883 0.51804 0.92823 0.0
O240 O 0.16559 0.51676 0.95583 0.0
C241 C 0.23327 0.56946 0.94985 0.0
Fe242 Fe 1.00833 0.18648 0.92577 0.0
Fe243 Fe 0.94245 0.21474 0.89381 0.0
O244 O 0.971 0.17881 0.90385 0.0
Fe245 Fe 0.96097 0.13488 0.89259 0.0
O246 O 0.95575 0.11944 0.9279 0.0
O247 O 1.00517 0.14306 0.94445 0.0
O248 O 0.97993 0.20539 0.95321 0.0
C249 C 0.95906 0.23175 0.94995 0.0
C250 C 0.03754 0.13608 0.8911 0.0
O251 O 0.94973 0.24146 0.92563 0.0
C252 C 0.94413 0.17003 0.84515 0.0
O253 O 0.01789 0.23092 0.91047 0.0
O254 O 0.9788 0.23782 0.876 0.0
O255 O 1.00793 0.11952 0.89131 0.0
O256 O 0.03948 0.16779 0.9002 0.0
C257 C 0.89429 0.16246 0.90817 0.0
O258 O 0.92946 0.1944 0.85985 0.0
O259 O 0.96523 0.14795 0.85641 0.0
C260 C 1.00801 0.24608 0.88786 0.0
O261 O 0.90498 0.19411 0.9121 0.0
O262 O 0.91213 0.14163 0.89255 0.0
C263 C 0.97986 0.12045 0.94618 0.0
Fe264 Fe 0.89347 0.04715 0.61351 0.0
Fe265 Fe 0.83388 1.01141 0.57992 0.0
O266 O 0.84824 0.04694 0.60195 0.0
Fe267 Fe 0.81847 0.08211 0.61175 0.0
O268 O 0.85281 0.11761 0.60824 0.0
O269 O 0.90167 0.08855 0.59514 0.0
O270 O 0.9109 0.02409 0.58305 0.0
C271 C 0.89993 0.02576 0.55819 0.0
C272 C 0.85784 0.07841 0.65993 0.0
O273 O 0.86686 0.02334 0.55301 0.0
C274 C 0.77673 0.01793 0.61618 0.0
O275 O 0.888 1.00471 0.63215 0.0
O276 O 0.86395 0.97791 0.59579 0.0
O277 O 0.82716 0.07624 0.64913 0.0
O278 O 0.8854 0.0714 0.64582 0.0
C279 C 0.79589 0.07089 0.5574 0.0
O280 O 0.80021 0.99786 0.60518 0.0
O281 O 0.77968 0.05192 0.61595 0.0
C282 C 0.88059 0.97618 0.61897 0.0
O283 O 0.801 0.0376 0.55991 0.0
O284 O 0.80646 0.09243 0.57584 0.0
C285 C 0.88351 0.11707 0.59657 0.0
Fe286 Fe 0.51278 0.83255 0.58396 0.0
Fe287 Fe 0.43974 0.82233 0.6135 0.0
O288 O 0.47654 0.85009 0.60372 0.0
Fe289 Fe 0.47719 0.89619 0.613 0.0
O290 O 0.5023 0.9108 0.58252 0.0
O291 O 0.50447 0.8638 0.55507 0.0
O292 O 0.48664 0.79926 0.56462 0.0
C293 C 0.45343 0.79574 0.56059 0.0
C294 C 0.54734 0.88157 0.62133 0.0
O295 O 0.43111 0.80858 0.57762 0.0
C296 C 0.44251 0.86506 0.66017 0.0
O297 O 0.52338 0.80059 0.61128 0.0
O298 O 0.46816 0.78235 0.62015 0.0
O299 O 0.5185 0.89115 0.63321 0.0
O300 O 0.54623 0.86236 0.59947 0.0
C301 C 0.40787 0.88736 0.59451 0.0
O302 O 0.4437 0.83348 0.6507 0.0
O303 O 0.45138 0.89116 0.64497 0.0
C304 C 0.50197 0.77817 0.62187 0.0
O305 O 0.40575 0.8577 0.6076 0.0
O306 O 0.43707 0.90422 0.59294 0.0
C307 C 0.50512 0.89735 0.55847 0.0
Fe308 Fe 0.62922 0.4807 0.61404 0.0
Fe309 Fe 0.69245 0.51797 0.58567 0.0
O310 O 0.67511 0.48088 0.60445 0.0
Fe311 Fe 0.70311 0.4438 0.61268 0.0
O312 O 0.66777 0.40982 0.6073 0.0
O313 O 0.62134 0.4413 0.59292 0.0
O314 O 0.61422 0.50687 0.58423 0.0
C315 C 0.62772 0.51036 0.56024 0.0
C316 C 0.66214 0.44468 0.65995 0.0
O317 O 0.66127 0.51052 0.5567 0.0
C318 C 0.74732 0.50557 0.62221 0.0
O319 O 0.63393 0.5213 0.63516 0.0
O320 O 0.66211 0.55069 0.60195 0.0
O321 O 0.69348 0.4469 0.65012 0.0
O322 O 0.63536 0.45355 0.64538 0.0
C323 C 0.72823 0.45947 0.56008 0.0
O324 O 0.72412 0.52749 0.61336 0.0
O325 O 0.74346 0.47192 0.61872 0.0
C326 C 0.6428 0.55075 0.62385 0.0
O327 O 0.72639 0.4925 0.56579 0.0
O328 O 0.71448 0.43661 0.57614 0.0
C329 C 0.63841 0.41212 0.59394 0.0
Fe330 Fe 1.01041 0.6925 0.58337 0.0
Fe331 Fe 0.08307 0.70417 0.61292 0.0
O332 O 0.04677 0.67591 0.60355 0.0
Fe333 Fe 0.04701 0.63006 0.61308 0.0
O334 O 0.02194 0.61543 0.58283 0.0
O335 O 0.02069 0.66141 0.55455 0.0
O336 O 0.03597 0.727 0.56439 0.0
C337 C 0.06917 0.72994 0.55994 0.0
C338 C 0.97658 0.64344 0.62134 0.0
O339 O 0.09152 0.71666 0.57669 0.0
C340 C 0.08082 0.66222 0.66006 0.0
O341 O 0.99872 0.72412 0.61063 0.0
O342 O 0.0537 0.74376 0.61888 0.0
O343 O 1.00568 0.6348 0.63334 0.0
O344 O 0.97737 0.66164 0.59882 0.0
C345 C 0.11592 0.64029 0.59368 0.0
O346 O 0.07904 0.69371 0.65033 0.0
O347 O 0.07292 0.63576 0.64492 0.0
C348 C 0.01976 0.74723 0.6208 0.0
O349 O 0.11775 0.66929 0.60758 0.0
O350 O 0.08718 0.62257 0.5927 0.0
C351 C 0.023 0.62795 0.55842 0.0
C352 C 0.67081 0.13497 0.19519 0.0
C353 C 0.67276 0.09761 0.1925 0.0
C354 C 0.65722 0.15079 0.21966 0.0
C355 C 0.64647 0.1287 0.24226 0.0
C356 C 0.65044 0.09099 0.2402 0.0
C357 C 0.66284 0.07585 0.21508 0.0
C358 C 0.65238 0.19096 0.22066 0.0
C359 C 0.64047 0.06656 0.26417 0.0
C360 C 0.63399 0.16921 0.31459 0.0
C361 C 0.59657 0.16908 0.31722 0.0
C362 C 0.65067 0.1566 0.29016 0.0
C363 C 0.62936 0.14471 0.2675 0.0
C364 C 0.59149 0.14645 0.26952 0.0
C365 C 0.57554 0.15793 0.29461 0.0
C366 C 0.69103 0.15409 0.28922 0.0
C367 C 0.56782 0.13518 0.24548 0.0
H368 H 0.67777 0.15177 0.17746 0.0
H369 H 0.66417 0.04696 0.21286 0.0
H370 H 0.62339 0.19744 0.22185 0.0
H371 H 0.66515 0.20218 0.23968 0.0
H372 H 0.66386 0.20448 0.20197 0.0
H373 H 0.64885 0.0384 0.26035 0.0
H374 H 0.65306 0.076 0.28388 0.0
H375 H 0.61104 0.0671 0.26734 0.0
H376 H 0.6503 0.17717 0.3323 0.0
H377 H 0.54662 0.15771 0.29674 0.0
H378 H 0.70158 0.16774 0.27031 0.0
H379 H 0.69919 0.12552 0.28785 0.0
H380 H 0.70377 0.16609 0.30802 0.0
H381 H 0.57653 0.14849 0.22584 0.0
H382 H 0.5392 0.14178 0.24929 0.0
H383 H 0.57018 0.10585 0.24221 0.0
C384 C 0.44655 0.63486 0.20635 0.0
C385 C 0.43275 0.66338 0.19042 0.0
C386 C 0.42989 0.6237 0.23123 0.0
C387 C 0.39862 0.64151 0.24071 0.0
C388 C 0.38484 0.67073 0.22509 0.0
C389 C 0.40204 0.68133 0.20015 0.0
C390 C 0.44577 0.59263 0.24733 0.0
C391 C 0.35177 0.69061 0.23462 0.0
C392 C 0.34559 0.58827 0.295 0.0
C393 C 0.36067 0.60114 0.31984 0.0
C394 C 0.35607 0.60262 0.26888 0.0
C395 C 0.38192 0.63051 0.26784 0.0
C396 C 0.39504 0.64518 0.29312 0.0
C397 C 0.3844 0.63022 0.3187 0.0
C398 C 0.34134 0.58632 0.2424 0.0
C399 C 0.42231 0.67505 0.29317 0.0
H400 H 0.47018 0.6207 0.19912 0.0
H401 H 0.39094 0.70321 0.18797 0.0
H402 H 0.45375 0.60156 0.26858 0.0
H403 H 0.42545 0.57122 0.24995 0.0
H404 H 0.46962 0.58101 0.23676 0.0
H405 H 0.34426 0.71261 0.22006 0.0
H406 H 0.32892 0.67176 0.23635 0.0
H407 H 0.35624 0.70214 0.25573 0.0
H408 H 0.32746 0.56563 0.29586 0.0
H409 H 0.39594 0.64034 0.33798 0.0
H410 H 0.36265 0.57045 0.23194 0.0
H411 H 0.33282 0.6076 0.22758 0.0
H412 H 0.31823 0.56841 0.24664 0.0
H413 H 0.44834 0.6647 0.28534 0.0
H414 H 0.42652 0.68629 0.31445 0.0
H415 H 0.41385 0.69702 0.27897 0.0
C416 C 0.92139 0.40192 0.31687 0.0
C417 C 0.92782 0.36568 0.32296 0.0
C418 C 0.90499 0.41241 0.29183 0.0
C419 C 0.89554 0.38612 0.27185 0.0
C420 C 0.90121 0.34933 0.27806 0.0
C421 C 0.91684 0.33948 0.30383 0.0
C422 C 0.89885 0.45186 0.28639 0.0
C423 C 0.89222 0.32058 0.25704 0.0
C424 C 0.83755 0.41831 0.21092 0.0
C425 C 0.86389 0.42884 0.19171 0.0
C426 C 0.84722 0.40335 0.23699 0.0
C427 C 0.88395 0.39787 0.24342 0.0
C428 C 0.91039 0.40703 0.22347 0.0
C429 C 0.90008 0.42277 0.19813 0.0
C430 C 0.81833 0.39463 0.258 0.0
C431 C 0.94979 0.40106 0.22912 0.0
H432 H 0.92898 0.42229 0.33192 0.0
H433 H 0.92147 0.31145 0.30863 0.0
H434 H 0.91703 0.46113 0.2695 0.0
H435 H 0.87098 0.4566 0.27923 0.0
H436 H 0.90381 0.46845 0.3053 0.0
H437 H 0.89506 0.29322 0.26597 0.0
H438 H 0.86443 0.32405 0.24927 0.0
H439 H 0.91033 0.32295 0.2387 0.0
H440 H 0.80957 0.42266 0.20587 0.0
H441 H 0.92059 0.42997 0.18306 0.0
H442 H 0.82086 0.41266 0.27636 0.0
H443 H 0.8215 0.36678 0.26574 0.0
H444 H 0.79104 0.39779 0.24906 0.0
H445 H 0.95878 0.41915 0.24613 0.0
H446 H 0.96659 0.4062 0.21034 0.0
H447 H 0.95456 0.37313 0.23623 0.0
C448 C 0.1338 0.94106 0.30286 0.0
C449 C 0.16291 0.92812 0.31854 0.0
C450 C 0.12325 0.92452 0.27786 0.0
C451 C 0.14241 0.89434 0.26791 0.0
C452 C 0.17228 0.88145 0.28323 0.0
C453 C 0.18217 0.89846 0.3084 0.0
C454 C 0.09138 0.93939 0.26213 0.0
C455 C 0.19361 0.8496 0.2731 0.0
C456 C 0.09039 0.84148 0.21316 0.0
C457 C 0.10185 0.85843 0.1886 0.0
C458 C 0.10507 0.85117 0.23929 0.0
C459 C 0.13198 0.878 0.2406 0.0
C460 C 0.14545 0.89294 0.2155 0.0
C461 C 0.13006 0.88316 0.1899 0.0
C462 C 0.09 0.83462 0.26559 0.0
C463 C 0.17431 0.92126 0.21574 0.0
H464 H 0.11867 0.96394 0.31037 0.0
H465 H 0.20454 0.88807 0.3204 0.0
H466 H 0.09985 0.94856 0.24104 0.0
H467 H 0.07101 0.91813 0.25913 0.0
H468 H 0.07862 0.96228 0.27319 0.0
H469 H 0.21605 0.84279 0.28742 0.0
H470 H 0.17587 0.82591 0.27115 0.0
H471 H 0.2047 0.85515 0.25199 0.0
H472 H 0.06855 0.82242 0.21215 0.0
H473 H 0.13926 0.89597 0.17081 0.0
H474 H 0.07329 0.85471 0.2767 0.0
H475 H 0.11189 0.82657 0.27999 0.0
H476 H 0.07317 0.81081 0.261 0.0
H477 H 0.1631 0.94668 0.22405 0.0
H478 H 0.18519 0.92648 0.19447 0.0
H479 H 0.19669 0.91318 0.22967 0.0
C480 C 0.4035 0.92468 0.81471 0.0
C481 C 0.36804 0.93379 0.82184 0.0
C482 C 0.41209 0.90939 0.78885 0.0
C483 C 0.38469 0.90311 0.76908 0.0
C484 C 0.34864 0.91129 0.77617 0.0
C485 C 0.34066 0.92645 0.80258 0.0
C486 C 0.45091 0.90125 0.78233 0.0
C487 C 0.31871 0.90505 0.75556 0.0
C488 C 0.42051 0.90954 0.6952 0.0
C489 C 0.42632 0.87344 0.68796 0.0
C490 C 0.40496 0.91923 0.72077 0.0
C491 C 0.39505 0.8923 0.74008 0.0
C492 C 0.39985 0.85571 0.73279 0.0
C493 C 0.41538 0.84667 0.70675 0.0
C494 C 0.40061 0.95858 0.72757 0.0
C495 C 0.38971 0.82623 0.75289 0.0
H496 H 0.42504 0.92961 0.82941 0.0
H497 H 0.31321 0.933 0.80792 0.0
H498 H 0.45383 0.87332 0.77471 0.0
H499 H 0.46046 0.91928 0.76543 0.0
H500 H 0.46857 0.90482 0.80083 0.0
H501 H 0.29191 0.90901 0.76519 0.0
H502 H 0.32147 0.9239 0.73771 0.0
H503 H 0.32033 0.8775 0.74693 0.0
H504 H 0.42834 0.93066 0.68088 0.0
H505 H 0.41934 0.81875 0.7013 0.0
H506 H 0.41916 0.96599 0.74475 0.0
H507 H 0.37297 0.96417 0.73493 0.0
H508 H 0.40633 0.97606 0.70927 0.0
H509 H 0.4082 0.82649 0.77107 0.0
H510 H 0.39099 0.79934 0.74295 0.0
H511 H 0.36225 0.83068 0.76109 0.0
C512 C 0.61177 0.34084 0.8042 0.0
C513 C 0.5923 0.3666 0.81929 0.0
C514 C 0.62673 0.34922 0.77785 0.0
C515 C 0.62212 0.3841 0.76652 0.0
C516 C 0.60196 0.40983 0.78151 0.0
C517 C 0.5872 0.40071 0.80746 0.0
C518 C 0.64771 0.32099 0.76226 0.0
C519 C 0.59596 0.44723 0.77018 0.0
C520 C 0.67889 0.4268 0.70926 0.0
C521 C 0.65502 0.42572 0.68666 0.0
C522 C 0.66964 0.41119 0.73518 0.0
C523 C 0.63608 0.39374 0.73825 0.0
C524 C 0.61317 0.39051 0.71485 0.0
C525 C 0.62279 0.40668 0.68951 0.0
C526 C 0.69474 0.41527 0.7597 0.0
C527 C 0.57733 0.37194 0.71699 0.0
H528 H 0.61609 0.31454 0.81327 0.0
H529 H 0.57198 0.4208 0.81878 0.0
H530 H 0.63561 0.31636 0.74137 0.0
H531 H 0.67553 0.3304 0.75873 0.0
H532 H 0.64866 0.29511 0.77376 0.0
H533 H 0.58077 0.46448 0.78498 0.0
H534 H 0.62205 0.46021 0.76569 0.0
H535 H 0.58089 0.4459 0.75019 0.0
H536 H 0.70396 0.44115 0.70706 0.0
H537 H 0.60455 0.4049 0.6719 0.0
H538 H 0.69788 0.3894 0.7709 0.0
H539 H 0.68327 0.4348 0.77477 0.0
H540 H 0.72159 0.42494 0.75312 0.0
H541 H 0.58013 0.34575 0.72778 0.0
H542 H 0.56502 0.36738 0.69612 0.0
H543 H 0.55871 0.38861 0.7296 0.0
C544 C 0.1814 0.60565 0.80398 0.0
C545 C 0.15458 0.5944 0.82263 0.0
C546 C 0.17249 0.6209 0.77781 0.0
C547 C 0.13597 0.62512 0.77019 0.0
C548 C 0.10894 0.61464 0.78924 0.0
C549 C 0.11852 0.59938 0.81499 0.0
C550 C 0.20209 0.63158 0.758 0.0
C551 C 0.06968 0.6184 0.78207 0.0
C552 C 0.10305 0.68117 0.70809 0.0
C553 C 0.09645 0.65438 0.68816 0.0
C554 C 0.11739 0.67243 0.73463 0.0
C555 C 0.1255 0.63618 0.74123 0.0
C556 C 0.11997 0.60938 0.72082 0.0
C557 C 0.1055 0.61873 0.69478 0.0
C558 C 0.12284 0.70176 0.75591 0.0
C559 C 0.12812 0.5704 0.72677 0.0
H560 H 0.20929 0.60226 0.8097 0.0
H561 H 0.09738 0.59119 0.82916 0.0
H562 H 0.20187 0.61369 0.73946 0.0
H563 H 0.19772 0.65932 0.75032 0.0
H564 H 0.22892 0.62996 0.76798 0.0
H565 H 0.05199 0.61186 0.80007 0.0
H566 H 0.06371 0.64613 0.77509 0.0
H567 H 0.06293 0.60018 0.7645 0.0
H568 H 0.09646 0.70876 0.70317 0.0
H569 H 0.10112 0.59766 0.67956 0.0
H570 H 0.15025 0.70024 0.76479 0.0
H571 H 0.10374 0.69815 0.77349 0.0
H572 H 0.11869 0.72884 0.74677 0.0
H573 H 0.15588 0.56739 0.73471 0.0
H574 H 0.12501 0.55325 0.70793 0.0
H575 H 0.10981 0.5603 0.74329 0.0
C576 C 0.90169 0.18111 0.80503 0.0
C577 C 0.93006 0.16145 0.81681 0.0
C578 C 0.88567 0.17033 0.77972 0.0
C579 C 0.89814 0.13906 0.766 0.0
C580 C 0.92701 0.11942 0.77761 0.0
C581 C 0.94272 0.13097 0.80266 0.0
C582 C 0.85535 0.19228 0.7677 0.0
C583 C 0.9413 0.086 0.76362 0.0
C584 C 0.84491 0.08741 0.7112 0.0
C585 C 0.8633 0.09708 0.68681 0.0
C586 C 0.85466 0.1023 0.73724 0.0
C587 C 0.8829 0.12771 0.73857 0.0
C588 C 0.89965 0.13923 0.71359 0.0
C589 C 0.88985 0.12357 0.68813 0.0
C590 C 0.83628 0.08926 0.76346 0.0
C591 C 0.92947 0.16656 0.71388 0.0
H592 H 0.89157 0.20459 0.81582 0.0
H593 H 0.96456 0.11546 0.81148 0.0
H594 H 0.86261 0.20195 0.74647 0.0
H595 H 0.83111 0.17539 0.76545 0.0
H596 H 0.84862 0.21579 0.78098 0.0
H597 H 0.96289 0.07293 0.77598 0.0
H598 H 0.91933 0.06641 0.76054 0.0
H599 H 0.95209 0.09276 0.74262 0.0
H600 H 0.82437 0.06697 0.71013 0.0
H601 H 0.9037 0.13149 0.66913 0.0
H602 H 0.82816 0.11223 0.77677 0.0
H603 H 0.85525 0.07269 0.77585 0.0
H604 H 0.81224 0.07285 0.75871 0.0
H605 H 0.92174 0.19019 0.7266 0.0
H606 H 0.9366 0.17579 0.69247 0.0
H607 H 0.95369 0.15462 0.72362 0.0
C608 C 0.55825 0.05955 0.05702 0.0
C609 C 0.58787 0.03749 0.05101 0.0
C610 C 0.52543 0.05471 0.04359 0.0
C611 C 0.52219 0.02763 0.02317 0.0
C612 C 0.55191 1.00541 0.01669 0.0
C613 C 0.58445 1.01044 0.03089 0.0
C614 C 0.49427 0.07876 0.05116 0.0
C615 C 0.54942 0.9767 0.99452 0.0
C616 C 0.43064 0.99674 0.99838 0.0
C617 C 0.42764 0.01605 0.97341 0.0
C618 C 0.46106 1.00086 0.01541 0.0
C619 C 0.48861 0.02466 0.00694 0.0
C620 C 0.48448 0.04562 0.9825 0.0
C621 C 0.45393 0.04113 0.96611 0.0
C622 C 0.46447 0.97867 0.04172 0.0
C623 C 0.51311 0.07143 0.9728 0.0
H624 H 0.56034 0.08033 0.07276 0.0
H625 H 0.6071 0.99322 0.02627 0.0
H626 H 0.4867 0.09546 0.03286 0.0
H627 H 0.47056 0.06237 0.05679 0.0
H628 H 0.50056 0.09686 0.06894 0.0
H629 H 0.57465 0.96109 0.9925 0.0
H630 H 0.52727 0.95796 0.99953 0.0
H631 H 0.54318 0.98913 0.97397 0.0
H632 H 0.41038 0.97709 1.00371 0.0
H633 H 0.45133 0.05614 0.94674 0.0
H634 H 0.47145 0.99601 0.05977 0.0
H635 H 0.48648 0.95892 0.03919 0.0
H636 H 0.43941 0.96395 0.04665 0.0
H637 H 0.51946 0.09092 0.98959 0.0
H638 H 0.50499 0.08657 0.95378 0.0
H639 H 0.5381 0.05646 0.96805 0.0
C640 C 0.47818 0.57337 0.03103 0.0
C641 C 0.50376 0.58939 0.04826 0.0
C642 C 0.48499 0.54002 0.01862 0.0
C643 C 0.51742 0.52177 0.0248 0.0
C644 C 0.54268 0.53739 0.04314 0.0
C645 C 0.53584 0.57144 0.05423 0.0
C646 C 0.45791 0.52478 0.99841 0.0
C647 C 0.57674 0.51805 0.05116 0.0
C648 C 0.51774 0.42499 1.00007 0.0
C649 C 0.53435 0.42903 0.97399 0.0
C650 C 0.51403 0.45467 0.01805 0.0
C651 C 0.52669 0.48872 0.00925 0.0
C652 C 0.54583 0.492 0.98388 0.0
C653 C 0.54988 0.462 0.96685 0.0
C654 C 0.49493 0.45003 0.04564 0.0
C655 C 0.55963 0.52774 0.97353 0.0
H656 H 0.45306 0.58713 0.02709 0.0
H657 H 0.55499 0.58351 0.06843 0.0
H658 H 0.47057 0.52073 0.97761 0.0
H659 H 0.44859 0.49824 0.00586 0.0
H660 H 0.43423 0.54255 0.99577 0.0
H661 H 0.59286 0.53346 0.0665 0.0
H662 H 0.57014 0.49156 0.06039 0.0
H663 H 0.59344 0.51301 0.03236 0.0
H664 H 0.50604 0.39942 0.00572 0.0
H665 H 0.56359 0.46492 0.94695 0.0
H666 H 0.46728 0.46071 0.04391 0.0
H667 H 0.50869 0.46523 0.06244 0.0
H668 H 0.49331 0.42138 0.05187 0.0
H669 H 0.53672 0.54616 0.96982 0.0
H670 H 0.57511 0.52525 0.95375 0.0
H671 H 0.57706 0.54035 0.98948 0.0
C672 C 0.08314 0.47623 0.96756 0.0
C673 C 0.1079 0.50298 0.97443 0.0
C674 C 0.05276 0.47045 0.98392 0.0
C675 C 0.04721 0.49184 0.00793 0.0
C676 C 0.07354 0.51707 0.01624 0.0
C677 C 0.10378 0.52251 0.99918 0.0
C678 C 0.02536 0.44338 0.97419 0.0
C679 C 0.06869 0.53979 0.0421 0.0
C680 C 0.95008 0.50617 0.02845 0.0
C681 C 0.94557 0.4797 0.04894 0.0
C682 C 0.98332 0.51082 0.01519 0.0
C683 C 1.01275 0.48897 0.0231 0.0
C684 C 1.00841 0.46243 0.04388 0.0
C685 C 0.9748 0.45775 0.05624 0.0
C686 C 0.98687 0.5388 0.9925 0.0
C687 C 0.0393 0.43902 0.05313 0.0
H688 H 0.08633 0.4614 0.94821 0.0
H689 H 0.12271 0.54357 1.00413 0.0
H690 H 0.01829 0.42475 0.99141 0.0
H691 H 1.00043 0.45752 0.96791 0.0
H692 H 0.03502 0.42735 0.95608 0.0
H693 H 0.04741 0.56001 0.03832 0.0
H694 H 0.06003 0.52304 0.06008 0.0
H695 H 0.09369 0.5541 0.04786 0.0
H696 H 0.9277 0.52327 0.02284 0.0
H697 H 0.97179 0.43736 0.07224 0.0
H698 H 0.99491 0.52583 0.97255 0.0
H699 H 1.00818 0.55821 0.99806 0.0
H700 H 0.96152 0.55377 0.98899 0.0
H701 H 0.04866 0.42226 0.0354 0.0
H702 H 0.03192 0.42104 0.07077 0.0
H703 H 0.06219 0.45597 0.05972 0.0
C704 C 0.95381 0.06485 0.96657 0.0
C705 C 0.98195 0.08983 0.96577 0.0
C706 C 0.9571 0.03268 0.9814 0.0
C707 C 0.98897 0.02562 0.99636 0.0
C708 C 0.01696 0.05123 0.99657 0.0
C709 C 0.01319 0.08304 0.98114 0.0
C710 C 0.92668 1.00603 0.98068 0.0
C711 C 0.05102 0.04483 0.0129 0.0
C712 C 0.98609 0.96144 0.05731 0.0
C713 C 1.00406 0.93141 0.04649 0.0
C714 C 0.98019 0.99187 0.04096 0.0
C715 C 0.99234 0.99223 0.01296 0.0
C716 C 1.00867 0.96124 1.00133 0.0
C717 C 0.01438 0.93097 0.01834 0.0
C718 C 0.96257 0.02424 0.05416 0.0
C719 C 0.02128 0.96063 0.97131 0.0
H720 H 0.9294 0.06994 0.95491 0.0
H721 H 0.03505 0.10209 0.98053 0.0
H722 H 0.93663 0.97954 0.97349 0.0
H723 H 0.91562 1.00229 1.00203 0.0
H724 H 0.90461 0.01472 0.96661 0.0
H725 H 0.07004 0.06759 0.01114 0.0
H726 H 0.04462 0.04056 0.03535 0.0
H727 H 0.06451 0.0202 0.00524 0.0
H728 H 0.9776 0.96158 0.07905 0.0
H729 H 0.02837 0.90779 0.01007 0.0
H730 H 0.93946 0.03328 0.04138 0.0
H731 H 0.98196 0.04673 0.05494 0.0
H732 H 0.95299 0.01877 0.07578 0.0
H733 H 0.99933 0.9692 0.95712 0.0
H734 H 0.03069 0.93361 0.96482 0.0
H735 H 0.04362 0.97988 0.96856 0.0
C736 C 0.06869 0.03138 0.45456 0.0
C737 C 0.0872 0.99949 0.46017 0.0
C738 C 0.03481 0.03769 0.46616 0.0
C739 C 0.01989 1.01202 0.48458 0.0
C740 C 0.03867 0.97977 0.49035 0.0
C741 C 0.07188 0.97356 0.47753 0.0
C742 C 0.01499 0.07172 0.45873 0.0
C743 C 0.02415 0.95226 0.5106 0.0
C744 C 0.9606 0.04281 0.54343 0.0
C745 C 0.92755 0.02753 0.53624 0.0
C746 C 0.99043 0.03925 0.52614 0.0
C747 C 0.98699 0.02065 0.50056 0.0
C748 C 0.95295 1.00797 0.49187 0.0
C749 C 0.92339 1.01137 0.51002 0.0
C750 C 0.02616 0.05316 0.53632 0.0
C751 C 0.94819 0.98923 0.46416 0.0
H752 H 0.08022 0.05086 0.44031 0.0
H753 H 0.08611 0.94864 0.48129 0.0
H754 H 0.98799 0.06513 0.45054 0.0
H755 H 1.01114 0.08846 0.47767 0.0
H756 H 0.02948 0.08781 0.44278 0.0
H757 H 0.0419 0.92845 0.51246 0.0
H758 H 0.02106 0.96449 0.53165 0.0
H759 H 0.99727 0.94323 0.50378 0.0
H760 H 0.96365 0.05617 0.56345 0.0
H761 H 0.89776 0.99987 0.50435 0.0
H762 H 0.0385 0.07086 0.52037 0.0
H763 H 0.04475 0.03033 0.53977 0.0
H764 H 0.02377 0.06842 0.5562 0.0
H765 H 0.96256 1.0038 0.44729 0.0
H766 H 0.91948 0.98685 0.45834 0.0
H767 H 0.95979 0.96189 0.46541 0.0
C768 C 0.50982 0.08065 0.48016 0.0
C769 C 0.53459 0.08333 0.45823 0.0
C770 C 0.50516 0.04807 0.49457 0.0
C771 C 0.52523 0.01748 0.48639 0.0
C772 C 0.54979 0.01994 0.46402 0.0
C773 C 0.55447 0.05281 0.45048 0.0
C774 C 0.47921 0.04646 0.51879 0.0
C775 C 0.57133 0.98787 0.45444 0.0
C776 C 0.54228 0.94691 0.54154 0.0
C777 C 0.51516 0.92204 0.53596 0.0
C778 C 0.54628 0.97768 0.52518 0.0
C779 C 0.52265 0.98356 0.5025 0.0
C780 C 0.49663 0.95732 0.49561 0.0
C781 C 0.49306 0.92672 0.51262 0.0
C782 C 0.57441 1.00487 0.53325 0.0
C783 C 0.47146 0.96245 0.47122 0.0
H784 H 0.49428 0.10399 0.48615 0.0
H785 H 0.57342 0.05426 0.43332 0.0
H786 H 0.45887 0.02539 0.51501 0.0
H787 H 0.49375 0.03911 0.53824 0.0
H788 H 0.46523 0.0724 0.52223 0.0
H789 H 0.58752 0.99371 0.43545 0.0
H790 H 0.58973 0.97913 0.47136 0.0
H791 H 0.55323 0.96508 0.44983 0.0
H792 H 0.55909 0.94328 0.55987 0.0
H793 H 0.47162 0.90779 0.50877 0.0
H794 H 0.56121 0.03026 0.53963 0.0
H795 H 0.59189 1.01106 0.5151 0.0
H796 H 0.59154 0.99542 0.55081 0.0
H797 H 0.4527 0.98478 0.4758 0.0
H798 H 0.45552 0.93797 0.46685 0.0
H799 H 0.48664 0.96982 0.45208 0.0
C800 C 0.58025 0.54857 0.54133 0.0
C801 C 0.60262 0.51874 0.53779 0.0
C802 C 0.54776 0.55128 0.52691 0.0
C803 C 0.53759 0.52342 0.50853 0.0
C804 C 0.56103 0.49406 0.50381 0.0
C805 C 0.59341 0.49203 0.51865 0.0
C806 C 0.52366 0.58312 0.53232 0.0
C807 C 0.55117 0.46406 0.48409 0.0
C808 C 0.43963 0.51006 0.48882 0.0
C809 C 0.43911 0.52568 0.46221 0.0
C810 C 0.47148 0.5098 0.50465 0.0
C811 C 0.50298 0.52561 0.49344 0.0
C812 C 0.50184 0.54293 0.46722 0.0
C813 C 0.46999 0.54285 0.45206 0.0
C814 C 0.47183 0.49164 0.53289 0.0
C815 C 0.53466 0.56029 0.45458 0.0
H816 H 0.58717 0.56863 0.55685 0.0
H817 H 0.61023 0.4684 0.51681 0.0
H818 H 0.51859 0.59776 0.5125 0.0
H819 H 0.49734 0.5739 0.54035 0.0
H820 H 0.53538 0.60212 0.54769 0.0
H821 H 0.57273 0.44361 0.48232 0.0
H822 H 0.52643 0.45067 0.49154 0.0
H823 H 0.54548 0.47499 0.46293 0.0
H824 H 0.41581 0.49686 0.49667 0.0
H825 H 0.46954 0.55564 0.43165 0.0
H826 H 0.48252 0.51015 0.54901 0.0
H827 H 0.48986 0.46798 0.53222 0.0
H828 H 0.44472 0.48266 0.5394 0.0
H829 H 0.54609 0.58023 0.46926 0.0
H830 H 0.52875 0.57395 0.43442 0.0
H831 H 0.55556 0.53965 0.45082 0.0
C832 C 1.00704 0.60568 0.51013 0.0
C833 C 0.02481 0.6014 0.5357 0.0
C834 C 1.00316 0.57623 0.49191 0.0
C835 C 0.01687 0.54224 0.5 0.0
C836 C 0.03712 0.53881 0.52479 0.0
C837 C 0.04119 0.5685 0.54203 0.0
C838 C 0.98279 0.58103 0.46492 0.0
C839 C 0.05211 0.50315 0.53441 0.0
C840 C 0.97065 0.45578 0.4805 0.0
C841 C 0.99639 0.44005 0.46316 0.0
C842 C 0.97631 0.48993 0.49184 0.0
C843 C 1.00769 0.50919 0.48451 0.0
C844 C 0.03289 0.49394 0.46587 0.0
C845 C 0.02728 0.45914 0.45587 0.0
C846 C 0.94941 0.50479 0.51244 0.0
C847 C 0.06584 0.51424 0.45671 0.0
H848 H 0.99458 0.63116 0.50514 0.0
H849 H 0.05556 0.56527 0.5616 0.0
H850 H 0.9956 0.56568 0.44771 0.0
H851 H 0.95516 0.57067 0.46754 0.0
H852 H 0.98106 0.6097 0.45876 0.0
H853 H 0.06797 0.5055 0.554 0.0
H854 H 0.02983 0.48408 0.53817 0.0
H855 H 0.06956 0.49137 0.51804 0.0
H856 H 0.94637 0.44114 0.48542 0.0
H857 H 0.04651 0.44727 0.44159 0.0
H858 H 0.93954 0.53126 0.50522 0.0
H859 H 0.96247 0.50887 0.53307 0.0
H860 H 0.92608 0.48673 0.51537 0.0
H861 H 0.05808 0.54096 0.44847 0.0
H862 H 0.08107 0.49966 0.44031 0.0
H863 H 0.08383 0.51877 0.47483 0.0
C864 C 0.58818 0.95237 0.13599 0.0
C865 C 0.62505 0.95197 0.12989 0.0
C866 C 0.56856 0.92037 0.13878 0.0
C867 C 0.58612 0.88692 0.13567 0.0
C868 C 0.62374 0.8863 0.13147 0.0
C869 C 0.64267 0.91873 0.1285 0.0
C870 C 0.52854 0.9225 0.14304 0.0
C871 C 0.64371 0.85133 0.12832 0.0
C872 C 0.53729 0.79867 0.15175 0.0
C873 C 0.52777 0.78748 0.12475 0.0
C874 C 0.556 0.8312 0.15587 0.0
C875 C 0.56471 0.85317 0.13251 0.0
C876 C 0.55366 0.84248 0.10543 0.0
C877 C 0.53571 0.80983 0.10192 0.0
C878 C 0.56744 0.84151 0.18504 0.0
C879 C 0.56147 0.86518 0.07992 0.0
H880 H 0.57412 0.97776 0.13719 0.0
H881 H 0.67113 0.91794 0.12404 0.0
H882 H 0.51479 0.91519 0.12326 0.0
H883 H 0.51974 0.90323 0.15933 0.0
H884 H 0.51972 0.94984 0.14919 0.0
H885 H 0.67321 0.85509 0.12906 0.0
H886 H 0.6358 0.83228 0.14506 0.0
H887 H 0.63669 0.8389 0.10795 0.0
H888 H 0.53136 0.78141 0.16942 0.0
H889 H 0.52801 0.80155 0.081 0.0
H890 H 0.55832 0.86911 0.18996 0.0
H891 H 0.59711 0.84141 0.18633 0.0
H892 H 0.55672 0.8229 0.20116 0.0
H893 H 0.55084 0.8927 0.08293 0.0
H894 H 0.54956 0.85388 0.06054 0.0
H895 H 0.59085 0.86742 0.07688 0.0
C896 C 0.6132 0.64355 0.1305 0.0
C897 C 0.58104 0.6245 0.12744 0.0
C898 C 0.64631 0.62555 0.13307 0.0
C899 C 0.64752 0.58757 0.13189 0.0
C900 C 0.615 0.56821 0.13006 0.0
C901 C 0.58227 0.58683 0.12826 0.0
C902 C 0.68019 0.64729 0.1356 0.0
C903 C 0.61486 0.52779 0.12834 0.0
C904 C 0.72964 0.54533 0.09806 0.0
C905 C 0.74778 0.53005 0.12093 0.0
C906 C 0.69724 0.56392 0.10148 0.0
C907 C 0.68261 0.56835 0.12862 0.0
C908 C 0.70096 0.55348 0.15196 0.0
C909 C 0.73309 0.53401 0.14781 0.0
C910 C 0.67832 0.5783 0.07584 0.0
C911 C 0.68675 0.55829 0.18129 0.0
H912 H 0.61264 0.6726 0.13012 0.0
H913 H 0.55773 0.57166 0.12591 0.0
H914 H 0.6978 0.63598 0.15212 0.0
H915 H 0.69519 0.6462 0.11556 0.0
H916 H 0.67453 0.67583 0.14058 0.0
H917 H 0.58736 0.51671 0.12649 0.0
H918 H 0.63073 0.51884 0.10997 0.0
H919 H 0.62768 0.51622 0.14723 0.0
H920 H 0.74042 0.54206 0.07713 0.0
H921 H 0.74696 0.52241 0.16558 0.0
H922 H 0.67569 0.60785 0.07729 0.0
H923 H 0.65087 0.56709 0.0746 0.0
H924 H 0.69271 0.57167 0.05613 0.0
H925 H 0.68235 0.58718 0.18564 0.0
H926 H 0.70525 0.54721 0.19734 0.0
H927 H 0.66047 0.54476 0.18338 0.0
C928 C 0.97566 0.72638 0.10096 0.0
C929 C 0.99958 0.73868 0.12142 0.0
C930 C 0.95977 0.6925 0.10293 0.0
C931 C 0.96695 0.67059 0.12649 0.0
C932 C 0.99083 0.68301 0.14748 0.0
C933 C 1.00747 0.71674 0.14442 0.0
C934 C 0.9356 0.68 0.07953 0.0
C935 C 0.9984 0.66086 0.17325 0.0
C936 C 0.8956 0.59884 0.13575 0.0
C937 C 0.91236 0.56891 0.12382 0.0
C938 C 0.91407 0.63146 0.13876 0.0
C939 C 0.94961 0.63461 0.12851 0.0
C940 C 0.96685 0.60413 0.11699 0.0
C941 C 0.94821 0.57154 0.11524 0.0
C942 C 0.89504 0.66298 0.15187 0.0
C943 C 1.00409 0.60647 0.10475 0.0
H944 H 0.96998 0.74312 0.08291 0.0
H945 H 0.02595 0.72628 0.16023 0.0
H946 H 0.94542 0.65408 0.07108 0.0
H947 H 0.90813 0.67549 0.08763 0.0
H948 H 0.93411 0.69964 0.06207 0.0
H949 H 0.0166 0.67476 0.18807 0.0
H950 H 0.97292 0.65466 0.18421 0.0
H951 H 1.01072 0.63493 0.16721 0.0
H952 H 0.86792 0.5968 0.14246 0.0
H953 H 0.9611 0.54855 0.10563 0.0
H954 H 0.8884 0.68299 0.13548 0.0
H955 H 0.91268 0.67635 0.16735 0.0
H956 H 0.86982 0.65488 0.16247 0.0
H957 H 1.00366 0.62413 0.08604 0.0
H958 H 0.01466 0.57983 0.0984 0.0
H959 H 0.02284 0.61856 0.12004 0.0
C960 C 0.94764 0.93441 0.14637 0.0
C961 C 0.9465 0.89766 0.14032 0.0
C962 C 0.91599 0.95487 0.14778 0.0
C963 C 0.88243 0.93795 0.14367 0.0
C964 C 0.88112 0.90024 0.14031 0.0
C965 C 0.91319 0.88064 0.13823 0.0
C966 C 0.91884 0.99501 0.15081 0.0
C967 C 0.84597 0.88094 0.13647 0.0
C968 C 0.79493 0.98989 0.15394 0.0
C969 C 0.7857 0.99773 0.12615 0.0
C970 C 0.82645 0.97054 0.16017 0.0
C971 C 0.84964 0.95988 0.13814 0.0
C972 C 0.84095 0.9691 0.11017 0.0
C973 C 0.8089 0.98737 0.10453 0.0
C974 C 0.8345 0.96075 0.19017 0.0
C975 C 0.86535 0.95938 0.08605 0.0
H976 H 0.97335 0.94782 0.14746 0.0
H977 H 0.91226 0.85226 0.13341 0.0
H978 H 0.91482 1.00772 0.13002 0.0
H979 H 0.89783 1.00554 0.16503 0.0
H980 H 0.9455 1.00321 0.15887 0.0
H981 H 0.84899 0.85147 0.13889 0.0
H982 H 0.82583 0.89066 0.1518 0.0
H983 H 0.83539 0.88649 0.11519 0.0
H984 H 0.77698 0.99791 0.17066 0.0
H985 H 0.80212 0.99395 0.08304 0.0
H986 H 0.86155 0.97038 0.19609 0.0
H987 H 0.83462 0.93115 0.19248 0.0
H988 H 0.81457 0.97218 0.20498 0.0
H989 H 0.89283 0.96948 0.09 0.0
H990 H 0.85581 0.97053 0.0658 0.0
H991 H 0.86712 0.92981 0.08408 0.0
C992 C 0.08176 0.07598 0.37832 0.0
C993 C 0.11939 0.07483 0.37784 0.0
C994 C 0.0631 0.10864 0.37603 0.0
C995 C 0.0824 0.14101 0.37257 0.0
C996 C 0.12019 0.13965 0.36978 0.0
C997 C 0.13824 0.10669 0.37269 0.0
C998 C 0.02287 0.10878 0.37936 0.0
C999 C 0.14185 0.17336 0.36566 0.0
C1000 C 0.03075 0.22846 0.35931 0.0
C1001 C 0.02972 0.24315 0.38633 0.0
C1002 C 0.04813 0.19538 0.35422 0.0
C1003 C 0.06396 0.17627 0.3768 0.0
C1004 C 0.06223 0.19079 0.40413 0.0
C1005 C 0.04557 0.22398 0.40845 0.0
C1006 C 0.04997 0.18109 0.32473 0.0
C1007 C 0.07789 0.17118 0.42901 0.0
H1008 H 0.06683 0.0516 0.38225 0.0
H1009 H 0.16726 0.10611 0.372 0.0
H1010 H 0.01534 0.12411 0.39839 0.0
H1011 H 1.01018 0.12236 0.36124 0.0
H1012 H 1.0117 0.08129 0.38118 0.0
H1013 H 0.16984 0.1674 0.35922 0.0
H1014 H 0.12928 0.19083 0.34961 0.0
H1015 H 0.14262 0.18865 0.38557 0.0
H1016 H 0.01859 0.24309 0.34214 0.0
H1017 H 0.04445 0.2347 0.42953 0.0
H1018 H 0.03711 0.15436 0.32365 0.0
H1019 H 0.07837 0.17753 0.31843 0.0
H1020 H 0.03665 0.19918 0.30945 0.0
H1021 H 0.06615 0.14396 0.43061 0.0
H1022 H 0.07301 0.18547 0.44906 0.0
H1023 H 0.10722 0.16791 0.42624 0.0
C1024 C 0.44978 0.08559 0.37302 0.0
C1025 C 0.44984 0.12249 0.37899 0.0
C1026 C 0.41755 0.06654 0.36975 0.0
C1027 C 0.38437 0.08476 0.37218 0.0
C1028 C 0.38429 0.12242 0.37616 0.0
C1029 C 0.41693 0.14077 0.37966 0.0
C1030 C 0.41908 0.02643 0.36579 0.0
C1031 C 0.34963 0.14307 0.37855 0.0
C1032 C 0.29594 0.03682 0.35553 0.0
C1033 C 0.28413 0.02781 0.38249 0.0
C1034 C 0.32871 0.05517 0.3516 0.0
C1035 C 0.35025 0.06397 0.37514 0.0
C1036 C 0.33887 0.0535 0.40221 0.0
C1037 C 0.30601 0.03593 0.40551 0.0
C1038 C 0.33978 0.06605 0.32245 0.0
C1039 C 0.36111 0.06142 0.42791 0.0
H1040 H 0.47493 0.07105 0.37237 0.0
H1041 H 0.41654 0.16928 0.38398 0.0
H1042 H 0.41108 1.013 0.38557 0.0
H1043 H 0.40004 0.01778 0.34932 0.0
H1044 H 0.44638 0.01708 0.36007 0.0
H1045 H 0.35393 0.17249 0.37749 0.0
H1046 H 0.33086 0.13517 0.36166 0.0
H1047 H 0.33659 0.13668 0.39883 0.0
H1048 H 0.27906 0.03069 0.33772 0.0
H1049 H 0.29725 0.02856 0.4264 0.0
H1050 H 0.36728 0.05635 0.31791 0.0
H1051 H 0.34027 0.09572 0.3209 0.0
H1052 H 0.32129 0.05547 0.30623 0.0
H1053 H 0.38851 0.0503 0.42537 0.0
H1054 H 0.34921 0.05002 0.44729 0.0
H1055 H 0.36374 0.09082 0.43063 0.0
C1056 C 0.43452 0.44522 0.36286 0.0
C1057 C 0.39827 0.44512 0.3706 0.0
C1058 C 0.45422 0.41304 0.36127 0.0
C1059 C 0.43701 0.37995 0.36691 0.0
C1060 C 0.3996 0.37962 0.37202 0.0
C1061 C 0.38084 0.41221 0.37428 0.0
C1062 C 0.49409 0.4149 0.35632 0.0
C1063 C 0.37988 0.34501 0.37737 0.0
C1064 C 0.48697 0.29118 0.35605 0.0
C1065 C 0.4965 0.28251 0.38363 0.0
C1066 C 0.4676 0.32284 0.35008 0.0
C1067 C 0.45869 0.34678 0.3721 0.0
C1068 C 0.46957 0.33856 0.3998 0.0
C1069 C 0.48776 0.30636 0.40524 0.0
C1070 C 0.45577 0.33014 0.32042 0.0
C1071 C 0.46171 0.36363 0.42389 0.0
H1072 H 0.44829 0.4706 0.36047 0.0
H1073 H 0.35285 0.41204 0.38037 0.0
H1074 H 0.50828 0.41037 0.37643 0.0
H1075 H 0.50291 0.39368 0.34159 0.0
H1076 H 0.50237 0.44138 0.34788 0.0
H1077 H 0.35037 0.3486 0.37607 0.0
H1078 H 0.38818 0.32418 0.36211 0.0
H1079 H 0.38656 0.33498 0.39861 0.0
H1080 H 0.49362 0.27267 0.33934 0.0
H1081 H 0.49552 0.29994 0.42655 0.0
H1082 H 0.46494 0.35702 0.3136 0.0
H1083 H 0.42607 0.33021 0.31941 0.0
H1084 H 0.46614 0.30979 0.30549 0.0
H1085 H 0.47162 0.39095 0.419 0.0
H1086 H 0.47426 0.35454 0.44376 0.0
H1087 H 0.43236 0.3656 0.42717 0.0
C1088 C 0.07552 0.44482 0.38285 0.0
C1089 C 0.07512 0.40721 0.38476 0.0
C1090 C 0.10795 0.46389 0.38105 0.0
C1091 C 0.14091 0.445 0.38066 0.0
C1092 C 0.14057 0.40702 0.38073 0.0
C1093 C 0.1078 0.38863 0.38292 0.0
C1094 C 0.10702 0.50435 0.38094 0.0
C1095 C 0.17499 0.38573 0.37998 0.0
C1096 C 0.22806 0.4942 0.36293 0.0
C1097 C 0.24249 0.49955 0.38966 0.0
C1098 C 0.19491 0.47658 0.35952 0.0
C1099 C 0.17563 0.46475 0.38345 0.0
C1100 C 0.18994 0.47112 0.41048 0.0
C1101 C 0.2233 0.48805 0.41319 0.0
C1102 C 0.18093 0.46984 0.33038 0.0
C1103 C 0.17016 0.45976 0.43661 0.0
H1104 H 0.05054 0.45957 0.3842 0.0
H1105 H 0.10791 0.35962 0.38415 0.0
H1106 H 0.12226 0.51491 0.39909 0.0
H1107 H 0.12015 0.51469 0.36174 0.0
H1108 H 0.07927 0.51509 0.38188 0.0
H1109 H 0.17015 0.35667 0.37673 0.0
H1110 H 0.19273 0.39567 0.36304 0.0
H1111 H 0.18951 0.3892 0.40006 0.0
H1112 H 0.2431 0.50299 0.34476 0.0
H1113 H 0.23452 0.49238 0.43386 0.0
H1114 H 0.15366 0.48131 0.32807 0.0
H1115 H 0.17876 0.44057 0.32671 0.0
H1116 H 0.19853 0.48156 0.314 0.0
H1117 H 0.14279 0.47138 0.43668 0.0
H1118 H 0.18411 0.46824 0.45604 0.0
H1119 H 0.16728 0.43017 0.43696 0.0
C1120 C 0.41729 0.0926 0.85982 0.0
C1121 C 0.40006 0.08597 0.88544 0.0
C1122 C 0.43772 0.12403 0.85578 0.0
C1123 C 0.44179 0.14875 0.87813 0.0
C1124 C 0.42435 0.14212 0.90391 0.0
C1125 C 0.40345 0.1113 0.90707 0.0
C1126 C 0.45526 0.13061 0.8278 0.0
C1127 C 0.42848 0.16715 0.92858 0.0
C1128 C 0.51987 0.21274 0.88723 0.0
C1129 C 0.50287 0.24598 0.88364 0.0
C1130 C 0.50099 0.18049 0.88353 0.0
C1131 C 0.46448 0.18152 0.87535 0.0
C1132 C 0.44821 0.21499 0.86933 0.0
C1133 C 0.46741 0.24681 0.87396 0.0
C1134 C 0.51922 0.14556 0.89081 0.0
C1135 C 0.40968 0.21737 0.85996 0.0
H1136 H 0.41496 0.0732 0.84305 0.0
H1137 H 0.39078 0.10646 0.92714 0.0
H1138 H 0.44792 0.15761 0.81986 0.0
H1139 H 0.4848 0.13003 0.83016 0.0
H1140 H 0.44743 0.11028 0.81197 0.0
H1141 H 0.41371 0.1577 0.94739 0.0
H1142 H 0.45722 0.16978 0.93413 0.0
H1143 H 0.4185 0.19425 0.92304 0.0
H1144 H 0.54721 0.21193 0.89486 0.0
H1145 H 0.45425 0.27244 0.87087 0.0
H1146 H 0.51383 0.12502 0.8746 0.0
H1147 H 0.50831 0.13534 0.91091 0.0
H1148 H 0.54866 0.14872 0.89307 0.0
H1149 H 0.4039 0.19682 0.8438 0.0
H1150 H 0.40307 0.24425 0.85136 0.0
H1151 H 0.39178 0.21211 0.87805 0.0
C1152 C 0.31823 0.52171 0.887 0.0
C1153 C 0.2859 0.50537 0.87936 0.0
C1154 C 0.35103 0.50329 0.88434 0.0
C1155 C 0.35155 0.46805 0.87319 0.0
C1156 C 0.3193 0.4529 0.86306 0.0
C1157 C 0.28683 0.47149 0.86666 0.0
C1158 C 0.38457 0.52031 0.89587 0.0
C1159 C 0.3186 0.41588 0.85037 0.0
C1160 C 0.44259 0.42329 0.86039 0.0
C1161 C 0.44667 0.40282 0.8849 0.0
C1162 C 0.41146 0.44407 0.85581 0.0
C1163 C 0.38416 0.44499 0.87647 0.0
C1164 C 0.38794 0.42389 0.90094 0.0
C1165 C 0.41875 0.40287 0.90466 0.0
C1166 C 0.40805 0.46548 0.82914 0.0
C1167 C 0.35981 0.42422 0.92373 0.0
H1168 H 0.3176 0.5477 0.89712 0.0
H1169 H 0.26189 0.4588 0.86065 0.0
H1170 H 0.39221 0.50665 0.91564 0.0
H1171 H 0.40719 0.51713 0.88102 0.0
H1172 H 0.38077 0.54929 0.90032 0.0
H1173 H 0.29315 0.41067 0.83905 0.0
H1174 H 0.34131 0.4122 0.83565 0.0
H1175 H 0.32145 0.39555 0.8672 0.0
H1176 H 0.4639 0.42349 0.84497 0.0
H1177 H 0.4214 0.38735 0.92374 0.0
H1178 H 0.40821 0.49452 0.83405 0.0
H1179 H 0.38214 0.45955 0.81877 0.0
H1180 H 0.43016 0.45975 0.81421 0.0
H1181 H 0.35593 0.45194 0.93158 0.0
H1182 H 0.36708 0.40675 0.94171 0.0
H1183 H 0.33376 0.41504 0.91522 0.0
C1184 C 0.06428 0.2776 0.87403 0.0
C1185 C 0.02732 0.27876 0.87899 0.0
C1186 C 0.08406 0.3093 0.87015 0.0
C1187 C 0.06675 0.34303 0.87261 0.0
C1188 C 0.0291 0.34417 0.87659 0.0
C1189 C 1.00977 0.31198 0.87928 0.0
C1190 C 0.12389 0.30668 0.86514 0.0
C1191 C 1.00962 0.37931 0.88048 0.0
C1192 C 0.12295 0.4163 0.90579 0.0
C1193 C 0.12933 0.43991 0.88339 0.0
C1194 C 0.10219 0.38537 0.90251 0.0
C1195 C 0.08859 0.37644 0.87577 0.0
C1196 C 0.09575 0.39948 0.85274 0.0
C1197 C 0.11541 0.43141 0.85694 0.0
C1198 C 0.09421 0.36263 0.92799 0.0
C1199 C 0.08269 0.39034 0.82375 0.0
H1200 H 0.07786 0.25188 0.8739 0.0
H1201 H 0.98126 0.31287 0.88362 0.0
H1202 H 0.13235 0.32592 0.84869 0.0
H1203 H 0.13842 0.31368 0.88463 0.0
H1204 H 0.13209 0.27923 0.85876 0.0
H1205 H 0.98007 0.37593 0.88013 0.0
H1206 H 0.01729 0.39115 0.90093 0.0
H1207 H 0.01733 0.39871 0.86397 0.0
H1208 H 0.13317 0.42265 0.92643 0.0
H1209 H 0.12017 0.44947 0.83955 0.0
H1210 H 0.10595 0.33552 0.92533 0.0
H1211 H 0.06484 0.35934 0.93046 0.0
H1212 H 0.10504 0.37447 0.94757 0.0
H1213 H 0.09211 0.36316 0.8178 0.0
H1214 H 0.09213 0.40985 0.8078 0.0
H1215 H 0.05299 0.38984 0.82342 0.0
C1216 C 0.22757 0.04939 0.91193 0.0
C1217 C 0.24066 0.02583 0.89141 0.0
C1218 C 0.19388 0.06579 0.90941 0.0
C1219 C 0.17282 0.05951 0.88527 0.0
C1220 C 0.18593 0.03589 0.86428 0.0
C1221 C 0.21948 0.01878 0.86783 0.0
C1222 C 0.18072 0.08963 0.93284 0.0
C1223 C 0.16474 0.02915 0.83793 0.0
C1224 C 0.07329 0.07945 0.89437 0.0
C1225 C 0.07111 0.1155 0.88603 0.0
C1226 C 0.10586 0.06047 0.89326 0.0
C1227 C 0.13698 0.07748 0.88267 0.0
C1228 C 0.13442 0.11328 0.87275 0.0
C1229 C 0.10173 0.13207 0.87505 0.0
C1230 C 0.1074 0.02296 0.90512 0.0
C1231 C 0.16659 0.13221 0.86065 0.0
H1232 H 0.24358 0.05452 0.93044 0.0
H1233 H 0.22952 1.00065 0.85192 0.0
H1234 H 0.17673 0.11733 0.925 0.0
H1235 H 0.15442 0.07995 0.94059 0.0
H1236 H 0.19969 0.09051 0.95074 0.0
H1237 H 0.17897 1.01094 0.82326 0.0
H1238 H 0.13842 0.0172 0.84324 0.0
H1239 H 0.15936 0.05494 0.82711 0.0
H1240 H 0.04988 0.06659 0.90327 0.0
H1241 H 0.1002 0.15986 0.8685 0.0
H1242 H 0.12434 0.02281 0.92422 0.0
H1243 H 0.11991 1.00434 0.88989 0.0
H1244 H 0.08045 1.01261 0.91074 0.0
H1245 H 0.18602 0.13812 0.87759 0.0
H1246 H 0.15917 0.15783 0.85029 0.0
H1247 H 0.18037 0.11476 0.8452 0.0
C1248 C 0.92113 0.93815 0.64969 0.0
C1249 C 0.89931 0.94184 0.62588 0.0
C1250 C 0.94206 0.90701 0.65393 0.0
C1251 C 0.9418 0.87928 0.63361 0.0
C1252 C 0.91922 0.88258 0.60995 0.0
C1253 C 0.89805 0.91338 0.60662 0.0
C1254 C 0.96502 0.9041 0.67981 0.0
C1255 C 0.91826 0.85405 0.5875 0.0
C1256 C 0.01896 0.81431 0.62111 0.0
C1257 C 1.00381 0.78181 0.62984 0.0
C1258 C 1.0 0.84681 0.62382 0.0
C1259 C 0.96544 0.84694 0.63623 0.0
C1260 C 0.95147 0.81456 0.64722 0.0
C1261 C 0.97051 0.78234 0.64346 0.0
C1262 C 0.01569 0.8804 0.61121 0.0
C1263 C 0.91525 0.81346 0.66125 0.0
H1264 H 0.92237 0.95983 0.66474 0.0
H1265 H 0.88142 0.91563 0.5881 0.0
H1266 H 0.96018 0.87812 0.69048 0.0
H1267 H 0.99372 0.90479 0.67383 0.0
H1268 H 0.95975 0.9262 0.69484 0.0
H1269 H 0.89955 0.86087 0.57021 0.0
H1270 H 0.94544 0.8503 0.57853 0.0
H1271 H 0.90994 0.82805 0.59666 0.0
H1272 H 0.04445 0.814 0.61021 0.0
H1273 H 0.95872 0.75727 0.65029 0.0
H1274 H 0.01337 0.90318 0.62599 0.0
H1275 H 1.00045 0.88765 0.59206 0.0
H1276 H 0.04431 0.87691 0.6054 0.0
H1277 H 0.91212 0.83629 0.67592 0.0
H1278 H 0.91107 0.78805 0.67294 0.0
H1279 H 0.89393 0.81585 0.64517 0.0
C1280 C 0.58777 0.91973 0.65187 0.0
C1281 C 0.58146 0.90093 0.62692 0.0
C1282 C 0.61939 0.94003 0.65543 0.0
C1283 C 0.64457 0.94237 0.63322 0.0
C1284 C 0.63816 0.92347 0.60808 0.0
C1285 C 0.6072 0.90272 0.60545 0.0
C1286 C 0.62572 0.95917 0.68277 0.0
C1287 C 0.66363 0.92577 0.5835 0.0
C1288 C 0.71001 0.01866 0.62147 0.0
C1289 C 0.74287 1.00128 0.62588 0.0
C1290 C 0.6774 1.00063 0.62578 0.0
C1291 C 0.67767 0.96467 0.63543 0.0
C1292 C 0.71077 0.94818 0.64222 0.0
C1293 C 0.74297 0.96646 0.63693 0.0
C1294 C 0.6429 0.01902 0.61757 0.0
C1295 C 0.71234 0.91025 0.65316 0.0
H1296 H 0.56805 0.91864 0.66852 0.0
H1297 H 0.60262 0.88884 0.58585 0.0
H1298 H 0.6524 0.95185 0.69129 0.0
H1299 H 0.62575 0.98856 0.67926 0.0
H1300 H 0.60494 0.9527 0.69864 0.0
H1301 H 0.65421 0.91013 0.56515 0.0
H1302 H 0.66688 0.95413 0.57697 0.0
H1303 H 0.69044 0.9156 0.58962 0.0
H1304 H 0.70977 0.04552 0.61279 0.0
H1305 H 0.76833 0.95305 0.64066 0.0
H1306 H 0.62207 0.01498 0.63382 0.0
H1307 H 0.63274 1.00708 0.59784 0.0
H1308 H 0.64661 0.04824 0.61422 0.0
H1309 H 0.69148 0.90586 0.66936 0.0
H1310 H 0.73897 0.90376 0.66224 0.0
H1311 H 0.70705 0.89129 0.63577 0.0
C1312 C 0.50184 0.71107 0.62373 0.0
C1313 C 0.51731 0.74368 0.63179 0.0
C1314 C 0.52044 0.67846 0.62719 0.0
C1315 C 0.55493 0.67837 0.63969 0.0
C1316 C 0.56909 0.71092 0.65015 0.0
C1317 C 0.55044 0.74321 0.64564 0.0
C1318 C 0.50457 0.64467 0.6151 0.0
C1319 C 0.60526 0.71212 0.66421 0.0
C1320 C 0.60049 0.58781 0.65393 0.0
C1321 C 0.62268 0.58442 0.63031 0.0
C1322 C 0.57883 0.61857 0.6578 0.0
C1323 C 0.57863 0.64605 0.63722 0.0
C1324 C 0.6012 0.64278 0.61355 0.0
C1325 C 0.62315 0.61252 0.61064 0.0
C1326 C 0.5558 0.62144 0.68366 0.0
C1327 C 0.60152 0.67088 0.5907 0.0
H1328 H 0.47644 0.71132 0.61272 0.0
H1329 H 0.56245 0.76836 0.652 0.0
H1330 H 0.51952 0.63713 0.59589 0.0
H1331 H 0.50709 0.6221 0.6301 0.0
H1332 H 0.47587 0.6481 0.60954 0.0
H1333 H 0.60948 0.73771 0.6756 0.0
H1334 H 0.60826 0.68953 0.67916 0.0
H1335 H 0.62662 0.70939 0.64818 0.0
H1336 H 0.59975 0.56633 0.6692 0.0
H1337 H 0.63981 0.61039 0.59212 0.0
H1338 H 0.52711 0.62074 0.67768 0.0
H1339 H 0.56061 0.64743 0.69428 0.0
H1340 H 0.56106 0.59935 0.69873 0.0
H1341 H 0.57419 0.67417 0.58193 0.0
H1342 H 0.62005 0.66393 0.57332 0.0
H1343 H 0.60971 0.69714 0.59945 0.0
C1344 C 0.91296 0.62796 0.61023 0.0
C1345 C 0.94248 0.62443 0.62833 0.0
C1346 C 0.88226 0.60669 0.61325 0.0
C1347 C 0.88015 0.58163 0.63545 0.0
C1348 C 0.90897 0.57905 0.65472 0.0
C1349 C 0.93997 0.60018 0.65078 0.0
C1350 C 0.85254 0.61022 0.59192 0.0
C1351 C 0.90737 0.5534 0.67911 0.0
C1352 C 0.78374 0.55226 0.64663 0.0
C1353 C 0.78239 0.52046 0.63103 0.0
C1354 C 0.81618 0.57076 0.6505 0.0
C1355 C 0.84789 0.55789 0.6376 0.0
C1356 C 0.84697 0.52474 0.62305 0.0
C1357 C 0.81432 0.50619 0.62028 0.0
C1358 C 0.81596 0.60538 0.66682 0.0
C1359 C 0.87977 0.51035 0.60834 0.0
H1360 H 0.91427 0.64652 0.5928 0.0
H1361 H 0.96246 0.59715 0.66493 0.0
H1362 H 0.84818 0.58411 0.58135 0.0
H1363 H 0.82712 0.61764 0.60245 0.0
H1364 H 0.85848 0.63071 0.57569 0.0
H1365 H 0.93021 0.55703 0.69374 0.0
H1366 H 0.88197 0.55709 0.69085 0.0
H1367 H 0.90777 0.52542 0.6713 0.0
H1368 H 0.7591 0.56338 0.655 0.0
H1369 H 0.81334 0.48191 0.60785 0.0
H1370 H 0.81754 0.62835 0.65211 0.0
H1371 H 0.83957 0.60685 0.68088 0.0
H1372 H 0.79123 0.60838 0.67957 0.0
H1373 H 0.8861 0.52768 0.59009 0.0
H1374 H 0.87583 0.48251 0.60072 0.0
H1375 H 0.9033 0.51085 0.62249 0.0
C1376 C 0.67382 0.18658 0.07399 0.0
C1377 C 0.65179 0.15872 0.08354 0.0
C1378 C 0.66128 0.21172 0.05424 0.0
C1379 C 0.62649 0.20786 0.04271 0.0
C1380 C 0.60399 0.18003 0.05264 0.0
C1381 C 0.61661 0.15643 0.0734 0.0
C1382 C 0.68569 0.24176 0.04513 0.0
C1383 C 0.56733 0.17382 0.0402 0.0
C1384 C 0.58027 0.28318 1.00217 0.0
C1385 C 0.58944 0.27485 0.97447 0.0
C1386 C 0.59311 0.26237 0.02466 0.0
C1387 C 0.61431 0.23156 0.01922 0.0
C1388 C 0.62326 0.22289 0.99115 0.0
C1389 C 0.61133 0.24507 0.96919 0.0
C1390 C 0.58416 0.27345 0.05424 0.0
C1391 C 0.64471 0.18969 0.98423 0.0
H1392 H 0.70106 0.18845 0.0817 0.0
H1393 H 0.59957 0.13475 0.08043 0.0
H1394 H 0.69493 0.23696 0.02338 0.0
H1395 H 0.67106 0.26768 0.04528 0.0
H1396 H 0.70962 0.24408 0.05883 0.0
H1397 H 0.55296 0.15131 0.05048 0.0
H1398 H 0.55072 0.19836 0.04202 0.0
H1399 H 0.56999 0.16769 0.01755 0.0
H1400 H 0.56353 0.30638 0.00624 0.0
H1401 H 0.61815 0.23846 0.94773 0.0
H1402 H 0.60911 0.27592 0.06672 0.0
H1403 H 0.56745 0.25262 0.0644 0.0
H1404 H 0.5695 0.29936 0.05501 0.0
H1405 H 0.67163 0.19129 0.99393 0.0
H1406 H 0.64807 0.1859 0.96131 0.0
H1407 H 0.63127 0.16566 0.99302 0.0
C1408 C 0.24988 0.57217 1.00062 0.0
C1409 C 0.25581 0.58319 0.97296 0.0
C1410 C 0.27113 0.58536 0.02269 0.0
C1411 C 0.29996 0.6089 0.01676 0.0
C1412 C 0.30624 0.61967 0.98869 0.0
C1413 C 0.28363 0.60726 0.96725 0.0
C1414 C 0.26267 0.57422 0.05234 0.0
C1415 C 0.3374 0.64359 0.98119 0.0
C1416 C 0.34455 0.66785 0.07203 0.0
C1417 C 0.37415 0.64689 0.07976 0.0
C1418 C 0.31914 0.65508 0.05264 0.0
C1419 C 0.32442 0.62129 0.03963 0.0
C1420 C 0.35425 0.60003 0.04751 0.0
C1421 C 0.37819 0.61271 0.06791 0.0
C1422 C 0.28706 0.67807 0.04564 0.0
C1423 C 0.36197 0.56462 0.03339 0.0
H1424 H 0.22815 0.55376 1.00503 0.0
H1425 H 0.28838 0.61554 0.94579 0.0
H1426 H 0.28516 0.55829 0.06105 0.0
H1427 H 0.25949 0.5983 0.06576 0.0
H1428 H 0.23783 0.55796 0.05367 0.0
H1429 H 0.33924 0.6486 0.9583 0.0
H1430 H 0.33484 0.66972 0.99204 0.0
H1431 H 0.36284 0.63113 0.98832 0.0
H1432 H 0.34135 0.69431 0.08107 0.0
H1433 H 0.40127 0.59655 0.07345 0.0
H1434 H 0.26213 0.66196 0.04684 0.0
H1435 H 0.28939 0.68819 0.02388 0.0
H1436 H 0.2845 0.70141 0.05994 0.0
H1437 H 0.33889 0.54624 0.03586 0.0
H1438 H 0.38626 0.5513 0.04194 0.0
H1439 H 0.36592 0.56895 0.0106 0.0
C1440 C 0.85517 0.34095 0.06953 0.0
C1441 C 0.87819 0.36304 0.08505 0.0
C1442 C 0.86867 0.31669 0.04954 0.0
C1443 C 0.90607 0.31494 0.04446 0.0
C1444 C 0.9295 0.33617 0.06082 0.0
C1445 C 0.91534 0.35959 0.08108 0.0
C1446 C 0.84272 0.2942 0.0329 0.0
C1447 C 0.96943 0.33588 0.05575 0.0
C1448 C 0.94532 0.2379 1.00138 0.0
C1449 C 0.94674 0.25305 0.97449 0.0
C1450 C 0.93195 0.25754 0.02435 0.0
C1451 C 0.92035 0.29341 0.02046 0.0
C1452 C 0.92238 0.30899 0.99343 0.0
C1453 C 0.93517 0.28856 0.97081 0.0
C1454 C 0.92975 0.23977 0.05269 0.0
C1455 C 0.91097 0.34732 0.98836 0.0
H1456 H 0.82646 0.34343 0.07236 0.0
H1457 H 0.93341 0.37676 0.09267 0.0
H1458 H 0.84199 0.30382 0.01092 0.0
H1459 H 0.85161 0.26581 0.03249 0.0
H1460 H 0.81512 0.29543 0.04156 0.0
H1461 H 0.98425 0.35167 0.07169 0.0
H1462 H 0.97981 0.30801 0.05583 0.0
H1463 H 0.97521 0.34741 0.0348 0.0
H1464 H 0.9539 0.21038 1.00436 0.0
H1465 H 0.93635 0.3006 0.95016 0.0
H1466 H 0.90157 0.23972 0.06009 0.0
H1467 H 0.94563 0.25514 0.06818 0.0
H1468 H 0.93974 0.21171 0.05228 0.0
H1469 H 0.88218 0.35061 0.99354 0.0
H1470 H 0.9152 0.35578 0.96629 0.0
H1471 H 0.92624 0.3656 1.00222 0.0
C1472 C 0.25733 0.90915 0.97331 0.0
C1473 C 0.27627 0.9414 0.97602 0.0
C1474 C 0.23369 0.89757 0.99435 0.0
C1475 C 0.22945 0.91835 0.01895 0.0
C1476 C 0.25007 0.94984 0.02248 0.0
C1477 C 0.27292 0.96119 1.00086 0.0
C1478 C 0.21177 0.86416 0.98954 0.0
C1479 C 0.24693 0.97234 0.04863 0.0
C1480 C 0.13911 0.91542 0.05528 0.0
C1481 C 0.14518 0.89096 0.07714 0.0
C1482 C 0.1663 0.92446 0.03633 0.0
C1483 C 0.20082 0.90926 0.03954 0.0
C1484 C 0.20749 0.88522 0.06195 0.0
C1485 C 0.17944 0.87599 0.08032 0.0
C1486 C 0.15774 0.94968 0.01245 0.0
C1487 C 0.24415 0.86906 0.06636 0.0
H1488 H 0.25973 0.89373 0.95417 0.0
H1489 H 0.28781 0.98592 1.00325 0.0
H1490 H 0.21401 0.84579 0.00772 0.0
H1491 H 0.18309 0.87153 0.98739 0.0
H1492 H 0.22019 0.84952 0.97037 0.0
H1493 H 0.26786 0.99342 0.04965 0.0
H1494 H 0.22028 0.98554 0.04919 0.0
H1495 H 0.24903 0.95521 0.06756 0.0
H1496 H 0.11261 0.92677 0.05237 0.0
H1497 H 0.1843 0.85705 0.09712 0.0
H1498 H 0.16299 0.93619 0.99215 0.0
H1499 H 0.17534 0.97356 0.01343 0.0
H1500 H 0.1294 0.95884 0.01275 0.0
H1501 H 0.25141 0.85207 0.04817 0.0
H1502 H 0.24548 0.85243 0.08564 0.0
H1503 H 0.26454 0.89058 0.0678 0.0
C1504 C 0.16764 0.86739 0.45825 0.0
C1505 C 0.15173 0.87094 0.43175 0.0
C1506 C 0.1541 0.84334 0.47826 0.0
C1507 C 0.12456 0.82125 0.4714 0.0
C1508 C 0.10929 0.82364 0.44425 0.0
C1509 C 0.12258 0.84896 0.42494 0.0
C1510 C 0.17055 0.8427 0.50716 0.0
C1511 C 0.07861 0.79975 0.43574 0.0
C1512 C 0.11072 0.7408 0.51968 0.0
C1513 C 0.08214 0.75239 0.53644 0.0
C1514 C 0.12379 0.76224 0.49766 0.0
C1515 C 0.10895 0.79678 0.49308 0.0
C1516 C 0.08018 0.80864 0.51018 0.0
C1517 C 0.06667 0.786 0.53126 0.0
C1518 C 0.15365 0.748 0.47945 0.0
C1519 C 0.06443 0.84572 0.50683 0.0
H1520 H 0.18977 0.88473 0.46389 0.0
H1521 H 0.11014 0.85163 0.40454 0.0
H1522 H 0.14998 0.84995 0.52297 0.0
H1523 H 0.18015 0.81534 0.51228 0.0
H1524 H 0.1934 0.86158 0.50914 0.0
H1525 H 0.07197 0.8025 0.41316 0.0
H1526 H 0.08531 0.77131 0.44016 0.0
H1527 H 0.05444 0.80651 0.44818 0.0
H1528 H 0.12258 0.71472 0.52361 0.0
H1529 H 0.04482 0.79513 0.54444 0.0
H1530 H 0.17845 0.76358 0.48321 0.0
H1531 H 0.14665 0.75115 0.457 0.0
H1532 H 0.15941 0.71928 0.48367 0.0
H1533 H 0.08567 0.86616 0.50973 0.0
H1534 H 0.0426 0.85109 0.52209 0.0
H1535 H 0.05364 0.84918 0.48538 0.0
C1536 C 0.74458 0.10697 0.53916 0.0
C1537 C 0.7739 0.08448 0.53387 0.0
C1538 C 0.72223 0.11874 0.51729 0.0
C1539 C 0.73024 0.10901 0.48927 0.0
C1540 C 0.76054 0.08711 0.48379 0.0
C1541 C 0.78155 0.07445 0.50624 0.0
C1542 C 0.68953 0.1409 0.52428 0.0
C1543 C 0.77088 0.07725 0.45423 0.0
C1544 C 0.65389 0.11196 0.43629 0.0
C1545 C 0.65667 0.14695 0.42573 0.0
C1546 C 0.67781 0.09913 0.45674 0.0
C1547 C 0.70636 0.12118 0.46592 0.0
C1548 C 0.71064 0.15572 0.45394 0.0
C1549 C 0.68524 0.16852 0.43453 0.0
C1550 C 0.67117 0.06278 0.46968 0.0
C1551 C 0.74142 0.17962 0.46225 0.0
H1552 H 0.73848 0.11441 0.56058 0.0
H1553 H 0.80438 0.05721 0.50216 0.0
H1554 H 0.69137 0.16755 0.51411 0.0
H1555 H 0.66514 0.12763 0.51604 0.0
H1556 H 0.68626 0.1449 0.54719 0.0
H1557 H 0.79647 0.06203 0.45337 0.0
H1558 H 0.74955 0.06073 0.44458 0.0
H1559 H 0.77363 0.10186 0.44134 0.0
H1560 H 0.63165 0.09529 0.42987 0.0
H1561 H 0.68746 0.1956 0.42648 0.0
H1562 H 0.66579 0.0659 0.49241 0.0
H1563 H 0.69527 0.0456 0.46756 0.0
H1564 H 0.64805 0.04877 0.45999 0.0
H1565 H 0.73755 0.1891 0.48405 0.0
H1566 H 0.74376 0.2034 0.44836 0.0
H1567 H 0.76702 0.16445 0.46163 0.0
C1568 C 0.4623 0.76974 0.51273 0.0
C1569 C 0.44094 0.77347 0.53675 0.0
C1570 C 0.45212 0.74697 0.49069 0.0
C1571 C 0.42025 0.72662 0.49297 0.0
C1572 C 0.39818 0.73083 0.51693 0.0
C1573 C 0.40855 0.75455 0.53835 0.0
C1574 C 0.47598 0.74401 0.46526 0.0
C1575 C 0.36446 0.70903 0.52057 0.0
C1576 C 0.37996 0.67956 0.42923 0.0
C1577 C 0.39447 0.645 0.43181 0.0
C1578 C 0.38871 0.70672 0.44857 0.0
C1579 C 0.41162 0.69882 0.47148 0.0
C1580 C 0.42623 0.66394 0.47413 0.0
C1581 C 0.41788 0.63774 0.45413 0.0
C1582 C 0.3733 0.74379 0.44462 0.0
C1583 C 0.45013 0.65391 0.49845 0.0
H1584 H 0.48717 0.78457 0.51122 0.0
H1585 H 0.392 0.75714 0.5569 0.0
H1586 H 0.48849 0.71703 0.46461 0.0
H1587 H 0.45997 0.74718 0.44585 0.0
H1588 H 0.49763 0.7644 0.4653 0.0
H1589 H 0.34932 0.71669 0.53969 0.0
H1590 H 0.34671 0.71233 0.50213 0.0
H1591 H 0.37148 0.68016 0.52201 0.0
H1592 H 0.36179 0.68536 0.41212 0.0
H1593 H 0.42879 0.61101 0.45664 0.0
H1594 H 0.39516 0.76389 0.44425 0.0
H1595 H 0.35559 0.75059 0.46251 0.0
H1596 H 0.3576 0.74617 0.42495 0.0
H1597 H 0.47502 0.67006 0.49784 0.0
H1598 H 0.45761 0.62507 0.49827 0.0
H1599 H 0.43644 0.65992 0.51855 0.0
C1600 C 0.84828 0.40439 0.42599 0.0
C1601 C 0.86958 0.37481 0.43323 0.0
C1602 C 0.82281 0.41834 0.44489 0.0
C1603 C 0.81957 0.40325 0.47206 0.0
C1604 C 0.8409 0.3732 0.47932 0.0
C1605 C 0.86514 0.35905 0.45971 0.0
C1606 C 0.79977 0.44959 0.43596 0.0
C1607 C 0.83928 0.35687 0.50826 0.0
C1608 C 0.78436 0.46178 0.53153 0.0
C1609 C 0.75045 0.44694 0.53632 0.0
C1610 C 0.80705 0.44795 0.51059 0.0
C1611 C 0.79497 0.41951 0.49332 0.0
C1612 C 0.76009 0.40545 0.49743 0.0
C1613 C 0.73857 0.41883 0.51927 0.0
C1614 C 0.84445 0.46289 0.50769 0.0
C1615 C 0.74566 0.37596 0.47902 0.0
H1616 H 0.85166 0.41673 0.40561 0.0
H1617 H 0.88197 0.33658 0.46568 0.0
H1618 H 0.77112 0.44364 0.44007 0.0
H1619 H 0.80682 0.47365 0.44839 0.0
H1620 H 0.8031 0.45604 0.4134 0.0
H1621 H 0.85763 0.33357 0.51058 0.0
H1622 H 0.84658 0.37733 0.52411 0.0
H1623 H 0.81163 0.34795 0.51302 0.0
H1624 H 0.79373 0.48322 0.54496 0.0
H1625 H 0.71227 0.40743 0.52293 0.0
H1626 H 0.84865 0.47334 0.4862 0.0
H1627 H 0.86442 0.44124 0.51109 0.0
H1628 H 0.84982 0.4848 0.52285 0.0
H1629 H 0.74911 0.38313 0.45662 0.0
H1630 H 0.71684 0.37061 0.48304 0.0
H1631 H 0.7609 0.35087 0.48274 0.0
C1632 C 0.43128 0.78275 0.0368 0.0
C1633 C 0.45405 0.7532 0.03258 0.0
C1634 C 0.42027 0.8046 0.01452 0.0
C1635 C 0.43201 0.7968 0.98701 0.0
C1636 C 0.45411 0.76642 0.98232 0.0
C1637 C 0.46499 0.745 0.00518 0.0
C1638 C 0.39687 0.83678 0.02063 0.0
C1639 C 0.46688 0.75704 0.95326 0.0
C1640 C 0.37869 0.84778 0.9318 0.0
C1641 C 0.39971 0.87865 0.9284 0.0
C1642 C 0.39003 0.81951 0.94931 0.0
C1643 C 0.423 0.82228 0.96388 0.0
C1644 C 0.44524 0.85236 0.95914 0.0
C1645 C 0.43343 0.87998 0.94145 0.0
C1646 C 0.36564 0.78776 0.95358 0.0
C1647 C 0.48044 0.85672 0.97436 0.0
H1648 H 0.42234 0.78937 0.05776 0.0
H1649 H 0.48232 0.72212 1.00161 0.0
H1650 H 0.41142 0.86173 0.01515 0.0
H1651 H 0.37228 0.83592 0.00762 0.0
H1652 H 0.38884 0.83828 0.043 0.0
H1653 H 0.48126 0.73096 0.9527 0.0
H1654 H 0.44385 0.75587 0.93861 0.0
H1655 H 0.48519 0.77823 0.9455 0.0
H1656 H 0.35266 0.84636 0.92184 0.0
H1657 H 0.45012 0.9035 0.9389 0.0
H1658 H 0.3529 0.78958 0.97453 0.0
H1659 H 0.38112 0.76236 0.95294 0.0
H1660 H 0.34414 0.78665 0.93753 0.0
H1661 H 0.47524 0.86147 0.99694 0.0
H1662 H 0.49634 0.87955 0.96611 0.0
H1663 H 0.49674 0.83193 0.97268 0.0
C1664 C 0.68453 0.37385 0.93044 0.0
C1665 C 0.655 0.3966 0.92636 0.0
C1666 C 0.71268 0.38367 0.94845 0.0
C1667 C 0.7111 0.41688 0.96278 0.0
C1668 C 0.68256 0.44088 0.95728 0.0
C1669 C 0.65503 0.43054 0.93908 0.0
C1670 C 0.74281 0.35746 0.95358 0.0
C1671 C 0.67961 0.47646 0.9722 0.0
C1672 C 0.7485 0.42414 0.03628 0.0
C1673 C 0.77923 0.44517 0.03225 0.0
C1674 C 0.7269 0.41385 0.01371 0.0
C1675 C 0.73621 0.42464 0.98624 0.0
C1676 C 0.76785 0.44477 0.9818 0.0
C1677 C 0.78901 0.45488 1.00489 0.0
C1678 C 0.69337 0.39238 0.01945 0.0
C1679 C 0.7788 0.45645 0.95278 0.0
H1680 H 0.68485 0.34762 0.92071 0.0
H1681 H 0.63255 0.44853 0.93595 0.0
H1682 H 0.76905 0.37138 0.95348 0.0
H1683 H 0.73943 0.34502 0.97452 0.0
H1684 H 0.74337 0.33578 0.93765 0.0
H1685 H 0.65787 0.49353 0.96349 0.0
H1686 H 0.67397 0.47179 0.99473 0.0
H1687 H 0.70524 0.49134 0.97082 0.0
H1688 H 0.7408 0.41612 0.05725 0.0
H1689 H 0.81283 0.47086 1.00152 0.0
H1690 H 0.69329 0.3676 0.00663 0.0
H1691 H 0.66941 0.40826 0.01343 0.0
H1692 H 0.69081 0.38475 0.04185 0.0
H1693 H 0.77889 0.43318 0.93833 0.0
H1694 H 0.80574 0.46904 0.95252 0.0
H1695 H 0.75905 0.47605 0.94455 0.0
C1696 C 0.1098 0.75853 0.03495 0.0
C1697 C 0.07622 0.77558 0.03435 0.0
C1698 C 0.12031 0.73475 0.01372 0.0
C1699 C 0.09704 0.72827 0.99089 0.0
C1700 C 0.06389 0.74676 0.98937 0.0
C1701 C 0.05369 0.7699 0.01127 0.0
C1702 C 0.15559 0.71514 0.01651 0.0
C1703 C 0.03869 0.7412 0.96507 0.0
C1704 C 0.13908 0.67872 0.92911 0.0
C1705 C 0.12814 0.64338 0.93432 0.0
C1706 C 0.12788 0.70702 0.94661 0.0
C1707 C 0.10606 0.69961 0.97024 0.0
C1708 C 0.09462 0.66404 0.97532 0.0
C1709 C 0.10545 0.63656 0.95719 0.0
C1710 C 0.14 0.74469 0.94018 0.0
C1711 C 0.07209 0.65465 1.00058 0.0
H1712 H 0.12747 0.76262 0.05266 0.0
H1713 H 0.02785 0.78316 0.01047 0.0
H1714 H 0.15057 0.68602 0.01909 0.0
H1715 H 0.17188 0.71857 0.99727 0.0
H1716 H 0.17148 0.72462 0.03471 0.0
H1717 H 0.01616 0.76069 0.96522 0.0
H1718 H 0.05334 0.74372 0.94494 0.0
H1719 H 0.02743 0.71374 0.96597 0.0
H1720 H 0.15653 0.68422 0.91149 0.0
H1721 H 0.09716 0.60931 0.96164 0.0
H1722 H 0.15868 0.75401 0.95668 0.0
H1723 H 0.11672 0.76324 0.94017 0.0
H1724 H 0.15378 0.74656 0.91961 0.0
H1725 H 0.08695 0.66127 0.02002 0.0
H1726 H 0.06485 0.62578 1.00121 0.0
H1727 H 0.04708 0.67072 1.00066 0.0
C1728 C 0.78989 0.08422 0.03536 0.0
C1729 C 0.75328 0.07645 0.03273 0.0
C1730 C 0.80977 0.09746 0.0127 0.0
C1731 C 0.79258 0.10377 0.98673 0.0
C1732 C 0.75568 0.09562 0.98377 0.0
C1733 C 0.73649 0.08174 0.00678 0.0
C1734 C 0.8492 0.10508 0.0167 0.0
C1735 C 0.73634 0.10232 0.95653 0.0
C1736 C 0.84292 0.17086 0.94157 0.0
C1737 C 0.86342 0.14819 0.92441 0.0
C1738 C 0.81796 0.15685 0.96072 0.0
C1739 C 0.81361 0.11923 0.96302 0.0
C1740 C 0.83282 0.09634 0.94473 0.0
C1741 C 0.85728 0.11108 0.92556 0.0
C1742 C 0.79789 0.18225 0.97971 0.0
C1743 C 0.82932 0.0561 0.94666 0.0
H1744 H 0.80313 0.0799 0.05528 0.0
H1745 H 0.70815 0.07606 1.00472 0.0
H1746 H 0.86525 0.08989 1.00113 0.0
H1747 H 0.85453 0.13398 0.01319 0.0
H1748 H 0.85871 0.09779 0.038 0.0
H1749 H 0.708 0.09334 0.95728 0.0
H1750 H 0.73685 0.13137 0.95157 0.0
H1751 H 0.75015 0.08819 0.93916 0.0
H1752 H 0.8474 0.19954 0.94086 0.0
H1753 H 0.87303 0.09323 0.91254 0.0
H1754 H 0.80839 0.17977 1.00136 0.0
H1755 H 0.76901 0.17533 0.98033 0.0
H1756 H 0.80069 0.21061 0.97295 0.0
H1757 H 0.84043 0.04667 0.96692 0.0
H1758 H 0.84373 0.04215 0.92946 0.0
H1759 H 0.80071 0.04819 0.94608 0.0
C1760 C 0.93139 0.24411 0.47465 0.0
C1761 C 0.95308 0.27434 0.47896 0.0
C1762 C 0.92038 0.22244 0.49698 0.0
C1763 C 0.93104 0.23113 0.52456 0.0
C1764 C 0.95204 0.26215 0.52932 0.0
C1765 C 0.96291 0.2834 0.50642 0.0
C1766 C 0.89807 0.18958 0.49086 0.0
C1767 C 0.96361 0.2724 0.55849 0.0
C1768 C 0.87663 0.18028 0.5788 0.0
C1769 C 0.898 0.14971 0.58279 0.0
C1770 C 0.88821 0.20857 0.56151 0.0
C1771 C 0.92182 0.20608 0.54781 0.0
C1772 C 0.94446 0.17645 0.55332 0.0
C1773 C 0.93237 0.14879 0.57078 0.0
C1774 C 0.86339 0.23985 0.55635 0.0
C1775 C 0.98039 0.17247 0.53904 0.0
H1776 H 0.92329 0.2369 0.45361 0.0
H1777 H 0.97937 0.30685 0.51002 0.0
H1778 H 0.91302 0.1651 0.49708 0.0
H1779 H 0.87296 0.19024 0.50327 0.0
H1780 H 0.89097 0.18731 0.46834 0.0
H1781 H 0.97742 0.29874 0.55896 0.0
H1782 H 0.94006 0.27351 0.57265 0.0
H1783 H 0.98207 0.25172 0.56691 0.0
H1784 H 0.85012 0.18138 0.58802 0.0
H1785 H 0.94934 0.12552 0.57388 0.0
H1786 H 0.85135 0.23736 0.5352 0.0
H1787 H 0.87834 0.26552 0.55691 0.0
H1788 H 0.84137 0.24099 0.57198 0.0
H1789 H 0.97624 0.16704 0.51643 0.0
H1790 H 0.99647 0.15016 0.54802 0.0
H1791 H 0.996 0.19763 0.54074 0.0
C1792 C 0.3795 0.93413 0.56422 0.0
C1793 C 0.37617 0.9022 0.57961 0.0
C1794 C 0.35202 0.94612 0.54654 0.0
C1795 C 0.32012 0.92591 0.54425 0.0
C1796 C 0.31554 0.89495 0.56109 0.0
C1797 C 0.34369 0.88335 0.5785 0.0
C1798 C 0.35828 0.97908 0.52879 0.0
C1799 C 0.28181 0.87281 0.55939 0.0
C1800 C 0.2446 0.96948 0.50241 0.0
C1801 C 0.25093 0.95536 0.47563 0.0
C1802 C 0.26602 0.9592 0.52537 0.0
C1803 C 0.29432 0.93433 0.52136 0.0
C1804 C 0.29992 0.91914 0.49459 0.0
C1805 C 0.27819 0.92973 0.47219 0.0
C1806 C 0.25908 0.9757 0.55369 0.0
C1807 C 0.32976 0.89253 0.4893 0.0
H1808 H 0.40434 0.94911 0.56494 0.0
H1809 H 0.34072 0.85876 0.59037 0.0
H1810 H 0.36141 0.97106 0.50655 0.0
H1811 H 0.33495 0.99746 0.53002 0.0
H1812 H 0.38269 0.99394 0.53523 0.0
H1813 H 0.27993 0.85317 0.57682 0.0
H1814 H 0.25774 0.8903 0.55978 0.0
H1815 H 0.28145 0.85788 0.53931 0.0
H1816 H 0.22344 0.98905 0.50534 0.0
H1817 H 0.28306 0.91817 0.45172 0.0
H1818 H 0.28178 0.99337 0.55945 0.0
H1819 H 0.25728 0.95451 0.56995 0.0
H1820 H 0.23402 0.9918 0.55402 0.0
H1821 H 0.35605 0.90552 0.493 0.0
H1822 H 0.32942 0.88193 0.46757 0.0
H1823 H 0.32765 0.86964 0.50403 0.0
C1824 C 0.64159 0.34726 0.57942 0.0
C1825 C 0.6243 0.38069 0.5783 0.0
C1826 C 0.6307 0.31878 0.56209 0.0
C1827 C 0.60209 0.32392 0.54299 0.0
C1828 C 0.5836 0.3571 0.54264 0.0
C1829 C 0.59481 0.38493 0.56032 0.0
C1830 C 0.65103 0.2838 0.5632 0.0
C1831 C 0.55327 0.36403 0.52241 0.0
C1832 C 0.60241 0.2755 0.47324 0.0
C1833 C 0.57492 0.25019 0.47662 0.0
C1834 C 0.61224 0.29865 0.49499 0.0
C1835 C 0.59425 0.29658 0.52102 0.0
C1836 C 0.5675 0.27012 0.52508 0.0
C1837 C 0.55814 0.24714 0.50281 0.0
C1838 C 0.64106 0.32627 0.48969 0.0
C1839 C 0.54793 0.26694 0.55261 0.0
H1840 H 0.66432 0.34362 0.59324 0.0
H1841 H 0.58123 0.4106 0.55914 0.0
H1842 H 0.63221 0.26084 0.56394 0.0
H1843 H 0.66742 0.28084 0.54395 0.0
H1844 H 0.66913 0.28231 0.58162 0.0
H1845 H 0.53935 0.3898 0.52669 0.0
H1846 H 0.56392 0.36488 0.50071 0.0
H1847 H 0.53338 0.34202 0.52338 0.0
H1848 H 0.61597 0.27778 0.45324 0.0
H1849 H 0.53698 0.22762 0.50566 0.0
H1850 H 0.66223 0.32433 0.50591 0.0
H1851 H 0.62937 0.35358 0.49103 0.0
H1852 H 0.65375 0.32312 0.46879 0.0
H1853 H 0.56732 0.26544 0.57017 0.0
H1854 H 0.53032 0.24299 0.55334 0.0
H1855 H 0.53121 0.29118 0.55598 0.0
C1856 C 0.14131 0.60298 0.55503 0.0
C1857 C 0.14698 0.62772 0.57672 0.0
C1858 C 0.16889 0.59322 0.53658 0.0
C1859 C 0.2035 0.60799 0.5401 0.0
C1860 C 0.20989 0.63198 0.56256 0.0
C1861 C 0.18145 0.64192 0.58042 0.0
C1862 C 0.16049 0.56813 0.51264 0.0
C1863 C 0.24657 0.64774 0.56736 0.0
C1864 C 0.27655 0.55823 0.49999 0.0
C1865 C 0.27972 0.57921 0.47571 0.0
C1866 C 0.25333 0.56831 0.52188 0.0
C1867 C 0.23213 0.59967 0.51917 0.0
C1868 C 0.23603 0.62151 0.49509 0.0
C1869 C 0.26 0.61123 0.47385 0.0
C1870 C 0.25059 0.54473 0.54748 0.0
C1871 C 0.21352 0.6548 0.49104 0.0
H1872 H 0.1148 0.59214 0.55168 0.0
H1873 H 0.18614 0.66103 0.59709 0.0
H1874 H 0.16494 0.58209 0.4924 0.0
H1875 H 0.17871 0.54463 0.51314 0.0
H1876 H 0.1324 0.55836 0.51322 0.0
H1877 H 0.24801 0.66321 0.58719 0.0
H1878 H 0.26704 0.62614 0.56793 0.0
H1879 H 0.25362 0.66582 0.54976 0.0
H1880 H 0.29186 0.53362 0.50175 0.0
H1881 H 0.26209 0.62764 0.45518 0.0
H1882 H 0.22411 0.53129 0.54781 0.0
H1883 H 0.25256 0.56113 0.56679 0.0
H1884 H 0.2718 0.52381 0.54795 0.0
H1885 H 0.18487 0.64723 0.48933 0.0
H1886 H 0.22116 0.66996 0.47192 0.0
H1887 H 0.21607 0.67281 0.50939 0.0
loop_
_geom_bond_atom_site_label_1
_geom_bond_atom_site_label_2
_geom_bond_distance
_geom_bond_site_symmetry_2
_ccdc_geom_bond_type
Fe0 O2 1.918 1_565 S
Fe0 O5 1.997 1_565 S
Fe0 O6 2.002 . S
Fe0 O11 1.976 . S
Fe0 O14 1.996 . S
Fe1 O2 1.918 . S
Fe1 O9 1.997 . S
Fe1 O12 1.996 1_545 S
Fe1 O16 1.976 . S
Fe1 O19 2.002 . S
O2 Fe0 1.918 1_545 S
O2 Fe1 1.918 . S
O2 Fe3 1.918 . S
Fe3 O2 1.918 . S
Fe3 O4 2.002 . S
Fe3 O13 1.976 . S
Fe3 O17 1.996 . S
Fe3 O20 1.997 . S
O4 Fe3 2.002 . S
O4 C21 1.295 . S
O5 Fe0 1.997 1_545 S
O5 C21 1.235 . S
O6 Fe0 2.002 . S
O6 C7 1.295 1_565 S
C7 O6 1.295 1_545 S
C7 O9 1.235 . S
C8 O13 1.293 . S
C8 O14 1.251 1_545 S
O9 Fe1 1.997 . S
O9 C7 1.235 . S
C10 O16 1.287 . S
C10 O17 1.255 . S
O11 Fe0 1.976 . S
O11 C18 1.287 . S
O12 Fe1 1.996 1_565 S
O12 C18 1.255 . S
O13 Fe3 1.976 . S
O13 C8 1.293 . S
O14 Fe0 1.996 . S
O14 C8 1.251 1_565 S
C15 O19 1.295 . S
C15 O20 1.235 . S
O16 Fe1 1.976 . S
O16 C10 1.287 . S
O17 Fe3 1.996 . S
O17 C10 1.255 . S
C18 O11 1.287 . S
C18 O12 1.255 . S
O19 Fe1 2.002 . S
O19 C15 1.295 . S
O20 Fe3 1.997 . S
O20 C15 1.235 . S
C21 O4 1.295 . S
C21 O5 1.235 . S
Fe22 O24 1.918 . S
Fe22 O27 1.997 . S
Fe22 O28 2.002 . S
Fe22 O33 1.976 . S
Fe22 O36 1.996 . S
Fe23 O24 1.918 . S
Fe23 O31 1.997 . S
Fe23 O34 1.996 . S
Fe23 O38 1.976 . S
Fe23 O41 2.002 . S
O24 Fe22 1.918 . S
O24 Fe23 1.918 . S
O24 Fe25 1.918 . S
Fe25 O24 1.918 . S
Fe25 O26 2.002 . S
Fe25 O35 1.976 . S
Fe25 O39 1.996 . S
Fe25 O42 1.997 . S
O26 Fe25 2.002 . S
O26 C43 1.295 . S
O27 Fe22 1.997 . S
O27 C43 1.235 . S
O28 Fe22 2.002 . S
O28 C29 1.295 . S
C29 O28 1.295 . S
C29 O31 1.235 . S
C30 O35 1.287 . S
C30 O36 1.255 . S
O31 Fe23 1.997 . S
O31 C29 1.235 . S
C32 O38 1.287 . S
C32 O39 1.255 . S
O33 Fe22 1.976 . S
O33 C40 1.287 . S
O34 Fe23 1.996 . S
O34 C40 1.255 . S
O35 Fe25 1.976 . S
O35 C30 1.287 . S
O36 Fe22 1.996 . S
O36 C30 1.255 . S
C37 O41 1.295 . S
C37 O42 1.235 . S
O38 Fe23 1.976 . S
O38 C32 1.287 . S
O39 Fe25 1.996 . S
O39 C32 1.255 . S
C40 O33 1.287 . S
C40 O34 1.255 . S
O41 Fe23 2.002 . S
O41 C37 1.295 . S
O42 Fe25 1.997 . S
O42 C37 1.235 . S
C43 O26 1.295 . S
C43 O27 1.235 . S
Fe44 O46 1.918 . S
Fe44 O49 1.997 . S
Fe44 O50 2.002 . S
Fe44 O55 1.976 . S
Fe44 O58 1.996 . S
Fe45 O46 1.918 . S
Fe45 O53 1.997 . S
Fe45 O56 1.996 . S
Fe45 O60 1.976 . S
Fe45 O63 2.002 . S
O46 Fe44 1.918 . S
O46 Fe45 1.918 . S
O46 Fe47 1.918 . S
Fe47 O46 1.918 . S
Fe47 O48 2.002 . S
Fe47 O57 1.976 . S
Fe47 O61 1.996 . S
Fe47 O64 1.997 . S
O48 Fe47 2.002 . S
O48 C65 1.295 . S
O49 Fe44 1.997 . S
O49 C65 1.235 . S
O50 Fe44 2.002 . S
O50 C51 1.295 . S
C51 O50 1.295 . S
C51 O53 1.235 . S
C52 O57 1.287 . S
C52 O58 1.255 . S
O53 Fe45 1.997 . S
O53 C51 1.235 . S
C54 O60 1.287 . S
C54 O61 1.255 . S
O55 Fe44 1.976 . S
O55 C62 1.287 . S
O56 Fe45 1.996 . S
O56 C62 1.255 . S
O57 Fe47 1.976 . S
O57 C52 1.287 . S
O58 Fe44 1.996 . S
O58 C52 1.255 . S
C59 O63 1.295 . S
C59 O64 1.235 . S
O60 Fe45 1.976 . S
O60 C54 1.287 . S
O61 Fe47 1.996 . S
O61 C54 1.255 . S
C62 O55 1.287 . S
C62 O56 1.255 . S
O63 Fe45 2.002 . S
O63 C59 1.295 . S
O64 Fe47 1.997 . S
O64 C59 1.235 . S
C65 O48 1.295 . S
C65 O49 1.235 . S
Fe66 O68 1.918 1_655 S
Fe66 O71 1.997 1_655 S
Fe66 O72 2.002 . S
Fe66 O77 1.976 . S
Fe66 O80 1.996 . S
Fe67 O68 1.918 . S
Fe67 O75 1.997 . S
Fe67 O78 1.996 1_455 S
Fe67 O82 1.976 . S
Fe67 O85 2.002 . S
O68 Fe66 1.918 1_455 S
O68 Fe67 1.918 . S
O68 Fe69 1.918 . S
Fe69 O68 1.918 . S
Fe69 O70 2.002 . S
Fe69 O79 1.976 . S
Fe69 O83 1.996 . S
Fe69 O86 1.997 . S
O70 Fe69 2.002 . S
O70 C87 1.295 . S
O71 Fe66 1.997 1_455 S
O71 C87 1.235 . S
O72 Fe66 2.002 . S
O72 C73 1.295 1_655 S
C73 O72 1.295 1_455 S
C73 O75 1.235 . S
C74 O79 1.293 . S
C74 O80 1.251 1_455 S
O75 Fe67 1.997 . S
O75 C73 1.235 . S
C76 O82 1.287 . S
C76 O83 1.255 . S
O77 Fe66 1.976 . S
O77 C84 1.287 . S
O78 Fe67 1.996 1_655 S
O78 C84 1.255 . S
O79 Fe69 1.976 . S
O79 C74 1.293 . S
O80 Fe66 1.996 . S
O80 C74 1.251 1_655 S
C81 O85 1.295 . S
C81 O86 1.235 . S
O82 Fe67 1.976 . S
O82 C76 1.287 . S
O83 Fe69 1.996 . S
O83 C76 1.255 . S
C84 O77 1.287 . S
C84 O78 1.255 . S
O85 Fe67 2.002 . S
O85 C81 1.295 . S
O86 Fe69 1.997 . S
O86 C81 1.235 . S
C87 O70 1.295 . S
C87 O71 1.235 . S
Fe88 O90 1.918 1_545 S
Fe88 O93 1.997 1_545 S
Fe88 O94 2.002 . S
Fe88 O99 1.976 . S
Fe88 O102 1.996 . S
Fe89 O90 1.918 . S
Fe89 O97 1.997 . S
Fe89 O100 1.996 1_565 S
Fe89 O104 1.976 . S
Fe89 O107 2.002 . S
O90 Fe88 1.918 1_565 S
O90 Fe89 1.918 . S
O90 Fe91 1.918 . S
Fe91 O90 1.918 . S
Fe91 O92 2.002 . S
Fe91 O101 1.976 . S
Fe91 O105 1.996 . S
Fe91 O108 1.997 . S
O92 Fe91 2.002 . S
O92 C109 1.295 . S
O93 Fe88 1.997 1_565 S
O93 C109 1.235 . S
O94 Fe88 2.002 . S
O94 C95 1.295 1_545 S
C95 O94 1.295 1_565 S
C95 O97 1.235 . S
C96 O101 1.293 . S
C96 O102 1.251 1_565 S
O97 Fe89 1.997 . S
O97 C95 1.235 . S
C98 O104 1.287 . S
C98 O105 1.255 . S
O99 Fe88 1.976 . S
O99 C106 1.287 . S
O100 Fe89 1.996 1_545 S
O100 C106 1.255 . S
O101 Fe91 1.976 . S
O101 C96 1.293 . S
O102 Fe88 1.996 . S
O102 C96 1.251 1_545 S
C103 O107 1.295 . S
C103 O108 1.235 . S
O104 Fe89 1.976 . S
O104 C98 1.287 . S
O105 Fe91 1.996 . S
O105 C98 1.255 . S
C106 O99 1.287 . S
C106 O100 1.255 . S
O107 Fe89 2.002 . S
O107 C103 1.295 . S
O108 Fe91 1.997 . S
O108 C103 1.235 . S
C109 O92 1.295 . S
C109 O93 1.235 . S
Fe110 O112 1.918 . S
Fe110 O115 1.997 . S
Fe110 O116 2.002 . S
Fe110 O121 1.976 . S
Fe110 O124 1.996 . S
Fe111 O112 1.918 . S
Fe111 O119 1.997 . S
Fe111 O122 1.996 . S
Fe111 O126 1.976 . S
Fe111 O129 2.002 . S
O112 Fe110 1.918 . S
O112 Fe111 1.918 . S
O112 Fe113 1.918 . S
Fe113 O112 1.918 . S
Fe113 O114 2.002 . S
Fe113 O123 1.976 . S
Fe113 O127 1.996 . S
Fe113 O130 1.997 . S
O114 Fe113 2.002 . S
O114 C131 1.295 . S
O115 Fe110 1.997 . S
O115 C131 1.235 . S
O116 Fe110 2.002 . S
O116 C117 1.295 . S
C117 O116 1.295 . S
C117 O119 1.235 . S
C118 O123 1.287 . S
C118 O124 1.255 . S
O119 Fe111 1.997 . S
O119 C117 1.235 . S
C120 O126 1.287 . S
C120 O127 1.255 . S
O121 Fe110 1.976 . S
O121 C128 1.287 . S
O122 Fe111 1.996 . S
O122 C128 1.255 . S
O123 Fe113 1.976 . S
O123 C118 1.287 . S
O124 Fe110 1.996 . S
O124 C118 1.255 . S
C125 O129 1.295 . S
C125 O130 1.235 . S
O126 Fe111 1.976 . S
O126 C120 1.287 . S
O127 Fe113 1.996 . S
O127 C120 1.255 . S
C128 O121 1.287 . S
C128 O122 1.255 . S
O129 Fe111 2.002 . S
O129 C125 1.295 . S
O130 Fe113 1.997 . S
O130 C125 1.235 . S
C131 O114 1.295 . S
C131 O115 1.235 . S
Fe132 O134 1.918 . S
Fe132 O137 1.997 . S
Fe132 O138 2.002 . S
Fe132 O143 1.976 . S
Fe132 O146 1.996 . S
Fe133 O134 1.918 . S
Fe133 O141 1.997 . S
Fe133 O144 1.996 . S
Fe133 O148 1.976 . S
Fe133 O151 2.002 . S
O134 Fe132 1.918 . S
O134 Fe133 1.918 . S
O134 Fe135 1.918 . S
Fe135 O134 1.918 . S
Fe135 O136 2.002 . S
Fe135 O145 1.976 . S
Fe135 O149 1.996 . S
Fe135 O152 1.997 . S
O136 Fe135 2.002 . S
O136 C153 1.295 . S
O137 Fe132 1.997 . S
O137 C153 1.235 . S
O138 Fe132 2.002 . S
O138 C139 1.295 . S
C139 O138 1.295 . S
C139 O141 1.235 . S
C140 O145 1.287 . S
C140 O146 1.255 . S
O141 Fe133 1.997 . S
O141 C139 1.235 . S
C142 O148 1.287 . S
C142 O149 1.255 . S
O143 Fe132 1.976 . S
O143 C150 1.287 . S
O144 Fe133 1.996 . S
O144 C150 1.255 . S
O145 Fe135 1.976 . S
O145 C140 1.287 . S
O146 Fe132 1.996 . S
O146 C140 1.255 . S
C147 O151 1.295 . S
C147 O152 1.235 . S
O148 Fe133 1.976 . S
O148 C142 1.287 . S
O149 Fe135 1.996 . S
O149 C142 1.255 . S
C150 O143 1.287 . S
C150 O144 1.255 . S
O151 Fe133 2.002 . S
O151 C147 1.295 . S
O152 Fe135 1.997 . S
O152 C147 1.235 . S
C153 O136 1.295 . S
C153 O137 1.235 . S
Fe154 O156 1.918 . S
Fe154 O159 1.997 . S
Fe154 O160 2.002 . S
Fe154 O165 1.976 . S
Fe154 O168 1.996 1_655 S
Fe155 O156 1.918 . S
Fe155 O163 1.997 . S
Fe155 O166 1.996 . S
Fe155 O170 1.976 . S
Fe155 O173 2.002 . S
O156 Fe154 1.918 . S
O156 Fe155 1.918 . S
O156 Fe157 1.918 1_655 S
Fe157 O156 1.918 1_455 S
Fe157 O158 2.002 . S
Fe157 O167 1.976 . S
Fe157 O171 1.996 . S
Fe157 O174 1.997 1_455 S
O158 Fe157 2.002 . S
O158 C175 1.295 1_455 S
O159 Fe154 1.997 . S
O159 C175 1.235 . S
O160 Fe154 2.002 . S
O160 C161 1.295 . S
C161 O160 1.295 . S
C161 O163 1.235 . S
C162 O167 1.287 . S
C162 O168 1.255 . S
O163 Fe155 1.997 . S
O163 C161 1.235 . S
C164 O170 1.293 . S
C164 O171 1.251 1_655 S
O165 Fe154 1.976 . S
O165 C172 1.287 . S
O166 Fe155 1.996 . S
O166 C172 1.255 . S
O167 Fe157 1.976 . S
O167 C162 1.287 . S
O168 Fe154 1.996 1_455 S
O168 C162 1.255 . S
C169 O173 1.295 . S
C169 O174 1.235 . S
O170 Fe155 1.976 . S
O170 C164 1.293 . S
O171 Fe157 1.996 . S
O171 C164 1.251 1_455 S
C172 O165 1.287 . S
C172 O166 1.255 . S
O173 Fe155 2.002 . S
O173 C169 1.295 . S
O174 Fe157 1.997 1_655 S
O174 C169 1.235 . S
C175 O158 1.295 1_655 S
C175 O159 1.235 . S
Fe176 O178 1.918 . S
Fe176 O181 1.997 . S
Fe176 O182 2.002 . S
Fe176 O187 1.976 . S
Fe176 O190 1.996 . S
Fe177 O178 1.918 . S
Fe177 O185 1.997 . S
Fe177 O188 1.996 . S
Fe177 O192 1.976 1_565 S
Fe177 O195 2.002 . S
O178 Fe176 1.918 . S
O178 Fe177 1.918 . S
O178 Fe179 1.918 1_565 S
Fe179 O178 1.918 1_545 S
Fe179 O180 2.002 1_545 S
Fe179 O189 1.976 . S
Fe179 O193 1.996 . S
Fe179 O196 1.997 . S
O180 Fe179 2.002 1_565 S
O180 C197 1.295 . S
O181 Fe176 1.997 . S
O181 C197 1.235 . S
O182 Fe176 2.002 . S
O182 C183 1.295 . S
C183 O182 1.295 . S
C183 O185 1.235 . S
C184 O189 1.287 1_565 S
C184 O190 1.255 . S
O185 Fe177 1.997 . S
O185 C183 1.235 . S
C186 O192 1.287 . S
C186 O193 1.255 . S
O187 Fe176 1.976 . S
O187 C194 1.287 . S
O188 Fe177 1.996 . S
O188 C194 1.255 . S
O189 Fe179 1.976 . S
O189 C184 1.287 1_545 S
O190 Fe176 1.996 . S
O190 C184 1.255 . S
C191 O195 1.295 . S
C191 O196 1.235 1_565 S
O192 Fe177 1.976 1_545 S
O192 C186 1.287 . S
O193 Fe179 1.996 . S
O193 C186 1.255 . S
C194 O187 1.287 . S
C194 O188 1.255 . S
O195 Fe177 2.002 . S
O195 C191 1.295 . S
O196 Fe179 1.997 . S
O196 C191 1.235 1_545 S
C197 O180 1.295 . S
C197 O181 1.235 . S
Fe198 O200 1.918 . S
Fe198 O203 1.997 . S
Fe198 O204 2.002 . S
Fe198 O209 1.976 . S
Fe198 O212 1.996 . S
Fe199 O200 1.918 . S
Fe199 O207 1.997 . S
Fe199 O210 1.996 . S
Fe199 O214 1.976 . S
Fe199 O217 2.002 . S
O200 Fe198 1.918 . S
O200 Fe199 1.918 . S
O200 Fe201 1.918 . S
Fe201 O200 1.918 . S
Fe201 O202 2.002 . S
Fe201 O211 1.976 . S
Fe201 O215 1.996 . S
Fe201 O218 1.997 . S
O202 Fe201 2.002 . S
O202 C219 1.295 . S
O203 Fe198 1.997 . S
O203 C219 1.235 . S
O204 Fe198 2.002 . S
O204 C205 1.295 . S
C205 O204 1.295 . S
C205 O207 1.235 . S
C206 O211 1.287 . S
C206 O212 1.255 . S
O207 Fe199 1.997 . S
O207 C205 1.235 . S
C208 O214 1.287 . S
C208 O215 1.255 . S
O209 Fe198 1.976 . S
O209 C216 1.287 . S
O210 Fe199 1.996 . S
O210 C216 1.255 . S
O211 Fe201 1.976 . S
O211 C206 1.287 . S
O212 Fe198 1.996 . S
O212 C206 1.255 . S
C213 O217 1.295 . S
C213 O218 1.235 . S
O214 Fe199 1.976 . S
O214 C208 1.287 . S
O215 Fe201 1.996 . S
O215 C208 1.255 . S
C216 O209 1.287 . S
C216 O210 1.255 . S
O217 Fe199 2.002 . S
O217 C213 1.295 . S
O218 Fe201 1.997 . S
O218 C213 1.235 . S
C219 O202 1.295 . S
C219 O203 1.235 . S
Fe220 O222 1.918 . S
Fe220 O225 1.997 . S
Fe220 O226 2.002 . S
Fe220 O231 1.976 . S
Fe220 O234 1.996 . S
Fe221 O222 1.918 . S
Fe221 O229 1.997 . S
Fe221 O232 1.996 . S
Fe221 O236 1.976 . S
Fe221 O239 2.002 . S
O222 Fe220 1.918 . S
O222 Fe221 1.918 . S
O222 Fe223 1.918 . S
Fe223 O222 1.918 . S
Fe223 O224 2.002 . S
Fe223 O233 1.976 . S
Fe223 O237 1.996 . S
Fe223 O240 1.997 . S
O224 Fe223 2.002 . S
O224 C241 1.295 . S
O225 Fe220 1.997 . S
O225 C241 1.235 . S
O226 Fe220 2.002 . S
O226 C227 1.295 . S
C227 O226 1.295 . S
C227 O229 1.235 . S
C228 O233 1.287 . S
C228 O234 1.255 . S
O229 Fe221 1.997 . S
O229 C227 1.235 . S
C230 O236 1.287 . S
C230 O237 1.255 . S
O231 Fe220 1.976 . S
O231 C238 1.287 . S
O232 Fe221 1.996 . S
O232 C238 1.255 . S
O233 Fe223 1.976 . S
O233 C228 1.287 . S
O234 Fe220 1.996 . S
O234 C228 1.255 . S
C235 O239 1.295 . S
C235 O240 1.235 . S
O236 Fe221 1.976 . S
O236 C230 1.287 . S
O237 Fe223 1.996 . S
O237 C230 1.255 . S
C238 O231 1.287 . S
C238 O232 1.255 . S
O239 Fe221 2.002 . S
O239 C235 1.295 . S
O240 Fe223 1.997 . S
O240 C235 1.235 . S
C241 O224 1.295 . S
C241 O225 1.235 . S
Fe242 O244 1.918 1_455 S
Fe242 O247 1.997 . S
Fe242 O248 2.002 1_455 S
Fe242 O253 1.976 . S
Fe242 O256 1.996 . S
Fe243 O244 1.918 . S
Fe243 O251 1.997 . S
Fe243 O254 1.996 . S
Fe243 O258 1.976 . S
Fe243 O261 2.002 . S
O244 Fe242 1.918 1_655 S
O244 Fe243 1.918 . S
O244 Fe245 1.918 . S
Fe245 O244 1.918 . S
Fe245 O246 2.002 . S
Fe245 O255 1.976 1_655 S
Fe245 O259 1.996 . S
Fe245 O262 1.997 . S
O246 Fe245 2.002 . S
O246 C263 1.295 . S
O247 Fe242 1.997 . S
O247 C263 1.235 1_455 S
O248 Fe242 2.002 1_655 S
O248 C249 1.295 . S
C249 O248 1.295 . S
C249 O251 1.235 . S
C250 O255 1.287 . S
C250 O256 1.255 . S
O251 Fe243 1.997 . S
O251 C249 1.235 . S
C252 O258 1.287 . S
C252 O259 1.255 . S
O253 Fe242 1.976 . S
O253 C260 1.287 1_455 S
O254 Fe243 1.996 . S
O254 C260 1.255 . S
O255 Fe245 1.976 1_455 S
O255 C250 1.287 . S
O256 Fe242 1.996 . S
O256 C250 1.255 . S
C257 O261 1.295 . S
C257 O262 1.235 . S
O258 Fe243 1.976 . S
O258 C252 1.287 . S
O259 Fe245 1.996 . S
O259 C252 1.255 . S
C260 O253 1.287 1_655 S
C260 O254 1.255 . S
O261 Fe243 2.002 . S
O261 C257 1.295 . S
O262 Fe245 1.997 . S
O262 C257 1.235 . S
C263 O246 1.295 . S
C263 O247 1.235 1_655 S
Fe264 O266 1.918 . S
Fe264 O269 1.997 . S
Fe264 O270 2.002 . S
Fe264 O275 1.976 1_545 S
Fe264 O278 1.996 . S
Fe265 O266 1.918 1_565 S
Fe265 O273 1.997 . S
Fe265 O276 1.996 . S
Fe265 O280 1.976 . S
Fe265 O283 2.002 1_565 S
O266 Fe264 1.918 . S
O266 Fe265 1.918 1_545 S
O266 Fe267 1.918 . S
Fe267 O266 1.918 . S
Fe267 O268 2.002 . S
Fe267 O277 1.976 . S
Fe267 O281 1.996 . S
Fe267 O284 1.997 . S
O268 Fe267 2.002 . S
O268 C285 1.295 . S
O269 Fe264 1.997 . S
O269 C285 1.235 . S
O270 Fe264 2.002 . S
O270 C271 1.295 . S
C271 O270 1.295 . S
C271 O273 1.235 1_545 S
C272 O277 1.287 . S
C272 O278 1.255 . S
O273 Fe265 1.997 . S
O273 C271 1.235 1_565 S
C274 O280 1.287 1_545 S
C274 O281 1.255 . S
O275 Fe264 1.976 1_565 S
O275 C282 1.287 . S
O276 Fe265 1.996 . S
O276 C282 1.255 . S
O277 Fe267 1.976 . S
O277 C272 1.287 . S
O278 Fe264 1.996 . S
O278 C272 1.255 . S
C279 O283 1.295 . S
C279 O284 1.235 . S
O280 Fe265 1.976 . S
O280 C274 1.287 1_565 S
O281 Fe267 1.996 . S
O281 C274 1.255 . S
C282 O275 1.287 . S
C282 O276 1.255 . S
O283 Fe265 2.002 1_545 S
O283 C279 1.295 . S
O284 Fe267 1.997 . S
O284 C279 1.235 . S
C285 O268 1.295 . S
C285 O269 1.235 . S
Fe286 O288 1.918 . S
Fe286 O291 1.997 . S
Fe286 O292 2.002 . S
Fe286 O297 1.976 . S
Fe286 O300 1.996 . S
Fe287 O288 1.918 . S
Fe287 O295 1.997 . S
Fe287 O298 1.996 . S
Fe287 O302 1.976 . S
Fe287 O305 2.002 . S
O288 Fe286 1.918 . S
O288 Fe287 1.918 . S
O288 Fe289 1.918 . S
Fe289 O288 1.918 . S
Fe289 O290 2.002 . S
Fe289 O299 1.976 . S
Fe289 O303 1.996 . S
Fe289 O306 1.997 . S
O290 Fe289 2.002 . S
O290 C307 1.295 . S
O291 Fe286 1.997 . S
O291 C307 1.235 . S
O292 Fe286 2.002 . S
O292 C293 1.295 . S
C293 O292 1.295 . S
C293 O295 1.235 . S
C294 O299 1.287 . S
C294 O300 1.255 . S
O295 Fe287 1.997 . S
O295 C293 1.235 . S
C296 O302 1.287 . S
C296 O303 1.255 . S
O297 Fe286 1.976 . S
O297 C304 1.287 . S
O298 Fe287 1.996 . S
O298 C304 1.255 . S
O299 Fe289 1.976 . S
O299 C294 1.287 . S
O300 Fe286 1.996 . S
O300 C294 1.255 . S
C301 O305 1.295 . S
C301 O306 1.235 . S
O302 Fe287 1.976 . S
O302 C296 1.287 . S
O303 Fe289 1.996 . S
O303 C296 1.255 . S
C304 O297 1.287 . S
C304 O298 1.255 . S
O305 Fe287 2.002 . S
O305 C301 1.295 . S
O306 Fe289 1.997 . S
O306 C301 1.235 . S
C307 O290 1.295 . S
C307 O291 1.235 . S
Fe308 O310 1.918 . S
Fe308 O313 1.997 . S
Fe308 O314 2.002 . S
Fe308 O319 1.976 . S
Fe308 O322 1.996 . S
Fe309 O310 1.918 . S
Fe309 O317 1.997 . S
Fe309 O320 1.996 . S
Fe309 O324 1.976 . S
Fe309 O327 2.002 . S
O310 Fe308 1.918 . S
O310 Fe309 1.918 . S
O310 Fe311 1.918 . S
Fe311 O310 1.918 . S
Fe311 O312 2.002 . S
Fe311 O321 1.976 . S
Fe311 O325 1.996 . S
Fe311 O328 1.997 . S
O312 Fe311 2.002 . S
O312 C329 1.295 . S
O313 Fe308 1.997 . S
O313 C329 1.235 . S
O314 Fe308 2.002 . S
O314 C315 1.295 . S
C315 O314 1.295 . S
C315 O317 1.235 . S
C316 O321 1.287 . S
C316 O322 1.255 . S
O317 Fe309 1.997 . S
O317 C315 1.235 . S
C318 O324 1.287 . S
C318 O325 1.255 . S
O319 Fe308 1.976 . S
O319 C326 1.287 . S
O320 Fe309 1.996 . S
O320 C326 1.255 . S
O321 Fe311 1.976 . S
O321 C316 1.287 . S
O322 Fe308 1.996 . S
O322 C316 1.255 . S
C323 O327 1.295 . S
C323 O328 1.235 . S
O324 Fe309 1.976 . S
O324 C318 1.287 . S
O325 Fe311 1.996 . S
O325 C318 1.255 . S
C326 O319 1.287 . S
C326 O320 1.255 . S
O327 Fe309 2.002 . S
O327 C323 1.295 . S
O328 Fe311 1.997 . S
O328 C323 1.235 . S
C329 O312 1.295 . S
C329 O313 1.235 . S
Fe330 O332 1.918 1_655 S
Fe330 O335 1.997 . S
Fe330 O336 2.002 1_655 S
Fe330 O341 1.976 . S
Fe330 O344 1.996 . S
Fe331 O332 1.918 . S
Fe331 O339 1.997 . S
Fe331 O342 1.996 . S
Fe331 O346 1.976 . S
Fe331 O349 2.002 . S
O332 Fe330 1.918 1_455 S
O332 Fe331 1.918 . S
O332 Fe333 1.918 . S
Fe333 O332 1.918 . S
Fe333 O334 2.002 . S
Fe333 O343 1.976 1_455 S
Fe333 O347 1.996 . S
Fe333 O350 1.997 . S
O334 Fe333 2.002 . S
O334 C351 1.295 . S
O335 Fe330 1.997 . S
O335 C351 1.235 1_655 S
O336 Fe330 2.002 1_455 S
O336 C337 1.295 . S
C337 O336 1.295 . S
C337 O339 1.235 . S
C338 O343 1.287 . S
C338 O344 1.255 . S
O339 Fe331 1.997 . S
O339 C337 1.235 . S
C340 O346 1.287 . S
C340 O347 1.255 . S
O341 Fe330 1.976 . S
O341 C348 1.287 1_655 S
O342 Fe331 1.996 . S
O342 C348 1.255 . S
O343 Fe333 1.976 1_655 S
O343 C338 1.287 . S
O344 Fe330 1.996 . S
O344 C338 1.255 . S
C345 O349 1.295 . S
C345 O350 1.235 . S
O346 Fe331 1.976 . S
O346 C340 1.287 . S
O347 Fe333 1.996 . S
O347 C340 1.255 . S
C348 O341 1.287 1_455 S
C348 O342 1.255 . S
O349 Fe331 2.002 . S
O349 C345 1.295 . S
O350 Fe333 1.997 . S
O350 C345 1.235 . S
C351 O334 1.295 . S
C351 O335 1.235 1_455 S
C352 C353 1.391 . S
C352 C354 1.394 . S
C352 H368 0.931 . S
C353 C352 1.391 . S
C353 C357 1.376 . S
C354 C352 1.394 . S
C354 C355 1.369 . S
C354 C358 1.531 . S
C355 C354 1.369 . S
C355 C356 1.410 . S
C355 C363 1.503 . S
C356 C355 1.410 . S
C356 C357 1.392 . S
C356 C359 1.511 . S
C357 C353 1.376 . S
C357 C356 1.392 . S
C357 H369 0.929 . S
C358 C354 1.531 . S
C358 H370 0.960 . S
C358 H371 0.962 . S
C358 H372 0.960 . S
C359 C356 1.511 . S
C359 H373 0.961 . S
C359 H374 0.961 . S
C359 H375 0.961 . S
C360 C361 1.370 . S
C360 C362 1.363 . S
C360 H376 0.931 . S
C361 C360 1.370 . S
C361 C365 1.408 . S
C362 C360 1.363 . S
C362 C363 1.370 . S
C362 C366 1.524 . S
C363 C355 1.503 . S
C363 C362 1.370 . S
C363 C364 1.403 . S
C364 C363 1.403 . S
C364 C365 1.404 . S
C364 C367 1.539 . S
C365 C361 1.408 . S
C365 C364 1.404 . S
C365 H377 0.930 . S
C366 C362 1.524 . S
C366 H378 0.956 . S
C366 H379 0.961 . S
C366 H380 0.961 . S
C367 C364 1.539 . S
C367 H381 0.958 . S
C367 H382 0.961 . S
C367 H383 0.960 . S
H368 C352 0.931 . S
H369 C357 0.929 . S
H370 C358 0.960 . S
H371 C358 0.962 . S
H372 C358 0.960 . S
H373 C359 0.961 . S
H374 C359 0.961 . S
H375 C359 0.961 . S
H376 C360 0.931 . S
H377 C365 0.930 . S
H378 C366 0.956 . S
H379 C366 0.961 . S
H380 C366 0.961 . S
H381 C367 0.958 . S
H382 C367 0.961 . S
H383 C367 0.960 . S
C384 C385 1.391 . S
C384 C386 1.394 . S
C384 H400 0.931 . S
C385 C384 1.391 . S
C385 C389 1.376 . S
C386 C384 1.394 . S
C386 C387 1.369 . S
C386 C390 1.531 . S
C387 C386 1.369 . S
C387 C388 1.410 . S
C387 C395 1.503 . S
C388 C387 1.410 . S
C388 C389 1.392 . S
C388 C391 1.511 . S
C389 C385 1.376 . S
C389 C388 1.392 . S
C389 H401 0.929 . S
C390 C386 1.531 . S
C390 H402 0.960 . S
C390 H403 0.962 . S
C390 H404 0.960 . S
C391 C388 1.511 . S
C391 H405 0.961 . S
C391 H406 0.961 . S
C391 H407 0.961 . S
C392 C393 1.370 . S
C392 C394 1.363 . S
C392 H408 0.931 . S
C393 C392 1.370 . S
C393 C397 1.408 . S
C394 C392 1.363 . S
C394 C395 1.370 . S
C394 C398 1.524 . S
C395 C387 1.503 . S
C395 C394 1.370 . S
C395 C396 1.403 . S
C396 C395 1.403 . S
C396 C397 1.404 . S
C396 C399 1.539 . S
C397 C393 1.408 . S
C397 C396 1.404 . S
C397 H409 0.930 . S
C398 C394 1.524 . S
C398 H410 0.956 . S
C398 H411 0.961 . S
C398 H412 0.961 . S
C399 C396 1.539 . S
C399 H413 0.958 . S
C399 H414 0.961 . S
C399 H415 0.960 . S
H400 C384 0.931 . S
H401 C389 0.929 . S
H402 C390 0.960 . S
H403 C390 0.962 . S
H404 C390 0.960 . S
H405 C391 0.961 . S
H406 C391 0.961 . S
H407 C391 0.961 . S
H408 C392 0.931 . S
H409 C397 0.930 . S
H410 C398 0.956 . S
H411 C398 0.961 . S
H412 C398 0.961 . S
H413 C399 0.958 . S
H414 C399 0.961 . S
H415 C399 0.960 . S
C416 C417 1.391 . S
C416 C418 1.394 . S
C416 H432 0.931 . S
C417 C416 1.391 . S
C417 C421 1.376 . S
C418 C416 1.394 . S
C418 C419 1.369 . S
C418 C422 1.531 . S
C419 C418 1.369 . S
C419 C420 1.410 . S
C419 C427 1.503 . S
C420 C419 1.410 . S
C420 C421 1.392 . S
C420 C423 1.511 . S
C421 C417 1.376 . S
C421 C420 1.392 . S
C421 H433 0.929 . S
C422 C418 1.531 . S
C422 H434 0.960 . S
C422 H435 0.962 . S
C422 H436 0.960 . S
C423 C420 1.511 . S
C423 H437 0.961 . S
C423 H438 0.961 . S
C423 H439 0.961 . S
C424 C425 1.370 . S
C424 C426 1.363 . S
C424 H440 0.931 . S
C425 C424 1.370 . S
C425 C429 1.408 . S
C426 C424 1.363 . S
C426 C427 1.370 . S
C426 C430 1.524 . S
C427 C419 1.503 . S
C427 C426 1.370 . S
C427 C428 1.403 . S
C428 C427 1.403 . S
C428 C429 1.404 . S
C428 C431 1.539 . S
C429 C425 1.408 . S
C429 C428 1.404 . S
C429 H441 0.930 . S
C430 C426 1.524 . S
C430 H442 0.956 . S
C430 H443 0.961 . S
C430 H444 0.961 . S
C431 C428 1.539 . S
C431 H445 0.958 . S
C431 H446 0.961 . S
C431 H447 0.960 . S
H432 C416 0.931 . S
H433 C421 0.929 . S
H434 C422 0.960 . S
H435 C422 0.962 . S
H436 C422 0.960 . S
H437 C423 0.961 . S
H438 C423 0.961 . S
H439 C423 0.961 . S
H440 C424 0.931 . S
H441 C429 0.930 . S
H442 C430 0.956 . S
H443 C430 0.961 . S
H444 C430 0.961 . S
H445 C431 0.958 . S
H446 C431 0.961 . S
H447 C431 0.960 . S
C448 C449 1.391 . S
C448 C450 1.394 . S
C448 H464 0.931 . S
C449 C448 1.391 . S
C449 C453 1.376 . S
C450 C448 1.394 . S
C450 C451 1.369 . S
C450 C454 1.531 . S
C451 C450 1.369 . S
C451 C452 1.410 . S
C451 C459 1.503 . S
C452 C451 1.410 . S
C452 C453 1.392 . S
C452 C455 1.511 . S
C453 C449 1.376 . S
C453 C452 1.392 . S
C453 H465 0.929 . S
C454 C450 1.531 . S
C454 H466 0.960 . S
C454 H467 0.962 . S
C454 H468 0.960 . S
C455 C452 1.511 . S
C455 H469 0.961 . S
C455 H470 0.961 . S
C455 H471 0.961 . S
C456 C457 1.370 . S
C456 C458 1.363 . S
C456 H472 0.931 . S
C457 C456 1.370 . S
C457 C461 1.408 . S
C458 C456 1.363 . S
C458 C459 1.370 . S
C458 C462 1.524 . S
C459 C451 1.503 . S
C459 C458 1.370 . S
C459 C460 1.403 . S
C460 C459 1.403 . S
C460 C461 1.404 . S
C460 C463 1.539 . S
C461 C457 1.408 . S
C461 C460 1.404 . S
C461 H473 0.930 . S
C462 C458 1.524 . S
C462 H474 0.956 . S
C462 H475 0.961 . S
C462 H476 0.961 . S
C463 C460 1.539 . S
C463 H477 0.958 . S
C463 H478 0.961 . S
C463 H479 0.960 . S
H464 C448 0.931 . S
H465 C453 0.929 . S
H466 C454 0.960 . S
H467 C454 0.962 . S
H468 C454 0.960 . S
H469 C455 0.961 . S
H470 C455 0.961 . S
H471 C455 0.961 . S
H472 C456 0.931 . S
H473 C461 0.930 . S
H474 C462 0.956 . S
H475 C462 0.961 . S
H476 C462 0.961 . S
H477 C463 0.958 . S
H478 C463 0.961 . S
H479 C463 0.960 . S
C480 C481 1.391 . S
C480 C482 1.394 . S
C480 H496 0.931 . S
C481 C480 1.391 . S
C481 C485 1.376 . S
C482 C480 1.394 . S
C482 C483 1.369 . S
C482 C486 1.531 . S
C483 C482 1.369 . S
C483 C484 1.410 . S
C483 C491 1.503 . S
C484 C483 1.410 . S
C484 C485 1.392 . S
C484 C487 1.511 . S
C485 C481 1.376 . S
C485 C484 1.392 . S
C485 H497 0.929 . S
C486 C482 1.531 . S
C486 H498 0.960 . S
C486 H499 0.962 . S
C486 H500 0.960 . S
C487 C484 1.511 . S
C487 H501 0.961 . S
C487 H502 0.961 . S
C487 H503 0.961 . S
C488 C489 1.370 . S
C488 C490 1.363 . S
C488 H504 0.931 . S
C489 C488 1.370 . S
C489 C493 1.408 . S
C490 C488 1.363 . S
C490 C491 1.370 . S
C490 C494 1.524 . S
C491 C483 1.503 . S
C491 C490 1.370 . S
C491 C492 1.403 . S
C492 C491 1.403 . S
C492 C493 1.404 . S
C492 C495 1.539 . S
C493 C489 1.408 . S
C493 C492 1.404 . S
C493 H505 0.930 . S
C494 C490 1.524 . S
C494 H506 0.956 . S
C494 H507 0.961 . S
C494 H508 0.961 . S
C495 C492 1.539 . S
C495 H509 0.958 . S
C495 H510 0.961 . S
C495 H511 0.960 . S
H496 C480 0.931 . S
H497 C485 0.929 . S
H498 C486 0.960 . S
H499 C486 0.962 . S
H500 C486 0.960 . S
H501 C487 0.961 . S
H502 C487 0.961 . S
H503 C487 0.961 . S
H504 C488 0.931 . S
H505 C493 0.930 . S
H506 C494 0.956 . S
H507 C494 0.961 . S
H508 C494 0.961 . S
H509 C495 0.958 . S
H510 C495 0.961 . S
H511 C495 0.960 . S
C512 C513 1.391 . S
C512 C514 1.394 . S
C512 H528 0.931 . S
C513 C512 1.391 . S
C513 C517 1.376 . S
C514 C512 1.394 . S
C514 C515 1.369 . S
C514 C518 1.531 . S
C515 C514 1.369 . S
C515 C516 1.410 . S
C515 C523 1.503 . S
C516 C515 1.410 . S
C516 C517 1.392 . S
C516 C519 1.511 . S
C517 C513 1.376 . S
C517 C516 1.392 . S
C517 H529 0.929 . S
C518 C514 1.531 . S
C518 H530 0.960 . S
C518 H531 0.962 . S
C518 H532 0.960 . S
C519 C516 1.511 . S
C519 H533 0.961 . S
C519 H534 0.961 . S
C519 H535 0.961 . S
C520 C521 1.370 . S
C520 C522 1.363 . S
C520 H536 0.931 . S
C521 C520 1.370 . S
C521 C525 1.408 . S
C522 C520 1.363 . S
C522 C523 1.370 . S
C522 C526 1.524 . S
C523 C515 1.503 . S
C523 C522 1.370 . S
C523 C524 1.403 . S
C524 C523 1.403 . S
C524 C525 1.404 . S
C524 C527 1.539 . S
C525 C521 1.408 . S
C525 C524 1.404 . S
C525 H537 0.930 . S
C526 C522 1.524 . S
C526 H538 0.956 . S
C526 H539 0.961 . S
C526 H540 0.961 . S
C527 C524 1.539 . S
C527 H541 0.958 . S
C527 H542 0.961 . S
C527 H543 0.960 . S
H528 C512 0.931 . S
H529 C517 0.929 . S
H530 C518 0.960 . S
H531 C518 0.962 . S
H532 C518 0.960 . S
H533 C519 0.961 . S
H534 C519 0.961 . S
H535 C519 0.961 . S
H536 C520 0.931 . S
H537 C525 0.930 . S
H538 C526 0.956 . S
H539 C526 0.961 . S
H540 C526 0.961 . S
H541 C527 0.958 . S
H542 C527 0.961 . S
H543 C527 0.960 . S
C544 C545 1.391 . S
C544 C546 1.394 . S
C544 H560 0.931 . S
C545 C544 1.391 . S
C545 C549 1.376 . S
C546 C544 1.394 . S
C546 C547 1.369 . S
C546 C550 1.531 . S
C547 C546 1.369 . S
C547 C548 1.410 . S
C547 C555 1.503 . S
C548 C547 1.410 . S
C548 C549 1.392 . S
C548 C551 1.511 . S
C549 C545 1.376 . S
C549 C548 1.392 . S
C549 H561 0.929 . S
C550 C546 1.531 . S
C550 H562 0.960 . S
C550 H563 0.962 . S
C550 H564 0.960 . S
C551 C548 1.511 . S
C551 H565 0.961 . S
C551 H566 0.961 . S
C551 H567 0.961 . S
C552 C553 1.370 . S
C552 C554 1.363 . S
C552 H568 0.931 . S
C553 C552 1.370 . S
C553 C557 1.408 . S
C554 C552 1.363 . S
C554 C555 1.370 . S
C554 C558 1.524 . S
C555 C547 1.503 . S
C555 C554 1.370 . S
C555 C556 1.403 . S
C556 C555 1.403 . S
C556 C557 1.404 . S
C556 C559 1.539 . S
C557 C553 1.408 . S
C557 C556 1.404 . S
C557 H569 0.930 . S
C558 C554 1.524 . S
C558 H570 0.956 . S
C558 H571 0.961 . S
C558 H572 0.961 . S
C559 C556 1.539 . S
C559 H573 0.958 . S
C559 H574 0.961 . S
C559 H575 0.960 . S
H560 C544 0.931 . S
H561 C549 0.929 . S
H562 C550 0.960 . S
H563 C550 0.962 . S
H564 C550 0.960 . S
H565 C551 0.961 . S
H566 C551 0.961 . S
H567 C551 0.961 . S
H568 C552 0.931 . S
H569 C557 0.930 . S
H570 C558 0.956 . S
H571 C558 0.961 . S
H572 C558 0.961 . S
H573 C559 0.958 . S
H574 C559 0.961 . S
H575 C559 0.960 . S
C576 C577 1.391 . S
C576 C578 1.394 . S
C576 H592 0.931 . S
C577 C576 1.391 . S
C577 C581 1.376 . S
C578 C576 1.394 . S
C578 C579 1.369 . S
C578 C582 1.531 . S
C579 C578 1.369 . S
C579 C580 1.410 . S
C579 C587 1.503 . S
C580 C579 1.410 . S
C580 C581 1.392 . S
C580 C583 1.511 . S
C581 C577 1.376 . S
C581 C580 1.392 . S
C581 H593 0.929 . S
C582 C578 1.531 . S
C582 H594 0.960 . S
C582 H595 0.962 . S
C582 H596 0.960 . S
C583 C580 1.511 . S
C583 H597 0.961 . S
C583 H598 0.961 . S
C583 H599 0.961 . S
C584 C585 1.370 . S
C584 C586 1.363 . S
C584 H600 0.931 . S
C585 C584 1.370 . S
C585 C589 1.408 . S
C586 C584 1.363 . S
C586 C587 1.370 . S
C586 C590 1.524 . S
C587 C579 1.503 . S
C587 C586 1.370 . S
C587 C588 1.403 . S
C588 C587 1.403 . S
C588 C589 1.404 . S
C588 C591 1.539 . S
C589 C585 1.408 . S
C589 C588 1.404 . S
C589 H601 0.930 . S
C590 C586 1.524 . S
C590 H602 0.956 . S
C590 H603 0.961 . S
C590 H604 0.961 . S
C591 C588 1.539 . S
C591 H605 0.958 . S
C591 H606 0.961 . S
C591 H607 0.960 . S
H592 C576 0.931 . S
H593 C581 0.929 . S
H594 C582 0.960 . S
H595 C582 0.962 . S
H596 C582 0.960 . S
H597 C583 0.961 . S
H598 C583 0.961 . S
H599 C583 0.961 . S
H600 C584 0.931 . S
H601 C589 0.930 . S
H602 C590 0.956 . S
H603 C590 0.961 . S
H604 C590 0.961 . S
H605 C591 0.958 . S
H606 C591 0.961 . S
H607 C591 0.960 . S
C608 C609 1.391 . S
C608 C610 1.394 . S
C608 H624 0.931 . S
C609 C608 1.391 . S
C609 C613 1.376 . S
C610 C608 1.394 . S
C610 C611 1.369 . S
C610 C614 1.531 . S
C611 C610 1.369 . S
C611 C612 1.410 1_554 S
C611 C619 1.503 1_554 S
C612 C611 1.410 1_556 S
C612 C613 1.392 1_556 S
C612 C615 1.511 1_545 S
C613 C609 1.376 . S
C613 C612 1.392 1_554 S
C613 H625 0.929 1_554 S
C614 C610 1.531 . S
C614 H626 0.960 . S
C614 H627 0.962 . S
C614 H628 0.960 . S
C615 C612 1.511 1_565 S
C615 H629 0.961 . S
C615 H630 0.961 . S
C615 H631 0.961 1_565 S
C616 C617 1.370 . S
C616 C618 1.363 . S
C616 H632 0.931 . S
C617 C616 1.370 . S
C617 C621 1.408 1_565 S
C618 C616 1.363 . S
C618 C619 1.370 1_565 S
C618 C622 1.524 1_556 S
C619 C611 1.503 1_556 S
C619 C618 1.370 1_545 S
C619 C620 1.403 . S
C620 C619 1.403 . S
C620 C621 1.404 . S
C620 C623 1.539 . S
C621 C617 1.408 1_545 S
C621 C620 1.404 . S
C621 H633 0.930 . S
C622 C618 1.524 1_554 S
C622 H634 0.956 . S
C622 H635 0.953 1_554 S
C622 H636 0.961 . S
C623 C620 1.539 . S
C623 H637 0.958 . S
C623 H638 0.961 . S
C623 H639 0.960 . S
H624 C608 0.931 . S
H625 C613 0.929 1_556 S
H626 C614 0.960 . S
H627 C614 0.962 . S
H628 C614 0.960 . S
H629 C615 0.961 . S
H630 C615 0.961 . S
H631 C615 0.961 1_545 S
H632 C616 0.931 . S
H633 C621 0.930 . S
H634 C622 0.956 . S
H635 C622 0.953 1_556 S
H636 C622 0.961 . S
H637 C623 0.958 . S
H638 C623 0.961 . S
H639 C623 0.960 . S
C640 C641 1.391 . S
C640 C642 1.394 1_554 S
C640 H656 0.931 1_554 S
C641 C640 1.391 . S
C641 C645 1.376 . S
C642 C640 1.394 1_556 S
C642 C643 1.369 1_556 S
C642 C646 1.531 . S
C643 C642 1.369 1_554 S
C643 C644 1.410 . S
C643 C651 1.503 1_554 S
C644 C643 1.410 . S
C644 C645 1.392 . S
C644 C647 1.511 . S
C645 C641 1.376 . S
C645 C644 1.392 . S
C645 H657 0.929 . S
C646 C642 1.531 . S
C646 H658 0.960 . S
C646 H659 0.962 . S
C646 H660 0.960 . S
C647 C644 1.511 . S
C647 H661 0.961 . S
C647 H662 0.961 . S
C647 H663 0.961 . S
C648 C649 1.370 . S
C648 C650 1.363 . S
C648 H664 0.931 . S
C649 C648 1.370 . S
C649 C653 1.408 . S
C650 C648 1.363 . S
C650 C651 1.370 . S
C650 C654 1.524 1_556 S
C651 C643 1.503 1_556 S
C651 C650 1.370 . S
C651 C652 1.403 . S
C652 C651 1.403 . S
C652 C653 1.404 . S
C652 C655 1.539 . S
C653 C649 1.408 . S
C653 C652 1.404 . S
C653 H665 0.930 . S
C654 C650 1.524 1_554 S
C654 H666 0.956 1_554 S
C654 H667 0.961 . S
C654 H668 0.961 . S
C655 C652 1.539 . S
C655 H669 0.958 . S
C655 H670 0.961 . S
C655 H671 0.960 . S
H656 C640 0.931 1_556 S
H657 C645 0.929 . S
H658 C646 0.960 . S
H659 C646 0.962 . S
H660 C646 0.960 . S
H661 C647 0.961 . S
H662 C647 0.961 . S
H663 C647 0.961 . S
H664 C648 0.931 . S
H665 C653 0.930 . S
H666 C654 0.956 1_556 S
H667 C654 0.961 . S
H668 C654 0.961 . S
H669 C655 0.958 . S
H670 C655 0.961 . S
H671 C655 0.960 . S
C672 C673 1.391 . S
C672 C674 1.394 . S
C672 H688 0.931 . S
C673 C672 1.391 . S
C673 C677 1.376 . S
C674 C672 1.394 . S
C674 C675 1.369 . S
C674 C678 1.531 . S
C675 C674 1.369 . S
C675 C676 1.410 . S
C675 C683 1.503 1_456 S
C676 C675 1.410 . S
C676 C677 1.392 . S
C676 C679 1.511 1_556 S
C677 C673 1.376 . S
C677 C676 1.392 . S
C677 H689 0.929 . S
C678 C674 1.531 . S
C678 H690 0.960 1_556 S
C678 H691 0.962 . S
C678 H692 0.960 . S
C679 C676 1.511 1_554 S
C679 H693 0.961 1_554 S
C679 H694 0.961 1_455 S
C679 H695 0.961 . S
C680 C681 1.370 . S
C680 C682 1.363 1_554 S
C680 H696 0.931 1_554 S
C681 C680 1.370 . S
C681 C685 1.408 . S
C682 C680 1.363 1_556 S
C682 C683 1.370 1_556 S
C682 C686 1.524 . S
C683 C675 1.503 1_654 S
C683 C682 1.370 1_554 S
C683 C684 1.403 . S
C684 C683 1.403 . S
C684 C685 1.404 . S
C684 C687 1.539 1_655 S
C685 C681 1.408 . S
C685 C684 1.404 . S
C685 H697 0.930 . S
C686 C682 1.524 . S
C686 H698 0.956 . S
C686 H699 0.961 . S
C686 H700 0.961 . S
C687 C684 1.539 1_455 S
C687 H701 0.958 . S
C687 H702 0.961 . S
C687 H703 0.960 . S
H688 C672 0.931 . S
H689 C677 0.929 . S
H690 C678 0.960 1_554 S
H691 C678 0.962 . S
H692 C678 0.960 . S
H693 C679 0.961 1_556 S
H694 C679 0.961 1_655 S
H695 C679 0.961 . S
H696 C680 0.931 1_556 S
H697 C685 0.930 . S
H698 C686 0.956 . S
H699 C686 0.961 . S
H700 C686 0.961 . S
H701 C687 0.958 . S
H702 C687 0.961 . S
H703 C687 0.960 . S
C704 C705 1.391 . S
C704 C706 1.394 1_655 S
C704 H720 0.931 . S
C705 C704 1.391 . S
C705 C709 1.376 . S
C706 C704 1.394 1_455 S
C706 C707 1.369 . S
C706 C710 1.531 1_545 S
C707 C706 1.369 . S
C707 C708 1.410 1_556 S
C707 C715 1.503 1_546 S
C708 C707 1.410 1_554 S
C708 C709 1.392 1_454 S
C708 C711 1.511 . S
C709 C705 1.376 . S
C709 C708 1.392 1_656 S
C709 H721 0.929 1_556 S
C710 C706 1.531 1_565 S
C710 H722 0.960 . S
C710 H723 0.962 1_455 S
C710 H724 0.960 . S
C711 C708 1.511 . S
C711 H725 0.961 1_455 S
C711 H726 0.951 1_455 S
C711 H727 0.961 . S
C712 C713 1.370 1_655 S
C712 C714 1.363 . S
C712 H728 0.931 . S
C713 C712 1.370 1_455 S
C713 C717 1.408 . S
C714 C712 1.363 . S
C714 C715 1.370 1_655 S
C714 C718 1.524 . S
C715 C707 1.503 1_564 S
C715 C714 1.370 1_455 S
C715 C716 1.403 . S
C716 C715 1.403 . S
C716 C717 1.404 . S
C716 C719 1.539 . S
C717 C713 1.408 . S
C717 C716 1.404 . S
C717 H729 0.930 . S
C718 C714 1.524 . S
C718 H730 0.956 1_554 S
C718 H731 0.961 1_565 S
C718 H732 0.961 . S
C719 C716 1.539 . S
C719 H733 0.958 1_554 S
C719 H734 0.961 . S
C719 H735 0.960 1_565 S
H720 C704 0.931 . S
H721 C709 0.929 1_554 S
H722 C710 0.960 . S
H723 C710 0.962 1_655 S
H724 C710 0.960 . S
H725 C711 0.961 1_655 S
H726 C711 0.951 1_655 S
H727 C711 0.961 . S
H728 C712 0.931 . S
H729 C717 0.930 . S
H730 C718 0.956 1_556 S
H731 C718 0.961 1_545 S
H732 C718 0.961 . S
H733 C719 0.958 1_556 S
H734 C719 0.961 . S
H735 C719 0.960 1_545 S
C736 C737 1.391 1_545 S
C736 C738 1.394 . S
C736 H752 0.931 . S
C737 C736 1.391 1_565 S
C737 C741 1.376 . S
C738 C736 1.394 . S
C738 C739 1.369 1_545 S
C738 C742 1.531 1_455 S
C739 C738 1.369 1_565 S
C739 C740 1.410 . S
C739 C747 1.503 1_455 S
C740 C739 1.410 . S
C740 C741 1.392 . S
C740 C743 1.511 . S
C741 C737 1.376 . S
C741 C740 1.392 . S
C741 H753 0.929 . S
C742 C738 1.531 1_655 S
C742 H754 0.960 . S
C742 H755 0.962 . S
C742 H756 0.960 . S
C743 C740 1.511 . S
C743 H757 0.961 . S
C743 H758 0.961 . S
C743 H759 0.961 . S
C744 C745 1.370 . S
C744 C746 1.363 . S
C744 H760 0.931 . S
C745 C744 1.370 . S
C745 C749 1.408 1_545 S
C746 C744 1.363 . S
C746 C747 1.370 1_545 S
C746 C750 1.524 1_655 S
C747 C739 1.503 1_655 S
C747 C746 1.370 1_565 S
C747 C748 1.403 . S
C748 C747 1.403 . S
C748 C749 1.404 . S
C748 C751 1.539 . S
C749 C745 1.408 1_565 S
C749 C748 1.404 . S
C749 H761 0.930 . S
C750 C746 1.524 1_455 S
C750 H762 0.956 . S
C750 H763 0.961 . S
C750 H764 0.969 . S
C751 C748 1.539 . S
C751 H765 0.958 . S
C751 H766 0.961 . S
C751 H767 0.960 . S
H752 C736 0.931 . S
H753 C741 0.929 . S
H754 C742 0.960 . S
H755 C742 0.962 . S
H756 C742 0.960 . S
H757 C743 0.961 . S
H758 C743 0.961 . S
H759 C743 0.961 . S
H760 C744 0.931 . S
H761 C749 0.930 . S
H762 C750 0.956 . S
H763 C750 0.961 . S
H764 C750 0.969 . S
H765 C751 0.958 . S
H766 C751 0.961 . S
H767 C751 0.960 . S
C768 C769 1.391 . S
C768 C770 1.394 . S
C768 H784 0.931 . S
C769 C768 1.391 . S
C769 C773 1.376 . S
C770 C768 1.394 . S
C770 C771 1.369 . S
C770 C774 1.531 . S
C771 C770 1.369 . S
C771 C772 1.410 . S
C771 C779 1.503 1_545 S
C772 C771 1.410 . S
C772 C773 1.392 . S
C772 C775 1.511 1_545 S
C773 C769 1.376 . S
C773 C772 1.392 . S
C773 H785 0.929 . S
C774 C770 1.531 . S
C774 H786 0.960 . S
C774 H787 0.962 . S
C774 H788 0.960 . S
C775 C772 1.511 1_565 S
C775 H789 0.961 . S
C775 H790 0.961 . S
C775 H791 0.961 . S
C776 C777 1.370 . S
C776 C778 1.363 . S
C776 H792 0.931 . S
C777 C776 1.370 . S
C777 C781 1.408 . S
C778 C776 1.363 . S
C778 C779 1.370 . S
C778 C782 1.524 . S
C779 C771 1.503 1_565 S
C779 C778 1.370 . S
C779 C780 1.403 . S
C780 C779 1.403 . S
C780 C781 1.404 . S
C780 C783 1.539 . S
C781 C777 1.408 . S
C781 C780 1.404 . S
C781 H793 0.930 . S
C782 C778 1.524 . S
C782 H794 0.936 1_565 S
C782 H795 0.961 . S
C782 H796 0.961 . S
C783 C780 1.539 . S
C783 H797 0.958 1_565 S
C783 H798 0.961 . S
C783 H799 0.960 1_565 S
H784 C768 0.931 . S
H785 C773 0.929 . S
H786 C774 0.960 . S
H787 C774 0.962 . S
H788 C774 0.960 . S
H789 C775 0.961 . S
H790 C775 0.961 . S
H791 C775 0.961 . S
H792 C776 0.931 . S
H793 C781 0.930 . S
H794 C782 0.936 1_545 S
H795 C782 0.961 . S
H796 C782 0.961 . S
H797 C783 0.958 1_545 S
H798 C783 0.961 . S
H799 C783 0.960 1_545 S
C800 C801 1.391 . S
C800 C802 1.394 . S
C800 H816 0.931 . S
C801 C800 1.391 . S
C801 C805 1.376 . S
C802 C800 1.394 . S
C802 C803 1.369 . S
C802 C806 1.531 . S
C803 C802 1.369 . S
C803 C804 1.410 . S
C803 C811 1.503 . S
C804 C803 1.410 . S
C804 C805 1.392 . S
C804 C807 1.511 . S
C805 C801 1.376 . S
C805 C804 1.392 . S
C805 H817 0.929 . S
C806 C802 1.531 . S
C806 H818 0.960 . S
C806 H819 0.962 . S
C806 H820 0.960 . S
C807 C804 1.511 . S
C807 H821 0.961 . S
C807 H822 0.961 . S
C807 H823 0.961 . S
C808 C809 1.370 . S
C808 C810 1.363 . S
C808 H824 0.931 . S
C809 C808 1.370 . S
C809 C813 1.408 . S
C810 C808 1.363 . S
C810 C811 1.370 . S
C810 C814 1.524 . S
C811 C803 1.503 . S
C811 C810 1.370 . S
C811 C812 1.403 . S
C812 C811 1.403 . S
C812 C813 1.404 . S
C812 C815 1.539 . S
C813 C809 1.408 . S
C813 C812 1.404 . S
C813 H825 0.930 . S
C814 C810 1.524 . S
C814 H826 0.956 . S
C814 H827 0.961 . S
C814 H828 0.961 . S
C815 C812 1.539 . S
C815 H829 0.958 . S
C815 H830 0.961 . S
C815 H831 0.960 . S
H816 C800 0.931 . S
H817 C805 0.929 . S
H818 C806 0.960 . S
H819 C806 0.962 . S
H820 C806 0.960 . S
H821 C807 0.961 . S
H822 C807 0.961 . S
H823 C807 0.961 . S
H824 C808 0.931 . S
H825 C813 0.930 . S
H826 C814 0.956 . S
H827 C814 0.961 . S
H828 C814 0.961 . S
H829 C815 0.958 . S
H830 C815 0.961 . S
H831 C815 0.960 . S
C832 C833 1.391 1_655 S
C832 C834 1.394 . S
C832 H848 0.931 . S
C833 C832 1.391 1_455 S
C833 C837 1.376 . S
C834 C832 1.394 . S
C834 C835 1.369 1_655 S
C834 C838 1.531 . S
C835 C834 1.369 1_455 S
C835 C836 1.410 . S
C835 C843 1.502 1_455 S
C836 C835 1.410 . S
C836 C837 1.392 . S
C836 C839 1.511 . S
C837 C833 1.376 . S
C837 C836 1.392 . S
C837 H849 0.929 . S
C838 C834 1.531 . S
C838 H850 0.960 . S
C838 H851 0.962 . S
C838 H852 0.960 . S
C839 C836 1.511 . S
C839 H853 0.961 . S
C839 H854 0.961 . S
C839 H855 0.961 . S
C840 C841 1.370 . S
C840 C842 1.363 . S
C840 H856 0.931 . S
C841 C840 1.370 . S
C841 C845 1.408 1_655 S
C842 C840 1.363 . S
C842 C843 1.374 . S
C842 C846 1.524 . S
C843 C835 1.502 1_655 S
C843 C842 1.374 . S
C843 C844 1.400 1_655 S
C844 C843 1.400 1_455 S
C844 C845 1.404 . S
C844 C847 1.539 . S
C845 C841 1.408 1_455 S
C845 C844 1.404 . S
C845 H857 0.930 . S
C846 C842 1.524 . S
C846 H858 0.956 . S
C846 H859 0.961 . S
C846 H860 0.961 . S
C847 C844 1.539 . S
C847 H861 0.958 . S
C847 H862 0.961 . S
C847 H863 0.960 . S
H848 C832 0.931 . S
H849 C837 0.929 . S
H850 C838 0.960 . S
H851 C838 0.962 . S
H852 C838 0.960 . S
H853 C839 0.961 . S
H854 C839 0.961 . S
H855 C839 0.961 . S
H856 C840 0.931 . S
H857 C845 0.930 . S
H858 C846 0.956 . S
H859 C846 0.961 . S
H860 C846 0.961 . S
H861 C847 0.958 . S
H862 C847 0.961 . S
H863 C847 0.960 . S
C864 C865 1.391 . S
C864 C866 1.394 . S
C864 H880 0.931 . S
C865 C864 1.391 . S
C865 C869 1.376 . S
C866 C864 1.394 . S
C866 C867 1.369 . S
C866 C870 1.531 . S
C867 C866 1.369 . S
C867 C868 1.410 . S
C867 C875 1.503 . S
C868 C867 1.410 . S
C868 C869 1.392 . S
C868 C871 1.511 . S
C869 C865 1.376 . S
C869 C868 1.392 . S
C869 H881 0.929 . S
C870 C866 1.531 . S
C870 H882 0.960 . S
C870 H883 0.962 . S
C870 H884 0.960 . S
C871 C868 1.511 . S
C871 H885 0.961 . S
C871 H886 0.961 . S
C871 H887 0.961 . S
C872 C873 1.370 . S
C872 C874 1.363 . S
C872 H888 0.931 . S
C873 C872 1.370 . S
C873 C877 1.408 . S
C874 C872 1.363 . S
C874 C875 1.370 . S
C874 C878 1.524 . S
C875 C867 1.503 . S
C875 C874 1.370 . S
C875 C876 1.403 . S
C876 C875 1.403 . S
C876 C877 1.404 . S
C876 C879 1.539 . S
C877 C873 1.408 . S
C877 C876 1.404 . S
C877 H889 0.930 . S
C878 C874 1.524 . S
C878 H890 0.956 . S
C878 H891 0.961 . S
C878 H892 0.961 . S
C879 C876 1.539 . S
C879 H893 0.958 . S
C879 H894 0.961 . S
C879 H895 0.960 . S
H880 C864 0.931 . S
H881 C869 0.929 . S
H882 C870 0.960 . S
H883 C870 0.962 . S
H884 C870 0.960 . S
H885 C871 0.961 . S
H886 C871 0.961 . S
H887 C871 0.961 . S
H888 C872 0.931 . S
H889 C877 0.930 . S
H890 C878 0.956 . S
H891 C878 0.961 . S
H892 C878 0.961 . S
H893 C879 0.958 . S
H894 C879 0.961 . S
H895 C879 0.960 . S
C896 C897 1.391 . S
C896 C898 1.394 . S
C896 H912 0.931 . S
C897 C896 1.391 . S
C897 C901 1.376 . S
C898 C896 1.394 . S
C898 C899 1.369 . S
C898 C902 1.531 . S
C899 C898 1.369 . S
C899 C900 1.410 . S
C899 C907 1.503 . S
C900 C899 1.410 . S
C900 C901 1.392 . S
C900 C903 1.511 . S
C901 C897 1.376 . S
C901 C900 1.392 . S
C901 H913 0.929 . S
C902 C898 1.531 . S
C902 H914 0.960 . S
C902 H915 0.962 . S
C902 H916 0.960 . S
C903 C900 1.511 . S
C903 H917 0.961 . S
C903 H918 0.961 . S
C903 H919 0.961 . S
C904 C905 1.370 . S
C904 C906 1.363 . S
C904 H920 0.931 . S
C905 C904 1.370 . S
C905 C909 1.408 . S
C906 C904 1.363 . S
C906 C907 1.370 . S
C906 C910 1.524 . S
C907 C899 1.503 . S
C907 C906 1.370 . S
C907 C908 1.403 . S
C908 C907 1.403 . S
C908 C909 1.404 . S
C908 C911 1.539 . S
C909 C905 1.408 . S
C909 C908 1.404 . S
C909 H921 0.930 . S
C910 C906 1.524 . S
C910 H922 0.956 . S
C910 H923 0.961 . S
C910 H924 0.961 . S
C911 C908 1.539 . S
C911 H925 0.958 . S
C911 H926 0.961 . S
C911 H927 0.960 . S
H912 C896 0.931 . S
H913 C901 0.929 . S
H914 C902 0.960 . S
H915 C902 0.962 . S
H916 C902 0.960 . S
H917 C903 0.961 . S
H918 C903 0.961 . S
H919 C903 0.961 . S
H920 C904 0.931 . S
H921 C909 0.930 . S
H922 C910 0.956 . S
H923 C910 0.961 . S
H924 C910 0.961 . S
H925 C911 0.958 . S
H926 C911 0.961 . S
H927 C911 0.960 . S
C928 C929 1.391 . S
C928 C930 1.394 . S
C928 H944 0.931 . S
C929 C928 1.391 . S
C929 C933 1.383 . S
C930 C928 1.394 . S
C930 C931 1.369 . S
C930 C934 1.531 . S
C931 C930 1.369 . S
C931 C932 1.410 . S
C931 C939 1.503 . S
C932 C931 1.410 . S
C932 C933 1.399 . S
C932 C935 1.511 1_655 S
C933 C929 1.383 . S
C933 C932 1.399 . S
C933 H945 0.915 1_655 S
C934 C930 1.531 . S
C934 H946 0.960 . S
C934 H947 0.962 . S
C934 H948 0.960 . S
C935 C932 1.511 1_455 S
C935 H949 0.961 . S
C935 H950 0.961 1_455 S
C935 H951 0.961 . S
C936 C937 1.370 . S
C936 C938 1.363 . S
C936 H952 0.931 . S
C937 C936 1.370 . S
C937 C941 1.408 . S
C938 C936 1.363 . S
C938 C939 1.370 . S
C938 C942 1.524 . S
C939 C931 1.503 . S
C939 C938 1.370 . S
C939 C940 1.403 . S
C940 C939 1.403 . S
C940 C941 1.404 . S
C940 C943 1.539 . S
C941 C937 1.408 . S
C941 C940 1.404 . S
C941 H953 0.930 . S
C942 C938 1.524 . S
C942 H954 0.956 . S
C942 H955 0.961 . S
C942 H956 0.961 . S
C943 C940 1.539 . S
C943 H957 0.958 . S
C943 H958 0.961 . S
C943 H959 0.960 1_655 S
H944 C928 0.931 . S
H945 C933 0.915 1_455 S
H946 C934 0.960 . S
H947 C934 0.962 . S
H948 C934 0.960 . S
H949 C935 0.961 . S
H950 C935 0.961 1_655 S
H951 C935 0.961 . S
H952 C936 0.931 . S
H953 C941 0.930 . S
H954 C942 0.956 . S
H955 C942 0.961 . S
H956 C942 0.961 . S
H957 C943 0.958 . S
H958 C943 0.961 . S
H959 C943 0.960 1_455 S
C960 C961 1.391 . S
C960 C962 1.394 . S
C960 H976 0.931 . S
C961 C960 1.391 . S
C961 C965 1.376 . S
C962 C960 1.394 . S
C962 C963 1.369 . S
C962 C966 1.532 1_565 S
C963 C962 1.369 . S
C963 C964 1.410 . S
C963 C971 1.503 . S
C964 C963 1.410 . S
C964 C965 1.392 . S
C964 C967 1.511 . S
C965 C961 1.376 . S
C965 C964 1.392 . S
C965 H977 0.929 . S
C966 C962 1.532 1_545 S
C966 H978 0.960 . S
C966 H979 0.961 . S
C966 H980 0.960 . S
C967 C964 1.511 . S
C967 H981 0.961 . S
C967 H982 0.961 . S
C967 H983 0.961 . S
C968 C969 1.370 . S
C968 C970 1.363 . S
C968 H984 0.931 . S
C969 C968 1.370 . S
C969 C973 1.408 . S
C970 C968 1.363 . S
C970 C971 1.370 . S
C970 C974 1.524 . S
C971 C963 1.503 . S
C971 C970 1.370 . S
C971 C972 1.403 . S
C972 C971 1.403 . S
C972 C973 1.404 . S
C972 C975 1.539 . S
C973 C969 1.408 . S
C973 C972 1.404 . S
C973 H985 0.930 . S
C974 C970 1.524 . S
C974 H986 0.956 . S
C974 H987 0.961 . S
C974 H988 0.961 . S
C975 C972 1.539 . S
C975 H989 0.958 . S
C975 H990 0.961 . S
C975 H991 0.960 . S
H976 C960 0.931 . S
H977 C965 0.929 . S
H978 C966 0.960 . S
H979 C966 0.961 . S
H980 C966 0.960 . S
H981 C967 0.961 . S
H982 C967 0.961 . S
H983 C967 0.961 . S
H984 C968 0.931 . S
H985 C973 0.930 . S
H986 C974 0.956 . S
H987 C974 0.961 . S
H988 C974 0.961 . S
H989 C975 0.958 . S
H990 C975 0.961 . S
H991 C975 0.960 . S
C992 C993 1.391 . S
C992 C994 1.394 . S
C992 H1008 0.931 . S
C993 C992 1.391 . S
C993 C997 1.376 . S
C994 C992 1.394 . S
C994 C995 1.369 . S
C994 C998 1.531 . S
C995 C994 1.369 . S
C995 C996 1.410 . S
C995 C1003 1.503 . S
C996 C995 1.410 . S
C996 C997 1.392 . S
C996 C999 1.511 . S
C997 C993 1.376 . S
C997 C996 1.392 . S
C997 H1009 0.929 . S
C998 C994 1.531 . S
C998 H1010 0.960 . S
C998 H1011 0.962 . S
C998 H1012 0.960 . S
C999 C996 1.511 . S
C999 H1013 0.961 . S
C999 H1014 0.961 . S
C999 H1015 0.961 . S
C1000 C1001 1.370 . S
C1000 C1002 1.363 . S
C1000 H1016 0.931 . S
C1001 C1000 1.370 . S
C1001 C1005 1.408 1_455 S
C1002 C1000 1.363 . S
C1002 C1003 1.370 . S
C1002 C1006 1.524 . S
C1003 C995 1.503 . S
C1003 C1002 1.370 . S
C1003 C1004 1.403 . S
C1004 C1003 1.403 . S
C1004 C1005 1.404 1_455 S
C1004 C1007 1.539 1_455 S
C1005 C1001 1.408 1_655 S
C1005 C1004 1.404 1_655 S
C1005 H1017 0.930 . S
C1006 C1002 1.524 . S
C1006 H1018 0.956 . S
C1006 H1019 0.961 . S
C1006 H1020 0.961 . S
C1007 C1004 1.539 1_655 S
C1007 H1021 0.958 . S
C1007 H1022 0.961 . S
C1007 H1023 0.960 . S
H1008 C992 0.931 . S
H1009 C997 0.929 . S
H1010 C998 0.960 . S
H1011 C998 0.962 . S
H1012 C998 0.960 . S
H1013 C999 0.961 . S
H1014 C999 0.961 . S
H1015 C999 0.961 . S
H1016 C1000 0.931 . S
H1017 C1005 0.930 . S
H1018 C1006 0.956 . S
H1019 C1006 0.961 . S
H1020 C1006 0.961 . S
H1021 C1007 0.958 . S
H1022 C1007 0.961 . S
H1023 C1007 0.960 . S
C1024 C1025 1.391 . S
C1024 C1026 1.394 . S
C1024 H1040 0.931 . S
C1025 C1024 1.391 . S
C1025 C1029 1.376 . S
C1026 C1024 1.394 . S
C1026 C1027 1.369 . S
C1026 C1030 1.535 . S
C1027 C1026 1.369 . S
C1027 C1028 1.410 . S
C1027 C1035 1.503 . S
C1028 C1027 1.410 . S
C1028 C1029 1.392 . S
C1028 C1031 1.511 . S
C1029 C1025 1.376 . S
C1029 C1028 1.392 . S
C1029 H1041 0.929 . S
C1030 C1026 1.535 . S
C1030 H1042 0.959 1_545 S
C1030 H1043 0.960 1_545 S
C1030 H1044 0.959 1_545 S
C1031 C1028 1.511 . S
C1031 H1045 0.961 . S
C1031 H1046 0.961 . S
C1031 H1047 0.961 . S
C1032 C1033 1.370 . S
C1032 C1034 1.363 . S
C1032 H1048 0.931 . S
C1033 C1032 1.370 . S
C1033 C1037 1.408 . S
C1034 C1032 1.363 . S
C1034 C1035 1.370 . S
C1034 C1038 1.524 . S
C1035 C1027 1.503 . S
C1035 C1034 1.370 . S
C1035 C1036 1.403 . S
C1036 C1035 1.403 . S
C1036 C1037 1.404 . S
C1036 C1039 1.539 . S
C1037 C1033 1.408 . S
C1037 C1036 1.404 . S
C1037 H1049 0.930 . S
C1038 C1034 1.524 . S
C1038 H1050 0.956 . S
C1038 H1051 0.961 . S
C1038 H1052 0.961 . S
C1039 C1036 1.539 . S
C1039 H1053 0.958 . S
C1039 H1054 0.961 . S
C1039 H1055 0.960 . S
H1040 C1024 0.931 . S
H1041 C1029 0.929 . S
H1042 C1030 0.959 1_565 S
H1043 C1030 0.960 1_565 S
H1044 C1030 0.959 1_565 S
H1045 C1031 0.961 . S
H1046 C1031 0.961 . S
H1047 C1031 0.961 . S
H1048 C1032 0.931 . S
H1049 C1037 0.930 . S
H1050 C1038 0.956 . S
H1051 C1038 0.961 . S
H1052 C1038 0.961 . S
H1053 C1039 0.958 . S
H1054 C1039 0.961 . S
H1055 C1039 0.960 . S
C1056 C1057 1.391 . S
C1056 C1058 1.394 . S
C1056 H1072 0.931 . S
C1057 C1056 1.391 . S
C1057 C1061 1.376 . S
C1058 C1056 1.394 . S
C1058 C1059 1.369 . S
C1058 C1062 1.531 . S
C1059 C1058 1.369 . S
C1059 C1060 1.410 . S
C1059 C1067 1.503 . S
C1060 C1059 1.410 . S
C1060 C1061 1.392 . S
C1060 C1063 1.511 . S
C1061 C1057 1.376 . S
C1061 C1060 1.392 . S
C1061 H1073 0.929 . S
C1062 C1058 1.531 . S
C1062 H1074 0.960 . S
C1062 H1075 0.962 . S
C1062 H1076 0.960 . S
C1063 C1060 1.511 . S
C1063 H1077 0.961 . S
C1063 H1078 0.961 . S
C1063 H1079 0.961 . S
C1064 C1065 1.370 . S
C1064 C1066 1.363 . S
C1064 H1080 0.931 . S
C1065 C1064 1.370 . S
C1065 C1069 1.408 . S
C1066 C1064 1.363 . S
C1066 C1067 1.370 . S
C1066 C1070 1.524 . S
C1067 C1059 1.503 . S
C1067 C1066 1.370 . S
C1067 C1068 1.403 . S
C1068 C1067 1.403 . S
C1068 C1069 1.404 . S
C1068 C1071 1.539 . S
C1069 C1065 1.408 . S
C1069 C1068 1.404 . S
C1069 H1081 0.930 . S
C1070 C1066 1.524 . S
C1070 H1082 0.956 . S
C1070 H1083 0.961 . S
C1070 H1084 0.961 . S
C1071 C1068 1.539 . S
C1071 H1085 0.958 . S
C1071 H1086 0.961 . S
C1071 H1087 0.960 . S
H1072 C1056 0.931 . S
H1073 C1061 0.929 . S
H1074 C1062 0.960 . S
H1075 C1062 0.962 . S
H1076 C1062 0.960 . S
H1077 C1063 0.961 . S
H1078 C1063 0.961 . S
H1079 C1063 0.961 . S
H1080 C1064 0.931 . S
H1081 C1069 0.930 . S
H1082 C1070 0.956 . S
H1083 C1070 0.961 . S
H1084 C1070 0.961 . S
H1085 C1071 0.958 . S
H1086 C1071 0.961 . S
H1087 C1071 0.960 . S
C1088 C1089 1.391 . S
C1088 C1090 1.394 . S
C1088 H1104 0.931 . S
C1089 C1088 1.391 . S
C1089 C1093 1.376 . S
C1090 C1088 1.394 . S
C1090 C1091 1.369 . S
C1090 C1094 1.531 . S
C1091 C1090 1.369 . S
C1091 C1092 1.410 . S
C1091 C1099 1.503 . S
C1092 C1091 1.410 . S
C1092 C1093 1.392 . S
C1092 C1095 1.511 . S
C1093 C1089 1.376 . S
C1093 C1092 1.392 . S
C1093 H1105 0.929 . S
C1094 C1090 1.531 . S
C1094 H1106 0.960 . S
C1094 H1107 0.962 . S
C1094 H1108 0.960 . S
C1095 C1092 1.511 . S
C1095 H1109 0.961 . S
C1095 H1110 0.961 . S
C1095 H1111 0.961 . S
C1096 C1097 1.370 . S
C1096 C1098 1.363 . S
C1096 H1112 0.931 . S
C1097 C1096 1.370 . S
C1097 C1101 1.408 . S
C1098 C1096 1.363 . S
C1098 C1099 1.370 . S
C1098 C1102 1.524 . S
C1099 C1091 1.503 . S
C1099 C1098 1.370 . S
C1099 C1100 1.403 . S
C1100 C1099 1.403 . S
C1100 C1101 1.404 . S
C1100 C1103 1.539 . S
C1101 C1097 1.408 . S
C1101 C1100 1.404 . S
C1101 H1113 0.930 . S
C1102 C1098 1.524 . S
C1102 H1114 0.956 . S
C1102 H1115 0.961 . S
C1102 H1116 0.961 . S
C1103 C1100 1.539 . S
C1103 H1117 0.958 . S
C1103 H1118 0.961 . S
C1103 H1119 0.960 . S
H1104 C1088 0.931 . S
H1105 C1093 0.929 . S
H1106 C1094 0.960 . S
H1107 C1094 0.962 . S
H1108 C1094 0.960 . S
H1109 C1095 0.961 . S
H1110 C1095 0.961 . S
H1111 C1095 0.961 . S
H1112 C1096 0.931 . S
H1113 C1101 0.930 . S
H1114 C1102 0.956 . S
H1115 C1102 0.961 . S
H1116 C1102 0.961 . S
H1117 C1103 0.958 . S
H1118 C1103 0.961 . S
H1119 C1103 0.960 . S
C1120 C1121 1.391 . S
C1120 C1122 1.394 . S
C1120 H1136 0.931 . S
C1121 C1120 1.391 . S
C1121 C1125 1.376 . S
C1122 C1120 1.394 . S
C1122 C1123 1.369 . S
C1122 C1126 1.531 . S
C1123 C1122 1.369 . S
C1123 C1124 1.410 . S
C1123 C1131 1.503 . S
C1124 C1123 1.410 . S
C1124 C1125 1.392 . S
C1124 C1127 1.511 . S
C1125 C1121 1.376 . S
C1125 C1124 1.392 . S
C1125 H1137 0.929 . S
C1126 C1122 1.531 . S
C1126 H1138 0.960 . S
C1126 H1139 0.962 . S
C1126 H1140 0.960 . S
C1127 C1124 1.511 . S
C1127 H1141 0.961 . S
C1127 H1142 0.961 . S
C1127 H1143 0.961 . S
C1128 C1129 1.370 . S
C1128 C1130 1.363 . S
C1128 H1144 0.931 . S
C1129 C1128 1.370 . S
C1129 C1133 1.408 . S
C1130 C1128 1.363 . S
C1130 C1131 1.370 . S
C1130 C1134 1.524 . S
C1131 C1123 1.503 . S
C1131 C1130 1.370 . S
C1131 C1132 1.403 . S
C1132 C1131 1.403 . S
C1132 C1133 1.404 . S
C1132 C1135 1.539 . S
C1133 C1129 1.408 . S
C1133 C1132 1.404 . S
C1133 H1145 0.930 . S
C1134 C1130 1.524 . S
C1134 H1146 0.956 . S
C1134 H1147 0.961 . S
C1134 H1148 0.961 . S
C1135 C1132 1.539 . S
C1135 H1149 0.958 . S
C1135 H1150 0.961 . S
C1135 H1151 0.960 . S
H1136 C1120 0.931 . S
H1137 C1125 0.929 . S
H1138 C1126 0.960 . S
H1139 C1126 0.962 . S
H1140 C1126 0.960 . S
H1141 C1127 0.961 . S
H1142 C1127 0.961 . S
H1143 C1127 0.961 . S
H1144 C1128 0.931 . S
H1145 C1133 0.930 . S
H1146 C1134 0.956 . S
H1147 C1134 0.961 . S
H1148 C1134 0.961 . S
H1149 C1135 0.958 . S
H1150 C1135 0.961 . S
H1151 C1135 0.960 . S
C1152 C1153 1.391 . S
C1152 C1154 1.394 . S
C1152 H1168 0.931 . S
C1153 C1152 1.391 . S
C1153 C1157 1.376 . S
C1154 C1152 1.394 . S
C1154 C1155 1.369 . S
C1154 C1158 1.531 . S
C1155 C1154 1.369 . S
C1155 C1156 1.410 . S
C1155 C1163 1.503 . S
C1156 C1155 1.410 . S
C1156 C1157 1.392 . S
C1156 C1159 1.511 . S
C1157 C1153 1.376 . S
C1157 C1156 1.392 . S
C1157 H1169 0.929 . S
C1158 C1154 1.531 . S
C1158 H1170 0.960 . S
C1158 H1171 0.962 . S
C1158 H1172 0.960 . S
C1159 C1156 1.511 . S
C1159 H1173 0.961 . S
C1159 H1174 0.961 . S
C1159 H1175 0.961 . S
C1160 C1161 1.370 . S
C1160 C1162 1.363 . S
C1160 H1176 0.931 . S
C1161 C1160 1.370 . S
C1161 C1165 1.408 . S
C1162 C1160 1.363 . S
C1162 C1163 1.370 . S
C1162 C1166 1.524 . S
C1163 C1155 1.503 . S
C1163 C1162 1.370 . S
C1163 C1164 1.403 . S
C1164 C1163 1.403 . S
C1164 C1165 1.404 . S
C1164 C1167 1.539 . S
C1165 C1161 1.408 . S
C1165 C1164 1.404 . S
C1165 H1177 0.930 . S
C1166 C1162 1.524 . S
C1166 H1178 0.956 . S
C1166 H1179 0.961 . S
C1166 H1180 0.961 . S
C1167 C1164 1.539 . S
C1167 H1181 0.958 . S
C1167 H1182 0.961 . S
C1167 H1183 0.960 . S
H1168 C1152 0.931 . S
H1169 C1157 0.929 . S
H1170 C1158 0.960 . S
H1171 C1158 0.962 . S
H1172 C1158 0.960 . S
H1173 C1159 0.961 . S
H1174 C1159 0.961 . S
H1175 C1159 0.961 . S
H1176 C1160 0.931 . S
H1177 C1165 0.930 . S
H1178 C1166 0.956 . S
H1179 C1166 0.961 . S
H1180 C1166 0.961 . S
H1181 C1167 0.958 . S
H1182 C1167 0.961 . S
H1183 C1167 0.960 . S
C1184 C1185 1.391 . S
C1184 C1186 1.394 . S
C1184 H1200 0.931 . S
C1185 C1184 1.391 . S
C1185 C1189 1.376 1_455 S
C1186 C1184 1.394 . S
C1186 C1187 1.369 . S
C1186 C1190 1.531 . S
C1187 C1186 1.369 . S
C1187 C1188 1.410 . S
C1187 C1195 1.503 . S
C1188 C1187 1.410 . S
C1188 C1189 1.392 1_455 S
C1188 C1191 1.511 1_455 S
C1189 C1185 1.376 1_655 S
C1189 C1188 1.392 1_655 S
C1189 H1201 0.929 . S
C1190 C1186 1.531 . S
C1190 H1202 0.960 . S
C1190 H1203 0.962 . S
C1190 H1204 0.960 . S
C1191 C1188 1.511 1_655 S
C1191 H1205 0.961 . S
C1191 H1206 0.961 . S
C1191 H1207 0.961 . S
C1192 C1193 1.370 . S
C1192 C1194 1.363 . S
C1192 H1208 0.931 . S
C1193 C1192 1.370 . S
C1193 C1197 1.408 . S
C1194 C1192 1.363 . S
C1194 C1195 1.370 . S
C1194 C1198 1.524 . S
C1195 C1187 1.503 . S
C1195 C1194 1.370 . S
C1195 C1196 1.403 . S
C1196 C1195 1.403 . S
C1196 C1197 1.404 . S
C1196 C1199 1.539 . S
C1197 C1193 1.408 . S
C1197 C1196 1.404 . S
C1197 H1209 0.930 . S
C1198 C1194 1.524 . S
C1198 H1210 0.956 . S
C1198 H1211 0.961 . S
C1198 H1212 0.961 . S
C1199 C1196 1.539 . S
C1199 H1213 0.958 . S
C1199 H1214 0.961 . S
C1199 H1215 0.960 . S
H1200 C1184 0.931 . S
H1201 C1189 0.929 . S
H1202 C1190 0.960 . S
H1203 C1190 0.962 . S
H1204 C1190 0.960 . S
H1205 C1191 0.961 . S
H1206 C1191 0.961 . S
H1207 C1191 0.961 . S
H1208 C1192 0.931 . S
H1209 C1197 0.930 . S
H1210 C1198 0.956 . S
H1211 C1198 0.961 . S
H1212 C1198 0.961 . S
H1213 C1199 0.958 . S
H1214 C1199 0.961 . S
H1215 C1199 0.960 . S
C1216 C1217 1.391 . S
C1216 C1218 1.394 . S
C1216 H1232 0.931 . S
C1217 C1216 1.391 . S
C1217 C1221 1.371 1_545 S
C1218 C1216 1.394 . S
C1218 C1219 1.369 . S
C1218 C1222 1.531 . S
C1219 C1218 1.369 . S
C1219 C1220 1.410 . S
C1219 C1227 1.503 . S
C1220 C1219 1.410 . S
C1220 C1221 1.389 1_545 S
C1220 C1223 1.511 1_545 S
C1221 C1217 1.371 1_565 S
C1221 C1220 1.389 1_565 S
C1221 H1233 0.937 . S
C1222 C1218 1.531 . S
C1222 H1234 0.960 . S
C1222 H1235 0.962 . S
C1222 H1236 0.960 . S
C1223 C1220 1.511 1_565 S
C1223 H1237 0.961 . S
C1223 H1238 0.961 1_565 S
C1223 H1239 0.961 . S
C1224 C1225 1.370 . S
C1224 C1226 1.363 . S
C1224 H1240 0.931 . S
C1225 C1224 1.370 . S
C1225 C1229 1.408 . S
C1226 C1224 1.363 . S
C1226 C1227 1.370 . S
C1226 C1230 1.524 . S
C1227 C1219 1.503 . S
C1227 C1226 1.370 . S
C1227 C1228 1.403 . S
C1228 C1227 1.403 . S
C1228 C1229 1.404 . S
C1228 C1231 1.539 . S
C1229 C1225 1.408 . S
C1229 C1228 1.404 . S
C1229 H1241 0.930 . S
C1230 C1226 1.524 . S
C1230 H1242 0.956 . S
C1230 H1243 0.961 . S
C1230 H1244 0.961 . S
C1231 C1228 1.539 . S
C1231 H1245 0.958 . S
C1231 H1246 0.961 . S
C1231 H1247 0.960 . S
H1232 C1216 0.931 . S
H1233 C1221 0.937 . S
H1234 C1222 0.960 . S
H1235 C1222 0.962 . S
H1236 C1222 0.960 . S
H1237 C1223 0.961 . S
H1238 C1223 0.961 1_545 S
H1239 C1223 0.961 . S
H1240 C1224 0.931 . S
H1241 C1229 0.930 . S
H1242 C1230 0.956 . S
H1243 C1230 0.961 . S
H1244 C1230 0.961 . S
H1245 C1231 0.958 . S
H1246 C1231 0.961 . S
H1247 C1231 0.960 . S
C1248 C1249 1.391 . S
C1248 C1250 1.394 . S
C1248 H1264 0.931 . S
C1249 C1248 1.391 . S
C1249 C1253 1.376 . S
C1250 C1248 1.394 . S
C1250 C1251 1.369 . S
C1250 C1254 1.531 . S
C1251 C1250 1.369 . S
C1251 C1252 1.410 . S
C1251 C1259 1.503 . S
C1252 C1251 1.410 . S
C1252 C1253 1.392 . S
C1252 C1255 1.511 . S
C1253 C1249 1.376 . S
C1253 C1252 1.392 . S
C1253 H1265 0.929 . S
C1254 C1250 1.531 . S
C1254 H1266 0.960 . S
C1254 H1267 0.944 1_655 S
C1254 H1268 0.960 . S
C1255 C1252 1.511 . S
C1255 H1269 0.961 . S
C1255 H1270 0.961 . S
C1255 H1271 0.961 . S
C1256 C1257 1.370 . S
C1256 C1258 1.363 . S
C1256 H1272 0.931 1_655 S
C1257 C1256 1.370 . S
C1257 C1261 1.408 . S
C1258 C1256 1.363 . S
C1258 C1259 1.370 . S
C1258 C1262 1.524 . S
C1259 C1251 1.503 . S
C1259 C1258 1.370 . S
C1259 C1260 1.403 . S
C1260 C1259 1.403 . S
C1260 C1261 1.404 . S
C1260 C1263 1.539 . S
C1261 C1257 1.408 . S
C1261 C1260 1.404 . S
C1261 H1273 0.930 . S
C1262 C1258 1.524 . S
C1262 H1274 0.956 . S
C1262 H1275 0.961 . S
C1262 H1276 0.961 1_655 S
C1263 C1260 1.539 . S
C1263 H1277 0.958 . S
C1263 H1278 0.961 . S
C1263 H1279 0.960 . S
H1264 C1248 0.931 . S
H1265 C1253 0.929 . S
H1266 C1254 0.960 . S
H1267 C1254 0.944 1_455 S
H1268 C1254 0.960 . S
H1269 C1255 0.961 . S
H1270 C1255 0.961 . S
H1271 C1255 0.961 . S
H1272 C1256 0.931 1_455 S
H1273 C1261 0.930 . S
H1274 C1262 0.956 . S
H1275 C1262 0.961 . S
H1276 C1262 0.961 1_455 S
H1277 C1263 0.958 . S
H1278 C1263 0.961 . S
H1279 C1263 0.960 . S
C1280 C1281 1.391 . S
C1280 C1282 1.394 . S
C1280 H1296 0.931 . S
C1281 C1280 1.391 . S
C1281 C1285 1.376 . S
C1282 C1280 1.394 . S
C1282 C1283 1.369 . S
C1282 C1286 1.534 1_565 S
C1283 C1282 1.369 . S
C1283 C1284 1.410 . S
C1283 C1291 1.503 . S
C1284 C1283 1.410 . S
C1284 C1285 1.392 . S
C1284 C1287 1.511 . S
C1285 C1281 1.376 . S
C1285 C1284 1.392 . S
C1285 H1297 0.929 . S
C1286 C1282 1.534 1_545 S
C1286 H1298 0.959 . S
C1286 H1299 0.961 . S
C1286 H1300 0.959 . S
C1287 C1284 1.511 . S
C1287 H1301 0.961 . S
C1287 H1302 0.961 . S
C1287 H1303 0.961 . S
C1288 C1289 1.370 . S
C1288 C1290 1.363 . S
C1288 H1304 0.931 . S
C1289 C1288 1.370 . S
C1289 C1293 1.408 . S
C1290 C1288 1.363 . S
C1290 C1291 1.370 . S
C1290 C1294 1.524 . S
C1291 C1283 1.503 . S
C1291 C1290 1.370 . S
C1291 C1292 1.403 . S
C1292 C1291 1.403 . S
C1292 C1293 1.404 . S
C1292 C1295 1.539 . S
C1293 C1289 1.408 . S
C1293 C1292 1.404 . S
C1293 H1305 0.930 . S
C1294 C1290 1.524 . S
C1294 H1306 0.956 . S
C1294 H1307 0.961 . S
C1294 H1308 0.961 . S
C1295 C1292 1.539 . S
C1295 H1309 0.958 . S
C1295 H1310 0.961 . S
C1295 H1311 0.960 . S
H1296 C1280 0.931 . S
H1297 C1285 0.929 . S
H1298 C1286 0.959 . S
H1299 C1286 0.961 . S
H1300 C1286 0.959 . S
H1301 C1287 0.961 . S
H1302 C1287 0.961 . S
H1303 C1287 0.961 . S
H1304 C1288 0.931 . S
H1305 C1293 0.930 . S
H1306 C1294 0.956 . S
H1307 C1294 0.961 . S
H1308 C1294 0.961 . S
H1309 C1295 0.958 . S
H1310 C1295 0.961 . S
H1311 C1295 0.960 . S
C1312 C1313 1.391 . S
C1312 C1314 1.394 . S
C1312 H1328 0.931 . S
C1313 C1312 1.391 . S
C1313 C1317 1.376 . S
C1314 C1312 1.394 . S
C1314 C1315 1.369 . S
C1314 C1318 1.531 . S
C1315 C1314 1.369 . S
C1315 C1316 1.410 . S
C1315 C1323 1.503 . S
C1316 C1315 1.410 . S
C1316 C1317 1.392 . S
C1316 C1319 1.511 . S
C1317 C1313 1.376 . S
C1317 C1316 1.392 . S
C1317 H1329 0.929 . S
C1318 C1314 1.531 . S
C1318 H1330 0.960 . S
C1318 H1331 0.962 . S
C1318 H1332 0.960 . S
C1319 C1316 1.511 . S
C1319 H1333 0.961 . S
C1319 H1334 0.961 . S
C1319 H1335 0.961 . S
C1320 C1321 1.370 . S
C1320 C1322 1.363 . S
C1320 H1336 0.931 . S
C1321 C1320 1.370 . S
C1321 C1325 1.408 . S
C1322 C1320 1.363 . S
C1322 C1323 1.370 . S
C1322 C1326 1.524 . S
C1323 C1315 1.503 . S
C1323 C1322 1.370 . S
C1323 C1324 1.403 . S
C1324 C1323 1.403 . S
C1324 C1325 1.404 . S
C1324 C1327 1.539 . S
C1325 C1321 1.408 . S
C1325 C1324 1.404 . S
C1325 H1337 0.930 . S
C1326 C1322 1.524 . S
C1326 H1338 0.956 . S
C1326 H1339 0.961 . S
C1326 H1340 0.961 . S
C1327 C1324 1.539 . S
C1327 H1341 0.958 . S
C1327 H1342 0.961 . S
C1327 H1343 0.960 . S
H1328 C1312 0.931 . S
H1329 C1317 0.929 . S
H1330 C1318 0.960 . S
H1331 C1318 0.962 . S
H1332 C1318 0.960 . S
H1333 C1319 0.961 . S
H1334 C1319 0.961 . S
H1335 C1319 0.961 . S
H1336 C1320 0.931 . S
H1337 C1325 0.930 . S
H1338 C1326 0.956 . S
H1339 C1326 0.961 . S
H1340 C1326 0.961 . S
H1341 C1327 0.958 . S
H1342 C1327 0.961 . S
H1343 C1327 0.960 . S
C1344 C1345 1.391 . S
C1344 C1346 1.394 . S
C1344 H1360 0.931 . S
C1345 C1344 1.391 . S
C1345 C1349 1.376 . S
C1346 C1344 1.394 . S
C1346 C1347 1.369 . S
C1346 C1350 1.531 . S
C1347 C1346 1.369 . S
C1347 C1348 1.410 . S
C1347 C1355 1.503 . S
C1348 C1347 1.410 . S
C1348 C1349 1.392 . S
C1348 C1351 1.511 . S
C1349 C1345 1.376 . S
C1349 C1348 1.392 . S
C1349 H1361 0.929 . S
C1350 C1346 1.531 . S
C1350 H1362 0.960 . S
C1350 H1363 0.962 . S
C1350 H1364 0.960 . S
C1351 C1348 1.511 . S
C1351 H1365 0.961 . S
C1351 H1366 0.961 . S
C1351 H1367 0.961 . S
C1352 C1353 1.370 . S
C1352 C1354 1.363 . S
C1352 H1368 0.931 . S
C1353 C1352 1.370 . S
C1353 C1357 1.408 . S
C1354 C1352 1.363 . S
C1354 C1355 1.370 . S
C1354 C1358 1.524 . S
C1355 C1347 1.503 . S
C1355 C1354 1.370 . S
C1355 C1356 1.403 . S
C1356 C1355 1.403 . S
C1356 C1357 1.404 . S
C1356 C1359 1.539 . S
C1357 C1353 1.408 . S
C1357 C1356 1.404 . S
C1357 H1369 0.930 . S
C1358 C1354 1.524 . S
C1358 H1370 0.956 . S
C1358 H1371 0.961 . S
C1358 H1372 0.961 . S
C1359 C1356 1.539 . S
C1359 H1373 0.958 . S
C1359 H1374 0.961 . S
C1359 H1375 0.960 . S
H1360 C1344 0.931 . S
H1361 C1349 0.929 . S
H1362 C1350 0.960 . S
H1363 C1350 0.962 . S
H1364 C1350 0.960 . S
H1365 C1351 0.961 . S
H1366 C1351 0.961 . S
H1367 C1351 0.961 . S
H1368 C1352 0.931 . S
H1369 C1357 0.930 . S
H1370 C1358 0.956 . S
H1371 C1358 0.961 . S
H1372 C1358 0.961 . S
H1373 C1359 0.958 . S
H1374 C1359 0.961 . S
H1375 C1359 0.960 . S
C1376 C1377 1.391 . S
C1376 C1378 1.394 . S
C1376 H1392 0.931 . S
C1377 C1376 1.391 . S
C1377 C1381 1.376 . S
C1378 C1376 1.394 . S
C1378 C1379 1.369 . S
C1378 C1382 1.531 . S
C1379 C1378 1.369 . S
C1379 C1380 1.410 . S
C1379 C1387 1.503 . S
C1380 C1379 1.410 . S
C1380 C1381 1.392 . S
C1380 C1383 1.511 . S
C1381 C1377 1.376 . S
C1381 C1380 1.392 . S
C1381 H1393 0.929 . S
C1382 C1378 1.531 . S
C1382 H1394 0.960 . S
C1382 H1395 0.962 . S
C1382 H1396 0.960 . S
C1383 C1380 1.511 . S
C1383 H1397 0.961 . S
C1383 H1398 0.961 . S
C1383 H1399 0.961 1_554 S
C1384 C1385 1.364 1_554 S
C1384 C1386 1.368 . S
C1384 H1400 0.933 . S
C1385 C1384 1.364 1_556 S
C1385 C1389 1.408 . S
C1386 C1384 1.368 . S
C1386 C1387 1.370 . S
C1386 C1390 1.524 . S
C1387 C1379 1.503 . S
C1387 C1386 1.370 . S
C1387 C1388 1.403 1_554 S
C1388 C1387 1.403 1_556 S
C1388 C1389 1.404 . S
C1388 C1391 1.539 . S
C1389 C1385 1.408 . S
C1389 C1388 1.404 . S
C1389 H1401 0.930 . S
C1390 C1386 1.524 . S
C1390 H1402 0.956 . S
C1390 H1403 0.961 . S
C1390 H1404 0.961 . S
C1391 C1388 1.539 . S
C1391 H1405 0.958 . S
C1391 H1406 0.961 . S
C1391 H1407 0.960 . S
H1392 C1376 0.931 . S
H1393 C1381 0.929 . S
H1394 C1382 0.960 . S
H1395 C1382 0.962 . S
H1396 C1382 0.960 . S
H1397 C1383 0.961 . S
H1398 C1383 0.961 . S
H1399 C1383 0.961 1_556 S
H1400 C1384 0.933 . S
H1401 C1389 0.930 . S
H1402 C1390 0.956 . S
H1403 C1390 0.961 . S
H1404 C1390 0.961 . S
H1405 C1391 0.958 . S
H1406 C1391 0.961 . S
H1407 C1391 0.960 . S
C1408 C1409 1.393 . S
C1408 C1410 1.392 1_556 S
C1408 H1424 0.930 1_556 S
C1409 C1408 1.393 . S
C1409 C1413 1.376 . S
C1410 C1408 1.392 1_554 S
C1410 C1411 1.369 . S
C1410 C1414 1.531 . S
C1411 C1410 1.369 . S
C1411 C1412 1.410 1_554 S
C1411 C1419 1.503 . S
C1412 C1411 1.410 1_556 S
C1412 C1413 1.392 . S
C1412 C1415 1.511 . S
C1413 C1409 1.376 . S
C1413 C1412 1.392 . S
C1413 H1425 0.929 . S
C1414 C1410 1.531 . S
C1414 H1426 0.960 . S
C1414 H1427 0.962 . S
C1414 H1428 0.960 . S
C1415 C1412 1.511 . S
C1415 H1429 0.961 . S
C1415 H1430 0.961 . S
C1415 H1431 0.961 . S
C1416 C1417 1.370 . S
C1416 C1418 1.363 . S
C1416 H1432 0.931 . S
C1417 C1416 1.370 . S
C1417 C1421 1.408 . S
C1418 C1416 1.363 . S
C1418 C1419 1.370 . S
C1418 C1422 1.524 . S
C1419 C1411 1.503 . S
C1419 C1418 1.370 . S
C1419 C1420 1.403 . S
C1420 C1419 1.403 . S
C1420 C1421 1.404 . S
C1420 C1423 1.539 . S
C1421 C1417 1.408 . S
C1421 C1420 1.404 . S
C1421 H1433 0.930 . S
C1422 C1418 1.524 . S
C1422 H1434 0.956 . S
C1422 H1435 0.961 . S
C1422 H1436 0.961 . S
C1423 C1420 1.539 . S
C1423 H1437 0.958 . S
C1423 H1438 0.961 . S
C1423 H1439 0.960 . S
H1424 C1408 0.930 1_554 S
H1425 C1413 0.929 . S
H1426 C1414 0.960 . S
H1427 C1414 0.962 . S
H1428 C1414 0.960 . S
H1429 C1415 0.961 . S
H1430 C1415 0.961 . S
H1431 C1415 0.961 . S
H1432 C1416 0.931 . S
H1433 C1421 0.930 . S
H1434 C1422 0.956 . S
H1435 C1422 0.961 . S
H1436 C1422 0.961 . S
H1437 C1423 0.958 . S
H1438 C1423 0.961 . S
H1439 C1423 0.960 . S
C1440 C1441 1.391 . S
C1440 C1442 1.394 . S
C1440 H1456 0.931 . S
C1441 C1440 1.391 . S
C1441 C1445 1.376 . S
C1442 C1440 1.394 . S
C1442 C1443 1.369 . S
C1442 C1446 1.531 1_554 S
C1443 C1442 1.369 . S
C1443 C1444 1.410 . S
C1443 C1451 1.503 . S
C1444 C1443 1.410 . S
C1444 C1445 1.392 . S
C1444 C1447 1.511 . S
C1445 C1441 1.376 . S
C1445 C1444 1.392 . S
C1445 H1457 0.929 . S
C1446 C1442 1.531 1_556 S
C1446 H1458 0.960 . S
C1446 H1459 0.962 . S
C1446 H1460 0.960 . S
C1447 C1444 1.511 . S
C1447 H1461 0.961 . S
C1447 H1462 0.961 . S
C1447 H1463 0.961 . S
C1448 C1449 1.370 . S
C1448 C1450 1.363 1_556 S
C1448 H1464 0.931 . S
C1449 C1448 1.370 . S
C1449 C1453 1.408 . S
C1450 C1448 1.363 1_554 S
C1450 C1451 1.370 . S
C1450 C1454 1.524 . S
C1451 C1443 1.503 . S
C1451 C1450 1.370 . S
C1451 C1452 1.387 1_554 S
C1452 C1451 1.387 1_556 S
C1452 C1453 1.426 . S
C1452 C1455 1.532 1_556 S
C1453 C1449 1.408 . S
C1453 C1452 1.426 . S
C1453 H1465 0.930 . S
C1454 C1450 1.524 . S
C1454 H1466 0.956 . S
C1454 H1467 0.961 . S
C1454 H1468 0.961 . S
C1455 C1452 1.532 1_554 S
C1455 H1469 0.958 1_554 S
C1455 H1470 0.961 1_655 S
C1455 H1471 0.960 . S
H1456 C1440 0.931 . S
H1457 C1445 0.929 . S
H1458 C1446 0.960 . S
H1459 C1446 0.962 . S
H1460 C1446 0.960 . S
H1461 C1447 0.961 . S
H1462 C1447 0.961 . S
H1463 C1447 0.961 . S
H1464 C1448 0.931 . S
H1465 C1453 0.930 . S
H1466 C1454 0.956 . S
H1467 C1454 0.961 . S
H1468 C1454 0.961 . S
H1469 C1455 0.958 1_556 S
H1470 C1455 0.961 1_455 S
H1471 C1455 0.960 . S
C1472 C1473 1.391 . S
C1472 C1474 1.400 . S
C1472 H1488 0.931 . S
C1473 C1472 1.391 . S
C1473 C1477 1.376 . S
C1474 C1472 1.400 . S
C1474 C1475 1.363 1_556 S
C1474 C1478 1.530 1_556 S
C1475 C1474 1.363 1_554 S
C1475 C1476 1.410 . S
C1475 C1483 1.503 . S
C1476 C1475 1.410 . S
C1476 C1477 1.392 1_554 S
C1476 C1479 1.511 . S
C1477 C1473 1.376 . S
C1477 C1476 1.392 1_556 S
C1477 H1489 0.929 . S
C1478 C1474 1.530 1_554 S
C1478 H1490 0.960 . S
C1478 H1491 0.962 1_554 S
C1478 H1492 0.960 1_554 S
C1479 C1476 1.511 . S
C1479 H1493 0.961 1_565 S
C1479 H1494 0.961 . S
C1479 H1495 0.961 . S
C1480 C1481 1.370 . S
C1480 C1482 1.363 . S
C1480 H1496 0.931 . S
C1481 C1480 1.370 . S
C1481 C1485 1.408 . S
C1482 C1480 1.363 . S
C1482 C1483 1.370 . S
C1482 C1486 1.524 . S
C1483 C1475 1.503 . S
C1483 C1482 1.370 . S
C1483 C1484 1.403 . S
C1484 C1483 1.403 . S
C1484 C1485 1.404 . S
C1484 C1487 1.539 . S
C1485 C1481 1.408 . S
C1485 C1484 1.404 . S
C1485 H1497 0.930 . S
C1486 C1482 1.524 . S
C1486 H1498 0.956 1_554 S
C1486 H1499 0.961 1_554 S
C1486 H1500 0.961 1_554 S
C1487 C1484 1.539 . S
C1487 H1501 0.958 . S
C1487 H1502 0.961 . S
C1487 H1503 0.960 . S
H1488 C1472 0.931 . S
H1489 C1477 0.929 . S
H1490 C1478 0.960 . S
H1491 C1478 0.962 1_556 S
H1492 C1478 0.960 1_556 S
H1493 C1479 0.961 1_545 S
H1494 C1479 0.961 . S
H1495 C1479 0.961 . S
H1496 C1480 0.931 . S
H1497 C1485 0.930 . S
H1498 C1486 0.956 1_556 S
H1499 C1486 0.961 1_556 S
H1500 C1486 0.961 1_556 S
H1501 C1487 0.958 . S
H1502 C1487 0.961 . S
H1503 C1487 0.960 . S
C1504 C1505 1.391 . S
C1504 C1506 1.394 . S
C1504 H1520 0.931 . S
C1505 C1504 1.391 . S
C1505 C1509 1.376 . S
C1506 C1504 1.394 . S
C1506 C1507 1.369 . S
C1506 C1510 1.531 . S
C1507 C1506 1.369 . S
C1507 C1508 1.410 . S
C1507 C1515 1.503 . S
C1508 C1507 1.410 . S
C1508 C1509 1.392 . S
C1508 C1511 1.511 . S
C1509 C1505 1.376 . S
C1509 C1508 1.392 . S
C1509 H1521 0.929 . S
C1510 C1506 1.531 . S
C1510 H1522 0.960 . S
C1510 H1523 0.962 . S
C1510 H1524 0.960 . S
C1511 C1508 1.511 . S
C1511 H1525 0.961 . S
C1511 H1526 0.961 . S
C1511 H1527 0.961 . S
C1512 C1513 1.370 . S
C1512 C1514 1.363 . S
C1512 H1528 0.931 . S
C1513 C1512 1.370 . S
C1513 C1517 1.408 . S
C1514 C1512 1.363 . S
C1514 C1515 1.370 . S
C1514 C1518 1.524 . S
C1515 C1507 1.503 . S
C1515 C1514 1.370 . S
C1515 C1516 1.403 . S
C1516 C1515 1.403 . S
C1516 C1517 1.404 . S
C1516 C1519 1.539 . S
C1517 C1513 1.408 . S
C1517 C1516 1.404 . S
C1517 H1529 0.930 . S
C1518 C1514 1.524 . S
C1518 H1530 0.956 . S
C1518 H1531 0.961 . S
C1518 H1532 0.961 . S
C1519 C1516 1.539 . S
C1519 H1533 0.958 . S
C1519 H1534 0.961 1_455 S
C1519 H1535 0.960 . S
H1520 C1504 0.931 . S
H1521 C1509 0.929 . S
H1522 C1510 0.960 . S
H1523 C1510 0.962 . S
H1524 C1510 0.960 . S
H1525 C1511 0.961 . S
H1526 C1511 0.961 . S
H1527 C1511 0.961 . S
H1528 C1512 0.931 . S
H1529 C1517 0.930 . S
H1530 C1518 0.956 . S
H1531 C1518 0.961 . S
H1532 C1518 0.961 . S
H1533 C1519 0.958 . S
H1534 C1519 0.961 1_655 S
H1535 C1519 0.960 . S
C1536 C1537 1.391 . S
C1536 C1538 1.394 . S
C1536 H1552 0.931 . S
C1537 C1536 1.391 . S
C1537 C1541 1.376 . S
C1538 C1536 1.394 . S
C1538 C1539 1.369 . S
C1538 C1542 1.531 . S
C1539 C1538 1.369 . S
C1539 C1540 1.410 . S
C1539 C1547 1.503 . S
C1540 C1539 1.410 . S
C1540 C1541 1.392 . S
C1540 C1543 1.511 . S
C1541 C1537 1.376 . S
C1541 C1540 1.392 . S
C1541 H1553 0.929 . S
C1542 C1538 1.531 . S
C1542 H1554 0.960 . S
C1542 H1555 0.962 . S
C1542 H1556 0.960 . S
C1543 C1540 1.511 . S
C1543 H1557 0.961 . S
C1543 H1558 0.961 . S
C1543 H1559 0.961 . S
C1544 C1545 1.370 . S
C1544 C1546 1.363 . S
C1544 H1560 0.931 . S
C1545 C1544 1.370 . S
C1545 C1549 1.408 . S
C1546 C1544 1.363 . S
C1546 C1547 1.370 . S
C1546 C1550 1.524 . S
C1547 C1539 1.503 . S
C1547 C1546 1.370 . S
C1547 C1548 1.403 . S
C1548 C1547 1.403 . S
C1548 C1549 1.404 . S
C1548 C1551 1.539 . S
C1549 C1545 1.408 . S
C1549 C1548 1.404 . S
C1549 H1561 0.930 . S
C1550 C1546 1.524 . S
C1550 H1562 0.956 . S
C1550 H1563 0.961 . S
C1550 H1564 0.961 . S
C1551 C1548 1.539 . S
C1551 H1565 0.958 . S
C1551 H1566 0.961 . S
C1551 H1567 0.960 . S
H1552 C1536 0.931 . S
H1553 C1541 0.929 . S
H1554 C1542 0.960 . S
H1555 C1542 0.962 . S
H1556 C1542 0.960 . S
H1557 C1543 0.961 . S
H1558 C1543 0.961 . S
H1559 C1543 0.961 . S
H1560 C1544 0.931 . S
H1561 C1549 0.930 . S
H1562 C1550 0.956 . S
H1563 C1550 0.961 . S
H1564 C1550 0.961 . S
H1565 C1551 0.958 . S
H1566 C1551 0.961 . S
H1567 C1551 0.960 . S
C1568 C1569 1.391 . S
C1568 C1570 1.394 . S
C1568 H1584 0.931 . S
C1569 C1568 1.391 . S
C1569 C1573 1.376 . S
C1570 C1568 1.394 . S
C1570 C1571 1.369 . S
C1570 C1574 1.531 . S
C1571 C1570 1.369 . S
C1571 C1572 1.410 . S
C1571 C1579 1.503 . S
C1572 C1571 1.410 . S
C1572 C1573 1.392 . S
C1572 C1575 1.511 . S
C1573 C1569 1.376 . S
C1573 C1572 1.392 . S
C1573 H1585 0.929 . S
C1574 C1570 1.531 . S
C1574 H1586 0.960 . S
C1574 H1587 0.962 . S
C1574 H1588 0.960 . S
C1575 C1572 1.511 . S
C1575 H1589 0.961 . S
C1575 H1590 0.961 . S
C1575 H1591 0.961 . S
C1576 C1577 1.370 . S
C1576 C1578 1.363 . S
C1576 H1592 0.931 . S
C1577 C1576 1.370 . S
C1577 C1581 1.408 . S
C1578 C1576 1.363 . S
C1578 C1579 1.370 . S
C1578 C1582 1.524 . S
C1579 C1571 1.503 . S
C1579 C1578 1.370 . S
C1579 C1580 1.403 . S
C1580 C1579 1.403 . S
C1580 C1581 1.404 . S
C1580 C1583 1.539 . S
C1581 C1577 1.408 . S
C1581 C1580 1.404 . S
C1581 H1593 0.930 . S
C1582 C1578 1.524 . S
C1582 H1594 0.956 . S
C1582 H1595 0.961 . S
C1582 H1596 0.961 . S
C1583 C1580 1.539 . S
C1583 H1597 0.958 . S
C1583 H1598 0.961 . S
C1583 H1599 0.960 . S
H1584 C1568 0.931 . S
H1585 C1573 0.929 . S
H1586 C1574 0.960 . S
H1587 C1574 0.962 . S
H1588 C1574 0.960 . S
H1589 C1575 0.961 . S
H1590 C1575 0.961 . S
H1591 C1575 0.961 . S
H1592 C1576 0.931 . S
H1593 C1581 0.930 . S
H1594 C1582 0.956 . S
H1595 C1582 0.961 . S
H1596 C1582 0.961 . S
H1597 C1583 0.958 . S
H1598 C1583 0.961 . S
H1599 C1583 0.960 . S
C1600 C1601 1.391 . S
C1600 C1602 1.394 . S
C1600 H1616 0.931 . S
C1601 C1600 1.391 . S
C1601 C1605 1.376 . S
C1602 C1600 1.394 . S
C1602 C1603 1.369 . S
C1602 C1606 1.531 . S
C1603 C1602 1.369 . S
C1603 C1604 1.410 . S
C1603 C1611 1.503 . S
C1604 C1603 1.410 . S
C1604 C1605 1.392 . S
C1604 C1607 1.511 . S
C1605 C1601 1.376 . S
C1605 C1604 1.392 . S
C1605 H1617 0.929 . S
C1606 C1602 1.531 . S
C1606 H1618 0.960 . S
C1606 H1619 0.962 . S
C1606 H1620 0.960 . S
C1607 C1604 1.511 . S
C1607 H1621 0.961 . S
C1607 H1622 0.961 . S
C1607 H1623 0.961 . S
C1608 C1609 1.370 . S
C1608 C1610 1.363 . S
C1608 H1624 0.931 . S
C1609 C1608 1.370 . S
C1609 C1613 1.408 . S
C1610 C1608 1.363 . S
C1610 C1611 1.370 . S
C1610 C1614 1.524 . S
C1611 C1603 1.503 . S
C1611 C1610 1.370 . S
C1611 C1612 1.403 . S
C1612 C1611 1.403 . S
C1612 C1613 1.404 . S
C1612 C1615 1.539 . S
C1613 C1609 1.408 . S
C1613 C1612 1.404 . S
C1613 H1625 0.930 . S
C1614 C1610 1.524 . S
C1614 H1626 0.956 . S
C1614 H1627 0.961 . S
C1614 H1628 0.961 . S
C1615 C1612 1.539 . S
C1615 H1629 0.958 . S
C1615 H1630 0.961 . S
C1615 H1631 0.960 . S
H1616 C1600 0.931 . S
H1617 C1605 0.929 . S
H1618 C1606 0.960 . S
H1619 C1606 0.962 . S
H1620 C1606 0.960 . S
H1621 C1607 0.961 . S
H1622 C1607 0.961 . S
H1623 C1607 0.961 . S
H1624 C1608 0.931 . S
H1625 C1613 0.930 . S
H1626 C1614 0.956 . S
H1627 C1614 0.961 . S
H1628 C1614 0.961 . S
H1629 C1615 0.958 . S
H1630 C1615 0.961 . S
H1631 C1615 0.960 . S
C1632 C1633 1.391 . S
C1632 C1634 1.394 . S
C1632 H1648 0.931 . S
C1633 C1632 1.391 . S
C1633 C1637 1.376 1_554 S
C1634 C1632 1.394 . S
C1634 C1635 1.369 1_554 S
C1634 C1638 1.531 . S
C1635 C1634 1.369 1_556 S
C1635 C1636 1.410 . S
C1635 C1643 1.503 . S
C1636 C1635 1.410 . S
C1636 C1637 1.392 . S
C1636 C1639 1.511 . S
C1637 C1633 1.376 1_556 S
C1637 C1636 1.392 . S
C1637 H1649 0.929 . S
C1638 C1634 1.531 . S
C1638 H1650 0.960 . S
C1638 H1651 0.962 . S
C1638 H1652 0.960 . S
C1639 C1636 1.511 . S
C1639 H1653 0.961 . S
C1639 H1654 0.961 . S
C1639 H1655 0.961 . S
C1640 C1641 1.370 . S
C1640 C1642 1.363 . S
C1640 H1656 0.931 . S
C1641 C1640 1.370 . S
C1641 C1645 1.408 . S
C1642 C1640 1.363 . S
C1642 C1643 1.370 . S
C1642 C1646 1.524 . S
C1643 C1635 1.503 . S
C1643 C1642 1.370 . S
C1643 C1644 1.403 . S
C1644 C1643 1.403 . S
C1644 C1645 1.404 . S
C1644 C1647 1.539 . S
C1645 C1641 1.408 . S
C1645 C1644 1.404 . S
C1645 H1657 0.930 . S
C1646 C1642 1.524 . S
C1646 H1658 0.956 . S
C1646 H1659 0.961 . S
C1646 H1660 0.961 . S
C1647 C1644 1.539 . S
C1647 H1661 0.958 . S
C1647 H1662 0.961 . S
C1647 H1663 0.960 . S
H1648 C1632 0.931 . S
H1649 C1637 0.929 . S
H1650 C1638 0.960 . S
H1651 C1638 0.962 . S
H1652 C1638 0.960 . S
H1653 C1639 0.961 . S
H1654 C1639 0.961 . S
H1655 C1639 0.961 . S
H1656 C1640 0.931 . S
H1657 C1645 0.930 . S
H1658 C1646 0.956 . S
H1659 C1646 0.961 . S
H1660 C1646 0.961 . S
H1661 C1647 0.958 . S
H1662 C1647 0.961 . S
H1663 C1647 0.960 . S
C1664 C1665 1.391 . S
C1664 C1666 1.394 . S
C1664 H1680 0.931 . S
C1665 C1664 1.391 . S
C1665 C1669 1.376 . S
C1666 C1664 1.394 . S
C1666 C1667 1.369 . S
C1666 C1670 1.531 . S
C1667 C1666 1.369 . S
C1667 C1668 1.410 . S
C1667 C1675 1.503 . S
C1668 C1667 1.410 . S
C1668 C1669 1.392 . S
C1668 C1671 1.511 . S
C1669 C1665 1.376 . S
C1669 C1668 1.392 . S
C1669 H1681 0.929 . S
C1670 C1666 1.531 . S
C1670 H1682 0.960 . S
C1670 H1683 0.962 1_556 S
C1670 H1684 0.960 . S
C1671 C1668 1.511 . S
C1671 H1685 0.961 . S
C1671 H1686 0.961 . S
C1671 H1687 0.961 . S
C1672 C1673 1.370 . S
C1672 C1674 1.363 . S
C1672 H1688 0.931 . S
C1673 C1672 1.370 . S
C1673 C1677 1.408 . S
C1674 C1672 1.363 . S
C1674 C1675 1.370 1_554 S
C1674 C1678 1.524 . S
C1675 C1667 1.503 . S
C1675 C1674 1.370 1_556 S
C1675 C1676 1.403 . S
C1676 C1675 1.403 . S
C1676 C1677 1.404 1_556 S
C1676 C1679 1.539 . S
C1677 C1673 1.408 . S
C1677 C1676 1.404 1_554 S
C1677 H1689 0.930 . S
C1678 C1674 1.524 . S
C1678 H1690 0.956 . S
C1678 H1691 0.961 1_554 S
C1678 H1692 0.961 . S
C1679 C1676 1.539 . S
C1679 H1693 0.958 . S
C1679 H1694 0.961 . S
C1679 H1695 0.960 . S
H1680 C1664 0.931 . S
H1681 C1669 0.929 . S
H1682 C1670 0.960 . S
H1683 C1670 0.962 1_554 S
H1684 C1670 0.960 . S
H1685 C1671 0.961 . S
H1686 C1671 0.961 . S
H1687 C1671 0.961 . S
H1688 C1672 0.931 . S
H1689 C1677 0.930 . S
H1690 C1678 0.956 . S
H1691 C1678 0.961 1_556 S
H1692 C1678 0.961 . S
H1693 C1679 0.958 . S
H1694 C1679 0.961 . S
H1695 C1679 0.960 . S
C1696 C1697 1.391 . S
C1696 C1698 1.394 . S
C1696 H1712 0.931 . S
C1697 C1696 1.391 . S
C1697 C1701 1.376 . S
C1698 C1696 1.394 . S
C1698 C1699 1.369 1_554 S
C1698 C1702 1.531 . S
C1699 C1698 1.369 1_556 S
C1699 C1700 1.410 . S
C1699 C1707 1.503 . S
C1700 C1699 1.410 . S
C1700 C1701 1.392 1_556 S
C1700 C1703 1.511 . S
C1701 C1697 1.376 . S
C1701 C1700 1.392 1_554 S
C1701 H1713 0.929 1_554 S
C1702 C1698 1.531 . S
C1702 H1714 0.960 . S
C1702 H1715 0.962 . S
C1702 H1716 0.960 . S
C1703 C1700 1.511 . S
C1703 H1717 0.961 . S
C1703 H1718 0.961 . S
C1703 H1719 0.961 . S
C1704 C1705 1.370 . S
C1704 C1706 1.363 . S
C1704 H1720 0.931 . S
C1705 C1704 1.370 . S
C1705 C1709 1.408 . S
C1706 C1704 1.363 . S
C1706 C1707 1.370 . S
C1706 C1710 1.524 . S
C1707 C1699 1.503 . S
C1707 C1706 1.370 . S
C1707 C1708 1.403 . S
C1708 C1707 1.403 . S
C1708 C1709 1.404 . S
C1708 C1711 1.539 . S
C1709 C1705 1.408 . S
C1709 C1708 1.404 . S
C1709 H1721 0.930 . S
C1710 C1706 1.524 . S
C1710 H1722 0.956 . S
C1710 H1723 0.961 . S
C1710 H1724 0.961 . S
C1711 C1708 1.539 . S
C1711 H1725 0.958 1_556 S
C1711 H1726 0.961 . S
C1711 H1727 0.960 . S
H1712 C1696 0.931 . S
H1713 C1701 0.929 1_556 S
H1714 C1702 0.960 . S
H1715 C1702 0.962 . S
H1716 C1702 0.960 . S
H1717 C1703 0.961 . S
H1718 C1703 0.961 . S
H1719 C1703 0.961 . S
H1720 C1704 0.931 . S
H1721 C1709 0.930 . S
H1722 C1710 0.956 . S
H1723 C1710 0.961 . S
H1724 C1710 0.961 . S
H1725 C1711 0.958 1_554 S
H1726 C1711 0.961 . S
H1727 C1711 0.960 . S
C1728 C1729 1.391 . S
C1728 C1730 1.394 . S
C1728 H1744 0.931 . S
C1729 C1728 1.391 . S
C1729 C1733 1.376 1_554 S
C1730 C1728 1.394 . S
C1730 C1731 1.369 1_554 S
C1730 C1734 1.531 . S
C1731 C1730 1.369 1_556 S
C1731 C1732 1.410 . S
C1731 C1739 1.503 . S
C1732 C1731 1.410 . S
C1732 C1733 1.392 . S
C1732 C1735 1.511 . S
C1733 C1729 1.376 1_556 S
C1733 C1732 1.392 . S
C1733 H1745 0.929 . S
C1734 C1730 1.531 . S
C1734 H1746 0.960 . S
C1734 H1747 0.962 . S
C1734 H1748 0.960 . S
C1735 C1732 1.511 . S
C1735 H1749 0.961 . S
C1735 H1750 0.961 . S
C1735 H1751 0.961 . S
C1736 C1737 1.370 . S
C1736 C1738 1.363 . S
C1736 H1752 0.931 . S
C1737 C1736 1.370 . S
C1737 C1741 1.408 . S
C1738 C1736 1.363 . S
C1738 C1739 1.370 . S
C1738 C1742 1.524 . S
C1739 C1731 1.503 . S
C1739 C1738 1.370 . S
C1739 C1740 1.403 . S
C1740 C1739 1.403 . S
C1740 C1741 1.404 . S
C1740 C1743 1.539 . S
C1741 C1737 1.408 . S
C1741 C1740 1.404 . S
C1741 H1753 0.930 . S
C1742 C1738 1.524 . S
C1742 H1754 0.956 . S
C1742 H1755 0.961 . S
C1742 H1756 0.961 . S
C1743 C1740 1.539 . S
C1743 H1757 0.958 . S
C1743 H1758 0.961 . S
C1743 H1759 0.960 . S
H1744 C1728 0.931 . S
H1745 C1733 0.929 . S
H1746 C1734 0.960 . S
H1747 C1734 0.962 . S
H1748 C1734 0.960 . S
H1749 C1735 0.961 . S
H1750 C1735 0.961 . S
H1751 C1735 0.961 . S
H1752 C1736 0.931 . S
H1753 C1741 0.930 . S
H1754 C1742 0.956 . S
H1755 C1742 0.961 . S
H1756 C1742 0.961 . S
H1757 C1743 0.958 . S
H1758 C1743 0.961 . S
H1759 C1743 0.960 . S
C1760 C1761 1.391 . S
C1760 C1762 1.394 . S
C1760 H1776 0.931 . S
C1761 C1760 1.391 . S
C1761 C1765 1.376 . S
C1762 C1760 1.394 . S
C1762 C1763 1.369 . S
C1762 C1766 1.531 . S
C1763 C1762 1.369 . S
C1763 C1764 1.410 . S
C1763 C1771 1.503 . S
C1764 C1763 1.410 . S
C1764 C1765 1.392 . S
C1764 C1767 1.511 . S
C1765 C1761 1.376 . S
C1765 C1764 1.392 . S
C1765 H1777 0.929 . S
C1766 C1762 1.531 . S
C1766 H1778 0.960 . S
C1766 H1779 0.962 . S
C1766 H1780 0.960 . S
C1767 C1764 1.511 . S
C1767 H1781 0.961 . S
C1767 H1782 0.961 . S
C1767 H1783 0.961 . S
C1768 C1769 1.370 . S
C1768 C1770 1.363 . S
C1768 H1784 0.931 . S
C1769 C1768 1.370 . S
C1769 C1773 1.408 . S
C1770 C1768 1.363 . S
C1770 C1771 1.370 . S
C1770 C1774 1.524 . S
C1771 C1763 1.503 . S
C1771 C1770 1.370 . S
C1771 C1772 1.403 . S
C1772 C1771 1.403 . S
C1772 C1773 1.404 . S
C1772 C1775 1.539 . S
C1773 C1769 1.408 . S
C1773 C1772 1.404 . S
C1773 H1785 0.930 . S
C1774 C1770 1.524 . S
C1774 H1786 0.956 . S
C1774 H1787 0.961 . S
C1774 H1788 0.961 . S
C1775 C1772 1.539 . S
C1775 H1789 0.958 . S
C1775 H1790 0.961 . S
C1775 H1791 0.960 . S
H1776 C1760 0.931 . S
H1777 C1765 0.929 . S
H1778 C1766 0.960 . S
H1779 C1766 0.962 . S
H1780 C1766 0.960 . S
H1781 C1767 0.961 . S
H1782 C1767 0.961 . S
H1783 C1767 0.961 . S
H1784 C1768 0.931 . S
H1785 C1773 0.930 . S
H1786 C1774 0.956 . S
H1787 C1774 0.961 . S
H1788 C1774 0.961 . S
H1789 C1775 0.958 . S
H1790 C1775 0.961 . S
H1791 C1775 0.960 . S
C1792 C1793 1.391 . S
C1792 C1794 1.394 . S
C1792 H1808 0.931 . S
C1793 C1792 1.391 . S
C1793 C1797 1.376 . S
C1794 C1792 1.394 . S
C1794 C1795 1.369 . S
C1794 C1798 1.531 . S
C1795 C1794 1.369 . S
C1795 C1796 1.410 . S
C1795 C1803 1.503 . S
C1796 C1795 1.410 . S
C1796 C1797 1.392 . S
C1796 C1799 1.511 . S
C1797 C1793 1.376 . S
C1797 C1796 1.392 . S
C1797 H1809 0.929 . S
C1798 C1794 1.531 . S
C1798 H1810 0.960 . S
C1798 H1811 0.962 . S
C1798 H1812 0.960 . S
C1799 C1796 1.511 . S
C1799 H1813 0.961 . S
C1799 H1814 0.961 . S
C1799 H1815 0.961 . S
C1800 C1801 1.370 . S
C1800 C1802 1.363 . S
C1800 H1816 0.931 . S
C1801 C1800 1.370 . S
C1801 C1805 1.408 . S
C1802 C1800 1.363 . S
C1802 C1803 1.370 . S
C1802 C1806 1.524 . S
C1803 C1795 1.503 . S
C1803 C1802 1.370 . S
C1803 C1804 1.403 . S
C1804 C1803 1.403 . S
C1804 C1805 1.404 . S
C1804 C1807 1.539 . S
C1805 C1801 1.408 . S
C1805 C1804 1.404 . S
C1805 H1817 0.930 . S
C1806 C1802 1.524 . S
C1806 H1818 0.956 . S
C1806 H1819 0.961 . S
C1806 H1820 0.961 . S
C1807 C1804 1.539 . S
C1807 H1821 0.958 . S
C1807 H1822 0.961 . S
C1807 H1823 0.960 . S
H1808 C1792 0.931 . S
H1809 C1797 0.929 . S
H1810 C1798 0.960 . S
H1811 C1798 0.962 . S
H1812 C1798 0.960 . S
H1813 C1799 0.961 . S
H1814 C1799 0.961 . S
H1815 C1799 0.961 . S
H1816 C1800 0.931 . S
H1817 C1805 0.930 . S
H1818 C1806 0.956 . S
H1819 C1806 0.961 . S
H1820 C1806 0.961 . S
H1821 C1807 0.958 . S
H1822 C1807 0.961 . S
H1823 C1807 0.960 . S
C1824 C1825 1.391 . S
C1824 C1826 1.394 . S
C1824 H1840 0.931 . S
C1825 C1824 1.391 . S
C1825 C1829 1.376 . S
C1826 C1824 1.394 . S
C1826 C1827 1.369 . S
C1826 C1830 1.531 . S
C1827 C1826 1.369 . S
C1827 C1828 1.410 . S
C1827 C1835 1.503 . S
C1828 C1827 1.410 . S
C1828 C1829 1.392 . S
C1828 C1831 1.511 . S
C1829 C1825 1.376 . S
C1829 C1828 1.392 . S
C1829 H1841 0.929 . S
C1830 C1826 1.531 . S
C1830 H1842 0.960 . S
C1830 H1843 0.962 . S
C1830 H1844 0.960 . S
C1831 C1828 1.511 . S
C1831 H1845 0.961 . S
C1831 H1846 0.961 . S
C1831 H1847 0.961 . S
C1832 C1833 1.370 . S
C1832 C1834 1.363 . S
C1832 H1848 0.931 . S
C1833 C1832 1.370 . S
C1833 C1837 1.408 . S
C1834 C1832 1.363 . S
C1834 C1835 1.370 . S
C1834 C1838 1.524 . S
C1835 C1827 1.503 . S
C1835 C1834 1.370 . S
C1835 C1836 1.403 . S
C1836 C1835 1.403 . S
C1836 C1837 1.404 . S
C1836 C1839 1.539 . S
C1837 C1833 1.408 . S
C1837 C1836 1.404 . S
C1837 H1849 0.930 . S
C1838 C1834 1.524 . S
C1838 H1850 0.956 . S
C1838 H1851 0.961 . S
C1838 H1852 0.961 . S
C1839 C1836 1.539 . S
C1839 H1853 0.958 . S
C1839 H1854 0.961 . S
C1839 H1855 0.960 . S
H1840 C1824 0.931 . S
H1841 C1829 0.929 . S
H1842 C1830 0.960 . S
H1843 C1830 0.962 . S
H1844 C1830 0.960 . S
H1845 C1831 0.961 . S
H1846 C1831 0.961 . S
H1847 C1831 0.961 . S
H1848 C1832 0.931 . S
H1849 C1837 0.930 . S
H1850 C1838 0.956 . S
H1851 C1838 0.961 . S
H1852 C1838 0.961 . S
H1853 C1839 0.958 . S
H1854 C1839 0.961 . S
H1855 C1839 0.960 . S
C1856 C1857 1.391 . S
C1856 C1858 1.394 . S
C1856 H1872 0.931 . S
C1857 C1856 1.391 . S
C1857 C1861 1.376 . S
C1858 C1856 1.394 . S
C1858 C1859 1.369 . S
C1858 C1862 1.531 . S
C1859 C1858 1.369 . S
C1859 C1860 1.410 . S
C1859 C1867 1.503 . S
C1860 C1859 1.410 . S
C1860 C1861 1.392 . S
C1860 C1863 1.511 . S
C1861 C1857 1.376 . S
C1861 C1860 1.392 . S
C1861 H1873 0.929 . S
C1862 C1858 1.531 . S
C1862 H1874 0.960 . S
C1862 H1875 0.962 . S
C1862 H1876 0.960 . S
C1863 C1860 1.511 . S
C1863 H1877 0.961 . S
C1863 H1878 0.961 . S
C1863 H1879 0.961 . S
C1864 C1865 1.370 . S
C1864 C1866 1.363 . S
C1864 H1880 0.931 . S
C1865 C1864 1.370 . S
C1865 C1869 1.408 . S
C1866 C1864 1.363 . S
C1866 C1867 1.370 . S
C1866 C1870 1.524 . S
C1867 C1859 1.503 . S
C1867 C1866 1.370 . S
C1867 C1868 1.403 . S
C1868 C1867 1.403 . S
C1868 C1869 1.404 . S
C1868 C1871 1.539 . S
C1869 C1865 1.408 . S
C1869 C1868 1.404 . S
C1869 H1881 0.930 . S
C1870 C1866 1.524 . S
C1870 H1882 0.956 . S
C1870 H1883 0.961 . S
C1870 H1884 0.961 . S
C1871 C1868 1.539 . S
C1871 H1885 0.958 . S
C1871 H1886 0.961 . S
C1871 H1887 0.960 . S
H1872 C1856 0.931 . S
H1873 C1861 0.929 . S
H1874 C1862 0.960 . S
H1875 C1862 0.962 . S
H1876 C1862 0.960 . S
H1877 C1863 0.961 . S
H1878 C1863 0.961 . S
H1879 C1863 0.961 . S
H1880 C1864 0.931 . S
H1881 C1869 0.930 . S
H1882 C1870 0.956 . S
H1883 C1870 0.961 . S
H1884 C1870 0.961 . S
H1885 C1871 0.958 . S
H1886 C1871 0.961 . S
H1887 C1871 0.960 . S
C353 C10 1.354 . S
C361 C120 1.371 . S
C385 C30 1.361 . S
C393 C150 1.367 . S
C417 C172 1.366 . S
C425 C52 1.365 . S
C449 C98 1.361 . S
C457 C76 1.367 . S
C481 C194 1.369 . S
C489 C296 1.362 . S
C513 C206 1.368 . S
C521 C316 1.357 . S
C545 C238 1.373 . S
C553 C340 1.358 . S
C577 C252 1.372 . S
C585 C272 1.359 . S
C609 C7 0.850 . S
C617 C191 0.810 . S
C641 C37 0.834 . S
C649 C205 0.822 . S
C673 C235 0.881 . S
C681 C59 0.801 . S
C705 C263 0.815 . S
C713 C73 0.826 . S
C737 C95 0.807 . S
C745 C271 0.829 . S
C769 C117 0.813 . S
C777 C307 0.831 . S
C801 C315 0.868 . S
C809 C153 0.805 . S
C833 C351 0.880 . S
C841 C175 0.802 . S
C865 C18 1.560 . S
C873 C40 1.546 . S
C897 C32 1.593 . S
C905 C62 1.567 . S
C929 C74 1.530 1_655 S
C937 C54 1.577 . S
C961 C84 1.560 . S
C969 C8 1.543 1_565 S
C993 C106 1.574 . S
C1001 C164 1.550 1_455 S
C1025 C128 1.560 . S
C1033 C96 1.543 1_545 S
C1057 C140 1.563 . S
C1065 C118 1.549 . S
C1089 C162 1.560 . S
C1097 C142 1.546 . S
C1121 C186 1.581 . S
C1129 C208 1.562 . S
C1153 C228 1.530 . S
C1161 C216 1.563 . S
C1185 C260 1.572 1_455 S
C1193 C230 1.577 . S
C1217 C184 1.573 1_545 S
C1225 C250 1.577 . S
C1249 C282 1.578 . S
C1257 C348 1.561 1_655 S
C1281 C294 1.584 . S
C1289 C274 1.563 1_565 S
C1313 C304 1.561 . S
C1321 C326 1.572 . S
C1345 C338 1.553 . S
C1353 C318 1.545 . S
C1377 C15 1.532 . S
C1385 C213 1.574 . S
C1409 C241 1.558 . S
C1417 C43 1.550 . S
C1441 C65 1.547 . S
C1449 C249 1.572 . S
C1473 C197 1.586 . S
C1481 C81 1.565 . S
C1505 C103 1.555 . S
C1513 C337 1.574 . S
C1537 C279 1.581 . S
C1545 C125 1.556 . S
C1569 C293 1.559 . S
C1577 C139 1.546 . S
C1601 C161 1.554 . S
C1609 C323 1.580 . S
C1633 C29 1.563 . S
C1641 C183 1.557 . S
C1665 C219 1.563 . S
C1673 C51 1.580 . S
C1697 C87 1.555 . S
C1705 C227 1.549 . S
C1729 C21 1.562 . S
C1737 C257 1.556 . S
C1761 C169 1.567 . S
C1769 C285 1.559 . S
C1793 C301 1.531 . S
C1801 C109 1.567 . S
C1825 C329 1.566 . S
C1833 C131 1.573 . S
C1857 C345 1.556 . S
C1865 C147 1.579 . S
