# Generated by pormake.
# Topology sxa, (6)-cn, num edge types: 1
# Building blocks:
#     Node 0, Type 0, BuildingBlock: PAMTOO_clean_sbu_0, # of connection points: 6
#     Node 1, Type 0, BuildingBlock: PAMTOO_clean_sbu_0, # of connection points: 6
#     Node 2, Type 0, BuildingBlock: PAMTOO_clean_sbu_0, # of connection points: 6
#     Node 3, Type 0, BuildingBlock: PAMTOO_clean_sbu_0, # of connection points: 6
#     Edge 4, Type (0, 0), BuildingBlock: TEMPAE_clean_linker_10, # of connection points: 2
#     Edge 5, Type (0, 0), BuildingBlock: TEMPAE_clean_linker_10, # of connection points: 2
#     Edge 6, Type (0, 0), BuildingBlock: TEMPAE_clean_linker_10, # of connection points: 2
#     Edge 7, Type (0, 0), BuildingBlock: TEMPAE_clean_linker_10, # of connection points: 2
#     Edge 8, Type (0, 0), BuildingBlock: TEMPAE_clean_linker_10, # of connection points: 2
#     Edge 9, Type (0, 0), BuildingBlock: TEMPAE_clean_linker_10, # of connection points: 2
#     Edge 10, Type (0, 0), BuildingBlock: TEMPAE_clean_linker_10, # of connection points: 2
#     Edge 11, Type (0, 0), BuildingBlock: TEMPAE_clean_linker_10, # of connection points: 2
#     Edge 12, Type (0, 0), BuildingBlock: TEMPAE_clean_linker_10, # of connection points: 2
#     Edge 13, Type (0, 0), BuildingBlock: TEMPAE_clean_linker_10, # of connection points: 2
#     Edge 14, Type (0, 0), BuildingBlock: TEMPAE_clean_linker_10, # of connection points: 2
#     Edge 15, Type (0, 0), BuildingBlock: TEMPAE_clean_linker_10, # of connection points: 2
# Relax obj value: 0.224
# Max RMSD: 0.279
# Mean RMSD: 0.279
data_MOF--net-sxa--node1-PAMTOO_clean_sbu_0--edge1-TEMPAE_clean_linker_10
_symmetry_space_group_name_H-M    P1
_symmetry_Int_Tables_number       1
_symmetry_cell_setting            triclinic
loop_
_symmetry_equiv_pos_as_xyz
'x, y, z'
_cell_length_a     36.180137
_cell_length_b     28.121383
_cell_length_c     17.35045
_cell_angle_alpha  94.208521
_cell_angle_beta   124.86619
_cell_angle_gamma 80.682712
loop_
_atom_site_label
_atom_site_type_symbol
_atom_site_fract_x
_atom_site_fract_y
_atom_site_fract_z
_atom_type_partial_charge
Dy0 Dy 0.05701 0.78827 0.23834 0.0
Dy1 Dy 0.07061 0.76672 0.06808 0.0
C2 C 0.08446 0.68187 0.18092 0.0
O3 O 0.1325 0.77873 0.31703 0.0
O4 O 0.13937 0.785 0.19347 0.0
O5 O 0.06101 0.76139 0.35787 0.0
O6 O 0.02611 0.83288 0.30059 0.0
O7 O 0.03215 0.83903 0.04741 0.0
O8 O 0.07026 0.8581 0.20015 0.0
O9 O 1.00298 0.74537 0.02297 0.0
O10 O 0.98954 0.80311 0.10501 0.0
O11 O 0.08154 0.79293 0.9703 0.0
O12 O 0.06557 0.72047 0.95845 0.0
C13 C 0.15732 0.78243 0.28503 0.0
O14 O 0.05466 0.70846 0.19386 0.0
O15 O 0.10844 0.70437 0.16589 0.0
C16 C 0.99855 0.79128 0.37135 0.0
C17 C 0.93271 0.78156 0.40983 0.0
C18 C 0.97655 0.75422 0.46054 0.0
C19 C 1.00885 0.75907 0.44173 0.0
C20 C 0.95451 0.81811 0.31938 0.0
C21 C 0.92219 0.81333 0.33837 0.0
C22 C 0.03521 0.79918 0.35938 0.0
C23 C 0.05094 0.87102 0.11121 0.0
C24 C 0.97494 0.77051 0.04121 0.0
C25 C 0.11721 0.73273 0.92157 0.0
C26 C 0.19627 0.69854 0.92684 0.0
C27 C 0.18156 0.74832 0.92306 0.0
C28 C 0.1423 0.76517 0.91953 0.0
C29 C 0.13028 0.68294 0.92002 0.0
C30 C 0.16951 0.666 0.92263 0.0
C31 C 0.07925 0.75122 0.93035 0.0
H32 H 0.9861 0.72895 0.51535 0.0
H33 H 0.04241 0.73807 0.48374 0.0
H34 H 0.94515 0.84359 0.26505 0.0
H35 H 0.88922 0.83557 0.29855 0.0
H36 H 0.20155 0.77456 0.92765 0.0
H37 H 0.13271 0.80375 0.91923 0.0
H38 H 0.11107 0.65701 0.91973 0.0
H39 H 0.17949 0.62747 0.92382 0.0
Dy40 Dy 0.55275 0.28686 0.22802 0.0
Dy41 Dy 0.57594 0.24622 0.07636 0.0
C42 C 0.57169 0.17414 0.18836 0.0
O43 O 0.62923 0.27712 0.31467 0.0
O44 O 0.64192 0.26976 0.19729 0.0
O45 O 0.5538 0.27147 0.35027 0.0
O46 O 0.51331 0.33627 0.26712 0.0
O47 O 0.56161 0.3249 0.05267 0.0
O48 O 0.56857 0.35365 0.18777 0.0
O49 O 0.50398 0.23628 0.02294 0.0
O50 O 0.49269 0.30567 0.08358 0.0
O51 O 0.55466 0.2441 0.93197 0.0
O52 O 0.61286 0.195 0.03568 0.0
C53 C 0.65674 0.27435 0.28686 0.0
O54 O 0.54192 0.2073 0.19067 0.0
O55 O 0.60209 0.18945 0.18349 0.0
C56 C 0.48722 0.30305 0.34924 0.0
C57 C 0.42277 0.29368 0.39187 0.0
C58 C 0.44154 0.25357 0.36449 0.0
C59 C 0.47331 0.25816 0.34362 0.0
C60 C 0.46764 0.34317 0.374 0.0
C61 C 0.43601 0.33866 0.39476 0.0
C62 C 0.52403 0.30893 0.33658 0.0
C63 C 0.56482 0.36061 0.10811 0.0
C64 C 0.47575 0.27089 0.02608 0.0
C65 C 0.61865 0.22904 0.92395 0.0
C66 C 0.6829 0.26402 0.90854 0.0
C67 C 0.64102 0.29269 0.87795 0.0
C68 C 0.60925 0.27547 0.88598 0.0
C69 C 0.65869 0.19901 0.94701 0.0
C70 C 0.69067 0.21639 0.94009 0.0
C71 C 0.59046 0.21391 0.95136 0.0
H72 H 0.43259 0.21824 0.36136 0.0
H73 H 0.48754 0.22639 0.32464 0.0
H74 H 0.47747 0.37827 0.37896 0.0
H75 H 0.42192 0.37073 0.41324 0.0
H76 H 0.63358 0.32915 0.85149 0.0
H77 H 0.57843 0.29946 0.8667 0.0
H78 H 0.6666 0.16305 0.97604 0.0
H79 H 0.72269 0.19337 0.9653 0.0
Dy80 Dy 0.09924 0.26204 0.97182 0.0
Dy81 Dy 0.09046 0.26103 0.77702 0.0
C82 C 0.09322 0.16544 0.87594 0.0
O83 O 0.16653 0.27596 0.99999 0.0
O84 O 0.15772 0.22523 0.88743 0.0
O85 O 0.09484 0.23167 0.07633 0.0
O86 O 0.12102 0.29952 0.10105 0.0
O87 O 0.1016 0.33595 0.84628 0.0
O88 O 0.05766 0.32946 0.89607 0.0
O89 O 1.01705 0.2757 0.72084 0.0
O90 O 1.02387 0.25596 0.85642 0.0
O91 O 0.08761 0.30059 0.67007 0.0
O92 O 0.10291 0.22312 0.67824 0.0
C93 C 0.18422 0.24931 0.95994 0.0
O94 O 0.11989 0.18623 0.95456 0.0
O95 O 0.07061 0.19053 0.79527 0.0
C96 C 0.07097 0.29247 0.14473 0.0
C97 C 0.98888 0.32323 0.12875 0.0
C98 C 1.01516 0.27863 0.17269 0.0
C99 C 0.05596 0.26353 0.18096 0.0
C100 C 0.04726 0.33906 0.10962 0.0
C101 C 1.00666 0.35439 0.10219 0.0
C102 C 0.10509 0.27035 0.12693 0.0
C103 C 0.07635 0.35708 0.87565 0.0
C104 C 0.99869 0.26711 0.76469 0.0
C105 C 0.13816 0.26533 0.6254 0.0
C106 C 0.20227 0.27032 0.57925 0.0
C107 C 0.17495 0.31211 0.57997 0.0
C108 C 0.14344 0.30963 0.60226 0.0
C109 C 0.16593 0.22361 0.62624 0.0
C110 C 0.19744 0.22607 0.60385 0.0
C111 C 0.10139 0.26244 0.64045 0.0
H112 H 1.00248 0.25349 0.1935 0.0
H113 H 0.07372 0.22753 0.20834 0.0
H114 H 0.05824 0.36243 0.08182 0.0
H115 H 0.98775 0.38937 0.07016 0.0
H116 H 0.1778 0.34707 0.56317 0.0
H117 H 0.12261 0.34258 0.59992 0.0
H118 H 0.16276 0.18867 0.64253 0.0
H119 H 0.21719 0.19286 0.60344 0.0
Dy120 Dy 0.60059 0.76871 0.97675 0.0
Dy121 Dy 0.59169 0.76219 0.78074 0.0
C122 C 0.59112 0.66765 0.8779 0.0
O123 O 0.67016 0.77488 0.01304 0.0
O124 O 0.66008 0.72742 0.89387 0.0
O125 O 0.63149 0.74233 0.11761 0.0
O126 O 0.57761 0.80373 0.06009 0.0
O127 O 0.56749 0.83871 0.80922 0.0
O128 O 0.61836 0.83739 0.96518 0.0
O129 O 0.51933 0.76165 0.71659 0.0
O130 O 0.52372 0.77557 0.85511 0.0
O131 O 0.60739 0.8065 0.70993 0.0
O132 O 0.59213 0.73486 0.65946 0.0
C133 C 0.68708 0.74757 0.97267 0.0
O134 O 0.61105 0.6904 0.95703 0.0
O135 O 0.57614 0.68894 0.79699 0.0
C136 C 0.57637 0.74743 0.1517 0.0
C137 C 0.51195 0.70575 0.15622 0.0
C138 C 0.54577 0.67647 0.15095 0.0
C139 C 0.5775 0.6971 0.14796 0.0
C140 C 0.54548 0.77622 0.16604 0.0
C141 C 0.51336 0.75567 0.16766 0.0
C142 C 0.60203 0.77076 0.12705 0.0
C143 C 0.58928 0.86233 0.88847 0.0
C144 C 0.50005 0.76932 0.76225 0.0
C145 C 0.64313 0.76845 0.63523 0.0
C146 C 0.70611 0.76754 0.58392 0.0
C147 C 0.70419 0.80219 0.64505 0.0
C148 C 0.67356 0.80253 0.67049 0.0
C149 C 0.64514 0.73343 0.57484 0.0
C150 C 0.67627 0.73276 0.55009 0.0
C151 C 0.60618 0.7733 0.65216 0.0
H152 H 0.54619 0.63786 0.14413 0.0
H153 H 0.60114 0.67379 0.13745 0.0
H154 H 0.54407 0.81506 0.16929 0.0
H155 H 0.48763 0.77954 0.1709 0.0
H156 H 0.72656 0.82938 0.67395 0.0
H157 H 0.67316 0.83049 0.71647 0.0
H158 H 0.6218 0.70716 0.54466 0.0
H159 H 0.6758 0.70582 0.50179 0.0
C160 C 0.10791 0.43736 0.92908 0.0
C161 C 0.07523 0.40819 0.90735 0.0
C162 C 0.10941 0.48224 0.97355 0.0
C163 C 0.0783 0.4978 0.99894 0.0
C164 C 0.04479 0.46887 0.97498 0.0
C165 C 0.04322 0.42542 0.92853 0.0
C166 C 0.14474 0.5127 0.99475 0.0
C167 C 1.01125 0.48292 1.0012 0.0
C168 C 0.10576 0.59135 0.19187 0.0
C169 C 0.07721 0.6331 0.13903 0.0
C170 C 0.10636 0.54702 0.1477 0.0
C171 C 0.07929 0.54474 0.04796 0.0
C172 C 0.05057 0.58695 0.99473 0.0
C173 C 0.04943 0.63 0.04073 0.0
C174 C 0.13647 0.50276 0.20772 0.0
C175 C 1.02177 0.58709 0.88862 0.0
H176 H 0.13298 0.42461 0.91391 0.0
H177 H 1.01737 0.4038 0.9117 0.0
H178 H 0.12819 0.54978 0.96541 0.0
H179 H 0.16875 0.51562 0.07187 0.0
H180 H 0.16447 0.49743 0.96549 0.0
H181 H 0.9865 0.45711 0.97539 0.0
H182 H 0.02993 0.48452 0.07879 0.0
H183 H 0.99199 0.51929 0.97204 0.0
H184 H 0.12847 0.59362 0.26756 0.0
H185 H 0.02817 0.66204 0.99879 0.0
H186 H 0.16242 0.48964 0.19305 0.0
H187 H 0.11588 0.47338 0.19003 0.0
H188 H 0.15415 0.50983 0.28398 0.0
H189 H 0.04365 0.57467 0.86315 0.0
H190 H 1.00294 0.62339 0.8573 0.0
H191 H 0.99676 0.56164 0.86259 0.0
C192 C 0.58239 0.44772 0.13241 0.0
C193 C 0.56388 0.40888 0.07367 0.0
C194 C 0.58524 0.49015 0.09717 0.0
C195 C 0.56968 0.49386 1.00117 0.0
C196 C 0.55007 0.45522 0.94173 0.0
C197 C 0.54707 0.41402 0.97805 0.0
C198 C 0.60642 0.53025 0.16381 0.0
C199 C 0.53332 0.4566 0.83957 0.0
C200 C 0.5417 0.61635 0.87984 0.0
C201 C 0.58146 0.61922 0.88503 0.0
C202 C 0.5376 0.57629 0.91785 0.0
C203 C 0.57398 0.53744 0.96183 0.0
C204 C 0.61367 0.53949 0.96442 0.0
C205 C 0.61719 0.58052 0.92761 0.0
C206 C 0.4949 0.57639 0.91417 0.0
C207 C 0.65315 0.49897 1.00904 0.0
H208 H 0.59583 0.4445 0.20619 0.0
H209 H 0.53206 0.38497 0.93057 0.0
H210 H 0.6424 0.52754 0.18745 0.0
H211 H 0.58866 0.56605 0.12878 0.0
H212 H 0.6059 0.52805 0.22685 0.0
H213 H 0.5188 0.42366 0.80224 0.0
H214 H 0.50686 0.48837 0.80288 0.0
H215 H 0.56185 0.46035 0.8342 0.0
H216 H 0.51479 0.64703 0.85127 0.0
H217 H 0.64883 0.58333 0.93596 0.0
H218 H 0.50387 0.56956 0.98557 0.0
H219 H 0.47653 0.54687 0.86928 0.0
H220 H 0.4715 0.61102 0.88576 0.0
H221 H 0.6675 0.49559 0.08486 0.0
H222 H 0.68068 0.50478 1.00176 0.0
H223 H 0.64134 0.46426 0.97656 0.0
C224 C 0.58737 0.95242 0.90152 0.0
C225 C 0.57043 0.91102 0.90177 0.0
C226 C 0.58067 0.99558 0.94231 0.0
C227 C 0.558 0.99701 0.9879 0.0
C228 C 0.53923 0.95577 0.9846 0.0
C229 C 0.54522 0.91376 0.94087 0.0
C230 C 0.6001 0.0389 0.94114 0.0
C231 C 0.51584 0.95457 0.03364 0.0
C232 C 0.59714 0.08607 0.18962 0.0
C233 C 0.56159 0.12504 0.1496 0.0
C234 C 0.59517 0.0434 0.13985 0.0
C235 C 0.55745 0.03986 0.04556 0.0
C236 C 0.52047 0.07821 1.00616 0.0
C237 C 0.52272 0.11983 0.05894 0.0
C238 C 0.63476 1.00306 0.18684 0.0
C239 C 0.47994 0.07701 0.90564 0.0
H240 H 0.60789 0.95034 0.87381 0.0
H241 H 0.53281 0.88164 0.94306 0.0
H242 H 0.57457 0.07188 0.91984 0.0
H243 H 0.63001 0.04451 0.01282 0.0
H244 H 0.61105 0.03452 0.89254 0.0
H245 H 0.49949 0.92165 0.01753 0.0
H246 H 0.54122 0.9555 0.11075 0.0
H247 H 0.48957 0.98669 0.01336 0.0
H248 H 0.62777 0.08998 0.25858 0.0
H249 H 0.49543 0.14975 0.02578 0.0
H250 H 0.65364 1.00034 0.15366 0.0
H251 H 0.62235 0.96808 0.17756 0.0
H252 H 0.65882 1.0088 0.26319 0.0
H253 H 0.49067 0.0801 0.85794 0.0
H254 H 0.45197 0.1069 0.8883 0.0
H255 H 0.4666 0.04226 0.89133 0.0
C256 C 0.07211 0.95669 0.13481 0.0
C257 C 0.05506 0.91685 0.07803 0.0
C258 C 0.07625 0.99806 0.09906 0.0
C259 C 0.06412 0.99932 1.00513 0.0
C260 C 0.0471 0.95917 0.94829 0.0
C261 C 0.04236 0.9193 0.9846 0.0
C262 C 0.0938 0.0404 0.16185 0.0
C263 C 0.03475 0.95764 0.84896 0.0
C264 C 0.0402 0.11693 0.8731 0.0
C265 C 0.08218 0.11869 0.88712 0.0
C266 C 0.03401 0.07901 0.91225 0.0
C267 C 0.07051 0.04129 0.96601 0.0
C268 C 0.1124 0.04207 0.97698 0.0
C269 C 0.11789 0.08096 0.93903 0.0
C270 C 0.9889 0.08039 0.89926 0.0
C271 C 0.15194 1.00227 0.03075 0.0
H272 H 0.08208 0.95564 0.20669 0.0
H273 H 0.02931 0.8892 0.93879 0.0
H274 H 0.12668 0.04557 0.17491 0.0
H275 H 0.06955 0.07384 0.12663 0.0
H276 H 0.09897 0.0355 0.23051 0.0
H277 H 1.02211 0.92363 0.81366 0.0
H278 H 1.00806 0.98832 0.80644 0.0
H279 H 0.06497 0.96129 0.84946 0.0
H280 H 1.01308 0.1469 0.83677 0.0
H281 H 0.15092 0.08287 0.95308 0.0
H282 H 0.99412 0.08146 0.96888 0.0
H283 H 0.97407 0.04721 0.86475 0.0
H284 H 0.964 0.11216 0.85627 0.0
H285 H 0.1627 1.0009 0.10468 0.0
H286 H 0.1817 1.00722 0.03042 0.0
H287 H 0.14143 0.9669 0.99995 0.0
C288 C 0.42016 0.80766 0.70794 0.0
C289 C 0.44963 0.77009 0.70392 0.0
C290 C 0.37236 0.81184 0.64111 0.0
C291 C 0.35345 0.77707 0.56982 0.0
C292 C 0.38326 0.73811 0.56834 0.0
C293 C 0.43066 0.73552 0.63419 0.0
C294 C 0.34217 0.85438 0.64481 0.0
C295 C 0.36515 0.69929 0.49622 0.0
C296 C 0.22853 0.76077 0.44611 0.0
C297 C 0.2075 0.78196 0.35662 0.0
C298 C 0.27551 0.75937 0.51577 0.0
C299 C 0.30269 0.78066 0.4973 0.0
C300 C 0.28162 0.80281 0.40759 0.0
C301 C 0.23456 0.80265 0.33809 0.0
C302 C 0.29624 0.73401 0.60868 0.0
C303 C 0.30889 0.82671 0.38493 0.0
H304 H 0.43454 0.83496 0.76045 0.0
H305 H 0.45322 0.70639 0.63052 0.0
H306 H 0.32317 0.87587 0.57824 0.0
H307 H 0.3166 0.84179 0.65153 0.0
H308 H 0.36182 0.87818 0.70438 0.0
H309 H 0.39254 0.67003 0.50756 0.0
H310 H 0.33967 0.68326 0.49843 0.0
H311 H 0.34762 0.71514 0.42472 0.0
H312 H 0.2083 0.74421 0.46145 0.0
H313 H 0.21882 0.81939 0.26976 0.0
H314 H 0.31332 0.75907 0.66728 0.0
H315 H 0.32265 0.70362 0.61957 0.0
H316 H 0.27052 0.71967 0.6127 0.0
H317 H 0.32735 0.85323 0.43939 0.0
H318 H 0.28714 0.84546 0.31512 0.0
H319 H 0.33482 0.79934 0.38547 0.0
C320 C 0.27702 0.24261 0.59433 0.0
C321 C 0.23473 0.27282 0.55114 0.0
C322 C 0.30738 0.2445 0.56816 0.0
C323 C 0.29583 0.27758 0.49694 0.0
C324 C 0.25324 0.3081 0.45296 0.0
C325 C 0.22344 0.30528 0.48014 0.0
C326 C 0.35211 0.21107 0.61734 0.0
C327 C 0.23908 0.3441 0.37703 0.0
C328 C 0.392 0.31605 0.49213 0.0
C329 C 0.39028 0.28893 0.4188 0.0
C330 C 0.36181 0.31266 0.51794 0.0
C331 C 0.32861 0.28113 0.4701 0.0
C332 C 0.32673 0.25343 0.39631 0.0
C333 C 0.35732 0.25764 0.37171 0.0
C334 C 0.36542 0.34314 0.59669 0.0
C335 C 0.29217 0.2193 0.34289 0.0
H336 H 0.28686 0.21774 0.64998 0.0
H337 H 0.1908 0.32833 0.44447 0.0
H338 H 0.35531 0.18921 0.56498 0.0
H339 H 0.38077 0.23239 0.65473 0.0
H340 H 0.35564 0.18634 0.66896 0.0
H341 H 0.20503 0.36535 0.34954 0.0
H342 H 0.26441 0.36934 0.40489 0.0
H343 H 0.23825 0.32519 0.31776 0.0
H344 H 0.41753 0.33978 0.53066 0.0
H345 H 0.35485 0.23685 0.31421 0.0
H346 H 0.37251 0.3197 0.65374 0.0
H347 H 0.33256 0.36669 0.57068 0.0
H348 H 0.39271 0.36615 0.62672 0.0
H349 H 0.29634 0.19258 0.39226 0.0
H350 H 0.29534 0.1997 0.28851 0.0
H351 H 0.25724 0.23952 0.30812 0.0
C352 C 0.92567 0.23742 0.71581 0.0
C353 C 0.94789 0.27078 0.70641 0.0
C354 C 0.87817 0.23738 0.65097 0.0
C355 C 0.85187 0.27253 0.57662 0.0
C356 C 0.87404 0.30771 0.57026 0.0
C357 C 0.92154 0.30591 0.63385 0.0
C358 C 0.85646 0.19852 0.65979 0.0
C359 C 0.84771 0.34693 0.49491 0.0
C360 C 0.73944 0.25089 0.34609 0.0
C361 C 0.70658 0.27473 0.36021 0.0
C362 C 0.78653 0.24858 0.41677 0.0
C363 C 0.80165 0.27189 0.50338 0.0
C364 C 0.76859 0.29657 0.51751 0.0
C365 C 0.72171 0.29708 0.44666 0.0
C366 C 0.82018 0.22086 0.39882 0.0
C367 C 0.78271 0.32331 0.6069 0.0
H368 H 0.94568 0.20999 0.77111 0.0
H369 H 0.93829 0.33209 0.62631 0.0
H370 H 0.8284 0.21488 0.66637 0.0
H371 H 0.84133 0.17683 0.59527 0.0
H372 H 0.88128 0.17402 0.72143 0.0
H373 H 0.86911 0.37406 0.50451 0.0
H374 H 0.83403 0.33088 0.42486 0.0
H375 H 0.81824 0.36564 0.49489 0.0
H376 H 0.72832 0.23294 0.28032 0.0
H377 H 0.69677 0.31572 0.45852 0.0
H378 H 0.84418 0.194 0.45656 0.0
H379 H 0.84066 0.24579 0.39755 0.0
H380 H 0.80319 0.20178 0.33112 0.0
H381 H 0.80522 0.2984 0.66864 0.0
H382 H 0.75306 0.34033 0.60789 0.0
H383 H 0.80255 0.35182 0.61501 0.0
C384 C 0.85207 0.77876 0.36193 0.0
C385 C 0.89875 0.77784 0.43302 0.0
C386 C 0.82007 0.77582 0.38323 0.0
C387 C 0.83456 0.77229 0.47824 0.0
C388 C 0.88162 0.77121 0.5502 0.0
C389 C 0.91288 0.77381 0.52689 0.0
C390 C 0.77057 0.77661 0.30368 0.0
C391 C 0.89902 0.76793 0.65244 0.0
C392 C 0.74861 0.81244 0.54253 0.0
C393 C 0.73843 0.76847 0.55489 0.0
C394 C 0.77927 0.81413 0.51723 0.0
C395 C 0.80063 0.77085 0.50276 0.0
C396 C 0.7902 0.72635 0.51391 0.0
C397 C 0.75956 0.72568 0.53981 0.0
C398 C 0.78899 0.86251 0.50644 0.0
C399 C 0.81184 0.6792 0.49933 0.0
H400 H 0.84048 0.78122 0.28911 0.0
H401 H 0.94853 0.77372 0.58286 0.0
H402 H 0.75809 0.74414 0.30843 0.0
H403 H 0.74977 0.80849 0.30917 0.0
H404 H 0.7648 0.77785 0.23366 0.0
H405 H 0.93656 0.76664 0.70019 0.0
H406 H 0.88268 0.79949 0.67024 0.0
H407 H 0.8898 0.73521 0.66584 0.0
H408 H 0.73219 0.84598 0.55168 0.0
H409 H 0.75282 0.69132 0.5499 0.0
H410 H 0.78011 0.86697 0.43444 0.0
H411 H 0.8259 0.86456 0.55613 0.0
H412 H 0.76968 0.89295 0.51965 0.0
H413 H 0.80497 0.67901 0.42826 0.0
H414 H 0.7991 0.64771 0.50704 0.0
H415 H 0.84933 0.67497 0.55099 0.0
C416 C 0.45164 0.65269 0.06404 0.0
C417 C 0.47167 0.68599 0.13596 0.0
C418 C 0.40839 0.64161 0.02936 0.0
C419 C 0.38412 0.66565 0.06546 0.0
C420 C 0.4056 0.69615 0.14324 0.0
C421 C 0.44947 0.70532 0.17852 0.0
C422 C 0.38753 0.60726 0.94911 0.0
C423 C 0.38081 0.72256 0.18387 0.0
C424 C 0.25793 0.70738 0.90678 0.0
C425 C 0.2417 0.68164 0.94511 0.0
C426 C 0.30413 0.70034 0.94153 0.0
C427 C 0.33447 0.66539 0.01393 0.0
C428 C 0.31741 0.63517 0.04458 0.0
C429 C 0.27121 0.64414 0.01085 0.0
C430 C 0.32092 0.73317 0.90627 0.0
C431 C 0.34838 0.59572 0.11779 0.0
H432 H 0.46818 0.6377 0.03002 0.0
H433 H 0.46529 0.72996 0.23591 0.0
H434 H 0.36494 0.58654 0.95285 0.0
H435 H 0.36675 0.62798 0.88153 0.0
H436 H 0.41419 0.58155 0.94868 0.0
H437 H 0.40339 0.74229 0.24819 0.0
H438 H 0.35211 0.74891 0.13083 0.0
H439 H 0.36619 0.69701 0.20146 0.0
H440 H 0.23495 0.73519 0.85345 0.0
H441 H 0.25907 0.62378 0.04071 0.0
H442 H 0.34121 0.71169 0.88291 0.0
H443 H 0.34352 0.75616 0.96419 0.0
H444 H 0.29258 0.757 0.84679 0.0
H445 H 0.37417 0.57688 0.10611 0.0
H446 H 0.32892 0.56884 0.11748 0.0
H447 H 0.36683 0.61164 0.18846 0.0
C448 C 0.26119 0.27886 0.05097 0.0
C449 C 0.22974 0.25122 0.97977 0.0
C450 C 0.30235 0.28214 0.0611 0.0
C451 C 0.31139 0.25812 0.99724 0.0
C452 C 0.2799 0.23 0.92621 0.0
C453 C 0.2401 0.22646 0.91921 0.0
C454 C 0.33552 0.31212 0.13852 0.0
C455 C 0.28759 0.20439 0.85561 0.0
C456 C 0.39361 0.2985 0.95402 0.0
C457 C 0.43129 0.26241 1.00233 0.0
C458 C 0.35435 0.29787 0.95221 0.0
C459 C 0.35365 0.26141 1.00336 0.0
C460 C 0.39174 0.22499 0.05248 0.0
C461 C 0.42971 0.22543 0.04981 0.0
C462 C 0.31386 0.33646 0.89652 0.0
C463 C 0.39275 0.18609 0.10951 0.0
H464 H 0.25353 0.29817 0.09777 0.0
H465 H 0.21638 0.20486 0.86349 0.0
H466 H 0.37102 0.29366 0.17261 0.0
H467 H 0.33301 0.34683 0.10818 0.0
H468 H 0.32838 0.32005 0.19286 0.0
H469 H 0.2604 0.18247 0.80663 0.0
H470 H 0.28884 0.23124 0.81364 0.0
H471 H 0.32072 0.18026 0.89218 0.0
H472 H 0.39541 0.32792 0.91975 0.0
H473 H 0.45919 0.19839 0.08993 0.0
H474 H 0.30557 0.35651 0.94352 0.0
H475 H 0.28359 0.31966 0.84225 0.0
H476 H 0.32 0.36247 0.86119 0.0
H477 H 0.38507 0.20263 0.15985 0.0
H478 H 0.42627 0.16259 0.14945 0.0
H479 H 0.36612 0.16328 0.06243 0.0
C480 C 0.72867 0.33152 0.95351 0.0
C481 C 0.72054 0.28494 0.91856 0.0
C482 C 0.76878 0.34838 0.98032 0.0
C483 C 0.80189 0.31744 0.97421 0.0
C484 C 0.79249 0.27177 0.93291 0.0
C485 C 0.75161 0.25638 0.90438 0.0
C486 C 0.77687 0.39798 0.02089 0.0
C487 C 0.82695 0.23768 0.9249 0.0
C488 C 0.90658 0.35085 1.00564 0.0
C489 C 0.94059 0.33304 0.09735 0.0
C490 C 0.86046 0.34987 0.9667 0.0
C491 C 0.84831 0.32983 0.02021 0.0
C492 C 0.88205 0.31552 0.11519 0.0
C493 C 0.92779 0.31782 0.15293 0.0
C494 C 0.82517 0.36695 0.8662 0.0
C495 C 0.87039 0.29394 0.17464 0.0
H496 H 0.70505 0.35392 0.96526 0.0
H497 H 0.74496 0.22093 0.87499 0.0
H498 H 0.79994 0.39475 0.09862 0.0
H499 H 0.79345 0.41626 0.99631 0.0
H500 H 0.74461 0.421 1.00177 0.0
H501 H 0.81341 0.20449 0.88689 0.0
H502 H 0.83778 0.25569 0.88765 0.0
H503 H 0.85775 0.22703 0.99622 0.0
H504 H 0.916 0.36249 0.9617 0.0
H505 H 0.95381 0.30509 0.22446 0.0
H506 H 0.79553 0.3898 0.86011 0.0
H507 H 0.81247 0.33547 0.82087 0.0
H508 H 0.83917 0.38775 0.83887 0.0
H509 H 0.84215 0.3176 0.17255 0.0
H510 H 0.89997 0.28816 0.2491 0.0
H511 H 0.85869 0.25869 0.14593 0.0
C512 C 0.93963 0.73079 0.09945 0.0
C513 C 0.93526 0.75155 0.02303 0.0
C514 C 0.90132 0.726 0.09794 0.0
C515 C 0.85748 0.74189 0.01742 0.0
C516 C 0.85282 0.76012 0.93764 0.0
C517 C 0.89197 0.76525 0.94176 0.0
C518 C 0.90784 0.70641 0.1844 0.0
C519 C 0.80659 0.77676 0.85004 0.0
C520 C 0.75367 0.70164 0.98102 0.0
C521 C 0.73518 0.74287 1.0054 0.0
C522 C 0.79412 0.70031 0.98712 0.0
C523 C 0.8167 0.74127 0.0184 0.0
C524 C 0.79981 0.7819 0.04905 0.0
C525 C 0.75914 0.78218 0.04237 0.0
C526 C 0.81116 0.65613 0.95485 0.0
C527 C 0.82287 0.82638 0.08292 0.0
H528 H 0.97323 0.72141 0.16334 0.0
H529 H 0.88873 0.78248 0.88386 0.0
H530 H 0.89257 0.67276 0.16733 0.0
H531 H 0.94434 0.69857 0.24349 0.0
H532 H 0.89001 0.73256 0.20809 0.0
H533 H 0.80873 0.78574 0.79152 0.0
H534 H 0.78436 0.74848 0.82674 0.0
H535 H 0.79006 0.80924 0.86538 0.0
H536 H 0.73515 0.6711 0.95246 0.0
H537 H 0.7446 0.81432 0.05993 0.0
H538 H 0.84765 0.64364 1.00908 0.0
H539 H 0.80826 0.66524 0.89028 0.0
H540 H 0.79163 0.62596 0.93938 0.0
H541 H 0.86044 0.8168 0.12754 0.0
H542 H 0.81209 0.84969 0.1233 0.0
H543 H 0.8137 0.84754 0.02129 0.0
loop_
_geom_bond_atom_site_label_1
_geom_bond_atom_site_label_2
_geom_bond_distance
_geom_bond_site_symmetry_2
_ccdc_geom_bond_type
Dy0 O3 2.307 . S
Dy0 O5 2.395 . S
Dy0 O6 2.375 1_455 S
Dy0 O8 2.339 . S
Dy0 O10 2.298 1_455 S
Dy0 O14 2.275 . S
Dy0 C22 2.738 1_455 S
Dy1 O4 2.298 . S
Dy1 O7 2.275 . S
Dy1 O9 2.307 1_455 S
Dy1 O11 2.395 . S
Dy1 O12 2.379 . S
Dy1 O15 2.339 . S
Dy1 C31 2.738 . S
C2 O14 1.254 . S
C2 O15 1.257 . S
O3 Dy0 2.307 . S
O3 C13 1.266 . S
O4 Dy1 2.298 . S
O4 C13 1.236 . S
O5 Dy0 2.395 . S
O5 C22 1.255 1_455 S
O6 Dy0 2.375 1_655 S
O6 C22 1.251 . S
O7 Dy1 2.275 . S
O7 C23 1.254 . S
O8 Dy0 2.339 . S
O8 C23 1.257 . S
O9 Dy1 2.307 1_655 S
O9 C24 1.266 . S
O10 Dy0 2.298 1_655 S
O10 C24 1.236 . S
O11 Dy1 2.395 . S
O11 C31 1.255 . S
O12 Dy1 2.379 . S
O12 C31 1.249 . S
C13 O3 1.266 . S
C13 O4 1.236 . S
O14 Dy0 2.275 . S
O14 C2 1.254 . S
O15 Dy1 2.339 . S
O15 C2 1.257 . S
C16 C19 1.344 . S
C16 C20 1.328 . S
C16 C22 1.516 . S
C17 C18 1.304 . S
C17 C21 1.323 . S
C18 C17 1.304 . S
C18 C19 1.371 . S
C18 H32 0.930 . S
C19 C16 1.344 . S
C19 C18 1.371 . S
C19 H33 0.931 . S
C20 C16 1.328 . S
C20 C21 1.433 . S
C20 H34 0.931 . S
C21 C17 1.323 . S
C21 C20 1.433 . S
C21 H35 0.933 . S
C22 Dy0 2.738 1_655 S
C22 O5 1.255 1_655 S
C22 O6 1.251 . S
C22 C16 1.516 . S
C23 O7 1.254 . S
C23 O8 1.257 . S
C24 O9 1.266 . S
C24 O10 1.236 . S
C25 C28 1.344 1_556 S
C25 C29 1.328 . S
C25 C31 1.516 1_556 S
C26 C27 1.304 . S
C26 C30 1.323 . S
C27 C26 1.304 . S
C27 C28 1.371 1_556 S
C27 H36 0.930 . S
C28 C25 1.344 1_554 S
C28 C27 1.371 1_554 S
C28 H37 0.931 . S
C29 C25 1.328 . S
C29 C30 1.433 . S
C29 H38 0.931 . S
C30 C26 1.323 . S
C30 C29 1.433 . S
C30 H39 0.933 . S
C31 Dy1 2.738 . S
C31 O11 1.255 . S
C31 O12 1.249 . S
C31 C25 1.516 1_554 S
H32 C18 0.930 . S
H33 C19 0.931 . S
H34 C20 0.931 . S
H35 C21 0.933 . S
H36 C27 0.930 . S
H37 C28 0.931 . S
H38 C29 0.931 . S
H39 C30 0.933 . S
Dy40 O43 2.307 . S
Dy40 O45 2.395 . S
Dy40 O46 2.379 . S
Dy40 O48 2.339 . S
Dy40 O50 2.298 . S
Dy40 O54 2.275 . S
Dy40 C62 2.738 . S
Dy41 O44 2.298 . S
Dy41 O47 2.275 . S
Dy41 O49 2.307 . S
Dy41 O51 2.395 . S
Dy41 O52 2.379 . S
Dy41 O55 2.339 . S
Dy41 C71 2.738 . S
C42 O54 1.254 . S
C42 O55 1.257 . S
O43 Dy40 2.307 . S
O43 C53 1.266 . S
O44 Dy41 2.298 . S
O44 C53 1.236 . S
O45 Dy40 2.395 . S
O45 C62 1.255 . S
O46 Dy40 2.379 . S
O46 C62 1.249 . S
O47 Dy41 2.275 . S
O47 C63 1.254 . S
O48 Dy40 2.339 . S
O48 C63 1.257 . S
O49 Dy41 2.307 . S
O49 C64 1.266 . S
O50 Dy40 2.298 . S
O50 C64 1.236 . S
O51 Dy41 2.395 . S
O51 C71 1.255 . S
O52 Dy41 2.379 . S
O52 C71 1.249 . S
C53 O43 1.266 . S
C53 O44 1.236 . S
O54 Dy40 2.275 . S
O54 C42 1.254 . S
O55 Dy41 2.339 . S
O55 C42 1.257 . S
C56 C59 1.344 . S
C56 C60 1.328 . S
C56 C62 1.516 . S
C57 C58 1.304 . S
C57 C61 1.323 . S
C58 C57 1.304 . S
C58 C59 1.371 . S
C58 H72 0.930 . S
C59 C56 1.344 . S
C59 C58 1.371 . S
C59 H73 0.931 . S
C60 C56 1.328 . S
C60 C61 1.433 . S
C60 H74 0.931 . S
C61 C57 1.323 . S
C61 C60 1.433 . S
C61 H75 0.933 . S
C62 Dy40 2.738 . S
C62 O45 1.255 . S
C62 O46 1.249 . S
C62 C56 1.516 . S
C63 O47 1.254 . S
C63 O48 1.257 . S
C64 O49 1.266 . S
C64 O50 1.236 . S
C65 C68 1.344 1_556 S
C65 C69 1.328 . S
C65 C71 1.516 1_556 S
C66 C67 1.304 . S
C66 C70 1.323 . S
C67 C66 1.304 . S
C67 C68 1.371 1_556 S
C67 H76 0.930 . S
C68 C65 1.344 1_554 S
C68 C67 1.371 1_554 S
C68 H77 0.931 . S
C69 C65 1.328 . S
C69 C70 1.433 . S
C69 H78 0.931 . S
C70 C66 1.323 . S
C70 C69 1.433 . S
C70 H79 0.933 . S
C71 Dy41 2.738 . S
C71 O51 1.255 . S
C71 O52 1.249 . S
C71 C65 1.516 1_554 S
H72 C58 0.930 . S
H73 C59 0.931 . S
H74 C60 0.931 . S
H75 C61 0.933 . S
H76 C67 0.930 . S
H77 C68 0.931 . S
H78 C69 0.931 . S
H79 C70 0.933 . S
Dy80 O83 2.307 . S
Dy80 O85 2.395 . S
Dy80 O86 2.379 . S
Dy80 O88 2.339 . S
Dy80 O90 2.298 1_455 S
Dy80 O94 2.275 . S
Dy80 C102 2.734 1_455 S
Dy81 O84 2.298 . S
Dy81 O87 2.275 . S
Dy81 O89 2.307 1_455 S
Dy81 O91 2.395 . S
Dy81 O92 2.379 . S
Dy81 O95 2.339 . S
Dy81 C111 2.738 . S
C82 O94 1.254 . S
C82 O95 1.257 . S
O83 Dy80 2.307 . S
O83 C93 1.266 . S
O84 Dy81 2.298 . S
O84 C93 1.236 . S
O85 Dy80 2.395 . S
O85 C102 1.254 1_455 S
O86 Dy80 2.379 . S
O86 C102 1.248 1_455 S
O87 Dy81 2.275 . S
O87 C103 1.254 . S
O88 Dy80 2.339 . S
O88 C103 1.257 . S
O89 Dy81 2.307 1_655 S
O89 C104 1.266 . S
O90 Dy80 2.298 1_655 S
O90 C104 1.236 . S
O91 Dy81 2.395 . S
O91 C111 1.255 . S
O92 Dy81 2.379 . S
O92 C111 1.249 . S
C93 O83 1.266 . S
C93 O84 1.236 . S
O94 Dy80 2.275 . S
O94 C82 1.254 . S
O95 Dy81 2.339 . S
O95 C82 1.257 . S
C96 C99 1.344 1_554 S
C96 C100 1.328 . S
C96 C102 1.519 1_554 S
C97 C98 1.304 . S
C97 C101 1.323 . S
C98 C97 1.304 . S
C98 C99 1.371 1_554 S
C98 H112 0.930 . S
C99 C96 1.344 1_556 S
C99 C98 1.371 1_556 S
C99 H113 0.931 . S
C100 C96 1.328 . S
C100 C101 1.433 . S
C100 H114 0.931 . S
C101 C97 1.323 . S
C101 C100 1.433 . S
C101 H115 0.933 . S
C102 Dy80 2.734 1_655 S
C102 O85 1.254 1_655 S
C102 O86 1.248 1_655 S
C102 C96 1.519 1_556 S
C103 O87 1.254 . S
C103 O88 1.257 . S
C104 O89 1.266 . S
C104 O90 1.236 . S
C105 C108 1.344 . S
C105 C109 1.328 . S
C105 C111 1.516 . S
C106 C107 1.304 . S
C106 C110 1.323 . S
C107 C106 1.304 . S
C107 C108 1.371 . S
C107 H116 0.930 . S
C108 C105 1.344 . S
C108 C107 1.371 . S
C108 H117 0.931 . S
C109 C105 1.328 . S
C109 C110 1.433 . S
C109 H118 0.931 . S
C110 C106 1.323 . S
C110 C109 1.433 . S
C110 H119 0.933 . S
C111 Dy81 2.738 . S
C111 O91 1.255 . S
C111 O92 1.249 . S
C111 C105 1.516 . S
H112 C98 0.930 . S
H113 C99 0.931 . S
H114 C100 0.931 . S
H115 C101 0.933 . S
H116 C107 0.930 . S
H117 C108 0.931 . S
H118 C109 0.931 . S
H119 C110 0.933 . S
Dy120 O123 2.307 . S
Dy120 O125 2.395 . S
Dy120 O126 2.379 . S
Dy120 O128 2.339 . S
Dy120 O130 2.298 . S
Dy120 O134 2.275 . S
Dy120 C142 2.738 . S
Dy121 O124 2.298 . S
Dy121 O127 2.275 . S
Dy121 O129 2.307 . S
Dy121 O131 2.395 . S
Dy121 O132 2.379 . S
Dy121 O135 2.339 . S
Dy121 C151 2.738 . S
C122 O134 1.254 . S
C122 O135 1.257 . S
O123 Dy120 2.307 . S
O123 C133 1.266 . S
O124 Dy121 2.298 . S
O124 C133 1.236 . S
O125 Dy120 2.395 . S
O125 C142 1.255 . S
O126 Dy120 2.379 . S
O126 C142 1.249 . S
O127 Dy121 2.275 . S
O127 C143 1.254 . S
O128 Dy120 2.339 . S
O128 C143 1.257 . S
O129 Dy121 2.307 . S
O129 C144 1.266 . S
O130 Dy120 2.298 . S
O130 C144 1.236 . S
O131 Dy121 2.395 . S
O131 C151 1.255 . S
O132 Dy121 2.379 . S
O132 C151 1.249 . S
C133 O123 1.266 . S
C133 O124 1.236 . S
O134 Dy120 2.275 . S
O134 C122 1.254 . S
O135 Dy121 2.339 . S
O135 C122 1.257 . S
C136 C139 1.344 1_554 S
C136 C140 1.328 . S
C136 C142 1.516 1_554 S
C137 C138 1.304 . S
C137 C141 1.323 . S
C138 C137 1.304 . S
C138 C139 1.371 1_554 S
C138 H152 0.930 . S
C139 C136 1.344 1_556 S
C139 C138 1.371 1_556 S
C139 H153 0.931 . S
C140 C136 1.328 . S
C140 C141 1.433 . S
C140 H154 0.931 . S
C141 C137 1.323 . S
C141 C140 1.433 . S
C141 H155 0.933 . S
C142 Dy120 2.738 . S
C142 O125 1.255 . S
C142 O126 1.249 . S
C142 C136 1.516 1_556 S
C143 O127 1.254 . S
C143 O128 1.257 . S
C144 O129 1.266 . S
C144 O130 1.236 . S
C145 C148 1.344 . S
C145 C149 1.328 . S
C145 C151 1.516 . S
C146 C147 1.304 . S
C146 C150 1.323 . S
C147 C146 1.304 . S
C147 C148 1.371 . S
C147 H156 0.930 . S
C148 C145 1.344 . S
C148 C147 1.371 . S
C148 H157 0.931 . S
C149 C145 1.328 . S
C149 C150 1.433 . S
C149 H158 0.931 . S
C150 C146 1.323 . S
C150 C149 1.433 . S
C150 H159 0.933 . S
C151 Dy121 2.738 . S
C151 O131 1.255 . S
C151 O132 1.249 . S
C151 C145 1.516 . S
H152 C138 0.930 . S
H153 C139 0.931 . S
H154 C140 0.931 . S
H155 C141 0.933 . S
H156 C147 0.930 . S
H157 C148 0.931 . S
H158 C149 0.931 . S
H159 C150 0.933 . S
C160 C161 1.391 . S
C160 C162 1.394 . S
C160 H176 0.931 . S
C161 C160 1.391 . S
C161 C165 1.376 . S
C162 C160 1.394 . S
C162 C163 1.369 . S
C162 C166 1.531 1_556 S
C163 C162 1.369 . S
C163 C164 1.410 . S
C163 C171 1.503 1_556 S
C164 C163 1.410 . S
C164 C165 1.392 . S
C164 C167 1.511 1_455 S
C165 C161 1.376 . S
C165 C164 1.392 . S
C165 H177 0.929 1_455 S
C166 C162 1.531 1_554 S
C166 H178 0.960 . S
C166 H179 0.962 . S
C166 H180 0.960 . S
C167 C164 1.511 1_655 S
C167 H181 0.961 . S
C167 H182 0.961 . S
C167 H183 0.961 . S
C168 C169 1.370 . S
C168 C170 1.363 . S
C168 H184 0.931 . S
C169 C168 1.370 . S
C169 C173 1.408 . S
C170 C168 1.363 . S
C170 C171 1.370 . S
C170 C174 1.524 . S
C171 C163 1.503 1_554 S
C171 C170 1.370 . S
C171 C172 1.403 1_554 S
C172 C171 1.403 1_556 S
C172 C173 1.404 1_556 S
C172 C175 1.539 . S
C173 C169 1.408 . S
C173 C172 1.404 1_554 S
C173 H185 0.930 . S
C174 C170 1.524 . S
C174 H186 0.956 . S
C174 H187 0.961 . S
C174 H188 0.961 . S
C175 C172 1.539 . S
C175 H189 0.958 . S
C175 H190 0.961 . S
C175 H191 0.960 . S
H176 C160 0.931 . S
H177 C165 0.929 1_655 S
H178 C166 0.960 . S
H179 C166 0.962 . S
H180 C166 0.960 . S
H181 C167 0.961 . S
H182 C167 0.961 . S
H183 C167 0.961 . S
H184 C168 0.931 . S
H185 C173 0.930 . S
H186 C174 0.956 . S
H187 C174 0.961 . S
H188 C174 0.961 . S
H189 C175 0.958 . S
H190 C175 0.961 . S
H191 C175 0.960 . S
C192 C193 1.391 . S
C192 C194 1.394 . S
C192 H208 0.931 . S
C193 C192 1.391 . S
C193 C197 1.376 . S
C194 C192 1.394 . S
C194 C195 1.369 . S
C194 C198 1.531 . S
C195 C194 1.369 . S
C195 C196 1.410 1_554 S
C195 C203 1.503 1_554 S
C196 C195 1.410 1_556 S
C196 C197 1.392 1_556 S
C196 C199 1.511 . S
C197 C193 1.376 . S
C197 C196 1.392 1_554 S
C197 H209 0.929 1_554 S
C198 C194 1.531 . S
C198 H210 0.960 . S
C198 H211 0.962 . S
C198 H212 0.960 . S
C199 C196 1.511 . S
C199 H213 0.961 . S
C199 H214 0.961 . S
C199 H215 0.961 . S
C200 C201 1.370 . S
C200 C202 1.363 . S
C200 H216 0.931 . S
C201 C200 1.370 . S
C201 C205 1.408 . S
C202 C200 1.363 . S
C202 C203 1.370 . S
C202 C206 1.524 . S
C203 C195 1.503 1_556 S
C203 C202 1.370 . S
C203 C204 1.403 . S
C204 C203 1.403 . S
C204 C205 1.404 . S
C204 C207 1.539 . S
C205 C201 1.408 . S
C205 C204 1.404 . S
C205 H217 0.930 . S
C206 C202 1.524 . S
C206 H218 0.956 1_556 S
C206 H219 0.961 . S
C206 H220 0.961 . S
C207 C204 1.539 . S
C207 H221 0.958 1_556 S
C207 H222 0.961 . S
C207 H223 0.960 . S
H208 C192 0.931 . S
H209 C197 0.929 1_556 S
H210 C198 0.960 . S
H211 C198 0.962 . S
H212 C198 0.960 . S
H213 C199 0.961 . S
H214 C199 0.961 . S
H215 C199 0.961 . S
H216 C200 0.931 . S
H217 C205 0.930 . S
H218 C206 0.956 1_554 S
H219 C206 0.961 . S
H220 C206 0.961 . S
H221 C207 0.958 1_554 S
H222 C207 0.961 . S
H223 C207 0.960 . S
C224 C225 1.391 . S
C224 C226 1.394 . S
C224 H240 0.931 . S
C225 C224 1.391 . S
C225 C229 1.376 . S
C226 C224 1.394 . S
C226 C227 1.369 . S
C226 C230 1.531 1_565 S
C227 C226 1.369 . S
C227 C228 1.410 . S
C227 C235 1.503 1_566 S
C228 C227 1.410 . S
C228 C229 1.392 . S
C228 C231 1.511 1_556 S
C229 C225 1.376 . S
C229 C228 1.392 . S
C229 H241 0.929 . S
C230 C226 1.531 1_545 S
C230 H242 0.960 . S
C230 H243 0.962 . S
C230 H244 0.960 . S
C231 C228 1.511 1_554 S
C231 H245 0.961 . S
C231 H246 0.961 . S
C231 H247 0.961 1_554 S
C232 C233 1.370 . S
C232 C234 1.363 . S
C232 H248 0.931 . S
C233 C232 1.370 . S
C233 C237 1.408 . S
C234 C232 1.363 . S
C234 C235 1.370 . S
C234 C238 1.524 1_545 S
C235 C227 1.503 1_544 S
C235 C234 1.370 . S
C235 C236 1.403 1_554 S
C236 C235 1.403 1_556 S
C236 C237 1.404 1_556 S
C236 C239 1.539 . S
C237 C233 1.408 . S
C237 C236 1.404 1_554 S
C237 H249 0.930 . S
C238 C234 1.524 1_565 S
C238 H250 0.956 . S
C238 H251 0.961 . S
C238 H252 0.961 . S
C239 C236 1.539 . S
C239 H253 0.958 . S
C239 H254 0.961 . S
C239 H255 0.960 . S
H240 C224 0.931 . S
H241 C229 0.929 . S
H242 C230 0.960 . S
H243 C230 0.962 . S
H244 C230 0.960 . S
H245 C231 0.961 . S
H246 C231 0.961 . S
H247 C231 0.961 1_556 S
H248 C232 0.931 . S
H249 C237 0.930 . S
H250 C238 0.956 . S
H251 C238 0.961 . S
H252 C238 0.961 . S
H253 C239 0.958 . S
H254 C239 0.961 . S
H255 C239 0.960 . S
C256 C257 1.391 . S
C256 C258 1.394 . S
C256 H272 0.931 . S
C257 C256 1.391 . S
C257 C261 1.376 . S
C258 C256 1.394 . S
C258 C259 1.369 . S
C258 C262 1.531 1_565 S
C259 C258 1.369 . S
C259 C260 1.408 1_554 S
C259 C267 1.503 1_564 S
C260 C259 1.408 1_556 S
C260 C261 1.389 1_556 S
C260 C263 1.515 . S
C261 C257 1.376 . S
C261 C260 1.389 1_554 S
C261 H273 0.929 . S
C262 C258 1.531 1_545 S
C262 H274 0.960 . S
C262 H275 0.962 . S
C262 H276 0.960 . S
C263 C260 1.515 . S
C263 H277 0.961 . S
C263 H278 0.961 . S
C263 H279 0.961 . S
C264 C265 1.370 . S
C264 C266 1.363 . S
C264 H280 0.931 1_455 S
C265 C264 1.370 . S
C265 C269 1.408 . S
C266 C264 1.363 . S
C266 C267 1.370 . S
C266 C270 1.524 1_455 S
C267 C259 1.503 1_546 S
C267 C266 1.370 . S
C267 C268 1.403 1_556 S
C268 C267 1.403 1_554 S
C268 C269 1.404 1_554 S
C268 C271 1.539 1_545 S
C269 C265 1.408 . S
C269 C268 1.404 1_556 S
C269 H281 0.930 . S
C270 C266 1.524 1_655 S
C270 H282 0.956 . S
C270 H283 0.952 1_545 S
C270 H284 0.961 . S
C271 C268 1.539 1_565 S
C271 H285 0.958 1_565 S
C271 H286 0.961 . S
C271 H287 0.960 . S
H272 C256 0.931 . S
H273 C261 0.929 . S
H274 C262 0.960 . S
H275 C262 0.962 . S
H276 C262 0.960 . S
H277 C263 0.961 . S
H278 C263 0.961 . S
H279 C263 0.961 . S
H280 C264 0.931 1_655 S
H281 C269 0.930 . S
H282 C270 0.956 . S
H283 C270 0.952 1_565 S
H284 C270 0.961 . S
H285 C271 0.958 1_545 S
H286 C271 0.961 . S
H287 C271 0.960 . S
C288 C289 1.391 . S
C288 C290 1.394 . S
C288 H304 0.931 . S
C289 C288 1.391 . S
C289 C293 1.376 . S
C290 C288 1.394 . S
C290 C291 1.369 . S
C290 C294 1.531 . S
C291 C290 1.369 . S
C291 C292 1.410 . S
C291 C299 1.503 . S
C292 C291 1.410 . S
C292 C293 1.392 . S
C292 C295 1.511 . S
C293 C289 1.376 . S
C293 C292 1.392 . S
C293 H305 0.929 . S
C294 C290 1.531 . S
C294 H306 0.960 . S
C294 H307 0.962 . S
C294 H308 0.960 . S
C295 C292 1.511 . S
C295 H309 0.961 . S
C295 H310 0.961 . S
C295 H311 0.961 . S
C296 C297 1.370 . S
C296 C298 1.363 . S
C296 H312 0.931 . S
C297 C296 1.370 . S
C297 C301 1.408 . S
C298 C296 1.363 . S
C298 C299 1.370 . S
C298 C302 1.524 . S
C299 C291 1.503 . S
C299 C298 1.370 . S
C299 C300 1.403 . S
C300 C299 1.403 . S
C300 C301 1.404 . S
C300 C303 1.539 . S
C301 C297 1.408 . S
C301 C300 1.404 . S
C301 H313 0.930 . S
C302 C298 1.524 . S
C302 H314 0.956 . S
C302 H315 0.961 . S
C302 H316 0.961 . S
C303 C300 1.539 . S
C303 H317 0.958 . S
C303 H318 0.961 . S
C303 H319 0.960 . S
H304 C288 0.931 . S
H305 C293 0.929 . S
H306 C294 0.960 . S
H307 C294 0.962 . S
H308 C294 0.960 . S
H309 C295 0.961 . S
H310 C295 0.961 . S
H311 C295 0.961 . S
H312 C296 0.931 . S
H313 C301 0.930 . S
H314 C302 0.956 . S
H315 C302 0.961 . S
H316 C302 0.961 . S
H317 C303 0.958 . S
H318 C303 0.961 . S
H319 C303 0.960 . S
C320 C321 1.391 . S
C320 C322 1.394 . S
C320 H336 0.931 . S
C321 C320 1.391 . S
C321 C325 1.376 . S
C322 C320 1.394 . S
C322 C323 1.369 . S
C322 C326 1.531 . S
C323 C322 1.369 . S
C323 C324 1.410 . S
C323 C331 1.503 . S
C324 C323 1.410 . S
C324 C325 1.392 . S
C324 C327 1.511 . S
C325 C321 1.376 . S
C325 C324 1.392 . S
C325 H337 0.929 . S
C326 C322 1.531 . S
C326 H338 0.960 . S
C326 H339 0.962 . S
C326 H340 0.960 . S
C327 C324 1.511 . S
C327 H341 0.961 . S
C327 H342 0.961 . S
C327 H343 0.961 . S
C328 C329 1.370 . S
C328 C330 1.363 . S
C328 H344 0.931 . S
C329 C328 1.370 . S
C329 C333 1.408 . S
C330 C328 1.363 . S
C330 C331 1.370 . S
C330 C334 1.524 . S
C331 C323 1.503 . S
C331 C330 1.370 . S
C331 C332 1.403 . S
C332 C331 1.403 . S
C332 C333 1.404 . S
C332 C335 1.539 . S
C333 C329 1.408 . S
C333 C332 1.404 . S
C333 H345 0.930 . S
C334 C330 1.524 . S
C334 H346 0.956 . S
C334 H347 0.961 . S
C334 H348 0.961 . S
C335 C332 1.539 . S
C335 H349 0.958 . S
C335 H350 0.961 . S
C335 H351 0.960 . S
H336 C320 0.931 . S
H337 C325 0.929 . S
H338 C326 0.960 . S
H339 C326 0.962 . S
H340 C326 0.960 . S
H341 C327 0.961 . S
H342 C327 0.961 . S
H343 C327 0.961 . S
H344 C328 0.931 . S
H345 C333 0.930 . S
H346 C334 0.956 . S
H347 C334 0.961 . S
H348 C334 0.961 . S
H349 C335 0.958 . S
H350 C335 0.961 . S
H351 C335 0.960 . S
C352 C353 1.391 . S
C352 C354 1.394 . S
C352 H368 0.931 . S
C353 C352 1.391 . S
C353 C357 1.376 . S
C354 C352 1.394 . S
C354 C355 1.369 . S
C354 C358 1.531 . S
C355 C354 1.369 . S
C355 C356 1.410 . S
C355 C363 1.503 . S
C356 C355 1.410 . S
C356 C357 1.392 . S
C356 C359 1.511 . S
C357 C353 1.376 . S
C357 C356 1.392 . S
C357 H369 0.929 . S
C358 C354 1.531 . S
C358 H370 0.960 . S
C358 H371 0.962 . S
C358 H372 0.960 . S
C359 C356 1.511 . S
C359 H373 0.961 . S
C359 H374 0.961 . S
C359 H375 0.961 . S
C360 C361 1.370 . S
C360 C362 1.363 . S
C360 H376 0.931 . S
C361 C360 1.370 . S
C361 C365 1.408 . S
C362 C360 1.363 . S
C362 C363 1.370 . S
C362 C366 1.524 . S
C363 C355 1.503 . S
C363 C362 1.370 . S
C363 C364 1.403 . S
C364 C363 1.403 . S
C364 C365 1.404 . S
C364 C367 1.539 . S
C365 C361 1.408 . S
C365 C364 1.404 . S
C365 H377 0.930 . S
C366 C362 1.524 . S
C366 H378 0.956 . S
C366 H379 0.961 . S
C366 H380 0.961 . S
C367 C364 1.539 . S
C367 H381 0.958 . S
C367 H382 0.961 . S
C367 H383 0.960 . S
H368 C352 0.931 . S
H369 C357 0.929 . S
H370 C358 0.960 . S
H371 C358 0.962 . S
H372 C358 0.960 . S
H373 C359 0.961 . S
H374 C359 0.961 . S
H375 C359 0.961 . S
H376 C360 0.931 . S
H377 C365 0.930 . S
H378 C366 0.956 . S
H379 C366 0.961 . S
H380 C366 0.961 . S
H381 C367 0.958 . S
H382 C367 0.961 . S
H383 C367 0.960 . S
C384 C385 1.391 . S
C384 C386 1.394 . S
C384 H400 0.931 . S
C385 C384 1.391 . S
C385 C389 1.376 . S
C386 C384 1.394 . S
C386 C387 1.369 . S
C386 C390 1.531 . S
C387 C386 1.369 . S
C387 C388 1.410 . S
C387 C395 1.503 . S
C388 C387 1.410 . S
C388 C389 1.392 . S
C388 C391 1.511 . S
C389 C385 1.376 . S
C389 C388 1.392 . S
C389 H401 0.929 . S
C390 C386 1.531 . S
C390 H402 0.960 . S
C390 H403 0.962 . S
C390 H404 0.960 . S
C391 C388 1.511 . S
C391 H405 0.961 . S
C391 H406 0.961 . S
C391 H407 0.961 . S
C392 C393 1.370 . S
C392 C394 1.363 . S
C392 H408 0.931 . S
C393 C392 1.370 . S
C393 C397 1.408 . S
C394 C392 1.363 . S
C394 C395 1.370 . S
C394 C398 1.524 . S
C395 C387 1.503 . S
C395 C394 1.370 . S
C395 C396 1.403 . S
C396 C395 1.403 . S
C396 C397 1.404 . S
C396 C399 1.539 . S
C397 C393 1.408 . S
C397 C396 1.404 . S
C397 H409 0.930 . S
C398 C394 1.524 . S
C398 H410 0.956 . S
C398 H411 0.961 . S
C398 H412 0.961 . S
C399 C396 1.539 . S
C399 H413 0.958 . S
C399 H414 0.961 . S
C399 H415 0.960 . S
H400 C384 0.931 . S
H401 C389 0.929 . S
H402 C390 0.960 . S
H403 C390 0.962 . S
H404 C390 0.960 . S
H405 C391 0.961 . S
H406 C391 0.961 . S
H407 C391 0.961 . S
H408 C392 0.931 . S
H409 C397 0.930 . S
H410 C398 0.956 . S
H411 C398 0.961 . S
H412 C398 0.961 . S
H413 C399 0.958 . S
H414 C399 0.961 . S
H415 C399 0.960 . S
C416 C417 1.391 . S
C416 C418 1.394 1_554 S
C416 H432 0.931 1_554 S
C417 C416 1.391 . S
C417 C421 1.376 . S
C418 C416 1.394 1_556 S
C418 C419 1.369 1_556 S
C418 C422 1.531 . S
C419 C418 1.369 1_554 S
C419 C420 1.410 . S
C419 C427 1.503 1_554 S
C420 C419 1.410 . S
C420 C421 1.392 . S
C420 C423 1.511 . S
C421 C417 1.376 . S
C421 C420 1.392 . S
C421 H433 0.929 . S
C422 C418 1.531 . S
C422 H434 0.960 . S
C422 H435 0.962 . S
C422 H436 0.960 . S
C423 C420 1.511 . S
C423 H437 0.961 . S
C423 H438 0.961 . S
C423 H439 0.961 . S
C424 C425 1.370 . S
C424 C426 1.363 . S
C424 H440 0.931 . S
C425 C424 1.370 . S
C425 C429 1.408 . S
C426 C424 1.363 . S
C426 C427 1.370 . S
C426 C430 1.524 . S
C427 C419 1.503 1_556 S
C427 C426 1.370 . S
C427 C428 1.403 . S
C428 C427 1.403 . S
C428 C429 1.404 . S
C428 C431 1.539 1_556 S
C429 C425 1.408 . S
C429 C428 1.404 . S
C429 H441 0.930 . S
C430 C426 1.524 . S
C430 H442 0.956 . S
C430 H443 0.961 . S
C430 H444 0.961 . S
C431 C428 1.539 1_554 S
C431 H445 0.958 . S
C431 H446 0.961 . S
C431 H447 0.960 . S
H432 C416 0.931 1_556 S
H433 C421 0.929 . S
H434 C422 0.960 . S
H435 C422 0.962 . S
H436 C422 0.960 . S
H437 C423 0.961 . S
H438 C423 0.961 . S
H439 C423 0.961 . S
H440 C424 0.931 . S
H441 C429 0.930 . S
H442 C430 0.956 . S
H443 C430 0.961 . S
H444 C430 0.961 . S
H445 C431 0.958 . S
H446 C431 0.961 . S
H447 C431 0.960 . S
C448 C449 1.391 1_554 S
C448 C450 1.394 . S
C448 H464 0.931 . S
C449 C448 1.391 1_556 S
C449 C453 1.376 . S
C450 C448 1.394 . S
C450 C451 1.369 . S
C450 C454 1.531 . S
C451 C450 1.369 . S
C451 C452 1.410 1_554 S
C451 C459 1.503 . S
C452 C451 1.410 1_556 S
C452 C453 1.392 . S
C452 C455 1.511 . S
C453 C449 1.376 . S
C453 C452 1.392 . S
C453 H465 0.929 . S
C454 C450 1.531 . S
C454 H466 0.960 . S
C454 H467 0.962 . S
C454 H468 0.960 . S
C455 C452 1.511 . S
C455 H469 0.961 . S
C455 H470 0.961 . S
C455 H471 0.961 . S
C456 C457 1.370 1_556 S
C456 C458 1.363 . S
C456 H472 0.931 . S
C457 C456 1.370 1_554 S
C457 C461 1.408 . S
C458 C456 1.363 . S
C458 C459 1.370 1_556 S
C458 C462 1.524 . S
C459 C451 1.503 . S
C459 C458 1.370 1_554 S
C459 C460 1.403 . S
C460 C459 1.403 . S
C460 C461 1.404 . S
C460 C463 1.539 . S
C461 C457 1.408 . S
C461 C460 1.404 . S
C461 H473 0.930 . S
C462 C458 1.524 . S
C462 H474 0.956 . S
C462 H475 0.961 . S
C462 H476 0.961 . S
C463 C460 1.539 . S
C463 H477 0.958 . S
C463 H478 0.961 . S
C463 H479 0.960 . S
H464 C448 0.931 . S
H465 C453 0.929 . S
H466 C454 0.960 . S
H467 C454 0.962 . S
H468 C454 0.960 . S
H469 C455 0.961 . S
H470 C455 0.961 . S
H471 C455 0.961 . S
H472 C456 0.931 . S
H473 C461 0.930 . S
H474 C462 0.956 . S
H475 C462 0.961 . S
H476 C462 0.961 . S
H477 C463 0.958 . S
H478 C463 0.961 . S
H479 C463 0.960 . S
C480 C481 1.391 . S
C480 C482 1.394 1_556 S
C480 H496 0.931 . S
C481 C480 1.391 . S
C481 C485 1.376 . S
C482 C480 1.394 1_554 S
C482 C483 1.369 1_554 S
C482 C486 1.531 . S
C483 C482 1.369 1_556 S
C483 C484 1.410 . S
C483 C491 1.503 1_556 S
C484 C483 1.410 . S
C484 C485 1.392 . S
C484 C487 1.511 . S
C485 C481 1.376 . S
C485 C484 1.392 . S
C485 H497 0.929 . S
C486 C482 1.531 . S
C486 H498 0.960 . S
C486 H499 0.962 . S
C486 H500 0.960 . S
C487 C484 1.511 . S
C487 H501 0.961 . S
C487 H502 0.961 . S
C487 H503 0.961 . S
C488 C489 1.370 . S
C488 C490 1.363 1_554 S
C488 H504 0.931 . S
C489 C488 1.370 . S
C489 C493 1.408 . S
C490 C488 1.363 1_556 S
C490 C491 1.370 1_556 S
C490 C494 1.524 . S
C491 C483 1.503 1_554 S
C491 C490 1.370 1_554 S
C491 C492 1.403 . S
C492 C491 1.403 . S
C492 C493 1.404 . S
C492 C495 1.539 . S
C493 C489 1.408 . S
C493 C492 1.404 . S
C493 H505 0.930 . S
C494 C490 1.524 . S
C494 H506 0.956 . S
C494 H507 0.961 . S
C494 H508 0.961 . S
C495 C492 1.539 . S
C495 H509 0.958 . S
C495 H510 0.961 . S
C495 H511 0.960 . S
H496 C480 0.931 . S
H497 C485 0.929 . S
H498 C486 0.960 . S
H499 C486 0.962 . S
H500 C486 0.960 . S
H501 C487 0.961 . S
H502 C487 0.961 . S
H503 C487 0.961 . S
H504 C488 0.931 . S
H505 C493 0.930 . S
H506 C494 0.956 . S
H507 C494 0.961 . S
H508 C494 0.961 . S
H509 C495 0.958 . S
H510 C495 0.961 . S
H511 C495 0.960 . S
C512 C513 1.391 . S
C512 C514 1.394 . S
C512 H528 0.931 . S
C513 C512 1.391 . S
C513 C517 1.376 1_554 S
C514 C512 1.394 . S
C514 C515 1.369 . S
C514 C518 1.531 . S
C515 C514 1.369 . S
C515 C516 1.410 1_554 S
C515 C523 1.503 . S
C516 C515 1.410 1_556 S
C516 C517 1.392 . S
C516 C519 1.511 . S
C517 C513 1.376 1_556 S
C517 C516 1.392 . S
C517 H529 0.929 . S
C518 C514 1.531 . S
C518 H530 0.960 . S
C518 H531 0.962 . S
C518 H532 0.960 . S
C519 C516 1.511 . S
C519 H533 0.961 . S
C519 H534 0.961 . S
C519 H535 0.961 . S
C520 C521 1.370 . S
C520 C522 1.363 . S
C520 H536 0.931 . S
C521 C520 1.370 . S
C521 C525 1.408 1_556 S
C522 C520 1.363 . S
C522 C523 1.370 1_556 S
C522 C526 1.524 . S
C523 C515 1.503 . S
C523 C522 1.370 1_554 S
C523 C524 1.403 . S
C524 C523 1.403 . S
C524 C525 1.404 . S
C524 C527 1.539 . S
C525 C521 1.408 1_554 S
C525 C524 1.404 . S
C525 H537 0.930 . S
C526 C522 1.524 . S
C526 H538 0.956 . S
C526 H539 0.961 . S
C526 H540 0.961 . S
C527 C524 1.539 . S
C527 H541 0.958 . S
C527 H542 0.961 . S
C527 H543 0.960 . S
H528 C512 0.931 . S
H529 C517 0.929 . S
H530 C518 0.960 . S
H531 C518 0.962 . S
H532 C518 0.960 . S
H533 C519 0.961 . S
H534 C519 0.961 . S
H535 C519 0.961 . S
H536 C520 0.931 . S
H537 C525 0.930 . S
H538 C526 0.956 . S
H539 C526 0.961 . S
H540 C526 0.961 . S
H541 C527 0.958 . S
H542 C527 0.961 . S
H543 C527 0.960 . S
C161 C103 1.963 . S
C169 C2 1.912 . S
C193 C63 2.520 . S
C201 C122 2.532 . S
C225 C143 1.930 . S
C233 C42 1.927 . S
C257 C23 2.527 . S
C265 C82 2.530 . S
C289 C144 1.572 . S
C297 C13 1.586 . S
C321 C106 1.600 . S
C329 C57 1.587 . S
C353 C104 1.574 . S
C361 C53 1.586 . S
C385 C17 1.582 . S
C393 C146 1.594 . S
C417 C137 0.674 . S
C425 C26 0.595 . S
C449 C93 1.915 . S
C457 C64 1.900 . S
C481 C66 0.545 . S
C489 C97 0.649 . S
C513 C24 1.887 . S
C521 C133 1.909 . S
