# Generated by pormake.
# Topology mok, (4)-cn, num edge types: 1
# Building blocks:
#     Node 0, Type 0, BuildingBlock: NAHDIM_clean_sbu_0, # of connection points: 4
#     Node 1, Type 0, BuildingBlock: NAHDIM_clean_sbu_0, # of connection points: 4
#     Node 2, Type 0, BuildingBlock: NAHDIM_clean_sbu_0, # of connection points: 4
#     Node 3, Type 0, BuildingBlock: NAHDIM_clean_sbu_0, # of connection points: 4
#     Node 4, Type 0, BuildingBlock: NAHDIM_clean_sbu_0, # of connection points: 4
#     Node 5, Type 0, BuildingBlock: NAHDIM_clean_sbu_0, # of connection points: 4
#     Node 6, Type 0, BuildingBlock: NAHDIM_clean_sbu_0, # of connection points: 4
#     Node 7, Type 0, BuildingBlock: NAHDIM_clean_sbu_0, # of connection points: 4
#     Edge 8, Type (0, 0), BuildingBlock: TEMPAE_clean_linker_10, # of connection points: 2
#     Edge 9, Type (0, 0), BuildingBlock: TEMPAE_clean_linker_10, # of connection points: 2
#     Edge 10, Type (0, 0), BuildingBlock: TEMPAE_clean_linker_10, # of connection points: 2
#     Edge 11, Type (0, 0), BuildingBlock: TEMPAE_clean_linker_10, # of connection points: 2
#     Edge 12, Type (0, 0), BuildingBlock: TEMPAE_clean_linker_10, # of connection points: 2
#     Edge 13, Type (0, 0), BuildingBlock: TEMPAE_clean_linker_10, # of connection points: 2
#     Edge 14, Type (0, 0), BuildingBlock: TEMPAE_clean_linker_10, # of connection points: 2
#     Edge 15, Type (0, 0), BuildingBlock: TEMPAE_clean_linker_10, # of connection points: 2
#     Edge 16, Type (0, 0), BuildingBlock: TEMPAE_clean_linker_10, # of connection points: 2
#     Edge 17, Type (0, 0), BuildingBlock: TEMPAE_clean_linker_10, # of connection points: 2
#     Edge 18, Type (0, 0), BuildingBlock: TEMPAE_clean_linker_10, # of connection points: 2
#     Edge 19, Type (0, 0), BuildingBlock: TEMPAE_clean_linker_10, # of connection points: 2
#     Edge 20, Type (0, 0), BuildingBlock: TEMPAE_clean_linker_10, # of connection points: 2
#     Edge 21, Type (0, 0), BuildingBlock: TEMPAE_clean_linker_10, # of connection points: 2
#     Edge 22, Type (0, 0), BuildingBlock: TEMPAE_clean_linker_10, # of connection points: 2
#     Edge 23, Type (0, 0), BuildingBlock: TEMPAE_clean_linker_10, # of connection points: 2
# Relax obj value: 0.051
# Max RMSD: 0.062
# Mean RMSD: 0.062
data_MOF--net-mok--node1-NAHDIM_clean_sbu_0--edge1-TEMPAE_clean_linker_10
_symmetry_space_group_name_H-M    P1
_symmetry_Int_Tables_number       1
_symmetry_cell_setting            triclinic
loop_
_symmetry_equiv_pos_as_xyz
'x, y, z'
_cell_length_a     50.485761
_cell_length_b     20.2826
_cell_length_c     25.316889
_cell_angle_alpha  89.980688
_cell_angle_beta   89.979961
_cell_angle_gamma 89.997404
loop_
_atom_site_label
_atom_site_type_symbol
_atom_site_fract_x
_atom_site_fract_y
_atom_site_fract_z
_atom_type_partial_charge
C0 C 0.57367 0.18198 0.99191 0.0
O1 O 0.58188 0.20767 0.94716 0.0
O2 O 0.59332 0.34718 0.97285 0.0
Zn3 Zn 0.60159 0.29225 0.03655 0.0
O4 O 0.5933 0.34172 0.10305 0.0
C5 C 0.65281 0.26542 0.99176 0.0
O6 O 0.63977 0.27437 0.94743 0.0
O7 O 0.57992 0.20968 0.03512 0.0
C8 C 0.60988 0.38297 0.12119 0.0
O9 O 0.63187 0.39399 0.09486 0.0
C10 C 0.57192 0.37861 0.96503 0.0
O11 O 0.55334 0.3779 0.00138 0.0
O12 O 0.64042 0.26938 0.03536 0.0
C13 C 0.45513 0.78237 0.00081 0.0
O14 O 0.46514 0.72258 0.00119 0.0
O15 O 0.41417 0.65648 0.93846 0.0
Zn16 Zn 0.40767 0.70819 0.00479 0.0
O17 O 0.41703 0.65536 0.06918 0.0
C18 C 0.35294 0.7233 0.97181 0.0
O19 O 0.36187 0.69873 0.92723 0.0
O20 O 0.43014 0.78938 0.00259 0.0
C21 C 0.40067 0.61224 0.08528 0.0
O22 O 0.37894 0.60191 0.05796 0.0
C23 C 0.42965 0.60741 0.93415 0.0
O24 O 0.44272 0.58654 0.9758 0.0
O25 O 0.36901 0.733 0.00968 0.0
C26 C 0.54891 0.78415 0.52201 0.0
O27 O 0.54044 0.72448 0.51093 0.0
O28 O 0.58549 0.66463 0.61439 0.0
Zn29 Zn 0.59499 0.71079 0.54668 0.0
O30 O 0.58935 0.65411 0.48246 0.0
C31 C 0.65021 0.6915 0.56292 0.0
O32 O 0.64137 0.63313 0.57686 0.0
O33 O 0.57242 0.79156 0.53889 0.0
C34 C 0.5937 0.59253 0.47959 0.0
O35 O 0.60167 0.56053 0.5218 0.0
C36 C 0.56685 0.62321 0.62052 0.0
O37 O 0.55198 0.60696 0.58 0.0
O38 O 0.63367 0.73547 0.54898 0.0
C39 C 0.43053 0.17993 0.47421 0.0
O40 O 0.43 0.21229 0.42927 0.0
O41 O 0.40418 0.33656 0.5773 0.0
Zn42 Zn 0.39724 0.28699 0.51026 0.0
O43 O 0.40809 0.33914 0.44617 0.0
C44 C 0.34231 0.31707 0.51243 0.0
O45 O 0.35217 0.37548 0.52311 0.0
O46 O 0.4176 0.20211 0.51343 0.0
C47 C 0.4074 0.40165 0.44337 0.0
O48 O 0.40023 0.43589 0.48501 0.0
C49 C 0.42588 0.36549 0.58771 0.0
O50 O 0.44507 0.36507 0.55264 0.0
O51 O 0.35808 0.26899 0.50541 0.0
C52 C 0.05638 0.71273 0.05085 0.0
O53 O 0.04731 0.77121 0.06388 0.0
O54 O 0.09345 0.83871 0.96722 0.0
Zn55 Zn 0.10249 0.78926 0.03355 0.0
O56 O 0.09541 0.84227 0.09915 0.0
C57 C 0.15718 0.81053 0.01319 0.0
O58 O 0.14754 0.86778 0.99841 0.0
O59 O 0.08038 0.70716 0.03638 0.0
C60 C 0.09994 0.90361 0.10359 0.0
O61 O 0.10932 0.93638 0.06293 0.0
C62 C 0.07398 0.87735 0.95998 0.0
O63 O 0.05739 0.88877 -0.0011 0.0
O64 O 0.14138 0.76669 0.03046 0.0
C65 C 0.93561 0.31712 0.04461 0.0
O66 O 0.93006 0.28404 0.08784 0.0
O67 O 0.91452 0.1681 0.92728 0.0
Zn68 Zn 0.90548 0.21334 0.9954 0.0
O69 O 0.91276 0.15634 0.05891 0.0
C70 C 0.8503 0.18885 0.98411 0.0
O71 O 0.85958 0.13014 0.97247 0.0
O72 O 0.92683 0.29654 0.00057 0.0
C73 C 0.91006 0.09412 0.06102 0.0
O74 O 0.90314 0.06168 0.0183 0.0
C75 C 0.93439 0.13079 0.91994 0.0
O76 O 0.95072 0.11882 0.95918 0.0
O77 O 0.86652 0.23483 0.995 0.0
C78 C 0.04586 0.289 0.54658 0.0
O79 O 0.03589 0.22949 0.55152 0.0
O80 O 0.08635 0.16318 0.60656 0.0
Zn81 Zn 0.09327 0.21434 0.5402 0.0
O82 O 0.08536 0.16067 0.47547 0.0
C83 C 0.14415 0.25402 0.49784 0.0
O84 O 0.13108 0.2565 0.45301 0.0
O85 O 0.0707 0.29553 0.54059 0.0
C86 C 0.10075 0.11354 0.4633 0.0
O87 O 0.12061 0.09934 0.49487 0.0
C88 C 0.07116 0.11351 0.61072 0.0
O89 O 0.05856 0.0917 0.56882 0.0
O90 O 0.13186 0.23884 0.53992 0.0
C91 C 0.92787 0.68986 0.55215 0.0
O92 O 0.92152 0.71926 0.59662 0.0
O93 O 0.90716 0.85371 0.56878 0.0
Zn94 Zn 0.89861 0.79739 0.50599 0.0
O95 O 0.90718 0.84514 0.4387 0.0
C96 C 0.84735 0.77359 0.55166 0.0
O97 O 0.86051 0.78425 0.59559 0.0
O98 O 0.91999 0.71425 0.50868 0.0
C99 C 0.89043 0.88444 0.4185 0.0
O100 O 0.86786 0.89461 0.44306 0.0
C101 C 0.92857 0.8852 0.57625 0.0
O102 O 0.94714 0.88393 0.5399 0.0
O103 O 0.85967 0.77536 0.50787 0.0
C104 C 0.80374 0.14738 0.98067 0.0
C105 C 0.82136 0.20054 0.9854 0.0
C106 C 0.77625 0.15721 0.98224 0.0
C107 C 0.76613 0.22183 0.98826 0.0
C108 C 0.78378 0.27576 0.99293 0.0
C109 C 0.81122 0.26444 0.99165 0.0
C110 C 0.75804 0.09842 0.97752 0.0
C111 C 0.77368 0.34542 -0.00096 0.0
C112 C 0.69563 0.25392 0.94295 0.0
C113 C 0.68173 0.2533 0.99093 0.0
C114 C 0.72313 0.24403 0.94155 0.0
C115 C 0.73703 0.23295 0.98926 0.0
C116 C 0.72313 0.23192 0.03781 0.0
C117 C 0.69564 0.24224 0.03808 0.0
C118 C 0.7373 0.24562 0.88902 0.0
C119 C 0.73729 0.21988 0.08945 0.0
H120 H 0.8114 0.0978 0.97608 0.0
H121 H 0.82471 0.30576 0.99524 0.0
H122 H 0.74502 0.09535 0.01274 0.0
H123 H 0.74502 0.10419 0.94254 0.0
H124 H 0.76909 0.05129 0.9737 0.0
H125 H 0.79002 0.38192 0.00213 0.0
H126 H 0.76108 0.35868 0.96475 0.0
H127 H 0.76114 0.3492 0.0349 0.0
H128 H 0.68507 0.26258 0.90633 0.0
H129 H 0.68505 0.24168 0.07534 0.0
H130 H 0.7474 0.19784 0.88197 0.0
H131 H 0.75281 0.28439 0.88943 0.0
H132 H 0.72362 0.2554 0.85556 0.0
H133 H 0.74751 0.17147 0.08832 0.0
H134 H 0.72357 0.22045 0.12378 0.0
H135 H 0.75269 0.25811 0.09562 0.0
C136 C 0.20319 0.8478 0.99245 0.0
C137 C 0.18597 0.79752 0.00891 0.0
C138 C 0.23046 0.83641 0.98724 0.0
C139 C 0.24079 0.77313 0.99861 0.0
C140 C 0.22358 0.72222 0.01558 0.0
C141 C 0.19635 0.73505 0.02063 0.0
C142 C 0.24821 0.89201 0.9692 0.0
C143 C 0.23389 0.65407 0.02797 0.0
C144 C 0.30668 0.72681 0.93654 0.0
C145 C 0.32432 0.73695 0.97857 0.0
C146 C 0.27943 0.73814 0.94262 0.0
C147 C 0.26957 0.76008 0.99191 0.0
C148 C 0.28724 0.77048 0.0345 0.0
C149 C 0.31441 0.75884 0.02731 0.0
C150 C 0.26119 0.72668 0.89625 0.0
C151 C 0.27744 0.79391 0.08764 0.0
H152 H 0.19537 0.89629 0.98345 0.0
H153 H 0.18318 0.69594 0.03335 0.0
H154 H 0.26392 0.90101 -0.00105 0.0
H155 H 0.2582 0.87826 0.93175 0.0
H156 H 0.23711 0.93864 0.96281 0.0
H157 H 0.21797 0.6202 0.04145 0.0
H158 H 0.24339 0.63263 0.99237 0.0
H159 H 0.24928 0.65689 0.05916 0.0
H160 H 0.31413 0.70987 0.89876 0.0
H161 H 0.32788 0.76662 0.06005 0.0
H162 H 0.25071 0.77306 0.88609 0.0
H163 H 0.24588 0.68972 0.90684 0.0
H164 H 0.27197 0.70906 0.86069 0.0
H165 H 0.2674 0.84226 0.08333 0.0
H166 H 0.29373 0.79914 0.11683 0.0
H167 H 0.26262 0.75871 0.10353 0.0
C168 C 0.80456 0.7659 0.6011 0.0
C169 C 0.81842 0.76165 0.55317 0.0
C170 C 0.77709 0.75575 0.60317 0.0
C171 C 0.76315 0.74061 0.55623 0.0
C172 C 0.777 0.73614 0.50772 0.0
C173 C 0.80446 0.74689 0.50674 0.0
C174 C 0.76299 0.76119 0.65561 0.0
C175 C 0.76281 0.71967 0.45691 0.0
C176 C 0.69709 0.6529 0.56944 0.0
C177 C 0.67905 0.70467 0.56182 0.0
C178 C 0.72449 0.6639 0.56746 0.0
C179 C 0.73413 0.72835 0.55808 0.0
C180 C 0.71607 0.78096 0.55069 0.0
C181 C 0.68872 0.76845 0.55243 0.0
C182 C 0.74314 0.60645 0.57516 0.0
C183 C 0.72564 0.85046 0.54101 0.0
H184 H 0.81516 0.77751 0.63715 0.0
H185 H 0.815 0.74353 0.46954 0.0
H186 H 0.74718 0.79907 0.6532 0.0
H187 H 0.75329 0.71365 0.6654 0.0
H188 H 0.77664 0.77447 0.68832 0.0
H189 H 0.77644 0.71835 0.42246 0.0
H190 H 0.75298 0.67095 0.46049 0.0
H191 H 0.74709 0.75663 0.4491 0.0
H192 H 0.6898 0.60339 0.57647 0.0
H193 H 0.67491 0.80872 0.5466 0.0
H194 H 0.75621 0.61571 0.60959 0.0
H195 H 0.75609 0.601 0.54002 0.0
H196 H 0.73245 0.55927 0.58166 0.0
H197 H 0.73828 0.86684 0.57436 0.0
H198 H 0.70903 0.88594 0.53642 0.0
H199 H 0.73801 0.85204 0.50481 0.0
C200 C 0.18718 0.27774 0.45234 0.0
C201 C 0.17314 0.26512 0.49909 0.0
C202 C 0.21478 0.28622 0.45292 0.0
C203 C 0.22864 0.28202 0.50141 0.0
C204 C 0.21458 0.26966 0.54875 0.0
C205 C 0.18701 0.26137 0.54703 0.0
C206 C 0.22913 0.29943 0.40166 0.0
C207 C 0.22867 0.26495 0.60124 0.0
C208 C 0.30242 0.24507 0.50036 0.0
C209 C 0.31327 0.30787 0.50871 0.0
C210 C 0.27488 0.23598 0.49744 0.0
C211 C 0.25785 0.29103 0.50284 0.0
C212 C 0.26869 0.35458 0.51076 0.0
C213 C 0.29626 0.36222 0.51368 0.0
C214 C 0.26401 0.16742 0.48907 0.0
C215 C 0.25115 0.41449 0.51656 0.0
H216 H 0.17664 0.28057 0.41512 0.0
H217 H 0.17635 0.25158 0.58336 0.0
H218 H 0.23993 0.34698 0.40413 0.0
H219 H 0.24408 0.26036 0.39447 0.0
H220 H 0.21545 0.30134 0.36733 0.0
H221 H 0.21483 0.25499 0.63443 0.0
H222 H 0.24366 0.22499 0.59991 0.0
H223 H 0.23937 0.3116 0.60947 0.0
H224 H 0.31542 0.20283 0.49646 0.0
H225 H 0.30446 0.41097 0.51995 0.0
H226 H 0.25138 0.16634 0.45323 0.0
H227 H 0.25132 0.15326 0.52301 0.0
H228 H 0.27993 0.13001 0.48465 0.0
H229 H 0.23821 0.41961 0.48138 0.0
H230 H 0.26273 0.46067 0.52138 0.0
H231 H 0.23802 0.40852 0.55138 0.0
C232 C 0.62494 0.4544 0.19571 0.0
C233 C 0.6052 0.41512 0.17282 0.0
C234 C 0.62137 0.48259 0.24576 0.0
C235 C 0.59742 0.4715 0.27347 0.0
C236 C 0.57719 0.43292 0.25023 0.0
C237 C 0.58135 0.40503 0.20018 0.0
C238 C 0.64339 0.52355 0.26929 0.0
C239 C 0.55131 0.42055 0.27847 0.0
C240 C 0.60128 0.4941 0.42198 0.0
C241 C 0.5921 0.55893 0.42782 0.0
C242 C 0.6023 0.46416 0.37207 0.0
C243 C 0.59383 0.49986 0.32707 0.0
C244 C 0.58348 0.56424 0.333 0.0
C245 C 0.58278 0.59306 0.38331 0.0
C246 C 0.61339 0.39528 0.36722 0.0
C247 C 0.57405 0.60362 0.28598 0.0
H248 H 0.64342 0.46243 0.17487 0.0
H249 H 0.56595 0.3749 0.18267 0.0
H250 H 0.63602 0.57373 0.27868 0.0
H251 H 0.65018 0.50103 0.30687 0.0
H252 H 0.66066 0.5281 0.24233 0.0
H253 H 0.53733 0.39083 0.25438 0.0
H254 H 0.55505 0.39421 0.31615 0.0
H255 H 0.54169 0.4681 0.28853 0.0
H256 H 0.60844 0.46733 0.45618 0.0
H257 H 0.57545 0.64301 0.38752 0.0
H258 H 0.6321 0.39661 0.34424 0.0
H259 H 0.59935 0.3632 0.34543 0.0
H260 H 0.6175 0.37263 0.40633 0.0
H261 H 0.59105 0.61456 0.25961 0.0
H262 H 0.5647 0.65097 0.29777 0.0
H263 H 0.55953 0.57464 0.26269 0.0
C264 C 0.38458 0.54016 0.15843 0.0
C265 C 0.40493 0.57818 0.13626 0.0
C266 C 0.38745 0.51138 0.20843 0.0
C267 C 0.41135 0.52031 0.23676 0.0
C268 C 0.43229 0.55698 0.214 0.0
C269 C 0.42879 0.58579 0.16404 0.0
C270 C 0.36462 0.47273 0.23149 0.0
C271 C 0.45818 0.56675 0.24282 0.0
C272 C 0.40453 0.50079 0.38501 0.0
C273 C 0.41171 0.43458 0.39195 0.0
C274 C 0.4054 0.53025 0.3349 0.0
C275 C 0.41387 0.49272 0.29088 0.0
C276 C 0.42256 0.42704 0.29815 0.0
C277 C 0.42126 0.39862 0.3486 0.0
C278 C 0.39594 0.60047 0.32866 0.0
C279 C 0.4321 0.38579 0.25228 0.0
H280 H 0.36608 0.53406 0.13727 0.0
H281 H 0.44466 0.61485 0.14701 0.0
H282 H 0.37114 0.42208 0.24168 0.0
H283 H 0.35778 0.49647 0.26855 0.0
H284 H 0.34756 0.46931 0.2039 0.0
H285 H 0.47301 0.59346 0.21845 0.0
H286 H 0.45472 0.59517 0.27961 0.0
H287 H 0.46661 0.51838 0.25452 0.0
H288 H 0.3972 0.52896 0.41832 0.0
H289 H 0.42712 0.3476 0.35377 0.0
H290 H 0.37743 0.60115 0.30504 0.0
H291 H 0.41085 0.63011 0.30695 0.0
H292 H 0.39197 0.62451 0.36729 0.0
H293 H 0.41526 0.37507 0.2255 0.0
H294 H 0.44083 0.33825 0.2654 0.0
H295 H 0.44713 0.41316 0.22901 0.0
C296 C 0.44757 0.5162 0.8777 0.0
C297 C 0.43228 0.57358 0.88264 0.0
C298 C 0.44907 0.48234 0.82943 0.0
C299 C 0.43479 0.50632 0.78527 0.0
C300 C 0.41993 0.56519 0.78967 0.0
C301 C 0.41886 0.59809 0.83825 0.0
C302 C 0.465 0.41946 0.82658 0.0
C303 C 0.40436 0.59227 0.74354 0.0
C304 C 0.44966 0.44521 0.64651 0.0
C305 C 0.42912 0.39968 0.63884 0.0
C306 C 0.45204 0.47979 0.69433 0.0
C307 C 0.43369 0.46768 0.73551 0.0
C308 C 0.41335 0.42054 0.7284 0.0
C309 C 0.41122 0.38742 0.68006 0.0
C310 C 0.47376 0.53033 0.70038 0.0
C311 C 0.39351 0.40595 0.77152 0.0
H312 H 0.45802 0.49692 0.91177 0.0
H313 H 0.4071 0.64261 0.84158 0.0
H314 H 0.45146 0.37672 0.8308 0.0
H315 H 0.47521 0.41471 0.788 0.0
H316 H 0.48 0.41677 0.85862 0.0
H317 H 0.3952 0.64079 0.75252 0.0
H318 H 0.41738 0.59787 0.70852 0.0
H319 H 0.38841 0.55718 0.73268 0.0
H320 H 0.46353 0.45495 0.61475 0.0
H321 H 0.39544 0.35186 0.67456 0.0
H322 H 0.48524 0.5205 0.73683 0.0
H323 H 0.46496 0.58018 0.70449 0.0
H324 H 0.48752 0.53068 0.66614 0.0
H325 H 0.40395 0.39067 0.80807 0.0
H326 H 0.37937 0.36642 0.76022 0.0
H327 H 0.38207 0.45115 0.78098 0.0
C328 C 0.58661 0.40701 0.87382 0.0
C329 C 0.56819 0.41482 0.91484 0.0
C330 C 0.58393 0.44145 0.8262 0.0
C331 C 0.56237 0.48521 0.81943 0.0
C332 C 0.54351 0.49294 0.86038 0.0
C333 C 0.54656 0.45729 0.90761 0.0
C334 C 0.60445 0.43173 0.78343 0.0
C335 C 0.52037 0.53946 0.85454 0.0
C336 C 0.57527 0.61779 0.71747 0.0
C337 C 0.56316 0.59113 0.67244 0.0
C338 C 0.57397 0.58539 0.76628 0.0
C339 C 0.56042 0.52451 0.77006 0.0
C340 C 0.54728 0.49852 0.72525 0.0
C341 C 0.5487 0.53236 0.67693 0.0
C342 C 0.58815 0.61485 0.8132 0.0
C343 C 0.53303 0.43315 0.72743 0.0
H344 H 0.60328 0.37392 0.87888 0.0
H345 H 0.53221 0.46344 0.93909 0.0
H346 H 0.59474 0.41593 0.74623 0.0
H347 H 0.61468 0.47907 0.77528 0.0
H348 H 0.61956 0.39435 0.79439 0.0
H349 H 0.50736 0.53958 0.88992 0.0
H350 H 0.52762 0.59037 0.84763 0.0
H351 H 0.50843 0.52533 0.81963 0.0
H352 H 0.58626 0.66356 0.71439 0.0
H353 H 0.53934 0.51141 0.64226 0.0
H354 H 0.60518 0.58309 0.82418 0.0
H355 H 0.57474 0.61705 0.84786 0.0
H356 H 0.59568 0.66528 0.80495 0.0
H357 H 0.5478 0.39267 0.72657 0.0
H358 H 0.51938 0.42655 0.69341 0.0
H359 H 0.52159 0.42825 0.76459 0.0
C360 C 0.10664 -0.00029 0.16399 0.0
C361 C 0.09647 0.93632 0.15536 0.0
C362 C 0.10548 0.0289 0.21418 0.0
C363 C 0.09367 0.99403 0.25655 0.0
C364 C 0.08242 0.93114 0.24759 0.0
C365 C 0.08405 0.90291 0.19713 0.0
C366 C 0.11773 0.09606 0.22228 0.0
C367 C 0.06938 0.89284 0.29166 0.0
C368 C 0.11772 0.03645 0.39426 0.0
C369 C 0.09788 0.07948 0.41196 0.0
C370 C 0.11636 0.00763 0.34401 0.0
C371 C 0.09453 0.02177 0.31082 0.0
C372 C 0.07404 0.06363 0.32898 0.0
C373 C 0.07601 0.09223 0.37931 0.0
C374 C 0.13864 0.96329 0.32595 0.0
C375 C 0.05031 0.07917 0.29488 0.0
H376 H 0.11623 0.02586 0.13191 0.0
H377 H 0.07592 0.8541 0.19066 0.0
H378 H 0.10313 0.13011 0.24039 0.0
H379 H 0.1347 0.09206 0.24996 0.0
H380 H 0.12491 0.11809 0.18473 0.0
H381 H 0.05986 0.84683 0.27731 0.0
H382 H 0.08438 0.87959 0.32188 0.0
H383 H 0.05416 0.92359 0.31147 0.0
H384 H 0.1347 0.02639 0.41919 0.0
H385 H 0.06054 0.12523 0.39282 0.0
H386 H 0.14832 0.98479 0.29056 0.0
H387 H 0.13071 0.91437 0.3144 0.0
H388 H 0.1539 0.95604 0.35702 0.0
H389 H 0.05679 0.10576 0.25882 0.0
H390 H 0.03546 0.10999 0.31584 0.0
H391 H 0.0406 0.03289 0.28182 0.0
C392 C 0.92028 0.9074 0.34158 0.0
C393 C 0.89572 0.91575 0.36675 0.0
C394 C 0.92515 0.93505 0.29167 0.0
C395 C 0.90494 0.97156 0.26632 0.0
C396 C 0.88022 0.98064 0.29171 0.0
C397 C 0.87594 0.95278 0.34167 0.0
C398 C 0.95183 0.92484 0.26593 0.0
C399 C 0.85816 0.01928 0.26586 0.0
C400 C 0.91977 0.09486 0.15781 0.0
C401 C 0.91181 0.06008 0.11261 0.0
C402 C 0.91872 0.06565 0.20797 0.0
C403 C 0.90938 0.00019 0.21304 0.0
C404 C 0.90246 0.9638 0.16737 0.0
C405 C 0.90382 0.99416 0.11762 0.0
C406 C 0.92653 0.1058 0.25572 0.0
C407 C 0.89248 0.89378 0.17126 0.0
H408 H 0.93571 0.87899 0.36077 0.0
H409 H 0.85691 0.95941 0.36078 0.0
H410 H 0.94935 0.89825 0.22796 0.0
H411 H 0.96103 0.97318 0.25673 0.0
H412 H 0.96561 0.89629 0.29136 0.0
H413 H 0.84016 0.02203 0.291 0.0
H414 H 0.86492 0.07018 0.25716 0.0
H415 H 0.85274 0.9961 0.22767 0.0
H416 H 0.9262 0.14567 0.15425 0.0
H417 H 0.89772 0.96687 0.08289 0.0
H418 H 0.94082 0.07801 0.28046 0.0
H419 H 0.90878 0.11551 0.28038 0.0
H420 H 0.93556 0.15382 0.24467 0.0
H421 H 0.90643 0.86328 0.19469 0.0
H422 H 0.88986 0.87064 0.13183 0.0
H423 H 0.87315 0.89317 0.19211 0.0
C424 C 0.95405 0.96415 0.63324 0.0
C425 C 0.9324 0.92168 0.62627 0.0
C426 C 0.95721 -0.00015 0.6804 0.0
C427 C 0.93843 0.99224 0.7215 0.0
C428 C 0.91686 0.94847 0.715 0.0
C429 C 0.91407 0.91396 0.66747 0.0
C430 C 0.98035 0.04642 0.68601 0.0
C431 C 0.89646 0.93877 0.75801 0.0
C432 C 0.95254 0.04003 0.86366 0.0
C433 C 0.93801 0.09864 0.86812 0.0
C434 C 0.95381 0.00596 0.81545 0.0
C435 C 0.94048 0.03168 0.77073 0.0
C436 C 0.92686 0.09248 0.77451 0.0
C437 C 0.92565 0.12499 0.82325 0.0
C438 C 0.96805 0.94059 0.81337 0.0
C439 C 0.91252 0.12172 0.72767 0.0
H440 H 0.96833 0.97024 0.60162 0.0
H441 H 0.89739 0.88085 0.66264 0.0
H442 H 0.97305 0.09757 0.69135 0.0
H443 H 0.99198 0.03367 0.72172 0.0
H444 H 0.99366 0.04522 0.65108 0.0
H445 H 0.88135 0.90128 0.74729 0.0
H446 H 0.90628 0.92311 0.79514 0.0
H447 H 0.88621 0.98608 0.76616 0.0
H448 H 0.962 0.01929 0.89832 0.0
H449 H 0.91461 0.17066 0.82642 0.0
H450 H 0.97902 0.93494 0.77572 0.0
H451 H 0.9533 0.90014 0.81552 0.0
H452 H 0.98211 0.93467 0.84679 0.0
H453 H 0.92584 0.12385 0.69285 0.0
H454 H 0.90499 0.17215 0.73587 0.0
H455 H 0.89548 0.08986 0.71697 0.0
C456 C 0.05055 0.95668 0.89996 0.0
C457 C 0.07069 0.91014 0.90815 0.0
C458 C 0.04817 0.98973 0.85142 0.0
C459 C 0.06632 0.97572 0.81028 0.0
C460 C 0.08625 0.92769 0.81792 0.0
C461 C 0.0882 0.89554 0.86672 0.0
C462 C 0.02664 0.04064 0.84448 0.0
C463 C 0.10596 0.91135 0.77495 0.0
C464 C 0.05303 0.02278 0.66748 0.0
C465 C 0.06838 0.08005 0.66237 0.0
C466 C 0.05133 0.9894 0.71597 0.0
C467 C 0.06553 0.01362 0.76012 0.0
C468 C 0.08057 0.07218 0.75546 0.0
C469 C 0.08175 0.10474 0.70674 0.0
C470 C 0.03524 0.92678 0.71897 0.0
C471 C 0.09623 0.09923 0.80147 0.0
H472 H 0.03687 0.96807 0.93168 0.0
H473 H 0.10374 0.85937 0.87252 0.0
H474 H 0.03563 0.09024 0.84015 0.0
H475 H 0.0153 0.03062 0.80786 0.0
H476 H 0.01274 0.04172 0.87847 0.0
H477 H 0.11993 0.87173 0.78688 0.0
H478 H 0.09538 0.89535 0.73876 0.0
H479 H 0.11758 0.95596 0.7646 0.0
H480 H 0.04265 0.00329 0.63343 0.0
H481 H 0.0936 0.14909 0.70326 0.0
H482 H 0.02572 0.92098 0.75817 0.0
H483 H 0.04853 0.88392 0.71281 0.0
H484 H 0.01967 0.92536 0.68798 0.0
H485 H 0.08314 0.1063 0.8362 0.0
H486 H 0.10588 0.14702 0.79202 0.0
H487 H 0.1118 0.06341 0.81303 0.0
C488 C 0.46199 0.90439 0.99722 0.0
C489 C 0.47271 0.84059 0.99817 0.0
C490 C 0.47845 0.96 0.99503 0.0
C491 C 0.50627 0.95154 0.99384 0.0
C492 C 0.51722 0.88732 0.99445 0.0
C493 C 0.50029 0.83257 0.99659 0.0
C494 C 0.46609 0.02781 0.9944 0.0
C495 C 0.54681 0.87649 0.99328 0.0
C496 C 0.54849 0.09366 0.9446 0.0
C497 C 0.55684 0.1223 0.99219 0.0
C498 C 0.53209 0.03782 0.94451 0.0
C499 C 0.52393 0.01001 0.99314 0.0
C500 C 0.53244 0.03837 0.04128 0.0
C501 C 0.54877 0.09421 0.04022 0.0
C502 C 0.52334 0.00884 0.89242 0.0
C503 C 0.52417 0.00993 0.09392 0.0
H504 H 0.44069 0.911 0.99832 0.0
H505 H 0.50873 0.78344 0.99723 0.0
H506 H 0.47269 0.05618 0.02946 0.0
H507 H 0.47271 0.05534 0.9589 0.0
H508 H 0.4441 0.02586 0.99443 0.0
H509 H 0.55213 0.82334 0.99298 0.0
H510 H 0.55547 0.90019 0.95775 0.0
H511 H 0.55608 0.89989 0.0283 0.0
H512 H 0.55462 0.1151 0.90733 0.0
H513 H 0.55516 0.11597 0.07718 0.0
H514 H 0.50141 0.00981 0.88968 0.0
H515 H 0.52957 0.95649 0.8898 0.0
H516 H 0.53165 0.03596 0.85807 0.0
H517 H 0.50227 0.01088 0.09748 0.0
H518 H 0.53278 0.03741 0.12776 0.0
H519 H 0.53046 0.95763 0.0967 0.0
C520 C 0.54044 0.90563 0.52529 0.0
C521 C 0.53133 0.84172 0.51444 0.0
C522 C 0.52394 0.96054 0.51812 0.0
C523 C 0.49773 0.95125 0.49971 0.0
C524 C 0.48843 0.88693 0.48861 0.0
C525 C 0.50536 0.83292 0.49609 0.0
C526 C 0.53452 0.0285 0.53035 0.0
C527 C 0.46058 0.87517 0.46899 0.0
C528 C 0.44773 0.0861 0.52831 0.0
C529 C 0.44701 0.12005 0.48004 0.0
C530 C 0.464 0.03073 0.53511 0.0
C531 C 0.47995 0.00885 0.49262 0.0
C532 C 0.47911 0.04238 0.44361 0.0
C533 C 0.46262 0.0976 0.43788 0.0
C534 C 0.46434 0.99605 0.58792 0.0
C535 C 0.49586 0.02035 0.39743 0.0
H536 H 0.56049 0.91285 0.53942 0.0
H537 H 0.49817 0.7837 0.48759 0.0
H538 H 0.53322 0.06022 0.49473 0.0
H539 H 0.52228 0.05195 0.56153 0.0
H540 H 0.55544 0.02733 0.54388 0.0
H541 H 0.45648 0.82212 0.46179 0.0
H542 H 0.44607 0.89394 0.49828 0.0
H543 H 0.45726 0.90269 0.43169 0.0
H544 H 0.43571 0.10305 0.56109 0.0
H545 H 0.46219 0.12355 0.40047 0.0
H546 H 0.48459 -0.00239 0.60487 0.0
H547 H 0.459 0.94338 0.58282 0.0
H548 H 0.45039 0.01863 0.61665 0.0
H549 H 0.51714 0.02272 0.40817 0.0
H550 H 0.49259 0.05114 0.36172 0.0
H551 H 0.49134 0.96828 0.38749 0.0
C552 C 0.04854 0.59158 0.04067 0.0
C553 C 0.03867 0.65467 0.05189 0.0
C554 C 0.03179 0.53642 0.04057 0.0
C555 C 0.00451 0.54468 0.05173 0.0
C556 C 0.99445 0.60812 0.06342 0.0
C557 C 0.01167 0.66235 0.06348 0.0
C558 C 0.04322 0.46937 0.02816 0.0
C559 C 0.96544 0.6188 0.0753 0.0
C560 C 0.95724 0.41387 0.00117 0.0
C561 C 0.95267 0.37634 0.04683 0.0
C562 C 0.97391 0.46912 0.00234 0.0
C563 C 0.98641 0.48704 0.05025 0.0
C564 C 0.98177 0.44969 0.09655 0.0
C565 C 0.96488 0.39484 0.09432 0.0
C566 C 0.97828 0.50809 0.95223 0.0
C567 C 0.99484 0.4673 0.14831 0.0
H568 H 0.06939 0.58522 0.0318 0.0
H569 H 0.00386 0.71094 0.07215 0.0
H570 H 0.03908 0.43472 0.06106 0.0
H571 H 0.03365 0.44898 0.99227 0.0
H572 H 0.06496 0.47112 0.02152 0.0
H573 H 0.96085 0.67116 0.08437 0.0
H574 H 0.95329 0.60322 0.04099 0.0
H575 H 0.95935 0.58801 0.10943 0.0
H576 H 0.94782 0.40001 0.96434 0.0
H577 H 0.96149 0.36603 0.12975 0.0
H578 H 0.99959 0.50752 0.94156 0.0
H579 H 0.97257 0.56034 0.95849 0.0
H580 H 0.96671 0.48827 0.91845 0.0
H581 H 0.0167 0.46551 0.14389 0.0
H582 H 0.98898 0.43351 0.18082 0.0
H583 H 0.98955 0.51843 0.15973 0.0
C584 C 0.03896 0.41099 0.54195 0.0
C585 C 0.0284 0.34752 0.54839 0.0
C586 C 0.0226 0.46683 0.54346 0.0
C587 C 0.99505 0.45895 0.55164 0.0
C588 C 0.98428 0.39511 0.55847 0.0
C589 C 0.00109 0.34011 0.55674 0.0
C590 C 0.03476 0.53423 0.536 0.0
C591 C 0.95498 0.38488 0.56731 0.0
C592 C 0.95568 0.6067 0.59961 0.0
C593 C 0.94459 0.62998 0.55237 0.0
C594 C 0.9721 0.55089 0.60002 0.0
C595 C 0.97742 0.51751 0.55209 0.0
C596 C 0.96609 0.54038 0.50437 0.0
C597 C 0.94985 0.59642 0.50507 0.0
C598 C 0.98393 0.52794 0.65164 0.0
C599 C 0.97125 0.50585 0.45252 0.0
H600 H 0.06004 0.41713 0.53553 0.0
H601 H 0.99279 0.29126 0.56188 0.0
H602 H 0.02605 0.55846 0.50077 0.0
H603 H 0.03025 0.56589 0.57058 0.0
H604 H 0.0566 0.53195 0.53088 0.0
H605 H 0.94981 0.33206 0.57272 0.0
H606 H 0.94842 0.41261 0.60274 0.0
H607 H 0.94367 0.40439 0.53314 0.0
H608 H 0.95175 0.63244 0.6363 0.0
H609 H 0.94131 0.61398 0.4684 0.0
H610 H 0.00587 0.52898 0.64913 0.0
H611 H 0.97803 0.47619 0.65959 0.0
H612 H 0.97763 0.559 0.68552 0.0
H613 H 0.99278 0.50607 0.44377 0.0
H614 H 0.96064 0.52942 0.41903 0.0
H615 H 0.96495 0.45354 0.45517 0.0
loop_
_geom_bond_atom_site_label_1
_geom_bond_atom_site_label_2
_geom_bond_distance
_geom_bond_site_symmetry_2
_ccdc_geom_bond_type
C0 O1 1.160 1_554 S
C0 O7 1.185 . S
O1 C0 1.160 1_556 S
O2 Zn3 1.899 1_556 S
O2 C10 1.284 . S
Zn3 O2 1.899 1_554 S
Zn3 O4 2.032 . S
Zn3 O7 2.086 . S
Zn3 O12 1.977 . S
O4 Zn3 2.032 . S
O4 C8 1.278 . S
C5 O6 1.203 1_554 S
C5 O12 1.267 . S
O6 C5 1.203 1_556 S
O7 C0 1.185 . S
O7 Zn3 2.086 . S
C8 O4 1.278 . S
C8 O9 1.211 . S
O9 C8 1.211 . S
C10 O2 1.284 . S
C10 O11 1.273 . S
O11 C10 1.273 . S
O12 Zn3 1.977 . S
O12 C5 1.267 . S
C13 O14 1.160 1_554 S
C13 O20 1.185 . S
O14 C13 1.160 1_556 S
O15 Zn16 1.899 1_556 S
O15 C23 1.284 . S
Zn16 O15 1.899 1_554 S
Zn16 O17 2.032 . S
Zn16 O20 2.086 . S
Zn16 O25 1.977 . S
O17 Zn16 2.032 . S
O17 C21 1.278 . S
C18 O19 1.203 1_554 S
C18 O25 1.267 . S
O19 C18 1.203 1_556 S
O20 C13 1.185 . S
O20 Zn16 2.086 . S
C21 O17 1.278 . S
C21 O22 1.211 . S
O22 C21 1.211 . S
C23 O15 1.284 . S
C23 O24 1.273 . S
O24 C23 1.273 . S
O25 Zn16 1.977 . S
O25 C18 1.267 . S
C26 O27 1.160 . S
C26 O33 1.185 . S
O27 C26 1.160 . S
O28 Zn29 1.899 . S
O28 C36 1.284 . S
Zn29 O28 1.899 . S
Zn29 O30 2.032 . S
Zn29 O33 2.086 . S
Zn29 O38 1.977 . S
O30 Zn29 2.032 . S
O30 C34 1.278 . S
C31 O32 1.203 . S
C31 O38 1.267 . S
O32 C31 1.203 . S
O33 C26 1.185 . S
O33 Zn29 2.086 . S
C34 O30 1.278 . S
C34 O35 1.211 . S
O35 C34 1.211 . S
C36 O28 1.284 . S
C36 O37 1.273 . S
O37 C36 1.273 . S
O38 Zn29 1.977 . S
O38 C31 1.267 . S
C39 O40 1.160 . S
C39 O46 1.185 . S
O40 C39 1.160 . S
O41 Zn42 1.899 . S
O41 C49 1.284 . S
Zn42 O41 1.899 . S
Zn42 O43 2.032 . S
Zn42 O46 2.086 . S
Zn42 O51 1.977 . S
O43 Zn42 2.032 . S
O43 C47 1.278 . S
C44 O45 1.203 . S
C44 O51 1.267 . S
O45 C44 1.203 . S
O46 C39 1.185 . S
O46 Zn42 2.086 . S
C47 O43 1.278 . S
C47 O48 1.211 . S
O48 C47 1.211 . S
C49 O41 1.284 . S
C49 O50 1.273 . S
O50 C49 1.273 . S
O51 Zn42 1.977 . S
O51 C44 1.267 . S
C52 O53 1.160 1_554 S
C52 O59 1.185 . S
O53 C52 1.160 1_556 S
O54 Zn55 1.899 1_556 S
O54 C62 1.284 . S
Zn55 O54 1.899 1_554 S
Zn55 O56 2.032 . S
Zn55 O59 2.086 . S
Zn55 O64 1.977 . S
O56 Zn55 2.032 . S
O56 C60 1.278 . S
C57 O58 1.203 1_554 S
C57 O64 1.267 . S
O58 C57 1.203 1_556 S
O59 C52 1.185 . S
O59 Zn55 2.086 . S
C60 O56 1.278 . S
C60 O61 1.211 . S
O61 C60 1.211 . S
C62 O54 1.284 . S
C62 O63 1.273 . S
O63 C62 1.273 . S
O64 Zn55 1.977 . S
O64 C57 1.267 . S
C65 O66 1.160 1_554 S
C65 O72 1.185 . S
O66 C65 1.160 1_556 S
O67 Zn68 1.899 1_556 S
O67 C75 1.284 . S
Zn68 O67 1.899 1_554 S
Zn68 O69 2.032 . S
Zn68 O72 2.086 . S
Zn68 O77 1.977 . S
O69 Zn68 2.032 . S
O69 C73 1.278 . S
C70 O71 1.203 1_554 S
C70 O77 1.267 . S
O71 C70 1.203 1_556 S
O72 C65 1.185 . S
O72 Zn68 2.086 . S
C73 O69 1.278 . S
C73 O74 1.211 . S
O74 C73 1.211 . S
C75 O67 1.284 . S
C75 O76 1.273 . S
O76 C75 1.273 . S
O77 Zn68 1.977 . S
O77 C70 1.267 . S
C78 O79 1.160 . S
C78 O85 1.185 . S
O79 C78 1.160 . S
O80 Zn81 1.899 . S
O80 C88 1.284 . S
Zn81 O80 1.899 . S
Zn81 O82 2.032 . S
Zn81 O85 2.086 . S
Zn81 O90 1.977 . S
O82 Zn81 2.032 . S
O82 C86 1.278 . S
C83 O84 1.203 . S
C83 O90 1.267 . S
O84 C83 1.203 . S
O85 C78 1.185 . S
O85 Zn81 2.086 . S
C86 O82 1.278 . S
C86 O87 1.211 . S
O87 C86 1.211 . S
C88 O80 1.284 . S
C88 O89 1.273 . S
O89 C88 1.273 . S
O90 Zn81 1.977 . S
O90 C83 1.267 . S
C91 O92 1.160 . S
C91 O98 1.185 . S
O92 C91 1.160 . S
O93 Zn94 1.899 . S
O93 C101 1.284 . S
Zn94 O93 1.899 . S
Zn94 O95 2.032 . S
Zn94 O98 2.086 . S
Zn94 O103 1.977 . S
O95 Zn94 2.032 . S
O95 C99 1.278 . S
C96 O97 1.203 . S
C96 O103 1.267 . S
O97 C96 1.203 . S
O98 C91 1.185 . S
O98 Zn94 2.086 . S
C99 O95 1.278 . S
C99 O100 1.211 . S
O100 C99 1.211 . S
C101 O93 1.284 . S
C101 O102 1.273 . S
O102 C101 1.273 . S
O103 Zn94 1.977 . S
O103 C96 1.267 . S
C104 C105 1.391 . S
C104 C106 1.394 . S
C104 H120 0.931 . S
C105 C104 1.391 . S
C105 C109 1.376 1_554 S
C106 C104 1.394 . S
C106 C107 1.369 . S
C106 C110 1.531 . S
C107 C106 1.369 . S
C107 C108 1.409 . S
C107 C115 1.503 . S
C108 C107 1.409 . S
C108 C109 1.392 1_554 S
C108 C111 1.512 1_554 S
C109 C105 1.376 1_556 S
C109 C108 1.392 1_556 S
C109 H121 0.929 . S
C110 C106 1.531 . S
C110 H122 0.960 . S
C110 H123 0.962 . S
C110 H124 0.960 . S
C111 C108 1.512 1_556 S
C111 H125 0.961 . S
C111 H126 0.961 . S
C111 H127 0.961 . S
C112 C113 1.370 1_556 S
C112 C114 1.363 . S
C112 H128 0.931 . S
C113 C112 1.370 1_554 S
C113 C117 1.408 . S
C114 C112 1.363 . S
C114 C115 1.370 1_556 S
C114 C118 1.524 . S
C115 C107 1.503 . S
C115 C114 1.370 1_554 S
C115 C116 1.403 . S
C116 C115 1.403 . S
C116 C117 1.404 . S
C116 C119 1.539 . S
C117 C113 1.408 . S
C117 C116 1.404 . S
C117 H129 0.930 . S
C118 C114 1.524 . S
C118 H130 0.956 . S
C118 H131 0.961 . S
C118 H132 0.961 . S
C119 C116 1.539 . S
C119 H133 0.958 . S
C119 H134 0.961 . S
C119 H135 0.960 . S
H120 C104 0.931 . S
H121 C109 0.929 . S
H122 C110 0.960 . S
H123 C110 0.962 . S
H124 C110 0.960 . S
H125 C111 0.961 . S
H126 C111 0.961 . S
H127 C111 0.961 . S
H128 C112 0.931 . S
H129 C117 0.930 . S
H130 C118 0.956 . S
H131 C118 0.961 . S
H132 C118 0.961 . S
H133 C119 0.958 . S
H134 C119 0.961 . S
H135 C119 0.960 . S
C136 C137 1.391 . S
C136 C138 1.394 . S
C136 H152 0.931 . S
C137 C136 1.391 . S
C137 C141 1.376 1_554 S
C138 C136 1.394 . S
C138 C139 1.369 . S
C138 C142 1.531 . S
C139 C138 1.369 . S
C139 C140 1.411 . S
C139 C147 1.503 . S
C140 C139 1.411 . S
C140 C141 1.392 1_554 S
C140 C143 1.510 1_554 S
C141 C137 1.376 1_556 S
C141 C140 1.392 1_556 S
C141 H153 0.929 . S
C142 C138 1.531 . S
C142 H154 0.960 . S
C142 H155 0.962 . S
C142 H156 0.960 . S
C143 C140 1.510 1_556 S
C143 H157 0.961 . S
C143 H158 0.961 . S
C143 H159 0.961 . S
C144 C145 1.370 1_556 S
C144 C146 1.363 . S
C144 H160 0.931 . S
C145 C144 1.370 1_554 S
C145 C149 1.408 . S
C146 C144 1.363 . S
C146 C147 1.370 1_556 S
C146 C150 1.524 . S
C147 C139 1.503 . S
C147 C146 1.370 1_554 S
C147 C148 1.403 . S
C148 C147 1.403 . S
C148 C149 1.404 . S
C148 C151 1.539 . S
C149 C145 1.408 . S
C149 C148 1.404 . S
C149 H161 0.930 . S
C150 C146 1.524 . S
C150 H162 0.956 . S
C150 H163 0.961 . S
C150 H164 0.961 . S
C151 C148 1.539 . S
C151 H165 0.958 . S
C151 H166 0.961 . S
C151 H167 0.960 . S
H152 C136 0.931 . S
H153 C141 0.929 . S
H154 C142 0.960 . S
H155 C142 0.962 . S
H156 C142 0.960 . S
H157 C143 0.961 . S
H158 C143 0.961 . S
H159 C143 0.961 . S
H160 C144 0.931 . S
H161 C149 0.930 . S
H162 C150 0.956 . S
H163 C150 0.961 . S
H164 C150 0.961 . S
H165 C151 0.958 . S
H166 C151 0.961 . S
H167 C151 0.960 . S
C168 C169 1.391 . S
C168 C170 1.394 . S
C168 H184 0.931 . S
C169 C168 1.391 . S
C169 C173 1.376 . S
C170 C168 1.394 . S
C170 C171 1.369 . S
C170 C174 1.531 . S
C171 C170 1.369 . S
C171 C172 1.410 . S
C171 C179 1.503 . S
C172 C171 1.410 . S
C172 C173 1.392 . S
C172 C175 1.511 . S
C173 C169 1.376 . S
C173 C172 1.392 . S
C173 H185 0.929 . S
C174 C170 1.531 . S
C174 H186 0.960 . S
C174 H187 0.962 . S
C174 H188 0.960 . S
C175 C172 1.511 . S
C175 H189 0.961 . S
C175 H190 0.961 . S
C175 H191 0.961 . S
C176 C177 1.370 . S
C176 C178 1.363 . S
C176 H192 0.931 . S
C177 C176 1.370 . S
C177 C181 1.408 . S
C178 C176 1.363 . S
C178 C179 1.370 . S
C178 C182 1.524 . S
C179 C171 1.503 . S
C179 C178 1.370 . S
C179 C180 1.403 . S
C180 C179 1.403 . S
C180 C181 1.404 . S
C180 C183 1.539 . S
C181 C177 1.408 . S
C181 C180 1.404 . S
C181 H193 0.930 . S
C182 C178 1.524 . S
C182 H194 0.956 . S
C182 H195 0.961 . S
C182 H196 0.961 . S
C183 C180 1.539 . S
C183 H197 0.958 . S
C183 H198 0.961 . S
C183 H199 0.960 . S
H184 C168 0.931 . S
H185 C173 0.929 . S
H186 C174 0.960 . S
H187 C174 0.962 . S
H188 C174 0.960 . S
H189 C175 0.961 . S
H190 C175 0.961 . S
H191 C175 0.961 . S
H192 C176 0.931 . S
H193 C181 0.930 . S
H194 C182 0.956 . S
H195 C182 0.961 . S
H196 C182 0.961 . S
H197 C183 0.958 . S
H198 C183 0.961 . S
H199 C183 0.960 . S
C200 C201 1.391 . S
C200 C202 1.394 . S
C200 H216 0.931 . S
C201 C200 1.391 . S
C201 C205 1.376 . S
C202 C200 1.394 . S
C202 C203 1.369 . S
C202 C206 1.531 . S
C203 C202 1.369 . S
C203 C204 1.410 . S
C203 C211 1.503 . S
C204 C203 1.410 . S
C204 C205 1.392 . S
C204 C207 1.511 . S
C205 C201 1.376 . S
C205 C204 1.392 . S
C205 H217 0.929 . S
C206 C202 1.531 . S
C206 H218 0.960 . S
C206 H219 0.962 . S
C206 H220 0.960 . S
C207 C204 1.511 . S
C207 H221 0.961 . S
C207 H222 0.961 . S
C207 H223 0.961 . S
C208 C209 1.370 . S
C208 C210 1.363 . S
C208 H224 0.931 . S
C209 C208 1.370 . S
C209 C213 1.408 . S
C210 C208 1.363 . S
C210 C211 1.370 . S
C210 C214 1.524 . S
C211 C203 1.503 . S
C211 C210 1.370 . S
C211 C212 1.403 . S
C212 C211 1.403 . S
C212 C213 1.404 . S
C212 C215 1.539 . S
C213 C209 1.408 . S
C213 C212 1.404 . S
C213 H225 0.930 . S
C214 C210 1.524 . S
C214 H226 0.956 . S
C214 H227 0.961 . S
C214 H228 0.961 . S
C215 C212 1.539 . S
C215 H229 0.958 . S
C215 H230 0.961 . S
C215 H231 0.960 . S
H216 C200 0.931 . S
H217 C205 0.929 . S
H218 C206 0.960 . S
H219 C206 0.962 . S
H220 C206 0.960 . S
H221 C207 0.961 . S
H222 C207 0.961 . S
H223 C207 0.961 . S
H224 C208 0.931 . S
H225 C213 0.930 . S
H226 C214 0.956 . S
H227 C214 0.961 . S
H228 C214 0.961 . S
H229 C215 0.958 . S
H230 C215 0.961 . S
H231 C215 0.960 . S
C232 C233 1.391 . S
C232 C234 1.394 . S
C232 H248 0.931 . S
C233 C232 1.391 . S
C233 C237 1.376 . S
C234 C232 1.394 . S
C234 C235 1.369 . S
C234 C238 1.531 . S
C235 C234 1.369 . S
C235 C236 1.410 . S
C235 C243 1.503 . S
C236 C235 1.410 . S
C236 C237 1.392 . S
C236 C239 1.511 . S
C237 C233 1.376 . S
C237 C236 1.392 . S
C237 H249 0.929 . S
C238 C234 1.531 . S
C238 H250 0.960 . S
C238 H251 0.962 . S
C238 H252 0.960 . S
C239 C236 1.511 . S
C239 H253 0.961 . S
C239 H254 0.961 . S
C239 H255 0.961 . S
C240 C241 1.370 . S
C240 C242 1.363 . S
C240 H256 0.931 . S
C241 C240 1.370 . S
C241 C245 1.408 . S
C242 C240 1.363 . S
C242 C243 1.370 . S
C242 C246 1.524 . S
C243 C235 1.503 . S
C243 C242 1.370 . S
C243 C244 1.403 . S
C244 C243 1.403 . S
C244 C245 1.404 . S
C244 C247 1.539 . S
C245 C241 1.408 . S
C245 C244 1.404 . S
C245 H257 0.930 . S
C246 C242 1.524 . S
C246 H258 0.956 . S
C246 H259 0.961 . S
C246 H260 0.961 . S
C247 C244 1.539 . S
C247 H261 0.958 . S
C247 H262 0.961 . S
C247 H263 0.960 . S
H248 C232 0.931 . S
H249 C237 0.929 . S
H250 C238 0.960 . S
H251 C238 0.962 . S
H252 C238 0.960 . S
H253 C239 0.961 . S
H254 C239 0.961 . S
H255 C239 0.961 . S
H256 C240 0.931 . S
H257 C245 0.930 . S
H258 C246 0.956 . S
H259 C246 0.961 . S
H260 C246 0.961 . S
H261 C247 0.958 . S
H262 C247 0.961 . S
H263 C247 0.960 . S
C264 C265 1.391 . S
C264 C266 1.394 . S
C264 H280 0.931 . S
C265 C264 1.391 . S
C265 C269 1.376 . S
C266 C264 1.394 . S
C266 C267 1.369 . S
C266 C270 1.531 . S
C267 C266 1.369 . S
C267 C268 1.410 . S
C267 C275 1.503 . S
C268 C267 1.410 . S
C268 C269 1.392 . S
C268 C271 1.511 . S
C269 C265 1.376 . S
C269 C268 1.392 . S
C269 H281 0.929 . S
C270 C266 1.531 . S
C270 H282 0.960 . S
C270 H283 0.962 . S
C270 H284 0.960 . S
C271 C268 1.511 . S
C271 H285 0.961 . S
C271 H286 0.961 . S
C271 H287 0.961 . S
C272 C273 1.370 . S
C272 C274 1.363 . S
C272 H288 0.931 . S
C273 C272 1.370 . S
C273 C277 1.408 . S
C274 C272 1.363 . S
C274 C275 1.370 . S
C274 C278 1.524 . S
C275 C267 1.503 . S
C275 C274 1.370 . S
C275 C276 1.403 . S
C276 C275 1.403 . S
C276 C277 1.404 . S
C276 C279 1.539 . S
C277 C273 1.408 . S
C277 C276 1.404 . S
C277 H289 0.930 . S
C278 C274 1.524 . S
C278 H290 0.956 . S
C278 H291 0.961 . S
C278 H292 0.961 . S
C279 C276 1.539 . S
C279 H293 0.958 . S
C279 H294 0.961 . S
C279 H295 0.960 . S
H280 C264 0.931 . S
H281 C269 0.929 . S
H282 C270 0.960 . S
H283 C270 0.962 . S
H284 C270 0.960 . S
H285 C271 0.961 . S
H286 C271 0.961 . S
H287 C271 0.961 . S
H288 C272 0.931 . S
H289 C277 0.930 . S
H290 C278 0.956 . S
H291 C278 0.961 . S
H292 C278 0.961 . S
H293 C279 0.958 . S
H294 C279 0.961 . S
H295 C279 0.960 . S
C296 C297 1.391 . S
C296 C298 1.394 . S
C296 H312 0.931 . S
C297 C296 1.391 . S
C297 C301 1.376 . S
C298 C296 1.394 . S
C298 C299 1.369 . S
C298 C302 1.531 . S
C299 C298 1.369 . S
C299 C300 1.410 . S
C299 C307 1.503 . S
C300 C299 1.410 . S
C300 C301 1.392 . S
C300 C303 1.511 . S
C301 C297 1.376 . S
C301 C300 1.392 . S
C301 H313 0.929 . S
C302 C298 1.531 . S
C302 H314 0.960 . S
C302 H315 0.962 . S
C302 H316 0.960 . S
C303 C300 1.511 . S
C303 H317 0.961 . S
C303 H318 0.961 . S
C303 H319 0.961 . S
C304 C305 1.370 . S
C304 C306 1.363 . S
C304 H320 0.931 . S
C305 C304 1.370 . S
C305 C309 1.408 . S
C306 C304 1.363 . S
C306 C307 1.370 . S
C306 C310 1.524 . S
C307 C299 1.503 . S
C307 C306 1.370 . S
C307 C308 1.403 . S
C308 C307 1.403 . S
C308 C309 1.404 . S
C308 C311 1.539 . S
C309 C305 1.408 . S
C309 C308 1.404 . S
C309 H321 0.930 . S
C310 C306 1.524 . S
C310 H322 0.956 . S
C310 H323 0.961 . S
C310 H324 0.961 . S
C311 C308 1.539 . S
C311 H325 0.958 . S
C311 H326 0.961 . S
C311 H327 0.960 . S
H312 C296 0.931 . S
H313 C301 0.929 . S
H314 C302 0.960 . S
H315 C302 0.962 . S
H316 C302 0.960 . S
H317 C303 0.961 . S
H318 C303 0.961 . S
H319 C303 0.961 . S
H320 C304 0.931 . S
H321 C309 0.930 . S
H322 C310 0.956 . S
H323 C310 0.961 . S
H324 C310 0.961 . S
H325 C311 0.958 . S
H326 C311 0.961 . S
H327 C311 0.960 . S
C328 C329 1.391 . S
C328 C330 1.394 . S
C328 H344 0.931 . S
C329 C328 1.391 . S
C329 C333 1.376 . S
C330 C328 1.394 . S
C330 C331 1.369 . S
C330 C334 1.531 . S
C331 C330 1.369 . S
C331 C332 1.410 . S
C331 C339 1.503 . S
C332 C331 1.410 . S
C332 C333 1.392 . S
C332 C335 1.511 . S
C333 C329 1.376 . S
C333 C332 1.392 . S
C333 H345 0.929 . S
C334 C330 1.531 . S
C334 H346 0.960 . S
C334 H347 0.962 . S
C334 H348 0.960 . S
C335 C332 1.511 . S
C335 H349 0.961 . S
C335 H350 0.961 . S
C335 H351 0.961 . S
C336 C337 1.370 . S
C336 C338 1.363 . S
C336 H352 0.931 . S
C337 C336 1.370 . S
C337 C341 1.408 . S
C338 C336 1.363 . S
C338 C339 1.370 . S
C338 C342 1.524 . S
C339 C331 1.503 . S
C339 C338 1.370 . S
C339 C340 1.403 . S
C340 C339 1.403 . S
C340 C341 1.404 . S
C340 C343 1.539 . S
C341 C337 1.408 . S
C341 C340 1.404 . S
C341 H353 0.930 . S
C342 C338 1.524 . S
C342 H354 0.956 . S
C342 H355 0.961 . S
C342 H356 0.961 . S
C343 C340 1.539 . S
C343 H357 0.958 . S
C343 H358 0.961 . S
C343 H359 0.960 . S
H344 C328 0.931 . S
H345 C333 0.929 . S
H346 C334 0.960 . S
H347 C334 0.962 . S
H348 C334 0.960 . S
H349 C335 0.961 . S
H350 C335 0.961 . S
H351 C335 0.961 . S
H352 C336 0.931 . S
H353 C341 0.930 . S
H354 C342 0.956 . S
H355 C342 0.961 . S
H356 C342 0.961 . S
H357 C343 0.958 . S
H358 C343 0.961 . S
H359 C343 0.960 . S
C360 C361 1.391 . S
C360 C362 1.394 1_565 S
C360 H376 0.931 . S
C361 C360 1.391 . S
C361 C365 1.376 . S
C362 C360 1.394 1_545 S
C362 C363 1.369 1_545 S
C362 C366 1.531 . S
C363 C362 1.369 1_565 S
C363 C364 1.410 . S
C363 C371 1.503 1_565 S
C364 C363 1.410 . S
C364 C365 1.392 . S
C364 C367 1.511 . S
C365 C361 1.376 . S
C365 C364 1.392 . S
C365 H377 0.929 . S
C366 C362 1.531 . S
C366 H378 0.960 . S
C366 H379 0.962 . S
C366 H380 0.960 . S
C367 C364 1.511 . S
C367 H381 0.961 . S
C367 H382 0.961 . S
C367 H383 0.961 . S
C368 C369 1.370 . S
C368 C370 1.363 . S
C368 H384 0.931 . S
C369 C368 1.370 . S
C369 C373 1.408 . S
C370 C368 1.363 . S
C370 C371 1.370 . S
C370 C374 1.524 1_545 S
C371 C363 1.503 1_545 S
C371 C370 1.370 . S
C371 C372 1.403 . S
C372 C371 1.403 . S
C372 C373 1.404 . S
C372 C375 1.539 . S
C373 C369 1.408 . S
C373 C372 1.404 . S
C373 H385 0.930 . S
C374 C370 1.524 1_565 S
C374 H386 0.956 . S
C374 H387 0.961 . S
C374 H388 0.961 . S
C375 C372 1.539 . S
C375 H389 0.958 . S
C375 H390 0.961 . S
C375 H391 0.960 . S
H376 C360 0.931 . S
H377 C365 0.929 . S
H378 C366 0.960 . S
H379 C366 0.962 . S
H380 C366 0.960 . S
H381 C367 0.961 . S
H382 C367 0.961 . S
H383 C367 0.961 . S
H384 C368 0.931 . S
H385 C373 0.930 . S
H386 C374 0.956 . S
H387 C374 0.961 . S
H388 C374 0.961 . S
H389 C375 0.958 . S
H390 C375 0.961 . S
H391 C375 0.960 . S
C392 C393 1.391 . S
C392 C394 1.394 . S
C392 H408 0.931 . S
C393 C392 1.391 . S
C393 C397 1.376 . S
C394 C392 1.394 . S
C394 C395 1.369 . S
C394 C398 1.531 . S
C395 C394 1.369 . S
C395 C396 1.410 . S
C395 C403 1.503 1_565 S
C396 C395 1.410 . S
C396 C397 1.392 . S
C396 C399 1.511 1_565 S
C397 C393 1.376 . S
C397 C396 1.392 . S
C397 H409 0.929 . S
C398 C394 1.531 . S
C398 H410 0.960 . S
C398 H411 0.962 . S
C398 H412 0.960 . S
C399 C396 1.511 1_545 S
C399 H413 0.961 . S
C399 H414 0.961 . S
C399 H415 0.961 1_545 S
C400 C401 1.370 . S
C400 C402 1.363 . S
C400 H416 0.931 . S
C401 C400 1.370 . S
C401 C405 1.408 . S
C402 C400 1.363 . S
C402 C403 1.370 . S
C402 C406 1.524 . S
C403 C395 1.503 1_545 S
C403 C402 1.370 . S
C403 C404 1.403 1_545 S
C404 C403 1.403 1_565 S
C404 C405 1.404 1_565 S
C404 C407 1.539 . S
C405 C401 1.408 . S
C405 C404 1.404 1_545 S
C405 H417 0.930 1_545 S
C406 C402 1.524 . S
C406 H418 0.956 . S
C406 H419 0.961 . S
C406 H420 0.961 . S
C407 C404 1.539 . S
C407 H421 0.958 . S
C407 H422 0.961 . S
C407 H423 0.960 . S
H408 C392 0.931 . S
H409 C397 0.929 . S
H410 C398 0.960 . S
H411 C398 0.962 . S
H412 C398 0.960 . S
H413 C399 0.961 . S
H414 C399 0.961 . S
H415 C399 0.961 1_565 S
H416 C400 0.931 . S
H417 C405 0.930 1_565 S
H418 C406 0.956 . S
H419 C406 0.961 . S
H420 C406 0.961 . S
H421 C407 0.958 . S
H422 C407 0.961 . S
H423 C407 0.960 . S
C424 C425 1.391 . S
C424 C426 1.394 1_565 S
C424 H440 0.931 . S
C425 C424 1.391 . S
C425 C429 1.376 . S
C426 C424 1.394 1_545 S
C426 C427 1.369 1_545 S
C426 C430 1.531 . S
C427 C426 1.369 1_565 S
C427 C428 1.410 . S
C427 C435 1.503 1_565 S
C428 C427 1.410 . S
C428 C429 1.392 . S
C428 C431 1.511 . S
C429 C425 1.376 . S
C429 C428 1.392 . S
C429 H441 0.929 . S
C430 C426 1.531 . S
C430 H442 0.960 . S
C430 H443 0.962 . S
C430 H444 0.960 . S
C431 C428 1.511 . S
C431 H445 0.961 . S
C431 H446 0.961 . S
C431 H447 0.961 . S
C432 C433 1.370 . S
C432 C434 1.363 . S
C432 H448 0.931 . S
C433 C432 1.370 . S
C433 C437 1.408 . S
C434 C432 1.363 . S
C434 C435 1.370 . S
C434 C438 1.524 1_545 S
C435 C427 1.503 1_545 S
C435 C434 1.370 . S
C435 C436 1.403 . S
C436 C435 1.403 . S
C436 C437 1.404 . S
C436 C439 1.539 . S
C437 C433 1.408 . S
C437 C436 1.404 . S
C437 H449 0.930 . S
C438 C434 1.524 1_565 S
C438 H450 0.956 . S
C438 H451 0.961 . S
C438 H452 0.961 . S
C439 C436 1.539 . S
C439 H453 0.958 . S
C439 H454 0.961 . S
C439 H455 0.960 . S
H440 C424 0.931 . S
H441 C429 0.929 . S
H442 C430 0.960 . S
H443 C430 0.962 . S
H444 C430 0.960 . S
H445 C431 0.961 . S
H446 C431 0.961 . S
H447 C431 0.961 . S
H448 C432 0.931 . S
H449 C437 0.930 . S
H450 C438 0.956 . S
H451 C438 0.961 . S
H452 C438 0.961 . S
H453 C439 0.958 . S
H454 C439 0.961 . S
H455 C439 0.960 . S
C456 C457 1.391 . S
C456 C458 1.394 1_565 S
C456 H472 0.931 1_565 S
C457 C456 1.391 . S
C457 C461 1.376 . S
C458 C456 1.394 1_545 S
C458 C459 1.369 1_545 S
C458 C462 1.531 . S
C459 C458 1.369 1_565 S
C459 C460 1.410 . S
C459 C467 1.503 1_565 S
C460 C459 1.410 . S
C460 C461 1.392 . S
C460 C463 1.511 . S
C461 C457 1.376 . S
C461 C460 1.392 . S
C461 H473 0.929 . S
C462 C458 1.531 . S
C462 H474 0.960 . S
C462 H475 0.962 . S
C462 H476 0.960 . S
C463 C460 1.511 . S
C463 H477 0.961 . S
C463 H478 0.961 . S
C463 H479 0.961 . S
C464 C465 1.370 . S
C464 C466 1.363 . S
C464 H480 0.931 . S
C465 C464 1.370 . S
C465 C469 1.408 . S
C466 C464 1.363 . S
C466 C467 1.370 . S
C466 C470 1.524 1_545 S
C467 C459 1.503 1_545 S
C467 C466 1.370 . S
C467 C468 1.403 . S
C468 C467 1.403 . S
C468 C469 1.404 . S
C468 C471 1.539 . S
C469 C465 1.408 . S
C469 C468 1.404 . S
C469 H481 0.930 . S
C470 C466 1.524 1_565 S
C470 H482 0.956 . S
C470 H483 0.961 . S
C470 H484 0.961 . S
C471 C468 1.539 . S
C471 H485 0.958 . S
C471 H486 0.961 . S
C471 H487 0.960 . S
H472 C456 0.931 1_545 S
H473 C461 0.929 . S
H474 C462 0.960 . S
H475 C462 0.962 . S
H476 C462 0.960 . S
H477 C463 0.961 . S
H478 C463 0.961 . S
H479 C463 0.961 . S
H480 C464 0.931 . S
H481 C469 0.930 . S
H482 C470 0.956 . S
H483 C470 0.961 . S
H484 C470 0.961 . S
H485 C471 0.958 . S
H486 C471 0.961 . S
H487 C471 0.960 . S
C488 C489 1.391 . S
C488 C490 1.394 . S
C488 H504 0.931 . S
C489 C488 1.391 . S
C489 C493 1.376 . S
C490 C488 1.394 . S
C490 C491 1.369 . S
C490 C494 1.531 1_565 S
C491 C490 1.369 . S
C491 C492 1.410 . S
C491 C499 1.503 1_565 S
C492 C491 1.410 . S
C492 C493 1.392 . S
C492 C495 1.511 1_554 S
C493 C489 1.376 . S
C493 C492 1.392 . S
C493 H505 0.929 1_554 S
C494 C490 1.531 1_545 S
C494 H506 0.960 . S
C494 H507 0.962 . S
C494 H508 0.960 . S
C495 C492 1.511 1_556 S
C495 H509 0.961 . S
C495 H510 0.961 . S
C495 H511 0.961 1_556 S
C496 C497 1.370 1_556 S
C496 C498 1.363 . S
C496 H512 0.931 . S
C497 C496 1.370 1_554 S
C497 C501 1.408 . S
C498 C496 1.363 . S
C498 C499 1.370 1_556 S
C498 C502 1.524 . S
C499 C491 1.503 1_545 S
C499 C498 1.370 1_554 S
C499 C500 1.403 . S
C500 C499 1.403 . S
C500 C501 1.404 . S
C500 C503 1.539 1_545 S
C501 C497 1.408 . S
C501 C500 1.404 . S
C501 H513 0.930 . S
C502 C498 1.524 . S
C502 H514 0.956 . S
C502 H515 0.961 . S
C502 H516 0.961 . S
C503 C500 1.539 1_565 S
C503 H517 0.958 1_565 S
C503 H518 0.961 1_565 S
C503 H519 0.960 . S
H504 C488 0.931 . S
H505 C493 0.929 1_556 S
H506 C494 0.960 . S
H507 C494 0.962 . S
H508 C494 0.960 . S
H509 C495 0.961 . S
H510 C495 0.961 . S
H511 C495 0.961 1_554 S
H512 C496 0.931 . S
H513 C501 0.930 . S
H514 C502 0.956 . S
H515 C502 0.961 . S
H516 C502 0.961 . S
H517 C503 0.958 1_545 S
H518 C503 0.961 1_545 S
H519 C503 0.960 . S
C520 C521 1.391 . S
C520 C522 1.394 . S
C520 H536 0.931 . S
C521 C520 1.391 . S
C521 C525 1.376 . S
C522 C520 1.394 . S
C522 C523 1.369 . S
C522 C526 1.531 1_565 S
C523 C522 1.369 . S
C523 C524 1.410 . S
C523 C531 1.503 1_565 S
C524 C523 1.410 . S
C524 C525 1.392 . S
C524 C527 1.511 . S
C525 C521 1.376 . S
C525 C524 1.392 . S
C525 H537 0.929 . S
C526 C522 1.531 1_545 S
C526 H538 0.960 . S
C526 H539 0.962 . S
C526 H540 0.960 . S
C527 C524 1.511 . S
C527 H541 0.961 . S
C527 H542 0.961 . S
C527 H543 0.961 . S
C528 C529 1.370 . S
C528 C530 1.363 . S
C528 H544 0.931 . S
C529 C528 1.370 . S
C529 C533 1.408 . S
C530 C528 1.363 . S
C530 C531 1.370 . S
C530 C534 1.524 . S
C531 C523 1.503 1_545 S
C531 C530 1.370 . S
C531 C532 1.403 . S
C532 C531 1.403 . S
C532 C533 1.404 . S
C532 C535 1.539 . S
C533 C529 1.408 . S
C533 C532 1.404 . S
C533 H545 0.930 . S
C534 C530 1.524 . S
C534 H546 0.956 . S
C534 H547 0.961 1_545 S
C534 H548 0.961 . S
C535 C532 1.539 . S
C535 H549 0.958 . S
C535 H550 0.961 . S
C535 H551 0.960 . S
H536 C520 0.931 . S
H537 C525 0.929 . S
H538 C526 0.960 . S
H539 C526 0.962 . S
H540 C526 0.960 . S
H541 C527 0.961 . S
H542 C527 0.961 . S
H543 C527 0.961 . S
H544 C528 0.931 . S
H545 C533 0.930 . S
H546 C534 0.956 . S
H547 C534 0.961 1_565 S
H548 C534 0.961 . S
H549 C535 0.958 . S
H550 C535 0.961 . S
H551 C535 0.960 . S
C552 C553 1.391 . S
C552 C554 1.394 . S
C552 H568 0.931 . S
C553 C552 1.391 . S
C553 C557 1.376 . S
C554 C552 1.394 . S
C554 C555 1.369 . S
C554 C558 1.531 . S
C555 C554 1.369 . S
C555 C556 1.410 1_455 S
C555 C563 1.503 1_455 S
C556 C555 1.410 1_655 S
C556 C557 1.392 1_655 S
C556 C559 1.511 . S
C557 C553 1.376 . S
C557 C556 1.392 1_455 S
C557 H569 0.929 . S
C558 C554 1.531 . S
C558 H570 0.960 . S
C558 H571 0.962 1_554 S
C558 H572 0.960 . S
C559 C556 1.511 . S
C559 H573 0.961 . S
C559 H574 0.961 . S
C559 H575 0.961 . S
C560 C561 1.370 1_556 S
C560 C562 1.363 . S
C560 H576 0.931 . S
C561 C560 1.370 1_554 S
C561 C565 1.408 . S
C562 C560 1.363 . S
C562 C563 1.370 1_556 S
C562 C566 1.524 . S
C563 C555 1.503 1_655 S
C563 C562 1.370 1_554 S
C563 C564 1.403 . S
C564 C563 1.403 . S
C564 C565 1.404 . S
C564 C567 1.539 1_655 S
C565 C561 1.408 . S
C565 C564 1.404 . S
C565 H577 0.930 . S
C566 C562 1.524 . S
C566 H578 0.956 1_655 S
C566 H579 0.961 . S
C566 H580 0.961 . S
C567 C564 1.539 1_455 S
C567 H581 0.958 . S
C567 H582 0.961 1_455 S
C567 H583 0.960 . S
H568 C552 0.931 . S
H569 C557 0.929 . S
H570 C558 0.960 . S
H571 C558 0.962 1_556 S
H572 C558 0.960 . S
H573 C559 0.961 . S
H574 C559 0.961 . S
H575 C559 0.961 . S
H576 C560 0.931 . S
H577 C565 0.930 . S
H578 C566 0.956 1_455 S
H579 C566 0.961 . S
H580 C566 0.961 . S
H581 C567 0.958 . S
H582 C567 0.961 1_655 S
H583 C567 0.960 . S
C584 C585 1.391 . S
C584 C586 1.394 . S
C584 H600 0.931 . S
C585 C584 1.391 . S
C585 C589 1.376 . S
C586 C584 1.394 . S
C586 C587 1.369 . S
C586 C590 1.531 . S
C587 C586 1.369 . S
C587 C588 1.410 1_455 S
C587 C595 1.503 1_455 S
C588 C587 1.410 1_655 S
C588 C589 1.392 1_655 S
C588 C591 1.511 . S
C589 C585 1.376 . S
C589 C588 1.392 1_455 S
C589 H601 0.929 . S
C590 C586 1.531 . S
C590 H602 0.960 . S
C590 H603 0.962 . S
C590 H604 0.960 . S
C591 C588 1.511 . S
C591 H605 0.961 . S
C591 H606 0.961 . S
C591 H607 0.961 . S
C592 C593 1.370 . S
C592 C594 1.363 . S
C592 H608 0.931 . S
C593 C592 1.370 . S
C593 C597 1.408 . S
C594 C592 1.363 . S
C594 C595 1.370 . S
C594 C598 1.524 1_655 S
C595 C587 1.503 1_655 S
C595 C594 1.370 . S
C595 C596 1.403 . S
C596 C595 1.403 . S
C596 C597 1.404 . S
C596 C599 1.539 . S
C597 C593 1.408 . S
C597 C596 1.404 . S
C597 H609 0.930 . S
C598 C594 1.524 1_455 S
C598 H610 0.956 . S
C598 H611 0.961 . S
C598 H612 0.961 . S
C599 C596 1.539 . S
C599 H613 0.958 . S
C599 H614 0.961 . S
C599 H615 0.960 . S
H600 C584 0.931 . S
H601 C589 0.929 . S
H602 C590 0.960 . S
H603 C590 0.962 . S
H604 C590 0.960 . S
H605 C591 0.961 . S
H606 C591 0.961 . S
H607 C591 0.961 . S
H608 C592 0.931 . S
H609 C597 0.930 . S
H610 C598 0.956 . S
H611 C598 0.961 . S
H612 C598 0.961 . S
H613 C599 0.958 . S
H614 C599 0.961 . S
H615 C599 0.960 . S
C105 C70 1.493 . S
C113 C5 1.469 . S
C137 C57 1.493 . S
C145 C18 1.469 . S
C169 C96 1.445 . S
C177 C31 1.480 . S
C201 C83 1.494 . S
C209 C44 1.468 . S
C233 C8 1.320 . S
C241 C34 1.321 . S
C265 C21 1.348 . S
C273 C47 1.333 . S
C297 C23 1.345 . S
C305 C49 1.356 . S
C329 C10 1.365 . S
C337 C36 1.355 . S
C361 C60 1.345 . S
C369 C86 1.331 . S
C393 C99 1.300 . S
C401 C73 1.315 . S
C425 C101 1.343 . S
C433 C75 1.358 . S
C457 C62 1.345 . S
C465 C88 1.356 . S
C489 C13 1.509 . S
C497 C0 1.504 . S
C521 C26 1.513 . S
C529 C39 1.504 . S
C553 C52 1.513 . S
C561 C65 1.504 . S
C585 C78 1.504 . S
C593 C91 1.502 . S
