# Generated by pormake.
# Topology qtz-e, (6)-cn, num edge types: 1
# Building blocks:
#     Node 0, Type 0, BuildingBlock: KUMBUR_clean_sbu_0, # of connection points: 6
#     Node 1, Type 0, BuildingBlock: KUMBUR_clean_sbu_0, # of connection points: 6
#     Node 2, Type 0, BuildingBlock: KUMBUR_clean_sbu_0, # of connection points: 6
#     Node 3, Type 0, BuildingBlock: KUMBUR_clean_sbu_0, # of connection points: 6
#     Node 4, Type 0, BuildingBlock: KUMBUR_clean_sbu_0, # of connection points: 6
#     Node 5, Type 0, BuildingBlock: KUMBUR_clean_sbu_0, # of connection points: 6
#     Edge 6, Type (0, 0), BuildingBlock: TEMPAE_clean_linker_10, # of connection points: 2
#     Edge 7, Type (0, 0), BuildingBlock: TEMPAE_clean_linker_10, # of connection points: 2
#     Edge 8, Type (0, 0), BuildingBlock: TEMPAE_clean_linker_10, # of connection points: 2
#     Edge 9, Type (0, 0), BuildingBlock: TEMPAE_clean_linker_10, # of connection points: 2
#     Edge 10, Type (0, 0), BuildingBlock: TEMPAE_clean_linker_10, # of connection points: 2
#     Edge 11, Type (0, 0), BuildingBlock: TEMPAE_clean_linker_10, # of connection points: 2
#     Edge 12, Type (0, 0), BuildingBlock: TEMPAE_clean_linker_10, # of connection points: 2
#     Edge 13, Type (0, 0), BuildingBlock: TEMPAE_clean_linker_10, # of connection points: 2
#     Edge 14, Type (0, 0), BuildingBlock: TEMPAE_clean_linker_10, # of connection points: 2
#     Edge 15, Type (0, 0), BuildingBlock: TEMPAE_clean_linker_10, # of connection points: 2
#     Edge 16, Type (0, 0), BuildingBlock: TEMPAE_clean_linker_10, # of connection points: 2
#     Edge 17, Type (0, 0), BuildingBlock: TEMPAE_clean_linker_10, # of connection points: 2
#     Edge 18, Type (0, 0), BuildingBlock: TEMPAE_clean_linker_10, # of connection points: 2
#     Edge 19, Type (0, 0), BuildingBlock: TEMPAE_clean_linker_10, # of connection points: 2
#     Edge 20, Type (0, 0), BuildingBlock: TEMPAE_clean_linker_10, # of connection points: 2
#     Edge 21, Type (0, 0), BuildingBlock: TEMPAE_clean_linker_10, # of connection points: 2
#     Edge 22, Type (0, 0), BuildingBlock: TEMPAE_clean_linker_10, # of connection points: 2
#     Edge 23, Type (0, 0), BuildingBlock: TEMPAE_clean_linker_10, # of connection points: 2
# Relax obj value: 0.058
# Max RMSD: 0.144
# Mean RMSD: 0.144
data_MOF--net-qtz-e--node1-KUMBUR_clean_sbu_0--edge1-TEMPAE_clean_linker_10
_symmetry_space_group_name_H-M    P1
_symmetry_Int_Tables_number       1
_symmetry_cell_setting            triclinic
loop_
_symmetry_equiv_pos_as_xyz
'x, y, z'
_cell_length_a     29.832054
_cell_length_b     29.90369
_cell_length_c     47.032529
_cell_angle_alpha  89.958469
_cell_angle_beta   90.118493
_cell_angle_gamma 120.24308
loop_
_atom_site_label
_atom_site_type_symbol
_atom_site_fract_x
_atom_site_fract_y
_atom_site_fract_z
_atom_type_partial_charge
Tb0 Tb 0.26637 0.49499 0.0497 0.0
C1 C 0.08014 0.29387 0.012 0.0
C2 C 0.08002 0.23663 0.04833 0.0
C3 C 0.99849 0.22052 0.02754 0.0
C4 C 0.10669 0.2808 0.03099 0.0
C5 C 0.02586 0.26308 1.0093 0.0
C6 C 0.02557 0.20738 0.0471 0.0
C7 C 0.03088 0.31555 0.96897 0.0
N8 N 0.10814 0.33504 0.99483 0.0
C9 C 0.08474 0.3449 0.97257 0.0
C10 C 1.00115 0.27501 0.98774 0.0
Tb11 Tb 0.19533 0.38325 1.00381 0.0
N12 N 0.15912 0.30985 0.03122 0.0
C13 C 0.18773 0.29418 0.04658 0.0
C14 C 0.10901 0.22241 0.06563 0.0
C15 C 0.16315 0.25078 0.06433 0.0
H16 H 0.10752 0.37649 0.95816 0.0
H17 H 0.18599 0.23948 0.07713 0.0
H18 H 1.00422 0.17367 0.06052 0.0
H19 H 0.01232 0.32436 0.95182 0.0
H20 H 0.22957 0.31612 0.04604 0.0
H21 H 0.30345 0.66374 0.98843 0.0
H22 H 0.09006 0.18886 0.07938 0.0
H23 H 0.34314 0.47828 0.09463 0.0
H24 H 0.24919 0.58018 0.01213 0.0
H25 H 0.43577 0.52252 0.10709 0.0
H26 H 0.95665 0.19671 0.02612 0.0
H27 H 0.39909 0.70711 0.99163 0.0
H28 H 0.47755 0.70979 0.01333 0.0
H29 H 0.95948 0.25229 0.9849 0.0
H30 H 0.51356 0.67231 0.04661 0.0
N31 N 0.31309 0.57415 0.02769 0.0
C32 C 0.29076 0.59832 0.01384 0.0
C33 C 0.37541 0.67011 1.00199 0.0
C34 C 0.39803 0.6475 0.01826 0.0
C35 C 0.32147 0.64589 1.00027 0.0
C36 C 0.36541 0.59908 0.03109 0.0
H37 H 0.49782 0.60357 0.08273 0.0
N38 N 0.35225 0.53273 0.06257 0.0
C39 C 0.42222 0.53841 0.09075 0.0
C40 C 0.38569 0.57823 0.04971 0.0
C41 C 0.36956 0.51343 0.08359 0.0
C42 C 0.45722 0.584 0.0768 0.0
C43 C 0.43911 0.60468 0.05608 0.0
O44 O 0.25886 0.49823 0.09388 0.0
O45 O 0.20495 0.41474 0.0464 0.0
O46 O 0.14051 0.41144 0.01409 0.0
O47 O 0.19744 0.49401 0.03277 0.0
O48 O 0.25377 0.43391 0.0799 0.0
O49 O 0.24571 0.54768 0.06581 0.0
O50 O 0.20512 0.3813 0.95947 0.0
O51 O 0.2511 0.46377 1.00746 0.0
O52 O 0.32379 0.48156 0.0303 0.0
O53 O 0.27345 0.39498 0.01668 0.0
O54 O 0.20243 0.4405 0.97272 0.0
O55 O 0.21594 0.33035 0.98659 0.0
C56 C 0.21161 0.3969 0.06937 0.0
C57 C 0.28465 0.58098 0.11044 0.0
C58 C 0.30527 0.61727 0.15789 0.0
C59 C 0.27198 0.57818 0.13918 0.0
C60 C 0.35212 0.6588 0.14786 0.0
C61 C 0.33053 0.62371 0.10034 0.0
C62 C 0.36449 0.66204 0.11908 0.0
C63 C 0.15138 0.45856 0.02277 0.0
C64 C 0.25117 0.53724 0.09205 0.0
C65 C 0.47227 0.65158 0.04224 0.0
C66 C 0.45178 0.67284 0.02323 0.0
C67 C 0.24043 0.47975 0.98508 0.0
C68 C 0.19396 0.30487 0.93776 0.0
C69 C 0.22546 0.29994 0.91666 0.0
C70 C 0.20291 0.26498 0.8933 0.0
C71 C 0.14813 0.23653 0.89176 0.0
C72 C 0.14002 0.27376 0.93582 0.0
C73 C 0.11742 0.24026 0.91292 0.0
C74 C 0.3191 0.4375 0.02202 0.0
C75 C 0.21705 0.34515 0.96041 0.0
H76 H 0.23603 0.54579 0.14699 0.0
H77 H 0.37791 0.68974 0.16203 0.0
H78 H 0.34015 0.62771 0.07814 0.0
H79 H 0.39999 0.6947 0.11119 0.0
H80 H 0.2672 0.32339 0.91862 0.0
H81 H 0.12813 0.21152 0.87393 0.0
H82 H 0.11519 0.27616 0.95171 0.0
H83 H 0.07556 0.21746 0.91129 0.0
Tb84 Tb 0.74755 0.23945 0.37525 0.0
C85 C 0.81855 0.08739 0.35066 0.0
C86 C 0.87627 0.10413 0.39043 0.0
C87 C 0.82808 0.01751 0.3704 0.0
C88 C 0.8528 0.1211 0.37043 0.0
C89 C 0.80688 0.03553 0.34973 0.0
C90 C 0.86272 0.0518 0.39077 0.0
C91 C 0.75898 0.02515 0.30637 0.0
N92 N 0.79941 0.10654 0.33108 0.0
C93 C 0.77195 0.07701 0.30824 0.0
C94 C 0.77583 1.00403 0.32748 0.0
Tb95 Tb 0.81943 0.19067 0.33679 0.0
N96 N 0.86518 0.17127 0.369 0.0
C97 C 0.90381 0.20751 0.38589 0.0
C98 C 0.9137 0.14056 0.40884 0.0
C99 C 0.92812 0.19263 0.40623 0.0
H100 H 0.75844 0.09309 0.29202 0.0
H101 H 0.95771 0.22132 0.42001 0.0
H102 H 0.87994 0.03785 0.40613 0.0
H103 H 0.736 1.00152 0.28869 0.0
H104 H 0.91512 0.2478 0.38451 0.0
H105 H 0.6096 0.24724 0.30325 0.0
H106 H 0.93255 0.12914 0.4246 0.0
H107 H 0.83078 0.32615 0.42165 0.0
H108 H 0.6502 0.20542 0.32886 0.0
H109 H 0.86285 0.4171 0.43423 0.0
H110 H 0.81913 0.97762 0.37031 0.0
H111 H 0.64036 0.34009 0.3109 0.0
H112 H 0.69969 0.42254 0.33695 0.0
H113 H 0.76596 0.96394 0.32594 0.0
H114 H 0.76805 0.46857 0.37284 0.0
N115 N 0.70574 0.27412 0.35042 0.0
C116 C 0.66466 0.24597 0.33253 0.0
C117 C 0.65858 0.3219 0.32228 0.0
C118 C 0.69853 0.34986 0.34179 0.0
C119 C 0.64112 0.26953 0.31793 0.0
C120 C 0.72103 0.32434 0.35596 0.0
H121 H 0.82895 0.46679 0.40929 0.0
N122 N 0.77882 0.32358 0.38957 0.0
C123 C 0.83347 0.39864 0.41793 0.0
C124 C 0.75864 0.34992 0.37638 0.0
C125 C 0.81487 0.34681 0.41078 0.0
C126 C 0.81426 0.42658 0.4038 0.0
C127 C 0.77606 0.40218 0.38289 0.0
O128 O 0.72256 0.23369 0.4176 0.0
O129 O 0.78324 0.19177 0.37647 0.0
O130 O 0.73834 0.12433 0.34295 0.0
O131 O 0.69339 0.16808 0.35325 0.0
O132 O 0.79304 0.23581 0.41095 0.0
O133 O 0.66842 0.19166 0.38364 0.0
O134 O 0.83604 0.19277 0.29297 0.0
O135 O 0.7798 0.23339 0.33573 0.0
O136 O 0.81601 0.30617 0.35852 0.0
O137 O 0.87135 0.27337 0.35155 0.0
O138 O 0.77244 0.18926 0.30069 0.0
O139 O 0.89767 0.23132 0.32304 0.0
C140 C 0.80181 0.20089 0.40131 0.0
C141 C 0.6386 0.22254 0.42099 0.0
C142 C 0.60029 0.24148 0.46134 0.0
C143 C 0.63515 0.22756 0.45036 0.0
C144 C 0.56953 0.25153 0.44272 0.0
C145 C 0.60715 0.23217 0.40258 0.0
C146 C 0.5732 0.24707 0.41344 0.0
C147 C 0.69455 0.1259 0.34618 0.0
C148 C 0.67388 0.20561 0.41024 0.0
C149 C 0.75495 0.42831 0.36829 0.0
C150 C 0.71615 0.40215 0.34781 0.0
C151 C 0.76026 0.22138 0.31122 0.0
C152 C 0.91777 0.20484 0.27906 0.0
C153 C 0.94199 0.23078 0.25327 0.0
C154 C 0.97049 0.21422 0.23636 0.0
C155 C 0.97465 0.17196 0.24624 0.0
C156 C 0.9228 0.16284 0.28786 0.0
C157 C 0.95113 0.14673 0.2716 0.0
C158 C 0.86288 0.31306 0.35469 0.0
C159 C 0.88599 0.2205 0.29621 0.0
H160 H 0.65847 0.21915 0.46472 0.0
H161 H 0.54254 0.26259 0.45086 0.0
H162 H 0.60807 0.22764 0.37988 0.0
H163 H 0.5492 0.25452 0.39916 0.0
H164 H 0.93784 0.26301 0.24621 0.0
H165 H 0.99686 0.15859 0.23449 0.0
H166 H 0.90469 0.1424 0.30734 0.0
H167 H 0.95494 0.11436 0.27871 0.0
Tb168 Tb 0.51301 0.76239 0.71167 0.0
C169 C 0.73517 0.82033 0.68493 0.0
C170 C 0.77981 0.88181 0.72266 0.0
C171 C 0.81556 0.83053 0.70403 0.0
C172 C 0.73795 0.85704 0.70346 0.0
C173 C 0.77448 0.80735 0.6844 0.0
C174 C 0.81814 0.86765 0.72321 0.0
C175 C 0.73141 0.75258 0.64391 0.0
N176 N 0.69477 0.79884 0.66659 0.0
C177 C 0.69347 0.76691 0.64537 0.0
C178 C 0.77179 0.77237 0.66378 0.0
Tb179 Tb 0.63252 0.82181 0.67121 0.0
N180 N 0.69995 0.86915 0.70222 0.0
C181 C 0.70349 0.90872 0.71851 0.0
C182 C 0.78211 0.9204 0.7404 0.0
C183 C 0.74409 0.93434 0.73805 0.0
H184 H 0.66208 0.75116 0.63007 0.0
H185 H 0.74587 0.96468 0.75138 0.0
H186 H 0.85035 0.88582 0.738 0.0
H187 H 0.72942 0.72624 0.62753 0.0
H188 H 0.6743 0.91977 0.71737 0.0
H189 H 0.3541 0.62934 0.64443 0.0
H190 H 0.81344 0.94021 0.75557 0.0
H191 H 0.5267 0.85874 0.75395 0.0
H192 H 0.43866 0.6647 0.66822 0.0
H193 H 0.47619 0.89984 0.76676 0.0
H194 H 0.84589 0.82068 0.70423 0.0
H195 H 0.30014 0.66947 0.65231 0.0
H196 H 0.28752 0.73623 0.67772 0.0
H197 H 0.80119 0.76131 0.66262 0.0
H198 H 0.32001 0.80872 0.71162 0.0
N199 N 0.43461 0.72614 0.68852 0.0
C200 C 0.416 0.683 0.67179 0.0
C201 C 0.33747 0.68533 0.66278 0.0
C202 C 0.35516 0.72747 0.68131 0.0
C203 C 0.36779 0.6626 0.65829 0.0
C204 C 0.40419 0.74678 0.69425 0.0
H205 H 0.39 0.86956 0.7451 0.0
N206 N 0.46972 0.80445 0.72524 0.0
C207 C 0.46043 0.86798 0.75181 0.0
C208 C 0.42196 0.78683 0.7136 0.0
C209 C 0.4889 0.84416 0.74455 0.0
C210 C 0.41181 0.85081 0.73954 0.0
C211 C 0.39198 0.80979 0.72016 0.0
O212 O 0.49692 0.7431 0.75487 0.0
O213 O 0.59587 0.79055 0.71194 0.0
O214 O 0.61064 0.73895 0.67892 0.0
O215 O 0.5235 0.7023 0.69259 0.0
O216 O 0.56655 0.80879 0.74565 0.0
O217 O 0.47022 0.68382 0.72233 0.0
O218 O 0.64975 0.83397 0.62734 0.0
O219 O 0.55015 0.78565 0.67101 0.0
O220 O 0.51786 0.82796 0.69016 0.0
O221 O 0.60676 0.87884 0.68323 0.0
O222 O 0.58384 0.77257 0.63645 0.0
O223 O 0.6673 0.89785 0.65473 0.0
C224 C 0.60792 0.81094 0.73632 0.0
C225 C 0.41694 0.6672 0.76257 0.0
C226 C 0.36645 0.63468 0.80572 0.0
C227 C 0.41449 0.66198 0.79216 0.0
C228 C 0.3205 0.61357 0.78968 0.0
C229 C 0.37073 0.64577 0.74664 0.0
C230 C 0.32275 0.6195 0.76023 0.0
C231 C 0.56363 0.69805 0.68441 0.0
C232 C 0.46814 0.69391 0.74908 0.0
C233 C 0.34353 0.79143 0.70697 0.0
C234 C 0.32514 0.75031 0.68758 0.0
C235 C 0.54041 0.76324 0.64721 0.0
C236 C 0.71708 0.91643 0.61213 0.0
C237 C 0.71538 0.93934 0.58591 0.0
C238 C 0.76129 0.97005 0.56986 0.0
C239 C 0.80849 0.97755 0.58103 0.0
C240 C 0.76479 0.92456 0.6222 0.0
C241 C 0.81008 0.95499 0.60676 0.0
C242 C 0.55933 0.87305 0.68503 0.0
C243 C 0.66902 0.88375 0.6287 0.0
H244 H 0.44998 0.67765 0.80454 0.0
H245 H 0.28302 0.59218 0.79995 0.0
H246 H 0.37136 0.64853 0.72378 0.0
H247 H 0.28731 0.60301 0.74787 0.0
H248 H 0.6784 0.93265 0.57795 0.0
H249 H 0.84476 1.00172 0.57008 0.0
H250 H 0.76704 0.90747 0.64208 0.0
H251 H 0.84683 0.96135 0.61487 0.0
Tb252 Tb 0.76627 0.51496 0.04247 0.0
C253 C 0.93158 0.73422 0.01678 0.0
C254 C 0.91788 0.77906 0.05556 0.0
C255 C 1.00464 0.81191 0.03652 0.0
C256 C 0.89878 0.73775 0.03601 0.0
C257 C 0.98468 0.77201 0.01619 0.0
C258 C 0.97127 0.8154 0.05621 0.0
C259 C 0.9929 0.73102 0.97382 0.0
N260 N 0.91063 0.69532 0.99749 0.0
C261 C 0.93989 0.69458 0.97526 0.0
C262 C 0.01561 0.76946 0.99464 0.0
Tb263 Tb 0.82444 0.63547 1.00311 0.0
N264 N 0.84756 0.7022 0.03443 0.0
C265 C 0.81248 0.70811 0.05026 0.0
C266 C 0.88251 0.78339 0.07317 0.0
C267 C 0.82947 0.74826 0.07015 0.0
H268 H 0.92258 0.66496 0.95911 0.0
H269 H 0.80167 0.7519 0.08323 0.0
H270 H 0.98685 0.84716 0.07126 0.0
H271 H 0.01618 0.72948 0.95665 0.0
H272 H 0.77146 0.68092 0.0483 0.0
H273 H 0.76732 0.37014 0.97398 0.0
H274 H 0.89558 0.81445 0.08856 0.0
H275 H 0.67322 0.51172 0.08291 0.0
H276 H 0.80662 0.45127 1.00142 0.0
H277 H 0.57979 0.45329 0.09083 0.0
H278 H 0.04548 0.84104 0.03668 0.0
H279 H 0.67225 0.31112 0.97462 0.0
H280 H 0.5854 0.28935 0.99462 0.0
H281 H 0.05661 0.79779 0.99341 0.0
H282 H 0.53457 0.31111 0.02715 0.0
N283 N 0.73432 0.44013 0.01645 0.0
C284 C 0.76503 0.4262 1.00184 0.0
C285 C 0.68925 0.34689 0.98663 0.0
C286 C 0.65839 0.35936 1.00339 0.0
C287 C 0.74292 0.38004 0.98627 0.0
C288 C 0.68248 0.40654 0.01847 0.0
H289 H 0.53233 0.3717 0.06352 0.0
N290 N 0.67918 0.46384 0.05136 0.0
C291 C 0.60018 0.44307 0.07552 0.0
C292 C 0.65406 0.41826 0.037 0.0
C293 C 0.65331 0.47606 0.07104 0.0
C294 C 0.57354 0.39702 0.0601 0.0
C295 C 0.60051 0.38396 0.04063 0.0
O296 O 0.76379 0.49822 0.08597 0.0
O297 O 0.81597 0.59815 0.04392 0.0
O298 O 0.88872 0.61992 0.01297 0.0
O299 O 0.84314 0.53301 0.02823 0.0
O300 O 0.76644 0.5654 0.07654 0.0
O301 O 0.8015 0.47298 0.0559 0.0
O302 O 0.81131 0.6393 0.9592 0.0
O303 O 0.78109 0.55287 1.00194 0.0
O304 O 0.70499 0.51823 0.02019 0.0
O305 O 0.74071 0.60696 0.0152 0.0
O306 O 0.83286 0.59004 0.96947 0.0
O307 O 0.79972 0.68683 0.98831 0.0
C308 C 0.80474 0.6085 0.06796 0.0
C309 C 0.75525 0.41702 0.09401 0.0
C310 C 0.7228 0.36283 0.13586 0.0
C311 C 0.75185 0.41181 0.12359 0.0
C312 C 0.69607 0.31888 0.11861 0.0
C313 C 0.7297 0.37254 0.07684 0.0
C314 C 0.69955 0.32384 0.08912 0.0
C315 C 0.88623 0.57552 0.02055 0.0
C316 C 0.78431 0.4692 0.0818 0.0
C317 C 0.57581 0.33782 0.02485 0.0
C318 C 0.60471 0.32555 1.00624 0.0
C319 C 0.79899 0.54535 0.97929 0.0
C320 C 0.82083 0.71682 0.94009 0.0
C321 C 0.79023 0.71984 0.91762 0.0
C322 C 0.81332 0.75718 0.8953 0.0
C323 C 0.8679 0.78956 0.89614 0.0
C324 C 0.87404 0.75248 0.94071 0.0
C325 C 0.89735 0.78795 0.91876 0.0
C326 C 0.69984 0.55874 0.01548 0.0
C327 C 0.79827 0.67441 0.96166 0.0
H328 H 0.7728 0.44564 0.13706 0.0
H329 H 0.67426 0.28068 0.128 0.0
H330 H 0.73325 0.37496 0.05406 0.0
H331 H 0.67983 0.28983 0.07577 0.0
H332 H 0.74885 0.6931 0.91779 0.0
H333 H 0.88897 0.81634 0.8792 0.0
H334 H 0.89795 0.7523 0.95788 0.0
H335 H 0.93892 0.81407 0.91906 0.0
Tb336 Tb 0.24942 0.76194 0.3822 0.0
C337 C 0.19543 0.9246 0.35258 0.0
C338 C 0.13726 0.91267 0.39125 0.0
C339 C 0.19138 0.99835 0.37107 0.0
C340 C 0.15904 0.89272 0.37204 0.0
C341 C 0.21101 0.97754 0.35118 0.0
C342 C 0.15456 0.96592 0.39112 0.0
C343 C 0.25974 0.98382 0.30892 0.0
N344 N 0.21307 0.90286 0.33378 0.0
C345 C 0.24289 0.93102 0.31121 0.0
C346 C 0.2444 0.00742 0.32928 0.0
Tb347 Tb 0.18657 0.81709 0.34027 0.0
N348 N 0.1432 0.84159 0.37118 0.0
C349 C 0.10291 0.80752 0.38795 0.0
C350 C 0.09789 0.8783 0.40944 0.0
C351 C 0.0801 0.82539 0.40745 0.0
H352 H 0.25527 0.913 0.29557 0.0
H353 H 0.04909 0.79833 0.42112 0.0
H354 H 0.13866 0.98211 0.40587 0.0
H355 H 0.28456 0.00626 0.2915 0.0
H356 H 0.08899 0.7666 0.38716 0.0
H357 H 0.37971 0.7311 0.31608 0.0
H358 H 0.08026 0.89204 0.4246 0.0
H359 H 0.16241 0.68587 0.43072 0.0
H360 H 0.34278 0.78083 0.33619 0.0
H361 H 0.12387 0.59626 0.44758 0.0
H362 H 0.20331 0.03908 0.37061 0.0
H363 H 0.34397 0.63931 0.32941 0.0
H364 H 0.27909 0.56234 0.35733 0.0
H365 H 0.2573 0.04827 0.32742 0.0
H366 H 0.20918 0.52548 0.39292 0.0
N367 N 0.28433 0.71786 0.36017 0.0
C368 C 0.32573 0.74075 0.34203 0.0
C369 C 0.32687 0.66086 0.33804 0.0
C370 C 0.28562 0.6379 0.3572 0.0
C371 C 0.3472 0.71262 0.33054 0.0
C372 C 0.26562 0.66805 0.3684 0.0
H373 H 0.15116 0.53787 0.42671 0.0
N374 N 0.211 0.67895 0.39987 0.0
C375 C 0.15303 0.61027 0.43106 0.0
C376 C 0.2275 0.64778 0.38889 0.0
C377 C 0.1753 0.66134 0.42145 0.0
C378 C 0.16844 0.57739 0.41919 0.0
C379 C 0.20661 0.59618 0.3981 0.0
O380 O 0.27622 0.76841 0.42438 0.0
O381 O 0.22087 0.81595 0.38089 0.0
O382 O 0.27015 0.87806 0.34548 0.0
O383 O 0.30751 0.8279 0.35767 0.0
O384 O 0.20846 0.7748 0.41696 0.0
O385 O 0.32921 0.80696 0.38967 0.0
O386 O 0.17208 0.81847 0.29631 0.0
O387 O 0.21891 0.76772 0.3419 0.0
O388 O 0.17685 0.69672 0.36763 0.0
O389 O 0.12919 0.73652 0.35524 0.0
O390 O 0.22948 0.80857 0.30502 0.0
O391 O 0.10903 0.77859 0.32538 0.0
C392 C 0.20286 0.81069 0.40573 0.0
C393 C 0.35772 0.7728 0.42601 0.0
C394 C 0.39176 0.74453 0.46466 0.0
C395 C 0.35898 0.76226 0.45495 0.0
C396 C 0.4216 0.73511 0.44511 0.0
C397 C 0.38957 0.76517 0.4069 0.0
C398 C 0.42036 0.74535 0.41635 0.0
C399 C 0.31111 0.87176 0.3491 0.0
C400 C 0.32463 0.79339 0.41628 0.0
C401 C 0.22487 0.56529 0.38622 0.0
C402 C 0.26458 0.58623 0.36593 0.0
C403 C 0.23706 0.7744 0.31715 0.0
C404 C 0.09044 0.80663 0.28144 0.0
C405 C 0.06615 0.78068 0.2556 0.0
C406 C 0.03646 0.79636 0.23895 0.0
C407 C 0.0313 0.83782 0.24925 0.0
C408 C 0.08467 0.84801 0.29049 0.0
C409 C 0.0552 0.86327 0.27454 0.0
C410 C 0.13266 0.69481 0.36178 0.0
C411 C 0.12193 0.79071 0.29879 0.0
H412 H 0.33627 0.77002 0.47003 0.0
H413 H 0.44695 0.72118 0.45225 0.0
H414 H 0.39163 0.77526 0.38474 0.0
H415 H 0.44433 0.73919 0.40144 0.0
H416 H 0.07099 0.74898 0.24839 0.0
H417 H 0.00796 0.85043 0.23795 0.0
H418 H 0.10282 0.86842 0.31 0.0
H419 H 0.05063 0.89503 0.28191 0.0
Tb420 Tb 0.50508 0.25492 0.71118 0.0
C421 C 0.28151 0.20204 0.6855 0.0
C422 C 0.23553 0.14305 0.72392 0.0
C423 C 0.20171 0.19475 0.70336 0.0
C424 C 0.27769 0.16603 0.70489 0.0
C425 C 0.24307 0.21616 0.68395 0.0
C426 C 0.19799 0.15827 0.72338 0.0
C427 C 0.28751 0.26854 0.64301 0.0
N428 N 0.32205 0.22171 0.66732 0.0
C429 C 0.32454 0.25312 0.64546 0.0
C430 C 0.24688 0.25046 0.66256 0.0
Tb431 Tb 0.3824 0.19648 0.67318 0.0
N432 N 0.31495 0.1528 0.70467 0.0
C433 C 0.31033 0.11391 0.72202 0.0
C434 C 0.23207 0.10507 0.74259 0.0
C435 C 0.26939 0.09009 0.74142 0.0
H436 H 0.35601 0.26747 0.63034 0.0
H437 H 0.26677 0.06026 0.75554 0.0
H438 H 0.16556 0.14146 0.73801 0.0
H439 H 0.29036 0.29434 0.62606 0.0
H440 H 0.33882 0.10191 0.72185 0.0
H441 H 0.64932 0.38461 0.63596 0.0
H442 H 0.2004 0.08652 0.75762 0.0
H443 H 0.50632 0.17021 0.75649 0.0
H444 H 0.57117 0.35199 0.66561 0.0
H445 H 0.55992 0.13027 0.76562 0.0
H446 H 0.17201 0.20546 0.70275 0.0
H447 H 0.70215 0.34215 0.63754 0.0
H448 H 0.71905 0.27561 0.66 0.0
H449 H 0.21816 0.26231 0.66061 0.0
H450 H 0.69552 0.20725 0.69586 0.0
N451 N 0.57767 0.2896 0.68302 0.0
C452 C 0.59354 0.33276 0.66656 0.0
C453 C 0.66768 0.32744 0.65059 0.0
C454 C 0.65361 0.28592 0.66916 0.0
C455 C 0.63802 0.35157 0.64968 0.0
C456 C 0.60819 0.26811 0.68552 0.0
H457 H 0.63723 0.15414 0.73602 0.0
N458 N 0.55201 0.21531 0.7215 0.0
C459 C 0.5702 0.15818 0.74864 0.0
C460 C 0.59541 0.23018 0.70577 0.0
C461 C 0.53998 0.18102 0.74344 0.0
C462 C 0.61366 0.17155 0.73179 0.0
C463 C 0.62694 0.20817 0.71012 0.0
O464 O 0.52725 0.27415 0.75395 0.0
O465 O 0.42272 0.22809 0.71311 0.0
O466 O 0.40459 0.27843 0.68142 0.0
O467 O 0.49251 0.31594 0.69469 0.0
O468 O 0.45407 0.21197 0.74688 0.0
O469 O 0.55242 0.33337 0.72152 0.0
O470 O 0.36786 0.18352 0.62903 0.0
O471 O 0.4649 0.22911 0.67129 0.0
O472 O 0.49303 0.18296 0.69384 0.0
O473 O 0.40352 0.1375 0.68663 0.0
O474 O 0.43043 0.24702 0.639 0.0
O475 O 0.3431 0.1197 0.65746 0.0
C476 C 0.41211 0.20931 0.73789 0.0
C477 C 0.612 0.34532 0.75806 0.0
C478 C 0.67217 0.3729 0.79775 0.0
C479 C 0.62136 0.35071 0.78739 0.0
C480 C 0.71368 0.3884 0.77884 0.0
C481 C 0.6541 0.3619 0.73926 0.0
C482 C 0.70452 0.38255 0.74966 0.0
C483 C 0.45139 0.31906 0.68717 0.0
C484 C 0.55835 0.32275 0.74768 0.0
C485 C 0.671 0.22405 0.69305 0.0
C486 C 0.68431 0.26285 0.67258 0.0
C487 C 0.47388 0.25326 0.64809 0.0
C488 C 0.29735 0.10336 0.61337 0.0
C489 C 0.29907 0.07977 0.58742 0.0
C490 C 0.25385 0.0517 0.57032 0.0
C491 C 0.20728 0.04749 0.58019 0.0
C492 C 0.2503 0.09854 0.62211 0.0
C493 C 0.20567 0.0707 0.60565 0.0
C494 C 0.44902 0.13974 0.68967 0.0
C495 C 0.34476 0.13349 0.63101 0.0
H496 H 0.58943 0.33945 0.80208 0.0
H497 H 0.75319 0.40629 0.78667 0.0
H498 H 0.64858 0.35985 0.71659 0.0
H499 H 0.73664 0.39518 0.73503 0.0
H500 H 0.33556 0.0839 0.58046 0.0
H501 H 0.17144 0.0254 0.56842 0.0
H502 H 0.24804 0.11621 0.64174 0.0
H503 H 0.16941 0.06689 0.61274 0.0
C504 C 0.28641 0.76325 0.27908 0.0
C505 C 0.25045 0.74108 0.30104 0.0
C506 C 0.29474 0.73229 0.26016 0.0
C507 C 0.26627 0.67775 0.26347 0.0
C508 C 0.23208 0.65529 0.28669 0.0
C509 C 0.22353 0.68731 0.30485 0.0
C510 C 0.33134 0.75794 0.23549 0.0
C511 C 0.20244 0.59759 0.29166 0.0
C512 C 0.24278 0.62051 0.19074 0.0
C513 C 0.28818 0.6185 0.18691 0.0
C514 C 0.23179 0.63443 0.21701 0.0
C515 C 0.26676 0.64547 0.23989 0.0
C516 C 0.30895 0.6368 0.23699 0.0
C517 C 0.31988 0.6243 0.21019 0.0
C518 C 0.18638 0.6434 0.21917 0.0
C519 C 0.34445 0.6444 0.26163 0.0
H520 H 0.30669 0.80489 0.27611 0.0
H521 H 0.19495 0.66999 0.32147 0.0
H522 H 0.36122 0.74628 0.23505 0.0
H523 H 0.30949 0.74529 0.21516 0.0
H524 H 0.35137 0.80086 0.2366 0.0
H525 H 0.19205 0.58845 0.31445 0.0
H526 H 0.16579 0.57991 0.27928 0.0
H527 H 0.22513 0.57936 0.28482 0.0
H528 H 0.21829 0.61569 0.17256 0.0
H529 H 0.35437 0.62145 0.20709 0.0
H530 H 0.20098 0.68557 0.22084 0.0
H531 H 0.16333 0.62477 0.23852 0.0
H532 H 0.1603 0.62816 0.20039 0.0
H533 H 0.36549 0.68562 0.2682 0.0
H534 H 0.37335 0.63265 0.25636 0.0
H535 H 0.321 0.62118 0.27997 0.0
C536 C 0.53404 0.2286 0.62593 0.0
C537 C 0.5142 0.26208 0.62758 0.0
C538 C 0.56218 0.22909 0.60204 0.0
C539 C 0.56938 0.26324 0.5794 0.0
C540 C 0.55457 0.30107 0.5826 0.0
C541 C 0.52645 0.29957 0.60661 0.0
C542 C 0.57916 0.1895 0.5998 0.0
C543 C 0.56289 0.33916 0.55926 0.0
C544 C 0.63702 0.27294 0.50984 0.0
C545 C 0.59407 0.24317 0.49226 0.0
C546 C 0.63035 0.27757 0.53899 0.0
C547 C 0.57967 0.25163 0.55044 0.0
C548 C 0.53669 0.21887 0.53299 0.0
C549 C 0.54448 0.21532 0.50404 0.0
C550 C 0.67705 0.31249 0.55698 0.0
C551 C 0.482 0.18964 0.54455 0.0
H552 H 0.52486 0.19993 0.64229 0.0
H553 H 0.51136 0.32576 0.60824 0.0
H554 H 0.55084 0.15661 0.58655 0.0
H555 H 0.61761 0.20625 0.58938 0.0
H556 H 0.58124 0.17428 0.62103 0.0
H557 H 0.55713 0.37105 0.56693 0.0
H558 H 0.60254 0.35613 0.55034 0.0
H559 H 0.53487 0.31873 0.54176 0.0
H560 H 0.67547 0.29415 0.50059 0.0
H561 H 0.51158 0.19138 0.49041 0.0
H562 H 0.67313 0.29737 0.57894 0.0
H563 H 0.68075 0.35124 0.5584 0.0
H564 H 0.71335 0.31739 0.54751 0.0
H565 H 0.48032 0.16691 0.56358 0.0
H566 H 0.45372 0.16277 0.52861 0.0
H567 H 0.46968 0.21744 0.55118 0.0
C568 C 0.25219 0.54699 0.95141 0.0
C569 C 0.27477 0.52575 0.9687 0.0
C570 C 0.28042 0.5807 0.92941 0.0
C571 C 0.33157 0.59136 0.92416 0.0
C572 C 0.35663 0.57554 0.94394 0.0
C573 C 0.32752 0.54217 0.96605 0.0
C574 C 0.253 0.59872 0.90947 0.0
C575 C 0.41195 0.5884 0.93982 0.0
C576 C 0.34005 0.57385 0.84595 0.0
C577 C 0.3642 0.6249 0.83638 0.0
C578 C 0.33361 0.56281 0.87496 0.0
C579 C 0.35099 0.60408 0.89473 0.0
C580 C 0.37869 0.65598 0.88521 0.0
C581 C 0.38516 0.66586 0.8559 0.0
C582 C 0.30503 0.50675 0.88424 0.0
C583 C 0.39843 0.70097 0.90558 0.0
H584 H 0.21138 0.53447 0.95393 0.0
H585 H 0.34493 0.52597 0.97972 0.0
H586 H 0.27906 0.6396 0.90321 0.0
H587 H 0.24154 0.57479 0.88986 0.0
H588 H 0.21746 0.59516 0.91923 0.0
H589 H 0.41276 0.56051 0.92458 0.0
H590 H 0.436 0.62785 0.9309 0.0
H591 H 0.42945 0.58572 0.96018 0.0
H592 H 0.32514 0.54248 0.83062 0.0
H593 H 0.40454 0.70544 0.84822 0.0
H594 H 0.26668 0.49678 0.89316 0.0
H595 H 0.32708 0.50019 0.90113 0.0
H596 H 0.29854 0.47985 0.86637 0.0
H597 H 0.36806 0.71158 0.90852 0.0
H598 H 0.43349 0.73542 0.89698 0.0
H599 H 0.40782 0.69136 0.92674 0.0
C600 C 0.76694 0.30339 0.2943 0.0
C601 C 0.74284 0.2494 0.29318 0.0
C602 C 0.75726 0.33062 0.2733 0.0
C603 C 0.72492 0.30301 0.2501 0.0
C604 C 0.6974 0.24819 0.25014 0.0
C605 C 0.70708 0.22207 0.27168 0.0
C606 C 0.78564 0.38894 0.27466 0.0
C607 C 0.6626 0.21714 0.22574 0.0
C608 C 0.6907 0.35464 0.18552 0.0
C609 C 0.72727 0.35644 0.1663 0.0
C610 C 0.69209 0.34189 0.21411 0.0
C611 C 0.73009 0.32971 0.22289 0.0
C612 C 0.76908 0.33505 0.20372 0.0
C613 C 0.76719 0.34861 0.17558 0.0
C614 C 0.65148 0.33864 0.23443 0.0
C615 C 0.81044 0.32251 0.21224 0.0
H616 H 0.79542 0.32465 0.31053 0.0
H617 H 0.68903 0.18028 0.27076 0.0
H618 H 0.76261 0.40461 0.26477 0.0
H619 H 0.79477 0.40279 0.297 0.0
H620 H 0.82283 0.40478 0.26296 0.0
H621 H 0.63866 0.17535 0.23102 0.0
H622 H 0.63633 0.23171 0.21967 0.0
H623 H 0.68679 0.22116 0.20694 0.0
H624 H 0.66028 0.36147 0.17801 0.0
H625 H 0.79548 0.35065 0.16039 0.0
H626 H 0.66923 0.35601 0.25526 0.0
H627 H 0.62209 0.29748 0.23828 0.0
H628 H 0.63134 0.35854 0.22591 0.0
H629 H 0.83133 0.34476 0.23146 0.0
H630 H 0.8393 0.33139 0.19509 0.0
H631 H 0.79215 0.28076 0.21752 0.0
C632 C 0.47204 0.7766 0.62601 0.0
C633 C 0.49432 0.74557 0.62955 0.0
C634 C 0.43866 0.7683 0.60315 0.0
C635 C 0.42911 0.72908 0.58319 0.0
C636 C 0.44602 0.69347 0.58895 0.0
C637 C 0.47946 0.70281 0.61188 0.0
C638 C 0.41997 0.80609 0.5983 0.0
C639 C 0.43499 0.64995 0.56873 0.0
C640 C 0.35754 0.71273 0.51364 0.0
C641 C 0.39949 0.74136 0.49533 0.0
C642 C 0.36594 0.70924 0.54276 0.0
C643 C 0.41733 0.73529 0.55341 0.0
C644 C 0.45946 0.76584 0.53501 0.0
C645 C 0.44992 0.76824 0.50619 0.0
C646 C 0.32018 0.67635 0.56171 0.0
C647 C 0.51496 0.79521 0.54554 0.0
H648 H 0.48438 0.81015 0.63933 0.0
H649 H 0.49673 0.67873 0.6149 0.0
H650 H 0.44779 0.8377 0.58421 0.0
H651 H 0.38138 0.7871 0.58782 0.0
H652 H 0.41755 0.82366 0.61863 0.0
H653 H 0.44079 0.61983 0.57909 0.0
H654 H 0.3947 0.63166 0.5605 0.0
H655 H 0.46173 0.66568 0.55031 0.0
H656 H 0.31846 0.69218 0.50507 0.0
H657 H 0.48209 0.79132 0.49202 0.0
H658 H 0.3254 0.69367 0.58318 0.0
H659 H 0.31643 0.63774 0.56432 0.0
H660 H 0.28341 0.67067 0.55239 0.0
H661 H 0.51868 0.82132 0.56327 0.0
H662 H 0.54269 0.81889 0.52857 0.0
H663 H 0.52651 0.76766 0.55375 0.0
C664 C 0.80291 0.48935 0.94245 0.0
C665 C 0.77275 0.5013 0.96006 0.0
C666 C 0.78043 0.45547 0.91954 0.0
C667 C 0.72696 0.4347 0.91379 0.0
C668 C 0.69556 0.443 0.9331 0.0
C669 C 0.71914 0.47697 0.95591 0.0
C670 C 0.81507 0.44672 0.89976 0.0
C671 C 0.6383 0.42115 0.92805 0.0
C672 C 0.70318 0.43841 0.8355 0.0
C673 C 0.68275 0.38668 0.82783 0.0
C674 C 0.71554 0.4539 0.86376 0.0
C675 C 0.7079 0.41659 0.88467 0.0
C676 C 0.68585 0.36382 0.87713 0.0
C677 C 0.67313 0.34929 0.84854 0.0
C678 C 0.73817 0.51051 0.87103 0.0
C679 C 0.67709 0.32332 0.89904 0.0
H680 H 0.84452 0.50849 0.94583 0.0
H681 H 0.69619 0.48728 0.96911 0.0
H682 H 0.79567 0.40586 0.89256 0.0
H683 H 0.82347 0.47145 0.88064 0.0
H684 H 0.85254 0.45664 0.91003 0.0
H685 H 0.61756 0.41706 0.94835 0.0
H686 H 0.63278 0.44798 0.91413 0.0
H687 H 0.6204 0.38291 0.91739 0.0
H688 H 0.70982 0.46682 0.81922 0.0
H689 H 0.65688 0.30918 0.84225 0.0
H690 H 0.77851 0.52674 0.8789 0.0
H691 H 0.71533 0.51498 0.88823 0.0
H692 H 0.73878 0.53377 0.85245 0.0
H693 H 0.71493 0.33103 0.90774 0.0
H694 H 0.65645 0.28357 0.89003 0.0
H695 H 0.65428 0.3252 0.91712 0.0
C696 C 0.3941 0.46062 0.9906 0.0
C697 C 0.36921 0.44032 0.01664 0.0
C698 C 0.44833 0.48328 0.98784 0.0
C699 C 0.47863 0.48576 0.0117 0.0
C700 C 0.45328 0.46368 0.03779 0.0
C701 C 0.39904 0.44133 0.03991 0.0
C702 C 0.47352 0.50719 0.95981 0.0
C703 C 0.48373 0.4653 0.06377 0.0
C704 C 0.60917 0.49501 1.00122 0.0
C705 C 0.64505 0.54572 1.01021 0.0
C706 C 0.55562 0.47587 1.00096 0.0
C707 C 0.53632 0.50843 1.00909 0.0
C708 C 0.5723 0.56105 0.01607 0.0
C709 C 0.62628 0.57897 0.01686 0.0
C710 C 0.51957 0.41971 0.99332 0.0
C711 C 0.55436 0.59818 0.02421 0.0
H712 H 0.37151 0.46179 0.97283 0.0
H713 H 0.38025 0.42741 0.06032 0.0
H714 H 0.49818 0.54974 0.96245 0.0
H715 H 0.49917 0.4924 0.95284 0.0
H716 H 0.4445 0.4992 0.94282 0.0
H717 H 0.45855 0.44739 0.08262 0.0
H718 H 0.50496 0.44453 0.05932 0.0
H719 H 0.51294 0.50602 0.06894 0.0
H720 H 0.62269 0.46882 0.9954 0.0
H721 H 0.65327 0.61812 0.0238 0.0
H722 H 0.49205 0.4164 0.97643 0.0
H723 H 0.49629 0.39854 0.01221 0.0
H724 H 0.54083 0.40031 0.98583 0.0
H725 H 0.51509 0.58628 0.0159 0.0
H726 H 0.58199 0.63775 0.01636 0.0
H727 H 0.55371 0.60019 0.04772 0.0
C728 C 0.06096 0.61397 0.38308 0.0
C729 C 0.08734 0.64203 0.35883 0.0
C730 C 0.02661 0.56004 0.38183 0.0
C731 C 0.01891 0.53325 0.35574 0.0
C732 C 0.04527 0.56176 0.33111 0.0
C733 C 0.07907 0.61569 0.33298 0.0
C734 C 0.99927 0.53155 0.40859 0.0
C735 C 0.03866 0.53514 0.30288 0.0
C736 C 0.95769 0.38501 0.35829 0.0
C737 C 0.9054 0.36846 0.35267 0.0
C738 C 0.99549 0.4385 0.35891 0.0
C739 C 0.98059 0.47617 0.35383 0.0
C740 C 0.92818 0.45935 0.34737 0.0
C741 C 0.89178 0.40628 0.34666 0.0
C742 C 0.05113 0.45484 0.36563 0.0
C743 C 0.90996 0.49748 0.34191 0.0
H744 H 0.06848 0.63404 0.40325 0.0
H745 H 0.10066 0.63709 0.31438 0.0
H746 H 0.95661 0.51112 0.40536 0.0
H747 H 0.00984 0.50177 0.41362 0.0
H748 H 0.00929 0.5579 0.42714 0.0
H749 H 0.06239 0.56264 0.28584 0.0
H750 H 0.04997 0.50517 0.30491 0.0
H751 H 0.99729 0.51517 0.29633 0.0
H752 H 0.96881 0.35641 0.36297 0.0
H753 H 0.8519 0.39456 0.34174 0.0
H754 H 0.06288 0.47684 0.3859 0.0
H755 H 0.07713 0.48105 0.34881 0.0
H756 H 0.05719 0.42123 0.36757 0.0
H757 H 0.9161 0.52115 0.36125 0.0
H758 H 0.8682 0.47808 0.33608 0.0
H759 H 0.93292 0.52437 0.32453 0.0
C760 C 0.47242 0.08627 0.66019 0.0
C761 C 0.45418 0.09367 0.68617 0.0
C762 C 0.49387 0.05393 0.65814 0.0
C763 C 0.49711 0.02823 0.68271 0.0
C764 C 0.47757 0.03477 0.70889 0.0
C765 C 0.45656 0.06759 0.71032 0.0
C766 C 0.51487 0.04882 0.62992 0.0
C767 C 0.47991 0.00795 0.73555 0.0
C768 C 0.49729 0.90271 0.67332 0.0
C769 C 0.5484 0.91606 0.68059 0.0
C770 C 0.48077 0.93886 0.67357 0.0
C771 C 0.51641 0.99086 0.68051 0.0
C772 C 0.56906 0.00582 0.68613 0.0
C773 C 0.58445 0.96805 0.68635 0.0
C774 C 0.42427 0.92058 0.66764 0.0
C775 C 0.60864 0.06101 0.69336 0.0
H776 H 0.47209 0.10774 0.64169 0.0
H777 H 0.44427 0.07488 0.73062 0.0
H778 H 0.55755 0.06593 0.6316 0.0
H779 H 0.49813 0.00745 0.62418 0.0
H780 H 0.50641 0.06857 0.61249 0.0
H781 H 0.46319 0.01707 0.75423 0.0
H782 H 0.45841 0.96547 0.73222 0.0
H783 H 0.52079 0.01963 0.74038 0.0
H784 H 0.46884 0.86297 0.66841 0.0
H785 H 0.62384 0.97887 0.6921 0.0
H786 H 0.4207 0.94411 0.65051 0.0
H787 H 0.40601 0.92558 0.687 0.0
H788 H 0.40207 0.8792 0.66124 0.0
H789 H 0.60168 0.08888 0.68131 0.0
H790 H 0.64873 0.06936 0.68905 0.0
H791 H 0.60576 0.06731 0.71635 0.0
C792 C 0.58844 0.62906 0.67478 0.0
C793 C 0.55106 0.64326 0.68023 0.0
C794 C 0.57403 0.57613 0.67286 0.0
C795 C 0.52129 0.53687 0.67674 0.0
C796 C 0.48358 0.55124 0.68132 0.0
C797 C 0.49876 0.60357 0.68281 0.0
C798 C 0.61528 0.56219 0.66746 0.0
C799 C 0.42705 0.51125 0.68602 0.0
C800 C 0.46167 0.3936 0.65814 0.0
C801 C 0.46151 0.37245 0.68472 0.0
C802 C 0.48341 0.44752 0.65481 0.0
C803 C 0.50492 0.48074 0.6787 0.0
C804 C 0.50421 0.45906 0.70561 0.0
C805 C 0.48303 0.40539 0.70818 0.0
C806 C 0.48381 0.46905 0.62573 0.0
C807 C 0.5253 0.4925 0.73183 0.0
H808 H 0.62877 0.65894 0.67262 0.0
H809 H 0.46872 0.61284 0.68676 0.0
H810 H 0.62148 0.54515 0.68698 0.0
H811 H 0.60262 0.53256 0.65043 0.0
H812 H 0.65284 0.59645 0.66125 0.0
H813 H 0.40214 0.52888 0.68812 0.0
H814 H 0.41208 0.4833 0.66813 0.0
H815 H 0.42306 0.48899 0.70568 0.0
H816 H 0.4469 0.36827 0.63979 0.0
H817 H 0.48419 0.38902 0.72858 0.0
H818 H 0.52382 0.49969 0.62018 0.0
H819 H 0.45932 0.48724 0.6258 0.0
H820 H 0.46917 0.4387 0.60899 0.0
H821 H 0.56603 0.52352 0.72827 0.0
H822 H 0.52401 0.46991 0.75089 0.0
H823 H 0.50239 0.5116 0.7363 0.0
C824 C 0.12756 0.52773 0.02692 0.0
C825 C 0.11241 0.47609 0.02004 0.0
C826 C 0.09317 0.5467 0.025 0.0
C827 C 0.04148 0.51351 0.0161 0.0
C828 C 0.02566 0.46149 1.00871 0.0
C829 C 0.06122 0.44337 1.0108 0.0
C830 C 0.11202 0.6022 0.03336 0.0
C831 C 0.97082 0.42468 0.99914 0.0
C832 C 0.94102 0.54573 0.04377 0.0
C833 C 0.93267 0.56963 0.02029 0.0
C834 C 0.97599 0.52735 0.04257 0.0
C835 C 1.00344 0.53248 0.01711 0.0
C836 C 0.99635 0.55802 0.99348 0.0
C837 C 0.96101 0.57636 0.99535 0.0
C838 C 0.98266 0.50137 0.06848 0.0
C839 C 0.02484 0.56445 0.96597 0.0
H840 H 0.16664 0.55398 0.03422 0.0
H841 H 0.04868 0.40351 1.0056 0.0
H842 H 0.10387 0.62245 0.01611 0.0
H843 H 0.0909 0.60312 0.05253 0.0
H844 H 0.15429 0.62407 0.03804 0.0
H845 H 0.96557 0.38693 0.99198 0.0
H846 H 0.94362 0.41758 0.01691 0.0
H847 H 0.96002 0.44206 0.98148 0.0
H848 H 0.91856 0.53979 0.06295 0.0
H849 H 0.95354 0.5934 0.9769 0.0
H850 H 0.02389 0.52201 0.07531 0.0
H851 H 0.97207 0.46105 0.06324 0.0
H852 H 0.95842 0.50043 0.08663 0.0
H853 H 0.06731 0.58509 0.96984 0.0
H854 H 0.0162 0.58624 0.94984 0.0
H855 H 0.01382 0.52583 0.95716 0.0
C856 C 0.38914 0.96026 0.35711 0.0
C857 C 0.3648 0.91337 0.34212 0.0
C858 C 0.44364 0.9935 0.35585 0.0
C859 C 0.47453 0.97958 0.33918 0.0
C860 C 0.44948 0.93333 0.32303 0.0
C861 C 0.39528 0.90095 0.3248 0.0
C862 C 0.46843 0.04243 0.37336 0.0
C863 C 0.48011 0.9169 0.30466 0.0
C864 C 0.61154 0.08675 0.3196 0.0
C865 C 0.64254 0.08066 0.33997 0.0
C866 C 0.5574 0.05351 0.3186 0.0
C867 C 0.53289 0.01299 0.33871 0.0
C868 C 0.56431 0.00512 0.35859 0.0
C869 C 0.61871 0.03913 0.35904 0.0
C870 C 0.52618 0.06357 0.29688 0.0
C871 C 0.54014 0.9624 0.38038 0.0
H872 H 0.36603 0.96949 0.37107 0.0
H873 H 0.37673 0.86456 0.31333 0.0
H874 H 0.4942 0.04027 0.38968 0.0
H875 H 0.49296 0.07633 0.35968 0.0
H876 H 0.43921 0.04901 0.38423 0.0
H877 H 0.45467 0.88127 0.29228 0.0
H878 H 0.50492 0.94832 0.28964 0.0
H879 H 0.50622 0.90955 0.31821 0.0
H880 H 0.62951 0.11962 0.30534 0.0
H881 H 0.64209 0.03525 0.37546 0.0
H882 H 0.50116 0.07575 0.30782 0.0
H883 H 0.50027 0.02762 0.28493 0.0
H884 H 0.55126 0.09425 0.28149 0.0
H885 H 0.51527 0.96972 0.39491 0.0
H886 H 0.56977 0.95935 0.39324 0.0
H887 H 0.51485 0.92471 0.36978 0.0
C888 C 0.37463 0.1975 0.78689 0.0
C889 C 0.37736 0.21512 0.75888 0.0
C890 C 0.34807 0.20756 0.80847 0.0
C891 C 0.32155 0.23458 0.80202 0.0
C892 C 0.32306 0.25145 0.77357 0.0
C893 C 0.35215 0.24297 0.75267 0.0
C894 C 0.34925 0.18996 0.83842 0.0
C895 C 0.29377 0.27833 0.76511 0.0
C896 C 0.21341 0.21125 0.85439 0.0
C897 C 0.23472 0.25772 0.87026 0.0
C898 C 0.24015 0.20442 0.83163 0.0
C899 C 0.29135 0.24361 0.82496 0.0
C900 C 0.31417 0.28994 0.84129 0.0
C901 C 0.28554 0.29678 0.86323 0.0
C902 C 0.21317 0.15503 0.81446 0.0
C903 C 0.36924 0.33226 0.83574 0.0
H904 H 0.39468 0.17679 0.79218 0.0
H905 H 0.35536 0.2585 0.73152 0.0
H906 H 0.36394 0.22331 0.85325 0.0
H907 H 0.30944 0.16112 0.84533 0.0
H908 H 0.37414 0.17229 0.84038 0.0
H909 H 0.29658 0.28667 0.74195 0.0
H910 H 0.25221 0.25386 0.77082 0.0
H911 H 0.3091 0.31528 0.77693 0.0
H912 H 0.17546 0.17929 0.85971 0.0
H913 H 0.30318 0.33312 0.87466 0.0
H914 H 0.23456 0.13372 0.81618 0.0
H915 H 0.21285 0.16444 0.79166 0.0
H916 H 0.17252 0.12904 0.82142 0.0
H917 H 0.39581 0.31654 0.83764 0.0
H918 H 0.38225 0.36522 0.85074 0.0
H919 H 0.37276 0.34698 0.81373 0.0
C920 C 0.99667 0.21014 0.18551 0.0
C921 C 0.99683 0.24008 0.20871 0.0
C922 C 0.02655 0.23299 0.16084 0.0
C923 C 0.05783 0.28756 0.15882 0.0
C924 C 0.05623 0.3182 0.18149 0.0
C925 C 0.02585 0.29426 0.206 0.0
C926 C 0.02626 0.19843 0.13735 0.0
C927 C 0.08844 0.37646 0.18038 0.0
C928 C 0.18264 0.3456 0.11449 0.0
C929 C 0.16939 0.36263 0.08973 0.0
C930 C 0.14663 0.3205 0.13661 0.0
C931 C 0.09552 0.31214 0.13435 0.0
C932 C 0.08129 0.32775 0.10893 0.0
C933 C 0.11834 0.35301 0.08708 0.0
C934 C 0.16389 0.30409 0.16284 0.0
C935 C 0.02737 0.31932 0.10514 0.0
H936 H 0.97375 0.16832 0.18686 0.0
H937 H 0.0267 0.31805 0.2236 0.0
H938 H 0.01874 0.21087 0.11653 0.0
H939 H 0.06493 0.2017 0.13602 0.0
H940 H 0.99659 0.15715 0.14083 0.0
H941 H 0.07988 0.39506 0.19835 0.0
H942 H 0.13025 0.38862 0.18107 0.0
H943 H 0.08141 0.39094 0.1601 0.0
H944 H 0.22202 0.35315 0.11688 0.0
H945 H 0.10775 0.3667 0.06833 0.0
H946 H 0.13781 0.26211 0.16671 0.0
H947 H 0.16137 0.32502 0.18168 0.0
H948 H 0.20433 0.31189 0.16105 0.0
H949 H 0.99792 0.27842 0.10964 0.0
H950 H 0.02086 0.32912 0.0833 0.0
H951 H 0.02112 0.34374 0.12053 0.0
C952 C 0.73088 0.01833 0.53765 0.0
C953 C 0.7616 0.99546 0.54192 0.0
C954 C 0.73574 0.04726 0.51279 0.0
C955 C 0.77235 0.05401 0.49147 0.0
C956 C 0.80179 0.02918 0.49509 0.0
C957 C 0.79585 1.00017 0.51995 0.0
C958 C 0.70296 0.07234 0.50986 0.0
C959 C 0.84104 0.03473 0.47308 0.0
C960 C 0.76475 0.10837 0.41834 0.0
C961 C 0.79982 0.16155 0.42177 0.0
C962 C 0.75604 0.0727 0.44045 0.0
C963 C 0.783 0.09043 0.46673 0.0
C964 C 0.81996 0.14387 0.46969 0.0
C965 C 0.82739 0.17855 0.44744 0.0
C966 C 0.71625 0.01639 0.43607 0.0
C967 C 0.85078 0.16485 0.49679 0.0
H968 H 0.70441 0.01542 0.55424 0.0
H969 H 0.81895 0.98175 0.52236 0.0
H970 H 0.72816 0.11504 0.51094 0.0
H971 H 0.68329 0.06288 0.48885 0.0
H972 H 0.67313 0.05983 0.5268 0.0
H973 H 0.85979 0.01178 0.47845 0.0
H974 H 0.82207 0.02207 0.45199 0.0
H975 H 0.87163 0.07602 0.47108 0.0
H976 H 0.74241 0.09488 0.39886 0.0
H977 H 0.85416 0.2196 0.45037 0.0
H978 H 0.68245 0.00565 0.4501 0.0
H979 H 0.73253 0.99153 0.44201 0.0
H980 H 0.70239 0.00789 0.4137 0.0
H981 H 0.82417 0.15899 0.51468 0.0
H982 H 0.87989 0.20676 0.49525 0.0
H983 H 0.87124 0.14353 0.50203 0.0
C984 C 0.64498 0.82251 0.7854 0.0
C985 C 0.64272 0.80518 0.75737 0.0
C986 C 0.6707 0.81182 0.80723 0.0
C987 C 0.69735 0.78491 0.80099 0.0
C988 C 0.69662 0.76859 0.7725 0.0
C989 C 0.66795 0.77731 0.75135 0.0
C990 C 0.66836 0.82854 0.83722 0.0
C991 C 0.72648 0.74225 0.76425 0.0
C992 C 0.80355 0.80977 0.8552 0.0
C993 C 0.78247 0.76322 0.87103 0.0
C994 C 0.77775 0.81582 0.83162 0.0
C995 C 0.72728 0.77596 0.82421 0.0
C996 C 0.70453 0.72951 0.8404 0.0
C997 C 0.73255 0.72328 0.86302 0.0
C998 C 0.80473 0.86547 0.81467 0.0
C999 C 0.65 0.68657 0.83416 0.0
H1000 H 0.62493 0.84325 0.79056 0.0
H1001 H 0.66502 0.76196 0.73017 0.0
H1002 H 0.65414 0.79502 0.85189 0.0
H1003 H 0.70772 0.85803 0.84447 0.0
H1004 H 0.64253 0.84516 0.83904 0.0
H1005 H 0.72371 0.73371 0.74111 0.0
H1006 H 0.768 0.76727 0.76999 0.0
H1007 H 0.71172 0.70549 0.77617 0.0
H1008 H 0.84043 0.84267 0.86118 0.0
H1009 H 0.71491 0.68684 0.87432 0.0
H1010 H 0.78505 0.88813 0.81798 0.0
H1011 H 0.8026 0.85674 0.7916 0.0
H1012 H 0.84617 0.89003 0.82075 0.0
H1013 H 0.62276 0.70154 0.83574 0.0
H1014 H 0.63703 0.65339 0.84898 0.0
H1015 H 0.64747 0.6724 0.8121 0.0
C1016 C 1.00593 0.7996 0.18881 0.0
C1017 C 0.00986 0.77033 0.21123 0.0
C1018 C 0.97618 0.77611 0.16412 0.0
C1019 C 0.94973 0.72155 0.16102 0.0
C1020 C 0.95547 0.69181 0.18283 0.0
C1021 C 0.98517 0.71634 0.20754 0.0
C1022 C 0.97168 0.80979 0.14169 0.0
C1023 C 0.92879 0.63366 0.18048 0.0
C1024 C 0.82616 0.65413 0.11512 0.0
C1025 C 0.84366 0.64348 0.08972 0.0
C1026 C 0.86024 0.68025 0.13798 0.0
C1027 C 0.91359 0.69563 0.13596 0.0
C1028 C 0.93177 0.68596 0.11006 0.0
C1029 C 0.89677 0.66011 0.08737 0.0
C1030 C 0.83877 0.69047 0.16464 0.0
C1031 C 0.98799 0.70141 0.10657 0.0
H1032 H 0.02569 0.84136 0.19069 0.0
H1033 H 0.98739 0.6929 0.22444 0.0
H1034 H 0.98282 0.80188 0.12062 0.0
H1035 H 0.93075 0.80048 0.14002 0.0
H1036 H 0.99642 0.85171 0.14644 0.0
H1037 H 0.94017 0.61624 0.1979 0.0
H1038 H 0.88612 0.61699 0.18116 0.0
H1039 H 0.93815 0.62249 0.1598 0.0
H1040 H 0.7852 0.64108 0.11729 0.0
H1041 H 0.91079 0.65139 0.06816 0.0
H1042 H 0.86061 0.73239 0.16978 0.0
H1043 H 0.84364 0.66966 0.18283 0.0
H1044 H 0.79697 0.67797 0.16257 0.0
H1045 H 0.01337 0.74322 0.1112 0.0
H1046 H 0.99664 0.69352 0.08479 0.0
H1047 H 0.99807 0.67981 0.12205 0.0
C1048 C 0.22185 0.02372 0.51974 0.0
C1049 C 0.25343 0.0256 0.54262 0.0
C1050 C 0.21508 0.99392 0.49511 0.0
C1051 C 0.24098 0.96531 0.49266 0.0
C1052 C 0.27523 0.9693 0.51487 0.0
C1053 C 0.28096 0.99914 0.53946 0.0
C1054 C 0.17856 0.99151 0.47211 0.0
C1055 C 0.30426 0.94018 0.51321 0.0
C1056 C 0.1784 0.83886 0.45003 0.0
C1057 C 0.20723 0.85281 0.42476 0.0
C1058 C 0.18791 0.87529 0.47161 0.0
C1059 C 0.22828 0.92742 0.46841 0.0
C1060 C 0.25655 0.94226 0.44244 0.0
C1061 C 0.24575 0.90485 0.42098 0.0
C1062 C 0.15562 0.8574 0.49833 0.0
C1063 C 0.29989 0.99708 0.43782 0.0
H1064 H 0.20133 0.04494 0.52128 0.0
H1065 H 0.3054 0.99988 0.55675 0.0
H1066 H 0.19906 1.00307 0.45142 0.0
H1067 H 0.14593 0.95117 0.46974 0.0
H1068 H 0.16236 0.01701 0.47669 0.0
H1069 H 0.33315 0.95107 0.53062 0.0
H1070 H 0.27638 0.89797 0.51452 0.0
H1071 H 0.32459 0.94763 0.49251 0.0
H1072 H 0.14902 0.79864 0.45327 0.0
H1073 H 0.26909 0.91588 0.40184 0.0
H1074 H 0.13816 0.88188 0.50254 0.0
H1075 H 0.18069 0.86158 0.51678 0.0
H1076 H 0.12397 0.81636 0.49697 0.0
H1077 H 0.28687 0.02492 0.44304 0.0
H1078 H 0.31426 1.00385 0.41556 0.0
H1079 H 0.33266 0.0054 0.45225 0.0
loop_
_geom_bond_atom_site_label_1
_geom_bond_atom_site_label_2
_geom_bond_distance
_geom_bond_site_symmetry_2
_ccdc_geom_bond_type
Tb0 N31 2.660 . S
Tb0 N38 2.600 . S
Tb0 O44 2.546 . S
Tb0 O45 2.610 . S
Tb0 O47 2.320 . S
Tb0 O48 2.552 . S
Tb0 O49 2.413 . S
Tb0 O51 2.362 1_554 S
Tb0 O52 2.421 . S
Tb0 C64 2.833 . S
C1 C4 1.432 . S
C1 C5 1.414 . S
C1 N8 1.359 1_554 S
C2 C4 1.417 . S
C2 C6 1.432 . S
C2 C14 1.410 . S
C3 C5 1.444 . S
C3 C6 1.317 . S
C3 H26 0.929 1_455 S
C4 C1 1.432 . S
C4 C2 1.417 . S
C4 N12 1.360 . S
C5 C1 1.414 . S
C5 C3 1.444 . S
C5 C10 1.385 1_454 S
C6 C2 1.432 . S
C6 C3 1.317 . S
C6 H18 0.930 . S
C7 C9 1.392 1_655 S
C7 C10 1.370 . S
C7 H19 0.931 . S
N8 C1 1.359 1_556 S
N8 C9 1.327 . S
N8 Tb11 2.600 . S
C9 C7 1.392 1_455 S
C9 N8 1.327 . S
C9 H16 0.930 . S
C10 C5 1.385 1_656 S
C10 C7 1.370 . S
C10 H29 0.930 . S
Tb11 N8 2.600 . S
Tb11 N12 2.660 1_556 S
Tb11 O45 2.362 1_556 S
Tb11 O46 2.421 . S
Tb11 O50 2.546 . S
Tb11 O51 2.610 . S
Tb11 O53 2.320 1_556 S
Tb11 O54 2.552 . S
Tb11 O55 2.413 . S
Tb11 C75 2.833 . S
N12 C4 1.360 . S
N12 Tb11 2.660 1_554 S
N12 C13 1.305 . S
C13 N12 1.305 . S
C13 C15 1.407 . S
C13 H20 0.930 . S
C14 C2 1.410 . S
C14 C15 1.345 . S
C14 H22 0.930 . S
C15 C13 1.407 . S
C15 C14 1.345 . S
C15 H17 0.930 . S
H16 C9 0.930 . S
H17 C15 0.930 . S
H18 C6 0.930 . S
H19 C7 0.931 . S
H20 C13 0.930 . S
H21 C35 0.930 . S
H22 C14 0.930 . S
H23 C41 0.930 . S
H24 C32 0.930 . S
H25 C39 0.931 . S
H26 C3 0.929 1_655 S
H27 C33 0.930 . S
H28 C66 0.930 . S
H29 C10 0.930 . S
H30 C65 0.929 . S
N31 Tb0 2.660 . S
N31 C32 1.305 1_554 S
N31 C36 1.360 . S
C32 H24 0.930 . S
C32 N31 1.305 1_556 S
C32 C35 1.407 . S
C33 H27 0.930 . S
C33 C34 1.410 . S
C33 C35 1.345 . S
C34 C33 1.410 . S
C34 C36 1.417 1_556 S
C34 C66 1.432 . S
C35 H21 0.930 . S
C35 C32 1.407 . S
C35 C33 1.345 . S
C36 N31 1.360 . S
C36 C34 1.417 1_554 S
C36 C40 1.432 . S
H37 C42 0.930 . S
N38 Tb0 2.600 . S
N38 C40 1.359 . S
N38 C41 1.327 . S
C39 H25 0.931 . S
C39 C41 1.392 . S
C39 C42 1.370 . S
C40 C36 1.432 . S
C40 N38 1.359 . S
C40 C43 1.414 . S
C41 H23 0.930 . S
C41 N38 1.327 . S
C41 C39 1.392 . S
C42 H37 0.930 . S
C42 C39 1.370 . S
C42 C43 1.385 . S
C43 C40 1.414 . S
C43 C42 1.385 . S
C43 C65 1.444 . S
O44 Tb0 2.546 . S
O44 C64 1.251 . S
O45 Tb0 2.610 . S
O45 Tb11 2.362 1_554 S
O45 C56 1.283 . S
O46 Tb11 2.421 . S
O46 C63 1.262 1_556 S
O47 Tb0 2.320 . S
O47 C63 1.260 . S
O48 Tb0 2.552 . S
O48 C56 1.243 . S
O49 Tb0 2.413 . S
O49 C64 1.256 . S
O50 Tb11 2.546 . S
O50 C75 1.251 . S
O51 Tb0 2.362 1_556 S
O51 Tb11 2.610 . S
O51 C67 1.283 . S
O52 Tb0 2.421 . S
O52 C74 1.262 . S
O53 Tb11 2.320 1_554 S
O53 C74 1.260 . S
O54 Tb11 2.552 . S
O54 C67 1.243 . S
O55 Tb11 2.413 . S
O55 C75 1.256 . S
C56 O45 1.283 . S
C56 O48 1.243 . S
C57 C59 1.382 . S
C57 C61 1.393 . S
C57 C64 1.500 . S
C58 C59 1.400 . S
C58 C60 1.384 . S
C59 C57 1.382 . S
C59 C58 1.400 . S
C59 H76 0.930 . S
C60 C58 1.384 . S
C60 C62 1.392 . S
C60 H77 0.931 . S
C61 C57 1.393 . S
C61 C62 1.401 . S
C61 H78 0.930 . S
C62 C60 1.392 . S
C62 C61 1.401 . S
C62 H79 0.930 . S
C63 O46 1.262 1_554 S
C63 O47 1.260 . S
C64 Tb0 2.833 . S
C64 O44 1.251 . S
C64 O49 1.256 . S
C64 C57 1.500 . S
C65 H30 0.929 . S
C65 C43 1.444 . S
C65 C66 1.317 1_554 S
C66 H28 0.930 . S
C66 C34 1.432 . S
C66 C65 1.317 1_556 S
C67 O51 1.283 . S
C67 O54 1.243 . S
C68 C69 1.382 . S
C68 C72 1.393 . S
C68 C75 1.500 . S
C69 C68 1.382 . S
C69 C70 1.400 . S
C69 H80 0.930 . S
C70 C69 1.400 . S
C70 C71 1.384 . S
C71 C70 1.384 . S
C71 C73 1.392 . S
C71 H81 0.931 . S
C72 C68 1.393 . S
C72 C73 1.401 . S
C72 H82 0.930 . S
C73 C71 1.392 . S
C73 C72 1.401 . S
C73 H83 0.930 . S
C74 O52 1.262 . S
C74 O53 1.260 . S
C75 Tb11 2.833 . S
C75 O50 1.251 . S
C75 O55 1.256 . S
C75 C68 1.500 . S
H76 C59 0.930 . S
H77 C60 0.931 . S
H78 C61 0.930 . S
H79 C62 0.930 . S
H80 C69 0.930 . S
H81 C71 0.931 . S
H82 C72 0.930 . S
H83 C73 0.930 . S
Tb84 N115 2.660 . S
Tb84 N122 2.600 . S
Tb84 O128 2.546 . S
Tb84 O129 2.610 . S
Tb84 O131 2.320 . S
Tb84 O132 2.552 . S
Tb84 O133 2.413 . S
Tb84 O135 2.362 . S
Tb84 O136 2.421 . S
Tb84 C148 2.833 . S
C85 C88 1.432 . S
C85 C89 1.414 . S
C85 N92 1.359 . S
C86 C88 1.417 . S
C86 C90 1.432 . S
C86 C98 1.410 . S
C87 C89 1.444 . S
C87 C90 1.317 . S
C87 H110 0.929 1_545 S
C88 C85 1.432 . S
C88 C86 1.417 . S
C88 N96 1.360 . S
C89 C85 1.414 . S
C89 C87 1.444 . S
C89 C94 1.385 1_545 S
C90 C86 1.432 . S
C90 C87 1.317 . S
C90 H102 0.930 . S
C91 C93 1.392 1_565 S
C91 C94 1.370 . S
C91 H103 0.931 . S
N92 C85 1.359 . S
N92 C93 1.327 . S
N92 Tb95 2.600 . S
C93 C91 1.392 1_545 S
C93 N92 1.327 . S
C93 H100 0.930 . S
C94 C89 1.385 1_565 S
C94 C91 1.370 . S
C94 H113 0.930 . S
Tb95 N92 2.600 . S
Tb95 N96 2.660 . S
Tb95 O129 2.362 . S
Tb95 O130 2.421 . S
Tb95 O134 2.546 . S
Tb95 O135 2.610 . S
Tb95 O137 2.320 . S
Tb95 O138 2.552 . S
Tb95 O139 2.413 . S
Tb95 C159 2.833 . S
N96 C88 1.360 . S
N96 Tb95 2.660 . S
N96 C97 1.305 . S
C97 N96 1.305 . S
C97 C99 1.407 . S
C97 H104 0.930 . S
C98 C86 1.410 . S
C98 C99 1.345 . S
C98 H106 0.930 . S
C99 C97 1.407 . S
C99 C98 1.345 . S
C99 H101 0.930 . S
H100 C93 0.930 . S
H101 C99 0.930 . S
H102 C90 0.930 . S
H103 C91 0.931 . S
H104 C97 0.930 . S
H105 C119 0.930 . S
H106 C98 0.930 . S
H107 C125 0.930 . S
H108 C116 0.930 . S
H109 C123 0.931 . S
H110 C87 0.929 1_565 S
H111 C117 0.930 . S
H112 C150 0.930 . S
H113 C94 0.930 . S
H114 C149 0.929 . S
N115 Tb84 2.660 . S
N115 C116 1.305 . S
N115 C120 1.360 . S
C116 H108 0.930 . S
C116 N115 1.305 . S
C116 C119 1.407 . S
C117 H111 0.930 . S
C117 C118 1.410 . S
C117 C119 1.345 . S
C118 C117 1.410 . S
C118 C120 1.417 . S
C118 C150 1.432 . S
C119 H105 0.930 . S
C119 C116 1.407 . S
C119 C117 1.345 . S
C120 N115 1.360 . S
C120 C118 1.417 . S
C120 C124 1.432 . S
H121 C126 0.930 . S
N122 Tb84 2.600 . S
N122 C124 1.359 . S
N122 C125 1.327 . S
C123 H109 0.931 . S
C123 C125 1.392 . S
C123 C126 1.370 . S
C124 C120 1.432 . S
C124 N122 1.359 . S
C124 C127 1.414 . S
C125 H107 0.930 . S
C125 N122 1.327 . S
C125 C123 1.392 . S
C126 H121 0.930 . S
C126 C123 1.370 . S
C126 C127 1.385 . S
C127 C124 1.414 . S
C127 C126 1.385 . S
C127 C149 1.444 . S
O128 Tb84 2.546 . S
O128 C148 1.251 . S
O129 Tb84 2.610 . S
O129 Tb95 2.362 . S
O129 C140 1.283 . S
O130 Tb95 2.421 . S
O130 C147 1.262 . S
O131 Tb84 2.320 . S
O131 C147 1.260 . S
O132 Tb84 2.552 . S
O132 C140 1.243 . S
O133 Tb84 2.413 . S
O133 C148 1.256 . S
O134 Tb95 2.546 . S
O134 C159 1.251 . S
O135 Tb84 2.362 . S
O135 Tb95 2.610 . S
O135 C151 1.283 . S
O136 Tb84 2.421 . S
O136 C158 1.262 . S
O137 Tb95 2.320 . S
O137 C158 1.260 . S
O138 Tb95 2.552 . S
O138 C151 1.243 . S
O139 Tb95 2.413 . S
O139 C159 1.256 . S
C140 O129 1.283 . S
C140 O132 1.243 . S
C141 C143 1.382 . S
C141 C145 1.393 . S
C141 C148 1.500 . S
C142 C143 1.400 . S
C142 C144 1.384 . S
C143 C141 1.382 . S
C143 C142 1.400 . S
C143 H160 0.930 . S
C144 C142 1.384 . S
C144 C146 1.392 . S
C144 H161 0.931 . S
C145 C141 1.393 . S
C145 C146 1.401 . S
C145 H162 0.930 . S
C146 C144 1.392 . S
C146 C145 1.401 . S
C146 H163 0.930 . S
C147 O130 1.262 . S
C147 O131 1.260 . S
C148 Tb84 2.833 . S
C148 O128 1.251 . S
C148 O133 1.256 . S
C148 C141 1.500 . S
C149 H114 0.929 . S
C149 C127 1.444 . S
C149 C150 1.317 . S
C150 H112 0.930 . S
C150 C118 1.432 . S
C150 C149 1.317 . S
C151 O135 1.283 . S
C151 O138 1.243 . S
C152 C153 1.382 . S
C152 C156 1.393 . S
C152 C159 1.500 . S
C153 C152 1.382 . S
C153 C154 1.400 . S
C153 H164 0.930 . S
C154 C153 1.400 . S
C154 C155 1.384 . S
C155 C154 1.384 . S
C155 C157 1.392 . S
C155 H165 0.931 . S
C156 C152 1.393 . S
C156 C157 1.401 . S
C156 H166 0.930 . S
C157 C155 1.392 . S
C157 C156 1.401 . S
C157 H167 0.930 . S
C158 O136 1.262 . S
C158 O137 1.260 . S
C159 Tb95 2.833 . S
C159 O134 1.251 . S
C159 O139 1.256 . S
C159 C152 1.500 . S
H160 C143 0.930 . S
H161 C144 0.931 . S
H162 C145 0.930 . S
H163 C146 0.930 . S
H164 C153 0.930 . S
H165 C155 0.931 . S
H166 C156 0.930 . S
H167 C157 0.930 . S
Tb168 N199 2.660 . S
Tb168 N206 2.600 . S
Tb168 O212 2.546 . S
Tb168 O213 2.610 . S
Tb168 O215 2.320 . S
Tb168 O216 2.552 . S
Tb168 O217 2.413 . S
Tb168 O219 2.362 . S
Tb168 O220 2.421 . S
Tb168 C232 2.833 . S
C169 C172 1.432 . S
C169 C173 1.414 . S
C169 N176 1.359 . S
C170 C172 1.417 . S
C170 C174 1.432 . S
C170 C182 1.410 . S
C171 C173 1.444 . S
C171 C174 1.317 . S
C171 H194 0.929 . S
C172 C169 1.432 . S
C172 C170 1.417 . S
C172 N180 1.360 . S
C173 C169 1.414 . S
C173 C171 1.444 . S
C173 C178 1.385 . S
C174 C170 1.432 . S
C174 C171 1.317 . S
C174 H186 0.930 . S
C175 C177 1.392 . S
C175 C178 1.370 . S
C175 H187 0.931 . S
N176 C169 1.359 . S
N176 C177 1.327 . S
N176 Tb179 2.600 . S
C177 C175 1.392 . S
C177 N176 1.327 . S
C177 H184 0.930 . S
C178 C173 1.385 . S
C178 C175 1.370 . S
C178 H197 0.930 . S
Tb179 N176 2.600 . S
Tb179 N180 2.660 . S
Tb179 O213 2.362 . S
Tb179 O214 2.421 . S
Tb179 O218 2.546 . S
Tb179 O219 2.610 . S
Tb179 O221 2.320 . S
Tb179 O222 2.552 . S
Tb179 O223 2.413 . S
Tb179 C243 2.833 . S
N180 C172 1.360 . S
N180 Tb179 2.660 . S
N180 C181 1.305 . S
C181 N180 1.305 . S
C181 C183 1.407 . S
C181 H188 0.930 . S
C182 C170 1.410 . S
C182 C183 1.345 . S
C182 H190 0.930 . S
C183 C181 1.407 . S
C183 C182 1.345 . S
C183 H185 0.930 . S
H184 C177 0.930 . S
H185 C183 0.930 . S
H186 C174 0.930 . S
H187 C175 0.931 . S
H188 C181 0.930 . S
H189 C203 0.930 . S
H190 C182 0.930 . S
H191 C209 0.930 . S
H192 C200 0.930 . S
H193 C207 0.931 . S
H194 C171 0.929 . S
H195 C201 0.930 . S
H196 C234 0.930 . S
H197 C178 0.930 . S
H198 C233 0.929 . S
N199 Tb168 2.660 . S
N199 C200 1.305 . S
N199 C204 1.360 . S
C200 H192 0.930 . S
C200 N199 1.305 . S
C200 C203 1.407 . S
C201 H195 0.930 . S
C201 C202 1.410 . S
C201 C203 1.345 . S
C202 C201 1.410 . S
C202 C204 1.417 . S
C202 C234 1.432 . S
C203 H189 0.930 . S
C203 C200 1.407 . S
C203 C201 1.345 . S
C204 N199 1.360 . S
C204 C202 1.417 . S
C204 C208 1.432 . S
H205 C210 0.930 . S
N206 Tb168 2.600 . S
N206 C208 1.359 . S
N206 C209 1.327 . S
C207 H193 0.931 . S
C207 C209 1.392 . S
C207 C210 1.370 . S
C208 C204 1.432 . S
C208 N206 1.359 . S
C208 C211 1.414 . S
C209 H191 0.930 . S
C209 N206 1.327 . S
C209 C207 1.392 . S
C210 H205 0.930 . S
C210 C207 1.370 . S
C210 C211 1.385 . S
C211 C208 1.414 . S
C211 C210 1.385 . S
C211 C233 1.444 . S
O212 Tb168 2.546 . S
O212 C232 1.251 . S
O213 Tb168 2.610 . S
O213 Tb179 2.362 . S
O213 C224 1.283 . S
O214 Tb179 2.421 . S
O214 C231 1.262 . S
O215 Tb168 2.320 . S
O215 C231 1.260 . S
O216 Tb168 2.552 . S
O216 C224 1.243 . S
O217 Tb168 2.413 . S
O217 C232 1.256 . S
O218 Tb179 2.546 . S
O218 C243 1.251 . S
O219 Tb168 2.362 . S
O219 Tb179 2.610 . S
O219 C235 1.283 . S
O220 Tb168 2.421 . S
O220 C242 1.262 . S
O221 Tb179 2.320 . S
O221 C242 1.260 . S
O222 Tb179 2.552 . S
O222 C235 1.243 . S
O223 Tb179 2.413 . S
O223 C243 1.256 . S
C224 O213 1.283 . S
C224 O216 1.243 . S
C225 C227 1.382 . S
C225 C229 1.393 . S
C225 C232 1.500 . S
C226 C227 1.400 . S
C226 C228 1.384 . S
C227 C225 1.382 . S
C227 C226 1.400 . S
C227 H244 0.930 . S
C228 C226 1.384 . S
C228 C230 1.392 . S
C228 H245 0.931 . S
C229 C225 1.393 . S
C229 C230 1.401 . S
C229 H246 0.930 . S
C230 C228 1.392 . S
C230 C229 1.401 . S
C230 H247 0.930 . S
C231 O214 1.262 . S
C231 O215 1.260 . S
C232 Tb168 2.833 . S
C232 O212 1.251 . S
C232 O217 1.256 . S
C232 C225 1.500 . S
C233 H198 0.929 . S
C233 C211 1.444 . S
C233 C234 1.317 . S
C234 H196 0.930 . S
C234 C202 1.432 . S
C234 C233 1.317 . S
C235 O219 1.283 . S
C235 O222 1.243 . S
C236 C237 1.382 . S
C236 C240 1.393 . S
C236 C243 1.500 . S
C237 C236 1.382 . S
C237 C238 1.400 . S
C237 H248 0.930 . S
C238 C237 1.400 . S
C238 C239 1.384 . S
C239 C238 1.384 . S
C239 C241 1.392 . S
C239 H249 0.931 . S
C240 C236 1.393 . S
C240 C241 1.401 . S
C240 H250 0.930 . S
C241 C239 1.392 . S
C241 C240 1.401 . S
C241 H251 0.930 . S
C242 O220 1.262 . S
C242 O221 1.260 . S
C243 Tb179 2.833 . S
C243 O218 1.251 . S
C243 O223 1.256 . S
C243 C236 1.500 . S
H244 C227 0.930 . S
H245 C228 0.931 . S
H246 C229 0.930 . S
H247 C230 0.930 . S
H248 C237 0.930 . S
H249 C239 0.931 . S
H250 C240 0.930 . S
H251 C241 0.930 . S
Tb252 N283 2.660 . S
Tb252 N290 2.600 . S
Tb252 O296 2.546 . S
Tb252 O297 2.610 . S
Tb252 O299 2.320 . S
Tb252 O300 2.552 . S
Tb252 O301 2.413 . S
Tb252 O303 2.362 1_554 S
Tb252 O304 2.421 . S
Tb252 C316 2.833 . S
C253 C256 1.432 . S
C253 C257 1.414 . S
C253 N260 1.359 1_554 S
C254 C256 1.417 . S
C254 C258 1.432 . S
C254 C266 1.410 . S
C255 C257 1.444 . S
C255 C258 1.317 . S
C255 H278 0.929 1_655 S
C256 C253 1.432 . S
C256 C254 1.417 . S
C256 N264 1.360 . S
C257 C253 1.414 . S
C257 C255 1.444 . S
C257 C262 1.385 1_654 S
C258 C254 1.432 . S
C258 C255 1.317 . S
C258 H270 0.930 . S
C259 C261 1.392 1_455 S
C259 C262 1.370 . S
C259 H271 0.931 . S
N260 C253 1.359 1_556 S
N260 C261 1.327 . S
N260 Tb263 2.600 . S
C261 C259 1.392 1_655 S
C261 N260 1.327 . S
C261 H268 0.930 . S
C262 C257 1.385 1_456 S
C262 C259 1.370 . S
C262 H281 0.930 . S
Tb263 N260 2.600 . S
Tb263 N264 2.660 1_556 S
Tb263 O297 2.362 1_556 S
Tb263 O298 2.421 . S
Tb263 O302 2.546 . S
Tb263 O303 2.610 . S
Tb263 O305 2.320 1_556 S
Tb263 O306 2.552 . S
Tb263 O307 2.413 . S
Tb263 C327 2.833 . S
N264 C256 1.360 . S
N264 Tb263 2.660 1_554 S
N264 C265 1.305 . S
C265 N264 1.305 . S
C265 C267 1.407 . S
C265 H272 0.930 . S
C266 C254 1.410 . S
C266 C267 1.345 . S
C266 H274 0.930 . S
C267 C265 1.407 . S
C267 C266 1.345 . S
C267 H269 0.930 . S
H268 C261 0.930 . S
H269 C267 0.930 . S
H270 C258 0.930 . S
H271 C259 0.931 . S
H272 C265 0.930 . S
H273 C287 0.930 . S
H274 C266 0.930 . S
H275 C293 0.930 . S
H276 C284 0.930 . S
H277 C291 0.931 . S
H278 C255 0.929 1_455 S
H279 C285 0.930 . S
H280 C318 0.930 . S
H281 C262 0.930 . S
H282 C317 0.929 . S
N283 Tb252 2.660 . S
N283 C284 1.305 1_554 S
N283 C288 1.360 . S
C284 H276 0.930 . S
C284 N283 1.305 1_556 S
C284 C287 1.407 . S
C285 H279 0.930 . S
C285 C286 1.410 . S
C285 C287 1.345 . S
C286 C285 1.410 . S
C286 C288 1.417 1_556 S
C286 C318 1.432 . S
C287 H273 0.930 . S
C287 C284 1.407 . S
C287 C285 1.345 . S
C288 N283 1.360 . S
C288 C286 1.417 1_554 S
C288 C292 1.432 . S
H289 C294 0.930 . S
N290 Tb252 2.600 . S
N290 C292 1.359 . S
N290 C293 1.327 . S
C291 H277 0.931 . S
C291 C293 1.392 . S
C291 C294 1.370 . S
C292 C288 1.432 . S
C292 N290 1.359 . S
C292 C295 1.414 . S
C293 H275 0.930 . S
C293 N290 1.327 . S
C293 C291 1.392 . S
C294 H289 0.930 . S
C294 C291 1.370 . S
C294 C295 1.385 . S
C295 C292 1.414 . S
C295 C294 1.385 . S
C295 C317 1.444 . S
O296 Tb252 2.546 . S
O296 C316 1.251 . S
O297 Tb252 2.610 . S
O297 Tb263 2.362 1_554 S
O297 C308 1.283 . S
O298 Tb263 2.421 . S
O298 C315 1.262 1_556 S
O299 Tb252 2.320 . S
O299 C315 1.260 . S
O300 Tb252 2.552 . S
O300 C308 1.243 . S
O301 Tb252 2.413 . S
O301 C316 1.256 . S
O302 Tb263 2.546 . S
O302 C327 1.251 . S
O303 Tb252 2.362 1_556 S
O303 Tb263 2.610 . S
O303 C319 1.283 . S
O304 Tb252 2.421 . S
O304 C326 1.262 . S
O305 Tb263 2.320 1_554 S
O305 C326 1.260 . S
O306 Tb263 2.552 . S
O306 C319 1.243 . S
O307 Tb263 2.413 . S
O307 C327 1.256 . S
C308 O297 1.283 . S
C308 O300 1.243 . S
C309 C311 1.382 . S
C309 C313 1.393 . S
C309 C316 1.500 . S
C310 C311 1.400 . S
C310 C312 1.384 . S
C311 C309 1.382 . S
C311 C310 1.400 . S
C311 H328 0.930 . S
C312 C310 1.384 . S
C312 C314 1.392 . S
C312 H329 0.931 . S
C313 C309 1.393 . S
C313 C314 1.401 . S
C313 H330 0.930 . S
C314 C312 1.392 . S
C314 C313 1.401 . S
C314 H331 0.930 . S
C315 O298 1.262 1_554 S
C315 O299 1.260 . S
C316 Tb252 2.833 . S
C316 O296 1.251 . S
C316 O301 1.256 . S
C316 C309 1.500 . S
C317 H282 0.929 . S
C317 C295 1.444 . S
C317 C318 1.317 1_554 S
C318 H280 0.930 . S
C318 C286 1.432 . S
C318 C317 1.317 1_556 S
C319 O303 1.283 . S
C319 O306 1.243 . S
C320 C321 1.382 . S
C320 C324 1.393 . S
C320 C327 1.500 . S
C321 C320 1.382 . S
C321 C322 1.400 . S
C321 H332 0.930 . S
C322 C321 1.400 . S
C322 C323 1.384 . S
C323 C322 1.384 . S
C323 C325 1.392 . S
C323 H333 0.931 . S
C324 C320 1.393 . S
C324 C325 1.401 . S
C324 H334 0.930 . S
C325 C323 1.392 . S
C325 C324 1.401 . S
C325 H335 0.930 . S
C326 O304 1.262 . S
C326 O305 1.260 . S
C327 Tb263 2.833 . S
C327 O302 1.251 . S
C327 O307 1.256 . S
C327 C320 1.500 . S
H328 C311 0.930 . S
H329 C312 0.931 . S
H330 C313 0.930 . S
H331 C314 0.930 . S
H332 C321 0.930 . S
H333 C323 0.931 . S
H334 C324 0.930 . S
H335 C325 0.930 . S
Tb336 N367 2.660 . S
Tb336 N374 2.600 . S
Tb336 O380 2.546 . S
Tb336 O381 2.610 . S
Tb336 O383 2.320 . S
Tb336 O384 2.552 . S
Tb336 O385 2.413 . S
Tb336 O387 2.362 . S
Tb336 O388 2.421 . S
Tb336 C400 2.833 . S
C337 C340 1.432 . S
C337 C341 1.414 . S
C337 N344 1.359 . S
C338 C340 1.417 . S
C338 C342 1.432 . S
C338 C350 1.410 . S
C339 C341 1.444 . S
C339 C342 1.317 . S
C339 H362 0.929 1_565 S
C340 C337 1.432 . S
C340 C338 1.417 . S
C340 N348 1.360 . S
C341 C337 1.414 . S
C341 C339 1.444 . S
C341 C346 1.385 1_565 S
C342 C338 1.432 . S
C342 C339 1.317 . S
C342 H354 0.930 . S
C343 C345 1.392 1_545 S
C343 C346 1.370 . S
C343 H355 0.931 . S
N344 C337 1.359 . S
N344 C345 1.327 . S
N344 Tb347 2.600 . S
C345 C343 1.392 1_565 S
C345 N344 1.327 . S
C345 H352 0.930 . S
C346 C341 1.385 1_545 S
C346 C343 1.370 . S
C346 H365 0.930 . S
Tb347 N344 2.600 . S
Tb347 N348 2.660 . S
Tb347 O381 2.362 . S
Tb347 O382 2.421 . S
Tb347 O386 2.546 . S
Tb347 O387 2.610 . S
Tb347 O389 2.320 . S
Tb347 O390 2.552 . S
Tb347 O391 2.413 . S
Tb347 C411 2.833 . S
N348 C340 1.360 . S
N348 Tb347 2.660 . S
N348 C349 1.305 . S
C349 N348 1.305 . S
C349 C351 1.407 . S
C349 H356 0.930 . S
C350 C338 1.410 . S
C350 C351 1.345 . S
C350 H358 0.930 . S
C351 C349 1.407 . S
C351 C350 1.345 . S
C351 H353 0.930 . S
H352 C345 0.930 . S
H353 C351 0.930 . S
H354 C342 0.930 . S
H355 C343 0.931 . S
H356 C349 0.930 . S
H357 C371 0.930 . S
H358 C350 0.930 . S
H359 C377 0.930 . S
H360 C368 0.930 . S
H361 C375 0.931 . S
H362 C339 0.929 1_545 S
H363 C369 0.930 . S
H364 C402 0.930 . S
H365 C346 0.930 . S
H366 C401 0.929 . S
N367 Tb336 2.660 . S
N367 C368 1.305 . S
N367 C372 1.360 . S
C368 H360 0.930 . S
C368 N367 1.305 . S
C368 C371 1.407 . S
C369 H363 0.930 . S
C369 C370 1.410 . S
C369 C371 1.345 . S
C370 C369 1.410 . S
C370 C372 1.417 . S
C370 C402 1.432 . S
C371 H357 0.930 . S
C371 C368 1.407 . S
C371 C369 1.345 . S
C372 N367 1.360 . S
C372 C370 1.417 . S
C372 C376 1.432 . S
H373 C378 0.930 . S
N374 Tb336 2.600 . S
N374 C376 1.359 . S
N374 C377 1.327 . S
C375 H361 0.931 . S
C375 C377 1.392 . S
C375 C378 1.370 . S
C376 C372 1.432 . S
C376 N374 1.359 . S
C376 C379 1.414 . S
C377 H359 0.930 . S
C377 N374 1.327 . S
C377 C375 1.392 . S
C378 H373 0.930 . S
C378 C375 1.370 . S
C378 C379 1.385 . S
C379 C376 1.414 . S
C379 C378 1.385 . S
C379 C401 1.444 . S
O380 Tb336 2.546 . S
O380 C400 1.251 . S
O381 Tb336 2.610 . S
O381 Tb347 2.362 . S
O381 C392 1.283 . S
O382 Tb347 2.421 . S
O382 C399 1.262 . S
O383 Tb336 2.320 . S
O383 C399 1.260 . S
O384 Tb336 2.552 . S
O384 C392 1.243 . S
O385 Tb336 2.413 . S
O385 C400 1.256 . S
O386 Tb347 2.546 . S
O386 C411 1.251 . S
O387 Tb336 2.362 . S
O387 Tb347 2.610 . S
O387 C403 1.283 . S
O388 Tb336 2.421 . S
O388 C410 1.262 . S
O389 Tb347 2.320 . S
O389 C410 1.260 . S
O390 Tb347 2.552 . S
O390 C403 1.243 . S
O391 Tb347 2.413 . S
O391 C411 1.256 . S
C392 O381 1.283 . S
C392 O384 1.243 . S
C393 C395 1.382 . S
C393 C397 1.393 . S
C393 C400 1.500 . S
C394 C395 1.400 . S
C394 C396 1.384 . S
C395 C393 1.382 . S
C395 C394 1.400 . S
C395 H412 0.930 . S
C396 C394 1.384 . S
C396 C398 1.392 . S
C396 H413 0.931 . S
C397 C393 1.393 . S
C397 C398 1.401 . S
C397 H414 0.930 . S
C398 C396 1.392 . S
C398 C397 1.401 . S
C398 H415 0.930 . S
C399 O382 1.262 . S
C399 O383 1.260 . S
C400 Tb336 2.833 . S
C400 O380 1.251 . S
C400 O385 1.256 . S
C400 C393 1.500 . S
C401 H366 0.929 . S
C401 C379 1.444 . S
C401 C402 1.317 . S
C402 H364 0.930 . S
C402 C370 1.432 . S
C402 C401 1.317 . S
C403 O387 1.283 . S
C403 O390 1.243 . S
C404 C405 1.382 . S
C404 C408 1.393 . S
C404 C411 1.500 . S
C405 C404 1.382 . S
C405 C406 1.400 . S
C405 H416 0.930 . S
C406 C405 1.400 . S
C406 C407 1.384 . S
C407 C406 1.384 . S
C407 C409 1.392 . S
C407 H417 0.931 . S
C408 C404 1.393 . S
C408 C409 1.401 . S
C408 H418 0.930 . S
C409 C407 1.392 . S
C409 C408 1.401 . S
C409 H419 0.930 . S
C410 O388 1.262 . S
C410 O389 1.260 . S
C411 Tb347 2.833 . S
C411 O386 1.251 . S
C411 O391 1.256 . S
C411 C404 1.500 . S
H412 C395 0.930 . S
H413 C396 0.931 . S
H414 C397 0.930 . S
H415 C398 0.930 . S
H416 C405 0.930 . S
H417 C407 0.931 . S
H418 C408 0.930 . S
H419 C409 0.930 . S
Tb420 N451 2.660 . S
Tb420 N458 2.600 . S
Tb420 O464 2.546 . S
Tb420 O465 2.610 . S
Tb420 O467 2.320 . S
Tb420 O468 2.552 . S
Tb420 O469 2.413 . S
Tb420 O471 2.362 . S
Tb420 O472 2.421 . S
Tb420 C484 2.833 . S
C421 C424 1.432 . S
C421 C425 1.414 . S
C421 N428 1.359 . S
C422 C424 1.417 . S
C422 C426 1.432 . S
C422 C434 1.410 . S
C423 C425 1.444 . S
C423 C426 1.317 . S
C423 H446 0.929 . S
C424 C421 1.432 . S
C424 C422 1.417 . S
C424 N432 1.360 . S
C425 C421 1.414 . S
C425 C423 1.444 . S
C425 C430 1.385 . S
C426 C422 1.432 . S
C426 C423 1.317 . S
C426 H438 0.930 . S
C427 C429 1.392 . S
C427 C430 1.370 . S
C427 H439 0.931 . S
N428 C421 1.359 . S
N428 C429 1.327 . S
N428 Tb431 2.600 . S
C429 C427 1.392 . S
C429 N428 1.327 . S
C429 H436 0.930 . S
C430 C425 1.385 . S
C430 C427 1.370 . S
C430 H449 0.930 . S
Tb431 N428 2.600 . S
Tb431 N432 2.660 . S
Tb431 O465 2.362 . S
Tb431 O466 2.421 . S
Tb431 O470 2.546 . S
Tb431 O471 2.610 . S
Tb431 O473 2.320 . S
Tb431 O474 2.552 . S
Tb431 O475 2.413 . S
Tb431 C495 2.833 . S
N432 C424 1.360 . S
N432 Tb431 2.660 . S
N432 C433 1.305 . S
C433 N432 1.305 . S
C433 C435 1.407 . S
C433 H440 0.930 . S
C434 C422 1.410 . S
C434 C435 1.345 . S
C434 H442 0.930 . S
C435 C433 1.407 . S
C435 C434 1.345 . S
C435 H437 0.930 . S
H436 C429 0.930 . S
H437 C435 0.930 . S
H438 C426 0.930 . S
H439 C427 0.931 . S
H440 C433 0.930 . S
H441 C455 0.930 . S
H442 C434 0.930 . S
H443 C461 0.930 . S
H444 C452 0.930 . S
H445 C459 0.931 . S
H446 C423 0.929 . S
H447 C453 0.930 . S
H448 C486 0.930 . S
H449 C430 0.930 . S
H450 C485 0.929 . S
N451 Tb420 2.660 . S
N451 C452 1.305 . S
N451 C456 1.360 . S
C452 H444 0.930 . S
C452 N451 1.305 . S
C452 C455 1.407 . S
C453 H447 0.930 . S
C453 C454 1.410 . S
C453 C455 1.345 . S
C454 C453 1.410 . S
C454 C456 1.417 . S
C454 C486 1.432 . S
C455 H441 0.930 . S
C455 C452 1.407 . S
C455 C453 1.345 . S
C456 N451 1.360 . S
C456 C454 1.417 . S
C456 C460 1.432 . S
H457 C462 0.930 . S
N458 Tb420 2.600 . S
N458 C460 1.359 . S
N458 C461 1.327 . S
C459 H445 0.931 . S
C459 C461 1.392 . S
C459 C462 1.370 . S
C460 C456 1.432 . S
C460 N458 1.359 . S
C460 C463 1.414 . S
C461 H443 0.930 . S
C461 N458 1.327 . S
C461 C459 1.392 . S
C462 H457 0.930 . S
C462 C459 1.370 . S
C462 C463 1.385 . S
C463 C460 1.414 . S
C463 C462 1.385 . S
C463 C485 1.444 . S
O464 Tb420 2.546 . S
O464 C484 1.251 . S
O465 Tb420 2.610 . S
O465 Tb431 2.362 . S
O465 C476 1.283 . S
O466 Tb431 2.421 . S
O466 C483 1.262 . S
O467 Tb420 2.320 . S
O467 C483 1.260 . S
O468 Tb420 2.552 . S
O468 C476 1.243 . S
O469 Tb420 2.413 . S
O469 C484 1.256 . S
O470 Tb431 2.546 . S
O470 C495 1.251 . S
O471 Tb420 2.362 . S
O471 Tb431 2.610 . S
O471 C487 1.283 . S
O472 Tb420 2.421 . S
O472 C494 1.262 . S
O473 Tb431 2.320 . S
O473 C494 1.260 . S
O474 Tb431 2.552 . S
O474 C487 1.243 . S
O475 Tb431 2.413 . S
O475 C495 1.256 . S
C476 O465 1.283 . S
C476 O468 1.243 . S
C477 C479 1.382 . S
C477 C481 1.393 . S
C477 C484 1.500 . S
C478 C479 1.400 . S
C478 C480 1.384 . S
C479 C477 1.382 . S
C479 C478 1.400 . S
C479 H496 0.930 . S
C480 C478 1.384 . S
C480 C482 1.392 . S
C480 H497 0.931 . S
C481 C477 1.393 . S
C481 C482 1.401 . S
C481 H498 0.930 . S
C482 C480 1.392 . S
C482 C481 1.401 . S
C482 H499 0.930 . S
C483 O466 1.262 . S
C483 O467 1.260 . S
C484 Tb420 2.833 . S
C484 O464 1.251 . S
C484 O469 1.256 . S
C484 C477 1.500 . S
C485 H450 0.929 . S
C485 C463 1.444 . S
C485 C486 1.317 . S
C486 H448 0.930 . S
C486 C454 1.432 . S
C486 C485 1.317 . S
C487 O471 1.283 . S
C487 O474 1.243 . S
C488 C489 1.382 . S
C488 C492 1.393 . S
C488 C495 1.500 . S
C489 C488 1.382 . S
C489 C490 1.400 . S
C489 H500 0.930 . S
C490 C489 1.400 . S
C490 C491 1.384 . S
C491 C490 1.384 . S
C491 C493 1.392 . S
C491 H501 0.931 . S
C492 C488 1.393 . S
C492 C493 1.401 . S
C492 H502 0.930 . S
C493 C491 1.392 . S
C493 C492 1.401 . S
C493 H503 0.930 . S
C494 O472 1.262 . S
C494 O473 1.260 . S
C495 Tb431 2.833 . S
C495 O470 1.251 . S
C495 O475 1.256 . S
C495 C488 1.500 . S
H496 C479 0.930 . S
H497 C480 0.931 . S
H498 C481 0.930 . S
H499 C482 0.930 . S
H500 C489 0.930 . S
H501 C491 0.931 . S
H502 C492 0.930 . S
H503 C493 0.930 . S
C504 C505 1.391 . S
C504 C506 1.394 . S
C504 H520 0.931 . S
C505 C504 1.391 . S
C505 C509 1.376 . S
C506 C504 1.394 . S
C506 C507 1.369 . S
C506 C510 1.531 . S
C507 C506 1.369 . S
C507 C508 1.410 . S
C507 C515 1.503 . S
C508 C507 1.410 . S
C508 C509 1.392 . S
C508 C511 1.511 . S
C509 C505 1.376 . S
C509 C508 1.392 . S
C509 H521 0.929 . S
C510 C506 1.531 . S
C510 H522 0.960 . S
C510 H523 0.962 . S
C510 H524 0.960 . S
C511 C508 1.511 . S
C511 H525 0.961 . S
C511 H526 0.961 . S
C511 H527 0.961 . S
C512 C513 1.370 . S
C512 C514 1.363 . S
C512 H528 0.931 . S
C513 C512 1.370 . S
C513 C517 1.408 . S
C514 C512 1.363 . S
C514 C515 1.370 . S
C514 C518 1.524 . S
C515 C507 1.503 . S
C515 C514 1.370 . S
C515 C516 1.403 . S
C516 C515 1.403 . S
C516 C517 1.404 . S
C516 C519 1.539 . S
C517 C513 1.408 . S
C517 C516 1.404 . S
C517 H529 0.930 . S
C518 C514 1.524 . S
C518 H530 0.956 . S
C518 H531 0.961 . S
C518 H532 0.961 . S
C519 C516 1.539 . S
C519 H533 0.958 . S
C519 H534 0.961 . S
C519 H535 0.960 . S
H520 C504 0.931 . S
H521 C509 0.929 . S
H522 C510 0.960 . S
H523 C510 0.962 . S
H524 C510 0.960 . S
H525 C511 0.961 . S
H526 C511 0.961 . S
H527 C511 0.961 . S
H528 C512 0.931 . S
H529 C517 0.930 . S
H530 C518 0.956 . S
H531 C518 0.961 . S
H532 C518 0.961 . S
H533 C519 0.958 . S
H534 C519 0.961 . S
H535 C519 0.960 . S
C536 C537 1.391 . S
C536 C538 1.394 . S
C536 H552 0.931 . S
C537 C536 1.391 . S
C537 C541 1.376 . S
C538 C536 1.394 . S
C538 C539 1.369 . S
C538 C542 1.531 . S
C539 C538 1.369 . S
C539 C540 1.410 . S
C539 C547 1.503 . S
C540 C539 1.410 . S
C540 C541 1.392 . S
C540 C543 1.511 . S
C541 C537 1.376 . S
C541 C540 1.392 . S
C541 H553 0.929 . S
C542 C538 1.531 . S
C542 H554 0.960 . S
C542 H555 0.962 . S
C542 H556 0.960 . S
C543 C540 1.511 . S
C543 H557 0.961 . S
C543 H558 0.961 . S
C543 H559 0.961 . S
C544 C545 1.370 . S
C544 C546 1.363 . S
C544 H560 0.931 . S
C545 C544 1.370 . S
C545 C549 1.408 . S
C546 C544 1.363 . S
C546 C547 1.370 . S
C546 C550 1.524 . S
C547 C539 1.503 . S
C547 C546 1.370 . S
C547 C548 1.403 . S
C548 C547 1.403 . S
C548 C549 1.404 . S
C548 C551 1.539 . S
C549 C545 1.408 . S
C549 C548 1.404 . S
C549 H561 0.930 . S
C550 C546 1.524 . S
C550 H562 0.956 . S
C550 H563 0.961 . S
C550 H564 0.961 . S
C551 C548 1.539 . S
C551 H565 0.958 . S
C551 H566 0.961 . S
C551 H567 0.960 . S
H552 C536 0.931 . S
H553 C541 0.929 . S
H554 C542 0.960 . S
H555 C542 0.962 . S
H556 C542 0.960 . S
H557 C543 0.961 . S
H558 C543 0.961 . S
H559 C543 0.961 . S
H560 C544 0.931 . S
H561 C549 0.930 . S
H562 C550 0.956 . S
H563 C550 0.961 . S
H564 C550 0.961 . S
H565 C551 0.958 . S
H566 C551 0.961 . S
H567 C551 0.960 . S
C568 C569 1.391 . S
C568 C570 1.394 . S
C568 H584 0.931 . S
C569 C568 1.391 . S
C569 C573 1.376 . S
C570 C568 1.394 . S
C570 C571 1.369 . S
C570 C574 1.531 . S
C571 C570 1.369 . S
C571 C572 1.410 . S
C571 C579 1.503 . S
C572 C571 1.410 . S
C572 C573 1.392 . S
C572 C575 1.511 . S
C573 C569 1.376 . S
C573 C572 1.392 . S
C573 H585 0.929 . S
C574 C570 1.531 . S
C574 H586 0.960 . S
C574 H587 0.962 . S
C574 H588 0.960 . S
C575 C572 1.511 . S
C575 H589 0.961 . S
C575 H590 0.961 . S
C575 H591 0.961 . S
C576 C577 1.370 . S
C576 C578 1.363 . S
C576 H592 0.931 . S
C577 C576 1.370 . S
C577 C581 1.408 . S
C578 C576 1.363 . S
C578 C579 1.370 . S
C578 C582 1.524 . S
C579 C571 1.503 . S
C579 C578 1.370 . S
C579 C580 1.403 . S
C580 C579 1.403 . S
C580 C581 1.404 . S
C580 C583 1.539 . S
C581 C577 1.408 . S
C581 C580 1.404 . S
C581 H593 0.930 . S
C582 C578 1.524 . S
C582 H594 0.956 . S
C582 H595 0.961 . S
C582 H596 0.961 . S
C583 C580 1.539 . S
C583 H597 0.958 . S
C583 H598 0.961 . S
C583 H599 0.960 . S
H584 C568 0.931 . S
H585 C573 0.929 . S
H586 C574 0.960 . S
H587 C574 0.962 . S
H588 C574 0.960 . S
H589 C575 0.961 . S
H590 C575 0.961 . S
H591 C575 0.961 . S
H592 C576 0.931 . S
H593 C581 0.930 . S
H594 C582 0.956 . S
H595 C582 0.961 . S
H596 C582 0.961 . S
H597 C583 0.958 . S
H598 C583 0.961 . S
H599 C583 0.960 . S
C600 C601 1.391 . S
C600 C602 1.394 . S
C600 H616 0.931 . S
C601 C600 1.391 . S
C601 C605 1.376 . S
C602 C600 1.394 . S
C602 C603 1.369 . S
C602 C606 1.531 . S
C603 C602 1.369 . S
C603 C604 1.410 . S
C603 C611 1.503 . S
C604 C603 1.410 . S
C604 C605 1.392 . S
C604 C607 1.511 . S
C605 C601 1.376 . S
C605 C604 1.392 . S
C605 H617 0.929 . S
C606 C602 1.531 . S
C606 H618 0.960 . S
C606 H619 0.962 . S
C606 H620 0.960 . S
C607 C604 1.511 . S
C607 H621 0.961 . S
C607 H622 0.961 . S
C607 H623 0.961 . S
C608 C609 1.370 . S
C608 C610 1.363 . S
C608 H624 0.931 . S
C609 C608 1.370 . S
C609 C613 1.408 . S
C610 C608 1.363 . S
C610 C611 1.370 . S
C610 C614 1.524 . S
C611 C603 1.503 . S
C611 C610 1.370 . S
C611 C612 1.403 . S
C612 C611 1.403 . S
C612 C613 1.404 . S
C612 C615 1.539 . S
C613 C609 1.408 . S
C613 C612 1.404 . S
C613 H625 0.930 . S
C614 C610 1.524 . S
C614 H626 0.956 . S
C614 H627 0.961 . S
C614 H628 0.961 . S
C615 C612 1.539 . S
C615 H629 0.958 . S
C615 H630 0.961 . S
C615 H631 0.960 . S
H616 C600 0.931 . S
H617 C605 0.929 . S
H618 C606 0.960 . S
H619 C606 0.962 . S
H620 C606 0.960 . S
H621 C607 0.961 . S
H622 C607 0.961 . S
H623 C607 0.961 . S
H624 C608 0.931 . S
H625 C613 0.930 . S
H626 C614 0.956 . S
H627 C614 0.961 . S
H628 C614 0.961 . S
H629 C615 0.958 . S
H630 C615 0.961 . S
H631 C615 0.960 . S
C632 C633 1.391 . S
C632 C634 1.394 . S
C632 H648 0.931 . S
C633 C632 1.391 . S
C633 C637 1.376 . S
C634 C632 1.394 . S
C634 C635 1.369 . S
C634 C638 1.531 . S
C635 C634 1.369 . S
C635 C636 1.410 . S
C635 C643 1.503 . S
C636 C635 1.410 . S
C636 C637 1.392 . S
C636 C639 1.511 . S
C637 C633 1.376 . S
C637 C636 1.392 . S
C637 H649 0.929 . S
C638 C634 1.531 . S
C638 H650 0.960 . S
C638 H651 0.962 . S
C638 H652 0.960 . S
C639 C636 1.511 . S
C639 H653 0.961 . S
C639 H654 0.961 . S
C639 H655 0.961 . S
C640 C641 1.370 . S
C640 C642 1.363 . S
C640 H656 0.931 . S
C641 C640 1.370 . S
C641 C645 1.408 . S
C642 C640 1.363 . S
C642 C643 1.370 . S
C642 C646 1.524 . S
C643 C635 1.503 . S
C643 C642 1.370 . S
C643 C644 1.403 . S
C644 C643 1.403 . S
C644 C645 1.404 . S
C644 C647 1.539 . S
C645 C641 1.408 . S
C645 C644 1.404 . S
C645 H657 0.930 . S
C646 C642 1.524 . S
C646 H658 0.956 . S
C646 H659 0.961 . S
C646 H660 0.961 . S
C647 C644 1.539 . S
C647 H661 0.958 . S
C647 H662 0.961 . S
C647 H663 0.960 . S
H648 C632 0.931 . S
H649 C637 0.929 . S
H650 C638 0.960 . S
H651 C638 0.962 . S
H652 C638 0.960 . S
H653 C639 0.961 . S
H654 C639 0.961 . S
H655 C639 0.961 . S
H656 C640 0.931 . S
H657 C645 0.930 . S
H658 C646 0.956 . S
H659 C646 0.961 . S
H660 C646 0.961 . S
H661 C647 0.958 . S
H662 C647 0.961 . S
H663 C647 0.960 . S
C664 C665 1.391 . S
C664 C666 1.394 . S
C664 H680 0.931 . S
C665 C664 1.391 . S
C665 C669 1.376 . S
C666 C664 1.394 . S
C666 C667 1.369 . S
C666 C670 1.531 . S
C667 C666 1.369 . S
C667 C668 1.410 . S
C667 C675 1.503 . S
C668 C667 1.410 . S
C668 C669 1.392 . S
C668 C671 1.511 . S
C669 C665 1.376 . S
C669 C668 1.392 . S
C669 H681 0.929 . S
C670 C666 1.531 . S
C670 H682 0.960 . S
C670 H683 0.962 . S
C670 H684 0.960 . S
C671 C668 1.511 . S
C671 H685 0.961 . S
C671 H686 0.961 . S
C671 H687 0.961 . S
C672 C673 1.370 . S
C672 C674 1.363 . S
C672 H688 0.931 . S
C673 C672 1.370 . S
C673 C677 1.408 . S
C674 C672 1.363 . S
C674 C675 1.370 . S
C674 C678 1.524 . S
C675 C667 1.503 . S
C675 C674 1.370 . S
C675 C676 1.403 . S
C676 C675 1.403 . S
C676 C677 1.404 . S
C676 C679 1.539 . S
C677 C673 1.408 . S
C677 C676 1.404 . S
C677 H689 0.930 . S
C678 C674 1.524 . S
C678 H690 0.956 . S
C678 H691 0.961 . S
C678 H692 0.961 . S
C679 C676 1.539 . S
C679 H693 0.958 . S
C679 H694 0.961 . S
C679 H695 0.960 . S
H680 C664 0.931 . S
H681 C669 0.929 . S
H682 C670 0.960 . S
H683 C670 0.962 . S
H684 C670 0.960 . S
H685 C671 0.961 . S
H686 C671 0.961 . S
H687 C671 0.961 . S
H688 C672 0.931 . S
H689 C677 0.930 . S
H690 C678 0.956 . S
H691 C678 0.961 . S
H692 C678 0.961 . S
H693 C679 0.958 . S
H694 C679 0.961 . S
H695 C679 0.960 . S
C696 C697 1.391 1_556 S
C696 C698 1.394 . S
C696 H712 0.931 . S
C697 C696 1.391 1_554 S
C697 C701 1.376 . S
C698 C696 1.394 . S
C698 C699 1.369 1_556 S
C698 C702 1.531 . S
C699 C698 1.369 1_554 S
C699 C700 1.410 . S
C699 C707 1.503 . S
C700 C699 1.410 . S
C700 C701 1.392 . S
C700 C703 1.511 . S
C701 C697 1.376 . S
C701 C700 1.392 . S
C701 H713 0.929 . S
C702 C698 1.531 . S
C702 H714 0.960 . S
C702 H715 0.962 . S
C702 H716 0.960 . S
C703 C700 1.511 . S
C703 H717 0.961 . S
C703 H718 0.961 . S
C703 H719 0.961 . S
C704 C705 1.370 . S
C704 C706 1.363 . S
C704 H720 0.931 . S
C705 C704 1.370 . S
C705 C709 1.408 . S
C706 C704 1.363 . S
C706 C707 1.370 . S
C706 C710 1.524 . S
C707 C699 1.503 . S
C707 C706 1.370 . S
C707 C708 1.403 . S
C708 C707 1.403 . S
C708 C709 1.404 . S
C708 C711 1.539 . S
C709 C705 1.408 . S
C709 C708 1.404 . S
C709 H721 0.930 . S
C710 C706 1.524 . S
C710 H722 0.956 . S
C710 H723 0.961 . S
C710 H724 0.961 . S
C711 C708 1.539 . S
C711 H725 0.958 1_554 S
C711 H726 0.961 . S
C711 H727 0.960 . S
H712 C696 0.931 . S
H713 C701 0.929 . S
H714 C702 0.960 . S
H715 C702 0.962 . S
H716 C702 0.960 . S
H717 C703 0.961 . S
H718 C703 0.961 . S
H719 C703 0.961 . S
H720 C704 0.931 . S
H721 C709 0.930 . S
H722 C710 0.956 . S
H723 C710 0.961 . S
H724 C710 0.961 . S
H725 C711 0.958 1_556 S
H726 C711 0.961 . S
H727 C711 0.960 . S
C728 C729 1.391 . S
C728 C730 1.394 . S
C728 H744 0.931 . S
C729 C728 1.391 . S
C729 C733 1.376 . S
C730 C728 1.394 . S
C730 C731 1.369 . S
C730 C734 1.531 . S
C731 C730 1.369 . S
C731 C732 1.410 1_455 S
C731 C739 1.503 1_455 S
C732 C731 1.410 1_655 S
C732 C733 1.392 1_655 S
C732 C735 1.511 . S
C733 C729 1.376 . S
C733 C732 1.392 1_455 S
C733 H745 0.929 . S
C734 C730 1.531 . S
C734 H746 0.960 . S
C734 H747 0.962 . S
C734 H748 0.960 . S
C735 C732 1.511 . S
C735 H749 0.961 . S
C735 H750 0.961 . S
C735 H751 0.961 . S
C736 C737 1.370 . S
C736 C738 1.363 . S
C736 H752 0.931 . S
C737 C736 1.370 . S
C737 C741 1.408 . S
C738 C736 1.363 . S
C738 C739 1.370 . S
C738 C742 1.524 1_655 S
C739 C731 1.503 1_655 S
C739 C738 1.370 . S
C739 C740 1.403 . S
C740 C739 1.403 . S
C740 C741 1.404 . S
C740 C743 1.539 . S
C741 C737 1.408 . S
C741 C740 1.404 . S
C741 H753 0.930 . S
C742 C738 1.524 1_455 S
C742 H754 0.956 . S
C742 H755 0.961 . S
C742 H756 0.961 . S
C743 C740 1.539 . S
C743 H757 0.958 . S
C743 H758 0.961 . S
C743 H759 0.960 . S
H744 C728 0.931 . S
H745 C733 0.929 . S
H746 C734 0.960 . S
H747 C734 0.962 . S
H748 C734 0.960 . S
H749 C735 0.961 . S
H750 C735 0.961 . S
H751 C735 0.961 . S
H752 C736 0.931 . S
H753 C741 0.930 . S
H754 C742 0.956 . S
H755 C742 0.961 . S
H756 C742 0.961 . S
H757 C743 0.958 . S
H758 C743 0.961 . S
H759 C743 0.960 . S
C760 C761 1.391 . S
C760 C762 1.394 . S
C760 H776 0.931 . S
C761 C760 1.391 . S
C761 C765 1.376 . S
C762 C760 1.394 . S
C762 C763 1.369 . S
C762 C766 1.531 1_545 S
C763 C762 1.369 . S
C763 C764 1.410 . S
C763 C771 1.503 1_545 S
C764 C763 1.410 . S
C764 C765 1.392 . S
C764 C767 1.511 . S
C765 C761 1.376 . S
C765 C764 1.392 . S
C765 H777 0.929 . S
C766 C762 1.531 1_565 S
C766 H778 0.960 . S
C766 H779 0.962 . S
C766 H780 0.960 1_565 S
C767 C764 1.511 . S
C767 H781 0.961 . S
C767 H782 0.961 . S
C767 H783 0.961 . S
C768 C769 1.370 . S
C768 C770 1.363 . S
C768 H784 0.931 . S
C769 C768 1.370 . S
C769 C773 1.408 . S
C770 C768 1.363 . S
C770 C771 1.370 . S
C770 C774 1.524 . S
C771 C763 1.503 1_565 S
C771 C770 1.370 . S
C771 C772 1.403 1_565 S
C772 C771 1.403 1_545 S
C772 C773 1.404 1_545 S
C772 C775 1.539 . S
C773 C769 1.408 . S
C773 C772 1.404 1_565 S
C773 H785 0.930 . S
C774 C770 1.524 . S
C774 H786 0.956 . S
C774 H787 0.961 . S
C774 H788 0.961 . S
C775 C772 1.539 . S
C775 H789 0.958 . S
C775 H790 0.961 . S
C775 H791 0.960 . S
H776 C760 0.931 . S
H777 C765 0.929 . S
H778 C766 0.960 . S
H779 C766 0.962 . S
H780 C766 0.960 1_545 S
H781 C767 0.961 . S
H782 C767 0.961 . S
H783 C767 0.961 . S
H784 C768 0.931 . S
H785 C773 0.930 . S
H786 C774 0.956 . S
H787 C774 0.961 . S
H788 C774 0.961 . S
H789 C775 0.958 . S
H790 C775 0.961 . S
H791 C775 0.960 . S
C792 C793 1.391 . S
C792 C794 1.394 . S
C792 H808 0.931 . S
C793 C792 1.391 . S
C793 C797 1.376 . S
C794 C792 1.394 . S
C794 C795 1.369 . S
C794 C798 1.531 . S
C795 C794 1.369 . S
C795 C796 1.410 . S
C795 C803 1.503 . S
C796 C795 1.410 . S
C796 C797 1.392 . S
C796 C799 1.511 . S
C797 C793 1.376 . S
C797 C796 1.392 . S
C797 H809 0.929 . S
C798 C794 1.531 . S
C798 H810 0.960 . S
C798 H811 0.962 . S
C798 H812 0.960 . S
C799 C796 1.511 . S
C799 H813 0.961 . S
C799 H814 0.961 . S
C799 H815 0.961 . S
C800 C801 1.370 . S
C800 C802 1.363 . S
C800 H816 0.931 . S
C801 C800 1.370 . S
C801 C805 1.408 . S
C802 C800 1.363 . S
C802 C803 1.370 . S
C802 C806 1.524 . S
C803 C795 1.503 . S
C803 C802 1.370 . S
C803 C804 1.403 . S
C804 C803 1.403 . S
C804 C805 1.404 . S
C804 C807 1.539 . S
C805 C801 1.408 . S
C805 C804 1.404 . S
C805 H817 0.930 . S
C806 C802 1.524 . S
C806 H818 0.956 . S
C806 H819 0.961 . S
C806 H820 0.961 . S
C807 C804 1.539 . S
C807 H821 0.958 . S
C807 H822 0.961 . S
C807 H823 0.960 . S
H808 C792 0.931 . S
H809 C797 0.929 . S
H810 C798 0.960 . S
H811 C798 0.962 . S
H812 C798 0.960 . S
H813 C799 0.961 . S
H814 C799 0.961 . S
H815 C799 0.961 . S
H816 C800 0.931 . S
H817 C805 0.930 . S
H818 C806 0.956 . S
H819 C806 0.961 . S
H820 C806 0.961 . S
H821 C807 0.958 . S
H822 C807 0.961 . S
H823 C807 0.960 . S
C824 C825 1.391 . S
C824 C826 1.394 . S
C824 H840 0.931 . S
C825 C824 1.391 . S
C825 C829 1.376 . S
C826 C824 1.394 . S
C826 C827 1.369 . S
C826 C830 1.531 . S
C827 C826 1.369 . S
C827 C828 1.410 1_455 S
C827 C835 1.503 1_455 S
C828 C827 1.410 1_655 S
C828 C829 1.392 1_655 S
C828 C831 1.511 1_554 S
C829 C825 1.376 . S
C829 C828 1.392 1_455 S
C829 H841 0.929 . S
C830 C826 1.531 . S
C830 H842 0.960 . S
C830 H843 0.962 . S
C830 H844 0.960 . S
C831 C828 1.511 1_556 S
C831 H845 0.961 1_556 S
C831 H846 0.961 1_556 S
C831 H847 0.961 . S
C832 C833 1.370 . S
C832 C834 1.363 . S
C832 H848 0.931 . S
C833 C832 1.370 . S
C833 C837 1.408 1_554 S
C834 C832 1.363 . S
C834 C835 1.370 . S
C834 C838 1.524 . S
C835 C827 1.503 1_655 S
C835 C834 1.370 . S
C835 C836 1.403 1_554 S
C836 C835 1.403 1_556 S
C836 C837 1.404 . S
C836 C839 1.539 . S
C837 C833 1.408 1_556 S
C837 C836 1.404 . S
C837 H849 0.930 . S
C838 C834 1.524 . S
C838 H850 0.956 1_655 S
C838 H851 0.961 . S
C838 H852 0.961 . S
C839 C836 1.539 . S
C839 H853 0.958 1_655 S
C839 H854 0.961 . S
C839 H855 0.960 . S
H840 C824 0.931 . S
H841 C829 0.929 . S
H842 C830 0.960 . S
H843 C830 0.962 . S
H844 C830 0.960 . S
H845 C831 0.961 1_554 S
H846 C831 0.961 1_554 S
H847 C831 0.961 . S
H848 C832 0.931 . S
H849 C837 0.930 . S
H850 C838 0.956 1_455 S
H851 C838 0.961 . S
H852 C838 0.961 . S
H853 C839 0.958 1_455 S
H854 C839 0.961 . S
H855 C839 0.960 . S
C856 C857 1.391 . S
C856 C858 1.394 . S
C856 H872 0.931 . S
C857 C856 1.391 . S
C857 C861 1.376 . S
C858 C856 1.394 . S
C858 C859 1.369 . S
C858 C862 1.531 1_565 S
C859 C858 1.369 . S
C859 C860 1.410 . S
C859 C867 1.503 1_565 S
C860 C859 1.410 . S
C860 C861 1.392 . S
C860 C863 1.511 . S
C861 C857 1.376 . S
C861 C860 1.392 . S
C861 H873 0.929 . S
C862 C858 1.531 1_545 S
C862 H874 0.960 . S
C862 H875 0.962 . S
C862 H876 0.960 . S
C863 C860 1.511 . S
C863 H877 0.961 . S
C863 H878 0.961 . S
C863 H879 0.961 . S
C864 C865 1.370 . S
C864 C866 1.363 . S
C864 H880 0.931 . S
C865 C864 1.370 . S
C865 C869 1.408 . S
C866 C864 1.363 . S
C866 C867 1.370 . S
C866 C870 1.524 . S
C867 C859 1.503 1_545 S
C867 C866 1.370 . S
C867 C868 1.403 . S
C868 C867 1.403 . S
C868 C869 1.404 . S
C868 C871 1.539 1_545 S
C869 C865 1.408 . S
C869 C868 1.404 . S
C869 H881 0.930 . S
C870 C866 1.524 . S
C870 H882 0.956 . S
C870 H883 0.961 . S
C870 H884 0.961 . S
C871 C868 1.539 1_565 S
C871 H885 0.958 . S
C871 H886 0.961 . S
C871 H887 0.960 . S
H872 C856 0.931 . S
H873 C861 0.929 . S
H874 C862 0.960 . S
H875 C862 0.962 . S
H876 C862 0.960 . S
H877 C863 0.961 . S
H878 C863 0.961 . S
H879 C863 0.961 . S
H880 C864 0.931 . S
H881 C869 0.930 . S
H882 C870 0.956 . S
H883 C870 0.961 . S
H884 C870 0.961 . S
H885 C871 0.958 . S
H886 C871 0.961 . S
H887 C871 0.960 . S
C888 C889 1.391 . S
C888 C890 1.394 . S
C888 H904 0.931 . S
C889 C888 1.391 . S
C889 C893 1.376 . S
C890 C888 1.394 . S
C890 C891 1.369 . S
C890 C894 1.531 . S
C891 C890 1.369 . S
C891 C892 1.410 . S
C891 C899 1.503 . S
C892 C891 1.410 . S
C892 C893 1.392 . S
C892 C895 1.511 . S
C893 C889 1.376 . S
C893 C892 1.392 . S
C893 H905 0.929 . S
C894 C890 1.531 . S
C894 H906 0.960 . S
C894 H907 0.962 . S
C894 H908 0.960 . S
C895 C892 1.511 . S
C895 H909 0.961 . S
C895 H910 0.961 . S
C895 H911 0.961 . S
C896 C897 1.370 . S
C896 C898 1.363 . S
C896 H912 0.931 . S
C897 C896 1.370 . S
C897 C901 1.408 . S
C898 C896 1.363 . S
C898 C899 1.370 . S
C898 C902 1.524 . S
C899 C891 1.503 . S
C899 C898 1.370 . S
C899 C900 1.403 . S
C900 C899 1.403 . S
C900 C901 1.404 . S
C900 C903 1.539 . S
C901 C897 1.408 . S
C901 C900 1.404 . S
C901 H913 0.930 . S
C902 C898 1.524 . S
C902 H914 0.956 . S
C902 H915 0.961 . S
C902 H916 0.961 . S
C903 C900 1.539 . S
C903 H917 0.958 . S
C903 H918 0.961 . S
C903 H919 0.960 . S
H904 C888 0.931 . S
H905 C893 0.929 . S
H906 C894 0.960 . S
H907 C894 0.962 . S
H908 C894 0.960 . S
H909 C895 0.961 . S
H910 C895 0.961 . S
H911 C895 0.961 . S
H912 C896 0.931 . S
H913 C901 0.930 . S
H914 C902 0.956 . S
H915 C902 0.961 . S
H916 C902 0.961 . S
H917 C903 0.958 . S
H918 C903 0.961 . S
H919 C903 0.960 . S
C920 C921 1.391 1_655 S
C920 C922 1.394 1_655 S
C920 H936 0.931 . S
C921 C920 1.391 1_455 S
C921 C925 1.376 . S
C922 C920 1.394 1_455 S
C922 C923 1.369 . S
C922 C926 1.531 1_455 S
C923 C922 1.369 . S
C923 C924 1.410 . S
C923 C931 1.503 . S
C924 C923 1.410 . S
C924 C925 1.392 . S
C924 C927 1.511 . S
C925 C921 1.376 . S
C925 C924 1.392 . S
C925 H937 0.929 . S
C926 C922 1.531 1_655 S
C926 H938 0.960 1_655 S
C926 H939 0.962 . S
C926 H940 0.960 . S
C927 C924 1.511 . S
C927 H941 0.961 . S
C927 H942 0.961 . S
C927 H943 0.961 . S
C928 C929 1.370 . S
C928 C930 1.363 . S
C928 H944 0.931 . S
C929 C928 1.370 . S
C929 C933 1.408 . S
C930 C928 1.363 . S
C930 C931 1.370 . S
C930 C934 1.524 . S
C931 C923 1.503 . S
C931 C930 1.370 . S
C931 C932 1.403 . S
C932 C931 1.403 . S
C932 C933 1.404 . S
C932 C935 1.539 . S
C933 C929 1.408 . S
C933 C932 1.404 . S
C933 H945 0.930 . S
C934 C930 1.524 . S
C934 H946 0.956 . S
C934 H947 0.961 . S
C934 H948 0.961 . S
C935 C932 1.539 . S
C935 H949 0.958 . S
C935 H950 0.961 . S
C935 H951 0.960 . S
H936 C920 0.931 . S
H937 C925 0.929 . S
H938 C926 0.960 1_455 S
H939 C926 0.962 . S
H940 C926 0.960 . S
H941 C927 0.961 . S
H942 C927 0.961 . S
H943 C927 0.961 . S
H944 C928 0.931 . S
H945 C933 0.930 . S
H946 C934 0.956 . S
H947 C934 0.961 . S
H948 C934 0.961 . S
H949 C935 0.958 . S
H950 C935 0.961 . S
H951 C935 0.960 . S
C952 C953 1.391 . S
C952 C954 1.394 . S
C952 H968 0.931 . S
C953 C952 1.391 . S
C953 C957 1.376 1_545 S
C954 C952 1.394 . S
C954 C955 1.369 . S
C954 C958 1.531 . S
C955 C954 1.369 . S
C955 C956 1.410 . S
C955 C963 1.503 . S
C956 C955 1.410 . S
C956 C957 1.392 1_545 S
C956 C959 1.511 1_545 S
C957 C953 1.376 1_565 S
C957 C956 1.392 1_565 S
C957 H969 0.929 . S
C958 C954 1.531 . S
C958 H970 0.960 . S
C958 H971 0.962 . S
C958 H972 0.960 . S
C959 C956 1.511 1_565 S
C959 H973 0.961 . S
C959 H974 0.964 . S
C959 H975 0.961 . S
C960 C961 1.370 . S
C960 C962 1.363 . S
C960 H976 0.931 . S
C961 C960 1.370 . S
C961 C965 1.408 . S
C962 C960 1.363 . S
C962 C963 1.370 . S
C962 C966 1.524 . S
C963 C955 1.503 . S
C963 C962 1.370 . S
C963 C964 1.403 . S
C964 C963 1.403 . S
C964 C965 1.404 . S
C964 C967 1.539 . S
C965 C961 1.408 . S
C965 C964 1.404 . S
C965 H977 0.930 . S
C966 C962 1.524 . S
C966 H978 0.956 . S
C966 H979 0.961 . S
C966 H980 0.961 . S
C967 C964 1.539 . S
C967 H981 0.958 . S
C967 H982 0.961 . S
C967 H983 0.960 . S
H968 C952 0.931 . S
H969 C957 0.929 . S
H970 C958 0.960 . S
H971 C958 0.962 . S
H972 C958 0.960 . S
H973 C959 0.961 . S
H974 C959 0.964 . S
H975 C959 0.961 . S
H976 C960 0.931 . S
H977 C965 0.930 . S
H978 C966 0.956 . S
H979 C966 0.961 . S
H980 C966 0.961 . S
H981 C967 0.958 . S
H982 C967 0.961 . S
H983 C967 0.960 . S
C984 C985 1.391 . S
C984 C986 1.394 . S
C984 H1000 0.931 . S
C985 C984 1.391 . S
C985 C989 1.376 . S
C986 C984 1.394 . S
C986 C987 1.369 . S
C986 C990 1.531 . S
C987 C986 1.369 . S
C987 C988 1.410 . S
C987 C995 1.503 . S
C988 C987 1.410 . S
C988 C989 1.392 . S
C988 C991 1.511 . S
C989 C985 1.376 . S
C989 C988 1.392 . S
C989 H1001 0.929 . S
C990 C986 1.531 . S
C990 H1002 0.960 . S
C990 H1003 0.962 . S
C990 H1004 0.960 . S
C991 C988 1.511 . S
C991 H1005 0.961 . S
C991 H1006 0.961 . S
C991 H1007 0.961 . S
C992 C993 1.370 . S
C992 C994 1.363 . S
C992 H1008 0.931 . S
C993 C992 1.370 . S
C993 C997 1.408 . S
C994 C992 1.363 . S
C994 C995 1.370 . S
C994 C998 1.524 . S
C995 C987 1.503 . S
C995 C994 1.370 . S
C995 C996 1.403 . S
C996 C995 1.403 . S
C996 C997 1.404 . S
C996 C999 1.539 . S
C997 C993 1.408 . S
C997 C996 1.404 . S
C997 H1009 0.930 . S
C998 C994 1.524 . S
C998 H1010 0.956 . S
C998 H1011 0.961 . S
C998 H1012 0.961 . S
C999 C996 1.539 . S
C999 H1013 0.958 . S
C999 H1014 0.961 . S
C999 H1015 0.960 . S
H1000 C984 0.931 . S
H1001 C989 0.929 . S
H1002 C990 0.960 . S
H1003 C990 0.962 . S
H1004 C990 0.960 . S
H1005 C991 0.961 . S
H1006 C991 0.961 . S
H1007 C991 0.961 . S
H1008 C992 0.931 . S
H1009 C997 0.930 . S
H1010 C998 0.956 . S
H1011 C998 0.961 . S
H1012 C998 0.961 . S
H1013 C999 0.958 . S
H1014 C999 0.961 . S
H1015 C999 0.960 . S
C1016 C1017 1.395 . S
C1016 C1018 1.390 1_455 S
C1016 H1032 0.931 . S
C1017 C1016 1.395 . S
C1017 C1021 1.369 1_455 S
C1018 C1016 1.390 1_655 S
C1018 C1019 1.376 . S
C1018 C1022 1.527 1_655 S
C1019 C1018 1.376 . S
C1019 C1020 1.410 . S
C1019 C1027 1.503 . S
C1020 C1019 1.410 . S
C1020 C1021 1.392 . S
C1020 C1023 1.511 . S
C1021 C1017 1.369 1_655 S
C1021 C1020 1.392 . S
C1021 H1033 0.929 . S
C1022 C1018 1.527 1_455 S
C1022 H1034 0.960 . S
C1022 H1035 0.962 . S
C1022 H1036 0.960 . S
C1023 C1020 1.511 . S
C1023 H1037 0.961 . S
C1023 H1038 0.961 . S
C1023 H1039 0.961 . S
C1024 C1025 1.370 . S
C1024 C1026 1.363 . S
C1024 H1040 0.931 . S
C1025 C1024 1.370 . S
C1025 C1029 1.408 . S
C1026 C1024 1.363 . S
C1026 C1027 1.370 . S
C1026 C1030 1.524 . S
C1027 C1019 1.503 . S
C1027 C1026 1.370 . S
C1027 C1028 1.403 . S
C1028 C1027 1.403 . S
C1028 C1029 1.404 . S
C1028 C1031 1.539 . S
C1029 C1025 1.408 . S
C1029 C1028 1.404 . S
C1029 H1041 0.930 . S
C1030 C1026 1.524 . S
C1030 H1042 0.956 . S
C1030 H1043 0.961 . S
C1030 H1044 0.961 . S
C1031 C1028 1.539 . S
C1031 H1045 0.958 . S
C1031 H1046 0.961 . S
C1031 H1047 0.960 . S
H1032 C1016 0.931 . S
H1033 C1021 0.929 . S
H1034 C1022 0.960 . S
H1035 C1022 0.962 . S
H1036 C1022 0.960 . S
H1037 C1023 0.961 . S
H1038 C1023 0.961 . S
H1039 C1023 0.961 . S
H1040 C1024 0.931 . S
H1041 C1029 0.930 . S
H1042 C1030 0.956 . S
H1043 C1030 0.961 . S
H1044 C1030 0.961 . S
H1045 C1031 0.958 . S
H1046 C1031 0.961 . S
H1047 C1031 0.960 . S
C1048 C1049 1.391 . S
C1048 C1050 1.394 1_545 S
C1048 H1064 0.931 . S
C1049 C1048 1.391 . S
C1049 C1053 1.376 1_545 S
C1050 C1048 1.394 1_565 S
C1050 C1051 1.369 . S
C1050 C1054 1.531 . S
C1051 C1050 1.369 . S
C1051 C1052 1.410 . S
C1051 C1059 1.503 . S
C1052 C1051 1.410 . S
C1052 C1053 1.392 . S
C1052 C1055 1.511 . S
C1053 C1049 1.376 1_565 S
C1053 C1052 1.392 . S
C1053 H1065 0.929 . S
C1054 C1050 1.531 . S
C1054 H1066 0.960 . S
C1054 H1067 0.962 . S
C1054 H1068 0.960 1_565 S
C1055 C1052 1.511 . S
C1055 H1069 0.961 . S
C1055 H1070 0.961 . S
C1055 H1071 0.961 . S
C1056 C1057 1.370 . S
C1056 C1058 1.363 . S
C1056 H1072 0.931 . S
C1057 C1056 1.370 . S
C1057 C1061 1.408 . S
C1058 C1056 1.363 . S
C1058 C1059 1.370 . S
C1058 C1062 1.524 . S
C1059 C1051 1.503 . S
C1059 C1058 1.370 . S
C1059 C1060 1.403 . S
C1060 C1059 1.403 . S
C1060 C1061 1.404 . S
C1060 C1063 1.539 . S
C1061 C1057 1.408 . S
C1061 C1060 1.404 . S
C1061 H1073 0.930 . S
C1062 C1058 1.524 . S
C1062 H1074 0.956 . S
C1062 H1075 0.961 . S
C1062 H1076 0.961 . S
C1063 C1060 1.539 . S
C1063 H1077 0.958 1_565 S
C1063 H1078 0.961 . S
C1063 H1079 0.960 1_565 S
H1064 C1048 0.931 . S
H1065 C1053 0.929 . S
H1066 C1054 0.960 . S
H1067 C1054 0.962 . S
H1068 C1054 0.960 1_545 S
H1069 C1055 0.961 . S
H1070 C1055 0.961 . S
H1071 C1055 0.961 . S
H1072 C1056 0.931 . S
H1073 C1061 0.930 . S
H1074 C1062 0.956 . S
H1075 C1062 0.961 . S
H1076 C1062 0.961 . S
H1077 C1063 0.958 1_545 S
H1078 C1063 0.961 . S
H1079 C1063 0.960 1_545 S
C505 C403 1.191 . S
C513 C58 1.022 . S
C537 C487 1.098 . S
C545 C142 1.041 . S
C569 C67 1.194 . S
C577 C226 1.008 . S
C601 C151 1.123 . S
C609 C310 0.990 . S
C633 C235 1.118 . S
C641 C394 0.992 . S
C665 C319 1.187 . S
C673 C478 1.029 . S
C697 C74 1.788 . S
C705 C326 1.814 . S
C729 C410 1.800 . S
C737 C158 1.796 . S
C761 C494 1.791 . S
C769 C242 1.815 . S
C793 C231 1.816 . S
C801 C483 1.809 . S
C825 C63 1.777 . S
C833 C315 1.794 . S
C857 C399 1.794 . S
C865 C147 1.814 . S
C889 C476 1.201 . S
C897 C70 1.218 . S
C921 C154 1.259 1_455 S
C929 C56 1.202 . S
C953 C238 1.187 1_545 S
C961 C140 1.233 . S
C985 C224 1.201 . S
C993 C322 1.218 . S
C1017 C406 1.248 . S
C1025 C308 1.207 . S
C1049 C490 1.197 . S
C1057 C392 1.226 . S
