# Generated by pormake.
# Topology ecs, (8)-cn, num edge types: 1
# Building blocks:
#     Node 0, Type 0, BuildingBlock: TAGTUT_clean_sbu_3, # of connection points: 8
#     Node 1, Type 0, BuildingBlock: TAGTUT_clean_sbu_3, # of connection points: 8
#     Node 2, Type 0, BuildingBlock: TAGTUT_clean_sbu_3, # of connection points: 8
#     Node 3, Type 0, BuildingBlock: TAGTUT_clean_sbu_3, # of connection points: 8
#     Node 4, Type 0, BuildingBlock: TAGTUT_clean_sbu_3, # of connection points: 8
#     Node 5, Type 0, BuildingBlock: TAGTUT_clean_sbu_3, # of connection points: 8
#     Node 6, Type 0, BuildingBlock: TAGTUT_clean_sbu_3, # of connection points: 8
#     Node 7, Type 0, BuildingBlock: TAGTUT_clean_sbu_3, # of connection points: 8
#     Node 8, Type 0, BuildingBlock: TAGTUT_clean_sbu_3, # of connection points: 8
#     Node 9, Type 0, BuildingBlock: TAGTUT_clean_sbu_3, # of connection points: 8
#     Node 10, Type 0, BuildingBlock: TAGTUT_clean_sbu_3, # of connection points: 8
#     Node 11, Type 0, BuildingBlock: TAGTUT_clean_sbu_3, # of connection points: 8
#     Edge 12, Type (0, 0), BuildingBlock: OJICUG_clean_linker_0, # of connection points: 2
#     Edge 13, Type (0, 0), BuildingBlock: OJICUG_clean_linker_0, # of connection points: 2
#     Edge 14, Type (0, 0), BuildingBlock: OJICUG_clean_linker_0, # of connection points: 2
#     Edge 15, Type (0, 0), BuildingBlock: OJICUG_clean_linker_0, # of connection points: 2
#     Edge 16, Type (0, 0), BuildingBlock: OJICUG_clean_linker_0, # of connection points: 2
#     Edge 17, Type (0, 0), BuildingBlock: OJICUG_clean_linker_0, # of connection points: 2
#     Edge 18, Type (0, 0), BuildingBlock: OJICUG_clean_linker_0, # of connection points: 2
#     Edge 19, Type (0, 0), BuildingBlock: OJICUG_clean_linker_0, # of connection points: 2
#     Edge 20, Type (0, 0), BuildingBlock: OJICUG_clean_linker_0, # of connection points: 2
#     Edge 21, Type (0, 0), BuildingBlock: OJICUG_clean_linker_0, # of connection points: 2
#     Edge 22, Type (0, 0), BuildingBlock: OJICUG_clean_linker_0, # of connection points: 2
#     Edge 23, Type (0, 0), BuildingBlock: OJICUG_clean_linker_0, # of connection points: 2
#     Edge 24, Type (0, 0), BuildingBlock: OJICUG_clean_linker_0, # of connection points: 2
#     Edge 25, Type (0, 0), BuildingBlock: OJICUG_clean_linker_0, # of connection points: 2
#     Edge 26, Type (0, 0), BuildingBlock: OJICUG_clean_linker_0, # of connection points: 2
#     Edge 27, Type (0, 0), BuildingBlock: OJICUG_clean_linker_0, # of connection points: 2
#     Edge 28, Type (0, 0), BuildingBlock: OJICUG_clean_linker_0, # of connection points: 2
#     Edge 29, Type (0, 0), BuildingBlock: OJICUG_clean_linker_0, # of connection points: 2
#     Edge 30, Type (0, 0), BuildingBlock: OJICUG_clean_linker_0, # of connection points: 2
#     Edge 31, Type (0, 0), BuildingBlock: OJICUG_clean_linker_0, # of connection points: 2
#     Edge 32, Type (0, 0), BuildingBlock: OJICUG_clean_linker_0, # of connection points: 2
#     Edge 33, Type (0, 0), BuildingBlock: OJICUG_clean_linker_0, # of connection points: 2
#     Edge 34, Type (0, 0), BuildingBlock: OJICUG_clean_linker_0, # of connection points: 2
#     Edge 35, Type (0, 0), BuildingBlock: OJICUG_clean_linker_0, # of connection points: 2
#     Edge 36, Type (0, 0), BuildingBlock: OJICUG_clean_linker_0, # of connection points: 2
#     Edge 37, Type (0, 0), BuildingBlock: OJICUG_clean_linker_0, # of connection points: 2
#     Edge 38, Type (0, 0), BuildingBlock: OJICUG_clean_linker_0, # of connection points: 2
#     Edge 39, Type (0, 0), BuildingBlock: OJICUG_clean_linker_0, # of connection points: 2
#     Edge 40, Type (0, 0), BuildingBlock: OJICUG_clean_linker_0, # of connection points: 2
#     Edge 41, Type (0, 0), BuildingBlock: OJICUG_clean_linker_0, # of connection points: 2
#     Edge 42, Type (0, 0), BuildingBlock: OJICUG_clean_linker_0, # of connection points: 2
#     Edge 43, Type (0, 0), BuildingBlock: OJICUG_clean_linker_0, # of connection points: 2
#     Edge 44, Type (0, 0), BuildingBlock: OJICUG_clean_linker_0, # of connection points: 2
#     Edge 45, Type (0, 0), BuildingBlock: OJICUG_clean_linker_0, # of connection points: 2
#     Edge 46, Type (0, 0), BuildingBlock: OJICUG_clean_linker_0, # of connection points: 2
#     Edge 47, Type (0, 0), BuildingBlock: OJICUG_clean_linker_0, # of connection points: 2
#     Edge 48, Type (0, 0), BuildingBlock: OJICUG_clean_linker_0, # of connection points: 2
#     Edge 49, Type (0, 0), BuildingBlock: OJICUG_clean_linker_0, # of connection points: 2
#     Edge 50, Type (0, 0), BuildingBlock: OJICUG_clean_linker_0, # of connection points: 2
#     Edge 51, Type (0, 0), BuildingBlock: OJICUG_clean_linker_0, # of connection points: 2
#     Edge 52, Type (0, 0), BuildingBlock: OJICUG_clean_linker_0, # of connection points: 2
#     Edge 53, Type (0, 0), BuildingBlock: OJICUG_clean_linker_0, # of connection points: 2
#     Edge 54, Type (0, 0), BuildingBlock: OJICUG_clean_linker_0, # of connection points: 2
#     Edge 55, Type (0, 0), BuildingBlock: OJICUG_clean_linker_0, # of connection points: 2
#     Edge 56, Type (0, 0), BuildingBlock: OJICUG_clean_linker_0, # of connection points: 2
#     Edge 57, Type (0, 0), BuildingBlock: OJICUG_clean_linker_0, # of connection points: 2
#     Edge 58, Type (0, 0), BuildingBlock: OJICUG_clean_linker_0, # of connection points: 2
#     Edge 59, Type (0, 0), BuildingBlock: OJICUG_clean_linker_0, # of connection points: 2
# Relax obj value: 0.346
# Max RMSD: 0.277
# Mean RMSD: 0.277
data_MOF--net-ecs--node1-TAGTUT_clean_sbu_3--edge1-OJICUG_clean_linker_0
_symmetry_space_group_name_H-M    P1
_symmetry_Int_Tables_number       1
_symmetry_cell_setting            triclinic
loop_
_symmetry_equiv_pos_as_xyz
'x, y, z'
_cell_length_a     39.309995
_cell_length_b     39.313123
_cell_length_c     21.212172
_cell_angle_alpha  89.998458
_cell_angle_beta   90.006611
_cell_angle_gamma 120.00052
loop_
_atom_site_label
_atom_site_type_symbol
_atom_site_fract_x
_atom_site_fract_y
_atom_site_fract_z
_atom_type_partial_charge
C0 C 0.42638 0.26958 0.07758 0.0
C1 C 0.46766 0.39534 0.94018 0.0
C2 C 0.46332 0.44358 0.10059 0.0
Mg3 Mg 0.43784 0.26388 0.2273 0.0
Mg4 Mg 0.51854 0.32912 0.29794 0.0
O5 O 0.47371 0.32023 0.25289 0.0
Mg6 Mg 0.47979 0.34486 0.16732 0.0
O7 O 0.4802 0.36459 0.07899 0.0
Mg8 Mg 0.42177 0.34994 0.07175 0.0
Mg9 Mg 0.51462 0.41784 0.06905 0.0
C10 C 0.53938 0.41646 0.25978 0.0
O11 O 0.54508 0.36018 0.15296 0.0
O12 O 0.43312 0.24873 0.33334 0.0
O13 O 0.56607 0.41752 0.10171 0.0
O14 O 0.48836 0.2506 0.21585 0.0
O15 O 0.48802 0.295 0.38097 0.0
O16 O 0.54512 0.29996 0.25031 0.0
O17 O 0.41811 0.33579 0.1779 0.0
O18 O 0.389 0.28113 0.2354 0.0
C19 C 0.38842 0.31015 0.20871 0.0
C20 C 0.45425 0.26354 0.38294 0.0
O21 O 0.51186 0.40499 0.21824 0.0
O22 O 0.43619 0.36795 0.96595 0.0
O23 O 0.54722 0.39278 0.28999 0.0
O24 O 0.43087 0.41239 0.08966 0.0
O25 O 0.49917 0.41742 0.97128 0.0
O26 O 0.48877 0.44005 0.1315 0.0
O27 O 0.45002 0.28438 0.124 0.0
O28 O 0.41198 0.28871 0.05084 0.0
C29 C 0.52559 0.26693 0.22275 0.0
C30 C 0.57295 0.39306 0.13107 0.0
C31 C 0.71945 0.15466 0.07787 0.0
C32 C 0.59392 0.07059 0.9398 0.0
C33 C 0.54527 0.01784 0.09985 0.0
Mg34 Mg 0.72496 0.17164 0.2276 0.0
Mg35 Mg 0.65974 0.18719 0.29802 0.0
O36 O 0.66857 0.15121 0.25301 0.0
Mg37 Mg 0.64405 0.13281 0.16732 0.0
O38 O 0.62446 0.11365 0.07888 0.0
Mg39 Mg 0.639 0.06979 0.0716 0.0
Mg40 Mg 0.57126 0.09497 0.06856 0.0
C41 C 0.57238 0.12089 0.25948 0.0
O42 O 0.62887 0.1829 0.15301 0.0
O43 O 0.73999 0.18196 0.33369 0.0
O44 O 0.57164 0.14673 0.10137 0.0
O45 O 0.73839 0.23547 0.21622 0.0
O46 O 0.69376 0.19071 0.38115 0.0
O47 O 0.68902 0.24293 0.2504 0.0
O48 O 0.65297 0.0801 0.17785 0.0
O49 O 0.70757 0.10552 0.23554 0.0
C50 C 0.67855 0.07598 0.20875 0.0
C51 C 0.72518 0.18833 0.38323 0.0
O52 O 0.58383 0.1048 0.21797 0.0
O53 O 0.6212 0.06637 0.96571 0.0
O54 O 0.59609 0.15235 0.28981 0.0
O55 O 0.57645 0.01652 0.08915 0.0
O56 O 0.57185 0.08007 0.97079 0.0
O57 O 0.54878 0.0468 0.1308 0.0
O58 O 0.7046 0.16347 0.12424 0.0
O59 O 0.70031 0.12116 0.05103 0.0
C60 C 0.72208 0.2564 0.22299 0.0
C61 C 0.59605 0.17798 0.13096 0.0
C62 C 0.91285 0.60024 0.20871 0.0
C63 C 0.80031 0.5345 0.38283 0.0
C64 C 0.73241 0.46328 0.22257 0.0
Mg65 Mg 0.9194 0.56688 0.07192 0.0
Mg66 Mg 0.89431 0.47401 0.06908 0.0
O67 O 0.87553 0.50847 0.07901 0.0
Mg68 Mg 0.85613 0.50888 0.16729 0.0
O69 O 0.83756 0.51499 0.25283 0.0
Mg70 Mg 0.81718 0.55094 0.22725 0.0
Mg71 Mg 0.80156 0.47018 0.29784 0.0
C72 C 0.81116 0.41574 0.13103 0.0
O73 O 0.88411 0.47675 0.21826 0.0
O74 O 0.92312 0.55251 0.96613 0.0
O75 O 0.83645 0.44141 0.2899 0.0
O76 O 0.97269 0.55772 0.0901 0.0
O77 O 0.90943 0.48947 0.97135 0.0
O78 O 0.94234 0.49975 0.13166 0.0
O79 O 0.82542 0.53872 0.12391 0.0
O80 O 0.868 0.57666 0.05082 0.0
C81 C 0.83442 0.56233 0.0774 0.0
C82 C 0.91897 0.52102 0.94031 0.0
O83 O 0.80614 0.44361 0.15288 0.0
O84 O 0.80673 0.55567 0.33326 0.0
O85 O 0.8425 0.4226 0.1017 0.0
O86 O 0.75334 0.50051 0.21575 0.0
O87 O 0.79794 0.50071 0.38086 0.0
O88 O 0.74585 0.44369 0.25008 0.0
O89 O 0.90866 0.57048 0.17795 0.0
O90 O 0.88331 0.59976 0.23542 0.0
C91 C 0.97137 0.52523 0.10088 0.0
C92 C 0.86796 0.44919 0.25974 0.0
C93 C 0.26765 0.42845 0.40924 0.0
C94 C 0.39367 0.46996 0.54592 0.0
C95 C 0.44171 0.46562 0.3853 0.0
Mg96 Mg 0.26161 0.43986 0.25956 0.0
Mg97 Mg 0.32672 0.52063 0.18885 0.0
O98 O 0.31791 0.47579 0.23375 0.0
Mg99 Mg 0.34272 0.4819 0.31917 0.0
O100 O 0.36267 0.48237 0.40732 0.0
Mg101 Mg 0.3481 0.42397 0.4145 0.0
Mg102 Mg 0.41593 0.51686 0.41705 0.0
C103 C 0.41413 0.54143 0.22648 0.0
O104 O 0.35804 0.54723 0.33362 0.0
O105 O 0.24626 0.43516 0.15357 0.0
O106 O 0.41548 0.56827 0.3846 0.0
O107 O 0.24825 0.49032 0.27126 0.0
O108 O 0.29244 0.4901 0.10594 0.0
O109 O 0.29754 0.54711 0.23675 0.0
O110 O 0.33369 0.42026 0.30846 0.0
O111 O 0.27892 0.39107 0.2512 0.0
C112 C 0.30801 0.39054 0.27774 0.0
C113 C 0.26099 0.45633 0.104 0.0
O114 O 0.40271 0.51392 0.26801 0.0
O115 O 0.3663 0.43845 0.52021 0.0
O116 O 0.39042 0.54932 0.19645 0.0
O117 O 0.41054 0.43313 0.39614 0.0
O118 O 0.41567 0.50147 0.51478 0.0
O119 O 0.43814 0.49107 0.35446 0.0
O120 O 0.28232 0.45208 0.36279 0.0
O121 O 0.28689 0.41411 0.4358 0.0
C122 C 0.26454 0.52754 0.2644 0.0
C123 C 0.39093 0.57511 0.35545 0.0
C124 C 0.59837 0.91515 0.27779 0.0
C125 C 0.53254 0.80222 0.10438 0.0
C126 C 0.46115 0.73472 0.26473 0.0
Mg127 Mg 0.56498 0.9222 0.41422 0.0
Mg128 Mg 0.47213 0.8973 0.41654 0.0
O129 O 0.50655 0.8784 0.4072 0.0
Mg130 Mg 0.50698 0.85867 0.31922 0.0
O131 O 0.51305 0.83979 0.23396 0.0
Mg132 Mg 0.54893 0.81942 0.25993 0.0
Mg133 Mg 0.46822 0.80381 0.18896 0.0
C134 C 0.41379 0.8139 0.35545 0.0
O135 O 0.47511 0.88667 0.26772 0.0
O136 O 0.55051 0.92622 0.51981 0.0
O137 O 0.43964 0.83894 0.19626 0.0
O138 O 0.55598 0.97553 0.39524 0.0
O139 O 0.48751 0.91263 0.51423 0.0
O140 O 0.49802 0.94515 0.35363 0.0
O141 O 0.5367 0.828 0.36316 0.0
O142 O 0.57463 0.8708 0.43603 0.0
C143 C 0.56029 0.83714 0.40974 0.0
C144 C 0.51901 0.92217 0.54543 0.0
O145 O 0.44165 0.80881 0.33379 0.0
O146 O 0.55366 0.80867 0.15402 0.0
O147 O 0.42067 0.84538 0.38432 0.0
O148 O 0.49838 0.75563 0.27171 0.0
O149 O 0.49879 0.79997 0.10619 0.0
O150 O 0.44164 0.74815 0.23692 0.0
O151 O 0.56861 0.91108 0.30839 0.0
O152 O 0.59786 0.88552 0.25135 0.0
C153 C 0.5235 0.97422 0.38433 0.0
C154 C 0.44761 0.8706 0.22616 0.0
C155 C 0.07369 0.68074 0.2778 0.0
C156 C 0.18674 0.72805 0.10452 0.0
C157 C 0.25418 0.72424 0.26495 0.0
Mg158 Mg 0.0667 0.64035 0.41427 0.0
Mg159 Mg 0.09173 0.5725 0.41673 0.0
O160 O 0.11056 0.62579 0.40728 0.0
Mg161 Mg 0.13026 0.64594 0.31928 0.0
O162 O 0.14911 0.6709 0.234 0.0
Mg163 Mg 0.16941 0.72715 0.26 0.0
Mg164 Mg 0.18519 0.66216 0.18912 0.0
C165 C 0.17511 0.5976 0.35551 0.0
O166 O 0.10236 0.58605 0.26783 0.0
O167 O 0.06271 0.6219 0.51988 0.0
O168 O 0.15018 0.59845 0.19647 0.0
O169 O 0.01342 0.57797 0.39532 0.0
O170 O 0.07641 0.57257 0.51442 0.0
O171 O 0.04387 0.55043 0.35383 0.0
O172 O 0.16084 0.70632 0.36319 0.0
O173 O 0.11805 0.70143 0.43606 0.0
C174 C 0.1517 0.72077 0.40976 0.0
C175 C 0.06682 0.59451 0.54556 0.0
O176 O 0.18019 0.63055 0.33385 0.0
O177 O 0.18021 0.74267 0.15413 0.0
O178 O 0.14366 0.57301 0.38445 0.0
O179 O 0.23322 0.7405 0.27184 0.0
O180 O 0.18904 0.69658 0.10635 0.0
O181 O 0.2408 0.69128 0.23719 0.0
O182 O 0.07779 0.65508 0.30842 0.0
O183 O 0.10331 0.70988 0.25138 0.0
C184 C 0.01478 0.54682 0.3845 0.0
C185 C 0.11854 0.57469 0.22635 0.0
C186 C 0.56038 0.72091 0.90974 0.0
C187 C 0.51886 0.5947 0.04582 0.0
C188 C 0.52319 0.54691 0.88487 0.0
Mg189 Mg 0.54897 0.7272 0.76013 0.0
Mg190 Mg 0.46821 0.66223 0.68923 0.0
O191 O 0.51304 0.67094 0.73409 0.0
Mg192 Mg 0.50691 0.64599 0.81938 0.0
O193 O 0.50644 0.6259 0.90743 0.0
Mg194 Mg 0.56484 0.64045 0.91452 0.0
Mg195 Mg 0.47194 0.57263 0.91694 0.0
C196 C 0.4473 0.57474 0.7265 0.0
O197 O 0.4416 0.63068 0.83391 0.0
O198 O 0.55369 0.74274 0.65424 0.0
O199 O 0.42055 0.57315 0.88459 0.0
O200 O 0.49854 0.74056 0.77199 0.0
O201 O 0.49877 0.69662 0.60646 0.0
O202 O 0.44175 0.69136 0.73728 0.0
O203 O 0.56854 0.65502 0.80856 0.0
O204 O 0.59774 0.70989 0.75154 0.0
C205 C 0.59826 0.68075 0.7779 0.0
C206 C 0.53253 0.72809 0.60463 0.0
O207 O 0.47483 0.58608 0.76798 0.0
O208 O 0.55036 0.6221 0.02016 0.0
O209 O 0.43945 0.59852 0.6966 0.0
O210 O 0.55569 0.57805 0.89578 0.0
O211 O 0.48734 0.57274 0.01466 0.0
O212 O 0.49774 0.55054 0.85411 0.0
O213 O 0.53675 0.70631 0.86325 0.0
O214 O 0.57471 0.70162 0.93617 0.0
C215 C 0.46132 0.72431 0.76507 0.0
C216 C 0.41371 0.59774 0.8556 0.0
C217 C 0.30802 0.91515 0.77772 0.0
C218 C 0.26082 0.80215 0.60449 0.0
C219 C 0.26477 0.73473 0.76487 0.0
Mg220 Mg 0.34851 0.92226 0.91414 0.0
Mg221 Mg 0.41649 0.89743 0.91638 0.0
O222 O 0.36316 0.87848 0.90716 0.0
Mg223 Mg 0.34295 0.8587 0.81921 0.0
O224 O 0.31796 0.83978 0.73398 0.0
Mg225 Mg 0.26171 0.81943 0.76 0.0
Mg226 Mg 0.32676 0.80378 0.68901 0.0
C227 C 0.39139 0.81398 0.85548 0.0
O228 O 0.4028 0.88666 0.76766 0.0
O229 O 0.36708 0.92634 0.01971 0.0
O230 O 0.39048 0.83888 0.69628 0.0
O231 O 0.41081 0.9756 0.89502 0.0
O232 O 0.41653 0.91282 0.01406 0.0
O233 O 0.43836 0.94522 0.85336 0.0
O234 O 0.28259 0.82806 0.8632 0.0
O235 O 0.28747 0.87086 0.93607 0.0
C236 C 0.26815 0.83719 0.90979 0.0
C237 C 0.39457 0.92234 0.04529 0.0
O238 O 0.35842 0.80886 0.83384 0.0
O239 O 0.24617 0.80862 0.65414 0.0
O240 O 0.41602 0.84549 0.88425 0.0
O241 O 0.24847 0.75565 0.77185 0.0
O242 O 0.29232 0.79991 0.60628 0.0
O243 O 0.2977 0.74814 0.73703 0.0
O244 O 0.33371 0.91109 0.80833 0.0
O245 O 0.27888 0.88551 0.75133 0.0
C246 C 0.44198 0.97431 0.88402 0.0
C247 C 0.4142 0.87055 0.72613 0.0
C248 C 0.15193 0.42848 0.90922 0.0
C249 C 0.06731 0.46993 0.04573 0.0
C250 C 0.01499 0.46559 0.88503 0.0
Mg251 Mg 0.16946 0.43995 0.75956 0.0
Mg252 Mg 0.1851 0.52071 0.68881 0.0
O253 O 0.14908 0.47586 0.73372 0.0
Mg254 Mg 0.13033 0.48194 0.8191 0.0
O255 O 0.1108 0.48238 0.90722 0.0
Mg256 Mg 0.06698 0.42397 0.91434 0.0
Mg257 Mg 0.092 0.51685 0.91689 0.0
C258 C 0.11843 0.54144 0.72636 0.0
O259 O 0.18031 0.54725 0.83364 0.0
O260 O 0.18012 0.43526 0.65359 0.0
O261 O 0.14388 0.56827 0.88453 0.0
O262 O 0.23327 0.49043 0.77131 0.0
O263 O 0.18884 0.49017 0.60591 0.0
O264 O 0.24078 0.54721 0.73673 0.0
O265 O 0.07774 0.4203 0.80832 0.0
O266 O 0.10337 0.39115 0.7511 0.0
C267 C 0.07374 0.3906 0.77759 0.0
C268 C 0.18655 0.45641 0.60399 0.0
O269 O 0.10236 0.51393 0.76789 0.0
O270 O 0.06322 0.43843 0.02003 0.0
O271 O 0.15004 0.54936 0.69635 0.0
O272 O 0.01369 0.43311 0.89589 0.0
O273 O 0.07682 0.50144 0.01459 0.0
O274 O 0.04402 0.49106 0.85424 0.0
O275 O 0.16091 0.45213 0.86278 0.0
O276 O 0.11833 0.41413 0.93572 0.0
C277 C 0.2542 0.52765 0.76443 0.0
C278 C 0.1753 0.57513 0.85546 0.0
C279 C 0.67861 0.60032 0.70868 0.0
C280 C 0.72532 0.53453 0.88283 0.0
C281 C 0.72191 0.46324 0.72259 0.0
Mg282 Mg 0.63862 0.56696 0.57193 0.0
Mg283 Mg 0.57075 0.47412 0.56925 0.0
O284 O 0.62403 0.50854 0.57903 0.0
Mg285 Mg 0.64387 0.50895 0.66729 0.0
O286 O 0.66856 0.51503 0.75281 0.0
Mg287 Mg 0.7249 0.55095 0.72723 0.0
Mg288 Mg 0.65972 0.47023 0.79785 0.0
C289 C 0.59562 0.41581 0.63105 0.0
O290 O 0.58377 0.47686 0.7183 0.0
O291 O 0.62045 0.55254 0.46617 0.0
O292 O 0.59606 0.44149 0.78993 0.0
O293 O 0.5762 0.55787 0.5902 0.0
O294 O 0.57102 0.48955 0.47152 0.0
O295 O 0.54859 0.49994 0.63189 0.0
O296 O 0.7044 0.53873 0.62388 0.0
O297 O 0.69977 0.57667 0.55077 0.0
C298 C 0.71901 0.56233 0.57736 0.0
C299 C 0.59305 0.52107 0.44042 0.0
O300 O 0.62853 0.44366 0.65286 0.0
O301 O 0.74008 0.55567 0.83324 0.0
O302 O 0.57113 0.42268 0.6018 0.0
O303 O 0.73822 0.50047 0.71574 0.0
O304 O 0.69388 0.50075 0.88086 0.0
O305 O 0.68888 0.44368 0.75014 0.0
O306 O 0.65301 0.57057 0.67794 0.0
O307 O 0.70766 0.59982 0.73539 0.0
C308 C 0.54502 0.5254 0.6011 0.0
C309 C 0.57235 0.44931 0.75977 0.0
C310 C 0.38864 0.07599 0.70866 0.0
C311 C 0.45438 0.18841 0.8831 0.0
C312 C 0.52547 0.25644 0.7228 0.0
Mg313 Mg 0.422 0.06964 0.57172 0.0
Mg314 Mg 0.51493 0.09489 0.56869 0.0
O315 O 0.4804 0.11356 0.57886 0.0
Mg316 Mg 0.47998 0.13284 0.66724 0.0
O317 O 0.47387 0.15128 0.75289 0.0
Mg318 Mg 0.43786 0.17163 0.72749 0.0
Mg319 Mg 0.51868 0.18729 0.79788 0.0
C320 C 0.57314 0.17795 0.63094 0.0
O321 O 0.51221 0.10488 0.71798 0.0
O322 O 0.43636 0.06607 0.46585 0.0
O323 O 0.54753 0.15249 0.78971 0.0
O324 O 0.43129 0.0164 0.58958 0.0
O325 O 0.49945 0.07988 0.47095 0.0
O326 O 0.48929 0.04679 0.63108 0.0
O327 O 0.45006 0.16353 0.62406 0.0
O328 O 0.41212 0.12099 0.55092 0.0
C329 C 0.42642 0.15454 0.57759 0.0
C330 C 0.46786 0.07031 0.43996 0.0
O331 O 0.54525 0.18291 0.65289 0.0
O332 O 0.43317 0.18198 0.83358 0.0
O333 O 0.56631 0.14668 0.60143 0.0
O334 O 0.48824 0.23549 0.71608 0.0
O335 O 0.4882 0.19084 0.88102 0.0
O336 O 0.54511 0.243 0.75019 0.0
O337 O 0.4184 0.08023 0.67783 0.0
O338 O 0.3891 0.10549 0.73549 0.0
C339 C 0.46383 0.01778 0.60023 0.0
C340 C 0.53978 0.12102 0.75943 0.0
C341 C 0.91285 0.31023 0.70883 0.0
C342 C 0.80059 0.26379 0.88343 0.0
C343 C 0.73247 0.26689 0.7232 0.0
Mg344 Mg 0.91919 0.34992 0.57188 0.0
Mg345 Mg 0.8941 0.4177 0.56894 0.0
O346 O 0.87533 0.36448 0.57905 0.0
Mg347 Mg 0.85607 0.34482 0.66744 0.0
O348 O 0.83764 0.32031 0.75311 0.0
Mg349 Mg 0.81721 0.26393 0.72778 0.0
Mg350 Mg 0.80172 0.32921 0.79818 0.0
C351 C 0.81103 0.39293 0.63107 0.0
O352 O 0.88417 0.40501 0.71817 0.0
O353 O 0.92275 0.36785 0.46603 0.0
O354 O 0.83665 0.39285 0.79 0.0
O355 O 0.97251 0.41241 0.5897 0.0
O356 O 0.90909 0.41722 0.4712 0.0
O357 O 0.94223 0.4401 0.6313 0.0
O358 O 0.82528 0.2842 0.62432 0.0
O359 O 0.86775 0.28871 0.55114 0.0
C360 C 0.83422 0.26951 0.57784 0.0
C361 C 0.91858 0.39517 0.44017 0.0
O362 O 0.80606 0.36009 0.65308 0.0
O363 O 0.80693 0.24896 0.83389 0.0
O364 O 0.84233 0.41736 0.60161 0.0
O365 O 0.75337 0.25056 0.71644 0.0
O366 O 0.7982 0.2952 0.88134 0.0
O367 O 0.74596 0.29997 0.75059 0.0
O368 O 0.90862 0.33575 0.67799 0.0
O369 O 0.88334 0.28122 0.73571 0.0
C370 C 0.9712 0.4436 0.60042 0.0
C371 C 0.86813 0.41651 0.75969 0.0
C372 C 0.58562 0.25959 0.20941 0.0
C373 C 0.54598 0.24712 0.19591 0.0
H374 H 0.63319 0.24792 0.19872 0.0
C375 C 0.52513 0.21474 0.15606 0.0
H376 H 0.60266 0.28477 0.2395 0.0
C377 C 0.54274 0.19454 0.1318 0.0
C378 C 0.5816 0.20525 0.14787 0.0
H379 H 0.49468 0.20425 0.14426 0.0
H380 H 0.52486 0.16922 0.10242 0.0
C381 C 0.60321 0.23861 0.18589 0.0
C382 C 0.75043 0.36228 0.18572 0.0
C383 C 0.7839 0.37403 0.14797 0.0
H384 H 0.70416 0.31559 0.2392 0.0
C385 C 0.79469 0.34591 0.13221 0.0
H386 H 0.74107 0.38295 0.1983 0.0
C387 C 0.77446 0.30812 0.15654 0.0
C388 C 0.74196 0.29658 0.19614 0.0
H389 H 0.82009 0.35335 0.10305 0.0
H390 H 0.785 0.28817 0.14498 0.0
C391 C 0.72943 0.32374 0.20932 0.0
C392 C 0.66503 0.40331 0.20909 0.0
C393 C 0.69221 0.44297 0.19575 0.0
H394 H 0.60577 0.35578 0.19832 0.0
C395 C 0.68065 0.4639 0.15612 0.0
H396 H 0.67318 0.3862 0.239 0.0
C397 C 0.64282 0.44637 0.13194 0.0
C398 C 0.61468 0.40748 0.14787 0.0
H399 H 0.70062 0.49437 0.14443 0.0
H400 H 0.63537 0.46431 0.10276 0.0
C401 C 0.62645 0.38578 0.18563 0.0
C402 C 0.19203 0.54454 0.35532 0.0
C403 C 0.20256 0.58331 0.33894 0.0
H404 H 0.20199 0.49662 0.34319 0.0
C405 C 0.2359 0.60494 0.30089 0.0
H406 H 0.16676 0.52667 0.38478 0.0
C407 C 0.25699 0.58744 0.27754 0.0
C408 C 0.24468 0.54787 0.29125 0.0
H409 H 0.24505 0.63485 0.28782 0.0
H410 H 0.28213 0.60448 0.24735 0.0
C411 C 0.21235 0.52702 0.33122 0.0
C412 C 0.44392 0.64514 0.35573 0.0
C413 C 0.40523 0.61687 0.33896 0.0
H414 H 0.49183 0.70307 0.34403 0.0
C415 C 0.3837 0.62858 0.30066 0.0
H416 H 0.46171 0.63775 0.38542 0.0
C417 C 0.40124 0.66721 0.27743 0.0
C418 C 0.44075 0.69451 0.29152 0.0
H419 H 0.35386 0.60782 0.28728 0.0
H420 H 0.38429 0.67531 0.24703 0.0
C421 C 0.46148 0.68302 0.33176 0.0
C422 C 0.30587 0.77644 0.33174 0.0
C423 C 0.29439 0.74412 0.29176 0.0
H424 H 0.35117 0.82212 0.38512 0.0
C425 C 0.32168 0.73188 0.27788 0.0
H426 H 0.28581 0.78676 0.34384 0.0
C427 C 0.36032 0.75305 0.30107 0.0
C428 C 0.37203 0.7864 0.33908 0.0
H429 H 0.31359 0.70675 0.24769 0.0
H430 H 0.38109 0.74394 0.28787 0.0
C431 C 0.34376 0.79685 0.35566 0.0
C432 C 0.40147 0.73195 0.77795 0.0
C433 C 0.441 0.74419 0.79187 0.0
H434 H 0.35413 0.74403 0.78787 0.0
C435 C 0.46183 0.77649 0.83189 0.0
H436 H 0.38444 0.70684 0.74772 0.0
C437 C 0.44434 0.79689 0.8558 0.0
C438 C 0.40563 0.78646 0.83917 0.0
H439 H 0.4922 0.78679 0.84402 0.0
H440 H 0.4622 0.82215 0.88529 0.0
C441 C 0.384 0.75312 0.80111 0.0
C442 C 0.23604 0.6286 0.80081 0.0
C443 C 0.20278 0.61688 0.83904 0.0
H444 H 0.28222 0.67532 0.74725 0.0
C445 C 0.19238 0.64516 0.85581 0.0
H446 H 0.24512 0.60783 0.78746 0.0
C447 C 0.21272 0.68305 0.83187 0.0
C448 C 0.24495 0.69453 0.79168 0.0
H449 H 0.16718 0.63776 0.88545 0.0
H450 H 0.20243 0.7031 0.84411 0.0
C451 C 0.25716 0.66723 0.77761 0.0
C452 C 0.30586 0.52717 0.83134 0.0
C453 C 0.29439 0.548 0.7913 0.0
H454 H 0.35109 0.52684 0.88498 0.0
C455 C 0.32167 0.58756 0.77751 0.0
H456 H 0.28582 0.49678 0.84337 0.0
C457 C 0.36027 0.60506 0.80088 0.0
C458 C 0.37197 0.58345 0.83901 0.0
H459 H 0.31358 0.60458 0.74727 0.0
H460 H 0.38103 0.63496 0.78775 0.0
C461 C 0.34371 0.5447 0.85546 0.0
C462 C 0.7742 0.46379 0.65604 0.0
C463 C 0.74175 0.44289 0.69577 0.0
H464 H 0.81982 0.46414 0.6026 0.0
C465 C 0.72928 0.40325 0.70918 0.0
H466 H 0.78469 0.49424 0.64429 0.0
C467 C 0.7503 0.38569 0.68573 0.0
C468 C 0.78373 0.40736 0.64788 0.0
H469 H 0.70405 0.38617 0.73917 0.0
H470 H 0.74099 0.3557 0.69849 0.0
C471 C 0.79445 0.44622 0.63185 0.0
C472 C 0.54227 0.34596 0.63218 0.0
C473 C 0.5812 0.37409 0.6479 0.0
H474 H 0.49426 0.2882 0.6449 0.0
C475 C 0.60296 0.36234 0.68556 0.0
H476 H 0.52429 0.35341 0.60309 0.0
C477 C 0.58544 0.32378 0.7091 0.0
C478 C 0.54575 0.29662 0.69596 0.0
H479 H 0.63299 0.383 0.6981 0.0
H480 H 0.6026 0.31564 0.73891 0.0
C481 C 0.52475 0.30816 0.65644 0.0
C482 C 0.6266 0.23863 0.6858 0.0
C483 C 0.61485 0.20519 0.64798 0.0
H484 H 0.67329 0.28486 0.73938 0.0
C485 C 0.64297 0.19438 0.63226 0.0
H486 H 0.60594 0.24801 0.69835 0.0
C487 C 0.68074 0.21457 0.65666 0.0
C488 C 0.69228 0.24705 0.6963 0.0
H489 H 0.63553 0.16899 0.60306 0.0
H490 H 0.70068 0.20402 0.64511 0.0
C491 C 0.66514 0.2596 0.70946 0.0
C492 C 0.46713 0.49586 0.94894 0.0
C493 C 0.50793 0.51867 0.938 0.0
H494 H 0.42119 0.45556 0.00965 0.0
C495 C 0.53381 0.51753 0.98234 0.0
H496 H 0.44616 0.49602 0.91602 0.0
C497 C 0.51936 0.49458 0.03644 0.0
C498 C 0.47857 0.47177 0.04739 0.0
H499 H 0.56531 0.53486 0.97573 0.0
H500 H 0.54034 0.49442 0.06937 0.0
C501 C 0.45269 0.47289 0.00304 0.0
C502 C 0.4944 0.02298 0.03547 0.0
C503 C 0.51719 0.00499 0.04649 0.0
H504 H 0.4541 0.02861 0.9747 0.0
C505 C 0.51611 0.97801 0.00215 0.0
H506 H 0.49454 0.04412 0.06837 0.0
C507 C 0.49315 0.96947 0.94804 0.0
C508 C 0.4703 0.98741 0.93707 0.0
H509 H 0.53344 0.96385 0.0088 0.0
H510 H 0.493 0.94833 0.91515 0.0
C511 C 0.47145 0.01446 0.98134 0.0
C512 C 0.01139 0.53595 0.0034 0.0
C513 C 0.98435 0.51003 0.04765 0.0
H514 H 0.04113 0.54258 0.91644 0.0
C515 C 0.96637 0.46925 0.03659 0.0
H516 H 0.02556 0.56744 0.01011 0.0
C517 C 0.97493 0.45486 0.98246 0.0
C518 C 0.00199 0.48079 0.93822 0.0
H519 H 0.94521 0.44824 0.06944 0.0
H520 H 0.96077 0.42337 0.97576 0.0
C521 C 0.01996 0.52157 0.94929 0.0
C522 C 0.4927 0.52164 0.44953 0.0
C523 C 0.46989 0.48085 0.43853 0.0
H524 H 0.533 0.56756 0.51027 0.0
C525 C 0.47101 0.45496 0.48285 0.0
H526 H 0.49254 0.54263 0.41662 0.0
C527 C 0.49397 0.46939 0.53696 0.0
C528 C 0.51679 0.51017 0.54794 0.0
H529 H 0.45368 0.42346 0.47621 0.0
H530 H 0.49412 0.4484 0.56986 0.0
C531 C 0.51566 0.53607 0.50364 0.0
C532 C 0.53421 0.01433 0.48171 0.0
C533 C 0.5083 0.98728 0.43745 0.0
H534 H 0.54083 0.04403 0.56871 0.0
C535 C 0.46751 0.96933 0.44847 0.0
H536 H 0.56571 0.02849 0.47503 0.0
C537 C 0.45311 0.97789 0.50259 0.0
C538 C 0.47903 0.0049 0.54689 0.0
H539 H 0.4465 0.94817 0.4156 0.0
H540 H 0.42162 0.96372 0.50927 0.0
C541 C 0.51982 0.02288 0.53583 0.0
C542 C 0.96615 0.49452 0.53605 0.0
C543 C 0.98413 0.47172 0.54711 0.0
H544 H 0.96054 0.5348 0.47523 0.0
C545 C 0.01114 0.47281 0.50283 0.0
H546 H 0.945 0.49439 0.56892 0.0
C547 C 0.0197 0.49576 0.4487 0.0
C548 C 0.00175 0.51859 0.43767 0.0
H549 H 0.0253 0.45547 0.50952 0.0
H550 H 0.04085 0.4959 0.41584 0.0
C551 C 0.9747 0.51746 0.48192 0.0
C552 C 0.48547 0.37334 0.84534 0.0
C553 C 0.47228 0.39741 0.87152 0.0
H554 H 0.52903 0.37176 0.787 0.0
C555 C 0.48221 0.43302 0.84153 0.0
H556 H 0.47804 0.34558 0.86737 0.0
C557 C 0.51182 0.44842 0.79586 0.0
C558 C 0.53107 0.42773 0.77994 0.0
H559 H 0.47116 0.4513 0.85936 0.0
H560 H 0.52309 0.47838 0.78006 0.0
C561 C 0.51513 0.38862 0.79999 0.0
C562 C 0.55635 0.04735 0.8411 0.0
C563 C 0.59193 0.07313 0.87112 0.0
H564 H 0.51093 0.0427 0.77962 0.0
C565 C 0.61593 0.11039 0.84491 0.0
H566 H 0.53815 0.01802 0.85896 0.0
C567 C 0.60058 0.12468 0.79951 0.0
C568 C 0.56147 0.10141 0.77947 0.0
H569 H 0.64366 0.13079 0.86695 0.0
H570 H 0.61736 0.15544 0.7865 0.0
C571 C 0.54089 0.06147 0.7954 0.0
C572 C 0.86482 0.47381 0.79988 0.0
C573 C 0.88793 0.45779 0.77983 0.0
H574 H 0.85892 0.51087 0.86734 0.0
C575 C 0.92785 0.47692 0.79587 0.0
H576 H 0.83408 0.45999 0.7868 0.0
C577 C 0.94209 0.50647 0.84166 0.0
C578 C 0.91644 0.51645 0.87163 0.0
H579 H 0.94648 0.46558 0.78007 0.0
H580 H 0.97137 0.51739 0.85956 0.0
C581 C 0.87923 0.50341 0.84534 0.0
C582 C 0.4466 0.51433 0.69026 0.0
C583 C 0.42584 0.53353 0.70601 0.0
H584 H 0.44967 0.47371 0.62695 0.0
C585 C 0.38674 0.51754 0.6858 0.0
H586 H 0.47655 0.52565 0.70622 0.0
C587 C 0.37154 0.48781 0.64054 0.0
C588 C 0.3957 0.47465 0.61456 0.0
H589 H 0.36983 0.53139 0.69867 0.0
H590 H 0.34379 0.48031 0.61844 0.0
C591 C 0.43131 0.48469 0.64465 0.0
C592 C 0.4744 0.93043 0.68976 0.0
C593 C 0.4554 0.89047 0.70553 0.0
H594 H 0.51487 0.97422 0.62642 0.0
C595 C 0.47156 0.86753 0.68529 0.0
H596 H 0.46294 0.94893 0.70572 0.0
C597 C 0.50129 0.8822 0.64005 0.0
C598 C 0.51427 0.91947 0.61406 0.0
H599 H 0.45785 0.83677 0.69817 0.0
H600 H 0.50894 0.86205 0.61795 0.0
C601 C 0.50404 0.94491 0.64413 0.0
C602 C 0.05854 0.54173 0.69002 0.0
C603 C 0.09849 0.56271 0.70583 0.0
H604 H 0.01475 0.53833 0.62657 0.0
C605 C 0.12142 0.6018 0.68556 0.0
H606 H 0.04004 0.51177 0.706 0.0
C607 C 0.10675 0.61683 0.64023 0.0
C608 C 0.06949 0.59249 0.61421 0.0
H609 H 0.15217 0.61887 0.69847 0.0
H610 H 0.1269 0.64461 0.61811 0.0
C611 C 0.04406 0.55684 0.6443 0.0
C612 C 0.4744 0.54186 0.19023 0.0
C613 C 0.45535 0.56277 0.20603 0.0
H614 H 0.51485 0.53857 0.12681 0.0
C615 C 0.47147 0.60186 0.1858 0.0
H616 H 0.46297 0.5119 0.20619 0.0
C617 C 0.50116 0.61694 0.14049 0.0
C618 C 0.51415 0.59267 0.11447 0.0
H619 H 0.45773 0.61888 0.1987 0.0
H620 H 0.50876 0.64472 0.11839 0.0
C621 C 0.504 0.55703 0.14455 0.0
C622 C 0.43233 0.94502 0.14395 0.0
C623 C 0.39663 0.91962 0.11392 0.0
H624 H 0.4774 0.949 0.2056 0.0
C625 C 0.37227 0.88237 0.13997 0.0
H626 H 0.45084 0.97431 0.12619 0.0
C627 C 0.38729 0.86769 0.18528 0.0
C628 C 0.4264 0.89058 0.20552 0.0
H629 H 0.34446 0.86226 0.11788 0.0
H630 H 0.37019 0.83694 0.1982 0.0
C631 C 0.44742 0.93052 0.18966 0.0
C632 C 0.04443 0.48471 0.14438 0.0
C633 C 0.06999 0.47463 0.11437 0.0
H634 H 0.04017 0.52569 0.2059 0.0
C635 C 0.10727 0.48773 0.14043 0.0
H636 H 0.0151 0.47376 0.12661 0.0
C637 C 0.12181 0.51744 0.1857 0.0
C638 C 0.09874 0.53348 0.20585 0.0
H639 H 0.1275 0.48018 0.11837 0.0
H640 H 0.15257 0.53126 0.19862 0.0
C641 C 0.05878 0.51434 0.19002 0.0
C642 C 0.59997 0.47376 0.3001 0.0
C643 C 0.56084 0.45772 0.28002 0.0
H644 H 0.64294 0.51088 0.36752 0.0
C645 C 0.54004 0.47684 0.29603 0.0
H646 H 0.6169 0.45995 0.28704 0.0
C647 C 0.55533 0.50641 0.34178 0.0
C648 C 0.59098 0.51643 0.37175 0.0
H649 H 0.51006 0.46549 0.28021 0.0
H650 H 0.53697 0.51733 0.35965 0.0
C651 C 0.61516 0.50339 0.34551 0.0
C652 C 0.48224 0.04711 0.34125 0.0
C653 C 0.47239 0.07284 0.37127 0.0
H654 H 0.52305 0.04256 0.27972 0.0
C655 C 0.48557 0.11009 0.34504 0.0
H656 H 0.47119 0.0178 0.35912 0.0
C657 C 0.51518 0.12442 0.2996 0.0
C658 C 0.53108 0.10121 0.27955 0.0
H659 H 0.47819 0.13045 0.36708 0.0
H660 H 0.5291 0.15517 0.28658 0.0
C661 C 0.51181 0.06128 0.29551 0.0
C662 C 0.8644 0.38847 0.29995 0.0
C663 C 0.88763 0.42758 0.27991 0.0
H664 H 0.85838 0.34541 0.36731 0.0
C665 C 0.92757 0.44821 0.29584 0.0
H666 H 0.83365 0.37166 0.28693 0.0
C667 C 0.94175 0.43278 0.3415 0.0
C668 C 0.91602 0.39718 0.3715 0.0
H669 H 0.94629 0.47817 0.28003 0.0
H670 H 0.97108 0.45103 0.35934 0.0
C671 C 0.87875 0.37315 0.34529 0.0
C672 C 0.3219 0.35324 0.19682 0.0
C673 C 0.31801 0.36016 0.26069 0.0
H674 H 0.34804 0.33207 0.12997 0.0
C675 C 0.33181 0.34445 0.30693 0.0
H676 H 0.31228 0.3658 0.16027 0.0
C677 C 0.35101 0.32394 0.28956 0.0
C678 C 0.35803 0.32015 0.2257 0.0
H679 H 0.32975 0.35 0.35642 0.0
H680 H 0.36349 0.31425 0.32613 0.0
C681 C 0.34241 0.33405 0.17945 0.0
C682 C 0.64458 0.98503 0.30684 0.0
C683 C 0.62869 0.95553 0.26061 0.0
H684 H 0.67486 0.0469 0.32605 0.0
C685 C 0.63531 0.96634 0.19672 0.0
H686 H 0.63924 0.97741 0.35635 0.0
C687 C 0.65442 0.00604 0.17937 0.0
C688 C 0.66851 0.03555 0.22562 0.0
H689 H 0.6226 0.94416 0.1602 0.0
H690 H 0.65619 0.01365 0.12991 0.0
C691 C 0.665 0.02474 0.28946 0.0
C692 C 0.0038 0.65701 0.30687 0.0
C693 C 0.0333 0.67067 0.26065 0.0
H694 H 0.94192 0.62544 0.32605 0.0
C695 C 0.0225 0.66657 0.19675 0.0
H696 H 0.01141 0.65923 0.35638 0.0
C697 C 0.9828 0.64602 0.17938 0.0
C698 C 0.95329 0.63058 0.22563 0.0
H699 H 0.04468 0.67607 0.16023 0.0
H700 H 0.97519 0.64026 0.12991 0.0
C701 C 0.9641 0.63778 0.28948 0.0
C702 C 0.64452 0.65714 0.80688 0.0
C703 C 0.62862 0.67075 0.76069 0.0
H704 H 0.67486 0.62559 0.82602 0.0
C705 C 0.63528 0.66664 0.69678 0.0
H706 H 0.63916 0.65936 0.8564 0.0
C707 C 0.65444 0.64611 0.67938 0.0
C708 C 0.66854 0.63068 0.7256 0.0
H709 H 0.62256 0.67611 0.66028 0.0
H710 H 0.65624 0.64032 0.62991 0.0
C711 C 0.665 0.63792 0.78946 0.0
C712 C 0.32239 0.96632 0.69657 0.0
C713 C 0.31809 0.95552 0.76048 0.0
H714 H 0.3489 0.01362 0.62976 0.0
C715 C 0.3316 0.98502 0.80669 0.0
H716 H 0.31301 0.94414 0.66007 0.0
C717 C 0.35089 0.02472 0.7893 0.0
C718 C 0.3583 0.03553 0.72546 0.0
H719 H 0.32924 0.97741 0.85622 0.0
H720 H 0.36311 0.0469 0.82589 0.0
C721 C 0.34299 0.00602 0.67921 0.0
C722 C 0.98279 0.33448 0.67928 0.0
C723 C 0.95331 0.32033 0.72559 0.0
H724 H 0.04465 0.36639 0.66 0.0
C725 C 0.96418 0.32383 0.78941 0.0
H726 H 0.97513 0.3327 0.62984 0.0
C727 C 0.00389 0.34429 0.80671 0.0
C728 C 0.03336 0.36025 0.76044 0.0
H729 H 0.94203 0.31392 0.82603 0.0
H730 H 0.01154 0.34962 0.85622 0.0
C731 C 0.02251 0.35364 0.69656 0.0
C732 C 0.46704 0.21338 -0.00553 0.0
C733 C 0.44157 0.19868 0.9424 0.0
H734 H 0.48184 0.2473 0.0791 0.0
C735 C 0.4062 0.19952 0.94401 0.0
H736 H 0.49431 0.21282 -0.00471 0.0
C737 C 0.39887 0.21898 0.9926 0.0
C738 C 0.42665 0.23779 0.04068 0.0
H739 H 0.38548 0.18782 0.90533 0.0
H740 H 0.37301 0.22204 0.98972 0.0
C741 C 0.45964 0.23279 0.04314 0.0
C742 C 0.77012 0.17777 0.99301 0.0
C743 C 0.75129 0.18673 0.04106 0.0
H744 H 0.80126 0.19553 0.90574 0.0
C745 C 0.75628 0.22472 0.04351 0.0
H746 H 0.76706 0.14885 0.99015 0.0
C747 C 0.77568 0.25152 -0.00517 0.0
C748 C 0.79037 0.24074 0.94276 0.0
H749 H 0.74177 0.23241 0.07947 0.0
H750 H 0.77622 0.27934 -0.00437 0.0
C751 C 0.78956 0.20455 0.94441 0.0
C752 C 0.76438 0.52938 0.04298 0.0
C753 C 0.80248 0.56219 0.04034 0.0
H754 H 0.70964 0.49487 -0.0047 0.0
C755 C 0.81159 0.58986 0.99206 0.0
H756 H 0.75656 0.50727 0.07915 0.0
C757 C 0.78482 0.58258 0.94347 0.0
C758 C 0.74847 0.54735 0.94206 0.0
H759 H 0.8406 0.61559 0.98905 0.0
H760 H 0.79394 0.6032 0.90464 0.0
C761 C 0.73758 0.52202 -0.00569 0.0
C762 C 0.21735 0.401 0.49467 0.0
C763 C 0.23592 0.42867 0.44638 0.0
H764 H 0.18642 0.3877 0.58214 0.0
C765 C 0.23074 0.46155 0.44384 0.0
H766 H 0.22057 0.37524 0.49763 0.0
C767 C 0.21136 0.46895 0.49256 0.0
C768 C 0.19689 0.44359 0.54478 0.0
H769 H 0.24507 0.48367 0.40771 0.0
H770 H 0.21064 0.49613 0.49161 0.0
C771 C 0.19793 0.40833 0.54333 0.0
C772 C 0.58046 0.7878 0.54426 0.0
C773 C 0.54533 0.75135 0.54551 0.0
H774 H 0.61338 0.84359 0.49871 0.0
C775 C 0.52006 0.74039 0.49316 0.0
H776 H 0.60101 0.79698 0.58319 0.0
C777 C 0.5274 0.76716 0.44445 0.0
C778 C 0.56013 0.8053 0.44714 0.0
H779 H 0.49299 0.71239 0.49206 0.0
H780 H 0.50534 0.75925 0.40818 0.0
C781 C 0.58772 0.81454 0.49562 0.0
C782 C 0.2485 0.77743 0.49301 0.0
C783 C 0.23753 0.79168 0.5454 0.0
H784 H 0.22963 0.74386 0.40803 0.0
C785 C 0.20105 0.7903 0.54422 0.0
H786 H 0.27653 0.77842 0.49186 0.0
C787 C 0.17428 0.77079 0.49562 0.0
C788 C 0.18354 0.75248 0.4471 0.0
H789 H 0.19185 0.80162 0.58319 0.0
H790 H 0.14521 0.76733 0.49877 0.0
C791 C 0.22171 0.75798 0.44433 0.0
C792 C 0.52742 0.75797 0.94428 0.0
C793 C 0.56021 0.75264 0.94696 0.0
H794 H 0.49295 0.77825 0.99187 0.0
C795 C 0.58783 0.77109 -0.00463 0.0
H796 H 0.50535 0.74373 0.90806 0.0
C797 C 0.58053 0.79056 0.04398 0.0
C798 C 0.54535 0.79179 0.04526 0.0
H799 H 0.61352 0.76775 -0.00155 0.0
H800 H 0.6011 0.80199 0.08287 0.0
C801 C 0.52006 0.7774 0.99294 0.0
C802 C 0.21811 0.81457 -0.00436 0.0
C803 C 0.23647 0.80535 0.94717 0.0
H804 H 0.18722 0.79698 0.08315 0.0
C805 C 0.23103 0.7672 0.94444 0.0
H806 H 0.22153 0.84363 -0.00124 0.0
C807 C 0.21156 0.7404 0.99309 0.0
C808 C 0.19724 0.75134 0.04543 0.0
H809 H 0.2452 0.7593 0.90817 0.0
H810 H 0.21062 0.71239 0.99196 0.0
C811 C 0.19859 0.7878 0.04422 0.0
C812 C 0.22193 0.46154 0.94386 0.0
C813 C 0.18387 0.42867 0.94638 0.0
H814 H 0.27662 0.49607 0.99163 0.0
C815 C 0.17475 0.40099 -0.00535 0.0
H816 H 0.22974 0.48367 0.90774 0.0
C817 C 0.20149 0.40829 0.04331 0.0
C818 C 0.23782 0.44353 0.04478 0.0
H819 H 0.14575 0.37524 -0.0024 0.0
H820 H 0.19238 0.38765 0.08211 0.0
C821 C 0.24871 0.4689 0.99257 0.0
C822 C 0.7755 0.52198 0.49428 0.0
C823 C 0.78998 0.54733 0.44205 0.0
H824 H 0.74175 0.50722 0.57907 0.0
C825 C 0.78888 0.58256 0.44346 0.0
H826 H 0.77628 0.49482 0.49527 0.0
C827 C 0.76938 0.58985 0.49203 0.0
C828 C 0.7508 0.56217 0.5403 0.0
H829 H 0.8004 0.60319 0.40465 0.0
H830 H 0.76611 0.61558 0.48901 0.0
C831 C 0.75606 0.52934 0.54294 0.0
C832 C 0.40616 0.20412 0.44367 0.0
C833 C 0.44142 0.24044 0.44221 0.0
H834 H 0.37311 0.14839 0.48933 0.0
C835 C 0.46677 0.25135 0.49445 0.0
H836 H 0.38553 0.19501 0.40486 0.0
C837 C 0.45939 0.22458 0.54317 0.0
C838 C 0.42656 0.18649 0.54058 0.0
H839 H 0.49394 0.27927 0.4954 0.0
H840 H 0.48152 0.2324 0.57932 0.0
C841 C 0.39886 0.17738 0.49231 0.0
C842 C 0.73739 0.21313 0.49468 0.0
C843 C 0.74824 0.19857 0.44254 0.0
H844 H 0.75639 0.24694 0.57943 0.0
C845 C 0.78452 0.19954 0.44411 0.0
H846 H 0.7095 0.21246 0.49554 0.0
C847 C 0.81128 0.219 0.49274 0.0
C848 C 0.80222 0.23769 0.54088 0.0
H849 H 0.7936 0.18794 0.40538 0.0
H850 H 0.84024 0.22217 0.48983 0.0
C851 C 0.76417 0.23254 0.54339 0.0
loop_
_geom_bond_atom_site_label_1
_geom_bond_atom_site_label_2
_geom_bond_distance
_geom_bond_site_symmetry_2
_ccdc_geom_bond_type
C0 O27 1.312 . S
C0 O28 1.208 1_554 S
C1 O22 1.331 . S
C1 O25 1.244 . S
C2 O24 1.264 . S
C2 O26 1.273 . S
Mg3 O5 1.936 . S
Mg3 O12 2.081 . S
Mg3 O14 2.023 . S
Mg3 O18 2.031 . S
Mg3 O27 2.291 . S
Mg4 O5 1.963 . S
Mg4 O15 1.942 . S
Mg4 O16 1.955 . S
Mg4 O23 1.986 . S
O5 Mg3 1.936 . S
O5 Mg4 1.963 . S
O5 Mg6 1.915 . S
Mg6 O5 1.915 . S
Mg6 O7 1.915 . S
Mg6 O11 2.013 . S
Mg6 O17 2.114 . S
Mg6 O21 2.013 . S
Mg6 O27 2.114 . S
O7 Mg6 1.915 . S
O7 Mg8 1.936 . S
O7 Mg9 1.963 . S
Mg8 O7 1.936 . S
Mg8 O17 2.291 . S
Mg8 O22 2.081 1_554 S
Mg8 O24 2.023 . S
Mg8 O28 2.031 1_554 S
Mg9 O7 1.963 . S
Mg9 O13 1.986 . S
Mg9 O25 1.942 1_554 S
Mg9 O26 1.955 . S
C10 O21 1.191 . S
C10 O23 1.307 . S
O11 Mg6 2.013 . S
O11 C30 1.191 . S
O12 Mg3 2.081 . S
O12 C20 1.331 . S
O13 Mg9 1.986 . S
O13 C30 1.307 . S
O14 Mg3 2.023 . S
O14 C29 1.264 . S
O15 Mg4 1.942 . S
O15 C20 1.244 . S
O16 Mg4 1.955 . S
O16 C29 1.273 . S
O17 Mg6 2.114 . S
O17 Mg8 2.291 . S
O17 C19 1.312 . S
O18 Mg3 2.031 . S
O18 C19 1.208 . S
C19 O17 1.312 . S
C19 O18 1.208 . S
C20 O12 1.331 . S
C20 O15 1.244 . S
O21 Mg6 2.013 . S
O21 C10 1.191 . S
O22 C1 1.331 . S
O22 Mg8 2.081 1_556 S
O23 Mg4 1.986 . S
O23 C10 1.307 . S
O24 C2 1.264 . S
O24 Mg8 2.023 . S
O25 C1 1.244 . S
O25 Mg9 1.942 1_556 S
O26 C2 1.273 . S
O26 Mg9 1.955 . S
O27 C0 1.312 . S
O27 Mg3 2.291 . S
O27 Mg6 2.114 . S
O28 C0 1.208 1_556 S
O28 Mg8 2.031 1_556 S
C29 O14 1.264 . S
C29 O16 1.273 . S
C30 O11 1.191 . S
C30 O13 1.307 . S
C31 O58 1.312 . S
C31 O59 1.208 1_554 S
C32 O53 1.331 . S
C32 O56 1.244 . S
C33 O55 1.264 . S
C33 O57 1.273 . S
Mg34 O36 1.936 . S
Mg34 O43 2.081 . S
Mg34 O45 2.023 . S
Mg34 O49 2.031 . S
Mg34 O58 2.291 . S
Mg35 O36 1.963 . S
Mg35 O46 1.942 . S
Mg35 O47 1.955 . S
Mg35 O54 1.986 . S
O36 Mg34 1.936 . S
O36 Mg35 1.963 . S
O36 Mg37 1.915 . S
Mg37 O36 1.915 . S
Mg37 O38 1.915 . S
Mg37 O42 2.013 . S
Mg37 O48 2.114 . S
Mg37 O52 2.013 . S
Mg37 O58 2.114 . S
O38 Mg37 1.915 . S
O38 Mg39 1.936 . S
O38 Mg40 1.963 . S
Mg39 O38 1.936 . S
Mg39 O48 2.291 . S
Mg39 O53 2.081 1_554 S
Mg39 O55 2.023 . S
Mg39 O59 2.031 1_554 S
Mg40 O38 1.963 . S
Mg40 O44 1.986 . S
Mg40 O56 1.942 1_554 S
Mg40 O57 1.955 . S
C41 O52 1.191 . S
C41 O54 1.307 . S
O42 Mg37 2.013 . S
O42 C61 1.191 . S
O43 Mg34 2.081 . S
O43 C51 1.331 . S
O44 Mg40 1.986 . S
O44 C61 1.307 . S
O45 Mg34 2.023 . S
O45 C60 1.264 . S
O46 Mg35 1.942 . S
O46 C51 1.244 . S
O47 Mg35 1.955 . S
O47 C60 1.273 . S
O48 Mg37 2.114 . S
O48 Mg39 2.291 . S
O48 C50 1.312 . S
O49 Mg34 2.031 . S
O49 C50 1.208 . S
C50 O48 1.312 . S
C50 O49 1.208 . S
C51 O43 1.331 . S
C51 O46 1.244 . S
O52 Mg37 2.013 . S
O52 C41 1.191 . S
O53 C32 1.331 . S
O53 Mg39 2.081 1_556 S
O54 Mg35 1.986 . S
O54 C41 1.307 . S
O55 C33 1.264 . S
O55 Mg39 2.023 . S
O56 C32 1.244 . S
O56 Mg40 1.942 1_556 S
O57 C33 1.273 . S
O57 Mg40 1.955 . S
O58 C31 1.312 . S
O58 Mg34 2.291 . S
O58 Mg37 2.114 . S
O59 C31 1.208 1_556 S
O59 Mg39 2.031 1_556 S
C60 O45 1.264 . S
C60 O47 1.273 . S
C61 O42 1.191 . S
C61 O44 1.307 . S
C62 O89 1.312 . S
C62 O90 1.208 . S
C63 O84 1.331 . S
C63 O87 1.244 . S
C64 O86 1.264 . S
C64 O88 1.273 . S
Mg65 O67 1.936 . S
Mg65 O74 2.081 1_554 S
Mg65 O76 2.023 . S
Mg65 O80 2.031 1_554 S
Mg65 O89 2.291 . S
Mg66 O67 1.963 . S
Mg66 O77 1.942 1_554 S
Mg66 O78 1.955 . S
Mg66 O85 1.986 . S
O67 Mg65 1.936 . S
O67 Mg66 1.963 . S
O67 Mg68 1.915 . S
Mg68 O67 1.915 . S
Mg68 O69 1.915 . S
Mg68 O73 2.013 . S
Mg68 O79 2.114 . S
Mg68 O83 2.013 . S
Mg68 O89 2.114 . S
O69 Mg68 1.915 . S
O69 Mg70 1.936 . S
O69 Mg71 1.963 . S
Mg70 O69 1.936 . S
Mg70 O79 2.291 . S
Mg70 O84 2.081 . S
Mg70 O86 2.023 . S
Mg70 O90 2.031 . S
Mg71 O69 1.963 . S
Mg71 O75 1.986 . S
Mg71 O87 1.942 . S
Mg71 O88 1.955 . S
C72 O83 1.191 . S
C72 O85 1.307 . S
O73 Mg68 2.013 . S
O73 C92 1.191 . S
O74 Mg65 2.081 1_556 S
O74 C82 1.331 . S
O75 Mg71 1.986 . S
O75 C92 1.307 . S
O76 Mg65 2.023 . S
O76 C91 1.264 . S
O77 Mg66 1.942 1_556 S
O77 C82 1.244 . S
O78 Mg66 1.955 . S
O78 C91 1.273 . S
O79 Mg68 2.114 . S
O79 Mg70 2.291 . S
O79 C81 1.312 . S
O80 Mg65 2.031 1_556 S
O80 C81 1.208 1_556 S
C81 O79 1.312 . S
C81 O80 1.208 1_554 S
C82 O74 1.331 . S
C82 O77 1.244 . S
O83 Mg68 2.013 . S
O83 C72 1.191 . S
O84 C63 1.331 . S
O84 Mg70 2.081 . S
O85 Mg66 1.986 . S
O85 C72 1.307 . S
O86 C64 1.264 . S
O86 Mg70 2.023 . S
O87 C63 1.244 . S
O87 Mg71 1.942 . S
O88 C64 1.273 . S
O88 Mg71 1.955 . S
O89 C62 1.312 . S
O89 Mg65 2.291 . S
O89 Mg68 2.114 . S
O90 C62 1.208 . S
O90 Mg70 2.031 . S
C91 O76 1.264 . S
C91 O78 1.273 . S
C92 O73 1.191 . S
C92 O75 1.307 . S
C93 O120 1.312 . S
C93 O121 1.208 . S
C94 O115 1.331 . S
C94 O118 1.244 . S
C95 O117 1.264 . S
C95 O119 1.273 . S
Mg96 O98 1.936 . S
Mg96 O105 2.081 . S
Mg96 O107 2.023 . S
Mg96 O111 2.031 . S
Mg96 O120 2.291 . S
Mg97 O98 1.963 . S
Mg97 O108 1.942 . S
Mg97 O109 1.955 . S
Mg97 O116 1.986 . S
O98 Mg96 1.936 . S
O98 Mg97 1.963 . S
O98 Mg99 1.915 . S
Mg99 O98 1.915 . S
Mg99 O100 1.915 . S
Mg99 O104 2.013 . S
Mg99 O110 2.114 . S
Mg99 O114 2.013 . S
Mg99 O120 2.114 . S
O100 Mg99 1.915 . S
O100 Mg101 1.936 . S
O100 Mg102 1.963 . S
Mg101 O100 1.936 . S
Mg101 O110 2.291 . S
Mg101 O115 2.081 . S
Mg101 O117 2.023 . S
Mg101 O121 2.031 . S
Mg102 O100 1.963 . S
Mg102 O106 1.986 . S
Mg102 O118 1.942 . S
Mg102 O119 1.955 . S
C103 O114 1.191 . S
C103 O116 1.307 . S
O104 Mg99 2.013 . S
O104 C123 1.191 . S
O105 Mg96 2.081 . S
O105 C113 1.331 . S
O106 Mg102 1.986 . S
O106 C123 1.307 . S
O107 Mg96 2.023 . S
O107 C122 1.264 . S
O108 Mg97 1.942 . S
O108 C113 1.244 . S
O109 Mg97 1.955 . S
O109 C122 1.273 . S
O110 Mg99 2.114 . S
O110 Mg101 2.291 . S
O110 C112 1.312 . S
O111 Mg96 2.031 . S
O111 C112 1.208 . S
C112 O110 1.312 . S
C112 O111 1.208 . S
C113 O105 1.331 . S
C113 O108 1.244 . S
O114 Mg99 2.013 . S
O114 C103 1.191 . S
O115 C94 1.331 . S
O115 Mg101 2.081 . S
O116 Mg97 1.986 . S
O116 C103 1.307 . S
O117 C95 1.264 . S
O117 Mg101 2.023 . S
O118 C94 1.244 . S
O118 Mg102 1.942 . S
O119 C95 1.273 . S
O119 Mg102 1.955 . S
O120 C93 1.312 . S
O120 Mg96 2.291 . S
O120 Mg99 2.114 . S
O121 C93 1.208 . S
O121 Mg101 2.031 . S
C122 O107 1.264 . S
C122 O109 1.273 . S
C123 O104 1.191 . S
C123 O106 1.307 . S
C124 O151 1.312 . S
C124 O152 1.208 . S
C125 O146 1.331 . S
C125 O149 1.244 . S
C126 O148 1.264 . S
C126 O150 1.273 . S
Mg127 O129 1.936 . S
Mg127 O136 2.081 . S
Mg127 O138 2.023 . S
Mg127 O142 2.031 . S
Mg127 O151 2.291 . S
Mg128 O129 1.963 . S
Mg128 O139 1.942 . S
Mg128 O140 1.955 . S
Mg128 O147 1.986 . S
O129 Mg127 1.936 . S
O129 Mg128 1.963 . S
O129 Mg130 1.915 . S
Mg130 O129 1.915 . S
Mg130 O131 1.915 . S
Mg130 O135 2.013 . S
Mg130 O141 2.114 . S
Mg130 O145 2.013 . S
Mg130 O151 2.114 . S
O131 Mg130 1.915 . S
O131 Mg132 1.936 . S
O131 Mg133 1.963 . S
Mg132 O131 1.936 . S
Mg132 O141 2.291 . S
Mg132 O146 2.081 . S
Mg132 O148 2.023 . S
Mg132 O152 2.031 . S
Mg133 O131 1.963 . S
Mg133 O137 1.986 . S
Mg133 O149 1.942 . S
Mg133 O150 1.955 . S
C134 O145 1.191 . S
C134 O147 1.307 . S
O135 Mg130 2.013 . S
O135 C154 1.191 . S
O136 Mg127 2.081 . S
O136 C144 1.331 . S
O137 Mg133 1.986 . S
O137 C154 1.307 . S
O138 Mg127 2.023 . S
O138 C153 1.264 . S
O139 Mg128 1.942 . S
O139 C144 1.244 . S
O140 Mg128 1.955 . S
O140 C153 1.273 . S
O141 Mg130 2.114 . S
O141 Mg132 2.291 . S
O141 C143 1.312 . S
O142 Mg127 2.031 . S
O142 C143 1.208 . S
C143 O141 1.312 . S
C143 O142 1.208 . S
C144 O136 1.331 . S
C144 O139 1.244 . S
O145 Mg130 2.013 . S
O145 C134 1.191 . S
O146 C125 1.331 . S
O146 Mg132 2.081 . S
O147 Mg128 1.986 . S
O147 C134 1.307 . S
O148 C126 1.264 . S
O148 Mg132 2.023 . S
O149 C125 1.244 . S
O149 Mg133 1.942 . S
O150 C126 1.273 . S
O150 Mg133 1.955 . S
O151 C124 1.312 . S
O151 Mg127 2.291 . S
O151 Mg130 2.114 . S
O152 C124 1.208 . S
O152 Mg132 2.031 . S
C153 O138 1.264 . S
C153 O140 1.273 . S
C154 O135 1.191 . S
C154 O137 1.307 . S
C155 O182 1.312 . S
C155 O183 1.208 . S
C156 O177 1.331 . S
C156 O180 1.244 . S
C157 O179 1.264 . S
C157 O181 1.273 . S
Mg158 O160 1.936 . S
Mg158 O167 2.081 . S
Mg158 O169 2.023 . S
Mg158 O173 2.031 . S
Mg158 O182 2.291 . S
Mg159 O160 1.963 . S
Mg159 O170 1.942 . S
Mg159 O171 1.955 . S
Mg159 O178 1.986 . S
O160 Mg158 1.936 . S
O160 Mg159 1.963 . S
O160 Mg161 1.915 . S
Mg161 O160 1.915 . S
Mg161 O162 1.915 . S
Mg161 O166 2.013 . S
Mg161 O172 2.114 . S
Mg161 O176 2.013 . S
Mg161 O182 2.114 . S
O162 Mg161 1.915 . S
O162 Mg163 1.936 . S
O162 Mg164 1.963 . S
Mg163 O162 1.936 . S
Mg163 O172 2.291 . S
Mg163 O177 2.081 . S
Mg163 O179 2.023 . S
Mg163 O183 2.031 . S
Mg164 O162 1.963 . S
Mg164 O168 1.986 . S
Mg164 O180 1.942 . S
Mg164 O181 1.955 . S
C165 O176 1.191 . S
C165 O178 1.307 . S
O166 Mg161 2.013 . S
O166 C185 1.191 . S
O167 Mg158 2.081 . S
O167 C175 1.331 . S
O168 Mg164 1.986 . S
O168 C185 1.307 . S
O169 Mg158 2.023 . S
O169 C184 1.264 . S
O170 Mg159 1.942 . S
O170 C175 1.244 . S
O171 Mg159 1.955 . S
O171 C184 1.273 . S
O172 Mg161 2.114 . S
O172 Mg163 2.291 . S
O172 C174 1.312 . S
O173 Mg158 2.031 . S
O173 C174 1.208 . S
C174 O172 1.312 . S
C174 O173 1.208 . S
C175 O167 1.331 . S
C175 O170 1.244 . S
O176 Mg161 2.013 . S
O176 C165 1.191 . S
O177 C156 1.331 . S
O177 Mg163 2.081 . S
O178 Mg159 1.986 . S
O178 C165 1.307 . S
O179 C157 1.264 . S
O179 Mg163 2.023 . S
O180 C156 1.244 . S
O180 Mg164 1.942 . S
O181 C157 1.273 . S
O181 Mg164 1.955 . S
O182 C155 1.312 . S
O182 Mg158 2.291 . S
O182 Mg161 2.114 . S
O183 C155 1.208 . S
O183 Mg163 2.031 . S
C184 O169 1.264 . S
C184 O171 1.273 . S
C185 O166 1.191 . S
C185 O168 1.307 . S
C186 O213 1.312 . S
C186 O214 1.208 1_556 S
C187 O208 1.331 . S
C187 O211 1.244 . S
C188 O210 1.264 . S
C188 O212 1.273 . S
Mg189 O191 1.936 . S
Mg189 O198 2.081 . S
Mg189 O200 2.023 . S
Mg189 O204 2.031 . S
Mg189 O213 2.291 . S
Mg190 O191 1.963 . S
Mg190 O201 1.942 . S
Mg190 O202 1.955 . S
Mg190 O209 1.986 . S
O191 Mg189 1.936 . S
O191 Mg190 1.963 . S
O191 Mg192 1.915 . S
Mg192 O191 1.915 . S
Mg192 O193 1.915 . S
Mg192 O197 2.013 . S
Mg192 O203 2.114 . S
Mg192 O207 2.013 . S
Mg192 O213 2.114 . S
O193 Mg192 1.915 . S
O193 Mg194 1.936 . S
O193 Mg195 1.963 . S
Mg194 O193 1.936 . S
Mg194 O203 2.291 . S
Mg194 O208 2.081 1_556 S
Mg194 O210 2.023 . S
Mg194 O214 2.031 1_556 S
Mg195 O193 1.963 . S
Mg195 O199 1.986 . S
Mg195 O211 1.942 1_556 S
Mg195 O212 1.955 . S
C196 O207 1.191 . S
C196 O209 1.307 . S
O197 Mg192 2.013 . S
O197 C216 1.191 . S
O198 Mg189 2.081 . S
O198 C206 1.331 . S
O199 Mg195 1.986 . S
O199 C216 1.307 . S
O200 Mg189 2.023 . S
O200 C215 1.264 . S
O201 Mg190 1.942 . S
O201 C206 1.244 . S
O202 Mg190 1.955 . S
O202 C215 1.273 . S
O203 Mg192 2.114 . S
O203 Mg194 2.291 . S
O203 C205 1.312 . S
O204 Mg189 2.031 . S
O204 C205 1.208 . S
C205 O203 1.312 . S
C205 O204 1.208 . S
C206 O198 1.331 . S
C206 O201 1.244 . S
O207 Mg192 2.013 . S
O207 C196 1.191 . S
O208 C187 1.331 . S
O208 Mg194 2.081 1_554 S
O209 Mg190 1.986 . S
O209 C196 1.307 . S
O210 C188 1.264 . S
O210 Mg194 2.023 . S
O211 C187 1.244 . S
O211 Mg195 1.942 1_554 S
O212 C188 1.273 . S
O212 Mg195 1.955 . S
O213 C186 1.312 . S
O213 Mg189 2.291 . S
O213 Mg192 2.114 . S
O214 C186 1.208 1_554 S
O214 Mg194 2.031 1_554 S
C215 O200 1.264 . S
C215 O202 1.273 . S
C216 O197 1.191 . S
C216 O199 1.307 . S
C217 O244 1.312 . S
C217 O245 1.208 . S
C218 O239 1.331 . S
C218 O242 1.244 . S
C219 O241 1.264 . S
C219 O243 1.273 . S
Mg220 O222 1.936 . S
Mg220 O229 2.081 1_556 S
Mg220 O231 2.023 . S
Mg220 O235 2.031 1_556 S
Mg220 O244 2.291 . S
Mg221 O222 1.963 . S
Mg221 O232 1.942 1_556 S
Mg221 O233 1.955 . S
Mg221 O240 1.986 . S
O222 Mg220 1.936 . S
O222 Mg221 1.963 . S
O222 Mg223 1.915 . S
Mg223 O222 1.915 . S
Mg223 O224 1.915 . S
Mg223 O228 2.013 . S
Mg223 O234 2.114 . S
Mg223 O238 2.013 . S
Mg223 O244 2.114 . S
O224 Mg223 1.915 . S
O224 Mg225 1.936 . S
O224 Mg226 1.963 . S
Mg225 O224 1.936 . S
Mg225 O234 2.291 . S
Mg225 O239 2.081 . S
Mg225 O241 2.023 . S
Mg225 O245 2.031 . S
Mg226 O224 1.963 . S
Mg226 O230 1.986 . S
Mg226 O242 1.942 . S
Mg226 O243 1.955 . S
C227 O238 1.191 . S
C227 O240 1.307 . S
O228 Mg223 2.013 . S
O228 C247 1.191 . S
O229 Mg220 2.081 1_554 S
O229 C237 1.331 . S
O230 Mg226 1.986 . S
O230 C247 1.307 . S
O231 Mg220 2.023 . S
O231 C246 1.264 . S
O232 Mg221 1.942 1_554 S
O232 C237 1.244 . S
O233 Mg221 1.955 . S
O233 C246 1.273 . S
O234 Mg223 2.114 . S
O234 Mg225 2.291 . S
O234 C236 1.312 . S
O235 Mg220 2.031 1_554 S
O235 C236 1.208 1_554 S
C236 O234 1.312 . S
C236 O235 1.208 1_556 S
C237 O229 1.331 . S
C237 O232 1.244 . S
O238 Mg223 2.013 . S
O238 C227 1.191 . S
O239 C218 1.331 . S
O239 Mg225 2.081 . S
O240 Mg221 1.986 . S
O240 C227 1.307 . S
O241 C219 1.264 . S
O241 Mg225 2.023 . S
O242 C218 1.244 . S
O242 Mg226 1.942 . S
O243 C219 1.273 . S
O243 Mg226 1.955 . S
O244 C217 1.312 . S
O244 Mg220 2.291 . S
O244 Mg223 2.114 . S
O245 C217 1.208 . S
O245 Mg225 2.031 . S
C246 O231 1.264 . S
C246 O233 1.273 . S
C247 O228 1.191 . S
C247 O230 1.307 . S
C248 O275 1.312 . S
C248 O276 1.208 1_556 S
C249 O270 1.331 . S
C249 O273 1.244 . S
C250 O272 1.264 . S
C250 O274 1.273 . S
Mg251 O253 1.936 . S
Mg251 O260 2.081 . S
Mg251 O262 2.023 . S
Mg251 O266 2.031 . S
Mg251 O275 2.291 . S
Mg252 O253 1.963 . S
Mg252 O263 1.942 . S
Mg252 O264 1.955 . S
Mg252 O271 1.986 . S
O253 Mg251 1.936 . S
O253 Mg252 1.963 . S
O253 Mg254 1.915 . S
Mg254 O253 1.915 . S
Mg254 O255 1.915 . S
Mg254 O259 2.013 . S
Mg254 O265 2.114 . S
Mg254 O269 2.013 . S
Mg254 O275 2.114 . S
O255 Mg254 1.915 . S
O255 Mg256 1.936 . S
O255 Mg257 1.963 . S
Mg256 O255 1.936 . S
Mg256 O265 2.291 . S
Mg256 O270 2.081 1_556 S
Mg256 O272 2.023 . S
Mg256 O276 2.031 1_556 S
Mg257 O255 1.963 . S
Mg257 O261 1.986 . S
Mg257 O273 1.942 1_556 S
Mg257 O274 1.955 . S
C258 O269 1.191 . S
C258 O271 1.307 . S
O259 Mg254 2.013 . S
O259 C278 1.191 . S
O260 Mg251 2.081 . S
O260 C268 1.331 . S
O261 Mg257 1.986 . S
O261 C278 1.307 . S
O262 Mg251 2.023 . S
O262 C277 1.264 . S
O263 Mg252 1.942 . S
O263 C268 1.244 . S
O264 Mg252 1.955 . S
O264 C277 1.273 . S
O265 Mg254 2.114 . S
O265 Mg256 2.291 . S
O265 C267 1.312 . S
O266 Mg251 2.031 . S
O266 C267 1.208 . S
C267 O265 1.312 . S
C267 O266 1.208 . S
C268 O260 1.331 . S
C268 O263 1.244 . S
O269 Mg254 2.013 . S
O269 C258 1.191 . S
O270 C249 1.331 . S
O270 Mg256 2.081 1_554 S
O271 Mg252 1.986 . S
O271 C258 1.307 . S
O272 C250 1.264 . S
O272 Mg256 2.023 . S
O273 C249 1.244 . S
O273 Mg257 1.942 1_554 S
O274 C250 1.273 . S
O274 Mg257 1.955 . S
O275 C248 1.312 . S
O275 Mg251 2.291 . S
O275 Mg254 2.114 . S
O276 C248 1.208 1_554 S
O276 Mg256 2.031 1_554 S
C277 O262 1.264 . S
C277 O264 1.273 . S
C278 O259 1.191 . S
C278 O261 1.307 . S
C279 O306 1.312 . S
C279 O307 1.208 . S
C280 O301 1.331 . S
C280 O304 1.244 . S
C281 O303 1.264 . S
C281 O305 1.273 . S
Mg282 O284 1.936 . S
Mg282 O291 2.081 . S
Mg282 O293 2.023 . S
Mg282 O297 2.031 . S
Mg282 O306 2.291 . S
Mg283 O284 1.963 . S
Mg283 O294 1.942 . S
Mg283 O295 1.955 . S
Mg283 O302 1.986 . S
O284 Mg282 1.936 . S
O284 Mg283 1.963 . S
O284 Mg285 1.915 . S
Mg285 O284 1.915 . S
Mg285 O286 1.915 . S
Mg285 O290 2.013 . S
Mg285 O296 2.114 . S
Mg285 O300 2.013 . S
Mg285 O306 2.114 . S
O286 Mg285 1.915 . S
O286 Mg287 1.936 . S
O286 Mg288 1.963 . S
Mg287 O286 1.936 . S
Mg287 O296 2.291 . S
Mg287 O301 2.081 . S
Mg287 O303 2.023 . S
Mg287 O307 2.031 . S
Mg288 O286 1.963 . S
Mg288 O292 1.986 . S
Mg288 O304 1.942 . S
Mg288 O305 1.955 . S
C289 O300 1.191 . S
C289 O302 1.307 . S
O290 Mg285 2.013 . S
O290 C309 1.191 . S
O291 Mg282 2.081 . S
O291 C299 1.331 . S
O292 Mg288 1.986 . S
O292 C309 1.307 . S
O293 Mg282 2.023 . S
O293 C308 1.264 . S
O294 Mg283 1.942 . S
O294 C299 1.244 . S
O295 Mg283 1.955 . S
O295 C308 1.273 . S
O296 Mg285 2.114 . S
O296 Mg287 2.291 . S
O296 C298 1.312 . S
O297 Mg282 2.031 . S
O297 C298 1.208 . S
C298 O296 1.312 . S
C298 O297 1.208 . S
C299 O291 1.331 . S
C299 O294 1.244 . S
O300 Mg285 2.013 . S
O300 C289 1.191 . S
O301 C280 1.331 . S
O301 Mg287 2.081 . S
O302 Mg283 1.986 . S
O302 C289 1.307 . S
O303 C281 1.264 . S
O303 Mg287 2.023 . S
O304 C280 1.244 . S
O304 Mg288 1.942 . S
O305 C281 1.273 . S
O305 Mg288 1.955 . S
O306 C279 1.312 . S
O306 Mg282 2.291 . S
O306 Mg285 2.114 . S
O307 C279 1.208 . S
O307 Mg287 2.031 . S
C308 O293 1.264 . S
C308 O295 1.273 . S
C309 O290 1.191 . S
C309 O292 1.307 . S
C310 O337 1.312 . S
C310 O338 1.208 . S
C311 O332 1.331 . S
C311 O335 1.244 . S
C312 O334 1.264 . S
C312 O336 1.273 . S
Mg313 O315 1.936 . S
Mg313 O322 2.081 . S
Mg313 O324 2.023 . S
Mg313 O328 2.031 . S
Mg313 O337 2.291 . S
Mg314 O315 1.963 . S
Mg314 O325 1.942 . S
Mg314 O326 1.955 . S
Mg314 O333 1.986 . S
O315 Mg313 1.936 . S
O315 Mg314 1.963 . S
O315 Mg316 1.915 . S
Mg316 O315 1.915 . S
Mg316 O317 1.915 . S
Mg316 O321 2.013 . S
Mg316 O327 2.114 . S
Mg316 O331 2.013 . S
Mg316 O337 2.114 . S
O317 Mg316 1.915 . S
O317 Mg318 1.936 . S
O317 Mg319 1.963 . S
Mg318 O317 1.936 . S
Mg318 O327 2.291 . S
Mg318 O332 2.081 . S
Mg318 O334 2.023 . S
Mg318 O338 2.031 . S
Mg319 O317 1.963 . S
Mg319 O323 1.986 . S
Mg319 O335 1.942 . S
Mg319 O336 1.955 . S
C320 O331 1.191 . S
C320 O333 1.307 . S
O321 Mg316 2.013 . S
O321 C340 1.191 . S
O322 Mg313 2.081 . S
O322 C330 1.331 . S
O323 Mg319 1.986 . S
O323 C340 1.307 . S
O324 Mg313 2.023 . S
O324 C339 1.264 . S
O325 Mg314 1.942 . S
O325 C330 1.244 . S
O326 Mg314 1.955 . S
O326 C339 1.273 . S
O327 Mg316 2.114 . S
O327 Mg318 2.291 . S
O327 C329 1.312 . S
O328 Mg313 2.031 . S
O328 C329 1.208 . S
C329 O327 1.312 . S
C329 O328 1.208 . S
C330 O322 1.331 . S
C330 O325 1.244 . S
O331 Mg316 2.013 . S
O331 C320 1.191 . S
O332 C311 1.331 . S
O332 Mg318 2.081 . S
O333 Mg314 1.986 . S
O333 C320 1.307 . S
O334 C312 1.264 . S
O334 Mg318 2.023 . S
O335 C311 1.244 . S
O335 Mg319 1.942 . S
O336 C312 1.273 . S
O336 Mg319 1.955 . S
O337 C310 1.312 . S
O337 Mg313 2.291 . S
O337 Mg316 2.114 . S
O338 C310 1.208 . S
O338 Mg318 2.031 . S
C339 O324 1.264 . S
C339 O326 1.273 . S
C340 O321 1.191 . S
C340 O323 1.307 . S
C341 O368 1.312 . S
C341 O369 1.208 . S
C342 O363 1.331 . S
C342 O366 1.244 . S
C343 O365 1.264 . S
C343 O367 1.273 . S
Mg344 O346 1.936 . S
Mg344 O353 2.081 . S
Mg344 O355 2.023 . S
Mg344 O359 2.031 . S
Mg344 O368 2.291 . S
Mg345 O346 1.963 . S
Mg345 O356 1.942 . S
Mg345 O357 1.955 . S
Mg345 O364 1.986 . S
O346 Mg344 1.936 . S
O346 Mg345 1.963 . S
O346 Mg347 1.915 . S
Mg347 O346 1.915 . S
Mg347 O348 1.915 . S
Mg347 O352 2.013 . S
Mg347 O358 2.114 . S
Mg347 O362 2.013 . S
Mg347 O368 2.114 . S
O348 Mg347 1.915 . S
O348 Mg349 1.936 . S
O348 Mg350 1.963 . S
Mg349 O348 1.936 . S
Mg349 O358 2.291 . S
Mg349 O363 2.081 . S
Mg349 O365 2.023 . S
Mg349 O369 2.031 . S
Mg350 O348 1.963 . S
Mg350 O354 1.986 . S
Mg350 O366 1.942 . S
Mg350 O367 1.955 . S
C351 O362 1.191 . S
C351 O364 1.307 . S
O352 Mg347 2.013 . S
O352 C371 1.191 . S
O353 Mg344 2.081 . S
O353 C361 1.331 . S
O354 Mg350 1.986 . S
O354 C371 1.307 . S
O355 Mg344 2.023 . S
O355 C370 1.264 . S
O356 Mg345 1.942 . S
O356 C361 1.244 . S
O357 Mg345 1.955 . S
O357 C370 1.273 . S
O358 Mg347 2.114 . S
O358 Mg349 2.291 . S
O358 C360 1.312 . S
O359 Mg344 2.031 . S
O359 C360 1.208 . S
C360 O358 1.312 . S
C360 O359 1.208 . S
C361 O353 1.331 . S
C361 O356 1.244 . S
O362 Mg347 2.013 . S
O362 C351 1.191 . S
O363 C342 1.331 . S
O363 Mg349 2.081 . S
O364 Mg345 1.986 . S
O364 C351 1.307 . S
O365 C343 1.264 . S
O365 Mg349 2.023 . S
O366 C342 1.244 . S
O366 Mg350 1.942 . S
O367 C343 1.273 . S
O367 Mg350 1.955 . S
O368 C341 1.312 . S
O368 Mg344 2.291 . S
O368 Mg347 2.114 . S
O369 C341 1.208 . S
O369 Mg349 2.031 . S
C370 O355 1.264 . S
C370 O357 1.273 . S
C371 O352 1.191 . S
C371 O354 1.307 . S
C372 C373 1.387 . S
C372 H376 0.950 . S
C372 C381 1.390 . S
C373 C372 1.387 . S
C373 C375 1.387 . S
H374 C381 0.950 . S
C375 C373 1.387 . S
C375 C377 1.390 . S
C375 H379 0.950 . S
H376 C372 0.950 . S
C377 C375 1.390 . S
C377 C378 1.387 . S
C377 H380 0.950 . S
C378 C377 1.387 . S
C378 C381 1.387 . S
H379 C375 0.950 . S
H380 C377 0.950 . S
C381 C372 1.390 . S
C381 H374 0.950 . S
C381 C378 1.387 . S
C382 C383 1.387 . S
C382 H386 0.950 . S
C382 C391 1.390 . S
C383 C382 1.387 . S
C383 C385 1.387 . S
H384 C391 0.950 . S
C385 C383 1.387 . S
C385 C387 1.390 . S
C385 H389 0.950 . S
H386 C382 0.950 . S
C387 C385 1.390 . S
C387 C388 1.387 . S
C387 H390 0.950 . S
C388 C387 1.387 . S
C388 C391 1.387 . S
H389 C385 0.950 . S
H390 C387 0.950 . S
C391 C382 1.390 . S
C391 H384 0.950 . S
C391 C388 1.387 . S
C392 C393 1.387 . S
C392 H396 0.950 . S
C392 C401 1.390 . S
C393 C392 1.387 . S
C393 C395 1.387 . S
H394 C401 0.950 . S
C395 C393 1.387 . S
C395 C397 1.390 . S
C395 H399 0.950 . S
H396 C392 0.950 . S
C397 C395 1.390 . S
C397 C398 1.387 . S
C397 H400 0.950 . S
C398 C397 1.387 . S
C398 C401 1.387 . S
H399 C395 0.950 . S
H400 C397 0.950 . S
C401 C392 1.390 . S
C401 H394 0.950 . S
C401 C398 1.387 . S
C402 C403 1.387 . S
C402 H406 0.950 . S
C402 C411 1.390 . S
C403 C402 1.387 . S
C403 C405 1.387 . S
H404 C411 0.950 . S
C405 C403 1.387 . S
C405 C407 1.390 . S
C405 H409 0.950 . S
H406 C402 0.950 . S
C407 C405 1.390 . S
C407 C408 1.387 . S
C407 H410 0.950 . S
C408 C407 1.387 . S
C408 C411 1.387 . S
H409 C405 0.950 . S
H410 C407 0.950 . S
C411 C402 1.390 . S
C411 H404 0.950 . S
C411 C408 1.387 . S
C412 C413 1.387 . S
C412 H416 0.950 . S
C412 C421 1.390 . S
C413 C412 1.387 . S
C413 C415 1.387 . S
H414 C421 0.950 . S
C415 C413 1.387 . S
C415 C417 1.390 . S
C415 H419 0.950 . S
H416 C412 0.950 . S
C417 C415 1.390 . S
C417 C418 1.387 . S
C417 H420 0.950 . S
C418 C417 1.387 . S
C418 C421 1.387 . S
H419 C415 0.950 . S
H420 C417 0.950 . S
C421 C412 1.390 . S
C421 H414 0.950 . S
C421 C418 1.387 . S
C422 C423 1.387 . S
C422 H426 0.950 . S
C422 C431 1.390 . S
C423 C422 1.387 . S
C423 C425 1.387 . S
H424 C431 0.950 . S
C425 C423 1.387 . S
C425 C427 1.390 . S
C425 H429 0.950 . S
H426 C422 0.950 . S
C427 C425 1.390 . S
C427 C428 1.387 . S
C427 H430 0.950 . S
C428 C427 1.387 . S
C428 C431 1.387 . S
H429 C425 0.950 . S
H430 C427 0.950 . S
C431 C422 1.390 . S
C431 H424 0.950 . S
C431 C428 1.387 . S
C432 C433 1.387 . S
C432 H436 0.950 . S
C432 C441 1.390 . S
C433 C432 1.387 . S
C433 C435 1.387 . S
H434 C441 0.950 . S
C435 C433 1.387 . S
C435 C437 1.390 . S
C435 H439 0.950 . S
H436 C432 0.950 . S
C437 C435 1.390 . S
C437 C438 1.387 . S
C437 H440 0.950 . S
C438 C437 1.387 . S
C438 C441 1.387 . S
H439 C435 0.950 . S
H440 C437 0.950 . S
C441 C432 1.390 . S
C441 H434 0.950 . S
C441 C438 1.387 . S
C442 C443 1.387 . S
C442 H446 0.950 . S
C442 C451 1.390 . S
C443 C442 1.387 . S
C443 C445 1.387 . S
H444 C451 0.950 . S
C445 C443 1.387 . S
C445 C447 1.390 . S
C445 H449 0.950 . S
H446 C442 0.950 . S
C447 C445 1.390 . S
C447 C448 1.387 . S
C447 H450 0.950 . S
C448 C447 1.387 . S
C448 C451 1.387 . S
H449 C445 0.950 . S
H450 C447 0.950 . S
C451 C442 1.390 . S
C451 H444 0.950 . S
C451 C448 1.387 . S
C452 C453 1.387 . S
C452 H456 0.950 . S
C452 C461 1.390 . S
C453 C452 1.387 . S
C453 C455 1.387 . S
H454 C461 0.950 . S
C455 C453 1.387 . S
C455 C457 1.390 . S
C455 H459 0.950 . S
H456 C452 0.950 . S
C457 C455 1.390 . S
C457 C458 1.387 . S
C457 H460 0.950 . S
C458 C457 1.387 . S
C458 C461 1.387 . S
H459 C455 0.950 . S
H460 C457 0.950 . S
C461 C452 1.390 . S
C461 H454 0.950 . S
C461 C458 1.387 . S
C462 C463 1.387 . S
C462 H466 0.950 . S
C462 C471 1.390 . S
C463 C462 1.387 . S
C463 C465 1.387 . S
H464 C471 0.950 . S
C465 C463 1.387 . S
C465 C467 1.390 . S
C465 H469 0.950 . S
H466 C462 0.950 . S
C467 C465 1.390 . S
C467 C468 1.387 . S
C467 H470 0.950 . S
C468 C467 1.387 . S
C468 C471 1.387 . S
H469 C465 0.950 . S
H470 C467 0.950 . S
C471 C462 1.390 . S
C471 H464 0.950 . S
C471 C468 1.387 . S
C472 C473 1.387 . S
C472 H476 0.950 . S
C472 C481 1.390 . S
C473 C472 1.387 . S
C473 C475 1.387 . S
H474 C481 0.950 . S
C475 C473 1.387 . S
C475 C477 1.390 . S
C475 H479 0.950 . S
H476 C472 0.950 . S
C477 C475 1.390 . S
C477 C478 1.387 . S
C477 H480 0.950 . S
C478 C477 1.387 . S
C478 C481 1.387 . S
H479 C475 0.950 . S
H480 C477 0.950 . S
C481 C472 1.390 . S
C481 H474 0.950 . S
C481 C478 1.387 . S
C482 C483 1.387 . S
C482 H486 0.950 . S
C482 C491 1.390 . S
C483 C482 1.387 . S
C483 C485 1.387 . S
H484 C491 0.950 . S
C485 C483 1.387 . S
C485 C487 1.390 . S
C485 H489 0.950 . S
H486 C482 0.950 . S
C487 C485 1.390 . S
C487 C488 1.387 . S
C487 H490 0.950 . S
C488 C487 1.387 . S
C488 C491 1.387 . S
H489 C485 0.950 . S
H490 C487 0.950 . S
C491 C482 1.390 . S
C491 H484 0.950 . S
C491 C488 1.387 . S
C492 C493 1.387 . S
C492 H496 0.950 . S
C492 C501 1.390 1_556 S
C493 C492 1.387 . S
C493 C495 1.387 . S
H494 C501 0.950 . S
C495 C493 1.387 . S
C495 C497 1.390 1_556 S
C495 H499 0.950 . S
H496 C492 0.950 . S
C497 C495 1.390 1_554 S
C497 C498 1.387 . S
C497 H500 0.950 . S
C498 C497 1.387 . S
C498 C501 1.387 . S
H499 C495 0.950 . S
H500 C497 0.950 . S
C501 C492 1.390 1_554 S
C501 H494 0.950 . S
C501 C498 1.387 . S
C502 C503 1.387 . S
C502 H506 0.950 . S
C502 C511 1.390 1_554 S
C503 C502 1.387 . S
C503 C505 1.387 1_545 S
H504 C511 0.950 . S
C505 C503 1.387 1_565 S
C505 C507 1.390 1_554 S
C505 H509 0.950 . S
H506 C502 0.950 . S
C507 C505 1.390 1_556 S
C507 C508 1.387 . S
C507 H510 0.950 . S
C508 C507 1.387 . S
C508 C511 1.387 1_565 S
H509 C505 0.950 . S
H510 C507 0.950 . S
C511 C502 1.390 1_556 S
C511 H504 0.950 . S
C511 C508 1.387 1_545 S
C512 C513 1.387 1_455 S
C512 H516 0.950 . S
C512 C521 1.390 1_554 S
C513 C512 1.387 1_655 S
C513 C515 1.387 . S
H514 C521 0.950 . S
C515 C513 1.387 . S
C515 C517 1.390 1_554 S
C515 H519 0.950 . S
H516 C512 0.950 . S
C517 C515 1.390 1_556 S
C517 C518 1.387 1_655 S
C517 H520 0.950 . S
C518 C517 1.387 1_455 S
C518 C521 1.387 . S
H519 C515 0.950 . S
H520 C517 0.950 . S
C521 C512 1.390 1_556 S
C521 H514 0.950 . S
C521 C518 1.387 . S
C522 C523 1.387 . S
C522 H526 0.950 . S
C522 C531 1.390 . S
C523 C522 1.387 . S
C523 C525 1.387 . S
H524 C531 0.950 . S
C525 C523 1.387 . S
C525 C527 1.390 . S
C525 H529 0.950 . S
H526 C522 0.950 . S
C527 C525 1.390 . S
C527 C528 1.387 . S
C527 H530 0.950 . S
C528 C527 1.387 . S
C528 C531 1.387 . S
H529 C525 0.950 . S
H530 C527 0.950 . S
C531 C522 1.390 . S
C531 H524 0.950 . S
C531 C528 1.387 . S
C532 C533 1.387 1_545 S
C532 H536 0.950 . S
C532 C541 1.390 . S
C533 C532 1.387 1_565 S
C533 C535 1.387 . S
H534 C541 0.950 . S
C535 C533 1.387 . S
C535 C537 1.390 . S
C535 H539 0.950 . S
H536 C532 0.950 . S
C537 C535 1.390 . S
C537 C538 1.387 1_565 S
C537 H540 0.950 . S
C538 C537 1.387 1_545 S
C538 C541 1.387 . S
H539 C535 0.950 . S
H540 C537 0.950 . S
C541 C532 1.390 . S
C541 H534 0.950 . S
C541 C538 1.387 . S
C542 C543 1.387 . S
C542 H546 0.950 . S
C542 C551 1.390 . S
C543 C542 1.387 . S
C543 C545 1.387 1_655 S
H544 C551 0.950 . S
C545 C543 1.387 1_455 S
C545 C547 1.390 . S
C545 H549 0.950 . S
H546 C542 0.950 . S
C547 C545 1.390 . S
C547 C548 1.387 . S
C547 H550 0.950 . S
C548 C547 1.387 . S
C548 C551 1.387 1_455 S
H549 C545 0.950 . S
H550 C547 0.950 . S
C551 C542 1.390 . S
C551 H544 0.950 . S
C551 C548 1.387 1_655 S
C552 C553 1.387 . S
C552 H556 0.950 . S
C552 C561 1.390 . S
C553 C552 1.387 . S
C553 C555 1.387 . S
H554 C561 0.950 . S
C555 C553 1.387 . S
C555 C557 1.390 . S
C555 H559 0.950 . S
H556 C552 0.950 . S
C557 C555 1.390 . S
C557 C558 1.387 . S
C557 H560 0.950 . S
C558 C557 1.387 . S
C558 C561 1.387 . S
H559 C555 0.950 . S
H560 C557 0.950 . S
C561 C552 1.390 . S
C561 H554 0.950 . S
C561 C558 1.387 . S
C562 C563 1.387 . S
C562 H566 0.950 . S
C562 C571 1.390 . S
C563 C562 1.387 . S
C563 C565 1.387 . S
H564 C571 0.950 . S
C565 C563 1.387 . S
C565 C567 1.390 . S
C565 H569 0.950 . S
H566 C562 0.950 . S
C567 C565 1.390 . S
C567 C568 1.387 . S
C567 H570 0.950 . S
C568 C567 1.387 . S
C568 C571 1.387 . S
H569 C565 0.950 . S
H570 C567 0.950 . S
C571 C562 1.390 . S
C571 H564 0.950 . S
C571 C568 1.387 . S
C572 C573 1.387 . S
C572 H576 0.950 . S
C572 C581 1.390 . S
C573 C572 1.387 . S
C573 C575 1.387 . S
H574 C581 0.950 . S
C575 C573 1.387 . S
C575 C577 1.390 . S
C575 H579 0.950 . S
H576 C572 0.950 . S
C577 C575 1.390 . S
C577 C578 1.387 . S
C577 H580 0.950 . S
C578 C577 1.387 . S
C578 C581 1.387 . S
H579 C575 0.950 . S
H580 C577 0.950 . S
C581 C572 1.390 . S
C581 H574 0.950 . S
C581 C578 1.387 . S
C582 C583 1.387 . S
C582 H586 0.950 . S
C582 C591 1.390 . S
C583 C582 1.387 . S
C583 C585 1.387 . S
H584 C591 0.950 . S
C585 C583 1.387 . S
C585 C587 1.390 . S
C585 H589 0.950 . S
H586 C582 0.950 . S
C587 C585 1.390 . S
C587 C588 1.387 . S
C587 H590 0.950 . S
C588 C587 1.387 . S
C588 C591 1.387 . S
H589 C585 0.950 . S
H590 C587 0.950 . S
C591 C582 1.390 . S
C591 H584 0.950 . S
C591 C588 1.387 . S
C592 C593 1.387 . S
C592 H596 0.950 . S
C592 C601 1.390 . S
C593 C592 1.387 . S
C593 C595 1.387 . S
H594 C601 0.950 . S
C595 C593 1.387 . S
C595 C597 1.390 . S
C595 H599 0.950 . S
H596 C592 0.950 . S
C597 C595 1.390 . S
C597 C598 1.387 . S
C597 H600 0.950 . S
C598 C597 1.387 . S
C598 C601 1.387 . S
H599 C595 0.950 . S
H600 C597 0.950 . S
C601 C592 1.390 . S
C601 H594 0.950 . S
C601 C598 1.387 . S
C602 C603 1.387 . S
C602 H606 0.950 . S
C602 C611 1.390 . S
C603 C602 1.387 . S
C603 C605 1.387 . S
H604 C611 0.950 . S
C605 C603 1.387 . S
C605 C607 1.390 . S
C605 H609 0.950 . S
H606 C602 0.950 . S
C607 C605 1.390 . S
C607 C608 1.387 . S
C607 H610 0.950 . S
C608 C607 1.387 . S
C608 C611 1.387 . S
H609 C605 0.950 . S
H610 C607 0.950 . S
C611 C602 1.390 . S
C611 H604 0.950 . S
C611 C608 1.387 . S
C612 C613 1.387 . S
C612 H616 0.950 . S
C612 C621 1.390 . S
C613 C612 1.387 . S
C613 C615 1.387 . S
H614 C621 0.950 . S
C615 C613 1.387 . S
C615 C617 1.390 . S
C615 H619 0.950 . S
H616 C612 0.950 . S
C617 C615 1.390 . S
C617 C618 1.387 . S
C617 H620 0.950 . S
C618 C617 1.387 . S
C618 C621 1.387 . S
H619 C615 0.950 . S
H620 C617 0.950 . S
C621 C612 1.390 . S
C621 H614 0.950 . S
C621 C618 1.387 . S
C622 C623 1.387 . S
C622 H626 0.950 . S
C622 C631 1.390 . S
C623 C622 1.387 . S
C623 C625 1.387 . S
H624 C631 0.950 . S
C625 C623 1.387 . S
C625 C627 1.390 . S
C625 H629 0.950 . S
H626 C622 0.950 . S
C627 C625 1.390 . S
C627 C628 1.387 . S
C627 H630 0.950 . S
C628 C627 1.387 . S
C628 C631 1.387 . S
H629 C625 0.950 . S
H630 C627 0.950 . S
C631 C622 1.390 . S
C631 H624 0.950 . S
C631 C628 1.387 . S
C632 C633 1.387 . S
C632 H636 0.950 . S
C632 C641 1.390 . S
C633 C632 1.387 . S
C633 C635 1.387 . S
H634 C641 0.950 . S
C635 C633 1.387 . S
C635 C637 1.390 . S
C635 H639 0.950 . S
H636 C632 0.950 . S
C637 C635 1.390 . S
C637 C638 1.387 . S
C637 H640 0.950 . S
C638 C637 1.387 . S
C638 C641 1.387 . S
H639 C635 0.950 . S
H640 C637 0.950 . S
C641 C632 1.390 . S
C641 H634 0.950 . S
C641 C638 1.387 . S
C642 C643 1.387 . S
C642 H646 0.950 . S
C642 C651 1.390 . S
C643 C642 1.387 . S
C643 C645 1.387 . S
H644 C651 0.950 . S
C645 C643 1.387 . S
C645 C647 1.390 . S
C645 H649 0.950 . S
H646 C642 0.950 . S
C647 C645 1.390 . S
C647 C648 1.387 . S
C647 H650 0.950 . S
C648 C647 1.387 . S
C648 C651 1.387 . S
H649 C645 0.950 . S
H650 C647 0.950 . S
C651 C642 1.390 . S
C651 H644 0.950 . S
C651 C648 1.387 . S
C652 C653 1.387 . S
C652 H656 0.950 . S
C652 C661 1.390 . S
C653 C652 1.387 . S
C653 C655 1.387 . S
H654 C661 0.950 . S
C655 C653 1.387 . S
C655 C657 1.390 . S
C655 H659 0.950 . S
H656 C652 0.950 . S
C657 C655 1.390 . S
C657 C658 1.387 . S
C657 H660 0.950 . S
C658 C657 1.387 . S
C658 C661 1.387 . S
H659 C655 0.950 . S
H660 C657 0.950 . S
C661 C652 1.390 . S
C661 H654 0.950 . S
C661 C658 1.387 . S
C662 C663 1.387 . S
C662 H666 0.950 . S
C662 C671 1.390 . S
C663 C662 1.387 . S
C663 C665 1.387 . S
H664 C671 0.950 . S
C665 C663 1.387 . S
C665 C667 1.390 . S
C665 H669 0.950 . S
H666 C662 0.950 . S
C667 C665 1.390 . S
C667 C668 1.387 . S
C667 H670 0.950 . S
C668 C667 1.387 . S
C668 C671 1.387 . S
H669 C665 0.950 . S
H670 C667 0.950 . S
C671 C662 1.390 . S
C671 H664 0.950 . S
C671 C668 1.387 . S
C672 C673 1.387 . S
C672 H676 0.950 . S
C672 C681 1.390 . S
C673 C672 1.387 . S
C673 C675 1.387 . S
H674 C681 0.950 . S
C675 C673 1.387 . S
C675 C677 1.390 . S
C675 H679 0.950 . S
H676 C672 0.950 . S
C677 C675 1.390 . S
C677 C678 1.387 . S
C677 H680 0.950 . S
C678 C677 1.387 . S
C678 C681 1.387 . S
H679 C675 0.950 . S
H680 C677 0.950 . S
C681 C672 1.390 . S
C681 H674 0.950 . S
C681 C678 1.387 . S
C682 C683 1.387 . S
C682 H686 0.950 . S
C682 C691 1.390 1_565 S
C683 C682 1.387 . S
C683 C685 1.387 . S
H684 C691 0.950 . S
C685 C683 1.387 . S
C685 C687 1.390 1_565 S
C685 H689 0.950 . S
H686 C682 0.950 . S
C687 C685 1.390 1_545 S
C687 C688 1.387 . S
C687 H690 0.950 . S
C688 C687 1.387 . S
C688 C691 1.387 . S
H689 C685 0.950 . S
H690 C687 0.950 . S
C691 C682 1.390 1_545 S
C691 H684 0.950 . S
C691 C688 1.387 . S
C692 C693 1.387 . S
C692 H696 0.950 . S
C692 C701 1.390 1_455 S
C693 C692 1.387 . S
C693 C695 1.387 . S
H694 C701 0.950 . S
C695 C693 1.387 . S
C695 C697 1.390 1_455 S
C695 H699 0.950 . S
H696 C692 0.950 . S
C697 C695 1.390 1_655 S
C697 C698 1.387 . S
C697 H700 0.950 . S
C698 C697 1.387 . S
C698 C701 1.387 . S
H699 C695 0.950 . S
H700 C697 0.950 . S
C701 C692 1.390 1_655 S
C701 H694 0.950 . S
C701 C698 1.387 . S
C702 C703 1.387 . S
C702 H706 0.950 . S
C702 C711 1.390 . S
C703 C702 1.387 . S
C703 C705 1.387 . S
H704 C711 0.950 . S
C705 C703 1.387 . S
C705 C707 1.390 . S
C705 H709 0.950 . S
H706 C702 0.950 . S
C707 C705 1.390 . S
C707 C708 1.387 . S
C707 H710 0.950 . S
C708 C707 1.387 . S
C708 C711 1.387 . S
H709 C705 0.950 . S
H710 C707 0.950 . S
C711 C702 1.390 . S
C711 H704 0.950 . S
C711 C708 1.387 . S
C712 C713 1.387 . S
C712 H716 0.950 . S
C712 C721 1.390 1_565 S
C713 C712 1.387 . S
C713 C715 1.387 . S
H714 C721 0.950 . S
C715 C713 1.387 . S
C715 C717 1.390 1_565 S
C715 H719 0.950 . S
H716 C712 0.950 . S
C717 C715 1.390 1_545 S
C717 C718 1.387 . S
C717 H720 0.950 . S
C718 C717 1.387 . S
C718 C721 1.387 . S
H719 C715 0.950 . S
H720 C717 0.950 . S
C721 C712 1.390 1_545 S
C721 H714 0.950 . S
C721 C718 1.387 . S
C722 C723 1.387 . S
C722 H726 0.950 . S
C722 C731 1.390 1_655 S
C723 C722 1.387 . S
C723 C725 1.387 . S
H724 C731 0.950 . S
C725 C723 1.387 . S
C725 C727 1.390 1_655 S
C725 H729 0.950 . S
H726 C722 0.950 . S
C727 C725 1.390 1_455 S
C727 C728 1.387 . S
C727 H730 0.950 . S
C728 C727 1.387 . S
C728 C731 1.387 . S
H729 C725 0.950 . S
H730 C727 0.950 . S
C731 C722 1.390 1_455 S
C731 H724 0.950 . S
C731 C728 1.387 . S
C732 C733 1.387 . S
C732 H736 0.950 . S
C732 C741 1.390 . S
C733 C732 1.387 . S
C733 C735 1.387 . S
H734 C741 0.950 . S
C735 C733 1.387 . S
C735 C737 1.390 . S
C735 H739 0.950 . S
H736 C732 0.950 . S
C737 C735 1.390 . S
C737 C738 1.387 . S
C737 H740 0.950 . S
C738 C737 1.387 . S
C738 C741 1.387 . S
H739 C735 0.950 . S
H740 C737 0.950 . S
C741 C732 1.390 . S
C741 H734 0.950 . S
C741 C738 1.387 . S
C742 C743 1.387 . S
C742 H746 0.950 . S
C742 C751 1.390 . S
C743 C742 1.387 . S
C743 C745 1.387 . S
H744 C751 0.950 . S
C745 C743 1.387 . S
C745 C747 1.390 . S
C745 H749 0.950 . S
H746 C742 0.950 . S
C747 C745 1.390 . S
C747 C748 1.387 . S
C747 H750 0.950 . S
C748 C747 1.387 . S
C748 C751 1.387 . S
H749 C745 0.950 . S
H750 C747 0.950 . S
C751 C742 1.390 . S
C751 H744 0.950 . S
C751 C748 1.387 . S
C752 C753 1.387 . S
C752 H756 0.950 . S
C752 C761 1.390 . S
C753 C752 1.387 . S
C753 C755 1.387 . S
H754 C761 0.950 . S
C755 C753 1.387 . S
C755 C757 1.390 . S
C755 H759 0.950 . S
H756 C752 0.950 . S
C757 C755 1.390 . S
C757 C758 1.387 . S
C757 H760 0.950 . S
C758 C757 1.387 . S
C758 C761 1.387 . S
H759 C755 0.950 . S
H760 C757 0.950 . S
C761 C752 1.390 . S
C761 H754 0.950 . S
C761 C758 1.387 . S
C762 C763 1.387 . S
C762 H766 0.950 . S
C762 C771 1.390 . S
C763 C762 1.387 . S
C763 C765 1.387 . S
H764 C771 0.950 . S
C765 C763 1.387 . S
C765 C767 1.390 . S
C765 H769 0.950 . S
H766 C762 0.950 . S
C767 C765 1.390 . S
C767 C768 1.387 . S
C767 H770 0.950 . S
C768 C767 1.387 . S
C768 C771 1.387 . S
H769 C765 0.950 . S
H770 C767 0.950 . S
C771 C762 1.390 . S
C771 H764 0.950 . S
C771 C768 1.387 . S
C772 C773 1.387 . S
C772 H776 0.950 . S
C772 C781 1.390 . S
C773 C772 1.387 . S
C773 C775 1.387 . S
H774 C781 0.950 . S
C775 C773 1.387 . S
C775 C777 1.390 . S
C775 H779 0.950 . S
H776 C772 0.950 . S
C777 C775 1.390 . S
C777 C778 1.387 . S
C777 H780 0.950 . S
C778 C777 1.387 . S
C778 C781 1.387 . S
H779 C775 0.950 . S
H780 C777 0.950 . S
C781 C772 1.390 . S
C781 H774 0.950 . S
C781 C778 1.387 . S
C782 C783 1.387 . S
C782 H786 0.950 . S
C782 C791 1.390 . S
C783 C782 1.387 . S
C783 C785 1.387 . S
H784 C791 0.950 . S
C785 C783 1.387 . S
C785 C787 1.390 . S
C785 H789 0.950 . S
H786 C782 0.950 . S
C787 C785 1.390 . S
C787 C788 1.387 . S
C787 H790 0.950 . S
C788 C787 1.387 . S
C788 C791 1.387 . S
H789 C785 0.950 . S
H790 C787 0.950 . S
C791 C782 1.390 . S
C791 H784 0.950 . S
C791 C788 1.387 . S
C792 C793 1.387 . S
C792 H796 0.950 . S
C792 C801 1.390 . S
C793 C792 1.387 . S
C793 C795 1.387 . S
H794 C801 0.950 . S
C795 C793 1.387 . S
C795 C797 1.390 . S
C795 H799 0.950 . S
H796 C792 0.950 . S
C797 C795 1.390 . S
C797 C798 1.387 . S
C797 H800 0.950 . S
C798 C797 1.387 . S
C798 C801 1.387 . S
H799 C795 0.950 . S
H800 C797 0.950 . S
C801 C792 1.390 . S
C801 H794 0.950 . S
C801 C798 1.387 . S
C802 C803 1.387 . S
C802 H806 0.950 . S
C802 C811 1.390 . S
C803 C802 1.387 . S
C803 C805 1.387 . S
H804 C811 0.950 . S
C805 C803 1.387 . S
C805 C807 1.390 . S
C805 H809 0.950 1_554 S
H806 C802 0.950 . S
C807 C805 1.390 . S
C807 C808 1.387 . S
C807 H810 0.950 . S
C808 C807 1.387 . S
C808 C811 1.387 . S
H809 C805 0.950 1_556 S
H810 C807 0.950 . S
C811 C802 1.390 . S
C811 H804 0.950 . S
C811 C808 1.387 . S
C812 C813 1.387 . S
C812 H816 0.950 . S
C812 C821 1.390 . S
C813 C812 1.387 . S
C813 C815 1.387 . S
H814 C821 0.950 . S
C815 C813 1.387 . S
C815 C817 1.390 . S
C815 H819 0.950 . S
H816 C812 0.950 . S
C817 C815 1.390 . S
C817 C818 1.387 . S
C817 H820 0.950 . S
C818 C817 1.387 . S
C818 C821 1.387 . S
H819 C815 0.950 . S
H820 C817 0.950 . S
C821 C812 1.390 . S
C821 H814 0.950 . S
C821 C818 1.387 . S
C822 C823 1.387 . S
C822 H826 0.950 . S
C822 C831 1.390 . S
C823 C822 1.387 . S
C823 C825 1.387 . S
H824 C831 0.950 . S
C825 C823 1.387 . S
C825 C827 1.390 . S
C825 H829 0.950 . S
H826 C822 0.950 . S
C827 C825 1.390 . S
C827 C828 1.387 . S
C827 H830 0.950 . S
C828 C827 1.387 . S
C828 C831 1.387 . S
H829 C825 0.950 . S
H830 C827 0.950 . S
C831 C822 1.390 . S
C831 H824 0.950 . S
C831 C828 1.387 . S
C832 C833 1.387 . S
C832 H836 0.950 . S
C832 C841 1.390 . S
C833 C832 1.387 . S
C833 C835 1.387 . S
H834 C841 0.950 . S
C835 C833 1.387 . S
C835 C837 1.390 . S
C835 H839 0.950 . S
H836 C832 0.950 . S
C837 C835 1.390 . S
C837 C838 1.387 . S
C837 H840 0.950 . S
C838 C837 1.387 . S
C838 C841 1.387 . S
H839 C835 0.950 . S
H840 C837 0.950 . S
C841 C832 1.390 . S
C841 H834 0.950 . S
C841 C838 1.387 . S
C842 C843 1.387 . S
C842 H846 0.950 . S
C842 C851 1.390 . S
C843 C842 1.387 . S
C843 C845 1.387 . S
H844 C851 0.950 . S
C845 C843 1.387 . S
C845 C847 1.390 . S
C845 H849 0.950 . S
H846 C842 0.950 . S
C847 C845 1.390 . S
C847 C848 1.387 . S
C847 H850 0.950 . S
C848 C847 1.387 . S
C848 C851 1.387 . S
H849 C845 0.950 . S
H850 C847 0.950 . S
C851 C842 1.390 . S
C851 H844 0.950 . S
C851 C848 1.387 . S
C373 C29 1.817 . S
C378 C61 1.558 . S
C383 C72 1.556 . S
C388 C60 1.816 . S
C393 C64 1.816 . S
C398 C30 1.556 . S
C403 C165 1.561 . S
C408 C122 1.818 . S
C413 C123 1.561 . S
C418 C126 1.818 . S
C423 C157 1.817 . S
C428 C134 1.559 . S
C433 C215 1.816 . S
C438 C227 1.558 . S
C443 C278 1.561 . S
C448 C219 1.818 . S
C453 C277 1.816 . S
C458 C216 1.556 . S
C463 C281 1.816 . S
C468 C351 1.556 . S
C473 C289 1.557 . S
C478 C312 1.817 . S
C483 C320 1.559 . S
C488 C343 1.817 . S
C493 C188 1.213 . S
C498 C2 1.213 . S
C503 C33 1.217 . S
C508 C246 1.217 . S
C513 C91 1.212 . S
C518 C250 1.212 . S
C523 C95 1.217 . S
C528 C308 1.217 . S
C533 C153 1.215 . S
C538 C339 1.215 . S
C543 C370 1.212 . S
C548 C184 1.212 . S
C553 C1 1.159 . S
C558 C309 1.152 . S
C563 C32 1.160 . S
C568 C340 1.150 . S
C573 C371 1.149 . S
C578 C82 1.156 . S
C583 C196 1.150 . S
C588 C94 1.160 . S
C593 C247 1.150 . S
C598 C144 1.160 . S
C603 C258 1.148 . S
C608 C175 1.157 . S
C613 C103 1.152 . S
C618 C187 1.158 . S
C623 C237 1.156 . S
C628 C154 1.150 . S
C633 C249 1.158 . S
C638 C185 1.152 . S
C643 C10 1.152 . S
C648 C299 1.159 . S
C653 C330 1.156 . S
C658 C41 1.150 . S
C663 C92 1.150 . S
C668 C361 1.160 . S
C673 C112 2.474 . S
C678 C19 2.474 . S
C683 C124 2.475 . S
C688 C50 2.475 . S
C693 C155 2.475 . S
C698 C62 2.475 . S
C703 C205 2.475 . S
C708 C279 2.474 . S
C713 C217 2.475 . S
C718 C310 2.475 . S
C723 C341 2.474 . S
C728 C267 2.473 . S
C733 C311 1.434 . S
C738 C0 1.653 1_556 S
C743 C31 1.653 1_556 S
C748 C342 1.430 . S
C753 C81 1.652 1_556 S
C758 C280 1.433 . S
C763 C93 1.654 . S
C768 C268 1.431 . S
C773 C206 1.429 . S
C778 C143 1.653 . S
C783 C218 1.435 . S
C788 C174 1.654 . S
C793 C186 1.653 1_554 S
C798 C125 1.430 . S
C803 C236 1.654 1_554 S
C808 C156 1.435 . S
C813 C248 1.653 1_554 S
C818 C113 1.430 . S
C823 C63 1.430 . S
C828 C298 1.654 . S
C833 C20 1.435 . S
C838 C329 1.653 . S
C843 C51 1.432 . S
C848 C360 1.654 . S
