# Generated by pormake.
# Topology zfg, (5)-cn, num edge types: 1
# Building blocks:
#     Node 0, Type 0, BuildingBlock: XOMCOT_clean_sbu_1, # of connection points: 5
#     Node 1, Type 0, BuildingBlock: XOMCOT_clean_sbu_1, # of connection points: 5
#     Node 2, Type 0, BuildingBlock: XOMCOT_clean_sbu_1, # of connection points: 5
#     Node 3, Type 0, BuildingBlock: XOMCOT_clean_sbu_1, # of connection points: 5
#     Node 4, Type 0, BuildingBlock: XOMCOT_clean_sbu_1, # of connection points: 5
#     Node 5, Type 0, BuildingBlock: XOMCOT_clean_sbu_1, # of connection points: 5
#     Node 6, Type 0, BuildingBlock: XOMCOT_clean_sbu_1, # of connection points: 5
#     Node 7, Type 0, BuildingBlock: XOMCOT_clean_sbu_1, # of connection points: 5
#     Node 8, Type 0, BuildingBlock: XOMCOT_clean_sbu_1, # of connection points: 5
#     Node 9, Type 0, BuildingBlock: XOMCOT_clean_sbu_1, # of connection points: 5
#     Node 10, Type 0, BuildingBlock: XOMCOT_clean_sbu_1, # of connection points: 5
#     Node 11, Type 0, BuildingBlock: XOMCOT_clean_sbu_1, # of connection points: 5
#     Node 12, Type 0, BuildingBlock: XOMCOT_clean_sbu_1, # of connection points: 5
#     Node 13, Type 0, BuildingBlock: XOMCOT_clean_sbu_1, # of connection points: 5
#     Node 14, Type 0, BuildingBlock: XOMCOT_clean_sbu_1, # of connection points: 5
#     Node 15, Type 0, BuildingBlock: XOMCOT_clean_sbu_1, # of connection points: 5
#     Edge 16, Type (0, 0), BuildingBlock: XIVTED_clean_linker_0, # of connection points: 2
#     Edge 17, Type (0, 0), BuildingBlock: XIVTED_clean_linker_0, # of connection points: 2
#     Edge 18, Type (0, 0), BuildingBlock: XIVTED_clean_linker_0, # of connection points: 2
#     Edge 19, Type (0, 0), BuildingBlock: XIVTED_clean_linker_0, # of connection points: 2
#     Edge 20, Type (0, 0), BuildingBlock: XIVTED_clean_linker_0, # of connection points: 2
#     Edge 21, Type (0, 0), BuildingBlock: XIVTED_clean_linker_0, # of connection points: 2
#     Edge 22, Type (0, 0), BuildingBlock: XIVTED_clean_linker_0, # of connection points: 2
#     Edge 23, Type (0, 0), BuildingBlock: XIVTED_clean_linker_0, # of connection points: 2
#     Edge 24, Type (0, 0), BuildingBlock: XIVTED_clean_linker_0, # of connection points: 2
#     Edge 25, Type (0, 0), BuildingBlock: XIVTED_clean_linker_0, # of connection points: 2
#     Edge 26, Type (0, 0), BuildingBlock: XIVTED_clean_linker_0, # of connection points: 2
#     Edge 27, Type (0, 0), BuildingBlock: XIVTED_clean_linker_0, # of connection points: 2
#     Edge 28, Type (0, 0), BuildingBlock: XIVTED_clean_linker_0, # of connection points: 2
#     Edge 29, Type (0, 0), BuildingBlock: XIVTED_clean_linker_0, # of connection points: 2
#     Edge 30, Type (0, 0), BuildingBlock: XIVTED_clean_linker_0, # of connection points: 2
#     Edge 31, Type (0, 0), BuildingBlock: XIVTED_clean_linker_0, # of connection points: 2
#     Edge 32, Type (0, 0), BuildingBlock: XIVTED_clean_linker_0, # of connection points: 2
#     Edge 33, Type (0, 0), BuildingBlock: XIVTED_clean_linker_0, # of connection points: 2
#     Edge 34, Type (0, 0), BuildingBlock: XIVTED_clean_linker_0, # of connection points: 2
#     Edge 35, Type (0, 0), BuildingBlock: XIVTED_clean_linker_0, # of connection points: 2
#     Edge 36, Type (0, 0), BuildingBlock: XIVTED_clean_linker_0, # of connection points: 2
#     Edge 37, Type (0, 0), BuildingBlock: XIVTED_clean_linker_0, # of connection points: 2
#     Edge 38, Type (0, 0), BuildingBlock: XIVTED_clean_linker_0, # of connection points: 2
#     Edge 39, Type (0, 0), BuildingBlock: XIVTED_clean_linker_0, # of connection points: 2
#     Edge 40, Type (0, 0), BuildingBlock: XIVTED_clean_linker_0, # of connection points: 2
#     Edge 41, Type (0, 0), BuildingBlock: XIVTED_clean_linker_0, # of connection points: 2
#     Edge 42, Type (0, 0), BuildingBlock: XIVTED_clean_linker_0, # of connection points: 2
#     Edge 43, Type (0, 0), BuildingBlock: XIVTED_clean_linker_0, # of connection points: 2
#     Edge 44, Type (0, 0), BuildingBlock: XIVTED_clean_linker_0, # of connection points: 2
#     Edge 45, Type (0, 0), BuildingBlock: XIVTED_clean_linker_0, # of connection points: 2
#     Edge 46, Type (0, 0), BuildingBlock: XIVTED_clean_linker_0, # of connection points: 2
#     Edge 47, Type (0, 0), BuildingBlock: XIVTED_clean_linker_0, # of connection points: 2
#     Edge 48, Type (0, 0), BuildingBlock: XIVTED_clean_linker_0, # of connection points: 2
#     Edge 49, Type (0, 0), BuildingBlock: XIVTED_clean_linker_0, # of connection points: 2
#     Edge 50, Type (0, 0), BuildingBlock: XIVTED_clean_linker_0, # of connection points: 2
#     Edge 51, Type (0, 0), BuildingBlock: XIVTED_clean_linker_0, # of connection points: 2
#     Edge 52, Type (0, 0), BuildingBlock: XIVTED_clean_linker_0, # of connection points: 2
#     Edge 53, Type (0, 0), BuildingBlock: XIVTED_clean_linker_0, # of connection points: 2
#     Edge 54, Type (0, 0), BuildingBlock: XIVTED_clean_linker_0, # of connection points: 2
#     Edge 55, Type (0, 0), BuildingBlock: XIVTED_clean_linker_0, # of connection points: 2
# Relax obj value: 0.101
# Max RMSD: 0.138
# Mean RMSD: 0.138
data_MOF--net-zfg--node1-XOMCOT_clean_sbu_1--edge1-XIVTED_clean_linker_0
_symmetry_space_group_name_H-M    P1
_symmetry_Int_Tables_number       1
_symmetry_cell_setting            triclinic
loop_
_symmetry_equiv_pos_as_xyz
'x, y, z'
_cell_length_a     42.807364
_cell_length_b     43.036707
_cell_length_c     51.863553
_cell_angle_alpha  90.038856
_cell_angle_beta   89.834582
_cell_angle_gamma 89.888318
loop_
_atom_site_label
_atom_site_type_symbol
_atom_site_fract_x
_atom_site_fract_y
_atom_site_fract_z
_atom_type_partial_charge
C0 C 0.03791 0.24088 0.20182 0.0
C1 C 0.05752 0.21565 0.20266 0.0
N2 N 0.07954 0.21923 0.18431 0.0
N3 N 0.04752 0.26029 0.18305 0.0
C4 C 0.07295 0.24648 0.17262 0.0
H5 H 0.01811 0.2451 0.21435 0.0
Co6 Co 0.02887 0.29827 0.17656 0.0
C7 C 0.03777 0.3103 0.12055 0.0
O8 O 0.0092 0.32113 0.11946 0.0
N9 N 0.00945 0.33772 0.17082 0.0
C10 C 0.97645 0.37628 0.161 0.0
C11 C 0.9801 0.34466 0.16271 0.0
C12 C 0.02277 0.36596 0.17433 0.0
N13 N 0.00326 0.38944 0.16847 0.0
O14 O 0.06415 0.31834 0.19224 0.0
H15 H 0.96243 0.32813 0.15719 0.0
H16 H 0.04648 0.36964 0.18072 0.0
O17 O 0.04868 0.29978 0.14182 0.0
C18 C 0.0592 0.31955 0.21653 0.0
O19 O 0.03268 0.30843 0.22537 0.0
N20 N 0.99384 0.27698 0.16471 0.0
C21 C 0.94332 0.23665 0.16043 0.0
C22 C 0.96755 0.23605 0.1421 0.0
C23 C 0.99288 0.25636 0.1447 0.0
C24 C 0.97068 0.27745 0.18278 0.0
C25 C 0.9449 0.25808 0.18069 0.0
H26 H 0.0125 0.25397 0.13171 0.0
H27 H 0.97288 0.29239 0.19946 0.0
H28 H 0.08695 0.2566 0.1574 0.0
H29 H 0.05576 0.19619 0.2158 0.0
H30 H 0.95569 0.38869 0.15501 0.0
H31 H 0.96748 0.21926 0.12653 0.0
H32 H 0.9273 0.25856 0.19574 0.0
C33 C 0.76247 0.02577 0.19535 0.0
C34 C 0.78871 0.04312 0.20036 0.0
N35 N 0.78405 0.07203 0.19115 0.0
N36 N 0.74171 0.04345 0.18243 0.0
C37 C 0.75492 0.07183 0.18129 0.0
H38 H 0.75931 0.00143 0.19984 0.0
Co39 Co 0.70381 0.0308 0.16817 0.0
C40 C 0.73267 0.0643 0.12045 0.0
O41 O 0.76169 0.06686 0.12829 0.0
N42 N 0.66594 0.01842 0.15374 0.0
C43 C 0.63253 0.00127 0.12441 0.0
C44 C 0.6633 0.00672 0.12969 0.0
C45 C 0.63633 0.01974 0.16282 0.0
N46 N 0.61552 0.00963 0.14516 0.0
O47 O 0.68396 0.06709 0.18298 0.0
H48 H 0.68262 0.00265 0.11662 0.0
H49 H 0.63005 0.02874 0.18161 0.0
O50 O 0.71202 0.05188 0.13504 0.0
C51 C 0.67942 0.06082 0.20682 0.0
O52 O 0.68753 0.03308 0.21506 0.0
N53 N 0.72245 0.99356 0.15667 0.0
C54 C 0.75138 0.93549 0.15252 0.0
C55 C 0.76424 0.96173 0.14037 0.0
C56 C 0.74928 0.9906 0.14256 0.0
C57 C 0.70897 0.96808 0.16755 0.0
C58 C 0.72251 0.93882 0.16511 0.0
H59 H 0.76069 0.01066 0.13469 0.0
H60 H 0.68813 0.97067 0.1792 0.0
H61 H 0.74419 0.09142 0.17167 0.0
H62 H 0.80998 0.03476 0.20924 0.0
H63 H 0.6234 0.99188 0.1066 0.0
H64 H 0.78667 0.96057 0.13073 0.0
H65 H 0.71106 0.91927 0.1742 0.0
C66 C 0.93323 0.7437 0.21798 0.0
C67 C 0.9098 0.76522 0.21586 0.0
N68 N 0.89948 0.76498 0.19138 0.0
N69 N 0.93763 0.72971 0.19501 0.0
C70 C 0.91688 0.74339 0.17896 0.0
H71 H 0.94618 0.73844 0.23529 0.0
Co72 Co 0.96646 0.69794 0.19127 0.0
C73 C 0.96746 0.67878 0.13566 0.0
O74 O 0.99669 0.67023 0.13825 0.0
N75 N 0.99614 0.6654 0.18884 0.0
C76 C 0.03973 0.63701 0.18597 0.0
C77 C 0.0278 0.66658 0.1884 0.0
C78 C 0.9896 0.63472 0.18722 0.0
N79 N 0.01558 0.61723 0.18543 0.0
O80 O 0.93591 0.66927 0.20516 0.0
H81 H 0.04173 0.68741 0.1892 0.0
H82 H 0.96623 0.62523 0.18659 0.0
O83 O 0.95259 0.69069 0.15484 0.0
C84 C 0.94156 0.66679 0.2293 0.0
O85 O 0.96632 0.68103 0.23841 0.0
N86 N 0.99623 0.72731 0.18171 0.0
C87 C 0.04178 0.77332 0.17984 0.0
C88 C 0.02686 0.76348 0.15716 0.0
C89 C 0.00349 0.74066 0.15856 0.0
C90 C 0.0102 0.73713 0.20379 0.0
C91 C 0.03307 0.75985 0.20331 0.0
H92 H 0.99118 0.73441 0.14124 0.0
H93 H 0.00369 0.72676 0.22199 0.0
H94 H 0.91404 0.73728 0.15886 0.0
H95 H 0.90109 0.78009 0.23113 0.0
H96 H 0.06413 0.63048 0.18481 0.0
H97 H 0.03265 0.77384 0.13874 0.0
H98 H 0.04413 0.76658 0.22122 0.0
C99 C 0.23946 0.96919 0.1999 0.0
C100 C 0.21389 0.95159 0.20625 0.0
N101 N 0.21847 0.92254 0.19727 0.0
N102 N 0.2599 0.95161 0.18644 0.0
C103 C 0.24711 0.92295 0.18625 0.0
H104 H 0.24237 0.99363 0.20404 0.0
Co105 Co 0.29721 0.96591 0.17181 0.0
C106 C 0.2697 0.93031 0.12487 0.0
O107 O 0.24129 0.92647 0.13387 0.0
N108 N 0.33435 0.98039 0.15733 0.0
C109 C 0.36654 0.00089 0.12843 0.0
C110 C 0.33613 0.9938 0.13385 0.0
C111 C 0.36414 0.97964 0.16589 0.0
N112 N 0.38425 0.99181 0.14847 0.0
O113 O 0.31882 0.93069 0.1866 0.0
H114 H 0.31647 -0.00206 0.12125 0.0
H115 H 0.37107 0.96965 0.18413 0.0
O116 O 0.29027 0.94425 0.13851 0.0
C117 C 0.32294 0.9372 0.21044 0.0
O118 O 0.31355 0.96457 0.2187 0.0
N119 N 0.27669 0.00203 0.16052 0.0
C120 C 0.24324 0.05751 0.15773 0.0
C121 C 0.23436 0.03173 0.14289 0.0
C122 C 0.25142 0.00405 0.14461 0.0
C123 C 0.28673 0.02746 0.17376 0.0
C124 C 0.27056 0.05548 0.17246 0.0
H125 H 0.24287 0.98402 0.13455 0.0
H126 H 0.30648 0.02541 0.18662 0.0
H127 H 0.25808 0.90306 0.17718 0.0
H128 H 0.19279 0.96011 0.2154 0.0
H129 H 0.3749 0.01193 0.111 0.0
H130 H 0.21321 0.03219 0.13148 0.0
H131 H 0.27853 0.07493 0.18394 0.0
C132 C 0.5431 0.26243 0.36824 0.0
C133 C 0.5606 0.28755 0.37553 0.0
N134 N 0.57902 0.27886 0.39525 0.0
N135 N 0.55018 0.23803 0.38341 0.0
C136 C 0.57251 0.2486 0.39958 0.0
H137 H 0.52589 0.26203 0.35303 0.0
Co138 Co 0.52917 0.20067 0.38062 0.0
C139 C 0.53167 0.17017 0.43211 0.0
O140 O 0.50407 0.15821 0.42738 0.0
N141 N 0.50767 0.16263 0.37628 0.0
C142 C 0.47312 0.12583 0.36659 0.0
C143 C 0.47768 0.15715 0.3695 0.0
C144 C 0.52083 0.13397 0.377 0.0
N145 N 0.50029 0.11122 0.37125 0.0
O146 O 0.5647 0.18257 0.36323 0.0
H147 H 0.45979 0.1743 0.36643 0.0
H148 H 0.54518 0.12994 0.38144 0.0
O149 O 0.54484 0.18752 0.41515 0.0
C150 C 0.5631 0.18685 0.33889 0.0
O151 O 0.53976 0.20347 0.32991 0.0
N152 N 0.49387 0.22023 0.39524 0.0
C153 C 0.44248 0.25667 0.40913 0.0
C154 C 0.46488 0.2483 0.42754 0.0
C155 C 0.4907 0.23036 0.42013 0.0
C156 C 0.47323 0.22985 0.37696 0.0
C157 C 0.44695 0.24726 0.38355 0.0
H158 H 0.50868 0.22621 0.43421 0.0
H159 H 0.47751 0.22424 0.35692 0.0
H160 H 0.58321 0.23476 0.41457 0.0
H161 H 0.56002 0.31043 0.36688 0.0
H162 H 0.45128 0.11472 0.36165 0.0
H163 H 0.46286 0.25619 0.44731 0.0
H164 H 0.431 0.25448 0.3685 0.0
C165 C 0.74165 0.52012 0.37713 0.0
C166 C 0.71592 0.53877 0.37376 0.0
N167 N 0.71925 0.5642 0.38867 0.0
N168 N 0.76118 0.53377 0.394 0.0
C169 C 0.74692 0.56059 0.40078 0.0
H170 H 0.74596 0.49798 0.36789 0.0
Co171 Co 0.79917 0.51698 0.40394 0.0
C172 C 0.81864 0.558 0.44672 0.0
O173 O 0.84493 0.56403 0.43461 0.0
N174 N 0.83731 0.49969 0.41386 0.0
C175 C 0.87535 0.47866 0.43712 0.0
C176 C 0.84455 0.48774 0.43715 0.0
C177 C 0.86386 0.49726 0.39993 0.0
N178 N 0.88754 0.4848 0.41369 0.0
O179 O 0.82053 0.54959 0.38531 0.0
H180 H 0.82865 0.48649 0.45336 0.0
H181 H 0.86588 0.50478 0.38013 0.0
O182 O 0.79824 0.54077 0.43594 0.0
C183 C 0.82071 0.54416 0.36106 0.0
O184 O 0.80762 0.51842 0.35281 0.0
N185 N 0.7779 0.48418 0.41964 0.0
C186 C 0.73957 0.43432 0.43284 0.0
C187 C 0.73703 0.46287 0.44586 0.0
C188 C 0.75624 0.48767 0.43878 0.0
C189 C 0.78177 0.4563 0.40763 0.0
C190 C 0.76297 0.431 0.41401 0.0
H191 H 0.7523 0.51005 0.44758 0.0
H192 H 0.79843 0.45421 0.39199 0.0
H193 H 0.75684 0.57741 0.41393 0.0
H194 H 0.69612 0.53384 0.36149 0.0
H195 H 0.88803 0.46946 0.45345 0.0
H196 H 0.71939 0.46648 0.46057 0.0
H197 H 0.76545 0.40972 0.40303 0.0
C198 C 0.46864 0.73451 0.3598 0.0
C199 C 0.45015 0.70845 0.36135 0.0
N200 N 0.42595 0.71484 0.37715 0.0
N201 N 0.45625 0.757 0.3748 0.0
C202 C 0.43002 0.74449 0.38482 0.0
H203 H 0.49036 0.73658 0.34924 0.0
Co204 Co 0.47468 0.79488 0.3825 0.0
C205 C 0.43792 0.81462 0.42793 0.0
O206 O 0.42949 0.83994 0.41561 0.0
N207 N 0.49334 0.83281 0.39063 0.0
C208 C 0.51785 0.86974 0.41255 0.0
C209 C 0.50852 0.83927 0.41277 0.0
C210 C 0.49387 0.85967 0.3772 0.0
N211 N 0.50855 0.88264 0.39018 0.0
O212 O 0.43989 0.81614 0.3665 0.0
H213 H 0.51186 0.82303 0.42843 0.0
H214 H 0.48336 0.86243 0.35841 0.0
O215 O 0.45518 0.79461 0.41657 0.0
C216 C 0.44325 0.81495 0.342 0.0
O217 O 0.46805 0.80072 0.33272 0.0
N218 N 0.50956 0.7737 0.39503 0.0
C219 C 0.56102 0.73475 0.401 0.0
C220 C 0.53488 0.7318 0.41724 0.0
C221 C 0.50913 0.75151 0.41383 0.0
C222 C 0.53541 0.77798 0.38012 0.0
C223 C 0.5615 0.75898 0.38294 0.0
H224 H 0.48815 0.74742 0.42493 0.0
H225 H 0.53504 0.79516 0.3649 0.0
H226 H 0.41492 0.75635 0.39842 0.0
H227 H 0.45441 0.6864 0.35191 0.0
H228 H 0.5294 0.88175 0.42817 0.0
H229 H 0.53344 0.71312 0.43118 0.0
H230 H 0.58131 0.76226 0.3702 0.0
C231 C 0.26981 0.45972 0.37114 0.0
C232 C 0.29483 0.44121 0.37719 0.0
N233 N 0.28517 0.41964 0.39418 0.0
N234 N 0.24455 0.4502 0.38456 0.0
C235 C 0.2545 0.42532 0.39818 0.0
H236 H 0.27003 0.47897 0.35778 0.0
Co237 Co 0.20611 0.47012 0.38331 0.0
C238 C 0.17951 0.46653 0.43635 0.0
O239 O 0.16651 0.49389 0.43297 0.0
N240 N 0.16686 0.49025 0.38085 0.0
C241 C 0.12791 0.52291 0.37201 0.0
C242 C 0.15969 0.51939 0.37302 0.0
C243 C 0.13866 0.4765 0.38414 0.0
N244 N 0.11467 0.49591 0.37897 0.0
O245 O 0.18805 0.43432 0.36713 0.0
H246 H 0.17593 0.53735 0.3678 0.0
H247 H 0.13581 0.4525 0.3899 0.0
O248 O 0.19589 0.45433 0.41824 0.0
C249 C 0.19221 0.43561 0.34278 0.0
O250 O 0.20895 0.45859 0.33344 0.0
N251 N 0.2254 0.50589 0.3966 0.0
C252 C 0.26339 0.55698 0.40666 0.0
C253 C 0.25712 0.53516 0.42606 0.0
C254 C 0.23812 0.50951 0.42058 0.0
C255 C 0.23265 0.52623 0.37741 0.0
C256 C 0.25073 0.55237 0.38216 0.0
H257 H 0.23549 0.49186 0.43515 0.0
H258 H 0.22525 0.5214 0.35788 0.0
H259 H 0.23978 0.4119 0.41099 0.0
H260 H 0.31822 0.44302 0.36934 0.0
H261 H 0.11551 0.54388 0.36669 0.0
H262 H 0.26759 0.5374 0.44496 0.0
H263 H 0.25628 0.56788 0.36635 0.0
C264 C 0.95535 0.74777 0.86626 0.0
C265 C 0.93305 0.77058 0.8661 0.0
N266 N 0.91441 0.76639 0.8867 0.0
N267 N 0.95073 0.72916 0.88681 0.0
C268 C 0.92557 0.74117 0.8991 0.0
H269 H 0.97328 0.74436 0.85181 0.0
Co270 Co 0.97422 0.69363 0.89165 0.0
C271 C 0.97366 0.67935 0.94762 0.0
O272 O 0.00303 0.67104 0.94528 0.0
N273 N 0.99848 0.65696 0.89534 0.0
C274 C 0.03673 0.62197 0.89926 0.0
C275 C 0.02989 0.65297 0.89668 0.0
C276 C 0.98699 0.62775 0.89695 0.0
N277 N 0.0097 0.60627 0.89925 0.0
O278 O 0.94011 0.66942 0.87812 0.0
H279 H 0.0472 0.6711 0.89656 0.0
H280 H 0.96237 0.62216 0.897 0.0
O281 O 0.95876 0.68969 0.92794 0.0
C282 C 0.94417 0.66851 0.8537 0.0
O283 O 0.96912 0.68202 0.84409 0.0
N284 N 0.00768 0.71877 0.9009 0.0
C285 C 0.05327 0.76462 0.90029 0.0
C286 C 0.03438 0.76049 0.92219 0.0
C287 C 0.01102 0.73766 0.92191 0.0
C288 C 0.02614 0.72257 0.87972 0.0
C289 C 0.0493 0.74495 0.87913 0.0
H290 H 0.99467 0.73661 0.93776 0.0
H291 H 0.02207 0.70854 0.86276 0.0
H292 H 0.91479 0.73092 0.91597 0.0
H293 H 0.93027 0.78854 0.85167 0.0
H294 H 0.05976 0.61172 0.90082 0.0
H295 H 0.03642 0.77591 0.93862 0.0
H296 H 0.06337 0.74753 0.86186 0.0
C297 C 0.23678 0.97121 0.86358 0.0
C298 C 0.2103 0.95396 0.85946 0.0
N299 N 0.21617 0.92448 0.86665 0.0
N300 N 0.2591 0.95282 0.87384 0.0
C301 C 0.24628 0.9242 0.87426 0.0
H302 H 0.23911 0.99585 0.86008 0.0
Co303 Co 0.29912 0.96461 0.88463 0.0
C304 C 0.27198 0.93405 0.9333 0.0
O305 O 0.243 0.93532 0.92521 0.0
N306 N 0.33885 0.97652 0.89487 0.0
C307 C 0.37747 -0.00218 0.91722 0.0
C308 C 0.34625 0.99058 0.91733 0.0
C309 C 0.36594 0.9751 0.88155 0.0
N310 N 0.38969 0.98798 0.89474 0.0
O311 O 0.316 0.92733 0.869 0.0
H312 H 0.32984 0.9957 0.93265 0.0
H313 H 0.36821 0.96543 0.86238 0.0
O314 O 0.29419 0.94454 0.91911 0.0
C315 C 0.31641 0.93262 0.8447 0.0
O316 O 0.30672 0.95994 0.83662 0.0
N317 N 0.28342 0.00276 0.89632 0.0
C318 C 0.25375 0.06028 0.89759 0.0
C319 C 0.24677 0.03757 0.91615 0.0
C320 C 0.26204 0.00882 0.91525 0.0
C321 C 0.29247 0.02558 0.87973 0.0
C322 C 0.27818 0.0546 0.88018 0.0
H323 H 0.25496 0.99126 0.92868 0.0
H324 H 0.30941 0.02043 0.86481 0.0
H325 H 0.25825 0.9039 0.88163 0.0
H326 H 0.18792 0.96288 0.85318 0.0
H327 H 0.39032 0.00906 0.93256 0.0
H328 H 0.22809 0.04101 0.92999 0.0
H329 H 0.28487 0.07172 0.86591 0.0
C330 C 0.04436 0.24017 0.85745 0.0
C331 C 0.0655 0.21639 0.85411 0.0
N332 N 0.08881 0.22029 0.87122 0.0
N333 N 0.05442 0.2589 0.87651 0.0
C334 C 0.08159 0.24631 0.88445 0.0
H335 H 0.02274 0.24336 0.84703 0.0
Co336 Co 0.03374 0.29346 0.88902 0.0
C337 C 0.07201 0.31203 0.9334 0.0
O338 O 0.07747 0.33857 0.92175 0.0
N339 N 0.01273 0.32825 0.90208 0.0
C340 C 0.98967 0.35952 0.93049 0.0
C341 C 0.99872 0.32957 0.92546 0.0
C342 C 0.01142 0.35766 0.89308 0.0
N343 N 0.99777 0.37711 0.91015 0.0
O344 O 0.06483 0.31942 0.87256 0.0
H345 H 0.99682 0.31028 0.93872 0.0
H346 H 0.02217 0.36521 0.87527 0.0
O347 O 0.05641 0.29108 0.9217 0.0
C348 C 0.05761 0.32166 0.84871 0.0
O349 O 0.03129 0.30895 0.84111 0.0
N350 N 0.0025 0.26767 0.90182 0.0
C351 C 0.95452 0.22535 0.91029 0.0
C352 C 0.98324 0.2221 0.92306 0.0
C353 C 0.00709 0.24361 0.91853 0.0
C354 C 0.9746 0.27155 0.88973 0.0
C355 C 0.95017 0.25088 0.8939 0.0
H356 H 0.02966 0.23997 0.92732 0.0
H357 H 0.9718 0.29013 0.87588 0.0
H358 H 0.09586 0.25601 0.89962 0.0
H359 H 0.06342 0.19726 0.84068 0.0
H360 H 0.97921 0.368 0.94818 0.0
H361 H 0.98755 0.20259 0.93575 0.0
H362 H 0.9287 0.25388 0.88318 0.0
C363 C 0.76648 0.02762 0.85932 0.0
C364 C 0.79388 0.04425 0.86007 0.0
N365 N 0.7901 0.06807 0.87668 0.0
N366 N 0.74563 0.04084 0.87548 0.0
C367 C 0.76055 0.0656 0.88556 0.0
H368 H 0.76227 0.00669 0.84833 0.0
Co369 Co 0.70648 0.02516 0.8838 0.0
C370 C 0.68952 0.06013 0.93094 0.0
O371 O 0.66215 0.06724 0.92115 0.0
N372 N 0.66726 0.00918 0.89241 0.0
C373 C 0.62943 0.98397 0.91301 0.0
C374 C 0.66027 0.99252 0.91375 0.0
C375 C 0.6402 0.01079 0.87916 0.0
N376 N 0.61695 0.99556 0.89129 0.0
O377 O 0.68712 0.06101 0.86825 0.0
H378 H 0.67658 0.98706 0.92899 0.0
H379 H 0.63746 0.02274 0.86098 0.0
O380 O 0.70899 0.04429 0.91768 0.0
C381 C 0.68782 0.05718 0.8438 0.0
O382 O 0.70103 0.03184 0.83468 0.0
N383 N 0.72545 0.98912 0.89603 0.0
C384 C 0.75724 0.93344 0.90374 0.0
C385 C 0.76466 0.95991 0.91841 0.0
C386 C 0.74833 0.98771 0.91427 0.0
C387 C 0.71734 0.96347 0.88229 0.0
C388 C 0.7323 0.93527 0.88632 0.0
H389 H 0.75529 0.00842 0.92455 0.0
H390 H 0.69965 0.96518 0.86749 0.0
H391 H 0.75037 0.08082 0.89993 0.0
H392 H 0.815 0.03901 0.84939 0.0
H393 H 0.61686 0.97106 0.92763 0.0
H394 H 0.78399 0.95971 0.93182 0.0
H395 H 0.72518 0.91538 0.87499 0.0
C396 C 0.4619 0.73946 0.69056 0.0
C397 C 0.44485 0.71238 0.69121 0.0
N398 N 0.4194 0.71611 0.67625 0.0
N399 N 0.44741 0.76006 0.67509 0.0
C400 C 0.42144 0.74531 0.66689 0.0
H401 H 0.4838 0.74371 0.70029 0.0
Co402 Co 0.46163 0.79953 0.66601 0.0
C403 C 0.42272 0.81363 0.62068 0.0
O404 O 0.41115 0.83792 0.63277 0.0
N405 N 0.47558 0.83931 0.65643 0.0
C406 C 0.49194 0.87813 0.63157 0.0
C407 C 0.48808 0.84655 0.63324 0.0
C408 C 0.47272 0.86691 0.66876 0.0
N409 N 0.48226 0.89085 0.65389 0.0
O410 O 0.42534 0.81739 0.68262 0.0
H411 H 0.49288 0.82997 0.61804 0.0
H412 H 0.4624 0.86969 0.68768 0.0
O413 O 0.44179 0.79576 0.63239 0.0
C414 C 0.43137 0.8173 0.70678 0.0
O415 O 0.45882 0.80687 0.71415 0.0
N416 N 0.49842 0.78173 0.65302 0.0
C417 C 0.55359 0.74746 0.64877 0.0
C418 C 0.5269 0.73891 0.6347 0.0
C419 C 0.49944 0.75655 0.63699 0.0
C420 C 0.52465 0.79155 0.66533 0.0
C421 C 0.5526 0.77525 0.66296 0.0
H422 H 0.47836 0.74836 0.62782 0.0
H423 H 0.52342 0.81107 0.67844 0.0
H424 H 0.40478 0.7555 0.65371 0.0
H425 H 0.45076 0.69157 0.70185 0.0
H426 H 0.50053 0.89088 0.61502 0.0
H427 H 0.52641 0.71758 0.62363 0.0
H428 H 0.57275 0.78338 0.67356 0.0
C429 C 0.25226 0.46584 0.69849 0.0
C430 C 0.27997 0.45004 0.70049 0.0
N431 N 0.27958 0.42587 0.68389 0.0
N432 N 0.23427 0.45196 0.68066 0.0
C433 C 0.25143 0.4276 0.67209 0.0
H434 H 0.24592 0.48679 0.70881 0.0
Co435 Co 0.19589 0.4681 0.67044 0.0
C436 C 0.178 0.4305 0.62556 0.0
O437 O 0.15198 0.42316 0.63759 0.0
N438 N 0.15719 0.48482 0.66006 0.0
C439 C 0.12062 0.50665 0.63562 0.0
C440 C 0.15193 0.5003 0.63784 0.0
C441 C 0.12858 0.48213 0.67103 0.0
N442 N 0.10585 0.49509 0.65646 0.0
O443 O 0.17503 0.43391 0.68751 0.0
H444 H 0.1696 0.50555 0.62355 0.0
H445 H 0.12434 0.47035 0.68909 0.0
O446 O 0.1986 0.44652 0.63732 0.0
C447 C 0.17387 0.43988 0.71167 0.0
O448 O 0.18513 0.46659 0.71964 0.0
N449 N 0.21692 0.50249 0.65677 0.0
C450 C 0.25702 0.55275 0.64949 0.0
C451 C 0.26056 0.52545 0.63488 0.0
C452 C 0.24026 0.50047 0.63884 0.0
C453 C 0.21207 0.52933 0.67013 0.0
C454 C 0.23168 0.55486 0.66664 0.0
H455 H 0.24481 0.47886 0.6289 0.0
H456 H 0.19411 0.5302 0.68483 0.0
H457 H 0.24353 0.41175 0.6573 0.0
H458 H 0.29928 0.45667 0.7127 0.0
H459 H 0.10947 0.51765 0.61929 0.0
H460 H 0.27972 0.52289 0.62135 0.0
H461 H 0.22831 0.57521 0.67863 0.0
C462 C 0.57627 0.24006 0.69773 0.0
C463 C 0.59754 0.26276 0.69192 0.0
N464 N 0.59548 0.26896 0.66659 0.0
N465 N 0.56116 0.23147 0.67609 0.0
C466 C 0.57303 0.24997 0.65736 0.0
H467 H 0.57205 0.23062 0.7167 0.0
Co468 Co 0.53126 0.2001 0.67542 0.0
C469 C 0.52892 0.17535 0.6213 0.0
O470 O 0.50008 0.16623 0.62524 0.0
N471 N 0.50099 0.16795 0.67592 0.0
C472 C 0.4571 0.14021 0.67775 0.0
C473 C 0.46951 0.16971 0.67795 0.0
C474 C 0.50702 0.13704 0.67508 0.0
N475 N 0.48081 0.11978 0.67609 0.0
O476 O 0.56162 0.17186 0.69022 0.0
H477 H 0.45608 0.19091 0.67929 0.0
H478 H 0.53019 0.12727 0.6729 0.0
O479 O 0.54387 0.18947 0.63926 0.0
C480 C 0.55554 0.1698 0.71435 0.0
O481 O 0.53074 0.18449 0.72316 0.0
N482 N 0.50147 0.22927 0.66478 0.0
C483 C 0.45587 0.27554 0.66115 0.0
C484 C 0.4685 0.26185 0.63879 0.0
C485 C 0.49177 0.23891 0.641 0.0
C486 C 0.48982 0.24279 0.6865 0.0
C487 C 0.46696 0.26565 0.68517 0.0
H488 H 0.50197 0.22953 0.62366 0.0
H489 H 0.49817 0.23527 0.70515 0.0
H490 H 0.56561 0.24939 0.63743 0.0
H491 H 0.6129 0.27441 0.70536 0.0
H492 H 0.43258 0.13421 0.67891 0.0
H493 H 0.46094 0.26923 0.61985 0.0
H494 H 0.45773 0.2752 0.70297 0.0
C495 C 0.74315 0.55669 0.71281 0.0
C496 C 0.72026 0.57893 0.71235 0.0
N497 N 0.71819 0.59013 0.68818 0.0
N498 N 0.75563 0.55366 0.68906 0.0
C499 C 0.73974 0.57425 0.67429 0.0
H500 H 0.75049 0.54367 0.72955 0.0
Co501 Co 0.78946 0.52744 0.68271 0.0
C502 C 0.81283 0.5684 0.63942 0.0
O503 O 0.83187 0.58486 0.65378 0.0
N504 N 0.82375 0.50132 0.67718 0.0
C505 C 0.85598 0.46085 0.67889 0.0
C506 C 0.82547 0.47053 0.68178 0.0
C507 C 0.85338 0.50984 0.67166 0.0
N508 N 0.87357 0.48571 0.67265 0.0
O509 O 0.81592 0.55613 0.70094 0.0
H510 H 0.80603 0.45626 0.68784 0.0
H511 H 0.86034 0.53367 0.66865 0.0
O512 O 0.79639 0.54693 0.6495 0.0
C513 C 0.81998 0.54721 0.72418 0.0
O514 O 0.80775 0.52055 0.7313 0.0
N515 N 0.76286 0.49839 0.66701 0.0
C516 C 0.72261 0.4525 0.64887 0.0
C517 C 0.74662 0.46394 0.63309 0.0
C518 C 0.76648 0.48717 0.6425 0.0
C519 C 0.74015 0.48679 0.68272 0.0
C520 C 0.71942 0.46431 0.67389 0.0
H521 H 0.78535 0.49535 0.6304 0.0
H522 H 0.73843 0.49455 0.70248 0.0
H523 H 0.74449 0.57831 0.65408 0.0
H524 H 0.70626 0.58643 0.72863 0.0
H525 H 0.86458 0.43746 0.68179 0.0
H526 H 0.75011 0.45484 0.61382 0.0
H527 H 0.70173 0.45535 0.68688 0.0
H528 H 0.09315 0.35682 0.96654 0.0
H529 H 0.05824 0.25852 0.09473 0.0
H530 H 0.06315 0.26114 0.96491 0.0
H531 H 0.05467 0.35835 0.09018 0.0
H532 H 0.07457 0.25667 0.04909 0.0
H533 H 0.09383 0.35481 1.01358 0.0
C534 C 0.08722 0.33518 0.976 0.0
C535 C 0.07767 0.30922 0.96162 0.0
C536 C 0.07095 0.27898 0.05831 0.0
C537 C 0.07838 0.30686 1.01574 0.0
C538 C 0.06201 0.28003 0.08436 0.0
C539 C 0.05549 0.30866 0.09616 0.0
C540 C 0.07362 0.30679 0.04421 0.0
C541 C 0.05982 0.33587 0.08177 0.0
C542 C 0.0875 0.33412 1.00292 0.0
C543 C 0.07035 0.28184 0.97514 0.0
N544 N 0.06849 0.33428 0.05658 0.0
N545 N 0.07058 0.28144 1.00144 0.0
H546 H 0.74629 0.05917 0.95508 0.0
H547 H 0.67507 0.06511 0.09697 0.0
H548 H 0.64831 0.07545 0.96962 0.0
H549 H 0.7734 0.07633 0.08085 0.0
H550 H 0.66439 0.06866 0.05068 0.0
H551 H 0.75654 0.065 1.00119 0.0
C552 C 0.72695 0.06421 0.96795 0.0
C553 C 0.69637 0.06672 0.95845 0.0
C554 C 0.68826 0.07068 0.05732 0.0
C555 C 0.70791 0.07306 1.01142 0.0
C556 C 0.69439 0.06862 0.08377 0.0
C557 C 0.72523 0.0702 0.0929 0.0
C558 C 0.71314 0.07394 0.0398 0.0
C559 C 0.74926 0.07491 0.0748 0.0
C560 C 0.73283 0.06761 0.99429 0.0
C561 C 0.67226 0.0734 0.97606 0.0
N562 N 0.74275 0.07624 0.04917 0.0
N563 N 0.67848 0.07598 1.00172 0.0
H564 H 0.94119 0.72432 0.97493 0.0
H565 H 0.96571 0.62798 0.10543 0.0
H566 H 0.97612 0.63062 0.98007 0.0
H567 H 0.94125 0.72506 0.1058 0.0
H568 H 0.95727 0.62635 0.059 0.0
H569 H 0.92981 0.72316 1.02169 0.0
C570 C 0.94551 0.70322 0.98574 0.0
C571 C 0.95955 0.67747 0.97369 0.0
C572 C 0.95313 0.64799 0.06912 0.0
C573 C 0.94701 0.67604 1.02694 0.0
C574 C 0.95768 0.6488 0.09573 0.0
C575 C 0.95396 0.6766 0.10947 0.0
C576 C 0.94555 0.67541 0.05579 0.0
C577 C 0.94396 0.70306 0.09591 0.0
C578 C 0.93931 0.70265 1.01243 0.0
C579 C 0.96531 0.65096 0.98862 0.0
N580 N 0.94062 0.70198 0.06969 0.0
N581 N 0.95921 0.65101 1.01433 0.0
H582 H 0.23449 0.89926 0.96418 0.0
H583 H 0.32075 0.94675 0.09505 0.0
H584 H 0.32106 0.95036 0.96517 0.0
H585 H 0.23216 0.89932 0.09101 0.0
H586 H 0.32566 0.94231 0.04805 0.0
H587 H 0.23797 0.89267 1.01069 0.0
C588 C 0.25449 0.90881 0.97417 0.0
C589 C 0.27733 0.9257 0.96072 0.0
C590 C 0.30532 0.9326 0.05752 0.0
C591 C 0.28128 0.91861 1.01443 0.0
C592 C 0.3025 0.9351 0.0844 0.0
C593 C 0.27572 0.92387 0.09709 0.0
C594 C 0.28129 0.91862 0.04322 0.0
C595 C 0.25304 0.90872 0.08216 0.0
C596 C 0.25644 0.90509 1.00082 0.0
C597 C 0.30287 0.93725 0.97474 0.0
N598 N 0.25623 0.90679 0.05613 0.0
N599 N 0.30394 0.93387 1.00089 0.0
H600 H 0.52697 0.12063 0.46388 0.0
H601 H 0.56314 0.21731 0.5923 0.0
H602 H 0.56196 0.2144 0.46159 0.0
H603 H 0.52171 0.12621 0.58957 0.0
H604 H 0.57272 0.21421 0.54537 0.0
H605 H 0.53543 0.11946 0.51026 0.0
C606 C 0.53704 0.14083 0.47315 0.0
C607 C 0.54364 0.16766 0.45886 0.0
C608 C 0.56212 0.19467 0.55519 0.0
C609 C 0.55256 0.16695 0.51249 0.0
C610 C 0.55692 0.19633 0.58198 0.0
C611 C 0.54155 0.17198 0.59478 0.0
C612 C 0.55206 0.16838 0.54132 0.0
C613 C 0.53348 0.14557 0.58044 0.0
C614 C 0.54173 0.14024 0.49973 0.0
C615 C 0.5567 0.19317 0.47189 0.0
N616 N 0.53862 0.14459 0.55462 0.0
N617 N 0.56022 0.19241 0.49809 0.0
H618 H 0.76746 0.54938 0.47788 0.0
H619 H 0.85501 0.59881 0.60817 0.0
H620 H 0.86162 0.58499 0.4791 0.0
H621 H 0.76853 0.54754 0.60579 0.0
H622 H 0.85477 0.60122 0.56087 0.0
H623 H 0.7644 0.55616 0.52451 0.0
C624 C 0.78745 0.55884 0.48788 0.0
C625 C 0.81501 0.56617 0.47445 0.0
C626 C 0.83576 0.58964 0.57075 0.0
C627 C 0.81162 0.57408 0.52816 0.0
C628 C 0.83581 0.58836 0.59776 0.0
C629 C 0.81189 0.57272 0.61101 0.0
C630 C 0.81146 0.57541 0.55689 0.0
C631 C 0.78766 0.55954 0.59644 0.0
C632 C 0.78568 0.56269 0.51459 0.0
C633 C 0.83994 0.57882 0.48858 0.0
N634 N 0.78813 0.56111 0.57026 0.0
N635 N 0.83775 0.58215 0.51466 0.0
H636 H 0.39121 0.85244 0.58767 0.0
H637 H 0.45406 0.76672 0.46032 0.0
H638 H 0.44568 0.76795 0.58875 0.0
H639 H 0.40544 0.85465 0.45948 0.0
H640 H 0.44609 0.7638 0.50693 0.0
H641 H 0.39082 0.85043 0.54055 0.0
C642 C 0.40276 0.83322 0.57806 0.0
C643 C 0.41869 0.81044 0.59231 0.0
C644 C 0.43697 0.78365 0.49654 0.0
C645 C 0.41855 0.80816 0.53815 0.0
C646 C 0.4415 0.78533 0.46985 0.0
C647 C 0.43066 0.81111 0.45586 0.0
C648 C 0.42145 0.80791 0.50947 0.0
C649 C 0.41437 0.83439 0.4694 0.0
C650 C 0.40263 0.83217 0.55109 0.0
C651 C 0.43323 0.78614 0.57866 0.0
N652 N 0.41045 0.83233 0.49541 0.0
N653 N 0.433 0.78577 0.55241 0.0
H654 H 0.2297 0.43612 0.59414 0.0
H655 H 0.13035 0.46589 0.46944 0.0
H656 H 0.13064 0.41802 0.59182 0.0
H657 H 0.22657 0.43721 0.46299 0.0
H658 H 0.13049 0.45043 0.51484 0.0
H659 H 0.23033 0.43829 0.54679 0.0
C660 C 0.2082 0.43213 0.58371 0.0
C661 C 0.18005 0.42699 0.59706 0.0
C662 C 0.15147 0.44705 0.50345 0.0
C663 C 0.18055 0.43008 0.54296 0.0
C664 C 0.15139 0.45587 0.47755 0.0
C665 C 0.17843 0.45268 0.46246 0.0
C666 C 0.17909 0.4358 0.51466 0.0
C667 C 0.20515 0.43975 0.47394 0.0
C668 C 0.2086 0.43333 0.55669 0.0
C669 C 0.15291 0.42199 0.58246 0.0
N670 N 0.205 0.4323 0.49953 0.0
N671 N 0.15374 0.42419 0.5563 0.0
H672 H 0.22834 0.0882 0.20201 0.0
H673 H 0.10684 0.20647 0.13814 0.0
H674 H 0.20944 0.0883 0.12028 0.0
H675 H 0.11123 0.18533 0.21929 0.0
H676 H 0.14955 0.16919 0.13036 0.0
H677 H 0.1911 0.13029 0.20768 0.0
C678 C 0.21673 0.09743 0.18513 0.0
C679 C 0.22219 0.08476 0.16058 0.0
C680 C 0.14114 0.17285 0.14985 0.0
C681 C 0.17874 0.13275 0.1671 0.0
C682 C 0.11698 0.19416 0.15429 0.0
C683 C 0.1054 0.1987 0.17936 0.0
C684 C 0.15398 0.15644 0.17071 0.0
C685 C 0.11913 0.18212 0.19963 0.0
C686 C 0.19517 0.1213 0.18845 0.0
C687 C 0.20578 0.09726 0.13957 0.0
N688 N 0.14266 0.16178 0.19487 0.0
N689 N 0.1847 0.12059 0.1433 0.0
H690 H 0.84656 0.06424 0.18518 0.0
H691 H 0.88069 0.2455 0.16821 0.0
H692 H 0.77431 0.13422 0.18772 0.0
H693 H 0.94928 0.17388 0.15412 0.0
H694 H 0.84122 0.20537 0.17539 0.0
H695 H 0.88477 0.10444 0.17521 0.0
C696 C 0.83877 0.08813 0.184 0.0
C697 C 0.80717 0.09589 0.18743 0.0
C698 C 0.86481 0.19842 0.17046 0.0
C699 C 0.85079 0.14205 0.17547 0.0
C700 C 0.88731 0.2213 0.16631 0.0
C701 C 0.91828 0.21296 0.16059 0.0
C702 C 0.87343 0.16696 0.16916 0.0
C703 C 0.92561 0.18131 0.15824 0.0
C704 C 0.86057 0.11105 0.17797 0.0
C705 C 0.79839 0.1272 0.18508 0.0
N706 N 0.90342 0.15944 0.16279 0.0
N707 N 0.82009 0.14915 0.17929 0.0
H708 H 0.75245 0.89567 0.1936 0.0
H709 H 0.89611 0.79353 0.14466 0.0
H710 H 0.79264 0.90813 0.11775 0.0
H711 H 0.84615 0.77958 0.21592 0.0
H712 H 0.8564 0.83205 0.13169 0.0
H713 H 0.78406 0.84989 0.1994 0.0
C714 C 0.76742 0.88853 0.17781 0.0
C715 C 0.76946 0.90597 0.15498 0.0
C716 C 0.85398 0.82021 0.15 0.0
C717 C 0.80727 0.85344 0.16213 0.0
C718 C 0.87648 0.7982 0.1573 0.0
C719 C 0.87452 0.78387 0.18154 0.0
C720 C 0.82949 0.8276 0.16711 0.0
C721 C 0.8488 0.79065 0.19732 0.0
C722 C 0.78588 0.86233 0.18131 0.0
C723 C 0.79044 0.89572 0.1358 0.0
N724 N 0.82751 0.81213 0.18993 0.0
N725 N 0.80876 0.87026 0.13989 0.0
H726 H 0.21424 0.87673 0.16107 0.0
H727 H 0.04593 0.82353 0.21145 0.0
H728 H 0.16854 0.91392 0.22869 0.0
H729 H 0.09357 0.77774 0.14862 0.0
H730 H 0.08985 0.85897 0.21589 0.0
H731 H 0.17057 0.84096 0.15519 0.0
C732 C 0.1953 0.87715 0.1749 0.0
C733 C 0.19503 0.89864 0.19535 0.0
C734 C 0.09078 0.84129 0.20104 0.0
C735 C 0.14465 0.85811 0.18836 0.0
C736 C 0.06565 0.82112 0.19845 0.0
C737 C 0.0663 0.79752 0.1798 0.0
C738 C 0.11692 0.83793 0.18488 0.0
C739 C 0.09217 0.79571 0.16319 0.0
C740 C 0.17021 0.85688 0.17136 0.0
C741 C 0.16957 0.8982 0.21244 0.0
N742 N 0.11665 0.81554 0.16625 0.0
N743 N 0.14541 0.87843 0.20848 0.0
H744 H 0.67663 0.44176 0.43998 0.0
H745 H 0.63677 0.26347 0.41264 0.0
H746 H 0.7474 0.37063 0.43264 0.0
H747 H 0.57102 0.33911 0.40761 0.0
H748 H 0.67618 0.2999 0.42925 0.0
H749 H 0.63659 0.4019 0.4382 0.0
C750 C 0.68388 0.4177 0.43859 0.0
C751 C 0.71556 0.40967 0.43619 0.0
C752 C 0.65297 0.30839 0.42483 0.0
C753 C 0.66946 0.36375 0.43337 0.0
C754 C 0.63053 0.28762 0.41551 0.0
C755 C 0.60089 0.29852 0.40842 0.0
C756 C 0.64544 0.34009 0.42726 0.0
C757 C 0.59385 0.32998 0.41239 0.0
C758 C 0.66088 0.3949 0.4373 0.0
C759 C 0.72326 0.37799 0.43402 0.0
N760 N 0.61599 0.34967 0.42136 0.0
N761 N 0.70036 0.3562 0.43234 0.0
H762 H 0.59134 0.70698 0.44191 0.0
H763 H 0.68208 0.58671 0.35109 0.0
H764 H 0.58685 0.70724 0.3588 0.0
H765 H 0.70735 0.60017 0.43072 0.0
H766 H 0.64432 0.6289 0.35479 0.0
H767 H 0.63136 0.66591 0.43956 0.0
C768 C 0.59884 0.69849 0.42323 0.0
C769 C 0.58597 0.71074 0.40052 0.0
C770 C 0.65815 0.62278 0.37149 0.0
C771 C 0.63131 0.66386 0.3977 0.0
C772 C 0.67958 0.59854 0.3694 0.0
C773 C 0.69776 0.58987 0.39065 0.0
C774 C 0.65453 0.6384 0.3951 0.0
C775 C 0.69391 0.60633 0.41384 0.0
C776 C 0.62172 0.6752 0.42189 0.0
C777 C 0.5965 0.69892 0.3768 0.0
N778 N 0.67251 0.62973 0.41553 0.0
N779 N 0.61838 0.67613 0.37603 0.0
H780 H 0.3232 0.55281 0.42426 0.0
H781 H 0.36554 0.72847 0.38789 0.0
H782 H 0.25516 0.61857 0.39634 0.0
H783 H 0.43215 0.65324 0.38621 0.0
H784 H 0.32486 0.69167 0.40127 0.0
H785 H 0.36341 0.59323 0.42151 0.0
C786 C 0.31661 0.57601 0.41824 0.0
C787 C 0.28597 0.58248 0.41043 0.0
C788 C 0.34844 0.68331 0.39811 0.0
C789 C 0.33164 0.62847 0.40695 0.0
C790 C 0.37159 0.70425 0.39054 0.0
C791 C 0.40206 0.69373 0.38566 0.0
C792 C 0.35602 0.65178 0.4012 0.0
C793 C 0.40878 0.66213 0.38931 0.0
C794 C 0.33956 0.59892 0.41641 0.0
C795 C 0.27864 0.61275 0.40241 0.0
N796 N 0.38593 0.64223 0.39687 0.0
N797 N 0.30137 0.63462 0.40071 0.0
H798 H 0.26934 0.35915 0.39987 0.0
H799 H 0.4446 0.31124 0.43602 0.0
H800 H 0.34412 0.4244 0.41157 0.0
H801 H 0.3809 0.25034 0.39629 0.0
H802 H 0.40285 0.35001 0.43975 0.0
H803 H 0.30527 0.31647 0.4109 0.0
C804 C 0.29313 0.36444 0.40535 0.0
C805 C 0.30406 0.3951 0.40457 0.0
C806 C 0.39789 0.32793 0.43062 0.0
C807 C 0.34496 0.34691 0.41719 0.0
C808 C 0.42161 0.30575 0.42864 0.0
C809 C 0.4162 0.27774 0.41558 0.0
C810 C 0.36857 0.32193 0.41962 0.0
C811 C 0.38606 0.27189 0.40618 0.0
C812 C 0.31361 0.3402 0.41147 0.0
C813 C 0.33507 0.40094 0.41163 0.0
N814 N 0.3634 0.29392 0.40818 0.0
N815 N 0.35452 0.37705 0.41751 0.0
H816 H 0.8691 0.78009 0.85325 0.0
H817 H 0.78715 0.90561 0.94515 0.0
H818 H 0.89741 0.79293 0.93209 0.0
H819 H 0.7739 0.89716 0.86289 0.0
H820 H 0.82198 0.86006 0.94364 0.0
H821 H 0.8267 0.81706 0.85975 0.0
C822 C 0.86598 0.79059 0.87207 0.0
C823 C 0.88671 0.78393 0.89209 0.0
C824 C 0.81103 0.8681 0.92607 0.0
C825 C 0.83881 0.8269 0.8997 0.0
C826 C 0.79133 0.89415 0.92687 0.0
C827 C 0.77722 0.90515 0.90417 0.0
C828 C 0.81652 0.85308 0.90241 0.0
C829 C 0.7834 0.88926 0.88105 0.0
C830 C 0.84191 0.81176 0.87582 0.0
C831 C 0.88171 0.7977 0.91626 0.0
N832 N 0.8025 0.86421 0.88083 0.0
N833 N 0.85844 0.81906 0.91935 0.0
H834 H 0.1633 0.91506 0.83935 0.0
H835 H 0.10119 0.78022 0.93286 0.0
H836 H 0.21625 0.8799 0.90373 0.0
H837 H 0.05592 0.80756 0.86224 0.0
H838 H 0.14157 0.81973 0.92497 0.0
H839 H 0.12202 0.87778 0.84918 0.0
C840 C 0.16628 0.89937 0.85546 0.0
C841 C 0.19326 0.90054 0.87066 0.0
C842 C 0.12268 0.81714 0.9113 0.0
C843 C 0.14609 0.85795 0.88223 0.0
C844 C 0.0996 0.79486 0.91593 0.0
C845 C 0.07553 0.79061 0.89805 0.0
C846 C 0.12134 0.83528 0.88875 0.0
C847 C 0.07441 0.80995 0.87632 0.0
C848 C 0.14274 0.8781 0.8611 0.0
C849 C 0.19606 0.87953 0.89126 0.0
N850 N 0.09705 0.83134 0.87223 0.0
N851 N 0.17267 0.85918 0.89653 0.0
H852 H 0.23311 0.08425 0.85213 0.0
H853 H 0.11926 0.20982 0.91625 0.0
H854 H 0.22625 0.09778 0.93447 0.0
H855 H 0.11812 0.1844 0.83579 0.0
H856 H 0.16259 0.17358 0.92311 0.0
H857 H 0.19571 0.12594 0.84573 0.0
C858 C 0.22418 0.09638 0.86892 0.0
C859 C 0.23305 0.08758 0.89392 0.0
C860 C 0.15292 0.17605 0.90395 0.0
C861 C 0.18929 0.13502 0.88665 0.0
C862 C 0.12834 0.19685 0.89998 0.0
C863 C 0.11503 0.20002 0.8754 0.0
C864 C 0.16435 0.15849 0.88314 0.0
C865 C 0.12741 0.18235 0.85509 0.0
C866 C 0.20249 0.12001 0.86522 0.0
C867 C 0.21992 0.10367 0.91489 0.0
N868 N 0.15135 0.16234 0.85942 0.0
N869 N 0.19858 0.1266 0.91078 0.0
H870 H 0.78025 0.12678 0.89411 0.0
H871 H 0.96286 0.16239 0.90799 0.0
H872 H 0.85299 0.06005 0.87768 0.0
H873 H 0.89106 0.23248 0.91467 0.0
H874 H 0.9224 0.12286 0.9032 0.0
H875 H 0.82007 0.1642 0.90719 0.0
C876 C 0.80457 0.11992 0.8934 0.0
C877 C 0.8133 0.0903 0.88459 0.0
C878 C 0.91548 0.14685 0.90598 0.0
C879 C 0.85902 0.13302 0.89949 0.0
C880 C 0.93856 0.16939 0.90899 0.0
C881 C 0.93031 0.20081 0.91157 0.0
C882 C 0.8839 0.15577 0.90555 0.0
C883 C 0.89844 0.20857 0.91236 0.0
C884 C 0.8273 0.14133 0.90079 0.0
C885 C 0.84522 0.08279 0.88387 0.0
N886 N 0.8764 0.18624 0.90917 0.0
N887 N 0.8669 0.10402 0.89118 0.0
H888 H 0.35861 0.72651 0.66388 0.0
H889 H 0.32049 0.54524 0.64867 0.0
H890 H 0.42624 0.65342 0.67527 0.0
H891 H 0.24921 0.61627 0.65053 0.0
H892 H 0.36031 0.58537 0.65304 0.0
H893 H 0.31901 0.6872 0.65426 0.0
C894 C 0.36518 0.70222 0.66423 0.0
C895 C 0.39579 0.69326 0.67052 0.0
C896 C 0.33598 0.59224 0.65232 0.0
C897 C 0.35059 0.64814 0.65954 0.0
C898 C 0.3132 0.56934 0.64953 0.0
C899 C 0.28139 0.57736 0.64921 0.0
C900 C 0.327 0.62351 0.65475 0.0
C901 C 0.27342 0.60899 0.65094 0.0
C902 C 0.34253 0.67979 0.65885 0.0
C903 C 0.40288 0.6614 0.67092 0.0
N904 N 0.29605 0.63089 0.6537 0.0
N905 N 0.38049 0.64004 0.66548 0.0
H906 H 0.32862 0.41345 0.71545 0.0
H907 H 0.40306 0.278 0.63072 0.0
H908 H 0.28858 0.38766 0.64214 0.0
H909 H 0.4526 0.32884 0.68947 0.0
H910 H 0.35967 0.31542 0.6344 0.0
H911 H 0.37223 0.37908 0.70703 0.0
C912 C 0.32896 0.40082 0.69743 0.0
C913 C 0.30479 0.40404 0.67936 0.0
C914 C 0.38021 0.31843 0.64628 0.0
C915 C 0.35507 0.36367 0.66976 0.0
C916 C 0.40503 0.29724 0.64408 0.0
C917 C 0.43129 0.3 0.66012 0.0
C918 C 0.38174 0.34234 0.66472 0.0
C919 C 0.43253 0.32531 0.67717 0.0
C920 C 0.35402 0.381 0.69267 0.0
C921 C 0.30649 0.38599 0.65672 0.0
N922 N 0.40805 0.34521 0.67919 0.0
N923 N 0.3312 0.36653 0.65257 0.0
H924 H 0.57306 0.31547 0.63677 0.0
H925 H 0.65896 0.45121 0.64772 0.0
H926 H 0.6577 0.27627 0.66744 0.0
H927 H 0.74022 0.39476 0.63267 0.0
H928 H 0.62595 0.40522 0.64287 0.0
H929 H 0.60274 0.36159 0.62288 0.0
C930 C 0.59804 0.31634 0.63992 0.0
C931 C 0.61308 0.29244 0.6534 0.0
C932 C 0.65085 0.403 0.63971 0.0
C933 C 0.64687 0.34478 0.63821 0.0
C934 C 0.66969 0.42921 0.64265 0.0
C935 C 0.70226 0.42664 0.64057 0.0
C936 C 0.66483 0.37392 0.6352 0.0
C937 C 0.71515 0.39765 0.63424 0.0
C938 C 0.61486 0.3427 0.63235 0.0
C939 C 0.64539 0.2945 0.65729 0.0
N940 N 0.69645 0.37223 0.6324 0.0
N941 N 0.66121 0.32031 0.64987 0.0
H942 H 0.58057 0.7077 0.61269 0.0
H943 H 0.7014 0.64006 0.71626 0.0
H944 H 0.5879 0.7369 0.69215 0.0
H945 H 0.68965 0.59767 0.6416 0.0
H946 H 0.66388 0.67992 0.7046 0.0
H947 H 0.62348 0.67061 0.62008 0.0
C948 C 0.59123 0.70655 0.63157 0.0
C949 C 0.58071 0.72591 0.6517 0.0
C950 C 0.66938 0.66202 0.69062 0.0
C951 C 0.62979 0.68376 0.66016 0.0
C952 C 0.6908 0.63916 0.69735 0.0
C953 C 0.69822 0.61523 0.68005 0.0
C954 C 0.65488 0.66106 0.66638 0.0
C955 C 0.68442 0.61572 0.6555 0.0
C956 C 0.61577 0.68546 0.63572 0.0
C957 C 0.59555 0.72333 0.67573 0.0
N958 N 0.66308 0.63815 0.64943 0.0
N959 N 0.61914 0.70277 0.67921 0.0
H960 H 0.2023 0.42979 0.29108 0.0
H961 H 0.05646 0.31748 0.26887 0.0
H962 H 0.14546 0.39325 0.35281 0.0
H963 H 0.11286 0.35338 0.20659 0.0
H964 H 0.091 0.34226 0.29975 0.0
H965 H 0.17246 0.39916 0.26022 0.0
C966 C 0.18368 0.41509 0.29822 0.0
C967 C 0.17628 0.41424 0.32464 0.0
C968 C 0.09601 0.34468 0.27937 0.0
C969 C 0.14178 0.37913 0.28916 0.0
C970 C 0.07622 0.33054 0.26162 0.0
C971 C 0.08161 0.33349 0.23498 0.0
C972 C 0.12151 0.36215 0.27059 0.0
C973 C 0.10778 0.35052 0.2269 0.0
C974 C 0.16662 0.39761 0.28051 0.0
C975 C 0.15202 0.39462 0.33267 0.0
N976 N 0.12666 0.36438 0.24465 0.0
N977 N 0.13549 0.37803 0.31498 0.0
H978 H 0.64808 0.1163 0.19778 0.0
H979 H 0.60668 0.14086 0.34805 0.0
H980 H 0.67917 0.0559 0.25897 0.0
H981 H 0.56836 0.1975 0.28719 0.0
H982 H 0.63791 0.11284 0.31581 0.0
H983 H 0.62282 0.14975 0.23033 0.0
C984 C 0.64981 0.11021 0.21799 0.0
C985 C 0.66554 0.08309 0.22557 0.0
C986 C 0.62281 0.13156 0.30953 0.0
C987 C 0.63683 0.12111 0.26288 0.0
C988 C 0.6051 0.14765 0.32799 0.0
C989 C 0.58473 0.17146 0.32037 0.0
C990 C 0.62021 0.13935 0.28322 0.0
C991 C 0.58357 0.17915 0.294 0.0
C992 C 0.63535 0.12922 0.23657 0.0
C993 C 0.66703 0.07634 0.25209 0.0
N994 N 0.60087 0.16309 0.27642 0.0
N995 N 0.65284 0.09507 0.26966 0.0
H996 H 0.86024 0.59361 0.36999 0.0
H997 H 0.89241 0.62651 0.2193 0.0
H998 H 0.81678 0.54165 0.30866 0.0
H999 H 0.94428 0.66829 0.28153 0.0
H1000 H 0.8609 0.59826 0.25145 0.0
H1001 H 0.88772 0.62479 0.33749 0.0
C1002 C 0.8563 0.58891 0.34974 0.0
C1003 C 0.83631 0.56487 0.3421 0.0
C1004 C 0.87919 0.6137 0.25797 0.0
C1005 C 0.86769 0.60036 0.30473 0.0
C1006 C 0.89711 0.62982 0.23962 0.0
C1007 C 0.92118 0.64965 0.24765 0.0
C1008 C 0.88527 0.61768 0.28448 0.0
C1009 C 0.9262 0.65308 0.27431 0.0
C1010 C 0.87206 0.60662 0.33116 0.0
C1011 C 0.83215 0.55978 0.31551 0.0
N1012 N 0.9085 0.63734 0.29165 0.0
N1013 N 0.84771 0.57728 0.29784 0.0
H1014 H 0.39696 0.85842 0.35175 0.0
H1015 H 0.35688 0.88326 0.20137 0.0
H1016 H 0.44002 0.80612 0.29013 0.0
H1017 H 0.32243 0.94205 0.26264 0.0
H1018 H 0.38329 0.85092 0.23387 0.0
H1019 H 0.36489 0.88566 0.31963 0.0
C1020 C 0.39945 0.85245 0.33155 0.0
C1021 C 0.42138 0.83012 0.32366 0.0
C1022 C 0.36979 0.87085 0.24015 0.0
C1023 C 0.38491 0.86118 0.28675 0.0
C1024 C 0.35467 0.88923 0.22158 0.0
C1025 C 0.33765 0.91557 0.2292 0.0
C1026 C 0.36766 0.87879 0.26649 0.0
C1027 C 0.33557 0.92218 0.25574 0.0
C1028 C 0.38125 0.86806 0.31318 0.0
C1029 C 0.42365 0.82338 0.29715 0.0
N1030 N 0.35041 0.90406 0.27332 0.0
N1031 N 0.40581 0.83886 0.27971 0.0
H1032 H 0.93815 0.67962 0.80259 0.0
H1033 H 0.82523 0.53608 0.77574 0.0
H1034 H 0.90094 0.62206 0.86337 0.0
H1035 H 0.85251 0.60193 0.71716 0.0
H1036 H 0.8525 0.56699 0.80794 0.0
H1037 H 0.90648 0.65173 0.7714 0.0
C1038 C 0.92314 0.66113 0.80944 0.0
C1039 C 0.92234 0.65304 0.83568 0.0
C1040 C 0.85248 0.57478 0.78809 0.0
C1041 C 0.88595 0.62068 0.79974 0.0
C1042 C 0.83699 0.55707 0.76958 0.0
C1043 C 0.83666 0.56632 0.74357 0.0
C1044 C 0.86804 0.60197 0.78066 0.0
C1045 C 0.85219 0.59385 0.73692 0.0
C1046 C 0.90498 0.64523 0.79154 0.0
C1047 C 0.9022 0.6291 0.84336 0.0
N1048 N 0.86736 0.61061 0.75532 0.0
N1049 N 0.88499 0.61353 0.82541 0.0
H1050 H 0.43416 0.80699 0.75834 0.0
H1051 H 0.30302 0.9319 0.79369 0.0
H1052 H 0.37941 0.85526 0.70121 0.0
H1053 H 0.35678 0.88273 0.8509 0.0
H1054 H 0.32694 0.90033 0.76004 0.0
H1055 H 0.4027 0.83059 0.79226 0.0
C1056 C 0.41532 0.82246 0.75286 0.0
C1057 C 0.40964 0.82939 0.72679 0.0
C1058 C 0.33338 0.89615 0.77991 0.0
C1059 C 0.37339 0.85673 0.76592 0.0
C1060 C 0.31973 0.9142 0.79923 0.0
C1061 C 0.32814 0.91017 0.82521 0.0
C1062 C 0.35593 0.87388 0.78642 0.0
C1063 C 0.34962 0.88664 0.83116 0.0
C1064 C 0.39732 0.8359 0.77236 0.0
C1065 C 0.38467 0.8493 0.72101 0.0
N1066 N 0.36305 0.8696 0.81186 0.0
N1067 N 0.36766 0.86252 0.74044 0.0
H1068 H 0.10941 0.35921 0.85599 0.0
H1069 H 0.13354 0.39052 0.70398 0.0
H1070 H 0.05153 0.31937 0.79658 0.0
H1071 H 0.18136 0.44144 0.76365 0.0
H1072 H 0.10736 0.35962 0.73757 0.0
H1073 H 0.14015 0.38546 0.82228 0.0
C1074 C 0.10325 0.35588 0.83594 0.0
C1075 C 0.07768 0.33726 0.82919 0.0
C1076 C 0.12374 0.37748 0.74326 0.0
C1077 C 0.11275 0.36699 0.79052 0.0
C1078 C 0.13876 0.39498 0.72407 0.0
C1079 C 0.15949 0.41874 0.73097 0.0
C1080 C 0.12968 0.38365 0.7695 0.0
C1081 C 0.16531 0.42358 0.75737 0.0
C1082 C 0.12074 0.37087 0.81669 0.0
C1083 C 0.07082 0.33373 0.80281 0.0
N1084 N 0.15049 0.40632 0.77559 0.0
N1085 N 0.08814 0.34842 0.78454 0.0
H1086 H 0.5473 0.16572 0.7662 0.0
H1087 H 0.69885 0.06248 0.79243 0.0
H1088 H 0.61113 0.13805 0.70578 0.0
H1089 H 0.63985 0.09882 0.85294 0.0
H1090 H 0.66825 0.09101 0.76069 0.0
H1091 H 0.58125 0.14174 0.79788 0.0
C1092 C 0.56849 0.15451 0.75949 0.0
C1093 C 0.57627 0.15389 0.73312 0.0
C1094 C 0.6621 0.09304 0.78089 0.0
C1095 C 0.61561 0.12623 0.76978 0.0
C1096 C 0.67959 0.07678 0.7991 0.0
C1097 C 0.67182 0.07817 0.82543 0.0
C1098 C 0.63632 0.11071 0.78893 0.0
C1099 C 0.64675 0.09719 0.83289 0.0
C1100 C 0.58798 0.14089 0.77774 0.0
C1101 C 0.60412 0.13902 0.72583 0.0
N1102 N 0.6297 0.11247 0.81469 0.0
N1103 N 0.62276 0.12569 0.74408 0.0
H1104 H 0.04103 0.58465 0.14639 0.0
H1105 H 0.02172 0.41967 0.21114 0.0
H1106 H 0.99311 0.5754 0.21904 0.0
H1107 H 0.99761 0.43266 0.13135 0.0
H1108 H 0.02737 0.47642 0.21585 0.0
H1109 H 0.04101 0.52754 0.14181 0.0
C1110 C 0.03086 0.5704 0.16142 0.0
C1111 C 0.01699 0.5842 0.18305 0.0
C1112 C 0.02116 0.46669 0.19729 0.0
C1113 C 0.01752 0.51988 0.17837 0.0
C1114 C 0.01812 0.43459 0.19461 0.0
C1115 C 0.00915 0.42198 0.17088 0.0
C1116 C 0.01607 0.48591 0.17587 0.0
C1117 C 0.00442 0.44189 0.14991 0.0
C1118 C 0.03074 0.53813 0.1588 0.0
C1119 C 0.00386 0.56523 0.2021 0.0
N1120 N 0.00815 0.47303 0.15282 0.0
N1121 N 0.00465 0.53384 0.19944 0.0
H1122 H 0.42072 0.9956 0.19147 0.0
H1123 H 0.57483 0.01691 0.10608 0.0
H1124 H 0.42458 0.99146 0.10837 0.0
H1125 H 0.57962 0.00177 0.18819 0.0
H1126 H 0.51851 0.01241 0.1081 0.0
H1127 H 0.47795 0.00102 0.19225 0.0
C1128 C 0.43354 0.99569 0.17346 0.0
C1129 C 0.41779 0.99354 0.14979 0.0
C1130 C 0.53172 0.00995 0.12576 0.0
C1131 C 0.48275 2e-05 0.15054 0.0
C1132 C 0.56399 0.01242 0.12458 0.0
C1133 C 0.58199 0.00913 0.14692 0.0
C1134 C 0.51705 0.00417 0.1495 0.0
C1135 C 0.56653 0.00438 0.17052 0.0
C1136 C 0.4661 -0.00108 0.17391 0.0
C1137 C 0.43551 0.99388 0.12702 0.0
N1138 N 0.5348 0.00184 0.17121 0.0
N1139 N 0.46689 -0.00283 0.128 0.0
H1140 H 0.54401 0.07856 0.3979 0.0
H1141 H 0.47108 0.91511 0.3575 0.0
H1142 H 0.46882 0.0682 0.34333 0.0
H1143 H 0.55139 0.9244 0.40706 0.0
H1144 H 0.47254 0.97088 0.34948 0.0
H1145 H 0.54974 0.02205 0.39912 0.0
C1146 C 0.52895 0.06446 0.38595 0.0
C1147 C 0.50564 0.07817 0.37073 0.0
C1148 C 0.49001 0.96069 0.36196 0.0
C1149 C 0.5118 0.01346 0.37224 0.0
C1150 C 0.48931 0.92873 0.36643 0.0
C1151 C 0.51094 0.91498 0.38323 0.0
C1152 C 0.51242 0.97911 0.37445 0.0
C1153 C 0.53382 0.93404 0.39443 0.0
C1154 C 0.53213 0.03217 0.38674 0.0
C1155 C 0.48662 0.05866 0.3558 0.0
N1156 N 0.5338 0.96514 0.39002 0.0
N1157 N 0.48998 0.02734 0.35707 0.0
H1158 H 0.93147 0.44605 0.43384 0.0
H1159 H 0.06881 0.52157 0.3502 0.0
H1160 H 0.91782 0.51688 0.37601 0.0
H1161 H 0.08522 0.45634 0.4118 0.0
H1162 H 0.01274 0.51517 0.35619 0.0
H1163 H 0.98708 0.44483 0.42305 0.0
C1164 C 0.94007 0.46128 0.41884 0.0
C1165 C 0.91983 0.4818 0.406 0.0
C1166 C 0.02853 0.50208 0.36834 0.0
C1167 C 0.98346 0.48029 0.3934 0.0
C1168 C 0.06057 0.50584 0.36499 0.0
C1169 C 0.08169 0.48979 0.38077 0.0
C1170 C 0.01738 0.48221 0.38773 0.0
C1171 C 0.06972 0.46911 0.39921 0.0
C1172 C 0.97182 0.46045 0.41261 0.0
C1173 C 0.93229 0.50052 0.38635 0.0
N1174 N 0.0383 0.46613 0.40237 0.0
N1175 N 0.96328 0.49945 0.38081 0.0
H1176 H 0.96962 0.57047 0.8723 0.0
H1177 H 0.01104 0.41651 0.94894 0.0
H1178 H 0.0414 0.56737 0.93033 0.0
H1179 H 0.98425 0.41312 0.86895 0.0
H1180 H 0.01239 0.47328 0.94662 0.0
H1181 H 0.96501 0.51355 0.87486 0.0
C1182 C 0.98417 0.55772 0.88569 0.0
C1183 C 0.00596 0.57329 0.90111 0.0
C1184 C 0.00608 0.46009 0.92962 0.0
C1185 C 0.00065 0.50898 0.90431 0.0
C1186 C 0.00508 0.42784 0.93098 0.0
C1187 C 0.9974 0.41037 0.9091 0.0
C1188 C 0.99883 0.47492 0.90634 0.0
C1189 C 0.99036 0.42599 0.88614 0.0
C1190 C 0.9817 0.52544 0.88701 0.0
C1191 C 0.02455 0.55599 0.91802 0.0
N1192 N 0.99104 0.45756 0.88535 0.0
N1193 N 0.02133 0.52469 0.91933 0.0
H1194 H 0.58127 0.04287 0.87403 0.0
H1195 H 0.42449 0.94276 0.8728 0.0
H1196 H 0.57948 0.94545 0.89295 0.0
H1197 H 0.42769 0.03738 0.89976 0.0
H1198 H 0.48124 0.94449 0.86514 0.0
H1199 H 0.52423 0.04175 0.8683 0.0
C1200 C 0.56886 0.02115 0.87636 0.0
C1201 C 0.58469 0.99425 0.88416 0.0
C1202 C 0.46933 0.96498 0.87232 0.0
C1203 C 0.52025 0.9927 0.87743 0.0
C1204 C 0.43714 0.96404 0.87657 0.0
C1205 C 0.42181 0.98988 0.88713 0.0
C1206 C 0.48589 0.99219 0.87816 0.0
C1207 C 0.43899 0.01694 0.8919 0.0
C1208 C 0.5365 0.02054 0.87324 0.0
C1209 C 0.5678 0.96665 0.88719 0.0
N1210 N 0.47023 0.01742 0.88741 0.0
N1211 N 0.53636 0.96656 0.88388 0.0
H1212 H 0.49875 0.92076 0.69772 0.0
H1213 H 0.43803 0.08616 0.65003 0.0
H1214 H 0.45987 0.93502 0.62215 0.0
H1215 H 0.51887 0.07773 0.69884 0.0
H1216 H 0.4362 0.02931 0.64623 0.0
H1217 H 0.49694 0.97742 0.70508 0.0
C1218 C 0.48958 0.93587 0.68286 0.0
C1219 C 0.47967 0.92351 0.65926 0.0
C1220 C 0.45422 0.03995 0.65788 0.0
C1221 C 0.47704 0.9876 0.66756 0.0
C1222 C 0.45516 0.07225 0.66014 0.0
C1223 C 0.47871 0.08648 0.67465 0.0
C1224 C 0.47658 0.02177 0.67069 0.0
C1225 C 0.50057 0.06752 0.68726 0.0
C1226 C 0.4887 0.96801 0.68697 0.0
C1227 C 0.46804 0.94385 0.64047 0.0
N1228 N 0.49891 0.03605 0.68511 0.0
N1229 N 0.46688 0.9749 0.64506 0.0
H1230 H 0.90766 0.52839 0.6462 0.0
H1231 H 0.07252 0.45283 0.68433 0.0
H1232 H 0.91664 0.4463 0.69338 0.0
H1233 H 0.06261 0.53554 0.63806 0.0
H1234 H 0.01567 0.45054 0.68882 0.0
H1235 H 0.96447 0.53152 0.64347 0.0
C1236 C 0.92152 0.51106 0.65607 0.0
C1237 C 0.90717 0.48707 0.67009 0.0
C1238 C 0.02596 0.46924 0.67774 0.0
C1239 C 0.97254 0.4904 0.66689 0.0
C1240 C 0.05848 0.4707 0.67533 0.0
C1241 C 0.07249 0.49437 0.66069 0.0
C1242 C 0.00724 0.49163 0.66547 0.0
C1243 C 0.05292 0.51661 0.64918 0.0
C1244 C 0.95404 0.5128 0.65442 0.0
C1245 C 0.92652 0.46499 0.68211 0.0
N1246 N 0.02139 0.51465 0.65177 0.0
N1247 N 0.95815 0.46723 0.68027 0.0
loop_
_geom_bond_atom_site_label_1
_geom_bond_atom_site_label_2
_geom_bond_distance
_geom_bond_site_symmetry_2
_ccdc_geom_bond_type
C0 C1 1.351 . S
C0 N3 1.368 . S
C0 H5 0.931 . S
C1 C0 1.351 . S
C1 N2 1.373 . S
C1 H29 0.930 . S
N2 C1 1.373 . S
N2 C4 1.340 . S
N3 C0 1.368 . S
N3 C4 1.321 . S
N3 Co6 2.135 . S
C4 N2 1.340 . S
C4 N3 1.321 . S
C4 H28 0.930 . S
H5 C0 0.931 . S
Co6 N3 2.135 . S
Co6 N9 2.121 . S
Co6 O14 2.055 . S
Co6 O17 2.039 . S
Co6 N20 2.140 . S
C7 O8 1.227 . S
C7 O17 1.265 . S
O8 C7 1.227 . S
N9 Co6 2.121 . S
N9 C11 1.375 . S
N9 C12 1.313 . S
C10 C11 1.338 . S
C10 N13 1.377 . S
C10 H30 0.930 . S
C11 N9 1.375 . S
C11 C10 1.338 . S
C11 H15 0.931 . S
C12 N9 1.313 . S
C12 N13 1.344 . S
C12 H16 0.930 . S
N13 C10 1.377 . S
N13 C12 1.344 . S
O14 Co6 2.055 . S
O14 C18 1.253 . S
H15 C11 0.931 . S
H16 C12 0.930 . S
O17 Co6 2.039 . S
O17 C7 1.265 . S
C18 O14 1.253 . S
C18 O19 1.227 . S
O19 C18 1.227 . S
N20 Co6 2.140 . S
N20 C23 1.346 . S
N20 C24 1.345 . S
C21 C22 1.387 1_655 S
C21 C25 1.391 . S
C22 C21 1.387 1_455 S
C22 C23 1.369 . S
C22 H31 0.929 . S
C23 N20 1.346 . S
C23 C22 1.369 . S
C23 H26 0.928 . S
C24 N20 1.345 . S
C24 C25 1.371 1_455 S
C24 H27 0.931 . S
C25 C21 1.391 . S
C25 C24 1.371 1_655 S
C25 H32 0.930 . S
H26 C23 0.928 . S
H27 C24 0.931 . S
H28 C4 0.930 . S
H29 C1 0.930 . S
H30 C10 0.930 . S
H31 C22 0.929 . S
H32 C25 0.930 . S
C33 C34 1.351 . S
C33 N36 1.368 . S
C33 H38 0.931 . S
C34 C33 1.351 . S
C34 N35 1.373 . S
C34 H62 0.930 . S
N35 C34 1.373 . S
N35 C37 1.340 . S
N36 C33 1.368 . S
N36 C37 1.321 . S
N36 Co39 2.135 . S
C37 N35 1.340 . S
C37 N36 1.321 . S
C37 H61 0.930 . S
H38 C33 0.931 . S
Co39 N36 2.135 . S
Co39 N42 2.121 . S
Co39 O47 2.055 . S
Co39 O50 2.039 . S
Co39 N53 2.140 . S
C40 O41 1.227 . S
C40 O50 1.265 . S
O41 C40 1.227 . S
N42 Co39 2.121 . S
N42 C44 1.375 . S
N42 C45 1.313 . S
C43 C44 1.338 . S
C43 N46 1.377 . S
C43 H63 0.930 . S
C44 N42 1.375 . S
C44 C43 1.338 . S
C44 H48 0.931 . S
C45 N42 1.313 . S
C45 N46 1.344 . S
C45 H49 0.930 . S
N46 C43 1.377 . S
N46 C45 1.344 . S
O47 Co39 2.055 . S
O47 C51 1.253 . S
H48 C44 0.931 . S
H49 C45 0.930 . S
O50 Co39 2.039 . S
O50 C40 1.265 . S
C51 O47 1.253 . S
C51 O52 1.227 . S
O52 C51 1.227 . S
N53 Co39 2.140 . S
N53 C56 1.346 . S
N53 C57 1.345 . S
C54 C55 1.387 1_565 S
C54 C58 1.391 . S
C55 C54 1.387 1_545 S
C55 C56 1.369 . S
C55 H64 0.929 . S
C56 N53 1.346 . S
C56 C55 1.369 . S
C56 H59 0.928 . S
C57 N53 1.345 . S
C57 C58 1.371 1_545 S
C57 H60 0.931 . S
C58 C54 1.391 . S
C58 C57 1.371 1_565 S
C58 H65 0.930 . S
H59 C56 0.928 . S
H60 C57 0.931 . S
H61 C37 0.930 . S
H62 C34 0.930 . S
H63 C43 0.930 . S
H64 C55 0.929 . S
H65 C58 0.930 . S
C66 C67 1.351 . S
C66 N69 1.368 . S
C66 H71 0.931 . S
C67 C66 1.351 . S
C67 N68 1.373 . S
C67 H95 0.930 . S
N68 C67 1.373 . S
N68 C70 1.340 . S
N69 C66 1.368 . S
N69 C70 1.321 . S
N69 Co72 2.135 . S
C70 N68 1.340 . S
C70 N69 1.321 . S
C70 H94 0.930 . S
H71 C66 0.931 . S
Co72 N69 2.135 . S
Co72 N75 2.121 . S
Co72 O80 2.055 . S
Co72 O83 2.039 . S
Co72 N86 2.140 . S
C73 O74 1.227 . S
C73 O83 1.265 . S
O74 C73 1.227 . S
N75 Co72 2.121 . S
N75 C77 1.375 . S
N75 C78 1.313 . S
C76 C77 1.338 . S
C76 N79 1.377 . S
C76 H96 0.930 . S
C77 N75 1.375 . S
C77 C76 1.338 . S
C77 H81 0.931 . S
C78 N75 1.313 . S
C78 N79 1.344 . S
C78 H82 0.930 . S
N79 C76 1.377 . S
N79 C78 1.344 . S
O80 Co72 2.055 . S
O80 C84 1.253 . S
H81 C77 0.931 . S
H82 C78 0.930 . S
O83 Co72 2.039 . S
O83 C73 1.265 . S
C84 O80 1.253 . S
C84 O85 1.227 . S
O85 C84 1.227 . S
N86 Co72 2.140 . S
N86 C89 1.346 . S
N86 C90 1.345 . S
C87 C88 1.387 1_455 S
C87 C91 1.391 . S
C88 C87 1.387 1_655 S
C88 C89 1.369 . S
C88 H97 0.929 . S
C89 N86 1.346 . S
C89 C88 1.369 . S
C89 H92 0.928 . S
C90 N86 1.345 . S
C90 C91 1.371 1_655 S
C90 H93 0.931 . S
C91 C87 1.391 . S
C91 C90 1.371 1_455 S
C91 H98 0.930 . S
H92 C89 0.928 . S
H93 C90 0.931 . S
H94 C70 0.930 . S
H95 C67 0.930 . S
H96 C76 0.930 . S
H97 C88 0.929 . S
H98 C91 0.930 . S
C99 C100 1.351 . S
C99 N102 1.368 . S
C99 H104 0.931 . S
C100 C99 1.351 . S
C100 N101 1.373 . S
C100 H128 0.930 . S
N101 C100 1.373 . S
N101 C103 1.340 . S
N102 C99 1.368 . S
N102 C103 1.321 . S
N102 Co105 2.135 . S
C103 N101 1.340 . S
C103 N102 1.321 . S
C103 H127 0.930 . S
H104 C99 0.931 . S
Co105 N102 2.135 . S
Co105 N108 2.121 . S
Co105 O113 2.055 . S
Co105 O116 2.039 . S
Co105 N119 2.140 . S
C106 O107 1.227 . S
C106 O116 1.265 . S
O107 C106 1.227 . S
N108 Co105 2.121 . S
N108 C110 1.375 . S
N108 C111 1.313 . S
C109 C110 1.338 . S
C109 N112 1.377 . S
C109 H129 0.930 . S
C110 N108 1.375 . S
C110 C109 1.338 . S
C110 H114 0.931 . S
C111 N108 1.313 . S
C111 N112 1.344 . S
C111 H115 0.930 . S
N112 C109 1.377 . S
N112 C111 1.344 . S
O113 Co105 2.055 . S
O113 C117 1.253 . S
H114 C110 0.931 . S
H115 C111 0.930 . S
O116 Co105 2.039 . S
O116 C106 1.265 . S
C117 O113 1.253 . S
C117 O118 1.227 . S
O118 C117 1.227 . S
N119 Co105 2.140 . S
N119 C122 1.346 . S
N119 C123 1.345 . S
C120 C121 1.387 1_545 S
C120 C124 1.391 . S
C121 C120 1.387 1_565 S
C121 C122 1.369 . S
C121 H130 0.929 . S
C122 N119 1.346 . S
C122 C121 1.369 . S
C122 H125 0.928 . S
C123 N119 1.345 . S
C123 C124 1.371 1_565 S
C123 H126 0.931 . S
C124 C120 1.391 . S
C124 C123 1.371 1_545 S
C124 H131 0.930 . S
H125 C122 0.928 . S
H126 C123 0.931 . S
H127 C103 0.930 . S
H128 C100 0.930 . S
H129 C109 0.930 . S
H130 C121 0.929 . S
H131 C124 0.930 . S
C132 C133 1.351 . S
C132 N135 1.368 . S
C132 H137 0.931 . S
C133 C132 1.351 . S
C133 N134 1.373 . S
C133 H161 0.930 . S
N134 C133 1.373 . S
N134 C136 1.340 . S
N135 C132 1.368 . S
N135 C136 1.321 . S
N135 Co138 2.135 . S
C136 N134 1.340 . S
C136 N135 1.321 . S
C136 H160 0.930 . S
H137 C132 0.931 . S
Co138 N135 2.135 . S
Co138 N141 2.121 . S
Co138 O146 2.055 . S
Co138 O149 2.039 . S
Co138 N152 2.140 . S
C139 O140 1.227 . S
C139 O149 1.265 . S
O140 C139 1.227 . S
N141 Co138 2.121 . S
N141 C143 1.375 . S
N141 C144 1.313 . S
C142 C143 1.338 . S
C142 N145 1.377 . S
C142 H162 0.930 . S
C143 N141 1.375 . S
C143 C142 1.338 . S
C143 H147 0.931 . S
C144 N141 1.313 . S
C144 N145 1.344 . S
C144 H148 0.930 . S
N145 C142 1.377 . S
N145 C144 1.344 . S
O146 Co138 2.055 . S
O146 C150 1.253 . S
H147 C143 0.931 . S
H148 C144 0.930 . S
O149 Co138 2.039 . S
O149 C139 1.265 . S
C150 O146 1.253 . S
C150 O151 1.227 . S
O151 C150 1.227 . S
N152 Co138 2.140 . S
N152 C155 1.346 . S
N152 C156 1.345 . S
C153 C154 1.387 . S
C153 C157 1.391 . S
C154 C153 1.387 . S
C154 C155 1.369 . S
C154 H163 0.929 . S
C155 N152 1.346 . S
C155 C154 1.369 . S
C155 H158 0.928 . S
C156 N152 1.345 . S
C156 C157 1.371 . S
C156 H159 0.931 . S
C157 C153 1.391 . S
C157 C156 1.371 . S
C157 H164 0.930 . S
H158 C155 0.928 . S
H159 C156 0.931 . S
H160 C136 0.930 . S
H161 C133 0.930 . S
H162 C142 0.930 . S
H163 C154 0.929 . S
H164 C157 0.930 . S
C165 C166 1.351 . S
C165 N168 1.368 . S
C165 H170 0.931 . S
C166 C165 1.351 . S
C166 N167 1.373 . S
C166 H194 0.930 . S
N167 C166 1.373 . S
N167 C169 1.340 . S
N168 C165 1.368 . S
N168 C169 1.321 . S
N168 Co171 2.135 . S
C169 N167 1.340 . S
C169 N168 1.321 . S
C169 H193 0.930 . S
H170 C165 0.931 . S
Co171 N168 2.135 . S
Co171 N174 2.121 . S
Co171 O179 2.055 . S
Co171 O182 2.039 . S
Co171 N185 2.140 . S
C172 O173 1.227 . S
C172 O182 1.265 . S
O173 C172 1.227 . S
N174 Co171 2.121 . S
N174 C176 1.375 . S
N174 C177 1.313 . S
C175 C176 1.338 . S
C175 N178 1.377 . S
C175 H195 0.930 . S
C176 N174 1.375 . S
C176 C175 1.338 . S
C176 H180 0.931 . S
C177 N174 1.313 . S
C177 N178 1.344 . S
C177 H181 0.930 . S
N178 C175 1.377 . S
N178 C177 1.344 . S
O179 Co171 2.055 . S
O179 C183 1.253 . S
H180 C176 0.931 . S
H181 C177 0.930 . S
O182 Co171 2.039 . S
O182 C172 1.265 . S
C183 O179 1.253 . S
C183 O184 1.227 . S
O184 C183 1.227 . S
N185 Co171 2.140 . S
N185 C188 1.346 . S
N185 C189 1.345 . S
C186 C187 1.387 . S
C186 C190 1.391 . S
C187 C186 1.387 . S
C187 C188 1.369 . S
C187 H196 0.929 . S
C188 N185 1.346 . S
C188 C187 1.369 . S
C188 H191 0.928 . S
C189 N185 1.345 . S
C189 C190 1.371 . S
C189 H192 0.931 . S
C190 C186 1.391 . S
C190 C189 1.371 . S
C190 H197 0.930 . S
H191 C188 0.928 . S
H192 C189 0.931 . S
H193 C169 0.930 . S
H194 C166 0.930 . S
H195 C175 0.930 . S
H196 C187 0.929 . S
H197 C190 0.930 . S
C198 C199 1.351 . S
C198 N201 1.368 . S
C198 H203 0.931 . S
C199 C198 1.351 . S
C199 N200 1.373 . S
C199 H227 0.930 . S
N200 C199 1.373 . S
N200 C202 1.340 . S
N201 C198 1.368 . S
N201 C202 1.321 . S
N201 Co204 2.135 . S
C202 N200 1.340 . S
C202 N201 1.321 . S
C202 H226 0.930 . S
H203 C198 0.931 . S
Co204 N201 2.135 . S
Co204 N207 2.121 . S
Co204 O212 2.055 . S
Co204 O215 2.039 . S
Co204 N218 2.140 . S
C205 O206 1.227 . S
C205 O215 1.265 . S
O206 C205 1.227 . S
N207 Co204 2.121 . S
N207 C209 1.375 . S
N207 C210 1.313 . S
C208 C209 1.338 . S
C208 N211 1.377 . S
C208 H228 0.930 . S
C209 N207 1.375 . S
C209 C208 1.338 . S
C209 H213 0.931 . S
C210 N207 1.313 . S
C210 N211 1.344 . S
C210 H214 0.930 . S
N211 C208 1.377 . S
N211 C210 1.344 . S
O212 Co204 2.055 . S
O212 C216 1.253 . S
H213 C209 0.931 . S
H214 C210 0.930 . S
O215 Co204 2.039 . S
O215 C205 1.265 . S
C216 O212 1.253 . S
C216 O217 1.227 . S
O217 C216 1.227 . S
N218 Co204 2.140 . S
N218 C221 1.346 . S
N218 C222 1.345 . S
C219 C220 1.387 . S
C219 C223 1.391 . S
C220 C219 1.387 . S
C220 C221 1.369 . S
C220 H229 0.929 . S
C221 N218 1.346 . S
C221 C220 1.369 . S
C221 H224 0.928 . S
C222 N218 1.345 . S
C222 C223 1.371 . S
C222 H225 0.931 . S
C223 C219 1.391 . S
C223 C222 1.371 . S
C223 H230 0.930 . S
H224 C221 0.928 . S
H225 C222 0.931 . S
H226 C202 0.930 . S
H227 C199 0.930 . S
H228 C208 0.930 . S
H229 C220 0.929 . S
H230 C223 0.930 . S
C231 C232 1.351 . S
C231 N234 1.368 . S
C231 H236 0.931 . S
C232 C231 1.351 . S
C232 N233 1.373 . S
C232 H260 0.930 . S
N233 C232 1.373 . S
N233 C235 1.340 . S
N234 C231 1.368 . S
N234 C235 1.321 . S
N234 Co237 2.135 . S
C235 N233 1.340 . S
C235 N234 1.321 . S
C235 H259 0.930 . S
H236 C231 0.931 . S
Co237 N234 2.135 . S
Co237 N240 2.121 . S
Co237 O245 2.055 . S
Co237 O248 2.039 . S
Co237 N251 2.140 . S
C238 O239 1.227 . S
C238 O248 1.265 . S
O239 C238 1.227 . S
N240 Co237 2.121 . S
N240 C242 1.375 . S
N240 C243 1.313 . S
C241 C242 1.338 . S
C241 N244 1.377 . S
C241 H261 0.930 . S
C242 N240 1.375 . S
C242 C241 1.338 . S
C242 H246 0.931 . S
C243 N240 1.313 . S
C243 N244 1.344 . S
C243 H247 0.930 . S
N244 C241 1.377 . S
N244 C243 1.344 . S
O245 Co237 2.055 . S
O245 C249 1.253 . S
H246 C242 0.931 . S
H247 C243 0.930 . S
O248 Co237 2.039 . S
O248 C238 1.265 . S
C249 O245 1.253 . S
C249 O250 1.227 . S
O250 C249 1.227 . S
N251 Co237 2.140 . S
N251 C254 1.346 . S
N251 C255 1.345 . S
C252 C253 1.387 . S
C252 C256 1.391 . S
C253 C252 1.387 . S
C253 C254 1.369 . S
C253 H262 0.929 . S
C254 N251 1.346 . S
C254 C253 1.369 . S
C254 H257 0.928 . S
C255 N251 1.345 . S
C255 C256 1.371 . S
C255 H258 0.931 . S
C256 C252 1.391 . S
C256 C255 1.371 . S
C256 H263 0.930 . S
H257 C254 0.928 . S
H258 C255 0.931 . S
H259 C235 0.930 . S
H260 C232 0.930 . S
H261 C241 0.930 . S
H262 C253 0.929 . S
H263 C256 0.930 . S
C264 C265 1.351 . S
C264 N267 1.368 . S
C264 H269 0.931 . S
C265 C264 1.351 . S
C265 N266 1.373 . S
C265 H293 0.930 . S
N266 C265 1.373 . S
N266 C268 1.340 . S
N267 C264 1.368 . S
N267 C268 1.321 . S
N267 Co270 2.135 . S
C268 N266 1.340 . S
C268 N267 1.321 . S
C268 H292 0.930 . S
H269 C264 0.931 . S
Co270 N267 2.135 . S
Co270 N273 2.121 . S
Co270 O278 2.055 . S
Co270 O281 2.039 . S
Co270 N284 2.140 . S
C271 O272 1.227 . S
C271 O281 1.265 . S
O272 C271 1.227 . S
N273 Co270 2.121 . S
N273 C275 1.375 . S
N273 C276 1.313 . S
C274 C275 1.338 . S
C274 N277 1.377 . S
C274 H294 0.930 . S
C275 N273 1.375 . S
C275 C274 1.338 . S
C275 H279 0.931 . S
C276 N273 1.313 . S
C276 N277 1.344 . S
C276 H280 0.930 . S
N277 C274 1.377 . S
N277 C276 1.344 . S
O278 Co270 2.055 . S
O278 C282 1.253 . S
H279 C275 0.931 . S
H280 C276 0.930 . S
O281 Co270 2.039 . S
O281 C271 1.265 . S
C282 O278 1.253 . S
C282 O283 1.227 . S
O283 C282 1.227 . S
N284 Co270 2.140 . S
N284 C287 1.346 . S
N284 C288 1.345 . S
C285 C286 1.387 1_455 S
C285 C289 1.391 . S
C286 C285 1.387 1_655 S
C286 C287 1.369 . S
C286 H295 0.929 . S
C287 N284 1.346 . S
C287 C286 1.369 . S
C287 H290 0.928 . S
C288 N284 1.345 . S
C288 C289 1.371 1_655 S
C288 H291 0.931 . S
C289 C285 1.391 . S
C289 C288 1.371 1_455 S
C289 H296 0.930 . S
H290 C287 0.928 . S
H291 C288 0.931 . S
H292 C268 0.930 . S
H293 C265 0.930 . S
H294 C274 0.930 . S
H295 C286 0.929 . S
H296 C289 0.930 . S
C297 C298 1.351 . S
C297 N300 1.368 . S
C297 H302 0.931 . S
C298 C297 1.351 . S
C298 N299 1.373 . S
C298 H326 0.930 . S
N299 C298 1.373 . S
N299 C301 1.340 . S
N300 C297 1.368 . S
N300 C301 1.321 . S
N300 Co303 2.135 . S
C301 N299 1.340 . S
C301 N300 1.321 . S
C301 H325 0.930 . S
H302 C297 0.931 . S
Co303 N300 2.135 . S
Co303 N306 2.121 . S
Co303 O311 2.055 . S
Co303 O314 2.039 . S
Co303 N317 2.140 . S
C304 O305 1.227 . S
C304 O314 1.265 . S
O305 C304 1.227 . S
N306 Co303 2.121 . S
N306 C308 1.375 . S
N306 C309 1.313 . S
C307 C308 1.338 . S
C307 N310 1.377 . S
C307 H327 0.930 . S
C308 N306 1.375 . S
C308 C307 1.338 . S
C308 H312 0.931 . S
C309 N306 1.313 . S
C309 N310 1.344 . S
C309 H313 0.930 . S
N310 C307 1.377 . S
N310 C309 1.344 . S
O311 Co303 2.055 . S
O311 C315 1.253 . S
H312 C308 0.931 . S
H313 C309 0.930 . S
O314 Co303 2.039 . S
O314 C304 1.265 . S
C315 O311 1.253 . S
C315 O316 1.227 . S
O316 C315 1.227 . S
N317 Co303 2.140 . S
N317 C320 1.346 . S
N317 C321 1.345 . S
C318 C319 1.387 1_545 S
C318 C322 1.391 . S
C319 C318 1.387 1_565 S
C319 C320 1.369 . S
C319 H328 0.929 . S
C320 N317 1.346 . S
C320 C319 1.369 . S
C320 H323 0.928 . S
C321 N317 1.345 . S
C321 C322 1.371 1_565 S
C321 H324 0.931 . S
C322 C318 1.391 . S
C322 C321 1.371 1_545 S
C322 H329 0.930 . S
H323 C320 0.928 . S
H324 C321 0.931 . S
H325 C301 0.930 . S
H326 C298 0.930 . S
H327 C307 0.930 . S
H328 C319 0.929 . S
H329 C322 0.930 . S
C330 C331 1.351 . S
C330 N333 1.368 . S
C330 H335 0.931 . S
C331 C330 1.351 . S
C331 N332 1.373 . S
C331 H359 0.930 . S
N332 C331 1.373 . S
N332 C334 1.340 . S
N333 C330 1.368 . S
N333 C334 1.321 . S
N333 Co336 2.135 . S
C334 N332 1.340 . S
C334 N333 1.321 . S
C334 H358 0.930 . S
H335 C330 0.931 . S
Co336 N333 2.135 . S
Co336 N339 2.121 . S
Co336 O344 2.055 . S
Co336 O347 2.039 . S
Co336 N350 2.140 . S
C337 O338 1.227 . S
C337 O347 1.265 . S
O338 C337 1.227 . S
N339 Co336 2.121 . S
N339 C341 1.375 . S
N339 C342 1.313 . S
C340 C341 1.338 . S
C340 N343 1.377 . S
C340 H360 0.930 . S
C341 N339 1.375 . S
C341 C340 1.338 . S
C341 H345 0.931 . S
C342 N339 1.313 . S
C342 N343 1.344 . S
C342 H346 0.930 . S
N343 C340 1.377 . S
N343 C342 1.344 . S
O344 Co336 2.055 . S
O344 C348 1.253 . S
H345 C341 0.931 . S
H346 C342 0.930 . S
O347 Co336 2.039 . S
O347 C337 1.265 . S
C348 O344 1.253 . S
C348 O349 1.227 . S
O349 C348 1.227 . S
N350 Co336 2.140 . S
N350 C353 1.346 . S
N350 C354 1.345 . S
C351 C352 1.387 1_655 S
C351 C355 1.391 . S
C352 C351 1.387 1_455 S
C352 C353 1.369 . S
C352 H361 0.929 . S
C353 N350 1.346 . S
C353 C352 1.369 . S
C353 H356 0.928 . S
C354 N350 1.345 . S
C354 C355 1.371 1_455 S
C354 H357 0.931 . S
C355 C351 1.391 . S
C355 C354 1.371 1_655 S
C355 H362 0.930 . S
H356 C353 0.928 . S
H357 C354 0.931 . S
H358 C334 0.930 . S
H359 C331 0.930 . S
H360 C340 0.930 . S
H361 C352 0.929 . S
H362 C355 0.930 . S
C363 C364 1.351 . S
C363 N366 1.368 . S
C363 H368 0.931 . S
C364 C363 1.351 . S
C364 N365 1.373 . S
C364 H392 0.930 . S
N365 C364 1.373 . S
N365 C367 1.340 . S
N366 C363 1.368 . S
N366 C367 1.321 . S
N366 Co369 2.135 . S
C367 N365 1.340 . S
C367 N366 1.321 . S
C367 H391 0.930 . S
H368 C363 0.931 . S
Co369 N366 2.135 . S
Co369 N372 2.121 . S
Co369 O377 2.055 . S
Co369 O380 2.039 . S
Co369 N383 2.140 . S
C370 O371 1.227 . S
C370 O380 1.265 . S
O371 C370 1.227 . S
N372 Co369 2.121 . S
N372 C374 1.375 . S
N372 C375 1.313 . S
C373 C374 1.338 . S
C373 N376 1.377 . S
C373 H393 0.930 . S
C374 N372 1.375 . S
C374 C373 1.338 . S
C374 H378 0.931 . S
C375 N372 1.313 . S
C375 N376 1.344 . S
C375 H379 0.930 . S
N376 C373 1.377 . S
N376 C375 1.344 . S
O377 Co369 2.055 . S
O377 C381 1.253 . S
H378 C374 0.931 . S
H379 C375 0.930 . S
O380 Co369 2.039 . S
O380 C370 1.265 . S
C381 O377 1.253 . S
C381 O382 1.227 . S
O382 C381 1.227 . S
N383 Co369 2.140 . S
N383 C386 1.346 . S
N383 C387 1.345 . S
C384 C385 1.387 1_565 S
C384 C388 1.391 . S
C385 C384 1.387 1_545 S
C385 C386 1.369 . S
C385 H394 0.929 . S
C386 N383 1.346 . S
C386 C385 1.369 . S
C386 H389 0.928 . S
C387 N383 1.345 . S
C387 C388 1.371 1_545 S
C387 H390 0.931 . S
C388 C384 1.391 . S
C388 C387 1.371 1_565 S
C388 H395 0.930 . S
H389 C386 0.928 . S
H390 C387 0.931 . S
H391 C367 0.930 . S
H392 C364 0.930 . S
H393 C373 0.930 . S
H394 C385 0.929 . S
H395 C388 0.930 . S
C396 C397 1.351 . S
C396 N399 1.368 . S
C396 H401 0.931 . S
C397 C396 1.351 . S
C397 N398 1.373 . S
C397 H425 0.930 . S
N398 C397 1.373 . S
N398 C400 1.340 . S
N399 C396 1.368 . S
N399 C400 1.321 . S
N399 Co402 2.135 . S
C400 N398 1.340 . S
C400 N399 1.321 . S
C400 H424 0.930 . S
H401 C396 0.931 . S
Co402 N399 2.135 . S
Co402 N405 2.121 . S
Co402 O410 2.055 . S
Co402 O413 2.039 . S
Co402 N416 2.140 . S
C403 O404 1.227 . S
C403 O413 1.265 . S
O404 C403 1.227 . S
N405 Co402 2.121 . S
N405 C407 1.375 . S
N405 C408 1.313 . S
C406 C407 1.338 . S
C406 N409 1.377 . S
C406 H426 0.930 . S
C407 N405 1.375 . S
C407 C406 1.338 . S
C407 H411 0.931 . S
C408 N405 1.313 . S
C408 N409 1.344 . S
C408 H412 0.930 . S
N409 C406 1.377 . S
N409 C408 1.344 . S
O410 Co402 2.055 . S
O410 C414 1.253 . S
H411 C407 0.931 . S
H412 C408 0.930 . S
O413 Co402 2.039 . S
O413 C403 1.265 . S
C414 O410 1.253 . S
C414 O415 1.227 . S
O415 C414 1.227 . S
N416 Co402 2.140 . S
N416 C419 1.346 . S
N416 C420 1.345 . S
C417 C418 1.387 . S
C417 C421 1.391 . S
C418 C417 1.387 . S
C418 C419 1.369 . S
C418 H427 0.929 . S
C419 N416 1.346 . S
C419 C418 1.369 . S
C419 H422 0.928 . S
C420 N416 1.345 . S
C420 C421 1.371 . S
C420 H423 0.931 . S
C421 C417 1.391 . S
C421 C420 1.371 . S
C421 H428 0.930 . S
H422 C419 0.928 . S
H423 C420 0.931 . S
H424 C400 0.930 . S
H425 C397 0.930 . S
H426 C406 0.930 . S
H427 C418 0.929 . S
H428 C421 0.930 . S
C429 C430 1.351 . S
C429 N432 1.368 . S
C429 H434 0.931 . S
C430 C429 1.351 . S
C430 N431 1.373 . S
C430 H458 0.930 . S
N431 C430 1.373 . S
N431 C433 1.340 . S
N432 C429 1.368 . S
N432 C433 1.321 . S
N432 Co435 2.135 . S
C433 N431 1.340 . S
C433 N432 1.321 . S
C433 H457 0.930 . S
H434 C429 0.931 . S
Co435 N432 2.135 . S
Co435 N438 2.121 . S
Co435 O443 2.055 . S
Co435 O446 2.039 . S
Co435 N449 2.140 . S
C436 O437 1.227 . S
C436 O446 1.265 . S
O437 C436 1.227 . S
N438 Co435 2.121 . S
N438 C440 1.375 . S
N438 C441 1.313 . S
C439 C440 1.338 . S
C439 N442 1.377 . S
C439 H459 0.930 . S
C440 N438 1.375 . S
C440 C439 1.338 . S
C440 H444 0.931 . S
C441 N438 1.313 . S
C441 N442 1.344 . S
C441 H445 0.930 . S
N442 C439 1.377 . S
N442 C441 1.344 . S
O443 Co435 2.055 . S
O443 C447 1.253 . S
H444 C440 0.931 . S
H445 C441 0.930 . S
O446 Co435 2.039 . S
O446 C436 1.265 . S
C447 O443 1.253 . S
C447 O448 1.227 . S
O448 C447 1.227 . S
N449 Co435 2.140 . S
N449 C452 1.346 . S
N449 C453 1.345 . S
C450 C451 1.387 . S
C450 C454 1.391 . S
C451 C450 1.387 . S
C451 C452 1.369 . S
C451 H460 0.929 . S
C452 N449 1.346 . S
C452 C451 1.369 . S
C452 H455 0.928 . S
C453 N449 1.345 . S
C453 C454 1.371 . S
C453 H456 0.931 . S
C454 C450 1.391 . S
C454 C453 1.371 . S
C454 H461 0.930 . S
H455 C452 0.928 . S
H456 C453 0.931 . S
H457 C433 0.930 . S
H458 C430 0.930 . S
H459 C439 0.930 . S
H460 C451 0.929 . S
H461 C454 0.930 . S
C462 C463 1.351 . S
C462 N465 1.368 . S
C462 H467 0.931 . S
C463 C462 1.351 . S
C463 N464 1.373 . S
C463 H491 0.930 . S
N464 C463 1.373 . S
N464 C466 1.340 . S
N465 C462 1.368 . S
N465 C466 1.321 . S
N465 Co468 2.135 . S
C466 N464 1.340 . S
C466 N465 1.321 . S
C466 H490 0.930 . S
H467 C462 0.931 . S
Co468 N465 2.135 . S
Co468 N471 2.121 . S
Co468 O476 2.055 . S
Co468 O479 2.039 . S
Co468 N482 2.140 . S
C469 O470 1.227 . S
C469 O479 1.265 . S
O470 C469 1.227 . S
N471 Co468 2.121 . S
N471 C473 1.375 . S
N471 C474 1.313 . S
C472 C473 1.338 . S
C472 N475 1.377 . S
C472 H492 0.930 . S
C473 N471 1.375 . S
C473 C472 1.338 . S
C473 H477 0.931 . S
C474 N471 1.313 . S
C474 N475 1.344 . S
C474 H478 0.930 . S
N475 C472 1.377 . S
N475 C474 1.344 . S
O476 Co468 2.055 . S
O476 C480 1.253 . S
H477 C473 0.931 . S
H478 C474 0.930 . S
O479 Co468 2.039 . S
O479 C469 1.265 . S
C480 O476 1.253 . S
C480 O481 1.227 . S
O481 C480 1.227 . S
N482 Co468 2.140 . S
N482 C485 1.346 . S
N482 C486 1.345 . S
C483 C484 1.387 . S
C483 C487 1.391 . S
C484 C483 1.387 . S
C484 C485 1.369 . S
C484 H493 0.929 . S
C485 N482 1.346 . S
C485 C484 1.369 . S
C485 H488 0.928 . S
C486 N482 1.345 . S
C486 C487 1.371 . S
C486 H489 0.931 . S
C487 C483 1.391 . S
C487 C486 1.371 . S
C487 H494 0.930 . S
H488 C485 0.928 . S
H489 C486 0.931 . S
H490 C466 0.930 . S
H491 C463 0.930 . S
H492 C472 0.930 . S
H493 C484 0.929 . S
H494 C487 0.930 . S
C495 C496 1.351 . S
C495 N498 1.368 . S
C495 H500 0.931 . S
C496 C495 1.351 . S
C496 N497 1.373 . S
C496 H524 0.930 . S
N497 C496 1.373 . S
N497 C499 1.340 . S
N498 C495 1.368 . S
N498 C499 1.321 . S
N498 Co501 2.135 . S
C499 N497 1.340 . S
C499 N498 1.321 . S
C499 H523 0.930 . S
H500 C495 0.931 . S
Co501 N498 2.135 . S
Co501 N504 2.121 . S
Co501 O509 2.055 . S
Co501 O512 2.039 . S
Co501 N515 2.140 . S
C502 O503 1.227 . S
C502 O512 1.265 . S
O503 C502 1.227 . S
N504 Co501 2.121 . S
N504 C506 1.375 . S
N504 C507 1.313 . S
C505 C506 1.338 . S
C505 N508 1.377 . S
C505 H525 0.930 . S
C506 N504 1.375 . S
C506 C505 1.338 . S
C506 H510 0.931 . S
C507 N504 1.313 . S
C507 N508 1.344 . S
C507 H511 0.930 . S
N508 C505 1.377 . S
N508 C507 1.344 . S
O509 Co501 2.055 . S
O509 C513 1.253 . S
H510 C506 0.931 . S
H511 C507 0.930 . S
O512 Co501 2.039 . S
O512 C502 1.265 . S
C513 O509 1.253 . S
C513 O514 1.227 . S
O514 C513 1.227 . S
N515 Co501 2.140 . S
N515 C518 1.346 . S
N515 C519 1.345 . S
C516 C517 1.387 . S
C516 C520 1.391 . S
C517 C516 1.387 . S
C517 C518 1.369 . S
C517 H526 0.929 . S
C518 N515 1.346 . S
C518 C517 1.369 . S
C518 H521 0.928 . S
C519 N515 1.345 . S
C519 C520 1.371 . S
C519 H522 0.931 . S
C520 C516 1.391 . S
C520 C519 1.371 . S
C520 H527 0.930 . S
H521 C518 0.928 . S
H522 C519 0.931 . S
H523 C499 0.930 . S
H524 C496 0.930 . S
H525 C505 0.930 . S
H526 C517 0.929 . S
H527 C520 0.930 . S
H528 C534 0.930 . S
H529 C538 0.930 . S
H530 C543 0.929 . S
H531 C541 0.929 . S
H532 C536 0.929 . S
H533 C542 0.929 . S
C534 H528 0.930 . S
C534 C535 1.367 . S
C534 C542 1.378 . S
C535 C534 1.367 . S
C535 C543 1.433 . S
C536 H532 0.929 . S
C536 C538 1.378 . S
C536 C540 1.350 . S
C537 C540 1.463 1_556 S
C537 C542 1.350 . S
C537 N545 1.427 . S
C538 H529 0.930 . S
C538 C536 1.378 . S
C538 C539 1.367 . S
C539 C538 1.367 . S
C539 C541 1.433 . S
C540 C536 1.350 . S
C540 C537 1.463 1_554 S
C540 N544 1.427 . S
C541 H531 0.929 . S
C541 C539 1.433 . S
C541 N544 1.384 . S
C542 H533 0.929 . S
C542 C534 1.378 . S
C542 C537 1.350 . S
C543 H530 0.929 . S
C543 C535 1.433 . S
C543 N545 1.384 . S
N544 C540 1.427 . S
N544 C541 1.384 . S
N545 C537 1.427 . S
N545 C543 1.384 . S
H546 C552 0.930 . S
H547 C556 0.930 . S
H548 C561 0.929 . S
H549 C559 0.929 . S
H550 C554 0.929 . S
H551 C560 0.929 . S
C552 H546 0.930 . S
C552 C553 1.367 . S
C552 C560 1.378 . S
C553 C552 1.367 . S
C553 C561 1.433 . S
C554 H550 0.929 . S
C554 C556 1.378 . S
C554 C558 1.350 . S
C555 C558 1.463 1_556 S
C555 C560 1.350 . S
C555 N563 1.427 . S
C556 H547 0.930 . S
C556 C554 1.378 . S
C556 C557 1.367 . S
C557 C556 1.367 . S
C557 C559 1.433 . S
C558 C554 1.350 . S
C558 C555 1.463 1_554 S
C558 N562 1.427 . S
C559 H549 0.929 . S
C559 C557 1.433 . S
C559 N562 1.384 . S
C560 H551 0.929 . S
C560 C552 1.378 . S
C560 C555 1.350 . S
C561 H548 0.929 . S
C561 C553 1.433 . S
C561 N563 1.384 . S
N562 C558 1.427 . S
N562 C559 1.384 . S
N563 C555 1.427 . S
N563 C561 1.384 . S
H564 C570 0.930 . S
H565 C574 0.930 . S
H566 C579 0.929 . S
H567 C577 0.929 . S
H568 C572 0.929 . S
H569 C578 0.929 . S
C570 H564 0.930 . S
C570 C571 1.367 . S
C570 C578 1.378 . S
C571 C570 1.367 . S
C571 C579 1.433 . S
C572 H568 0.929 . S
C572 C574 1.378 . S
C572 C576 1.350 . S
C573 C576 1.463 1_556 S
C573 C578 1.350 . S
C573 N581 1.427 . S
C574 H565 0.930 . S
C574 C572 1.378 . S
C574 C575 1.367 . S
C575 C574 1.367 . S
C575 C577 1.433 . S
C576 C572 1.350 . S
C576 C573 1.463 1_554 S
C576 N580 1.427 . S
C577 H567 0.929 . S
C577 C575 1.433 . S
C577 N580 1.384 . S
C578 H569 0.929 . S
C578 C570 1.378 . S
C578 C573 1.350 . S
C579 H566 0.929 . S
C579 C571 1.433 . S
C579 N581 1.384 . S
N580 C576 1.427 . S
N580 C577 1.384 . S
N581 C573 1.427 . S
N581 C579 1.384 . S
H582 C588 0.930 . S
H583 C592 0.930 . S
H584 C597 0.929 . S
H585 C595 0.929 . S
H586 C590 0.929 . S
H587 C596 0.929 . S
C588 H582 0.930 . S
C588 C589 1.367 . S
C588 C596 1.378 . S
C589 C588 1.367 . S
C589 C597 1.433 . S
C590 H586 0.929 . S
C590 C592 1.378 . S
C590 C594 1.350 . S
C591 C594 1.463 1_556 S
C591 C596 1.350 . S
C591 N599 1.427 . S
C592 H583 0.930 . S
C592 C590 1.378 . S
C592 C593 1.367 . S
C593 C592 1.367 . S
C593 C595 1.433 . S
C594 C590 1.350 . S
C594 C591 1.463 1_554 S
C594 N598 1.427 . S
C595 H585 0.929 . S
C595 C593 1.433 . S
C595 N598 1.384 . S
C596 H587 0.929 . S
C596 C588 1.378 . S
C596 C591 1.350 . S
C597 H584 0.929 . S
C597 C589 1.433 . S
C597 N599 1.384 . S
N598 C594 1.427 . S
N598 C595 1.384 . S
N599 C591 1.427 . S
N599 C597 1.384 . S
H600 C606 0.930 . S
H601 C610 0.930 . S
H602 C615 0.929 . S
H603 C613 0.929 . S
H604 C608 0.929 . S
H605 C614 0.929 . S
C606 H600 0.930 . S
C606 C607 1.367 . S
C606 C614 1.378 . S
C607 C606 1.367 . S
C607 C615 1.433 . S
C608 H604 0.929 . S
C608 C610 1.378 . S
C608 C612 1.350 . S
C609 C612 1.463 . S
C609 C614 1.350 . S
C609 N617 1.427 . S
C610 H601 0.930 . S
C610 C608 1.378 . S
C610 C611 1.367 . S
C611 C610 1.367 . S
C611 C613 1.433 . S
C612 C608 1.350 . S
C612 C609 1.463 . S
C612 N616 1.427 . S
C613 H603 0.929 . S
C613 C611 1.433 . S
C613 N616 1.384 . S
C614 H605 0.929 . S
C614 C606 1.378 . S
C614 C609 1.350 . S
C615 H602 0.929 . S
C615 C607 1.433 . S
C615 N617 1.384 . S
N616 C612 1.427 . S
N616 C613 1.384 . S
N617 C609 1.427 . S
N617 C615 1.384 . S
H618 C624 0.930 . S
H619 C628 0.930 . S
H620 C633 0.929 . S
H621 C631 0.929 . S
H622 C626 0.929 . S
H623 C632 0.929 . S
C624 H618 0.930 . S
C624 C625 1.367 . S
C624 C632 1.378 . S
C625 C624 1.367 . S
C625 C633 1.433 . S
C626 H622 0.929 . S
C626 C628 1.378 . S
C626 C630 1.350 . S
C627 C630 1.463 . S
C627 C632 1.350 . S
C627 N635 1.427 . S
C628 H619 0.930 . S
C628 C626 1.378 . S
C628 C629 1.367 . S
C629 C628 1.367 . S
C629 C631 1.433 . S
C630 C626 1.350 . S
C630 C627 1.463 . S
C630 N634 1.427 . S
C631 H621 0.929 . S
C631 C629 1.433 . S
C631 N634 1.384 . S
C632 H623 0.929 . S
C632 C624 1.378 . S
C632 C627 1.350 . S
C633 H620 0.929 . S
C633 C625 1.433 . S
C633 N635 1.384 . S
N634 C630 1.427 . S
N634 C631 1.384 . S
N635 C627 1.427 . S
N635 C633 1.384 . S
H636 C642 0.930 . S
H637 C646 0.930 . S
H638 C651 0.929 . S
H639 C649 0.929 . S
H640 C644 0.929 . S
H641 C650 0.929 . S
C642 H636 0.930 . S
C642 C643 1.367 . S
C642 C650 1.378 . S
C643 C642 1.367 . S
C643 C651 1.433 . S
C644 H640 0.929 . S
C644 C646 1.378 . S
C644 C648 1.350 . S
C645 C648 1.463 . S
C645 C650 1.350 . S
C645 N653 1.427 . S
C646 H637 0.930 . S
C646 C644 1.378 . S
C646 C647 1.367 . S
C647 C646 1.367 . S
C647 C649 1.433 . S
C648 C644 1.350 . S
C648 C645 1.463 . S
C648 N652 1.427 . S
C649 H639 0.929 . S
C649 C647 1.433 . S
C649 N652 1.384 . S
C650 H641 0.929 . S
C650 C642 1.378 . S
C650 C645 1.350 . S
C651 H638 0.929 . S
C651 C643 1.433 . S
C651 N653 1.384 . S
N652 C648 1.427 . S
N652 C649 1.384 . S
N653 C645 1.427 . S
N653 C651 1.384 . S
H654 C660 0.930 . S
H655 C664 0.930 . S
H656 C669 0.929 . S
H657 C667 0.929 . S
H658 C662 0.929 . S
H659 C668 0.929 . S
C660 H654 0.930 . S
C660 C661 1.367 . S
C660 C668 1.378 . S
C661 C660 1.367 . S
C661 C669 1.433 . S
C662 H658 0.929 . S
C662 C664 1.378 . S
C662 C666 1.350 . S
C663 C666 1.463 . S
C663 C668 1.350 . S
C663 N671 1.427 . S
C664 H655 0.930 . S
C664 C662 1.378 . S
C664 C665 1.367 . S
C665 C664 1.367 . S
C665 C667 1.433 . S
C666 C662 1.350 . S
C666 C663 1.463 . S
C666 N670 1.427 . S
C667 H657 0.929 . S
C667 C665 1.433 . S
C667 N670 1.384 . S
C668 H659 0.929 . S
C668 C660 1.378 . S
C668 C663 1.350 . S
C669 H656 0.929 . S
C669 C661 1.433 . S
C669 N671 1.384 . S
N670 C666 1.427 . S
N670 C667 1.384 . S
N671 C663 1.427 . S
N671 C669 1.384 . S
H672 C678 0.930 . S
H673 C682 0.930 . S
H674 C687 0.929 . S
H675 C685 0.929 . S
H676 C680 0.929 . S
H677 C686 0.929 . S
C678 H672 0.930 . S
C678 C679 1.367 . S
C678 C686 1.378 . S
C679 C678 1.367 . S
C679 C687 1.433 . S
C680 H676 0.929 . S
C680 C682 1.378 . S
C680 C684 1.350 . S
C681 C684 1.463 . S
C681 C686 1.350 . S
C681 N689 1.427 . S
C682 H673 0.930 . S
C682 C680 1.378 . S
C682 C683 1.367 . S
C683 C682 1.367 . S
C683 C685 1.433 . S
C684 C680 1.350 . S
C684 C681 1.463 . S
C684 N688 1.427 . S
C685 H675 0.929 . S
C685 C683 1.433 . S
C685 N688 1.384 . S
C686 H677 0.929 . S
C686 C678 1.378 . S
C686 C681 1.350 . S
C687 H674 0.929 . S
C687 C679 1.433 . S
C687 N689 1.384 . S
N688 C684 1.427 . S
N688 C685 1.384 . S
N689 C681 1.427 . S
N689 C687 1.384 . S
H690 C696 0.930 . S
H691 C700 0.930 . S
H692 C705 0.929 . S
H693 C703 0.929 . S
H694 C698 0.929 . S
H695 C704 0.929 . S
C696 H690 0.930 . S
C696 C697 1.367 . S
C696 C704 1.378 . S
C697 C696 1.367 . S
C697 C705 1.433 . S
C698 H694 0.929 . S
C698 C700 1.378 . S
C698 C702 1.350 . S
C699 C702 1.463 . S
C699 C704 1.350 . S
C699 N707 1.427 . S
C700 H691 0.930 . S
C700 C698 1.378 . S
C700 C701 1.367 . S
C701 C700 1.367 . S
C701 C703 1.433 . S
C702 C698 1.350 . S
C702 C699 1.463 . S
C702 N706 1.427 . S
C703 H693 0.929 . S
C703 C701 1.433 . S
C703 N706 1.384 . S
C704 H695 0.929 . S
C704 C696 1.378 . S
C704 C699 1.350 . S
C705 H692 0.929 . S
C705 C697 1.433 . S
C705 N707 1.384 . S
N706 C702 1.427 . S
N706 C703 1.384 . S
N707 C699 1.427 . S
N707 C705 1.384 . S
H708 C714 0.930 . S
H709 C718 0.930 . S
H710 C723 0.929 . S
H711 C721 0.929 . S
H712 C716 0.929 . S
H713 C722 0.929 . S
C714 H708 0.930 . S
C714 C715 1.367 . S
C714 C722 1.378 . S
C715 C714 1.367 . S
C715 C723 1.433 . S
C716 H712 0.929 . S
C716 C718 1.378 . S
C716 C720 1.350 . S
C717 C720 1.463 . S
C717 C722 1.350 . S
C717 N725 1.427 . S
C718 H709 0.930 . S
C718 C716 1.378 . S
C718 C719 1.367 . S
C719 C718 1.367 . S
C719 C721 1.433 . S
C720 C716 1.350 . S
C720 C717 1.463 . S
C720 N724 1.427 . S
C721 H711 0.929 . S
C721 C719 1.433 . S
C721 N724 1.384 . S
C722 H713 0.929 . S
C722 C714 1.378 . S
C722 C717 1.350 . S
C723 H710 0.929 . S
C723 C715 1.433 . S
C723 N725 1.384 . S
N724 C720 1.427 . S
N724 C721 1.384 . S
N725 C717 1.427 . S
N725 C723 1.384 . S
H726 C732 0.930 . S
H727 C736 0.930 . S
H728 C741 0.929 . S
H729 C739 0.929 . S
H730 C734 0.929 . S
H731 C740 0.929 . S
C732 H726 0.930 . S
C732 C733 1.367 . S
C732 C740 1.378 . S
C733 C732 1.367 . S
C733 C741 1.433 . S
C734 H730 0.929 . S
C734 C736 1.378 . S
C734 C738 1.350 . S
C735 C738 1.463 . S
C735 C740 1.350 . S
C735 N743 1.427 . S
C736 H727 0.930 . S
C736 C734 1.378 . S
C736 C737 1.367 . S
C737 C736 1.367 . S
C737 C739 1.433 . S
C738 C734 1.350 . S
C738 C735 1.463 . S
C738 N742 1.427 . S
C739 H729 0.929 . S
C739 C737 1.433 . S
C739 N742 1.384 . S
C740 H731 0.929 . S
C740 C732 1.378 . S
C740 C735 1.350 . S
C741 H728 0.929 . S
C741 C733 1.433 . S
C741 N743 1.384 . S
N742 C738 1.427 . S
N742 C739 1.384 . S
N743 C735 1.427 . S
N743 C741 1.384 . S
H744 C750 0.930 . S
H745 C754 0.930 . S
H746 C759 0.929 . S
H747 C757 0.929 . S
H748 C752 0.929 . S
H749 C758 0.929 . S
C750 H744 0.930 . S
C750 C751 1.367 . S
C750 C758 1.378 . S
C751 C750 1.367 . S
C751 C759 1.433 . S
C752 H748 0.929 . S
C752 C754 1.378 . S
C752 C756 1.350 . S
C753 C756 1.463 . S
C753 C758 1.350 . S
C753 N761 1.427 . S
C754 H745 0.930 . S
C754 C752 1.378 . S
C754 C755 1.367 . S
C755 C754 1.367 . S
C755 C757 1.433 . S
C756 C752 1.350 . S
C756 C753 1.463 . S
C756 N760 1.427 . S
C757 H747 0.929 . S
C757 C755 1.433 . S
C757 N760 1.384 . S
C758 H749 0.929 . S
C758 C750 1.378 . S
C758 C753 1.350 . S
C759 H746 0.929 . S
C759 C751 1.433 . S
C759 N761 1.384 . S
N760 C756 1.427 . S
N760 C757 1.384 . S
N761 C753 1.427 . S
N761 C759 1.384 . S
H762 C768 0.930 . S
H763 C772 0.930 . S
H764 C777 0.929 . S
H765 C775 0.929 . S
H766 C770 0.929 . S
H767 C776 0.929 . S
C768 H762 0.930 . S
C768 C769 1.367 . S
C768 C776 1.378 . S
C769 C768 1.367 . S
C769 C777 1.433 . S
C770 H766 0.929 . S
C770 C772 1.378 . S
C770 C774 1.350 . S
C771 C774 1.463 . S
C771 C776 1.350 . S
C771 N779 1.427 . S
C772 H763 0.930 . S
C772 C770 1.378 . S
C772 C773 1.367 . S
C773 C772 1.367 . S
C773 C775 1.433 . S
C774 C770 1.350 . S
C774 C771 1.463 . S
C774 N778 1.427 . S
C775 H765 0.929 . S
C775 C773 1.433 . S
C775 N778 1.384 . S
C776 H767 0.929 . S
C776 C768 1.378 . S
C776 C771 1.350 . S
C777 H764 0.929 . S
C777 C769 1.433 . S
C777 N779 1.384 . S
N778 C774 1.427 . S
N778 C775 1.384 . S
N779 C771 1.427 . S
N779 C777 1.384 . S
H780 C786 0.930 . S
H781 C790 0.930 . S
H782 C795 0.929 . S
H783 C793 0.929 . S
H784 C788 0.929 . S
H785 C794 0.929 . S
C786 H780 0.930 . S
C786 C787 1.367 . S
C786 C794 1.378 . S
C787 C786 1.367 . S
C787 C795 1.433 . S
C788 H784 0.929 . S
C788 C790 1.378 . S
C788 C792 1.350 . S
C789 C792 1.463 . S
C789 C794 1.350 . S
C789 N797 1.427 . S
C790 H781 0.930 . S
C790 C788 1.378 . S
C790 C791 1.367 . S
C791 C790 1.367 . S
C791 C793 1.433 . S
C792 C788 1.350 . S
C792 C789 1.463 . S
C792 N796 1.427 . S
C793 H783 0.929 . S
C793 C791 1.433 . S
C793 N796 1.384 . S
C794 H785 0.929 . S
C794 C786 1.378 . S
C794 C789 1.350 . S
C795 H782 0.929 . S
C795 C787 1.433 . S
C795 N797 1.384 . S
N796 C792 1.427 . S
N796 C793 1.384 . S
N797 C789 1.427 . S
N797 C795 1.384 . S
H798 C804 0.930 . S
H799 C808 0.930 . S
H800 C813 0.929 . S
H801 C811 0.929 . S
H802 C806 0.929 . S
H803 C812 0.929 . S
C804 H798 0.930 . S
C804 C805 1.367 . S
C804 C812 1.378 . S
C805 C804 1.367 . S
C805 C813 1.433 . S
C806 H802 0.929 . S
C806 C808 1.378 . S
C806 C810 1.350 . S
C807 C810 1.463 . S
C807 C812 1.350 . S
C807 N815 1.427 . S
C808 H799 0.930 . S
C808 C806 1.378 . S
C808 C809 1.367 . S
C809 C808 1.367 . S
C809 C811 1.433 . S
C810 C806 1.350 . S
C810 C807 1.463 . S
C810 N814 1.427 . S
C811 H801 0.929 . S
C811 C809 1.433 . S
C811 N814 1.384 . S
C812 H803 0.929 . S
C812 C804 1.378 . S
C812 C807 1.350 . S
C813 H800 0.929 . S
C813 C805 1.433 . S
C813 N815 1.384 . S
N814 C810 1.427 . S
N814 C811 1.384 . S
N815 C807 1.427 . S
N815 C813 1.384 . S
H816 C822 0.930 . S
H817 C826 0.930 . S
H818 C831 0.929 . S
H819 C829 0.929 . S
H820 C824 0.929 . S
H821 C830 0.929 . S
C822 H816 0.930 . S
C822 C823 1.367 . S
C822 C830 1.378 . S
C823 C822 1.367 . S
C823 C831 1.433 . S
C824 H820 0.929 . S
C824 C826 1.378 . S
C824 C828 1.350 . S
C825 C828 1.463 . S
C825 C830 1.350 . S
C825 N833 1.427 . S
C826 H817 0.930 . S
C826 C824 1.378 . S
C826 C827 1.367 . S
C827 C826 1.367 . S
C827 C829 1.433 . S
C828 C824 1.350 . S
C828 C825 1.463 . S
C828 N832 1.427 . S
C829 H819 0.929 . S
C829 C827 1.433 . S
C829 N832 1.384 . S
C830 H821 0.929 . S
C830 C822 1.378 . S
C830 C825 1.350 . S
C831 H818 0.929 . S
C831 C823 1.433 . S
C831 N833 1.384 . S
N832 C828 1.427 . S
N832 C829 1.384 . S
N833 C825 1.427 . S
N833 C831 1.384 . S
H834 C840 0.930 . S
H835 C844 0.930 . S
H836 C849 0.929 . S
H837 C847 0.929 . S
H838 C842 0.929 . S
H839 C848 0.929 . S
C840 H834 0.930 . S
C840 C841 1.367 . S
C840 C848 1.378 . S
C841 C840 1.367 . S
C841 C849 1.433 . S
C842 H838 0.929 . S
C842 C844 1.378 . S
C842 C846 1.350 . S
C843 C846 1.463 . S
C843 C848 1.350 . S
C843 N851 1.427 . S
C844 H835 0.930 . S
C844 C842 1.378 . S
C844 C845 1.367 . S
C845 C844 1.367 . S
C845 C847 1.433 . S
C846 C842 1.350 . S
C846 C843 1.463 . S
C846 N850 1.427 . S
C847 H837 0.929 . S
C847 C845 1.433 . S
C847 N850 1.384 . S
C848 H839 0.929 . S
C848 C840 1.378 . S
C848 C843 1.350 . S
C849 H836 0.929 . S
C849 C841 1.433 . S
C849 N851 1.384 . S
N850 C846 1.427 . S
N850 C847 1.384 . S
N851 C843 1.427 . S
N851 C849 1.384 . S
H852 C858 0.930 . S
H853 C862 0.930 . S
H854 C867 0.929 . S
H855 C865 0.929 . S
H856 C860 0.929 . S
H857 C866 0.929 . S
C858 H852 0.930 . S
C858 C859 1.367 . S
C858 C866 1.378 . S
C859 C858 1.367 . S
C859 C867 1.433 . S
C860 H856 0.929 . S
C860 C862 1.378 . S
C860 C864 1.350 . S
C861 C864 1.463 . S
C861 C866 1.350 . S
C861 N869 1.427 . S
C862 H853 0.930 . S
C862 C860 1.378 . S
C862 C863 1.367 . S
C863 C862 1.367 . S
C863 C865 1.433 . S
C864 C860 1.350 . S
C864 C861 1.463 . S
C864 N868 1.427 . S
C865 H855 0.929 . S
C865 C863 1.433 . S
C865 N868 1.384 . S
C866 H857 0.929 . S
C866 C858 1.378 . S
C866 C861 1.350 . S
C867 H854 0.929 . S
C867 C859 1.433 . S
C867 N869 1.384 . S
N868 C864 1.427 . S
N868 C865 1.384 . S
N869 C861 1.427 . S
N869 C867 1.384 . S
H870 C876 0.930 . S
H871 C880 0.930 . S
H872 C885 0.929 . S
H873 C883 0.929 . S
H874 C878 0.929 . S
H875 C884 0.929 . S
C876 H870 0.930 . S
C876 C877 1.367 . S
C876 C884 1.378 . S
C877 C876 1.367 . S
C877 C885 1.433 . S
C878 H874 0.929 . S
C878 C880 1.378 . S
C878 C882 1.350 . S
C879 C882 1.463 . S
C879 C884 1.350 . S
C879 N887 1.427 . S
C880 H871 0.930 . S
C880 C878 1.378 . S
C880 C881 1.367 . S
C881 C880 1.367 . S
C881 C883 1.433 . S
C882 C878 1.350 . S
C882 C879 1.463 . S
C882 N886 1.427 . S
C883 H873 0.929 . S
C883 C881 1.433 . S
C883 N886 1.384 . S
C884 H875 0.929 . S
C884 C876 1.378 . S
C884 C879 1.350 . S
C885 H872 0.929 . S
C885 C877 1.433 . S
C885 N887 1.384 . S
N886 C882 1.427 . S
N886 C883 1.384 . S
N887 C879 1.427 . S
N887 C885 1.384 . S
H888 C894 0.930 . S
H889 C898 0.930 . S
H890 C903 0.929 . S
H891 C901 0.929 . S
H892 C896 0.929 . S
H893 C902 0.929 . S
C894 H888 0.930 . S
C894 C895 1.367 . S
C894 C902 1.378 . S
C895 C894 1.367 . S
C895 C903 1.433 . S
C896 H892 0.929 . S
C896 C898 1.378 . S
C896 C900 1.350 . S
C897 C900 1.463 . S
C897 C902 1.350 . S
C897 N905 1.427 . S
C898 H889 0.930 . S
C898 C896 1.378 . S
C898 C899 1.367 . S
C899 C898 1.367 . S
C899 C901 1.433 . S
C900 C896 1.350 . S
C900 C897 1.463 . S
C900 N904 1.427 . S
C901 H891 0.929 . S
C901 C899 1.433 . S
C901 N904 1.384 . S
C902 H893 0.929 . S
C902 C894 1.378 . S
C902 C897 1.350 . S
C903 H890 0.929 . S
C903 C895 1.433 . S
C903 N905 1.384 . S
N904 C900 1.427 . S
N904 C901 1.384 . S
N905 C897 1.427 . S
N905 C903 1.384 . S
H906 C912 0.930 . S
H907 C916 0.930 . S
H908 C921 0.929 . S
H909 C919 0.929 . S
H910 C914 0.929 . S
H911 C920 0.929 . S
C912 H906 0.930 . S
C912 C913 1.367 . S
C912 C920 1.378 . S
C913 C912 1.367 . S
C913 C921 1.433 . S
C914 H910 0.929 . S
C914 C916 1.378 . S
C914 C918 1.350 . S
C915 C918 1.463 . S
C915 C920 1.350 . S
C915 N923 1.427 . S
C916 H907 0.930 . S
C916 C914 1.378 . S
C916 C917 1.367 . S
C917 C916 1.367 . S
C917 C919 1.433 . S
C918 C914 1.350 . S
C918 C915 1.463 . S
C918 N922 1.427 . S
C919 H909 0.929 . S
C919 C917 1.433 . S
C919 N922 1.384 . S
C920 H911 0.929 . S
C920 C912 1.378 . S
C920 C915 1.350 . S
C921 H908 0.929 . S
C921 C913 1.433 . S
C921 N923 1.384 . S
N922 C918 1.427 . S
N922 C919 1.384 . S
N923 C915 1.427 . S
N923 C921 1.384 . S
H924 C930 0.930 . S
H925 C934 0.930 . S
H926 C939 0.929 . S
H927 C937 0.929 . S
H928 C932 0.929 . S
H929 C938 0.929 . S
C930 H924 0.930 . S
C930 C931 1.367 . S
C930 C938 1.378 . S
C931 C930 1.367 . S
C931 C939 1.433 . S
C932 H928 0.929 . S
C932 C934 1.378 . S
C932 C936 1.350 . S
C933 C936 1.463 . S
C933 C938 1.350 . S
C933 N941 1.427 . S
C934 H925 0.930 . S
C934 C932 1.378 . S
C934 C935 1.367 . S
C935 C934 1.367 . S
C935 C937 1.433 . S
C936 C932 1.350 . S
C936 C933 1.463 . S
C936 N940 1.427 . S
C937 H927 0.929 . S
C937 C935 1.433 . S
C937 N940 1.384 . S
C938 H929 0.929 . S
C938 C930 1.378 . S
C938 C933 1.350 . S
C939 H926 0.929 . S
C939 C931 1.433 . S
C939 N941 1.384 . S
N940 C936 1.427 . S
N940 C937 1.384 . S
N941 C933 1.427 . S
N941 C939 1.384 . S
H942 C948 0.930 . S
H943 C952 0.930 . S
H944 C957 0.929 . S
H945 C955 0.929 . S
H946 C950 0.929 . S
H947 C956 0.929 . S
C948 H942 0.930 . S
C948 C949 1.367 . S
C948 C956 1.378 . S
C949 C948 1.367 . S
C949 C957 1.433 . S
C950 H946 0.929 . S
C950 C952 1.378 . S
C950 C954 1.350 . S
C951 C954 1.463 . S
C951 C956 1.350 . S
C951 N959 1.427 . S
C952 H943 0.930 . S
C952 C950 1.378 . S
C952 C953 1.367 . S
C953 C952 1.367 . S
C953 C955 1.433 . S
C954 C950 1.350 . S
C954 C951 1.463 . S
C954 N958 1.427 . S
C955 H945 0.929 . S
C955 C953 1.433 . S
C955 N958 1.384 . S
C956 H947 0.929 . S
C956 C948 1.378 . S
C956 C951 1.350 . S
C957 H944 0.929 . S
C957 C949 1.433 . S
C957 N959 1.384 . S
N958 C954 1.427 . S
N958 C955 1.384 . S
N959 C951 1.427 . S
N959 C957 1.384 . S
H960 C966 0.930 . S
H961 C970 0.930 . S
H962 C975 0.929 . S
H963 C973 0.929 . S
H964 C968 0.929 . S
H965 C974 0.929 . S
C966 H960 0.930 . S
C966 C967 1.367 . S
C966 C974 1.378 . S
C967 C966 1.367 . S
C967 C975 1.433 . S
C968 H964 0.929 . S
C968 C970 1.378 . S
C968 C972 1.350 . S
C969 C972 1.463 . S
C969 C974 1.350 . S
C969 N977 1.427 . S
C970 H961 0.930 . S
C970 C968 1.378 . S
C970 C971 1.367 . S
C971 C970 1.367 . S
C971 C973 1.433 . S
C972 C968 1.350 . S
C972 C969 1.463 . S
C972 N976 1.427 . S
C973 H963 0.929 . S
C973 C971 1.433 . S
C973 N976 1.384 . S
C974 H965 0.929 . S
C974 C966 1.378 . S
C974 C969 1.350 . S
C975 H962 0.929 . S
C975 C967 1.433 . S
C975 N977 1.384 . S
N976 C972 1.427 . S
N976 C973 1.384 . S
N977 C969 1.427 . S
N977 C975 1.384 . S
H978 C984 0.930 . S
H979 C988 0.930 . S
H980 C993 0.929 . S
H981 C991 0.929 . S
H982 C986 0.929 . S
H983 C992 0.929 . S
C984 H978 0.930 . S
C984 C985 1.367 . S
C984 C992 1.378 . S
C985 C984 1.367 . S
C985 C993 1.433 . S
C986 H982 0.929 . S
C986 C988 1.378 . S
C986 C990 1.350 . S
C987 C990 1.463 . S
C987 C992 1.350 . S
C987 N995 1.427 . S
C988 H979 0.930 . S
C988 C986 1.378 . S
C988 C989 1.367 . S
C989 C988 1.367 . S
C989 C991 1.433 . S
C990 C986 1.350 . S
C990 C987 1.463 . S
C990 N994 1.427 . S
C991 H981 0.929 . S
C991 C989 1.433 . S
C991 N994 1.384 . S
C992 H983 0.929 . S
C992 C984 1.378 . S
C992 C987 1.350 . S
C993 H980 0.929 . S
C993 C985 1.433 . S
C993 N995 1.384 . S
N994 C990 1.427 . S
N994 C991 1.384 . S
N995 C987 1.427 . S
N995 C993 1.384 . S
H996 C1002 0.930 . S
H997 C1006 0.930 . S
H998 C1011 0.929 . S
H999 C1009 0.929 . S
H1000 C1004 0.929 . S
H1001 C1010 0.929 . S
C1002 H996 0.930 . S
C1002 C1003 1.367 . S
C1002 C1010 1.378 . S
C1003 C1002 1.367 . S
C1003 C1011 1.433 . S
C1004 H1000 0.929 . S
C1004 C1006 1.378 . S
C1004 C1008 1.350 . S
C1005 C1008 1.463 . S
C1005 C1010 1.350 . S
C1005 N1013 1.427 . S
C1006 H997 0.930 . S
C1006 C1004 1.378 . S
C1006 C1007 1.367 . S
C1007 C1006 1.367 . S
C1007 C1009 1.433 . S
C1008 C1004 1.350 . S
C1008 C1005 1.463 . S
C1008 N1012 1.427 . S
C1009 H999 0.929 . S
C1009 C1007 1.433 . S
C1009 N1012 1.384 . S
C1010 H1001 0.929 . S
C1010 C1002 1.378 . S
C1010 C1005 1.350 . S
C1011 H998 0.929 . S
C1011 C1003 1.433 . S
C1011 N1013 1.384 . S
N1012 C1008 1.427 . S
N1012 C1009 1.384 . S
N1013 C1005 1.427 . S
N1013 C1011 1.384 . S
H1014 C1020 0.930 . S
H1015 C1024 0.930 . S
H1016 C1029 0.929 . S
H1017 C1027 0.929 . S
H1018 C1022 0.929 . S
H1019 C1028 0.929 . S
C1020 H1014 0.930 . S
C1020 C1021 1.367 . S
C1020 C1028 1.378 . S
C1021 C1020 1.367 . S
C1021 C1029 1.433 . S
C1022 H1018 0.929 . S
C1022 C1024 1.378 . S
C1022 C1026 1.350 . S
C1023 C1026 1.463 . S
C1023 C1028 1.350 . S
C1023 N1031 1.427 . S
C1024 H1015 0.930 . S
C1024 C1022 1.378 . S
C1024 C1025 1.367 . S
C1025 C1024 1.367 . S
C1025 C1027 1.433 . S
C1026 C1022 1.350 . S
C1026 C1023 1.463 . S
C1026 N1030 1.427 . S
C1027 H1017 0.929 . S
C1027 C1025 1.433 . S
C1027 N1030 1.384 . S
C1028 H1019 0.929 . S
C1028 C1020 1.378 . S
C1028 C1023 1.350 . S
C1029 H1016 0.929 . S
C1029 C1021 1.433 . S
C1029 N1031 1.384 . S
N1030 C1026 1.427 . S
N1030 C1027 1.384 . S
N1031 C1023 1.427 . S
N1031 C1029 1.384 . S
H1032 C1038 0.930 . S
H1033 C1042 0.930 . S
H1034 C1047 0.929 . S
H1035 C1045 0.929 . S
H1036 C1040 0.929 . S
H1037 C1046 0.929 . S
C1038 H1032 0.930 . S
C1038 C1039 1.367 . S
C1038 C1046 1.378 . S
C1039 C1038 1.367 . S
C1039 C1047 1.433 . S
C1040 H1036 0.929 . S
C1040 C1042 1.378 . S
C1040 C1044 1.350 . S
C1041 C1044 1.463 . S
C1041 C1046 1.350 . S
C1041 N1049 1.427 . S
C1042 H1033 0.930 . S
C1042 C1040 1.378 . S
C1042 C1043 1.367 . S
C1043 C1042 1.367 . S
C1043 C1045 1.433 . S
C1044 C1040 1.350 . S
C1044 C1041 1.463 . S
C1044 N1048 1.427 . S
C1045 H1035 0.929 . S
C1045 C1043 1.433 . S
C1045 N1048 1.384 . S
C1046 H1037 0.929 . S
C1046 C1038 1.378 . S
C1046 C1041 1.350 . S
C1047 H1034 0.929 . S
C1047 C1039 1.433 . S
C1047 N1049 1.384 . S
N1048 C1044 1.427 . S
N1048 C1045 1.384 . S
N1049 C1041 1.427 . S
N1049 C1047 1.384 . S
H1050 C1056 0.930 . S
H1051 C1060 0.930 . S
H1052 C1065 0.929 . S
H1053 C1063 0.929 . S
H1054 C1058 0.929 . S
H1055 C1064 0.929 . S
C1056 H1050 0.930 . S
C1056 C1057 1.367 . S
C1056 C1064 1.378 . S
C1057 C1056 1.367 . S
C1057 C1065 1.433 . S
C1058 H1054 0.929 . S
C1058 C1060 1.378 . S
C1058 C1062 1.350 . S
C1059 C1062 1.463 . S
C1059 C1064 1.350 . S
C1059 N1067 1.427 . S
C1060 H1051 0.930 . S
C1060 C1058 1.378 . S
C1060 C1061 1.367 . S
C1061 C1060 1.367 . S
C1061 C1063 1.433 . S
C1062 C1058 1.350 . S
C1062 C1059 1.463 . S
C1062 N1066 1.427 . S
C1063 H1053 0.929 . S
C1063 C1061 1.433 . S
C1063 N1066 1.384 . S
C1064 H1055 0.929 . S
C1064 C1056 1.378 . S
C1064 C1059 1.350 . S
C1065 H1052 0.929 . S
C1065 C1057 1.433 . S
C1065 N1067 1.384 . S
N1066 C1062 1.427 . S
N1066 C1063 1.384 . S
N1067 C1059 1.427 . S
N1067 C1065 1.384 . S
H1068 C1074 0.930 . S
H1069 C1078 0.930 . S
H1070 C1083 0.929 . S
H1071 C1081 0.929 . S
H1072 C1076 0.929 . S
H1073 C1082 0.929 . S
C1074 H1068 0.930 . S
C1074 C1075 1.367 . S
C1074 C1082 1.378 . S
C1075 C1074 1.367 . S
C1075 C1083 1.433 . S
C1076 H1072 0.929 . S
C1076 C1078 1.378 . S
C1076 C1080 1.350 . S
C1077 C1080 1.463 . S
C1077 C1082 1.350 . S
C1077 N1085 1.427 . S
C1078 H1069 0.930 . S
C1078 C1076 1.378 . S
C1078 C1079 1.367 . S
C1079 C1078 1.367 . S
C1079 C1081 1.433 . S
C1080 C1076 1.350 . S
C1080 C1077 1.463 . S
C1080 N1084 1.427 . S
C1081 H1071 0.929 . S
C1081 C1079 1.433 . S
C1081 N1084 1.384 . S
C1082 H1073 0.929 . S
C1082 C1074 1.378 . S
C1082 C1077 1.350 . S
C1083 H1070 0.929 . S
C1083 C1075 1.433 . S
C1083 N1085 1.384 . S
N1084 C1080 1.427 . S
N1084 C1081 1.384 . S
N1085 C1077 1.427 . S
N1085 C1083 1.384 . S
H1086 C1092 0.930 . S
H1087 C1096 0.930 . S
H1088 C1101 0.929 . S
H1089 C1099 0.929 . S
H1090 C1094 0.929 . S
H1091 C1100 0.929 . S
C1092 H1086 0.930 . S
C1092 C1093 1.367 . S
C1092 C1100 1.378 . S
C1093 C1092 1.367 . S
C1093 C1101 1.433 . S
C1094 H1090 0.929 . S
C1094 C1096 1.378 . S
C1094 C1098 1.350 . S
C1095 C1098 1.463 . S
C1095 C1100 1.350 . S
C1095 N1103 1.427 . S
C1096 H1087 0.930 . S
C1096 C1094 1.378 . S
C1096 C1097 1.367 . S
C1097 C1096 1.367 . S
C1097 C1099 1.433 . S
C1098 C1094 1.350 . S
C1098 C1095 1.463 . S
C1098 N1102 1.427 . S
C1099 H1089 0.929 . S
C1099 C1097 1.433 . S
C1099 N1102 1.384 . S
C1100 H1091 0.929 . S
C1100 C1092 1.378 . S
C1100 C1095 1.350 . S
C1101 H1088 0.929 . S
C1101 C1093 1.433 . S
C1101 N1103 1.384 . S
N1102 C1098 1.427 . S
N1102 C1099 1.384 . S
N1103 C1095 1.427 . S
N1103 C1101 1.384 . S
H1104 C1110 0.930 . S
H1105 C1114 0.930 . S
H1106 C1119 0.929 . S
H1107 C1117 0.929 . S
H1108 C1112 0.920 1_655 S
H1109 C1118 0.920 1_455 S
C1110 H1104 0.930 . S
C1110 C1111 1.367 . S
C1110 C1118 1.378 . S
C1111 C1110 1.367 . S
C1111 C1119 1.433 . S
C1112 H1108 0.920 1_455 S
C1112 C1114 1.378 . S
C1112 C1116 1.350 . S
C1113 C1116 1.463 1_655 S
C1113 C1118 1.350 . S
C1113 N1121 1.427 . S
C1114 H1105 0.930 . S
C1114 C1112 1.378 . S
C1114 C1115 1.367 . S
C1115 C1114 1.367 . S
C1115 C1117 1.433 . S
C1116 C1112 1.350 . S
C1116 C1113 1.463 1_455 S
C1116 N1120 1.427 . S
C1117 H1107 0.929 . S
C1117 C1115 1.433 . S
C1117 N1120 1.384 . S
C1118 H1109 0.920 1_655 S
C1118 C1110 1.378 . S
C1118 C1113 1.350 . S
C1119 H1106 0.929 . S
C1119 C1111 1.433 . S
C1119 N1121 1.384 . S
N1120 C1116 1.427 . S
N1120 C1117 1.384 . S
N1121 C1113 1.427 . S
N1121 C1119 1.384 . S
H1122 C1128 0.930 . S
H1123 C1132 0.930 . S
H1124 C1137 0.929 . S
H1125 C1135 0.929 . S
H1126 C1130 0.929 1_565 S
H1127 C1136 0.929 1_545 S
C1128 H1122 0.930 . S
C1128 C1129 1.367 . S
C1128 C1136 1.378 . S
C1129 C1128 1.367 . S
C1129 C1137 1.433 . S
C1130 H1126 0.929 1_545 S
C1130 C1132 1.378 . S
C1130 C1134 1.350 . S
C1131 C1134 1.463 1_565 S
C1131 C1136 1.350 . S
C1131 N1139 1.427 . S
C1132 H1123 0.930 . S
C1132 C1130 1.378 . S
C1132 C1133 1.367 . S
C1133 C1132 1.367 . S
C1133 C1135 1.433 . S
C1134 C1130 1.350 . S
C1134 C1131 1.463 1_545 S
C1134 N1138 1.427 . S
C1135 H1125 0.929 . S
C1135 C1133 1.433 . S
C1135 N1138 1.384 . S
C1136 H1127 0.929 1_565 S
C1136 C1128 1.378 . S
C1136 C1131 1.350 . S
C1137 H1124 0.929 . S
C1137 C1129 1.433 . S
C1137 N1139 1.384 . S
N1138 C1134 1.427 . S
N1138 C1135 1.384 . S
N1139 C1131 1.427 . S
N1139 C1137 1.384 . S
H1140 C1146 0.930 . S
H1141 C1150 0.930 . S
H1142 C1155 0.929 . S
H1143 C1153 0.929 . S
H1144 C1148 0.929 . S
H1145 C1154 0.929 . S
C1146 H1140 0.930 . S
C1146 C1147 1.367 . S
C1146 C1154 1.378 . S
C1147 C1146 1.367 . S
C1147 C1155 1.433 . S
C1148 H1144 0.929 . S
C1148 C1150 1.378 . S
C1148 C1152 1.350 . S
C1149 C1152 1.463 1_545 S
C1149 C1154 1.350 . S
C1149 N1157 1.427 . S
C1150 H1141 0.930 . S
C1150 C1148 1.378 . S
C1150 C1151 1.367 . S
C1151 C1150 1.367 . S
C1151 C1153 1.433 . S
C1152 C1148 1.350 . S
C1152 C1149 1.463 1_565 S
C1152 N1156 1.427 . S
C1153 H1143 0.929 . S
C1153 C1151 1.433 . S
C1153 N1156 1.384 . S
C1154 H1145 0.929 . S
C1154 C1146 1.378 . S
C1154 C1149 1.350 . S
C1155 H1142 0.929 . S
C1155 C1147 1.433 . S
C1155 N1157 1.384 . S
N1156 C1152 1.427 . S
N1156 C1153 1.384 . S
N1157 C1149 1.427 . S
N1157 C1155 1.384 . S
H1158 C1164 0.930 . S
H1159 C1168 0.930 . S
H1160 C1173 0.929 . S
H1161 C1171 0.929 . S
H1162 C1166 0.929 . S
H1163 C1172 0.929 . S
C1164 H1158 0.930 . S
C1164 C1165 1.367 . S
C1164 C1172 1.378 . S
C1165 C1164 1.367 . S
C1165 C1173 1.433 . S
C1166 H1162 0.929 . S
C1166 C1168 1.378 . S
C1166 C1170 1.350 . S
C1167 C1170 1.463 1_655 S
C1167 C1172 1.350 . S
C1167 N1175 1.427 . S
C1168 H1159 0.930 . S
C1168 C1166 1.378 . S
C1168 C1169 1.367 . S
C1169 C1168 1.367 . S
C1169 C1171 1.433 . S
C1170 C1166 1.350 . S
C1170 C1167 1.463 1_455 S
C1170 N1174 1.427 . S
C1171 H1161 0.929 . S
C1171 C1169 1.433 . S
C1171 N1174 1.384 . S
C1172 H1163 0.929 . S
C1172 C1164 1.378 . S
C1172 C1167 1.350 . S
C1173 H1160 0.929 . S
C1173 C1165 1.433 . S
C1173 N1175 1.384 . S
N1174 C1170 1.427 . S
N1174 C1171 1.384 . S
N1175 C1167 1.427 . S
N1175 C1173 1.384 . S
H1176 C1182 0.930 . S
H1177 C1186 0.930 . S
H1178 C1191 0.929 . S
H1179 C1189 0.929 . S
H1180 C1184 0.929 1_655 S
H1181 C1190 0.929 1_455 S
C1182 H1176 0.930 . S
C1182 C1183 1.367 . S
C1182 C1190 1.378 . S
C1183 C1182 1.367 . S
C1183 C1191 1.433 . S
C1184 H1180 0.929 1_455 S
C1184 C1186 1.378 . S
C1184 C1188 1.350 . S
C1185 C1188 1.463 1_655 S
C1185 C1190 1.350 . S
C1185 N1193 1.427 . S
C1186 H1177 0.930 . S
C1186 C1184 1.378 . S
C1186 C1187 1.367 . S
C1187 C1186 1.367 . S
C1187 C1189 1.433 . S
C1188 C1184 1.350 . S
C1188 C1185 1.463 1_455 S
C1188 N1192 1.427 . S
C1189 H1179 0.929 . S
C1189 C1187 1.433 . S
C1189 N1192 1.384 . S
C1190 H1181 0.929 1_655 S
C1190 C1182 1.378 . S
C1190 C1185 1.350 . S
C1191 H1178 0.929 . S
C1191 C1183 1.433 . S
C1191 N1193 1.384 . S
N1192 C1188 1.427 . S
N1192 C1189 1.384 . S
N1193 C1185 1.427 . S
N1193 C1191 1.384 . S
H1194 C1200 0.930 . S
H1195 C1204 0.930 . S
H1196 C1209 0.918 1_565 S
H1197 C1207 0.918 1_545 S
H1198 C1202 0.929 . S
H1199 C1208 0.929 . S
C1200 H1194 0.930 . S
C1200 C1201 1.367 . S
C1200 C1208 1.378 . S
C1201 C1200 1.367 . S
C1201 C1209 1.453 . S
C1202 H1198 0.929 . S
C1202 C1204 1.378 . S
C1202 C1206 1.350 . S
C1203 C1206 1.463 1_545 S
C1203 C1208 1.350 . S
C1203 N1211 1.427 1_545 S
C1204 H1195 0.930 . S
C1204 C1202 1.378 . S
C1204 C1205 1.367 . S
C1205 C1204 1.367 . S
C1205 C1207 1.453 . S
C1206 C1202 1.350 . S
C1206 C1203 1.463 1_565 S
C1206 N1210 1.427 1_565 S
C1207 H1197 0.918 1_565 S
C1207 C1205 1.453 . S
C1207 N1210 1.376 1_565 S
C1208 H1199 0.929 . S
C1208 C1200 1.378 . S
C1208 C1203 1.350 . S
C1209 H1196 0.918 1_545 S
C1209 C1201 1.453 . S
C1209 N1211 1.376 1_545 S
N1210 C1206 1.427 1_545 S
N1210 C1207 1.376 1_545 S
N1211 C1203 1.427 1_565 S
N1211 C1209 1.376 1_565 S
H1212 C1218 0.930 . S
H1213 C1222 0.930 . S
H1214 C1227 0.929 . S
H1215 C1225 0.929 . S
H1216 C1220 0.929 . S
H1217 C1226 0.929 . S
C1218 H1212 0.930 . S
C1218 C1219 1.367 . S
C1218 C1226 1.378 . S
C1219 C1218 1.367 . S
C1219 C1227 1.433 . S
C1220 H1216 0.929 . S
C1220 C1222 1.378 . S
C1220 C1224 1.350 . S
C1221 C1224 1.463 1_565 S
C1221 C1226 1.350 . S
C1221 N1229 1.427 . S
C1222 H1213 0.930 . S
C1222 C1220 1.378 . S
C1222 C1223 1.367 . S
C1223 C1222 1.367 . S
C1223 C1225 1.433 . S
C1224 C1220 1.350 . S
C1224 C1221 1.463 1_545 S
C1224 N1228 1.427 . S
C1225 H1215 0.929 . S
C1225 C1223 1.433 . S
C1225 N1228 1.384 . S
C1226 H1217 0.929 . S
C1226 C1218 1.378 . S
C1226 C1221 1.350 . S
C1227 H1214 0.929 . S
C1227 C1219 1.433 . S
C1227 N1229 1.384 . S
N1228 C1224 1.427 . S
N1228 C1225 1.384 . S
N1229 C1221 1.427 . S
N1229 C1227 1.384 . S
H1230 C1236 0.930 . S
H1231 C1240 0.930 . S
H1232 C1245 0.929 . S
H1233 C1243 0.929 . S
H1234 C1238 0.929 . S
H1235 C1244 0.929 . S
C1236 H1230 0.930 . S
C1236 C1237 1.367 . S
C1236 C1244 1.378 . S
C1237 C1236 1.367 . S
C1237 C1245 1.433 . S
C1238 H1234 0.929 . S
C1238 C1240 1.378 . S
C1238 C1242 1.350 . S
C1239 C1242 1.463 1_655 S
C1239 C1244 1.350 . S
C1239 N1247 1.427 . S
C1240 H1231 0.930 . S
C1240 C1238 1.378 . S
C1240 C1241 1.367 . S
C1241 C1240 1.367 . S
C1241 C1243 1.433 . S
C1242 C1238 1.350 . S
C1242 C1239 1.463 1_455 S
C1242 N1246 1.427 . S
C1243 H1233 0.929 . S
C1243 C1241 1.433 . S
C1243 N1246 1.384 . S
C1244 H1235 0.929 . S
C1244 C1236 1.378 . S
C1244 C1239 1.350 . S
C1245 H1232 0.929 . S
C1245 C1237 1.433 . S
C1245 N1247 1.384 . S
N1246 C1242 1.427 . S
N1246 C1243 1.384 . S
N1247 C1239 1.427 . S
N1247 C1245 1.384 . S
C535 C337 1.312 . S
C539 C7 1.312 . S
C553 C370 1.306 . S
C557 C40 1.318 . S
C571 C271 1.313 . S
C575 C73 1.312 . S
C589 C304 1.318 . S
C593 C106 1.306 . S
C607 C139 1.314 . S
C611 C469 1.310 . S
C625 C172 1.314 . S
C629 C502 1.310 . S
C643 C403 1.317 . S
C647 C205 1.307 . S
C661 C436 1.306 . S
C665 C238 1.318 . S
C679 C120 1.518 . S
C683 N2 1.466 . S
C697 N35 1.454 . S
C701 C21 1.512 . S
C715 C54 1.518 . S
C719 N68 1.466 . S
C733 N101 1.466 . S
C737 C87 1.518 . S
C751 C186 1.514 . S
C755 N134 1.455 . S
C769 C219 1.511 . S
C773 N167 1.449 . S
C787 C252 1.516 . S
C791 N200 1.459 . S
C805 N233 1.457 . S
C809 C153 1.515 . S
C823 N266 1.449 . S
C827 C384 1.511 . S
C841 N299 1.449 . S
C845 C285 1.511 . S
C859 C318 1.518 . S
C863 N332 1.465 . S
C877 N365 1.452 . S
C881 C351 1.513 . S
C895 N398 1.452 . S
C899 C450 1.513 . S
C913 N431 1.449 . S
C917 C483 1.511 . S
C931 N464 1.465 . S
C935 C516 1.517 . S
C949 C417 1.511 . S
C953 N497 1.451 . S
C967 C249 1.044 . S
C971 C18 1.045 . S
C985 C51 1.054 . S
C989 C150 1.053 . S
C1003 C183 1.054 . S
C1007 C84 1.050 . S
C1021 C216 1.049 . S
C1025 C117 1.045 . S
C1039 C282 1.045 . S
C1043 C513 1.044 . S
C1057 C414 1.043 . S
C1061 C315 1.046 . S
C1075 C348 1.054 . S
C1079 C447 1.054 . S
C1093 C480 1.044 . S
C1097 C381 1.044 . S
C1111 N79 1.538 . S
C1115 N13 1.550 . S
C1129 N112 1.550 . S
C1133 N46 1.538 . S
C1147 N145 1.538 . S
C1151 N211 1.550 . S
C1165 N178 1.542 . S
C1169 N244 1.547 . S
C1183 N277 1.550 . S
C1187 N343 1.538 . S
C1201 N376 1.539 . S
C1205 N310 1.548 . S
C1219 N409 1.550 . S
C1223 N475 1.538 . S
C1237 N508 1.548 . S
C1241 N442 1.539 . S
