# Generated by pormake.
# Topology uku, (4)-cn, num edge types: 1
# Building blocks:
#     Node 0, Type 0, BuildingBlock: ESEHIV_clean_sbu_0, # of connection points: 4
#     Node 1, Type 0, BuildingBlock: ESEHIV_clean_sbu_0, # of connection points: 4
#     Node 2, Type 0, BuildingBlock: ESEHIV_clean_sbu_0, # of connection points: 4
#     Node 3, Type 0, BuildingBlock: ESEHIV_clean_sbu_0, # of connection points: 4
#     Node 4, Type 0, BuildingBlock: ESEHIV_clean_sbu_0, # of connection points: 4
#     Node 5, Type 0, BuildingBlock: ESEHIV_clean_sbu_0, # of connection points: 4
#     Node 6, Type 0, BuildingBlock: ESEHIV_clean_sbu_0, # of connection points: 4
#     Node 7, Type 0, BuildingBlock: ESEHIV_clean_sbu_0, # of connection points: 4
#     Node 8, Type 0, BuildingBlock: ESEHIV_clean_sbu_0, # of connection points: 4
#     Node 9, Type 0, BuildingBlock: ESEHIV_clean_sbu_0, # of connection points: 4
#     Node 10, Type 0, BuildingBlock: ESEHIV_clean_sbu_0, # of connection points: 4
#     Node 11, Type 0, BuildingBlock: ESEHIV_clean_sbu_0, # of connection points: 4
#     Edge 12, Type (0, 0), BuildingBlock: XIVTED_clean_linker_0, # of connection points: 2
#     Edge 13, Type (0, 0), BuildingBlock: XIVTED_clean_linker_0, # of connection points: 2
#     Edge 14, Type (0, 0), BuildingBlock: XIVTED_clean_linker_0, # of connection points: 2
#     Edge 15, Type (0, 0), BuildingBlock: XIVTED_clean_linker_0, # of connection points: 2
#     Edge 16, Type (0, 0), BuildingBlock: XIVTED_clean_linker_0, # of connection points: 2
#     Edge 17, Type (0, 0), BuildingBlock: XIVTED_clean_linker_0, # of connection points: 2
#     Edge 18, Type (0, 0), BuildingBlock: XIVTED_clean_linker_0, # of connection points: 2
#     Edge 19, Type (0, 0), BuildingBlock: XIVTED_clean_linker_0, # of connection points: 2
#     Edge 20, Type (0, 0), BuildingBlock: XIVTED_clean_linker_0, # of connection points: 2
#     Edge 21, Type (0, 0), BuildingBlock: XIVTED_clean_linker_0, # of connection points: 2
#     Edge 22, Type (0, 0), BuildingBlock: XIVTED_clean_linker_0, # of connection points: 2
#     Edge 23, Type (0, 0), BuildingBlock: XIVTED_clean_linker_0, # of connection points: 2
#     Edge 24, Type (0, 0), BuildingBlock: XIVTED_clean_linker_0, # of connection points: 2
#     Edge 25, Type (0, 0), BuildingBlock: XIVTED_clean_linker_0, # of connection points: 2
#     Edge 26, Type (0, 0), BuildingBlock: XIVTED_clean_linker_0, # of connection points: 2
#     Edge 27, Type (0, 0), BuildingBlock: XIVTED_clean_linker_0, # of connection points: 2
#     Edge 28, Type (0, 0), BuildingBlock: XIVTED_clean_linker_0, # of connection points: 2
#     Edge 29, Type (0, 0), BuildingBlock: XIVTED_clean_linker_0, # of connection points: 2
#     Edge 30, Type (0, 0), BuildingBlock: XIVTED_clean_linker_0, # of connection points: 2
#     Edge 31, Type (0, 0), BuildingBlock: XIVTED_clean_linker_0, # of connection points: 2
#     Edge 32, Type (0, 0), BuildingBlock: XIVTED_clean_linker_0, # of connection points: 2
#     Edge 33, Type (0, 0), BuildingBlock: XIVTED_clean_linker_0, # of connection points: 2
#     Edge 34, Type (0, 0), BuildingBlock: XIVTED_clean_linker_0, # of connection points: 2
#     Edge 35, Type (0, 0), BuildingBlock: XIVTED_clean_linker_0, # of connection points: 2
# Relax obj value: 0.123
# Max RMSD: 0.255
# Mean RMSD: 0.255
data_MOF--net-uku--node1-ESEHIV_clean_sbu_0--edge1-XIVTED_clean_linker_0
_symmetry_space_group_name_H-M    P1
_symmetry_Int_Tables_number       1
_symmetry_cell_setting            triclinic
loop_
_symmetry_equiv_pos_as_xyz
'x, y, z'
_cell_length_a     47.767084
_cell_length_b     47.810588
_cell_length_c     47.808089
_cell_angle_alpha  89.992518
_cell_angle_beta   90.009118
_cell_angle_gamma 89.986534
loop_
_atom_site_label
_atom_site_type_symbol
_atom_site_fract_x
_atom_site_fract_y
_atom_site_fract_z
_atom_type_partial_charge
Cu0 Cu 0.10338 0.12337 0.65022 0.0
N1 N 0.14086 0.11373 0.65421 0.0
N2 N 0.18112 0.10322 0.67555 0.0
C3 C 0.15415 0.11102 0.67883 0.0
C4 C 0.18484 0.10089 0.64763 0.0
C5 C 0.15992 0.10741 0.6345 0.0
O6 O 0.09549 0.15141 0.67863 0.0
C7 C 0.05546 0.09027 0.66133 0.0
O8 O 0.04224 0.11435 0.66243 0.0
H9 H 0.14393 0.11424 0.69877 0.0
H10 H 0.15594 0.10745 0.61223 0.0
N11 N 0.09642 0.13683 0.61422 0.0
N12 N 0.07449 0.14582 0.57395 0.0
C13 C 0.07405 0.13112 0.59805 0.0
C14 C 0.11169 0.15554 0.59976 0.0
C15 C 0.09813 0.16125 0.57494 0.0
C16 C 0.08624 0.17589 0.67374 0.0
O17 O 0.07934 0.18293 0.64811 0.0
H18 H 0.05732 0.11717 0.60424 0.0
H19 H 0.13098 0.16484 0.6071 0.0
O20 O 0.08162 0.08993 0.65656 0.0
H21 H 0.2042 0.09518 0.63736 0.0
H22 H 0.10505 0.17569 0.55893 0.0
Cu23 Cu 0.90055 0.8767 0.65242 0.0
N24 N 0.86301 0.88626 0.65622 0.0
N25 N 0.82256 0.89682 0.67716 0.0
C26 C 0.84952 0.88908 0.68072 0.0
C27 C 0.81907 0.899 0.64919 0.0
C28 C 0.84411 0.89245 0.63632 0.0
O29 O 0.90857 0.84873 0.68089 0.0
C30 C 0.94845 0.90991 0.66314 0.0
O31 O 0.96172 0.88585 0.66404 0.0
H32 H 0.85957 0.88599 0.70076 0.0
H33 H 0.84827 0.89231 0.61408 0.0
N34 N 0.9076 0.8633 0.61641 0.0
N35 N 0.92935 0.85489 0.57593 0.0
C36 C 0.92975 0.86945 0.60011 0.0
C37 C 0.89249 0.84446 0.60194 0.0
C38 C 0.90595 0.8391 0.57699 0.0
C39 C 0.91748 0.82411 0.676 0.0
O40 O 0.9238 0.81683 0.65029 0.0
H41 H 0.94628 0.88367 0.60623 0.0
H42 H 0.87335 0.83489 0.60932 0.0
O43 O 0.92223 0.91021 0.6587 0.0
H44 H 0.79979 0.90461 0.63871 0.0
H45 H 0.8991 0.8247 0.56092 0.0
Cu46 Cu 0.10272 0.87912 0.35055 0.0
N47 N 0.14011 0.8893 0.34742 0.0
N48 N 0.1807 0.8996 0.32664 0.0
C49 C 0.15381 0.89175 0.32301 0.0
C50 C 0.18396 0.90229 0.35459 0.0
C51 C 0.15882 0.89586 0.36739 0.0
O52 O 0.09608 0.85196 0.32118 0.0
C53 C 0.05415 0.91212 0.34157 0.0
O54 O 0.04087 0.88807 0.34116 0.0
H55 H 0.14396 0.88818 0.30294 0.0
H56 H 0.15449 0.89592 0.38959 0.0
N57 N 0.09552 0.8636 0.38561 0.0
N58 N 0.07385 0.85329 0.42568 0.0
C59 C 0.07477 0.87057 0.40336 0.0
C60 C 0.10831 0.84136 0.39716 0.0
C61 C 0.09492 0.83487 0.42187 0.0
C62 C 0.08095 0.83019 0.3234 0.0
O63 O 0.06662 0.8259 0.34645 0.0
H64 H 0.05993 0.88722 0.39942 0.0
H65 H 0.12563 0.83018 0.38781 0.0
O66 O 0.0805 0.91245 0.34516 0.0
H67 H 0.20317 0.90808 0.3651 0.0
H68 H 0.1001 0.81778 0.43579 0.0
Cu69 Cu 0.89917 0.12617 0.34978 0.0
N70 N 0.86161 0.1165 0.34675 0.0
N71 N 0.82094 0.10597 0.32619 0.0
C72 C 0.8481 0.11277 0.32238 0.0
C73 C 0.81732 0.10531 0.35423 0.0
C74 C 0.8425 0.11187 0.36687 0.0
O75 O 0.90632 0.1531 0.32028 0.0
C76 C 0.94725 0.09271 0.34056 0.0
O77 O 0.9606 0.11672 0.33972 0.0
H78 H 0.85826 0.11477 0.30225 0.0
H79 H 0.84656 0.1133 0.38908 0.0
N80 N 0.90675 0.14147 0.38486 0.0
N81 N 0.92877 0.15112 0.42493 0.0
C82 C 0.92751 0.13409 0.40244 0.0
C83 C 0.89427 0.16374 0.39671 0.0
C84 C 0.90789 0.16982 0.42141 0.0
C85 C 0.92092 0.17523 0.32267 0.0
O86 O 0.93423 0.18028 0.34617 0.0
H87 H 0.94211 0.11728 0.39827 0.0
H88 H 0.87701 0.17519 0.38758 0.0
O89 O 0.92094 0.09254 0.34444 0.0
H90 H 0.79783 0.10092 0.36488 0.0
H91 H 0.90299 0.18683 0.43553 0.0
Cu92 Cu 0.65183 0.10304 0.12523 0.0
N93 N 0.65579 0.14044 0.11538 0.0
N94 N 0.67738 0.1806 0.10512 0.0
C95 C 0.6805 0.15362 0.11288 0.0
C96 C 0.64946 0.18444 0.10257 0.0
C97 C 0.63618 0.15957 0.10896 0.0
O98 O 0.68068 0.09553 0.15283 0.0
C99 C 0.66203 0.05486 0.09228 0.0
O100 O 0.66327 0.0418 0.11643 0.0
H101 H 0.70039 0.14334 0.11628 0.0
H102 H 0.61386 0.1557 0.10893 0.0
N103 N 0.6162 0.09617 0.13966 0.0
N104 N 0.57574 0.07467 0.14891 0.0
C105 C 0.59908 0.07481 0.13299 0.0
C106 C 0.60319 0.11017 0.16031 0.0
C107 C 0.57824 0.09689 0.16615 0.0
C108 C 0.67723 0.08261 0.17584 0.0
O109 O 0.65286 0.07123 0.18152 0.0
H110 H 0.60413 0.0591 0.11749 0.0
H111 H 0.61163 0.12835 0.17081 0.0
O112 O 0.65752 0.08104 0.09184 0.0
H113 H 0.63931 0.20385 0.09687 0.0
H114 H 0.56321 0.103 0.18195 0.0
Cu115 Cu 0.35038 0.8998 0.12586 0.0
N116 N 0.34837 0.86213 0.11635 0.0
N117 N 0.32968 0.82024 0.10749 0.0
C118 C 0.32458 0.8474 0.11329 0.0
C119 C 0.35785 0.81787 0.10687 0.0
C120 C 0.36934 0.84381 0.11228 0.0
O121 O 0.32087 0.90635 0.15296 0.0
C122 C 0.34026 0.94779 0.09268 0.0
O123 O 0.33931 0.96091 0.1168 0.0
H124 H 0.30396 0.85634 0.11613 0.0
H125 H 0.39137 0.84889 0.11352 0.0
N126 N 0.38534 0.90802 0.14124 0.0
N127 N 0.42512 0.93042 0.1513 0.0
C128 C 0.40256 0.92922 0.1343 0.0
C129 C 0.39748 0.89523 0.16317 0.0
C130 C 0.422 0.90906 0.1695 0.0
C131 C 0.32319 0.92125 0.17489 0.0
O132 O 0.34641 0.93523 0.17943 0.0
H133 H 0.39813 0.94407 0.1178 0.0
H134 H 0.38872 0.87752 0.17419 0.0
O135 O 0.34455 0.92156 0.09228 0.0
H136 H 0.36936 0.79879 0.10283 0.0
H137 H 0.43631 0.90391 0.18628 0.0
Cu138 Cu 0.65349 0.90118 0.87839 0.0
N139 N 0.6569 0.86414 0.88967 0.0
N140 N 0.67788 0.82403 0.90155 0.0
C141 C 0.6811 0.84983 0.89045 0.0
C142 C 0.65033 0.82213 0.90782 0.0
C143 C 0.63747 0.84696 0.90053 0.0
O144 O 0.68256 0.90746 0.85078 0.0
C145 C 0.66252 0.95045 0.91038 0.0
O146 O 0.66256 0.96337 0.88612 0.0
H147 H 0.7007 0.85845 0.88312 0.0
H148 H 0.61568 0.85236 0.90351 0.0
N149 N 0.61805 0.90788 0.86341 0.0
N150 N 0.57738 0.92888 0.85385 0.0
C151 C 0.60033 0.92866 0.87035 0.0
C152 C 0.60584 0.89432 0.842 0.0
C153 C 0.58076 0.9073 0.83597 0.0
C154 C 0.67979 0.92131 0.82823 0.0
O155 O 0.65615 0.93438 0.8231 0.0
H156 H 0.60467 0.94394 0.88648 0.0
H157 H 0.61491 0.87668 0.83111 0.0
O158 O 0.65918 0.92411 0.91115 0.0
H159 H 0.64024 0.80446 0.9177 0.0
H160 H 0.56626 0.90143 0.81959 0.0
Cu161 Cu 0.34915 0.10021 0.87752 0.0
N162 N 0.3467 0.1378 0.88721 0.0
N163 N 0.32745 0.17946 0.89602 0.0
C164 C 0.32272 0.15227 0.89004 0.0
C165 C 0.35558 0.18212 0.89699 0.0
C166 C 0.36741 0.15633 0.89161 0.0
O167 O 0.31971 0.09355 0.85037 0.0
C168 C 0.3396 0.05197 0.91054 0.0
O169 O 0.33884 0.03888 0.88639 0.0
H170 H 0.30223 0.14313 0.8869 0.0
H171 H 0.38951 0.15148 0.8906 0.0
N172 N 0.38422 0.09248 0.86215 0.0
N173 N 0.42433 0.07066 0.85205 0.0
C174 C 0.40165 0.07137 0.8689 0.0
C175 C 0.39636 0.10571 0.84049 0.0
C176 C 0.42108 0.09225 0.83414 0.0
C177 C 0.32225 0.07906 0.82819 0.0
O178 O 0.3457 0.06552 0.82342 0.0
H179 H 0.3973 0.05626 0.88519 0.0
H180 H 0.38748 0.12351 0.82969 0.0
O181 O 0.34354 0.07825 0.911 0.0
H182 H 0.36683 0.20131 0.90124 0.0
H183 H 0.43546 0.09783 0.81756 0.0
Cu184 Cu 0.126 0.65231 0.10347 0.0
N185 N 0.11675 0.65712 0.14097 0.0
N186 N 0.10666 0.67909 0.18098 0.0
C187 C 0.11599 0.6818 0.15444 0.0
C188 C 0.10137 0.65152 0.18423 0.0
C189 C 0.10756 0.63804 0.15947 0.0
O190 O 0.15614 0.67808 0.09462 0.0
C191 C 0.09276 0.66555 0.05591 0.0
O192 O 0.1167 0.66643 0.0424 0.0
H193 H 0.12132 0.70144 0.14454 0.0
H194 H 0.10503 0.61599 0.15511 0.0
N195 N 0.13705 0.61547 0.09647 0.0
N196 N 0.14366 0.5748 0.07431 0.0
C197 C 0.13357 0.60115 0.07246 0.0
C198 C 0.14977 0.59763 0.11414 0.0
C199 C 0.15386 0.57253 0.10056 0.0
C200 C 0.17973 0.67484 0.10657 0.0
O201 O 0.18316 0.65362 0.12368 0.0
H202 H 0.12343 0.60979 0.05418 0.0
H203 H 0.15569 0.60254 0.13541 0.0
O204 O 0.09268 0.66034 0.08197 0.0
H205 H 0.09352 0.64173 0.20307 0.0
H206 H 0.1639 0.55421 0.10926 0.0
Cu207 Cu 0.12523 0.34888 0.89828 0.0
N208 N 0.11496 0.34479 0.86096 0.0
N209 N 0.10454 0.32414 0.82031 0.0
C210 C 0.11588 0.32096 0.84603 0.0
C211 C 0.09631 0.35117 0.81914 0.0
C212 C 0.10267 0.36379 0.84427 0.0
O213 O 0.1555 0.32297 0.90624 0.0
C214 C 0.0931 0.33538 0.94651 0.0
O215 O 0.11735 0.33431 0.95945 0.0
H216 H 0.12439 0.30164 0.85418 0.0
H217 H 0.09792 0.38508 0.85028 0.0
N218 N 0.13636 0.38567 0.90537 0.0
N219 N 0.14313 0.42633 0.92749 0.0
C220 C 0.13367 0.39977 0.9296 0.0
C221 C 0.1479 0.40386 0.88727 0.0
C222 C 0.15212 0.42894 0.90083 0.0
C223 C 0.17935 0.32695 0.89508 0.0
O224 O 0.18307 0.34902 0.87914 0.0
H225 H 0.12439 0.39088 0.94822 0.0
H226 H 0.15281 0.39922 0.86568 0.0
O227 O 0.09242 0.34073 0.92048 0.0
H228 H 0.08554 0.36096 0.80181 0.0
H229 H 0.1613 0.44754 0.89178 0.0
Cu230 Cu 0.87812 0.65421 0.90238 0.0
N231 N 0.88852 0.65756 0.86506 0.0
N232 N 0.89941 0.67745 0.82414 0.0
C233 C 0.8892 0.68145 0.85022 0.0
C234 C 0.90525 0.64981 0.82267 0.0
C235 C 0.89856 0.63764 0.84796 0.0
O236 O 0.8498 0.68251 0.90969 0.0
C237 C 0.91115 0.66459 0.95078 0.0
O238 O 0.88714 0.66485 0.9642 0.0
H239 H 0.88239 0.70133 0.85859 0.0
H240 H 0.90133 0.61593 0.8537 0.0
N241 N 0.86437 0.61829 0.90908 0.0
N242 N 0.85519 0.57759 0.93008 0.0
C243 C 0.87042 0.60137 0.9308 0.0
C244 C 0.84492 0.60465 0.89398 0.0
C245 C 0.83911 0.57958 0.90696 0.0
C246 C 0.82629 0.67779 0.92131 0.0
O247 O 0.82069 0.65266 0.93088 0.0
H248 H 0.88499 0.60679 0.94726 0.0
H249 H 0.83523 0.61273 0.87519 0.0
O250 O 0.91137 0.66057 0.92451 0.0
H251 H 0.91438 0.63917 0.80492 0.0
H252 H 0.82415 0.56406 0.89999 0.0
Cu253 Cu 0.87906 0.34857 0.09999 0.0
N254 N 0.88954 0.34541 0.13729 0.0
N255 N 0.90012 0.32489 0.17793 0.0
C256 C 0.89225 0.32107 0.15107 0.0
C257 C 0.90252 0.35288 0.18106 0.0
C258 C 0.89593 0.3655 0.1559 0.0
O259 O 0.85106 0.31986 0.09364 0.0
C260 C 0.91136 0.33833 0.05123 0.0
O261 O 0.88711 0.33826 0.03826 0.0
H262 H 0.8888 0.30094 0.14133 0.0
H263 H 0.89571 0.3877 0.15151 0.0
N264 N 0.86442 0.38403 0.09287 0.0
N265 N 0.85521 0.42461 0.07162 0.0
C266 C 0.87175 0.4017 0.07218 0.0
C267 C 0.84271 0.39624 0.10599 0.0
C268 C 0.8369 0.42125 0.09286 0.0
C269 C 0.82888 0.32278 0.07919 0.0
O270 O 0.82458 0.34618 0.06546 0.0
H271 H 0.88816 0.39735 0.0572 0.0
H272 H 0.83147 0.38718 0.12341 0.0
O273 O 0.91208 0.34225 0.07751 0.0
H274 H 0.90817 0.36354 0.2002 0.0
H275 H 0.82037 0.43573 0.09836 0.0
H276 H 0.95024 0.19545 0.45302 0.0
H277 H 0.0419 0.10251 0.55729 0.0
H278 H 0.95432 0.10556 0.44705 0.0
H279 H 0.05883 0.18968 0.54158 0.0
H280 H 0.00566 0.10354 0.52095 0.0
H281 H 0.98591 0.19412 0.48978 0.0
C282 C 0.9585 0.17542 0.45961 0.0
C283 C 0.94931 0.15057 0.44699 0.0
C284 C 0.01738 0.12241 0.52543 0.0
C285 C 0.99012 0.14888 0.48899 0.0
C286 C 0.03791 0.12187 0.54623 0.0
C287 C 0.05341 0.14603 0.55239 0.0
C288 C 0.01198 0.14743 0.51099 0.0
C289 C 0.04759 0.17052 0.53727 0.0
C290 C 0.979 0.17469 0.48042 0.0
C291 C 0.96101 0.1252 0.45608 0.0
N292 N 0.02723 0.17064 0.51739 0.0
N293 N 0.98071 0.12498 0.47663 0.0
H294 H 0.05313 0.80837 0.45339 0.0
H295 H 0.96107 0.89888 0.55936 0.0
H296 H 0.04778 0.89825 0.44842 0.0
H297 H 0.94536 0.81161 0.54299 0.0
H298 H 0.99694 0.89877 0.52266 0.0
H299 H 0.01772 0.8088 0.4904 0.0
C300 C 0.04464 0.82821 0.46025 0.0
C301 C 0.05341 0.85333 0.44785 0.0
C302 C 0.98558 0.87968 0.52707 0.0
C303 C 0.01289 0.85398 0.49014 0.0
C304 C 0.96525 0.87969 0.54808 0.0
C305 C 0.9502 0.85523 0.55416 0.0
C306 C 0.99122 0.85489 0.51234 0.0
C307 C 0.95625 0.83098 0.53875 0.0
C308 C 0.02429 0.82843 0.48121 0.0
C309 C 0.04142 0.87843 0.45728 0.0
N310 N 0.97641 0.83137 0.51867 0.0
N311 N 0.02188 0.87815 0.47797 0.0
H312 H 0.45385 0.9505 0.19589 0.0
H313 H 0.55655 0.04531 0.10431 0.0
H314 H 0.44635 0.95776 0.1063 0.0
H315 H 0.54466 0.05694 0.19295 0.0
H316 H 0.51956 0.00977 0.10456 0.0
H317 H 0.49072 0.98599 0.19521 0.0
C318 C 0.4601 0.95944 0.17605 0.0
C319 C 0.44704 0.95114 0.1511 0.0
C320 C 0.525 0.02018 0.12392 0.0
C321 C 0.48919 0.99183 0.15016 0.0
C322 C 0.54619 0.04033 0.12381 0.0
C323 C 0.55365 0.05413 0.14863 0.0
C324 C 0.51145 0.01347 0.14912 0.0
C325 C 0.53935 0.04706 0.1733 0.0
C326 C 0.48099 0.97984 0.1757 0.0
C327 C 0.45571 0.96374 0.12602 0.0
N328 N 0.51908 0.02711 0.17295 0.0
N329 N 0.47635 0.98334 0.12616 0.0
H330 H 0.55664 0.9566 0.89882 0.0
H331 H 0.45395 0.05184 0.80749 0.0
H332 H 0.54694 0.9473 0.80963 0.0
H333 H 0.44537 0.04276 0.89682 0.0
H334 H 0.49139 0.01693 0.80802 0.0
H335 H 0.51901 0.99149 0.89871 0.0
C336 C 0.54662 0.96195 0.87922 0.0
C337 C 0.55489 0.949 0.8542 0.0
C338 C 0.4813 0.02254 0.82751 0.0
C339 C 0.51196 0.98891 0.85389 0.0
C340 C 0.46008 0.04262 0.82724 0.0
C341 C 0.44655 0.05025 0.85216 0.0
C342 C 0.48934 0.0102 0.85293 0.0
C343 C 0.45508 0.0373 0.87712 0.0
C344 C 0.52507 0.98173 0.87919 0.0
C345 C 0.54102 0.95651 0.82943 0.0
N346 N 0.47603 0.01802 0.8769 0.0
N347 N 0.52037 0.97608 0.82987 0.0
H348 H 0.14372 0.41849 0.98386 0.0
H349 H 0.14192 0.58255 0.01795 0.0
H350 H 0.14276 0.4828 0.92051 0.0
H351 H 0.14511 0.51834 0.08134 0.0
H352 H 0.14152 0.54631 0.98201 0.0
H353 H 0.14356 0.4547 0.01986 0.0
C354 C 0.14333 0.44019 0.97747 0.0
C355 C 0.14323 0.44752 0.94901 0.0
C356 C 0.14232 0.54013 0.00379 0.0
C357 C 0.1433 0.48922 0.99026 0.0
C358 C 0.14238 0.56086 0.02437 0.0
C359 C 0.14352 0.55357 0.05281 0.0
C360 C 0.14334 0.51183 0.01161 0.0
C361 C 0.14455 0.52502 0.05974 0.0
C362 C 0.1434 0.4609 0.99807 0.0
C363 C 0.14318 0.47609 0.9421 0.0
N364 N 0.14439 0.50524 0.03932 0.0
N365 N 0.14317 0.49585 0.96254 0.0
H366 H 0.81106 0.54567 0.94578 0.0
H367 H 0.90074 0.44608 0.04542 0.0
H368 H 0.89904 0.5589 0.96096 0.0
H369 H 0.81105 0.45409 0.05166 0.0
H370 H 0.90112 0.48379 0.01059 0.0
H371 H 0.81117 0.50819 0.98065 0.0
C372 C 0.83044 0.54055 0.95635 0.0
C373 C 0.85509 0.55538 0.95047 0.0
C374 C 0.88139 0.47733 0.01968 0.0
C375 C 0.8554 0.51254 0.99037 0.0
C376 C 0.88115 0.45575 0.0394 0.0
C377 C 0.85584 0.44702 0.05148 0.0
C378 C 0.85607 0.48994 0.01164 0.0
C379 C 0.83105 0.4604 0.04312 0.0
C380 C 0.83045 0.51931 0.97638 0.0
C381 C 0.87955 0.54813 0.96506 0.0
N382 N 0.83176 0.48105 0.02359 0.0
N383 N 0.87914 0.5271 0.98423 0.0
H384 H 0.22807 0.0709 0.67314 0.0
H385 H 0.27158 0.10556 0.8312 0.0
H386 H 0.18072 0.12456 0.72823 0.0
H387 H 0.32217 0.055 0.776 0.0
H388 H 0.23674 0.11022 0.79427 0.0
H389 H 0.26188 0.06307 0.71078 0.0
C390 C 0.22479 0.08113 0.69305 0.0
C391 C 0.20139 0.0984 0.69744 0.0
C392 C 0.25539 0.098 0.79022 0.0
C393 C 0.2399 0.08926 0.74075 0.0
C394 C 0.2753 0.09525 0.81137 0.0
C395 C 0.29994 0.07995 0.80669 0.0
C396 C 0.26007 0.08541 0.76409 0.0
C397 C 0.30352 0.06704 0.78054 0.0
C398 C 0.24403 0.0765 0.71461 0.0
C399 C 0.19812 0.11077 0.72389 0.0
N400 N 0.28387 0.07017 0.76017 0.0
N401 N 0.21712 0.10598 0.74446 0.0
H402 H 0.73072 0.89544 0.83197 0.0
H403 H 0.77546 0.92889 0.67401 0.0
H404 H 0.67991 0.94449 0.7756 0.0
H405 H 0.82256 0.87594 0.73004 0.0
H406 H 0.74119 0.93674 0.7112 0.0
H407 H 0.76593 0.89072 0.79542 0.0
C408 C 0.72702 0.9054 0.81195 0.0
C409 C 0.70221 0.92031 0.80684 0.0
C410 C 0.75908 0.92346 0.71533 0.0
C411 C 0.74253 0.91478 0.76468 0.0
C412 C 0.7786 0.91882 0.69403 0.0
C413 C 0.80205 0.90172 0.6988 0.0
C414 C 0.763 0.91091 0.74161 0.0
C415 C 0.80513 0.88958 0.72539 0.0
C416 C 0.74715 0.90262 0.79103 0.0
C417 C 0.69868 0.93277 0.78047 0.0
N418 N 0.78585 0.89439 0.74571 0.0
N419 N 0.71856 0.92962 0.76032 0.0
H420 H 0.27287 0.89413 0.17221 0.0
H421 H 0.22757 0.93204 0.32905 0.0
H422 H 0.32262 0.94633 0.22662 0.0
H423 H 0.18123 0.87691 0.27457 0.0
H424 H 0.26186 0.93913 0.29166 0.0
H425 H 0.23785 0.88994 0.209 0.0
C426 C 0.27637 0.90489 0.19184 0.0
C427 C 0.30082 0.92053 0.19633 0.0
C428 C 0.24412 0.92555 0.28792 0.0
C429 C 0.26074 0.91563 0.23879 0.0
C430 C 0.22461 0.92134 0.30933 0.0
C431 C 0.20134 0.90391 0.30501 0.0
C432 C 0.24037 0.91218 0.26201 0.0
C433 C 0.19849 0.89088 0.27882 0.0
C434 C 0.25636 0.90242 0.21291 0.0
C435 C 0.30412 0.93402 0.22223 0.0
N436 N 0.21774 0.89527 0.25841 0.0
N437 N 0.28436 0.93116 0.24254 0.0
H438 H 0.72962 0.10518 0.17109 0.0
H439 H 0.77248 0.07613 0.33049 0.0
H440 H 0.67615 0.06144 0.2293 0.0
H441 H 0.82194 0.12455 0.27246 0.0
H442 H 0.73793 0.06826 0.2935 0.0
H443 H 0.76505 0.10939 0.20749 0.0
C444 C 0.72537 0.09626 0.19148 0.0
C445 C 0.69976 0.08304 0.19714 0.0
C446 C 0.75642 0.08053 0.28889 0.0
C447 C 0.74033 0.088 0.23915 0.0
C448 C 0.77609 0.08518 0.31007 0.0
C449 C 0.80029 0.101 0.30468 0.0
C450 C 0.76094 0.09179 0.26213 0.0
C451 C 0.80393 0.11187 0.27761 0.0
C452 C 0.74563 0.09875 0.21233 0.0
C453 C 0.69555 0.07186 0.224 0.0
N454 N 0.78451 0.10709 0.25745 0.0
N455 N 0.71557 0.07471 0.24405 0.0
H456 H 0.72973 0.17996 0.12732 0.0
H457 H 0.77697 0.32309 0.05436 0.0
H458 H 0.67565 0.22761 0.07287 0.0
H459 H 0.8306 0.27266 0.10675 0.0
H460 H 0.73991 0.28809 0.0596 0.0
H461 H 0.76703 0.21353 0.11902 0.0
C462 C 0.72569 0.19736 0.11343 0.0
C463 C 0.69943 0.20078 0.10068 0.0
C464 C 0.75984 0.28465 0.06982 0.0
C465 C 0.74224 0.23976 0.0913 0.0
C466 C 0.78105 0.30459 0.06678 0.0
C467 C 0.80694 0.30089 0.08021 0.0
C468 C 0.76455 0.26087 0.08644 0.0
C469 C 0.81099 0.27649 0.09606 0.0
C470 C 0.74704 0.21667 0.1088 0.0
C471 C 0.69542 0.22421 0.08336 0.0
N472 N 0.79002 0.25753 0.09881 0.0
N473 N 0.71659 0.24279 0.07917 0.0
H474 H 0.17748 0.72621 0.08082 0.0
H475 H 0.3363 0.76493 0.11878 0.0
H476 H 0.23391 0.6707 0.12434 0.0
H477 H 0.27616 0.82528 0.08891 0.0
H478 H 0.30056 0.72853 0.11548 0.0
H479 H 0.21489 0.76118 0.0783 0.0
C480 C 0.19777 0.72128 0.08964 0.0
C481 C 0.20251 0.69554 0.10296 0.0
C482 C 0.2952 0.74973 0.10955 0.0
C483 C 0.24537 0.73544 0.10016 0.0
C484 C 0.31567 0.7705 0.11127 0.0
C485 C 0.30921 0.79828 0.10428 0.0
C486 C 0.26804 0.75669 0.10063 0.0
C487 C 0.28196 0.80426 0.09494 0.0
C488 C 0.21909 0.74129 0.08828 0.0
C489 C 0.22923 0.69032 0.11404 0.0
N490 N 0.26238 0.78368 0.09343 0.0
N491 N 0.2496 0.71009 0.11244 0.0
H492 H 0.77092 0.67254 0.93547 0.0
H493 H 0.73435 0.83253 0.90344 0.0
H494 H 0.83182 0.73317 0.90764 0.0
H495 H 0.6714 0.7681 0.91113 0.0
H496 H 0.77047 0.79741 0.91024 0.0
H497 H 0.73455 0.70846 0.93249 0.0
C498 C 0.77671 0.69345 0.92896 0.0
C499 C 0.80448 0.69981 0.92169 0.0
C500 C 0.74874 0.79097 0.91044 0.0
C501 C 0.76291 0.74098 0.9182 0.0
C502 C 0.72796 0.81105 0.90637 0.0
C503 C 0.69953 0.80342 0.90637 0.0
C504 C 0.74121 0.76295 0.91479 0.0
C505 C 0.69289 0.77515 0.91108 0.0
C506 C 0.7559 0.7139 0.92714 0.0
C507 C 0.8107 0.72727 0.91334 0.0
N508 N 0.71356 0.75597 0.91505 0.0
N509 N 0.79009 0.74681 0.9118 0.0
H510 H 0.2738 0.1737 0.9139 0.0
H511 H 0.23395 0.3322 0.8789 0.0
H512 H 0.33351 0.2349 0.88503 0.0
H513 H 0.17688 0.27455 0.91858 0.0
H514 H 0.2708 0.29696 0.88166 0.0
H515 H 0.23812 0.21027 0.91624 0.0
C516 C 0.27942 0.19482 0.90805 0.0
C517 C 0.30668 0.20117 0.89907 0.0
C518 C 0.25028 0.29203 0.88993 0.0
C519 C 0.26592 0.24324 0.90182 0.0
C520 C 0.22918 0.31216 0.88832 0.0
C521 C 0.20222 0.30629 0.8984 0.0
C522 C 0.24439 0.26568 0.90148 0.0
C523 C 0.19735 0.27998 0.91053 0.0
C524 C 0.25907 0.21574 0.90955 0.0
C525 C 0.31287 0.22905 0.89223 0.0
N526 N 0.21817 0.26058 0.91154 0.0
N527 N 0.29261 0.24899 0.89355 0.0
H528 H 0.05394 0.77948 0.3219 0.0
H529 H 0.13193 0.73001 0.18219 0.0
H530 H 0.11063 0.83143 0.27447 0.0
H531 H 0.0715 0.67903 0.22589 0.0
H532 H 0.12376 0.76749 0.21567 0.0
H533 H 0.05917 0.7427 0.28668 0.0
C534 C 0.06731 0.78326 0.304 0.0
C535 C 0.08194 0.80858 0.30123 0.0
C536 C 0.11223 0.74813 0.21793 0.0
C537 C 0.08819 0.76648 0.26096 0.0
C538 C 0.1168 0.72669 0.1987 0.0
C539 C 0.10235 0.70123 0.20107 0.0
C540 C 0.09308 0.74419 0.23987 0.0
C541 C 0.08338 0.69811 0.22334 0.0
C542 C 0.07034 0.76221 0.28393 0.0
C543 C 0.09897 0.81226 0.27757 0.0
N544 N 0.07931 0.71932 0.24186 0.0
N545 N 0.10172 0.79142 0.25847 0.0
H546 H 0.09744 0.16836 0.72949 0.0
H547 H 0.09545 0.33183 0.76456 0.0
H548 H 0.07503 0.23194 0.66937 0.0
H549 H 0.10473 0.2675 0.82733 0.0
H550 H 0.08862 0.29562 0.72932 0.0
H551 H 0.10068 0.2044 0.76558 0.0
C552 C 0.093 0.18987 0.7239 0.0
C553 C 0.08602 0.19712 0.6963 0.0
C554 C 0.09209 0.28945 0.75083 0.0
C555 C 0.08996 0.23856 0.73752 0.0
C556 C 0.09592 0.31017 0.77106 0.0
C557 C 0.10074 0.30289 0.79914 0.0
C558 C 0.09321 0.26115 0.7586 0.0
C559 C 0.10152 0.27429 0.80602 0.0
C560 C 0.09488 0.21045 0.74453 0.0
C561 C 0.08048 0.22535 0.69034 0.0
N562 N 0.09786 0.25453 0.78591 0.0
N563 N 0.08275 0.24504 0.71072 0.0
H564 H 0.90616 0.66913 0.76811 0.0
H565 H 0.9084 0.83227 0.73204 0.0
H566 H 0.90284 0.73403 0.83089 0.0
H567 H 0.9273 0.76781 0.67169 0.0
H568 H 0.90565 0.79655 0.7685 0.0
H569 H 0.91319 0.70487 0.73243 0.0
C570 C 0.90706 0.6908 0.77453 0.0
C571 C 0.90377 0.69839 0.80274 0.0
C572 C 0.91059 0.79024 0.74732 0.0
C573 C 0.91151 0.7396 0.76169 0.0
C574 C 0.91217 0.81063 0.72647 0.0
C575 C 0.91801 0.80304 0.69871 0.0
C576 C 0.91462 0.76197 0.74036 0.0
C577 C 0.92273 0.77466 0.69278 0.0
C578 C 0.911 0.71125 0.75405 0.0
C579 C 0.90477 0.72701 0.8095 0.0
N580 N 0.92074 0.75515 0.71338 0.0
N581 N 0.90845 0.74651 0.78915 0.0
H582 H 0.89511 0.17143 0.27175 0.0
H583 H 0.93205 0.32807 0.2251 0.0
H584 H 0.9454 0.22726 0.3219 0.0
H585 H 0.87824 0.27242 0.17857 0.0
H586 H 0.93908 0.29117 0.25989 0.0
H587 H 0.89134 0.20762 0.23609 0.0
C588 C 0.90555 0.19125 0.27521 0.0
C589 C 0.92051 0.19632 0.29997 0.0
C590 C 0.9258 0.28706 0.24199 0.0
C591 C 0.91608 0.23808 0.25912 0.0
C592 C 0.92163 0.3082 0.22219 0.0
C593 C 0.90455 0.30343 0.19874 0.0
C594 C 0.91277 0.26097 0.23836 0.0
C595 C 0.89192 0.27704 0.19597 0.0
C596 C 0.90331 0.21197 0.25482 0.0
C597 C 0.93361 0.22243 0.30318 0.0
N598 N 0.89626 0.2569 0.21551 0.0
N599 N 0.93098 0.24239 0.28305 0.0
H600 H 0.07693 0.03722 0.66265 0.0
H601 H 0.92697 0.96296 0.66468 0.0
H602 H 0.99879 0.08247 0.66653 0.0
H603 H 0.0052 0.91776 0.66714 0.0
H604 H 0.95289 0.00689 0.66647 0.0
H605 H 0.05105 0.99332 0.66536 0.0
C606 C 0.05432 0.03795 0.66417 0.0
C607 C 0.04 0.06361 0.66424 0.0
C608 C 0.96441 0.98738 0.66675 0.0
C609 C 0.0102 0.01329 0.66727 0.0
C610 C 0.94961 0.96225 0.66571 0.0
C611 C 0.96394 0.93659 0.66564 0.0
C612 C 0.99378 0.98694 0.66759 0.0
C613 C 0.99328 0.93702 0.6671 0.0
C614 C 0.03955 0.01283 0.66574 0.0
C615 C 0.0107 0.06321 0.66636 0.0
N616 N 0.00723 0.96179 0.66787 0.0
N617 N 0.99676 0.03844 0.66765 0.0
H618 H 0.92568 0.03968 0.33973 0.0
H619 H 0.07561 0.96514 0.33957 0.0
H620 H 0.00397 0.08469 0.33652 0.0
H621 H 0.99735 0.92 0.33812 0.0
H622 H 0.04972 0.00907 0.33738 0.0
H623 H 0.95152 0.99568 0.33807 0.0
C624 C 0.94832 0.04034 0.33859 0.0
C625 C 0.96268 0.06596 0.33837 0.0
C626 C 0.03819 0.98957 0.33744 0.0
C627 C 0.99243 0.01554 0.33653 0.0
C628 C 0.05296 0.96444 0.33871 0.0
C629 C 0.03863 0.9388 0.33913 0.0
C630 C 0.00881 0.98915 0.33669 0.0
C631 C 0.00927 0.93924 0.33788 0.0
C632 C 0.96306 0.01517 0.33762 0.0
C633 C 0.99202 0.06546 0.33678 0.0
N634 N 0.99534 0.96402 0.33683 0.0
N635 N 0.00591 0.04065 0.33604 0.0
H636 H 0.66525 0.00736 0.91746 0.0
H637 H 0.66804 0.99829 0.08489 0.0
H638 H 0.66524 0.92974 0.96364 0.0
H639 H 0.66172 0.07583 0.039 0.0
H640 H 0.67027 0.97293 0.04055 0.0
H641 H 0.6672 0.03297 0.96171 0.0
C642 C 0.66579 0.99569 0.93687 0.0
C643 C 0.66496 0.96636 0.93682 0.0
C644 C 0.66848 0.99551 0.04019 0.0
C645 C 0.66715 0.99552 0.98755 0.0
C646 C 0.66723 0.01001 0.06551 0.0
C647 C 0.66456 0.03923 0.06569 0.0
C648 C 0.66708 0.01033 0.01483 0.0
C649 C 0.66366 0.05329 0.0399 0.0
C650 C 0.66686 0.01033 0.96214 0.0
C651 C 0.66572 0.95236 0.96264 0.0
N652 N 0.66485 0.03871 0.01554 0.0
N653 N 0.66671 0.96706 0.98693 0.0
H654 H 0.33522 0.00445 0.08529 0.0
H655 H 0.33549 0.99522 0.91787 0.0
H656 H 0.33966 0.9268 0.03939 0.0
H657 H 0.33849 0.07289 0.96383 0.0
H658 H 0.33362 0.96975 0.96218 0.0
H659 H 0.33302 0.02985 0.04096 0.0
C660 C 0.33561 0.99272 0.06591 0.0
C661 C 0.33774 0.96345 0.06608 0.0
C662 C 0.33461 0.99237 0.96256 0.0
C663 C 0.33526 0.99241 0.01523 0.0
C664 C 0.33563 0.00694 0.93725 0.0
C665 C 0.33726 0.03624 0.93711 0.0
C666 C 0.33516 0.00721 0.98793 0.0
C667 C 0.33736 0.0503 0.96291 0.0
C668 C 0.3344 0.00725 0.04059 0.0
C669 C 0.33814 0.94938 0.04029 0.0
N670 N 0.33639 0.03566 0.98725 0.0
N671 N 0.33698 0.96398 0.01594 0.0
H672 H 0.96399 0.66749 0.9289 0.0
H673 H 0.03991 0.66691 0.07798 0.0
H674 H 0.91946 0.66847 0.00747 0.0
H675 H 0.08425 0.67099 0.9994 0.0
H676 H 0.99564 0.66911 0.0526 0.0
H677 H 0.00814 0.67032 0.95438 0.0
C678 C 0.96346 0.6684 0.95153 0.0
C679 C 0.93793 0.66761 0.96607 0.0
C680 C 0.01504 0.66967 0.0409 0.0
C681 C 0.98857 0.67078 0.99542 0.0
C682 C 0.04037 0.66841 0.05538 0.0
C683 C 0.06589 0.66863 0.04079 0.0
C684 C 0.01514 0.67104 0.01156 0.0
C685 C 0.06512 0.67071 0.01152 0.0
C686 C 0.98873 0.67004 0.96607 0.0
C687 C 0.93862 0.66896 0.99539 0.0
N688 N 0.04016 0.67167 0.99787 0.0
N689 N 0.96353 0.67034 0.0091 0.0
H690 H 0.08594 0.3295 0.00316 0.0
H691 H 0.91837 0.33371 0.99447 0.0
H692 H 0.03972 0.3348 0.92571 0.0
H693 H 0.9647 0.33559 0.072 0.0
H694 H 0.96256 0.3303 0.96889 0.0
H695 H 0.04162 0.32776 0.02872 0.0
C696 C 0.0665 0.33011 0.99151 0.0
C697 C 0.06658 0.33245 0.96225 0.0
C698 C 0.96305 0.33136 0.99151 0.0
C699 C 0.01576 0.33055 0.99138 0.0
C700 C 0.9378 0.33328 0.00613 0.0
C701 C 0.9378 0.33508 0.03542 0.0
C702 C 0.9885 0.33119 0.00627 0.0
C703 C 0.96366 0.33439 0.04941 0.0
C704 C 0.04119 0.32918 0.00612 0.0
C705 C 0.04071 0.33314 0.94827 0.0
N706 N 0.98794 0.33257 0.03472 0.0
N707 N 0.01638 0.3323 0.96296 0.0
loop_
_geom_bond_atom_site_label_1
_geom_bond_atom_site_label_2
_geom_bond_distance
_geom_bond_site_symmetry_2
_ccdc_geom_bond_type
Cu0 N1 1.999 . S
Cu0 O6 1.974 . S
Cu0 N11 1.985 . S
Cu0 O20 1.959 . S
N1 Cu0 1.999 . S
N1 C3 1.263 . S
N1 C5 1.389 . S
N2 C3 1.358 . S
N2 C4 1.400 . S
C3 N1 1.263 . S
C3 N2 1.358 . S
C3 H9 0.930 . S
C4 N2 1.400 . S
C4 C5 1.351 . S
C4 H21 0.930 . S
C5 N1 1.389 . S
C5 C4 1.351 . S
C5 H10 0.930 . S
O6 Cu0 1.974 . S
O6 C16 1.282 . S
C7 O8 1.261 . S
C7 O20 1.251 . S
O8 C7 1.261 . S
H9 C3 0.930 . S
H10 C5 0.930 . S
N11 Cu0 1.985 . S
N11 C13 1.335 . S
N11 C14 1.390 . S
N12 C13 1.345 . S
N12 C15 1.336 . S
C13 N11 1.335 . S
C13 N12 1.345 . S
C13 H18 0.930 . S
C14 N11 1.390 . S
C14 C15 1.346 . S
C14 H19 0.930 . S
C15 N12 1.336 . S
C15 C14 1.346 . S
C15 H22 0.929 . S
C16 O6 1.282 . S
C16 O17 1.216 . S
O17 C16 1.216 . S
H18 C13 0.930 . S
H19 C14 0.930 . S
O20 Cu0 1.959 . S
O20 C7 1.251 . S
H21 C4 0.930 . S
H22 C15 0.929 . S
Cu23 N24 1.999 . S
Cu23 O29 1.974 . S
Cu23 N34 1.985 . S
Cu23 O43 1.959 . S
N24 Cu23 1.999 . S
N24 C26 1.263 . S
N24 C28 1.389 . S
N25 C26 1.358 . S
N25 C27 1.400 . S
C26 N24 1.263 . S
C26 N25 1.358 . S
C26 H32 0.930 . S
C27 N25 1.400 . S
C27 C28 1.351 . S
C27 H44 0.930 . S
C28 N24 1.389 . S
C28 C27 1.351 . S
C28 H33 0.930 . S
O29 Cu23 1.974 . S
O29 C39 1.282 . S
C30 O31 1.261 . S
C30 O43 1.251 . S
O31 C30 1.261 . S
H32 C26 0.930 . S
H33 C28 0.930 . S
N34 Cu23 1.985 . S
N34 C36 1.335 . S
N34 C37 1.390 . S
N35 C36 1.345 . S
N35 C38 1.336 . S
C36 N34 1.335 . S
C36 N35 1.345 . S
C36 H41 0.930 . S
C37 N34 1.390 . S
C37 C38 1.346 . S
C37 H42 0.930 . S
C38 N35 1.336 . S
C38 C37 1.346 . S
C38 H45 0.929 . S
C39 O29 1.282 . S
C39 O40 1.216 . S
O40 C39 1.216 . S
H41 C36 0.930 . S
H42 C37 0.930 . S
O43 Cu23 1.959 . S
O43 C30 1.251 . S
H44 C27 0.930 . S
H45 C38 0.929 . S
Cu46 N47 1.999 . S
Cu46 O52 1.974 . S
Cu46 N57 1.985 . S
Cu46 O66 1.959 . S
N47 Cu46 1.999 . S
N47 C49 1.263 . S
N47 C51 1.389 . S
N48 C49 1.358 . S
N48 C50 1.400 . S
C49 N47 1.263 . S
C49 N48 1.358 . S
C49 H55 0.930 . S
C50 N48 1.400 . S
C50 C51 1.351 . S
C50 H67 0.930 . S
C51 N47 1.389 . S
C51 C50 1.351 . S
C51 H56 0.930 . S
O52 Cu46 1.974 . S
O52 C62 1.282 . S
C53 O54 1.261 . S
C53 O66 1.251 . S
O54 C53 1.261 . S
H55 C49 0.930 . S
H56 C51 0.930 . S
N57 Cu46 1.985 . S
N57 C59 1.335 . S
N57 C60 1.390 . S
N58 C59 1.345 . S
N58 C61 1.336 . S
C59 N57 1.335 . S
C59 N58 1.345 . S
C59 H64 0.930 . S
C60 N57 1.390 . S
C60 C61 1.346 . S
C60 H65 0.930 . S
C61 N58 1.336 . S
C61 C60 1.346 . S
C61 H68 0.929 . S
C62 O52 1.282 . S
C62 O63 1.216 . S
O63 C62 1.216 . S
H64 C59 0.930 . S
H65 C60 0.930 . S
O66 Cu46 1.959 . S
O66 C53 1.251 . S
H67 C50 0.930 . S
H68 C61 0.929 . S
Cu69 N70 1.999 . S
Cu69 O75 1.974 . S
Cu69 N80 1.985 . S
Cu69 O89 1.959 . S
N70 Cu69 1.999 . S
N70 C72 1.263 . S
N70 C74 1.389 . S
N71 C72 1.358 . S
N71 C73 1.400 . S
C72 N70 1.263 . S
C72 N71 1.358 . S
C72 H78 0.930 . S
C73 N71 1.400 . S
C73 C74 1.351 . S
C73 H90 0.930 . S
C74 N70 1.389 . S
C74 C73 1.351 . S
C74 H79 0.930 . S
O75 Cu69 1.974 . S
O75 C85 1.282 . S
C76 O77 1.261 . S
C76 O89 1.251 . S
O77 C76 1.261 . S
H78 C72 0.930 . S
H79 C74 0.930 . S
N80 Cu69 1.985 . S
N80 C82 1.335 . S
N80 C83 1.390 . S
N81 C82 1.345 . S
N81 C84 1.336 . S
C82 N80 1.335 . S
C82 N81 1.345 . S
C82 H87 0.930 . S
C83 N80 1.390 . S
C83 C84 1.346 . S
C83 H88 0.930 . S
C84 N81 1.336 . S
C84 C83 1.346 . S
C84 H91 0.929 . S
C85 O75 1.282 . S
C85 O86 1.216 . S
O86 C85 1.216 . S
H87 C82 0.930 . S
H88 C83 0.930 . S
O89 Cu69 1.959 . S
O89 C76 1.251 . S
H90 C73 0.930 . S
H91 C84 0.929 . S
Cu92 N93 1.999 . S
Cu92 O98 1.974 . S
Cu92 N103 1.985 . S
Cu92 O112 1.959 . S
N93 Cu92 1.999 . S
N93 C95 1.263 . S
N93 C97 1.389 . S
N94 C95 1.358 . S
N94 C96 1.400 . S
C95 N93 1.263 . S
C95 N94 1.358 . S
C95 H101 0.930 . S
C96 N94 1.400 . S
C96 C97 1.351 . S
C96 H113 0.930 . S
C97 N93 1.389 . S
C97 C96 1.351 . S
C97 H102 0.930 . S
O98 Cu92 1.974 . S
O98 C108 1.282 . S
C99 O100 1.261 . S
C99 O112 1.251 . S
O100 C99 1.261 . S
H101 C95 0.930 . S
H102 C97 0.930 . S
N103 Cu92 1.985 . S
N103 C105 1.335 . S
N103 C106 1.390 . S
N104 C105 1.345 . S
N104 C107 1.336 . S
C105 N103 1.335 . S
C105 N104 1.345 . S
C105 H110 0.930 . S
C106 N103 1.390 . S
C106 C107 1.346 . S
C106 H111 0.930 . S
C107 N104 1.336 . S
C107 C106 1.346 . S
C107 H114 0.929 . S
C108 O98 1.282 . S
C108 O109 1.216 . S
O109 C108 1.216 . S
H110 C105 0.930 . S
H111 C106 0.930 . S
O112 Cu92 1.959 . S
O112 C99 1.251 . S
H113 C96 0.930 . S
H114 C107 0.929 . S
Cu115 N116 1.999 . S
Cu115 O121 1.974 . S
Cu115 N126 1.985 . S
Cu115 O135 1.959 . S
N116 Cu115 1.999 . S
N116 C118 1.263 . S
N116 C120 1.389 . S
N117 C118 1.358 . S
N117 C119 1.400 . S
C118 N116 1.263 . S
C118 N117 1.358 . S
C118 H124 0.930 . S
C119 N117 1.400 . S
C119 C120 1.351 . S
C119 H136 0.930 . S
C120 N116 1.389 . S
C120 C119 1.351 . S
C120 H125 0.930 . S
O121 Cu115 1.974 . S
O121 C131 1.282 . S
C122 O123 1.261 . S
C122 O135 1.251 . S
O123 C122 1.261 . S
H124 C118 0.930 . S
H125 C120 0.930 . S
N126 Cu115 1.985 . S
N126 C128 1.335 . S
N126 C129 1.390 . S
N127 C128 1.345 . S
N127 C130 1.336 . S
C128 N126 1.335 . S
C128 N127 1.345 . S
C128 H133 0.930 . S
C129 N126 1.390 . S
C129 C130 1.346 . S
C129 H134 0.930 . S
C130 N127 1.336 . S
C130 C129 1.346 . S
C130 H137 0.929 . S
C131 O121 1.282 . S
C131 O132 1.216 . S
O132 C131 1.216 . S
H133 C128 0.930 . S
H134 C129 0.930 . S
O135 Cu115 1.959 . S
O135 C122 1.251 . S
H136 C119 0.930 . S
H137 C130 0.929 . S
Cu138 N139 1.999 . S
Cu138 O144 1.974 . S
Cu138 N149 1.985 . S
Cu138 O158 1.959 . S
N139 Cu138 1.999 . S
N139 C141 1.263 . S
N139 C143 1.389 . S
N140 C141 1.358 . S
N140 C142 1.400 . S
C141 N139 1.263 . S
C141 N140 1.358 . S
C141 H147 0.930 . S
C142 N140 1.400 . S
C142 C143 1.351 . S
C142 H159 0.930 . S
C143 N139 1.389 . S
C143 C142 1.351 . S
C143 H148 0.930 . S
O144 Cu138 1.974 . S
O144 C154 1.282 . S
C145 O146 1.261 . S
C145 O158 1.251 . S
O146 C145 1.261 . S
H147 C141 0.930 . S
H148 C143 0.930 . S
N149 Cu138 1.985 . S
N149 C151 1.335 . S
N149 C152 1.390 . S
N150 C151 1.345 . S
N150 C153 1.336 . S
C151 N149 1.335 . S
C151 N150 1.345 . S
C151 H156 0.930 . S
C152 N149 1.390 . S
C152 C153 1.346 . S
C152 H157 0.930 . S
C153 N150 1.336 . S
C153 C152 1.346 . S
C153 H160 0.929 . S
C154 O144 1.282 . S
C154 O155 1.216 . S
O155 C154 1.216 . S
H156 C151 0.930 . S
H157 C152 0.930 . S
O158 Cu138 1.959 . S
O158 C145 1.251 . S
H159 C142 0.930 . S
H160 C153 0.929 . S
Cu161 N162 1.999 . S
Cu161 O167 1.974 . S
Cu161 N172 1.985 . S
Cu161 O181 1.959 . S
N162 Cu161 1.999 . S
N162 C164 1.263 . S
N162 C166 1.389 . S
N163 C164 1.358 . S
N163 C165 1.400 . S
C164 N162 1.263 . S
C164 N163 1.358 . S
C164 H170 0.930 . S
C165 N163 1.400 . S
C165 C166 1.351 . S
C165 H182 0.930 . S
C166 N162 1.389 . S
C166 C165 1.351 . S
C166 H171 0.930 . S
O167 Cu161 1.974 . S
O167 C177 1.282 . S
C168 O169 1.261 . S
C168 O181 1.251 . S
O169 C168 1.261 . S
H170 C164 0.930 . S
H171 C166 0.930 . S
N172 Cu161 1.985 . S
N172 C174 1.335 . S
N172 C175 1.390 . S
N173 C174 1.345 . S
N173 C176 1.336 . S
C174 N172 1.335 . S
C174 N173 1.345 . S
C174 H179 0.930 . S
C175 N172 1.390 . S
C175 C176 1.346 . S
C175 H180 0.930 . S
C176 N173 1.336 . S
C176 C175 1.346 . S
C176 H183 0.929 . S
C177 O167 1.282 . S
C177 O178 1.216 . S
O178 C177 1.216 . S
H179 C174 0.930 . S
H180 C175 0.930 . S
O181 Cu161 1.959 . S
O181 C168 1.251 . S
H182 C165 0.930 . S
H183 C176 0.929 . S
Cu184 N185 1.999 . S
Cu184 O190 1.974 . S
Cu184 N195 1.985 . S
Cu184 O204 1.959 . S
N185 Cu184 1.999 . S
N185 C187 1.263 . S
N185 C189 1.389 . S
N186 C187 1.358 . S
N186 C188 1.400 . S
C187 N185 1.263 . S
C187 N186 1.358 . S
C187 H193 0.930 . S
C188 N186 1.400 . S
C188 C189 1.351 . S
C188 H205 0.930 . S
C189 N185 1.389 . S
C189 C188 1.351 . S
C189 H194 0.930 . S
O190 Cu184 1.974 . S
O190 C200 1.282 . S
C191 O192 1.261 . S
C191 O204 1.251 . S
O192 C191 1.261 . S
H193 C187 0.930 . S
H194 C189 0.930 . S
N195 Cu184 1.985 . S
N195 C197 1.335 . S
N195 C198 1.390 . S
N196 C197 1.345 . S
N196 C199 1.336 . S
C197 N195 1.335 . S
C197 N196 1.345 . S
C197 H202 0.930 . S
C198 N195 1.390 . S
C198 C199 1.346 . S
C198 H203 0.930 . S
C199 N196 1.336 . S
C199 C198 1.346 . S
C199 H206 0.929 . S
C200 O190 1.282 . S
C200 O201 1.216 . S
O201 C200 1.216 . S
H202 C197 0.930 . S
H203 C198 0.930 . S
O204 Cu184 1.959 . S
O204 C191 1.251 . S
H205 C188 0.930 . S
H206 C199 0.929 . S
Cu207 N208 1.999 . S
Cu207 O213 1.974 . S
Cu207 N218 1.985 . S
Cu207 O227 1.959 . S
N208 Cu207 1.999 . S
N208 C210 1.263 . S
N208 C212 1.389 . S
N209 C210 1.358 . S
N209 C211 1.400 . S
C210 N208 1.263 . S
C210 N209 1.358 . S
C210 H216 0.930 . S
C211 N209 1.400 . S
C211 C212 1.351 . S
C211 H228 0.930 . S
C212 N208 1.389 . S
C212 C211 1.351 . S
C212 H217 0.930 . S
O213 Cu207 1.974 . S
O213 C223 1.282 . S
C214 O215 1.261 . S
C214 O227 1.251 . S
O215 C214 1.261 . S
H216 C210 0.930 . S
H217 C212 0.930 . S
N218 Cu207 1.985 . S
N218 C220 1.335 . S
N218 C221 1.390 . S
N219 C220 1.345 . S
N219 C222 1.336 . S
C220 N218 1.335 . S
C220 N219 1.345 . S
C220 H225 0.930 . S
C221 N218 1.390 . S
C221 C222 1.346 . S
C221 H226 0.930 . S
C222 N219 1.336 . S
C222 C221 1.346 . S
C222 H229 0.929 . S
C223 O213 1.282 . S
C223 O224 1.216 . S
O224 C223 1.216 . S
H225 C220 0.930 . S
H226 C221 0.930 . S
O227 Cu207 1.959 . S
O227 C214 1.251 . S
H228 C211 0.930 . S
H229 C222 0.929 . S
Cu230 N231 1.999 . S
Cu230 O236 1.974 . S
Cu230 N241 1.985 . S
Cu230 O250 1.959 . S
N231 Cu230 1.999 . S
N231 C233 1.263 . S
N231 C235 1.389 . S
N232 C233 1.358 . S
N232 C234 1.400 . S
C233 N231 1.263 . S
C233 N232 1.358 . S
C233 H239 0.930 . S
C234 N232 1.400 . S
C234 C235 1.351 . S
C234 H251 0.930 . S
C235 N231 1.389 . S
C235 C234 1.351 . S
C235 H240 0.930 . S
O236 Cu230 1.974 . S
O236 C246 1.282 . S
C237 O238 1.261 . S
C237 O250 1.251 . S
O238 C237 1.261 . S
H239 C233 0.930 . S
H240 C235 0.930 . S
N241 Cu230 1.985 . S
N241 C243 1.335 . S
N241 C244 1.390 . S
N242 C243 1.345 . S
N242 C245 1.336 . S
C243 N241 1.335 . S
C243 N242 1.345 . S
C243 H248 0.930 . S
C244 N241 1.390 . S
C244 C245 1.346 . S
C244 H249 0.930 . S
C245 N242 1.336 . S
C245 C244 1.346 . S
C245 H252 0.929 . S
C246 O236 1.282 . S
C246 O247 1.216 . S
O247 C246 1.216 . S
H248 C243 0.930 . S
H249 C244 0.930 . S
O250 Cu230 1.959 . S
O250 C237 1.251 . S
H251 C234 0.930 . S
H252 C245 0.929 . S
Cu253 N254 1.999 . S
Cu253 O259 1.974 . S
Cu253 N264 1.985 . S
Cu253 O273 1.959 . S
N254 Cu253 1.999 . S
N254 C256 1.263 . S
N254 C258 1.389 . S
N255 C256 1.358 . S
N255 C257 1.400 . S
C256 N254 1.263 . S
C256 N255 1.358 . S
C256 H262 0.930 . S
C257 N255 1.400 . S
C257 C258 1.351 . S
C257 H274 0.930 . S
C258 N254 1.389 . S
C258 C257 1.351 . S
C258 H263 0.930 . S
O259 Cu253 1.974 . S
O259 C269 1.282 . S
C260 O261 1.261 . S
C260 O273 1.251 . S
O261 C260 1.261 . S
H262 C256 0.930 . S
H263 C258 0.930 . S
N264 Cu253 1.985 . S
N264 C266 1.335 . S
N264 C267 1.390 . S
N265 C266 1.345 . S
N265 C268 1.336 . S
C266 N264 1.335 . S
C266 N265 1.345 . S
C266 H271 0.930 . S
C267 N264 1.390 . S
C267 C268 1.346 . S
C267 H272 0.930 . S
C268 N265 1.336 . S
C268 C267 1.346 . S
C268 H275 0.929 . S
C269 O259 1.282 . S
C269 O270 1.216 . S
O270 C269 1.216 . S
H271 C266 0.930 . S
H272 C267 0.930 . S
O273 Cu253 1.959 . S
O273 C260 1.251 . S
H274 C257 0.930 . S
H275 C268 0.929 . S
H276 C282 0.930 . S
H277 C286 0.930 . S
H278 C291 0.929 . S
H279 C289 0.929 . S
H280 C284 0.929 . S
H281 C290 0.929 . S
C282 H276 0.930 . S
C282 C283 1.367 . S
C282 C290 1.378 . S
C283 C282 1.367 . S
C283 C291 1.433 . S
C284 H280 0.929 . S
C284 C286 1.378 . S
C284 C288 1.350 . S
C285 C288 1.463 1_655 S
C285 C290 1.350 . S
C285 N293 1.427 . S
C286 H277 0.930 . S
C286 C284 1.378 . S
C286 C287 1.367 . S
C287 C286 1.367 . S
C287 C289 1.433 . S
C288 C284 1.350 . S
C288 C285 1.463 1_455 S
C288 N292 1.427 . S
C289 H279 0.929 . S
C289 C287 1.433 . S
C289 N292 1.384 . S
C290 H281 0.929 . S
C290 C282 1.378 . S
C290 C285 1.350 . S
C291 H278 0.929 . S
C291 C283 1.433 . S
C291 N293 1.384 . S
N292 C288 1.427 . S
N292 C289 1.384 . S
N293 C285 1.427 . S
N293 C291 1.384 . S
H294 C300 0.930 . S
H295 C304 0.930 . S
H296 C309 0.929 . S
H297 C307 0.929 . S
H298 C302 0.929 . S
H299 C308 0.929 . S
C300 H294 0.930 . S
C300 C301 1.367 . S
C300 C308 1.378 . S
C301 C300 1.367 . S
C301 C309 1.433 . S
C302 H298 0.929 . S
C302 C304 1.378 . S
C302 C306 1.350 . S
C303 C306 1.463 1_455 S
C303 C308 1.350 . S
C303 N311 1.427 1_455 S
C304 H295 0.930 . S
C304 C302 1.378 . S
C304 C305 1.367 . S
C305 C304 1.367 . S
C305 C307 1.433 . S
C306 C302 1.350 . S
C306 C303 1.463 1_655 S
C306 N310 1.427 1_655 S
C307 H297 0.929 . S
C307 C305 1.433 . S
C307 N310 1.384 1_655 S
C308 H299 0.929 . S
C308 C300 1.378 . S
C308 C303 1.350 . S
C309 H296 0.929 . S
C309 C301 1.433 . S
C309 N311 1.384 1_455 S
N310 C306 1.427 1_455 S
N310 C307 1.384 1_455 S
N311 C303 1.427 1_655 S
N311 C309 1.384 1_655 S
H312 C318 0.930 . S
H313 C322 0.930 . S
H314 C327 0.929 . S
H315 C325 0.929 . S
H316 C320 0.929 . S
H317 C326 0.929 . S
C318 H312 0.930 . S
C318 C319 1.367 . S
C318 C326 1.377 1_565 S
C319 C318 1.367 . S
C319 C327 1.433 . S
C320 H316 0.929 . S
C320 C322 1.377 1_565 S
C320 C324 1.350 1_565 S
C321 C324 1.463 1_565 S
C321 C326 1.350 1_565 S
C321 N329 1.427 . S
C322 H313 0.930 . S
C322 C320 1.377 1_545 S
C322 C323 1.367 . S
C323 C322 1.367 . S
C323 C325 1.433 . S
C324 C320 1.350 1_545 S
C324 C321 1.463 1_545 S
C324 N328 1.427 . S
C325 H315 0.929 . S
C325 C323 1.433 . S
C325 N328 1.384 . S
C326 H317 0.929 . S
C326 C318 1.377 1_545 S
C326 C321 1.350 1_545 S
C327 H314 0.929 . S
C327 C319 1.433 . S
C327 N329 1.384 . S
N328 C324 1.427 . S
N328 C325 1.384 . S
N329 C321 1.427 . S
N329 C327 1.384 . S
H330 C336 0.930 . S
H331 C340 0.930 . S
H332 C345 0.929 . S
H333 C343 0.929 . S
H334 C338 0.902 1_565 S
H335 C344 0.902 1_545 S
C336 H330 0.930 . S
C336 C337 1.367 . S
C336 C344 1.397 . S
C337 C336 1.367 . S
C337 C345 1.433 . S
C338 H334 0.902 1_545 S
C338 C340 1.397 . S
C338 C342 1.359 . S
C339 C342 1.463 1_565 S
C339 C344 1.359 . S
C339 N347 1.427 . S
C340 H331 0.930 . S
C340 C338 1.397 . S
C340 C341 1.367 . S
C341 C340 1.367 . S
C341 C343 1.433 . S
C342 C338 1.359 . S
C342 C339 1.463 1_545 S
C342 N346 1.427 . S
C343 H333 0.929 . S
C343 C341 1.433 . S
C343 N346 1.384 . S
C344 H335 0.902 1_565 S
C344 C336 1.397 . S
C344 C339 1.359 . S
C345 H332 0.929 . S
C345 C337 1.433 . S
C345 N347 1.384 . S
N346 C342 1.427 . S
N346 C343 1.384 . S
N347 C339 1.427 . S
N347 C345 1.384 . S
H348 C354 0.930 1_554 S
H349 C358 0.930 1_556 S
H350 C363 0.929 . S
H351 C361 0.929 . S
H352 C356 0.929 . S
H353 C362 0.929 . S
C354 H348 0.930 1_556 S
C354 C355 1.367 . S
C354 C362 1.378 1_556 S
C355 C354 1.367 . S
C355 C363 1.433 . S
C356 H352 0.929 . S
C356 C358 1.378 1_556 S
C356 C360 1.350 1_556 S
C357 C360 1.463 1_556 S
C357 C362 1.350 1_556 S
C357 N365 1.427 . S
C358 H349 0.930 1_554 S
C358 C356 1.378 1_554 S
C358 C359 1.367 . S
C359 C358 1.367 . S
C359 C361 1.433 . S
C360 C356 1.350 1_554 S
C360 C357 1.463 1_554 S
C360 N364 1.427 . S
C361 H351 0.929 . S
C361 C359 1.433 . S
C361 N364 1.384 . S
C362 H353 0.929 . S
C362 C354 1.378 1_554 S
C362 C357 1.350 1_554 S
C363 H350 0.929 . S
C363 C355 1.433 . S
C363 N365 1.384 . S
N364 C360 1.427 . S
N364 C361 1.384 . S
N365 C357 1.427 . S
N365 C363 1.384 . S
H366 C372 0.930 . S
H367 C376 0.930 . S
H368 C381 0.929 . S
H369 C379 0.929 . S
H370 C374 0.929 . S
H371 C380 0.929 . S
C372 H366 0.930 . S
C372 C373 1.367 . S
C372 C380 1.378 1_556 S
C373 C372 1.367 . S
C373 C381 1.433 . S
C374 H370 0.929 . S
C374 C376 1.378 1_556 S
C374 C378 1.350 1_556 S
C375 C378 1.463 1_556 S
C375 C380 1.350 1_556 S
C375 N383 1.427 . S
C376 H367 0.930 . S
C376 C374 1.378 1_554 S
C376 C377 1.367 . S
C377 C376 1.367 . S
C377 C379 1.433 . S
C378 C374 1.350 1_554 S
C378 C375 1.463 1_554 S
C378 N382 1.427 . S
C379 H369 0.929 . S
C379 C377 1.433 . S
C379 N382 1.384 . S
C380 H371 0.929 . S
C380 C372 1.378 1_554 S
C380 C375 1.350 1_554 S
C381 H368 0.929 . S
C381 C373 1.433 . S
C381 N383 1.384 . S
N382 C378 1.427 . S
N382 C379 1.384 . S
N383 C375 1.427 . S
N383 C381 1.384 . S
H384 C390 0.930 . S
H385 C394 0.930 . S
H386 C399 0.929 . S
H387 C397 0.929 . S
H388 C392 0.929 . S
H389 C398 0.929 . S
C390 H384 0.930 . S
C390 C391 1.367 . S
C390 C398 1.378 . S
C391 C390 1.367 . S
C391 C399 1.433 . S
C392 H388 0.929 . S
C392 C394 1.378 . S
C392 C396 1.350 . S
C393 C396 1.463 . S
C393 C398 1.350 . S
C393 N401 1.427 . S
C394 H385 0.930 . S
C394 C392 1.378 . S
C394 C395 1.367 . S
C395 C394 1.367 . S
C395 C397 1.433 . S
C396 C392 1.350 . S
C396 C393 1.463 . S
C396 N400 1.427 . S
C397 H387 0.929 . S
C397 C395 1.433 . S
C397 N400 1.384 . S
C398 H389 0.929 . S
C398 C390 1.378 . S
C398 C393 1.350 . S
C399 H386 0.929 . S
C399 C391 1.433 . S
C399 N401 1.384 . S
N400 C396 1.427 . S
N400 C397 1.384 . S
N401 C393 1.427 . S
N401 C399 1.384 . S
H402 C408 0.930 . S
H403 C412 0.930 . S
H404 C417 0.929 . S
H405 C415 0.929 . S
H406 C410 0.929 . S
H407 C416 0.929 . S
C408 H402 0.930 . S
C408 C409 1.367 . S
C408 C416 1.378 . S
C409 C408 1.367 . S
C409 C417 1.433 . S
C410 H406 0.929 . S
C410 C412 1.378 . S
C410 C414 1.350 . S
C411 C414 1.463 . S
C411 C416 1.350 . S
C411 N419 1.427 . S
C412 H403 0.930 . S
C412 C410 1.378 . S
C412 C413 1.367 . S
C413 C412 1.367 . S
C413 C415 1.433 . S
C414 C410 1.350 . S
C414 C411 1.463 . S
C414 N418 1.427 . S
C415 H405 0.929 . S
C415 C413 1.433 . S
C415 N418 1.384 . S
C416 H407 0.929 . S
C416 C408 1.378 . S
C416 C411 1.350 . S
C417 H404 0.929 . S
C417 C409 1.433 . S
C417 N419 1.384 . S
N418 C414 1.427 . S
N418 C415 1.384 . S
N419 C411 1.427 . S
N419 C417 1.384 . S
H420 C426 0.930 . S
H421 C430 0.930 . S
H422 C435 0.929 . S
H423 C433 0.929 . S
H424 C428 0.929 . S
H425 C434 0.929 . S
C426 H420 0.930 . S
C426 C427 1.367 . S
C426 C434 1.378 . S
C427 C426 1.367 . S
C427 C435 1.433 . S
C428 H424 0.929 . S
C428 C430 1.378 . S
C428 C432 1.350 . S
C429 C432 1.463 . S
C429 C434 1.350 . S
C429 N437 1.427 . S
C430 H421 0.930 . S
C430 C428 1.378 . S
C430 C431 1.367 . S
C431 C430 1.367 . S
C431 C433 1.433 . S
C432 C428 1.350 . S
C432 C429 1.463 . S
C432 N436 1.427 . S
C433 H423 0.929 . S
C433 C431 1.433 . S
C433 N436 1.384 . S
C434 H425 0.929 . S
C434 C426 1.378 . S
C434 C429 1.350 . S
C435 H422 0.929 . S
C435 C427 1.433 . S
C435 N437 1.384 . S
N436 C432 1.427 . S
N436 C433 1.384 . S
N437 C429 1.427 . S
N437 C435 1.384 . S
H438 C444 0.930 . S
H439 C448 0.930 . S
H440 C453 0.929 . S
H441 C451 0.929 . S
H442 C446 0.929 . S
H443 C452 0.929 . S
C444 H438 0.930 . S
C444 C445 1.367 . S
C444 C452 1.378 . S
C445 C444 1.367 . S
C445 C453 1.433 . S
C446 H442 0.929 . S
C446 C448 1.378 . S
C446 C450 1.350 . S
C447 C450 1.463 . S
C447 C452 1.350 . S
C447 N455 1.427 . S
C448 H439 0.930 . S
C448 C446 1.378 . S
C448 C449 1.367 . S
C449 C448 1.367 . S
C449 C451 1.433 . S
C450 C446 1.350 . S
C450 C447 1.463 . S
C450 N454 1.427 . S
C451 H441 0.929 . S
C451 C449 1.433 . S
C451 N454 1.384 . S
C452 H443 0.929 . S
C452 C444 1.378 . S
C452 C447 1.350 . S
C453 H440 0.929 . S
C453 C445 1.433 . S
C453 N455 1.384 . S
N454 C450 1.427 . S
N454 C451 1.384 . S
N455 C447 1.427 . S
N455 C453 1.384 . S
H456 C462 0.930 . S
H457 C466 0.930 . S
H458 C471 0.929 . S
H459 C469 0.929 . S
H460 C464 0.929 . S
H461 C470 0.929 . S
C462 H456 0.930 . S
C462 C463 1.367 . S
C462 C470 1.378 . S
C463 C462 1.367 . S
C463 C471 1.433 . S
C464 H460 0.929 . S
C464 C466 1.378 . S
C464 C468 1.350 . S
C465 C468 1.463 . S
C465 C470 1.350 . S
C465 N473 1.427 . S
C466 H457 0.930 . S
C466 C464 1.378 . S
C466 C467 1.367 . S
C467 C466 1.367 . S
C467 C469 1.433 . S
C468 C464 1.350 . S
C468 C465 1.463 . S
C468 N472 1.427 . S
C469 H459 0.929 . S
C469 C467 1.433 . S
C469 N472 1.384 . S
C470 H461 0.929 . S
C470 C462 1.378 . S
C470 C465 1.350 . S
C471 H458 0.929 . S
C471 C463 1.433 . S
C471 N473 1.384 . S
N472 C468 1.427 . S
N472 C469 1.384 . S
N473 C465 1.427 . S
N473 C471 1.384 . S
H474 C480 0.930 . S
H475 C484 0.930 . S
H476 C489 0.929 . S
H477 C487 0.929 . S
H478 C482 0.929 . S
H479 C488 0.929 . S
C480 H474 0.930 . S
C480 C481 1.367 . S
C480 C488 1.378 . S
C481 C480 1.367 . S
C481 C489 1.433 . S
C482 H478 0.929 . S
C482 C484 1.378 . S
C482 C486 1.350 . S
C483 C486 1.463 . S
C483 C488 1.350 . S
C483 N491 1.427 . S
C484 H475 0.930 . S
C484 C482 1.378 . S
C484 C485 1.367 . S
C485 C484 1.367 . S
C485 C487 1.433 . S
C486 C482 1.350 . S
C486 C483 1.463 . S
C486 N490 1.427 . S
C487 H477 0.929 . S
C487 C485 1.433 . S
C487 N490 1.384 . S
C488 H479 0.929 . S
C488 C480 1.378 . S
C488 C483 1.350 . S
C489 H476 0.929 . S
C489 C481 1.433 . S
C489 N491 1.384 . S
N490 C486 1.427 . S
N490 C487 1.384 . S
N491 C483 1.427 . S
N491 C489 1.384 . S
H492 C498 0.930 . S
H493 C502 0.930 . S
H494 C507 0.929 . S
H495 C505 0.929 . S
H496 C500 0.929 . S
H497 C506 0.929 . S
C498 H492 0.930 . S
C498 C499 1.367 . S
C498 C506 1.378 . S
C499 C498 1.367 . S
C499 C507 1.433 . S
C500 H496 0.929 . S
C500 C502 1.378 . S
C500 C504 1.350 . S
C501 C504 1.463 . S
C501 C506 1.350 . S
C501 N509 1.427 . S
C502 H493 0.930 . S
C502 C500 1.378 . S
C502 C503 1.367 . S
C503 C502 1.367 . S
C503 C505 1.433 . S
C504 C500 1.350 . S
C504 C501 1.463 . S
C504 N508 1.427 . S
C505 H495 0.929 . S
C505 C503 1.433 . S
C505 N508 1.384 . S
C506 H497 0.929 . S
C506 C498 1.378 . S
C506 C501 1.350 . S
C507 H494 0.929 . S
C507 C499 1.433 . S
C507 N509 1.384 . S
N508 C504 1.427 . S
N508 C505 1.384 . S
N509 C501 1.427 . S
N509 C507 1.384 . S
H510 C516 0.930 . S
H511 C520 0.930 . S
H512 C525 0.929 . S
H513 C523 0.929 . S
H514 C518 0.929 . S
H515 C524 0.929 . S
C516 H510 0.930 . S
C516 C517 1.367 . S
C516 C524 1.378 . S
C517 C516 1.367 . S
C517 C525 1.433 . S
C518 H514 0.929 . S
C518 C520 1.378 . S
C518 C522 1.350 . S
C519 C522 1.463 . S
C519 C524 1.350 . S
C519 N527 1.427 . S
C520 H511 0.930 . S
C520 C518 1.378 . S
C520 C521 1.367 . S
C521 C520 1.367 . S
C521 C523 1.433 . S
C522 C518 1.350 . S
C522 C519 1.463 . S
C522 N526 1.427 . S
C523 H513 0.929 . S
C523 C521 1.433 . S
C523 N526 1.384 . S
C524 H515 0.929 . S
C524 C516 1.378 . S
C524 C519 1.350 . S
C525 H512 0.929 . S
C525 C517 1.433 . S
C525 N527 1.384 . S
N526 C522 1.427 . S
N526 C523 1.384 . S
N527 C519 1.427 . S
N527 C525 1.384 . S
H528 C534 0.930 . S
H529 C538 0.930 . S
H530 C543 0.929 . S
H531 C541 0.929 . S
H532 C536 0.929 . S
H533 C542 0.929 . S
C534 H528 0.930 . S
C534 C535 1.367 . S
C534 C542 1.378 . S
C535 C534 1.367 . S
C535 C543 1.433 . S
C536 H532 0.929 . S
C536 C538 1.378 . S
C536 C540 1.350 . S
C537 C540 1.463 . S
C537 C542 1.350 . S
C537 N545 1.427 . S
C538 H529 0.930 . S
C538 C536 1.378 . S
C538 C539 1.367 . S
C539 C538 1.367 . S
C539 C541 1.433 . S
C540 C536 1.350 . S
C540 C537 1.463 . S
C540 N544 1.427 . S
C541 H531 0.929 . S
C541 C539 1.433 . S
C541 N544 1.384 . S
C542 H533 0.929 . S
C542 C534 1.378 . S
C542 C537 1.350 . S
C543 H530 0.929 . S
C543 C535 1.433 . S
C543 N545 1.384 . S
N544 C540 1.427 . S
N544 C541 1.384 . S
N545 C537 1.427 . S
N545 C543 1.384 . S
H546 C552 0.930 . S
H547 C556 0.930 . S
H548 C561 0.929 . S
H549 C559 0.929 . S
H550 C554 0.929 . S
H551 C560 0.929 . S
C552 H546 0.930 . S
C552 C553 1.367 . S
C552 C560 1.378 . S
C553 C552 1.367 . S
C553 C561 1.433 . S
C554 H550 0.929 . S
C554 C556 1.378 . S
C554 C558 1.350 . S
C555 C558 1.463 . S
C555 C560 1.350 . S
C555 N563 1.427 . S
C556 H547 0.930 . S
C556 C554 1.378 . S
C556 C557 1.367 . S
C557 C556 1.367 . S
C557 C559 1.433 . S
C558 C554 1.350 . S
C558 C555 1.463 . S
C558 N562 1.427 . S
C559 H549 0.929 . S
C559 C557 1.433 . S
C559 N562 1.384 . S
C560 H551 0.929 . S
C560 C552 1.378 . S
C560 C555 1.350 . S
C561 H548 0.929 . S
C561 C553 1.433 . S
C561 N563 1.384 . S
N562 C558 1.427 . S
N562 C559 1.384 . S
N563 C555 1.427 . S
N563 C561 1.384 . S
H564 C570 0.930 . S
H565 C574 0.930 . S
H566 C579 0.929 . S
H567 C577 0.929 . S
H568 C572 0.929 . S
H569 C578 0.929 . S
C570 H564 0.930 . S
C570 C571 1.367 . S
C570 C578 1.378 . S
C571 C570 1.367 . S
C571 C579 1.433 . S
C572 H568 0.929 . S
C572 C574 1.378 . S
C572 C576 1.350 . S
C573 C576 1.463 . S
C573 C578 1.350 . S
C573 N581 1.427 . S
C574 H565 0.930 . S
C574 C572 1.378 . S
C574 C575 1.367 . S
C575 C574 1.367 . S
C575 C577 1.433 . S
C576 C572 1.350 . S
C576 C573 1.463 . S
C576 N580 1.427 . S
C577 H567 0.929 . S
C577 C575 1.433 . S
C577 N580 1.384 . S
C578 H569 0.929 . S
C578 C570 1.378 . S
C578 C573 1.350 . S
C579 H566 0.929 . S
C579 C571 1.433 . S
C579 N581 1.384 . S
N580 C576 1.427 . S
N580 C577 1.384 . S
N581 C573 1.427 . S
N581 C579 1.384 . S
H582 C588 0.930 . S
H583 C592 0.930 . S
H584 C597 0.929 . S
H585 C595 0.929 . S
H586 C590 0.929 . S
H587 C596 0.929 . S
C588 H582 0.930 . S
C588 C589 1.367 . S
C588 C596 1.378 . S
C589 C588 1.367 . S
C589 C597 1.433 . S
C590 H586 0.929 . S
C590 C592 1.378 . S
C590 C594 1.350 . S
C591 C594 1.463 . S
C591 C596 1.350 . S
C591 N599 1.427 . S
C592 H583 0.930 . S
C592 C590 1.378 . S
C592 C593 1.367 . S
C593 C592 1.367 . S
C593 C595 1.433 . S
C594 C590 1.350 . S
C594 C591 1.463 . S
C594 N598 1.427 . S
C595 H585 0.929 . S
C595 C593 1.433 . S
C595 N598 1.384 . S
C596 H587 0.929 . S
C596 C588 1.378 . S
C596 C591 1.350 . S
C597 H584 0.929 . S
C597 C589 1.433 . S
C597 N599 1.384 . S
N598 C594 1.427 . S
N598 C595 1.384 . S
N599 C591 1.427 . S
N599 C597 1.384 . S
H600 C606 0.930 . S
H601 C610 0.930 . S
H602 C615 0.929 . S
H603 C613 0.929 . S
H604 C608 0.929 1_545 S
H605 C614 0.929 1_565 S
C606 H600 0.930 . S
C606 C607 1.367 . S
C606 C614 1.378 . S
C607 C606 1.367 . S
C607 C615 1.433 . S
C608 H604 0.929 1_565 S
C608 C610 1.378 . S
C608 C612 1.350 . S
C609 C612 1.463 1_445 S
C609 C614 1.350 . S
C609 N617 1.427 . S
C610 H601 0.930 . S
C610 C608 1.378 . S
C610 C611 1.367 . S
C611 C610 1.367 . S
C611 C613 1.433 . S
C612 C608 1.350 . S
C612 C609 1.463 1_665 S
C612 N616 1.427 . S
C613 H603 0.929 . S
C613 C611 1.433 . S
C613 N616 1.384 . S
C614 H605 0.929 1_545 S
C614 C606 1.378 . S
C614 C609 1.350 . S
C615 H602 0.929 . S
C615 C607 1.433 . S
C615 N617 1.384 . S
N616 C612 1.427 . S
N616 C613 1.384 . S
N617 C609 1.427 . S
N617 C615 1.384 . S
H618 C624 0.930 . S
H619 C628 0.930 . S
H620 C633 0.929 . S
H621 C631 0.929 . S
H622 C626 0.929 . S
H623 C632 0.929 . S
C624 H618 0.930 . S
C624 C625 1.367 . S
C624 C632 1.378 . S
C625 C624 1.367 . S
C625 C633 1.433 . S
C626 H622 0.929 . S
C626 C628 1.378 . S
C626 C630 1.350 . S
C627 C630 1.463 1_645 S
C627 C632 1.350 . S
C627 N635 1.427 . S
C628 H619 0.930 . S
C628 C626 1.378 . S
C628 C629 1.367 . S
C629 C628 1.367 . S
C629 C631 1.433 . S
C630 C626 1.350 . S
C630 C627 1.463 1_465 S
C630 N634 1.427 . S
C631 H621 0.929 . S
C631 C629 1.433 . S
C631 N634 1.384 . S
C632 H623 0.929 . S
C632 C624 1.378 . S
C632 C627 1.350 . S
C633 H620 0.929 . S
C633 C625 1.433 . S
C633 N635 1.384 . S
N634 C630 1.427 . S
N634 C631 1.384 . S
N635 C627 1.427 . S
N635 C633 1.384 . S
H636 C642 0.930 . S
H637 C646 0.930 . S
H638 C651 0.929 . S
H639 C649 0.929 . S
H640 C644 0.929 . S
H641 C650 0.929 . S
C642 H636 0.930 . S
C642 C643 1.367 . S
C642 C650 1.378 . S
C643 C642 1.367 . S
C643 C651 1.433 . S
C644 H640 0.929 . S
C644 C646 1.378 . S
C644 C648 1.350 . S
C645 C648 1.463 1_566 S
C645 C650 1.350 . S
C645 N653 1.427 . S
C646 H637 0.930 . S
C646 C644 1.378 . S
C646 C647 1.367 . S
C647 C646 1.367 . S
C647 C649 1.433 . S
C648 C644 1.350 . S
C648 C645 1.463 1_544 S
C648 N652 1.427 . S
C649 H639 0.929 . S
C649 C647 1.433 . S
C649 N652 1.384 . S
C650 H641 0.929 . S
C650 C642 1.378 . S
C650 C645 1.350 . S
C651 H638 0.929 . S
C651 C643 1.433 . S
C651 N653 1.384 . S
N652 C648 1.427 . S
N652 C649 1.384 . S
N653 C645 1.427 . S
N653 C651 1.384 . S
H654 C660 0.930 . S
H655 C664 0.930 . S
H656 C669 0.929 . S
H657 C667 0.929 . S
H658 C662 0.929 1_565 S
H659 C668 0.929 1_545 S
C660 H654 0.930 . S
C660 C661 1.367 . S
C660 C668 1.378 . S
C661 C660 1.367 . S
C661 C669 1.433 . S
C662 H658 0.929 1_545 S
C662 C664 1.378 . S
C662 C666 1.350 . S
C663 C666 1.463 1_564 S
C663 C668 1.350 . S
C663 N671 1.429 . S
C664 H655 0.930 . S
C664 C662 1.378 . S
C664 C665 1.367 . S
C665 C664 1.367 . S
C665 C667 1.433 . S
C666 C662 1.350 . S
C666 C663 1.463 1_546 S
C666 N670 1.429 . S
C667 H657 0.929 . S
C667 C665 1.433 . S
C667 N670 1.386 . S
C668 H659 0.929 1_565 S
C668 C660 1.378 . S
C668 C663 1.350 . S
C669 H656 0.929 . S
C669 C661 1.433 . S
C669 N671 1.386 . S
N670 C666 1.429 . S
N670 C667 1.386 . S
N671 C663 1.429 . S
N671 C669 1.386 . S
H672 C678 0.930 . S
H673 C682 0.930 . S
H674 C687 0.929 . S
H675 C685 0.929 . S
H676 C680 0.929 1_655 S
H677 C686 0.929 1_455 S
C678 H672 0.930 . S
C678 C679 1.367 . S
C678 C686 1.378 . S
C679 C678 1.367 . S
C679 C687 1.433 . S
C680 H676 0.929 1_455 S
C680 C682 1.378 . S
C680 C684 1.350 . S
C681 C684 1.463 1_656 S
C681 C686 1.350 . S
C681 N689 1.427 . S
C682 H673 0.930 . S
C682 C680 1.378 . S
C682 C683 1.367 . S
C683 C682 1.367 . S
C683 C685 1.433 . S
C684 C680 1.350 . S
C684 C681 1.463 1_454 S
C684 N688 1.427 . S
C685 H675 0.929 . S
C685 C683 1.433 . S
C685 N688 1.384 . S
C686 H677 0.929 1_655 S
C686 C678 1.378 . S
C686 C681 1.350 . S
C687 H674 0.929 . S
C687 C679 1.433 . S
C687 N689 1.384 . S
N688 C684 1.427 . S
N688 C685 1.384 . S
N689 C681 1.427 . S
N689 C687 1.384 . S
H690 C696 0.930 . S
H691 C700 0.930 . S
H692 C705 0.929 . S
H693 C703 0.929 . S
H694 C698 0.929 . S
H695 C704 0.929 . S
C696 H690 0.930 . S
C696 C697 1.367 . S
C696 C704 1.378 . S
C697 C696 1.367 . S
C697 C705 1.433 . S
C698 H694 0.929 . S
C698 C700 1.378 . S
C698 C702 1.350 . S
C699 C702 1.463 1_456 S
C699 C704 1.350 . S
C699 N707 1.427 . S
C700 H691 0.930 . S
C700 C698 1.378 . S
C700 C701 1.367 . S
C701 C700 1.367 . S
C701 C703 1.433 . S
C702 C698 1.350 . S
C702 C699 1.463 1_654 S
C702 N706 1.427 . S
C703 H693 0.929 . S
C703 C701 1.433 . S
C703 N706 1.384 . S
C704 H695 0.929 . S
C704 C696 1.378 . S
C704 C699 1.350 . S
C705 H692 0.929 . S
C705 C697 1.433 . S
C705 N707 1.384 . S
N706 C702 1.427 . S
N706 C703 1.384 . S
N707 C699 1.427 . S
N707 C705 1.384 . S
C283 N81 1.141 . S
C287 N12 1.148 . S
C301 N58 1.142 . S
C305 N35 1.146 . S
C319 N127 1.143 . S
C323 N104 1.149 . S
C337 N150 1.149 . S
C341 N173 1.143 . S
C355 N219 1.146 . S
C359 N196 1.146 . S
C373 N242 1.144 . S
C377 N265 1.148 . S
C391 N2 1.490 . S
C395 C177 1.416 . S
C409 C154 1.422 . S
C413 N25 1.496 . S
C427 C131 1.422 . S
C431 N48 1.495 . S
C445 C108 1.420 . S
C449 N71 1.493 . S
C463 N94 1.497 . S
C467 C269 1.407 . S
C481 C200 1.401 . S
C485 N117 1.486 . S
C499 C246 1.417 . S
C503 N140 1.501 . S
C517 N163 1.501 . S
C521 C223 1.418 . S
C535 C62 1.410 . S
C539 N186 1.499 . S
C553 C16 1.403 . S
C557 N209 1.485 . S
C571 N232 1.486 . S
C575 C39 1.400 . S
C589 C85 1.417 . S
C593 N255 1.490 . S
C607 C7 2.082 . S
C611 C30 2.079 . S
C625 C76 2.082 . S
C629 C53 2.075 . S
C643 C145 2.078 . S
C647 C99 2.072 . S
C661 C122 2.072 . S
C665 C168 2.073 . S
C679 C237 2.082 . S
C683 C191 2.079 . S
C697 C214 2.072 . S
C701 C260 2.080 . S
