# Generated by pormake.
# Topology lvt, (4)-cn, num edge types: 1
# Building blocks:
#     Node 0, Type 0, BuildingBlock: KOZSID_clean_sbu_0, # of connection points: 4
#     Node 1, Type 0, BuildingBlock: KOZSID_clean_sbu_0, # of connection points: 4
#     Node 2, Type 0, BuildingBlock: KOZSID_clean_sbu_0, # of connection points: 4
#     Node 3, Type 0, BuildingBlock: KOZSID_clean_sbu_0, # of connection points: 4
#     Node 4, Type 0, BuildingBlock: KOZSID_clean_sbu_0, # of connection points: 4
#     Node 5, Type 0, BuildingBlock: KOZSID_clean_sbu_0, # of connection points: 4
#     Node 6, Type 0, BuildingBlock: KOZSID_clean_sbu_0, # of connection points: 4
#     Node 7, Type 0, BuildingBlock: KOZSID_clean_sbu_0, # of connection points: 4
#     Edge 8, Type (0, 0), BuildingBlock: EZIPEK_clean_linker_0, # of connection points: 2
#     Edge 9, Type (0, 0), BuildingBlock: EZIPEK_clean_linker_0, # of connection points: 2
#     Edge 10, Type (0, 0), BuildingBlock: EZIPEK_clean_linker_0, # of connection points: 2
#     Edge 11, Type (0, 0), BuildingBlock: EZIPEK_clean_linker_0, # of connection points: 2
#     Edge 12, Type (0, 0), BuildingBlock: EZIPEK_clean_linker_0, # of connection points: 2
#     Edge 13, Type (0, 0), BuildingBlock: EZIPEK_clean_linker_0, # of connection points: 2
#     Edge 14, Type (0, 0), BuildingBlock: EZIPEK_clean_linker_0, # of connection points: 2
#     Edge 15, Type (0, 0), BuildingBlock: EZIPEK_clean_linker_0, # of connection points: 2
#     Edge 16, Type (0, 0), BuildingBlock: EZIPEK_clean_linker_0, # of connection points: 2
#     Edge 17, Type (0, 0), BuildingBlock: EZIPEK_clean_linker_0, # of connection points: 2
#     Edge 18, Type (0, 0), BuildingBlock: EZIPEK_clean_linker_0, # of connection points: 2
#     Edge 19, Type (0, 0), BuildingBlock: EZIPEK_clean_linker_0, # of connection points: 2
#     Edge 20, Type (0, 0), BuildingBlock: EZIPEK_clean_linker_0, # of connection points: 2
#     Edge 21, Type (0, 0), BuildingBlock: EZIPEK_clean_linker_0, # of connection points: 2
#     Edge 22, Type (0, 0), BuildingBlock: EZIPEK_clean_linker_0, # of connection points: 2
#     Edge 23, Type (0, 0), BuildingBlock: EZIPEK_clean_linker_0, # of connection points: 2
# Relax obj value: 0.006
# Max RMSD: 0.039
# Mean RMSD: 0.026
data_MOF--net-lvt--node1-KOZSID_clean_sbu_0--edge1-EZIPEK_clean_linker_0
_symmetry_space_group_name_H-M    P1
_symmetry_Int_Tables_number       1
_symmetry_cell_setting            triclinic
loop_
_symmetry_equiv_pos_as_xyz
'x, y, z'
_cell_length_a     33.524079
_cell_length_b     33.590804
_cell_length_c     30.628892
_cell_angle_alpha  81.990779
_cell_angle_beta   93.621257
_cell_angle_gamma 86.17606
loop_
_atom_site_label
_atom_site_type_symbol
_atom_site_fract_x
_atom_site_fract_y
_atom_site_fract_z
_atom_type_partial_charge
C0 C 0.06138 0.92377 0.52451 0.0
C1 C 0.07695 0.89111 0.50608 0.0
C2 C 0.05856 0.894 0.4645 0.0
C3 C 0.03315 0.9283 0.45968 0.0
N4 N 0.03415 0.94725 0.49567 0.0
Co5 Co 1.00462 0.99981 0.50044 0.0
N6 N 0.96839 0.99718 0.44673 0.0
C7 C 0.97188 0.96959 0.41895 0.0
C8 C 0.9389 0.97052 0.38986 0.0
C9 C 0.9134 1.00129 0.39906 0.0
C10 C 0.93295 0.01845 0.43233 0.0
N11 N 0.97627 0.05335 0.50411 0.0
C12 C 0.94586 0.07473 0.47743 0.0
C13 C 0.94262 0.11472 0.48503 0.0
C14 C 0.97067 0.11816 0.5182 0.0
C15 C 0.9903 0.08071 0.52836 0.0
N16 N 0.03993 1.00166 0.55505 0.0
C17 C 0.04403 0.03396 0.57598 0.0
C18 C 0.06744 0.02556 0.61496 0.0
C19 C 0.07931 0.98541 0.61874 0.0
C20 C 0.06302 0.97175 0.58123 0.0
N21 N 0.0436 0.02803 0.46382 0.0
C22 C 0.09882 0.07283 0.41595 0.0
C23 C 0.11191 0.0433 0.45183 0.0
C24 C 0.08395 0.02093 0.47483 0.0
C25 C 0.0577 0.07878 0.40383 0.0
C26 C 0.03074 0.05634 0.42821 0.0
N27 N 0.96588 0.97154 0.5373 0.0
C28 C 0.93003 0.96323 0.60374 0.0
C29 C 0.91354 0.92857 0.59187 0.0
C30 C 0.92358 0.91626 0.55184 0.0
C31 C 0.95006 0.93765 0.52555 0.0
C32 C 0.9555 0.98454 0.57579 0.0
H33 H 0.9579 0.9263 0.49589 0.0
H34 H 0.96717 0.01129 0.58569 0.0
H35 H 0.09506 0.9982 0.50186 0.0
H36 H 0.99944 0.06254 0.41841 0.0
C37 C 1.00366 0.93988 0.42521 0.0
C38 C 0.07416 0.93192 0.56896 0.0
C39 C 0.92125 0.05907 0.44267 0.0
C40 C 0.02157 0.07011 0.56091 0.0
H41 H 0.09915 0.86751 0.52113 0.0
H42 H 0.06226 0.87283 0.44119 0.0
H43 H 0.93361 0.95065 0.3655 0.0
H44 H 0.88471 0.01138 0.38146 0.0
H45 H 0.92318 0.1396 0.46767 0.0
H46 H 0.97667 0.14507 0.53247 0.0
H47 H 0.07418 0.04589 0.63843 0.0
H48 H 0.09855 0.96847 0.64559 0.0
H49 H 0.14356 0.03752 0.46193 0.0
H50 H 0.04642 0.10119 0.37612 0.0
H51 H 0.92309 0.9739 0.63437 0.0
H52 H 0.91155 0.88973 0.54128 0.0
C53 C 0.18106 0.80057 0.72453 0.0
C54 C 0.14564 0.81136 0.74259 0.0
C55 C 0.14485 0.78658 0.78168 0.0
C56 C 0.17981 0.76242 0.78549 0.0
N57 N 0.20334 0.77066 0.75162 0.0
Co58 Co 0.25674 0.74256 0.7444 0.0
N59 N 0.25602 0.70706 0.80288 0.0
C60 C 0.22687 0.70741 0.83146 0.0
C61 C 0.23623 0.68294 0.87088 0.0
C62 C 0.27391 0.66626 0.8677 0.0
C63 C 0.28522 0.68119 0.82604 0.0
N64 N 0.30954 0.71363 0.73673 0.0
C65 C 0.33237 0.68472 0.7646 0.0
C66 C 0.36666 0.67213 0.74564 0.0
C67 C 0.36595 0.69452 0.7048 0.0
C68 C 0.33127 0.71919 0.701 0.0
N69 N 0.25817 0.77918 0.68677 0.0
C70 C 0.28789 0.7795 0.65882 0.0
C71 C 0.27964 0.80603 0.62061 0.0
C72 C 0.2424 0.82367 0.6242 0.0
C73 C 0.23004 0.80707 0.66478 0.0
N74 N 0.28497 0.7822 0.77557 0.0
C75 C 0.32843 0.83347 0.8235 0.0
C76 C 0.34141 0.82284 0.78391 0.0
C77 C 0.31956 0.79721 0.76081 0.0
C78 C 0.29282 0.81883 0.8381 0.0
C79 C 0.27151 0.79384 0.81361 0.0
N80 N 0.22857 0.70265 0.71297 0.0
C81 C 0.21371 0.67346 0.64599 0.0
C82 C 0.18569 0.64966 0.66632 0.0
C83 C 0.18014 0.65215 0.71082 0.0
C84 C 0.20119 0.679 0.73309 0.0
C85 C 0.23516 0.69875 0.66987 0.0
H86 H 0.1944 0.68034 0.7664 0.0
H87 H 0.25666 0.71505 0.65228 0.0
H88 H 0.33151 0.78946 0.73139 0.0
H89 H 0.24448 0.78387 0.8264 0.0
C90 C 0.19206 0.73296 0.82133 0.0
C91 C 0.19099 0.81816 0.68049 0.0
C92 C 0.32405 0.67 0.8101 0.0
C93 C 0.32037 0.7505 0.66649 0.0
H94 H 0.12241 0.83434 0.72864 0.0
H95 H 0.12156 0.78624 0.80463 0.0
H96 H 0.21831 0.67873 0.89911 0.0
H97 H 0.29123 0.6459 0.89354 0.0
H98 H 0.39031 0.64991 0.76036 0.0
H99 H 0.38872 0.69391 0.68132 0.0
H100 H 0.29773 0.81059 0.59255 0.0
H101 H 0.22589 0.84554 0.59915 0.0
H102 H 0.36877 0.83368 0.7713 0.0
H103 H 0.28157 0.82652 0.86849 0.0
H104 H 0.2191 0.67254 0.61162 0.0
H105 H 0.15873 0.6342 0.72803 0.0
C106 C 0.44226 0.07352 0.02294 0.0
C107 C 0.42264 0.10986 1.00318 0.0
C108 C 0.43869 0.11956 0.9636 0.0
C109 C 0.46715 0.0888 0.96142 0.0
N110 N 0.47004 0.05974 0.99704 0.0
Co111 Co 0.5089 0.01063 0.00813 0.0
N112 N 0.53466 0.0267 0.95144 0.0
C113 C 0.52523 0.06046 0.922 0.0
C114 C 0.54724 0.06278 0.88563 0.0
C115 C 0.57187 0.02815 0.89182 0.0
C116 C 0.56332 0.00662 0.93172 0.0
N117 N 0.54755 0.9614 0.01905 0.0
C118 C 0.57459 0.94721 0.99263 0.0
C119 C 0.59395 0.91065 0.01206 0.0
C120 C 0.57835 0.90115 0.05194 0.0
C121 C 0.55039 0.93225 0.05457 0.0
N122 N 0.48325 0.99472 0.06495 0.0
C123 C 0.49321 0.96132 0.09477 0.0
C124 C 0.4711 0.95889 0.13106 0.0
C125 C 0.4458 0.99306 0.1244 0.0
C126 C 0.45405 0.01447 0.08431 0.0
N127 N 0.47045 0.9799 0.97591 0.0
C128 C 0.42191 0.93323 0.92714 0.0
C129 C 0.43681 0.91879 0.97047 0.0
C130 C 0.46101 0.94225 0.99392 0.0
C131 C 0.43066 0.97192 0.9091 0.0
C132 C 0.4543 0.99474 0.93404 0.0
N133 N 0.54756 0.04127 0.04028 0.0
C134 C 0.59082 0.04742 0.10531 0.0
C135 C 0.5988 0.08649 0.08783 0.0
C136 C 0.58147 0.10222 0.04578 0.0
C137 C 0.55602 0.07944 0.02293 0.0
C138 C 0.56566 0.0254 0.08103 0.0
H139 H 0.54312 0.09364 0.99154 0.0
H140 H 0.56093 0.99577 0.0962 0.0
H141 H 0.47223 0.92898 0.02634 0.0
H142 H 0.45957 0.0241 0.91846 0.0
C143 C 0.49351 0.08786 0.92796 0.0
C144 C 0.43443 0.05417 0.06704 0.0
C145 C 0.58171 0.9663 0.94823 0.0
C146 C 0.52451 0.93357 0.08843 0.0
H147 H 0.39966 0.12792 0.0164 0.0
H148 H 0.43131 0.14645 0.93982 0.0
H149 H 0.54476 0.08624 0.85731 0.0
H150 H 0.593 0.0192 0.86904 0.0
H151 H 0.61639 0.8923 0.99838 0.0
H152 H 0.58562 0.87415 0.07559 0.0
H153 H 0.47365 0.93547 0.15942 0.0
H154 H 0.42423 1.00168 0.14688 0.0
H155 H 0.4305 0.88906 0.98585 0.0
H156 H 0.41942 0.98443 0.87573 0.0
H157 H 0.60366 0.03407 0.13782 0.0
H158 H 0.58685 0.13243 0.03101 0.0
C159 C 0.26647 0.31225 0.17385 0.0
C160 C 0.24733 0.33073 0.13394 0.0
C161 C 0.21712 0.30741 0.12395 0.0
C162 C 0.2191 0.27641 0.15844 0.0
N163 N 0.24811 0.27902 0.19025 0.0
Co164 Co 0.25969 0.24066 0.24646 0.0
N165 N 0.2091 0.21379 0.23718 0.0
C166 C 0.18561 0.21755 0.19931 0.0
C167 C 0.15204 0.19643 0.2031 0.0
C168 C 0.15446 0.17809 0.24607 0.0
C169 C 0.18958 0.18901 0.26607 0.0
N170 N 0.27113 0.20203 0.30216 0.0
C171 C 0.24671 0.17742 0.32502 0.0
C172 C 0.26723 0.15505 0.36211 0.0
C173 C 0.30587 0.16605 0.36246 0.0
C174 C 0.30676 0.19438 0.32566 0.0
N175 N 0.3103 0.26784 0.2559 0.0
C176 C 0.34103 0.25342 0.28564 0.0
C177 C 0.37327 0.27646 0.28319 0.0
C178 C 0.36277 0.30698 0.24913 0.0
C179 C 0.32444 0.30095 0.2326 0.0
N180 N 0.23086 0.27875 0.27938 0.0
C181 C 0.1876 0.32875 0.32952 0.0
C182 C 0.22538 0.31018 0.34539 0.0
C183 C 0.24652 0.28561 0.31982 0.0
C184 C 0.17224 0.32233 0.28765 0.0
C185 C 0.19418 0.29722 0.26328 0.0
N186 N 0.28871 0.202 0.21414 0.0
C187 C 0.3396 0.18855 0.16455 0.0
C188 C 0.33271 0.14773 0.16957 0.0
C189 C 0.3033 0.13431 0.19758 0.0
C190 C 0.28157 0.16195 0.21942 0.0
C191 C 0.31775 0.21475 0.18728 0.0
H192 H 0.2595 0.15074 0.24108 0.0
H193 H 0.32531 0.24517 0.18378 0.0
H194 H 0.27535 0.27169 0.33325 0.0
H195 H 0.18105 0.29235 0.23168 0.0
C196 C 0.1921 0.24656 0.16381 0.0
C197 C 0.3056 0.32334 0.19065 0.0
C198 C 0.20461 0.17316 0.3116 0.0
C199 C 0.33811 0.21876 0.31602 0.0
H200 H 0.25569 0.35718 0.11313 0.0
H201 H 0.19616 0.3125 0.09501 0.0
H202 H 0.12778 0.19589 0.17819 0.0
H203 H 0.13285 0.15888 0.26095 0.0
H204 H 0.25544 0.13316 0.38635 0.0
H205 H 0.33 0.15574 0.38748 0.0
H206 H 0.4014 0.27127 0.30323 0.0
H207 H 0.38199 0.32989 0.2366 0.0
H208 H 0.23835 0.31442 0.37755 0.0
H209 H 0.14316 0.3362 0.27416 0.0
H210 H 0.3624 0.20008 0.14368 0.0
H211 H 0.29736 0.10277 0.20271 0.0
C212 C 0.77455 0.20097 0.3439 0.0
C213 C 0.75391 0.18356 0.37871 0.0
C214 C 0.72535 0.21221 0.38665 0.0
C215 C 0.72902 0.24496 0.3554 0.0
N216 N 0.75756 0.23839 0.32759 0.0
Co217 Co 0.76633 0.27386 0.27169 0.0
N218 N 0.71538 0.3073 0.2738 0.0
C219 C 0.69396 0.3084 0.30939 0.0
C220 C 0.66077 0.33533 0.30152 0.0
C221 C 0.66138 0.35242 0.25829 0.0
C222 C 0.69493 0.33474 0.24218 0.0
N223 N 0.77469 0.30899 0.21538 0.0
C224 C 0.74828 0.33454 0.18764 0.0
C225 C 0.76644 0.35161 0.15079 0.0
C226 C 0.80584 0.33709 0.1563 0.0
C227 C 0.80937 0.31173 0.19576 0.0
N228 N 0.81799 0.24122 0.27011 0.0
C229 C 0.84845 0.25321 0.24597 0.0
C230 C 0.88336 0.22944 0.2568 0.0
C231 C 0.87476 0.20075 0.29025 0.0
C232 C 0.83448 0.20799 0.29747 0.0
N233 N 0.73753 0.2373 0.23789 0.0
C234 C 0.6946 0.18646 0.18933 0.0
C235 C 0.73019 0.20177 0.17472 0.0
C236 C 0.7515 0.22652 0.19981 0.0
C237 C 0.68146 0.19674 0.22907 0.0
C238 C 0.70268 0.22272 0.25213 0.0
N239 N 0.79505 0.31041 0.30554 0.0
C240 C 0.84455 0.32005 0.36316 0.0
C241 C 0.84029 0.36176 0.35027 0.0
C242 C 0.81228 0.37751 0.31526 0.0
C243 C 0.7899 0.35136 0.29343 0.0
C244 C 0.8216 0.29503 0.34061 0.0
H245 H 0.76878 0.36437 0.26642 0.0
H246 H 0.82589 0.26314 0.35142 0.0
H247 H 0.77905 0.23726 0.18812 0.0
H248 H 0.69044 0.23117 0.28138 0.0
C249 C 0.70179 0.27894 0.34643 0.0
C250 C 0.81403 0.18448 0.3328 0.0
C251 C 0.70713 0.34593 0.19723 0.0
C252 C 0.8429 0.28615 0.21242 0.0
H253 H 0.75996 0.1539 0.39775 0.0
H254 H 0.70356 0.20897 0.41127 0.0
H255 H 0.63793 0.34069 0.32392 0.0
H256 H 0.63959 0.37516 0.24058 0.0
H257 H 0.75288 0.37281 0.12317 0.0
H258 H 0.82885 0.34338 0.1336 0.0
H259 H 0.91191 0.23295 0.24261 0.0
H260 H 0.89647 0.1781 0.30807 0.0
H261 H 0.74148 0.19455 0.14418 0.0
H262 H 0.65416 0.18566 0.2416 0.0
H263 H 0.86569 0.30687 0.39037 0.0
H264 H 0.80799 0.40973 0.30466 0.0
C265 C 0.67588 0.71633 0.77548 0.0
C266 C 0.63879 0.71069 0.75537 0.0
C267 C 0.62993 0.74249 0.72238 0.0
C268 C 0.66219 0.76545 0.72363 0.0
N269 N 0.69137 0.74977 0.75478 0.0
Co270 Co 0.74363 0.77334 0.76584 0.0
N271 N 0.73595 0.81167 0.70946 0.0
C272 C 0.7014 0.82079 0.68411 0.0
C273 C 0.70554 0.84645 0.64596 0.0
C274 C 0.74517 0.85415 0.64734 0.0
C275 C 0.76302 0.83296 0.68662 0.0
N276 N 0.79541 0.79739 0.77702 0.0
C277 C 0.81686 0.82125 0.74927 0.0
C278 C 0.85105 0.83192 0.77138 0.0
C279 C 0.85103 0.81404 0.8144 0.0
C280 C 0.8169 0.79362 0.81618 0.0
N281 N 0.75175 0.73462 0.82215 0.0
C282 C 0.77904 0.73714 0.85572 0.0
C283 C 0.77657 0.70846 0.89175 0.0
C284 C 0.74526 0.6868 0.88075 0.0
C285 C 0.7303 0.70341 0.83831 0.0
N286 N 0.77096 0.7335 0.73431 0.0
C287 C 0.81267 0.68157 0.68555 0.0
C288 C 0.82891 0.68906 0.72661 0.0
C289 C 0.80751 0.71489 0.75056 0.0
C290 C 0.77471 0.69965 0.66997 0.0
C291 C 0.75449 0.72556 0.69468 0.0
N292 N 0.71633 0.81362 0.79727 0.0
C293 C 0.70119 0.88252 0.80931 0.0
C294 C 0.67554 0.86969 0.84202 0.0
C295 C 0.67117 0.82853 0.85216 0.0
C296 C 0.69175 0.80127 0.82963 0.0
C297 C 0.72151 0.85395 0.78751 0.0
H298 H 0.68782 0.77013 0.83883 0.0
H299 H 0.74138 0.86453 0.76282 0.0
H300 H 0.82094 0.72038 0.78183 0.0
H301 H 0.72585 0.73974 0.68109 0.0
C302 C 0.6681 0.79898 0.69291 0.0
C303 C 0.69226 0.69259 0.81768 0.0
C304 C 0.80493 0.83591 0.70254 0.0
C305 C 0.80747 0.76577 0.85154 0.0
H306 H 0.61944 0.68686 0.76466 0.0
H307 H 0.60337 0.74789 0.69975 0.0
H308 H 0.68293 0.85678 0.61926 0.0
H309 H 0.75923 0.87319 0.62226 0.0
H310 H 0.87362 0.85064 0.75781 0.0
H311 H 0.87394 0.81463 0.84078 0.0
H312 H 0.79498 0.70414 0.9226 0.0
H313 H 0.73373 0.66269 0.90241 0.0
H314 H 0.85819 0.67546 0.73978 0.0
H315 H 0.76116 0.69446 0.63841 0.0
H316 H 0.70544 0.91426 0.80073 0.0
H317 H 0.6518 0.81744 0.87743 0.0
C318 C 0.45285 0.52383 0.92242 0.0
C319 C 0.44026 0.50863 0.88438 0.0
C320 C 0.45559 0.46941 0.88924 0.0
C321 C 0.4771 0.46296 0.92949 0.0
N322 N 0.47663 0.49576 0.95033 0.0
Co323 Co 0.50677 0.50022 0.00761 0.0
N324 N 0.54084 0.44939 0.00591 0.0
C325 C 0.53479 0.42251 0.9778 0.0
C326 C 0.56444 0.39179 0.98203 0.0
C327 C 0.59061 0.3992 0.01545 0.0
C328 C 0.575 0.4338 0.03034 0.0
N329 N 0.53676 0.50442 0.06517 0.0
C330 C 0.56935 0.48207 0.08676 0.0
C331 C 0.57757 0.49321 0.12824 0.0
C332 C 0.54921 0.52318 0.13292 0.0
C333 C 0.52513 0.52859 0.0944 0.0
N334 N 0.47277 0.55094 0.00911 0.0
C335 C 0.46837 0.56965 0.0448 0.0
C336 C 0.44166 0.60304 0.03687 0.0
C337 C 0.42806 0.60548 0.99343 0.0
C338 C 0.44745 0.57337 0.97725 0.0
N339 N 0.46687 0.46942 0.04002 0.0
C340 C 0.41038 0.42719 0.08842 0.0
C341 C 0.39799 0.45662 0.05221 0.0
C342 C 0.42668 0.47725 0.02844 0.0
C343 C 0.45139 0.41953 0.1001 0.0
C344 C 0.47892 0.44107 0.07573 0.0
N345 N 0.54625 0.53154 0.9752 0.0
C346 C 0.58534 0.58967 0.96574 0.0
C347 C 0.59751 0.5801 0.92521 0.0
C348 C 0.58443 0.54497 0.91099 0.0
C349 C 0.55939 0.52093 0.93664 0.0
C350 C 0.5595 0.56536 0.98988 0.0
H351 H 0.55002 0.49424 0.92453 0.0
H352 H 0.54957 0.57452 0.01998 0.0
H353 H 0.41625 0.49969 1.00085 0.0
H354 H 0.50992 0.43509 0.08623 0.0
C355 C 0.50403 0.42973 0.94428 0.0
C356 C 0.43878 0.5637 0.93246 0.0
C357 C 0.5902 0.44699 0.07167 0.0
C358 C 0.49279 0.55742 0.08357 0.0
H359 H 0.42177 0.52411 0.85606 0.0
H360 H 0.45298 0.44872 0.86528 0.0
H361 H 0.56716 0.36735 0.96254 0.0
H362 H 0.61737 0.38041 0.02846 0.0
H363 H 0.60073 0.48014 0.15328 0.0
H364 H 0.54632 0.53892 0.16122 0.0
H365 H 0.43353 0.62356 0.0597 0.0
H366 H 0.40598 0.628 0.97587 0.0
H367 H 0.36644 0.4632 0.04204 0.0
H368 H 0.46212 0.39694 0.12787 0.0
H369 H 0.59466 0.61661 0.97793 0.0
H370 H 0.59302 0.53646 0.87986 0.0
C371 C 0.07159 0.51315 0.58613 0.0
C372 C 0.08434 0.49453 0.6285 0.0
C373 C 0.05894 0.46514 0.6393 0.0
C374 C 0.03237 0.46727 0.60299 0.0
N375 N 0.03976 0.49558 0.56931 0.0
Co376 Co 0.0069 0.50897 0.51155 0.0
N377 N 0.97651 0.45992 0.52351 0.0
C378 C 0.97605 0.43611 0.56261 0.0
C379 C 0.9533 0.40384 0.56062 0.0
C380 C 0.93833 0.40749 0.51752 0.0
C381 C 0.95275 0.442 0.49566 0.0
N382 N 0.97332 0.52272 0.45466 0.0
C383 C 0.94887 0.49994 0.43325 0.0
C384 C 0.9307 0.52174 0.39449 0.0
C385 C 0.94431 0.5595 0.39149 0.0
C386 C 0.96987 0.55865 0.4285 0.0
N387 N 0.0381 0.55765 0.4991 0.0
C388 C 0.02858 0.58876 0.46646 0.0
C389 C 0.05412 0.619 0.46661 0.0
C390 C 0.08104 0.6068 0.50218 0.0
C391 C 0.07034 0.56968 0.52193 0.0
N392 N 0.04632 0.47749 0.48209 0.0
C393 C 0.09526 0.429 0.43551 0.0
C394 C 0.07992 0.46773 0.41635 0.0
C395 C 0.056 0.49153 0.44022 0.0
C396 C 0.08676 0.41563 0.47914 0.0
C397 C 0.06209 0.44011 0.50164 0.0
N398 N 0.96673 0.54037 0.54048 0.0
C399 C 0.95106 0.59239 0.58519 0.0
C400 C 0.9109 0.58393 0.58422 0.0
C401 C 0.89871 0.55393 0.55989 0.0
C402 C 0.92703 0.53269 0.5381 0.0
C403 C 0.97812 0.57065 0.56299 0.0
H404 H 0.9166 0.51027 0.51918 0.0
H405 H 0.00814 0.579 0.56387 0.0
H406 H 0.04459 0.52097 0.42417 0.0
H407 H 0.05509 0.42824 0.5345 0.0
C408 C 1.00193 0.44149 0.59836 0.0
C409 C 0.08707 0.55071 0.56611 0.0
C410 C 0.94095 0.45828 0.44938 0.0
C411 C 0.99596 0.58813 0.43589 0.0
H412 H 0.10843 0.50257 0.65003 0.0
H413 H 0.05966 0.44477 0.67006 0.0
H414 H 0.94928 0.37971 0.58694 0.0
H415 H 0.91889 0.38717 0.50382 0.0
H416 H 0.90995 0.51133 0.37081 0.0
H417 H 0.93764 0.58406 0.36461 0.0
H418 H 0.05284 0.64698 0.44407 0.0
H419 H 0.10458 0.62419 0.51365 0.0
H420 H 0.08601 0.47938 0.38284 0.0
H421 H 0.09827 0.38598 0.49531 0.0
H422 H 0.9615 0.61591 0.60293 0.0
H423 H 0.8676 0.54705 0.55771 0.0
C424 C 0.15161 0.08068 0.36048 0.0
C425 C 0.12789 0.09772 0.39111 0.0
C426 C 0.15844 0.16238 0.3737 0.0
C427 C 0.17978 0.14629 0.34076 0.0
N428 N 0.19773 0.09064 0.3023 0.0
N429 N 0.10721 0.15473 0.42642 0.0
C430 C 0.17688 0.10541 0.33431 0.0
C431 C 0.13103 0.13856 0.39767 0.0
N432 N 0.14997 0.04071 0.35661 0.0
N433 N 0.16518 0.20024 0.38268 0.0
H434 H 0.08885 0.13771 0.44669 0.0
H435 H 0.10404 0.18531 0.42902 0.0
H436 H 0.18424 0.21876 0.3651 0.0
H437 H 0.15416 0.21259 0.40923 0.0
H438 H 0.16924 0.02486 0.33874 0.0
H439 H 0.13011 0.02235 0.37302 0.0
H440 H 0.19397 0.0629 0.29185 0.0
H441 H 0.21824 0.107 0.28453 0.0
C442 C 0.14382 0.91336 0.60725 0.0
C443 C 0.10422 0.90264 0.59775 0.0
C444 C 0.12369 0.83439 0.63642 0.0
C445 C 0.16097 0.8473 0.65158 0.0
N446 N 0.20198 0.90264 0.65946 0.0
N447 N 0.05453 0.85432 0.61016 0.0
C448 C 0.16962 0.88794 0.63954 0.0
C449 C 0.09354 0.8635 0.61446 0.0
N450 N 0.15747 0.94699 0.58443 0.0
N451 N 0.11741 0.79428 0.64192 0.0
H452 H 0.0316 0.87498 0.59466 0.0
H453 H 0.04447 0.82752 0.62543 0.0
H454 H 0.13912 0.77202 0.65691 0.0
H455 H 0.09223 0.78293 0.62789 0.0
H456 H 0.18727 0.95394 0.58754 0.0
H457 H 0.14013 0.96556 0.55921 0.0
H458 H 0.20735 0.9331 0.65456 0.0
H459 H 0.22116 0.88517 0.68401 0.0
C460 C 0.41564 0.87107 0.88966 0.0
C461 C 0.39784 0.90768 0.90057 0.0
C462 C 0.33614 0.89788 0.85664 0.0
C463 C 0.35239 0.8592 0.84996 0.0
N464 N 0.4049 0.8056 0.86841 0.0
N465 N 0.33814 0.95175 0.90161 0.0
C466 C 0.39143 0.84484 0.8688 0.0
C467 C 0.35721 0.91994 0.88604 0.0
N468 N 0.456 0.8619 0.89775 0.0
N469 N 0.30126 0.91428 0.83369 0.0
H470 H 0.35216 0.9681 0.92392 0.0
H471 H 0.30745 0.95941 0.89581 0.0
H472 H 0.28538 0.89953 0.81119 0.0
H473 H 0.29018 0.94399 0.83375 0.0
H474 H 0.47121 0.83786 0.88617 0.0
H475 H 0.47496 0.88048 0.91229 0.0
H476 H 0.43134 0.79235 0.88564 0.0
H477 H 0.38776 0.78512 0.85457 0.0
C478 C 0.39954 0.11319 0.15808 0.0
C479 C 0.35766 0.11971 0.14634 0.0
C480 C 0.36542 0.07768 0.08724 0.0
C481 C 0.40773 0.07582 0.09533 0.0
N482 N 0.46565 0.0959 0.13503 0.0
N483 N 0.3012 0.11232 0.09601 0.0
C484 C 0.42496 0.09462 0.12994 0.0
C485 C 0.34062 0.1028 0.11008 0.0
N486 N 0.41486 0.12388 0.19684 0.0
N487 N 0.34893 0.05503 0.05804 0.0
H488 H 0.28207 0.13059 0.11168 0.0
H489 H 0.28821 0.10475 0.06679 0.0
H490 H 0.36622 0.03676 0.04039 0.0
H491 H 0.31831 0.05172 0.05405 0.0
H492 H 0.44439 0.11639 0.20946 0.0
H493 H 0.39703 0.13685 0.21863 0.0
H494 H 0.47979 0.11303 0.15636 0.0
H495 H 0.48529 0.08242 0.11534 0.0
C496 C 0.89624 0.86358 0.63763 0.0
C497 C 0.88607 0.90504 0.62111 0.0
C498 C 0.82602 0.90244 0.66351 0.0
C499 C 0.83306 0.85992 0.67446 0.0
N500 N 0.8728 0.79908 0.66709 0.0
N501 N 0.8362 0.96151 0.61164 0.0
C502 C 0.86759 0.84022 0.66002 0.0
C503 C 0.84956 0.92385 0.63229 0.0
N504 N 0.93394 0.84689 0.63384 0.0
N505 N 0.79754 0.92267 0.68379 0.0
H506 H 0.8515 0.97765 0.58727 0.0
H507 H 0.80791 0.97489 0.61537 0.0
H508 H 0.78025 0.90822 0.7074 0.0
H509 H 0.7939 0.95403 0.68033 0.0
H510 H 0.94431 0.81803 0.64899 0.0
H511 H 0.95629 0.86329 0.6195 0.0
H512 H 0.89503 0.78282 0.6532 0.0
H513 H 0.85282 0.78104 0.6838 0.0
C514 C 0.86084 0.11042 0.43362 0.0
C515 C 0.88952 0.08709 0.4138 0.0
C516 C 0.85714 0.11816 0.34196 0.0
C517 C 0.83686 0.1487 0.36171 0.0
N518 N 0.833 0.17878 0.42918 0.0
N519 N 0.92129 0.08093 0.34556 0.0
C520 C 0.8421 0.14625 0.40855 0.0
C521 C 0.88943 0.09395 0.36677 0.0
N522 N 0.85286 0.0998 0.4766 0.0
N523 N 0.84716 0.1134 0.29926 0.0
H524 H 0.9478 0.06743 0.36231 0.0
H525 H 0.92281 0.08812 0.31147 0.0
H526 H 0.82315 0.13028 0.28048 0.0
H527 H 0.8605 0.0901 0.28463 0.0
H528 H 0.83081 0.11567 0.49129 0.0
H529 H 0.86562 0.07324 0.49559 0.0
H530 H 0.83911 0.17818 0.46311 0.0
H531 H 0.82411 0.20726 0.41189 0.0
C532 C 0.68722 0.12298 0.15367 0.0
C533 C 0.67039 0.16066 0.16289 0.0
C534 C 0.6055 0.14669 0.12805 0.0
C535 C 0.62361 0.11164 0.11412 0.0
N536 N 0.68382 0.07021 0.10722 0.0
N537 N 0.61497 0.21167 0.15066 0.0
C538 C 0.66512 0.10083 0.12512 0.0
C539 C 0.6299 0.1734 0.14776 0.0
N540 N 0.72355 0.10732 0.17373 0.0
N541 N 0.5647 0.15382 0.12401 0.0
H542 H 0.63186 0.23234 0.16428 0.0
H543 H 0.58728 0.22407 0.13575 0.0
H544 H 0.5456 0.13464 0.11068 0.0
H545 H 0.54962 0.17652 0.13794 0.0
H546 H 0.73537 0.07819 0.17181 0.0
H547 H 0.74007 0.12181 0.19595 0.0
H548 H 0.71479 0.06376 0.11031 0.0
H549 H 0.66885 0.05362 0.08586 0.0
C550 C 0.64879 0.94169 0.92426 0.0
C551 C 0.6063 0.94384 0.91884 0.0
C552 C 0.61025 0.90496 0.85677 0.0
C553 C 0.65246 0.89857 0.86576 0.0
N554 N 0.71185 0.90707 0.91115 0.0
N555 N 0.54599 0.92443 0.88306 0.0
C556 C 0.6718 0.91618 0.90015 0.0
C557 C 0.58684 0.92475 0.88579 0.0
N558 N 0.66712 0.9645 0.95206 0.0
N559 N 0.59268 0.89277 0.81986 0.0
H560 H 0.52782 0.93891 0.9034 0.0
H561 H 0.53022 0.90739 0.86298 0.0
H562 H 0.60899 0.87845 0.79779 0.0
H563 H 0.56271 0.89999 0.80888 0.0
H564 H 0.69784 0.96766 0.95405 0.0
H565 H 0.65117 0.98297 0.97068 0.0
H566 H 0.72676 0.91505 0.93913 0.0
H567 H 0.72978 0.88894 0.89403 0.0
C568 C 0.60528 0.64813 0.88076 0.0
C569 C 0.62149 0.60823 0.89649 0.0
C570 C 0.6806 0.6217 0.8542 0.0
C571 C 0.6669 0.66316 0.84375 0.0
N572 N 0.61814 0.71678 0.85489 0.0
N573 N 0.67819 0.55904 0.90381 0.0
C574 C 0.62984 0.67663 0.85933 0.0
C575 C 0.66015 0.59548 0.88462 0.0
N576 N 0.56565 0.65857 0.8844 0.0
N577 N 0.71284 0.60715 0.83447 0.0
H578 H 0.66471 0.53952 0.92698 0.0
H579 H 0.70791 0.5499 0.89997 0.0
H580 H 0.72839 0.62534 0.81201 0.0
H581 H 0.72182 0.57656 0.8373 0.0
H582 H 0.55112 0.68582 0.86914 0.0
H583 H 0.54625 0.63837 0.89851 0.0
H584 H 0.59431 0.72826 0.87082 0.0
H585 H 0.63371 0.73897 0.83803 0.0
C586 C 0.64449 0.35487 0.14615 0.0
C587 C 0.67862 0.37171 0.16324 0.0
C588 C 0.65812 0.43569 0.11529 0.0
C589 C 0.62126 0.42039 0.10259 0.0
N590 N 0.57641 0.36678 0.11477 0.0
N591 N 0.71352 0.43111 0.17109 0.0
C592 C 0.61358 0.38037 0.12055 0.0
C593 C 0.68424 0.41304 0.14983 0.0
N594 N 0.64186 0.31414 0.15343 0.0
N595 N 0.66849 0.47157 0.09398 0.0
H596 H 0.73266 0.41567 0.19703 0.0
H597 H 0.71639 0.46206 0.16562 0.0
H598 H 0.65031 0.48877 0.06832 0.0
H599 H 0.69662 0.48231 0.09905 0.0
H600 H 0.61982 0.30005 0.13715 0.0
H601 H 0.6639 0.29429 0.17198 0.0
H602 H 0.56813 0.33992 0.13189 0.0
H603 H 0.5528 0.38353 0.09575 0.0
C604 C 0.90573 0.39284 0.36327 0.0
C605 C 0.86533 0.38864 0.3736 0.0
C606 C 0.8729 0.43502 0.42846 0.0
C607 C 0.91442 0.43557 0.42173 0.0
N608 N 0.97136 0.41381 0.38461 0.0
N609 N 0.81136 0.40196 0.41916 0.0
C610 C 0.93108 0.41426 0.38946 0.0
C611 C 0.8491 0.40887 0.40694 0.0
N612 N 0.91949 0.37704 0.32774 0.0
N613 N 0.85602 0.46027 0.45469 0.0
H614 H 0.79276 0.38361 0.4037 0.0
H615 H 0.79951 0.41191 0.44669 0.0
H616 H 0.8725 0.4797 0.47103 0.0
H617 H 0.82527 0.46456 0.45729 0.0
H618 H 0.94718 0.38235 0.31544 0.0
H619 H 0.90188 0.36093 0.30819 0.0
H620 H 0.98636 0.39555 0.36515 0.0
H621 H 0.99049 0.43013 0.40222 0.0
C622 C 0.84241 0.61356 0.67199 0.0
C623 C 0.83583 0.65581 0.65828 0.0
C624 C 0.87144 0.64875 0.59165 0.0
C625 C 0.88217 0.60754 0.60805 0.0
N626 N 0.88213 0.55156 0.66662 0.0
N627 N 0.84892 0.71475 0.60811 0.0
C628 C 0.86864 0.59008 0.64892 0.0
C629 C 0.85151 0.67371 0.61879 0.0
N630 N 0.82272 0.59569 0.70635 0.0
N631 N 0.87961 0.66385 0.54964 0.0
H632 H 0.83469 0.73415 0.62702 0.0
H633 H 0.86379 0.72976 0.58264 0.0
H634 H 0.89394 0.64638 0.52878 0.0
H635 H 0.86893 0.69245 0.53403 0.0
H636 H 0.82291 0.56457 0.71498 0.0
H637 H 0.80321 0.61185 0.72387 0.0
H638 H 0.87719 0.53876 0.6986 0.0
H639 H 0.90094 0.53326 0.65059 0.0
C640 C 0.36872 0.36744 0.0965 0.0
C641 C 0.38092 0.40258 0.11265 0.0
C642 C 0.33816 0.38956 0.17492 0.0
C643 C 0.32946 0.35197 0.16163 0.0
N644 N 0.33838 0.30418 0.10992 0.0
N645 N 0.38005 0.4462 0.16867 0.0
C646 C 0.34505 0.34081 0.1223 0.0
C647 C 0.36629 0.41346 0.15223 0.0
N648 N 0.37912 0.35986 0.05578 0.0
N649 N 0.31865 0.40283 0.20866 0.0
H650 H 0.39933 0.46519 0.15209 0.0
H651 H 0.37447 0.45318 0.19989 0.0
H652 H 0.29787 0.3862 0.22577 0.0
H653 H 0.3204 0.43157 0.21733 0.0
H654 H 0.36693 0.3379 0.0393 0.0
H655 H 0.39781 0.37751 0.03661 0.0
H656 H 0.35462 0.2913 0.08688 0.0
H657 H 0.31733 0.2858 0.12332 0.0
C658 C 0.3908 0.65702 0.85564 0.0
C659 C 0.35458 0.64239 0.83995 0.0
C660 C 0.37108 0.5786 0.88898 0.0
C661 C 0.40955 0.59109 0.9005 0.0
N662 N 0.45837 0.64034 0.8893 0.0
N663 N 0.3152 0.58563 0.83382 0.0
C664 C 0.42013 0.62981 0.8821 0.0
C665 C 0.34637 0.60195 0.85407 0.0
N666 N 0.39665 0.6971 0.84652 0.0
N667 N 0.35738 0.54528 0.91239 0.0
H668 H 0.29674 0.60172 0.80766 0.0
H669 H 0.31023 0.55514 0.84019 0.0
H670 H 0.37395 0.52811 0.93923 0.0
H671 H 0.32808 0.5372 0.90794 0.0
H672 H 0.42058 0.71018 0.86083 0.0
H673 H 0.37578 0.71795 0.82756 0.0
H674 H 0.469 0.66645 0.87311 0.0
H675 H 0.48041 0.62126 0.90877 0.0
C676 C 0.11864 0.62914 0.63836 0.0
C677 C 0.16108 0.62362 0.64075 0.0
C678 C 0.15547 0.57136 0.59191 0.0
C679 C 0.11322 0.57394 0.59409 0.0
N680 N 0.05747 0.59591 0.63352 0.0
N681 N 0.21982 0.5828 0.62701 0.0
C682 C 0.09556 0.60008 0.62141 0.0
C683 C 0.17958 0.59287 0.61941 0.0
N684 N 0.10007 0.66275 0.65089 0.0
N685 N 0.1726 0.54841 0.56363 0.0
H686 H 0.23814 0.59652 0.64832 0.0
H687 H 0.23423 0.55817 0.61572 0.0
H688 H 0.15603 0.53112 0.54441 0.0
H689 H 0.2027 0.54878 0.55706 0.0
H690 H 0.06918 0.66964 0.64588 0.0
H691 H 0.11572 0.68591 0.66142 0.0
H692 H 0.04434 0.61274 0.65571 0.0
H693 H 0.04163 0.57155 0.62723 0.0
C694 C 0.1775 0.39184 0.36568 0.0
C695 C 0.16402 0.35429 0.35698 0.0
C696 C 0.10426 0.36667 0.39757 0.0
C697 C 0.11952 0.4025 0.40955 0.0
N698 N 0.17476 0.44475 0.41213 0.0
N699 N 0.11813 0.30252 0.37157 0.0
C700 C 0.15733 0.41382 0.39557 0.0
C701 C 0.12837 0.34075 0.3749 0.0
N702 N 0.20877 0.40731 0.34415 0.0
N703 N 0.06604 0.35805 0.40632 0.0
H704 H 0.13476 0.2827 0.35514 0.0
H705 H 0.09522 0.2892 0.38832 0.0
H706 H 0.04741 0.37592 0.42294 0.0
H707 H 0.05156 0.33511 0.39382 0.0
H708 H 0.21721 0.43643 0.34537 0.0
H709 H 0.22401 0.39243 0.32173 0.0
H710 H 0.20405 0.45172 0.40691 0.0
H711 H 0.16137 0.46103 0.43466 0.0
loop_
_geom_bond_atom_site_label_1
_geom_bond_atom_site_label_2
_geom_bond_distance
_geom_bond_site_symmetry_2
_ccdc_geom_bond_type
C0 C1 1.443 . S
C0 N4 1.376 . S
C0 C38 1.389 . S
C1 C0 1.443 . S
C1 C2 1.340 . S
C1 H41 0.951 . S
C2 C1 1.340 . S
C2 C3 1.439 . S
C2 H42 0.950 . S
C3 C2 1.439 . S
C3 N4 1.374 . S
C3 C37 1.395 1_455 S
N4 C0 1.376 . S
N4 C3 1.374 . S
N4 Co5 1.983 1_565 S
Co5 N4 1.983 1_545 S
Co5 N6 1.988 1_455 S
Co5 N11 2.033 1_455 S
Co5 N16 2.004 1_545 S
Co5 N21 2.299 . S
Co5 N27 2.266 1_445 S
N6 Co5 1.988 1_655 S
N6 C7 1.376 1_545 S
N6 C10 1.383 . S
C7 N6 1.376 1_565 S
C7 C8 1.446 . S
C7 C37 1.391 . S
C8 C7 1.446 . S
C8 C9 1.339 1_565 S
C8 H43 0.949 . S
C9 C8 1.339 1_545 S
C9 C10 1.439 . S
C9 H44 0.950 . S
C10 N6 1.383 . S
C10 C9 1.439 . S
C10 C39 1.392 . S
N11 Co5 2.033 1_655 S
N11 C12 1.376 . S
N11 C15 1.374 . S
C12 N11 1.376 . S
C12 C13 1.443 . S
C12 C39 1.389 . S
C13 C12 1.443 . S
C13 C14 1.340 . S
C13 H45 0.951 . S
C14 C13 1.340 . S
C14 C15 1.439 . S
C14 H46 0.950 . S
C15 N11 1.374 . S
C15 C14 1.439 . S
C15 C40 1.395 1_655 S
N16 Co5 2.004 1_565 S
N16 C17 1.362 1_565 S
N16 C20 1.396 . S
C17 N16 1.362 1_545 S
C17 C18 1.446 . S
C17 C40 1.391 . S
C18 C17 1.446 . S
C18 C19 1.339 1_545 S
C18 H47 0.949 . S
C19 C18 1.339 1_565 S
C19 C20 1.439 . S
C19 H48 0.950 . S
C20 N16 1.396 . S
C20 C19 1.439 . S
C20 C38 1.392 . S
N21 Co5 2.299 . S
N21 C24 1.332 . S
N21 C26 1.332 . S
C22 C23 1.386 . S
C22 C25 1.388 . S
C23 C22 1.386 . S
C23 C24 1.382 . S
C23 H49 0.950 . S
C24 N21 1.332 . S
C24 C23 1.382 . S
C24 H35 0.952 . S
C25 C22 1.388 . S
C25 C26 1.382 . S
C25 H50 0.950 . S
C26 N21 1.332 . S
C26 C25 1.382 . S
C26 H36 0.948 . S
N27 Co5 2.266 1_665 S
N27 C31 1.332 . S
N27 C32 1.332 . S
C28 C29 1.388 . S
C28 C32 1.382 . S
C28 H51 0.950 . S
C29 C28 1.388 . S
C29 C30 1.386 . S
C30 C29 1.386 . S
C30 C31 1.382 . S
C30 H52 0.950 . S
C31 N27 1.332 . S
C31 C30 1.382 . S
C31 H33 0.952 . S
C32 N27 1.332 . S
C32 C28 1.382 . S
C32 H34 0.948 . S
H33 C31 0.952 . S
H34 C32 0.948 . S
H35 C24 0.952 . S
H36 C26 0.948 . S
C37 C3 1.395 1_655 S
C37 C7 1.391 . S
C38 C0 1.389 . S
C38 C20 1.392 . S
C39 C10 1.392 . S
C39 C12 1.389 . S
C40 C15 1.395 1_455 S
C40 C17 1.391 . S
H41 C1 0.951 . S
H42 C2 0.950 . S
H43 C8 0.949 . S
H44 C9 0.950 . S
H45 C13 0.951 . S
H46 C14 0.950 . S
H47 C18 0.949 . S
H48 C19 0.950 . S
H49 C23 0.950 . S
H50 C25 0.950 . S
H51 C28 0.950 . S
H52 C30 0.950 . S
C53 C54 1.443 . S
C53 N57 1.376 . S
C53 C91 1.389 . S
C54 C53 1.443 . S
C54 C55 1.340 . S
C54 H94 0.951 . S
C55 C54 1.340 . S
C55 C56 1.439 . S
C55 H95 0.950 . S
C56 C55 1.439 . S
C56 N57 1.374 . S
C56 C90 1.395 . S
N57 C53 1.376 . S
N57 C56 1.374 . S
N57 Co58 2.008 . S
Co58 N57 2.008 . S
Co58 N59 1.995 . S
Co58 N64 2.008 . S
Co58 N69 1.995 . S
Co58 N74 2.282 . S
Co58 N80 2.282 . S
N59 Co58 1.995 . S
N59 C60 1.376 . S
N59 C63 1.383 . S
C60 N59 1.376 . S
C60 C61 1.446 . S
C60 C90 1.391 . S
C61 C60 1.446 . S
C61 C62 1.339 . S
C61 H96 0.949 . S
C62 C61 1.339 . S
C62 C63 1.439 . S
C62 H97 0.950 . S
C63 N59 1.383 . S
C63 C62 1.439 . S
C63 C92 1.392 . S
N64 Co58 2.008 . S
N64 C65 1.376 . S
N64 C68 1.374 . S
C65 N64 1.376 . S
C65 C66 1.443 . S
C65 C92 1.389 . S
C66 C65 1.443 . S
C66 C67 1.340 . S
C66 H98 0.951 . S
C67 C66 1.340 . S
C67 C68 1.439 . S
C67 H99 0.950 . S
C68 N64 1.374 . S
C68 C67 1.439 . S
C68 C93 1.395 . S
N69 Co58 1.995 . S
N69 C70 1.376 . S
N69 C73 1.383 . S
C70 N69 1.376 . S
C70 C71 1.446 . S
C70 C93 1.391 . S
C71 C70 1.446 . S
C71 C72 1.339 . S
C71 H100 0.949 . S
C72 C71 1.339 . S
C72 C73 1.439 . S
C72 H101 0.950 . S
C73 N69 1.383 . S
C73 C72 1.439 . S
C73 C91 1.392 . S
N74 Co58 2.282 . S
N74 C77 1.332 . S
N74 C79 1.332 . S
C75 C76 1.386 . S
C75 C78 1.388 . S
C76 C75 1.386 . S
C76 C77 1.382 . S
C76 H102 0.950 . S
C77 N74 1.332 . S
C77 C76 1.382 . S
C77 H88 0.952 . S
C78 C75 1.388 . S
C78 C79 1.382 . S
C78 H103 0.950 . S
C79 N74 1.332 . S
C79 C78 1.382 . S
C79 H89 0.948 . S
N80 Co58 2.282 . S
N80 C84 1.332 . S
N80 C85 1.332 . S
C81 C82 1.388 . S
C81 C85 1.382 . S
C81 H104 0.950 . S
C82 C81 1.388 . S
C82 C83 1.386 . S
C83 C82 1.386 . S
C83 C84 1.382 . S
C83 H105 0.950 . S
C84 N80 1.332 . S
C84 C83 1.382 . S
C84 H86 0.952 . S
C85 N80 1.332 . S
C85 C81 1.382 . S
C85 H87 0.948 . S
H86 C84 0.952 . S
H87 C85 0.948 . S
H88 C77 0.952 . S
H89 C79 0.948 . S
C90 C56 1.395 . S
C90 C60 1.391 . S
C91 C53 1.389 . S
C91 C73 1.392 . S
C92 C63 1.392 . S
C92 C65 1.389 . S
C93 C68 1.395 . S
C93 C70 1.391 . S
H94 C54 0.951 . S
H95 C55 0.950 . S
H96 C61 0.949 . S
H97 C62 0.950 . S
H98 C66 0.951 . S
H99 C67 0.950 . S
H100 C71 0.949 . S
H101 C72 0.950 . S
H102 C76 0.950 . S
H103 C78 0.950 . S
H104 C81 0.950 . S
H105 C83 0.950 . S
C106 C107 1.443 1_554 S
C106 N110 1.376 1_554 S
C106 C144 1.389 . S
C107 C106 1.443 1_556 S
C107 C108 1.340 . S
C107 H147 0.951 1_556 S
C108 C107 1.340 . S
C108 C109 1.439 . S
C108 H148 0.950 . S
C109 C108 1.439 . S
C109 N110 1.374 . S
C109 C143 1.395 . S
N110 C106 1.376 1_556 S
N110 C109 1.374 . S
N110 Co111 2.008 1_556 S
Co111 N110 2.008 1_554 S
Co111 N112 1.973 1_554 S
Co111 N117 2.009 1_545 S
Co111 N122 2.016 1_545 S
Co111 N127 2.270 1_544 S
Co111 N133 2.295 . S
N112 Co111 1.973 1_556 S
N112 C113 1.376 . S
N112 C116 1.383 1_545 S
C113 N112 1.376 . S
C113 C114 1.446 . S
C113 C143 1.391 . S
C114 C113 1.446 . S
C114 C115 1.339 . S
C114 H149 0.949 . S
C115 C114 1.339 . S
C115 C116 1.439 1_545 S
C115 H150 0.950 1_545 S
C116 N112 1.383 1_565 S
C116 C115 1.439 1_565 S
C116 C145 1.392 . S
N117 Co111 2.009 1_565 S
N117 C118 1.376 1_554 S
N117 C121 1.374 . S
C118 N117 1.376 1_556 S
C118 C119 1.443 1_556 S
C118 C145 1.389 . S
C119 C118 1.443 1_554 S
C119 C120 1.340 . S
C119 H151 0.951 1_554 S
C120 C119 1.340 . S
C120 C121 1.439 . S
C120 H152 0.950 . S
C121 N117 1.374 . S
C121 C120 1.439 . S
C121 C146 1.395 . S
N122 Co111 2.016 1_565 S
N122 C123 1.376 . S
N122 C126 1.383 1_565 S
C123 N122 1.376 . S
C123 C124 1.446 . S
C123 C146 1.391 . S
C124 C123 1.446 . S
C124 C125 1.339 . S
C124 H153 0.949 . S
C125 C124 1.339 . S
C125 C126 1.439 1_565 S
C125 H154 0.950 1_565 S
C126 N122 1.383 1_545 S
C126 C125 1.439 1_545 S
C126 C144 1.392 . S
N127 Co111 2.270 1_566 S
N127 C130 1.332 . S
N127 C132 1.332 . S
C128 C129 1.386 . S
C128 C131 1.388 . S
C129 C128 1.386 . S
C129 C130 1.382 . S
C129 H155 0.950 . S
C130 N127 1.332 . S
C130 C129 1.382 . S
C130 H141 0.952 1_556 S
C131 C128 1.388 . S
C131 C132 1.382 . S
C131 H156 0.950 . S
C132 N127 1.332 . S
C132 C131 1.382 . S
C132 H142 0.957 . S
N133 Co111 2.295 . S
N133 C137 1.332 . S
N133 C138 1.332 . S
C134 C135 1.388 . S
C134 C138 1.382 . S
C134 H157 0.950 . S
C135 C134 1.388 . S
C135 C136 1.386 . S
C136 C135 1.386 . S
C136 C137 1.382 . S
C136 H158 0.950 . S
C137 N133 1.332 . S
C137 C136 1.382 . S
C137 H139 0.952 1_554 S
C138 N133 1.332 . S
C138 C134 1.382 . S
C138 H140 0.948 . S
H139 C137 0.952 1_556 S
H140 C138 0.948 . S
H141 C130 0.952 1_554 S
H142 C132 0.957 . S
C143 C109 1.395 . S
C143 C113 1.391 . S
C144 C106 1.389 . S
C144 C126 1.392 . S
C145 C116 1.392 . S
C145 C118 1.389 . S
C146 C121 1.395 . S
C146 C123 1.391 . S
H147 C107 0.951 1_554 S
H148 C108 0.950 . S
H149 C114 0.949 . S
H150 C115 0.950 1_565 S
H151 C119 0.951 1_556 S
H152 C120 0.950 . S
H153 C124 0.949 . S
H154 C125 0.950 1_545 S
H155 C129 0.950 . S
H156 C131 0.950 . S
H157 C134 0.950 . S
H158 C136 0.950 . S
C159 C160 1.443 . S
C159 N163 1.376 . S
C159 C197 1.389 . S
C160 C159 1.443 . S
C160 C161 1.340 . S
C160 H200 0.951 . S
C161 C160 1.340 . S
C161 C162 1.439 . S
C161 H201 0.950 . S
C162 C161 1.439 . S
C162 N163 1.374 . S
C162 C196 1.395 . S
N163 C159 1.376 . S
N163 C162 1.374 . S
N163 Co164 2.008 . S
Co164 N163 2.008 . S
Co164 N165 1.995 . S
Co164 N170 2.008 . S
Co164 N175 1.995 . S
Co164 N180 2.282 . S
Co164 N186 2.282 . S
N165 Co164 1.995 . S
N165 C166 1.376 . S
N165 C169 1.383 . S
C166 N165 1.376 . S
C166 C167 1.446 . S
C166 C196 1.391 . S
C167 C166 1.446 . S
C167 C168 1.339 . S
C167 H202 0.949 . S
C168 C167 1.339 . S
C168 C169 1.439 . S
C168 H203 0.950 . S
C169 N165 1.383 . S
C169 C168 1.439 . S
C169 C198 1.392 . S
N170 Co164 2.008 . S
N170 C171 1.376 . S
N170 C174 1.374 . S
C171 N170 1.376 . S
C171 C172 1.443 . S
C171 C198 1.389 . S
C172 C171 1.443 . S
C172 C173 1.340 . S
C172 H204 0.951 . S
C173 C172 1.340 . S
C173 C174 1.439 . S
C173 H205 0.950 . S
C174 N170 1.374 . S
C174 C173 1.439 . S
C174 C199 1.395 . S
N175 Co164 1.995 . S
N175 C176 1.376 . S
N175 C179 1.383 . S
C176 N175 1.376 . S
C176 C177 1.446 . S
C176 C199 1.391 . S
C177 C176 1.446 . S
C177 C178 1.339 . S
C177 H206 0.949 . S
C178 C177 1.339 . S
C178 C179 1.439 . S
C178 H207 0.950 . S
C179 N175 1.383 . S
C179 C178 1.439 . S
C179 C197 1.392 . S
N180 Co164 2.282 . S
N180 C183 1.332 . S
N180 C185 1.332 . S
C181 C182 1.386 . S
C181 C184 1.388 . S
C182 C181 1.386 . S
C182 C183 1.382 . S
C182 H208 0.950 . S
C183 N180 1.332 . S
C183 C182 1.382 . S
C183 H194 0.952 . S
C184 C181 1.388 . S
C184 C185 1.382 . S
C184 H209 0.950 . S
C185 N180 1.332 . S
C185 C184 1.382 . S
C185 H195 0.948 . S
N186 Co164 2.282 . S
N186 C190 1.332 . S
N186 C191 1.332 . S
C187 C188 1.388 . S
C187 C191 1.382 . S
C187 H210 0.950 . S
C188 C187 1.388 . S
C188 C189 1.386 . S
C189 C188 1.386 . S
C189 C190 1.382 . S
C189 H211 0.950 . S
C190 N186 1.332 . S
C190 C189 1.382 . S
C190 H192 0.952 . S
C191 N186 1.332 . S
C191 C187 1.382 . S
C191 H193 0.948 . S
H192 C190 0.952 . S
H193 C191 0.948 . S
H194 C183 0.952 . S
H195 C185 0.948 . S
C196 C162 1.395 . S
C196 C166 1.391 . S
C197 C159 1.389 . S
C197 C179 1.392 . S
C198 C169 1.392 . S
C198 C171 1.389 . S
C199 C174 1.395 . S
C199 C176 1.391 . S
H200 C160 0.951 . S
H201 C161 0.950 . S
H202 C167 0.949 . S
H203 C168 0.950 . S
H204 C172 0.951 . S
H205 C173 0.950 . S
H206 C177 0.949 . S
H207 C178 0.950 . S
H208 C182 0.950 . S
H209 C184 0.950 . S
H210 C187 0.950 . S
H211 C189 0.950 . S
C212 C213 1.443 . S
C212 N216 1.376 . S
C212 C250 1.389 . S
C213 C212 1.443 . S
C213 C214 1.340 . S
C213 H253 0.951 . S
C214 C213 1.340 . S
C214 C215 1.439 . S
C214 H254 0.950 . S
C215 C214 1.439 . S
C215 N216 1.374 . S
C215 C249 1.395 . S
N216 C212 1.376 . S
N216 C215 1.374 . S
N216 Co217 2.008 . S
Co217 N216 2.008 . S
Co217 N218 1.995 . S
Co217 N223 2.008 . S
Co217 N228 1.995 . S
Co217 N233 2.282 . S
Co217 N239 2.282 . S
N218 Co217 1.995 . S
N218 C219 1.376 . S
N218 C222 1.383 . S
C219 N218 1.376 . S
C219 C220 1.446 . S
C219 C249 1.391 . S
C220 C219 1.446 . S
C220 C221 1.339 . S
C220 H255 0.949 . S
C221 C220 1.339 . S
C221 C222 1.439 . S
C221 H256 0.950 . S
C222 N218 1.383 . S
C222 C221 1.439 . S
C222 C251 1.392 . S
N223 Co217 2.008 . S
N223 C224 1.376 . S
N223 C227 1.374 . S
C224 N223 1.376 . S
C224 C225 1.443 . S
C224 C251 1.389 . S
C225 C224 1.443 . S
C225 C226 1.340 . S
C225 H257 0.951 . S
C226 C225 1.340 . S
C226 C227 1.439 . S
C226 H258 0.950 . S
C227 N223 1.374 . S
C227 C226 1.439 . S
C227 C252 1.395 . S
N228 Co217 1.995 . S
N228 C229 1.376 . S
N228 C232 1.383 . S
C229 N228 1.376 . S
C229 C230 1.446 . S
C229 C252 1.391 . S
C230 C229 1.446 . S
C230 C231 1.339 . S
C230 H259 0.949 . S
C231 C230 1.339 . S
C231 C232 1.439 . S
C231 H260 0.950 . S
C232 N228 1.383 . S
C232 C231 1.439 . S
C232 C250 1.392 . S
N233 Co217 2.282 . S
N233 C236 1.332 . S
N233 C238 1.332 . S
C234 C235 1.386 . S
C234 C237 1.388 . S
C235 C234 1.386 . S
C235 C236 1.382 . S
C235 H261 0.950 . S
C236 N233 1.332 . S
C236 C235 1.382 . S
C236 H247 0.952 . S
C237 C234 1.388 . S
C237 C238 1.382 . S
C237 H262 0.950 . S
C238 N233 1.332 . S
C238 C237 1.382 . S
C238 H248 0.948 . S
N239 Co217 2.282 . S
N239 C243 1.332 . S
N239 C244 1.332 . S
C240 C241 1.388 . S
C240 C244 1.382 . S
C240 H263 0.950 . S
C241 C240 1.388 . S
C241 C242 1.386 . S
C242 C241 1.386 . S
C242 C243 1.382 . S
C242 H264 0.950 . S
C243 N239 1.332 . S
C243 C242 1.382 . S
C243 H245 0.952 . S
C244 N239 1.332 . S
C244 C240 1.382 . S
C244 H246 0.948 . S
H245 C243 0.952 . S
H246 C244 0.948 . S
H247 C236 0.952 . S
H248 C238 0.948 . S
C249 C215 1.395 . S
C249 C219 1.391 . S
C250 C212 1.389 . S
C250 C232 1.392 . S
C251 C222 1.392 . S
C251 C224 1.389 . S
C252 C227 1.395 . S
C252 C229 1.391 . S
H253 C213 0.951 . S
H254 C214 0.950 . S
H255 C220 0.949 . S
H256 C221 0.950 . S
H257 C225 0.951 . S
H258 C226 0.950 . S
H259 C230 0.949 . S
H260 C231 0.950 . S
H261 C235 0.950 . S
H262 C237 0.950 . S
H263 C240 0.950 . S
H264 C242 0.950 . S
C265 C266 1.443 . S
C265 N269 1.376 . S
C265 C303 1.389 . S
C266 C265 1.443 . S
C266 C267 1.340 . S
C266 H306 0.951 . S
C267 C266 1.340 . S
C267 C268 1.439 . S
C267 H307 0.950 . S
C268 C267 1.439 . S
C268 N269 1.374 . S
C268 C302 1.395 . S
N269 C265 1.376 . S
N269 C268 1.374 . S
N269 Co270 2.008 . S
Co270 N269 2.008 . S
Co270 N271 1.995 . S
Co270 N276 2.008 . S
Co270 N281 1.995 . S
Co270 N286 2.282 . S
Co270 N292 2.282 . S
N271 Co270 1.995 . S
N271 C272 1.376 . S
N271 C275 1.383 . S
C272 N271 1.376 . S
C272 C273 1.446 . S
C272 C302 1.391 . S
C273 C272 1.446 . S
C273 C274 1.339 . S
C273 H308 0.949 . S
C274 C273 1.339 . S
C274 C275 1.439 . S
C274 H309 0.950 . S
C275 N271 1.383 . S
C275 C274 1.439 . S
C275 C304 1.392 . S
N276 Co270 2.008 . S
N276 C277 1.376 . S
N276 C280 1.374 . S
C277 N276 1.376 . S
C277 C278 1.443 . S
C277 C304 1.389 . S
C278 C277 1.443 . S
C278 C279 1.340 . S
C278 H310 0.951 . S
C279 C278 1.340 . S
C279 C280 1.439 . S
C279 H311 0.950 . S
C280 N276 1.374 . S
C280 C279 1.439 . S
C280 C305 1.395 . S
N281 Co270 1.995 . S
N281 C282 1.376 . S
N281 C285 1.383 . S
C282 N281 1.376 . S
C282 C283 1.446 . S
C282 C305 1.391 . S
C283 C282 1.446 . S
C283 C284 1.339 . S
C283 H312 0.949 . S
C284 C283 1.339 . S
C284 C285 1.439 . S
C284 H313 0.950 . S
C285 N281 1.383 . S
C285 C284 1.439 . S
C285 C303 1.392 . S
N286 Co270 2.282 . S
N286 C289 1.332 . S
N286 C291 1.332 . S
C287 C288 1.386 . S
C287 C290 1.388 . S
C288 C287 1.386 . S
C288 C289 1.382 . S
C288 H314 0.950 . S
C289 N286 1.332 . S
C289 C288 1.382 . S
C289 H300 0.952 . S
C290 C287 1.388 . S
C290 C291 1.382 . S
C290 H315 0.950 . S
C291 N286 1.332 . S
C291 C290 1.382 . S
C291 H301 0.948 . S
N292 Co270 2.282 . S
N292 C296 1.332 . S
N292 C297 1.332 . S
C293 C294 1.388 . S
C293 C297 1.382 . S
C293 H316 0.950 . S
C294 C293 1.388 . S
C294 C295 1.386 . S
C295 C294 1.386 . S
C295 C296 1.382 . S
C295 H317 0.950 . S
C296 N292 1.332 . S
C296 C295 1.382 . S
C296 H298 0.952 . S
C297 N292 1.332 . S
C297 C293 1.382 . S
C297 H299 0.948 . S
H298 C296 0.952 . S
H299 C297 0.948 . S
H300 C289 0.952 . S
H301 C291 0.948 . S
C302 C268 1.395 . S
C302 C272 1.391 . S
C303 C265 1.389 . S
C303 C285 1.392 . S
C304 C275 1.392 . S
C304 C277 1.389 . S
C305 C280 1.395 . S
C305 C282 1.391 . S
H306 C266 0.951 . S
H307 C267 0.950 . S
H308 C273 0.949 . S
H309 C274 0.950 . S
H310 C278 0.951 . S
H311 C279 0.950 . S
H312 C283 0.949 . S
H313 C284 0.950 . S
H314 C288 0.950 . S
H315 C290 0.950 . S
H316 C293 0.950 . S
H317 C295 0.950 . S
C318 C319 1.443 . S
C318 N322 1.376 . S
C318 C356 1.389 . S
C319 C318 1.443 . S
C319 C320 1.340 . S
C319 H359 0.951 . S
C320 C319 1.340 . S
C320 C321 1.439 . S
C320 H360 0.950 . S
C321 C320 1.439 . S
C321 N322 1.374 . S
C321 C355 1.395 . S
N322 C318 1.376 . S
N322 C321 1.374 . S
N322 Co323 1.983 1_556 S
Co323 N322 1.983 1_554 S
Co323 N324 1.988 1_554 S
Co323 N329 2.033 . S
Co323 N334 2.002 . S
Co323 N339 2.294 . S
Co323 N345 2.271 1_554 S
N324 Co323 1.988 1_556 S
N324 C325 1.376 . S
N324 C328 1.383 1_556 S
C325 N324 1.376 . S
C325 C326 1.446 . S
C325 C355 1.391 . S
C326 C325 1.446 . S
C326 C327 1.339 1_556 S
C326 H361 0.949 . S
C327 C326 1.339 1_554 S
C327 C328 1.439 . S
C327 H362 0.950 . S
C328 N324 1.383 1_554 S
C328 C327 1.439 . S
C328 C357 1.392 . S
N329 Co323 2.033 . S
N329 C330 1.376 . S
N329 C333 1.374 . S
C330 N329 1.376 . S
C330 C331 1.443 . S
C330 C357 1.389 . S
C331 C330 1.443 . S
C331 C332 1.340 . S
C331 H363 0.951 . S
C332 C331 1.340 . S
C332 C333 1.439 . S
C332 H364 0.950 . S
C333 N329 1.374 . S
C333 C332 1.439 . S
C333 C358 1.395 . S
N334 Co323 2.002 . S
N334 C335 1.376 . S
N334 C338 1.383 1_554 S
C335 N334 1.376 . S
C335 C336 1.446 . S
C335 C358 1.391 . S
C336 C335 1.446 . S
C336 C337 1.339 1_554 S
C336 H365 0.949 . S
C337 C336 1.339 1_556 S
C337 C338 1.439 . S
C337 H366 0.950 . S
C338 N334 1.383 1_556 S
C338 C337 1.439 . S
C338 C356 1.392 . S
N339 Co323 2.294 . S
N339 C342 1.332 . S
N339 C344 1.332 . S
C340 C341 1.386 . S
C340 C343 1.388 . S
C341 C340 1.386 . S
C341 C342 1.382 . S
C341 H367 0.950 . S
C342 N339 1.332 . S
C342 C341 1.382 . S
C342 H353 0.952 . S
C343 C340 1.388 . S
C343 C344 1.382 . S
C343 H368 0.950 . S
C344 N339 1.332 . S
C344 C343 1.382 . S
C344 H354 0.948 . S
N345 Co323 2.271 1_556 S
N345 C349 1.332 . S
N345 C350 1.332 . S
C346 C347 1.388 . S
C346 C350 1.382 . S
C346 H369 0.950 . S
C347 C346 1.388 . S
C347 C348 1.386 . S
C348 C347 1.386 . S
C348 C349 1.382 . S
C348 H370 0.950 . S
C349 N345 1.332 . S
C349 C348 1.382 . S
C349 H351 0.952 . S
C350 N345 1.332 . S
C350 C346 1.382 . S
C350 H352 0.948 . S
H351 C349 0.952 . S
H352 C350 0.948 . S
H353 C342 0.952 . S
H354 C344 0.948 . S
C355 C321 1.395 . S
C355 C325 1.391 . S
C356 C318 1.389 . S
C356 C338 1.392 . S
C357 C328 1.392 . S
C357 C330 1.389 . S
C358 C333 1.395 . S
C358 C335 1.391 . S
H359 C319 0.951 . S
H360 C320 0.950 . S
H361 C326 0.949 . S
H362 C327 0.950 . S
H363 C331 0.951 . S
H364 C332 0.950 . S
H365 C336 0.949 . S
H366 C337 0.950 . S
H367 C341 0.950 . S
H368 C343 0.950 . S
H369 C346 0.950 . S
H370 C348 0.950 . S
C371 C372 1.443 . S
C371 N375 1.376 . S
C371 C409 1.389 . S
C372 C371 1.443 . S
C372 C373 1.340 . S
C372 H412 0.951 . S
C373 C372 1.340 . S
C373 C374 1.439 . S
C373 H413 0.950 . S
C374 C373 1.439 . S
C374 N375 1.374 . S
C374 C408 1.395 . S
N375 C371 1.376 . S
N375 C374 1.374 . S
N375 Co376 2.010 . S
Co376 N375 2.010 . S
Co376 N377 1.992 1_455 S
Co376 N382 2.006 1_455 S
Co376 N387 1.997 . S
Co376 N392 2.286 . S
Co376 N398 2.279 1_455 S
N377 Co376 1.992 1_655 S
N377 C378 1.376 . S
N377 C381 1.383 . S
C378 N377 1.376 . S
C378 C379 1.446 . S
C378 C408 1.391 1_655 S
C379 C378 1.446 . S
C379 C380 1.339 . S
C379 H414 0.949 . S
C380 C379 1.339 . S
C380 C381 1.439 . S
C380 H415 0.950 . S
C381 N377 1.383 . S
C381 C380 1.439 . S
C381 C410 1.392 . S
N382 Co376 2.006 1_655 S
N382 C383 1.376 . S
N382 C386 1.374 . S
C383 N382 1.376 . S
C383 C384 1.443 . S
C383 C410 1.389 . S
C384 C383 1.443 . S
C384 C385 1.340 . S
C384 H416 0.951 . S
C385 C384 1.340 . S
C385 C386 1.439 . S
C385 H417 0.950 . S
C386 N382 1.374 . S
C386 C385 1.439 . S
C386 C411 1.414 . S
N387 Co376 1.997 . S
N387 C388 1.376 . S
N387 C391 1.383 . S
C388 N387 1.376 . S
C388 C389 1.446 . S
C388 C411 1.376 1_455 S
C389 C388 1.446 . S
C389 C390 1.339 . S
C389 H418 0.949 . S
C390 C389 1.339 . S
C390 C391 1.439 . S
C390 H419 0.950 . S
C391 N387 1.383 . S
C391 C390 1.439 . S
C391 C409 1.392 . S
N392 Co376 2.286 . S
N392 C395 1.332 . S
N392 C397 1.332 . S
C393 C394 1.386 . S
C393 C396 1.388 . S
C394 C393 1.386 . S
C394 C395 1.382 . S
C394 H420 0.950 . S
C395 N392 1.332 . S
C395 C394 1.382 . S
C395 H406 0.952 . S
C396 C393 1.388 . S
C396 C397 1.382 . S
C396 H421 0.950 . S
C397 N392 1.332 . S
C397 C396 1.382 . S
C397 H407 0.948 . S
N398 Co376 2.279 1_655 S
N398 C402 1.332 . S
N398 C403 1.332 . S
C399 C400 1.388 . S
C399 C403 1.382 . S
C399 H422 0.950 . S
C400 C399 1.388 . S
C400 C401 1.386 . S
C401 C400 1.386 . S
C401 C402 1.382 . S
C401 H423 0.950 . S
C402 N398 1.332 . S
C402 C401 1.382 . S
C402 H404 0.952 . S
C403 N398 1.332 . S
C403 C399 1.382 . S
C403 H405 0.948 . S
H404 C402 0.952 . S
H405 C403 0.948 . S
H406 C395 0.952 . S
H407 C397 0.948 . S
C408 C374 1.395 . S
C408 C378 1.391 1_455 S
C409 C371 1.389 . S
C409 C391 1.392 . S
C410 C381 1.392 . S
C410 C383 1.389 . S
C411 C386 1.414 . S
C411 C388 1.376 1_655 S
H412 C372 0.951 . S
H413 C373 0.950 . S
H414 C379 0.949 . S
H415 C380 0.950 . S
H416 C384 0.951 . S
H417 C385 0.950 . S
H418 C389 0.949 . S
H419 C390 0.950 . S
H420 C394 0.950 . S
H421 C396 0.950 . S
H422 C399 0.950 . S
H423 C401 0.950 . S
C424 C425 1.363 . S
C424 C430 1.379 . S
C424 N432 1.356 . S
C425 C424 1.363 . S
C425 C431 1.363 . S
C426 C427 1.363 . S
C426 C431 1.379 . S
C426 N433 1.356 . S
C427 C426 1.363 . S
C427 C430 1.363 . S
N428 C430 1.356 . S
N428 H440 0.984 . S
N428 H441 0.985 . S
N429 C431 1.356 . S
N429 H434 0.984 . S
N429 H435 0.985 . S
C430 C424 1.379 . S
C430 C427 1.363 . S
C430 N428 1.356 . S
C431 C425 1.363 . S
C431 C426 1.379 . S
C431 N429 1.356 . S
N432 C424 1.356 . S
N432 H438 0.984 . S
N432 H439 0.984 . S
N433 C426 1.356 . S
N433 H436 0.984 . S
N433 H437 0.985 . S
H434 N429 0.984 . S
H435 N429 0.985 . S
H436 N433 0.984 . S
H437 N433 0.985 . S
H438 N432 0.984 . S
H439 N432 0.984 . S
H440 N428 0.984 . S
H441 N428 0.985 . S
C442 C443 1.363 . S
C442 C448 1.379 . S
C442 N450 1.356 . S
C443 C442 1.363 . S
C443 C449 1.363 . S
C444 C445 1.363 . S
C444 C449 1.379 . S
C444 N451 1.356 . S
C445 C444 1.363 . S
C445 C448 1.363 . S
N446 C448 1.356 . S
N446 H458 0.984 . S
N446 H459 0.985 . S
N447 C449 1.356 . S
N447 H452 0.984 . S
N447 H453 0.985 . S
C448 C442 1.379 . S
C448 C445 1.363 . S
C448 N446 1.356 . S
C449 C443 1.363 . S
C449 C444 1.379 . S
C449 N447 1.356 . S
N450 C442 1.356 . S
N450 H456 0.984 . S
N450 H457 0.984 . S
N451 C444 1.356 . S
N451 H454 0.984 . S
N451 H455 0.985 . S
H452 N447 0.984 . S
H453 N447 0.985 . S
H454 N451 0.984 . S
H455 N451 0.985 . S
H456 N450 0.984 . S
H457 N450 0.984 . S
H458 N446 0.984 . S
H459 N446 0.985 . S
C460 C461 1.363 . S
C460 C466 1.379 . S
C460 N468 1.356 . S
C461 C460 1.363 . S
C461 C467 1.363 . S
C462 C463 1.363 . S
C462 C467 1.379 . S
C462 N469 1.356 . S
C463 C462 1.363 . S
C463 C466 1.363 . S
N464 C466 1.356 . S
N464 H476 0.984 . S
N464 H477 0.985 . S
N465 C467 1.356 . S
N465 H470 0.984 . S
N465 H471 0.985 . S
C466 C460 1.379 . S
C466 C463 1.363 . S
C466 N464 1.356 . S
C467 C461 1.363 . S
C467 C462 1.379 . S
C467 N465 1.356 . S
N468 C460 1.356 . S
N468 H474 0.984 . S
N468 H475 0.984 . S
N469 C462 1.356 . S
N469 H472 0.984 . S
N469 H473 0.985 . S
H470 N465 0.984 . S
H471 N465 0.985 . S
H472 N469 0.984 . S
H473 N469 0.985 . S
H474 N468 0.984 . S
H475 N468 0.984 . S
H476 N464 0.984 . S
H477 N464 0.985 . S
C478 C479 1.363 . S
C478 C484 1.379 . S
C478 N486 1.356 . S
C479 C478 1.363 . S
C479 C485 1.363 . S
C480 C481 1.363 . S
C480 C485 1.379 . S
C480 N487 1.356 . S
C481 C480 1.363 . S
C481 C484 1.363 . S
N482 C484 1.356 . S
N482 H494 0.984 . S
N482 H495 0.985 . S
N483 C485 1.356 . S
N483 H488 0.984 . S
N483 H489 0.985 . S
C484 C478 1.379 . S
C484 C481 1.363 . S
C484 N482 1.356 . S
C485 C479 1.363 . S
C485 C480 1.379 . S
C485 N483 1.356 . S
N486 C478 1.356 . S
N486 H492 0.984 . S
N486 H493 0.984 . S
N487 C480 1.356 . S
N487 H490 0.984 . S
N487 H491 0.985 . S
H488 N483 0.984 . S
H489 N483 0.985 . S
H490 N487 0.984 . S
H491 N487 0.985 . S
H492 N486 0.984 . S
H493 N486 0.984 . S
H494 N482 0.984 . S
H495 N482 0.985 . S
C496 C497 1.363 . S
C496 C502 1.379 . S
C496 N504 1.356 . S
C497 C496 1.363 . S
C497 C503 1.363 . S
C498 C499 1.363 . S
C498 C503 1.379 . S
C498 N505 1.356 . S
C499 C498 1.363 . S
C499 C502 1.363 . S
N500 C502 1.356 . S
N500 H512 0.984 . S
N500 H513 0.985 . S
N501 C503 1.356 . S
N501 H506 0.984 . S
N501 H507 0.985 . S
C502 C496 1.379 . S
C502 C499 1.363 . S
C502 N500 1.356 . S
C503 C497 1.363 . S
C503 C498 1.379 . S
C503 N501 1.356 . S
N504 C496 1.356 . S
N504 H510 0.984 . S
N504 H511 0.984 . S
N505 C498 1.356 . S
N505 H508 0.984 . S
N505 H509 0.985 . S
H506 N501 0.984 . S
H507 N501 0.985 . S
H508 N505 0.984 . S
H509 N505 0.985 . S
H510 N504 0.984 . S
H511 N504 0.984 . S
H512 N500 0.984 . S
H513 N500 0.985 . S
C514 C515 1.363 . S
C514 C520 1.379 . S
C514 N522 1.356 . S
C515 C514 1.363 . S
C515 C521 1.363 . S
C516 C517 1.363 . S
C516 C521 1.379 . S
C516 N523 1.356 . S
C517 C516 1.363 . S
C517 C520 1.363 . S
N518 C520 1.356 . S
N518 H530 0.984 . S
N518 H531 0.985 . S
N519 C521 1.356 . S
N519 H524 0.984 . S
N519 H525 0.985 . S
C520 C514 1.379 . S
C520 C517 1.363 . S
C520 N518 1.356 . S
C521 C515 1.363 . S
C521 C516 1.379 . S
C521 N519 1.356 . S
N522 C514 1.356 . S
N522 H528 0.984 . S
N522 H529 0.984 . S
N523 C516 1.356 . S
N523 H526 0.984 . S
N523 H527 0.985 . S
H524 N519 0.984 . S
H525 N519 0.985 . S
H526 N523 0.984 . S
H527 N523 0.985 . S
H528 N522 0.984 . S
H529 N522 0.984 . S
H530 N518 0.984 . S
H531 N518 0.985 . S
C532 C533 1.363 . S
C532 C538 1.379 . S
C532 N540 1.356 . S
C533 C532 1.363 . S
C533 C539 1.363 . S
C534 C535 1.363 . S
C534 C539 1.379 . S
C534 N541 1.356 . S
C535 C534 1.363 . S
C535 C538 1.363 . S
N536 C538 1.356 . S
N536 H548 0.984 . S
N536 H549 0.985 . S
N537 C539 1.356 . S
N537 H542 0.984 . S
N537 H543 0.985 . S
C538 C532 1.379 . S
C538 C535 1.363 . S
C538 N536 1.356 . S
C539 C533 1.363 . S
C539 C534 1.379 . S
C539 N537 1.356 . S
N540 C532 1.356 . S
N540 H546 0.984 . S
N540 H547 0.984 . S
N541 C534 1.356 . S
N541 H544 0.984 . S
N541 H545 0.985 . S
H542 N537 0.984 . S
H543 N537 0.985 . S
H544 N541 0.984 . S
H545 N541 0.985 . S
H546 N540 0.984 . S
H547 N540 0.984 . S
H548 N536 0.984 . S
H549 N536 0.985 . S
C550 C551 1.363 . S
C550 C556 1.379 . S
C550 N558 1.356 . S
C551 C550 1.363 . S
C551 C557 1.363 . S
C552 C553 1.363 . S
C552 C557 1.379 . S
C552 N559 1.356 . S
C553 C552 1.363 . S
C553 C556 1.363 . S
N554 C556 1.356 . S
N554 H566 0.984 . S
N554 H567 0.985 . S
N555 C557 1.356 . S
N555 H560 0.984 . S
N555 H561 0.985 . S
C556 C550 1.379 . S
C556 C553 1.363 . S
C556 N554 1.356 . S
C557 C551 1.363 . S
C557 C552 1.379 . S
C557 N555 1.356 . S
N558 C550 1.356 . S
N558 H564 0.984 1_556 S
N558 H565 0.984 . S
N559 C552 1.356 . S
N559 H562 0.984 . S
N559 H563 0.985 . S
H560 N555 0.984 . S
H561 N555 0.985 . S
H562 N559 0.984 . S
H563 N559 0.985 . S
H564 N558 0.984 1_554 S
H565 N558 0.984 . S
H566 N554 0.984 . S
H567 N554 0.985 . S
C568 C569 1.363 . S
C568 C574 1.379 . S
C568 N576 1.356 . S
C569 C568 1.363 . S
C569 C575 1.363 . S
C570 C571 1.363 . S
C570 C575 1.379 . S
C570 N577 1.356 . S
C571 C570 1.363 . S
C571 C574 1.363 . S
N572 C574 1.356 . S
N572 H584 0.984 . S
N572 H585 0.985 . S
N573 C575 1.356 . S
N573 H578 0.984 . S
N573 H579 0.985 . S
C574 C568 1.379 . S
C574 C571 1.363 . S
C574 N572 1.356 . S
C575 C569 1.363 . S
C575 C570 1.379 . S
C575 N573 1.356 . S
N576 C568 1.356 . S
N576 H582 0.984 . S
N576 H583 0.984 . S
N577 C570 1.356 . S
N577 H580 0.984 . S
N577 H581 0.985 . S
H578 N573 0.984 . S
H579 N573 0.985 . S
H580 N577 0.984 . S
H581 N577 0.985 . S
H582 N576 0.984 . S
H583 N576 0.984 . S
H584 N572 0.984 . S
H585 N572 0.985 . S
C586 C587 1.363 . S
C586 C592 1.379 . S
C586 N594 1.356 . S
C587 C586 1.363 . S
C587 C593 1.363 . S
C588 C589 1.363 . S
C588 C593 1.379 . S
C588 N595 1.356 . S
C589 C588 1.363 . S
C589 C592 1.363 . S
N590 C592 1.356 . S
N590 H602 0.984 . S
N590 H603 0.985 . S
N591 C593 1.356 . S
N591 H596 0.984 . S
N591 H597 0.985 . S
C592 C586 1.379 . S
C592 C589 1.363 . S
C592 N590 1.356 . S
C593 C587 1.363 . S
C593 C588 1.379 . S
C593 N591 1.356 . S
N594 C586 1.356 . S
N594 H600 0.984 . S
N594 H601 0.984 . S
N595 C588 1.356 . S
N595 H598 0.984 . S
N595 H599 0.985 . S
H596 N591 0.984 . S
H597 N591 0.985 . S
H598 N595 0.984 . S
H599 N595 0.985 . S
H600 N594 0.984 . S
H601 N594 0.984 . S
H602 N590 0.984 . S
H603 N590 0.985 . S
C604 C605 1.363 . S
C604 C610 1.379 . S
C604 N612 1.356 . S
C605 C604 1.363 . S
C605 C611 1.363 . S
C606 C607 1.363 . S
C606 C611 1.379 . S
C606 N613 1.356 . S
C607 C606 1.363 . S
C607 C610 1.363 . S
N608 C610 1.356 . S
N608 H620 0.984 . S
N608 H621 0.985 . S
N609 C611 1.356 . S
N609 H614 0.984 . S
N609 H615 0.985 . S
C610 C604 1.379 . S
C610 C607 1.363 . S
C610 N608 1.356 . S
C611 C605 1.363 . S
C611 C606 1.379 . S
C611 N609 1.356 . S
N612 C604 1.356 . S
N612 H618 0.984 . S
N612 H619 0.984 . S
N613 C606 1.356 . S
N613 H616 0.984 . S
N613 H617 0.985 . S
H614 N609 0.984 . S
H615 N609 0.985 . S
H616 N613 0.984 . S
H617 N613 0.985 . S
H618 N612 0.984 . S
H619 N612 0.984 . S
H620 N608 0.984 . S
H621 N608 0.985 . S
C622 C623 1.363 . S
C622 C628 1.379 . S
C622 N630 1.356 . S
C623 C622 1.363 . S
C623 C629 1.363 . S
C624 C625 1.363 . S
C624 C629 1.379 . S
C624 N631 1.356 . S
C625 C624 1.363 . S
C625 C628 1.363 . S
N626 C628 1.356 . S
N626 H638 0.984 . S
N626 H639 0.985 . S
N627 C629 1.356 . S
N627 H632 0.984 . S
N627 H633 0.985 . S
C628 C622 1.379 . S
C628 C625 1.363 . S
C628 N626 1.356 . S
C629 C623 1.363 . S
C629 C624 1.379 . S
C629 N627 1.356 . S
N630 C622 1.356 . S
N630 H636 0.984 . S
N630 H637 0.984 . S
N631 C624 1.356 . S
N631 H634 0.984 . S
N631 H635 0.985 . S
H632 N627 0.984 . S
H633 N627 0.985 . S
H634 N631 0.984 . S
H635 N631 0.985 . S
H636 N630 0.984 . S
H637 N630 0.984 . S
H638 N626 0.984 . S
H639 N626 0.985 . S
C640 C641 1.363 . S
C640 C646 1.379 . S
C640 N648 1.356 . S
C641 C640 1.363 . S
C641 C647 1.363 . S
C642 C643 1.363 . S
C642 C647 1.379 . S
C642 N649 1.356 . S
C643 C642 1.363 . S
C643 C646 1.363 . S
N644 C646 1.356 . S
N644 H656 0.984 . S
N644 H657 0.985 . S
N645 C647 1.356 . S
N645 H650 0.984 . S
N645 H651 0.985 . S
C646 C640 1.379 . S
C646 C643 1.363 . S
C646 N644 1.356 . S
C647 C641 1.363 . S
C647 C642 1.379 . S
C647 N645 1.356 . S
N648 C640 1.356 . S
N648 H654 0.984 . S
N648 H655 0.984 . S
N649 C642 1.356 . S
N649 H652 0.984 . S
N649 H653 0.985 . S
H650 N645 0.984 . S
H651 N645 0.985 . S
H652 N649 0.984 . S
H653 N649 0.985 . S
H654 N648 0.984 . S
H655 N648 0.984 . S
H656 N644 0.984 . S
H657 N644 0.985 . S
C658 C659 1.363 . S
C658 C664 1.379 . S
C658 N666 1.356 . S
C659 C658 1.363 . S
C659 C665 1.363 . S
C660 C661 1.363 . S
C660 C665 1.379 . S
C660 N667 1.356 . S
C661 C660 1.363 . S
C661 C664 1.363 . S
N662 C664 1.356 . S
N662 H674 0.984 . S
N662 H675 0.985 . S
N663 C665 1.356 . S
N663 H668 0.984 . S
N663 H669 0.985 . S
C664 C658 1.379 . S
C664 C661 1.363 . S
C664 N662 1.356 . S
C665 C659 1.363 . S
C665 C660 1.379 . S
C665 N663 1.356 . S
N666 C658 1.356 . S
N666 H672 0.984 . S
N666 H673 0.984 . S
N667 C660 1.356 . S
N667 H670 0.984 . S
N667 H671 0.985 . S
H668 N663 0.984 . S
H669 N663 0.985 . S
H670 N667 0.984 . S
H671 N667 0.985 . S
H672 N666 0.984 . S
H673 N666 0.984 . S
H674 N662 0.984 . S
H675 N662 0.985 . S
C676 C677 1.363 . S
C676 C682 1.379 . S
C676 N684 1.356 . S
C677 C676 1.363 . S
C677 C683 1.363 . S
C678 C679 1.363 . S
C678 C683 1.379 . S
C678 N685 1.356 . S
C679 C678 1.363 . S
C679 C682 1.363 . S
N680 C682 1.356 . S
N680 H692 0.984 . S
N680 H693 0.985 . S
N681 C683 1.356 . S
N681 H686 0.984 . S
N681 H687 0.985 . S
C682 C676 1.379 . S
C682 C679 1.363 . S
C682 N680 1.356 . S
C683 C677 1.363 . S
C683 C678 1.379 . S
C683 N681 1.356 . S
N684 C676 1.356 . S
N684 H690 0.984 . S
N684 H691 0.984 . S
N685 C678 1.356 . S
N685 H688 0.984 . S
N685 H689 0.985 . S
H686 N681 0.984 . S
H687 N681 0.985 . S
H688 N685 0.984 . S
H689 N685 0.985 . S
H690 N684 0.984 . S
H691 N684 0.984 . S
H692 N680 0.984 . S
H693 N680 0.985 . S
C694 C695 1.363 . S
C694 C700 1.379 . S
C694 N702 1.356 . S
C695 C694 1.363 . S
C695 C701 1.363 . S
C696 C697 1.363 . S
C696 C701 1.379 . S
C696 N703 1.356 . S
C697 C696 1.363 . S
C697 C700 1.363 . S
N698 C700 1.356 . S
N698 H710 0.984 . S
N698 H711 0.985 . S
N699 C701 1.356 . S
N699 H704 0.984 . S
N699 H705 0.985 . S
C700 C694 1.379 . S
C700 C697 1.363 . S
C700 N698 1.356 . S
C701 C695 1.363 . S
C701 C696 1.379 . S
C701 N699 1.356 . S
N702 C694 1.356 . S
N702 H708 0.984 . S
N702 H709 0.984 . S
N703 C696 1.356 . S
N703 H706 0.984 . S
N703 H707 0.985 . S
H704 N699 0.984 . S
H705 N699 0.985 . S
H706 N703 0.984 . S
H707 N703 0.985 . S
H708 N702 0.984 . S
H709 N702 0.984 . S
H710 N698 0.984 . S
H711 N698 0.985 . S
C425 C22 1.575 . S
C427 C198 1.580 . S
C443 C38 1.608 . S
C445 C91 1.604 . S
C461 C128 1.402 . S
C463 C75 1.399 . S
C479 C188 1.470 . S
C481 C144 1.470 . S
C497 C29 1.575 . S
C499 C304 1.579 . S
C515 C39 1.608 . S
C517 C250 1.605 . S
C533 C234 1.399 . S
C535 C135 1.402 . S
C551 C145 1.470 . S
C553 C294 1.469 . S
C569 C347 1.526 . S
C571 C303 1.526 . S
C587 C251 1.649 . S
C589 C357 1.644 . S
C605 C241 1.536 . S
C607 C410 1.537 . S
C623 C287 1.341 . S
C625 C400 1.342 . S
C641 C340 1.526 . S
C643 C197 1.526 . S
C659 C92 1.648 . S
C661 C356 1.644 . S
C677 C82 1.536 . S
C679 C409 1.537 . S
C695 C181 1.341 . S
C697 C393 1.342 . S
