# Generated by pormake.
# Topology uni, (4)-cn, num edge types: 1
# Building blocks:
#     Node 0, Type 0, BuildingBlock: TATPOV_clean_sbu_0, # of connection points: 4
#     Node 1, Type 0, BuildingBlock: TATPOV_clean_sbu_0, # of connection points: 4
#     Node 2, Type 0, BuildingBlock: TATPOV_clean_sbu_0, # of connection points: 4
#     Node 3, Type 0, BuildingBlock: TATPOV_clean_sbu_0, # of connection points: 4
#     Node 4, Type 0, BuildingBlock: TATPOV_clean_sbu_0, # of connection points: 4
#     Node 5, Type 0, BuildingBlock: TATPOV_clean_sbu_0, # of connection points: 4
#     Edge 6, Type (0, 0), BuildingBlock: ZUJKAS_clean_linker_0, # of connection points: 2
#     Edge 7, Type (0, 0), BuildingBlock: ZUJKAS_clean_linker_0, # of connection points: 2
#     Edge 8, Type (0, 0), BuildingBlock: ZUJKAS_clean_linker_0, # of connection points: 2
#     Edge 9, Type (0, 0), BuildingBlock: ZUJKAS_clean_linker_0, # of connection points: 2
#     Edge 10, Type (0, 0), BuildingBlock: ZUJKAS_clean_linker_0, # of connection points: 2
#     Edge 11, Type (0, 0), BuildingBlock: ZUJKAS_clean_linker_0, # of connection points: 2
#     Edge 12, Type (0, 0), BuildingBlock: ZUJKAS_clean_linker_0, # of connection points: 2
#     Edge 13, Type (0, 0), BuildingBlock: ZUJKAS_clean_linker_0, # of connection points: 2
#     Edge 14, Type (0, 0), BuildingBlock: ZUJKAS_clean_linker_0, # of connection points: 2
#     Edge 15, Type (0, 0), BuildingBlock: ZUJKAS_clean_linker_0, # of connection points: 2
#     Edge 16, Type (0, 0), BuildingBlock: ZUJKAS_clean_linker_0, # of connection points: 2
#     Edge 17, Type (0, 0), BuildingBlock: ZUJKAS_clean_linker_0, # of connection points: 2
# Relax obj value: 0.034
# Max RMSD: 0.067
# Mean RMSD: 0.067
data_MOF--net-uni--node1-TATPOV_clean_sbu_0--edge1-ZUJKAS_clean_linker_0
_symmetry_space_group_name_H-M    P1
_symmetry_Int_Tables_number       1
_symmetry_cell_setting            triclinic
loop_
_symmetry_equiv_pos_as_xyz
'x, y, z'
_cell_length_a     50.085117
_cell_length_b     50.052908
_cell_length_c     29.788112
_cell_angle_alpha  90.010773
_cell_angle_beta   89.992606
_cell_angle_gamma 119.9694
loop_
_atom_site_label
_atom_site_type_symbol
_atom_site_fract_x
_atom_site_fract_y
_atom_site_fract_z
_atom_type_partial_charge
Zn0 Zn 0.56604 0.91911 0.06756 0.0
Zn1 Zn 0.62305 0.96782 0.05406 0.0
O2 O 0.63225 0.93289 0.06963 0.0
O3 O 0.58572 0.89305 0.07954 0.0
O4 O 0.66416 0.00469 0.03806 0.0
O5 O 0.55249 0.92284 0.00505 0.0
O6 O 0.59877 0.96304 0.99608 0.0
C7 C 0.6147 0.9044 0.07884 0.0
C8 C 0.58213 0.97049 0.1281 0.0
O9 O 0.60769 0.98288 0.10699 0.0
O10 O 0.56098 0.94354 0.11783 0.0
C11 C 0.68775 0.01788 0.06326 0.0
O12 O 0.68666 0.00685 0.10366 0.0
C13 C 0.57176 0.94502 0.9811 0.0
Zn14 Zn 0.6733 0.55833 0.2134 0.0
Zn15 Zn 0.68284 0.61648 0.21147 0.0
O16 O 0.72612 0.62274 0.22649 0.0
O17 O 0.71805 0.57529 0.22838 0.0
O18 O 0.6899 0.65977 0.20244 0.0
O19 O 0.6585 0.55054 0.14918 0.0
O20 O 0.6629 0.59652 0.15102 0.0
C21 C 0.73615 0.60404 0.23243 0.0
C22 C 0.63717 0.57012 0.2787 0.0
O23 O 0.65154 0.59742 0.26287 0.0
O24 O 0.64232 0.54953 0.26322 0.0
C25 C 0.67887 0.67265 0.22716 0.0
O26 O 0.66296 0.65819 0.26303 0.0
C27 C 0.65486 0.57124 0.13062 0.0
Zn28 Zn 0.13946 0.66151 0.40073 0.0
Zn29 Zn 0.08968 0.6689 0.39303 0.0
O30 O 0.12484 0.71282 0.40836 0.0
O31 O 0.16559 0.70716 0.41346 0.0
O32 O 0.05236 0.67369 0.38297 0.0
O33 O 0.13323 0.64466 0.33745 0.0
O34 O 0.09225 0.64988 0.33314 0.0
C35 C 0.15363 0.72424 0.41551 0.0
C36 C 0.09046 0.62513 0.46411 0.0
O37 O 0.07701 0.638 0.44505 0.0
O38 O 0.11722 0.63153 0.45166 0.0
C39 C 0.0271 0.64933 0.37404 0.0
O40 O 0.02655 0.6228 0.37331 0.0
C41 C 0.11002 0.64133 0.31577 0.0
Zn42 Zn 0.4969 0.12674 0.56781 0.0
Zn43 Zn 0.44048 0.07722 0.55354 0.0
O44 O 0.43021 0.1113 0.5696 0.0
O45 O 0.47617 0.15182 0.58025 0.0
O46 O 0.3998 0.03999 0.53702 0.0
O47 O 0.51103 0.12365 0.50531 0.0
O48 O 0.46529 0.08274 0.49592 0.0
C49 C 0.44711 0.13977 0.57944 0.0
C50 C 0.48146 0.07524 0.62792 0.0
O51 O 0.45604 0.06247 0.60647 0.0
O52 O 0.50229 0.1024 0.61798 0.0
C53 C 0.37627 0.02652 0.56226 0.0
O54 O 0.37726 0.03743 0.60273 0.0
C55 C 0.49225 0.10127 0.48121 0.0
Zn56 Zn 0.39659 0.48852 0.71613 0.0
Zn57 Zn 0.38587 0.43003 0.70797 0.0
O58 O 0.3426 0.42261 0.72478 0.0
O59 O 0.35158 0.47019 0.73234 0.0
O60 O 0.3808 0.3882 0.6945 0.0
O61 O 0.41132 0.49891 0.6521 0.0
O62 O 0.40484 0.45218 0.64834 0.0
C63 C 0.33308 0.44136 0.73387 0.0
C64 C 0.43225 0.47338 0.777 0.0
O65 O 0.41706 0.44656 0.75983 0.0
O66 O 0.42822 0.49515 0.76378 0.0
C67 C 0.36619 0.36332 0.71676 0.0
O68 O 0.35145 0.36295 0.75346 0.0
C69 C 0.41365 0.47841 0.63046 0.0
Zn70 Zn 0.92932 0.382 0.90008 0.0
Zn71 Zn 0.9787 0.37397 0.89321 0.0
O72 O 0.94323 0.3301 0.90844 0.0
O73 O 0.90285 0.33644 0.91289 0.0
O74 O 0.01607 0.36912 0.88385 0.0
O75 O 0.93583 0.3986 0.83671 0.0
O76 O 0.97654 0.39288 0.83294 0.0
C77 C 0.91445 0.31904 0.91523 0.0
C78 C 0.97801 0.41825 0.96369 0.0
O79 O 0.99127 0.40502 0.9451 0.0
O80 O 0.95141 0.41213 0.95086 0.0
C81 C 0.04162 0.3937 0.87718 0.0
O82 O 0.04231 0.42029 0.87814 0.0
C83 C 0.95898 0.40158 0.81524 0.0
H84 H 0.52885 0.9519 0.17481 0.0
H85 H 0.51772 0.98122 0.22953 0.0
H86 H 0.61017 0.05787 0.21573 0.0
H87 H 0.62172 0.0286 0.16056 0.0
H88 H 0.58787 0.04012 0.30715 0.0
H89 H 0.50624 0.05609 0.20029 0.0
H90 H 0.49838 0.01696 0.20315 0.0
H91 H 0.53351 0.046 0.17761 0.0
C92 C 0.54693 0.97497 0.18332 0.0
C93 C 0.57618 0.98794 0.16308 0.0
C94 C 0.54042 0.99176 0.21442 0.0
C95 C 0.56293 0.02188 0.22596 0.0
C96 C 0.59241 0.03474 0.20683 0.0
H97 H 0.54847 0.13498 0.44019 0.0
H98 H 0.5677 0.12001 0.37492 0.0
C99 C 0.59896 0.01796 0.17542 0.0
C100 C 0.55555 0.03936 0.25893 0.0
H101 H 0.50547 0.0656 0.27876 0.0
C102 C 0.57024 0.0462 0.30083 0.0
C103 C 0.53251 0.04717 0.2504 0.0
C104 C 0.51691 0.04146 0.20528 0.0
C105 C 0.56132 0.0592 0.3354 0.0
C106 C 0.53754 0.0661 0.32734 0.0
C107 C 0.52366 0.06027 0.28484 0.0
C108 C 0.52521 0.07718 0.36359 0.0
C109 C 0.57633 0.06394 0.38088 0.0
C110 C 0.49448 0.05883 0.37738 0.0
C111 C 0.48331 0.06744 0.41433 0.0
C112 C 0.50268 0.09461 0.43822 0.0
C113 C 0.533 0.11378 0.4228 0.0
C114 C 0.54412 0.10518 0.38569 0.0
H115 H 0.58938 0.05146 0.38407 0.0
H116 H 0.59271 0.08888 0.38597 0.0
H117 H 0.55882 0.05604 0.40803 0.0
H118 H 0.47944 0.03722 0.36057 0.0
H119 H 0.45982 0.05217 0.42514 0.0
H120 H 0.60311 0.51431 0.31974 0.0
H121 H 0.5626 0.4997 0.37569 0.0
H122 H 0.57688 0.59209 0.37419 0.0
H123 H 0.61736 0.60696 0.31756 0.0
H124 H 0.56748 0.52487 0.46091 0.0
H125 H 0.48329 0.53785 0.35494 0.0
H126 H 0.51572 0.53622 0.33155 0.0
H127 H 0.52128 0.57108 0.35735 0.0
C128 C 0.5977 0.5316 0.33118 0.0
C129 C 0.61346 0.56182 0.31401 0.0
C130 C 0.57449 0.52316 0.36316 0.0
C131 C 0.56642 0.54466 0.37851 0.0
C132 C 0.58235 0.57498 0.36205 0.0
H133 H 0.43954 0.53354 0.58561 0.0
H134 H 0.47495 0.54909 0.52184 0.0
C135 C 0.60564 0.58349 0.32997 0.0
C136 C 0.54195 0.53532 0.41281 0.0
H137 H 0.47041 0.52581 0.43169 0.0
C138 C 0.54623 0.525 0.45451 0.0
C139 C 0.5143 0.53562 0.4043 0.0
C140 C 0.50812 0.54553 0.35951 0.0
C141 C 0.52369 0.51514 0.48813 0.0
C142 C 0.49589 0.51508 0.47948 0.0
C143 C 0.49169 0.52572 0.43799 0.0
C144 C 0.47125 0.50443 0.5137 0.0
C145 C 0.53004 0.50533 0.53293 0.0
C146 C 0.45646 0.47381 0.52885 0.0
C147 C 0.43622 0.46481 0.56528 0.0
C148 C 0.43037 0.4863 0.58709 0.0
C149 C 0.44365 0.51644 0.56978 0.0
C150 C 0.46391 0.5254 0.53334 0.0
H151 H 0.55497 0.51354 0.53769 0.0
H152 H 0.52203 0.51423 0.56094 0.0
H153 H 0.51739 0.47978 0.53488 0.0
H154 H 0.46143 0.45716 0.51351 0.0
H155 H 0.42623 0.44136 0.57749 0.0
H156 H 0.9268 0.42309 0.76777 0.0
H157 H 0.94448 0.45717 0.70244 0.0
H158 H 0.02866 0.45345 0.7005 0.0
H159 H 0.01104 0.41903 0.76535 0.0
H160 H 0.9963 0.51448 0.7023 0.0
H161 H 0.00471 0.44208 0.56858 0.0
H162 H 0.98327 0.42598 0.61975 0.0
H163 H 0.02448 0.44266 0.61912 0.0
C164 C 0.9488 0.42898 0.75291 0.0
C165 C 0.96753 0.41835 0.77189 0.0
C166 C 0.95889 0.44852 0.7156 0.0
C167 C 0.98776 0.45766 0.69638 0.0
C168 C 0.00602 0.44621 0.7142 0.0
H169 H 0.113 0.59411 0.51184 0.0
H170 H 0.08611 0.55358 0.56754 0.0
C171 C 0.99595 0.42661 0.75145 0.0
C172 C 1.00004 0.48137 0.66052 0.0
H173 H 0.03113 0.49652 0.55526 0.0
C174 C 0.00355 0.51046 0.6699 0.0
C175 C 0.00954 0.47606 0.61838 0.0
C176 C 0.00506 0.44491 0.60561 0.0
C177 C 0.01734 0.53474 0.63888 0.0
C178 C 0.02748 0.52962 0.59715 0.0
C179 C 0.0234 0.50037 0.58738 0.0
C180 C 0.04354 0.55466 0.56387 0.0
C181 C 0.02201 0.56597 0.65166 0.0
C182 C 0.02848 0.56874 0.54335 0.0
C183 C 0.04383 0.59207 0.51149 0.0
C184 C 0.07448 0.60159 0.49947 0.0
C185 C 0.08945 0.58744 0.52031 0.0
C186 C 0.0741 0.56418 0.55208 0.0
H187 H 0.01899 0.56777 0.68828 0.0
H188 H 0.04536 0.58457 0.6418 0.0
H189 H 0.00486 0.5699 0.63371 0.0
H190 H 0.00472 0.56139 0.55152 0.0
H191 H 0.03155 0.60231 0.49586 0.0
H192 H 0.51563 0.91229 0.93967 0.0
H193 H 0.49747 0.92751 0.87353 0.0
H194 H 0.58674 0.00911 0.85969 0.0
H195 H 0.60527 0.99388 0.92512 0.0
H196 H 0.49383 0.97987 0.86749 0.0
H197 H 0.56837 0.97853 0.73147 0.0
H198 H 0.56454 0.95984 0.78484 0.0
H199 H 0.59026 1.0007 0.77894 0.0
C200 C 0.53162 0.93316 0.92202 0.0
C201 C 0.56192 0.95189 0.93777 0.0
C202 C 0.52116 0.94183 0.88427 0.0
C203 C 0.54082 0.96926 0.86139 0.0
C204 C 0.57135 0.98749 0.87618 0.0
H205 H 0.53407 0.09516 0.67697 0.0
H206 H 0.54542 0.06638 0.7324 0.0
C207 C 0.58186 0.97882 0.91382 0.0
C208 C 0.52879 0.98038 0.82477 0.0
H209 H 0.54338 0.00815 0.71755 0.0
C210 C 0.50429 0.98557 0.83443 0.0
C211 C 0.54247 0.98777 0.78167 0.0
C212 C 0.56765 0.98113 0.76843 0.0
C213 C 0.49411 0.99934 0.80287 0.0
C214 C 0.50864 0.00784 0.76048 0.0
C215 C 0.53241 1.00171 0.75024 0.0
C216 C 0.50091 0.02495 0.72732 0.0
C217 C 0.46886 0.00598 0.81574 0.0
C218 C 0.47202 0.01113 0.70618 0.0
C219 C 0.46536 0.02757 0.67435 0.0
C220 C 0.48756 0.05806 0.66315 0.0
C221 C 0.51638 0.07178 0.68478 0.0
C222 C 0.523 0.05534 0.71639 0.0
H223 H 0.46357 0.0026 0.85222 0.0
H224 H 0.47541 0.03002 0.80669 0.0
H225 H 0.44756 0.99024 0.79699 0.0
H226 H 0.45479 0.98755 0.71387 0.0
H227 H 0.443 0.01627 0.65818 0.0
H228 H 0.62057 0.5959 0.10036 0.0
H229 H 0.58501 0.57832 0.0369 0.0
H230 H 0.61511 0.51413 0.00013 0.0
H231 H 0.64947 0.53043 0.06531 0.0
H232 H 0.5889 0.57735 0.9509 0.0
H233 H 0.52522 0.45604 0.00911 0.0
H234 H 0.55441 0.48656 0.04279 0.0
H235 H 0.56511 0.46909 -0.00133 0.0
C236 C 0.61986 0.57826 0.07848 0.0
C237 C 0.63754 0.56429 0.08803 0.0
C238 C 0.59944 0.56815 0.04224 0.0
C239 C 0.59665 0.54421 0.01442 0.0
C240 C 0.61594 0.53177 0.02207 0.0
H241 H 0.49359 0.5039 0.763 0.0
H242 H 0.5344 0.51964 0.81937 0.0
C243 C 0.63584 0.54135 0.05899 0.0
C244 C 0.57306 0.53204 0.97822 0.0
H245 H 0.51172 0.46612 0.93737 0.0
C246 C 0.57201 0.55302 0.94801 0.0
C247 C 0.55057 0.50034 0.97493 0.0
C248 C 0.54862 0.47676 0.00839 0.0
C249 C 0.54917 0.5433 0.91479 0.0
C250 C 0.52752 0.51146 0.91029 0.0
C251 C 0.52855 0.49045 0.94044 0.0
C252 C 0.50301 0.4996 0.87548 0.0
C253 C 0.54788 0.56749 0.88606 0.0
C254 C 0.47184 0.4815 0.88782 0.0
C255 C 0.4486 0.47173 0.8554 0.0
C256 C 0.45628 0.48012 0.81037 0.0
C257 C 0.48734 0.49732 0.79774 0.0
C258 C 0.51056 0.50659 0.82994 0.0
H259 H 0.55935 0.59042 0.90275 0.0
H260 H 0.56014 0.56983 0.854 0.0
H261 H 0.52373 0.56114 0.87836 0.0
H262 H 0.46546 0.47563 0.92269 0.0
H263 H 0.42469 0.45857 0.86565 0.0
H264 H 0.95638 0.451 0.00903 0.0
H265 H 0.98355 0.49185 0.06416 0.0
H266 H 0.06324 0.48067 0.05298 0.0
H267 H 0.03613 0.43943 0.99774 0.0
H268 H 0.04557 0.48421 0.14237 0.0
H269 H 0.05416 0.57977 0.03754 0.0
H270 H 0.01581 0.54734 0.04172 0.0
H271 H 0.04536 0.54292 0.01432 0.0
C272 C 0.97968 0.45713 0.01822 0.0
C273 C 0.99411 0.44198 -0.00122 0.0
C274 C 0.99524 0.48068 0.04952 0.0
C275 C 0.02559 0.48969 0.06191 0.0
C276 C 0.0399 0.47421 0.04347 0.0
H277 H 0.14266 0.62012 0.26866 0.0
H278 H 0.12506 0.58544 0.20392 0.0
C279 C 0.02434 0.45062 0.01201 0.0
C280 C 0.04192 0.51472 0.09511 0.0
H281 H 0.06529 0.59043 0.11553 0.0
C282 C 0.05027 0.50755 0.13639 0.0
C283 C 0.04792 0.54509 0.0871 0.0
C284 C 0.04062 0.5544 0.04262 0.0
C285 C 0.06338 0.52966 0.17063 0.0
C286 C 0.06883 0.5599 0.16295 0.0
C287 C 0.06108 0.56724 0.1213 0.0
C288 C 0.08115 0.58372 0.19861 0.0
C289 C 0.07011 0.52011 0.21536 0.0
C290 C 0.06296 0.59548 0.21554 0.0
C291 C 0.07303 0.61554 0.25227 0.0
C292 C 0.10155 0.62421 0.27271 0.0
C293 C 0.12047 0.61372 0.25399 0.0
C294 C 0.11039 0.59373 0.21717 0.0
H295 H 0.05827 0.49462 0.219 0.0
H296 H 0.09528 0.5292 0.21838 0.0
H297 H 0.06289 0.52967 0.24345 0.0
H298 H 0.0404 0.58819 0.20144 0.0
H299 H 0.0579 0.62321 0.26573 0.0
H300 H 0.70947 0.70847 0.1544 0.0
H301 H 0.70892 0.75435 0.12738 0.0
H302 H 0.65202 0.74878 0.23971 0.0
H303 H 0.65294 0.70337 0.2674 0.0
H304 H 0.6588 0.75636 0.10066 0.0
H305 H 0.71444 0.83984 0.23889 0.0
H306 H 0.71697 0.80521 0.23393 0.0
H307 H 0.68354 0.80379 0.2589 0.0
C308 C 0.69728 0.71732 0.17381 0.0
C309 C 0.68121 0.70219 0.21308 0.0
C310 C 0.697 0.74356 0.15829 0.0
C311 C 0.68079 0.7553 0.1818 0.0
C312 C 0.66534 0.74066 0.22156 0.0
H313 H 0.58307 0.84235 0.09314 0.0
H314 H 0.60343 0.80903 0.11425 0.0
C315 C 0.66569 0.7145 0.23719 0.0
C316 C 0.67743 0.78089 0.16266 0.0
H317 H 0.68215 0.84956 0.18906 0.0
C318 C 0.66441 0.77698 0.11973 0.0
C319 C 0.68516 0.80807 0.18714 0.0
C320 C 0.70111 0.81466 0.23207 0.0
C321 C 0.6573 0.79859 0.10174 0.0
C322 C 0.66287 0.82455 0.12765 0.0
C323 C 0.67754 0.82944 0.16945 0.0
C324 C 0.65119 0.84529 0.11361 0.0
C325 C 0.64336 0.79311 0.0554 0.0
C326 C 0.67127 0.87699 0.10705 0.0
C327 C 0.65964 0.89633 0.09498 0.0
C328 C 0.6277 0.88426 0.08983 0.0
C329 C 0.60779 0.85249 0.0966 0.0
C330 C 0.6194 0.83329 0.10845 0.0
H331 H 0.64952 0.77841 0.03496 0.0
H332 H 0.61787 0.78099 0.05836 0.0
H333 H 0.65103 0.8152 0.0374 0.0
H334 H 0.6959 0.88674 0.11124 0.0
H335 H 0.67559 0.9207 0.09026 0.0
H336 H 0.96964 0.60098 0.35749 0.0
H337 H 0.92342 0.60266 0.33659 0.0
H338 H 0.97399 0.70194 0.34441 0.0
H339 H 0.02071 0.70055 0.3652 0.0
H340 H 0.89348 0.62956 0.38592 0.0
H341 H 0.9339 0.68296 0.2173 0.0
H342 H 0.9523 0.66522 0.24743 0.0
H343 H 0.95834 0.70217 0.26469 0.0
C344 C 0.97104 0.62323 0.35483 0.0
C345 C 0.99894 0.65065 0.36288 0.0
C346 C 0.94456 0.62413 0.34291 0.0
C347 C 0.94536 0.65242 0.33849 0.0
C348 C 0.97301 0.67989 0.34703 0.0
H349 H 0.7825 0.66382 0.24826 0.0
H350 H 0.83482 0.68065 0.27607 0.0
C351 C 0.99961 0.67902 0.35913 0.0
C352 C 0.91694 0.6526 0.32515 0.0
H353 H 0.88266 0.66735 0.23681 0.0
C354 C 0.89124 0.63823 0.3536 0.0
C355 C 0.91415 0.66412 0.28308 0.0
C356 C 0.941 0.67936 0.25106 0.0
C357 C 0.86249 0.63394 0.34036 0.0
C358 C 0.85927 0.64389 0.29732 0.0
C359 C 0.88528 0.65976 0.26977 0.0
C360 C 0.82845 0.63463 0.27865 0.0
C361 C 0.83549 0.61795 0.37201 0.0
C362 C 0.808 0.6034 0.26992 0.0
C363 C 0.77841 0.59378 0.25397 0.0
C364 C 0.7685 0.61521 0.24631 0.0
C365 C 0.78936 0.64672 0.25391 0.0
C366 C 0.81921 0.65638 0.2698 0.0
H367 H 0.84318 0.61936 0.40735 0.0
H368 H 0.82025 0.62811 0.36976 0.0
H369 H 0.82175 0.59321 0.36272 0.0
H370 H 0.81489 0.58633 0.2759 0.0
H371 H 0.76315 0.56936 0.24831 0.0
H372 H 0.21567 0.75541 0.43035 0.0
H373 H 0.24763 0.80825 0.45649 0.0
H374 H 0.16847 0.82073 0.45684 0.0
H375 H 0.13604 0.76758 0.43018 0.0
H376 H 0.22284 0.87109 0.41939 0.0
H377 H 0.24531 0.83662 0.58555 0.0
H378 H 0.25371 0.81878 0.53959 0.0
H379 H 0.21471 0.81009 0.54904 0.0
C380 C 0.20493 0.7693 0.4358 0.0
C381 C 0.17317 0.75709 0.42848 0.0
C382 C 0.22327 0.7995 0.451 0.0
C383 C 0.2103 0.81817 0.45949 0.0
C384 C 0.17885 0.80655 0.45085 0.0
H385 H 0.32224 0.99051 0.60772 0.0
H386 H 0.27825 0.94152 0.58317 0.0
C387 C 0.16038 0.77621 0.43559 0.0
C388 C 0.2299 0.84976 0.47746 0.0
H389 H 0.27889 0.88901 0.5636 0.0
C390 C 0.23481 0.87508 0.45119 0.0
C391 C 0.24504 0.85492 0.51933 0.0
C392 C 0.23922 0.82867 0.55026 0.0
C393 C 0.25575 0.90543 0.46464 0.0
C394 C 0.27249 0.91046 0.50506 0.0
C395 C 0.26632 0.88517 0.53239 0.0
C396 C 0.29782 0.94143 0.51843 0.0
C397 C 0.25988 0.93178 0.43528 0.0
C398 C 0.32345 0.95762 0.49027 0.0
C399 C 0.34855 0.98557 0.50414 0.0
C400 C 0.34872 0.99783 0.54673 0.0
C401 C 0.32285 0.98176 0.57472 0.0
C402 C 0.29769 0.95376 0.56073 0.0
H403 H 0.239 0.9252 0.41467 0.0
H404 H 0.26497 0.95239 0.4556 0.0
H405 H 0.27943 0.9381 0.41197 0.0
H406 H 0.32446 0.94821 0.45799 0.0
H407 H 0.36811 0.99722 0.48178 0.0
H408 H 0.33971 0.30632 0.7571 0.0
H409 H 0.34475 0.26188 0.73471 0.0
H410 H 0.40078 0.31335 0.62185 0.0
H411 H 0.39552 0.35748 0.64336 0.0
H412 H 0.35735 0.25228 0.6004 0.0
H413 H 0.4247 0.2595 0.75311 0.0
H414 H 0.38741 0.25539 0.76273 0.0
H415 H 0.41728 0.28996 0.73718 0.0
C416 C 0.35294 0.3081 0.72736 0.0
C417 C 0.36744 0.33559 0.70229 0.0
C418 C 0.35589 0.28272 0.71472 0.0
C419 C 0.3735 0.28447 0.67696 0.0
C420 C 0.38712 0.3115 0.65113 0.0
H421 H 0.47724 0.20097 0.60034 0.0
H422 H 0.45523 0.23241 0.62409 0.0
C423 C 0.38416 0.33678 0.66364 0.0
C424 C 0.37908 0.25887 0.66497 0.0
H425 H 0.41694 0.22171 0.69987 0.0
C426 C 0.37003 0.24527 0.62232 0.0
C427 C 0.39587 0.25 0.69353 0.0
C428 C 0.40714 0.26456 0.73908 0.0
C429 C 0.37808 0.22365 0.60699 0.0
C430 C 0.39535 0.21525 0.63526 0.0
C431 C 0.40356 0.22813 0.67839 0.0
C432 C 0.40786 0.1956 0.61932 0.0
C433 C 0.36935 0.21108 0.55995 0.0
C434 C 0.38847 0.16437 0.6085 0.0
C435 C 0.40104 0.14616 0.59473 0.0
C436 C 0.4332 0.15892 0.59172 0.0
C437 C 0.45239 0.1903 0.60224 0.0
C438 C 0.43986 0.20836 0.61596 0.0
H439 H 0.36028 0.22357 0.53999 0.0
H440 H 0.38956 0.21259 0.54218 0.0
H441 H 0.35126 0.18639 0.56153 0.0
H442 H 0.3637 0.15399 0.6114 0.0
H443 H 0.38561 0.12206 0.58709 0.0
H444 H 0.04769 0.3428 0.8619 0.0
H445 H 0.0949 0.34207 0.84186 0.0
H446 H 0.14655 0.44138 0.8481 0.0
H447 H 0.09987 0.44238 0.86817 0.0
H448 H 0.13424 0.37136 0.76631 0.0
H449 H 0.1968 0.41482 0.92695 0.0
H450 H 0.15564 0.39897 0.92216 0.0
H451 H 0.18171 0.43821 0.90581 0.0
C452 C 0.06918 0.36445 0.85938 0.0
C453 C 0.07003 0.39265 0.86679 0.0
C454 C 0.09608 0.36398 0.84785 0.0
C455 C 0.12427 0.39164 0.84414 0.0
C456 C 0.12514 0.41973 0.85162 0.0
H457 H 0.30681 0.47593 0.75554 0.0
H458 H 0.2548 0.45835 0.78255 0.0
C459 C 0.09836 0.42025 0.86288 0.0
C460 C 0.15282 0.39171 0.83069 0.0
H461 H 0.2277 0.42002 0.86219 0.0
C462 C 0.15454 0.38137 0.78753 0.0
C463 C 0.17918 0.40461 0.8586 0.0
C464 C 0.17823 0.4145 0.90614 0.0
C465 C 0.18258 0.38558 0.77045 0.0
C466 C 0.20933 0.40021 0.79746 0.0
C467 C 0.20715 0.40895 0.84147 0.0
C468 C 0.24038 0.40984 0.7793 0.0
C469 C 0.18389 0.37604 0.72284 0.0
C470 C 0.24951 0.3883 0.76825 0.0
C471 C 0.2795 0.39831 0.75269 0.0
C472 C 0.30074 0.43002 0.74802 0.0
C473 C 0.29118 0.45135 0.75867 0.0
C474 C 0.26142 0.44137 0.77423 0.0
H475 H 0.16175 0.3679 0.70477 0.0
H476 H 0.2025 0.39567 0.70402 0.0
H477 H 0.18934 0.3571 0.72309 0.0
H478 H 0.23364 0.36384 0.77235 0.0
H479 H 0.28614 0.38128 0.74494 0.0
H480 H 0.9312 0.27546 0.93356 0.0
H481 H 0.89766 0.22234 0.95949 0.0
H482 H 0.81899 0.23542 0.95139 0.0
H483 H 0.85207 0.28826 0.92613 0.0
H484 H 0.8238 0.21091 0.03316 0.0
H485 H 0.83384 0.14631 0.88823 0.0
H486 H 0.86943 0.1751 0.91308 0.0
H487 H 0.84515 0.18663 0.88479 0.0
C488 C 0.90671 0.26691 0.93687 0.0
C489 C 0.89437 0.28619 0.92781 0.0
C490 C 0.88757 0.23652 0.95156 0.0
C491 C 0.8558 0.22489 0.95711 0.0
C492 C 0.84344 0.24394 0.94739 0.0
H493 H 0.69609 0.04739 0.98294 0.0
H494 H 0.73978 0.09659 0.95957 0.0
C495 C 0.86245 0.27418 0.93286 0.0
C496 C 0.83522 0.19337 0.97471 0.0
H497 H 0.80255 0.1169 0.94868 0.0
C498 C 0.81934 0.19031 0.01494 0.0
C499 C 0.82935 0.16661 0.95067 0.0
C500 C 0.84511 0.16861 0.90661 0.0
C501 C 0.79714 0.16128 0.03125 0.0
C502 C 0.79106 0.13448 0.00706 0.0
C503 C 0.80744 0.13748 0.96732 0.0
C504 C 0.76594 0.10345 0.02049 0.0
C505 C 0.77943 0.15966 0.07315 0.0
C506 C 0.7664 0.09059 0.06219 0.0
C507 C 0.74129 0.06244 0.07586 0.0
C508 C 0.71537 0.04658 0.0479 0.0
C509 C 0.71557 0.05902 0.00546 0.0
C510 C 0.74059 0.08713 0.99193 0.0
H511 H 0.78235 0.18249 0.08228 0.0
H512 H 0.75446 0.14306 0.06878 0.0
H513 H 0.78791 0.15162 0.10159 0.0
H514 H 0.78598 0.10255 0.08444 0.0
H515 H 0.74201 0.0534 0.10859 0.0
loop_
_geom_bond_atom_site_label_1
_geom_bond_atom_site_label_2
_geom_bond_distance
_geom_bond_site_symmetry_2
_ccdc_geom_bond_type
Zn0 O3 2.031 . S
Zn0 O5 2.049 1_554 S
Zn0 O10 2.067 1_565 S
Zn1 O2 1.962 1_545 S
Zn1 O4 1.986 . S
Zn1 O6 1.996 . S
Zn1 O9 1.943 . S
O2 Zn1 1.962 1_565 S
O2 C7 1.254 . S
O3 Zn0 2.031 . S
O3 C7 1.269 . S
O4 Zn1 1.986 . S
O4 C11 1.262 . S
O5 Zn0 2.049 1_556 S
O5 C13 1.260 1_565 S
O6 Zn1 1.996 . S
O6 C13 1.257 1_554 S
C7 O2 1.254 . S
C7 O3 1.269 . S
C8 O9 1.249 . S
C8 O10 1.270 . S
O9 Zn1 1.943 . S
O9 C8 1.249 . S
O10 Zn0 2.067 1_545 S
O10 C8 1.270 . S
C11 O4 1.262 . S
C11 O12 1.232 . S
O12 C11 1.232 . S
C13 O5 1.260 1_545 S
C13 O6 1.257 1_556 S
Zn14 O17 2.031 . S
Zn14 O19 2.049 . S
Zn14 O24 2.067 . S
Zn15 O16 1.962 . S
Zn15 O18 1.986 . S
Zn15 O20 1.996 . S
Zn15 O23 1.943 . S
O16 Zn15 1.962 . S
O16 C21 1.254 . S
O17 Zn14 2.031 . S
O17 C21 1.269 . S
O18 Zn15 1.986 . S
O18 C25 1.262 . S
O19 Zn14 2.049 . S
O19 C27 1.260 . S
O20 Zn15 1.996 . S
O20 C27 1.257 . S
C21 O16 1.254 . S
C21 O17 1.269 . S
C22 O23 1.249 . S
C22 O24 1.270 . S
O23 Zn15 1.943 . S
O23 C22 1.249 . S
O24 Zn14 2.067 . S
O24 C22 1.270 . S
C25 O18 1.262 . S
C25 O26 1.232 . S
O26 C25 1.232 . S
C27 O19 1.260 . S
C27 O20 1.257 . S
Zn28 O31 2.031 . S
Zn28 O33 2.049 . S
Zn28 O38 2.067 . S
Zn29 O30 1.962 . S
Zn29 O32 1.986 1_455 S
Zn29 O34 1.996 . S
Zn29 O37 1.943 . S
O30 Zn29 1.962 . S
O30 C35 1.254 . S
O31 Zn28 2.031 . S
O31 C35 1.269 . S
O32 Zn29 1.986 1_655 S
O32 C39 1.262 . S
O33 Zn28 2.049 . S
O33 C41 1.260 . S
O34 Zn29 1.996 . S
O34 C41 1.257 . S
C35 O30 1.254 . S
C35 O31 1.269 . S
C36 O37 1.249 . S
C36 O38 1.270 . S
O37 Zn29 1.943 . S
O37 C36 1.249 . S
O38 Zn28 2.067 . S
O38 C36 1.270 . S
C39 O32 1.262 . S
C39 O40 1.232 . S
O40 C39 1.232 . S
C41 O33 1.260 . S
C41 O34 1.257 . S
Zn42 O45 2.031 . S
Zn42 O47 2.049 . S
Zn42 O52 2.067 . S
Zn43 O44 1.962 . S
Zn43 O46 1.986 1_545 S
Zn43 O48 1.996 . S
Zn43 O51 1.943 1_545 S
O44 Zn43 1.962 . S
O44 C49 1.254 . S
O45 Zn42 2.031 . S
O45 C49 1.269 . S
O46 Zn43 1.986 1_565 S
O46 C53 1.262 . S
O47 Zn42 2.049 . S
O47 C55 1.260 . S
O48 Zn43 1.996 . S
O48 C55 1.257 . S
C49 O44 1.254 . S
C49 O45 1.269 . S
C50 O51 1.249 1_545 S
C50 O52 1.270 . S
O51 Zn43 1.943 1_565 S
O51 C50 1.249 1_565 S
O52 Zn42 2.067 . S
O52 C50 1.270 . S
C53 O46 1.262 . S
C53 O54 1.232 . S
O54 C53 1.232 . S
C55 O47 1.260 . S
C55 O48 1.257 . S
Zn56 O59 2.031 . S
Zn56 O61 2.049 . S
Zn56 O66 2.067 . S
Zn57 O58 1.962 . S
Zn57 O60 1.986 . S
Zn57 O62 1.996 . S
Zn57 O65 1.943 . S
O58 Zn57 1.962 . S
O58 C63 1.254 . S
O59 Zn56 2.031 . S
O59 C63 1.269 . S
O60 Zn57 1.986 . S
O60 C67 1.262 . S
O61 Zn56 2.049 . S
O61 C69 1.260 . S
O62 Zn57 1.996 . S
O62 C69 1.257 . S
C63 O58 1.254 . S
C63 O59 1.269 . S
C64 O65 1.249 . S
C64 O66 1.270 . S
O65 Zn57 1.943 . S
O65 C64 1.249 . S
O66 Zn56 2.067 . S
O66 C64 1.270 . S
C67 O60 1.262 . S
C67 O68 1.232 . S
O68 C67 1.232 . S
C69 O61 1.260 . S
C69 O62 1.257 . S
Zn70 O73 2.031 . S
Zn70 O75 2.048 1_655 S
Zn70 O80 2.067 1_655 S
Zn71 O72 1.962 . S
Zn71 O74 1.986 . S
Zn71 O76 1.996 . S
Zn71 O79 1.943 . S
O72 Zn71 1.962 . S
O72 C77 1.254 1_455 S
O73 Zn70 2.031 . S
O73 C77 1.269 . S
O74 Zn71 1.986 . S
O74 C81 1.262 . S
O75 Zn70 2.048 1_455 S
O75 C83 1.289 . S
O76 Zn71 1.996 . S
O76 C83 1.257 . S
C77 O72 1.254 1_655 S
C77 O73 1.269 . S
C78 O79 1.249 . S
C78 O80 1.270 . S
O79 Zn71 1.943 . S
O79 C78 1.249 . S
O80 Zn70 2.067 1_455 S
O80 C78 1.270 . S
C81 O74 1.262 . S
C81 O82 1.232 . S
O82 C81 1.232 . S
C83 O75 1.289 . S
C83 O76 1.257 . S
H84 C92 0.929 1_565 S
H85 C94 0.930 1_565 S
H86 C96 0.930 . S
H87 C99 0.929 . S
H88 C102 0.930 . S
H89 C104 0.960 . S
H90 C104 0.960 . S
H91 C104 0.960 . S
C92 H84 0.929 1_545 S
C92 C93 1.377 . S
C92 C94 1.384 . S
C93 C92 1.377 . S
C93 C99 1.390 . S
C94 H85 0.930 1_545 S
C94 C92 1.384 . S
C94 C95 1.372 . S
C95 C94 1.372 . S
C95 C96 1.400 . S
C95 C100 1.490 . S
C96 H86 0.930 . S
C96 C95 1.400 . S
C96 C99 1.386 . S
H97 C113 0.930 . S
H98 C114 0.931 . S
C99 H87 0.929 . S
C99 C93 1.390 . S
C99 C96 1.386 . S
C100 C95 1.490 . S
C100 C102 1.395 . S
C100 C103 1.403 . S
H101 C107 0.930 . S
C102 H88 0.930 . S
C102 C100 1.395 . S
C102 C105 1.403 . S
C103 C100 1.403 . S
C103 C104 1.524 . S
C103 C107 1.400 . S
C104 H89 0.960 . S
C104 H90 0.960 . S
C104 H91 0.960 . S
C104 C103 1.524 . S
C105 C102 1.403 . S
C105 C106 1.392 . S
C105 C109 1.495 . S
C106 C105 1.392 . S
C106 C107 1.385 . S
C106 C108 1.478 . S
C107 H101 0.930 . S
C107 C103 1.400 . S
C107 C106 1.385 . S
C108 C106 1.478 . S
C108 C110 1.381 1_545 S
C108 C114 1.383 . S
C109 C105 1.495 . S
C109 H115 0.959 . S
C109 H116 0.961 . S
C109 H117 0.960 . S
C110 C108 1.381 1_565 S
C110 C111 1.394 . S
C110 H118 0.930 . S
C111 C110 1.394 . S
C111 C112 1.383 1_565 S
C111 H119 0.929 . S
C112 C111 1.383 1_545 S
C112 C113 1.377 . S
C113 H97 0.930 . S
C113 C112 1.377 . S
C113 C114 1.379 . S
C114 H98 0.931 . S
C114 C108 1.383 . S
C114 C113 1.379 . S
H115 C109 0.959 . S
H116 C109 0.961 . S
H117 C109 0.960 . S
H118 C110 0.930 . S
H119 C111 0.929 . S
H120 C128 0.929 . S
H121 C130 0.930 . S
H122 C132 0.930 . S
H123 C135 0.929 . S
H124 C138 0.930 . S
H125 C140 0.960 . S
H126 C140 0.960 . S
H127 C140 0.960 . S
C128 H120 0.929 . S
C128 C129 1.377 . S
C128 C130 1.384 . S
C129 C128 1.377 . S
C129 C135 1.390 . S
C130 H121 0.930 . S
C130 C128 1.384 . S
C130 C131 1.372 . S
C131 C130 1.372 . S
C131 C132 1.400 . S
C131 C136 1.490 . S
C132 H122 0.930 . S
C132 C131 1.400 . S
C132 C135 1.386 . S
H133 C149 0.930 . S
H134 C150 0.931 . S
C135 H123 0.929 . S
C135 C129 1.390 . S
C135 C132 1.386 . S
C136 C131 1.490 . S
C136 C138 1.395 . S
C136 C139 1.403 . S
H137 C143 0.930 . S
C138 H124 0.930 . S
C138 C136 1.395 . S
C138 C141 1.403 . S
C139 C136 1.403 . S
C139 C140 1.524 . S
C139 C143 1.400 . S
C140 H125 0.960 . S
C140 H126 0.960 . S
C140 H127 0.960 . S
C140 C139 1.524 . S
C141 C138 1.403 . S
C141 C142 1.392 . S
C141 C145 1.495 . S
C142 C141 1.392 . S
C142 C143 1.385 . S
C142 C144 1.478 . S
C143 H137 0.930 . S
C143 C139 1.400 . S
C143 C142 1.385 . S
C144 C142 1.478 . S
C144 C146 1.381 . S
C144 C150 1.383 . S
C145 C141 1.495 . S
C145 H151 0.959 . S
C145 H152 0.961 . S
C145 H153 0.960 . S
C146 C144 1.381 . S
C146 C147 1.394 . S
C146 H154 0.930 . S
C147 C146 1.394 . S
C147 C148 1.383 . S
C147 H155 0.929 . S
C148 C147 1.383 . S
C148 C149 1.377 . S
C149 H133 0.930 . S
C149 C148 1.377 . S
C149 C150 1.379 . S
C150 H134 0.931 . S
C150 C144 1.383 . S
C150 C149 1.379 . S
H151 C145 0.959 . S
H152 C145 0.961 . S
H153 C145 0.960 . S
H154 C146 0.930 . S
H155 C147 0.929 . S
H156 C164 0.929 . S
H157 C166 0.930 . S
H158 C168 0.930 . S
H159 C171 0.929 . S
H160 C174 0.930 . S
H161 C176 0.960 . S
H162 C176 0.960 . S
H163 C176 0.960 1_455 S
C164 H156 0.929 . S
C164 C165 1.377 . S
C164 C166 1.384 . S
C165 C164 1.377 . S
C165 C171 1.390 . S
C166 H157 0.930 . S
C166 C164 1.384 . S
C166 C167 1.372 . S
C167 C166 1.372 . S
C167 C168 1.400 . S
C167 C172 1.490 . S
C168 H158 0.930 . S
C168 C167 1.400 . S
C168 C171 1.386 . S
H169 C185 0.930 . S
H170 C186 0.931 . S
C171 H159 0.929 . S
C171 C165 1.390 . S
C171 C168 1.386 . S
C172 C167 1.490 . S
C172 C174 1.395 . S
C172 C175 1.403 . S
H173 C179 0.930 . S
C174 H160 0.930 . S
C174 C172 1.395 . S
C174 C177 1.403 . S
C175 C172 1.403 . S
C175 C176 1.524 1_455 S
C175 C179 1.400 . S
C176 H161 0.960 . S
C176 H162 0.960 . S
C176 H163 0.960 1_655 S
C176 C175 1.524 1_655 S
C177 C174 1.403 . S
C177 C178 1.392 . S
C177 C181 1.495 . S
C178 C177 1.392 . S
C178 C179 1.385 . S
C178 C180 1.478 . S
C179 H173 0.930 . S
C179 C175 1.400 . S
C179 C178 1.385 . S
C180 C178 1.478 . S
C180 C182 1.381 . S
C180 C186 1.383 . S
C181 C177 1.495 . S
C181 H187 0.959 . S
C181 H188 0.961 . S
C181 H189 0.960 . S
C182 C180 1.381 . S
C182 C183 1.394 . S
C182 H190 0.930 1_455 S
C183 C182 1.394 . S
C183 C184 1.383 . S
C183 H191 0.929 1_455 S
C184 C183 1.383 . S
C184 C185 1.377 . S
C185 H169 0.930 . S
C185 C184 1.377 . S
C185 C186 1.379 . S
C186 H170 0.931 . S
C186 C180 1.383 . S
C186 C185 1.379 . S
H187 C181 0.959 . S
H188 C181 0.961 . S
H189 C181 0.960 . S
H190 C182 0.930 1_655 S
H191 C183 0.929 1_655 S
H192 C200 0.929 . S
H193 C202 0.930 . S
H194 C204 0.930 . S
H195 C207 0.929 . S
H196 C210 0.930 . S
H197 C212 0.960 . S
H198 C212 0.960 . S
H199 C212 0.960 . S
C200 H192 0.929 . S
C200 C201 1.377 . S
C200 C202 1.384 . S
C201 C200 1.377 . S
C201 C207 1.390 . S
C202 H193 0.930 . S
C202 C200 1.384 . S
C202 C203 1.372 . S
C203 C202 1.372 . S
C203 C204 1.400 . S
C203 C208 1.490 . S
C204 H194 0.930 . S
C204 C203 1.400 . S
C204 C207 1.386 . S
H205 C221 0.930 . S
H206 C222 0.931 . S
C207 H195 0.929 . S
C207 C201 1.390 . S
C207 C204 1.386 . S
C208 C203 1.490 . S
C208 C210 1.395 . S
C208 C211 1.403 1_545 S
H209 C215 0.930 . S
C210 H196 0.930 . S
C210 C208 1.395 . S
C210 C213 1.403 . S
C211 C208 1.403 1_565 S
C211 C212 1.524 . S
C211 C215 1.400 . S
C212 H197 0.960 . S
C212 H198 0.960 . S
C212 H199 0.960 . S
C212 C211 1.524 . S
C213 C210 1.403 . S
C213 C214 1.392 . S
C213 C217 1.495 . S
C214 C213 1.392 . S
C214 C215 1.385 1_545 S
C214 C216 1.478 . S
C215 H209 0.930 . S
C215 C211 1.400 . S
C215 C214 1.385 1_565 S
C216 C214 1.478 . S
C216 C218 1.381 . S
C216 C222 1.383 . S
C217 C213 1.495 . S
C217 H223 0.959 . S
C217 H224 0.961 . S
C217 H225 0.960 . S
C218 C216 1.381 . S
C218 C219 1.394 . S
C218 H226 0.930 . S
C219 C218 1.394 . S
C219 C220 1.383 . S
C219 H227 0.929 . S
C220 C219 1.383 . S
C220 C221 1.377 . S
C221 H205 0.930 . S
C221 C220 1.377 . S
C221 C222 1.379 . S
C222 H206 0.931 . S
C222 C216 1.383 . S
C222 C221 1.379 . S
H223 C217 0.959 . S
H224 C217 0.961 . S
H225 C217 0.960 . S
H226 C218 0.930 . S
H227 C219 0.929 . S
H228 C236 0.929 . S
H229 C238 0.930 . S
H230 C240 0.930 . S
H231 C243 0.929 . S
H232 C246 0.940 . S
H233 C248 0.960 1_556 S
H234 C248 0.960 . S
H235 C248 0.960 . S
C236 H228 0.929 . S
C236 C237 1.377 . S
C236 C238 1.384 . S
C237 C236 1.377 . S
C237 C243 1.390 . S
C238 H229 0.930 . S
C238 C236 1.384 . S
C238 C239 1.372 . S
C239 C238 1.372 . S
C239 C240 1.400 . S
C239 C244 1.490 . S
C240 H230 0.930 . S
C240 C239 1.400 . S
C240 C243 1.386 . S
H241 C257 0.930 . S
H242 C258 0.931 . S
C243 H231 0.929 . S
C243 C237 1.390 . S
C243 C240 1.386 . S
C244 C239 1.490 . S
C244 C246 1.395 1_554 S
C244 C247 1.403 1_554 S
H245 C251 0.930 . S
C246 H232 0.940 . S
C246 C244 1.395 1_556 S
C246 C249 1.403 . S
C247 C244 1.403 1_556 S
C247 C248 1.524 1_556 S
C247 C251 1.400 . S
C248 H233 0.960 1_554 S
C248 H234 0.960 . S
C248 H235 0.960 . S
C248 C247 1.524 1_554 S
C249 C246 1.403 . S
C249 C250 1.392 . S
C249 C253 1.495 . S
C250 C249 1.392 . S
C250 C251 1.385 . S
C250 C252 1.478 . S
C251 H245 0.930 . S
C251 C247 1.400 . S
C251 C250 1.385 . S
C252 C250 1.478 . S
C252 C254 1.381 . S
C252 C258 1.383 . S
C253 C249 1.495 . S
C253 H259 0.959 . S
C253 H260 0.961 . S
C253 H261 0.960 . S
C254 C252 1.381 . S
C254 C255 1.394 . S
C254 H262 0.930 . S
C255 C254 1.394 . S
C255 C256 1.383 . S
C255 H263 0.929 . S
C256 C255 1.383 . S
C256 C257 1.377 . S
C257 H241 0.930 . S
C257 C256 1.377 . S
C257 C258 1.379 . S
C258 H242 0.931 . S
C258 C252 1.383 . S
C258 C257 1.379 . S
H259 C253 0.959 . S
H260 C253 0.961 . S
H261 C253 0.960 . S
H262 C254 0.930 . S
H263 C255 0.929 . S
H264 C272 0.929 . S
H265 C274 0.930 . S
H266 C276 0.930 . S
H267 C279 0.929 . S
H268 C282 0.930 . S
H269 C284 0.960 . S
H270 C284 0.939 1_655 S
H271 C284 0.960 . S
C272 H264 0.929 . S
C272 C273 1.377 1_554 S
C272 C274 1.384 . S
C273 C272 1.377 1_556 S
C273 C279 1.390 . S
C274 H265 0.930 . S
C274 C272 1.384 . S
C274 C275 1.372 . S
C275 C274 1.372 . S
C275 C276 1.400 . S
C275 C280 1.490 . S
C276 H266 0.930 . S
C276 C275 1.400 . S
C276 C279 1.386 1_554 S
H277 C293 0.930 . S
H278 C294 0.931 . S
C279 H267 0.929 . S
C279 C273 1.390 . S
C279 C276 1.386 1_556 S
C280 C275 1.490 . S
C280 C282 1.395 . S
C280 C283 1.403 . S
H281 C287 0.930 . S
C282 H268 0.930 . S
C282 C280 1.395 . S
C282 C285 1.403 . S
C283 C280 1.403 . S
C283 C284 1.524 . S
C283 C287 1.400 . S
C284 H269 0.960 . S
C284 H270 0.939 1_455 S
C284 H271 0.960 . S
C284 C283 1.524 . S
C285 C282 1.403 . S
C285 C286 1.392 . S
C285 C289 1.495 . S
C286 C285 1.392 . S
C286 C287 1.385 . S
C286 C288 1.478 . S
C287 H281 0.930 . S
C287 C283 1.400 . S
C287 C286 1.385 . S
C288 C286 1.478 . S
C288 C290 1.381 . S
C288 C294 1.383 . S
C289 C285 1.495 . S
C289 H295 0.959 . S
C289 H296 0.961 . S
C289 H297 0.960 . S
C290 C288 1.381 . S
C290 C291 1.394 . S
C290 H298 0.930 1_455 S
C291 C290 1.394 . S
C291 C292 1.383 . S
C291 H299 0.929 1_455 S
C292 C291 1.383 . S
C292 C293 1.377 . S
C293 H277 0.930 . S
C293 C292 1.377 . S
C293 C294 1.379 . S
C294 H278 0.931 . S
C294 C288 1.383 . S
C294 C293 1.379 . S
H295 C289 0.959 . S
H296 C289 0.961 . S
H297 C289 0.960 . S
H298 C290 0.930 1_655 S
H299 C291 0.929 1_655 S
H300 C308 0.929 . S
H301 C310 0.930 . S
H302 C312 0.930 . S
H303 C315 0.929 . S
H304 C318 0.930 . S
H305 C320 0.960 . S
H306 C320 0.960 . S
H307 C320 0.960 . S
C308 H300 0.929 . S
C308 C309 1.377 . S
C308 C310 1.384 . S
C309 C308 1.377 . S
C309 C315 1.390 . S
C310 H301 0.930 . S
C310 C308 1.384 . S
C310 C311 1.372 . S
C311 C310 1.372 . S
C311 C312 1.400 . S
C311 C316 1.490 . S
C312 H302 0.930 . S
C312 C311 1.400 . S
C312 C315 1.386 . S
H313 C329 0.930 . S
H314 C330 0.931 . S
C315 H303 0.929 . S
C315 C309 1.390 . S
C315 C312 1.386 . S
C316 C311 1.490 . S
C316 C318 1.395 . S
C316 C319 1.403 . S
H317 C323 0.930 . S
C318 H304 0.930 . S
C318 C316 1.395 . S
C318 C321 1.403 . S
C319 C316 1.403 . S
C319 C320 1.524 . S
C319 C323 1.400 . S
C320 H305 0.960 . S
C320 H306 0.960 . S
C320 H307 0.960 . S
C320 C319 1.524 . S
C321 C318 1.403 . S
C321 C322 1.392 . S
C321 C325 1.495 . S
C322 C321 1.392 . S
C322 C323 1.385 . S
C322 C324 1.478 . S
C323 H317 0.930 . S
C323 C319 1.400 . S
C323 C322 1.385 . S
C324 C322 1.478 . S
C324 C326 1.381 . S
C324 C330 1.383 . S
C325 C321 1.495 . S
C325 H331 0.959 . S
C325 H332 0.961 . S
C325 H333 0.960 . S
C326 C324 1.381 . S
C326 C327 1.394 . S
C326 H334 0.930 . S
C327 C326 1.394 . S
C327 C328 1.383 . S
C327 H335 0.929 . S
C328 C327 1.383 . S
C328 C329 1.377 . S
C329 H313 0.930 . S
C329 C328 1.377 . S
C329 C330 1.379 . S
C330 H314 0.931 . S
C330 C324 1.383 . S
C330 C329 1.379 . S
H331 C325 0.959 . S
H332 C325 0.961 . S
H333 C325 0.960 . S
H334 C326 0.930 . S
H335 C327 0.929 . S
H336 C344 0.929 . S
H337 C346 0.930 . S
H338 C348 0.930 . S
H339 C351 0.929 . S
H340 C354 0.930 . S
H341 C356 0.960 . S
H342 C356 0.960 . S
H343 C356 0.960 . S
C344 H336 0.929 . S
C344 C345 1.377 . S
C344 C346 1.384 . S
C345 C344 1.377 . S
C345 C351 1.390 . S
C346 H337 0.930 . S
C346 C344 1.384 . S
C346 C347 1.372 . S
C347 C346 1.372 . S
C347 C348 1.400 . S
C347 C352 1.490 . S
C348 H338 0.930 . S
C348 C347 1.400 . S
C348 C351 1.386 . S
H349 C365 0.930 . S
H350 C366 0.931 . S
C351 H339 0.929 . S
C351 C345 1.390 . S
C351 C348 1.386 . S
C352 C347 1.490 . S
C352 C354 1.395 . S
C352 C355 1.403 . S
H353 C359 0.930 . S
C354 H340 0.930 . S
C354 C352 1.395 . S
C354 C357 1.403 . S
C355 C352 1.403 . S
C355 C356 1.524 . S
C355 C359 1.400 . S
C356 H341 0.960 . S
C356 H342 0.960 . S
C356 H343 0.960 . S
C356 C355 1.524 . S
C357 C354 1.403 . S
C357 C358 1.392 . S
C357 C361 1.495 . S
C358 C357 1.392 . S
C358 C359 1.385 . S
C358 C360 1.478 . S
C359 H353 0.930 . S
C359 C355 1.400 . S
C359 C358 1.385 . S
C360 C358 1.478 . S
C360 C362 1.381 . S
C360 C366 1.383 . S
C361 C357 1.495 . S
C361 H367 0.959 . S
C361 H368 0.961 . S
C361 H369 0.960 . S
C362 C360 1.381 . S
C362 C363 1.394 . S
C362 H370 0.930 . S
C363 C362 1.394 . S
C363 C364 1.383 . S
C363 H371 0.929 . S
C364 C363 1.383 . S
C364 C365 1.377 . S
C365 H349 0.930 . S
C365 C364 1.377 . S
C365 C366 1.379 . S
C366 H350 0.931 . S
C366 C360 1.383 . S
C366 C365 1.379 . S
H367 C361 0.959 . S
H368 C361 0.961 . S
H369 C361 0.960 . S
H370 C362 0.930 . S
H371 C363 0.929 . S
H372 C380 0.929 . S
H373 C382 0.930 . S
H374 C384 0.930 . S
H375 C387 0.929 . S
H376 C390 0.930 . S
H377 C392 0.960 . S
H378 C392 0.960 . S
H379 C392 0.960 . S
C380 H372 0.929 . S
C380 C381 1.377 . S
C380 C382 1.384 . S
C381 C380 1.377 . S
C381 C387 1.390 . S
C382 H373 0.930 . S
C382 C380 1.384 . S
C382 C383 1.372 . S
C383 C382 1.372 . S
C383 C384 1.400 . S
C383 C388 1.490 . S
C384 H374 0.930 . S
C384 C383 1.400 . S
C384 C387 1.386 . S
H385 C401 0.930 . S
H386 C402 0.931 . S
C387 H375 0.929 . S
C387 C381 1.390 . S
C387 C384 1.386 . S
C388 C383 1.490 . S
C388 C390 1.395 . S
C388 C391 1.403 . S
H389 C395 0.930 . S
C390 H376 0.930 . S
C390 C388 1.395 . S
C390 C393 1.403 . S
C391 C388 1.403 . S
C391 C392 1.524 . S
C391 C395 1.400 . S
C392 H377 0.960 . S
C392 H378 0.960 . S
C392 H379 0.960 . S
C392 C391 1.524 . S
C393 C390 1.403 . S
C393 C394 1.392 . S
C393 C397 1.495 . S
C394 C393 1.392 . S
C394 C395 1.385 . S
C394 C396 1.478 . S
C395 H389 0.930 . S
C395 C391 1.400 . S
C395 C394 1.385 . S
C396 C394 1.478 . S
C396 C398 1.381 . S
C396 C402 1.383 . S
C397 C393 1.495 . S
C397 H403 0.959 . S
C397 H404 0.961 . S
C397 H405 0.960 . S
C398 C396 1.381 . S
C398 C399 1.394 . S
C398 H406 0.930 . S
C399 C398 1.394 . S
C399 C400 1.383 . S
C399 H407 0.929 . S
C400 C399 1.383 . S
C400 C401 1.377 . S
C401 H385 0.930 . S
C401 C400 1.377 . S
C401 C402 1.379 . S
C402 H386 0.931 . S
C402 C396 1.383 . S
C402 C401 1.379 . S
H403 C397 0.959 . S
H404 C397 0.961 . S
H405 C397 0.960 . S
H406 C398 0.930 . S
H407 C399 0.929 . S
H408 C416 0.929 . S
H409 C418 0.930 . S
H410 C420 0.930 . S
H411 C423 0.929 . S
H412 C426 0.930 . S
H413 C428 0.960 . S
H414 C428 0.960 . S
H415 C428 0.960 . S
C416 H408 0.929 . S
C416 C417 1.377 . S
C416 C418 1.384 . S
C417 C416 1.377 . S
C417 C423 1.390 . S
C418 H409 0.930 . S
C418 C416 1.384 . S
C418 C419 1.372 . S
C419 C418 1.372 . S
C419 C420 1.400 . S
C419 C424 1.490 . S
C420 H410 0.930 . S
C420 C419 1.400 . S
C420 C423 1.386 . S
H421 C437 0.930 . S
H422 C438 0.931 . S
C423 H411 0.929 . S
C423 C417 1.390 . S
C423 C420 1.386 . S
C424 C419 1.490 . S
C424 C426 1.395 . S
C424 C427 1.403 . S
H425 C431 0.930 . S
C426 H412 0.930 . S
C426 C424 1.395 . S
C426 C429 1.403 . S
C427 C424 1.403 . S
C427 C428 1.524 . S
C427 C431 1.400 . S
C428 H413 0.960 . S
C428 H414 0.960 . S
C428 H415 0.960 . S
C428 C427 1.524 . S
C429 C426 1.403 . S
C429 C430 1.392 . S
C429 C433 1.495 . S
C430 C429 1.392 . S
C430 C431 1.385 . S
C430 C432 1.478 . S
C431 H425 0.930 . S
C431 C427 1.400 . S
C431 C430 1.385 . S
C432 C430 1.478 . S
C432 C434 1.381 . S
C432 C438 1.383 . S
C433 C429 1.495 . S
C433 H439 0.959 . S
C433 H440 0.961 . S
C433 H441 0.960 . S
C434 C432 1.381 . S
C434 C435 1.394 . S
C434 H442 0.930 . S
C435 C434 1.394 . S
C435 C436 1.383 . S
C435 H443 0.929 . S
C436 C435 1.383 . S
C436 C437 1.377 . S
C437 H421 0.930 . S
C437 C436 1.377 . S
C437 C438 1.379 . S
C438 H422 0.931 . S
C438 C432 1.383 . S
C438 C437 1.379 . S
H439 C433 0.959 . S
H440 C433 0.961 . S
H441 C433 0.960 . S
H442 C434 0.930 . S
H443 C435 0.929 . S
H444 C452 0.929 . S
H445 C454 0.930 . S
H446 C456 0.930 . S
H447 C459 0.929 . S
H448 C462 0.930 . S
H449 C464 0.960 . S
H450 C464 0.960 . S
H451 C464 0.960 . S
C452 H444 0.929 . S
C452 C453 1.377 . S
C452 C454 1.384 . S
C453 C452 1.377 . S
C453 C459 1.390 . S
C454 H445 0.930 . S
C454 C452 1.384 . S
C454 C455 1.372 . S
C455 C454 1.372 . S
C455 C456 1.400 . S
C455 C460 1.490 . S
C456 H446 0.930 . S
C456 C455 1.400 . S
C456 C459 1.386 . S
H457 C473 0.930 . S
H458 C474 0.931 . S
C459 H447 0.929 . S
C459 C453 1.390 . S
C459 C456 1.386 . S
C460 C455 1.490 . S
C460 C462 1.395 . S
C460 C463 1.403 . S
H461 C467 0.930 . S
C462 H448 0.930 . S
C462 C460 1.395 . S
C462 C465 1.403 . S
C463 C460 1.403 . S
C463 C464 1.524 . S
C463 C467 1.400 . S
C464 H449 0.960 . S
C464 H450 0.960 . S
C464 H451 0.960 . S
C464 C463 1.524 . S
C465 C462 1.403 . S
C465 C466 1.392 . S
C465 C469 1.495 . S
C466 C465 1.392 . S
C466 C467 1.385 . S
C466 C468 1.478 . S
C467 H461 0.930 . S
C467 C463 1.400 . S
C467 C466 1.385 . S
C468 C466 1.478 . S
C468 C470 1.381 . S
C468 C474 1.383 . S
C469 C465 1.495 . S
C469 H475 0.959 . S
C469 H476 0.961 . S
C469 H477 0.960 . S
C470 C468 1.381 . S
C470 C471 1.394 . S
C470 H478 0.930 . S
C471 C470 1.394 . S
C471 C472 1.383 . S
C471 H479 0.929 . S
C472 C471 1.383 . S
C472 C473 1.377 . S
C473 H457 0.930 . S
C473 C472 1.377 . S
C473 C474 1.379 . S
C474 H458 0.931 . S
C474 C468 1.383 . S
C474 C473 1.379 . S
H475 C469 0.959 . S
H476 C469 0.961 . S
H477 C469 0.960 . S
H478 C470 0.930 . S
H479 C471 0.929 . S
H480 C488 0.929 . S
H481 C490 0.930 1_554 S
H482 C492 0.930 . S
H483 C495 0.929 . S
H484 C498 0.930 1_554 S
H485 C500 0.960 . S
H486 C500 0.960 . S
H487 C500 0.960 . S
C488 H480 0.929 . S
C488 C489 1.377 . S
C488 C490 1.384 . S
C489 C488 1.377 . S
C489 C495 1.390 . S
C490 H481 0.930 1_556 S
C490 C488 1.384 . S
C490 C491 1.372 . S
C491 C490 1.372 . S
C491 C492 1.400 . S
C491 C496 1.490 . S
C492 H482 0.930 . S
C492 C491 1.400 . S
C492 C495 1.386 . S
H493 C509 0.930 . S
H494 C510 0.931 . S
C495 H483 0.929 . S
C495 C489 1.390 . S
C495 C492 1.386 . S
C496 C491 1.490 . S
C496 C498 1.395 . S
C496 C499 1.403 . S
H497 C503 0.930 . S
C498 H484 0.930 1_556 S
C498 C496 1.395 . S
C498 C501 1.403 1_556 S
C499 C496 1.403 . S
C499 C500 1.524 . S
C499 C503 1.400 . S
C500 H485 0.960 . S
C500 H486 0.960 . S
C500 H487 0.960 . S
C500 C499 1.524 . S
C501 C498 1.403 1_554 S
C501 C502 1.392 1_554 S
C501 C505 1.495 . S
C502 C501 1.392 1_556 S
C502 C503 1.385 . S
C502 C504 1.478 1_556 S
C503 H497 0.930 . S
C503 C499 1.400 . S
C503 C502 1.385 . S
C504 C502 1.478 1_554 S
C504 C506 1.381 . S
C504 C510 1.383 1_554 S
C505 C501 1.495 . S
C505 H511 0.959 . S
C505 H512 0.961 . S
C505 H513 0.960 . S
C506 C504 1.381 . S
C506 C507 1.394 . S
C506 H514 0.930 . S
C507 C506 1.394 . S
C507 C508 1.383 . S
C507 H515 0.929 . S
C508 C507 1.383 . S
C508 C509 1.377 1_554 S
C509 H493 0.930 . S
C509 C508 1.377 1_556 S
C509 C510 1.379 . S
C510 H494 0.931 . S
C510 C504 1.383 1_556 S
C510 C509 1.379 . S
H511 C505 0.959 . S
H512 C505 0.961 . S
H513 C505 0.960 . S
H514 C506 0.930 . S
H515 C507 0.929 . S
C93 C8 1.363 . S
C112 C55 1.313 . S
C129 C22 1.362 . S
C148 C69 1.327 . S
C165 C83 1.328 . S
C184 C36 1.380 . S
C201 C13 1.327 . S
C220 C50 1.367 . S
C237 C27 1.329 . S
C256 C64 1.348 . S
C273 C78 1.364 . S
C292 C41 1.305 . S
C309 C25 1.399 . S
C328 C7 1.373 . S
C345 C39 1.401 . S
C364 C21 1.389 . S
C381 C35 1.387 . S
C400 C53 1.391 . S
C417 C67 1.400 . S
C436 C49 1.388 . S
C453 C81 1.400 . S
C472 C63 1.383 . S
C489 C77 1.393 . S
C508 C11 1.404 . S
