# Generated by pormake.
# Topology umj, (4)-cn, num edge types: 1
# Building blocks:
#     Node 0, Type 0, BuildingBlock: ICAMEG_clean_sbu_1, # of connection points: 4
#     Node 1, Type 0, BuildingBlock: ICAMEG_clean_sbu_1, # of connection points: 4
#     Node 2, Type 0, BuildingBlock: ICAMEG_clean_sbu_1, # of connection points: 4
#     Node 3, Type 0, BuildingBlock: ICAMEG_clean_sbu_1, # of connection points: 4
#     Node 4, Type 0, BuildingBlock: ICAMEG_clean_sbu_1, # of connection points: 4
#     Node 5, Type 0, BuildingBlock: ICAMEG_clean_sbu_1, # of connection points: 4
#     Node 6, Type 0, BuildingBlock: ICAMEG_clean_sbu_1, # of connection points: 4
#     Node 7, Type 0, BuildingBlock: ICAMEG_clean_sbu_1, # of connection points: 4
#     Node 8, Type 0, BuildingBlock: ICAMEG_clean_sbu_1, # of connection points: 4
#     Node 9, Type 0, BuildingBlock: ICAMEG_clean_sbu_1, # of connection points: 4
#     Node 10, Type 0, BuildingBlock: ICAMEG_clean_sbu_1, # of connection points: 4
#     Node 11, Type 0, BuildingBlock: ICAMEG_clean_sbu_1, # of connection points: 4
#     Edge 12, Type (0, 0), BuildingBlock: ZUJKAS_clean_linker_0, # of connection points: 2
#     Edge 13, Type (0, 0), BuildingBlock: ZUJKAS_clean_linker_0, # of connection points: 2
#     Edge 14, Type (0, 0), BuildingBlock: ZUJKAS_clean_linker_0, # of connection points: 2
#     Edge 15, Type (0, 0), BuildingBlock: ZUJKAS_clean_linker_0, # of connection points: 2
#     Edge 16, Type (0, 0), BuildingBlock: ZUJKAS_clean_linker_0, # of connection points: 2
#     Edge 17, Type (0, 0), BuildingBlock: ZUJKAS_clean_linker_0, # of connection points: 2
#     Edge 18, Type (0, 0), BuildingBlock: ZUJKAS_clean_linker_0, # of connection points: 2
#     Edge 19, Type (0, 0), BuildingBlock: ZUJKAS_clean_linker_0, # of connection points: 2
#     Edge 20, Type (0, 0), BuildingBlock: ZUJKAS_clean_linker_0, # of connection points: 2
#     Edge 21, Type (0, 0), BuildingBlock: ZUJKAS_clean_linker_0, # of connection points: 2
#     Edge 22, Type (0, 0), BuildingBlock: ZUJKAS_clean_linker_0, # of connection points: 2
#     Edge 23, Type (0, 0), BuildingBlock: ZUJKAS_clean_linker_0, # of connection points: 2
#     Edge 24, Type (0, 0), BuildingBlock: ZUJKAS_clean_linker_0, # of connection points: 2
#     Edge 25, Type (0, 0), BuildingBlock: ZUJKAS_clean_linker_0, # of connection points: 2
#     Edge 26, Type (0, 0), BuildingBlock: ZUJKAS_clean_linker_0, # of connection points: 2
#     Edge 27, Type (0, 0), BuildingBlock: ZUJKAS_clean_linker_0, # of connection points: 2
#     Edge 28, Type (0, 0), BuildingBlock: ZUJKAS_clean_linker_0, # of connection points: 2
#     Edge 29, Type (0, 0), BuildingBlock: ZUJKAS_clean_linker_0, # of connection points: 2
#     Edge 30, Type (0, 0), BuildingBlock: ZUJKAS_clean_linker_0, # of connection points: 2
#     Edge 31, Type (0, 0), BuildingBlock: ZUJKAS_clean_linker_0, # of connection points: 2
#     Edge 32, Type (0, 0), BuildingBlock: ZUJKAS_clean_linker_0, # of connection points: 2
#     Edge 33, Type (0, 0), BuildingBlock: ZUJKAS_clean_linker_0, # of connection points: 2
#     Edge 34, Type (0, 0), BuildingBlock: ZUJKAS_clean_linker_0, # of connection points: 2
#     Edge 35, Type (0, 0), BuildingBlock: ZUJKAS_clean_linker_0, # of connection points: 2
# Relax obj value: 0.069
# Max RMSD: 0.258
# Mean RMSD: 0.229
data_MOF--net-umj--node1-ICAMEG_clean_sbu_1--edge1-ZUJKAS_clean_linker_0
_symmetry_space_group_name_H-M    P1
_symmetry_Int_Tables_number       1
_symmetry_cell_setting            triclinic
loop_
_symmetry_equiv_pos_as_xyz
'x, y, z'
_cell_length_a     39.527395
_cell_length_b     39.454087
_cell_length_c     114.69362
_cell_angle_alpha  90.018992
_cell_angle_beta   90.000241
_cell_angle_gamma 120.03362
loop_
_atom_site_label
_atom_site_type_symbol
_atom_site_fract_x
_atom_site_fract_y
_atom_site_fract_z
_atom_type_partial_charge
Co0 Co 0.08859 0.27865 0.08087 0.0
Co1 Co -0.00077 0.25109 0.06817 0.0
O2 O 0.03975 0.27915 0.07975 0.0
C3 C 0.04746 0.24686 0.10291 0.0
O4 O 0.01706 0.22493 0.09634 0.0
C5 C 0.02488 0.334 0.06487 0.0
O6 O 0.06041 0.3394 0.06515 0.0
O7 O 0.03835 0.26815 0.05546 0.0
O8 O 0.09679 0.286 0.06359 0.0
H9 H 0.93629 0.16195 0.0339 0.0
H10 H 0.07544 0.33241 0.09582 0.0
O11 O 0.08017 0.27059 0.0982 0.0
H12 H 0.19194 0.41769 0.07227 0.0
H13 H 0.21636 0.31228 0.09988 0.0
H14 H 0.12684 0.24326 0.06722 0.0
H15 H 0.15901 0.34586 0.07025 0.0
H16 H 0.15447 0.31281 0.09782 0.0
O17 O -0.00447 0.29955 0.06584 0.0
H18 H 0.98751 0.19672 0.04871 0.0
H19 H 0.92402 0.24787 0.06276 0.0
H20 H 0.18854 0.24221 0.06889 0.0
H21 H 0.1076 0.40407 0.09816 0.0
H22 H 0.23378 0.27691 0.08532 0.0
H23 H 0.16619 0.44723 0.0863 0.0
O24 O 0.06143 0.22107 0.07861 0.0
H25 H 0.93768 0.26993 0.10409 0.0
H26 H 0.93174 0.17423 0.0753 0.0
H27 H 0.88432 0.15174 0.09149 0.0
H28 H 0.88714 0.19976 0.10603 0.0
H29 H 0.98468 0.29111 0.08781 0.0
H30 H 0.87222 0.2139 0.04804 0.0
H31 H 0.87813 0.17045 0.0335 0.0
O32 O 0.0032 0.20284 0.0703 0.0
C33 C 0.07492 0.28059 0.05475 0.0
C34 C 0.93331 0.18069 0.04021 0.0
C35 C 0.89738 0.20989 0.04814 0.0
N36 N 0.95853 0.22397 0.05665 0.0
C37 C 0.96215 0.20034 0.04864 0.0
C38 C 0.92681 0.22909 0.05644 0.0
C39 C 0.90071 0.18551 0.03999 0.0
C40 C 0.10119 0.35098 0.09072 0.0
N41 N 0.11549 0.33498 0.08296 0.0
C42 C 0.11917 0.39154 0.09205 0.0
C43 C 0.15201 0.41574 0.08537 0.0
C44 C 0.16646 0.39919 0.0775 0.0
C45 C 0.14768 0.35851 0.07639 0.0
C46 C 0.19693 0.29713 0.09267 0.0
C47 C 0.14652 0.25865 0.07434 0.0
C48 C 0.16184 0.29728 0.09147 0.0
N49 N 0.1373 0.2784 0.08234 0.0
C50 C 0.18134 0.25785 0.07527 0.0
C51 C 0.20669 0.27729 0.0845 0.0
C52 C 0.02886 0.19525 0.07429 0.0
C53 C 0.93607 0.24875 0.09779 0.0
C54 C 0.93311 0.1953 0.08159 0.0
C55 C 0.90617 0.1824 0.09073 0.0
C56 C 0.90776 0.20936 0.09888 0.0
N57 N 0.96079 0.23398 0.08058 0.0
C58 C 0.96249 0.2606 0.08852 0.0
Co59 Co 0.79626 0.06656 0.41249 0.0
Co60 Co 0.73595 0.98032 0.39781 0.0
O61 O 0.7475 0.01732 0.41054 0.0
C62 C 0.787 0.02027 0.4335 0.0
O63 O 0.77905 0.99134 0.42632 0.0
C64 C 0.67861 0.00579 0.39633 0.0
O65 O 0.70823 0.04102 0.39814 0.0
O66 O 0.75767 0.02291 0.38616 0.0
O67 O 0.79747 0.07936 0.39548 0.0
H68 H 0.76436 0.92919 0.36118 0.0
H69 H 0.72913 0.04855 0.42796 0.0
O70 O 0.79568 0.05384 0.42949 0.0
H71 H 0.75916 0.17061 0.40764 0.0
H72 H 0.88849 0.18997 0.43402 0.0
H73 H 0.87023 0.1093 0.39917 0.0
H74 H 0.7983 0.13885 0.4039 0.0
H75 H 0.82667 0.12806 0.4309 0.0
O76 O 0.68367 0.97635 0.39587 0.0
H77 H 0.77953 0.97578 0.37739 0.0
H78 H 0.66509 0.90575 0.39101 0.0
H79 H 0.9324 0.17115 0.40188 0.0
H80 H 0.68958 0.0796 0.43208 0.0
H81 H 0.94182 0.21195 0.41942 0.0
H82 H 0.7044 0.14097 0.42184 0.0
O83 O 0.82724 0.04091 0.4091 0.0
H84 H 0.65461 0.90749 0.43256 0.0
H85 H 0.74656 0.91203 0.4027 0.0
H86 H 0.72169 0.86005 0.41763 0.0
H87 H 0.6754 0.8576 0.43271 0.0
H88 H 0.68036 0.95906 0.41751 0.0
H89 H 0.64852 0.85852 0.37489 0.0
H90 H 0.69843 0.87005 0.35987 0.0
O91 O 0.78851 0.98493 0.39937 0.0
C92 C 0.78123 0.05971 0.38624 0.0
C93 C 0.74243 0.92374 0.3677 0.0
C94 C 0.67739 0.8841 0.37539 0.0
N95 N 0.72339 0.94318 0.3852 0.0
C96 C 0.75091 0.94993 0.37692 0.0
C97 C 0.68692 0.91095 0.38449 0.0
C98 C 0.70541 0.89059 0.36697 0.0
C99 C 0.73607 0.07552 0.42358 0.0
N100 N 0.76614 0.09201 0.41576 0.0
C101 C 0.71347 0.09287 0.42591 0.0
C102 C 0.72175 0.12727 0.42014 0.0
C103 C 0.75245 0.14389 0.41217 0.0
C104 C 0.77445 0.12574 0.41007 0.0
C105 C 0.8847 0.17251 0.42633 0.0
C106 C 0.87402 0.12707 0.40677 0.0
C107 C 0.8498 0.13742 0.42453 0.0
N108 N 0.84474 0.11536 0.4148 0.0
C109 C 0.90933 0.16198 0.40828 0.0
C110 C 0.9146 0.18483 0.41813 0.0
C111 C 0.82126 0.00993 0.40383 0.0
C112 C 0.67466 0.90817 0.42602 0.0
C113 C 0.72638 0.9111 0.40922 0.0
C114 C 0.71237 0.88159 0.41765 0.0
C115 C 0.68638 0.88022 0.4261 0.0
N116 N 0.71471 0.93838 0.4092 0.0
C117 C 0.68919 0.93719 0.41744 0.0
Co118 Co 0.7321 0.79902 0.74605 0.0
Co119 Co 0.75185 0.73667 0.7301 0.0
O120 O 0.72723 0.74839 0.74294 0.0
C121 C 0.76274 0.77942 0.76667 0.0
O122 O 0.78201 0.77024 0.75921 0.0
C123 C 0.66768 0.68706 0.72675 0.0
O124 O 0.66658 0.71934 0.72845 0.0
O125 O 0.73748 0.76553 0.71893 0.0
O126 O 0.72405 0.80616 0.72911 0.0
H127 H 0.83567 0.76608 0.69439 0.0
H128 H 0.67594 0.72943 0.75966 0.0
O129 O 0.74094 0.79249 0.76299 0.0
H130 H 0.59633 0.77676 0.74008 0.0
H131 H 0.71043 0.89368 0.76982 0.0
H132 H 0.7717 0.87673 0.73452 0.0
H133 H 0.66795 0.81165 0.73763 0.0
H134 H 0.70372 0.82951 0.76516 0.0
O135 O 0.70038 0.68784 0.72702 0.0
H136 H 0.8057 0.78192 0.71082 0.0
H137 H 0.74729 0.66314 0.72171 0.0
H138 H 0.77895 0.94133 0.7388 0.0
H139 H 0.60444 0.69376 0.76239 0.0
H140 H 0.74816 0.9501 0.75656 0.0
H141 H 0.56413 0.71732 0.75252 0.0
O142 O 0.7892 0.82605 0.7434 0.0
H143 H 0.72777 0.64229 0.76275 0.0
H144 H 0.82575 0.73689 0.73538 0.0
H145 H 0.8453 0.70313 0.74967 0.0
H146 H 0.79611 0.65546 0.76348 0.0
H147 H 0.70956 0.67689 0.74838 0.0
H148 H 0.77636 0.64588 0.70534 0.0
H149 H 0.82104 0.69761 0.69157 0.0
O150 O 0.80293 0.78604 0.73292 0.0
C151 C 0.7277 0.79175 0.71951 0.0
C152 C 0.81642 0.74332 0.70037 0.0
C153 C 0.78308 0.67584 0.7065 0.0
N154 N 0.77525 0.72359 0.7173 0.0
C155 C 0.79951 0.75216 0.70971 0.0
C156 C 0.76669 0.68577 0.71574 0.0
C157 C 0.80815 0.70488 0.69878 0.0
C158 C 0.65864 0.74012 0.75545 0.0
N159 N 0.6761 0.77272 0.74856 0.0
C160 C 0.61815 0.7197 0.75698 0.0
C161 C 0.59554 0.7329 0.75143 0.0
C162 C 0.61359 0.76624 0.74444 0.0
C163 C 0.65414 0.78587 0.74308 0.0
C164 C 0.72389 0.8902 0.76204 0.0
C165 C 0.75799 0.88027 0.74222 0.0
C166 C 0.72023 0.85397 0.75937 0.0
N167 N 0.73698 0.84935 0.74952 0.0
C168 C 0.7623 0.91694 0.74462 0.0
C169 C 0.74506 0.92184 0.75459 0.0
C170 C 0.813 0.81846 0.7381 0.0
C171 C 0.74944 0.6629 0.75675 0.0
C172 C 0.8042 0.71617 0.74136 0.0
C173 C 0.81542 0.69711 0.74942 0.0
C174 C 0.7878 0.67035 0.75717 0.0
N175 N 0.76651 0.70868 0.74101 0.0
C176 C 0.73925 0.68245 0.74856 0.0
Co177 Co 0.90283 0.71785 0.0815 0.0
Co178 Co 0.9921 0.74802 0.06836 0.0
O179 O 0.95253 0.71919 0.08012 0.0
C180 C 0.94495 0.75123 0.10332 0.0
O181 O 0.97466 0.77361 0.09658 0.0
C182 C 0.96899 0.66568 0.06507 0.0
O183 O 0.933 0.65895 0.06561 0.0
O184 O 0.95218 0.72957 0.05585 0.0
O185 O 0.89371 0.70975 0.06425 0.0
H186 H 0.05078 0.83704 0.03384 0.0
H187 H 0.91917 0.66616 0.09638 0.0
O188 O 0.91218 0.72667 0.09879 0.0
H189 H 0.80226 0.57731 0.07348 0.0
H190 H 0.77521 0.68071 0.10122 0.0
H191 H 0.8616 0.75049 0.06804 0.0
H192 H 0.83305 0.64892 0.07125 0.0
H193 H 0.83813 0.68248 0.09881 0.0
O194 O -0.00241 0.70062 0.06592 0.0
H195 H 0.00083 0.80135 0.04891 0.0
H196 H 0.06827 0.75395 0.06253 0.0
H197 H 0.79883 0.74922 0.07005 0.0
H198 H 0.88918 0.59476 0.09894 0.0
H199 H 0.75516 0.71412 0.08675 0.0
H200 H 0.83038 0.54981 0.0874 0.0
O201 O 0.9281 0.77525 0.07909 0.0
H202 H 0.05757 0.73252 0.10388 0.0
H203 H 0.05834 0.82606 0.07522 0.0
H204 H 0.10675 0.8502 0.09116 0.0
H205 H 0.10652 0.80327 0.10563 0.0
H206 H 0.00953 0.70969 0.08785 0.0
H207 H 0.11884 0.78888 0.04755 0.0
H208 H 0.11031 0.83091 0.0331 0.0
O209 O 0.98635 0.79521 0.07056 0.0
C210 C 0.91536 0.71583 0.0553 0.0
C211 C 0.05491 0.81894 0.04011 0.0
C212 C 0.09308 0.79186 0.0478 0.0
N213 N 0.03185 0.77593 0.05665 0.0
C214 C 0.02679 0.79877 0.04869 0.0
C215 C 0.06434 0.77211 0.05624 0.0
C216 C 0.08828 0.81545 0.0397 0.0
C217 C 0.89333 0.64679 0.09143 0.0
N218 N 0.87772 0.66167 0.08374 0.0
C219 C 0.87658 0.60639 0.09287 0.0
C220 C 0.84362 0.58119 0.08639 0.0
C221 C 0.82784 0.5966 0.07857 0.0
C222 C 0.84542 0.63716 0.07734 0.0
C223 C 0.79394 0.69601 0.0939 0.0
C224 C 0.84261 0.73493 0.07528 0.0
C225 C 0.82961 0.69717 0.0925 0.0
N226 N 0.85329 0.71626 0.08324 0.0
C227 C 0.80717 0.73442 0.07639 0.0
C228 C 0.78271 0.71476 0.08577 0.0
C229 C 0.96005 0.80172 0.07464 0.0
C230 C 0.05804 0.75324 0.0976 0.0
C231 C 0.0581 0.80547 0.08148 0.0
C232 C 0.0856 0.8193 0.09048 0.0
C233 C 0.08547 0.79294 0.09859 0.0
N234 N 0.0313 0.76648 0.08057 0.0
C235 C 0.03103 0.74045 0.08847 0.0
Co236 Co 0.18966 0.92046 0.41348 0.0
Co237 Co 0.24923 0.00712 0.39891 0.0
O238 O 0.23789 0.97032 0.41167 0.0
C239 C 0.1972 0.96629 0.43447 0.0
O240 O 0.2046 0.99507 0.42729 0.0
C241 C 0.30818 0.9837 0.39784 0.0
O242 O 0.27916 0.94818 0.3997 0.0
O243 O 0.22904 0.96451 0.38726 0.0
O244 O 0.18943 0.90782 0.39649 0.0
H245 H 0.22074 0.0566 0.36196 0.0
H246 H 0.25662 0.93991 0.4292 0.0
O247 O 0.18931 0.93295 0.43046 0.0
H248 H 0.22999 0.81868 0.40898 0.0
H249 H 0.09847 0.79628 0.43483 0.0
H250 H 0.11637 0.8765 0.39991 0.0
H251 H 0.18967 0.84901 0.40504 0.0
H252 H 0.15967 0.85891 0.43187 0.0
O253 O 0.30219 0.01253 0.39723 0.0
H254 H 0.2059 0.0103 0.37821 0.0
H255 H 0.31927 0.08264 0.39229 0.0
H256 H 0.05482 0.81393 0.40247 0.0
H257 H 0.29736 0.91032 0.43351 0.0
H258 H 0.04559 0.77336 0.42004 0.0
H259 H 0.28425 0.84936 0.42332 0.0
O260 O 0.15779 0.94504 0.40991 0.0
H261 H 0.32803 0.08131 0.43389 0.0
H262 H 0.23633 0.07415 0.40353 0.0
H263 H 0.25944 0.12616 0.41843 0.0
H264 H 0.3056 0.12993 0.43376 0.0
H265 H 0.30402 0.02966 0.41886 0.0
H266 H 0.3355 0.12961 0.37614 0.0
H267 H 0.28596 0.11677 0.36085 0.0
O268 O 0.19603 0.00111 0.40017 0.0
C269 C 0.20604 0.9276 0.38731 0.0
C270 C 0.24251 0.06262 0.36859 0.0
C271 C 0.30694 0.10357 0.37655 0.0
N272 N 0.26151 0.04406 0.38626 0.0
C273 C 0.23421 0.0366 0.37784 0.0
C274 C 0.29761 0.07687 0.38566 0.0
C275 C 0.27912 0.09635 0.36797 0.0
C276 C 0.25042 0.91312 0.42484 0.0
N277 N 0.22064 0.89607 0.41694 0.0
C278 C 0.2737 0.89659 0.42728 0.0
C279 C 0.26638 0.86243 0.42154 0.0
C280 C 0.23596 0.84522 0.41349 0.0
C281 C 0.21328 0.86256 0.41127 0.0
C282 C 0.10219 0.81364 0.42712 0.0
C283 C 0.11267 0.85883 0.40753 0.0
C284 C 0.13674 0.84913 0.42541 0.0
N285 N 0.14171 0.87107 0.41566 0.0
C286 C 0.07771 0.82351 0.40895 0.0
C287 C 0.07253 0.80079 0.41882 0.0
C288 C 0.16331 0.97571 0.40455 0.0
C289 C 0.30803 0.08005 0.42724 0.0
C290 C 0.25645 0.07565 0.41016 0.0
C291 C 0.26946 0.10518 0.41857 0.0
C292 C 0.29538 0.10729 0.42717 0.0
N293 N 0.26902 0.04908 0.41029 0.0
C294 C 0.29448 0.05099 0.41867 0.0
Co295 Co 0.26771 0.20056 0.7458 0.0
Co296 Co 0.23638 0.25527 0.73053 0.0
O297 O 0.26422 0.24743 0.74326 0.0
C298 C 0.23052 0.21041 0.76662 0.0
O299 O 0.20796 0.21545 0.75928 0.0
C300 C 0.31814 0.31566 0.72784 0.0
O301 O 0.32521 0.28688 0.72941 0.0
O302 O 0.25818 0.23386 0.71907 0.0
O303 O 0.27834 0.19756 0.7288 0.0
H304 H 0.15337 0.21813 0.69442 0.0
H305 H 0.31535 0.27135 0.7602 0.0
O306 O 0.25646 0.20299 0.76279 0.0
H307 H 0.41022 0.2452 0.7401 0.0
H308 H 0.30707 0.11664 0.76848 0.0
H309 H 0.23912 0.12495 0.73347 0.0
H310 H 0.33938 0.20163 0.7372 0.0
H311 H 0.30297 0.17598 0.76454 0.0
O312 O 0.283 0.3089 0.72805 0.0
H313 H 0.18773 0.20738 0.7107 0.0
H314 H 0.22814 0.32294 0.72298 0.0
H315 H 0.24277 0.06518 0.73701 0.0
H316 H 0.3859 0.31551 0.76341 0.0
H317 H 0.27696 0.06078 0.75462 0.0
H318 H 0.43387 0.30263 0.75327 0.0
O319 O 0.2111 0.1664 0.74284 0.0
H320 H 0.24264 0.33923 0.76435 0.0
H321 H 0.15626 0.24061 0.73565 0.0
H322 H 0.12791 0.26501 0.75031 0.0
H323 H 0.17124 0.31466 0.7648 0.0
H324 H 0.2697 0.31386 0.74958 0.0
H325 H 0.19448 0.3351 0.70678 0.0
H326 H 0.15663 0.28239 0.69239 0.0
O327 O 0.19022 0.20136 0.73269 0.0
C328 C 0.27313 0.21178 0.7194 0.0
C329 C 0.16962 0.24127 0.70066 0.0
C330 C 0.19274 0.30694 0.70759 0.0
N331 N 0.20948 0.26434 0.71785 0.0
C332 C 0.189 0.23529 0.70992 0.0
C333 C 0.21176 0.29991 0.71674 0.0
C334 C 0.1715 0.27734 0.69952 0.0
C335 C 0.33603 0.26529 0.75587 0.0
N336 N 0.32327 0.23381 0.74859 0.0
C337 C 0.37595 0.2905 0.75768 0.0
C338 C 0.40285 0.28329 0.75197 0.0
C339 C 0.3896 0.25108 0.74457 0.0
C340 C 0.34946 0.22654 0.74296 0.0
C341 C 0.2922 0.11825 0.76075 0.0
C342 C 0.2543 0.12335 0.7411 0.0
C343 C 0.28974 0.15173 0.75849 0.0
N344 N 0.2712 0.15403 0.74873 0.0
C345 C 0.25616 0.08939 0.74308 0.0
C346 C 0.2753 0.08692 0.75297 0.0
C347 C 0.18459 0.1697 0.73751 0.0
C348 C 0.22348 0.31769 0.75806 0.0
C349 C 0.17528 0.26224 0.74192 0.0
C350 C 0.15908 0.27598 0.75019 0.0
C351 C 0.18341 0.30385 0.75832 0.0
N352 N 0.21461 0.27599 0.74172 0.0
C353 C 0.23866 0.30336 0.74964 0.0
Co354 Co 0.72303 0.91562 0.57927 0.0
Co355 Co 0.74409 0.00332 0.59209 0.0
O356 O 0.71891 0.96261 0.58035 0.0
C357 C 0.75371 0.95778 0.5573 0.0
O358 O 0.77371 0.98868 0.56391 0.0
C359 C 0.66018 0.97232 0.59483 0.0
O360 O 0.65742 0.93781 0.59447 0.0
O361 O 0.72811 0.96406 0.60469 0.0
O362 O 0.71545 0.90689 0.59658 0.0
H363 H 0.82759 0.06861 0.62723 0.0
H364 H 0.66698 0.9243 0.56413 0.0
O365 O 0.73137 0.92451 0.56197 0.0
H366 H 0.58686 0.80544 0.58746 0.0
H367 H 0.69878 0.79048 0.56025 0.0
H368 H 0.76234 0.88159 0.59303 0.0
H369 H 0.65854 0.84265 0.58973 0.0
H370 H 0.69321 0.84978 0.56229 0.0
O371 O 0.69358 0.00328 0.59403 0.0
H372 H 0.79695 0.01742 0.61214 0.0
H373 H 0.74189 0.07608 0.59732 0.0
H374 H 0.76842 0.82251 0.59138 0.0
H375 H 0.59542 0.88785 0.56153 0.0
H376 H 0.73648 0.77647 0.57489 0.0
H377 H 0.55486 0.82804 0.57328 0.0
O378 O 0.78028 0.94617 0.58166 0.0
H379 H 0.72344 0.06286 0.556 0.0
H380 H 0.81927 0.07392 0.58549 0.0
H381 H 0.84054 0.12192 0.56945 0.0
H382 H 0.79245 0.11652 0.55455 0.0
H383 H 0.7035 0.01536 0.57214 0.0
H384 H 0.77167 0.1278 0.6123 0.0
H385 H 0.81499 0.12431 0.62736 0.0
O386 O 0.79441 0.00288 0.59044 0.0
C387 C 0.71832 0.92806 0.60539 0.0
C388 C 0.80893 0.07057 0.62068 0.0
C389 C 0.77749 0.10375 0.61231 0.0
N390 N 0.76811 0.04408 0.60378 0.0
C391 C 0.79164 0.04176 0.61209 0.0
C392 C 0.76069 0.07439 0.60386 0.0
C393 C 0.8018 0.10178 0.62075 0.0
C394 C 0.64956 0.89805 0.56918 0.0
N395 N 0.66692 0.88546 0.57702 0.0
C396 C 0.60904 0.87764 0.56771 0.0
C397 C 0.58629 0.84411 0.57432 0.0
C398 C 0.60423 0.83143 0.58228 0.0
C399 C 0.64481 0.85263 0.58353 0.0
C400 C 0.71273 0.81025 0.56749 0.0
C401 C 0.74811 0.86152 0.58589 0.0
C402 C 0.70972 0.84388 0.56868 0.0
N403 N 0.72709 0.86884 0.57784 0.0
C404 C 0.75177 0.8282 0.58497 0.0
C405 C 0.73388 0.80241 0.57571 0.0
C406 C 0.80424 0.97902 0.58626 0.0
C407 C 0.74464 0.06559 0.56245 0.0
C408 C 0.79818 0.07142 0.57904 0.0
C409 C 0.81038 0.0987 0.56999 0.0
C410 C 0.78337 0.09566 0.56164 0.0
N411 N 0.76014 0.04202 0.57978 0.0
C412 C 0.73347 0.03889 0.57164 0.0
Co413 Co 0.81107 0.71432 0.91206 0.0
Co414 Co 0.7485 0.74166 0.92433 0.0
O415 O 0.76168 0.7138 0.91289 0.0
C416 C 0.80225 0.74535 0.88983 0.0
O417 O 0.79456 0.76811 0.89628 0.0
C418 C 0.6902 0.65894 0.92711 0.0
O419 O 0.72002 0.653 0.9272 0.0
O420 O 0.76869 0.72332 0.93719 0.0
O421 O 0.81146 0.70764 0.92944 0.0
H422 H 0.77161 0.82834 0.95904 0.0
H423 H 0.74465 0.65977 0.8971 0.0
O424 O 0.81094 0.72157 0.89468 0.0
H425 H 0.77574 0.57578 0.92137 0.0
H426 H 0.90591 0.68019 0.89379 0.0
H427 H 0.88429 0.75035 0.92591 0.0
H428 H 0.81428 0.6477 0.92315 0.0
H429 H 0.8434 0.67967 0.8955 0.0
O430 O 0.69588 0.6936 0.92613 0.0
H431 H 0.78911 0.79398 0.94436 0.0
H432 H 0.6767 0.74608 0.92895 0.0
H433 H 0.94711 0.75139 0.92459 0.0
H434 H 0.70552 0.588 0.89499 0.0
H435 H 0.95821 0.71611 0.90844 0.0
H436 H 0.72089 0.5455 0.90722 0.0
O437 O 0.84121 0.77199 0.91408 0.0
H438 H 0.6727 0.72608 0.8876 0.0
H439 H 0.75977 0.81941 0.91732 0.0
H440 H 0.73733 0.84343 0.90087 0.0
H441 H 0.69351 0.7966 0.88586 0.0
H442 H 0.696 0.70335 0.90416 0.0
H443 H 0.65782 0.77966 0.94352 0.0
H444 H 0.70554 0.82128 0.95867 0.0
O445 O 0.80119 0.7896 0.92277 0.0
C446 C 0.79344 0.71172 0.93812 0.0
C447 C 0.75063 0.81044 0.95245 0.0
C448 C 0.68674 0.78307 0.94375 0.0
N449 N 0.73411 0.76848 0.93573 0.0
C450 C 0.76042 0.79104 0.94409 0.0
C451 C 0.69756 0.7641 0.93553 0.0
C452 C 0.71353 0.80642 0.95225 0.0
C453 C 0.75181 0.64148 0.90236 0.0
N454 N 0.78187 0.6579 0.91019 0.0
C455 C 0.72943 0.60086 0.90116 0.0
C456 C 0.73803 0.57702 0.90804 0.0
C457 C 0.76879 0.594 0.91599 0.0
C458 C 0.79049 0.63473 0.91696 0.0
C459 C 0.90138 0.69559 0.90088 0.0
C460 C 0.88883 0.73471 0.91891 0.0
C461 C 0.8661 0.69546 0.90188 0.0
N462 N 0.86013 0.71465 0.91086 0.0
C463 C 0.92449 0.73551 0.91818 0.0
C464 C 0.93071 0.71574 0.90911 0.0
C465 C 0.83431 0.79745 0.91861 0.0
C466 C 0.69166 0.74674 0.89411 0.0
C467 C 0.74064 0.79885 0.91083 0.0
C468 C 0.72801 0.81261 0.90154 0.0
C469 C 0.7034 0.78632 0.89313 0.0
N470 N 0.72899 0.75998 0.91173 0.0
C471 C 0.7048 0.73401 0.90353 0.0
Co472 Co 0.06757 0.79861 0.24733 0.0
Co473 Co 0.98253 0.74377 0.26301 0.0
O474 O 0.01796 0.75128 0.25023 0.0
C475 C 0.01949 0.78594 0.22653 0.0
O476 O 0.99165 0.78016 0.23387 0.0
C477 C 0.00608 0.68513 0.2662 0.0
O478 O 0.04161 0.71433 0.26452 0.0
O479 O 0.02616 0.76739 0.27433 0.0
O480 O 0.08192 0.80329 0.26429 0.0
H481 H 0.93634 0.78241 0.29876 0.0
H482 H 0.04546 0.72696 0.23348 0.0
O483 O 0.05321 0.79458 0.23035 0.0
H484 H 0.16815 0.75767 0.25339 0.0
H485 H 0.18929 0.88292 0.22407 0.0
H486 H 0.11367 0.87531 0.25916 0.0
H487 H 0.13949 0.80021 0.25592 0.0
H488 H 0.1268 0.82302 0.22841 0.0
O489 O 0.97719 0.69109 0.26596 0.0
H490 H 0.98109 0.79279 0.28242 0.0
H491 H 0.9079 0.67562 0.27111 0.0
H492 H 0.17614 0.93567 0.25522 0.0
H493 H 0.07322 0.68377 0.23064 0.0
H494 H 0.2144 0.93972 0.23756 0.0
H495 H 0.13492 0.69895 0.24067 0.0
O496 O 0.04395 0.83195 0.25002 0.0
H497 H 0.90494 0.65535 0.22993 0.0
H498 H 0.91541 0.75565 0.2577 0.0
H499 H 0.86203 0.72852 0.24323 0.0
H500 H 0.85659 0.67802 0.22922 0.0
H501 H 0.95797 0.68343 0.2445 0.0
H502 H 0.86247 0.66383 0.28739 0.0
H503 H 0.87652 0.71754 0.30132 0.0
O504 O 0.98861 0.79675 0.26035 0.0
C505 C 0.06306 0.79005 0.27383 0.0
C506 C 0.9298 0.75884 0.29272 0.0
C507 C 0.88836 0.69227 0.28634 0.0
N508 N 0.94682 0.735 0.27574 0.0
C509 C 0.95494 0.7646 0.28342 0.0
C510 C 0.91419 0.69909 0.27715 0.0
C511 C 0.89626 0.72242 0.29416 0.0
C512 C 0.07256 0.73401 0.23776 0.0
N513 N 0.09098 0.7662 0.24479 0.0
C514 C 0.08804 0.70934 0.23617 0.0
C515 C 0.12263 0.71785 0.24181 0.0
C516 C 0.14128 0.75078 0.24895 0.0
C517 C 0.12491 0.77474 0.25036 0.0
C518 C 0.17294 0.88148 0.23181 0.0
C519 C 0.13031 0.87678 0.25151 0.0
C520 C 0.13752 0.84768 0.2343 0.0
N521 N 0.11685 0.84559 0.24408 0.0
C522 C 0.16559 0.91106 0.2493 0.0
C523 C 0.18701 0.91333 0.23938 0.0
C524 C 0.01392 0.82825 0.25532 0.0
C525 C 0.90692 0.67724 0.23602 0.0
C526 C 0.91319 0.73365 0.25163 0.0
C527 C 0.8829 0.71837 0.24347 0.0
C528 C 0.87984 0.69002 0.23561 0.0
N529 N 0.93961 0.72095 0.25198 0.0
C530 C 0.93678 0.69312 0.24432 0.0
Co531 Co 0.27138 0.08177 0.57933 0.0
Co532 Co 0.24027 0.99394 0.59361 0.0
O533 O 0.2684 0.03137 0.58125 0.0
C534 C 0.23598 0.03786 0.55787 0.0
O535 O 0.21328 0.00881 0.56479 0.0
C536 C 0.32192 0.0149 0.59623 0.0
O537 O 0.32942 0.05115 0.59535 0.0
O538 O 0.26157 0.0357 0.6056 0.0
O539 O 0.28071 0.09295 0.59645 0.0
H540 H 0.15639 0.94311 0.62944 0.0
H541 H 0.32063 0.0616 0.56466 0.0
O542 O 0.26146 0.07066 0.56218 0.0
H543 H 0.4131 0.18026 0.58634 0.0
H544 H 0.31109 0.20821 0.55834 0.0
H545 H 0.24132 0.12627 0.59231 0.0
H546 H 0.34197 0.15173 0.58884 0.0
H547 H 0.30737 0.14451 0.56139 0.0
O548 O 0.28669 0.98674 0.59576 0.0
H549 H 0.19114 0.99042 0.61365 0.0
H550 H 0.23184 0.91705 0.60012 0.0
H551 H 0.24457 0.18989 0.58966 0.0
H552 H 0.39151 0.08929 0.56184 0.0
H553 H 0.27967 0.23133 0.57257 0.0
H554 H 0.43827 0.14895 0.57276 0.0
O555 O 0.21438 0.05811 0.58197 0.0
H556 H 0.24774 0.92088 0.55872 0.0
H557 H 0.16037 0.9288 0.58793 0.0
H558 H 0.13257 0.87793 0.57267 0.0
H559 H 0.17639 0.87377 0.55793 0.0
H560 H 0.27426 0.97143 0.57408 0.0
H561 H 0.19778 0.86905 0.61583 0.0
H562 H 0.15959 0.8819 0.63059 0.0
O563 O 0.19418 0.00161 0.59173 0.0
C564 C 0.27565 0.07267 0.60565 0.0
C565 C 0.17278 0.93709 0.62303 0.0
C566 C 0.19606 0.89555 0.61539 0.0
N567 N 0.21305 0.95623 0.6059 0.0
C568 C 0.19238 0.96369 0.61404 0.0
C569 C 0.21531 0.92283 0.60653 0.0
C570 C 0.17463 0.90278 0.62368 0.0
C571 C 0.34079 0.08783 0.56934 0.0
N572 N 0.32719 0.10518 0.57685 0.0
C573 C 0.3809 0.10327 0.56775 0.0
C574 C 0.40712 0.13672 0.57389 0.0
C575 C 0.39301 0.15428 0.58152 0.0
C576 C 0.35271 0.13799 0.58291 0.0
C577 C 0.29579 0.19046 0.56583 0.0
C578 C 0.25686 0.14428 0.5849 0.0
C579 C 0.29354 0.15436 0.56759 0.0
N580 N 0.27446 0.13192 0.57708 0.0
C581 C 0.2585 0.18021 0.58342 0.0
C582 C 0.27817 0.20342 0.57382 0.0
C583 C 0.18809 0.02757 0.58712 0.0
C584 C 0.22837 0.92231 0.56512 0.0
C585 C 0.17961 0.92714 0.58155 0.0
C586 C 0.16372 0.89826 0.57294 0.0
C587 C 0.18832 0.89593 0.56467 0.0
N588 N 0.21892 0.95289 0.58193 0.0
C589 C 0.24324 0.95076 0.57387 0.0
Co590 Co 0.18055 0.27544 0.91181 0.0
Co591 Co 0.24205 0.24768 0.92462 0.0
O592 O 0.22969 0.27549 0.91293 0.0
C593 C 0.18977 0.24373 0.88974 0.0
O594 O 0.19738 0.22112 0.89629 0.0
C595 C 0.30104 0.33026 0.92731 0.0
O596 O 0.27159 0.33676 0.92714 0.0
O597 O 0.2218 0.26686 0.93724 0.0
O598 O 0.17952 0.28255 0.92914 0.0
H599 H 0.21667 0.16213 0.95974 0.0
H600 H 0.2477 0.32922 0.89698 0.0
O601 O 0.18116 0.26773 0.89448 0.0
H602 H 0.21673 0.41454 0.92064 0.0
H603 H 0.08728 0.31033 0.89283 0.0
H604 H 0.10676 0.24016 0.92536 0.0
H605 H 0.17764 0.3427 0.92257 0.0
H606 H 0.14941 0.3103 0.89491 0.0
O607 O 0.29488 0.29538 0.92649 0.0
H608 H 0.20028 0.19632 0.94471 0.0
H609 H 0.31313 0.24241 0.92974 0.0
H610 H 0.04429 0.23968 0.92367 0.0
H611 H 0.28738 0.40089 0.89472 0.0
H612 H 0.03426 0.27496 0.90731 0.0
H613 H 0.27206 0.44407 0.90664 0.0
O614 O 0.14992 0.21783 0.91391 0.0
H615 H 0.31918 0.26114 0.88837 0.0
H616 H 0.2301 0.16934 0.91802 0.0
H617 H 0.25287 0.14433 0.9019 0.0
H618 H 0.29771 0.19039 0.88693 0.0
H619 H 0.2955 0.28486 0.90458 0.0
H620 H 0.33089 0.20897 0.94467 0.0
H621 H 0.2824 0.16835 0.95977 0.0
O622 O 0.18917 0.20006 0.92301 0.0
C623 C 0.19718 0.27868 0.93794 0.0
C624 C 0.23799 0.17959 0.95317 0.0
C625 C 0.30211 0.20593 0.94472 0.0
N626 N 0.25555 0.2209 0.93629 0.0
C627 C 0.22882 0.19888 0.94462 0.0
C628 C 0.29192 0.22482 0.93631 0.0
C629 C 0.27489 0.18313 0.95319 0.0
C630 C 0.24058 0.3478 0.9021 0.0
N631 N 0.21024 0.3318 0.90984 0.0
C632 C 0.26327 0.38837 0.90083 0.0
C633 C 0.25469 0.41258 0.90753 0.0
C634 C 0.22366 0.39603 0.91539 0.0
C635 C 0.20166 0.35534 0.91645 0.0
C636 C 0.09133 0.29493 0.90001 0.0
C637 C 0.10269 0.25581 0.91827 0.0
C638 C 0.12641 0.29476 0.90122 0.0
N639 N 0.13179 0.27557 0.91031 0.0
C640 C 0.06722 0.25533 0.91733 0.0
C641 C 0.0616 0.27509 0.90814 0.0
C642 C 0.15634 0.19235 0.91865 0.0
C643 C 0.29976 0.24082 0.89486 0.0
C644 C 0.24965 0.18956 0.91154 0.0
C645 C 0.26247 0.17524 0.90244 0.0
C646 C 0.28766 0.2011 0.89405 0.0
N647 N 0.26166 0.22855 0.91227 0.0
C648 C 0.28641 0.2541 0.90409 0.0
Co649 Co 0.9287 0.19943 0.24705 0.0
Co650 Co 0.01156 0.25952 0.26305 0.0
O651 O 0.97548 0.24926 0.25021 0.0
C652 C 0.97828 0.2176 0.22632 0.0
O653 O 0.00688 0.22629 0.23368 0.0
C654 C 0.97977 0.31141 0.26665 0.0
O655 O 0.94578 0.28001 0.26482 0.0
O656 O 0.96808 0.23154 0.27422 0.0
O657 O 0.91366 0.19252 0.26397 0.0
H658 H 0.06371 0.22641 0.29857 0.0
H659 H 0.94432 0.26992 0.23355 0.0
O660 O 0.94374 0.2056 0.23011 0.0
H661 H 0.81819 0.22627 0.25321 0.0
H662 H 0.8108 0.10777 0.22334 0.0
H663 H 0.88857 0.12159 0.2585 0.0
H664 H 0.85301 0.18941 0.25559 0.0
H665 H 0.86961 0.17085 0.228 0.0
O666 O 0.01093 0.30927 0.26631 0.0
H667 H 0.01821 0.21253 0.28217 0.0
H668 H 0.08203 0.3315 0.27155 0.0
H669 H 0.82983 0.05806 0.25422 0.0
H670 H 0.91038 0.30751 0.23087 0.0
H671 H 0.7905 0.05087 0.23653 0.0
H672 H 0.84692 0.2858 0.24079 0.0
O673 O 0.95721 0.17071 0.24959 0.0
H674 H 0.08402 0.35374 0.23056 0.0
H675 H 0.08374 0.25654 0.25765 0.0
H676 H 0.13725 0.2892 0.24337 0.0
H677 H 0.13757 0.33817 0.2297 0.0
H678 H 0.03097 0.3202 0.24493 0.0
H679 H 0.12809 0.34679 0.28789 0.0
H680 H 0.11914 0.29396 0.30151 0.0
O681 O 0.01139 0.20932 0.26006 0.0
C682 C 0.93181 0.20626 0.27359 0.0
C683 C 0.06804 0.24963 0.29266 0.0
C684 C 0.10414 0.31721 0.28668 0.0
N685 N 0.04782 0.27106 0.27583 0.0
C686 C 0.04248 0.24191 0.28333 0.0
C687 C 0.07797 0.3084 0.27745 0.0
C688 C 0.0991 0.28755 0.29431 0.0
C689 C 0.9165 0.26004 0.23778 0.0
N690 N 0.90053 0.22737 0.24465 0.0
C691 C 0.8975 0.28154 0.23628 0.0
C692 C 0.86192 0.26938 0.24186 0.0
C693 C 0.8458 0.23599 0.24883 0.0
C694 C 0.86565 0.21525 0.25015 0.0
C695 C 0.82763 0.11056 0.23109 0.0
C696 C 0.87143 0.11875 0.25083 0.0
C697 C 0.86097 0.14618 0.23376 0.0
N698 N 0.88223 0.14995 0.24357 0.0
C699 C 0.83828 0.08268 0.24843 0.0
C700 C 0.81626 0.07865 0.2385 0.0
C701 C 0.98833 0.17724 0.25485 0.0
C702 C 0.08427 0.33254 0.2365 0.0
C703 C 0.08371 0.27783 0.25173 0.0
C704 C 0.1141 0.29626 0.24367 0.0
C705 C 0.11427 0.32375 0.23601 0.0
N706 N 0.05441 0.28664 0.25216 0.0
C707 C 0.0544 0.3136 0.24468 0.0
H708 H 0.04968 0.25258 0.21578 0.0
H709 H 0.06378 0.25929 0.1949 0.0
H710 H 0.94039 0.20003 0.18735 0.0
H711 H 0.92582 0.19307 0.20828 0.0
H712 H 0.98747 0.17142 0.17529 0.0
H713 H 0.04865 0.33233 0.17148 0.0
H714 H 0.06762 0.3159 0.18307 0.0
H715 H 0.01749 0.30405 0.18343 0.0
C716 C 0.02547 0.24102 0.2097 0.0
C717 C 0.98659 0.22222 0.21368 0.0
C718 C 0.03365 0.2451 0.19778 0.0
C719 C 0.00314 0.23048 0.18963 0.0
C720 C 0.9643 0.21165 0.19355 0.0
H721 H 0.97973 0.20689 0.11515 0.0
H722 H 0.9711 0.2032 0.13622 0.0
C723 C 0.95605 0.20775 0.20549 0.0
C724 C 0.01178 0.23365 0.17702 0.0
H725 H 0.05145 0.29916 0.15468 0.0
C726 C 0.00138 0.19929 0.17076 0.0
C727 C 0.03038 0.27015 0.17122 0.0
C728 C 0.04153 0.30779 0.17758 0.0
C729 C 0.00915 0.20043 0.15879 0.0
C730 C 0.0269 0.23685 0.1529 0.0
C731 C 0.03784 0.2713 0.15922 0.0
C732 C 0.03265 0.23952 0.14011 0.0
C733 C -0.00123 0.16268 0.1526 0.0
C734 C 0.07009 0.26226 0.13528 0.0
C735 C 0.07517 0.26478 0.12317 0.0
C736 C 0.04282 0.24463 0.11572 0.0
C737 C 0.00537 0.22235 0.12062 0.0
C738 C 0.00034 0.22003 0.13268 0.0
H739 H -0.00305 0.14013 0.15878 0.0
H740 H 0.96975 0.15098 0.1484 0.0
H741 H 0.02052 0.16738 0.14574 0.0
H742 H 0.09536 0.27782 0.14088 0.0
H743 H 0.10435 0.28233 0.11965 0.0
H744 H 0.75901 0.95016 0.44461 0.0
H745 H 0.75282 0.93785 0.46559 0.0
H746 H 0.80148 0.06123 0.47215 0.0
H747 H 0.80789 0.07402 0.45112 0.0
H748 H 0.83477 0.02066 0.48547 0.0
H749 H 0.67251 0.9465 0.48749 0.0
H750 H 0.69275 0.92916 0.47653 0.0
H751 H 0.7003 0.97786 0.47552 0.0
C752 C 0.76849 0.97477 0.4505 0.0
C753 C 0.78398 0.01312 0.4462 0.0
C754 C 0.76469 0.96759 0.46248 0.0
C755 C 0.77629 -0.00142 0.47037 0.0
C756 C 0.7922 0.03694 0.46616 0.0
H757 H 0.78977 0.02589 0.54503 0.0
H758 H 0.79523 0.03422 0.52394 0.0
C759 C 0.79581 0.04417 0.45416 0.0
C760 C 0.77245 0.99096 0.48305 0.0
H761 H 0.70541 0.94786 0.50484 0.0
C762 C 0.80654 0.00482 0.48973 0.0
C763 C 0.73553 0.96995 0.48851 0.0
C764 C 0.69808 0.95517 0.4817 0.0
C765 C 0.80472 -0.00197 0.50178 0.0
C766 C 0.76778 0.97767 0.5073 0.0
C767 C 0.73367 0.96343 0.50058 0.0
C768 C 0.76398 0.97218 0.52011 0.0
C769 C 0.84237 0.01218 0.50844 0.0
C770 C 0.74339 0.93449 0.52496 0.0
C771 C 0.73982 0.92956 0.53707 0.0
C772 C 0.75677 0.96231 0.54449 0.0
C773 C 0.77683 -0.0 0.53957 0.0
C774 C 0.78017 0.00486 0.52751 0.0
H775 H 0.86655 0.01616 0.50262 0.0
H776 H 0.85094 0.04095 0.51247 0.0
H777 H 0.83896 0.99141 0.51549 0.0
H778 H 0.73037 0.9089 0.51937 0.0
H779 H 0.72405 0.90018 0.5406 0.0
H780 H 0.73555 0.80366 0.78501 0.0
H781 H 0.74268 0.79489 0.80585 0.0
H782 H 0.80322 0.73244 0.79756 0.0
H783 H 0.79697 0.74167 0.77681 0.0
H784 H 0.71655 0.72683 0.81866 0.0
H785 H 0.87854 0.81563 0.82003 0.0
H786 H 0.85038 0.81672 0.8078 0.0
H787 H 0.85995 0.77695 0.80944 0.0
C788 C 0.75049 0.78819 0.78764 0.0
C789 C 0.76609 0.77378 0.77927 0.0
C790 C 0.75451 0.78317 0.79953 0.0
C791 C 0.77415 0.76368 0.80324 0.0
C792 C 0.78889 0.74846 0.7949 0.0
H793 H 0.82196 0.70808 0.87318 0.0
H794 H 0.8143 0.70961 0.85196 0.0
C795 C 0.78511 0.75365 0.78303 0.0
C796 C 0.77877 0.75878 0.81584 0.0
H797 H 0.84695 0.78047 0.83718 0.0
C798 C 0.74505 0.7386 0.82271 0.0
C799 C 0.81602 0.774 0.82109 0.0
C800 C 0.85331 0.79735 0.81425 0.0
C801 C 0.74758 0.73325 0.8347 0.0
C802 C 0.78479 0.74881 0.83995 0.0
C803 C 0.8185 0.7684 0.83307 0.0
C804 C 0.78928 0.74738 0.8527 0.0
C805 C 0.71047 0.71094 0.84169 0.0
C806 C 0.77827 0.76855 0.86005 0.0
C807 C 0.78281 0.76798 0.87208 0.0
C808 C 0.7985 0.74618 0.87702 0.0
C809 C 0.80975 0.72509 0.86963 0.0
C810 C 0.8054 0.72592 0.85754 0.0
H811 H 0.68485 0.69285 0.83602 0.0
H812 H 0.71324 0.6916 0.84819 0.0
H813 H 0.70478 0.73201 0.84649 0.0
H814 H 0.76632 0.78574 0.85645 0.0
H815 H 0.77377 0.78451 0.87751 0.0
H816 H 0.88919 0.71698 0.12042 0.0
H817 H 0.89966 0.72265 0.14159 0.0
H818 H 0.02373 0.79575 0.13614 0.0
H819 H 0.01359 0.79103 0.11513 0.0
H820 H 0.94304 0.70148 0.15537 0.0
H821 H 0.00144 0.86139 0.15853 0.0
H822 H 0.97701 0.8336 0.14565 0.0
H823 H 0.02765 0.84908 0.1482 0.0
C824 C 0.91864 0.73444 0.12375 0.0
C825 C 0.95049 0.75394 0.1161 0.0
C826 C 0.92458 0.73762 0.13583 0.0
C827 C 0.96239 0.76032 0.14043 0.0
C828 C 0.99421 0.77903 0.13279 0.0
H829 H 0.07139 0.80601 0.20845 0.0
H830 H 0.05646 0.79842 0.18752 0.0
C831 C 0.98833 0.77611 0.12077 0.0
C832 C 0.96902 0.76382 0.1532 0.0
H833 H 0.01092 0.83064 0.17517 0.0
C834 C 0.95753 0.72966 0.15972 0.0
C835 C 0.98789 0.80067 0.15886 0.0
C836 C -0.00115 0.83823 0.15247 0.0
C837 C 0.96542 0.73148 0.17171 0.0
C838 C 0.98514 0.76836 0.17727 0.0
C839 C -0.00383 0.80246 0.17081 0.0
C840 C 0.99402 0.77215 0.18988 0.0
C841 C 0.95342 0.69412 0.17833 0.0
C842 C 0.96381 0.76014 0.19804 0.0
C843 C 0.97221 0.76469 0.20995 0.0
C844 C 0.01101 0.78125 0.2139 0.0
C845 C 0.04123 0.79311 0.20567 0.0
C846 C 0.03279 0.78883 0.19374 0.0
H847 H 0.94453 0.66874 0.17241 0.0
H848 H 0.97774 0.69736 0.18396 0.0
H849 H 0.92833 0.68772 0.18408 0.0
H850 H 0.93376 0.74757 0.1952 0.0
H851 H 0.94822 0.75509 0.21606 0.0
H852 H 0.27017 0.09302 0.54067 0.0
H853 H 0.26415 0.08203 0.51953 0.0
H854 H 0.1888 0.95823 0.52517 0.0
H855 H 0.19443 0.96877 0.54624 0.0
H856 H 0.25654 0.98418 0.50855 0.0
H857 H 0.15991 0.04657 0.49997 0.0
H858 H 0.20248 0.07474 0.5089 0.0
H859 H 0.16359 0.02895 0.51419 0.0
C860 C 0.25226 0.06348 0.5374 0.0
C861 C 0.23259 0.0318 0.54512 0.0
C862 C 0.24878 0.0573 0.52535 0.0
C863 C 0.2258 0.01938 0.52085 0.0
C864 C 0.20652 0.98771 0.52851 0.0
H865 H 0.17565 0.91253 0.45208 0.0
H866 H 0.1827 0.92535 0.47308 0.0
C867 C 0.20971 0.99385 0.54054 0.0
C868 C 0.22208 0.01248 0.50815 0.0
H869 H 0.18016 0.0247 0.48372 0.0
C870 C 0.23989 0.993 0.50308 0.0
C871 C 0.20043 0.02422 0.50112 0.0
C872 C 0.18023 0.0446 0.50627 0.0
C873 C 0.23696 0.98525 0.49107 0.0
C874 C 0.2147 0.99637 0.48404 0.0
C875 C 0.19707 0.01608 0.48913 0.0
C876 C 0.20966 0.98827 0.47135 0.0
C877 C 0.25847 0.96606 0.48601 0.0
C878 C 0.22123 0.01922 0.46343 0.0
C879 C 0.21669 0.01195 0.45146 0.0
C880 C 0.2005 0.97352 0.44717 0.0
C881 C 0.18846 0.94247 0.45512 0.0
C882 C 0.19273 0.94977 0.46711 0.0
H883 H 0.28264 0.96973 0.49179 0.0
H884 H 0.23785 0.93421 0.48501 0.0
H885 H 0.27078 0.97833 0.4773 0.0
H886 H 0.2342 0.04912 0.46651 0.0
H887 H 0.2264 0.03656 0.44557 0.0
H888 H 0.18782 0.23876 0.77706 0.0
H889 H 0.18207 0.24792 0.79785 0.0
H890 H 0.25793 0.20157 0.80558 0.0
H891 H 0.26466 0.19316 0.78471 0.0
H892 H 0.15313 0.19438 0.81515 0.0
H893 H 0.30853 0.30237 0.82408 0.0
H894 H 0.2893 0.28941 0.80948 0.0
H895 H 0.3019 0.25815 0.81753 0.0
C896 C 0.20338 0.23055 0.78316 0.0
C897 C 0.22677 0.21527 0.77924 0.0
C898 C 0.20008 0.23587 0.79505 0.0
C899 C 0.22005 0.22603 0.80325 0.0
C900 C 0.24304 0.21028 0.79938 0.0
H901 H 0.21963 0.20553 0.87755 0.0
H902 H 0.22611 0.20318 0.85645 0.0
C903 C 0.24663 0.20522 0.78746 0.0
C904 C 0.21575 0.23115 0.81586 0.0
H905 H 0.2673 0.27408 0.84067 0.0
C906 C 0.17805 0.21211 0.82071 0.0
C907 C 0.24831 0.25451 0.82308 0.0
C908 C 0.28924 0.2776 0.81827 0.0
C909 C 0.17217 0.21486 0.83265 0.0
C910 C 0.2048 0.23731 0.83989 0.0
C911 C 0.24241 0.25683 0.83505 0.0
C912 C 0.20063 0.23927 0.85262 0.0
C913 C 0.1313 0.19293 0.83756 0.0
C914 C 0.18433 0.26062 0.85741 0.0
C915 C 0.18068 0.26222 0.8695 0.0
C916 C 0.19311 0.24226 0.87695 0.0
C917 C 0.20948 0.221 0.87207 0.0
C918 C 0.21336 0.21969 0.86002 0.0
H919 H 0.10969 0.17303 0.83103 0.0
H920 H 0.13039 0.17545 0.84527 0.0
H921 H 0.12246 0.21418 0.84049 0.0
H922 H 0.17462 0.27615 0.85178 0.0
H923 H 0.16807 0.27892 0.87301 0.0
H924 H 0.14835 0.29626 0.04835 0.0
H925 H 0.17467 0.30527 0.02853 0.0
H926 H 0.06747 0.29259 0.01472 0.0
H927 H 0.04096 0.28373 0.03436 0.0
H928 H 0.13794 0.24771 0.01062 0.0
H929 H 0.15332 0.3904 -0.00225 0.0
H930 H 0.14996 0.37535 0.01279 0.0
H931 H 0.10674 0.35617 0.00394 0.0
C932 C 0.13058 0.29595 0.04111 0.0
C933 C 0.09248 0.2891 0.04296 0.0
C934 C 0.14568 0.30112 0.02981 0.0
C935 C 0.12316 0.3001 0.02021 0.0
C936 C 0.08557 0.29423 0.02204 0.0
H937 H 0.13441 0.2854 0.94509 0.0
H938 H 0.11803 0.29335 0.96517 0.0
C939 C 0.07038 0.28883 0.03329 0.0
C940 C 0.13725 0.30143 0.00819 0.0
H941 H 0.1576 0.35162 0.9825 0.0
C942 C 0.1427 0.27064 0.0045 0.0
C943 C 0.14285 0.33115 0.00023 0.0
C944 C 0.13825 0.36536 0.00387 0.0
C945 C 0.15277 0.26821 0.99294 0.0
C946 C 0.15844 0.29794 0.98495 0.0
C947 C 0.15322 0.32891 0.98866 0.0
C948 C 0.17 0.29717 0.97273 0.0
C949 C 0.15605 0.23317 0.98931 0.0
C950 C 0.2052 0.2981 0.97035 0.0
C951 C 0.21442 0.29323 0.95898 0.0
C952 C 0.18882 0.28786 0.94972 0.0
C953 C 0.1546 0.28926 0.95203 0.0
C954 C 0.14523 0.29381 0.96348 0.0
H955 H 0.14075 0.20838 0.9955 0.0
H956 H 0.14373 0.22298 0.98046 0.0
H957 H 0.18733 0.24145 0.98914 0.0
H958 H 0.22514 0.30164 0.97734 0.0
H959 H 0.24137 0.29301 0.95749 0.0
H960 H 0.8438 0.13124 0.38038 0.0
H961 H 0.86194 0.1594 0.36078 0.0
H962 H 0.7567 0.062 0.34688 0.0
H963 H 0.73876 0.0334 0.36627 0.0
H964 H 0.82191 0.07306 0.33572 0.0
H965 H 0.82261 0.21364 0.33894 0.0
H966 H 0.85114 0.20744 0.35002 0.0
H967 H 0.79909 0.17517 0.34964 0.0
C968 C 0.8242 0.11625 0.37318 0.0
C969 C 0.7901 0.07991 0.37486 0.0
C970 C 0.83447 0.13247 0.362 0.0
C971 C 0.81048 0.11288 0.3524 0.0
C972 C 0.77559 0.07756 0.35417 0.0
H973 H 0.85523 0.149 0.27705 0.0
H974 H 0.82119 0.1262 0.29577 0.0
C975 C 0.76548 0.06124 0.36527 0.0
C976 C 0.82353 0.12677 0.34036 0.0
H977 H 0.85379 0.20517 0.32219 0.0
C978 C 0.82837 0.10175 0.3327 0.0
C979 C 0.83193 0.16418 0.33648 0.0
C980 C 0.8256 0.19155 0.34416 0.0
C981 C 0.84274 0.11364 0.32138 0.0
C982 C 0.852 0.15137 0.31758 0.0
C983 C 0.84644 0.17616 0.32514 0.0
C984 C 0.87078 0.16678 0.30617 0.0
C985 C 0.84948 0.08638 0.31374 0.0
C986 C 0.90944 0.19769 0.30586 0.0
C987 C 0.92888 0.21073 0.29526 0.0
C988 C 0.90997 0.19321 0.28471 0.0
C989 C 0.87071 0.16297 0.28501 0.0
C990 C 0.85126 0.14986 0.29569 0.0
H991 H 0.84738 0.06124 0.31872 0.0
H992 H 0.82714 0.07464 0.30673 0.0
H993 H 0.8787 0.10231 0.30955 0.0
H994 H 0.92495 0.21109 0.31387 0.0
H995 H 0.959 0.23428 0.29539 0.0
H996 H 0.7104 0.85044 0.71576 0.0
H997 H 0.69864 0.87229 0.69691 0.0
H998 H 0.71464 0.78474 0.67931 0.0
H999 H 0.72598 0.76258 0.69785 0.0
H1000 H 0.75181 0.9005 0.6781 0.0
H1001 H 0.61322 0.76945 0.66494 0.0
H1002 H 0.63063 0.77813 0.67981 0.0
H1003 H 0.64992 0.75807 0.6694 0.0
C1004 C 0.71099 0.8356 0.70788 0.0
C1005 C 0.71912 0.80474 0.70835 0.0
C1006 C 0.70423 0.84808 0.69714 0.0
C1007 C 0.70503 0.82958 0.68676 0.0
C1008 C 0.7129 0.79873 0.68723 0.0
H1009 H 0.71681 0.86093 0.61261 0.0
H1010 H 0.71003 0.83694 0.63269 0.0
C1011 C 0.71974 0.78637 0.69788 0.0
C1012 C 0.70084 0.84408 0.67528 0.0
H1013 H 0.6505 0.8142 0.64962 0.0
C1014 C 0.72929 0.88196 0.67192 0.0
C1015 C 0.67157 0.81959 0.66725 0.0
C1016 C 0.63938 0.77917 0.67056 0.0
C1017 C 0.73036 0.89544 0.66054 0.0
C1018 C 0.70168 0.87056 0.65241 0.0
C1019 C 0.67254 0.83308 0.65587 0.0
C1020 C 0.7021 0.88284 0.6402 0.0
C1021 C 0.76322 0.93554 0.6572 0.0
C1022 C 0.69855 0.91571 0.63778 0.0
C1023 C 0.70274 0.92961 0.6264 0.0
C1024 C 0.71004 0.91057 0.61718 0.0
C1025 C 0.71138 0.87631 0.61953 0.0
C1026 C 0.70752 0.8626 0.63098 0.0
H1027 H 0.78784 0.9467 0.6635 0.0
H1028 H 0.77457 0.93512 0.64837 0.0
H1029 H 0.75215 0.95642 0.65707 0.0
H1030 H 0.69336 0.93113 0.64474 0.0
H1031 H 0.70084 0.9557 0.62487 0.0
H1032 H 0.94973 0.71545 0.0347 0.0
H1033 H 0.92229 0.70581 0.01517 0.0
H1034 H 0.81296 0.68574 0.02952 0.0
H1035 H 0.84022 0.69561 0.04925 0.0
H1036 H 0.85279 0.64093 0.00494 0.0
H1037 H 0.84954 0.78032 0.00678 0.0
H1038 H 0.87731 0.76909 0.01699 0.0
H1039 H 0.82521 0.74611 0.01843 0.0
C1040 C 0.91973 0.70877 0.03377 0.0
C1041 C 0.8973 0.70676 0.04357 0.0
C1042 C 0.90409 0.70309 0.02258 0.0
C1043 C 0.86584 0.69549 0.02092 0.0
C1044 C 0.84276 0.69202 0.03065 0.0
H1045 H 0.74939 0.69976 0.95758 0.0
H1046 H 0.76438 0.69071 0.97751 0.0
C1047 C 0.85835 0.69757 0.04191 0.0
C1048 C 0.85121 0.69344 0.00894 0.0
H1049 H 0.82774 0.74375 0.98949 0.0
C1050 C 0.84702 0.6632 0.00155 0.0
C1051 C 0.84403 0.72274 0.00457 0.0
C1052 C 0.84947 0.75663 0.01204 0.0
C1053 C 0.83556 0.66137 0.98986 0.0
C1054 C 0.82897 0.69105 0.98545 0.0
C1055 C 0.83278 0.72101 0.9929 0.0
C1056 C 0.81827 0.69207 0.97313 0.0
C1057 C 0.83018 0.62752 0.98241 0.0
C1058 C 0.8434 0.69533 0.96399 0.0
C1059 C 0.8348 0.70031 0.95249 0.0
C1060 C 0.80123 0.70272 0.95 0.0
C1061 C 0.7757 0.69841 0.95917 0.0
C1062 C 0.78414 0.69314 0.97059 0.0
H1063 H 0.82554 0.60216 0.9878 0.0
H1064 H 0.80497 0.61786 0.9764 0.0
H1065 H 0.85685 0.63687 0.97708 0.0
H1066 H 0.87033 0.69539 0.96578 0.0
H1067 H 0.85511 0.70369 0.94564 0.0
H1068 H 0.03418 0.76081 0.2954 0.0
H1069 H 0.06761 0.78145 0.31405 0.0
H1070 H 0.17408 0.8637 0.29658 0.0
H1071 H 0.14068 0.84349 0.27769 0.0
H1072 H 0.13677 0.78381 0.32284 0.0
H1073 H 0.14995 0.93078 0.31931 0.0
H1074 H 0.11814 0.89049 0.30996 0.0
H1075 H 0.16994 0.91641 0.30749 0.0
C1076 C 0.06478 0.78319 0.29544 0.0
C1077 C 0.08463 0.80086 0.28502 0.0
C1078 C 0.08387 0.79475 0.30614 0.0
C1079 C 0.1231 0.8243 0.30668 0.0
C1080 C 0.14358 0.8411 0.29631 0.0
H1081 H 0.25128 0.95334 0.36787 0.0
H1082 H 0.23525 0.92527 0.34837 0.0
C1083 C 0.12449 0.82947 0.28554 0.0
C1084 C 0.14137 0.83886 0.3182 0.0
H1085 H 0.17254 0.91689 0.33653 0.0
C1086 C 0.14501 0.81303 0.32583 0.0
C1087 C 0.15177 0.87688 0.32205 0.0
C1088 C 0.14708 0.90528 0.31434 0.0
C1089 C 0.15867 0.82424 0.33728 0.0
C1090 C 0.16815 0.86194 0.34121 0.0
C1091 C 0.16528 0.88799 0.33348 0.0
C1092 C 0.18013 0.87509 0.35337 0.0
C1093 C 0.1629 0.79573 0.34504 0.0
C1094 C 0.15479 0.85567 0.36273 0.0
C1095 C 0.16399 0.87156 0.37398 0.0
C1096 C 0.19834 0.90744 0.37595 0.0
C1097 C 0.22433 0.92586 0.36662 0.0
C1098 C 0.21531 0.90983 0.35546 0.0
H1099 H 0.16563 0.77341 0.33986 0.0
H1100 H 0.18881 0.81109 0.35081 0.0
H1101 H 0.13653 0.78018 0.35061 0.0
H1102 H 0.12709 0.82921 0.36126 0.0
H1103 H 0.14336 0.85679 0.38097 0.0
H1104 H 0.27604 0.04098 0.62678 0.0
H1105 H 0.28671 0.07158 0.6459 0.0
H1106 H 0.30979 0.17986 0.62983 0.0
H1107 H 0.29886 0.14946 0.61054 0.0
H1108 H 0.3518 0.14226 0.65582 0.0
H1109 H 0.21381 0.1469 0.65166 0.0
H1110 H 0.22534 0.11753 0.6422 0.0
H1111 H 0.24873 0.16952 0.64009 0.0
C1112 C 0.28371 0.07143 0.62725 0.0
C1113 C 0.28605 0.09263 0.61711 0.0
C1114 C 0.29 0.08888 0.6382 0.0
C1115 C 0.29859 0.12774 0.63925 0.0
C1116 C 0.30276 0.14964 0.62916 0.0
H1117 H 0.29032 0.2543 0.69946 0.0
H1118 H 0.30278 0.23678 0.68023 0.0
C1119 C 0.29655 0.13223 0.61816 0.0
C1120 C 0.30013 0.14408 0.65094 0.0
H1121 H 0.24954 0.17148 0.66898 0.0
C1122 C 0.32966 0.14896 0.65872 0.0
C1123 C 0.27094 0.15234 0.65466 0.0
C1124 C 0.23767 0.14609 0.64678 0.0
C1125 C 0.33096 0.16233 0.67015 0.0
C1126 C 0.3015 0.17021 0.67389 0.0
C1127 C 0.27217 0.16553 0.66606 0.0
C1128 C 0.29988 0.1831 0.68589 0.0
C1129 C 0.36398 0.16832 0.67807 0.0
C1130 C 0.29494 0.15907 0.69554 0.0
C1131 C 0.28803 0.16916 0.70663 0.0
C1132 C 0.28528 0.20304 0.70816 0.0
C1133 C 0.29176 0.22771 0.69855 0.0
C1134 C 0.29903 0.21785 0.68755 0.0
H1135 H 0.38941 0.17145 0.67303 0.0
H1136 H 0.37376 0.19469 0.68361 0.0
H1137 H 0.35375 0.14253 0.68387 0.0
H1138 H 0.29473 0.13171 0.69441 0.0
H1139 H 0.28304 0.14957 0.71387 0.0
H1140 H 0.03925 0.66783 0.0638 0.0
H1141 H 0.04997 0.61191 0.06247 0.0
H1142 H 0.92541 0.53281 0.06269 0.0
H1143 H 0.91433 0.58819 0.06391 0.0
H1144 H 0.02419 0.55011 0.07867 0.0
H1145 H 0.96262 0.49534 0.03465 0.0
H1146 H 0.97599 0.54389 0.03964 0.0
H1147 H 0.93065 0.50237 0.0442 0.0
C1148 C 0.01415 0.63854 0.06346 0.0
C1149 C 0.97595 0.63243 0.0639 0.0
C1150 C 0.02033 0.6067 0.0627 0.0
C1151 C 0.98845 0.56838 0.06229 0.0
C1152 C 0.95035 0.56222 0.06273 0.0
H1153 H 0.95597 0.33477 0.06431 0.0
H1154 H 0.94776 0.39232 0.06354 0.0
C1155 C 0.94413 0.59394 0.06349 0.0
C1156 C -0.00513 0.5346 0.06206 0.0
H1157 H 0.97547 0.45327 0.0464 0.0
C1158 C 0.01388 0.52909 0.07158 0.0
C1159 C 0.98111 0.50722 0.05281 0.0
C1160 C 0.96175 0.51258 0.04219 0.0
C1161 C 0.01877 0.49633 0.07222 0.0
C1162 C 0.00481 0.46883 0.063 0.0
C1163 C 0.986 0.47443 0.05345 0.0
C1164 C 0.00975 0.43415 0.06311 0.0
C1165 C 0.03794 0.4909 0.08288 0.0
C1166 C 0.04727 0.43879 0.06291 0.0
C1167 C 0.05208 0.40615 0.06337 0.0
C1168 C 0.01936 0.36822 0.06395 0.0
C1169 C 0.98172 0.36361 0.06389 0.0
C1170 C 0.97697 0.39638 0.06344 0.0
H1171 H 0.03821 0.50912 0.09031 0.0
H1172 H 0.02272 0.45975 0.08566 0.0
H1173 H 0.06867 0.4997 0.08079 0.0
H1174 H 0.07288 0.46772 0.06245 0.0
H1175 H 0.08149 0.41073 0.06335 0.0
H1176 H 0.64892 0.0416 0.40924 0.0
H1177 H 0.58513 0.03649 0.40724 0.0
H1178 H 0.55832 0.95694 0.37827 0.0
H1179 H 0.6214 0.95988 0.3809 0.0
H1180 H 0.55663 0.05753 0.39063 0.0
H1181 H 0.46126 0.89706 0.39638 0.0
H1182 H 0.51314 0.92147 0.39895 0.0
H1183 H 0.49425 0.90996 0.38431 0.0
C1184 C 0.62907 0.02259 0.40257 0.0
C1185 C 0.63953 0.00082 0.39529 0.0
C1186 C 0.59278 0.01983 0.40138 0.0
C1187 C 0.56669 0.99602 0.39268 0.0
C1188 C 0.57743 0.97459 0.38526 0.0
H1189 H 0.36325 0.02811 0.38173 0.0
H1190 H 0.42631 0.03145 0.37865 0.0
C1191 C 0.61341 0.97639 0.38672 0.0
C1192 C 0.52874 0.99462 0.39143 0.0
H1193 H 0.43018 0.93309 0.39194 0.0
C1194 C 0.52892 0.0303 0.39094 0.0
C1195 C 0.49267 0.95907 0.3918 0.0
C1196 C 0.49019 0.91976 0.393 0.0
C1197 C 0.49419 0.03161 0.39147 0.0
C1198 C 0.45813 0.99605 0.39186 0.0
C1199 C 0.45789 0.96032 0.39168 0.0
C1200 C 0.42041 0.99487 0.3935 0.0
C1201 C 0.49685 0.07108 0.39228 0.0
C1202 C 0.39573 0.9724 0.40264 0.0
C1203 C 0.3594 0.96937 0.40411 0.0
C1204 C 0.34755 0.98959 0.39666 0.0
C1205 C 0.37236 0.01286 0.38768 0.0
C1206 C 0.40834 0.01489 0.38596 0.0
H1207 H 0.5263 0.09428 0.39516 0.0
H1208 H 0.49135 0.07947 0.38356 0.0
H1209 H 0.47492 0.07037 0.39847 0.0
H1210 H 0.40443 0.95684 0.40861 0.0
H1211 H 0.34053 0.95122 0.41108 0.0
H1212 H 0.31705 0.38459 0.72607 0.0
H1213 H 0.37366 0.45066 0.72365 0.0
H1214 H 0.45033 0.40236 0.72325 0.0
H1215 H 0.39459 0.33685 0.7256 0.0
H1216 H 0.43875 0.48673 0.73919 0.0
H1217 H 0.48495 0.4745 0.6945 0.0
H1218 H 0.43664 0.44144 0.70008 0.0
H1219 H 0.47706 0.43472 0.70386 0.0
C1220 C 0.34596 0.38811 0.72535 0.0
C1221 C 0.35134 0.35553 0.726 0.0
C1222 C 0.37817 0.42575 0.72396 0.0
C1223 C 0.41597 0.43114 0.72307 0.0
C1224 C 0.42129 0.39867 0.72365 0.0
H1225 H 0.65643 0.61275 0.72487 0.0
H1226 H 0.5937 0.55148 0.72336 0.0
C1227 C 0.38933 0.36125 0.72508 0.0
C1228 C 0.45053 0.47075 0.72236 0.0
H1229 H 0.5326 0.52692 0.70628 0.0
C1230 C 0.45901 0.49588 0.73192 0.0
C1231 C 0.47688 0.48228 0.71289 0.0
C1232 C 0.46831 0.45698 0.7022 0.0
C1233 C 0.49412 0.5317 0.73249 0.0
C1234 C 0.52097 0.54277 0.72315 0.0
C1235 C 0.512 0.51812 0.71345 0.0
C1236 C 0.55878 0.57971 0.72341 0.0
C1237 C 0.50289 0.55667 0.74328 0.0
C1238 C 0.55971 0.61563 0.72367 0.0
C1239 C 0.59525 0.65046 0.72458 0.0
C1240 C 0.63059 0.65001 0.72513 0.0
C1241 C 0.62969 0.614 0.72449 0.0
C1242 C 0.59397 0.57906 0.72361 0.0
H1243 H 0.48363 0.53992 0.75069 0.0
H1244 H 0.5338 0.56886 0.74601 0.0
H1245 H 0.49813 0.58154 0.74137 0.0
H1246 H 0.53287 0.6167 0.7233 0.0
H1247 H 0.59489 0.67771 0.72497 0.0
H1248 H 0.3187 0.9439 0.59734 0.0
H1249 H 0.37406 0.93234 0.59872 0.0
H1250 H 0.454 0.05693 0.59891 0.0
H1251 H 0.39932 0.06882 0.59762 0.0
H1252 H 0.43663 0.95897 0.58253 0.0
H1253 H 0.48974 0.01741 0.62689 0.0
H1254 H 0.44134 0.00408 0.62185 0.0
H1255 H 0.48269 0.05023 0.61771 0.0
C1256 C 0.34807 0.96879 0.59779 0.0
C1257 C 0.35465 0.00725 0.59742 0.0
C1258 C 0.37957 0.96214 0.59857 0.0
C1259 C 0.41794 0.99381 0.59911 0.0
C1260 C 0.42452 0.03214 0.59877 0.0
H1261 H 0.65379 0.03825 0.59594 0.0
H1262 H 0.59352 0.04135 0.59723 0.0
C1263 C 0.39319 0.03882 0.59796 0.0
C1264 C 0.45153 0.98722 0.59931 0.0
H1265 H 0.53371 0.00849 0.61469 0.0
C1266 C 0.45764 0.96928 0.58962 0.0
C1267 C 0.47881 0.00092 0.60857 0.0
C1268 C 0.47271 0.01892 0.6194 0.0
C1269 C 0.49124 0.966 0.58873 0.0
C1270 C 0.51897 0.98051 0.59787 0.0
C1271 C 0.51243 -0.00234 0.60768 0.0
C1272 C 0.55522 0.9785 0.59733 0.0
C1273 C 0.49748 0.9483 0.57784 0.0
C1274 C 0.55344 0.94215 0.59713 0.0
C1275 C 0.58764 0.94027 0.59636 0.0
C1276 C 0.62428 0.97476 0.59587 0.0
C1277 C 0.62601 0.0112 0.59627 0.0
C1278 C 0.59168 0.01302 0.59703 0.0
H1279 H 0.47818 0.94694 0.5706 0.0
H1280 H 0.52834 0.96534 0.57489 0.0
H1281 H 0.49082 0.918 0.57975 0.0
H1282 H 0.52555 0.91523 0.59755 0.0
H1283 H 0.58528 0.91171 0.59611 0.0
H1284 H 0.36914 0.32814 0.92822 0.0
H1285 H 0.43578 0.38402 0.92909 0.0
H1286 H 0.39044 0.46328 0.92874 0.0
H1287 H 0.32388 0.40786 0.92798 0.0
H1288 H 0.47124 0.44527 0.91263 0.0
H1289 H 0.46594 0.50115 0.95664 0.0
H1290 H 0.43058 0.4525 0.95179 0.0
H1291 H 0.42677 0.49396 0.94713 0.0
C1292 C 0.37335 0.35746 0.92842 0.0
C1293 C 0.34127 0.36361 0.9281 0.0
C1294 C 0.41138 0.38928 0.92891 0.0
C1295 C 0.41785 0.42762 0.92916 0.0
C1296 C 0.38593 0.43384 0.92881 0.0
H1297 H 0.62134 0.65969 0.92734 0.0
H1298 H 0.55508 0.603 0.92779 0.0
C1299 C 0.34795 0.40211 0.92832 0.0
C1300 C 0.45805 0.46127 0.92926 0.0
H1301 H 0.52101 0.54218 0.94488 0.0
C1302 C 0.48229 0.46634 0.91971 0.0
C1303 C 0.4721 0.48867 0.93849 0.0
C1304 C 0.44766 0.48373 0.94915 0.0
C1305 C 0.52016 0.49867 0.91903 0.0
C1306 C 0.53417 0.52614 0.92825 0.0
C1307 C 0.50999 0.52102 0.93782 0.0
C1308 C 0.57408 0.56024 0.92816 0.0
C1309 C 0.54455 0.50364 0.90836 0.0
C1310 C 0.60646 0.55475 0.92841 0.0
C1311 C 0.6442 0.58691 0.92814 0.0
C1312 C 0.65018 0.62515 0.9277 0.0
C1313 C 0.61764 0.63059 0.92765 0.0
C1314 C 0.57984 0.59831 0.92792 0.0
H1315 H 0.52637 0.48566 0.90093 0.0
H1316 H 0.56098 0.53479 0.9056 0.0
H1317 H 0.56603 0.49422 0.91042 0.0
H1318 H 0.6025 0.52555 0.9288 0.0
H1319 H 0.66865 0.58173 0.92822 0.0
H1320 H 0.062 0.6643 0.26688 0.0
H1321 H 0.05291 0.59885 0.26894 0.0
H1322 H 0.92829 0.55066 0.27167 0.0
H1323 H 0.937 0.61645 0.2695 0.0
H1324 H 0.01606 0.54261 0.28723 0.0
H1325 H 0.94313 0.49105 0.24411 0.0
H1326 H 0.96996 0.54222 0.24802 0.0
H1327 H 0.92203 0.51105 0.25389 0.0
C1328 C 0.03259 0.63989 0.26796 0.0
C1329 C 0.00014 0.6455 0.26796 0.0
C1330 C 0.02752 0.60253 0.26917 0.0
C1331 C 0.98998 0.57006 0.27035 0.0
C1332 C 0.95748 0.57546 0.27062 0.0
H1333 H 0.91818 0.32361 0.26877 0.0
H1334 H 0.91985 0.38582 0.27099 0.0
C1335 C 0.96251 0.61298 0.26942 0.0
C1336 C 0.98524 0.53058 0.2709 0.0
H1337 H 0.95249 0.44641 0.25526 0.0
C1338 C 0.00195 0.52138 0.28029 0.0
C1339 C 0.96693 0.50323 0.2618 0.0
C1340 C 0.94969 0.51228 0.25132 0.0
C1341 C 0.00092 0.48537 0.28081 0.0
C1342 C 0.98335 0.45837 0.27158 0.0
C1343 C 0.96599 0.46731 0.2623 0.0
C1344 C 0.98293 0.42076 0.27122 0.0
C1345 C 0.0184 0.47644 0.29124 0.0
C1346 C 0.01797 0.41989 0.27064 0.0
C1347 C 0.01719 0.38425 0.2694 0.0
C1348 C 0.98132 0.34909 0.26862 0.0
C1349 C 0.94634 0.35016 0.26935 0.0
C1350 C 0.94717 0.38567 0.27062 0.0
H1351 H 0.02099 0.49506 0.29884 0.0
H1352 H 0.00054 0.44521 0.29381 0.0
H1353 H 0.04815 0.48228 0.28899 0.0
H1354 H 0.04588 0.44681 0.27084 0.0
H1355 H 0.04459 0.38434 0.26881 0.0
H1356 H 0.96394 0.13042 0.06561 0.0
H1357 H 0.95062 0.06276 0.06554 0.0
H1358 H 0.06126 0.0996 0.08234 0.0
H1359 H 0.07487 0.16702 0.08255 0.0
H1360 H -0.00303 0.03281 0.05535 0.0
H1361 H 0.98026 0.01031 0.10327 0.0
H1362 H 0.97792 0.04974 0.09604 0.0
H1363 H 0.02438 0.05339 0.09879 0.0
C1364 C 0.9854 0.12415 0.06933 0.0
C1365 C 0.02036 0.15419 0.07416 0.0
C1366 C 0.97775 0.08551 0.06925 0.0
C1367 C 0.00476 0.07627 0.07407 0.0
C1368 C 0.03979 0.10613 0.07876 0.0
H1369 H 0.02359 0.86768 0.06589 0.0
H1370 H 0.03395 0.93423 0.06543 0.0
C1371 C 0.04752 0.1447 0.07883 0.0
C1372 C -0.0033 0.03546 0.0741 0.0
H1373 H 0.98413 0.96146 0.09221 0.0
C1374 C 0.99396 0.01706 0.06339 0.0
C1375 C 0.99249 0.01505 0.08462 0.0
C1376 C 0.99355 0.03292 0.09634 0.0
C1377 C 0.98785 0.97885 0.06293 0.0
C1378 C 0.98487 0.95892 0.07346 0.0
C1379 C 0.98686 0.97707 0.08416 0.0
C1380 C 0.97872 0.91876 0.0736 0.0
C1381 C 0.98415 0.95994 0.05121 0.0
C1382 C 0.94463 0.88833 0.07856 0.0
C1383 C 0.93868 0.85041 0.07891 0.0
C1384 C 0.96688 0.84219 0.07435 0.0
C1385 C 0.00123 0.87291 0.06945 0.0
C1386 C 0.00711 0.91091 0.06911 0.0
H1387 H 0.97806 0.97543 0.04414 0.0
H1388 H 0.01195 0.96076 0.04911 0.0
H1389 H 0.96047 0.92882 0.05132 0.0
H1390 H 0.92248 0.89392 0.08212 0.0
H1391 H 0.91187 0.82756 0.08275 0.0
H1392 H 0.88529 0.0391 0.41779 0.0
H1393 H 0.94308 0.03281 0.4153 0.0
H1394 H 0.89173 0.96129 0.38474 0.0
H1395 H 0.83284 0.96621 0.38745 0.0
H1396 H 0.92623 0.93235 0.39775 0.0
H1397 H 0.0286 0.09043 0.3921 0.0
H1398 H 0.00249 0.08162 0.40556 0.0
H1399 H 0.97628 0.06991 0.39192 0.0
C1400 C 0.88623 0.02196 0.41054 0.0
C1401 C 0.85473 0.00346 0.40274 0.0
C1402 C 0.91944 0.01872 0.40907 0.0
C1403 C 0.92224 -0.00227 0.39961 0.0
C1404 C 0.89034 0.9781 0.39201 0.0
H1405 H 0.15169 0.01904 0.38807 0.0
H1406 H 0.09251 0.02322 0.38509 0.0
C1407 C 0.8567 0.98082 0.39359 0.0
C1408 C 0.95814 0.99544 0.39797 0.0
H1409 H 0.05752 0.05158 0.39793 0.0
C1410 C 0.95493 0.95842 0.3976 0.0
C1411 C -0.00446 0.02945 0.39743 0.0
C1412 C 0.00089 0.07004 0.39663 0.0
C1413 C 0.98824 0.95449 0.39743 0.0
C1414 C 0.02562 0.98849 0.39808 0.0
C1415 C 0.02884 0.02551 0.3977 0.0
C1416 C 0.06152 0.98624 0.39981 0.0
C1417 C 0.98291 0.91391 0.39663 0.0
C1418 C 0.06409 0.9651 0.40926 0.0
C1419 C 0.09749 0.96228 0.41088 0.0
C1420 C 0.12939 0.98135 0.40325 0.0
C1421 C 0.12753 0.004 0.39408 0.0
C1422 C 0.09374 0.00629 0.39235 0.0
H1423 H 0.95538 0.89359 0.392 0.0
H1424 H 0.00769 0.9141 0.39201 0.0
H1425 H 0.98096 0.9022 0.40555 0.0
H1426 H 0.0402 0.95068 0.41539 0.0
H1427 H 0.0983 0.94511 0.41814 0.0
H1428 H 0.1555 0.10487 0.75125 0.0
H1429 H 0.09334 0.0443 0.74927 0.0
H1430 H 0.06342 0.09259 0.71993 0.0
H1431 H 0.12543 0.15418 0.72208 0.0
H1432 H 0.00283 0.05464 0.7341 0.0
H1433 H 0.0658 0.95979 0.72554 0.0
H1434 H 0.08428 0.98621 0.73892 0.0
H1435 H 0.09494 0.01252 0.72533 0.0
C1436 C 0.13574 0.10272 0.74436 0.0
C1437 C 0.14556 0.13425 0.73674 0.0
C1438 C 0.10035 0.06787 0.74318 0.0
C1439 C 0.07431 0.06344 0.73422 0.0
C1440 C 0.08339 0.09523 0.72681 0.0
H1441 H 0.86781 0.83227 0.72128 0.0
H1442 H 0.93198 0.89158 0.71915 0.0
C1443 C 0.11873 0.13043 0.72807 0.0
C1444 C 0.037 0.02603 0.73297 0.0
H1445 H -0.00138 0.92691 0.73202 0.0
C1446 C 0.00192 0.02676 0.73348 0.0
C1447 C 0.03575 0.98965 0.73187 0.0
C1448 C 0.07225 0.987 0.73025 0.0
C1449 C 0.9657 0.99202 0.73357 0.0
C1450 C 0.96463 0.9556 0.73351 0.0
C1451 C -0.00045 0.95485 0.73232 0.0
C1452 C 0.92762 0.91821 0.73517 0.0
C1453 C 0.92896 0.99477 0.73377 0.0
C1454 C 0.90492 0.9128 0.74513 0.0
C1455 C 0.86838 0.87935 0.74631 0.0
C1456 C 0.85411 0.85023 0.73765 0.0
C1457 C 0.87805 0.85427 0.72807 0.0
C1458 C 0.91458 0.88817 0.72682 0.0
H1459 H 0.93403 0.02276 0.72991 0.0
H1460 H 0.90483 0.97013 0.72894 0.0
H1461 H 0.91958 0.99381 0.74294 0.0
H1462 H 0.91506 0.93498 0.75188 0.0
H1463 H 0.85084 0.87675 0.75388 0.0
H1464 H 0.84183 0.95559 0.57136 0.0
H1465 H 0.90803 0.96658 0.57308 0.0
H1466 H 0.92585 0.03499 0.60422 0.0
H1467 H 0.85977 0.02536 0.60226 0.0
H1468 H 0.98971 0.06712 0.59099 0.0
H1469 H 0.93866 0.90946 0.59571 0.0
H1470 H 0.92097 0.91879 0.58241 0.0
H1471 H 0.90566 0.92853 0.59621 0.0
C1472 C 0.85991 0.97317 0.57854 0.0
C1473 C 0.84553 0.98922 0.58677 0.0
C1474 C 0.89762 0.97915 0.57957 0.0
C1475 C 0.92136 0.00043 0.589 0.0
C1476 C 0.90777 0.01801 0.59695 0.0
H1477 H 0.13009 0.98314 0.60268 0.0
H1478 H 0.06623 0.97848 0.60452 0.0
C1479 C 0.87012 0.0126 0.59581 0.0
C1480 C 0.9603 0.00413 0.59047 0.0
H1481 H 0.00635 0.95055 0.59067 0.0
C1482 C 0.99337 0.04165 0.59106 0.0
C1483 C 0.96501 0.97086 0.5909 0.0
C1484 C 0.93062 0.92968 0.59141 0.0
C1485 C 0.03114 0.04683 0.5915 0.0
C1486 C 0.03592 0.01359 0.59092 0.0
C1487 C 0.00277 0.97606 0.59089 0.0
C1488 C 0.07491 0.01701 0.58997 0.0
C1489 C 0.06542 0.08785 0.59266 0.0
C1490 C 0.10065 0.03949 0.58104 0.0
C1491 C 0.13728 0.04263 0.58007 0.0
C1492 C 0.14855 0.02254 0.58785 0.0
C1493 C 0.12224 -0.00106 0.59655 0.0
C1494 C 0.08581 0.99636 0.59763 0.0
H1495 H 0.05676 0.10742 0.59709 0.0
H1496 H 0.08972 0.08829 0.59764 0.0
H1497 H 0.07624 0.10004 0.58385 0.0
H1498 H 0.09236 0.05449 0.57475 0.0
H1499 H 0.15669 0.06064 0.57317 0.0
H1500 H 0.84477 0.85562 0.93368 0.0
H1501 H 0.89968 0.92281 0.93424 0.0
H1502 H 0.95025 0.89921 0.90415 0.0
H1503 H 0.89655 0.83163 0.90391 0.0
H1504 H 0.00411 0.93724 0.91965 0.0
H1505 H 0.91901 0.0129 0.91414 0.0
H1506 H 0.90394 0.98172 0.9267 0.0
H1507 H 0.8974 0.96073 0.91236 0.0
C1508 C 0.86752 0.86488 0.92716 0.0
C1509 C 0.8664 0.83845 0.91875 0.0
C1510 C 0.89875 0.90335 0.92744 0.0
C1511 C 0.92873 0.9163 0.91911 0.0
C1512 C 0.92744 0.88991 0.91066 0.0
H1513 H 0.09482 0.15799 0.90368 0.0
H1514 H 0.04088 0.0905 0.90393 0.0
C1515 C 0.89672 0.85131 0.91053 0.0
C1516 C 0.96217 0.95694 0.91932 0.0
H1517 H 0.98602 0.05283 0.91919 0.0
C1518 C 0.00016 0.96254 0.91949 0.0
C1519 C 0.957 0.98991 0.91896 0.0
C1520 C 0.91715 0.98607 0.91791 0.0
C1521 C 0.03314 0.00014 0.91926 0.0
C1522 C 0.02797 0.03313 0.91936 0.0
C1523 C 0.98997 0.02753 0.91923 0.0
C1524 C 0.06143 0.07375 0.91918 0.0
C1525 C 0.07304 0.00394 0.91852 0.0
C1526 C 0.09092 0.08686 0.92768 0.0
C1527 C 0.12228 0.12525 0.9274 0.0
C1528 C 0.12402 0.15146 0.91881 0.0
C1529 C 0.09416 0.13847 0.91043 0.0
C1530 C 0.0633 0.09993 0.91057 0.0
H1531 H 0.07139 0.97702 0.91491 0.0
H1532 H 0.09313 0.02915 0.91298 0.0
H1533 H 0.08573 0.00852 0.9274 0.0
H1534 H 0.08952 0.06757 0.93461 0.0
H1535 H 0.14466 0.13463 0.93404 0.0
H1536 H 0.04685 0.89161 0.24094 0.0
H1537 H 0.0437 0.95152 0.24258 0.0
H1538 H 0.96877 0.90469 0.27266 0.0
H1539 H 0.97064 0.84378 0.27084 0.0
H1540 H 0.94365 0.94056 0.25862 0.0
H1541 H 0.10198 0.03811 0.26557 0.0
H1542 H 0.09289 0.01085 0.25231 0.0
H1543 H 0.07927 0.98548 0.26608 0.0
C1544 C 0.0296 0.89396 0.24791 0.0
C1545 C 0.00927 0.86308 0.25583 0.0
C1546 C 0.02817 0.92841 0.2489 0.0
C1547 C 0.00708 0.93308 0.25797 0.0
C1548 C 0.98567 0.90186 0.26568 0.0
H1549 H 0.03098 0.16349 0.27108 0.0
H1550 H 0.036 0.10422 0.27293 0.0
C1551 C 0.98664 0.86705 0.2646 0.0
C1552 C 0.00654 0.9702 0.25912 0.0
H1553 H 0.06587 0.06952 0.25959 0.0
C1554 C 0.97036 0.96873 0.25899 0.0
C1555 C 0.04137 0.00694 0.25988 0.0
C1556 C 0.08101 0.01044 0.26111 0.0
C1557 C 0.9681 0.00306 0.25901 0.0
C1558 C 0.00303 0.03982 0.25877 0.0
C1559 C 0.03916 0.04132 0.25952 0.0
C1560 C 0.00251 0.07683 0.25733 0.0
C1561 C 0.92827 -0.00048 0.2593 0.0
C1562 C 0.98354 0.08172 0.24769 0.0
C1563 C 0.9803 0.11516 0.24669 0.0
C1564 C -0.00328 0.14479 0.25518 0.0
C1565 C 0.01797 0.14109 0.26443 0.0
C1566 C 0.02073 0.10722 0.26551 0.0
H1567 H 0.90623 0.9715 0.26337 0.0
H1568 H 0.92884 0.02408 0.26419 0.0
H1569 H 0.91858 -0.00011 0.25024 0.0
H1570 H 0.97052 0.05928 0.24105 0.0
H1571 H 0.96429 0.11747 0.23935 0.0
loop_
_geom_bond_atom_site_label_1
_geom_bond_atom_site_label_2
_geom_bond_distance
_geom_bond_site_symmetry_2
_ccdc_geom_bond_type
Co0 O2 2.143 . S
Co0 O8 2.074 . S
Co0 O11 2.093 . S
Co0 O24 2.097 . S
Co0 N41 2.151 . S
Co0 N49 2.214 . S
Co1 O2 2.160 1_655 S
Co1 O7 2.058 1_655 S
Co1 O17 2.057 . S
Co1 O32 2.037 . S
Co1 N36 2.145 . S
Co1 N57 2.257 . S
O2 Co0 2.143 . S
O2 Co1 2.160 1_455 S
C3 O4 1.278 . S
C3 O11 1.224 . S
O4 C3 1.278 . S
C5 O6 1.245 . S
C5 O17 1.232 1_455 S
O6 C5 1.245 . S
O7 Co1 2.058 1_455 S
O7 C33 1.269 . S
O8 Co0 2.074 . S
O8 C33 1.257 . S
H9 C34 0.930 . S
H10 C40 0.930 . S
O11 Co0 2.093 . S
O11 C3 1.224 . S
H12 C44 0.929 . S
H13 C46 0.930 . S
H14 C47 0.930 . S
H15 C45 0.929 . S
H16 C48 0.928 . S
O17 Co1 2.057 . S
O17 C5 1.232 1_655 S
H18 C37 0.929 . S
H19 C38 0.929 . S
H20 C50 0.931 . S
H21 C42 0.929 . S
H22 C51 0.930 . S
H23 C43 0.931 . S
O24 Co0 2.097 . S
O24 C52 1.214 . S
H25 C53 0.929 . S
H26 C54 0.929 . S
H27 C55 0.930 . S
H28 C56 0.929 . S
H29 C58 0.930 . S
H30 C35 0.930 . S
H31 C39 0.930 . S
O32 Co1 2.037 . S
O32 C52 1.234 1_655 S
C33 O7 1.269 . S
C33 O8 1.257 . S
C34 H9 0.930 . S
C34 C37 1.388 . S
C34 C39 1.418 . S
C35 H30 0.930 . S
C35 C38 1.404 . S
C35 C39 1.353 . S
N36 Co1 2.145 . S
N36 C37 1.397 . S
N36 C38 1.334 . S
C37 H18 0.929 . S
C37 C34 1.388 . S
C37 N36 1.397 . S
C38 H19 0.929 . S
C38 C35 1.404 . S
C38 N36 1.334 . S
C39 H31 0.930 . S
C39 C34 1.418 . S
C39 C35 1.353 . S
C40 H10 0.930 . S
C40 N41 1.330 . S
C40 C42 1.446 . S
N41 Co0 2.151 . S
N41 C40 1.330 . S
N41 C45 1.418 . S
C42 H21 0.929 . S
C42 C40 1.446 . S
C42 C43 1.332 . S
C43 H23 0.931 . S
C43 C42 1.332 . S
C43 C44 1.267 . S
C44 H12 0.929 . S
C44 C43 1.267 . S
C44 C45 1.251 . S
C45 H15 0.929 . S
C45 N41 1.418 . S
C45 C44 1.251 . S
C46 H13 0.930 . S
C46 C48 1.406 . S
C46 C51 1.261 . S
C47 H14 0.930 . S
C47 N49 1.325 . S
C47 C50 1.357 . S
C48 H16 0.928 . S
C48 C46 1.406 . S
C48 N49 1.261 . S
N49 Co0 2.214 . S
N49 C47 1.325 . S
N49 C48 1.261 . S
C50 H20 0.931 . S
C50 C47 1.357 . S
C50 C51 1.312 . S
C51 H22 0.930 . S
C51 C46 1.261 . S
C51 C50 1.312 . S
C52 O24 1.214 . S
C52 O32 1.234 1_455 S
C53 H25 0.929 . S
C53 C56 1.391 . S
C53 C58 1.391 . S
C54 H26 0.929 . S
C54 C55 1.390 . S
C54 N57 1.391 . S
C55 H27 0.930 . S
C55 C54 1.390 . S
C55 C56 1.392 . S
C56 H28 0.929 . S
C56 C53 1.391 . S
C56 C55 1.392 . S
N57 Co1 2.257 . S
N57 C54 1.391 . S
N57 C58 1.388 . S
C58 H29 0.930 . S
C58 C53 1.391 . S
C58 N57 1.388 . S
Co59 O61 2.143 . S
Co59 O67 2.074 . S
Co59 O70 2.093 . S
Co59 O83 2.097 . S
Co59 N100 2.151 . S
Co59 N108 2.214 . S
Co60 O61 2.160 1_565 S
Co60 O66 2.058 1_565 S
Co60 O76 2.057 . S
Co60 O91 2.037 . S
Co60 N95 2.145 . S
Co60 N116 2.257 . S
O61 Co59 2.143 . S
O61 Co60 2.160 1_545 S
C62 O63 1.278 1_545 S
C62 O70 1.224 . S
O63 C62 1.278 1_565 S
C64 O65 1.245 1_565 S
C64 O76 1.232 . S
O65 C64 1.245 1_545 S
O66 Co60 2.058 1_545 S
O66 C92 1.269 . S
O67 Co59 2.074 . S
O67 C92 1.257 . S
H68 C93 0.930 . S
H69 C99 0.930 . S
O70 Co59 2.093 . S
O70 C62 1.224 . S
H71 C103 0.929 . S
H72 C105 0.930 . S
H73 C106 0.930 . S
H74 C104 0.929 . S
H75 C107 0.928 . S
O76 Co60 2.057 . S
O76 C64 1.232 . S
H77 C96 0.929 . S
H78 C97 0.929 . S
H79 C109 0.931 . S
H80 C101 0.929 . S
H81 C110 0.930 . S
H82 C102 0.931 . S
O83 Co59 2.097 . S
O83 C111 1.214 1_545 S
H84 C112 0.929 . S
H85 C113 0.929 . S
H86 C114 0.930 . S
H87 C115 0.929 . S
H88 C117 0.930 . S
H89 C94 0.930 . S
H90 C98 0.930 . S
O91 Co60 2.037 . S
O91 C111 1.234 . S
C92 O66 1.269 . S
C92 O67 1.257 . S
C93 H68 0.930 . S
C93 C96 1.388 . S
C93 C98 1.418 . S
C94 H89 0.930 . S
C94 C97 1.404 . S
C94 C98 1.353 . S
N95 Co60 2.145 . S
N95 C96 1.397 . S
N95 C97 1.334 . S
C96 H77 0.929 . S
C96 C93 1.388 . S
C96 N95 1.397 . S
C97 H78 0.929 . S
C97 C94 1.404 . S
C97 N95 1.334 . S
C98 H90 0.930 . S
C98 C93 1.418 . S
C98 C94 1.353 . S
C99 H69 0.930 . S
C99 N100 1.330 . S
C99 C101 1.446 . S
N100 Co59 2.151 . S
N100 C99 1.330 . S
N100 C104 1.418 . S
C101 H80 0.929 . S
C101 C99 1.446 . S
C101 C102 1.332 . S
C102 H82 0.931 . S
C102 C101 1.332 . S
C102 C103 1.267 . S
C103 H71 0.929 . S
C103 C102 1.267 . S
C103 C104 1.251 . S
C104 H74 0.929 . S
C104 N100 1.418 . S
C104 C103 1.251 . S
C105 H72 0.930 . S
C105 C107 1.406 . S
C105 C110 1.261 . S
C106 H73 0.930 . S
C106 N108 1.325 . S
C106 C109 1.357 . S
C107 H75 0.928 . S
C107 C105 1.406 . S
C107 N108 1.261 . S
N108 Co59 2.214 . S
N108 C106 1.325 . S
N108 C107 1.261 . S
C109 H79 0.931 . S
C109 C106 1.357 . S
C109 C110 1.312 . S
C110 H81 0.930 . S
C110 C105 1.261 . S
C110 C109 1.312 . S
C111 O83 1.214 1_565 S
C111 O91 1.234 . S
C112 H84 0.929 . S
C112 C115 1.391 . S
C112 C117 1.391 . S
C113 H85 0.929 . S
C113 C114 1.390 . S
C113 N116 1.391 . S
C114 H86 0.930 . S
C114 C113 1.390 . S
C114 C115 1.392 . S
C115 H87 0.929 . S
C115 C112 1.391 . S
C115 C114 1.392 . S
N116 Co60 2.257 . S
N116 C113 1.391 . S
N116 C117 1.388 . S
C117 H88 0.930 . S
C117 C112 1.391 . S
C117 N116 1.388 . S
Co118 O120 2.143 . S
Co118 O126 2.074 . S
Co118 O129 2.093 . S
Co118 O142 2.097 . S
Co118 N159 2.151 . S
Co118 N167 2.214 . S
Co119 O120 2.160 . S
Co119 O125 2.058 . S
Co119 O135 2.057 . S
Co119 O150 2.037 . S
Co119 N154 2.145 . S
Co119 N175 2.257 . S
O120 Co118 2.143 . S
O120 Co119 2.160 . S
C121 O122 1.278 . S
C121 O129 1.224 . S
O122 C121 1.278 . S
C123 O124 1.245 . S
C123 O135 1.232 . S
O124 C123 1.245 . S
O125 Co119 2.058 . S
O125 C151 1.269 . S
O126 Co118 2.074 . S
O126 C151 1.257 . S
H127 C152 0.930 . S
H128 C158 0.930 . S
O129 Co118 2.093 . S
O129 C121 1.224 . S
H130 C162 0.929 . S
H131 C164 0.930 . S
H132 C165 0.930 . S
H133 C163 0.929 . S
H134 C166 0.928 . S
O135 Co119 2.057 . S
O135 C123 1.232 . S
H136 C155 0.929 . S
H137 C156 0.929 . S
H138 C168 0.931 . S
H139 C160 0.929 . S
H140 C169 0.930 . S
H141 C161 0.931 . S
O142 Co118 2.097 . S
O142 C170 1.214 . S
H143 C171 0.929 . S
H144 C172 0.929 . S
H145 C173 0.930 . S
H146 C174 0.929 . S
H147 C176 0.930 . S
H148 C153 0.930 . S
H149 C157 0.930 . S
O150 Co119 2.037 . S
O150 C170 1.234 . S
C151 O125 1.269 . S
C151 O126 1.257 . S
C152 H127 0.930 . S
C152 C155 1.388 . S
C152 C157 1.418 . S
C153 H148 0.930 . S
C153 C156 1.404 . S
C153 C157 1.353 . S
N154 Co119 2.145 . S
N154 C155 1.397 . S
N154 C156 1.334 . S
C155 H136 0.929 . S
C155 C152 1.388 . S
C155 N154 1.397 . S
C156 H137 0.929 . S
C156 C153 1.404 . S
C156 N154 1.334 . S
C157 H149 0.930 . S
C157 C152 1.418 . S
C157 C153 1.353 . S
C158 H128 0.930 . S
C158 N159 1.330 . S
C158 C160 1.446 . S
N159 Co118 2.151 . S
N159 C158 1.330 . S
N159 C163 1.418 . S
C160 H139 0.929 . S
C160 C158 1.446 . S
C160 C161 1.332 . S
C161 H141 0.931 . S
C161 C160 1.332 . S
C161 C162 1.267 . S
C162 H130 0.929 . S
C162 C161 1.267 . S
C162 C163 1.251 . S
C163 H133 0.929 . S
C163 N159 1.418 . S
C163 C162 1.251 . S
C164 H131 0.930 . S
C164 C166 1.406 . S
C164 C169 1.261 . S
C165 H132 0.930 . S
C165 N167 1.325 . S
C165 C168 1.357 . S
C166 H134 0.928 . S
C166 C164 1.406 . S
C166 N167 1.261 . S
N167 Co118 2.214 . S
N167 C165 1.325 . S
N167 C166 1.261 . S
C168 H138 0.931 . S
C168 C165 1.357 . S
C168 C169 1.312 . S
C169 H140 0.930 . S
C169 C164 1.261 . S
C169 C168 1.312 . S
C170 O142 1.214 . S
C170 O150 1.234 . S
C171 H143 0.929 . S
C171 C174 1.391 . S
C171 C176 1.391 . S
C172 H144 0.929 . S
C172 C173 1.390 . S
C172 N175 1.391 . S
C173 H145 0.930 . S
C173 C172 1.390 . S
C173 C174 1.392 . S
C174 H146 0.929 . S
C174 C171 1.391 . S
C174 C173 1.392 . S
N175 Co119 2.257 . S
N175 C172 1.391 . S
N175 C176 1.388 . S
C176 H147 0.930 . S
C176 C171 1.391 . S
C176 N175 1.388 . S
Co177 O179 2.143 . S
Co177 O185 2.074 . S
Co177 O188 2.093 . S
Co177 O201 2.097 . S
Co177 N218 2.151 . S
Co177 N226 2.214 . S
Co178 O179 2.160 1_455 S
Co178 O184 2.058 1_455 S
Co178 O194 2.057 . S
Co178 O209 2.037 . S
Co178 N213 2.145 . S
Co178 N234 2.257 . S
O179 Co177 2.143 . S
O179 Co178 2.160 1_655 S
C180 O181 1.278 . S
C180 O188 1.224 . S
O181 C180 1.278 . S
C182 O183 1.271 . S
C182 O194 1.229 1_655 S
O183 C182 1.271 . S
O184 Co178 2.058 1_655 S
O184 C210 1.269 . S
O185 Co177 2.074 . S
O185 C210 1.257 . S
H186 C211 0.930 . S
H187 C217 0.930 . S
O188 Co177 2.093 . S
O188 C180 1.224 . S
H189 C221 0.929 . S
H190 C223 0.930 . S
H191 C224 0.930 . S
H192 C222 0.929 . S
H193 C225 0.928 . S
O194 Co178 2.057 . S
O194 C182 1.229 1_455 S
H195 C214 0.929 . S
H196 C215 0.929 . S
H197 C227 0.931 . S
H198 C219 0.929 . S
H199 C228 0.930 . S
H200 C220 0.931 . S
O201 Co177 2.097 . S
O201 C229 1.214 . S
H202 C230 0.929 . S
H203 C231 0.929 . S
H204 C232 0.930 . S
H205 C233 0.929 . S
H206 C235 0.930 . S
H207 C212 0.930 . S
H208 C216 0.930 . S
O209 Co178 2.037 . S
O209 C229 1.234 1_455 S
C210 O184 1.269 . S
C210 O185 1.257 . S
C211 H186 0.930 . S
C211 C214 1.388 . S
C211 C216 1.418 . S
C212 H207 0.930 . S
C212 C215 1.404 . S
C212 C216 1.353 . S
N213 Co178 2.145 . S
N213 C214 1.397 . S
N213 C215 1.334 . S
C214 H195 0.929 . S
C214 C211 1.388 . S
C214 N213 1.397 . S
C215 H196 0.929 . S
C215 C212 1.404 . S
C215 N213 1.334 . S
C216 H208 0.930 . S
C216 C211 1.418 . S
C216 C212 1.353 . S
C217 H187 0.930 . S
C217 N218 1.330 . S
C217 C219 1.446 . S
N218 Co177 2.151 . S
N218 C217 1.330 . S
N218 C222 1.418 . S
C219 H198 0.929 . S
C219 C217 1.446 . S
C219 C220 1.332 . S
C220 H200 0.931 . S
C220 C219 1.332 . S
C220 C221 1.267 . S
C221 H189 0.929 . S
C221 C220 1.267 . S
C221 C222 1.251 . S
C222 H192 0.929 . S
C222 N218 1.418 . S
C222 C221 1.251 . S
C223 H190 0.930 . S
C223 C225 1.406 . S
C223 C228 1.261 . S
C224 H191 0.930 . S
C224 N226 1.325 . S
C224 C227 1.357 . S
C225 H193 0.928 . S
C225 C223 1.406 . S
C225 N226 1.261 . S
N226 Co177 2.214 . S
N226 C224 1.325 . S
N226 C225 1.261 . S
C227 H197 0.931 . S
C227 C224 1.357 . S
C227 C228 1.312 . S
C228 H199 0.930 . S
C228 C223 1.261 . S
C228 C227 1.312 . S
C229 O201 1.214 . S
C229 O209 1.234 1_655 S
C230 H202 0.929 . S
C230 C233 1.391 . S
C230 C235 1.391 . S
C231 H203 0.929 . S
C231 C232 1.390 . S
C231 N234 1.391 . S
C232 H204 0.930 . S
C232 C231 1.390 . S
C232 C233 1.392 . S
C233 H205 0.929 . S
C233 C230 1.391 . S
C233 C232 1.392 . S
N234 Co178 2.257 . S
N234 C231 1.391 . S
N234 C235 1.388 . S
C235 H206 0.930 . S
C235 C230 1.391 . S
C235 N234 1.388 . S
Co236 O238 2.143 . S
Co236 O244 2.074 . S
Co236 O247 2.093 . S
Co236 O260 2.097 . S
Co236 N277 2.151 . S
Co236 N285 2.214 . S
Co237 O238 2.160 1_545 S
Co237 O243 2.058 1_545 S
Co237 O253 2.057 . S
Co237 O268 2.037 . S
Co237 N272 2.145 . S
Co237 N293 2.257 . S
O238 Co236 2.143 . S
O238 Co237 2.160 1_565 S
C239 O240 1.278 1_565 S
C239 O247 1.224 . S
O240 C239 1.278 1_545 S
C241 O242 1.245 1_545 S
C241 O253 1.232 . S
O242 C241 1.245 1_565 S
O243 Co237 2.058 1_565 S
O243 C269 1.269 . S
O244 Co236 2.074 . S
O244 C269 1.257 . S
H245 C270 0.930 . S
H246 C276 0.930 . S
O247 Co236 2.093 . S
O247 C239 1.224 . S
H248 C280 0.929 . S
H249 C282 0.930 . S
H250 C283 0.930 . S
H251 C281 0.929 . S
H252 C284 0.928 . S
O253 Co237 2.057 . S
O253 C241 1.232 . S
H254 C273 0.929 . S
H255 C274 0.929 . S
H256 C286 0.931 . S
H257 C278 0.929 . S
H258 C287 0.930 . S
H259 C279 0.931 . S
O260 Co236 2.097 . S
O260 C288 1.214 1_565 S
H261 C289 0.929 . S
H262 C290 0.929 . S
H263 C291 0.930 . S
H264 C292 0.929 . S
H265 C294 0.930 . S
H266 C271 0.930 . S
H267 C275 0.930 . S
O268 Co237 2.037 . S
O268 C288 1.234 . S
C269 O243 1.269 . S
C269 O244 1.257 . S
C270 H245 0.930 . S
C270 C273 1.388 . S
C270 C275 1.418 . S
C271 H266 0.930 . S
C271 C274 1.404 . S
C271 C275 1.353 . S
N272 Co237 2.145 . S
N272 C273 1.397 . S
N272 C274 1.334 . S
C273 H254 0.929 . S
C273 C270 1.388 . S
C273 N272 1.397 . S
C274 H255 0.929 . S
C274 C271 1.404 . S
C274 N272 1.334 . S
C275 H267 0.930 . S
C275 C270 1.418 . S
C275 C271 1.353 . S
C276 H246 0.930 . S
C276 N277 1.330 . S
C276 C278 1.446 . S
N277 Co236 2.151 . S
N277 C276 1.330 . S
N277 C281 1.418 . S
C278 H257 0.929 . S
C278 C276 1.446 . S
C278 C279 1.332 . S
C279 H259 0.931 . S
C279 C278 1.332 . S
C279 C280 1.267 . S
C280 H248 0.929 . S
C280 C279 1.267 . S
C280 C281 1.251 . S
C281 H251 0.929 . S
C281 N277 1.418 . S
C281 C280 1.251 . S
C282 H249 0.930 . S
C282 C284 1.406 . S
C282 C287 1.261 . S
C283 H250 0.930 . S
C283 N285 1.325 . S
C283 C286 1.357 . S
C284 H252 0.928 . S
C284 C282 1.406 . S
C284 N285 1.261 . S
N285 Co236 2.214 . S
N285 C283 1.325 . S
N285 C284 1.261 . S
C286 H256 0.931 . S
C286 C283 1.357 . S
C286 C287 1.312 . S
C287 H258 0.930 . S
C287 C282 1.261 . S
C287 C286 1.312 . S
C288 O260 1.214 1_545 S
C288 O268 1.234 . S
C289 H261 0.929 . S
C289 C292 1.391 . S
C289 C294 1.391 . S
C290 H262 0.929 . S
C290 C291 1.390 . S
C290 N293 1.391 . S
C291 H263 0.930 . S
C291 C290 1.390 . S
C291 C292 1.392 . S
C292 H264 0.929 . S
C292 C289 1.391 . S
C292 C291 1.392 . S
N293 Co237 2.257 . S
N293 C290 1.391 . S
N293 C294 1.388 . S
C294 H265 0.930 . S
C294 C289 1.391 . S
C294 N293 1.388 . S
Co295 O297 2.143 . S
Co295 O303 2.074 . S
Co295 O306 2.093 . S
Co295 O319 2.097 . S
Co295 N336 2.151 . S
Co295 N344 2.214 . S
Co296 O297 2.160 . S
Co296 O302 2.058 . S
Co296 O312 2.057 . S
Co296 O327 2.037 . S
Co296 N331 2.145 . S
Co296 N352 2.257 . S
O297 Co295 2.143 . S
O297 Co296 2.160 . S
C298 O299 1.278 . S
C298 O306 1.224 . S
O299 C298 1.278 . S
C300 O301 1.245 . S
C300 O312 1.232 . S
O301 C300 1.245 . S
O302 Co296 2.058 . S
O302 C328 1.269 . S
O303 Co295 2.074 . S
O303 C328 1.257 . S
H304 C329 0.930 . S
H305 C335 0.930 . S
O306 Co295 2.093 . S
O306 C298 1.224 . S
H307 C339 0.929 . S
H308 C341 0.930 . S
H309 C342 0.930 . S
H310 C340 0.929 . S
H311 C343 0.928 . S
O312 Co296 2.057 . S
O312 C300 1.232 . S
H313 C332 0.929 . S
H314 C333 0.929 . S
H315 C345 0.931 . S
H316 C337 0.929 . S
H317 C346 0.930 . S
H318 C338 0.931 . S
O319 Co295 2.097 . S
O319 C347 1.214 . S
H320 C348 0.929 . S
H321 C349 0.929 . S
H322 C350 0.930 . S
H323 C351 0.929 . S
H324 C353 0.930 . S
H325 C330 0.930 . S
H326 C334 0.930 . S
O327 Co296 2.037 . S
O327 C347 1.234 . S
C328 O302 1.269 . S
C328 O303 1.257 . S
C329 H304 0.930 . S
C329 C332 1.388 . S
C329 C334 1.418 . S
C330 H325 0.930 . S
C330 C333 1.404 . S
C330 C334 1.353 . S
N331 Co296 2.145 . S
N331 C332 1.397 . S
N331 C333 1.334 . S
C332 H313 0.929 . S
C332 C329 1.388 . S
C332 N331 1.397 . S
C333 H314 0.929 . S
C333 C330 1.404 . S
C333 N331 1.334 . S
C334 H326 0.930 . S
C334 C329 1.418 . S
C334 C330 1.353 . S
C335 H305 0.930 . S
C335 N336 1.330 . S
C335 C337 1.446 . S
N336 Co295 2.151 . S
N336 C335 1.330 . S
N336 C340 1.418 . S
C337 H316 0.929 . S
C337 C335 1.446 . S
C337 C338 1.332 . S
C338 H318 0.931 . S
C338 C337 1.332 . S
C338 C339 1.267 . S
C339 H307 0.929 . S
C339 C338 1.267 . S
C339 C340 1.251 . S
C340 H310 0.929 . S
C340 N336 1.418 . S
C340 C339 1.251 . S
C341 H308 0.930 . S
C341 C343 1.406 . S
C341 C346 1.261 . S
C342 H309 0.930 . S
C342 N344 1.325 . S
C342 C345 1.357 . S
C343 H311 0.928 . S
C343 C341 1.406 . S
C343 N344 1.261 . S
N344 Co295 2.214 . S
N344 C342 1.325 . S
N344 C343 1.261 . S
C345 H315 0.931 . S
C345 C342 1.357 . S
C345 C346 1.312 . S
C346 H317 0.930 . S
C346 C341 1.261 . S
C346 C345 1.312 . S
C347 O319 1.214 . S
C347 O327 1.234 . S
C348 H320 0.929 . S
C348 C351 1.391 . S
C348 C353 1.391 . S
C349 H321 0.929 . S
C349 C350 1.390 . S
C349 N352 1.391 . S
C350 H322 0.930 . S
C350 C349 1.390 . S
C350 C351 1.392 . S
C351 H323 0.929 . S
C351 C348 1.391 . S
C351 C350 1.392 . S
N352 Co296 2.257 . S
N352 C349 1.391 . S
N352 C353 1.388 . S
C353 H324 0.930 . S
C353 C348 1.391 . S
C353 N352 1.388 . S
Co354 O356 2.143 . S
Co354 O362 2.074 . S
Co354 O365 2.093 . S
Co354 O378 2.097 . S
Co354 N395 2.151 . S
Co354 N403 2.214 . S
Co355 O356 2.160 1_545 S
Co355 O361 2.058 1_545 S
Co355 O371 2.057 . S
Co355 O386 2.037 . S
Co355 N390 2.145 . S
Co355 N411 2.257 . S
O356 Co354 2.143 . S
O356 Co355 2.160 1_565 S
C357 O358 1.278 1_565 S
C357 O365 1.224 . S
O358 C357 1.278 1_545 S
C359 O360 1.245 1_545 S
C359 O371 1.232 . S
O360 C359 1.245 1_565 S
O361 Co355 2.058 1_565 S
O361 C387 1.269 . S
O362 Co354 2.074 . S
O362 C387 1.257 . S
H363 C388 0.930 . S
H364 C394 0.930 . S
O365 Co354 2.093 . S
O365 C357 1.224 . S
H366 C398 0.929 . S
H367 C400 0.930 . S
H368 C401 0.930 . S
H369 C399 0.929 . S
H370 C402 0.928 . S
O371 Co355 2.057 . S
O371 C359 1.232 . S
H372 C391 0.929 . S
H373 C392 0.929 . S
H374 C404 0.931 . S
H375 C396 0.929 . S
H376 C405 0.930 . S
H377 C397 0.931 . S
O378 Co354 2.097 . S
O378 C406 1.214 1_565 S
H379 C407 0.929 . S
H380 C408 0.929 . S
H381 C409 0.930 . S
H382 C410 0.929 . S
H383 C412 0.930 . S
H384 C389 0.930 . S
H385 C393 0.930 . S
O386 Co355 2.037 . S
O386 C406 1.234 . S
C387 O361 1.269 . S
C387 O362 1.257 . S
C388 H363 0.930 . S
C388 C391 1.388 . S
C388 C393 1.418 . S
C389 H384 0.930 . S
C389 C392 1.404 . S
C389 C393 1.353 . S
N390 Co355 2.145 . S
N390 C391 1.397 . S
N390 C392 1.334 . S
C391 H372 0.929 . S
C391 C388 1.388 . S
C391 N390 1.397 . S
C392 H373 0.929 . S
C392 C389 1.404 . S
C392 N390 1.334 . S
C393 H385 0.930 . S
C393 C388 1.418 . S
C393 C389 1.353 . S
C394 H364 0.930 . S
C394 N395 1.330 . S
C394 C396 1.446 . S
N395 Co354 2.151 . S
N395 C394 1.330 . S
N395 C399 1.418 . S
C396 H375 0.929 . S
C396 C394 1.446 . S
C396 C397 1.332 . S
C397 H377 0.931 . S
C397 C396 1.332 . S
C397 C398 1.267 . S
C398 H366 0.929 . S
C398 C397 1.267 . S
C398 C399 1.251 . S
C399 H369 0.929 . S
C399 N395 1.418 . S
C399 C398 1.251 . S
C400 H367 0.930 . S
C400 C402 1.406 . S
C400 C405 1.261 . S
C401 H368 0.930 . S
C401 N403 1.325 . S
C401 C404 1.357 . S
C402 H370 0.928 . S
C402 C400 1.406 . S
C402 N403 1.261 . S
N403 Co354 2.214 . S
N403 C401 1.325 . S
N403 C402 1.261 . S
C404 H374 0.931 . S
C404 C401 1.357 . S
C404 C405 1.312 . S
C405 H376 0.930 . S
C405 C400 1.261 . S
C405 C404 1.312 . S
C406 O378 1.214 1_545 S
C406 O386 1.234 . S
C407 H379 0.929 . S
C407 C410 1.391 . S
C407 C412 1.391 . S
C408 H380 0.929 . S
C408 C409 1.390 . S
C408 N411 1.391 . S
C409 H381 0.930 . S
C409 C408 1.390 . S
C409 C410 1.392 . S
C410 H382 0.929 . S
C410 C407 1.391 . S
C410 C409 1.392 . S
N411 Co355 2.257 . S
N411 C408 1.391 . S
N411 C412 1.388 . S
C412 H383 0.930 . S
C412 C407 1.391 . S
C412 N411 1.388 . S
Co413 O415 2.143 . S
Co413 O421 2.074 . S
Co413 O424 2.093 . S
Co413 O437 2.097 . S
Co413 N454 2.151 . S
Co413 N462 2.214 . S
Co414 O415 2.160 . S
Co414 O420 2.058 . S
Co414 O430 2.057 . S
Co414 O445 2.037 . S
Co414 N449 2.145 . S
Co414 N470 2.257 . S
O415 Co413 2.143 . S
O415 Co414 2.160 . S
C416 O417 1.278 . S
C416 O424 1.224 . S
O417 C416 1.278 . S
C418 O419 1.245 . S
C418 O430 1.232 . S
O419 C418 1.245 . S
O420 Co414 2.058 . S
O420 C446 1.269 . S
O421 Co413 2.074 . S
O421 C446 1.257 . S
H422 C447 0.930 . S
H423 C453 0.930 . S
O424 Co413 2.093 . S
O424 C416 1.224 . S
H425 C457 0.929 . S
H426 C459 0.930 . S
H427 C460 0.930 . S
H428 C458 0.929 . S
H429 C461 0.928 . S
O430 Co414 2.057 . S
O430 C418 1.232 . S
H431 C450 0.929 . S
H432 C451 0.929 . S
H433 C463 0.931 . S
H434 C455 0.929 . S
H435 C464 0.930 . S
H436 C456 0.931 . S
O437 Co413 2.097 . S
O437 C465 1.214 . S
H438 C466 0.929 . S
H439 C467 0.929 . S
H440 C468 0.930 . S
H441 C469 0.929 . S
H442 C471 0.930 . S
H443 C448 0.930 . S
H444 C452 0.930 . S
O445 Co414 2.037 . S
O445 C465 1.234 . S
C446 O420 1.269 . S
C446 O421 1.257 . S
C447 H422 0.930 . S
C447 C450 1.388 . S
C447 C452 1.418 . S
C448 H443 0.930 . S
C448 C451 1.404 . S
C448 C452 1.353 . S
N449 Co414 2.145 . S
N449 C450 1.397 . S
N449 C451 1.334 . S
C450 H431 0.929 . S
C450 C447 1.388 . S
C450 N449 1.397 . S
C451 H432 0.929 . S
C451 C448 1.404 . S
C451 N449 1.334 . S
C452 H444 0.930 . S
C452 C447 1.418 . S
C452 C448 1.353 . S
C453 H423 0.930 . S
C453 N454 1.330 . S
C453 C455 1.446 . S
N454 Co413 2.151 . S
N454 C453 1.330 . S
N454 C458 1.418 . S
C455 H434 0.929 . S
C455 C453 1.446 . S
C455 C456 1.332 . S
C456 H436 0.931 . S
C456 C455 1.332 . S
C456 C457 1.267 . S
C457 H425 0.929 . S
C457 C456 1.267 . S
C457 C458 1.251 . S
C458 H428 0.929 . S
C458 N454 1.418 . S
C458 C457 1.251 . S
C459 H426 0.930 . S
C459 C461 1.406 . S
C459 C464 1.261 . S
C460 H427 0.930 . S
C460 N462 1.325 . S
C460 C463 1.357 . S
C461 H429 0.928 . S
C461 C459 1.406 . S
C461 N462 1.261 . S
N462 Co413 2.214 . S
N462 C460 1.325 . S
N462 C461 1.261 . S
C463 H433 0.931 . S
C463 C460 1.357 . S
C463 C464 1.312 . S
C464 H435 0.930 . S
C464 C459 1.261 . S
C464 C463 1.312 . S
C465 O437 1.214 . S
C465 O445 1.234 . S
C466 H438 0.929 . S
C466 C469 1.391 . S
C466 C471 1.391 . S
C467 H439 0.929 . S
C467 C468 1.390 . S
C467 N470 1.391 . S
C468 H440 0.930 . S
C468 C467 1.390 . S
C468 C469 1.392 . S
C469 H441 0.929 . S
C469 C466 1.391 . S
C469 C468 1.392 . S
N470 Co414 2.257 . S
N470 C467 1.391 . S
N470 C471 1.388 . S
C471 H442 0.930 . S
C471 C466 1.391 . S
C471 N470 1.388 . S
Co472 O474 2.145 . S
Co472 O480 2.074 . S
Co472 O483 2.093 . S
Co472 O496 2.097 1_455 S
Co472 N513 2.151 . S
Co472 N521 2.214 . S
Co473 O474 2.154 1_655 S
Co473 O479 2.058 1_655 S
Co473 O489 2.057 . S
Co473 O504 2.037 . S
Co473 N508 2.145 . S
Co473 N529 2.257 . S
O474 Co472 2.145 . S
O474 Co473 2.154 1_455 S
C475 O476 1.278 1_455 S
C475 O483 1.224 . S
O476 C475 1.278 1_655 S
C477 O478 1.245 1_655 S
C477 O489 1.232 . S
O478 C477 1.245 1_455 S
O479 Co473 2.058 1_455 S
O479 C505 1.269 . S
O480 Co472 2.074 . S
O480 C505 1.257 . S
H481 C506 0.930 . S
H482 C512 0.930 . S
O483 Co472 2.093 . S
O483 C475 1.224 . S
H484 C516 0.929 . S
H485 C518 0.930 . S
H486 C519 0.930 . S
H487 C517 0.929 . S
H488 C520 0.928 . S
O489 Co473 2.057 . S
O489 C477 1.232 . S
H490 C509 0.929 . S
H491 C510 0.929 . S
H492 C522 0.931 . S
H493 C514 0.929 . S
H494 C523 0.930 . S
H495 C515 0.931 . S
O496 Co472 2.097 1_655 S
O496 C524 1.214 . S
H497 C525 0.929 . S
H498 C526 0.929 . S
H499 C527 0.930 . S
H500 C528 0.929 . S
H501 C530 0.930 . S
H502 C507 0.930 . S
H503 C511 0.930 . S
O504 Co473 2.037 . S
O504 C524 1.234 . S
C505 O479 1.269 . S
C505 O480 1.257 . S
C506 H481 0.930 . S
C506 C509 1.388 . S
C506 C511 1.418 . S
C507 H502 0.930 . S
C507 C510 1.404 . S
C507 C511 1.353 . S
N508 Co473 2.145 . S
N508 C509 1.397 . S
N508 C510 1.334 . S
C509 H490 0.929 . S
C509 C506 1.388 . S
C509 N508 1.397 . S
C510 H491 0.929 . S
C510 C507 1.404 . S
C510 N508 1.334 . S
C511 H503 0.930 . S
C511 C506 1.418 . S
C511 C507 1.353 . S
C512 H482 0.930 . S
C512 N513 1.330 . S
C512 C514 1.446 . S
N513 Co472 2.151 . S
N513 C512 1.330 . S
N513 C517 1.418 . S
C514 H493 0.929 . S
C514 C512 1.446 . S
C514 C515 1.332 . S
C515 H495 0.931 . S
C515 C514 1.332 . S
C515 C516 1.267 . S
C516 H484 0.929 . S
C516 C515 1.267 . S
C516 C517 1.251 . S
C517 H487 0.929 . S
C517 N513 1.418 . S
C517 C516 1.251 . S
C518 H485 0.930 . S
C518 C520 1.406 . S
C518 C523 1.261 . S
C519 H486 0.930 . S
C519 N521 1.325 . S
C519 C522 1.357 . S
C520 H488 0.928 . S
C520 C518 1.406 . S
C520 N521 1.261 . S
N521 Co472 2.214 . S
N521 C519 1.325 . S
N521 C520 1.261 . S
C522 H492 0.931 . S
C522 C519 1.357 . S
C522 C523 1.312 . S
C523 H494 0.930 . S
C523 C518 1.261 . S
C523 C522 1.312 . S
C524 O496 1.214 . S
C524 O504 1.234 . S
C525 H497 0.929 . S
C525 C528 1.391 . S
C525 C530 1.391 . S
C526 H498 0.929 . S
C526 C527 1.390 . S
C526 N529 1.391 . S
C527 H499 0.930 . S
C527 C526 1.390 . S
C527 C528 1.392 . S
C528 H500 0.929 . S
C528 C525 1.391 . S
C528 C527 1.392 . S
N529 Co473 2.257 . S
N529 C526 1.391 . S
N529 C530 1.388 . S
C530 H501 0.930 . S
C530 C525 1.391 . S
C530 N529 1.388 . S
Co531 O533 2.143 . S
Co531 O539 2.074 . S
Co531 O542 2.093 . S
Co531 O555 2.097 . S
Co531 N572 2.151 . S
Co531 N580 2.214 . S
Co532 O533 2.160 1_565 S
Co532 O538 2.058 1_565 S
Co532 O548 2.057 . S
Co532 O563 2.037 . S
Co532 N567 2.145 . S
Co532 N588 2.257 . S
O533 Co531 2.143 . S
O533 Co532 2.160 1_545 S
C534 O535 1.278 1_545 S
C534 O542 1.224 . S
O535 C534 1.278 1_565 S
C536 O537 1.245 1_565 S
C536 O548 1.232 . S
O537 C536 1.245 1_545 S
O538 Co532 2.058 1_545 S
O538 C564 1.269 . S
O539 Co531 2.074 . S
O539 C564 1.257 . S
H540 C565 0.930 . S
H541 C571 0.930 . S
O542 Co531 2.093 . S
O542 C534 1.224 . S
H543 C575 0.929 . S
H544 C577 0.930 . S
H545 C578 0.930 . S
H546 C576 0.929 . S
H547 C579 0.928 . S
O548 Co532 2.057 . S
O548 C536 1.232 . S
H549 C568 0.929 . S
H550 C569 0.929 . S
H551 C581 0.931 . S
H552 C573 0.929 . S
H553 C582 0.930 . S
H554 C574 0.931 . S
O555 Co531 2.097 . S
O555 C583 1.214 1_545 S
H556 C584 0.929 . S
H557 C585 0.929 . S
H558 C586 0.930 . S
H559 C587 0.929 . S
H560 C589 0.930 . S
H561 C566 0.930 . S
H562 C570 0.930 . S
O563 Co532 2.037 . S
O563 C583 1.234 . S
C564 O538 1.269 . S
C564 O539 1.257 . S
C565 H540 0.930 . S
C565 C568 1.388 . S
C565 C570 1.418 . S
C566 H561 0.930 . S
C566 C569 1.404 . S
C566 C570 1.353 . S
N567 Co532 2.145 . S
N567 C568 1.397 . S
N567 C569 1.334 . S
C568 H549 0.929 . S
C568 C565 1.388 . S
C568 N567 1.397 . S
C569 H550 0.929 . S
C569 C566 1.404 . S
C569 N567 1.334 . S
C570 H562 0.930 . S
C570 C565 1.418 . S
C570 C566 1.353 . S
C571 H541 0.930 . S
C571 N572 1.330 . S
C571 C573 1.446 . S
N572 Co531 2.151 . S
N572 C571 1.330 . S
N572 C576 1.418 . S
C573 H552 0.929 . S
C573 C571 1.446 . S
C573 C574 1.332 . S
C574 H554 0.931 . S
C574 C573 1.332 . S
C574 C575 1.267 . S
C575 H543 0.929 . S
C575 C574 1.267 . S
C575 C576 1.251 . S
C576 H546 0.929 . S
C576 N572 1.418 . S
C576 C575 1.251 . S
C577 H544 0.930 . S
C577 C579 1.406 . S
C577 C582 1.261 . S
C578 H545 0.930 . S
C578 N580 1.325 . S
C578 C581 1.357 . S
C579 H547 0.928 . S
C579 C577 1.406 . S
C579 N580 1.261 . S
N580 Co531 2.214 . S
N580 C578 1.325 . S
N580 C579 1.261 . S
C581 H551 0.931 . S
C581 C578 1.357 . S
C581 C582 1.312 . S
C582 H553 0.930 . S
C582 C577 1.261 . S
C582 C581 1.312 . S
C583 O555 1.214 1_565 S
C583 O563 1.234 . S
C584 H556 0.929 . S
C584 C587 1.391 . S
C584 C589 1.391 . S
C585 H557 0.929 . S
C585 C586 1.390 . S
C585 N588 1.391 . S
C586 H558 0.930 . S
C586 C585 1.390 . S
C586 C587 1.392 . S
C587 H559 0.929 . S
C587 C584 1.391 . S
C587 C586 1.392 . S
N588 Co532 2.257 . S
N588 C585 1.391 . S
N588 C589 1.388 . S
C589 H560 0.930 . S
C589 C584 1.391 . S
C589 N588 1.388 . S
Co590 O592 2.143 . S
Co590 O598 2.074 . S
Co590 O601 2.093 . S
Co590 O614 2.097 . S
Co590 N631 2.151 . S
Co590 N639 2.214 . S
Co591 O592 2.160 . S
Co591 O597 2.058 . S
Co591 O607 2.057 . S
Co591 O622 2.037 . S
Co591 N626 2.145 . S
Co591 N647 2.257 . S
O592 Co590 2.143 . S
O592 Co591 2.160 . S
C593 O594 1.278 . S
C593 O601 1.224 . S
O594 C593 1.278 . S
C595 O596 1.245 . S
C595 O607 1.232 . S
O596 C595 1.245 . S
O597 Co591 2.058 . S
O597 C623 1.269 . S
O598 Co590 2.074 . S
O598 C623 1.257 . S
H599 C624 0.930 . S
H600 C630 0.930 . S
O601 Co590 2.093 . S
O601 C593 1.224 . S
H602 C634 0.929 . S
H603 C636 0.930 . S
H604 C637 0.930 . S
H605 C635 0.929 . S
H606 C638 0.928 . S
O607 Co591 2.057 . S
O607 C595 1.232 . S
H608 C627 0.929 . S
H609 C628 0.929 . S
H610 C640 0.931 . S
H611 C632 0.929 . S
H612 C641 0.930 . S
H613 C633 0.931 . S
O614 Co590 2.097 . S
O614 C642 1.214 . S
H615 C643 0.929 . S
H616 C644 0.929 . S
H617 C645 0.930 . S
H618 C646 0.929 . S
H619 C648 0.930 . S
H620 C625 0.930 . S
H621 C629 0.930 . S
O622 Co591 2.037 . S
O622 C642 1.234 . S
C623 O597 1.269 . S
C623 O598 1.257 . S
C624 H599 0.930 . S
C624 C627 1.388 . S
C624 C629 1.418 . S
C625 H620 0.930 . S
C625 C628 1.404 . S
C625 C629 1.353 . S
N626 Co591 2.145 . S
N626 C627 1.397 . S
N626 C628 1.334 . S
C627 H608 0.929 . S
C627 C624 1.388 . S
C627 N626 1.397 . S
C628 H609 0.929 . S
C628 C625 1.404 . S
C628 N626 1.334 . S
C629 H621 0.930 . S
C629 C624 1.418 . S
C629 C625 1.353 . S
C630 H600 0.930 . S
C630 N631 1.330 . S
C630 C632 1.446 . S
N631 Co590 2.151 . S
N631 C630 1.330 . S
N631 C635 1.418 . S
C632 H611 0.929 . S
C632 C630 1.446 . S
C632 C633 1.332 . S
C633 H613 0.931 . S
C633 C632 1.332 . S
C633 C634 1.267 . S
C634 H602 0.929 . S
C634 C633 1.267 . S
C634 C635 1.251 . S
C635 H605 0.929 . S
C635 N631 1.418 . S
C635 C634 1.251 . S
C636 H603 0.930 . S
C636 C638 1.406 . S
C636 C641 1.261 . S
C637 H604 0.930 . S
C637 N639 1.325 . S
C637 C640 1.357 . S
C638 H606 0.928 . S
C638 C636 1.406 . S
C638 N639 1.261 . S
N639 Co590 2.214 . S
N639 C637 1.325 . S
N639 C638 1.261 . S
C640 H610 0.931 . S
C640 C637 1.357 . S
C640 C641 1.312 . S
C641 H612 0.930 . S
C641 C636 1.261 . S
C641 C640 1.312 . S
C642 O614 1.214 . S
C642 O622 1.234 . S
C643 H615 0.929 . S
C643 C646 1.391 . S
C643 C648 1.391 . S
C644 H616 0.929 . S
C644 C645 1.390 . S
C644 N647 1.391 . S
C645 H617 0.930 . S
C645 C644 1.390 . S
C645 C646 1.392 . S
C646 H618 0.929 . S
C646 C643 1.391 . S
C646 C645 1.392 . S
N647 Co591 2.257 . S
N647 C644 1.391 . S
N647 C648 1.388 . S
C648 H619 0.930 . S
C648 C643 1.391 . S
C648 N647 1.388 . S
Co649 O651 2.145 . S
Co649 O657 2.074 . S
Co649 O660 2.093 . S
Co649 O673 2.097 1_655 S
Co649 N690 2.151 . S
Co649 N698 2.214 . S
Co650 O651 2.154 1_455 S
Co650 O656 2.058 1_455 S
Co650 O666 2.057 . S
Co650 O681 2.037 . S
Co650 N685 2.145 . S
Co650 N706 2.257 . S
O651 Co649 2.145 . S
O651 Co650 2.154 1_655 S
C652 O653 1.278 1_655 S
C652 O660 1.224 . S
O653 C652 1.278 1_455 S
C654 O655 1.245 1_455 S
C654 O666 1.232 . S
O655 C654 1.245 1_655 S
O656 Co650 2.058 1_655 S
O656 C682 1.269 . S
O657 Co649 2.074 . S
O657 C682 1.257 . S
H658 C683 0.930 . S
H659 C689 0.930 . S
O660 Co649 2.093 . S
O660 C652 1.224 . S
H661 C693 0.929 . S
H662 C695 0.930 . S
H663 C696 0.930 . S
H664 C694 0.929 . S
H665 C697 0.928 . S
O666 Co650 2.057 . S
O666 C654 1.232 . S
H667 C686 0.929 . S
H668 C687 0.929 . S
H669 C699 0.931 . S
H670 C691 0.929 . S
H671 C700 0.930 . S
H672 C692 0.931 . S
O673 Co649 2.097 1_455 S
O673 C701 1.214 . S
H674 C702 0.929 . S
H675 C703 0.929 . S
H676 C704 0.930 . S
H677 C705 0.929 . S
H678 C707 0.930 . S
H679 C684 0.930 . S
H680 C688 0.930 . S
O681 Co650 2.037 . S
O681 C701 1.234 . S
C682 O656 1.269 . S
C682 O657 1.257 . S
C683 H658 0.930 . S
C683 C686 1.388 . S
C683 C688 1.418 . S
C684 H679 0.930 . S
C684 C687 1.404 . S
C684 C688 1.353 . S
N685 Co650 2.145 . S
N685 C686 1.397 . S
N685 C687 1.334 . S
C686 H667 0.929 . S
C686 C683 1.388 . S
C686 N685 1.397 . S
C687 H668 0.929 . S
C687 C684 1.404 . S
C687 N685 1.334 . S
C688 H680 0.930 . S
C688 C683 1.418 . S
C688 C684 1.353 . S
C689 H659 0.930 . S
C689 N690 1.330 . S
C689 C691 1.446 . S
N690 Co649 2.151 . S
N690 C689 1.330 . S
N690 C694 1.418 . S
C691 H670 0.929 . S
C691 C689 1.446 . S
C691 C692 1.332 . S
C692 H672 0.931 . S
C692 C691 1.332 . S
C692 C693 1.267 . S
C693 H661 0.929 . S
C693 C692 1.267 . S
C693 C694 1.251 . S
C694 H664 0.929 . S
C694 N690 1.418 . S
C694 C693 1.251 . S
C695 H662 0.930 . S
C695 C697 1.406 . S
C695 C700 1.261 . S
C696 H663 0.930 . S
C696 N698 1.325 . S
C696 C699 1.357 . S
C697 H665 0.928 . S
C697 C695 1.406 . S
C697 N698 1.261 . S
N698 Co649 2.214 . S
N698 C696 1.325 . S
N698 C697 1.261 . S
C699 H669 0.931 . S
C699 C696 1.357 . S
C699 C700 1.312 . S
C700 H671 0.930 . S
C700 C695 1.261 . S
C700 C699 1.312 . S
C701 O673 1.214 . S
C701 O681 1.234 . S
C702 H674 0.929 . S
C702 C705 1.391 . S
C702 C707 1.391 . S
C703 H675 0.929 . S
C703 C704 1.390 . S
C703 N706 1.391 . S
C704 H676 0.930 . S
C704 C703 1.390 . S
C704 C705 1.392 . S
C705 H677 0.929 . S
C705 C702 1.391 . S
C705 C704 1.392 . S
N706 Co650 2.257 . S
N706 C703 1.391 . S
N706 C707 1.388 . S
C707 H678 0.930 . S
C707 C702 1.391 . S
C707 N706 1.388 . S
H708 C716 0.929 . S
H709 C718 0.930 . S
H710 C720 0.930 . S
H711 C723 0.929 . S
H712 C726 0.930 . S
H713 C728 0.960 . S
H714 C728 0.960 . S
H715 C728 0.960 . S
C716 H708 0.929 . S
C716 C717 1.377 1_455 S
C716 C718 1.384 . S
C717 C716 1.377 1_655 S
C717 C723 1.390 . S
C718 H709 0.930 . S
C718 C716 1.384 . S
C718 C719 1.372 . S
C719 C718 1.372 . S
C719 C720 1.400 1_455 S
C719 C724 1.490 . S
C720 H710 0.930 . S
C720 C719 1.400 1_655 S
C720 C723 1.386 . S
H721 C737 0.930 . S
H722 C738 0.931 1_655 S
C723 H711 0.929 . S
C723 C717 1.390 . S
C723 C720 1.386 . S
C724 C719 1.490 . S
C724 C726 1.398 1_455 S
C724 C727 1.403 . S
H725 C731 0.930 . S
C726 H712 0.930 . S
C726 C724 1.398 1_655 S
C726 C729 1.400 1_655 S
C727 C724 1.403 . S
C727 C728 1.524 . S
C727 C731 1.400 . S
C728 H713 0.960 . S
C728 H714 0.960 . S
C728 H715 0.960 . S
C728 C727 1.524 . S
C729 C726 1.400 1_455 S
C729 C730 1.392 . S
C729 C733 1.495 1_455 S
C730 C729 1.392 . S
C730 C731 1.385 . S
C730 C732 1.478 . S
C731 H725 0.930 . S
C731 C727 1.400 . S
C731 C730 1.385 . S
C732 C730 1.478 . S
C732 C734 1.381 . S
C732 C738 1.383 . S
C733 C729 1.495 1_655 S
C733 H739 0.959 . S
C733 H740 0.961 . S
C733 H741 0.960 1_655 S
C734 C732 1.381 . S
C734 C735 1.394 . S
C734 H742 0.930 . S
C735 C734 1.394 . S
C735 C736 1.383 . S
C735 H743 0.929 . S
C736 C735 1.383 . S
C736 C737 1.377 . S
C737 H721 0.930 . S
C737 C736 1.377 . S
C737 C738 1.379 . S
C738 H722 0.931 1_455 S
C738 C732 1.383 . S
C738 C737 1.379 . S
H739 C733 0.959 . S
H740 C733 0.961 . S
H741 C733 0.960 1_455 S
H742 C734 0.930 . S
H743 C735 0.929 . S
H744 C752 0.929 . S
H745 C754 0.930 1_565 S
H746 C756 0.930 . S
H747 C759 0.929 . S
H748 C762 0.930 . S
H749 C764 0.960 . S
H750 C764 0.960 . S
H751 C764 0.960 . S
C752 H744 0.929 . S
C752 C753 1.377 . S
C752 C754 1.384 . S
C753 C752 1.377 . S
C753 C759 1.390 . S
C754 H745 0.930 1_545 S
C754 C752 1.384 . S
C754 C755 1.372 . S
C755 C754 1.372 . S
C755 C756 1.400 . S
C755 C760 1.490 . S
C756 H746 0.930 . S
C756 C755 1.400 . S
C756 C759 1.386 . S
H757 C773 0.947 . S
H758 C774 0.931 . S
C759 H747 0.929 . S
C759 C753 1.390 . S
C759 C756 1.386 . S
C760 C755 1.490 . S
C760 C762 1.395 . S
C760 C763 1.403 1_545 S
H761 C767 0.930 . S
C762 H748 0.930 . S
C762 C760 1.395 . S
C762 C765 1.403 . S
C763 C760 1.403 1_565 S
C763 C764 1.524 . S
C763 C767 1.400 . S
C764 H749 0.960 . S
C764 H750 0.960 . S
C764 H751 0.960 . S
C764 C763 1.524 . S
C765 C762 1.403 . S
C765 C766 1.392 1_545 S
C765 C769 1.495 . S
C766 C765 1.392 1_565 S
C766 C767 1.385 . S
C766 C768 1.478 . S
C767 H761 0.930 . S
C767 C763 1.400 . S
C767 C766 1.385 . S
C768 C766 1.478 . S
C768 C770 1.381 . S
C768 C774 1.383 1_565 S
C769 C765 1.495 . S
C769 H775 0.959 . S
C769 H776 0.961 . S
C769 H777 0.960 . S
C770 C768 1.381 . S
C770 C771 1.394 . S
C770 H778 0.930 . S
C771 C770 1.394 . S
C771 C772 1.383 . S
C771 H779 0.929 . S
C772 C771 1.383 . S
C772 C773 1.377 . S
C773 H757 0.947 . S
C773 C772 1.377 . S
C773 C774 1.379 1_565 S
C774 H758 0.931 . S
C774 C768 1.383 1_545 S
C774 C773 1.379 1_545 S
H775 C769 0.959 . S
H776 C769 0.961 . S
H777 C769 0.960 . S
H778 C770 0.930 . S
H779 C771 0.929 . S
H780 C788 0.929 . S
H781 C790 0.930 . S
H782 C792 0.930 . S
H783 C795 0.929 . S
H784 C798 0.930 . S
H785 C800 0.960 . S
H786 C800 0.960 . S
H787 C800 0.960 . S
C788 H780 0.929 . S
C788 C789 1.377 . S
C788 C790 1.384 . S
C789 C788 1.377 . S
C789 C795 1.390 . S
C790 H781 0.930 . S
C790 C788 1.384 . S
C790 C791 1.372 . S
C791 C790 1.372 . S
C791 C792 1.400 . S
C791 C796 1.490 . S
C792 H782 0.930 . S
C792 C791 1.400 . S
C792 C795 1.386 . S
H793 C809 0.930 . S
H794 C810 0.931 . S
C795 H783 0.929 . S
C795 C789 1.390 . S
C795 C792 1.386 . S
C796 C791 1.490 . S
C796 C798 1.395 . S
C796 C799 1.403 . S
H797 C803 0.930 . S
C798 H784 0.930 . S
C798 C796 1.395 . S
C798 C801 1.403 . S
C799 C796 1.403 . S
C799 C800 1.524 . S
C799 C803 1.400 . S
C800 H785 0.960 . S
C800 H786 0.960 . S
C800 H787 0.960 . S
C800 C799 1.524 . S
C801 C798 1.403 . S
C801 C802 1.392 . S
C801 C805 1.495 . S
C802 C801 1.392 . S
C802 C803 1.385 . S
C802 C804 1.478 . S
C803 H797 0.930 . S
C803 C799 1.400 . S
C803 C802 1.385 . S
C804 C802 1.478 . S
C804 C806 1.381 . S
C804 C810 1.383 . S
C805 C801 1.495 . S
C805 H811 0.959 . S
C805 H812 0.961 . S
C805 H813 0.960 . S
C806 C804 1.381 . S
C806 C807 1.394 . S
C806 H814 0.930 . S
C807 C806 1.394 . S
C807 C808 1.383 . S
C807 H815 0.929 . S
C808 C807 1.383 . S
C808 C809 1.377 . S
C809 H793 0.930 . S
C809 C808 1.377 . S
C809 C810 1.379 . S
C810 H794 0.931 . S
C810 C804 1.383 . S
C810 C809 1.379 . S
H811 C805 0.959 . S
H812 C805 0.961 . S
H813 C805 0.960 . S
H814 C806 0.930 . S
H815 C807 0.929 . S
H816 C824 0.929 . S
H817 C826 0.930 . S
H818 C828 0.930 1_455 S
H819 C831 0.929 . S
H820 C834 0.930 . S
H821 C836 0.960 . S
H822 C836 0.960 . S
H823 C836 0.960 . S
C824 H816 0.929 . S
C824 C825 1.377 . S
C824 C826 1.384 . S
C825 C824 1.377 . S
C825 C831 1.390 . S
C826 H817 0.930 . S
C826 C824 1.384 . S
C826 C827 1.372 . S
C827 C826 1.372 . S
C827 C828 1.400 . S
C827 C832 1.490 . S
C828 H818 0.930 1_655 S
C828 C827 1.400 . S
C828 C831 1.386 . S
H829 C845 0.930 . S
H830 C846 0.931 . S
C831 H819 0.929 . S
C831 C825 1.390 . S
C831 C828 1.386 . S
C832 C827 1.490 . S
C832 C834 1.395 . S
C832 C835 1.403 1_655 S
H833 C839 0.930 . S
C834 H820 0.930 . S
C834 C832 1.395 . S
C834 C837 1.403 . S
C835 C832 1.403 1_455 S
C835 C836 1.524 . S
C835 C839 1.400 . S
C836 H821 0.960 . S
C836 H822 0.960 . S
C836 H823 0.960 . S
C836 C835 1.524 . S
C837 C834 1.403 . S
C837 C838 1.392 . S
C837 C841 1.495 . S
C838 C837 1.392 . S
C838 C839 1.385 1_655 S
C838 C840 1.478 . S
C839 H833 0.930 . S
C839 C835 1.400 . S
C839 C838 1.385 1_455 S
C840 C838 1.478 . S
C840 C842 1.381 . S
C840 C846 1.383 1_655 S
C841 C837 1.495 . S
C841 H847 0.959 . S
C841 H848 0.961 . S
C841 H849 0.960 . S
C842 C840 1.381 . S
C842 C843 1.394 . S
C842 H850 0.930 . S
C843 C842 1.394 . S
C843 C844 1.383 1_655 S
C843 H851 0.929 . S
C844 C843 1.383 1_455 S
C844 C845 1.377 . S
C845 H829 0.930 . S
C845 C844 1.377 . S
C845 C846 1.379 . S
C846 H830 0.931 . S
C846 C840 1.383 1_455 S
C846 C845 1.379 . S
H847 C841 0.959 . S
H848 C841 0.961 . S
H849 C841 0.960 . S
H850 C842 0.930 . S
H851 C843 0.929 . S
H852 C860 0.929 . S
H853 C862 0.930 . S
H854 C864 0.935 . S
H855 C867 0.929 1_565 S
H856 C870 0.930 . S
H857 C872 0.960 . S
H858 C872 0.960 . S
H859 C872 0.960 . S
C860 H852 0.929 . S
C860 C861 1.377 . S
C860 C862 1.384 . S
C861 C860 1.377 . S
C861 C867 1.390 . S
C862 H853 0.930 . S
C862 C860 1.384 . S
C862 C863 1.372 . S
C863 C862 1.372 . S
C863 C864 1.399 1_545 S
C863 C868 1.490 . S
C864 H854 0.935 . S
C864 C863 1.399 1_565 S
C864 C867 1.382 1_565 S
H865 C881 0.930 . S
H866 C882 0.931 . S
C867 H855 0.929 1_545 S
C867 C861 1.390 . S
C867 C864 1.382 1_545 S
C868 C863 1.490 . S
C868 C870 1.395 1_545 S
C868 C871 1.403 . S
H869 C875 0.930 . S
C870 H856 0.930 . S
C870 C868 1.395 1_565 S
C870 C873 1.403 . S
C871 C868 1.403 . S
C871 C872 1.524 . S
C871 C875 1.400 . S
C872 H857 0.960 . S
C872 H858 0.960 . S
C872 H859 0.960 . S
C872 C871 1.524 . S
C873 C870 1.403 . S
C873 C874 1.392 . S
C873 C877 1.495 . S
C874 C873 1.392 . S
C874 C875 1.385 1_565 S
C874 C876 1.478 . S
C875 H869 0.930 . S
C875 C871 1.400 . S
C875 C874 1.385 1_545 S
C876 C874 1.478 . S
C876 C878 1.381 1_565 S
C876 C882 1.383 . S
C877 C873 1.495 . S
C877 H883 0.959 . S
C877 H884 0.961 . S
C877 H885 0.960 . S
C878 C876 1.381 1_545 S
C878 C879 1.394 . S
C878 H886 0.930 . S
C879 C878 1.394 . S
C879 C880 1.383 1_545 S
C879 H887 0.929 . S
C880 C879 1.383 1_565 S
C880 C881 1.377 . S
C881 H865 0.930 . S
C881 C880 1.377 . S
C881 C882 1.379 . S
C882 H866 0.931 . S
C882 C876 1.383 . S
C882 C881 1.379 . S
H883 C877 0.959 . S
H884 C877 0.961 . S
H885 C877 0.960 . S
H886 C878 0.930 . S
H887 C879 0.929 . S
H888 C896 0.929 . S
H889 C898 0.930 . S
H890 C900 0.930 . S
H891 C903 0.929 . S
H892 C906 0.930 . S
H893 C908 0.960 . S
H894 C908 0.960 . S
H895 C908 0.960 . S
C896 H888 0.929 . S
C896 C897 1.377 . S
C896 C898 1.384 . S
C897 C896 1.377 . S
C897 C903 1.390 . S
C898 H889 0.930 . S
C898 C896 1.384 . S
C898 C899 1.372 . S
C899 C898 1.372 . S
C899 C900 1.400 . S
C899 C904 1.490 . S
C900 H890 0.930 . S
C900 C899 1.400 . S
C900 C903 1.386 . S
H901 C917 0.930 . S
H902 C918 0.931 . S
C903 H891 0.929 . S
C903 C897 1.390 . S
C903 C900 1.386 . S
C904 C899 1.490 . S
C904 C906 1.395 . S
C904 C907 1.403 . S
H905 C911 0.930 . S
C906 H892 0.930 . S
C906 C904 1.395 . S
C906 C909 1.403 . S
C907 C904 1.403 . S
C907 C908 1.524 . S
C907 C911 1.400 . S
C908 H893 0.960 . S
C908 H894 0.960 . S
C908 H895 0.960 . S
C908 C907 1.524 . S
C909 C906 1.403 . S
C909 C910 1.392 . S
C909 C913 1.495 . S
C910 C909 1.392 . S
C910 C911 1.385 . S
C910 C912 1.478 . S
C911 H905 0.930 . S
C911 C907 1.400 . S
C911 C910 1.385 . S
C912 C910 1.478 . S
C912 C914 1.381 . S
C912 C918 1.383 . S
C913 C909 1.495 . S
C913 H919 0.959 . S
C913 H920 0.961 . S
C913 H921 0.960 . S
C914 C912 1.381 . S
C914 C915 1.394 . S
C914 H922 0.930 . S
C915 C914 1.394 . S
C915 C916 1.383 . S
C915 H923 0.929 . S
C916 C915 1.383 . S
C916 C917 1.377 . S
C917 H901 0.930 . S
C917 C916 1.377 . S
C917 C918 1.379 . S
C918 H902 0.931 . S
C918 C912 1.383 . S
C918 C917 1.379 . S
H919 C913 0.959 . S
H920 C913 0.961 . S
H921 C913 0.960 . S
H922 C914 0.930 . S
H923 C915 0.929 . S
H924 C932 0.929 . S
H925 C934 0.930 . S
H926 C936 0.930 . S
H927 C939 0.929 . S
H928 C942 0.930 . S
H929 C944 0.960 1_556 S
H930 C944 0.960 . S
H931 C944 0.960 . S
C932 H924 0.929 . S
C932 C933 1.377 . S
C932 C934 1.384 . S
C933 C932 1.377 . S
C933 C939 1.390 . S
C934 H925 0.930 . S
C934 C932 1.384 . S
C934 C935 1.372 . S
C935 C934 1.372 . S
C935 C936 1.400 . S
C935 C940 1.490 . S
C936 H926 0.930 . S
C936 C935 1.400 . S
C936 C939 1.386 . S
H937 C953 0.930 . S
H938 C954 0.931 . S
C939 H927 0.929 . S
C939 C933 1.390 . S
C939 C936 1.386 . S
C940 C935 1.490 . S
C940 C942 1.395 . S
C940 C943 1.403 . S
H941 C947 0.930 . S
C942 H928 0.930 . S
C942 C940 1.395 . S
C942 C945 1.403 1_554 S
C943 C940 1.403 . S
C943 C944 1.524 . S
C943 C947 1.400 1_554 S
C944 H929 0.960 1_554 S
C944 H930 0.960 . S
C944 H931 0.960 . S
C944 C943 1.524 . S
C945 C942 1.403 1_556 S
C945 C946 1.392 . S
C945 C949 1.495 . S
C946 C945 1.392 . S
C946 C947 1.385 . S
C946 C948 1.478 . S
C947 H941 0.930 . S
C947 C943 1.400 1_556 S
C947 C946 1.385 . S
C948 C946 1.478 . S
C948 C950 1.381 . S
C948 C954 1.383 . S
C949 C945 1.495 . S
C949 H955 0.959 1_556 S
C949 H956 0.961 . S
C949 H957 0.960 . S
C950 C948 1.381 . S
C950 C951 1.394 . S
C950 H958 0.930 . S
C951 C950 1.394 . S
C951 C952 1.383 . S
C951 H959 0.929 . S
C952 C951 1.383 . S
C952 C953 1.377 . S
C953 H937 0.930 . S
C953 C952 1.377 . S
C953 C954 1.379 . S
C954 H938 0.931 . S
C954 C948 1.383 . S
C954 C953 1.379 . S
H955 C949 0.959 1_554 S
H956 C949 0.961 . S
H957 C949 0.960 . S
H958 C950 0.930 . S
H959 C951 0.929 . S
H960 C968 0.929 . S
H961 C970 0.930 . S
H962 C972 0.930 . S
H963 C975 0.929 . S
H964 C978 0.930 . S
H965 C980 0.960 . S
H966 C980 0.960 . S
H967 C980 0.960 . S
C968 H960 0.929 . S
C968 C969 1.377 . S
C968 C970 1.384 . S
C969 C968 1.377 . S
C969 C975 1.390 . S
C970 H961 0.930 . S
C970 C968 1.384 . S
C970 C971 1.372 . S
C971 C970 1.372 . S
C971 C972 1.400 . S
C971 C976 1.490 . S
C972 H962 0.930 . S
C972 C971 1.400 . S
C972 C975 1.386 . S
H973 C989 0.930 . S
H974 C990 0.931 . S
C975 H963 0.929 . S
C975 C969 1.390 . S
C975 C972 1.386 . S
C976 C971 1.490 . S
C976 C978 1.395 . S
C976 C979 1.403 . S
H977 C983 0.930 . S
C978 H964 0.930 . S
C978 C976 1.395 . S
C978 C981 1.403 . S
C979 C976 1.403 . S
C979 C980 1.524 . S
C979 C983 1.400 . S
C980 H965 0.960 . S
C980 H966 0.960 . S
C980 H967 0.960 . S
C980 C979 1.524 . S
C981 C978 1.403 . S
C981 C982 1.392 . S
C981 C985 1.495 . S
C982 C981 1.392 . S
C982 C983 1.385 . S
C982 C984 1.478 . S
C983 H977 0.930 . S
C983 C979 1.400 . S
C983 C982 1.385 . S
C984 C982 1.478 . S
C984 C986 1.381 . S
C984 C990 1.383 . S
C985 C981 1.495 . S
C985 H991 0.959 . S
C985 H992 0.961 . S
C985 H993 0.960 . S
C986 C984 1.381 . S
C986 C987 1.394 . S
C986 H994 0.930 . S
C987 C986 1.394 . S
C987 C988 1.383 . S
C987 H995 0.929 . S
C988 C987 1.383 . S
C988 C989 1.377 . S
C989 H973 0.930 . S
C989 C988 1.377 . S
C989 C990 1.379 . S
C990 H974 0.931 . S
C990 C984 1.383 . S
C990 C989 1.379 . S
H991 C985 0.959 . S
H992 C985 0.961 . S
H993 C985 0.960 . S
H994 C986 0.930 . S
H995 C987 0.929 . S
H996 C1004 0.929 . S
H997 C1006 0.930 . S
H998 C1008 0.930 . S
H999 C1011 0.929 . S
H1000 C1014 0.930 . S
H1001 C1016 0.960 . S
H1002 C1016 0.960 . S
H1003 C1016 0.960 . S
C1004 H996 0.929 . S
C1004 C1005 1.377 . S
C1004 C1006 1.384 . S
C1005 C1004 1.377 . S
C1005 C1011 1.390 . S
C1006 H997 0.930 . S
C1006 C1004 1.384 . S
C1006 C1007 1.372 . S
C1007 C1006 1.372 . S
C1007 C1008 1.400 . S
C1007 C1012 1.490 . S
C1008 H998 0.930 . S
C1008 C1007 1.400 . S
C1008 C1011 1.386 . S
H1009 C1025 0.930 . S
H1010 C1026 0.931 . S
C1011 H999 0.929 . S
C1011 C1005 1.390 . S
C1011 C1008 1.386 . S
C1012 C1007 1.490 . S
C1012 C1014 1.395 . S
C1012 C1015 1.403 . S
H1013 C1019 0.930 . S
C1014 H1000 0.930 . S
C1014 C1012 1.395 . S
C1014 C1017 1.403 . S
C1015 C1012 1.403 . S
C1015 C1016 1.524 . S
C1015 C1019 1.400 . S
C1016 H1001 0.960 . S
C1016 H1002 0.960 . S
C1016 H1003 0.960 . S
C1016 C1015 1.524 . S
C1017 C1014 1.403 . S
C1017 C1018 1.392 . S
C1017 C1021 1.495 . S
C1018 C1017 1.392 . S
C1018 C1019 1.385 . S
C1018 C1020 1.478 . S
C1019 H1013 0.930 . S
C1019 C1015 1.400 . S
C1019 C1018 1.385 . S
C1020 C1018 1.478 . S
C1020 C1022 1.381 . S
C1020 C1026 1.383 . S
C1021 C1017 1.495 . S
C1021 H1027 0.959 . S
C1021 H1028 0.961 . S
C1021 H1029 0.960 . S
C1022 C1020 1.381 . S
C1022 C1023 1.394 . S
C1022 H1030 0.930 . S
C1023 C1022 1.394 . S
C1023 C1024 1.383 . S
C1023 H1031 0.929 . S
C1024 C1023 1.383 . S
C1024 C1025 1.377 . S
C1025 H1009 0.930 . S
C1025 C1024 1.377 . S
C1025 C1026 1.379 . S
C1026 H1010 0.931 . S
C1026 C1020 1.383 . S
C1026 C1025 1.379 . S
H1027 C1021 0.959 . S
H1028 C1021 0.961 . S
H1029 C1021 0.960 . S
H1030 C1022 0.930 . S
H1031 C1023 0.929 . S
H1032 C1040 0.929 . S
H1033 C1042 0.930 . S
H1034 C1044 0.930 . S
H1035 C1047 0.929 . S
H1036 C1050 0.930 . S
H1037 C1052 0.960 . S
H1038 C1052 0.960 . S
H1039 C1052 0.960 . S
C1040 H1032 0.929 . S
C1040 C1041 1.377 . S
C1040 C1042 1.384 . S
C1041 C1040 1.377 . S
C1041 C1047 1.390 . S
C1042 H1033 0.930 . S
C1042 C1040 1.384 . S
C1042 C1043 1.372 . S
C1043 C1042 1.372 . S
C1043 C1044 1.400 . S
C1043 C1048 1.490 . S
C1044 H1034 0.930 . S
C1044 C1043 1.400 . S
C1044 C1047 1.386 . S
H1045 C1061 0.930 . S
H1046 C1062 0.931 . S
C1047 H1035 0.929 . S
C1047 C1041 1.390 . S
C1047 C1044 1.386 . S
C1048 C1043 1.490 . S
C1048 C1050 1.395 . S
C1048 C1051 1.403 . S
H1049 C1055 0.930 . S
C1050 H1036 0.930 . S
C1050 C1048 1.395 . S
C1050 C1053 1.403 1_554 S
C1051 C1048 1.403 . S
C1051 C1052 1.524 . S
C1051 C1055 1.400 1_554 S
C1052 H1037 0.960 . S
C1052 H1038 0.960 . S
C1052 H1039 0.960 . S
C1052 C1051 1.524 . S
C1053 C1050 1.403 1_556 S
C1053 C1054 1.392 . S
C1053 C1057 1.495 . S
C1054 C1053 1.392 . S
C1054 C1055 1.385 . S
C1054 C1056 1.478 . S
C1055 H1049 0.930 . S
C1055 C1051 1.400 1_556 S
C1055 C1054 1.385 . S
C1056 C1054 1.478 . S
C1056 C1058 1.381 . S
C1056 C1062 1.383 . S
C1057 C1053 1.495 . S
C1057 H1063 0.959 . S
C1057 H1064 0.961 . S
C1057 H1065 0.960 . S
C1058 C1056 1.381 . S
C1058 C1059 1.394 . S
C1058 H1066 0.930 . S
C1059 C1058 1.394 . S
C1059 C1060 1.383 . S
C1059 H1067 0.929 . S
C1060 C1059 1.383 . S
C1060 C1061 1.377 . S
C1061 H1045 0.930 . S
C1061 C1060 1.377 . S
C1061 C1062 1.379 . S
C1062 H1046 0.931 . S
C1062 C1056 1.383 . S
C1062 C1061 1.379 . S
H1063 C1057 0.959 . S
H1064 C1057 0.961 . S
H1065 C1057 0.960 . S
H1066 C1058 0.930 . S
H1067 C1059 0.929 . S
H1068 C1076 0.929 . S
H1069 C1078 0.930 . S
H1070 C1080 0.930 . S
H1071 C1083 0.929 . S
H1072 C1086 0.930 . S
H1073 C1088 0.960 . S
H1074 C1088 0.960 . S
H1075 C1088 0.960 . S
C1076 H1068 0.929 . S
C1076 C1077 1.377 . S
C1076 C1078 1.384 . S
C1077 C1076 1.377 . S
C1077 C1083 1.390 . S
C1078 H1069 0.930 . S
C1078 C1076 1.384 . S
C1078 C1079 1.372 . S
C1079 C1078 1.372 . S
C1079 C1080 1.400 . S
C1079 C1084 1.490 . S
C1080 H1070 0.930 . S
C1080 C1079 1.400 . S
C1080 C1083 1.386 . S
H1081 C1097 0.930 . S
H1082 C1098 0.931 . S
C1083 H1071 0.929 . S
C1083 C1077 1.390 . S
C1083 C1080 1.386 . S
C1084 C1079 1.490 . S
C1084 C1086 1.395 . S
C1084 C1087 1.403 . S
H1085 C1091 0.930 . S
C1086 H1072 0.930 . S
C1086 C1084 1.395 . S
C1086 C1089 1.403 . S
C1087 C1084 1.403 . S
C1087 C1088 1.524 . S
C1087 C1091 1.400 . S
C1088 H1073 0.960 . S
C1088 H1074 0.960 . S
C1088 H1075 0.960 . S
C1088 C1087 1.524 . S
C1089 C1086 1.403 . S
C1089 C1090 1.392 . S
C1089 C1093 1.495 . S
C1090 C1089 1.392 . S
C1090 C1091 1.385 . S
C1090 C1092 1.478 . S
C1091 H1085 0.930 . S
C1091 C1087 1.400 . S
C1091 C1090 1.385 . S
C1092 C1090 1.478 . S
C1092 C1094 1.381 . S
C1092 C1098 1.383 . S
C1093 C1089 1.495 . S
C1093 H1099 0.959 . S
C1093 H1100 0.961 . S
C1093 H1101 0.960 . S
C1094 C1092 1.381 . S
C1094 C1095 1.394 . S
C1094 H1102 0.930 . S
C1095 C1094 1.394 . S
C1095 C1096 1.383 . S
C1095 H1103 0.929 . S
C1096 C1095 1.383 . S
C1096 C1097 1.377 . S
C1097 H1081 0.930 . S
C1097 C1096 1.377 . S
C1097 C1098 1.379 . S
C1098 H1082 0.931 . S
C1098 C1092 1.383 . S
C1098 C1097 1.379 . S
H1099 C1093 0.959 . S
H1100 C1093 0.961 . S
H1101 C1093 0.960 . S
H1102 C1094 0.930 . S
H1103 C1095 0.929 . S
H1104 C1112 0.929 . S
H1105 C1114 0.930 . S
H1106 C1116 0.930 . S
H1107 C1119 0.929 . S
H1108 C1122 0.930 . S
H1109 C1124 0.960 . S
H1110 C1124 0.960 . S
H1111 C1124 0.960 . S
C1112 H1104 0.929 . S
C1112 C1113 1.377 . S
C1112 C1114 1.384 . S
C1113 C1112 1.377 . S
C1113 C1119 1.390 . S
C1114 H1105 0.930 . S
C1114 C1112 1.384 . S
C1114 C1115 1.372 . S
C1115 C1114 1.372 . S
C1115 C1116 1.400 . S
C1115 C1120 1.490 . S
C1116 H1106 0.930 . S
C1116 C1115 1.400 . S
C1116 C1119 1.386 . S
H1117 C1133 0.930 . S
H1118 C1134 0.931 . S
C1119 H1107 0.929 . S
C1119 C1113 1.390 . S
C1119 C1116 1.386 . S
C1120 C1115 1.490 . S
C1120 C1122 1.395 . S
C1120 C1123 1.403 . S
H1121 C1127 0.930 . S
C1122 H1108 0.930 . S
C1122 C1120 1.395 . S
C1122 C1125 1.403 . S
C1123 C1120 1.403 . S
C1123 C1124 1.524 . S
C1123 C1127 1.400 . S
C1124 H1109 0.960 . S
C1124 H1110 0.960 . S
C1124 H1111 0.960 . S
C1124 C1123 1.524 . S
C1125 C1122 1.403 . S
C1125 C1126 1.392 . S
C1125 C1129 1.495 . S
C1126 C1125 1.392 . S
C1126 C1127 1.385 . S
C1126 C1128 1.478 . S
C1127 H1121 0.930 . S
C1127 C1123 1.400 . S
C1127 C1126 1.385 . S
C1128 C1126 1.478 . S
C1128 C1130 1.381 . S
C1128 C1134 1.383 . S
C1129 C1125 1.495 . S
C1129 H1135 0.959 . S
C1129 H1136 0.961 . S
C1129 H1137 0.960 . S
C1130 C1128 1.381 . S
C1130 C1131 1.394 . S
C1130 H1138 0.930 . S
C1131 C1130 1.394 . S
C1131 C1132 1.383 . S
C1131 H1139 0.929 . S
C1132 C1131 1.383 . S
C1132 C1133 1.377 . S
C1133 H1117 0.930 . S
C1133 C1132 1.377 . S
C1133 C1134 1.379 . S
C1134 H1118 0.931 . S
C1134 C1128 1.383 . S
C1134 C1133 1.379 . S
H1135 C1129 0.959 . S
H1136 C1129 0.961 . S
H1137 C1129 0.960 . S
H1138 C1130 0.930 . S
H1139 C1131 0.929 . S
H1140 C1148 0.929 . S
H1141 C1150 0.930 . S
H1142 C1152 0.930 . S
H1143 C1155 0.929 . S
H1144 C1158 0.930 . S
H1145 C1160 0.960 . S
H1146 C1160 0.960 . S
H1147 C1160 0.960 . S
C1148 H1140 0.929 . S
C1148 C1149 1.377 . S
C1148 C1150 1.384 . S
C1149 C1148 1.377 . S
C1149 C1155 1.390 1_455 S
C1150 H1141 0.930 . S
C1150 C1148 1.384 . S
C1150 C1151 1.372 . S
C1151 C1150 1.372 . S
C1151 C1152 1.400 1_455 S
C1151 C1156 1.490 . S
C1152 H1142 0.930 . S
C1152 C1151 1.400 1_655 S
C1152 C1155 1.386 . S
H1153 C1169 0.930 . S
H1154 C1170 0.931 . S
C1155 H1143 0.929 . S
C1155 C1149 1.390 1_655 S
C1155 C1152 1.386 . S
C1156 C1151 1.490 . S
C1156 C1158 1.395 . S
C1156 C1159 1.403 1_455 S
H1157 C1163 0.930 . S
C1158 H1144 0.930 . S
C1158 C1156 1.395 . S
C1158 C1161 1.403 . S
C1159 C1156 1.403 1_655 S
C1159 C1160 1.524 . S
C1159 C1163 1.400 . S
C1160 H1145 0.960 . S
C1160 H1146 0.960 . S
C1160 H1147 0.960 . S
C1160 C1159 1.524 . S
C1161 C1158 1.403 . S
C1161 C1162 1.392 . S
C1161 C1165 1.495 . S
C1162 C1161 1.392 . S
C1162 C1163 1.385 1_455 S
C1162 C1164 1.478 . S
C1163 H1157 0.930 . S
C1163 C1159 1.400 . S
C1163 C1162 1.385 1_655 S
C1164 C1162 1.478 . S
C1164 C1166 1.381 . S
C1164 C1170 1.383 1_455 S
C1165 C1161 1.495 . S
C1165 H1171 0.959 . S
C1165 H1172 0.961 . S
C1165 H1173 0.960 . S
C1166 C1164 1.381 . S
C1166 C1167 1.394 . S
C1166 H1174 0.930 . S
C1167 C1166 1.394 . S
C1167 C1168 1.383 1_455 S
C1167 H1175 0.929 . S
C1168 C1167 1.383 1_655 S
C1168 C1169 1.377 . S
C1169 H1153 0.930 . S
C1169 C1168 1.377 . S
C1169 C1170 1.379 . S
C1170 H1154 0.931 . S
C1170 C1164 1.383 1_655 S
C1170 C1169 1.379 . S
H1171 C1165 0.959 . S
H1172 C1165 0.961 . S
H1173 C1165 0.960 . S
H1174 C1166 0.930 . S
H1175 C1167 0.929 . S
H1176 C1184 0.929 . S
H1177 C1186 0.943 . S
H1178 C1188 0.930 . S
H1179 C1191 0.929 . S
H1180 C1194 0.930 . S
H1181 C1196 0.960 . S
H1182 C1196 0.960 . S
H1183 C1196 0.960 . S
C1184 H1176 0.929 . S
C1184 C1185 1.377 . S
C1184 C1186 1.384 . S
C1185 C1184 1.377 . S
C1185 C1191 1.390 . S
C1186 H1177 0.943 . S
C1186 C1184 1.384 . S
C1186 C1187 1.372 . S
C1187 C1186 1.372 . S
C1187 C1188 1.400 . S
C1187 C1192 1.490 . S
C1188 H1178 0.930 . S
C1188 C1187 1.400 . S
C1188 C1191 1.386 . S
H1189 C1205 0.930 . S
H1190 C1206 0.931 . S
C1191 H1179 0.929 . S
C1191 C1185 1.390 . S
C1191 C1188 1.386 . S
C1192 C1187 1.490 . S
C1192 C1194 1.395 1_565 S
C1192 C1195 1.403 . S
H1193 C1199 0.930 . S
C1194 H1180 0.930 . S
C1194 C1192 1.395 1_545 S
C1194 C1197 1.403 . S
C1195 C1192 1.403 . S
C1195 C1196 1.524 . S
C1195 C1199 1.400 . S
C1196 H1181 0.960 . S
C1196 H1182 0.960 . S
C1196 H1183 0.960 . S
C1196 C1195 1.524 . S
C1197 C1194 1.403 . S
C1197 C1198 1.392 . S
C1197 C1201 1.495 . S
C1198 C1197 1.392 . S
C1198 C1199 1.385 1_545 S
C1198 C1200 1.478 . S
C1199 H1193 0.930 . S
C1199 C1195 1.400 . S
C1199 C1198 1.385 1_565 S
C1200 C1198 1.478 . S
C1200 C1202 1.381 . S
C1200 C1206 1.383 . S
C1201 C1197 1.495 . S
C1201 H1207 0.959 . S
C1201 H1208 0.961 . S
C1201 H1209 0.960 . S
C1202 C1200 1.381 . S
C1202 C1203 1.394 . S
C1202 H1210 0.930 . S
C1203 C1202 1.394 . S
C1203 C1204 1.383 . S
C1203 H1211 0.929 . S
C1204 C1203 1.383 . S
C1204 C1205 1.377 . S
C1205 H1189 0.930 . S
C1205 C1204 1.377 . S
C1205 C1206 1.379 . S
C1206 H1190 0.931 . S
C1206 C1200 1.383 . S
C1206 C1205 1.379 . S
H1207 C1201 0.959 . S
H1208 C1201 0.961 . S
H1209 C1201 0.960 . S
H1210 C1202 0.930 . S
H1211 C1203 0.929 . S
H1212 C1220 0.929 . S
H1213 C1222 0.930 . S
H1214 C1224 0.930 . S
H1215 C1227 0.929 . S
H1216 C1230 0.930 . S
H1217 C1232 0.960 . S
H1218 C1232 0.960 . S
H1219 C1232 0.960 . S
C1220 H1212 0.929 . S
C1220 C1221 1.377 . S
C1220 C1222 1.384 . S
C1221 C1220 1.377 . S
C1221 C1227 1.390 . S
C1222 H1213 0.930 . S
C1222 C1220 1.384 . S
C1222 C1223 1.372 . S
C1223 C1222 1.372 . S
C1223 C1224 1.400 . S
C1223 C1228 1.490 . S
C1224 H1214 0.930 . S
C1224 C1223 1.400 . S
C1224 C1227 1.386 . S
H1225 C1241 0.930 . S
H1226 C1242 0.931 . S
C1227 H1215 0.929 . S
C1227 C1221 1.390 . S
C1227 C1224 1.386 . S
C1228 C1223 1.490 . S
C1228 C1230 1.395 . S
C1228 C1231 1.403 . S
H1229 C1235 0.930 . S
C1230 H1216 0.930 . S
C1230 C1228 1.395 . S
C1230 C1233 1.403 . S
C1231 C1228 1.403 . S
C1231 C1232 1.524 . S
C1231 C1235 1.400 . S
C1232 H1217 0.960 . S
C1232 H1218 0.960 . S
C1232 H1219 0.960 . S
C1232 C1231 1.524 . S
C1233 C1230 1.403 . S
C1233 C1234 1.392 . S
C1233 C1237 1.495 . S
C1234 C1233 1.392 . S
C1234 C1235 1.385 . S
C1234 C1236 1.478 . S
C1235 H1229 0.930 . S
C1235 C1231 1.400 . S
C1235 C1234 1.385 . S
C1236 C1234 1.478 . S
C1236 C1238 1.381 . S
C1236 C1242 1.383 . S
C1237 C1233 1.495 . S
C1237 H1243 0.959 . S
C1237 H1244 0.961 . S
C1237 H1245 0.960 . S
C1238 C1236 1.381 . S
C1238 C1239 1.394 . S
C1238 H1246 0.930 . S
C1239 C1238 1.394 . S
C1239 C1240 1.383 . S
C1239 H1247 0.929 . S
C1240 C1239 1.383 . S
C1240 C1241 1.377 . S
C1241 H1225 0.930 . S
C1241 C1240 1.377 . S
C1241 C1242 1.379 . S
C1242 H1226 0.931 . S
C1242 C1236 1.383 . S
C1242 C1241 1.379 . S
H1243 C1237 0.959 . S
H1244 C1237 0.961 . S
H1245 C1237 0.960 . S
H1246 C1238 0.930 . S
H1247 C1239 0.929 . S
H1248 C1256 0.929 . S
H1249 C1258 0.930 . S
H1250 C1260 0.930 . S
H1251 C1263 0.929 . S
H1252 C1266 0.930 . S
H1253 C1268 0.960 . S
H1254 C1268 0.960 . S
H1255 C1268 0.960 . S
C1256 H1248 0.929 . S
C1256 C1257 1.377 . S
C1256 C1258 1.384 . S
C1257 C1256 1.377 . S
C1257 C1263 1.390 1_565 S
C1258 H1249 0.930 . S
C1258 C1256 1.384 . S
C1258 C1259 1.372 . S
C1259 C1258 1.372 . S
C1259 C1260 1.400 1_565 S
C1259 C1264 1.490 . S
C1260 H1250 0.930 . S
C1260 C1259 1.400 1_545 S
C1260 C1263 1.386 . S
H1261 C1277 0.930 . S
H1262 C1278 0.931 . S
C1263 H1251 0.929 . S
C1263 C1257 1.390 1_545 S
C1263 C1260 1.386 . S
C1264 C1259 1.490 . S
C1264 C1266 1.395 . S
C1264 C1267 1.403 1_565 S
H1265 C1271 0.930 . S
C1266 H1252 0.930 . S
C1266 C1264 1.395 . S
C1266 C1269 1.403 . S
C1267 C1264 1.403 1_545 S
C1267 C1268 1.524 . S
C1267 C1271 1.400 . S
C1268 H1253 0.960 . S
C1268 H1254 0.960 . S
C1268 H1255 0.960 . S
C1268 C1267 1.524 . S
C1269 C1266 1.403 . S
C1269 C1270 1.392 . S
C1269 C1273 1.495 . S
C1270 C1269 1.392 . S
C1270 C1271 1.385 1_565 S
C1270 C1272 1.480 1_565 S
C1271 H1265 0.930 . S
C1271 C1267 1.400 . S
C1271 C1270 1.385 1_545 S
C1272 C1270 1.480 1_545 S
C1272 C1274 1.377 1_545 S
C1272 C1278 1.385 . S
C1273 C1269 1.495 . S
C1273 H1279 0.959 . S
C1273 H1280 0.961 . S
C1273 H1281 0.960 . S
C1274 C1272 1.377 1_565 S
C1274 C1275 1.394 . S
C1274 H1282 0.930 . S
C1275 C1274 1.394 . S
C1275 C1276 1.383 1_565 S
C1275 H1283 0.929 . S
C1276 C1275 1.383 1_545 S
C1276 C1277 1.377 . S
C1277 H1261 0.930 . S
C1277 C1276 1.377 . S
C1277 C1278 1.379 . S
C1278 H1262 0.931 . S
C1278 C1272 1.385 . S
C1278 C1277 1.379 . S
H1279 C1273 0.959 . S
H1280 C1273 0.961 . S
H1281 C1273 0.960 . S
H1282 C1274 0.930 . S
H1283 C1275 0.929 . S
H1284 C1292 0.929 . S
H1285 C1294 0.930 . S
H1286 C1296 0.930 . S
H1287 C1299 0.929 . S
H1288 C1302 0.930 . S
H1289 C1304 0.960 . S
H1290 C1304 0.960 . S
H1291 C1304 0.960 . S
C1292 H1284 0.929 . S
C1292 C1293 1.377 . S
C1292 C1294 1.384 . S
C1293 C1292 1.377 . S
C1293 C1299 1.390 . S
C1294 H1285 0.930 . S
C1294 C1292 1.384 . S
C1294 C1295 1.372 . S
C1295 C1294 1.372 . S
C1295 C1296 1.400 . S
C1295 C1300 1.490 . S
C1296 H1286 0.930 . S
C1296 C1295 1.400 . S
C1296 C1299 1.386 . S
H1297 C1313 0.930 . S
H1298 C1314 0.931 . S
C1299 H1287 0.929 . S
C1299 C1293 1.390 . S
C1299 C1296 1.386 . S
C1300 C1295 1.490 . S
C1300 C1302 1.395 . S
C1300 C1303 1.403 . S
H1301 C1307 0.930 . S
C1302 H1288 0.930 . S
C1302 C1300 1.395 . S
C1302 C1305 1.403 . S
C1303 C1300 1.403 . S
C1303 C1304 1.524 . S
C1303 C1307 1.400 . S
C1304 H1289 0.960 . S
C1304 H1290 0.960 . S
C1304 H1291 0.960 . S
C1304 C1303 1.524 . S
C1305 C1302 1.403 . S
C1305 C1306 1.392 . S
C1305 C1309 1.495 . S
C1306 C1305 1.392 . S
C1306 C1307 1.385 . S
C1306 C1308 1.478 . S
C1307 H1301 0.930 . S
C1307 C1303 1.400 . S
C1307 C1306 1.385 . S
C1308 C1306 1.478 . S
C1308 C1310 1.381 . S
C1308 C1314 1.383 . S
C1309 C1305 1.495 . S
C1309 H1315 0.959 . S
C1309 H1316 0.961 . S
C1309 H1317 0.960 . S
C1310 C1308 1.381 . S
C1310 C1311 1.394 . S
C1310 H1318 0.930 . S
C1311 C1310 1.394 . S
C1311 C1312 1.383 . S
C1311 H1319 0.929 . S
C1312 C1311 1.383 . S
C1312 C1313 1.377 . S
C1313 H1297 0.930 . S
C1313 C1312 1.377 . S
C1313 C1314 1.379 . S
C1314 H1298 0.931 . S
C1314 C1308 1.383 . S
C1314 C1313 1.379 . S
H1315 C1309 0.959 . S
H1316 C1309 0.961 . S
H1317 C1309 0.960 . S
H1318 C1310 0.930 . S
H1319 C1311 0.929 . S
H1320 C1328 0.929 . S
H1321 C1330 0.930 . S
H1322 C1332 0.930 . S
H1323 C1335 0.929 . S
H1324 C1338 0.930 . S
H1325 C1340 0.960 . S
H1326 C1340 0.960 . S
H1327 C1340 0.960 . S
C1328 H1320 0.929 . S
C1328 C1329 1.377 1_455 S
C1328 C1330 1.384 . S
C1329 C1328 1.377 1_655 S
C1329 C1335 1.390 . S
C1330 H1321 0.930 . S
C1330 C1328 1.384 . S
C1330 C1331 1.372 1_455 S
C1331 C1330 1.372 1_655 S
C1331 C1332 1.400 . S
C1331 C1336 1.490 . S
C1332 H1322 0.930 . S
C1332 C1331 1.400 . S
C1332 C1335 1.386 . S
H1333 C1349 0.930 . S
H1334 C1350 0.931 . S
C1335 H1323 0.929 . S
C1335 C1329 1.390 . S
C1335 C1332 1.386 . S
C1336 C1331 1.490 . S
C1336 C1338 1.395 1_655 S
C1336 C1339 1.403 . S
H1337 C1343 0.930 . S
C1338 H1324 0.930 . S
C1338 C1336 1.395 1_455 S
C1338 C1341 1.403 . S
C1339 C1336 1.403 . S
C1339 C1340 1.524 . S
C1339 C1343 1.400 . S
C1340 H1325 0.960 . S
C1340 H1326 0.960 . S
C1340 H1327 0.960 . S
C1340 C1339 1.524 . S
C1341 C1338 1.403 . S
C1341 C1342 1.392 . S
C1341 C1345 1.495 . S
C1342 C1341 1.392 . S
C1342 C1343 1.385 1_455 S
C1342 C1344 1.478 . S
C1343 H1337 0.930 . S
C1343 C1339 1.400 . S
C1343 C1342 1.385 1_655 S
C1344 C1342 1.478 . S
C1344 C1346 1.381 . S
C1344 C1350 1.383 1_455 S
C1345 C1341 1.495 . S
C1345 H1351 0.959 . S
C1345 H1352 0.961 . S
C1345 H1353 0.960 . S
C1346 C1344 1.381 . S
C1346 C1347 1.394 . S
C1346 H1354 0.930 . S
C1347 C1346 1.394 . S
C1347 C1348 1.383 . S
C1347 H1355 0.929 . S
C1348 C1347 1.383 . S
C1348 C1349 1.377 1_455 S
C1349 H1333 0.930 . S
C1349 C1348 1.377 1_655 S
C1349 C1350 1.379 . S
C1350 H1334 0.931 . S
C1350 C1344 1.383 1_655 S
C1350 C1349 1.379 . S
H1351 C1345 0.959 . S
H1352 C1345 0.961 . S
H1353 C1345 0.960 . S
H1354 C1346 0.930 . S
H1355 C1347 0.929 . S
H1356 C1364 0.929 . S
H1357 C1366 0.930 . S
H1358 C1368 0.930 . S
H1359 C1371 0.929 . S
H1360 C1374 0.930 . S
H1361 C1376 0.960 . S
H1362 C1376 0.960 . S
H1363 C1376 0.960 1_455 S
C1364 H1356 0.929 . S
C1364 C1365 1.377 . S
C1364 C1366 1.384 . S
C1365 C1364 1.377 . S
C1365 C1371 1.390 1_655 S
C1366 H1357 0.930 . S
C1366 C1364 1.384 . S
C1366 C1367 1.372 . S
C1367 C1366 1.372 . S
C1367 C1368 1.400 1_655 S
C1367 C1372 1.490 . S
C1368 H1358 0.930 . S
C1368 C1367 1.400 1_455 S
C1368 C1371 1.386 . S
H1369 C1385 0.930 . S
H1370 C1386 0.931 . S
C1371 H1359 0.929 . S
C1371 C1365 1.390 1_455 S
C1371 C1368 1.386 . S
C1372 C1367 1.490 . S
C1372 C1374 1.395 1_655 S
C1372 C1375 1.403 . S
H1373 C1379 0.930 . S
C1374 H1360 0.930 . S
C1374 C1372 1.395 1_455 S
C1374 C1377 1.403 1_545 S
C1375 C1372 1.403 . S
C1375 C1376 1.524 . S
C1375 C1379 1.400 1_545 S
C1376 H1361 0.960 . S
C1376 H1362 0.960 . S
C1376 H1363 0.960 1_655 S
C1376 C1375 1.524 . S
C1377 C1374 1.403 1_565 S
C1377 C1378 1.392 . S
C1377 C1381 1.495 . S
C1378 C1377 1.392 . S
C1378 C1379 1.385 1_455 S
C1378 C1380 1.478 . S
C1379 H1373 0.930 . S
C1379 C1375 1.400 1_565 S
C1379 C1378 1.385 1_655 S
C1380 C1378 1.478 . S
C1380 C1382 1.381 1_455 S
C1380 C1386 1.383 . S
C1381 C1377 1.495 . S
C1381 H1387 0.959 . S
C1381 H1388 0.961 . S
C1381 H1389 0.960 1_455 S
C1382 C1380 1.381 1_655 S
C1382 C1383 1.394 . S
C1382 H1390 0.930 . S
C1383 C1382 1.394 . S
C1383 C1384 1.383 1_655 S
C1383 H1391 0.929 . S
C1384 C1383 1.383 1_455 S
C1384 C1385 1.377 . S
C1385 H1369 0.930 . S
C1385 C1384 1.377 . S
C1385 C1386 1.379 . S
C1386 H1370 0.931 . S
C1386 C1380 1.383 . S
C1386 C1385 1.379 . S
H1387 C1381 0.959 . S
H1388 C1381 0.961 . S
H1389 C1381 0.960 1_655 S
H1390 C1382 0.930 . S
H1391 C1383 0.929 . S
H1392 C1400 0.929 . S
H1393 C1402 0.930 . S
H1394 C1404 0.930 . S
H1395 C1407 0.929 1_545 S
H1396 C1410 0.930 . S
H1397 C1412 0.960 1_455 S
H1398 C1412 0.960 . S
H1399 C1412 0.960 . S
C1400 H1392 0.929 . S
C1400 C1401 1.377 . S
C1400 C1402 1.384 . S
C1401 C1400 1.377 . S
C1401 C1407 1.390 . S
C1402 H1393 0.930 . S
C1402 C1400 1.384 . S
C1402 C1403 1.372 . S
C1403 C1402 1.372 . S
C1403 C1404 1.400 1_565 S
C1403 C1408 1.490 . S
C1404 H1394 0.930 . S
C1404 C1403 1.400 1_545 S
C1404 C1407 1.386 1_545 S
H1405 C1421 0.930 . S
H1406 C1422 0.931 . S
C1407 H1395 0.929 1_565 S
C1407 C1401 1.390 . S
C1407 C1404 1.386 1_565 S
C1408 C1403 1.490 . S
C1408 C1410 1.395 . S
C1408 C1411 1.403 1_565 S
H1409 C1415 0.930 . S
C1410 H1396 0.930 . S
C1410 C1408 1.395 . S
C1410 C1413 1.403 1_655 S
C1411 C1408 1.403 1_545 S
C1411 C1412 1.524 . S
C1411 C1415 1.400 1_655 S
C1412 H1397 0.960 1_655 S
C1412 H1398 0.960 . S
C1412 H1399 0.960 . S
C1412 C1411 1.524 . S
C1413 C1410 1.403 1_455 S
C1413 C1414 1.392 . S
C1413 C1417 1.495 . S
C1414 C1413 1.392 . S
C1414 C1415 1.385 1_565 S
C1414 C1416 1.478 1_565 S
C1415 H1409 0.930 . S
C1415 C1411 1.400 1_455 S
C1415 C1414 1.385 1_545 S
C1416 C1414 1.478 1_545 S
C1416 C1418 1.381 1_545 S
C1416 C1422 1.383 . S
C1417 C1413 1.495 . S
C1417 H1423 0.959 1_455 S
C1417 H1424 0.961 . S
C1417 H1425 0.960 . S
C1418 C1416 1.381 1_565 S
C1418 C1419 1.394 1_565 S
C1418 H1426 0.930 . S
C1419 C1418 1.394 1_545 S
C1419 C1420 1.383 . S
C1419 H1427 0.929 1_545 S
C1420 C1419 1.383 . S
C1420 C1421 1.377 . S
C1421 H1405 0.930 . S
C1421 C1420 1.377 . S
C1421 C1422 1.379 . S
C1422 H1406 0.931 . S
C1422 C1416 1.383 . S
C1422 C1421 1.379 . S
H1423 C1417 0.959 1_655 S
H1424 C1417 0.961 . S
H1425 C1417 0.960 . S
H1426 C1418 0.930 . S
H1427 C1419 0.929 1_565 S
H1428 C1436 0.929 . S
H1429 C1438 0.930 . S
H1430 C1440 0.930 . S
H1431 C1443 0.929 . S
H1432 C1446 0.930 . S
H1433 C1448 0.960 . S
H1434 C1448 0.960 . S
H1435 C1448 0.960 . S
C1436 H1428 0.929 . S
C1436 C1437 1.377 . S
C1436 C1438 1.384 . S
C1437 C1436 1.377 . S
C1437 C1443 1.390 . S
C1438 H1429 0.930 . S
C1438 C1436 1.384 . S
C1438 C1439 1.372 . S
C1439 C1438 1.372 . S
C1439 C1440 1.400 . S
C1439 C1444 1.490 . S
C1440 H1430 0.930 . S
C1440 C1439 1.400 . S
C1440 C1443 1.386 . S
H1441 C1457 0.930 . S
H1442 C1458 0.931 . S
C1443 H1431 0.929 . S
C1443 C1437 1.390 . S
C1443 C1440 1.386 . S
C1444 C1439 1.490 . S
C1444 C1446 1.395 . S
C1444 C1447 1.403 . S
H1445 C1451 0.930 . S
C1446 H1432 0.930 . S
C1446 C1444 1.395 . S
C1446 C1449 1.403 1_445 S
C1447 C1444 1.403 . S
C1447 C1448 1.524 . S
C1447 C1451 1.400 1_445 S
C1448 H1433 0.960 . S
C1448 H1434 0.960 . S
C1448 H1435 0.960 . S
C1448 C1447 1.524 . S
C1449 C1446 1.403 1_665 S
C1449 C1450 1.392 . S
C1449 C1453 1.495 . S
C1450 C1449 1.392 . S
C1450 C1451 1.385 . S
C1450 C1452 1.478 . S
C1451 H1445 0.930 . S
C1451 C1447 1.400 1_665 S
C1451 C1450 1.385 . S
C1452 C1450 1.478 . S
C1452 C1454 1.381 . S
C1452 C1458 1.383 . S
C1453 C1449 1.495 . S
C1453 H1459 0.959 . S
C1453 H1460 0.961 . S
C1453 H1461 0.960 . S
C1454 C1452 1.381 . S
C1454 C1455 1.394 . S
C1454 H1462 0.930 . S
C1455 C1454 1.394 . S
C1455 C1456 1.383 . S
C1455 H1463 0.929 . S
C1456 C1455 1.383 . S
C1456 C1457 1.377 . S
C1457 H1441 0.930 . S
C1457 C1456 1.377 . S
C1457 C1458 1.379 . S
C1458 H1442 0.931 . S
C1458 C1452 1.383 . S
C1458 C1457 1.379 . S
H1459 C1453 0.959 . S
H1460 C1453 0.961 . S
H1461 C1453 0.960 . S
H1462 C1454 0.930 . S
H1463 C1455 0.929 . S
H1464 C1472 0.929 . S
H1465 C1474 0.930 . S
H1466 C1476 0.930 . S
H1467 C1479 0.929 . S
H1468 C1482 0.930 . S
H1469 C1484 0.960 . S
H1470 C1484 0.960 . S
H1471 C1484 0.960 . S
C1472 H1464 0.929 . S
C1472 C1473 1.377 . S
C1472 C1474 1.384 . S
C1473 C1472 1.377 . S
C1473 C1479 1.390 1_545 S
C1474 H1465 0.930 . S
C1474 C1472 1.384 . S
C1474 C1475 1.372 . S
C1475 C1474 1.372 . S
C1475 C1476 1.400 1_545 S
C1475 C1480 1.490 . S
C1476 H1466 0.930 . S
C1476 C1475 1.400 1_565 S
C1476 C1479 1.386 . S
H1477 C1493 0.930 . S
H1478 C1494 0.931 . S
C1479 H1467 0.929 . S
C1479 C1473 1.390 1_565 S
C1479 C1476 1.386 . S
C1480 C1475 1.490 . S
C1480 C1482 1.395 1_655 S
C1480 C1483 1.403 1_545 S
H1481 C1487 0.930 . S
C1482 H1468 0.930 . S
C1482 C1480 1.395 1_455 S
C1482 C1485 1.403 . S
C1483 C1480 1.403 1_565 S
C1483 C1484 1.524 . S
C1483 C1487 1.400 1_655 S
C1484 H1469 0.960 . S
C1484 H1470 0.960 . S
C1484 H1471 0.960 . S
C1484 C1483 1.524 . S
C1485 C1482 1.403 . S
C1485 C1486 1.392 . S
C1485 C1489 1.495 . S
C1486 C1485 1.392 . S
C1486 C1487 1.385 1_545 S
C1486 C1488 1.463 1_545 S
C1487 H1481 0.930 . S
C1487 C1483 1.400 1_455 S
C1487 C1486 1.385 1_565 S
C1488 C1486 1.463 1_565 S
C1488 C1490 1.378 1_565 S
C1488 C1494 1.401 . S
C1489 C1485 1.495 . S
C1489 H1495 0.959 . S
C1489 H1496 0.961 . S
C1489 H1497 0.960 . S
C1490 C1488 1.378 1_545 S
C1490 C1491 1.394 . S
C1490 H1498 0.930 . S
C1491 C1490 1.394 . S
C1491 C1492 1.383 1_545 S
C1491 H1499 0.929 . S
C1492 C1491 1.383 1_565 S
C1492 C1493 1.377 . S
C1493 H1477 0.930 . S
C1493 C1492 1.377 . S
C1493 C1494 1.379 . S
C1494 H1478 0.931 . S
C1494 C1488 1.401 . S
C1494 C1493 1.379 . S
H1495 C1489 0.959 . S
H1496 C1489 0.961 . S
H1497 C1489 0.960 . S
H1498 C1490 0.930 . S
H1499 C1491 0.929 . S
H1500 C1508 0.929 . S
H1501 C1510 0.930 . S
H1502 C1512 0.930 . S
H1503 C1515 0.929 . S
H1504 C1518 0.930 . S
H1505 C1520 0.960 1_545 S
H1506 C1520 0.960 . S
H1507 C1520 0.960 . S
C1508 H1500 0.929 . S
C1508 C1509 1.377 . S
C1508 C1510 1.384 . S
C1509 C1508 1.377 . S
C1509 C1515 1.390 . S
C1510 H1501 0.930 . S
C1510 C1508 1.384 . S
C1510 C1511 1.372 . S
C1511 C1510 1.372 . S
C1511 C1512 1.400 . S
C1511 C1516 1.490 . S
C1512 H1502 0.930 . S
C1512 C1511 1.400 . S
C1512 C1515 1.386 . S
H1513 C1529 0.930 . S
H1514 C1530 0.931 . S
C1515 H1503 0.929 . S
C1515 C1509 1.390 . S
C1515 C1512 1.386 . S
C1516 C1511 1.490 . S
C1516 C1518 1.395 . S
C1516 C1519 1.403 . S
H1517 C1523 0.930 . S
C1518 H1504 0.930 . S
C1518 C1516 1.395 . S
C1518 C1521 1.403 1_665 S
C1519 C1516 1.403 . S
C1519 C1520 1.524 . S
C1519 C1523 1.400 1_665 S
C1520 H1505 0.960 1_565 S
C1520 H1506 0.960 . S
C1520 H1507 0.960 . S
C1520 C1519 1.524 . S
C1521 C1518 1.403 1_445 S
C1521 C1522 1.392 . S
C1521 C1525 1.495 . S
C1522 C1521 1.392 . S
C1522 C1523 1.385 . S
C1522 C1524 1.478 . S
C1523 H1517 0.930 . S
C1523 C1519 1.400 1_445 S
C1523 C1522 1.385 . S
C1524 C1522 1.478 . S
C1524 C1526 1.381 . S
C1524 C1530 1.383 . S
C1525 C1521 1.495 . S
C1525 H1531 0.959 1_545 S
C1525 H1532 0.961 . S
C1525 H1533 0.960 . S
C1526 C1524 1.381 . S
C1526 C1527 1.394 . S
C1526 H1534 0.930 . S
C1527 C1526 1.394 . S
C1527 C1528 1.383 . S
C1527 H1535 0.929 . S
C1528 C1527 1.383 . S
C1528 C1529 1.377 . S
C1529 H1513 0.930 . S
C1529 C1528 1.377 . S
C1529 C1530 1.379 . S
C1530 H1514 0.931 . S
C1530 C1524 1.383 . S
C1530 C1529 1.379 . S
H1531 C1525 0.959 1_565 S
H1532 C1525 0.961 . S
H1533 C1525 0.960 . S
H1534 C1526 0.930 . S
H1535 C1527 0.929 . S
H1536 C1544 0.929 . S
H1537 C1546 0.930 . S
H1538 C1548 0.930 . S
H1539 C1551 0.929 . S
H1540 C1554 0.930 . S
H1541 C1556 0.970 1_455 S
H1542 C1556 0.960 1_455 S
H1543 C1556 0.960 . S
C1544 H1536 0.929 . S
C1544 C1545 1.377 1_455 S
C1544 C1546 1.384 . S
C1545 C1544 1.377 1_655 S
C1545 C1551 1.390 . S
C1546 H1537 0.930 . S
C1546 C1544 1.384 . S
C1546 C1547 1.372 1_455 S
C1547 C1546 1.372 1_655 S
C1547 C1548 1.400 . S
C1547 C1552 1.490 . S
C1548 H1538 0.930 . S
C1548 C1547 1.400 . S
C1548 C1551 1.386 . S
H1549 C1565 0.930 . S
H1550 C1566 0.931 . S
C1551 H1539 0.929 . S
C1551 C1545 1.390 . S
C1551 C1548 1.386 . S
C1552 C1547 1.490 . S
C1552 C1554 1.395 . S
C1552 C1555 1.403 . S
H1553 C1559 0.930 . S
C1554 H1540 0.930 . S
C1554 C1552 1.395 . S
C1554 C1557 1.403 1_665 S
C1555 C1552 1.403 . S
C1555 C1556 1.524 . S
C1555 C1559 1.400 1_665 S
C1556 H1541 0.970 1_655 S
C1556 H1542 0.960 1_655 S
C1556 H1543 0.960 . S
C1556 C1555 1.524 . S
C1557 C1554 1.403 1_445 S
C1557 C1558 1.392 . S
C1557 C1561 1.495 . S
C1558 C1557 1.392 . S
C1558 C1559 1.385 . S
C1558 C1560 1.478 . S
C1559 H1553 0.930 . S
C1559 C1555 1.400 1_445 S
C1559 C1558 1.385 . S
C1560 C1558 1.478 . S
C1560 C1562 1.381 . S
C1560 C1566 1.383 1_455 S
C1561 C1557 1.495 . S
C1561 H1567 0.959 . S
C1561 H1568 0.961 1_455 S
C1561 H1569 0.960 . S
C1562 C1560 1.381 . S
C1562 C1563 1.394 . S
C1562 H1570 0.930 . S
C1563 C1562 1.394 . S
C1563 C1564 1.383 . S
C1563 H1571 0.929 . S
C1564 C1563 1.383 . S
C1564 C1565 1.377 1_455 S
C1565 H1549 0.930 . S
C1565 C1564 1.377 1_655 S
C1565 C1566 1.379 . S
C1566 H1550 0.931 . S
C1566 C1560 1.383 1_655 S
C1566 C1565 1.379 . S
H1567 C1561 0.959 . S
H1568 C1561 0.961 1_655 S
H1569 C1561 0.960 . S
H1570 C1562 0.930 . S
H1571 C1563 0.929 . S
C717 C652 1.361 . S
C736 C3 1.338 . S
C753 C62 1.372 . S
C772 C357 1.353 . S
C789 C121 1.363 . S
C808 C416 1.344 . S
C825 C180 1.355 . S
C844 C475 1.346 . S
C861 C534 1.378 . S
C880 C239 1.390 . S
C897 C298 1.370 . S
C916 C593 1.376 . S
C933 C33 1.194 . S
C952 C623 1.174 . S
C969 C92 1.248 . S
C988 C682 1.237 . S
C1005 C151 1.254 . S
C1024 C387 1.243 . S
C1041 C210 1.193 . S
C1060 C446 1.203 . S
C1077 C505 1.243 . S
C1096 C269 1.256 . S
C1113 C564 1.249 . S
C1132 C328 1.260 . S
C1149 C182 1.272 1_455 S
C1168 C5 1.271 1_655 S
C1185 C64 1.391 . S
C1204 C241 1.407 . S
C1221 C300 1.456 . S
C1240 C123 1.429 . S
C1257 C536 1.386 . S
C1276 C359 1.360 . S
C1293 C595 1.305 . S
C1312 C418 1.285 . S
C1329 C477 1.395 . S
C1348 C654 1.414 . S
C1365 C52 1.190 1_655 S
C1384 C229 1.200 1_455 S
C1401 C111 1.178 . S
C1420 C288 1.152 . S
C1437 C347 1.306 . S
C1456 C170 1.294 . S
C1473 C406 1.144 . S
C1492 C583 1.124 . S
C1509 C465 1.183 . S
C1528 C642 1.198 . S
C1545 C524 1.235 . S
C1564 C701 1.228 . S
