# Generated by pormake.
# Topology qtz, (4)-cn, num edge types: 1
# Building blocks:
#     Node 0, Type 0, BuildingBlock: UXUYUI_clean_sbu_0, # of connection points: 4
#     Node 1, Type 0, BuildingBlock: UXUYUI_clean_sbu_0, # of connection points: 4
#     Node 2, Type 0, BuildingBlock: UXUYUI_clean_sbu_0, # of connection points: 4
#     Edge 3, Type (0, 0), BuildingBlock: AJUNOK_clean_linker_0, # of connection points: 2
#     Edge 4, Type (0, 0), BuildingBlock: AJUNOK_clean_linker_0, # of connection points: 2
#     Edge 5, Type (0, 0), BuildingBlock: AJUNOK_clean_linker_0, # of connection points: 2
#     Edge 6, Type (0, 0), BuildingBlock: AJUNOK_clean_linker_0, # of connection points: 2
#     Edge 7, Type (0, 0), BuildingBlock: AJUNOK_clean_linker_0, # of connection points: 2
#     Edge 8, Type (0, 0), BuildingBlock: AJUNOK_clean_linker_0, # of connection points: 2
# Relax obj value: 0.181
# Max RMSD: 0.212
# Mean RMSD: 0.212
data_MOF--net-qtz--node1-UXUYUI_clean_sbu_0--edge1-AJUNOK_clean_linker_0
_symmetry_space_group_name_H-M    P1
_symmetry_Int_Tables_number       1
_symmetry_cell_setting            triclinic
loop_
_symmetry_equiv_pos_as_xyz
'x, y, z'
_cell_length_a     28.222209
_cell_length_b     28.217948
_cell_length_c     33.596519
_cell_angle_alpha  89.966394
_cell_angle_beta   90.048677
_cell_angle_gamma 120.0206
loop_
_atom_site_label
_atom_site_type_symbol
_atom_site_fract_x
_atom_site_fract_y
_atom_site_fract_z
_atom_type_partial_charge
Li0 Li 0.03682 0.49524 0.1394 0.0
Li1 Li 0.03856 0.55889 0.18978 0.0
Li2 Li 0.96449 0.45976 0.19139 0.0
Li3 Li 0.96541 0.52391 0.14142 0.0
C4 C 0.06892 0.46443 0.21249 0.0
N5 N 0.11701 0.40737 0.24261 0.0
C6 C 0.12036 0.49244 0.23062 0.0
C7 C 0.04159 0.40733 0.21027 0.0
C8 C 0.14411 0.46289 0.24547 0.0
C9 C 0.06665 0.37924 0.22553 0.0
C10 C 0.0866 0.62133 0.1261 0.0
C11 C 0.12137 0.71858 0.12972 0.0
N12 N 0.17136 0.72777 0.11788 0.0
C13 C 0.13816 0.63169 0.11363 0.0
C14 C 0.07793 0.66504 0.13389 0.0
C15 C 0.18054 0.68581 0.10977 0.0
C16 C 0.06463 0.46491 0.06715 0.0
N17 N 0.0813 0.4799 0.10536 0.0
C18 C 0.16462 0.47993 0.09271 0.0
C19 C 0.13025 0.48761 0.11846 0.0
C20 C 0.14858 0.46461 0.05306 0.0
C21 C 0.09783 0.45697 0.04033 0.0
H22 H 0.02591 0.46003 0.05737 0.0
H23 H 0.14346 0.50138 0.14851 0.0
C24 C 0.06936 0.63952 0.25077 0.0
N25 N 0.08789 0.61872 0.22217 0.0
C26 C 0.10629 0.6801 0.27664 0.0
C27 C 0.18043 0.678 0.24227 0.0
C28 C 0.14219 0.63732 0.21738 0.0
C29 C 0.16257 0.69898 0.27301 0.0
H30 H 0.02587 0.62354 0.2542 0.0
H31 H 0.15573 0.61956 0.19474 0.0
C32 C 0.92874 0.39852 0.11696 0.0
N33 N 0.87347 0.29437 0.08493 0.0
C34 C 0.87685 0.37868 0.10018 0.0
C35 C 0.9528 0.3656 0.11693 0.0
C36 C 0.84948 0.32585 0.08429 0.0
C37 C 0.92414 0.31303 0.10073 0.0
C38 C 0.91766 0.53748 0.20603 0.0
C39 C 0.866 0.49562 0.21777 0.0
C40 C 0.92635 0.5902 0.19973 0.0
C41 C 0.82354 0.50707 0.22238 0.0
C42 C 0.88282 0.59997 0.20459 0.0
N43 N 0.83274 0.55855 0.21569 0.0
C44 C 0.93178 0.40935 0.26563 0.0
C45 C 0.87682 0.3528 0.21285 0.0
C46 C 0.89955 0.36945 0.29356 0.0
N47 N 0.91983 0.4005 0.22617 0.0
C48 C 0.84384 0.31159 0.23971 0.0
C49 C 0.85494 0.31986 0.28062 0.0
H50 H 0.96599 0.44787 0.27538 0.0
H51 H 0.86724 0.3469 0.18157 0.0
C52 C 0.9404 0.57771 0.08032 0.0
N53 N 0.91874 0.53864 0.1091 0.0
C54 C 0.90606 0.58632 0.05499 0.0
C55 C 0.82799 0.51491 0.08983 0.0
C56 C 0.86372 0.50726 0.1141 0.0
C57 C 0.84912 0.55469 0.05973 0.0
H58 H 0.98428 0.60148 0.07654 0.0
H59 H 0.84751 0.47542 0.13641 0.0
O60 O 0.04503 0.49284 0.198 0.0
O61 O 0.04478 0.56864 0.13047 0.0
O62 O 0.95605 0.45021 0.13261 0.0
O63 O 0.95955 0.52692 0.20093 0.0
H64 H 0.14188 0.53656 0.23306 0.0
H65 H 0.00121 0.3848 0.19737 0.0
H66 H 0.18405 0.4841 0.25934 0.0
H67 H 0.04596 0.33505 0.22393 0.0
H68 H 0.11534 0.75282 0.13588 0.0
H69 H 0.14548 0.59833 0.10727 0.0
H70 H 0.03816 0.65769 0.1432 0.0
H71 H 0.22075 0.69445 0.10038 0.0
H72 H 0.20412 0.48772 0.10334 0.0
H73 H 0.08425 0.44547 0.00989 0.0
H74 H 0.09093 0.69522 0.30002 0.0
H75 H 0.22352 0.69228 0.2379 0.0
H76 H 0.85776 0.40367 0.09959 0.0
H77 H 0.99337 0.38058 0.12888 0.0
H78 H 0.80918 0.3099 0.07142 0.0
H79 H 0.94227 0.28713 0.10059 0.0
H80 H 0.85861 0.45461 0.22289 0.0
H81 H 0.9662 0.62313 0.19102 0.0
H82 H 0.78325 0.475 0.23119 0.0
H83 H 0.88885 0.6405 0.19956 0.0
H84 H 0.90918 0.37729 0.32493 0.0
H85 H 0.80906 0.2743 0.22871 0.0
H86 H 0.92371 0.61709 0.03185 0.0
H87 H 0.78426 0.48888 0.09376 0.0
Li88 Li 0.55436 0.04153 0.47325 0.0
Li89 Li 0.48869 0.04435 0.52544 0.0
Li90 Li 0.51297 0.972 0.52536 0.0
Li91 Li 0.4571 0.97416 0.47396 0.0
C92 C 0.59732 0.05143 0.56016 0.0
N93 N 0.66339 0.04356 0.61733 0.0
C94 C 0.58578 0.05218 0.60051 0.0
C95 C 0.64255 0.04696 0.54882 0.0
C96 C 0.61966 0.04807 0.62898 0.0
C97 C 0.67546 0.04298 0.5782 0.0
C98 C 0.45623 0.05628 0.43928 0.0
C99 C 0.37411 0.05864 0.42341 0.0
N100 N 0.38257 0.05409 0.38409 0.0
C101 C 0.46442 0.05213 0.39871 0.0
C102 C 0.41098 0.05996 0.45177 0.0
C103 C 0.4266 0.05089 0.37127 0.0
C104 C 0.61463 0.07314 0.40201 0.0
N105 N 0.61581 0.08613 0.44106 0.0
C106 C 0.70091 0.16899 0.4322 0.0
C107 C 0.65796 0.13259 0.45661 0.0
C108 C 0.70011 0.15761 0.3914 0.0
C109 C 0.65641 0.10865 0.37643 0.0
H110 H 0.58027 0.03603 0.39049 0.0
H111 H 0.6575 0.14202 0.48776 0.0
C112 C 0.45754 0.07733 0.59539 0.0
N113 N 0.47744 0.09261 0.55787 0.0
C114 C 0.45429 0.1147 0.62088 0.0
C115 C 0.49167 0.18248 0.56847 0.0
C116 C 0.49386 0.14372 0.54391 0.0
C117 C 0.47252 0.1683 0.60767 0.0
H118 H 0.44551 0.03655 0.60579 0.0
H119 H 0.50992 0.15471 0.51401 0.0
C120 C 0.51211 0.911 0.4605 0.0
N121 N 0.49582 0.8076 0.44576 0.0
C122 C 0.46336 0.86475 0.47207 0.0
C123 C 0.55255 0.90474 0.44132 0.0
C124 C 0.45587 0.81281 0.46436 0.0
C125 C 0.54357 0.85209 0.43419 0.0
C126 C 0.38651 0.93531 0.54116 0.0
C127 C 0.3623 0.87913 0.54838 0.0
C128 C 0.35523 0.9609 0.54487 0.0
C129 C 0.3068 0.84923 0.55816 0.0
C130 C 0.29987 0.92959 0.55478 0.0
N131 N 0.27698 0.87485 0.56109 0.0
C132 C 0.49478 0.91218 0.59531 0.0
C133 C 0.55962 0.90763 0.55306 0.0
C134 C 0.49889 0.87728 0.6227 0.0
N135 N 0.52444 0.92612 0.56113 0.0
C136 C 0.56489 0.87239 0.57963 0.0
C137 C 0.53398 0.85657 0.61489 0.0
H138 H 0.46767 0.92807 0.60119 0.0
H139 H 0.58327 0.91988 0.52589 0.0
C140 C 0.41581 0.91549 0.40342 0.0
N141 N 0.39925 0.93005 0.43696 0.0
C142 C 0.37759 0.8798 0.37596 0.0
C143 C 0.30569 0.8776 0.41624 0.0
C144 C 0.34544 0.91322 0.44315 0.0
C145 C 0.32168 0.85936 0.38277 0.0
H146 H 0.45889 0.93101 0.39824 0.0
H147 H 0.33304 0.92677 0.46901 0.0
O148 O 0.56357 0.05341 0.53185 0.0
O149 O 0.49177 0.05572 0.4667 0.0
O150 O 0.52047 0.9623 0.46783 0.0
O151 O 0.44106 0.96544 0.53228 0.0
H152 H 0.55067 0.05524 0.60971 0.0
H153 H 0.65166 0.04581 0.51766 0.0
H154 H 0.61108 0.04826 0.66033 0.0
H155 H 0.71042 0.03916 0.56989 0.0
H156 H 0.33873 0.06116 0.43267 0.0
H157 H 0.49918 0.04913 0.38857 0.0
H158 H 0.4043 0.0636 0.48303 0.0
H159 H 0.43215 0.04721 0.3398 0.0
H160 H 0.73388 0.20617 0.44496 0.0
H161 H 0.65334 0.09885 0.34505 0.0
H162 H 0.43956 0.10248 0.65101 0.0
H163 H 0.50554 0.22331 0.55718 0.0
H164 H 0.43158 0.869 0.48657 0.0
H165 H 0.59053 0.94024 0.43217 0.0
H166 H 0.41828 0.77665 0.47312 0.0
H167 H 0.57454 0.8466 0.41944 0.0
H168 H 0.38614 0.85882 0.54683 0.0
H169 H 0.37329 0.00436 0.53985 0.0
H170 H 0.2875 0.80569 0.56364 0.0
H171 H 0.27511 0.94881 0.55743 0.0
H172 H 0.47475 0.86647 0.64971 0.0
H173 H 0.59186 0.85674 0.57225 0.0
H174 H 0.39154 0.86778 0.34986 0.0
H175 H 0.26287 0.86317 0.42215 0.0
Li176 Li 0.49179 0.46208 0.80966 0.0
Li177 Li 0.55026 0.52243 0.86033 0.0
Li178 Li 0.45096 0.49179 0.85975 0.0
Li179 Li 0.51456 0.55598 0.80787 0.0
C180 C 0.46037 0.3954 0.88084 0.0
N181 N 0.40654 0.2886 0.90798 0.0
C182 C 0.49011 0.37187 0.89582 0.0
C183 C 0.40321 0.36478 0.88013 0.0
C184 C 0.46215 0.31776 0.90924 0.0
C185 C 0.37677 0.31082 0.89386 0.0
C186 C 0.60474 0.51352 0.79529 0.0
C187 C 0.68759 0.52941 0.76277 0.0
N188 N 0.6833 0.48445 0.78113 0.0
C189 C 0.60121 0.46754 0.81387 0.0
C190 C 0.64829 0.54478 0.76956 0.0
C191 C 0.64128 0.45348 0.80631 0.0
C192 C 0.50281 0.42135 0.73703 0.0
N193 N 0.48127 0.40417 0.77397 0.0
C194 C 0.45295 0.31148 0.75666 0.0
C195 C 0.45599 0.35023 0.78399 0.0
C196 C 0.47608 0.3284 0.71869 0.0
C197 C 0.50033 0.38403 0.70875 0.0
H198 H 0.52238 0.46437 0.72964 0.0
H199 H 0.43872 0.33696 0.81316 0.0
C200 C 0.59445 0.51293 0.9317 0.0
N201 N 0.60881 0.53901 0.89601 0.0
C202 C 0.63455 0.52013 0.9592 0.0
C203 C 0.70365 0.58209 0.91314 0.0
C204 C 0.6621 0.57341 0.88635 0.0
C205 C 0.69002 0.55514 0.95012 0.0
H206 H 0.55172 0.48573 0.9385 0.0
H207 H 0.67239 0.59364 0.85772 0.0
C208 C 0.412 0.46129 0.76904 0.0
N209 N 0.35631 0.39985 0.70325 0.0
C210 C 0.42773 0.48317 0.73081 0.0
C211 C 0.36757 0.4084 0.77384 0.0
C212 C 0.39913 0.45141 0.69792 0.0
C213 C 0.34007 0.37791 0.74019 0.0
C214 C 0.55274 0.61933 0.87827 0.0
C215 C 0.54341 0.64242 0.912 0.0
C216 C 0.60133 0.64909 0.85681 0.0
C217 C 0.58295 0.69515 0.92371 0.0
C218 C 0.63984 0.70168 0.86948 0.0
N219 N 0.62994 0.72344 0.90239 0.0
C220 C 0.40056 0.4827 0.93295 0.0
C221 C 0.34186 0.4647 0.8775 0.0
C222 C 0.35916 0.47585 0.95906 0.0
N223 N 0.39127 0.47735 0.89309 0.0
C224 C 0.2992 0.45732 0.90256 0.0
C225 C 0.30771 0.46314 0.94391 0.0
H226 H 0.44059 0.49343 0.94432 0.0
H227 H 0.3359 0.46112 0.8456 0.0
C228 C 0.56069 0.63048 0.7434 0.0
N229 N 0.52686 0.61601 0.77544 0.0
C230 C 0.56591 0.67193 0.71783 0.0
C231 C 0.50211 0.68315 0.7592 0.0
C232 C 0.49816 0.64159 0.78394 0.0
C233 C 0.53594 0.69843 0.72545 0.0
H234 H 0.58236 0.60877 0.73713 0.0
H235 H 0.47135 0.62885 0.80955 0.0
O236 O 0.48715 0.4486 0.86811 0.0
O237 O 0.56596 0.52818 0.80209 0.0
O238 O 0.44038 0.49129 0.80153 0.0
O239 O 0.5146 0.5676 0.86668 0.0
H240 H 0.53435 0.39514 0.89712 0.0
H241 H 0.37947 0.38224 0.86887 0.0
H242 H 0.48467 0.29898 0.92075 0.0
H243 H 0.33258 0.28659 0.89329 0.0
H244 H 0.72152 0.55324 0.74292 0.0
H245 H 0.56784 0.44283 0.83375 0.0
H246 H 0.65174 0.58061 0.75501 0.0
H247 H 0.63895 0.41793 0.82046 0.0
H248 H 0.43382 0.26891 0.76548 0.0
H249 H 0.51741 0.39863 0.67945 0.0
H250 H 0.62223 0.4974 0.98686 0.0
H251 H 0.74595 0.60936 0.905 0.0
H252 H 0.46203 0.524 0.72654 0.0
H253 H 0.35469 0.39088 0.80317 0.0
H254 H 0.41109 0.46769 0.66815 0.0
H255 H 0.30585 0.33678 0.74345 0.0
H256 H 0.50603 0.61976 0.92897 0.0
H257 H 0.60939 0.63174 0.83076 0.0
H258 H 0.5763 0.71357 0.94977 0.0
H259 H 0.67765 0.72516 0.85319 0.0
H260 H 0.36786 0.48206 0.99063 0.0
H261 H 0.26012 0.44763 0.88976 0.0
H262 H 0.59161 0.68183 0.69169 0.0
H263 H 0.47846 0.70273 0.76609 0.0
C264 C 0.23704 0.4883 0.9619 0.0
C265 C 0.26431 0.45934 0.97093 0.0
C266 C 0.19868 0.48864 0.98818 0.0
C267 C 0.18623 0.46012 0.02452 0.0
H268 H 0.24663 0.51229 0.93485 0.0
H269 H 0.17988 0.5128 0.98054 0.0
S270 S 0.24153 0.37298 0.06017 0.0
N271 N 0.27282 0.39778 0.01728 0.0
N272 N 0.20092 0.39877 0.06683 0.0
C273 C 0.21182 0.42957 0.03336 0.0
C274 C 0.25078 0.42909 0.00654 0.0
C275 C 0.79487 0.29318 0.3407 0.0
C276 C 0.81825 0.27817 0.30979 0.0
C277 C 0.75754 0.25407 0.3673 0.0
C278 C 0.74244 0.19848 0.36419 0.0
H279 H 0.80432 0.33526 0.34367 0.0
H280 H 0.73925 0.26734 0.38982 0.0
S281 S 0.79683 0.13938 0.29087 0.0
N282 N 0.82666 0.20489 0.27898 0.0
N283 N 0.75725 0.13135 0.32945 0.0
C284 C 0.76696 0.1833 0.33412 0.0
C285 C 0.80467 0.22313 0.30683 0.0
C286 C 0.48723 0.77238 0.65699 0.0
C287 C 0.53623 0.81693 0.64284 0.0
C288 C 0.4877 0.73449 0.68367 0.0
C289 C 0.53718 0.73954 0.69723 0.0
H290 H 0.44808 0.7664 0.64705 0.0
H291 H 0.44891 0.70054 0.69341 0.0
S292 S 0.67676 0.85044 0.67101 0.0
N293 N 0.63565 0.86511 0.64554 0.0
N294 N 0.63649 0.79352 0.69562 0.0
C295 C 0.58653 0.78393 0.68346 0.0
C296 C 0.58606 0.82268 0.65629 0.0
C297 C 0.77756 0.55577 0.96438 0.0
C298 C 0.73328 0.56092 0.97827 0.0
C299 C 0.81605 0.55578 0.99082 0.0
C300 C 0.81149 0.56067 0.0321 0.0
H301 H 0.78139 0.54965 0.93298 0.0
H302 H 0.84842 0.54984 0.97902 0.0
S303 S 0.70765 0.5825 0.08323 0.0
N304 N 0.69053 0.57666 0.03572 0.0
N305 N 0.76239 0.57565 0.08538 0.0
C306 C 0.76886 0.56812 0.04625 0.0
C307 C 0.7299 0.56851 0.01936 0.0
C308 C 0.23953 0.82551 0.33825 0.0
C309 C 0.28041 0.81765 0.3557 0.0
C310 C 0.20122 0.78683 0.31172 0.0
C311 C 0.20243 0.73893 0.30189 0.0
H312 H 0.2378 0.86225 0.3446 0.0
H313 H 0.17106 0.7949 0.29828 0.0
S314 S 0.29731 0.69635 0.3435 0.0
N315 N 0.31728 0.75674 0.36377 0.0
N316 N 0.2451 0.68382 0.31445 0.0
C317 C 0.24212 0.72995 0.3202 0.0
C318 C 0.28113 0.76934 0.34696 0.0
C319 C 0.42753 0.23806 0.68321 0.0
C320 C 0.47578 0.28831 0.68989 0.0
C321 C 0.42664 0.19945 0.65645 0.0
C322 C 0.47386 0.20987 0.63529 0.0
H323 H 0.39008 0.22868 0.69854 0.0
H324 H 0.38865 0.16135 0.65205 0.0
S325 S 0.61158 0.33284 0.64457 0.0
N326 N 0.57275 0.34472 0.67495 0.0
N327 N 0.57074 0.27251 0.62431 0.0
C328 C 0.52243 0.2596 0.64198 0.0
C329 C 0.52347 0.29873 0.66934 0.0
loop_
_geom_bond_atom_site_label_1
_geom_bond_atom_site_label_2
_geom_bond_distance
_geom_bond_site_symmetry_2
_ccdc_geom_bond_type
Li0 N17 1.990 . S
Li0 O60 1.956 . S
Li0 O61 1.970 . S
Li0 O62 1.961 1_455 S
Li1 N25 1.990 . S
Li1 O60 1.970 . S
Li1 O61 1.956 . S
Li1 O63 1.961 1_455 S
Li2 N47 1.990 . S
Li2 O60 1.961 1_655 S
Li2 O62 1.956 . S
Li2 O63 1.970 . S
Li3 N53 1.990 . S
Li3 O61 1.961 1_655 S
Li3 O62 1.970 . S
Li3 O63 1.956 . S
C4 C6 1.348 . S
C4 C7 1.356 . S
C4 O60 1.325 . S
N5 C8 1.314 . S
N5 C9 1.279 . S
C6 C4 1.348 . S
C6 C8 1.353 . S
C6 H64 0.929 . S
C7 C4 1.356 . S
C7 C9 1.358 . S
C7 H65 0.930 . S
C8 N5 1.314 . S
C8 C6 1.353 . S
C8 H66 0.930 . S
C9 N5 1.279 . S
C9 C7 1.358 . S
C9 H67 0.930 . S
C10 C13 1.348 . S
C10 C14 1.356 . S
C10 O61 1.325 . S
C11 N12 1.279 . S
C11 C14 1.358 . S
C11 H68 0.930 . S
N12 C11 1.279 . S
N12 C15 1.314 . S
C13 C10 1.348 . S
C13 C15 1.353 . S
C13 H69 0.929 . S
C14 C10 1.356 . S
C14 C11 1.358 . S
C14 H70 0.930 . S
C15 N12 1.314 . S
C15 C13 1.353 . S
C15 H71 0.930 . S
C16 N17 1.314 . S
C16 C21 1.353 . S
C16 H22 0.930 . S
N17 Li0 1.990 . S
N17 C16 1.314 . S
N17 C19 1.279 . S
C18 C19 1.358 . S
C18 C20 1.356 . S
C18 H72 0.930 . S
C19 N17 1.279 . S
C19 C18 1.358 . S
C19 H23 0.930 . S
C20 C18 1.356 . S
C20 C21 1.348 . S
C21 C16 1.353 . S
C21 C20 1.348 . S
C21 H73 0.929 . S
H22 C16 0.930 . S
H23 C19 0.930 . S
C24 N25 1.314 . S
C24 C26 1.353 . S
C24 H30 0.930 . S
N25 Li1 1.990 . S
N25 C24 1.314 . S
N25 C28 1.279 . S
C26 C24 1.353 . S
C26 C29 1.348 . S
C26 H74 0.929 . S
C27 C28 1.358 . S
C27 C29 1.356 . S
C27 H75 0.930 . S
C28 N25 1.279 . S
C28 C27 1.358 . S
C28 H31 0.930 . S
C29 C26 1.348 . S
C29 C27 1.356 . S
H30 C24 0.930 . S
H31 C28 0.930 . S
C32 C34 1.348 . S
C32 C35 1.356 . S
C32 O62 1.325 . S
N33 C36 1.314 . S
N33 C37 1.279 . S
C34 C32 1.348 . S
C34 C36 1.353 . S
C34 H76 0.929 . S
C35 C32 1.356 . S
C35 C37 1.358 . S
C35 H77 0.930 . S
C36 N33 1.314 . S
C36 C34 1.353 . S
C36 H78 0.930 . S
C37 N33 1.279 . S
C37 C35 1.358 . S
C37 H79 0.930 . S
C38 C39 1.348 . S
C38 C40 1.356 . S
C38 O63 1.325 . S
C39 C38 1.348 . S
C39 C41 1.353 . S
C39 H80 0.929 . S
C40 C38 1.356 . S
C40 C42 1.358 . S
C40 H81 0.930 . S
C41 C39 1.353 . S
C41 N43 1.314 . S
C41 H82 0.930 . S
C42 C40 1.358 . S
C42 N43 1.279 . S
C42 H83 0.930 . S
N43 C41 1.314 . S
N43 C42 1.279 . S
C44 C46 1.353 . S
C44 N47 1.314 . S
C44 H50 0.930 . S
C45 N47 1.279 . S
C45 C48 1.358 . S
C45 H51 0.930 . S
C46 C44 1.353 . S
C46 C49 1.348 . S
C46 H84 0.929 . S
N47 Li2 1.990 . S
N47 C44 1.314 . S
N47 C45 1.279 . S
C48 C45 1.358 . S
C48 C49 1.356 . S
C48 H85 0.930 . S
C49 C46 1.348 . S
C49 C48 1.356 . S
H50 C44 0.930 . S
H51 C45 0.930 . S
C52 N53 1.314 . S
C52 C54 1.353 . S
C52 H58 0.930 . S
N53 Li3 1.990 . S
N53 C52 1.314 . S
N53 C56 1.279 . S
C54 C52 1.353 . S
C54 C57 1.348 . S
C54 H86 0.929 . S
C55 C56 1.358 . S
C55 C57 1.356 . S
C55 H87 0.930 . S
C56 N53 1.279 . S
C56 C55 1.358 . S
C56 H59 0.930 . S
C57 C54 1.348 . S
C57 C55 1.356 . S
H58 C52 0.930 . S
H59 C56 0.930 . S
O60 Li0 1.956 . S
O60 Li1 1.970 . S
O60 Li2 1.961 1_455 S
O60 C4 1.325 . S
O61 Li0 1.970 . S
O61 Li1 1.956 . S
O61 Li3 1.961 1_455 S
O61 C10 1.325 . S
O62 Li0 1.961 1_655 S
O62 Li2 1.956 . S
O62 Li3 1.970 . S
O62 C32 1.325 . S
O63 Li1 1.961 1_655 S
O63 Li2 1.970 . S
O63 Li3 1.956 . S
O63 C38 1.325 . S
H64 C6 0.929 . S
H65 C7 0.930 . S
H66 C8 0.930 . S
H67 C9 0.930 . S
H68 C11 0.930 . S
H69 C13 0.929 . S
H70 C14 0.930 . S
H71 C15 0.930 . S
H72 C18 0.930 . S
H73 C21 0.929 . S
H74 C26 0.929 . S
H75 C27 0.930 . S
H76 C34 0.929 . S
H77 C35 0.930 . S
H78 C36 0.930 . S
H79 C37 0.930 . S
H80 C39 0.929 . S
H81 C40 0.930 . S
H82 C41 0.930 . S
H83 C42 0.930 . S
H84 C46 0.929 . S
H85 C48 0.930 . S
H86 C54 0.929 . S
H87 C55 0.930 . S
Li88 N105 1.990 . S
Li88 O148 1.956 . S
Li88 O149 1.970 . S
Li88 O150 1.961 1_545 S
Li89 N113 1.990 . S
Li89 O148 1.970 . S
Li89 O149 1.956 . S
Li89 O151 1.961 1_545 S
Li90 N135 1.990 . S
Li90 O148 1.961 1_565 S
Li90 O150 1.956 . S
Li90 O151 1.970 . S
Li91 N141 1.990 . S
Li91 O149 1.961 1_565 S
Li91 O150 1.970 . S
Li91 O151 1.956 . S
C92 C94 1.348 . S
C92 C95 1.356 . S
C92 O148 1.325 . S
N93 C96 1.314 . S
N93 C97 1.279 . S
C94 C92 1.348 . S
C94 C96 1.353 . S
C94 H152 0.929 . S
C95 C92 1.356 . S
C95 C97 1.358 . S
C95 H153 0.930 . S
C96 N93 1.314 . S
C96 C94 1.353 . S
C96 H154 0.930 . S
C97 N93 1.279 . S
C97 C95 1.358 . S
C97 H155 0.930 . S
C98 C101 1.348 . S
C98 C102 1.356 . S
C98 O149 1.325 . S
C99 N100 1.279 . S
C99 C102 1.358 . S
C99 H156 0.930 . S
N100 C99 1.279 . S
N100 C103 1.314 . S
C101 C98 1.348 . S
C101 C103 1.353 . S
C101 H157 0.929 . S
C102 C98 1.356 . S
C102 C99 1.358 . S
C102 H158 0.930 . S
C103 N100 1.314 . S
C103 C101 1.353 . S
C103 H159 0.930 . S
C104 N105 1.314 . S
C104 C109 1.353 . S
C104 H110 0.930 . S
N105 Li88 1.990 . S
N105 C104 1.314 . S
N105 C107 1.279 . S
C106 C107 1.358 . S
C106 C108 1.356 . S
C106 H160 0.930 . S
C107 N105 1.279 . S
C107 C106 1.358 . S
C107 H111 0.930 . S
C108 C106 1.356 . S
C108 C109 1.348 . S
C109 C104 1.353 . S
C109 C108 1.348 . S
C109 H161 0.929 . S
H110 C104 0.930 . S
H111 C107 0.930 . S
C112 N113 1.314 . S
C112 C114 1.353 . S
C112 H118 0.930 . S
N113 Li89 1.990 . S
N113 C112 1.314 . S
N113 C116 1.279 . S
C114 C112 1.353 . S
C114 C117 1.348 . S
C114 H162 0.929 . S
C115 C116 1.358 . S
C115 C117 1.356 . S
C115 H163 0.930 . S
C116 N113 1.279 . S
C116 C115 1.358 . S
C116 H119 0.930 . S
C117 C114 1.348 . S
C117 C115 1.356 . S
H118 C112 0.930 . S
H119 C116 0.930 . S
C120 C122 1.348 . S
C120 C123 1.356 . S
C120 O150 1.325 . S
N121 C124 1.314 . S
N121 C125 1.279 . S
C122 C120 1.348 . S
C122 C124 1.353 . S
C122 H164 0.929 . S
C123 C120 1.356 . S
C123 C125 1.358 . S
C123 H165 0.930 . S
C124 N121 1.314 . S
C124 C122 1.353 . S
C124 H166 0.930 . S
C125 N121 1.279 . S
C125 C123 1.358 . S
C125 H167 0.930 . S
C126 C127 1.348 . S
C126 C128 1.356 . S
C126 O151 1.325 . S
C127 C126 1.348 . S
C127 C129 1.353 . S
C127 H168 0.929 . S
C128 C126 1.356 . S
C128 C130 1.358 . S
C128 H169 0.930 . S
C129 C127 1.353 . S
C129 N131 1.314 . S
C129 H170 0.930 . S
C130 C128 1.358 . S
C130 N131 1.279 . S
C130 H171 0.930 . S
N131 C129 1.314 . S
N131 C130 1.279 . S
C132 C134 1.353 . S
C132 N135 1.314 . S
C132 H138 0.930 . S
C133 N135 1.279 . S
C133 C136 1.358 . S
C133 H139 0.930 . S
C134 C132 1.353 . S
C134 C137 1.348 . S
C134 H172 0.929 . S
N135 Li90 1.990 . S
N135 C132 1.314 . S
N135 C133 1.279 . S
C136 C133 1.358 . S
C136 C137 1.356 . S
C136 H173 0.930 . S
C137 C134 1.348 . S
C137 C136 1.356 . S
H138 C132 0.930 . S
H139 C133 0.930 . S
C140 N141 1.314 . S
C140 C142 1.353 . S
C140 H146 0.930 . S
N141 Li91 1.990 . S
N141 C140 1.314 . S
N141 C144 1.279 . S
C142 C140 1.353 . S
C142 C145 1.348 . S
C142 H174 0.929 . S
C143 C144 1.358 . S
C143 C145 1.356 . S
C143 H175 0.930 . S
C144 N141 1.279 . S
C144 C143 1.358 . S
C144 H147 0.930 . S
C145 C142 1.348 . S
C145 C143 1.356 . S
H146 C140 0.930 . S
H147 C144 0.930 . S
O148 Li88 1.956 . S
O148 Li89 1.970 . S
O148 Li90 1.961 1_545 S
O148 C92 1.325 . S
O149 Li88 1.970 . S
O149 Li89 1.956 . S
O149 Li91 1.961 1_545 S
O149 C98 1.325 . S
O150 Li88 1.961 1_565 S
O150 Li90 1.956 . S
O150 Li91 1.970 . S
O150 C120 1.325 . S
O151 Li89 1.961 1_565 S
O151 Li90 1.970 . S
O151 Li91 1.956 . S
O151 C126 1.325 . S
H152 C94 0.929 . S
H153 C95 0.930 . S
H154 C96 0.930 . S
H155 C97 0.930 . S
H156 C99 0.930 . S
H157 C101 0.929 . S
H158 C102 0.930 . S
H159 C103 0.930 . S
H160 C106 0.930 . S
H161 C109 0.929 . S
H162 C114 0.929 . S
H163 C115 0.930 . S
H164 C122 0.929 . S
H165 C123 0.930 . S
H166 C124 0.930 . S
H167 C125 0.930 . S
H168 C127 0.929 . S
H169 C128 0.930 . S
H170 C129 0.930 . S
H171 C130 0.930 . S
H172 C134 0.929 . S
H173 C136 0.930 . S
H174 C142 0.929 . S
H175 C143 0.930 . S
Li176 N193 1.990 . S
Li176 O236 1.956 . S
Li176 O237 1.970 . S
Li176 O238 1.961 . S
Li177 N201 1.990 . S
Li177 O236 1.970 . S
Li177 O237 1.956 . S
Li177 O239 1.961 . S
Li178 N223 1.990 . S
Li178 O236 1.961 . S
Li178 O238 1.956 . S
Li178 O239 1.970 . S
Li179 N229 1.990 . S
Li179 O237 1.961 . S
Li179 O238 1.970 . S
Li179 O239 1.956 . S
C180 C182 1.348 . S
C180 C183 1.356 . S
C180 O236 1.325 . S
N181 C184 1.314 . S
N181 C185 1.279 . S
C182 C180 1.348 . S
C182 C184 1.353 . S
C182 H240 0.929 . S
C183 C180 1.356 . S
C183 C185 1.358 . S
C183 H241 0.930 . S
C184 N181 1.314 . S
C184 C182 1.353 . S
C184 H242 0.930 . S
C185 N181 1.279 . S
C185 C183 1.358 . S
C185 H243 0.930 . S
C186 C189 1.348 . S
C186 C190 1.356 . S
C186 O237 1.325 . S
C187 N188 1.279 . S
C187 C190 1.358 . S
C187 H244 0.930 . S
N188 C187 1.279 . S
N188 C191 1.314 . S
C189 C186 1.348 . S
C189 C191 1.353 . S
C189 H245 0.929 . S
C190 C186 1.356 . S
C190 C187 1.358 . S
C190 H246 0.930 . S
C191 N188 1.314 . S
C191 C189 1.353 . S
C191 H247 0.930 . S
C192 N193 1.314 . S
C192 C197 1.353 . S
C192 H198 0.930 . S
N193 Li176 1.990 . S
N193 C192 1.314 . S
N193 C195 1.279 . S
C194 C195 1.358 . S
C194 C196 1.356 . S
C194 H248 0.930 . S
C195 N193 1.279 . S
C195 C194 1.358 . S
C195 H199 0.930 . S
C196 C194 1.356 . S
C196 C197 1.348 . S
C197 C192 1.353 . S
C197 C196 1.348 . S
C197 H249 0.929 . S
H198 C192 0.930 . S
H199 C195 0.930 . S
C200 N201 1.314 . S
C200 C202 1.353 . S
C200 H206 0.930 . S
N201 Li177 1.990 . S
N201 C200 1.314 . S
N201 C204 1.279 . S
C202 C200 1.353 . S
C202 C205 1.348 . S
C202 H250 0.929 . S
C203 C204 1.358 . S
C203 C205 1.356 . S
C203 H251 0.930 . S
C204 N201 1.279 . S
C204 C203 1.358 . S
C204 H207 0.930 . S
C205 C202 1.348 . S
C205 C203 1.356 . S
H206 C200 0.930 . S
H207 C204 0.930 . S
C208 C210 1.348 . S
C208 C211 1.356 . S
C208 O238 1.325 . S
N209 C212 1.314 . S
N209 C213 1.279 . S
C210 C208 1.348 . S
C210 C212 1.353 . S
C210 H252 0.929 . S
C211 C208 1.356 . S
C211 C213 1.358 . S
C211 H253 0.930 . S
C212 N209 1.314 . S
C212 C210 1.353 . S
C212 H254 0.930 . S
C213 N209 1.279 . S
C213 C211 1.358 . S
C213 H255 0.930 . S
C214 C215 1.348 . S
C214 C216 1.356 . S
C214 O239 1.325 . S
C215 C214 1.348 . S
C215 C217 1.353 . S
C215 H256 0.929 . S
C216 C214 1.356 . S
C216 C218 1.358 . S
C216 H257 0.930 . S
C217 C215 1.353 . S
C217 N219 1.314 . S
C217 H258 0.930 . S
C218 C216 1.358 . S
C218 N219 1.279 . S
C218 H259 0.930 . S
N219 C217 1.314 . S
N219 C218 1.279 . S
C220 C222 1.353 . S
C220 N223 1.314 . S
C220 H226 0.930 . S
C221 N223 1.279 . S
C221 C224 1.358 . S
C221 H227 0.930 . S
C222 C220 1.353 . S
C222 C225 1.348 . S
C222 H260 0.929 . S
N223 Li178 1.990 . S
N223 C220 1.314 . S
N223 C221 1.279 . S
C224 C221 1.358 . S
C224 C225 1.356 . S
C224 H261 0.930 . S
C225 C222 1.348 . S
C225 C224 1.356 . S
H226 C220 0.930 . S
H227 C221 0.930 . S
C228 N229 1.314 . S
C228 C230 1.353 . S
C228 H234 0.930 . S
N229 Li179 1.990 . S
N229 C228 1.314 . S
N229 C232 1.279 . S
C230 C228 1.353 . S
C230 C233 1.348 . S
C230 H262 0.929 . S
C231 C232 1.358 . S
C231 C233 1.356 . S
C231 H263 0.930 . S
C232 N229 1.279 . S
C232 C231 1.358 . S
C232 H235 0.930 . S
C233 C230 1.348 . S
C233 C231 1.356 . S
H234 C228 0.930 . S
H235 C232 0.930 . S
O236 Li176 1.956 . S
O236 Li177 1.970 . S
O236 Li178 1.961 . S
O236 C180 1.325 . S
O237 Li176 1.970 . S
O237 Li177 1.956 . S
O237 Li179 1.961 . S
O237 C186 1.325 . S
O238 Li176 1.961 . S
O238 Li178 1.956 . S
O238 Li179 1.970 . S
O238 C208 1.325 . S
O239 Li177 1.961 . S
O239 Li178 1.970 . S
O239 Li179 1.956 . S
O239 C214 1.325 . S
H240 C182 0.929 . S
H241 C183 0.930 . S
H242 C184 0.930 . S
H243 C185 0.930 . S
H244 C187 0.930 . S
H245 C189 0.929 . S
H246 C190 0.930 . S
H247 C191 0.930 . S
H248 C194 0.930 . S
H249 C197 0.929 . S
H250 C202 0.929 . S
H251 C203 0.930 . S
H252 C210 0.929 . S
H253 C211 0.930 . S
H254 C212 0.930 . S
H255 C213 0.930 . S
H256 C215 0.929 . S
H257 C216 0.930 . S
H258 C217 0.930 . S
H259 C218 0.930 . S
H260 C222 0.929 . S
H261 C224 0.930 . S
H262 C230 0.929 . S
H263 C231 0.930 . S
C264 C265 1.369 . S
C264 C266 1.419 . S
C264 H268 0.930 . S
C265 C264 1.369 . S
C265 C274 1.429 1_556 S
C266 C264 1.419 . S
C266 C267 1.363 1_556 S
C266 H269 0.929 . S
C267 C266 1.363 1_554 S
C267 C273 1.428 . S
H268 C264 0.930 . S
H269 C266 0.929 . S
S270 N271 1.613 . S
S270 N272 1.610 . S
N271 S270 1.613 . S
N271 C274 1.350 . S
N272 S270 1.610 . S
N272 C273 1.351 . S
C273 C267 1.428 . S
C273 N272 1.351 . S
C273 C274 1.434 . S
C274 C265 1.429 1_554 S
C274 N271 1.350 . S
C274 C273 1.434 . S
C275 C276 1.369 . S
C275 C277 1.419 . S
C275 H279 0.930 . S
C276 C275 1.369 . S
C276 C285 1.429 . S
C277 C275 1.419 . S
C277 C278 1.363 . S
C277 H280 0.929 . S
C278 C277 1.363 . S
C278 C284 1.428 . S
H279 C275 0.930 . S
H280 C277 0.929 . S
S281 N282 1.613 . S
S281 N283 1.610 . S
N282 S281 1.613 . S
N282 C285 1.350 . S
N283 S281 1.610 . S
N283 C284 1.351 . S
C284 C278 1.428 . S
C284 N283 1.351 . S
C284 C285 1.434 . S
C285 C276 1.429 . S
C285 N282 1.350 . S
C285 C284 1.434 . S
C286 C287 1.369 . S
C286 C288 1.419 . S
C286 H290 0.930 . S
C287 C286 1.369 . S
C287 C296 1.429 . S
C288 C286 1.419 . S
C288 C289 1.363 . S
C288 H291 0.929 . S
C289 C288 1.363 . S
C289 C295 1.428 . S
H290 C286 0.930 . S
H291 C288 0.929 . S
S292 N293 1.613 . S
S292 N294 1.610 . S
N293 S292 1.613 . S
N293 C296 1.350 . S
N294 S292 1.610 . S
N294 C295 1.351 . S
C295 C289 1.428 . S
C295 N294 1.351 . S
C295 C296 1.434 . S
C296 C287 1.429 . S
C296 N293 1.350 . S
C296 C295 1.434 . S
C297 C298 1.369 . S
C297 C299 1.419 . S
C297 H301 0.930 . S
C298 C297 1.369 . S
C298 C307 1.429 1_556 S
C299 C297 1.419 . S
C299 C300 1.363 1_556 S
C299 H302 0.929 . S
C300 C299 1.363 1_554 S
C300 C306 1.428 . S
H301 C297 0.930 . S
H302 C299 0.929 . S
S303 N304 1.613 . S
S303 N305 1.610 . S
N304 S303 1.613 . S
N304 C307 1.350 . S
N305 S303 1.610 . S
N305 C306 1.351 . S
C306 C300 1.428 . S
C306 N305 1.351 . S
C306 C307 1.434 . S
C307 C298 1.429 1_554 S
C307 N304 1.350 . S
C307 C306 1.434 . S
C308 C309 1.369 . S
C308 C310 1.419 . S
C308 H312 0.930 . S
C309 C308 1.369 . S
C309 C318 1.429 . S
C310 C308 1.419 . S
C310 C311 1.363 . S
C310 H313 0.929 . S
C311 C310 1.363 . S
C311 C317 1.428 . S
H312 C308 0.930 . S
H313 C310 0.929 . S
S314 N315 1.613 . S
S314 N316 1.610 . S
N315 S314 1.613 . S
N315 C318 1.350 . S
N316 S314 1.610 . S
N316 C317 1.351 . S
C317 C311 1.428 . S
C317 N316 1.351 . S
C317 C318 1.434 . S
C318 C309 1.429 . S
C318 N315 1.350 . S
C318 C317 1.434 . S
C319 C320 1.369 . S
C319 C321 1.419 . S
C319 H323 0.930 . S
C320 C319 1.369 . S
C320 C329 1.429 . S
C321 C319 1.419 . S
C321 C322 1.363 . S
C321 H324 0.929 . S
C322 C321 1.363 . S
C322 C328 1.428 . S
H323 C319 0.930 . S
H324 C321 0.929 . S
S325 N326 1.613 . S
S325 N327 1.610 . S
N326 S325 1.613 . S
N326 C329 1.350 . S
N327 S325 1.610 . S
N327 C328 1.351 . S
C328 C322 1.428 . S
C328 N327 1.351 . S
C328 C329 1.434 . S
C329 C320 1.429 . S
C329 N326 1.350 . S
C329 C328 1.434 . S
C265 C225 1.291 . S
C267 C20 1.292 . S
C276 C49 1.292 . S
C278 C108 1.290 . S
C287 C137 1.292 . S
C289 C233 1.292 . S
C298 C205 1.290 . S
C300 C57 1.292 . S
C309 C145 1.288 . S
C311 C29 1.291 . S
C320 C196 1.288 . S
C322 C117 1.290 . S
