# Generated by pormake.
# Topology unf, (4)-cn, num edge types: 1
# Building blocks:
#     Node 0, Type 0, BuildingBlock: QUQFOY_clean_sbu_1, # of connection points: 4
#     Node 1, Type 0, BuildingBlock: QUQFOY_clean_sbu_1, # of connection points: 4
#     Node 2, Type 0, BuildingBlock: QUQFOY_clean_sbu_1, # of connection points: 4
#     Node 3, Type 0, BuildingBlock: QUQFOY_clean_sbu_1, # of connection points: 4
#     Node 4, Type 0, BuildingBlock: QUQFOY_clean_sbu_1, # of connection points: 4
#     Node 5, Type 0, BuildingBlock: QUQFOY_clean_sbu_1, # of connection points: 4
#     Node 6, Type 0, BuildingBlock: QUQFOY_clean_sbu_1, # of connection points: 4
#     Node 7, Type 0, BuildingBlock: QUQFOY_clean_sbu_1, # of connection points: 4
#     Node 8, Type 0, BuildingBlock: QUQFOY_clean_sbu_1, # of connection points: 4
#     Node 9, Type 0, BuildingBlock: QUQFOY_clean_sbu_1, # of connection points: 4
#     Node 10, Type 0, BuildingBlock: QUQFOY_clean_sbu_1, # of connection points: 4
#     Node 11, Type 0, BuildingBlock: QUQFOY_clean_sbu_1, # of connection points: 4
#     Edge 12, Type (0, 0), BuildingBlock: KIFKEQ_clean_linker_1, # of connection points: 2
#     Edge 13, Type (0, 0), BuildingBlock: KIFKEQ_clean_linker_1, # of connection points: 2
#     Edge 14, Type (0, 0), BuildingBlock: KIFKEQ_clean_linker_1, # of connection points: 2
#     Edge 15, Type (0, 0), BuildingBlock: KIFKEQ_clean_linker_1, # of connection points: 2
#     Edge 16, Type (0, 0), BuildingBlock: KIFKEQ_clean_linker_1, # of connection points: 2
#     Edge 17, Type (0, 0), BuildingBlock: KIFKEQ_clean_linker_1, # of connection points: 2
#     Edge 18, Type (0, 0), BuildingBlock: KIFKEQ_clean_linker_1, # of connection points: 2
#     Edge 19, Type (0, 0), BuildingBlock: KIFKEQ_clean_linker_1, # of connection points: 2
#     Edge 20, Type (0, 0), BuildingBlock: KIFKEQ_clean_linker_1, # of connection points: 2
#     Edge 21, Type (0, 0), BuildingBlock: KIFKEQ_clean_linker_1, # of connection points: 2
#     Edge 22, Type (0, 0), BuildingBlock: KIFKEQ_clean_linker_1, # of connection points: 2
#     Edge 23, Type (0, 0), BuildingBlock: KIFKEQ_clean_linker_1, # of connection points: 2
#     Edge 24, Type (0, 0), BuildingBlock: KIFKEQ_clean_linker_1, # of connection points: 2
#     Edge 25, Type (0, 0), BuildingBlock: KIFKEQ_clean_linker_1, # of connection points: 2
#     Edge 26, Type (0, 0), BuildingBlock: KIFKEQ_clean_linker_1, # of connection points: 2
#     Edge 27, Type (0, 0), BuildingBlock: KIFKEQ_clean_linker_1, # of connection points: 2
#     Edge 28, Type (0, 0), BuildingBlock: KIFKEQ_clean_linker_1, # of connection points: 2
#     Edge 29, Type (0, 0), BuildingBlock: KIFKEQ_clean_linker_1, # of connection points: 2
#     Edge 30, Type (0, 0), BuildingBlock: KIFKEQ_clean_linker_1, # of connection points: 2
#     Edge 31, Type (0, 0), BuildingBlock: KIFKEQ_clean_linker_1, # of connection points: 2
#     Edge 32, Type (0, 0), BuildingBlock: KIFKEQ_clean_linker_1, # of connection points: 2
#     Edge 33, Type (0, 0), BuildingBlock: KIFKEQ_clean_linker_1, # of connection points: 2
#     Edge 34, Type (0, 0), BuildingBlock: KIFKEQ_clean_linker_1, # of connection points: 2
#     Edge 35, Type (0, 0), BuildingBlock: KIFKEQ_clean_linker_1, # of connection points: 2
# Relax obj value: 0.129
# Max RMSD: 0.161
# Mean RMSD: 0.161
data_MOF--net-unf--node1-QUQFOY_clean_sbu_1--edge1-KIFKEQ_clean_linker_1
_symmetry_space_group_name_H-M    P1
_symmetry_Int_Tables_number       1
_symmetry_cell_setting            triclinic
loop_
_symmetry_equiv_pos_as_xyz
'x, y, z'
_cell_length_a     41.179704
_cell_length_b     41.154779
_cell_length_c     41.25368
_cell_angle_alpha  90.027194
_cell_angle_beta   89.899938
_cell_angle_gamma 120.08577
loop_
_atom_site_label
_atom_site_type_symbol
_atom_site_fract_x
_atom_site_fract_y
_atom_site_fract_z
_atom_type_partial_charge
O0 O 0.11042 0.33577 0.05701 0.0
Cd1 Cd 0.08344 0.34157 0.0967 0.0
Cd2 Cd 0.07559 0.39076 0.04531 0.0
O3 O 0.11538 0.38088 0.02446 0.0
O4 O 0.09472 0.31571 0.13197 0.0
O5 O 0.11472 0.37654 0.13288 0.0
C6 C 0.11345 0.34761 0.14637 0.0
C7 C 0.06563 0.43692 0.02202 0.0
C8 C 0.1227 0.35509 0.0312 0.0
C9 C 0.00697 0.31973 0.07483 0.0
O10 O 0.02306 0.34668 0.05492 0.0
O11 O 0.02574 0.31307 0.09542 0.0
O12 O 0.06047 0.40795 0.00606 0.0
O13 O 0.07997 0.44177 0.05063 0.0
O14 O 0.64033 0.77596 0.06876 0.0
Cd15 Cd 0.63517 0.73279 0.09796 0.0
Cd16 Cd 0.5923 0.6959 0.04674 0.0
O17 O 0.59068 0.74396 0.03776 0.0
O18 O 0.66018 0.75907 0.13888 0.0
O19 O 0.59921 0.71912 0.1357 0.0
C20 C 0.62767 0.74294 0.15256 0.0
C21 C 0.54266 0.6352 0.04004 0.0
C22 C 0.61762 0.77514 0.04747 0.0
C23 C 0.66434 0.6971 0.05438 0.0
O24 O 0.64115 0.69763 0.03454 0.0
O25 O 0.66353 0.70518 0.084 0.0
O26 O 0.5569 0.65778 0.01579 0.0
O27 O 0.55413 0.64842 0.0688 0.0
O28 O 0.22346 0.88228 0.06914 0.0
Cd29 Cd 0.26135 0.91456 0.10409 0.0
Cd30 Cd 0.30828 0.92662 0.04266 0.0
O31 O 0.25749 0.88269 0.02741 0.0
O32 O 0.22707 0.90406 0.14161 0.0
O33 O 0.26936 0.88614 0.14051 0.0
C34 C 0.24187 0.88652 0.15524 0.0
C35 C 0.36369 0.93793 0.01734 0.0
C36 C 0.22587 0.87075 0.04116 0.0
C37 C 0.30517 0.99194 0.07685 0.0
O38 O 0.31344 0.97767 0.05324 0.0
O39 O 0.28604 0.97208 0.10072 0.0
O40 O 0.33833 0.94119 1.00197 0.0
O41 O 0.35618 0.92492 0.04656 0.0
O42 O 0.63659 0.85804 0.45065 0.0
Cd43 Cd 0.63194 0.89115 0.4152 0.0
Cd44 Cd 0.58796 0.89123 0.46602 0.0
O45 O 0.58348 0.84062 0.47651 0.0
O46 O 0.65813 0.88472 0.37718 0.0
O47 O 0.59725 0.86439 0.37753 0.0
C48 C 0.62619 0.86719 0.36268 0.0
C49 C 0.54403 0.90721 0.484 0.0
C50 C 0.61191 0.83706 0.47125 0.0
C51 C 0.66216 0.95957 0.45234 0.0
O52 O 0.63952 0.93742 0.47344 0.0
O53 O 0.66011 0.94855 0.42328 0.0
O54 O 0.56287 0.89911 0.50392 0.0
O55 O 0.54705 0.90226 0.45347 0.0
O56 O 0.10854 0.76475 0.43558 0.0
Cd57 Cd 0.07367 0.72456 0.40272 0.0
Cd58 Cd 0.07858 0.68469 0.44892 0.0
O59 O 0.13053 0.73074 0.45695 0.0
O60 O 0.0781 0.75356 0.36291 0.0
O61 O 0.09943 0.71381 0.36614 0.0
C62 C 0.09602 0.73872 0.34978 0.0
C63 C 0.06276 0.62246 0.45392 0.0
C64 C 0.13261 0.76233 0.45309 0.0
C65 C 0.00904 0.68799 0.4439 0.0
O66 O 0.03348 0.68936 0.46339 0.0
O67 O 0.01725 0.69521 0.4141 0.0
O68 O 0.07424 0.64479 0.47848 0.0
O69 O 0.06439 0.63662 0.42558 0.0
O70 O 0.21184 0.33407 0.43784 0.0
Cd71 Cd 0.25287 0.33731 0.40708 0.0
Cd72 Cd 0.29496 0.38184 0.4572 0.0
O73 O 0.24678 0.38182 0.47004 0.0
O74 O 0.22498 0.31294 0.36665 0.0
O75 O 0.26681 0.37353 0.36958 0.0
C76 C 0.24201 0.34543 0.35294 0.0
C77 C 0.35503 0.43259 0.46251 0.0
C78 C 0.21471 0.35631 0.4605 0.0
C79 C 0.29351 0.30945 0.44681 0.0
O80 O 0.29745 0.33453 0.46683 0.0
O81 O 0.27923 0.3074 0.41908 0.0
O82 O 0.33375 0.41749 0.48739 0.0
O83 O 0.34056 0.42159 0.43404 0.0
O84 O 0.87582 0.65879 0.93917 0.0
Cd85 Cd 0.91059 0.64975 0.90905 0.0
Cd86 Cd 0.90507 0.60817 0.95944 0.0
O87 O 0.85658 0.60865 0.96982 0.0
O88 O 0.90731 0.67163 0.86718 0.0
O89 O 0.88454 0.61067 0.87426 0.0
C90 C 0.88889 0.63797 0.85585 0.0
C91 C 0.91417 0.55738 0.9646 0.0
C92 C 0.85367 0.63653 0.96065 0.0
C93 C 0.97763 0.67788 0.94898 0.0
O94 O 0.95435 0.65596 0.96989 0.0
O95 O 0.96722 0.67693 0.91987 0.0
O96 O 0.90721 0.57186 0.98949 0.0
O97 O 0.91168 0.56911 0.93614 0.0
O98 O 0.32387 0.21247 0.94803 0.0
Cd99 Cd 0.32627 0.24231 0.90728 0.0
Cd100 Cd 0.37245 0.30435 0.95717 0.0
O101 O 0.36681 0.25683 0.97953 0.0
O102 O 0.3025 0.20307 0.87317 0.0
O103 O 0.36204 0.24779 0.87117 0.0
C104 C 0.33436 0.2182 0.85843 0.0
C105 C 0.4164 0.36249 0.97934 0.0
C106 C 0.34354 0.22249 0.97371 0.0
C107 C 0.29884 0.29387 0.92582 0.0
O108 O 0.32611 0.30835 0.94551 0.0
O109 O 0.29393 0.26738 0.90706 0.0
O110 O 0.38759 0.33841 0.99539 0.0
O111 O 0.4221 0.35257 0.95118 0.0
O112 O 0.77487 0.12379 0.94338 0.0
Cd113 Cd 0.73697 0.09083 0.9081 0.0
Cd114 Cd 0.69315 0.09836 0.94998 0.0
O115 O 0.7408 0.14653 0.96342 0.0
O116 O 0.76758 0.09587 0.86901 0.0
O117 O 0.7284 0.11791 0.87135 0.0
C118 C 0.7535 0.11427 0.85548 0.0
C119 C 0.63316 0.09011 0.9532 0.0
C120 C 0.7718 0.14696 0.96173 0.0
C121 C 0.69088 0.02511 0.94701 0.0
O122 O 0.68983 0.04948 0.96508 0.0
O123 O 0.70433 0.03411 0.91856 0.0
O124 O 0.65415 0.09791 0.97839 0.0
O125 O 0.64779 0.09107 0.92525 0.0
O126 O 0.32964 0.10274 0.56681 0.0
Cd127 Cd 0.33673 0.06933 0.5999 0.0
Cd128 Cd 0.38576 0.07655 0.55384 0.0
O129 O 0.38438 0.12453 0.54257 0.0
O130 O 0.31072 0.07158 0.63976 0.0
O131 O 0.37227 0.0956 0.63699 0.0
C132 C 0.34314 0.09001 0.65338 0.0
C133 C 0.43807 0.06978 0.54905 0.0
C134 C 0.35455 0.12577 0.54741 0.0
C135 C 0.31556 0.00274 0.56073 0.0
O136 O 0.34014 0.02606 0.54136 0.0
O137 O 0.31204 0.01309 0.58887 0.0
O138 O 0.42385 0.07697 0.52419 0.0
O139 O 0.42527 0.07094 0.5774 0.0
O140 O 0.86685 0.21699 0.56205 0.0
Cd141 Cd 0.90006 0.26026 0.59332 0.0
Cd142 Cd 0.89364 0.29691 0.53756 0.0
O143 O 0.84785 0.24541 0.52802 0.0
O144 O 0.89854 0.23271 0.63359 0.0
O145 O 0.8733 0.26896 0.63069 0.0
C146 C 0.87935 0.24584 0.64716 0.0
C147 C 0.90027 0.35316 0.5184 0.0
C148 C 0.8458 0.21557 0.53891 0.0
C149 C 0.96781 0.30252 0.55388 0.0
O150 O 0.94493 0.30118 0.53268 0.0
O151 O 0.95681 0.29177 0.58272 0.0
O152 O 0.89683 0.3272 0.49894 0.0
O153 O 0.89547 0.34543 0.54899 0.0
O154 O 0.76436 0.64495 0.57059 0.0
Cd155 Cd 0.72526 0.63616 0.60558 0.0
Cd156 Cd 0.67894 0.59291 0.54782 0.0
O157 O 0.73103 0.60334 0.53281 0.0
O158 O 0.75788 0.6618 0.64349 0.0
O159 O 0.71917 0.60052 0.64202 0.0
C160 C 0.74491 0.62951 0.6571 0.0
C161 C 0.62483 0.54571 0.52327 0.0
C162 C 0.76246 0.62804 0.54427 0.0
C163 C 0.67524 0.66039 0.5766 0.0
O164 O 0.66918 0.63652 0.5546 0.0
O165 O 0.69552 0.66386 0.60094 0.0
O166 O 0.64968 0.57399 0.50711 0.0
O167 O 0.63259 0.54197 0.55287 0.0
H168 H 0.1271 0.29137 0.02853 0.0
H169 H 0.16834 0.39916 0.982 0.0
H170 H 0.16574 0.27778 0.99271 0.0
H171 H 0.20741 0.38544 0.9461 0.0
H172 H 0.31104 0.3628 0.94246 0.0
H173 H 0.26405 0.37842 0.96005 0.0
H174 H 0.17604 0.26734 0.9333 0.0
H175 H 0.22331 0.25168 0.9154 0.0
C176 C 0.14425 0.31208 0.01051 0.0
C177 C 0.14505 0.34655 0.00836 0.0
C178 C 0.16598 0.30405 0.98969 0.0
C179 C 0.18931 0.33046 0.9665 0.0
C180 C 0.18953 0.36459 0.96375 0.0
C181 C 0.16731 0.37244 0.98433 0.0
C182 C 0.28163 0.34211 0.93938 0.0
C183 C 0.27073 0.30589 0.92799 0.0
C184 C 0.25474 0.35114 0.94928 0.0
C185 C 0.2165 0.32392 0.94837 0.0
C186 C 0.20545 0.28868 0.93445 0.0
C187 C 0.23242 0.27982 0.92405 0.0
H188 H 0.66258 0.84578 0.07043 0.0
H189 H 0.5889 0.78489 0.99076 0.0
H190 H 0.67805 0.90488 0.0445 0.0
H191 H 0.60455 0.84454 0.96473 0.0
H192 H 0.68528 0.96315 0.91605 0.0
H193 H 0.66416 0.90098 0.93974 0.0
H194 H 0.6436 0.93909 0.03092 0.0
H195 H 0.66452 0.00057 0.00774 0.0
C196 C 0.64948 0.84501 0.04748 0.0
C197 C 0.62446 0.81068 0.03268 0.0
C198 C 0.65828 0.87886 0.03268 0.0
C199 C 0.6425 0.87919 0.00262 0.0
C200 C 0.61728 0.84496 0.9878 0.0
C201 C 0.6081 0.81093 0.00284 0.0
C202 C 0.67609 0.95812 0.94108 0.0
C203 C 0.67694 0.98691 0.96006 0.0
C204 C 0.66381 0.92256 0.95454 0.0
C205 C 0.65254 0.91546 0.98719 0.0
C206 C 0.6526 0.94398 0.00581 0.0
C207 C 0.66455 0.9792 0.99242 0.0
H208 H 0.21738 0.83954 0.98045 0.0
H209 H 0.15504 0.83845 0.06539 0.0
H210 H 0.15874 0.7917 0.95532 0.0
H211 H 0.0973 0.79156 0.04031 0.0
H212 H 0.00962 0.67859 0.00656 0.0
H213 H 0.07138 0.72443 0.02609 0.0
H214 H 0.09583 0.78353 0.93481 0.0
H215 H 0.03349 0.73693 0.91474 0.0
C216 C 0.1913 0.82925 0.99369 0.0
C217 C 0.19095 0.84262 0.02502 0.0
C218 C 0.15782 0.80206 0.97925 0.0
C219 C 0.12365 0.78772 0.99606 0.0
C220 C 0.12335 0.80162 0.02704 0.0
C221 C 0.15651 0.82868 0.04134 0.0
C222 C 0.02808 0.7012 0.99047 0.0
C223 C 0.01641 0.70451 0.95927 0.0
C224 C 0.06348 0.72747 1.00172 0.0
C225 C 0.08809 0.7578 0.98214 0.0
C226 C 0.07731 0.76033 0.95035 0.0
C227 C 0.04165 0.73383 0.93898 0.0
H228 H 0.70739 0.73436 0.59344 0.0
H229 H 0.60978 0.64352 0.54767 0.0
H230 H 0.68903 0.77891 0.57328 0.0
H231 H 0.59135 0.68773 0.52793 0.0
H232 H 0.56125 0.77914 0.50934 0.0
H233 H 0.57312 0.73731 0.54322 0.0
H234 H 0.68911 0.79558 0.5128 0.0
H235 H 0.67742 0.83697 0.47887 0.0
C236 C 0.68143 0.72383 0.58004 0.0
C237 C 0.66018 0.68572 0.57175 0.0
C238 C 0.67108 0.74925 0.56836 0.0
C239 C 0.63902 0.73667 0.54883 0.0
C240 C 0.61608 0.69811 0.54304 0.0
C241 C 0.62673 0.67288 0.55421 0.0
C242 C 0.58926 0.78299 0.50995 0.0
C243 C 0.61832 0.81108 0.49122 0.0
C244 C 0.59604 0.75922 0.52941 0.0
C245 C 0.63212 0.76365 0.53089 0.0
C246 C 0.66122 0.79206 0.51256 0.0
C247 C 0.65435 0.81538 0.49278 0.0
H248 H 0.19932 0.77518 0.47895 0.0
H249 H 0.12875 0.8245 0.46789 0.0
H250 H 0.24501 0.83099 0.5091 0.0
H251 H 0.17379 0.87939 0.49838 0.0
H252 H 0.24478 0.95342 0.58215 0.0
H253 H 0.20082 0.89207 0.55872 0.0
H254 H 0.28605 0.90357 0.4911 0.0
H255 H 0.32979 0.96503 0.51399 0.0
C256 C 0.19353 0.79779 0.48307 0.0
C257 C 0.16066 0.79566 0.47094 0.0
C258 C 0.21955 0.82954 0.50028 0.0
C259 C 0.21252 0.85906 0.50623 0.0
C260 C 0.1795 0.85669 0.49444 0.0
C261 C 0.15398 0.82546 0.47673 0.0
C262 C 0.25424 0.94254 0.56263 0.0
C263 C 0.29046 0.96403 0.54962 0.0
C264 C 0.22915 0.90762 0.54923 0.0
C265 C 0.24022 0.8934 0.52315 0.0
C266 C 0.27704 0.91394 0.51133 0.0
C267 C 0.30187 0.94913 0.52428 0.0
H268 H -0.00033 0.33455 0.49638 0.0
H269 H 0.02457 0.30094 0.5881 0.0
H270 H 0.06122 0.35067 0.47623 0.0
H271 H 0.08704 0.31748 0.56743 0.0
H272 H 0.20811 0.38571 0.51828 0.0
H273 H 0.15003 0.37579 0.54405 0.0
H274 H 0.08603 0.30601 0.46362 0.0
H275 H 0.14337 0.31562 0.43802 0.0
C276 C 0.01835 0.33078 0.5124 0.0
C277 C 0.00693 0.31578 0.54372 0.0
C278 C 0.05364 0.34008 0.50076 0.0
C279 C 0.07852 0.33479 0.52013 0.0
C280 C 0.06819 0.32176 0.55208 0.0
C281 C 0.03251 0.31221 0.56382 0.0
C282 C 0.1816 0.36839 0.50611 0.0
C283 C 0.18028 0.35157 0.47605 0.0
C284 C 0.14848 0.36253 0.52097 0.0
C285 C 0.11376 0.3403 0.50569 0.0
C286 C 0.11255 0.32358 0.47572 0.0
C287 C 0.14539 0.32902 0.46113 0.0
H288 H 0.67594 0.68514 0.99179 0.0
H289 H 0.71496 0.68599 0.08925 0.0
H290 H 0.72105 0.6691 0.97066 0.0
H291 H 0.76076 0.66999 0.06764 0.0
H292 H 0.80802 0.60173 0.01302 0.0
H293 H 0.76227 0.6159 0.0375 0.0
H294 H 0.79076 0.70319 0.96645 0.0
H295 H 0.83595 0.6891 0.94193 0.0
C296 C 0.69417 0.68193 0.00878 0.0
C297 C 0.69199 0.68709 0.04225 0.0
C298 C 0.72013 0.67286 0.99658 0.0
C299 C 0.74453 0.66859 0.01749 0.0
C300 C 0.74209 0.673 0.05104 0.0
C301 C 0.7161 0.68237 0.06334 0.0
C302 C 0.80439 0.62386 0.00261 0.0
C303 C 0.82545 0.64415 0.97542 0.0
C304 C 0.77847 0.63213 0.01678 0.0
C305 C 0.77297 0.66054 0.00378 0.0
C306 C 0.79414 0.68085 0.97673 0.0
C307 C 0.82011 0.6728 0.96275 0.0
H308 H 0.39454 0.22557 0.0179 0.0
H309 H 0.28186 0.1538 0.98243 0.0
H310 H 0.3879 0.17466 0.05326 0.0
H311 H 0.27514 0.10356 0.01801 0.0
H312 H 0.26467 0.02448 0.09619 0.0
H313 H 0.27555 0.08631 0.07927 0.0
H314 H 0.38004 0.11008 0.03448 0.0
H315 H 0.36888 0.04834 0.05075 0.0
C316 C 0.3682 0.19921 0.01809 0.0
C317 C 0.33888 0.1934 0.99715 0.0
C318 C 0.36441 0.17024 0.03833 0.0
C319 C 0.33093 0.13542 0.03846 0.0
C320 C 0.30103 0.13034 0.01871 0.0
C321 C 0.30506 0.15893 0.99807 0.0
C322 C 0.2905 0.04349 0.08369 0.0
C323 C 0.31578 0.0317 0.07443 0.0
C324 C 0.29663 0.07867 0.07393 0.0
C325 C 0.3285 0.1027 0.05545 0.0
C326 C 0.35541 0.09219 0.0489 0.0
C327 C 0.34892 0.05683 0.05804 0.0
H328 H 0.96721 0.24431 0.08721 0.0
H329 H 0.9559 0.33677 0.05144 0.0
H330 H 0.90504 0.20004 0.06564 0.0
H331 H 0.89427 0.29281 0.02983 0.0
H332 H 0.77681 0.20222 1.00212 0.0
H333 H 0.82833 0.2417 0.03878 0.0
H334 H 0.88876 0.18684 0.00678 0.0
H335 H 0.83758 0.14742 0.97043 0.0
C336 C 0.95093 0.25516 0.07576 0.0
C337 C 0.96647 0.29384 0.07053 0.0
C338 C 0.91557 0.22989 0.06316 0.0
C339 C 0.8952 0.24304 0.04557 0.0
C340 C 0.90926 0.28184 0.04329 0.0
C341 C 0.94463 0.307 0.05555 0.0
C342 C 0.80109 0.1986 0.00295 0.0
C343 C 0.80325 0.17191 0.98315 0.0
C344 C 0.83045 0.22106 0.02403 0.0
C345 C 0.8623 0.21699 0.02591 0.0
C346 C 0.86421 0.19005 0.00638 0.0
C347 C 0.83509 0.16785 0.98518 0.0
H348 H 0.40612 0.1912 0.51801 0.0
H349 H 0.28718 0.12051 0.53567 0.0
H350 H 0.39381 0.23579 0.4888 0.0
H351 H 0.27507 0.16464 0.50612 0.0
H352 H 0.26665 0.23731 0.42584 0.0
H353 H 0.28374 0.192 0.44665 0.0
H354 H 0.36572 0.27718 0.50982 0.0
H355 H 0.34838 0.32208 0.48962 0.0
C356 C 0.37742 0.18509 0.51545 0.0
C357 C 0.34764 0.15261 0.52933 0.0
C358 C 0.37042 0.21049 0.49875 0.0
C359 C 0.3335 0.20334 0.4951 0.0
C360 C 0.30372 0.17047 0.5083 0.0
C361 C 0.31074 0.14549 0.52548 0.0
C362 C 0.28862 0.24636 0.44385 0.0
C363 C 0.30593 0.28296 0.4564 0.0
C364 C 0.29829 0.22053 0.45576 0.0
C365 C 0.32599 0.23128 0.47978 0.0
C366 C 0.3445 0.26836 0.49113 0.0
C367 C 0.33434 0.29388 0.47975 0.0
H368 H 0.83355 0.14706 0.55794 0.0
H369 H 0.79976 0.20084 0.48615 0.0
H370 H 0.79131 0.08632 0.53413 0.0
H371 H 0.7568 0.13932 0.46248 0.0
H372 H 0.71092 0.01989 0.4145 0.0
H373 H 0.75672 0.08331 0.43346 0.0
H374 H 0.72172 0.04852 0.53223 0.0
H375 H 0.6769 0.98606 0.51382 0.0
C376 C 0.81708 0.14598 0.53709 0.0
C377 C 0.81977 0.17881 0.52415 0.0
C378 C 0.79286 0.11112 0.52347 0.0
C379 C 0.77069 0.10817 0.49659 0.0
C380 C 0.77382 0.14093 0.48307 0.0
C381 C 0.79811 0.17602 0.49682 0.0
C382 C 0.71324 0.0259 0.44023 0.0
C383 C 0.69043 -0.00211 0.46263 0.0
C384 C 0.73918 0.06214 0.45101 0.0
C385 C 0.74287 0.0706 0.48431 0.0
C386 C 0.7199 0.04263 0.50648 0.0
C387 C 0.69406 0.00681 0.49582 0.0
H388 H 0.98537 0.67301 0.50637 0.0
H389 H 0.9482 0.68087 0.41018 0.0
H390 H 0.92492 0.65831 0.52833 0.0
H391 H 0.88716 0.66633 0.43262 0.0
H392 H 0.77117 0.59818 0.48751 0.0
H393 H 0.83025 0.61275 0.46105 0.0
H394 H 0.89194 0.69416 0.53571 0.0
H395 H 0.83358 0.67956 0.56226 0.0
C396 C 0.96431 0.67167 0.48985 0.0
C397 C 0.97171 0.6784 0.45652 0.0
C398 C 0.92969 0.66339 0.50252 0.0
C399 C 0.90155 0.66159 0.48222 0.0
C400 C 0.90843 0.66748 0.44876 0.0
C401 C 0.94335 0.67597 0.43599 0.0
C402 C 0.79737 0.61925 0.49818 0.0
C403 C 0.79767 0.63741 0.52718 0.0
C404 C 0.8311 0.62772 0.48293 0.0
C405 C 0.86557 0.65431 0.49653 0.0
C406 C 0.86575 0.67308 0.525 0.0
C407 C 0.83224 0.66474 0.54015 0.0
H408 H 0.24194 0.40689 0.32782 0.0
H409 H 0.21556 0.29406 0.30451 0.0
H410 H 0.21207 0.40972 0.27756 0.0
H411 H 0.18785 0.29741 0.25357 0.0
H412 H 0.09814 0.29163 0.18899 0.0
H413 H 0.13245 0.29406 0.23745 0.0
H414 H 0.21017 0.41199 0.22042 0.0
H415 H 0.17413 0.40973 0.17249 0.0
C416 C 0.23069 0.38312 0.31145 0.0
C417 C 0.23071 0.35013 0.32012 0.0
C418 C 0.21356 0.38469 0.28261 0.0
C419 C 0.19666 0.35347 0.26166 0.0
C420 C 0.19924 0.32153 0.26952 0.0
C421 C 0.21556 0.31971 0.29856 0.0
C422 C 0.12244 0.31815 0.19568 0.0
C423 C 0.13352 0.35045 0.17688 0.0
C424 C 0.14248 0.31951 0.22334 0.0
C425 C 0.17475 0.35306 0.23268 0.0
C426 C 0.18542 0.38568 0.21417 0.0
C427 C 0.16484 0.38443 0.18666 0.0
H428 H 0.56622 0.74233 0.17868 0.0
H429 H 0.67992 0.77072 0.20032 0.0
H430 H 0.56365 0.77215 0.22913 0.0
H431 H 0.67691 0.79855 0.25137 0.0
H432 H 0.68159 0.88585 0.31841 0.0
H433 H 0.67918 0.85328 0.26863 0.0
H434 H 0.56203 0.77329 0.2863 0.0
H435 H 0.56422 0.80748 0.33554 0.0
C436 C 0.59029 0.75405 0.19468 0.0
C437 C 0.62337 0.75449 0.1855 0.0
C438 C 0.58887 0.77119 0.22364 0.0
C439 C 0.62037 0.78861 0.24419 0.0
C440 C 0.65253 0.78671 0.23576 0.0
C441 C 0.65416 0.7703 0.20663 0.0
C442 C 0.65521 0.86152 0.31149 0.0
C443 C 0.62314 0.84916 0.33092 0.0
C444 C 0.65388 0.84247 0.28308 0.0
C445 C 0.6206 0.80997 0.27361 0.0
C446 C 0.58813 0.79824 0.29263 0.0
C447 C 0.58934 0.8178 0.32089 0.0
H448 H 0.24286 0.82432 0.17783 0.0
H449 H 0.20281 0.9006 0.20043 0.0
H450 H 0.20635 0.78407 0.22321 0.0
H451 H 0.16793 0.86177 0.24627 0.0
H452 H 0.0761 0.77022 0.30179 0.0
H453 H 0.11282 0.80396 0.25453 0.0
H454 H 0.19771 0.77631 0.28083 0.0
H455 H 0.15969 0.74083 0.32749 0.0
C456 C 0.22695 0.83289 0.19297 0.0
C457 C 0.22539 0.86539 0.1855 0.0
C458 C 0.20597 0.80982 0.21892 0.0
C459 C 0.1834 0.81913 0.238 0.0
C460 C 0.18383 0.85289 0.23147 0.0
C461 C 0.20422 0.87548 0.2054 0.0
C462 C 0.10226 0.77076 0.29712 0.0
C463 C 0.11516 0.75313 0.31838 0.0
C464 C 0.12361 0.7905 0.27024 0.0
C465 C 0.15885 0.79387 0.26431 0.0
C466 C 0.17077 0.77437 0.28461 0.0
C467 C 0.14897 0.75398 0.31132 0.0
H468 H 0.90959 0.68662 0.80545 0.0
H469 H 0.82553 0.57493 0.83495 0.0
H470 H 0.87341 0.68099 0.75718 0.0
H471 H 0.78818 0.5697 0.78705 0.0
H472 H 0.74504 0.56771 0.682 0.0
H473 H 0.78114 0.56623 0.72859 0.0
H474 H 0.81758 0.68279 0.74802 0.0
H475 H 0.78293 0.68449 0.70118 0.0
C476 C 0.88348 0.66067 0.80139 0.0
C477 C 0.87024 0.63134 0.82404 0.0
C478 C 0.86247 0.65756 0.7739 0.0
C479 C 0.8273 0.6253 0.76866 0.0
C480 C 0.81509 0.59496 0.79033 0.0
C481 C 0.8365 0.5979 0.81774 0.0
C482 C 0.76044 0.59279 0.69656 0.0
C483 C 0.76149 0.62631 0.68782 0.0
C484 C 0.78116 0.59199 0.7232 0.0
C485 C 0.80303 0.62464 0.74163 0.0
C486 C 0.80217 0.65745 0.73377 0.0
C487 C 0.78194 0.65835 0.70709 0.0
H488 H 0.27931 0.17311 0.81671 0.0
H489 H 0.39868 0.22471 0.83219 0.0
H490 H 0.28435 0.14216 0.76858 0.0
H491 H 0.40372 0.1919 0.78464 0.0
H492 H 0.40139 0.15484 0.67783 0.0
H493 H 0.40142 0.18691 0.72773 0.0
H494 H 0.29247 0.09295 0.75247 0.0
H495 H 0.29173 0.06242 0.70184 0.0
C496 C 0.30668 0.17759 0.80989 0.0
C497 C 0.33857 0.20122 0.82827 0.0
C498 C 0.30957 0.15947 0.7824 0.0
C499 C 0.34436 0.16376 0.77286 0.0
C500 C 0.37649 0.18801 0.79103 0.0
C501 C 0.37365 0.20678 0.81833 0.0
C502 C 0.37776 0.14097 0.69426 0.0
C503 C 0.34639 0.10637 0.6859 0.0
C504 C 0.37773 0.15929 0.72292 0.0
C505 C 0.34657 0.143 0.744 0.0
C506 C 0.3164 0.10712 0.73642 0.0
C507 C 0.3161 0.08931 0.70754 0.0
H508 H 0.75027 0.17387 0.82944 0.0
H509 H 0.79007 0.0967 0.81005 0.0
H510 H 0.78157 0.20898 0.78034 0.0
H511 H 0.81967 0.13032 0.76043 0.0
H512 H 0.9035 0.21648 0.69383 0.0
H513 H 0.87208 0.18619 0.74406 0.0
H514 H 0.78394 0.21101 0.72296 0.0
H515 H 0.81675 0.24313 0.67325 0.0
C516 C 0.76507 0.16399 0.81432 0.0
C517 C 0.76794 0.13269 0.8237 0.0
C518 C 0.78302 0.18409 0.78614 0.0
C519 C 0.80385 0.17302 0.76654 0.0
C520 C 0.80504 0.14057 0.77533 0.0
C521 C 0.78766 0.12093 0.80365 0.0
C522 C 0.87768 0.21594 0.70016 0.0
C523 C 0.86252 0.23205 0.67955 0.0
C524 C 0.85934 0.19814 0.72882 0.0
C525 C 0.82485 0.19522 0.73738 0.0
C526 C 0.81045 0.21274 0.71734 0.0
C527 C 0.82924 0.23118 0.68881 0.0
H528 H 0.05956 0.4921 0.05374 0.0
H529 H 0.03433 0.43211 0.96282 0.0
H530 H 0.02154 0.51952 0.0374 0.0
H531 H -0.00441 0.4586 0.94694 0.0
H532 H 0.95323 0.5406 0.92049 0.0
H533 H -0.00635 0.51449 0.93226 0.0
H534 H 0.95455 0.49494 0.03148 0.0
H535 H 0.91492 0.52175 0.01991 0.0
C536 C 0.0465 0.48531 0.03005 0.0
C537 C 0.04975 0.45975 0.00971 0.0
C538 C 0.02426 0.50056 0.02086 0.0
C539 C 0.00481 0.49052 0.99117 0.0
C540 C 0.0101 0.46689 0.96996 0.0
C541 C 0.03236 0.45171 0.97911 0.0
C542 C 0.9526 0.52988 0.9446 0.0
C543 C 0.93104 0.53341 0.96932 0.0
C544 C 0.97595 0.51514 0.95141 0.0
C545 C 0.97803 0.50352 0.98302 0.0
C546 C 0.95451 0.50475 0.00713 0.0
C547 C 0.93135 0.5196 1.00037 0.0
H548 H 0.50906 0.60076 0.98346 0.0
H549 H 0.52347 0.57761 0.0829 0.0
H550 H 0.48032 0.53428 0.97067 0.0
H551 H 0.49536 0.51101 0.06992 0.0
H552 H 0.40998 0.38969 0.03773 0.0
H553 H 0.43813 0.45509 0.05398 0.0
H554 H 0.50153 0.48918 0.96463 0.0
H555 H 0.47252 0.42356 0.94792 0.0
C556 C 0.50562 0.58139 0.00272 0.0
C557 C 0.51862 0.59447 0.03419 0.0
C558 C 0.48961 0.54334 0.99527 0.0
C559 C 0.48633 0.51745 0.01908 0.0
C560 C 0.49749 0.53022 0.051 0.0
C561 C 0.51343 0.56837 0.05849 0.0
C562 C 0.43035 0.41107 0.02172 0.0
C563 C 0.43883 0.40144 0.9914 0.0
C564 C 0.44652 0.44861 0.0311 0.0
C565 C 0.47159 0.47741 0.0104 0.0
C566 C 0.4816 0.46766 0.98081 0.0
C567 C 0.46537 0.43006 0.9714 0.0
H568 H 0.38689 0.96674 0.95661 0.0
H569 H 0.427 0.94725 0.04718 0.0
H570 H 0.45143 0.00589 0.93807 0.0
H571 H 0.49149 0.98592 0.02836 0.0
H572 H 0.59691 0.09402 0.00681 0.0
H573 H 0.53067 0.05428 0.01951 0.0
H574 H 0.51063 0.00744 0.92301 0.0
H575 H 0.57719 0.04772 0.91007 0.0
C576 C 0.40945 0.9701 0.97228 0.0
C577 C 0.40185 0.95421 0.00353 0.0
C578 C 0.44642 0.99258 0.96162 0.0
C579 C 0.47649 -0.00031 0.98205 0.0
C580 C 0.46883 0.98172 0.01241 0.0
C581 C 0.43189 0.95917 0.02304 0.0
C582 C 0.57827 0.07589 0.98802 0.0
C583 C 0.59231 0.0738 0.95752 0.0
C584 C 0.5404 0.05275 0.99546 0.0
C585 C 0.5157 0.02696 0.97257 0.0
C586 C 0.52909 0.02688 0.94121 0.0
C587 C 0.56714 0.05015 0.93372 0.0
H588 H 0.54287 0.93024 0.54562 0.0
H589 H 0.50324 0.9308 0.44882 0.0
H590 H 0.52249 0.97338 0.56335 0.0
H591 H 0.48114 0.9728 0.46696 0.0
H592 H 0.48088 0.07692 0.49623 0.0
H593 H 0.50632 0.03664 0.48195 0.0
H594 H 0.47121 0.98157 0.57511 0.0
H595 H 0.44735 0.02302 0.58979 0.0
C596 C 0.52894 0.93885 0.52826 0.0
C597 C 0.52479 0.92716 0.49573 0.0
C598 C 0.51724 0.96369 0.53848 0.0
C599 C 0.50071 0.97716 0.51652 0.0
C600 C 0.49476 0.96387 0.48435 0.0
C601 C 0.50685 0.93929 0.47402 0.0
C602 C 0.47964 0.05693 0.51399 0.0
C603 C 0.46211 0.05308 0.5441 0.0
C604 C 0.49361 0.03337 0.50561 0.0
C605 C 0.48989 0.00508 0.52699 0.0
C606 C 0.47465 0.00302 0.55801 0.0
C607 C 0.46114 0.02698 0.56655 0.0
H608 H 0.91841 0.41658 0.55343 0.0
H609 H 0.91993 0.37799 0.45631 0.0
H610 H 0.95776 0.48136 0.53551 0.0
H611 H 0.96034 0.44237 0.43875 0.0
H612 H 0.01245 0.56775 0.41363 0.0
H613 H 0.96839 0.50263 0.42796 0.0
H614 H 0.02237 0.51964 0.5212 0.0
H615 H 0.06541 0.58495 0.50724 0.0
C616 C 0.92655 0.42192 0.52815 0.0
C617 C 0.91626 0.3921 0.5064 0.0
C618 C 0.94961 0.45903 0.51796 0.0
C619 C 0.96307 0.46707 0.48585 0.0
C620 C 0.95059 0.43733 0.46362 0.0
C621 C 0.92732 0.4003 0.47375 0.0
C622 C 0.01541 0.5573 0.43688 0.0
C623 C 0.04235 0.58146 0.45933 0.0
C624 C -0.01001 0.52001 0.44521 0.0
C625 C -0.00876 0.50605 0.47604 0.0
C626 C 0.01976 0.52973 0.49765 0.0
C627 C 0.04487 0.56703 0.48946 0.0
H628 H 0.4106 0.44727 0.41872 0.0
H629 H 0.39167 0.46886 0.51743 0.0
H630 H 0.47674 0.47117 0.43104 0.0
H631 H 0.45775 0.49356 0.52953 0.0
H632 H 0.56212 0.49153 0.55419 0.0
H633 H 0.49731 0.466 0.53668 0.0
H634 H 0.53599 0.52542 0.44575 0.0
H635 H 0.60065 0.54998 0.4628 0.0
C636 C 0.4208 0.45823 0.44275 0.0
C637 C 0.39593 0.456 0.46717 0.0
C638 C 0.45864 0.47166 0.44988 0.0
C639 C 0.47227 0.48328 0.48151 0.0
C640 C 0.44788 0.48362 0.50521 0.0
C641 C 0.41013 0.47004 0.49815 0.0
C642 C 0.5568 0.49831 0.53013 0.0
C643 C 0.58652 0.52304 0.51004 0.0
C644 C 0.51967 0.48417 0.52027 0.0
C645 C 0.51152 0.49453 0.49016 0.0
C646 C 0.54126 0.51699 0.46911 0.0
C647 C 0.57837 0.53103 0.47893 0.0
loop_
_geom_bond_atom_site_label_1
_geom_bond_atom_site_label_2
_geom_bond_distance
_geom_bond_site_symmetry_2
_ccdc_geom_bond_type
O0 Cd1 2.223 . S
O0 C8 1.315 . S
Cd1 O0 2.223 . S
Cd1 O4 2.297 . S
Cd1 O5 2.439 . S
Cd1 O11 2.240 . S
Cd2 O3 2.240 . S
Cd2 O10 2.223 . S
Cd2 O12 2.297 . S
Cd2 O13 2.439 . S
O3 Cd2 2.240 . S
O3 C8 1.279 . S
O4 Cd1 2.297 . S
O4 C6 1.247 . S
O5 Cd1 2.439 . S
O5 C6 1.208 . S
C6 O4 1.247 . S
C6 O5 1.208 . S
C7 O12 1.247 . S
C7 O13 1.208 . S
C8 O0 1.315 . S
C8 O3 1.279 . S
C9 O10 1.315 . S
C9 O11 1.279 . S
O10 Cd2 2.223 . S
O10 C9 1.315 . S
O11 Cd1 2.240 . S
O11 C9 1.279 . S
O12 Cd2 2.297 . S
O12 C7 1.247 . S
O13 Cd2 2.439 . S
O13 C7 1.208 . S
O14 Cd15 2.223 . S
O14 C22 1.315 . S
Cd15 O14 2.223 . S
Cd15 O18 2.297 . S
Cd15 O19 2.439 . S
Cd15 O25 2.240 . S
Cd16 O17 2.240 . S
Cd16 O24 2.223 . S
Cd16 O26 2.297 . S
Cd16 O27 2.439 . S
O17 Cd16 2.240 . S
O17 C22 1.279 . S
O18 Cd15 2.297 . S
O18 C20 1.247 . S
O19 Cd15 2.439 . S
O19 C20 1.208 . S
C20 O18 1.247 . S
C20 O19 1.208 . S
C21 O26 1.247 . S
C21 O27 1.208 . S
C22 O14 1.315 . S
C22 O17 1.279 . S
C23 O24 1.315 . S
C23 O25 1.279 . S
O24 Cd16 2.223 . S
O24 C23 1.315 . S
O25 Cd15 2.240 . S
O25 C23 1.279 . S
O26 Cd16 2.297 . S
O26 C21 1.247 . S
O27 Cd16 2.439 . S
O27 C21 1.208 . S
O28 Cd29 2.223 . S
O28 C36 1.315 . S
Cd29 O28 2.223 . S
Cd29 O32 2.297 . S
Cd29 O33 2.439 . S
Cd29 O39 2.240 . S
Cd30 O31 2.240 . S
Cd30 O38 2.223 . S
Cd30 O40 2.297 . S
Cd30 O41 2.439 . S
O31 Cd30 2.240 . S
O31 C36 1.279 . S
O32 Cd29 2.297 . S
O32 C34 1.247 . S
O33 Cd29 2.439 . S
O33 C34 1.208 . S
C34 O32 1.247 . S
C34 O33 1.208 . S
C35 O40 1.247 . S
C35 O41 1.208 . S
C36 O28 1.315 . S
C36 O31 1.279 . S
C37 O38 1.315 . S
C37 O39 1.279 . S
O38 Cd30 2.223 . S
O38 C37 1.315 . S
O39 Cd29 2.240 . S
O39 C37 1.279 . S
O40 Cd30 2.297 . S
O40 C35 1.247 . S
O41 Cd30 2.439 . S
O41 C35 1.208 . S
O42 Cd43 2.223 . S
O42 C50 1.315 . S
Cd43 O42 2.223 . S
Cd43 O46 2.297 . S
Cd43 O47 2.439 . S
Cd43 O53 2.240 . S
Cd44 O45 2.240 . S
Cd44 O52 2.223 . S
Cd44 O54 2.297 . S
Cd44 O55 2.439 . S
O45 Cd44 2.240 . S
O45 C50 1.279 . S
O46 Cd43 2.297 . S
O46 C48 1.247 . S
O47 Cd43 2.439 . S
O47 C48 1.208 . S
C48 O46 1.247 . S
C48 O47 1.208 . S
C49 O54 1.247 . S
C49 O55 1.208 . S
C50 O42 1.315 . S
C50 O45 1.279 . S
C51 O52 1.315 . S
C51 O53 1.279 . S
O52 Cd44 2.223 . S
O52 C51 1.315 . S
O53 Cd43 2.240 . S
O53 C51 1.279 . S
O54 Cd44 2.297 . S
O54 C49 1.247 . S
O55 Cd44 2.439 . S
O55 C49 1.208 . S
O56 Cd57 2.223 . S
O56 C64 1.315 . S
Cd57 O56 2.223 . S
Cd57 O60 2.297 . S
Cd57 O61 2.439 . S
Cd57 O67 2.240 . S
Cd58 O59 2.240 . S
Cd58 O66 2.223 . S
Cd58 O68 2.297 . S
Cd58 O69 2.439 . S
O59 Cd58 2.240 . S
O59 C64 1.279 . S
O60 Cd57 2.297 . S
O60 C62 1.247 . S
O61 Cd57 2.439 . S
O61 C62 1.208 . S
C62 O60 1.247 . S
C62 O61 1.208 . S
C63 O68 1.247 . S
C63 O69 1.208 . S
C64 O56 1.315 . S
C64 O59 1.279 . S
C65 O66 1.315 . S
C65 O67 1.279 . S
O66 Cd58 2.223 . S
O66 C65 1.315 . S
O67 Cd57 2.240 . S
O67 C65 1.279 . S
O68 Cd58 2.297 . S
O68 C63 1.247 . S
O69 Cd58 2.439 . S
O69 C63 1.208 . S
O70 Cd71 2.223 . S
O70 C78 1.315 . S
Cd71 O70 2.223 . S
Cd71 O74 2.297 . S
Cd71 O75 2.439 . S
Cd71 O81 2.240 . S
Cd72 O73 2.240 . S
Cd72 O80 2.223 . S
Cd72 O82 2.297 . S
Cd72 O83 2.439 . S
O73 Cd72 2.240 . S
O73 C78 1.279 . S
O74 Cd71 2.297 . S
O74 C76 1.247 . S
O75 Cd71 2.439 . S
O75 C76 1.208 . S
C76 O74 1.247 . S
C76 O75 1.208 . S
C77 O82 1.247 . S
C77 O83 1.208 . S
C78 O70 1.315 . S
C78 O73 1.279 . S
C79 O80 1.315 . S
C79 O81 1.279 . S
O80 Cd72 2.223 . S
O80 C79 1.315 . S
O81 Cd71 2.240 . S
O81 C79 1.279 . S
O82 Cd72 2.297 . S
O82 C77 1.247 . S
O83 Cd72 2.439 . S
O83 C77 1.208 . S
O84 Cd85 2.223 . S
O84 C92 1.315 . S
Cd85 O84 2.223 . S
Cd85 O88 2.297 . S
Cd85 O89 2.439 . S
Cd85 O95 2.240 . S
Cd86 O87 2.240 . S
Cd86 O94 2.223 . S
Cd86 O96 2.297 . S
Cd86 O97 2.439 . S
O87 Cd86 2.240 . S
O87 C92 1.279 . S
O88 Cd85 2.297 . S
O88 C90 1.247 . S
O89 Cd85 2.439 . S
O89 C90 1.208 . S
C90 O88 1.247 . S
C90 O89 1.208 . S
C91 O96 1.247 . S
C91 O97 1.208 . S
C92 O84 1.315 . S
C92 O87 1.279 . S
C93 O94 1.315 . S
C93 O95 1.279 . S
O94 Cd86 2.223 . S
O94 C93 1.315 . S
O95 Cd85 2.240 . S
O95 C93 1.279 . S
O96 Cd86 2.297 . S
O96 C91 1.247 . S
O97 Cd86 2.439 . S
O97 C91 1.208 . S
O98 Cd99 2.223 . S
O98 C106 1.315 . S
Cd99 O98 2.223 . S
Cd99 O102 2.297 . S
Cd99 O103 2.439 . S
Cd99 O109 2.240 . S
Cd100 O101 2.240 . S
Cd100 O108 2.223 . S
Cd100 O110 2.297 . S
Cd100 O111 2.439 . S
O101 Cd100 2.240 . S
O101 C106 1.279 . S
O102 Cd99 2.297 . S
O102 C104 1.247 . S
O103 Cd99 2.439 . S
O103 C104 1.208 . S
C104 O102 1.247 . S
C104 O103 1.208 . S
C105 O110 1.247 . S
C105 O111 1.208 . S
C106 O98 1.315 . S
C106 O101 1.279 . S
C107 O108 1.315 . S
C107 O109 1.279 . S
O108 Cd100 2.223 . S
O108 C107 1.315 . S
O109 Cd99 2.240 . S
O109 C107 1.279 . S
O110 Cd100 2.297 . S
O110 C105 1.247 . S
O111 Cd100 2.439 . S
O111 C105 1.208 . S
O112 Cd113 2.223 . S
O112 C120 1.315 . S
Cd113 O112 2.223 . S
Cd113 O116 2.297 . S
Cd113 O117 2.439 . S
Cd113 O123 2.240 . S
Cd114 O115 2.240 . S
Cd114 O122 2.223 . S
Cd114 O124 2.297 . S
Cd114 O125 2.439 . S
O115 Cd114 2.240 . S
O115 C120 1.279 . S
O116 Cd113 2.297 . S
O116 C118 1.247 . S
O117 Cd113 2.439 . S
O117 C118 1.208 . S
C118 O116 1.247 . S
C118 O117 1.208 . S
C119 O124 1.247 . S
C119 O125 1.208 . S
C120 O112 1.315 . S
C120 O115 1.279 . S
C121 O122 1.315 . S
C121 O123 1.279 . S
O122 Cd114 2.223 . S
O122 C121 1.315 . S
O123 Cd113 2.240 . S
O123 C121 1.279 . S
O124 Cd114 2.297 . S
O124 C119 1.247 . S
O125 Cd114 2.439 . S
O125 C119 1.208 . S
O126 Cd127 2.223 . S
O126 C134 1.315 . S
Cd127 O126 2.223 . S
Cd127 O130 2.297 . S
Cd127 O131 2.439 . S
Cd127 O137 2.240 . S
Cd128 O129 2.240 . S
Cd128 O136 2.223 . S
Cd128 O138 2.297 . S
Cd128 O139 2.439 . S
O129 Cd128 2.240 . S
O129 C134 1.279 . S
O130 Cd127 2.297 . S
O130 C132 1.247 . S
O131 Cd127 2.439 . S
O131 C132 1.208 . S
C132 O130 1.247 . S
C132 O131 1.208 . S
C133 O138 1.247 . S
C133 O139 1.208 . S
C134 O126 1.315 . S
C134 O129 1.279 . S
C135 O136 1.315 . S
C135 O137 1.279 . S
O136 Cd128 2.223 . S
O136 C135 1.315 . S
O137 Cd127 2.240 . S
O137 C135 1.279 . S
O138 Cd128 2.297 . S
O138 C133 1.247 . S
O139 Cd128 2.439 . S
O139 C133 1.208 . S
O140 Cd141 2.223 . S
O140 C148 1.315 . S
Cd141 O140 2.223 . S
Cd141 O144 2.297 . S
Cd141 O145 2.439 . S
Cd141 O151 2.240 . S
Cd142 O143 2.240 . S
Cd142 O150 2.223 . S
Cd142 O152 2.297 . S
Cd142 O153 2.439 . S
O143 Cd142 2.240 . S
O143 C148 1.279 . S
O144 Cd141 2.297 . S
O144 C146 1.247 . S
O145 Cd141 2.439 . S
O145 C146 1.208 . S
C146 O144 1.247 . S
C146 O145 1.208 . S
C147 O152 1.247 . S
C147 O153 1.208 . S
C148 O140 1.315 . S
C148 O143 1.279 . S
C149 O150 1.315 . S
C149 O151 1.279 . S
O150 Cd142 2.223 . S
O150 C149 1.315 . S
O151 Cd141 2.240 . S
O151 C149 1.279 . S
O152 Cd142 2.297 . S
O152 C147 1.247 . S
O153 Cd142 2.439 . S
O153 C147 1.208 . S
O154 Cd155 2.223 . S
O154 C162 1.315 . S
Cd155 O154 2.223 . S
Cd155 O158 2.297 . S
Cd155 O159 2.439 . S
Cd155 O165 2.240 . S
Cd156 O157 2.240 . S
Cd156 O164 2.223 . S
Cd156 O166 2.297 . S
Cd156 O167 2.439 . S
O157 Cd156 2.240 . S
O157 C162 1.279 . S
O158 Cd155 2.297 . S
O158 C160 1.247 . S
O159 Cd155 2.439 . S
O159 C160 1.208 . S
C160 O158 1.247 . S
C160 O159 1.208 . S
C161 O166 1.247 . S
C161 O167 1.208 . S
C162 O154 1.315 . S
C162 O157 1.279 . S
C163 O164 1.315 . S
C163 O165 1.279 . S
O164 Cd156 2.223 . S
O164 C163 1.315 . S
O165 Cd155 2.240 . S
O165 C163 1.279 . S
O166 Cd156 2.297 . S
O166 C161 1.247 . S
O167 Cd156 2.439 . S
O167 C161 1.208 . S
H168 C176 0.950 . S
H169 C181 0.950 . S
H170 C178 0.950 . S
H171 C180 0.950 . S
H172 C182 0.950 . S
H173 C184 0.950 . S
H174 C186 0.950 . S
H175 C187 0.950 1_554 S
C176 H168 0.950 . S
C176 C177 1.386 . S
C176 C178 1.391 . S
C177 C176 1.386 . S
C177 C181 1.393 . S
C178 H170 0.950 . S
C178 C176 1.391 . S
C178 C179 1.400 . S
C179 C178 1.400 . S
C179 C180 1.398 1_554 S
C179 C185 1.491 1_554 S
C180 H171 0.950 . S
C180 C179 1.398 1_556 S
C180 C181 1.391 1_556 S
C181 H169 0.950 . S
C181 C177 1.393 . S
C181 C180 1.391 1_554 S
C182 H172 0.950 . S
C182 C183 1.386 . S
C182 C184 1.391 . S
C183 C182 1.386 . S
C183 C187 1.393 . S
C184 H173 0.950 . S
C184 C182 1.391 . S
C184 C185 1.400 . S
C185 C179 1.491 1_556 S
C185 C184 1.400 . S
C185 C186 1.398 1_556 S
C186 H174 0.950 . S
C186 C185 1.398 1_554 S
C186 C187 1.391 1_554 S
C187 H175 0.950 1_556 S
C187 C183 1.393 . S
C187 C186 1.391 1_556 S
H188 C196 0.950 . S
H189 C201 0.929 1_556 S
H190 C198 0.950 . S
H191 C200 0.950 . S
H192 C202 0.950 . S
H193 C204 0.950 . S
H194 C206 0.950 . S
H195 C207 0.950 1_545 S
C196 H188 0.950 . S
C196 C197 1.386 . S
C196 C198 1.391 . S
C197 C196 1.386 . S
C197 C201 1.426 . S
C198 H190 0.950 . S
C198 C196 1.391 . S
C198 C199 1.400 . S
C199 C198 1.400 . S
C199 C200 1.398 1_554 S
C199 C205 1.491 1_554 S
C200 H191 0.950 . S
C200 C199 1.398 1_556 S
C200 C201 1.379 1_556 S
C201 H189 0.929 1_554 S
C201 C197 1.426 . S
C201 C200 1.379 1_554 S
C202 H192 0.950 . S
C202 C203 1.386 . S
C202 C204 1.391 . S
C203 C202 1.386 . S
C203 C207 1.393 1_556 S
C204 H193 0.950 . S
C204 C202 1.391 . S
C204 C205 1.400 . S
C205 C199 1.491 1_556 S
C205 C204 1.400 . S
C205 C206 1.398 1_556 S
C206 H194 0.950 . S
C206 C205 1.398 1_554 S
C206 C207 1.391 . S
C207 H195 0.950 1_565 S
C207 C203 1.393 1_554 S
C207 C206 1.391 . S
H208 C216 0.927 1_556 S
H209 C221 0.950 . S
H210 C218 0.950 . S
H211 C220 0.950 . S
H212 C222 0.950 1_655 S
H213 C224 0.950 . S
H214 C226 0.950 . S
H215 C227 0.950 . S
C216 H208 0.927 1_554 S
C216 C217 1.421 . S
C216 C218 1.378 1_554 S
C217 C216 1.421 . S
C217 C221 1.393 . S
C218 H210 0.950 . S
C218 C216 1.378 1_556 S
C218 C219 1.400 1_556 S
C219 C218 1.400 1_554 S
C219 C220 1.398 . S
C219 C225 1.491 1_554 S
C220 H211 0.950 . S
C220 C219 1.398 . S
C220 C221 1.391 . S
C221 H209 0.950 . S
C221 C217 1.393 . S
C221 C220 1.391 . S
C222 H212 0.950 1_455 S
C222 C223 1.386 1_554 S
C222 C224 1.391 . S
C223 C222 1.386 1_556 S
C223 C227 1.393 . S
C224 H213 0.950 . S
C224 C222 1.391 . S
C224 C225 1.400 1_554 S
C225 C219 1.491 1_556 S
C225 C224 1.400 1_556 S
C225 C226 1.398 . S
C226 H214 0.950 . S
C226 C225 1.398 . S
C226 C227 1.391 . S
C227 H215 0.950 . S
C227 C223 1.393 . S
C227 C226 1.391 . S
H228 C236 0.950 . S
H229 C241 0.950 . S
H230 C238 0.950 . S
H231 C240 0.950 . S
H232 C242 0.950 . S
H233 C244 0.950 . S
H234 C246 0.950 . S
H235 C247 0.950 . S
C236 H228 0.950 . S
C236 C237 1.386 . S
C236 C238 1.391 . S
C237 C236 1.386 . S
C237 C241 1.393 . S
C238 H230 0.950 . S
C238 C236 1.391 . S
C238 C239 1.400 . S
C239 C238 1.400 . S
C239 C240 1.398 . S
C239 C245 1.491 . S
C240 H231 0.950 . S
C240 C239 1.398 . S
C240 C241 1.391 . S
C241 H229 0.950 . S
C241 C237 1.393 . S
C241 C240 1.391 . S
C242 H232 0.950 . S
C242 C243 1.386 . S
C242 C244 1.391 . S
C243 C242 1.386 . S
C243 C247 1.393 . S
C244 H233 0.950 . S
C244 C242 1.391 . S
C244 C245 1.400 . S
C245 C239 1.491 . S
C245 C244 1.400 . S
C245 C246 1.398 . S
C246 H234 0.950 . S
C246 C245 1.398 . S
C246 C247 1.391 . S
C247 H235 0.950 . S
C247 C243 1.393 . S
C247 C246 1.391 . S
H248 C256 0.950 . S
H249 C261 0.950 . S
H250 C258 0.950 . S
H251 C260 0.950 . S
H252 C262 0.950 . S
H253 C264 0.950 . S
H254 C266 0.950 . S
H255 C267 0.950 . S
C256 H248 0.950 . S
C256 C257 1.386 . S
C256 C258 1.391 . S
C257 C256 1.386 . S
C257 C261 1.393 . S
C258 H250 0.950 . S
C258 C256 1.391 . S
C258 C259 1.400 . S
C259 C258 1.400 . S
C259 C260 1.398 . S
C259 C265 1.491 . S
C260 H251 0.950 . S
C260 C259 1.398 . S
C260 C261 1.391 . S
C261 H249 0.950 . S
C261 C257 1.393 . S
C261 C260 1.391 . S
C262 H252 0.950 . S
C262 C263 1.386 . S
C262 C264 1.391 . S
C263 C262 1.386 . S
C263 C267 1.393 . S
C264 H253 0.950 . S
C264 C262 1.391 . S
C264 C265 1.400 . S
C265 C259 1.491 . S
C265 C264 1.400 . S
C265 C266 1.398 . S
C266 H254 0.950 . S
C266 C265 1.398 . S
C266 C267 1.391 . S
C267 H255 0.950 . S
C267 C263 1.393 . S
C267 C266 1.391 . S
H268 C276 0.929 1_655 S
H269 C281 0.950 . S
H270 C278 0.950 . S
H271 C280 0.950 . S
H272 C282 0.950 . S
H273 C284 0.950 . S
H274 C286 0.950 . S
H275 C287 0.950 . S
C276 H268 0.929 1_455 S
C276 C277 1.386 . S
C276 C278 1.391 . S
C277 C276 1.386 . S
C277 C281 1.393 . S
C278 H270 0.950 . S
C278 C276 1.391 . S
C278 C279 1.400 . S
C279 C278 1.400 . S
C279 C280 1.398 . S
C279 C285 1.491 . S
C280 H271 0.950 . S
C280 C279 1.398 . S
C280 C281 1.391 . S
C281 H269 0.950 . S
C281 C277 1.393 . S
C281 C280 1.391 . S
C282 H272 0.950 . S
C282 C283 1.386 . S
C282 C284 1.391 . S
C283 C282 1.386 . S
C283 C287 1.393 . S
C284 H273 0.950 . S
C284 C282 1.391 . S
C284 C285 1.400 . S
C285 C279 1.491 . S
C285 C284 1.400 . S
C285 C286 1.398 . S
C286 H274 0.950 . S
C286 C285 1.398 . S
C286 C287 1.391 . S
C287 H275 0.950 . S
C287 C283 1.393 . S
C287 C286 1.391 . S
H288 C296 0.950 . S
H289 C301 0.950 . S
H290 C298 0.956 . S
H291 C300 0.950 . S
H292 C302 0.950 . S
H293 C304 0.950 1_554 S
H294 C306 0.950 . S
H295 C307 0.950 . S
C296 H288 0.950 . S
C296 C297 1.386 . S
C296 C298 1.387 1_554 S
C297 C296 1.386 . S
C297 C301 1.393 . S
C298 H290 0.956 . S
C298 C296 1.387 1_556 S
C298 C299 1.398 1_556 S
C299 C298 1.398 1_554 S
C299 C300 1.398 . S
C299 C305 1.491 1_554 S
C300 H291 0.950 . S
C300 C299 1.398 . S
C300 C301 1.391 . S
C301 H289 0.950 . S
C301 C297 1.393 . S
C301 C300 1.391 . S
C302 H292 0.950 . S
C302 C303 1.386 . S
C302 C304 1.391 . S
C303 C302 1.386 . S
C303 C307 1.393 . S
C304 H293 0.950 1_556 S
C304 C302 1.391 . S
C304 C305 1.400 . S
C305 C299 1.491 1_556 S
C305 C304 1.400 . S
C305 C306 1.398 . S
C306 H294 0.950 . S
C306 C305 1.398 . S
C306 C307 1.391 . S
C307 H295 0.950 . S
C307 C303 1.393 . S
C307 C306 1.391 . S
H308 C316 0.950 . S
H309 C321 0.950 . S
H310 C318 0.950 . S
H311 C320 0.950 1_554 S
H312 C322 0.950 1_565 S
H313 C324 0.950 . S
H314 C326 0.950 1_556 S
H315 C327 0.950 . S
C316 H308 0.950 . S
C316 C317 1.386 . S
C316 C318 1.391 . S
C317 C316 1.386 . S
C317 C321 1.393 . S
C318 H310 0.950 . S
C318 C316 1.391 . S
C318 C319 1.400 . S
C319 C318 1.400 . S
C319 C320 1.398 . S
C319 C325 1.491 1_556 S
C320 H311 0.950 1_556 S
C320 C319 1.398 . S
C320 C321 1.391 . S
C321 H309 0.950 . S
C321 C317 1.393 . S
C321 C320 1.391 . S
C322 H312 0.950 1_545 S
C322 C323 1.386 . S
C322 C324 1.391 . S
C323 C322 1.386 . S
C323 C327 1.393 . S
C324 H313 0.950 . S
C324 C322 1.391 . S
C324 C325 1.400 . S
C325 C319 1.491 1_554 S
C325 C324 1.400 . S
C325 C326 1.398 . S
C326 H314 0.950 1_554 S
C326 C325 1.398 . S
C326 C327 1.391 . S
C327 H315 0.950 . S
C327 C323 1.393 . S
C327 C326 1.391 . S
H328 C336 0.950 1_455 S
H329 C341 0.950 . S
H330 C338 0.950 . S
H331 C340 0.950 . S
H332 C342 0.950 . S
H333 C344 0.950 . S
H334 C346 0.950 . S
H335 C347 0.950 . S
C336 H328 0.950 1_655 S
C336 C337 1.386 . S
C336 C338 1.391 . S
C337 C336 1.386 . S
C337 C341 1.393 . S
C338 H330 0.950 . S
C338 C336 1.391 . S
C338 C339 1.400 . S
C339 C338 1.400 . S
C339 C340 1.398 . S
C339 C345 1.491 1_554 S
C340 H331 0.950 . S
C340 C339 1.398 . S
C340 C341 1.391 . S
C341 H329 0.950 . S
C341 C337 1.393 . S
C341 C340 1.391 . S
C342 H332 0.950 . S
C342 C343 1.386 . S
C342 C344 1.391 . S
C343 C342 1.386 . S
C343 C347 1.393 . S
C344 H333 0.950 . S
C344 C342 1.391 . S
C344 C345 1.400 . S
C345 C339 1.491 1_556 S
C345 C344 1.400 . S
C345 C346 1.398 . S
C346 H334 0.950 . S
C346 C345 1.398 . S
C346 C347 1.391 . S
C347 H335 0.950 . S
C347 C343 1.393 . S
C347 C346 1.391 . S
H348 C356 0.950 . S
H349 C361 0.950 . S
H350 C358 0.950 . S
H351 C360 0.950 . S
H352 C362 0.950 . S
H353 C364 0.950 . S
H354 C366 0.950 . S
H355 C367 0.950 . S
C356 H348 0.950 . S
C356 C357 1.386 . S
C356 C358 1.391 . S
C357 C356 1.386 . S
C357 C361 1.393 . S
C358 H350 0.950 . S
C358 C356 1.391 . S
C358 C359 1.400 . S
C359 C358 1.400 . S
C359 C360 1.398 . S
C359 C365 1.491 . S
C360 H351 0.950 . S
C360 C359 1.398 . S
C360 C361 1.391 . S
C361 H349 0.950 . S
C361 C357 1.393 . S
C361 C360 1.391 . S
C362 H352 0.950 . S
C362 C363 1.386 . S
C362 C364 1.391 . S
C363 C362 1.386 . S
C363 C367 1.393 . S
C364 H353 0.950 . S
C364 C362 1.391 . S
C364 C365 1.400 . S
C365 C359 1.491 . S
C365 C364 1.400 . S
C365 C366 1.398 . S
C366 H354 0.950 . S
C366 C365 1.398 . S
C366 C367 1.391 . S
C367 H355 0.950 . S
C367 C363 1.393 . S
C367 C366 1.391 . S
H368 C376 0.950 . S
H369 C381 0.950 . S
H370 C378 0.950 . S
H371 C380 0.950 . S
H372 C382 0.950 . S
H373 C384 0.950 . S
H374 C386 0.950 . S
H375 C387 0.950 1_565 S
C376 H368 0.950 . S
C376 C377 1.386 . S
C376 C378 1.391 . S
C377 C376 1.386 . S
C377 C381 1.393 . S
C378 H370 0.950 . S
C378 C376 1.391 . S
C378 C379 1.400 . S
C379 C378 1.400 . S
C379 C380 1.398 . S
C379 C385 1.491 . S
C380 H371 0.950 . S
C380 C379 1.398 . S
C380 C381 1.391 . S
C381 H369 0.950 . S
C381 C377 1.393 . S
C381 C380 1.391 . S
C382 H372 0.950 . S
C382 C383 1.386 . S
C382 C384 1.391 . S
C383 C382 1.386 . S
C383 C387 1.393 . S
C384 H373 0.950 . S
C384 C382 1.391 . S
C384 C385 1.400 . S
C385 C379 1.491 . S
C385 C384 1.400 . S
C385 C386 1.398 . S
C386 H374 0.950 . S
C386 C385 1.398 . S
C386 C387 1.391 . S
C387 H375 0.950 1_545 S
C387 C383 1.393 . S
C387 C386 1.391 . S
H388 C396 0.950 1_455 S
H389 C401 0.950 . S
H390 C398 0.950 . S
H391 C400 0.950 . S
H392 C402 0.950 . S
H393 C404 0.950 . S
H394 C406 0.950 . S
H395 C407 0.950 . S
C396 H388 0.950 1_655 S
C396 C397 1.386 . S
C396 C398 1.391 . S
C397 C396 1.386 . S
C397 C401 1.393 . S
C398 H390 0.950 . S
C398 C396 1.391 . S
C398 C399 1.400 . S
C399 C398 1.400 . S
C399 C400 1.398 . S
C399 C405 1.491 . S
C400 H391 0.950 . S
C400 C399 1.398 . S
C400 C401 1.391 . S
C401 H389 0.950 . S
C401 C397 1.393 . S
C401 C400 1.391 . S
C402 H392 0.950 . S
C402 C403 1.386 . S
C402 C404 1.391 . S
C403 C402 1.386 . S
C403 C407 1.393 . S
C404 H393 0.950 . S
C404 C402 1.391 . S
C404 C405 1.400 . S
C405 C399 1.491 . S
C405 C404 1.400 . S
C405 C406 1.398 . S
C406 H394 0.950 . S
C406 C405 1.398 . S
C406 C407 1.391 . S
C407 H395 0.950 . S
C407 C403 1.393 . S
C407 C406 1.391 . S
H408 C416 0.950 . S
H409 C421 0.950 . S
H410 C418 0.950 . S
H411 C420 0.950 . S
H412 C422 0.950 . S
H413 C424 0.950 . S
H414 C426 0.950 . S
H415 C427 0.950 . S
C416 H408 0.950 . S
C416 C417 1.386 . S
C416 C418 1.391 . S
C417 C416 1.386 . S
C417 C421 1.393 . S
C418 H410 0.950 . S
C418 C416 1.391 . S
C418 C419 1.400 . S
C419 C418 1.400 . S
C419 C420 1.398 . S
C419 C425 1.491 . S
C420 H411 0.950 . S
C420 C419 1.398 . S
C420 C421 1.391 . S
C421 H409 0.950 . S
C421 C417 1.393 . S
C421 C420 1.391 . S
C422 H412 0.950 . S
C422 C423 1.386 . S
C422 C424 1.391 . S
C423 C422 1.386 . S
C423 C427 1.393 . S
C424 H413 0.950 . S
C424 C422 1.391 . S
C424 C425 1.400 . S
C425 C419 1.491 . S
C425 C424 1.400 . S
C425 C426 1.398 . S
C426 H414 0.950 . S
C426 C425 1.398 . S
C426 C427 1.391 . S
C427 H415 0.950 . S
C427 C423 1.393 . S
C427 C426 1.391 . S
H428 C436 0.950 . S
H429 C441 0.950 . S
H430 C438 0.950 . S
H431 C440 0.950 . S
H432 C442 0.950 . S
H433 C444 0.950 . S
H434 C446 0.950 . S
H435 C447 0.950 . S
C436 H428 0.950 . S
C436 C437 1.386 . S
C436 C438 1.391 . S
C437 C436 1.386 . S
C437 C441 1.393 . S
C438 H430 0.950 . S
C438 C436 1.391 . S
C438 C439 1.400 . S
C439 C438 1.400 . S
C439 C440 1.398 . S
C439 C445 1.491 . S
C440 H431 0.950 . S
C440 C439 1.398 . S
C440 C441 1.391 . S
C441 H429 0.950 . S
C441 C437 1.393 . S
C441 C440 1.391 . S
C442 H432 0.950 . S
C442 C443 1.386 . S
C442 C444 1.391 . S
C443 C442 1.386 . S
C443 C447 1.393 . S
C444 H433 0.950 . S
C444 C442 1.391 . S
C444 C445 1.400 . S
C445 C439 1.491 . S
C445 C444 1.400 . S
C445 C446 1.398 . S
C446 H434 0.950 . S
C446 C445 1.398 . S
C446 C447 1.391 . S
C447 H435 0.950 . S
C447 C443 1.393 . S
C447 C446 1.391 . S
H448 C456 0.950 . S
H449 C461 0.950 . S
H450 C458 0.950 . S
H451 C460 0.950 . S
H452 C462 0.950 . S
H453 C464 0.950 . S
H454 C466 0.950 . S
H455 C467 0.950 . S
C456 H448 0.950 . S
C456 C457 1.386 . S
C456 C458 1.391 . S
C457 C456 1.386 . S
C457 C461 1.393 . S
C458 H450 0.950 . S
C458 C456 1.391 . S
C458 C459 1.400 . S
C459 C458 1.400 . S
C459 C460 1.398 . S
C459 C465 1.491 . S
C460 H451 0.950 . S
C460 C459 1.398 . S
C460 C461 1.391 . S
C461 H449 0.950 . S
C461 C457 1.393 . S
C461 C460 1.391 . S
C462 H452 0.950 . S
C462 C463 1.386 . S
C462 C464 1.391 . S
C463 C462 1.386 . S
C463 C467 1.393 . S
C464 H453 0.950 . S
C464 C462 1.391 . S
C464 C465 1.400 . S
C465 C459 1.491 . S
C465 C464 1.400 . S
C465 C466 1.398 . S
C466 H454 0.950 . S
C466 C465 1.398 . S
C466 C467 1.391 . S
C467 H455 0.950 . S
C467 C463 1.393 . S
C467 C466 1.391 . S
H468 C476 0.950 . S
H469 C481 0.950 . S
H470 C478 0.950 . S
H471 C480 0.950 . S
H472 C482 0.950 . S
H473 C484 0.950 . S
H474 C486 0.950 . S
H475 C487 0.950 . S
C476 H468 0.950 . S
C476 C477 1.386 . S
C476 C478 1.391 . S
C477 C476 1.386 . S
C477 C481 1.393 . S
C478 H470 0.950 . S
C478 C476 1.391 . S
C478 C479 1.400 . S
C479 C478 1.400 . S
C479 C480 1.398 . S
C479 C485 1.491 . S
C480 H471 0.950 . S
C480 C479 1.398 . S
C480 C481 1.391 . S
C481 H469 0.950 . S
C481 C477 1.393 . S
C481 C480 1.391 . S
C482 H472 0.950 . S
C482 C483 1.386 . S
C482 C484 1.391 . S
C483 C482 1.386 . S
C483 C487 1.393 . S
C484 H473 0.950 . S
C484 C482 1.391 . S
C484 C485 1.400 . S
C485 C479 1.491 . S
C485 C484 1.400 . S
C485 C486 1.398 . S
C486 H474 0.950 . S
C486 C485 1.398 . S
C486 C487 1.391 . S
C487 H475 0.950 . S
C487 C483 1.393 . S
C487 C486 1.391 . S
H488 C496 0.950 . S
H489 C501 0.950 . S
H490 C498 0.950 . S
H491 C500 0.950 . S
H492 C502 0.950 . S
H493 C504 0.950 . S
H494 C506 0.950 . S
H495 C507 0.950 . S
C496 H488 0.950 . S
C496 C497 1.386 . S
C496 C498 1.391 . S
C497 C496 1.386 . S
C497 C501 1.393 . S
C498 H490 0.950 . S
C498 C496 1.391 . S
C498 C499 1.400 . S
C499 C498 1.400 . S
C499 C500 1.398 . S
C499 C505 1.491 . S
C500 H491 0.950 . S
C500 C499 1.398 . S
C500 C501 1.391 . S
C501 H489 0.950 . S
C501 C497 1.393 . S
C501 C500 1.391 . S
C502 H492 0.950 . S
C502 C503 1.386 . S
C502 C504 1.391 . S
C503 C502 1.386 . S
C503 C507 1.393 . S
C504 H493 0.950 . S
C504 C502 1.391 . S
C504 C505 1.400 . S
C505 C499 1.491 . S
C505 C504 1.400 . S
C505 C506 1.398 . S
C506 H494 0.950 . S
C506 C505 1.398 . S
C506 C507 1.391 . S
C507 H495 0.950 . S
C507 C503 1.393 . S
C507 C506 1.391 . S
H508 C516 0.950 . S
H509 C521 0.950 . S
H510 C518 0.950 . S
H511 C520 0.950 . S
H512 C522 0.950 . S
H513 C524 0.950 . S
H514 C526 0.950 . S
H515 C527 0.950 . S
C516 H508 0.950 . S
C516 C517 1.386 . S
C516 C518 1.391 . S
C517 C516 1.386 . S
C517 C521 1.393 . S
C518 H510 0.950 . S
C518 C516 1.391 . S
C518 C519 1.400 . S
C519 C518 1.400 . S
C519 C520 1.398 . S
C519 C525 1.491 . S
C520 H511 0.950 . S
C520 C519 1.398 . S
C520 C521 1.391 . S
C521 H509 0.950 . S
C521 C517 1.393 . S
C521 C520 1.391 . S
C522 H512 0.950 . S
C522 C523 1.386 . S
C522 C524 1.391 . S
C523 C522 1.386 . S
C523 C527 1.393 . S
C524 H513 0.950 . S
C524 C522 1.391 . S
C524 C525 1.400 . S
C525 C519 1.491 . S
C525 C524 1.400 . S
C525 C526 1.398 . S
C526 H514 0.950 . S
C526 C525 1.398 . S
C526 C527 1.391 . S
C527 H515 0.950 . S
C527 C523 1.393 . S
C527 C526 1.391 . S
H528 C536 0.950 . S
H529 C541 0.950 . S
H530 C538 0.950 . S
H531 C540 0.950 1_556 S
H532 C542 0.950 . S
H533 C544 0.950 . S
H534 C546 0.950 1_554 S
H535 C547 0.950 . S
C536 H528 0.950 . S
C536 C537 1.386 1_655 S
C536 C538 1.391 . S
C537 C536 1.386 1_455 S
C537 C541 1.393 . S
C538 H530 0.950 . S
C538 C536 1.391 . S
C538 C539 1.400 1_655 S
C539 C538 1.400 1_455 S
C539 C540 1.398 . S
C539 C545 1.491 1_454 S
C540 H531 0.950 1_554 S
C540 C539 1.398 . S
C540 C541 1.391 . S
C541 H529 0.950 . S
C541 C537 1.393 . S
C541 C540 1.391 . S
C542 H532 0.950 . S
C542 C543 1.386 1_455 S
C542 C544 1.391 . S
C543 C542 1.386 1_655 S
C543 C547 1.393 . S
C544 H533 0.950 . S
C544 C542 1.391 . S
C544 C545 1.400 1_455 S
C545 C539 1.491 1_656 S
C545 C544 1.400 1_655 S
C545 C546 1.398 . S
C546 H534 0.950 1_556 S
C546 C545 1.398 . S
C546 C547 1.391 . S
C547 H535 0.950 . S
C547 C543 1.393 . S
C547 C546 1.391 . S
H548 C556 0.950 . S
H549 C561 0.950 . S
H550 C558 0.950 1_556 S
H551 C560 0.950 . S
H552 C562 0.950 . S
H553 C564 0.950 1_554 S
H554 C566 0.950 . S
H555 C567 0.950 . S
C556 H548 0.950 . S
C556 C557 1.386 . S
C556 C558 1.391 . S
C557 C556 1.386 . S
C557 C561 1.393 . S
C558 H550 0.950 1_554 S
C558 C556 1.391 . S
C558 C559 1.400 . S
C559 C558 1.400 . S
C559 C560 1.398 . S
C559 C565 1.491 1_554 S
C560 H551 0.950 . S
C560 C559 1.398 . S
C560 C561 1.391 . S
C561 H549 0.950 . S
C561 C557 1.393 . S
C561 C560 1.391 . S
C562 H552 0.950 . S
C562 C563 1.386 . S
C562 C564 1.391 . S
C563 C562 1.386 . S
C563 C567 1.393 . S
C564 H553 0.950 1_556 S
C564 C562 1.391 . S
C564 C565 1.400 . S
C565 C559 1.491 1_556 S
C565 C564 1.400 . S
C565 C566 1.398 . S
C566 H554 0.950 . S
C566 C565 1.398 . S
C566 C567 1.391 . S
C567 H555 0.950 . S
C567 C563 1.393 . S
C567 C566 1.391 . S
H568 C576 0.950 . S
H569 C581 0.950 . S
H570 C578 0.950 . S
H571 C580 0.950 . S
H572 C582 0.950 . S
H573 C584 0.950 . S
H574 C586 0.950 . S
H575 C587 0.950 . S
C576 H568 0.950 . S
C576 C577 1.386 . S
C576 C578 1.391 1_564 S
C577 C576 1.386 . S
C577 C581 1.393 . S
C578 H570 0.950 . S
C578 C576 1.391 1_546 S
C578 C579 1.400 1_546 S
C579 C578 1.400 1_564 S
C579 C580 1.398 . S
C579 C585 1.491 1_564 S
C580 H571 0.950 . S
C580 C579 1.398 . S
C580 C581 1.391 . S
C581 H569 0.950 . S
C581 C577 1.393 . S
C581 C580 1.391 . S
C582 H572 0.950 . S
C582 C583 1.386 . S
C582 C584 1.391 1_546 S
C583 C582 1.386 . S
C583 C587 1.393 . S
C584 H573 0.950 . S
C584 C582 1.391 1_564 S
C584 C585 1.400 1_564 S
C585 C579 1.491 1_546 S
C585 C584 1.400 1_546 S
C585 C586 1.398 . S
C586 H574 0.950 . S
C586 C585 1.398 . S
C586 C587 1.391 . S
C587 H575 0.950 . S
C587 C583 1.393 . S
C587 C586 1.391 . S
H588 C596 0.950 . S
H589 C601 0.950 . S
H590 C598 0.950 . S
H591 C600 0.950 . S
H592 C602 0.950 . S
H593 C604 0.950 . S
H594 C606 0.950 . S
H595 C607 0.950 . S
C596 H588 0.950 . S
C596 C597 1.386 . S
C596 C598 1.391 . S
C597 C596 1.386 . S
C597 C601 1.393 1_565 S
C598 H590 0.950 . S
C598 C596 1.391 . S
C598 C599 1.400 . S
C599 C598 1.400 . S
C599 C600 1.398 1_565 S
C599 C605 1.491 1_565 S
C600 H591 0.950 . S
C600 C599 1.398 1_545 S
C600 C601 1.391 . S
C601 H589 0.950 . S
C601 C597 1.393 1_545 S
C601 C600 1.391 . S
C602 H592 0.950 . S
C602 C603 1.386 . S
C602 C604 1.391 . S
C603 C602 1.386 . S
C603 C607 1.393 1_545 S
C604 H593 0.950 . S
C604 C602 1.391 . S
C604 C605 1.400 . S
C605 C599 1.491 1_545 S
C605 C604 1.400 . S
C605 C606 1.398 1_545 S
C606 H594 0.950 . S
C606 C605 1.398 1_565 S
C606 C607 1.391 . S
C607 H595 0.950 . S
C607 C603 1.393 1_565 S
C607 C606 1.391 . S
H608 C616 0.950 1_455 S
H609 C621 0.950 . S
H610 C618 0.950 . S
H611 C620 0.950 . S
H612 C622 0.950 1_655 S
H613 C624 0.950 . S
H614 C626 0.950 . S
H615 C627 0.950 . S
C616 H608 0.950 1_655 S
C616 C617 1.386 . S
C616 C618 1.391 1_655 S
C617 C616 1.386 . S
C617 C621 1.393 . S
C618 H610 0.950 . S
C618 C616 1.391 1_455 S
C618 C619 1.400 1_455 S
C619 C618 1.400 1_655 S
C619 C620 1.398 . S
C619 C625 1.491 1_655 S
C620 H611 0.950 . S
C620 C619 1.398 . S
C620 C621 1.391 . S
C621 H609 0.950 . S
C621 C617 1.393 . S
C621 C620 1.391 . S
C622 H612 0.950 1_455 S
C622 C623 1.386 . S
C622 C624 1.391 1_455 S
C623 C622 1.386 . S
C623 C627 1.393 . S
C624 H613 0.950 . S
C624 C622 1.391 1_655 S
C624 C625 1.400 1_655 S
C625 C619 1.491 1_455 S
C625 C624 1.400 1_455 S
C625 C626 1.398 . S
C626 H614 0.950 . S
C626 C625 1.398 . S
C626 C627 1.391 . S
C627 H615 0.950 . S
C627 C623 1.393 . S
C627 C626 1.391 . S
H628 C636 0.950 . S
H629 C641 0.950 . S
H630 C638 0.950 . S
H631 C640 0.950 . S
H632 C642 0.950 . S
H633 C644 0.950 . S
H634 C646 0.950 . S
H635 C647 0.950 . S
C636 H628 0.950 . S
C636 C637 1.386 . S
C636 C638 1.391 . S
C637 C636 1.386 . S
C637 C641 1.393 . S
C638 H630 0.950 . S
C638 C636 1.391 . S
C638 C639 1.400 . S
C639 C638 1.400 . S
C639 C640 1.398 . S
C639 C645 1.491 . S
C640 H631 0.950 . S
C640 C639 1.398 . S
C640 C641 1.391 . S
C641 H629 0.950 . S
C641 C637 1.393 . S
C641 C640 1.391 . S
C642 H632 0.950 . S
C642 C643 1.386 . S
C642 C644 1.391 . S
C643 C642 1.386 . S
C643 C647 1.393 . S
C644 H633 0.950 . S
C644 C642 1.391 . S
C644 C645 1.400 . S
C645 C639 1.491 . S
C645 C644 1.400 . S
C645 C646 1.398 . S
C646 H634 0.950 . S
C646 C645 1.398 . S
C646 C647 1.391 . S
C647 H635 0.950 . S
C647 C643 1.393 . S
C647 C646 1.391 . S
C177 C8 1.078 . S
C183 C107 1.059 . S
C197 C22 1.066 . S
C203 C121 1.059 1_565 S
C217 C36 1.067 . S
C223 C93 1.082 1_455 S
C237 C163 1.061 . S
C243 C50 1.080 . S
C257 C64 1.059 . S
C263 C135 1.065 1_565 S
C277 C149 1.063 1_455 S
C283 C78 1.061 . S
C297 C23 1.079 . S
C303 C92 1.056 . S
C317 C106 1.081 . S
C323 C37 1.066 1_545 S
C337 C9 1.075 1_655 S
C343 C120 1.055 . S
C357 C134 1.078 . S
C363 C79 1.059 . S
C377 C148 1.063 . S
C383 C51 1.083 1_545 S
C397 C65 1.082 1_655 S
C403 C162 1.067 . S
C417 C76 1.479 . S
C423 C6 1.456 . S
C437 C20 1.455 . S
C443 C48 1.479 . S
C457 C34 1.468 . S
C463 C62 1.471 . S
C477 C90 1.457 . S
C483 C160 1.479 . S
C497 C104 1.479 . S
C503 C132 1.456 . S
C517 C118 1.478 . S
C523 C146 1.455 . S
C537 C7 1.644 . S
C543 C91 1.644 . S
C557 C21 1.648 . S
C563 C105 1.648 . S
C577 C35 1.645 . S
C583 C119 1.645 . S
C597 C49 1.621 . S
C603 C133 1.621 . S
C617 C147 1.626 . S
C623 C63 1.626 . S
C637 C77 1.642 . S
C643 C161 1.642 . S
