# Generated by pormake.
# Topology smq, (6)-cn, num edge types: 1
# Building blocks:
#     Node 0, Type 0, BuildingBlock: MAKGUD_clean_sbu_1, # of connection points: 6
#     Node 1, Type 0, BuildingBlock: MAKGUD_clean_sbu_1, # of connection points: 6
#     Node 2, Type 0, BuildingBlock: MAKGUD_clean_sbu_1, # of connection points: 6
#     Node 3, Type 0, BuildingBlock: MAKGUD_clean_sbu_1, # of connection points: 6
#     Node 4, Type 0, BuildingBlock: MAKGUD_clean_sbu_1, # of connection points: 6
#     Node 5, Type 0, BuildingBlock: MAKGUD_clean_sbu_1, # of connection points: 6
#     Node 6, Type 0, BuildingBlock: MAKGUD_clean_sbu_1, # of connection points: 6
#     Node 7, Type 0, BuildingBlock: MAKGUD_clean_sbu_1, # of connection points: 6
#     Node 8, Type 0, BuildingBlock: MAKGUD_clean_sbu_1, # of connection points: 6
#     Node 9, Type 0, BuildingBlock: MAKGUD_clean_sbu_1, # of connection points: 6
#     Node 10, Type 0, BuildingBlock: MAKGUD_clean_sbu_1, # of connection points: 6
#     Node 11, Type 0, BuildingBlock: MAKGUD_clean_sbu_1, # of connection points: 6
#     Node 12, Type 0, BuildingBlock: MAKGUD_clean_sbu_1, # of connection points: 6
#     Node 13, Type 0, BuildingBlock: MAKGUD_clean_sbu_1, # of connection points: 6
#     Node 14, Type 0, BuildingBlock: MAKGUD_clean_sbu_1, # of connection points: 6
#     Node 15, Type 0, BuildingBlock: MAKGUD_clean_sbu_1, # of connection points: 6
#     Node 16, Type 0, BuildingBlock: MAKGUD_clean_sbu_1, # of connection points: 6
#     Node 17, Type 0, BuildingBlock: MAKGUD_clean_sbu_1, # of connection points: 6
#     Node 18, Type 0, BuildingBlock: MAKGUD_clean_sbu_1, # of connection points: 6
#     Node 19, Type 0, BuildingBlock: MAKGUD_clean_sbu_1, # of connection points: 6
#     Node 20, Type 0, BuildingBlock: MAKGUD_clean_sbu_1, # of connection points: 6
#     Node 21, Type 0, BuildingBlock: MAKGUD_clean_sbu_1, # of connection points: 6
#     Node 22, Type 0, BuildingBlock: MAKGUD_clean_sbu_1, # of connection points: 6
#     Node 23, Type 0, BuildingBlock: MAKGUD_clean_sbu_1, # of connection points: 6
#     Edge 24, Type (0, 0), BuildingBlock: OJICUG_clean_linker_0, # of connection points: 2
#     Edge 25, Type (0, 0), BuildingBlock: OJICUG_clean_linker_0, # of connection points: 2
#     Edge 26, Type (0, 0), BuildingBlock: OJICUG_clean_linker_0, # of connection points: 2
#     Edge 27, Type (0, 0), BuildingBlock: OJICUG_clean_linker_0, # of connection points: 2
#     Edge 28, Type (0, 0), BuildingBlock: OJICUG_clean_linker_0, # of connection points: 2
#     Edge 29, Type (0, 0), BuildingBlock: OJICUG_clean_linker_0, # of connection points: 2
#     Edge 30, Type (0, 0), BuildingBlock: OJICUG_clean_linker_0, # of connection points: 2
#     Edge 31, Type (0, 0), BuildingBlock: OJICUG_clean_linker_0, # of connection points: 2
#     Edge 32, Type (0, 0), BuildingBlock: OJICUG_clean_linker_0, # of connection points: 2
#     Edge 33, Type (0, 0), BuildingBlock: OJICUG_clean_linker_0, # of connection points: 2
#     Edge 34, Type (0, 0), BuildingBlock: OJICUG_clean_linker_0, # of connection points: 2
#     Edge 35, Type (0, 0), BuildingBlock: OJICUG_clean_linker_0, # of connection points: 2
#     Edge 36, Type (0, 0), BuildingBlock: OJICUG_clean_linker_0, # of connection points: 2
#     Edge 37, Type (0, 0), BuildingBlock: OJICUG_clean_linker_0, # of connection points: 2
#     Edge 38, Type (0, 0), BuildingBlock: OJICUG_clean_linker_0, # of connection points: 2
#     Edge 39, Type (0, 0), BuildingBlock: OJICUG_clean_linker_0, # of connection points: 2
#     Edge 40, Type (0, 0), BuildingBlock: OJICUG_clean_linker_0, # of connection points: 2
#     Edge 41, Type (0, 0), BuildingBlock: OJICUG_clean_linker_0, # of connection points: 2
#     Edge 42, Type (0, 0), BuildingBlock: OJICUG_clean_linker_0, # of connection points: 2
#     Edge 43, Type (0, 0), BuildingBlock: OJICUG_clean_linker_0, # of connection points: 2
#     Edge 44, Type (0, 0), BuildingBlock: OJICUG_clean_linker_0, # of connection points: 2
#     Edge 45, Type (0, 0), BuildingBlock: OJICUG_clean_linker_0, # of connection points: 2
#     Edge 46, Type (0, 0), BuildingBlock: OJICUG_clean_linker_0, # of connection points: 2
#     Edge 47, Type (0, 0), BuildingBlock: OJICUG_clean_linker_0, # of connection points: 2
#     Edge 48, Type (0, 0), BuildingBlock: OJICUG_clean_linker_0, # of connection points: 2
#     Edge 49, Type (0, 0), BuildingBlock: OJICUG_clean_linker_0, # of connection points: 2
#     Edge 50, Type (0, 0), BuildingBlock: OJICUG_clean_linker_0, # of connection points: 2
#     Edge 51, Type (0, 0), BuildingBlock: OJICUG_clean_linker_0, # of connection points: 2
#     Edge 52, Type (0, 0), BuildingBlock: OJICUG_clean_linker_0, # of connection points: 2
#     Edge 53, Type (0, 0), BuildingBlock: OJICUG_clean_linker_0, # of connection points: 2
#     Edge 54, Type (0, 0), BuildingBlock: OJICUG_clean_linker_0, # of connection points: 2
#     Edge 55, Type (0, 0), BuildingBlock: OJICUG_clean_linker_0, # of connection points: 2
#     Edge 56, Type (0, 0), BuildingBlock: OJICUG_clean_linker_0, # of connection points: 2
#     Edge 57, Type (0, 0), BuildingBlock: OJICUG_clean_linker_0, # of connection points: 2
#     Edge 58, Type (0, 0), BuildingBlock: OJICUG_clean_linker_0, # of connection points: 2
#     Edge 59, Type (0, 0), BuildingBlock: OJICUG_clean_linker_0, # of connection points: 2
#     Edge 60, Type (0, 0), BuildingBlock: OJICUG_clean_linker_0, # of connection points: 2
#     Edge 61, Type (0, 0), BuildingBlock: OJICUG_clean_linker_0, # of connection points: 2
#     Edge 62, Type (0, 0), BuildingBlock: OJICUG_clean_linker_0, # of connection points: 2
#     Edge 63, Type (0, 0), BuildingBlock: OJICUG_clean_linker_0, # of connection points: 2
#     Edge 64, Type (0, 0), BuildingBlock: OJICUG_clean_linker_0, # of connection points: 2
#     Edge 65, Type (0, 0), BuildingBlock: OJICUG_clean_linker_0, # of connection points: 2
#     Edge 66, Type (0, 0), BuildingBlock: OJICUG_clean_linker_0, # of connection points: 2
#     Edge 67, Type (0, 0), BuildingBlock: OJICUG_clean_linker_0, # of connection points: 2
#     Edge 68, Type (0, 0), BuildingBlock: OJICUG_clean_linker_0, # of connection points: 2
#     Edge 69, Type (0, 0), BuildingBlock: OJICUG_clean_linker_0, # of connection points: 2
#     Edge 70, Type (0, 0), BuildingBlock: OJICUG_clean_linker_0, # of connection points: 2
#     Edge 71, Type (0, 0), BuildingBlock: OJICUG_clean_linker_0, # of connection points: 2
#     Edge 72, Type (0, 0), BuildingBlock: OJICUG_clean_linker_0, # of connection points: 2
#     Edge 73, Type (0, 0), BuildingBlock: OJICUG_clean_linker_0, # of connection points: 2
#     Edge 74, Type (0, 0), BuildingBlock: OJICUG_clean_linker_0, # of connection points: 2
#     Edge 75, Type (0, 0), BuildingBlock: OJICUG_clean_linker_0, # of connection points: 2
#     Edge 76, Type (0, 0), BuildingBlock: OJICUG_clean_linker_0, # of connection points: 2
#     Edge 77, Type (0, 0), BuildingBlock: OJICUG_clean_linker_0, # of connection points: 2
#     Edge 78, Type (0, 0), BuildingBlock: OJICUG_clean_linker_0, # of connection points: 2
#     Edge 79, Type (0, 0), BuildingBlock: OJICUG_clean_linker_0, # of connection points: 2
#     Edge 80, Type (0, 0), BuildingBlock: OJICUG_clean_linker_0, # of connection points: 2
#     Edge 81, Type (0, 0), BuildingBlock: OJICUG_clean_linker_0, # of connection points: 2
#     Edge 82, Type (0, 0), BuildingBlock: OJICUG_clean_linker_0, # of connection points: 2
#     Edge 83, Type (0, 0), BuildingBlock: OJICUG_clean_linker_0, # of connection points: 2
#     Edge 84, Type (0, 0), BuildingBlock: OJICUG_clean_linker_0, # of connection points: 2
#     Edge 85, Type (0, 0), BuildingBlock: OJICUG_clean_linker_0, # of connection points: 2
#     Edge 86, Type (0, 0), BuildingBlock: OJICUG_clean_linker_0, # of connection points: 2
#     Edge 87, Type (0, 0), BuildingBlock: OJICUG_clean_linker_0, # of connection points: 2
#     Edge 88, Type (0, 0), BuildingBlock: OJICUG_clean_linker_0, # of connection points: 2
#     Edge 89, Type (0, 0), BuildingBlock: OJICUG_clean_linker_0, # of connection points: 2
#     Edge 90, Type (0, 0), BuildingBlock: OJICUG_clean_linker_0, # of connection points: 2
#     Edge 91, Type (0, 0), BuildingBlock: OJICUG_clean_linker_0, # of connection points: 2
#     Edge 92, Type (0, 0), BuildingBlock: OJICUG_clean_linker_0, # of connection points: 2
#     Edge 93, Type (0, 0), BuildingBlock: OJICUG_clean_linker_0, # of connection points: 2
#     Edge 94, Type (0, 0), BuildingBlock: OJICUG_clean_linker_0, # of connection points: 2
#     Edge 95, Type (0, 0), BuildingBlock: OJICUG_clean_linker_0, # of connection points: 2
# Relax obj value: 0.280
# Max RMSD: 0.220
# Mean RMSD: 0.220
data_MOF--net-smq--node1-MAKGUD_clean_sbu_1--edge1-OJICUG_clean_linker_0
_symmetry_space_group_name_H-M    P1
_symmetry_Int_Tables_number       1
_symmetry_cell_setting            triclinic
loop_
_symmetry_equiv_pos_as_xyz
'x, y, z'
_cell_length_a     34.449994
_cell_length_b     34.44437
_cell_length_c     34.437872
_cell_angle_alpha  90.011359
_cell_angle_beta   89.986199
_cell_angle_gamma 89.981174
loop_
_atom_site_label
_atom_site_type_symbol
_atom_site_fract_x
_atom_site_fract_y
_atom_site_fract_z
_atom_type_partial_charge
O0 O 1.03458 0.35683 0.28414 0.0
Tb1 Tb 1.05908 0.35955 0.34124 0.0
C2 C 1.0461 0.33575 0.42586 0.0
O3 O 0.11359 0.29967 0.31076 0.0
Tb4 Tb 0.10849 0.2899 0.37393 0.0
C5 C 0.16858 0.3174 0.41126 0.0
O6 O 0.11641 0.36427 0.31672 0.0
O7 O 0.13405 0.23203 0.36453 0.0
C8 C 0.16723 0.23171 0.34484 0.0
O9 O 0.18057 0.2648 0.33148 0.0
O10 O 1.05274 0.36652 0.40374 0.0
O11 O 1.05898 0.3007 0.4148 0.0
O12 O 1.02969 0.30453 0.34662 0.0
C13 C 0.12662 0.33315 0.29763 0.0
C14 C 1.01356 0.38791 0.28696 0.0
O15 O 0.14751 0.33785 0.38733 0.0
O16 O 0.15505 0.28251 0.41482 0.0
C17 C 0.99361 0.30714 0.35905 0.0
O18 O 0.9781 0.34179 0.36295 0.0
O19 O 1.01804 0.40395 0.32123 0.0
O20 O 0.33225 0.53485 0.78411 0.0
Tb21 Tb 0.32961 0.55938 0.84121 0.0
C22 C 0.35342 0.54639 0.92583 0.0
O23 O 0.38958 0.61374 0.81072 0.0
Tb24 Tb 0.39933 0.60868 0.87389 0.0
C25 C 0.37183 0.66882 0.91122 0.0
O26 O 0.32499 0.61672 0.81668 0.0
O27 O 0.45719 0.63421 0.86451 0.0
C28 C 0.45751 0.66739 0.84482 0.0
O29 O 0.42443 0.68074 0.83145 0.0
O30 O 0.32266 0.5531 0.90371 0.0
O31 O 0.38848 0.55919 0.91476 0.0
O32 O 0.38456 0.52986 0.84658 0.0
C33 C 0.35612 0.62684 0.79759 0.0
C34 C 0.30112 0.51393 0.78695 0.0
O35 O 0.35139 0.64775 0.88727 0.0
O36 O 0.4067 0.65526 0.91479 0.0
C37 C 0.3819 0.49379 0.859 0.0
O38 O 0.34724 0.47835 0.86289 0.0
O39 O 0.28511 0.51847 0.82123 0.0
O40 O 0.15428 0.8324 0.28417 0.0
Tb41 Tb 0.12979 0.8297 0.34128 0.0
C42 C 0.14279 0.85348 0.42591 0.0
O43 O 1.07529 0.88957 0.31087 0.0
Tb44 Tb 1.08041 0.89935 0.37404 0.0
C45 C 1.02031 0.87187 0.4114 0.0
O46 O 1.07246 0.82497 0.31681 0.0
O47 O 1.05486 0.95722 0.36465 0.0
C48 C 1.02167 0.95754 0.34499 0.0
O49 O 1.00831 0.92445 0.33166 0.0
O50 O 0.13614 0.82272 0.40377 0.0
O51 O 0.12992 0.88853 0.41488 0.0
O52 O 0.15918 0.88472 0.34666 0.0
C53 C 1.06225 0.85609 0.29774 0.0
C54 C 0.17528 0.80131 0.28697 0.0
O55 O 1.04137 0.85141 0.38745 0.0
O56 O 1.03386 0.90675 0.41497 0.0
C57 C 0.19526 0.88212 0.35907 0.0
O58 O 0.21077 0.84747 0.36297 0.0
O59 O 0.17081 0.78528 0.32124 0.0
O60 O 0.8563 0.6543 0.78424 0.0
Tb61 Tb 0.85912 0.62977 0.84132 0.0
C62 C 0.83546 0.64272 0.926 0.0
O63 O 0.79923 0.57529 0.81094 0.0
Tb64 Tb 0.78953 0.58038 0.87413 0.0
C65 C 0.81705 0.52024 0.9114 0.0
O66 O 0.86383 0.57243 0.8168 0.0
O67 O 0.73167 0.55482 0.86477 0.0
C68 C 0.73136 0.52162 0.8451 0.0
O69 O 0.76445 0.50827 0.83173 0.0
O70 O 0.86619 0.63607 0.90381 0.0
O71 O 0.8004 0.62987 0.915 0.0
O72 O 0.80413 0.65921 0.84683 0.0
C73 C 0.83269 0.56224 0.79776 0.0
C74 C 0.88741 0.67527 0.78699 0.0
O75 O 0.83748 0.5413 0.88744 0.0
O76 O 0.78218 0.53381 0.91503 0.0
C77 C 0.80676 0.69528 0.85927 0.0
O78 O 0.84141 0.71076 0.86313 0.0
O79 O 0.90351 0.67076 0.82122 0.0
O80 O 1.0348 0.83237 0.90516 0.0
Tb81 Tb 1.05931 0.82966 0.84805 0.0
C82 C 1.04628 0.85349 0.76344 0.0
O83 O 0.11378 0.88954 0.87849 0.0
Tb84 Tb 0.10867 0.8993 0.81533 0.0
C85 C 0.16874 0.87173 0.77795 0.0
O86 O 0.11664 0.82494 0.87255 0.0
O87 O 0.13426 0.95715 0.82472 0.0
C88 C 0.16745 0.95743 0.84437 0.0
O89 O 0.18079 0.92432 0.85769 0.0
O90 O 1.05295 0.82271 0.78555 0.0
O91 O 1.05915 0.88853 0.7745 0.0
O92 O 1.02988 0.88467 0.84271 0.0
C93 C 0.12684 0.85606 0.89163 0.0
C94 C 1.01382 0.80127 0.90234 0.0
O95 O 0.14767 0.85131 0.8019 0.0
O96 O 0.15522 0.90663 0.7744 0.0
C97 C 0.9938 0.88206 0.83031 0.0
O98 O 0.97833 0.84741 0.82638 0.0
O99 O 1.01831 0.78524 0.86806 0.0
O100 O 0.85641 0.53485 0.4052 0.0
Tb101 Tb 0.85918 0.55937 0.34811 0.0
C102 C 0.83541 0.54642 0.26347 0.0
O103 O 0.79934 0.61394 0.37856 0.0
Tb104 Tb 0.7896 0.60884 0.31539 0.0
C105 C 0.81721 0.6689 0.27807 0.0
O106 O 0.86393 0.6167 0.37264 0.0
O107 O 0.73177 0.63449 0.32478 0.0
C108 C 0.7315 0.66768 0.34445 0.0
O109 O 0.76461 0.68099 0.35778 0.0
O110 O 0.86617 0.55304 0.28561 0.0
O111 O 0.80038 0.55931 0.27453 0.0
O112 O 0.80417 0.52998 0.3427 0.0
C113 C 0.83282 0.62695 0.39171 0.0
C114 C 0.88749 0.51383 0.40239 0.0
O115 O 0.83761 0.6478 0.30201 0.0
O116 O 0.78231 0.65542 0.27449 0.0
C117 C 0.80679 0.4939 0.33026 0.0
O118 O 0.84144 0.47842 0.32633 0.0
O119 O 0.90355 0.51831 0.36813 0.0
O120 O 0.15404 0.35657 0.90511 0.0
Tb121 Tb 0.12951 0.35932 0.84802 0.0
C122 C 0.14248 0.33557 0.76337 0.0
O123 O 1.07501 0.29945 0.87844 0.0
Tb124 Tb 1.0801 0.28972 0.81526 0.0
C125 C 1.02002 0.31729 0.77794 0.0
O126 O 1.07218 0.36406 0.87256 0.0
O127 O 1.05452 0.23187 0.82464 0.0
C128 C 1.02133 0.2316 0.84432 0.0
O129 O 1.00799 0.26471 0.85765 0.0
O130 O 0.13582 0.36633 0.78553 0.0
O131 O 0.12962 0.30052 0.7744 0.0
O132 O 0.15892 0.3043 0.84259 0.0
C133 C 1.06197 0.33293 0.89161 0.0
C134 C 0.17501 0.38767 0.90231 0.0
O135 O 1.04108 0.33771 0.80191 0.0
O136 O 1.03355 0.28239 0.77435 0.0
C137 C 0.19499 0.30692 0.83015 0.0
O138 O 0.21046 0.34157 0.82624 0.0
O139 O 0.1705 0.40373 0.86806 0.0
O140 O 0.33237 0.65438 0.40515 0.0
Tb141 Tb 0.32966 0.62985 0.34806 0.0
C142 C 0.35346 0.64277 0.26342 0.0
O143 O 0.38948 0.57531 0.37853 0.0
Tb144 Tb 0.39926 0.58039 0.31535 0.0
C145 C 0.37169 0.52031 0.27802 0.0
O146 O 0.32488 0.57253 0.37259 0.0
O147 O 0.45709 0.55477 0.32475 0.0
C148 C 0.45738 0.52159 0.34443 0.0
O149 O 0.42427 0.50827 0.35777 0.0
O150 O 0.32269 0.63614 0.28556 0.0
O151 O 0.3885 0.6299 0.27448 0.0
O152 O 0.38467 0.65923 0.34267 0.0
C153 C 0.35599 0.5623 0.39166 0.0
C154 C 0.30131 0.67542 0.40232 0.0
O155 O 0.35126 0.54143 0.30196 0.0
O156 O 0.40659 0.53379 0.27446 0.0
C157 C 0.38207 0.6953 0.33022 0.0
O158 O 0.34742 0.71079 0.32625 0.0
O159 O 0.28528 0.67094 0.36805 0.0
O160 O 0.28395 1.03489 0.35672 0.0
Tb161 Tb 0.34101 1.05944 0.35949 0.0
C162 C 0.42564 1.04652 0.33572 0.0
O163 O 0.31055 0.1139 0.29957 0.0
Tb164 Tb 0.37371 0.10885 0.28985 0.0
C165 C 0.41097 0.16896 0.31741 0.0
O166 O 0.31644 0.11676 0.36419 0.0
O167 O 0.36434 0.13442 0.23198 0.0
C168 C 0.34463 0.16759 0.23168 0.0
O169 O 0.33126 0.18092 0.26478 0.0
O170 O 0.40348 1.05316 0.36648 0.0
O171 O 0.4146 1.05936 0.30066 0.0
O172 O 0.34646 1.03001 0.30447 0.0
C173 C 0.29738 0.12695 0.33305 0.0
C174 C 0.28675 1.0139 0.38782 0.0
O175 O 0.38705 0.14787 0.33784 0.0
O176 O 0.41456 0.15544 0.2825 0.0
C177 C 0.35892 0.99394 0.3071 0.0
O178 O 0.36284 0.97847 0.34176 0.0
O179 O 0.32099 1.01842 0.40389 0.0
O180 O 0.65415 0.78407 0.85695 0.0
Tb181 Tb 0.62963 0.84117 0.85959 0.0
C182 C 0.64264 0.92576 0.83573 0.0
O183 O 0.57529 0.81068 0.7996 0.0
Tb184 Tb 0.58034 0.87384 0.78985 0.0
C185 C 0.52023 0.91117 0.81737 0.0
O186 O 0.57231 0.81664 0.86421 0.0
O187 O 0.5548 0.86445 0.73197 0.0
C188 C 0.52163 0.84477 0.73166 0.0
O189 O 0.50829 0.8314 0.76475 0.0
O190 O 0.63594 0.90366 0.86652 0.0
O191 O 0.62983 0.91468 0.80067 0.0
O192 O 0.65914 0.84651 0.80462 0.0
C193 C 0.56219 0.79754 0.83307 0.0
C194 C 0.67508 0.7869 0.88809 0.0
O195 O 0.5413 0.88723 0.83781 0.0
O196 O 0.53377 0.91473 0.78247 0.0
C197 C 0.69521 0.85891 0.80727 0.0
O198 O 0.71065 0.86282 0.84195 0.0
O199 O 0.67056 0.82118 0.9041 0.0
O200 O 0.90498 0.15437 0.35685 0.0
Tb201 Tb 0.84792 0.12985 0.3596 0.0
C202 C 0.76331 0.14278 0.3358 0.0
O203 O 0.87843 1.07538 0.29968 0.0
Tb204 Tb 0.81528 1.08044 0.28992 0.0
C205 C 0.778 1.02033 0.31746 0.0
O206 O 0.87247 1.07252 0.36429 0.0
O207 O 0.82468 1.05487 0.23205 0.0
C208 C 0.84439 1.0217 0.23173 0.0
O209 O 0.85776 1.00838 0.26483 0.0
O210 O 0.78544 0.13614 0.36657 0.0
O211 O 0.77438 0.12993 0.30074 0.0
O212 O 0.8425 0.15928 0.30459 0.0
C213 C 0.89156 1.06233 0.33316 0.0
C214 C 0.90217 0.17537 0.38795 0.0
O215 O 0.8019 1.04143 0.3379 0.0
O216 O 0.77443 1.03384 0.28255 0.0
C217 C 0.83006 0.19536 0.30724 0.0
O218 O 0.82615 0.21083 0.34191 0.0
O219 O 0.86792 0.17087 0.40401 0.0
O220 O 0.53461 0.40502 0.85692 0.0
Tb221 Tb 0.5591 0.34792 0.85961 0.0
C222 C 0.54613 0.26332 0.83576 0.0
O223 O 0.61357 0.37839 0.79972 0.0
Tb224 Tb 0.60848 0.31523 0.78993 0.0
C225 C 0.66857 0.27788 0.81746 0.0
O226 O 0.61643 0.37243 0.86433 0.0
O227 O 0.63405 0.32462 0.73206 0.0
C228 C 0.66723 0.34429 0.73175 0.0
O229 O 0.68056 0.35763 0.76485 0.0
O230 O 0.55278 0.28543 0.86655 0.0
O231 O 0.55898 0.27438 0.80071 0.0
O232 O 0.5297 0.34257 0.80459 0.0
C233 C 0.62662 0.39151 0.83321 0.0
C234 C 0.51359 0.4022 0.88801 0.0
O235 O 0.64748 0.30182 0.83791 0.0
O236 O 0.65506 0.27433 0.78255 0.0
C237 C 0.49363 0.33016 0.8072 0.0
O238 O 0.47815 0.32622 0.84186 0.0
O239 O 0.51806 0.36793 0.90403 0.0
O240 O 0.28396 0.15422 0.83256 0.0
Tb241 Tb 0.34105 0.12974 0.82975 0.0
C242 C 0.42565 0.14278 0.85353 0.0
O243 O 0.31067 1.07525 0.88967 0.0
Tb244 Tb 0.37382 1.08037 0.89939 0.0
C245 C 0.41118 1.02028 0.87184 0.0
O246 O 0.31659 1.07239 0.82505 0.0
O247 O 0.36445 1.0548 0.95726 0.0
C248 C 0.34481 1.02159 0.95756 0.0
O249 O 0.33149 1.00824 0.92445 0.0
O250 O 0.40352 0.13612 0.82276 0.0
O251 O 0.41462 0.1299 0.88858 0.0
O252 O 0.34643 0.15916 0.88477 0.0
C253 C 0.29753 1.06219 0.85619 0.0
C254 C 0.28671 0.1752 0.80145 0.0
O255 O 0.38722 1.04134 0.85141 0.0
O256 O 0.41475 1.03382 0.90674 0.0
C257 C 0.35882 0.19525 0.88215 0.0
O258 O 0.36269 0.21073 0.84749 0.0
O259 O 0.32094 0.17072 0.78535 0.0
O260 O 0.65521 0.91515 0.40683 0.0
Tb261 Tb 0.60866 0.87424 0.3995 0.0
C262 C 0.62679 0.79789 0.35632 0.0
O263 O 0.55288 0.9039 0.32285 0.0
Tb264 Tb 0.55923 0.84143 0.32992 0.0
C265 C 0.51373 0.78707 0.30176 0.0
O266 O 0.55916 0.9151 0.38865 0.0
O267 O 0.52984 0.84695 0.38495 0.0
C268 C 0.49377 0.85938 0.38233 0.0
O269 O 0.47827 0.86323 0.34767 0.0
O270 O 0.61376 0.81107 0.3898 0.0
O271 O 0.61657 0.81692 0.32517 0.0
O272 O 0.63424 0.86488 0.45736 0.0
C273 C 0.54626 0.92609 0.35359 0.0
C274 C 0.66877 0.91151 0.37195 0.0
O275 O 0.51823 0.82126 0.28557 0.0
O276 O 0.53472 0.78436 0.33286 0.0
C277 C 0.66744 0.84522 0.45765 0.0
O278 O 0.68079 0.83188 0.42454 0.0
O279 O 0.64772 0.88754 0.35152 0.0
O280 O 0.90483 1.03479 0.83268 0.0
Tb281 Tb 0.84774 1.05927 0.82984 0.0
C282 C 0.76311 1.04628 0.85357 0.0
O283 O 0.87809 0.11382 0.88971 0.0
Tb284 Tb 0.81494 0.10869 0.89945 0.0
C285 C 0.77759 0.16878 0.87192 0.0
O286 O 0.87219 0.11662 0.82509 0.0
O287 O 0.8243 0.13427 0.95733 0.0
C288 C 0.84394 0.16747 0.95763 0.0
O289 O 0.85725 0.18083 0.92453 0.0
O290 O 0.78528 1.05291 0.82281 0.0
O291 O 0.77412 1.05917 0.88863 0.0
O292 O 0.8423 1.02989 0.88488 0.0
C293 C 0.89123 0.12685 0.85622 0.0
C294 C 0.9021 1.01377 0.80158 0.0
O295 O 0.80155 0.14772 0.85148 0.0
O296 O 0.77401 0.15525 0.90682 0.0
C297 C 0.8299 0.99381 0.88227 0.0
O298 O 0.82603 0.9783 0.84761 0.0
O299 O 0.86787 1.01823 0.78548 0.0
O300 O 0.65415 0.40496 0.3327 0.0
Tb301 Tb 0.62968 0.34787 0.32987 0.0
C302 C 0.64268 0.26324 0.35361 0.0
O303 O 0.57515 0.37827 0.38977 0.0
Tb304 Tb 0.58025 0.3151 0.39949 0.0
C305 C 0.52018 0.27779 0.37193 0.0
O306 O 0.57234 0.37236 0.32515 0.0
O307 O 0.55463 0.32449 0.45735 0.0
C308 C 0.52143 0.34415 0.45762 0.0
O309 O 0.50811 0.35747 0.42451 0.0
O310 O 0.63605 0.28539 0.32285 0.0
O311 O 0.62978 0.27426 0.38866 0.0
O312 O 0.65909 0.34243 0.38488 0.0
C313 C 0.56212 0.39142 0.35629 0.0
C314 C 0.67514 0.40221 0.30159 0.0
O315 O 0.54124 0.30176 0.35151 0.0
O316 O 0.53372 0.27418 0.40682 0.0
C317 C 0.69517 0.33001 0.38224 0.0
O318 O 0.71066 0.32615 0.34758 0.0
O319 O 0.67068 0.36798 0.28547 0.0
O320 O 0.35647 0.28416 1.03488 0.0
Tb321 Tb 0.35922 0.34126 1.05936 0.0
C322 C 0.33551 0.42589 1.04636 0.0
O323 O 0.29935 0.31089 0.11387 0.0
Tb324 Tb 0.28962 0.37405 0.10876 0.0
C325 C 0.31715 0.41137 0.16887 0.0
O326 O 0.36394 0.31678 0.11672 0.0
O327 O 0.23175 0.3647 0.13432 0.0
C328 C 0.23144 0.34505 0.16752 0.0
O329 O 0.26453 0.33172 0.18089 0.0
O330 O 0.36625 0.40373 1.05301 0.0
O331 O 0.30046 0.41489 1.05923 0.0
O332 O 0.3042 0.34667 1.02999 0.0
C333 C 0.33282 0.29773 0.12692 0.0
C334 C 0.38756 0.28693 1.01386 0.0
O335 O 0.33757 0.38741 0.14779 0.0
O336 O 0.28227 0.41498 0.15533 0.0
C337 C 0.30679 0.35908 0.99389 0.0
O338 O 0.34143 0.36298 0.97837 0.0
O339 O 0.40361 0.32118 1.01833 0.0
O340 O 0.3566 0.905 0.15438 0.0
Tb341 Tb 0.35941 0.84791 0.12987 0.0
C342 C 0.33567 0.76328 0.14287 0.0
O343 O 0.29953 0.87833 1.07538 0.0
Tb344 Tb 0.28981 0.81517 1.08048 0.0
C345 C 0.31736 0.77785 1.02035 0.0
O346 O 0.36413 0.8724 1.07252 0.0
O347 O 0.23195 0.82454 1.05492 0.0
C348 C 0.23164 0.84421 1.02172 0.0
O349 O 0.26473 0.85755 1.00836 0.0
O350 O 0.36642 0.78543 0.13623 0.0
O351 O 0.30063 0.77431 0.12999 0.0
O352 O 0.3044 0.8425 0.15928 0.0
C353 C 0.333 0.89147 1.06232 0.0
C354 C 0.38769 0.90224 0.17537 0.0
O355 O 0.33778 0.80179 1.04144 0.0
O356 O 0.28248 0.77427 1.03389 0.0
C357 C 0.30701 0.83009 0.19537 0.0
O358 O 0.34165 0.82621 0.21087 0.0
O359 O 0.40379 0.86799 0.17089 0.0
O360 O 0.78402 0.85684 0.65447 0.0
Tb361 Tb 0.84112 0.85959 0.62998 0.0
C362 C 0.92572 0.83578 0.64295 0.0
O363 O 0.81068 0.79979 0.57544 0.0
Tb364 Tb 0.87382 0.78998 0.58054 0.0
C365 C 0.91117 0.81748 0.52043 0.0
O366 O 0.81663 0.86439 0.57264 0.0
O367 O 0.86441 0.73212 0.55498 0.0
C368 C 0.84474 0.73181 0.52179 0.0
O369 O 0.83142 0.76491 0.50843 0.0
O370 O 0.90359 0.86656 0.63633 0.0
O371 O 0.91468 0.80075 0.63005 0.0
O372 O 0.84648 0.80454 0.65931 0.0
C373 C 0.79755 0.83328 0.5624 0.0
C374 C 0.78682 0.88789 0.67554 0.0
O375 O 0.88725 0.83794 0.54152 0.0
O376 O 0.9147 0.78258 0.53394 0.0
C377 C 0.8589 0.80709 0.6954 0.0
O378 O 0.86284 0.84172 0.71094 0.0
O379 O 0.82108 0.90394 0.67109 0.0
O380 O 0.83219 0.28412 0.15449 0.0
Tb381 Tb 0.82942 0.34121 0.12999 0.0
C382 C 0.85319 0.42583 0.14294 0.0
O383 O 0.88928 0.31072 1.07548 0.0
Tb384 Tb 0.89904 0.37388 1.08056 0.0
C385 C 0.87152 0.41117 1.02043 0.0
O386 O 0.82469 0.31668 1.07264 0.0
O387 O 0.9569 0.36447 1.05498 0.0
C388 C 0.95721 0.34478 1.02179 0.0
O389 O 0.92412 0.33142 1.00846 0.0
O390 O 0.82243 0.4037 0.13631 0.0
O391 O 0.88823 0.41477 0.13006 0.0
O392 O 0.88442 0.34661 0.15938 0.0
C393 C 0.85581 0.29759 1.06244 0.0
C394 C 0.80111 0.28693 0.17552 0.0
O395 O 0.85108 0.38726 1.04153 0.0
O396 O 0.9064 0.41474 1.03395 0.0
C397 C 0.88182 0.35904 0.19547 0.0
O398 O 0.84717 0.36295 0.21098 0.0
O399 O 0.78504 0.32118 0.17104 0.0
O400 O 0.27406 0.40667 0.53387 0.0
Tb401 Tb 0.31492 0.39928 0.58046 0.0
C402 C 0.39124 0.35605 0.56234 0.0
O403 O 0.2852 0.32266 0.63623 0.0
Tb404 Tb 0.34767 0.3297 0.6299 0.0
C405 C 0.40198 0.30152 0.67546 0.0
O406 O 0.27403 0.38845 0.62996 0.0
O407 O 0.34218 0.38474 0.65927 0.0
C408 C 0.32974 0.38215 0.69536 0.0
O409 O 0.32586 0.34751 0.71087 0.0
O410 O 0.37808 0.38953 0.57537 0.0
O411 O 0.37219 0.32492 0.57256 0.0
O412 O 0.32432 0.45715 0.55493 0.0
C413 C 0.26302 0.35341 0.64284 0.0
C414 C 0.27765 0.37179 0.52031 0.0
O415 O 0.36778 0.28537 0.67096 0.0
O416 O 0.40472 0.33259 0.65443 0.0
C417 C 0.34401 0.45747 0.52174 0.0
O418 O 0.35735 0.42437 0.50837 0.0
O419 O 0.30157 0.35134 0.54139 0.0
O420 O 0.83241 0.90498 1.03498 0.0
Tb421 Tb 0.82969 0.8479 1.0595 0.0
C422 C 0.85343 0.76326 1.04652 0.0
O423 O 0.88962 0.87832 0.11394 0.0
Tb424 Tb 0.89933 0.81515 0.10886 0.0
C425 C 0.87179 0.77787 0.16898 0.0
O426 O 0.82502 0.87244 0.11684 0.0
O427 O 0.95719 0.82451 0.13442 0.0
C428 C 0.95749 0.84419 0.16762 0.0
O429 O 0.92439 0.85754 0.18097 0.0
O430 O 0.82268 0.78542 1.0532 0.0
O431 O 0.88849 0.77428 1.05935 0.0
O432 O 0.88468 0.84247 1.03005 0.0
C433 C 0.85616 0.89149 0.12701 0.0
C434 C 0.80129 0.90218 1.01402 0.0
O435 O 0.85137 0.80183 0.14791 0.0
O436 O 0.90667 0.77425 0.15544 0.0
C437 C 0.88207 0.83003 0.99396 0.0
O438 O 0.84742 0.82613 0.97848 0.0
O439 O 0.78526 0.86793 1.01852 0.0
O440 O 0.7839 0.33231 0.53494 0.0
Tb441 Tb 0.84098 0.32964 0.55945 0.0
C442 C 0.92556 0.35349 0.54642 0.0
O443 O 0.81048 0.38956 0.6139 0.0
Tb444 Tb 0.87363 0.39932 0.60881 0.0
C445 C 0.91096 0.3718 0.66892 0.0
O446 O 0.81646 0.32496 0.6168 0.0
O447 O 0.86421 0.45718 0.63439 0.0
C448 C 0.84452 0.45749 0.66758 0.0
O449 O 0.83119 0.42438 0.68092 0.0
O450 O 0.90346 0.32271 0.55309 0.0
O451 O 0.91448 0.38854 0.55928 0.0
O452 O 0.8463 0.38464 0.53002 0.0
C453 C 0.79736 0.35609 0.62697 0.0
C454 C 0.78674 0.3012 0.51396 0.0
O455 O 0.88704 0.35136 0.64783 0.0
O456 O 0.91451 0.40669 0.6554 0.0
C457 C 0.85872 0.38204 0.49393 0.0
O458 O 0.86265 0.34739 0.47843 0.0
O459 O 0.82101 0.28518 0.51845 0.0
O460 O 0.27433 0.78238 0.65534 0.0
Tb461 Tb 0.31522 0.78979 0.60875 0.0
C462 C 0.39148 0.83302 0.62695 0.0
O463 O 0.28538 0.86645 0.55315 0.0
Tb464 Tb 0.34786 0.85954 0.55949 0.0
C465 C 0.40211 0.88802 0.51403 0.0
O466 O 0.27438 0.80061 0.55925 0.0
O467 O 0.34256 0.80456 0.52999 0.0
C468 C 0.33017 0.80719 0.49389 0.0
O469 O 0.32626 0.84185 0.47843 0.0
O470 O 0.37837 0.79956 0.61383 0.0
O471 O 0.37237 0.86415 0.61684 0.0
O472 O 0.32464 0.73191 0.63427 0.0
C473 C 0.2633 0.83567 0.54643 0.0
C474 C 0.27787 0.81727 0.66889 0.0
O475 O 0.36785 0.90405 0.51856 0.0
O476 O 0.40495 0.85689 0.53497 0.0
C477 C 0.34432 0.73159 0.66745 0.0
O478 O 0.35766 0.76468 0.68082 0.0
O479 O 0.3018 0.83773 0.64782 0.0
C480 C 0.16471 0.30253 0.2431 0.0
C481 C 0.14903 0.33597 0.2605 0.0
H482 H 0.2028 0.27939 0.19953 0.0
C483 C 0.15603 0.37217 0.2426 0.0
H484 H 0.15972 0.27416 0.25566 0.0
C485 C 0.17972 0.37496 0.20936 0.0
C486 C 0.19726 0.34169 0.19358 0.0
H487 H 0.14419 0.39854 0.25496 0.0
H488 H 0.1865 0.40338 0.19773 0.0
C489 C 0.18896 0.30545 0.2105 0.0
C490 C 0.38678 0.66485 0.74305 0.0
C491 C 0.35333 0.64922 0.76044 0.0
H492 H 0.40995 0.7029 0.69948 0.0
C493 C 0.31716 0.65624 0.74252 0.0
H494 H 0.41515 0.65984 0.75562 0.0
C495 C 0.31438 0.67991 0.70928 0.0
C496 C 0.34766 0.69741 0.69351 0.0
H497 H 0.29077 0.64444 0.75488 0.0
H498 H 0.28597 0.68671 0.69764 0.0
C499 C 0.38389 0.68909 0.71044 0.0
C500 C 1.0092 0.81428 0.20944 0.0
C501 C 0.99165 0.84755 0.19368 0.0
H502 H 1.04471 0.7907 0.25503 0.0
C503 C 0.99993 0.88379 0.21062 0.0
H504 H 1.00243 0.78586 0.19779 0.0
C505 C 1.02416 0.88671 0.24322 0.0
C506 C 1.03985 0.85327 0.2606 0.0
H507 H 0.98608 0.90985 0.19967 0.0
H508 H 1.02914 0.91509 0.2558 0.0
C509 C 1.03287 0.81708 0.24268 0.0
C510 C 0.80204 0.52415 0.74327 0.0
C511 C 0.83548 0.53985 0.76061 0.0
H512 H 0.77889 0.48606 0.69974 0.0
C513 C 0.87165 0.53288 0.74263 0.0
H514 H 0.77368 0.52912 0.75589 0.0
C515 C 0.87443 0.50921 0.70938 0.0
C516 C 0.84116 0.49165 0.69367 0.0
H517 H 0.89803 0.54473 0.75495 0.0
H518 H 0.90284 0.50246 0.69769 0.0
C519 C 0.80494 0.49991 0.71066 0.0
C520 C 0.16492 0.8867 0.94613 0.0
C521 C 0.14925 0.85325 0.92875 0.0
H522 H 0.203 0.90985 0.98967 0.0
C523 C 0.15626 0.81707 0.94667 0.0
H524 H 0.15992 0.91507 0.93355 0.0
C525 C 0.17994 0.81428 0.9799 0.0
C526 C 0.19747 0.84756 0.99566 0.0
H527 H 0.14443 0.79069 0.93432 0.0
H528 H 0.18673 0.78586 0.99155 0.0
C529 C 0.18917 0.88379 0.97872 0.0
C530 C 0.87182 0.65632 0.44677 0.0
C531 C 0.83564 0.64937 0.42883 0.0
H532 H 0.90304 0.68676 0.49165 0.0
C533 C 0.80221 0.66511 0.4462 0.0
H534 H 0.89819 0.64444 0.43443 0.0
C535 C 0.80513 0.68938 0.47879 0.0
C536 C 0.84137 0.69762 0.49573 0.0
H537 H 0.77384 0.66016 0.43361 0.0
H538 H 0.77909 0.70326 0.48972 0.0
C539 C 0.87462 0.68002 0.48 0.0
C540 C 1.03259 0.37191 0.94672 0.0
C541 C 1.03958 0.33573 0.92876 0.0
H542 H 1.00216 0.40312 0.99164 0.0
C543 C 1.02388 0.30229 0.94611 0.0
H544 H 1.04444 0.39829 0.93439 0.0
C545 C 0.99965 0.30519 0.97873 0.0
C546 C 0.99138 0.34143 0.9957 0.0
H547 H 1.02886 0.27392 0.93351 0.0
H548 H 0.9858 0.27914 0.98966 0.0
C549 C 1.00893 0.3747 0.97997 0.0
C550 C 0.31695 0.53291 0.4467 0.0
C551 C 0.35314 0.53989 0.42879 0.0
H552 H 0.28571 0.50247 0.49156 0.0
C553 C 0.38656 0.52417 0.44617 0.0
H554 H 0.29059 0.54477 0.43435 0.0
C555 C 0.38363 0.49992 0.47876 0.0
C556 C 0.34738 0.49165 0.49569 0.0
H557 H 0.41494 0.52914 0.4336 0.0
H558 H 0.40966 0.48606 0.48971 0.0
C559 C 0.31413 0.50923 0.47993 0.0
C560 C 0.24287 0.16498 0.30238 0.0
C561 C 0.26024 0.14933 0.33585 0.0
H562 H 0.19932 0.20304 0.2792 0.0
C563 C 0.2423 0.15636 0.37203 0.0
H564 H 0.25546 0.15998 0.27401 0.0
C565 C 0.20905 0.18002 0.3748 0.0
C566 C 0.19331 0.19753 0.34151 0.0
H567 H 0.25464 0.14454 0.39843 0.0
H568 H 0.19739 0.18682 0.40322 0.0
C569 C 0.21026 0.18922 0.30527 0.0
C570 C 0.52422 0.743 0.80238 0.0
C571 C 0.53983 0.7604 0.83585 0.0
H572 H 0.48622 0.69942 0.77918 0.0
C573 C 0.53279 0.74249 0.87204 0.0
H574 H 0.52924 0.75557 0.77401 0.0
C575 C 0.50914 0.70923 0.8748 0.0
C576 C 0.49167 0.69346 0.8415 0.0
H577 H 0.54456 0.75485 0.89844 0.0
H578 H 0.50233 0.6976 0.90322 0.0
C579 C 0.5 0.71039 0.80526 0.0
C580 C 0.9787 1.00004 0.30541 0.0
C581 C 0.99562 0.99173 0.34166 0.0
H582 H 0.93354 1.02928 0.27413 0.0
C583 C 0.97984 1.00925 0.37495 0.0
H584 H 0.98966 0.98621 0.27935 0.0
C585 C 0.9466 1.03293 0.37216 0.0
C586 C 0.9287 1.03994 0.33597 0.0
H587 H 0.99147 1.00246 0.40337 0.0
H588 H 0.93423 1.04475 0.39855 0.0
C589 C 0.9461 1.02428 0.30251 0.0
C590 C 0.6889 0.47863 0.8055 0.0
C591 C 0.69719 0.49556 0.84176 0.0
H592 H 0.65968 0.43347 0.77421 0.0
C593 C 0.67967 0.47979 0.87503 0.0
H594 H 0.70273 0.4896 0.77944 0.0
C595 C 0.65601 0.44655 0.87224 0.0
C596 C 0.64901 0.42864 0.83603 0.0
H597 H 0.68646 0.49142 0.90346 0.0
H598 H 0.64419 0.43419 0.89862 0.0
C599 C 0.66467 0.44604 0.80259 0.0
C600 C 0.24307 1.0241 0.88685 0.0
C601 C 0.26042 1.03979 0.85339 0.0
H602 H 0.19955 0.98602 0.91002 0.0
C603 C 0.24248 1.0328 0.81721 0.0
H604 H 0.25566 1.02908 0.91522 0.0
C605 C 0.20925 1.00913 0.81443 0.0
C606 C 0.19352 0.99159 0.84772 0.0
H607 H 0.25481 1.04465 0.79082 0.0
H608 H 0.19759 1.00237 0.78602 0.0
C609 C 0.21047 0.99986 0.88395 0.0
C610 C 0.6649 0.74341 0.38696 0.0
C611 C 0.64917 0.76074 0.35352 0.0
H612 H 0.70299 0.69988 0.41011 0.0
C613 C 0.65612 0.74276 0.31734 0.0
H614 H 0.65995 0.75604 0.41533 0.0
C615 C 0.67978 0.7095 0.31455 0.0
C616 C 0.69735 0.69379 0.34783 0.0
H617 H 0.64425 0.75507 0.29095 0.0
H618 H 0.68651 0.6978 0.28613 0.0
C619 C 0.68912 0.71079 0.38406 0.0
C620 C 0.9463 0.15619 0.81721 0.0
C621 C 0.92835 0.14924 0.8534 0.0
H622 H 0.9912 0.18659 0.78599 0.0
C623 C 0.94569 0.16497 0.88685 0.0
H624 H 0.93398 0.14432 0.79083 0.0
C625 C 0.97829 0.1892 0.88393 0.0
C626 C 0.99526 0.19744 0.84768 0.0
H627 H 0.93309 0.16003 0.91522 0.0
H628 H 0.98921 0.20307 0.90998 0.0
C629 C 0.97954 0.17985 0.81442 0.0
C630 C 0.53278 0.44651 0.3173 0.0
C631 C 0.53973 0.42856 0.35348 0.0
H632 H 0.50239 0.49144 0.28609 0.0
C633 C 0.52399 0.44591 0.38693 0.0
H634 H 0.54466 0.43419 0.29092 0.0
C635 C 0.49976 0.47852 0.38402 0.0
C636 C 0.49153 0.4955 0.34779 0.0
H637 H 0.52894 0.43331 0.4153 0.0
H638 H 0.48589 0.48945 0.41008 0.0
C639 C 0.50912 0.47977 0.31451 0.0
C640 C 0.37179 0.24264 0.15628 0.0
C641 C 0.33561 0.2606 0.14932 0.0
H642 H 0.40297 0.19772 0.1867 0.0
C643 C 0.30217 0.24326 0.16502 0.0
H644 H 0.39816 0.25496 0.14443 0.0
C645 C 0.30507 0.21065 0.18926 0.0
C646 C 0.34129 0.19367 0.19751 0.0
H647 H 0.27381 0.25587 0.16006 0.0
H648 H 0.27902 0.19973 0.20311 0.0
C649 C 0.37456 0.2094 0.17995 0.0
C650 C 0.37197 0.94653 1.03294 0.0
C651 C 0.33579 0.9286 1.03993 0.0
H652 H 0.40315 0.99143 1.0025 0.0
C653 C 0.30235 0.94597 1.02425 0.0
H654 H 0.39835 0.93419 1.04477 0.0
C655 C 0.30525 0.97857 1.00001 0.0
C656 C 0.34147 0.99552 0.99173 0.0
H657 H 0.27399 0.93338 1.02923 0.0
H658 H 0.27919 0.98951 0.98617 0.0
C659 C 0.37474 0.97978 1.00927 0.0
C660 C 0.70929 0.87513 0.50935 0.0
C661 C 0.69351 0.84186 0.49182 0.0
H662 H 0.75489 0.8987 0.54483 0.0
C663 C 0.71043 0.80561 0.50011 0.0
H664 H 0.69766 0.90356 0.50256 0.0
C665 C 0.74303 0.80269 0.52434 0.0
C666 C 0.76043 0.83612 0.54001 0.0
H667 H 0.69946 0.77956 0.48629 0.0
H668 H 0.75559 0.77431 0.52933 0.0
C669 C 0.74253 0.87232 0.53301 0.0
C670 C 0.81681 0.24255 1.03304 0.0
C671 C 0.85299 0.26046 1.04004 0.0
H672 H 0.7856 0.19768 1.00258 0.0
C673 C 0.88643 0.24306 1.02435 0.0
H674 H 0.79043 0.25492 1.04488 0.0
C675 C 0.88352 0.21045 1.00011 0.0
C676 C 0.84728 0.19353 0.99182 0.0
H677 H 0.9148 0.25562 1.02934 0.0
H678 H 0.90957 0.19948 0.98627 0.0
C679 C 0.81402 0.20931 1.00936 0.0
C680 C 0.44575 0.38667 0.52427 0.0
C681 C 0.42838 0.35323 0.53996 0.0
H682 H 0.48932 0.4098 0.48621 0.0
C683 C 0.44633 0.31704 0.53298 0.0
H684 H 0.43316 0.41504 0.52925 0.0
C685 C 0.47958 0.31424 0.50932 0.0
C686 C 0.49534 0.34751 0.49178 0.0
H687 H 0.43398 0.29066 0.54481 0.0
H688 H 0.49125 0.28582 0.50256 0.0
C689 C 0.47837 0.38375 0.50005 0.0
C690 C 0.8172 0.94661 0.15638 0.0
C691 C 0.85337 0.92864 0.14939 0.0
H692 H 0.78603 0.99155 0.18681 0.0
C693 C 0.88682 0.94599 0.16506 0.0
H694 H 0.79082 0.93428 0.14455 0.0
C695 C 0.88394 0.97862 0.18929 0.0
C696 C 0.84772 0.9956 0.19757 0.0
H697 H 0.91518 0.93338 0.16007 0.0
H698 H 0.90999 0.98955 0.20311 0.0
C699 C 0.81444 0.97987 0.18004 0.0
C700 C 0.70908 0.31433 0.68006 0.0
C701 C 0.6933 0.34762 0.69757 0.0
H702 H 0.75469 0.29072 0.64457 0.0
C703 C 0.71022 0.38385 0.68926 0.0
H704 H 0.69745 0.28592 0.68686 0.0
C705 C 0.74283 0.38675 0.66502 0.0
C706 C 0.76023 0.35329 0.64937 0.0
H707 H 0.69925 0.40992 0.70308 0.0
H708 H 0.75539 0.41512 0.66001 0.0
C709 C 0.74232 0.31711 0.65639 0.0
C710 C 0.44603 0.80234 0.66493 0.0
C711 C 0.42862 0.8358 0.64932 0.0
H712 H 0.48961 0.77915 0.70293 0.0
C713 C 0.44652 0.87199 0.65637 0.0
H714 H 0.43347 0.77397 0.6599 0.0
C715 C 0.47977 0.87475 0.68002 0.0
C716 C 0.49555 0.84145 0.69749 0.0
H717 H 0.43415 0.89838 0.6446 0.0
H718 H 0.49139 0.90316 0.68685 0.0
C719 C 0.47864 0.80522 0.68915 0.0
C720 C 0.95335 0.81923 0.98907 0.0
C721 C 0.91622 0.81532 0.97302 0.0
H722 H 1.01439 0.81561 0.9789 0.0
C723 C 0.91194 0.79741 0.93649 0.0
H724 H 0.95745 0.83199 1.01753 0.0
C725 C 0.94457 0.78726 0.91469 0.0
C726 C 0.98166 0.79516 0.92922 0.0
H727 H 0.88348 0.79301 0.92385 0.0
H728 H 0.94071 0.7769 0.88522 0.0
C729 C 0.98586 0.8092 0.96727 0.0
C730 C 0.89136 0.41191 0.4365 0.0
C731 C 0.87339 0.4162 0.47301 0.0
H732 H 0.91192 0.4407 0.38527 0.0
C733 C 0.86943 0.45334 0.48906 0.0
H734 H 0.89581 0.38345 0.42386 0.0
C735 C 0.87945 0.48586 0.46729 0.0
C736 C 0.89357 0.48165 0.42926 0.0
H737 H 0.85662 0.45744 0.5175 0.0
H738 H 0.87301 0.51439 0.47891 0.0
C739 C 0.90151 0.44455 0.41472 0.0
C740 C 0.20297 0.37969 0.96722 0.0
C741 C 0.20716 0.39379 0.92919 0.0
H742 H 0.2314 0.35691 1.01745 0.0
C743 C 0.24424 0.40179 0.91467 0.0
H744 H 0.17444 0.3732 0.97883 0.0
C745 C 0.27689 0.3917 0.93647 0.0
C746 C 0.27262 0.37373 0.97297 0.0
H747 H 0.24809 0.41219 0.88523 0.0
H748 H 0.30534 0.39617 0.92384 0.0
C749 C 0.23549 0.36972 0.98901 0.0
C750 C 0.30927 0.70341 0.46723 0.0
C751 C 0.29523 0.70762 0.42918 0.0
H752 H 0.33208 0.73179 0.51747 0.0
C753 C 0.28739 0.74473 0.41463 0.0
H754 H 0.31564 0.67486 0.47886 0.0
C755 C 0.29757 0.77736 0.43642 0.0
C756 C 0.31547 0.77305 0.47295 0.0
H757 H 0.27704 0.74858 0.38517 0.0
H758 H 0.29321 0.80582 0.42377 0.0
C759 C 0.31933 0.73591 0.48901 0.0
C760 C 0.95309 0.36987 0.20029 0.0
C761 C 0.91596 0.37377 0.21637 0.0
H762 H 1.01413 0.37353 0.21041 0.0
C763 C 0.91167 0.39172 0.25289 0.0
H764 H 0.9572 0.3571 0.17184 0.0
C765 C 0.9443 0.4019 0.27466 0.0
C766 C 0.98139 0.394 0.2601 0.0
H767 H 0.88322 0.39611 0.26555 0.0
H768 H 0.94045 0.41228 0.30412 0.0
C769 C 0.9856 0.37994 0.22205 0.0
C770 C 0.30896 0.48598 0.72201 0.0
C771 C 0.29492 0.48178 0.76007 0.0
H772 H 0.33173 0.45754 0.67176 0.0
C773 C 0.28698 0.4447 0.7746 0.0
H774 H 0.3154 0.51451 0.71039 0.0
C775 C 0.2971 0.41205 0.7528 0.0
C776 C 0.31503 0.41632 0.71627 0.0
H777 H 0.27662 0.44086 0.80406 0.0
H778 H 0.29268 0.38359 0.76544 0.0
C779 C 0.31896 0.45345 0.70021 0.0
C780 C 0.23573 0.8193 0.20025 0.0
C781 C 0.27286 0.81538 0.21629 0.0
H782 H 0.17469 0.81569 0.21042 0.0
C783 C 0.27716 0.79743 0.25281 0.0
H784 H 0.23162 0.83208 0.1718 0.0
C785 C 0.24453 0.78728 0.2746 0.0
C786 C 0.20744 0.7952 0.26007 0.0
H787 H 0.30562 0.79302 0.26544 0.0
H788 H 0.24839 0.7769 0.30405 0.0
C789 C 0.20323 0.80927 0.22204 0.0
C790 C 0.9016 0.74448 0.77457 0.0
C791 C 0.89352 0.7074 0.76008 0.0
H792 H 0.89609 0.80559 0.76539 0.0
C793 C 0.87935 0.70322 0.72208 0.0
H794 H 0.91206 0.74831 0.804 0.0
C795 C 0.86942 0.73576 0.70029 0.0
C796 C 0.87352 0.77289 0.7163 0.0
H797 H 0.8728 0.6747 0.71048 0.0
H798 H 0.85656 0.73168 0.67187 0.0
C799 C 0.89154 0.77714 0.75278 0.0
C800 C 0.96701 0.98587 0.80968 0.0
C801 C 0.92903 0.98163 0.79551 0.0
H802 H 1.01723 0.95749 0.83253 0.0
C803 C 0.91458 0.94453 0.78749 0.0
H804 H 0.97856 1.01441 0.81618 0.0
C805 C 0.9364 0.91191 0.79761 0.0
C806 C 0.97286 0.91622 0.81564 0.0
H807 H 0.88517 0.94066 0.77703 0.0
H808 H 0.92382 0.88344 0.79311 0.0
C809 C 0.98883 0.95337 0.81968 0.0
C810 C 0.703 0.46714 0.30965 0.0
C811 C 0.70725 0.42914 0.29548 0.0
H812 H 0.73136 0.51737 0.33249 0.0
C813 C 0.74435 0.41468 0.28744 0.0
H814 H 0.67446 0.4787 0.31617 0.0
C815 C 0.77696 0.4365 0.29755 0.0
C816 C 0.77265 0.47297 0.31558 0.0
H817 H 0.74824 0.38526 0.27698 0.0
H818 H 0.80543 0.42391 0.29304 0.0
C819 C 0.73549 0.48895 0.31964 0.0
C820 C 0.22178 0.2031 0.8095 0.0
C821 C 0.25978 0.20733 0.79534 0.0
H822 H 0.17155 0.23149 0.83234 0.0
C823 C 0.27423 0.24443 0.78733 0.0
H824 H 0.21022 0.17456 0.81599 0.0
C825 C 0.25241 0.27706 0.79745 0.0
C826 C 0.21593 0.27275 0.81546 0.0
H827 H 0.30365 0.2483 0.77688 0.0
H828 H 0.26499 0.30553 0.79295 0.0
C829 C 0.19996 0.2356 0.81949 0.0
C830 C 0.41194 0.75269 0.29753 0.0
C831 C 0.41624 0.71624 0.3156 0.0
H832 H 0.44068 0.80392 0.27697 0.0
C833 C 0.4534 0.7003 0.31977 0.0
H834 H 0.38348 0.76523 0.29292 0.0
C835 C 0.4859 0.72213 0.30985 0.0
C836 C 0.48165 0.76011 0.29563 0.0
H837 H 0.45751 0.67191 0.33267 0.0
H838 H 0.51442 0.7106 0.31645 0.0
C839 C 0.44457 0.77452 0.28747 0.0
C840 C 0.91446 0.24464 0.40192 0.0
C841 C 0.92902 0.20755 0.39404 0.0
H842 H 0.92355 0.30574 0.39612 0.0
C843 C 0.96705 0.20334 0.37997 0.0
H844 H 0.88501 0.24849 0.41231 0.0
C845 C 0.9888 0.23585 0.3699 0.0
C846 C 0.97272 0.27299 0.37379 0.0
H847 H 0.97869 0.1748 0.37357 0.0
H848 H 1.01725 0.23175 0.35711 0.0
C849 C 0.93621 0.27728 0.39174 0.0
C850 C 0.4443 0.41452 0.90187 0.0
C851 C 0.48141 0.42907 0.89409 0.0
H852 H 0.38322 0.42366 0.89595 0.0
C853 C 0.48564 0.46712 0.88009 0.0
H854 H 0.44043 0.38505 0.91219 0.0
C855 C 0.45316 0.48891 0.86998 0.0
C856 C 0.41602 0.47284 0.87376 0.0
H857 H 0.51419 0.47876 0.87377 0.0
H858 H 0.45729 0.51737 0.85726 0.0
C859 C 0.41169 0.43631 0.89164 0.0
C860 C 0.22188 0.98594 0.37983 0.0
C861 C 0.25989 0.98173 0.39392 0.0
H862 H 0.17167 0.95752 0.35702 0.0
C863 C 0.27443 0.94464 0.40186 0.0
H864 H 0.21025 1.01447 0.3734 0.0
C865 C 0.25266 0.912 0.39171 0.0
C866 C 0.21616 0.91628 0.37376 0.0
H867 H 0.30387 0.94079 0.41225 0.0
H868 H 0.2653 0.88354 0.39614 0.0
C869 C 0.20011 0.95342 0.36981 0.0
C870 C 0.703 0.72197 0.88026 0.0
C871 C 0.70722 0.76002 0.89426 0.0
H872 H 0.73138 0.6717 0.85746 0.0
C873 C 0.74432 0.77455 0.90211 0.0
H874 H 0.67446 0.71035 0.87389 0.0
C875 C 0.77694 0.75275 0.89194 0.0
C876 C 0.77263 0.71622 0.87404 0.0
H877 H 0.74819 0.80402 0.91244 0.0
H878 H 0.8054 0.76539 0.89629 0.0
C879 C 0.7355 0.70016 0.8702 0.0
C880 C 0.79728 0.93638 0.91213 0.0
C881 C 0.81522 0.97288 0.91643 0.0
H882 H 0.7768 0.88513 0.9409 0.0
C883 C 0.81918 0.98891 0.95359 0.0
H884 H 0.79284 0.92376 0.88366 0.0
C885 C 0.8092 0.9671 0.9861 0.0
C886 C 0.79513 0.92908 0.98188 0.0
H887 H 0.83196 1.01735 0.9577 0.0
H888 H 0.81565 0.9787 1.01464 0.0
C889 C 0.78717 0.91457 0.94477 0.0
C890 C 0.80912 0.22202 0.20345 0.0
C891 C 0.79503 0.26005 0.20769 0.0
H892 H 0.83199 0.1718 0.23181 0.0
C893 C 0.78715 0.27457 0.24481 0.0
H894 H 0.81551 0.21041 0.17489 0.0
C895 C 0.79735 0.25279 0.27743 0.0
C896 C 0.81531 0.21628 0.2731 0.0
H897 H 0.77676 0.30402 0.24869 0.0
H898 H 0.79297 0.26542 0.3059 0.0
C899 C 0.8192 0.20024 0.23594 0.0
C900 C 0.43624 0.29748 0.77733 0.0
C901 C 0.4727 0.3155 0.77303 0.0
H902 H 0.38502 0.27692 0.74857 0.0
C903 C 0.48868 0.31956 0.73587 0.0
H904 H 0.42366 0.29296 0.8058 0.0
C905 C 0.46688 0.30958 0.70335 0.0
C906 C 0.4289 0.29541 0.70759 0.0
H907 H 0.51709 0.33241 0.73175 0.0
H908 H 0.47845 0.3161 0.67481 0.0
C909 C 0.41444 0.28737 0.74469 0.0
C910 C 0.37965 0.96716 0.20327 0.0
C911 C 0.39378 0.92915 0.20751 0.0
H912 H 0.35681 1.01741 0.23166 0.0
C913 C 0.40176 0.91469 0.24462 0.0
H914 H 0.37318 0.97874 0.17473 0.0
C915 C 0.39162 0.93651 0.27725 0.0
C916 C 0.37363 0.97299 0.27294 0.0
H917 H 0.41219 0.88525 0.2485 0.0
H918 H 0.39608 0.92392 0.30573 0.0
C919 C 0.36963 0.98898 0.23578 0.0
C920 C 0.77446 0.90176 0.74485 0.0
C921 C 0.75994 0.89393 0.70773 0.0
H922 H 0.7653 0.89591 0.80595 0.0
C923 C 0.72192 0.87988 0.70349 0.0
H924 H 0.80391 0.91212 0.74873 0.0
C925 C 0.70013 0.86979 0.73598 0.0
C926 C 0.71616 0.87364 0.77314 0.0
H927 H 0.71031 0.87353 0.67493 0.0
H928 H 0.67169 0.85704 0.73185 0.0
C929 C 0.75267 0.89156 0.77747 0.0
C930 C 0.37957 0.222 0.98596 0.0
C931 C 0.39367 0.26002 0.98171 0.0
H932 H 0.35676 0.17176 0.95758 0.0
C933 C 0.40162 0.2745 0.9446 0.0
H934 H 0.37313 0.21042 1.01451 0.0
C935 C 0.39148 0.25268 0.91197 0.0
C936 C 0.37351 0.21619 0.9163 0.0
H937 H 0.41202 0.30393 0.94072 0.0
H938 H 0.39592 0.26528 0.8835 0.0
C939 C 0.36956 0.20019 0.95346 0.0
C940 C 0.4145 0.90216 0.4448 0.0
C941 C 0.42901 0.89426 0.48191 0.0
H942 H 0.42368 0.89642 0.3837 0.0
C943 C 0.46706 0.88026 0.48614 0.0
H944 H 0.38503 0.91249 0.44094 0.0
C945 C 0.48888 0.87025 0.45363 0.0
C946 C 0.47284 0.87413 0.41647 0.0
H947 H 0.47867 0.87385 0.51468 0.0
H948 H 0.51733 0.8575 0.45774 0.0
C949 C 0.43631 0.89204 0.41217 0.0
C950 C 0.75262 0.29736 0.41206 0.0
C951 C 0.71609 0.31527 0.41638 0.0
H952 H 0.80387 0.27684 0.4408 0.0
C953 C 0.70004 0.31913 0.45354 0.0
H954 H 0.76526 0.29299 0.38358 0.0
C955 C 0.72183 0.30908 0.48604 0.0
C956 C 0.75987 0.29505 0.4818 0.0
H957 H 0.67159 0.33189 0.45766 0.0
H958 H 0.7102 0.31547 0.51459 0.0
C959 C 0.77441 0.28718 0.44468 0.0
C960 C 0.23454 0.38442 0.46475 0.0
C961 C 0.25524 0.35772 0.48757 0.0
H962 H 0.1905 0.39221 0.42167 0.0
C963 C 0.25122 0.31788 0.48118 0.0
H964 H 0.23781 0.41542 0.46904 0.0
C965 C 0.22414 0.30476 0.45435 0.0
C966 C 0.20132 0.33147 0.43367 0.0
H967 H 0.26725 0.29697 0.49838 0.0
H968 H 0.21986 0.27376 0.45108 0.0
C969 C 0.20771 0.37131 0.43768 0.0
C970 C 0.37129 0.75142 0.98122 0.0
C971 C 0.33146 0.75545 0.9876 0.0
H972 H 0.41543 0.72006 0.95111 0.0
C973 C 0.30477 0.73478 0.96474 0.0
H974 H 0.39218 0.76743 0.99845 0.0
C975 C 0.31791 0.70796 0.93765 0.0
C976 C 0.35774 0.70156 0.93365 0.0
H977 H 0.27377 0.73806 0.96902 0.0
H978 H 0.29702 0.69077 0.9216 0.0
C979 C 0.38443 0.72436 0.95437 0.0
C980 C 0.96477 0.88452 0.45456 0.0
C981 C 0.98757 0.85781 0.43383 0.0
H982 H 0.92166 0.89231 0.4986 0.0
C983 C 0.98115 0.81797 0.4378 0.0
H984 H 0.96909 0.91552 0.45132 0.0
C985 C 0.9543 0.80486 0.46486 0.0
C986 C 0.93361 0.83157 0.48771 0.0
H987 H 0.99834 0.79707 0.42175 0.0
H988 H 0.95099 0.77386 0.46911 0.0
C989 C 0.93767 0.87141 0.48137 0.0
C990 C 0.80445 0.46468 0.95451 0.0
C991 C 0.83114 0.48749 0.9338 0.0
H992 H 0.7967 0.42159 0.99856 0.0
C993 C 0.87098 0.48109 0.93778 0.0
H994 H 0.77346 0.46898 0.95126 0.0
C995 C 0.88411 0.45426 0.96484 0.0
C996 C 0.85743 0.43358 0.98769 0.0
H997 H 0.89186 0.49829 0.92173 0.0
H998 H 0.91511 0.45098 0.96911 0.0
C999 C 0.81759 0.4376 0.98133 0.0
C1000 C 0.25141 0.87119 0.70803 0.0
C1001 C 0.25542 0.83135 0.70162 0.0
H1002 H 0.22005 0.91533 0.73814 0.0
C1003 C 0.23469 0.80465 0.72442 0.0
H1004 H 0.26746 0.89208 0.69084 0.0
C1005 C 0.20784 0.81779 0.75149 0.0
C1006 C 0.20147 0.85763 0.75552 0.0
H1007 H 0.23795 0.77365 0.72012 0.0
H1008 H 0.19062 0.7969 0.76749 0.0
C1009 C 0.22432 0.88433 0.73485 0.0
C1010 C 0.80468 0.72448 0.23496 0.0
C1011 C 0.83134 0.70161 0.25565 0.0
H1012 H 0.79697 0.7676 0.19093 0.0
C1013 C 0.87118 0.70791 0.25161 0.0
H1014 H 0.77367 0.72026 0.23824 0.0
C1015 C 0.88435 0.73471 0.22453 0.0
C1016 C 0.85768 0.75547 0.20173 0.0
H1017 H 0.89205 0.69066 0.26763 0.0
H1018 H 0.91535 0.73792 0.22024 0.0
C1019 C 0.81784 0.75154 0.20813 0.0
C1020 C 0.9374 0.31785 0.708 0.0
C1021 C 0.93339 0.3577 0.70164 0.0
H1022 H 0.96875 0.2737 0.73808 0.0
C1023 C 0.95409 0.38438 0.72447 0.0
H1024 H 0.92136 0.29697 0.69079 0.0
C1025 C 0.98092 0.37123 0.75153 0.0
C1026 C 0.9873 0.33139 0.75553 0.0
H1027 H 0.95083 0.41539 0.7202 0.0
H1028 H 0.99813 0.39212 0.76757 0.0
C1029 C 0.96447 0.30471 0.73482 0.0
C1030 C 0.38423 0.46474 0.23488 0.0
C1031 C 0.35756 0.48761 0.25558 0.0
H1032 H 0.39196 0.42163 0.19082 0.0
C1033 C 0.31772 0.48132 0.25154 0.0
H1034 H 0.41523 0.46895 0.23817 0.0
C1035 C 0.30457 0.45453 0.22443 0.0
C1036 C 0.33124 0.43378 0.20161 0.0
H1037 H 0.29685 0.49857 0.26756 0.0
H1038 H 0.27357 0.45133 0.22013 0.0
C1039 C 0.37108 0.4377 0.20802 0.0
C1040 C 0.45411 0.2245 0.30484 0.0
C1041 C 0.43341 0.20166 0.33153 0.0
H1042 H 0.49818 0.26755 0.2971 0.0
C1043 C 0.43748 0.20796 0.37138 0.0
H1044 H 0.45079 0.22028 0.27383 0.0
C1045 C 0.4646 0.23472 0.38454 0.0
C1046 C 0.48742 0.25543 0.35784 0.0
H1047 H 0.42146 0.19073 0.39227 0.0
H1048 H 0.46892 0.23792 0.41554 0.0
C1049 C 0.48098 0.25151 0.318 0.0
C1050 C 0.4543 0.96472 0.88445 0.0
C1051 C 0.4336 0.98754 0.85775 0.0
H1052 H 0.49832 0.9216 0.89221 0.0
C1053 C 0.43761 0.98115 0.8179 0.0
H1054 H 0.45102 0.96901 0.91546 0.0
C1055 C 0.46468 0.95431 0.80476 0.0
C1056 C 0.4875 0.9336 0.83146 0.0
H1057 H 0.42159 0.99836 0.797 0.0
H1058 H 0.46896 0.95103 0.77375 0.0
C1059 C 0.48112 0.93763 0.87131 0.0
C1060 C 0.73487 0.96479 0.30487 0.0
C1061 C 0.75556 0.98763 0.33156 0.0
H1062 H 0.69079 0.92175 0.29712 0.0
C1063 C 0.75148 0.98132 0.37142 0.0
H1064 H 0.73819 0.96901 0.27386 0.0
C1065 C 0.72435 0.95456 0.38456 0.0
C1066 C 0.70154 0.93386 0.35786 0.0
H1067 H 0.76749 0.99855 0.39231 0.0
H1068 H 0.72002 0.95136 0.41557 0.0
C1069 C 0.70799 0.93778 0.31801 0.0
C1070 C 0.73445 0.22434 0.88454 0.0
C1071 C 0.75517 0.20152 0.85783 0.0
H1072 H 0.69042 0.26745 0.8923 0.0
C1073 C 0.75118 0.2079 0.81799 0.0
H1074 H 0.7377 0.22005 0.91554 0.0
C1075 C 0.72412 0.23474 0.80485 0.0
C1076 C 0.70129 0.25545 0.83155 0.0
H1077 H 0.76723 0.1907 0.79709 0.0
H1078 H 0.71986 0.23802 0.77384 0.0
C1079 C 0.70763 0.25142 0.8714 0.0
C1080 C 0.97724 0.80763 0.68822 0.0
C1081 C 0.95934 0.84012 0.67099 0.0
H1082 H 1.01816 0.78615 0.73016 0.0
C1083 C 0.97199 0.87722 0.68324 0.0
H1084 H 0.96824 0.77859 0.68022 0.0
C1085 C 1.00095 0.88165 0.71197 0.0
C1086 C 1.01822 0.84915 0.72984 0.0
H1087 H 0.95897 0.90313 0.6711 0.0
H1088 H 1.00894 0.91069 0.72098 0.0
C1089 C 1.00598 0.81206 0.71716 0.0
C1090 C 0.88131 0.47735 0.18824 0.0
C1091 C 0.84883 0.45946 0.17099 0.0
H1092 H 0.90276 0.51826 0.23021 0.0
C1093 C 0.81173 0.47213 0.18323 0.0
H1094 H 0.91035 0.46834 0.18024 0.0
C1095 C 0.80729 0.5011 0.21196 0.0
C1096 C 0.83977 0.51835 0.22986 0.0
H1097 H 0.78584 0.45912 0.17107 0.0
H1098 H 0.77825 0.50911 0.22097 0.0
C1099 C 0.87687 0.5061 0.21719 0.0
C1100 C 0.18273 0.37705 0.7171 0.0
C1101 C 0.17053 0.33994 0.72975 0.0
H1102 H 0.22045 0.41056 0.68016 0.0
C1103 C 0.18782 0.30746 0.71185 0.0
H1104 H 0.17054 0.40294 0.73012 0.0
C1105 C 0.21677 0.31192 0.68311 0.0
C1106 C 0.2294 0.34903 0.67089 0.0
H1107 H 0.17985 0.27841 0.72084 0.0
H1108 H 0.22982 0.28603 0.67095 0.0
C1109 C 0.21147 0.38151 0.68815 0.0
C1110 C 0.38159 0.68809 0.21191 0.0
C1111 C 0.34911 0.67082 0.2298 0.0
H1112 H 0.40303 0.73006 0.17102 0.0
C1113 C 0.31201 0.68303 0.21713 0.0
H1114 H 0.41063 0.68011 0.22093 0.0
C1115 C 0.30756 0.71176 0.18817 0.0
C1116 C 0.34004 0.72967 0.17093 0.0
H1117 H 0.28612 0.67086 0.23013 0.0
H1118 H 0.27852 0.72075 0.18016 0.0
C1119 C 0.37714 0.71704 0.18318 0.0
C1120 C 0.97704 0.38163 0.5011 0.0
C1121 C 0.95917 0.34914 0.51836 0.0
H1122 H 1.01793 0.4031 0.45912 0.0
C1123 C 0.97185 0.31204 0.50612 0.0
H1124 H 0.96802 0.41068 0.5091 0.0
C1125 C 1.00081 0.3076 0.47738 0.0
C1126 C 1.01804 0.3401 0.45948 0.0
H1127 H 0.95885 0.28614 0.51829 0.0
H1128 H 1.00882 0.27856 0.46838 0.0
C1129 C 1.00578 0.3772 0.47214 0.0
C1130 C 0.37701 0.47209 1.00606 0.0
C1131 C 0.3399 0.4595 1.01831 0.0
H1132 H 0.41054 0.50898 0.96831 0.0
C1133 C 0.30744 0.47745 1.00106 0.0
H1134 H 0.40289 0.45903 1.01821 0.0
C1135 C 0.31192 0.50618 0.97211 0.0
C1136 C 0.34903 0.51835 0.95944 0.0
H1137 H 0.27839 0.4685 1.00907 0.0
H1138 H 0.28604 0.51839 0.95911 0.0
C1139 C 0.38149 0.50104 0.97733 0.0
C1140 C 0.21702 0.87714 0.50618 0.0
C1141 C 0.2297 0.84003 0.51838 0.0
H1142 H 0.18006 0.91064 0.46847 0.0
C1143 C 0.21183 0.80755 0.50109 0.0
H1144 H 0.23002 0.90303 0.51837 0.0
C1145 C 0.1831 0.812 0.47214 0.0
C1146 C 0.17084 0.84911 0.45952 0.0
H1147 H 0.22085 0.7785 0.50906 0.0
H1148 H 0.17096 0.78611 0.4591 0.0
C1149 C 0.18807 0.88159 0.47745 0.0
C1150 C 0.80741 0.68805 0.97757 0.0
C1151 C 0.83987 0.67077 0.95962 0.0
H1152 H 0.78603 0.73004 1.01851 0.0
C1153 C 0.87698 0.68298 0.97221 0.0
H1154 H 0.77836 0.68007 0.96861 0.0
C1155 C 0.88148 0.71172 1.00116 0.0
C1156 C 0.84903 0.72964 1.01847 0.0
H1157 H 0.90286 0.6708 0.95915 0.0
H1158 H 0.91053 0.7207 1.00911 0.0
C1159 C 0.81191 0.717 1.0063 0.0
C1160 C 0.68798 0.97723 0.80762 0.0
C1161 C 0.67068 0.95937 0.8401 0.0
H1162 H 0.72997 1.0181 0.78618 0.0
C1163 C 0.68286 0.97205 0.87722 0.0
H1164 H 0.68003 0.96821 0.77856 0.0
C1165 C 0.71158 1.001 0.88168 0.0
C1166 C 0.72952 1.01823 0.84919 0.0
H1167 H 0.67066 0.95906 0.90312 0.0
H1168 H 0.72054 1.00902 0.91073 0.0
C1169 C 0.71692 1.00596 0.81208 0.0
C1170 C 0.68801 0.21174 0.38173 0.0
C1171 C 0.67076 0.22964 0.34924 0.0
H1172 H 0.73 0.17086 0.40317 0.0
C1173 C 0.68302 0.21701 0.31213 0.0
H1174 H 0.68 0.22073 0.41078 0.0
C1175 C 0.71178 0.18807 0.30767 0.0
C1176 C 0.72967 0.17082 0.34016 0.0
H1177 H 0.67086 0.23003 0.28622 0.0
H1178 H 0.7208 0.18009 0.27862 0.0
C1179 C 0.71699 0.18303 0.37727 0.0
C1180 C 0.47188 0.1831 0.81206 0.0
C1181 C 0.45924 0.17084 0.84917 0.0
H1182 H 0.50879 0.22085 0.77857 0.0
C1183 C 0.47715 0.18808 0.88166 0.0
H1184 H 0.45885 0.17095 0.78615 0.0
C1185 C 0.50587 0.21703 0.87722 0.0
C1186 C 0.51808 0.22971 0.84011 0.0
H1187 H 0.46817 0.18007 0.91071 0.0
H1188 H 0.51804 0.23003 0.90313 0.0
C1189 C 0.50081 0.21183 0.80762 0.0
C1190 C 0.50092 0.97761 0.38169 0.0
C1191 C 0.51819 0.95969 0.34921 0.0
H1192 H 0.45892 1.01851 0.40311 0.0
C1193 C 0.50595 0.97229 0.31209 0.0
H1194 H 0.50892 0.96865 0.41074 0.0
C1195 C 0.47719 1.00122 0.30762 0.0
C1196 C 0.45928 1.0185 0.3401 0.0
H1197 H 0.51813 0.95925 0.28619 0.0
H1198 H 0.46819 1.00917 0.27856 0.0
C1199 C 0.47194 1.00632 0.37722 0.0
loop_
_geom_bond_atom_site_label_1
_geom_bond_atom_site_label_2
_geom_bond_distance
_geom_bond_site_symmetry_2
_ccdc_geom_bond_type
O0 Tb1 2.506 . S
O0 C14 1.265 . S
Tb1 O0 2.506 . S
Tb1 O6 2.312 1_655 S
Tb1 O10 2.271 . S
Tb1 O12 2.338 . S
Tb1 O19 2.441 . S
C2 O10 1.252 . S
C2 O11 1.253 . S
O3 Tb4 2.271 . S
O3 C13 1.252 . S
Tb4 O3 2.271 . S
Tb4 O7 2.338 . S
Tb4 O11 2.312 1_455 S
Tb4 O15 2.441 . S
Tb4 O16 2.506 . S
C5 O15 1.244 . S
C5 O16 1.265 . S
O6 Tb1 2.312 1_455 S
O6 C13 1.253 . S
O7 Tb4 2.338 . S
O7 C8 1.258 . S
C8 O7 1.258 . S
C8 O9 1.251 . S
O9 C8 1.251 . S
O10 Tb1 2.271 . S
O10 C2 1.252 . S
O11 C2 1.253 . S
O11 Tb4 2.312 1_655 S
O12 Tb1 2.338 . S
O12 C17 1.258 . S
C13 O3 1.252 . S
C13 O6 1.253 . S
C14 O0 1.265 . S
C14 O19 1.244 . S
O15 Tb4 2.441 . S
O15 C5 1.244 . S
O16 Tb4 2.506 . S
O16 C5 1.265 . S
C17 O12 1.258 . S
C17 O18 1.251 . S
O18 C17 1.251 . S
O19 Tb1 2.441 . S
O19 C14 1.244 . S
O20 Tb21 2.506 . S
O20 C34 1.265 . S
Tb21 O20 2.506 . S
Tb21 O26 2.312 . S
Tb21 O30 2.271 . S
Tb21 O32 2.338 . S
Tb21 O39 2.441 . S
C22 O30 1.252 . S
C22 O31 1.253 . S
O23 Tb24 2.271 . S
O23 C33 1.252 . S
Tb24 O23 2.271 . S
Tb24 O27 2.338 . S
Tb24 O31 2.312 . S
Tb24 O35 2.441 . S
Tb24 O36 2.506 . S
C25 O35 1.244 . S
C25 O36 1.265 . S
O26 Tb21 2.312 . S
O26 C33 1.253 . S
O27 Tb24 2.338 . S
O27 C28 1.258 . S
C28 O27 1.258 . S
C28 O29 1.251 . S
O29 C28 1.251 . S
O30 Tb21 2.271 . S
O30 C22 1.252 . S
O31 C22 1.253 . S
O31 Tb24 2.312 . S
O32 Tb21 2.338 . S
O32 C37 1.258 . S
C33 O23 1.252 . S
C33 O26 1.253 . S
C34 O20 1.265 . S
C34 O39 1.244 . S
O35 Tb24 2.441 . S
O35 C25 1.244 . S
O36 Tb24 2.506 . S
O36 C25 1.265 . S
C37 O32 1.258 . S
C37 O38 1.251 . S
O38 C37 1.251 . S
O39 Tb21 2.441 . S
O39 C34 1.244 . S
O40 Tb41 2.506 . S
O40 C54 1.265 . S
Tb41 O40 2.506 . S
Tb41 O46 2.312 1_455 S
Tb41 O50 2.271 . S
Tb41 O52 2.338 . S
Tb41 O59 2.441 . S
C42 O50 1.252 . S
C42 O51 1.253 . S
O43 Tb44 2.271 . S
O43 C53 1.252 . S
Tb44 O43 2.271 . S
Tb44 O47 2.338 . S
Tb44 O51 2.312 1_655 S
Tb44 O55 2.441 . S
Tb44 O56 2.506 . S
C45 O55 1.244 . S
C45 O56 1.265 . S
O46 Tb41 2.312 1_655 S
O46 C53 1.253 . S
O47 Tb44 2.338 . S
O47 C48 1.258 . S
C48 O47 1.258 . S
C48 O49 1.251 . S
O49 C48 1.251 . S
O50 Tb41 2.271 . S
O50 C42 1.252 . S
O51 C42 1.253 . S
O51 Tb44 2.312 1_455 S
O52 Tb41 2.338 . S
O52 C57 1.258 . S
C53 O43 1.252 . S
C53 O46 1.253 . S
C54 O40 1.265 . S
C54 O59 1.244 . S
O55 Tb44 2.441 . S
O55 C45 1.244 . S
O56 Tb44 2.506 . S
O56 C45 1.265 . S
C57 O52 1.258 . S
C57 O58 1.251 . S
O58 C57 1.251 . S
O59 Tb41 2.441 . S
O59 C54 1.244 . S
O60 Tb61 2.506 . S
O60 C74 1.265 . S
Tb61 O60 2.506 . S
Tb61 O66 2.312 . S
Tb61 O70 2.271 . S
Tb61 O72 2.338 . S
Tb61 O79 2.441 . S
C62 O70 1.252 . S
C62 O71 1.253 . S
O63 Tb64 2.271 . S
O63 C73 1.252 . S
Tb64 O63 2.271 . S
Tb64 O67 2.338 . S
Tb64 O71 2.312 . S
Tb64 O75 2.441 . S
Tb64 O76 2.506 . S
C65 O75 1.244 . S
C65 O76 1.265 . S
O66 Tb61 2.312 . S
O66 C73 1.253 . S
O67 Tb64 2.338 . S
O67 C68 1.258 . S
C68 O67 1.258 . S
C68 O69 1.251 . S
O69 C68 1.251 . S
O70 Tb61 2.271 . S
O70 C62 1.252 . S
O71 C62 1.253 . S
O71 Tb64 2.312 . S
O72 Tb61 2.338 . S
O72 C77 1.258 . S
C73 O63 1.252 . S
C73 O66 1.253 . S
C74 O60 1.265 . S
C74 O79 1.244 . S
O75 Tb64 2.441 . S
O75 C65 1.244 . S
O76 Tb64 2.506 . S
O76 C65 1.265 . S
C77 O72 1.258 . S
C77 O78 1.251 . S
O78 C77 1.251 . S
O79 Tb61 2.441 . S
O79 C74 1.244 . S
O80 Tb81 2.506 . S
O80 C94 1.265 . S
Tb81 O80 2.506 . S
Tb81 O86 2.312 1_655 S
Tb81 O90 2.271 . S
Tb81 O92 2.338 . S
Tb81 O99 2.441 . S
C82 O90 1.252 . S
C82 O91 1.253 . S
O83 Tb84 2.271 . S
O83 C93 1.252 . S
Tb84 O83 2.271 . S
Tb84 O87 2.338 . S
Tb84 O91 2.312 1_455 S
Tb84 O95 2.441 . S
Tb84 O96 2.506 . S
C85 O95 1.244 . S
C85 O96 1.265 . S
O86 Tb81 2.312 1_455 S
O86 C93 1.253 . S
O87 Tb84 2.338 . S
O87 C88 1.258 . S
C88 O87 1.258 . S
C88 O89 1.251 . S
O89 C88 1.251 . S
O90 Tb81 2.271 . S
O90 C82 1.252 . S
O91 C82 1.253 . S
O91 Tb84 2.312 1_655 S
O92 Tb81 2.338 . S
O92 C97 1.258 . S
C93 O83 1.252 . S
C93 O86 1.253 . S
C94 O80 1.265 . S
C94 O99 1.244 . S
O95 Tb84 2.441 . S
O95 C85 1.244 . S
O96 Tb84 2.506 . S
O96 C85 1.265 . S
C97 O92 1.258 . S
C97 O98 1.251 . S
O98 C97 1.251 . S
O99 Tb81 2.441 . S
O99 C94 1.244 . S
O100 Tb101 2.506 . S
O100 C114 1.265 . S
Tb101 O100 2.506 . S
Tb101 O106 2.312 . S
Tb101 O110 2.271 . S
Tb101 O112 2.338 . S
Tb101 O119 2.441 . S
C102 O110 1.252 . S
C102 O111 1.253 . S
O103 Tb104 2.271 . S
O103 C113 1.252 . S
Tb104 O103 2.271 . S
Tb104 O107 2.338 . S
Tb104 O111 2.312 . S
Tb104 O115 2.441 . S
Tb104 O116 2.506 . S
C105 O115 1.244 . S
C105 O116 1.265 . S
O106 Tb101 2.312 . S
O106 C113 1.253 . S
O107 Tb104 2.338 . S
O107 C108 1.258 . S
C108 O107 1.258 . S
C108 O109 1.251 . S
O109 C108 1.251 . S
O110 Tb101 2.271 . S
O110 C102 1.252 . S
O111 C102 1.253 . S
O111 Tb104 2.312 . S
O112 Tb101 2.338 . S
O112 C117 1.258 . S
C113 O103 1.252 . S
C113 O106 1.253 . S
C114 O100 1.265 . S
C114 O119 1.244 . S
O115 Tb104 2.441 . S
O115 C105 1.244 . S
O116 Tb104 2.506 . S
O116 C105 1.265 . S
C117 O112 1.258 . S
C117 O118 1.251 . S
O118 C117 1.251 . S
O119 Tb101 2.441 . S
O119 C114 1.244 . S
O120 Tb121 2.506 . S
O120 C134 1.265 . S
Tb121 O120 2.506 . S
Tb121 O126 2.312 1_455 S
Tb121 O130 2.271 . S
Tb121 O132 2.338 . S
Tb121 O139 2.441 . S
C122 O130 1.252 . S
C122 O131 1.253 . S
O123 Tb124 2.271 . S
O123 C133 1.252 . S
Tb124 O123 2.271 . S
Tb124 O127 2.338 . S
Tb124 O131 2.312 1_655 S
Tb124 O135 2.441 . S
Tb124 O136 2.506 . S
C125 O135 1.244 . S
C125 O136 1.265 . S
O126 Tb121 2.312 1_655 S
O126 C133 1.253 . S
O127 Tb124 2.338 . S
O127 C128 1.258 . S
C128 O127 1.258 . S
C128 O129 1.251 . S
O129 C128 1.251 . S
O130 Tb121 2.271 . S
O130 C122 1.252 . S
O131 C122 1.253 . S
O131 Tb124 2.312 1_455 S
O132 Tb121 2.338 . S
O132 C137 1.258 . S
C133 O123 1.252 . S
C133 O126 1.253 . S
C134 O120 1.265 . S
C134 O139 1.244 . S
O135 Tb124 2.441 . S
O135 C125 1.244 . S
O136 Tb124 2.506 . S
O136 C125 1.265 . S
C137 O132 1.258 . S
C137 O138 1.251 . S
O138 C137 1.251 . S
O139 Tb121 2.441 . S
O139 C134 1.244 . S
O140 Tb141 2.506 . S
O140 C154 1.265 . S
Tb141 O140 2.506 . S
Tb141 O146 2.312 . S
Tb141 O150 2.271 . S
Tb141 O152 2.338 . S
Tb141 O159 2.441 . S
C142 O150 1.252 . S
C142 O151 1.253 . S
O143 Tb144 2.271 . S
O143 C153 1.252 . S
Tb144 O143 2.271 . S
Tb144 O147 2.338 . S
Tb144 O151 2.312 . S
Tb144 O155 2.441 . S
Tb144 O156 2.506 . S
C145 O155 1.244 . S
C145 O156 1.265 . S
O146 Tb141 2.312 . S
O146 C153 1.253 . S
O147 Tb144 2.338 . S
O147 C148 1.258 . S
C148 O147 1.258 . S
C148 O149 1.251 . S
O149 C148 1.251 . S
O150 Tb141 2.271 . S
O150 C142 1.252 . S
O151 C142 1.253 . S
O151 Tb144 2.312 . S
O152 Tb141 2.338 . S
O152 C157 1.258 . S
C153 O143 1.252 . S
C153 O146 1.253 . S
C154 O140 1.265 . S
C154 O159 1.244 . S
O155 Tb144 2.441 . S
O155 C145 1.244 . S
O156 Tb144 2.506 . S
O156 C145 1.265 . S
C157 O152 1.258 . S
C157 O158 1.251 . S
O158 C157 1.251 . S
O159 Tb141 2.441 . S
O159 C154 1.244 . S
O160 Tb161 2.506 . S
O160 C174 1.265 . S
Tb161 O160 2.506 . S
Tb161 O166 2.312 1_565 S
Tb161 O170 2.271 . S
Tb161 O172 2.338 . S
Tb161 O179 2.441 . S
C162 O170 1.252 . S
C162 O171 1.253 . S
O163 Tb164 2.271 . S
O163 C173 1.252 . S
Tb164 O163 2.271 . S
Tb164 O167 2.338 . S
Tb164 O171 2.312 1_545 S
Tb164 O175 2.441 . S
Tb164 O176 2.506 . S
C165 O175 1.244 . S
C165 O176 1.265 . S
O166 Tb161 2.312 1_545 S
O166 C173 1.253 . S
O167 Tb164 2.338 . S
O167 C168 1.258 . S
C168 O167 1.258 . S
C168 O169 1.251 . S
O169 C168 1.251 . S
O170 Tb161 2.271 . S
O170 C162 1.252 . S
O171 C162 1.253 . S
O171 Tb164 2.312 1_565 S
O172 Tb161 2.338 . S
O172 C177 1.258 . S
C173 O163 1.252 . S
C173 O166 1.253 . S
C174 O160 1.265 . S
C174 O179 1.244 . S
O175 Tb164 2.441 . S
O175 C165 1.244 . S
O176 Tb164 2.506 . S
O176 C165 1.265 . S
C177 O172 1.258 . S
C177 O178 1.251 . S
O178 C177 1.251 . S
O179 Tb161 2.441 . S
O179 C174 1.244 . S
O180 Tb181 2.506 . S
O180 C194 1.265 . S
Tb181 O180 2.506 . S
Tb181 O186 2.312 . S
Tb181 O190 2.271 . S
Tb181 O192 2.338 . S
Tb181 O199 2.441 . S
C182 O190 1.252 . S
C182 O191 1.253 . S
O183 Tb184 2.271 . S
O183 C193 1.252 . S
Tb184 O183 2.271 . S
Tb184 O187 2.338 . S
Tb184 O191 2.312 . S
Tb184 O195 2.441 . S
Tb184 O196 2.506 . S
C185 O195 1.244 . S
C185 O196 1.265 . S
O186 Tb181 2.312 . S
O186 C193 1.253 . S
O187 Tb184 2.338 . S
O187 C188 1.258 . S
C188 O187 1.258 . S
C188 O189 1.251 . S
O189 C188 1.251 . S
O190 Tb181 2.271 . S
O190 C182 1.252 . S
O191 C182 1.253 . S
O191 Tb184 2.312 . S
O192 Tb181 2.338 . S
O192 C197 1.258 . S
C193 O183 1.252 . S
C193 O186 1.253 . S
C194 O180 1.265 . S
C194 O199 1.244 . S
O195 Tb184 2.441 . S
O195 C185 1.244 . S
O196 Tb184 2.506 . S
O196 C185 1.265 . S
C197 O192 1.258 . S
C197 O198 1.251 . S
O198 C197 1.251 . S
O199 Tb181 2.441 . S
O199 C194 1.244 . S
O200 Tb201 2.506 . S
O200 C214 1.265 . S
Tb201 O200 2.506 . S
Tb201 O206 2.312 1_545 S
Tb201 O210 2.271 . S
Tb201 O212 2.338 . S
Tb201 O219 2.441 . S
C202 O210 1.252 . S
C202 O211 1.253 . S
O203 Tb204 2.271 . S
O203 C213 1.252 . S
Tb204 O203 2.271 . S
Tb204 O207 2.338 . S
Tb204 O211 2.312 1_565 S
Tb204 O215 2.441 . S
Tb204 O216 2.506 . S
C205 O215 1.244 . S
C205 O216 1.265 . S
O206 Tb201 2.312 1_565 S
O206 C213 1.253 . S
O207 Tb204 2.338 . S
O207 C208 1.258 . S
C208 O207 1.258 . S
C208 O209 1.251 . S
O209 C208 1.251 . S
O210 Tb201 2.271 . S
O210 C202 1.252 . S
O211 C202 1.253 . S
O211 Tb204 2.312 1_545 S
O212 Tb201 2.338 . S
O212 C217 1.258 . S
C213 O203 1.252 . S
C213 O206 1.253 . S
C214 O200 1.265 . S
C214 O219 1.244 . S
O215 Tb204 2.441 . S
O215 C205 1.244 . S
O216 Tb204 2.506 . S
O216 C205 1.265 . S
C217 O212 1.258 . S
C217 O218 1.251 . S
O218 C217 1.251 . S
O219 Tb201 2.441 . S
O219 C214 1.244 . S
O220 Tb221 2.506 . S
O220 C234 1.265 . S
Tb221 O220 2.506 . S
Tb221 O226 2.312 . S
Tb221 O230 2.271 . S
Tb221 O232 2.338 . S
Tb221 O239 2.441 . S
C222 O230 1.252 . S
C222 O231 1.253 . S
O223 Tb224 2.271 . S
O223 C233 1.252 . S
Tb224 O223 2.271 . S
Tb224 O227 2.338 . S
Tb224 O231 2.312 . S
Tb224 O235 2.441 . S
Tb224 O236 2.506 . S
C225 O235 1.244 . S
C225 O236 1.265 . S
O226 Tb221 2.312 . S
O226 C233 1.253 . S
O227 Tb224 2.338 . S
O227 C228 1.258 . S
C228 O227 1.258 . S
C228 O229 1.251 . S
O229 C228 1.251 . S
O230 Tb221 2.271 . S
O230 C222 1.252 . S
O231 C222 1.253 . S
O231 Tb224 2.312 . S
O232 Tb221 2.338 . S
O232 C237 1.258 . S
C233 O223 1.252 . S
C233 O226 1.253 . S
C234 O220 1.265 . S
C234 O239 1.244 . S
O235 Tb224 2.441 . S
O235 C225 1.244 . S
O236 Tb224 2.506 . S
O236 C225 1.265 . S
C237 O232 1.258 . S
C237 O238 1.251 . S
O238 C237 1.251 . S
O239 Tb221 2.441 . S
O239 C234 1.244 . S
O240 Tb241 2.506 . S
O240 C254 1.265 . S
Tb241 O240 2.506 . S
Tb241 O246 2.312 1_545 S
Tb241 O250 2.271 . S
Tb241 O252 2.338 . S
Tb241 O259 2.441 . S
C242 O250 1.252 . S
C242 O251 1.253 . S
O243 Tb244 2.271 . S
O243 C253 1.252 . S
Tb244 O243 2.271 . S
Tb244 O247 2.338 . S
Tb244 O251 2.312 1_565 S
Tb244 O255 2.441 . S
Tb244 O256 2.506 . S
C245 O255 1.244 . S
C245 O256 1.265 . S
O246 Tb241 2.312 1_565 S
O246 C253 1.253 . S
O247 Tb244 2.338 . S
O247 C248 1.258 . S
C248 O247 1.258 . S
C248 O249 1.251 . S
O249 C248 1.251 . S
O250 Tb241 2.271 . S
O250 C242 1.252 . S
O251 C242 1.253 . S
O251 Tb244 2.312 1_545 S
O252 Tb241 2.338 . S
O252 C257 1.258 . S
C253 O243 1.252 . S
C253 O246 1.253 . S
C254 O240 1.265 . S
C254 O259 1.244 . S
O255 Tb244 2.441 . S
O255 C245 1.244 . S
O256 Tb244 2.506 . S
O256 C245 1.265 . S
C257 O252 1.258 . S
C257 O258 1.251 . S
O258 C257 1.251 . S
O259 Tb241 2.441 . S
O259 C254 1.244 . S
O260 Tb261 2.506 . S
O260 C274 1.265 . S
Tb261 O260 2.506 . S
Tb261 O266 2.312 . S
Tb261 O270 2.271 . S
Tb261 O272 2.338 . S
Tb261 O279 2.441 . S
C262 O270 1.252 . S
C262 O271 1.253 . S
O263 Tb264 2.271 . S
O263 C273 1.252 . S
Tb264 O263 2.271 . S
Tb264 O267 2.338 . S
Tb264 O271 2.312 . S
Tb264 O275 2.441 . S
Tb264 O276 2.506 . S
C265 O275 1.244 . S
C265 O276 1.265 . S
O266 Tb261 2.312 . S
O266 C273 1.253 . S
O267 Tb264 2.338 . S
O267 C268 1.258 . S
C268 O267 1.258 . S
C268 O269 1.251 . S
O269 C268 1.251 . S
O270 Tb261 2.271 . S
O270 C262 1.252 . S
O271 C262 1.253 . S
O271 Tb264 2.312 . S
O272 Tb261 2.338 . S
O272 C277 1.258 . S
C273 O263 1.252 . S
C273 O266 1.253 . S
C274 O260 1.265 . S
C274 O279 1.244 . S
O275 Tb264 2.441 . S
O275 C265 1.244 . S
O276 Tb264 2.506 . S
O276 C265 1.265 . S
C277 O272 1.258 . S
C277 O278 1.251 . S
O278 C277 1.251 . S
O279 Tb261 2.441 . S
O279 C274 1.244 . S
O280 Tb281 2.506 . S
O280 C294 1.265 . S
Tb281 O280 2.506 . S
Tb281 O286 2.312 1_565 S
Tb281 O290 2.271 . S
Tb281 O292 2.338 . S
Tb281 O299 2.441 . S
C282 O290 1.252 . S
C282 O291 1.253 . S
O283 Tb284 2.271 . S
O283 C293 1.252 . S
Tb284 O283 2.271 . S
Tb284 O287 2.338 . S
Tb284 O291 2.312 1_545 S
Tb284 O295 2.441 . S
Tb284 O296 2.506 . S
C285 O295 1.244 . S
C285 O296 1.265 . S
O286 Tb281 2.312 1_545 S
O286 C293 1.253 . S
O287 Tb284 2.338 . S
O287 C288 1.258 . S
C288 O287 1.258 . S
C288 O289 1.251 . S
O289 C288 1.251 . S
O290 Tb281 2.271 . S
O290 C282 1.252 . S
O291 C282 1.253 . S
O291 Tb284 2.312 1_565 S
O292 Tb281 2.338 . S
O292 C297 1.258 . S
C293 O283 1.252 . S
C293 O286 1.253 . S
C294 O280 1.265 . S
C294 O299 1.244 . S
O295 Tb284 2.441 . S
O295 C285 1.244 . S
O296 Tb284 2.506 . S
O296 C285 1.265 . S
C297 O292 1.258 . S
C297 O298 1.251 . S
O298 C297 1.251 . S
O299 Tb281 2.441 . S
O299 C294 1.244 . S
O300 Tb301 2.506 . S
O300 C314 1.265 . S
Tb301 O300 2.506 . S
Tb301 O306 2.312 . S
Tb301 O310 2.271 . S
Tb301 O312 2.338 . S
Tb301 O319 2.441 . S
C302 O310 1.252 . S
C302 O311 1.253 . S
O303 Tb304 2.271 . S
O303 C313 1.252 . S
Tb304 O303 2.271 . S
Tb304 O307 2.338 . S
Tb304 O311 2.312 . S
Tb304 O315 2.441 . S
Tb304 O316 2.506 . S
C305 O315 1.244 . S
C305 O316 1.265 . S
O306 Tb301 2.312 . S
O306 C313 1.253 . S
O307 Tb304 2.338 . S
O307 C308 1.258 . S
C308 O307 1.258 . S
C308 O309 1.251 . S
O309 C308 1.251 . S
O310 Tb301 2.271 . S
O310 C302 1.252 . S
O311 C302 1.253 . S
O311 Tb304 2.312 . S
O312 Tb301 2.338 . S
O312 C317 1.258 . S
C313 O303 1.252 . S
C313 O306 1.253 . S
C314 O300 1.265 . S
C314 O319 1.244 . S
O315 Tb304 2.441 . S
O315 C305 1.244 . S
O316 Tb304 2.506 . S
O316 C305 1.265 . S
C317 O312 1.258 . S
C317 O318 1.251 . S
O318 C317 1.251 . S
O319 Tb301 2.441 . S
O319 C314 1.244 . S
O320 Tb321 2.506 . S
O320 C334 1.265 . S
Tb321 O320 2.506 . S
Tb321 O326 2.312 1_556 S
Tb321 O330 2.271 . S
Tb321 O332 2.338 . S
Tb321 O339 2.441 . S
C322 O330 1.252 . S
C322 O331 1.253 . S
O323 Tb324 2.271 . S
O323 C333 1.252 . S
Tb324 O323 2.271 . S
Tb324 O327 2.338 . S
Tb324 O331 2.312 1_554 S
Tb324 O335 2.441 . S
Tb324 O336 2.506 . S
C325 O335 1.244 . S
C325 O336 1.265 . S
O326 Tb321 2.312 1_554 S
O326 C333 1.253 . S
O327 Tb324 2.338 . S
O327 C328 1.258 . S
C328 O327 1.258 . S
C328 O329 1.251 . S
O329 C328 1.251 . S
O330 Tb321 2.271 . S
O330 C322 1.252 . S
O331 C322 1.253 . S
O331 Tb324 2.312 1_556 S
O332 Tb321 2.338 . S
O332 C337 1.258 . S
C333 O323 1.252 . S
C333 O326 1.253 . S
C334 O320 1.265 . S
C334 O339 1.244 . S
O335 Tb324 2.441 . S
O335 C325 1.244 . S
O336 Tb324 2.506 . S
O336 C325 1.265 . S
C337 O332 1.258 . S
C337 O338 1.251 . S
O338 C337 1.251 . S
O339 Tb321 2.441 . S
O339 C334 1.244 . S
O340 Tb341 2.506 . S
O340 C354 1.265 . S
Tb341 O340 2.506 . S
Tb341 O346 2.312 1_554 S
Tb341 O350 2.271 . S
Tb341 O352 2.338 . S
Tb341 O359 2.441 . S
C342 O350 1.252 . S
C342 O351 1.253 . S
O343 Tb344 2.271 . S
O343 C353 1.252 . S
Tb344 O343 2.271 . S
Tb344 O347 2.338 . S
Tb344 O351 2.312 1_556 S
Tb344 O355 2.441 . S
Tb344 O356 2.506 . S
C345 O355 1.244 . S
C345 O356 1.265 . S
O346 Tb341 2.312 1_556 S
O346 C353 1.253 . S
O347 Tb344 2.338 . S
O347 C348 1.258 . S
C348 O347 1.258 . S
C348 O349 1.251 . S
O349 C348 1.251 . S
O350 Tb341 2.271 . S
O350 C342 1.252 . S
O351 C342 1.253 . S
O351 Tb344 2.312 1_554 S
O352 Tb341 2.338 . S
O352 C357 1.258 . S
C353 O343 1.252 . S
C353 O346 1.253 . S
C354 O340 1.265 . S
C354 O359 1.244 . S
O355 Tb344 2.441 . S
O355 C345 1.244 . S
O356 Tb344 2.506 . S
O356 C345 1.265 . S
C357 O352 1.258 . S
C357 O358 1.251 . S
O358 C357 1.251 . S
O359 Tb341 2.441 . S
O359 C354 1.244 . S
O360 Tb361 2.506 . S
O360 C374 1.265 . S
Tb361 O360 2.506 . S
Tb361 O366 2.312 . S
Tb361 O370 2.271 . S
Tb361 O372 2.338 . S
Tb361 O379 2.441 . S
C362 O370 1.252 . S
C362 O371 1.253 . S
O363 Tb364 2.271 . S
O363 C373 1.252 . S
Tb364 O363 2.271 . S
Tb364 O367 2.338 . S
Tb364 O371 2.312 . S
Tb364 O375 2.441 . S
Tb364 O376 2.506 . S
C365 O375 1.244 . S
C365 O376 1.265 . S
O366 Tb361 2.312 . S
O366 C373 1.253 . S
O367 Tb364 2.338 . S
O367 C368 1.258 . S
C368 O367 1.258 . S
C368 O369 1.251 . S
O369 C368 1.251 . S
O370 Tb361 2.271 . S
O370 C362 1.252 . S
O371 C362 1.253 . S
O371 Tb364 2.312 . S
O372 Tb361 2.338 . S
O372 C377 1.258 . S
C373 O363 1.252 . S
C373 O366 1.253 . S
C374 O360 1.265 . S
C374 O379 1.244 . S
O375 Tb364 2.441 . S
O375 C365 1.244 . S
O376 Tb364 2.506 . S
O376 C365 1.265 . S
C377 O372 1.258 . S
C377 O378 1.251 . S
O378 C377 1.251 . S
O379 Tb361 2.441 . S
O379 C374 1.244 . S
O380 Tb381 2.506 . S
O380 C394 1.265 . S
Tb381 O380 2.506 . S
Tb381 O386 2.312 1_554 S
Tb381 O390 2.271 . S
Tb381 O392 2.338 . S
Tb381 O399 2.441 . S
C382 O390 1.252 . S
C382 O391 1.253 . S
O383 Tb384 2.271 . S
O383 C393 1.252 . S
Tb384 O383 2.271 . S
Tb384 O387 2.338 . S
Tb384 O391 2.312 1_556 S
Tb384 O395 2.441 . S
Tb384 O396 2.506 . S
C385 O395 1.244 . S
C385 O396 1.265 . S
O386 Tb381 2.312 1_556 S
O386 C393 1.253 . S
O387 Tb384 2.338 . S
O387 C388 1.258 . S
C388 O387 1.258 . S
C388 O389 1.251 . S
O389 C388 1.251 . S
O390 Tb381 2.271 . S
O390 C382 1.252 . S
O391 C382 1.253 . S
O391 Tb384 2.312 1_554 S
O392 Tb381 2.338 . S
O392 C397 1.258 . S
C393 O383 1.252 . S
C393 O386 1.253 . S
C394 O380 1.265 . S
C394 O399 1.244 . S
O395 Tb384 2.441 . S
O395 C385 1.244 . S
O396 Tb384 2.506 . S
O396 C385 1.265 . S
C397 O392 1.258 . S
C397 O398 1.251 . S
O398 C397 1.251 . S
O399 Tb381 2.441 . S
O399 C394 1.244 . S
O400 Tb401 2.506 . S
O400 C414 1.265 . S
Tb401 O400 2.506 . S
Tb401 O406 2.312 . S
Tb401 O410 2.271 . S
Tb401 O412 2.338 . S
Tb401 O419 2.441 . S
C402 O410 1.252 . S
C402 O411 1.253 . S
O403 Tb404 2.271 . S
O403 C413 1.252 . S
Tb404 O403 2.271 . S
Tb404 O407 2.338 . S
Tb404 O411 2.312 . S
Tb404 O415 2.441 . S
Tb404 O416 2.506 . S
C405 O415 1.244 . S
C405 O416 1.265 . S
O406 Tb401 2.312 . S
O406 C413 1.253 . S
O407 Tb404 2.338 . S
O407 C408 1.258 . S
C408 O407 1.258 . S
C408 O409 1.251 . S
O409 C408 1.251 . S
O410 Tb401 2.271 . S
O410 C402 1.252 . S
O411 C402 1.253 . S
O411 Tb404 2.312 . S
O412 Tb401 2.338 . S
O412 C417 1.258 . S
C413 O403 1.252 . S
C413 O406 1.253 . S
C414 O400 1.265 . S
C414 O419 1.244 . S
O415 Tb404 2.441 . S
O415 C405 1.244 . S
O416 Tb404 2.506 . S
O416 C405 1.265 . S
C417 O412 1.258 . S
C417 O418 1.251 . S
O418 C417 1.251 . S
O419 Tb401 2.441 . S
O419 C414 1.244 . S
O420 Tb421 2.506 . S
O420 C434 1.265 . S
Tb421 O420 2.506 . S
Tb421 O426 2.312 1_556 S
Tb421 O430 2.271 . S
Tb421 O432 2.338 . S
Tb421 O439 2.441 . S
C422 O430 1.252 . S
C422 O431 1.253 . S
O423 Tb424 2.271 . S
O423 C433 1.252 . S
Tb424 O423 2.271 . S
Tb424 O427 2.338 . S
Tb424 O431 2.312 1_554 S
Tb424 O435 2.441 . S
Tb424 O436 2.506 . S
C425 O435 1.244 . S
C425 O436 1.265 . S
O426 Tb421 2.312 1_554 S
O426 C433 1.253 . S
O427 Tb424 2.338 . S
O427 C428 1.258 . S
C428 O427 1.258 . S
C428 O429 1.251 . S
O429 C428 1.251 . S
O430 Tb421 2.271 . S
O430 C422 1.252 . S
O431 C422 1.253 . S
O431 Tb424 2.312 1_556 S
O432 Tb421 2.338 . S
O432 C437 1.258 . S
C433 O423 1.252 . S
C433 O426 1.253 . S
C434 O420 1.265 . S
C434 O439 1.244 . S
O435 Tb424 2.441 . S
O435 C425 1.244 . S
O436 Tb424 2.506 . S
O436 C425 1.265 . S
C437 O432 1.258 . S
C437 O438 1.251 . S
O438 C437 1.251 . S
O439 Tb421 2.441 . S
O439 C434 1.244 . S
O440 Tb441 2.506 . S
O440 C454 1.265 . S
Tb441 O440 2.506 . S
Tb441 O446 2.312 . S
Tb441 O450 2.271 . S
Tb441 O452 2.338 . S
Tb441 O459 2.441 . S
C442 O450 1.252 . S
C442 O451 1.253 . S
O443 Tb444 2.271 . S
O443 C453 1.252 . S
Tb444 O443 2.271 . S
Tb444 O447 2.338 . S
Tb444 O451 2.312 . S
Tb444 O455 2.441 . S
Tb444 O456 2.506 . S
C445 O455 1.244 . S
C445 O456 1.265 . S
O446 Tb441 2.312 . S
O446 C453 1.253 . S
O447 Tb444 2.338 . S
O447 C448 1.258 . S
C448 O447 1.258 . S
C448 O449 1.251 . S
O449 C448 1.251 . S
O450 Tb441 2.271 . S
O450 C442 1.252 . S
O451 C442 1.253 . S
O451 Tb444 2.312 . S
O452 Tb441 2.338 . S
O452 C457 1.258 . S
C453 O443 1.252 . S
C453 O446 1.253 . S
C454 O440 1.265 . S
C454 O459 1.244 . S
O455 Tb444 2.441 . S
O455 C445 1.244 . S
O456 Tb444 2.506 . S
O456 C445 1.265 . S
C457 O452 1.258 . S
C457 O458 1.251 . S
O458 C457 1.251 . S
O459 Tb441 2.441 . S
O459 C454 1.244 . S
O460 Tb461 2.506 . S
O460 C474 1.265 . S
Tb461 O460 2.506 . S
Tb461 O466 2.312 . S
Tb461 O470 2.271 . S
Tb461 O472 2.338 . S
Tb461 O479 2.441 . S
C462 O470 1.252 . S
C462 O471 1.253 . S
O463 Tb464 2.271 . S
O463 C473 1.252 . S
Tb464 O463 2.271 . S
Tb464 O467 2.338 . S
Tb464 O471 2.312 . S
Tb464 O475 2.441 . S
Tb464 O476 2.506 . S
C465 O475 1.244 . S
C465 O476 1.265 . S
O466 Tb461 2.312 . S
O466 C473 1.253 . S
O467 Tb464 2.338 . S
O467 C468 1.258 . S
C468 O467 1.258 . S
C468 O469 1.251 . S
O469 C468 1.251 . S
O470 Tb461 2.271 . S
O470 C462 1.252 . S
O471 C462 1.253 . S
O471 Tb464 2.312 . S
O472 Tb461 2.338 . S
O472 C477 1.258 . S
C473 O463 1.252 . S
C473 O466 1.253 . S
C474 O460 1.265 . S
C474 O479 1.244 . S
O475 Tb464 2.441 . S
O475 C465 1.244 . S
O476 Tb464 2.506 . S
O476 C465 1.265 . S
C477 O472 1.258 . S
C477 O478 1.251 . S
O478 C477 1.251 . S
O479 Tb461 2.441 . S
O479 C474 1.244 . S
C480 C481 1.387 . S
C480 H484 0.950 . S
C480 C489 1.390 . S
C481 C480 1.387 . S
C481 C483 1.387 . S
H482 C489 0.950 . S
C483 C481 1.387 . S
C483 C485 1.390 . S
C483 H487 0.950 . S
H484 C480 0.950 . S
C485 C483 1.390 . S
C485 C486 1.387 . S
C485 H488 0.950 . S
C486 C485 1.387 . S
C486 C489 1.387 . S
H487 C483 0.950 . S
H488 C485 0.950 . S
C489 C480 1.390 . S
C489 H482 0.950 . S
C489 C486 1.387 . S
C490 C491 1.387 . S
C490 H494 0.950 . S
C490 C499 1.390 . S
C491 C490 1.387 . S
C491 C493 1.387 . S
H492 C499 0.950 . S
C493 C491 1.387 . S
C493 C495 1.390 . S
C493 H497 0.950 . S
H494 C490 0.950 . S
C495 C493 1.390 . S
C495 C496 1.387 . S
C495 H498 0.950 . S
C496 C495 1.387 . S
C496 C499 1.387 . S
H497 C493 0.950 . S
H498 C495 0.950 . S
C499 C490 1.390 . S
C499 H492 0.950 . S
C499 C496 1.387 . S
C500 C501 1.387 . S
C500 H504 0.950 . S
C500 C509 1.390 . S
C501 C500 1.387 . S
C501 C503 1.387 . S
H502 C509 0.950 . S
C503 C501 1.387 . S
C503 C505 1.390 . S
C503 H507 0.950 . S
H504 C500 0.950 . S
C505 C503 1.390 . S
C505 C506 1.387 . S
C505 H508 0.950 . S
C506 C505 1.387 . S
C506 C509 1.387 . S
H507 C503 0.950 . S
H508 C505 0.950 . S
C509 C500 1.390 . S
C509 H502 0.950 . S
C509 C506 1.387 . S
C510 C511 1.387 . S
C510 H514 0.950 . S
C510 C519 1.390 . S
C511 C510 1.387 . S
C511 C513 1.387 . S
H512 C519 0.950 . S
C513 C511 1.387 . S
C513 C515 1.390 . S
C513 H517 0.950 . S
H514 C510 0.950 . S
C515 C513 1.390 . S
C515 C516 1.387 . S
C515 H518 0.950 . S
C516 C515 1.387 . S
C516 C519 1.387 . S
H517 C513 0.950 . S
H518 C515 0.950 . S
C519 C510 1.390 . S
C519 H512 0.950 . S
C519 C516 1.387 . S
C520 C521 1.387 . S
C520 H524 0.950 . S
C520 C529 1.390 . S
C521 C520 1.387 . S
C521 C523 1.387 . S
H522 C529 0.950 . S
C523 C521 1.387 . S
C523 C525 1.390 . S
C523 H527 0.950 . S
H524 C520 0.950 . S
C525 C523 1.390 . S
C525 C526 1.387 . S
C525 H528 0.950 . S
C526 C525 1.387 . S
C526 C529 1.387 . S
H527 C523 0.950 . S
H528 C525 0.950 . S
C529 C520 1.390 . S
C529 H522 0.950 . S
C529 C526 1.387 . S
C530 C531 1.387 . S
C530 H534 0.950 . S
C530 C539 1.390 . S
C531 C530 1.387 . S
C531 C533 1.387 . S
H532 C539 0.950 . S
C533 C531 1.387 . S
C533 C535 1.390 . S
C533 H537 0.950 . S
H534 C530 0.950 . S
C535 C533 1.390 . S
C535 C536 1.387 . S
C535 H538 0.950 . S
C536 C535 1.387 . S
C536 C539 1.387 . S
H537 C533 0.950 . S
H538 C535 0.950 . S
C539 C530 1.390 . S
C539 H532 0.950 . S
C539 C536 1.387 . S
C540 C541 1.387 . S
C540 H544 0.950 . S
C540 C549 1.390 . S
C541 C540 1.387 . S
C541 C543 1.387 . S
H542 C549 0.950 . S
C543 C541 1.387 . S
C543 C545 1.390 . S
C543 H547 0.950 . S
H544 C540 0.950 . S
C545 C543 1.390 . S
C545 C546 1.387 . S
C545 H548 0.950 . S
C546 C545 1.387 . S
C546 C549 1.387 . S
H547 C543 0.950 . S
H548 C545 0.950 . S
C549 C540 1.390 . S
C549 H542 0.950 . S
C549 C546 1.387 . S
C550 C551 1.387 . S
C550 H554 0.950 . S
C550 C559 1.390 . S
C551 C550 1.387 . S
C551 C553 1.387 . S
H552 C559 0.950 . S
C553 C551 1.387 . S
C553 C555 1.390 . S
C553 H557 0.950 . S
H554 C550 0.950 . S
C555 C553 1.390 . S
C555 C556 1.387 . S
C555 H558 0.950 . S
C556 C555 1.387 . S
C556 C559 1.387 . S
H557 C553 0.950 . S
H558 C555 0.950 . S
C559 C550 1.390 . S
C559 H552 0.950 . S
C559 C556 1.387 . S
C560 C561 1.387 . S
C560 H564 0.950 . S
C560 C569 1.390 . S
C561 C560 1.387 . S
C561 C563 1.387 . S
H562 C569 0.950 . S
C563 C561 1.387 . S
C563 C565 1.390 . S
C563 H567 0.950 . S
H564 C560 0.950 . S
C565 C563 1.390 . S
C565 C566 1.387 . S
C565 H568 0.950 . S
C566 C565 1.387 . S
C566 C569 1.387 . S
H567 C563 0.950 . S
H568 C565 0.950 . S
C569 C560 1.390 . S
C569 H562 0.950 . S
C569 C566 1.387 . S
C570 C571 1.387 . S
C570 H574 0.950 . S
C570 C579 1.390 . S
C571 C570 1.387 . S
C571 C573 1.387 . S
H572 C579 0.950 . S
C573 C571 1.387 . S
C573 C575 1.390 . S
C573 H577 0.950 . S
H574 C570 0.950 . S
C575 C573 1.390 . S
C575 C576 1.387 . S
C575 H578 0.950 . S
C576 C575 1.387 . S
C576 C579 1.387 . S
H577 C573 0.950 . S
H578 C575 0.950 . S
C579 C570 1.390 . S
C579 H572 0.950 . S
C579 C576 1.387 . S
C580 C581 1.387 . S
C580 H584 0.950 . S
C580 C589 1.390 . S
C581 C580 1.387 . S
C581 C583 1.387 . S
H582 C589 0.950 . S
C583 C581 1.387 . S
C583 C585 1.390 . S
C583 H587 0.950 . S
H584 C580 0.950 . S
C585 C583 1.390 . S
C585 C586 1.387 . S
C585 H588 0.950 . S
C586 C585 1.387 . S
C586 C589 1.387 . S
H587 C583 0.950 . S
H588 C585 0.950 . S
C589 C580 1.390 . S
C589 H582 0.950 . S
C589 C586 1.387 . S
C590 C591 1.387 . S
C590 H594 0.950 . S
C590 C599 1.390 . S
C591 C590 1.387 . S
C591 C593 1.387 . S
H592 C599 0.950 . S
C593 C591 1.387 . S
C593 C595 1.390 . S
C593 H597 0.950 . S
H594 C590 0.950 . S
C595 C593 1.390 . S
C595 C596 1.387 . S
C595 H598 0.950 . S
C596 C595 1.387 . S
C596 C599 1.387 . S
H597 C593 0.950 . S
H598 C595 0.950 . S
C599 C590 1.390 . S
C599 H592 0.950 . S
C599 C596 1.387 . S
C600 C601 1.387 . S
C600 H604 0.950 . S
C600 C609 1.390 . S
C601 C600 1.387 . S
C601 C603 1.387 . S
H602 C609 0.950 . S
C603 C601 1.387 . S
C603 C605 1.390 . S
C603 H607 0.950 . S
H604 C600 0.950 . S
C605 C603 1.390 . S
C605 C606 1.387 . S
C605 H608 0.950 . S
C606 C605 1.387 . S
C606 C609 1.387 . S
H607 C603 0.950 . S
H608 C605 0.950 . S
C609 C600 1.390 . S
C609 H602 0.950 . S
C609 C606 1.387 . S
C610 C611 1.387 . S
C610 H614 0.950 . S
C610 C619 1.390 . S
C611 C610 1.387 . S
C611 C613 1.387 . S
H612 C619 0.950 . S
C613 C611 1.387 . S
C613 C615 1.390 . S
C613 H617 0.950 . S
H614 C610 0.950 . S
C615 C613 1.390 . S
C615 C616 1.387 . S
C615 H618 0.950 . S
C616 C615 1.387 . S
C616 C619 1.387 . S
H617 C613 0.950 . S
H618 C615 0.950 . S
C619 C610 1.390 . S
C619 H612 0.950 . S
C619 C616 1.387 . S
C620 C621 1.387 . S
C620 H624 0.950 . S
C620 C629 1.390 . S
C621 C620 1.387 . S
C621 C623 1.387 . S
H622 C629 0.950 . S
C623 C621 1.387 . S
C623 C625 1.390 . S
C623 H627 0.950 . S
H624 C620 0.950 . S
C625 C623 1.390 . S
C625 C626 1.387 . S
C625 H628 0.950 . S
C626 C625 1.387 . S
C626 C629 1.387 . S
H627 C623 0.950 . S
H628 C625 0.950 . S
C629 C620 1.390 . S
C629 H622 0.950 . S
C629 C626 1.387 . S
C630 C631 1.387 . S
C630 H634 0.950 . S
C630 C639 1.390 . S
C631 C630 1.387 . S
C631 C633 1.387 . S
H632 C639 0.950 . S
C633 C631 1.387 . S
C633 C635 1.390 . S
C633 H637 0.950 . S
H634 C630 0.950 . S
C635 C633 1.390 . S
C635 C636 1.387 . S
C635 H638 0.950 . S
C636 C635 1.387 . S
C636 C639 1.387 . S
H637 C633 0.950 . S
H638 C635 0.950 . S
C639 C630 1.390 . S
C639 H632 0.950 . S
C639 C636 1.387 . S
C640 C641 1.387 . S
C640 H644 0.950 . S
C640 C649 1.390 . S
C641 C640 1.387 . S
C641 C643 1.387 . S
H642 C649 0.950 . S
C643 C641 1.387 . S
C643 C645 1.390 . S
C643 H647 0.950 . S
H644 C640 0.950 . S
C645 C643 1.390 . S
C645 C646 1.387 . S
C645 H648 0.950 . S
C646 C645 1.387 . S
C646 C649 1.387 . S
H647 C643 0.950 . S
H648 C645 0.950 . S
C649 C640 1.390 . S
C649 H642 0.950 . S
C649 C646 1.387 . S
C650 C651 1.387 . S
C650 H654 0.950 . S
C650 C659 1.390 . S
C651 C650 1.387 . S
C651 C653 1.387 . S
H652 C659 0.950 . S
C653 C651 1.387 . S
C653 C655 1.390 . S
C653 H657 0.950 . S
H654 C650 0.950 . S
C655 C653 1.390 . S
C655 C656 1.387 . S
C655 H658 0.950 . S
C656 C655 1.387 . S
C656 C659 1.387 . S
H657 C653 0.950 . S
H658 C655 0.950 . S
C659 C650 1.390 . S
C659 H652 0.950 . S
C659 C656 1.387 . S
C660 C661 1.387 . S
C660 H664 0.950 . S
C660 C669 1.390 . S
C661 C660 1.387 . S
C661 C663 1.387 . S
H662 C669 0.950 . S
C663 C661 1.387 . S
C663 C665 1.390 . S
C663 H667 0.950 . S
H664 C660 0.950 . S
C665 C663 1.390 . S
C665 C666 1.387 . S
C665 H668 0.950 . S
C666 C665 1.387 . S
C666 C669 1.387 . S
H667 C663 0.950 . S
H668 C665 0.950 . S
C669 C660 1.390 . S
C669 H662 0.950 . S
C669 C666 1.387 . S
C670 C671 1.387 . S
C670 H674 0.950 . S
C670 C679 1.390 . S
C671 C670 1.387 . S
C671 C673 1.387 . S
H672 C679 0.950 . S
C673 C671 1.387 . S
C673 C675 1.390 . S
C673 H677 0.950 . S
H674 C670 0.950 . S
C675 C673 1.390 . S
C675 C676 1.387 . S
C675 H678 0.950 . S
C676 C675 1.387 . S
C676 C679 1.387 . S
H677 C673 0.950 . S
H678 C675 0.950 . S
C679 C670 1.390 . S
C679 H672 0.950 . S
C679 C676 1.387 . S
C680 C681 1.387 . S
C680 H684 0.950 . S
C680 C689 1.390 . S
C681 C680 1.387 . S
C681 C683 1.387 . S
H682 C689 0.950 . S
C683 C681 1.387 . S
C683 C685 1.390 . S
C683 H687 0.950 . S
H684 C680 0.950 . S
C685 C683 1.390 . S
C685 C686 1.387 . S
C685 H688 0.950 . S
C686 C685 1.387 . S
C686 C689 1.387 . S
H687 C683 0.950 . S
H688 C685 0.950 . S
C689 C680 1.390 . S
C689 H682 0.950 . S
C689 C686 1.387 . S
C690 C691 1.387 . S
C690 H694 0.950 . S
C690 C699 1.390 . S
C691 C690 1.387 . S
C691 C693 1.387 . S
H692 C699 0.950 . S
C693 C691 1.387 . S
C693 C695 1.390 . S
C693 H697 0.950 . S
H694 C690 0.950 . S
C695 C693 1.390 . S
C695 C696 1.387 . S
C695 H698 0.950 . S
C696 C695 1.387 . S
C696 C699 1.387 . S
H697 C693 0.950 . S
H698 C695 0.950 . S
C699 C690 1.390 . S
C699 H692 0.950 . S
C699 C696 1.387 . S
C700 C701 1.387 . S
C700 H704 0.950 . S
C700 C709 1.390 . S
C701 C700 1.387 . S
C701 C703 1.387 . S
H702 C709 0.950 . S
C703 C701 1.387 . S
C703 C705 1.390 . S
C703 H707 0.950 . S
H704 C700 0.950 . S
C705 C703 1.390 . S
C705 C706 1.387 . S
C705 H708 0.950 . S
C706 C705 1.387 . S
C706 C709 1.387 . S
H707 C703 0.950 . S
H708 C705 0.950 . S
C709 C700 1.390 . S
C709 H702 0.950 . S
C709 C706 1.387 . S
C710 C711 1.387 . S
C710 H714 0.950 . S
C710 C719 1.390 . S
C711 C710 1.387 . S
C711 C713 1.387 . S
H712 C719 0.950 . S
C713 C711 1.387 . S
C713 C715 1.390 . S
C713 H717 0.950 . S
H714 C710 0.950 . S
C715 C713 1.390 . S
C715 C716 1.387 . S
C715 H718 0.950 . S
C716 C715 1.387 . S
C716 C719 1.387 . S
H717 C713 0.950 . S
H718 C715 0.950 . S
C719 C710 1.390 . S
C719 H712 0.950 . S
C719 C716 1.387 . S
C720 C721 1.387 . S
C720 H724 0.950 . S
C720 C729 1.390 . S
C721 C720 1.387 . S
C721 C723 1.387 . S
H722 C729 0.950 . S
C723 C721 1.387 . S
C723 C725 1.390 . S
C723 H727 0.950 . S
H724 C720 0.950 . S
C725 C723 1.390 . S
C725 C726 1.387 . S
C725 H728 0.950 . S
C726 C725 1.387 . S
C726 C729 1.387 . S
H727 C723 0.950 . S
H728 C725 0.950 . S
C729 C720 1.390 . S
C729 H722 0.950 . S
C729 C726 1.387 . S
C730 C731 1.387 . S
C730 H734 0.950 . S
C730 C739 1.390 . S
C731 C730 1.387 . S
C731 C733 1.387 . S
H732 C739 0.950 . S
C733 C731 1.387 . S
C733 C735 1.390 . S
C733 H737 0.950 . S
H734 C730 0.950 . S
C735 C733 1.390 . S
C735 C736 1.387 . S
C735 H738 0.950 . S
C736 C735 1.387 . S
C736 C739 1.387 . S
H737 C733 0.950 . S
H738 C735 0.950 . S
C739 C730 1.390 . S
C739 H732 0.950 . S
C739 C736 1.387 . S
C740 C741 1.387 . S
C740 H744 0.950 . S
C740 C749 1.390 . S
C741 C740 1.387 . S
C741 C743 1.387 . S
H742 C749 0.950 . S
C743 C741 1.387 . S
C743 C745 1.390 . S
C743 H747 0.950 . S
H744 C740 0.950 . S
C745 C743 1.390 . S
C745 C746 1.387 . S
C745 H748 0.950 . S
C746 C745 1.387 . S
C746 C749 1.387 . S
H747 C743 0.950 . S
H748 C745 0.950 . S
C749 C740 1.390 . S
C749 H742 0.950 . S
C749 C746 1.387 . S
C750 C751 1.387 . S
C750 H754 0.950 . S
C750 C759 1.390 . S
C751 C750 1.387 . S
C751 C753 1.387 . S
H752 C759 0.950 . S
C753 C751 1.387 . S
C753 C755 1.390 . S
C753 H757 0.950 . S
H754 C750 0.950 . S
C755 C753 1.390 . S
C755 C756 1.387 . S
C755 H758 0.950 . S
C756 C755 1.387 . S
C756 C759 1.387 . S
H757 C753 0.950 . S
H758 C755 0.950 . S
C759 C750 1.390 . S
C759 H752 0.950 . S
C759 C756 1.387 . S
C760 C761 1.387 . S
C760 H764 0.950 . S
C760 C769 1.390 . S
C761 C760 1.387 . S
C761 C763 1.387 . S
H762 C769 0.950 . S
C763 C761 1.387 . S
C763 C765 1.390 . S
C763 H767 0.950 . S
H764 C760 0.950 . S
C765 C763 1.390 . S
C765 C766 1.387 . S
C765 H768 0.950 . S
C766 C765 1.387 . S
C766 C769 1.387 . S
H767 C763 0.950 . S
H768 C765 0.950 . S
C769 C760 1.390 . S
C769 H762 0.950 . S
C769 C766 1.387 . S
C770 C771 1.387 . S
C770 H774 0.950 . S
C770 C779 1.390 . S
C771 C770 1.387 . S
C771 C773 1.387 . S
H772 C779 0.950 . S
C773 C771 1.387 . S
C773 C775 1.390 . S
C773 H777 0.950 . S
H774 C770 0.950 . S
C775 C773 1.390 . S
C775 C776 1.387 . S
C775 H778 0.950 . S
C776 C775 1.387 . S
C776 C779 1.387 . S
H777 C773 0.950 . S
H778 C775 0.950 . S
C779 C770 1.390 . S
C779 H772 0.950 . S
C779 C776 1.387 . S
C780 C781 1.387 . S
C780 H784 0.950 . S
C780 C789 1.390 . S
C781 C780 1.387 . S
C781 C783 1.387 . S
H782 C789 0.950 . S
C783 C781 1.387 . S
C783 C785 1.390 . S
C783 H787 0.950 . S
H784 C780 0.950 . S
C785 C783 1.390 . S
C785 C786 1.387 . S
C785 H788 0.950 . S
C786 C785 1.387 . S
C786 C789 1.387 . S
H787 C783 0.950 . S
H788 C785 0.950 . S
C789 C780 1.390 . S
C789 H782 0.950 . S
C789 C786 1.387 . S
C790 C791 1.387 . S
C790 H794 0.950 . S
C790 C799 1.390 . S
C791 C790 1.387 . S
C791 C793 1.387 . S
H792 C799 0.950 . S
C793 C791 1.387 . S
C793 C795 1.390 . S
C793 H797 0.950 . S
H794 C790 0.950 . S
C795 C793 1.390 . S
C795 C796 1.387 . S
C795 H798 0.950 . S
C796 C795 1.387 . S
C796 C799 1.387 . S
H797 C793 0.950 . S
H798 C795 0.950 . S
C799 C790 1.390 . S
C799 H792 0.950 . S
C799 C796 1.387 . S
C800 C801 1.387 . S
C800 H804 0.950 . S
C800 C809 1.390 . S
C801 C800 1.387 . S
C801 C803 1.387 . S
H802 C809 0.950 . S
C803 C801 1.387 . S
C803 C805 1.390 . S
C803 H807 0.950 . S
H804 C800 0.950 . S
C805 C803 1.390 . S
C805 C806 1.387 . S
C805 H808 0.950 . S
C806 C805 1.387 . S
C806 C809 1.387 . S
H807 C803 0.950 . S
H808 C805 0.950 . S
C809 C800 1.390 . S
C809 H802 0.950 . S
C809 C806 1.387 . S
C810 C811 1.387 . S
C810 H814 0.950 . S
C810 C819 1.390 . S
C811 C810 1.387 . S
C811 C813 1.387 . S
H812 C819 0.950 . S
C813 C811 1.387 . S
C813 C815 1.390 . S
C813 H817 0.950 . S
H814 C810 0.950 . S
C815 C813 1.390 . S
C815 C816 1.387 . S
C815 H818 0.950 . S
C816 C815 1.387 . S
C816 C819 1.387 . S
H817 C813 0.950 . S
H818 C815 0.950 . S
C819 C810 1.390 . S
C819 H812 0.950 . S
C819 C816 1.387 . S
C820 C821 1.387 . S
C820 H824 0.950 . S
C820 C829 1.390 . S
C821 C820 1.387 . S
C821 C823 1.387 . S
H822 C829 0.950 . S
C823 C821 1.387 . S
C823 C825 1.390 . S
C823 H827 0.950 . S
H824 C820 0.950 . S
C825 C823 1.390 . S
C825 C826 1.387 . S
C825 H828 0.950 . S
C826 C825 1.387 . S
C826 C829 1.387 . S
H827 C823 0.950 . S
H828 C825 0.950 . S
C829 C820 1.390 . S
C829 H822 0.950 . S
C829 C826 1.387 . S
C830 C831 1.387 . S
C830 H834 0.950 . S
C830 C839 1.390 . S
C831 C830 1.387 . S
C831 C833 1.387 . S
H832 C839 0.950 . S
C833 C831 1.387 . S
C833 C835 1.390 . S
C833 H837 0.950 . S
H834 C830 0.950 . S
C835 C833 1.390 . S
C835 C836 1.387 . S
C835 H838 0.950 . S
C836 C835 1.387 . S
C836 C839 1.387 . S
H837 C833 0.950 . S
H838 C835 0.950 . S
C839 C830 1.390 . S
C839 H832 0.950 . S
C839 C836 1.387 . S
C840 C841 1.387 . S
C840 H844 0.950 . S
C840 C849 1.390 . S
C841 C840 1.387 . S
C841 C843 1.387 . S
H842 C849 0.950 . S
C843 C841 1.387 . S
C843 C845 1.390 . S
C843 H847 0.950 . S
H844 C840 0.950 . S
C845 C843 1.390 . S
C845 C846 1.387 . S
C845 H848 0.950 . S
C846 C845 1.387 . S
C846 C849 1.387 . S
H847 C843 0.950 . S
H848 C845 0.950 . S
C849 C840 1.390 . S
C849 H842 0.950 . S
C849 C846 1.387 . S
C850 C851 1.387 . S
C850 H854 0.950 . S
C850 C859 1.390 . S
C851 C850 1.387 . S
C851 C853 1.387 . S
H852 C859 0.950 . S
C853 C851 1.387 . S
C853 C855 1.390 . S
C853 H857 0.950 . S
H854 C850 0.950 . S
C855 C853 1.390 . S
C855 C856 1.387 . S
C855 H858 0.950 . S
C856 C855 1.387 . S
C856 C859 1.387 . S
H857 C853 0.950 . S
H858 C855 0.950 . S
C859 C850 1.390 . S
C859 H852 0.950 . S
C859 C856 1.387 . S
C860 C861 1.387 . S
C860 H864 0.950 . S
C860 C869 1.390 . S
C861 C860 1.387 . S
C861 C863 1.387 . S
H862 C869 0.950 . S
C863 C861 1.387 . S
C863 C865 1.390 . S
C863 H867 0.950 . S
H864 C860 0.950 . S
C865 C863 1.390 . S
C865 C866 1.387 . S
C865 H868 0.950 . S
C866 C865 1.387 . S
C866 C869 1.387 . S
H867 C863 0.950 . S
H868 C865 0.950 . S
C869 C860 1.390 . S
C869 H862 0.950 . S
C869 C866 1.387 . S
C870 C871 1.387 . S
C870 H874 0.950 . S
C870 C879 1.390 . S
C871 C870 1.387 . S
C871 C873 1.387 . S
H872 C879 0.950 . S
C873 C871 1.387 . S
C873 C875 1.390 . S
C873 H877 0.950 . S
H874 C870 0.950 . S
C875 C873 1.390 . S
C875 C876 1.387 . S
C875 H878 0.950 . S
C876 C875 1.387 . S
C876 C879 1.387 . S
H877 C873 0.950 . S
H878 C875 0.950 . S
C879 C870 1.390 . S
C879 H872 0.950 . S
C879 C876 1.387 . S
C880 C881 1.387 . S
C880 H884 0.950 . S
C880 C889 1.390 . S
C881 C880 1.387 . S
C881 C883 1.387 . S
H882 C889 0.950 . S
C883 C881 1.387 . S
C883 C885 1.390 . S
C883 H887 0.950 . S
H884 C880 0.950 . S
C885 C883 1.390 . S
C885 C886 1.387 . S
C885 H888 0.950 . S
C886 C885 1.387 . S
C886 C889 1.387 . S
H887 C883 0.950 . S
H888 C885 0.950 . S
C889 C880 1.390 . S
C889 H882 0.950 . S
C889 C886 1.387 . S
C890 C891 1.387 . S
C890 H894 0.950 . S
C890 C899 1.390 . S
C891 C890 1.387 . S
C891 C893 1.387 . S
H892 C899 0.950 . S
C893 C891 1.387 . S
C893 C895 1.390 . S
C893 H897 0.950 . S
H894 C890 0.950 . S
C895 C893 1.390 . S
C895 C896 1.387 . S
C895 H898 0.950 . S
C896 C895 1.387 . S
C896 C899 1.387 . S
H897 C893 0.950 . S
H898 C895 0.950 . S
C899 C890 1.390 . S
C899 H892 0.950 . S
C899 C896 1.387 . S
C900 C901 1.387 . S
C900 H904 0.950 . S
C900 C909 1.390 . S
C901 C900 1.387 . S
C901 C903 1.387 . S
H902 C909 0.950 . S
C903 C901 1.387 . S
C903 C905 1.390 . S
C903 H907 0.950 . S
H904 C900 0.950 . S
C905 C903 1.390 . S
C905 C906 1.387 . S
C905 H908 0.950 . S
C906 C905 1.387 . S
C906 C909 1.387 . S
H907 C903 0.950 . S
H908 C905 0.950 . S
C909 C900 1.390 . S
C909 H902 0.950 . S
C909 C906 1.387 . S
C910 C911 1.387 . S
C910 H914 0.950 . S
C910 C919 1.390 . S
C911 C910 1.387 . S
C911 C913 1.387 . S
H912 C919 0.950 . S
C913 C911 1.387 . S
C913 C915 1.390 . S
C913 H917 0.950 . S
H914 C910 0.950 . S
C915 C913 1.390 . S
C915 C916 1.387 . S
C915 H918 0.950 . S
C916 C915 1.387 . S
C916 C919 1.387 . S
H917 C913 0.950 . S
H918 C915 0.950 . S
C919 C910 1.390 . S
C919 H912 0.950 . S
C919 C916 1.387 . S
C920 C921 1.387 . S
C920 H924 0.950 . S
C920 C929 1.390 . S
C921 C920 1.387 . S
C921 C923 1.387 . S
H922 C929 0.950 . S
C923 C921 1.387 . S
C923 C925 1.390 . S
C923 H927 0.950 . S
H924 C920 0.950 . S
C925 C923 1.390 . S
C925 C926 1.387 . S
C925 H928 0.950 . S
C926 C925 1.387 . S
C926 C929 1.387 . S
H927 C923 0.950 . S
H928 C925 0.950 . S
C929 C920 1.390 . S
C929 H922 0.950 . S
C929 C926 1.387 . S
C930 C931 1.387 . S
C930 H934 0.950 . S
C930 C939 1.390 . S
C931 C930 1.387 . S
C931 C933 1.387 . S
H932 C939 0.950 . S
C933 C931 1.387 . S
C933 C935 1.390 . S
C933 H937 0.950 . S
H934 C930 0.950 . S
C935 C933 1.390 . S
C935 C936 1.387 . S
C935 H938 0.950 . S
C936 C935 1.387 . S
C936 C939 1.387 . S
H937 C933 0.950 . S
H938 C935 0.950 . S
C939 C930 1.390 . S
C939 H932 0.950 . S
C939 C936 1.387 . S
C940 C941 1.387 . S
C940 H944 0.950 . S
C940 C949 1.390 . S
C941 C940 1.387 . S
C941 C943 1.387 . S
H942 C949 0.950 . S
C943 C941 1.387 . S
C943 C945 1.390 . S
C943 H947 0.950 . S
H944 C940 0.950 . S
C945 C943 1.390 . S
C945 C946 1.387 . S
C945 H948 0.950 . S
C946 C945 1.387 . S
C946 C949 1.387 . S
H947 C943 0.950 . S
H948 C945 0.950 . S
C949 C940 1.390 . S
C949 H942 0.950 . S
C949 C946 1.387 . S
C950 C951 1.387 . S
C950 H954 0.950 . S
C950 C959 1.390 . S
C951 C950 1.387 . S
C951 C953 1.387 . S
H952 C959 0.950 . S
C953 C951 1.387 . S
C953 C955 1.390 . S
C953 H957 0.950 . S
H954 C950 0.950 . S
C955 C953 1.390 . S
C955 C956 1.387 . S
C955 H958 0.950 . S
C956 C955 1.387 . S
C956 C959 1.387 . S
H957 C953 0.950 . S
H958 C955 0.950 . S
C959 C950 1.390 . S
C959 H952 0.950 . S
C959 C956 1.387 . S
C960 C961 1.387 . S
C960 H964 0.950 . S
C960 C969 1.390 . S
C961 C960 1.387 . S
C961 C963 1.387 . S
H962 C969 0.950 . S
C963 C961 1.387 . S
C963 C965 1.390 . S
C963 H967 0.950 . S
H964 C960 0.950 . S
C965 C963 1.390 . S
C965 C966 1.387 . S
C965 H968 0.950 . S
C966 C965 1.387 . S
C966 C969 1.387 . S
H967 C963 0.950 . S
H968 C965 0.950 . S
C969 C960 1.390 . S
C969 H962 0.950 . S
C969 C966 1.387 . S
C970 C971 1.387 . S
C970 H974 0.950 . S
C970 C979 1.390 . S
C971 C970 1.387 . S
C971 C973 1.387 . S
H972 C979 0.950 . S
C973 C971 1.387 . S
C973 C975 1.390 . S
C973 H977 0.950 . S
H974 C970 0.950 . S
C975 C973 1.390 . S
C975 C976 1.387 . S
C975 H978 0.950 . S
C976 C975 1.387 . S
C976 C979 1.387 . S
H977 C973 0.950 . S
H978 C975 0.950 . S
C979 C970 1.390 . S
C979 H972 0.950 . S
C979 C976 1.387 . S
C980 C981 1.387 . S
C980 H984 0.950 . S
C980 C989 1.390 . S
C981 C980 1.387 . S
C981 C983 1.387 . S
H982 C989 0.950 . S
C983 C981 1.387 . S
C983 C985 1.390 . S
C983 H987 0.950 . S
H984 C980 0.950 . S
C985 C983 1.390 . S
C985 C986 1.387 . S
C985 H988 0.950 . S
C986 C985 1.387 . S
C986 C989 1.387 . S
H987 C983 0.950 . S
H988 C985 0.950 . S
C989 C980 1.390 . S
C989 H982 0.950 . S
C989 C986 1.387 . S
C990 C991 1.387 . S
C990 H994 0.950 . S
C990 C999 1.390 . S
C991 C990 1.387 . S
C991 C993 1.387 . S
H992 C999 0.950 . S
C993 C991 1.387 . S
C993 C995 1.390 . S
C993 H997 0.950 . S
H994 C990 0.950 . S
C995 C993 1.390 . S
C995 C996 1.387 . S
C995 H998 0.950 . S
C996 C995 1.387 . S
C996 C999 1.387 . S
H997 C993 0.950 . S
H998 C995 0.950 . S
C999 C990 1.390 . S
C999 H992 0.950 . S
C999 C996 1.387 . S
C1000 C1001 1.387 . S
C1000 H1004 0.950 . S
C1000 C1009 1.390 . S
C1001 C1000 1.387 . S
C1001 C1003 1.387 . S
H1002 C1009 0.950 . S
C1003 C1001 1.387 . S
C1003 C1005 1.390 . S
C1003 H1007 0.950 . S
H1004 C1000 0.950 . S
C1005 C1003 1.390 . S
C1005 C1006 1.387 . S
C1005 H1008 0.950 . S
C1006 C1005 1.387 . S
C1006 C1009 1.387 . S
H1007 C1003 0.950 . S
H1008 C1005 0.950 . S
C1009 C1000 1.390 . S
C1009 H1002 0.950 . S
C1009 C1006 1.387 . S
C1010 C1011 1.387 . S
C1010 H1014 0.950 . S
C1010 C1019 1.390 . S
C1011 C1010 1.387 . S
C1011 C1013 1.387 . S
H1012 C1019 0.950 . S
C1013 C1011 1.387 . S
C1013 C1015 1.390 . S
C1013 H1017 0.950 . S
H1014 C1010 0.950 . S
C1015 C1013 1.390 . S
C1015 C1016 1.387 . S
C1015 H1018 0.950 . S
C1016 C1015 1.387 . S
C1016 C1019 1.387 . S
H1017 C1013 0.950 . S
H1018 C1015 0.950 . S
C1019 C1010 1.390 . S
C1019 H1012 0.950 . S
C1019 C1016 1.387 . S
C1020 C1021 1.387 . S
C1020 H1024 0.950 . S
C1020 C1029 1.390 . S
C1021 C1020 1.387 . S
C1021 C1023 1.387 . S
H1022 C1029 0.950 . S
C1023 C1021 1.387 . S
C1023 C1025 1.390 . S
C1023 H1027 0.950 . S
H1024 C1020 0.950 . S
C1025 C1023 1.390 . S
C1025 C1026 1.387 . S
C1025 H1028 0.950 . S
C1026 C1025 1.387 . S
C1026 C1029 1.387 . S
H1027 C1023 0.950 . S
H1028 C1025 0.950 . S
C1029 C1020 1.390 . S
C1029 H1022 0.950 . S
C1029 C1026 1.387 . S
C1030 C1031 1.387 . S
C1030 H1034 0.950 . S
C1030 C1039 1.390 . S
C1031 C1030 1.387 . S
C1031 C1033 1.387 . S
H1032 C1039 0.950 . S
C1033 C1031 1.387 . S
C1033 C1035 1.390 . S
C1033 H1037 0.950 . S
H1034 C1030 0.950 . S
C1035 C1033 1.390 . S
C1035 C1036 1.387 . S
C1035 H1038 0.950 . S
C1036 C1035 1.387 . S
C1036 C1039 1.387 . S
H1037 C1033 0.950 . S
H1038 C1035 0.950 . S
C1039 C1030 1.390 . S
C1039 H1032 0.950 . S
C1039 C1036 1.387 . S
C1040 C1041 1.387 . S
C1040 H1044 0.950 . S
C1040 C1049 1.390 . S
C1041 C1040 1.387 . S
C1041 C1043 1.387 . S
H1042 C1049 0.950 . S
C1043 C1041 1.387 . S
C1043 C1045 1.390 . S
C1043 H1047 0.950 . S
H1044 C1040 0.950 . S
C1045 C1043 1.390 . S
C1045 C1046 1.387 . S
C1045 H1048 0.950 . S
C1046 C1045 1.387 . S
C1046 C1049 1.387 . S
H1047 C1043 0.950 . S
H1048 C1045 0.950 . S
C1049 C1040 1.390 . S
C1049 H1042 0.950 . S
C1049 C1046 1.387 . S
C1050 C1051 1.387 . S
C1050 H1054 0.950 . S
C1050 C1059 1.390 . S
C1051 C1050 1.387 . S
C1051 C1053 1.387 . S
H1052 C1059 0.950 . S
C1053 C1051 1.387 . S
C1053 C1055 1.390 . S
C1053 H1057 0.950 . S
H1054 C1050 0.950 . S
C1055 C1053 1.390 . S
C1055 C1056 1.387 . S
C1055 H1058 0.950 . S
C1056 C1055 1.387 . S
C1056 C1059 1.387 . S
H1057 C1053 0.950 . S
H1058 C1055 0.950 . S
C1059 C1050 1.390 . S
C1059 H1052 0.950 . S
C1059 C1056 1.387 . S
C1060 C1061 1.387 . S
C1060 H1064 0.950 . S
C1060 C1069 1.390 . S
C1061 C1060 1.387 . S
C1061 C1063 1.387 . S
H1062 C1069 0.950 . S
C1063 C1061 1.387 . S
C1063 C1065 1.390 . S
C1063 H1067 0.950 . S
H1064 C1060 0.950 . S
C1065 C1063 1.390 . S
C1065 C1066 1.387 . S
C1065 H1068 0.950 . S
C1066 C1065 1.387 . S
C1066 C1069 1.387 . S
H1067 C1063 0.950 . S
H1068 C1065 0.950 . S
C1069 C1060 1.390 . S
C1069 H1062 0.950 . S
C1069 C1066 1.387 . S
C1070 C1071 1.387 . S
C1070 H1074 0.950 . S
C1070 C1079 1.390 . S
C1071 C1070 1.387 . S
C1071 C1073 1.387 . S
H1072 C1079 0.950 . S
C1073 C1071 1.387 . S
C1073 C1075 1.390 . S
C1073 H1077 0.950 . S
H1074 C1070 0.950 . S
C1075 C1073 1.390 . S
C1075 C1076 1.387 . S
C1075 H1078 0.950 . S
C1076 C1075 1.387 . S
C1076 C1079 1.387 . S
H1077 C1073 0.950 . S
H1078 C1075 0.950 . S
C1079 C1070 1.390 . S
C1079 H1072 0.950 . S
C1079 C1076 1.387 . S
C1080 C1081 1.387 . S
C1080 H1084 0.950 . S
C1080 C1089 1.390 . S
C1081 C1080 1.387 . S
C1081 C1083 1.387 . S
H1082 C1089 0.950 . S
C1083 C1081 1.387 . S
C1083 C1085 1.390 . S
C1083 H1087 0.950 . S
H1084 C1080 0.950 . S
C1085 C1083 1.390 . S
C1085 C1086 1.387 . S
C1085 H1088 0.950 . S
C1086 C1085 1.387 . S
C1086 C1089 1.387 . S
H1087 C1083 0.950 . S
H1088 C1085 0.950 . S
C1089 C1080 1.390 . S
C1089 H1082 0.950 . S
C1089 C1086 1.387 . S
C1090 C1091 1.387 . S
C1090 H1094 0.950 . S
C1090 C1099 1.390 . S
C1091 C1090 1.387 . S
C1091 C1093 1.387 . S
H1092 C1099 0.950 . S
C1093 C1091 1.387 . S
C1093 C1095 1.390 . S
C1093 H1097 0.950 . S
H1094 C1090 0.950 . S
C1095 C1093 1.390 . S
C1095 C1096 1.387 . S
C1095 H1098 0.950 . S
C1096 C1095 1.387 . S
C1096 C1099 1.387 . S
H1097 C1093 0.950 . S
H1098 C1095 0.950 . S
C1099 C1090 1.390 . S
C1099 H1092 0.950 . S
C1099 C1096 1.387 . S
C1100 C1101 1.387 . S
C1100 H1104 0.950 . S
C1100 C1109 1.390 . S
C1101 C1100 1.387 . S
C1101 C1103 1.387 . S
H1102 C1109 0.950 . S
C1103 C1101 1.387 . S
C1103 C1105 1.390 . S
C1103 H1107 0.950 . S
H1104 C1100 0.950 . S
C1105 C1103 1.390 . S
C1105 C1106 1.387 . S
C1105 H1108 0.950 . S
C1106 C1105 1.387 . S
C1106 C1109 1.387 . S
H1107 C1103 0.950 . S
H1108 C1105 0.950 . S
C1109 C1100 1.390 . S
C1109 H1102 0.950 . S
C1109 C1106 1.387 . S
C1110 C1111 1.387 . S
C1110 H1114 0.950 . S
C1110 C1119 1.390 . S
C1111 C1110 1.387 . S
C1111 C1113 1.387 . S
H1112 C1119 0.950 . S
C1113 C1111 1.387 . S
C1113 C1115 1.390 . S
C1113 H1117 0.950 . S
H1114 C1110 0.950 . S
C1115 C1113 1.390 . S
C1115 C1116 1.387 . S
C1115 H1118 0.950 . S
C1116 C1115 1.387 . S
C1116 C1119 1.387 . S
H1117 C1113 0.950 . S
H1118 C1115 0.950 . S
C1119 C1110 1.390 . S
C1119 H1112 0.950 . S
C1119 C1116 1.387 . S
C1120 C1121 1.387 . S
C1120 H1124 0.950 . S
C1120 C1129 1.390 . S
C1121 C1120 1.387 . S
C1121 C1123 1.387 . S
H1122 C1129 0.950 . S
C1123 C1121 1.387 . S
C1123 C1125 1.390 . S
C1123 H1127 0.950 . S
H1124 C1120 0.950 . S
C1125 C1123 1.390 . S
C1125 C1126 1.387 . S
C1125 H1128 0.950 . S
C1126 C1125 1.387 . S
C1126 C1129 1.387 . S
H1127 C1123 0.950 . S
H1128 C1125 0.950 . S
C1129 C1120 1.390 . S
C1129 H1122 0.950 . S
C1129 C1126 1.387 . S
C1130 C1131 1.387 . S
C1130 H1134 0.950 . S
C1130 C1139 1.390 . S
C1131 C1130 1.387 . S
C1131 C1133 1.387 . S
H1132 C1139 0.950 . S
C1133 C1131 1.387 . S
C1133 C1135 1.390 . S
C1133 H1137 0.950 . S
H1134 C1130 0.950 . S
C1135 C1133 1.390 . S
C1135 C1136 1.387 . S
C1135 H1138 0.950 . S
C1136 C1135 1.387 . S
C1136 C1139 1.387 . S
H1137 C1133 0.950 . S
H1138 C1135 0.950 . S
C1139 C1130 1.390 . S
C1139 H1132 0.950 . S
C1139 C1136 1.387 . S
C1140 C1141 1.387 . S
C1140 H1144 0.950 . S
C1140 C1149 1.390 . S
C1141 C1140 1.387 . S
C1141 C1143 1.387 . S
H1142 C1149 0.950 . S
C1143 C1141 1.387 . S
C1143 C1145 1.390 . S
C1143 H1147 0.950 . S
H1144 C1140 0.950 . S
C1145 C1143 1.390 . S
C1145 C1146 1.387 . S
C1145 H1148 0.950 . S
C1146 C1145 1.387 . S
C1146 C1149 1.387 . S
H1147 C1143 0.950 . S
H1148 C1145 0.950 . S
C1149 C1140 1.390 . S
C1149 H1142 0.950 . S
C1149 C1146 1.387 . S
C1150 C1151 1.387 . S
C1150 H1154 0.950 . S
C1150 C1159 1.390 . S
C1151 C1150 1.387 . S
C1151 C1153 1.387 . S
H1152 C1159 0.950 . S
C1153 C1151 1.387 . S
C1153 C1155 1.390 . S
C1153 H1157 0.950 . S
H1154 C1150 0.950 . S
C1155 C1153 1.390 . S
C1155 C1156 1.387 . S
C1155 H1158 0.950 . S
C1156 C1155 1.387 . S
C1156 C1159 1.387 . S
H1157 C1153 0.950 . S
H1158 C1155 0.950 . S
C1159 C1150 1.390 . S
C1159 H1152 0.950 . S
C1159 C1156 1.387 . S
C1160 C1161 1.387 . S
C1160 H1164 0.950 . S
C1160 C1169 1.390 . S
C1161 C1160 1.387 . S
C1161 C1163 1.387 . S
H1162 C1169 0.950 . S
C1163 C1161 1.387 . S
C1163 C1165 1.390 . S
C1163 H1167 0.950 . S
H1164 C1160 0.950 . S
C1165 C1163 1.390 . S
C1165 C1166 1.387 . S
C1165 H1168 0.950 . S
C1166 C1165 1.387 . S
C1166 C1169 1.387 . S
H1167 C1163 0.950 . S
H1168 C1165 0.950 . S
C1169 C1160 1.390 . S
C1169 H1162 0.950 . S
C1169 C1166 1.387 . S
C1170 C1171 1.387 . S
C1170 H1174 0.950 . S
C1170 C1179 1.390 . S
C1171 C1170 1.387 . S
C1171 C1173 1.387 . S
H1172 C1179 0.950 . S
C1173 C1171 1.387 . S
C1173 C1175 1.390 . S
C1173 H1177 0.950 . S
H1174 C1170 0.950 . S
C1175 C1173 1.390 . S
C1175 C1176 1.387 . S
C1175 H1178 0.950 . S
C1176 C1175 1.387 . S
C1176 C1179 1.387 . S
H1177 C1173 0.950 . S
H1178 C1175 0.950 . S
C1179 C1170 1.390 . S
C1179 H1172 0.950 . S
C1179 C1176 1.387 . S
C1180 C1181 1.387 . S
C1180 H1184 0.950 . S
C1180 C1189 1.390 . S
C1181 C1180 1.387 . S
C1181 C1183 1.387 . S
H1182 C1189 0.950 . S
C1183 C1181 1.387 . S
C1183 C1185 1.390 . S
C1183 H1187 0.950 . S
H1184 C1180 0.950 . S
C1185 C1183 1.390 . S
C1185 C1186 1.387 . S
C1185 H1188 0.950 . S
C1186 C1185 1.387 . S
C1186 C1189 1.387 . S
H1187 C1183 0.950 . S
H1188 C1185 0.950 . S
C1189 C1180 1.390 . S
C1189 H1182 0.950 . S
C1189 C1186 1.387 . S
C1190 C1191 1.387 . S
C1190 H1194 0.950 . S
C1190 C1199 1.390 . S
C1191 C1190 1.387 . S
C1191 C1193 1.387 . S
H1192 C1199 0.950 . S
C1193 C1191 1.387 . S
C1193 C1195 1.390 . S
C1193 H1197 0.950 . S
H1194 C1190 0.950 . S
C1195 C1193 1.390 . S
C1195 C1196 1.387 . S
C1195 H1198 0.950 . S
C1196 C1195 1.387 . S
C1196 C1199 1.387 . S
H1197 C1193 0.950 . S
H1198 C1195 0.950 . S
C1199 C1190 1.390 . S
C1199 H1192 0.950 . S
C1199 C1196 1.387 . S
C481 C13 2.792 . S
C486 C328 2.609 . S
C491 C33 2.791 . S
C496 C477 2.610 . S
C501 C428 2.610 . S
C506 C53 2.792 . S
C511 C73 2.791 . S
C516 C448 2.611 . S
C521 C93 2.792 . S
C526 C348 2.610 . S
C531 C113 2.792 . S
C536 C368 2.612 . S
C541 C133 2.792 . S
C546 C388 2.612 . S
C551 C153 2.792 . S
C556 C417 2.612 . S
C561 C173 2.792 . S
C566 C8 2.610 . S
C571 C193 2.791 . S
C576 C28 2.612 . S
C581 C48 2.610 . S
C586 C213 2.792 . S
C591 C68 2.610 . S
C596 C233 2.792 . S
C601 C253 2.791 . S
C606 C88 2.612 . S
C611 C262 2.792 . S
C616 C108 2.610 . S
C621 C293 2.792 . S
C626 C128 2.612 . S
C631 C313 2.791 . S
C636 C148 2.612 . S
C641 C333 2.792 . S
C646 C168 2.610 . S
C651 C353 2.792 . S
C656 C248 2.610 . S
C661 C277 2.610 . S
C666 C373 2.792 . S
C671 C393 2.791 . S
C676 C288 2.612 . S
C681 C402 2.792 . S
C686 C308 2.609 . S
C691 C433 2.792 . S
C696 C208 2.612 . S
C701 C228 2.612 . S
C706 C453 2.792 . S
C711 C462 2.792 . S
C716 C188 2.610 . S
C721 C437 1.532 . S
C726 C94 1.474 . S
C731 C457 1.529 . S
C736 C114 1.478 . S
C741 C134 1.474 . S
C746 C337 1.532 . S
C751 C154 1.477 . S
C756 C468 1.530 . S
C761 C397 1.532 . S
C766 C14 1.473 . S
C771 C34 1.477 . S
C776 C408 1.531 . S
C781 C357 1.532 . S
C786 C54 1.474 . S
C791 C74 1.474 . S
C796 C377 1.530 . S
C801 C294 1.473 . S
C806 C97 1.531 . S
C811 C314 1.473 . S
C816 C117 1.531 . S
C821 C254 1.476 . S
C826 C137 1.531 . S
C831 C157 1.529 . S
C836 C265 1.478 . S
C841 C214 1.475 . S
C846 C17 1.529 . S
C851 C234 1.477 . S
C856 C37 1.528 . S
C861 C174 1.475 . S
C866 C57 1.532 . S
C871 C194 1.474 . S
C876 C77 1.532 . S
C881 C297 1.530 . S
C886 C434 1.474 . S
C891 C394 1.477 . S
C896 C217 1.530 . S
C901 C237 1.529 . S
C906 C405 1.476 . S
C911 C354 1.473 . S
C916 C177 1.531 . S
C921 C374 1.476 . S
C926 C197 1.529 . S
C931 C334 1.473 . S
C936 C257 1.531 . S
C941 C465 1.476 . S
C946 C268 1.528 . S
C951 C317 1.528 . S
C956 C454 1.476 . S
C961 C414 0.855 . S
C966 C5 0.860 . S
C971 C345 0.853 . S
C976 C25 0.853 . S
C981 C45 0.852 . S
C986 C365 0.856 . S
C991 C65 0.860 . S
C996 C385 0.862 . S
C1001 C474 0.857 . S
C1006 C85 0.853 . S
C1011 C105 0.860 . S
C1016 C425 0.862 . S
C1021 C445 0.855 . S
C1026 C125 0.852 . S
C1031 C145 0.859 . S
C1036 C325 0.862 . S
C1041 C165 0.853 . S
C1046 C305 0.858 . S
C1051 C245 0.857 . S
C1056 C185 0.861 . S
C1061 C205 0.854 . S
C1066 C274 0.859 . S
C1071 C285 0.858 . S
C1076 C225 0.862 . S
C1081 C362 3.347 . S
C1086 C82 3.347 . S
C1091 C382 3.347 . S
C1096 C102 3.347 . S
C1101 C122 3.347 . S
C1106 C413 3.347 . S
C1111 C142 3.347 . S
C1116 C342 3.347 . S
C1121 C442 3.347 . S
C1126 C2 3.347 . S
C1131 C322 3.347 . S
C1136 C22 3.347 . S
C1141 C473 3.347 . S
C1146 C42 3.347 . S
C1151 C62 3.347 . S
C1156 C422 3.347 . S
C1161 C182 3.347 . S
C1166 C282 3.347 . S
C1171 C302 3.347 . S
C1176 C202 3.347 . S
C1181 C242 3.347 . S
C1186 C222 3.347 . S
C1191 C273 3.347 . S
C1196 C162 3.347 . S
