# Generated by pormake.
# Topology eci, (8)-cn, num edge types: 1
# Building blocks:
#     Node 0, Type 0, BuildingBlock: TAGTUT_clean_sbu_3, # of connection points: 8
#     Node 1, Type 0, BuildingBlock: TAGTUT_clean_sbu_3, # of connection points: 8
#     Node 2, Type 0, BuildingBlock: TAGTUT_clean_sbu_3, # of connection points: 8
#     Node 3, Type 0, BuildingBlock: TAGTUT_clean_sbu_3, # of connection points: 8
#     Edge 4, Type (0, 0), BuildingBlock: CIFDUS_clean_linker_0, # of connection points: 2
#     Edge 5, Type (0, 0), BuildingBlock: CIFDUS_clean_linker_0, # of connection points: 2
#     Edge 6, Type (0, 0), BuildingBlock: CIFDUS_clean_linker_0, # of connection points: 2
#     Edge 7, Type (0, 0), BuildingBlock: CIFDUS_clean_linker_0, # of connection points: 2
#     Edge 8, Type (0, 0), BuildingBlock: CIFDUS_clean_linker_0, # of connection points: 2
#     Edge 9, Type (0, 0), BuildingBlock: CIFDUS_clean_linker_0, # of connection points: 2
#     Edge 10, Type (0, 0), BuildingBlock: CIFDUS_clean_linker_0, # of connection points: 2
#     Edge 11, Type (0, 0), BuildingBlock: CIFDUS_clean_linker_0, # of connection points: 2
#     Edge 12, Type (0, 0), BuildingBlock: CIFDUS_clean_linker_0, # of connection points: 2
#     Edge 13, Type (0, 0), BuildingBlock: CIFDUS_clean_linker_0, # of connection points: 2
#     Edge 14, Type (0, 0), BuildingBlock: CIFDUS_clean_linker_0, # of connection points: 2
#     Edge 15, Type (0, 0), BuildingBlock: CIFDUS_clean_linker_0, # of connection points: 2
#     Edge 16, Type (0, 0), BuildingBlock: CIFDUS_clean_linker_0, # of connection points: 2
#     Edge 17, Type (0, 0), BuildingBlock: CIFDUS_clean_linker_0, # of connection points: 2
#     Edge 18, Type (0, 0), BuildingBlock: CIFDUS_clean_linker_0, # of connection points: 2
#     Edge 19, Type (0, 0), BuildingBlock: CIFDUS_clean_linker_0, # of connection points: 2
# Relax obj value: 0.311
# Max RMSD: 0.269
# Mean RMSD: 0.265
data_MOF--net-eci--node1-TAGTUT_clean_sbu_3--edge1-CIFDUS_clean_linker_0
_symmetry_space_group_name_H-M    P1
_symmetry_Int_Tables_number       1
_symmetry_cell_setting            triclinic
loop_
_symmetry_equiv_pos_as_xyz
'x, y, z'
_cell_length_a     28.693881
_cell_length_b     28.209918
_cell_length_c     14.190544
_cell_angle_alpha  89.579976
_cell_angle_beta   89.610049
_cell_angle_gamma 90.240592
loop_
_atom_site_label
_atom_site_type_symbol
_atom_site_fract_x
_atom_site_fract_y
_atom_site_fract_z
_atom_type_partial_charge
C0 C 0.72452 0.90499 -0.00203 0.0
C1 C 0.62821 0.75614 0.93863 0.0
C2 C 0.76164 0.67871 0.01167 0.0
Mg3 Mg 0.82913 0.92747 0.95194 0.0
Mg4 Mg 0.88267 0.87372 0.78199 0.0
O5 O 0.85345 0.86621 0.89944 0.0
Mg6 Mg 0.79489 0.82809 0.89986 0.0
O7 O 0.73502 0.79374 0.90945 0.0
Mg8 Mg 0.72441 0.79253 0.0504 0.0
Mg9 Mg 0.72474 0.73681 0.84543 0.0
C10 C 0.87146 0.76249 0.79382 0.0
O11 O 0.7843 0.83049 0.73258 0.0
O12 O 0.90559 0.94825 0.9575 0.0
O13 O 0.74968 0.75964 0.70765 0.0
O14 O 0.82833 0.96803 0.81151 0.0
O15 O 0.9427 0.91083 0.83824 0.0
O16 O 0.8451 0.92118 0.69279 0.0
O17 O 0.80084 0.8192 0.06481 0.0
O18 O 0.83104 0.89032 0.0953 0.0
C19 C 0.81622 0.84986 0.12398 0.0
C20 C 0.94233 0.93874 0.90924 0.0
O21 O 0.84166 0.76415 0.86228 0.0
O22 O 0.64812 0.77197 0.01307 0.0
O23 O 0.88441 0.79941 0.74683 0.0
O24 O 0.74896 0.71388 0.06224 0.0
O25 O 0.65117 0.73944 0.86869 0.0
O26 O 0.75817 0.68012 0.92212 0.0
O27 O 0.75573 0.89636 0.93564 0.0
O28 O 0.70434 0.87116 0.04305 0.0
C29 C 0.83443 0.96195 0.72359 0.0
C30 C 0.76895 0.7979 0.67655 0.0
C31 C 0.62563 0.24335 0.30448 0.0
C32 C 0.77626 0.16524 0.18492 0.0
C33 C 0.85217 0.28094 0.32117 0.0
Mg34 Mg 0.60017 0.3487 0.33803 0.0
Mg35 Mg 0.63848 0.4337 0.20358 0.0
O36 O 0.65509 0.38403 0.28313 0.0
Mg37 Mg 0.69754 0.33073 0.24675 0.0
O38 O 0.73469 0.27265 0.22146 0.0
Mg39 Mg 0.73871 0.24164 0.34916 0.0
Mg40 Mg 0.78965 0.27385 0.15174 0.0
C41 C 0.74873 0.42884 0.17194 0.0
O42 O 0.68965 0.33812 0.08632 0.0
O43 O 0.58032 0.41969 0.40469 0.0
O44 O 0.76253 0.31719 0.04041 0.0
O45 O 0.55043 0.36536 0.22005 0.0
O46 O 0.61184 0.47759 0.31404 0.0
O47 O 0.58001 0.41602 0.11554 0.0
O48 O 0.7153 0.3166 0.40409 0.0
O49 O 0.64507 0.33412 0.45969 0.0
C50 C 0.68726 0.32284 0.4731 0.0
C51 C 0.58962 0.46351 0.38771 0.0
O52 O 0.75553 0.38921 0.21681 0.0
O53 O 0.75864 0.1729 0.26717 0.0
O54 O 0.70826 0.4459 0.1542 0.0
O55 O 0.81822 0.26107 0.36577 0.0
O56 O 0.791 0.19885 0.13114 0.0
O57 O 0.84752 0.29489 0.23623 0.0
O58 O 0.63232 0.2839 0.26714 0.0
O59 O 0.6599 0.22021 0.33881 0.0
C60 C 0.54632 0.3905 0.14608 0.0
C61 C 0.72205 0.33432 0.02324 0.0
C62 C 0.18463 0.18971 0.2413 0.0
C63 C 0.0875 0.04817 0.30394 0.0
C64 C 0.04734 0.1048 0.56445 0.0
Mg65 Mg 0.23792 0.26702 0.36917 0.0
Mg66 Mg 0.28735 0.23516 0.56698 0.0
O67 O 0.2339 0.2337 0.49464 0.0
Mg68 Mg 0.19658 0.17573 0.46613 0.0
O69 O 0.15354 0.12365 0.42508 0.0
Mg70 Mg 0.09776 0.15978 0.37886 0.0
Mg71 Mg 0.13917 0.06814 0.48852 0.0
C72 C 0.2204 0.16996 0.69125 0.0
O73 O 0.25518 0.11654 0.48606 0.0
O74 O 0.25708 0.336 0.45234 0.0
O75 O 0.20871 0.05473 0.5318 0.0
O76 O 0.31796 0.24807 0.35102 0.0
O77 O 0.28624 0.31029 0.59007 0.0
O78 O 0.34624 0.21632 0.48279 0.0
O79 O 0.13092 0.22278 0.45448 0.0
O80 O 0.15936 0.28704 0.38372 0.0
C81 C 0.12486 0.26378 0.41865 0.0
C82 C 0.27259 0.34389 0.53575 0.0
O83 O 0.18896 0.16505 0.62723 0.0
O84 O 0.0769 0.09228 0.30017 0.0
O85 O 0.2602 0.18954 0.67562 0.0
O86 O 0.04877 0.13608 0.49919 0.0
O87 O 0.11207 0.03038 0.37018 0.0
O88 O 0.08303 0.0801 0.58478 0.0
O89 O 0.21358 0.19318 0.30907 0.0
O90 O 0.14209 0.17937 0.25646 0.0
C91 C 0.35159 0.22916 0.39716 0.0
C92 C 0.24885 0.07409 0.52012 0.0
C93 C 0.31995 0.67975 0.59522 0.0
C94 C 0.45268 0.58821 0.7758 0.0
C95 C 0.34788 0.53989 0.9528 0.0
Mg96 Mg 0.22648 0.72598 0.68123 0.0
Mg97 Mg 0.22522 0.76609 0.89878 0.0
O98 O 0.23679 0.71485 0.82003 0.0
Mg99 Mg 0.29855 0.68418 0.81964 0.0
O100 O 0.35902 0.65024 0.8103 0.0
Mg101 Mg 0.33834 0.59262 0.7404 0.0
Mg102 Mg 0.38972 0.63649 0.92355 0.0
C103 C 0.2738 0.69695 0.04393 0.0
O104 O 0.34219 0.74729 0.87411 0.0
O105 O 0.14882 0.73986 0.72685 0.0
O106 O 0.38474 0.70711 -0.01825 0.0
O107 O 0.24824 0.80716 0.68952 0.0
O108 O 0.15214 0.76306 0.87826 0.0
O109 O 0.25653 0.82825 0.83926 0.0
O110 O 0.26329 0.61714 0.76705 0.0
O111 O 0.21063 0.64523 0.66672 0.0
C112 C 0.23214 0.61027 0.70472 0.0
C113 C 0.12901 0.75037 0.80581 0.0
O114 O 0.28815 0.66875 -0.0211 0.0
O115 O 0.41609 0.5789 0.72762 0.0
O116 O 0.25333 0.73629 0.02604 0.0
O117 O 0.33937 0.54225 0.86522 0.0
O118 O 0.45195 0.61029 0.85453 0.0
O119 O 0.36035 0.57676 -0.00258 0.0
O120 O 0.30386 0.70483 0.66271 0.0
O121 O 0.33799 0.63926 0.61114 0.0
C122 C 0.25994 0.83777 0.75165 0.0
C123 C 0.3713 0.74604 0.94306 0.0
H124 H 0.76103 0.78814 0.22868 0.0
H125 H 0.86843 0.89462 0.25529 0.0
H126 H 0.86326 0.88938 0.42623 0.0
H127 H 0.82746 0.85565 0.57055 0.0
H128 H 0.71912 0.75021 0.5444 0.0
H129 H 0.72564 0.75398 0.37356 0.0
C130 C 0.78363 0.80976 0.27184 0.0
C131 C 0.81499 0.84172 0.22826 0.0
C132 C 0.78014 0.80716 0.37137 0.0
C133 C 0.8437 0.86977 0.28615 0.0
C134 C 0.84079 0.86693 0.38447 0.0
C135 C 0.80489 0.83399 0.52766 0.0
C136 C 0.77266 0.80306 0.57153 0.0
C137 C 0.80877 0.83616 0.42822 0.0
C138 C 0.74442 0.77447 0.51363 0.0
C139 C 0.74806 0.77649 0.41527 0.0
H140 H 0.63878 0.35533 0.62142 0.0
H141 H 0.77232 0.29597 0.54416 0.0
H142 H 0.79686 0.3005 0.70914 0.0
H143 H 0.778 0.31683 0.8734 0.0
H144 H 0.64272 0.37276 0.94918 0.0
H145 H 0.62154 0.37544 0.78287 0.0
C146 C 0.67333 0.34304 0.63995 0.0
C147 C 0.70354 0.32445 0.5709 0.0
C148 C 0.68686 0.34575 0.73355 0.0
C149 C 0.74836 0.30982 0.59635 0.0
C150 C 0.76234 0.31262 0.69026 0.0
C151 C 0.74396 0.33014 0.854 0.0
C152 C 0.7116 0.34396 0.92376 0.0
C153 C 0.73156 0.33001 0.75925 0.0
C154 C 0.668 0.36155 0.89693 0.0
C155 C 0.65583 0.3628 0.80214 0.0
H156 H 0.27773 0.18021 0.8406 0.0
H157 H 0.13719 0.13937 0.76666 0.0
H158 H 0.11458 0.14204 0.93276 0.0
H159 H 0.13264 0.16382 0.0929 0.0
H160 H 0.27208 0.20777 0.16801 0.0
H161 H 0.29695 0.19786 0.00368 0.0
C162 C 0.24215 0.1714 0.86037 0.0
C163 C 0.20887 0.16048 0.79091 0.0
C164 C 0.22901 0.17504 0.95482 0.0
C165 C 0.16334 0.14821 0.81847 0.0
C166 C 0.15031 0.15026 0.91315 0.0
C167 C 0.16857 0.1716 0.07407 0.0
C168 C 0.20044 0.18728 0.14256 0.0
C169 C 0.18249 0.16529 -0.01908 0.0
C170 C 0.24684 0.19631 0.1164 0.0
C171 C 0.26106 0.19025 0.02289 0.0
H172 H 0.26719 0.75662 0.19239 0.0
H173 H 0.30195 0.61249 0.11975 0.0
H174 H 0.32111 0.59574 0.28387 0.0
H175 H 0.32734 0.62171 0.44587 0.0
H176 H 0.29044 0.76488 0.5218 0.0
H177 H 0.27242 0.78244 0.35658 0.0
C178 C 0.27869 0.72138 0.21229 0.0
C179 C 0.28347 0.68582 0.14361 0.0
C180 C 0.28928 0.71201 0.30669 0.0
C181 C 0.29862 0.64056 0.1708 0.0
C182 C 0.30938 0.63097 0.26463 0.0
C183 C 0.31571 0.65702 0.42675 0.0
C184 C 0.31055 0.69216 0.49604 0.0
C185 C 0.30497 0.66649 0.33277 0.0
C186 C 0.29479 0.73734 0.46974 0.0
C187 C 0.28446 0.74729 0.37549 0.0
H188 H 0.42237 0.78353 0.80593 0.0
H189 H 0.39919 0.79005 0.10511 0.0
H190 H 0.4831 0.7974 0.13135 0.0
H191 H 0.56231 0.77944 0.07127 0.0
H192 H 0.58177 0.75655 0.77272 0.0
H193 H 0.50063 0.77489 0.74456 0.0
C194 C 0.43561 0.78918 0.87653 0.0
C195 C 0.4051 0.78459 0.95358 0.0
C196 C 0.48369 0.78647 0.89144 0.0
C197 C 0.42229 0.79293 0.04459 0.0
C198 C 0.4704 0.79533 0.05974 0.0
C199 C 0.54874 0.77847 0.00018 0.0
C200 C 0.57795 0.76523 0.92483 0.0
C201 C 0.50135 0.78801 -0.01576 0.0
C202 C 0.55993 0.76507 0.83276 0.0
C203 C 0.51357 0.77636 0.81608 0.0
H204 H 0.72695 0.08827 0.25013 0.0
H205 H 0.81833 0.1348 0.02405 0.0
H206 H 0.8044 0.06124 0.94072 0.0
H207 H 0.76489 0.98513 0.92902 0.0
H208 H 0.67992 0.93374 0.15998 0.0
H209 H 0.69018 0.00908 0.24127 0.0
C210 C 0.74443 0.08202 0.18344 0.0
C211 C 0.77363 0.11722 0.1437 0.0
C212 C 0.7362 0.03946 0.1351 0.0
C213 C 0.79561 0.10852 0.05657 0.0
C214 C 0.78739 0.06659 0.00818 0.0
C215 C 0.74908 0.99001 -0.00249 0.0
C216 C 0.72267 0.95326 0.03873 0.0
C217 C 0.75735 0.03214 0.04623 0.0
C218 C 0.70065 0.96126 0.12617 0.0
C219 C 0.70699 1.00415 0.17346 0.0
H220 H 0.42821 0.18361 0.46616 0.0
H221 H 0.38336 0.27259 0.23538 0.0
H222 H 0.46411 0.28165 0.18239 0.0
H223 H 0.54797 0.27008 0.2096 0.0
H224 H 0.59303 0.18211 0.44124 0.0
H225 H 0.51173 0.16615 0.48461 0.0
C226 C 0.4359 0.20443 0.40338 0.0
C227 C 0.39946 0.22771 0.35547 0.0
C228 C 0.4826 0.20986 0.37363 0.0
C229 C 0.41039 0.25421 0.27381 0.0
C230 C 0.45671 0.25964 0.24367 0.0
C231 C 0.54002 0.24724 0.26939 0.0
C232 C 0.57669 0.22797 0.323 0.0
C233 C 0.49316 0.2386 0.2944 0.0
C234 C 0.56568 0.19751 0.39881 0.0
C235 C 0.51911 0.18858 0.42395 0.0
H236 H 0.28592 0.87088 0.57536 0.0
H237 H 0.2692 0.91493 0.86447 0.0
H238 H 0.28265 0.99697 0.81842 0.0
H239 H 0.28203 0.05707 0.69303 0.0
H240 H 0.29528 0.01466 0.40392 0.0
H241 H 0.30356 0.93193 0.45293 0.0
C242 C 0.28595 0.89832 0.62847 0.0
C243 C 0.27513 0.88652 0.72296 0.0
C244 C 0.29381 0.94606 0.60155 0.0
C245 C 0.2765 0.92266 0.79095 0.0
C246 C 0.2844 0.96985 0.7648 0.0
C247 C 0.28987 0.03007 0.64119 0.0
C248 C 0.28716 0.04195 0.54493 0.0
C249 C 0.29111 0.9822 0.66988 0.0
C250 C 0.29728 0.00659 0.47856 0.0
C251 C 0.30046 0.95891 0.50656 0.0
H252 H 0.92101 0.73044 0.93717 0.0
H253 H 0.90114 0.71295 0.63949 0.0
H254 H 0.98516 0.70391 0.61608 0.0
H255 H 0.06402 0.72317 0.67505 0.0
H256 H 0.08062 0.75469 0.97078 0.0
H257 H -0.00115 0.73876 -0.00077 0.0
C258 C 0.93492 0.72198 0.86796 0.0
C259 C 0.90542 0.72395 0.78986 0.0
C260 C 0.98325 0.72305 0.85379 0.0
C261 C 0.92349 0.7121 0.70072 0.0
C262 C 0.9717 0.70865 0.68691 0.0
C263 C 0.04974 0.7265 0.74561 0.0
C264 C 0.07847 0.74148 0.81978 0.0
C265 C 0.00195 0.71813 0.76183 0.0
C266 C 0.05939 0.74455 0.91135 0.0
C267 C 0.01256 0.73478 0.92835 0.0
H268 H 0.78302 0.5006 0.27201 0.0
H269 H 0.79316 0.43228 0.00295 0.0
H270 H 0.80439 0.50906 0.92506 0.0
H271 H 0.78925 0.59519 0.93057 0.0
H272 H 0.77157 0.66264 0.20069 0.0
H273 H 0.78477 0.58728 0.28054 0.0
C274 C 0.79077 0.50239 0.19707 0.0
C275 C 0.7868 0.46089 0.14326 0.0
C276 C 0.79306 0.54701 0.15225 0.0
C277 C 0.79642 0.46364 0.04614 0.0
C278 C 0.80135 0.50782 0.00121 0.0
C279 C 0.78916 0.59365 0.00694 0.0
C280 C 0.77796 0.63451 0.05916 0.0
C281 C 0.79606 0.54977 0.05291 0.0
C282 C 0.77898 0.63178 0.15823 0.0
C283 C 0.78673 0.58859 0.20425 0.0
H284 H 0.93021 0.32724 0.25649 0.0
H285 H 0.8814 0.23487 0.48054 0.0
H286 H 0.96128 0.22412 0.53428 0.0
H287 H 0.04561 0.23503 0.50906 0.0
H288 H 0.09464 0.32751 0.28577 0.0
H289 H 0.01421 0.34459 0.24149 0.0
C290 C 0.93688 0.30535 0.31803 0.0
C291 C 0.89958 0.28159 0.36366 0.0
C292 C 0.98311 0.29906 0.34848 0.0
C293 C 0.90914 0.25366 0.44379 0.0
C294 C 0.95497 0.24724 0.47438 0.0
C295 C 0.03872 0.25924 0.45116 0.0
C296 C 0.07627 0.27943 0.40009 0.0
C297 C 0.99231 0.2688 0.42584 0.0
C298 C 0.06659 0.31138 0.32633 0.0
C299 C 0.02051 0.321 0.30063 0.0
H300 H 0.23691 0.42515 0.45527 0.0
H301 H 0.29991 0.37134 0.71035 0.0
H302 H 0.28689 0.44662 0.78703 0.0
H303 H 0.25958 0.52787 0.783 0.0
H304 H 0.20071 0.58558 0.52842 0.0
H305 H 0.20934 0.50855 0.45135 0.0
C306 C 0.2485 0.43012 0.52709 0.0
C307 C 0.26962 0.3923 0.5763 0.0
C308 C 0.24136 0.47413 0.5715 0.0
C309 C 0.28388 0.39953 0.6699 0.0
C310 C 0.27641 0.44268 0.71434 0.0
C311 C 0.24869 0.52373 0.71057 0.0
C312 C 0.22987 0.56256 0.66161 0.0
C313 C 0.25527 0.48012 0.66599 0.0
C314 C 0.21497 0.5562 0.56827 0.0
C315 C 0.22045 0.51229 0.52375 0.0
H316 H 0.06734 0.07472 0.12596 0.0
H317 H 0.07344 0.95253 0.31036 0.0
H318 H 0.03871 0.90335 0.18813 0.0
H319 H 0.99433 0.8991 0.04145 0.0
H320 H 0.9827 0.02256 0.86323 0.0
H321 H 0.03365 0.06724 0.96865 0.0
C322 C 0.06136 0.03723 0.13904 0.0
C323 C 0.07154 0.01739 0.22759 0.0
C324 C 0.04103 0.00949 0.06911 0.0
C325 C 0.06512 0.96859 0.24299 0.0
C326 C 0.04539 0.94051 0.17323 0.0
C327 C 0.00491 0.93513 0.02397 0.0
C328 C 0.98573 0.95776 0.94526 0.0
C329 C 0.03168 0.96102 0.08754 0.0
C330 C -0.00186 1.00461 0.92312 0.0
C331 C 0.02645 0.03023 -0.01586 0.0
H332 H 0.58173 0.45038 0.57528 0.0
H333 H 0.56627 0.55555 0.3554 0.0
H334 H 0.53226 0.61063 0.4686 0.0
H335 H 0.4938 0.622 0.62126 0.0
H336 H 0.5053 0.51543 0.83844 0.0
H337 H 0.55586 0.46806 0.73637 0.0
C338 C 0.5713 0.48557 0.55259 0.0
C339 C 0.57493 0.49866 0.45716 0.0
C340 C 0.5517 0.51673 0.61771 0.0
C341 C 0.56293 0.54468 0.42854 0.0
C342 C 0.54361 0.5761 0.49309 0.0
C343 C 0.50933 0.58944 0.64725 0.0
C344 C 0.49648 0.57185 0.7362 0.0
C345 C 0.53615 0.5617 0.58676 0.0
C346 C 0.51571 0.52957 0.7702 0.0
C347 C 0.54376 0.50222 0.71131 0.0
H348 H 0.96827 0.1287 0.66636 0.0
H349 H 0.02597 0.02624 0.47454 0.0
H350 H 0.95418 0.98047 0.4796 0.0
H351 H 0.88158 0.96215 0.55787 0.0
H352 H 0.82669 0.05666 0.7682 0.0
H353 H 0.88821 0.11425 0.73182 0.0
C354 C 0.96476 0.09634 0.62621 0.0
C355 C 0.00263 0.07972 0.57298 0.0
C356 C 0.92342 0.06911 0.63144 0.0
C357 C -0.00242 0.03862 0.51857 0.0
C358 C 0.9564 0.01273 0.52043 0.0
C359 C 0.882 0.99594 0.59396 0.0
C360 C 0.85099 1.00388 0.66901 0.0
C361 C 0.91978 0.02664 0.57917 0.0
C362 C 0.85105 0.04886 0.71186 0.0
C363 C 0.88687 0.08148 0.69249 0.0
H364 H 0.49052 0.38186 -0.01028 0.0
H365 H 0.49704 0.43928 0.27006 0.0
H366 H 0.42498 0.48247 0.24525 0.0
H367 H 0.37005 0.51627 0.13322 0.0
H368 H 0.36212 0.45848 0.85304 0.0
H369 H 0.42215 0.40138 0.8904 0.0
C370 C 0.47537 0.403 0.04551 0.0
C371 C 0.49912 0.40834 0.13053 0.0
C372 C 0.43335 0.42757 0.03133 0.0
C373 C 0.47919 0.43519 0.20348 0.0
C374 C 0.43799 0.45986 0.18961 0.0
C375 C 0.37998 0.48987 0.08166 0.0
C376 C 0.36288 0.49317 -0.0104 0.0
C377 C 0.41592 0.45802 0.10232 0.0
C378 C 0.37511 0.45763 0.92443 0.0
C379 C 0.41034 0.42529 0.94495 0.0
loop_
_geom_bond_atom_site_label_1
_geom_bond_atom_site_label_2
_geom_bond_distance
_geom_bond_site_symmetry_2
_ccdc_geom_bond_type
C0 O27 1.312 . S
C0 O28 1.208 . S
C1 O22 1.331 . S
C1 O25 1.244 . S
C2 O24 1.264 . S
C2 O26 1.273 1_554 S
Mg3 O5 1.936 . S
Mg3 O12 2.081 . S
Mg3 O14 2.023 1_554 S
Mg3 O18 2.031 . S
Mg3 O27 2.291 . S
Mg4 O5 1.963 1_556 S
Mg4 O15 1.942 1_556 S
Mg4 O16 1.955 . S
Mg4 O23 1.986 . S
O5 Mg3 1.936 . S
O5 Mg4 1.963 1_554 S
O5 Mg6 1.915 1_554 S
Mg6 O5 1.915 1_556 S
Mg6 O7 1.915 . S
Mg6 O11 2.013 . S
Mg6 O17 2.114 1_556 S
Mg6 O21 2.013 . S
Mg6 O27 2.114 1_556 S
O7 Mg6 1.915 . S
O7 Mg8 1.936 1_556 S
O7 Mg9 1.963 . S
Mg8 O7 1.936 1_554 S
Mg8 O17 2.291 . S
Mg8 O22 2.081 1_554 S
Mg8 O24 2.023 . S
Mg8 O28 2.031 . S
Mg9 O7 1.963 . S
Mg9 O13 1.986 . S
Mg9 O25 1.942 . S
Mg9 O26 1.955 . S
C10 O21 1.191 . S
C10 O23 1.307 . S
O11 Mg6 2.013 . S
O11 C30 1.191 . S
O12 Mg3 2.081 . S
O12 C20 1.331 . S
O13 Mg9 1.986 . S
O13 C30 1.307 . S
O14 Mg3 2.023 1_556 S
O14 C29 1.264 . S
O15 Mg4 1.942 1_554 S
O15 C20 1.244 . S
O16 Mg4 1.955 . S
O16 C29 1.273 . S
O17 Mg6 2.114 1_554 S
O17 Mg8 2.291 . S
O17 C19 1.312 . S
O18 Mg3 2.031 . S
O18 C19 1.208 . S
C19 O17 1.312 . S
C19 O18 1.208 . S
C20 O12 1.331 . S
C20 O15 1.244 . S
O21 Mg6 2.013 . S
O21 C10 1.191 . S
O22 C1 1.331 . S
O22 Mg8 2.081 1_556 S
O23 Mg4 1.986 . S
O23 C10 1.307 . S
O24 C2 1.264 . S
O24 Mg8 2.023 . S
O25 C1 1.244 . S
O25 Mg9 1.942 . S
O26 C2 1.273 1_556 S
O26 Mg9 1.955 . S
O27 C0 1.312 . S
O27 Mg3 2.291 . S
O27 Mg6 2.114 1_554 S
O28 C0 1.208 . S
O28 Mg8 2.031 . S
C29 O14 1.264 . S
C29 O16 1.273 . S
C30 O11 1.191 . S
C30 O13 1.307 . S
C31 O58 1.312 . S
C31 O59 1.208 . S
C32 O53 1.331 . S
C32 O56 1.244 . S
C33 O55 1.264 . S
C33 O57 1.273 . S
Mg34 O36 1.936 . S
Mg34 O43 2.081 . S
Mg34 O45 2.023 . S
Mg34 O49 2.031 . S
Mg34 O58 2.291 . S
Mg35 O36 1.963 . S
Mg35 O46 1.942 . S
Mg35 O47 1.955 . S
Mg35 O54 1.986 . S
O36 Mg34 1.936 . S
O36 Mg35 1.963 . S
O36 Mg37 1.915 . S
Mg37 O36 1.915 . S
Mg37 O38 1.915 . S
Mg37 O42 2.013 . S
Mg37 O48 2.114 . S
Mg37 O52 2.013 . S
Mg37 O58 2.114 . S
O38 Mg37 1.915 . S
O38 Mg39 1.936 . S
O38 Mg40 1.963 . S
Mg39 O38 1.936 . S
Mg39 O48 2.291 . S
Mg39 O53 2.081 . S
Mg39 O55 2.023 . S
Mg39 O59 2.031 . S
Mg40 O38 1.963 . S
Mg40 O44 1.986 . S
Mg40 O56 1.942 . S
Mg40 O57 1.955 . S
C41 O52 1.191 . S
C41 O54 1.307 . S
O42 Mg37 2.013 . S
O42 C61 1.191 . S
O43 Mg34 2.081 . S
O43 C51 1.331 . S
O44 Mg40 1.986 . S
O44 C61 1.307 . S
O45 Mg34 2.023 . S
O45 C60 1.264 . S
O46 Mg35 1.942 . S
O46 C51 1.244 . S
O47 Mg35 1.955 . S
O47 C60 1.273 . S
O48 Mg37 2.114 . S
O48 Mg39 2.291 . S
O48 C50 1.312 . S
O49 Mg34 2.031 . S
O49 C50 1.208 . S
C50 O48 1.312 . S
C50 O49 1.208 . S
C51 O43 1.331 . S
C51 O46 1.244 . S
O52 Mg37 2.013 . S
O52 C41 1.191 . S
O53 C32 1.331 . S
O53 Mg39 2.081 . S
O54 Mg35 1.986 . S
O54 C41 1.307 . S
O55 C33 1.264 . S
O55 Mg39 2.023 . S
O56 C32 1.244 . S
O56 Mg40 1.942 . S
O57 C33 1.273 . S
O57 Mg40 1.955 . S
O58 C31 1.312 . S
O58 Mg34 2.291 . S
O58 Mg37 2.114 . S
O59 C31 1.208 . S
O59 Mg39 2.031 . S
C60 O45 1.264 . S
C60 O47 1.273 . S
C61 O42 1.191 . S
C61 O44 1.307 . S
C62 O89 1.312 . S
C62 O90 1.208 . S
C63 O84 1.331 . S
C63 O87 1.244 . S
C64 O86 1.264 . S
C64 O88 1.273 . S
Mg65 O67 1.936 . S
Mg65 O74 2.081 . S
Mg65 O76 2.023 . S
Mg65 O80 2.031 . S
Mg65 O89 2.291 . S
Mg66 O67 1.963 . S
Mg66 O77 1.942 . S
Mg66 O78 1.955 . S
Mg66 O85 1.986 . S
O67 Mg65 1.936 . S
O67 Mg66 1.963 . S
O67 Mg68 1.915 . S
Mg68 O67 1.915 . S
Mg68 O69 1.915 . S
Mg68 O73 2.013 . S
Mg68 O79 2.114 . S
Mg68 O83 2.013 . S
Mg68 O89 2.114 . S
O69 Mg68 1.915 . S
O69 Mg70 1.936 . S
O69 Mg71 1.963 . S
Mg70 O69 1.936 . S
Mg70 O79 2.291 . S
Mg70 O84 2.081 . S
Mg70 O86 2.023 . S
Mg70 O90 2.031 . S
Mg71 O69 1.963 . S
Mg71 O75 1.986 . S
Mg71 O87 1.942 . S
Mg71 O88 1.955 . S
C72 O83 1.191 . S
C72 O85 1.307 . S
O73 Mg68 2.013 . S
O73 C92 1.191 . S
O74 Mg65 2.081 . S
O74 C82 1.331 . S
O75 Mg71 1.986 . S
O75 C92 1.307 . S
O76 Mg65 2.023 . S
O76 C91 1.264 . S
O77 Mg66 1.942 . S
O77 C82 1.244 . S
O78 Mg66 1.955 . S
O78 C91 1.273 . S
O79 Mg68 2.114 . S
O79 Mg70 2.291 . S
O79 C81 1.312 . S
O80 Mg65 2.031 . S
O80 C81 1.208 . S
C81 O79 1.312 . S
C81 O80 1.208 . S
C82 O74 1.331 . S
C82 O77 1.244 . S
O83 Mg68 2.013 . S
O83 C72 1.191 . S
O84 C63 1.331 . S
O84 Mg70 2.081 . S
O85 Mg66 1.986 . S
O85 C72 1.307 . S
O86 C64 1.264 . S
O86 Mg70 2.023 . S
O87 C63 1.244 . S
O87 Mg71 1.942 . S
O88 C64 1.273 . S
O88 Mg71 1.955 . S
O89 C62 1.312 . S
O89 Mg65 2.291 . S
O89 Mg68 2.114 . S
O90 C62 1.208 . S
O90 Mg70 2.031 . S
C91 O76 1.264 . S
C91 O78 1.273 . S
C92 O73 1.191 . S
C92 O75 1.307 . S
C93 O120 1.312 . S
C93 O121 1.208 . S
C94 O115 1.331 . S
C94 O118 1.244 . S
C95 O117 1.264 . S
C95 O119 1.273 . S
Mg96 O98 1.936 . S
Mg96 O105 2.081 . S
Mg96 O107 2.023 . S
Mg96 O111 2.031 . S
Mg96 O120 2.291 . S
Mg97 O98 1.963 . S
Mg97 O108 1.942 . S
Mg97 O109 1.955 . S
Mg97 O116 1.986 . S
O98 Mg96 1.936 . S
O98 Mg97 1.963 . S
O98 Mg99 1.915 . S
Mg99 O98 1.915 . S
Mg99 O100 1.915 . S
Mg99 O104 2.013 . S
Mg99 O110 2.114 . S
Mg99 O114 2.013 . S
Mg99 O120 2.114 . S
O100 Mg99 1.915 . S
O100 Mg101 1.936 . S
O100 Mg102 1.963 . S
Mg101 O100 1.936 . S
Mg101 O110 2.291 . S
Mg101 O115 2.081 . S
Mg101 O117 2.023 . S
Mg101 O121 2.031 . S
Mg102 O100 1.963 . S
Mg102 O106 1.986 . S
Mg102 O118 1.942 . S
Mg102 O119 1.955 . S
C103 O114 1.191 . S
C103 O116 1.307 . S
O104 Mg99 2.013 . S
O104 C123 1.191 . S
O105 Mg96 2.081 . S
O105 C113 1.331 . S
O106 Mg102 1.986 . S
O106 C123 1.307 . S
O107 Mg96 2.023 . S
O107 C122 1.264 . S
O108 Mg97 1.942 . S
O108 C113 1.244 . S
O109 Mg97 1.955 . S
O109 C122 1.273 . S
O110 Mg99 2.114 . S
O110 Mg101 2.291 . S
O110 C112 1.312 . S
O111 Mg96 2.031 . S
O111 C112 1.208 . S
C112 O110 1.312 . S
C112 O111 1.208 . S
C113 O105 1.331 . S
C113 O108 1.244 . S
O114 Mg99 2.013 . S
O114 C103 1.191 . S
O115 C94 1.331 . S
O115 Mg101 2.081 . S
O116 Mg97 1.986 . S
O116 C103 1.307 . S
O117 C95 1.264 . S
O117 Mg101 2.023 . S
O118 C94 1.244 . S
O118 Mg102 1.942 . S
O119 C95 1.273 . S
O119 Mg102 1.955 . S
O120 C93 1.312 . S
O120 Mg96 2.291 . S
O120 Mg99 2.114 . S
O121 C93 1.208 . S
O121 Mg101 2.031 . S
C122 O107 1.264 . S
C122 O109 1.273 . S
C123 O104 1.191 . S
C123 O106 1.307 . S
H124 C130 0.930 . S
H125 C133 0.930 . S
H126 C134 0.930 . S
H127 C135 0.930 . S
H128 C138 0.930 . S
H129 C139 0.930 . S
C130 H124 0.930 . S
C130 C131 1.355 . S
C130 C132 1.415 . S
C131 C130 1.355 . S
C131 C133 1.419 . S
C132 C130 1.415 . S
C132 C137 1.425 . S
C132 C139 1.409 . S
C133 H125 0.930 . S
C133 C131 1.419 . S
C133 C134 1.362 . S
C134 H126 0.930 . S
C134 C133 1.362 . S
C134 C137 1.409 . S
C135 H127 0.930 . S
C135 C136 1.355 . S
C135 C137 1.415 . S
C136 C135 1.355 . S
C136 C138 1.419 . S
C137 C132 1.425 . S
C137 C134 1.409 . S
C137 C135 1.415 . S
C138 H128 0.930 . S
C138 C136 1.419 . S
C138 C139 1.362 . S
C139 H129 0.930 . S
C139 C132 1.409 . S
C139 C138 1.362 . S
H140 C146 0.930 . S
H141 C149 0.930 . S
H142 C150 0.930 . S
H143 C151 0.930 . S
H144 C154 0.930 . S
H145 C155 0.930 . S
C146 H140 0.930 . S
C146 C147 1.355 . S
C146 C148 1.415 . S
C147 C146 1.355 . S
C147 C149 1.419 . S
C148 C146 1.415 . S
C148 C153 1.425 . S
C148 C155 1.409 . S
C149 H141 0.930 . S
C149 C147 1.419 . S
C149 C150 1.362 . S
C150 H142 0.930 . S
C150 C149 1.362 . S
C150 C153 1.409 . S
C151 H143 0.930 . S
C151 C152 1.355 . S
C151 C153 1.415 . S
C152 C151 1.355 . S
C152 C154 1.419 . S
C153 C148 1.425 . S
C153 C150 1.409 . S
C153 C151 1.415 . S
C154 H144 0.930 . S
C154 C152 1.419 . S
C154 C155 1.362 . S
C155 H145 0.930 . S
C155 C148 1.409 . S
C155 C154 1.362 . S
H156 C162 0.930 . S
H157 C165 0.930 . S
H158 C166 0.930 . S
H159 C167 0.930 . S
H160 C170 0.930 . S
H161 C171 0.930 . S
C162 H156 0.930 . S
C162 C163 1.355 . S
C162 C164 1.415 1_556 S
C163 C162 1.355 . S
C163 C165 1.419 . S
C164 C162 1.415 1_554 S
C164 C169 1.425 . S
C164 C171 1.409 . S
C165 H157 0.930 . S
C165 C163 1.419 . S
C165 C166 1.362 . S
C166 H158 0.930 . S
C166 C165 1.362 . S
C166 C169 1.409 1_556 S
C167 H159 0.930 . S
C167 C168 1.355 . S
C167 C169 1.415 . S
C168 C167 1.355 . S
C168 C170 1.419 . S
C169 C164 1.425 . S
C169 C166 1.409 1_554 S
C169 C167 1.415 . S
C170 H160 0.930 . S
C170 C168 1.419 . S
C170 C171 1.362 . S
C171 H161 0.930 . S
C171 C164 1.409 . S
C171 C170 1.362 . S
H172 C178 0.930 . S
H173 C181 0.930 . S
H174 C182 0.930 . S
H175 C183 0.930 . S
H176 C186 0.930 . S
H177 C187 0.930 . S
C178 H172 0.930 . S
C178 C179 1.355 . S
C178 C180 1.415 . S
C179 C178 1.355 . S
C179 C181 1.419 . S
C180 C178 1.415 . S
C180 C185 1.425 . S
C180 C187 1.409 . S
C181 H173 0.930 . S
C181 C179 1.419 . S
C181 C182 1.362 . S
C182 H174 0.930 . S
C182 C181 1.362 . S
C182 C185 1.409 . S
C183 H175 0.930 . S
C183 C184 1.355 . S
C183 C185 1.415 . S
C184 C183 1.355 . S
C184 C186 1.419 . S
C185 C180 1.425 . S
C185 C182 1.409 . S
C185 C183 1.415 . S
C186 H176 0.930 . S
C186 C184 1.419 . S
C186 C187 1.362 . S
C187 H177 0.930 . S
C187 C180 1.409 . S
C187 C186 1.362 . S
H188 C194 0.930 . S
H189 C197 0.930 . S
H190 C198 0.930 1_554 S
H191 C199 0.930 . S
H192 C202 0.930 . S
H193 C203 0.930 . S
C194 H188 0.930 . S
C194 C195 1.355 . S
C194 C196 1.415 . S
C195 C194 1.355 . S
C195 C197 1.419 . S
C196 C194 1.415 . S
C196 C201 1.425 . S
C196 C203 1.409 . S
C197 H189 0.930 . S
C197 C195 1.419 . S
C197 C198 1.362 . S
C198 H190 0.930 1_556 S
C198 C197 1.362 . S
C198 C201 1.409 . S
C199 H191 0.930 . S
C199 C200 1.355 . S
C199 C201 1.415 . S
C200 C199 1.355 . S
C200 C202 1.419 . S
C201 C196 1.425 . S
C201 C198 1.409 . S
C201 C199 1.415 . S
C202 H192 0.930 . S
C202 C200 1.419 . S
C202 C203 1.362 . S
C203 H193 0.930 . S
C203 C196 1.409 . S
C203 C202 1.362 . S
H204 C210 0.930 . S
H205 C213 0.930 1_556 S
H206 C214 0.930 . S
H207 C215 0.930 1_565 S
H208 C218 0.930 . S
H209 C219 0.930 . S
C210 H204 0.930 . S
C210 C211 1.355 . S
C210 C212 1.415 . S
C211 C210 1.355 . S
C211 C213 1.419 . S
C212 C210 1.415 . S
C212 C217 1.425 . S
C212 C219 1.409 . S
C213 H205 0.930 1_554 S
C213 C211 1.419 . S
C213 C214 1.362 1_554 S
C214 H206 0.930 . S
C214 C213 1.362 1_556 S
C214 C217 1.409 1_556 S
C215 H207 0.930 1_545 S
C215 C216 1.355 1_546 S
C215 C217 1.415 1_556 S
C216 C215 1.355 1_564 S
C216 C218 1.419 . S
C217 C212 1.425 . S
C217 C214 1.409 1_554 S
C217 C215 1.415 1_554 S
C218 H208 0.930 . S
C218 C216 1.419 . S
C218 C219 1.362 1_565 S
C219 H209 0.930 . S
C219 C212 1.409 . S
C219 C218 1.362 1_545 S
H220 C226 0.930 . S
H221 C229 0.930 . S
H222 C230 0.930 . S
H223 C231 0.930 . S
H224 C234 0.930 . S
H225 C235 0.930 . S
C226 H220 0.930 . S
C226 C227 1.355 . S
C226 C228 1.415 . S
C227 C226 1.355 . S
C227 C229 1.419 . S
C228 C226 1.415 . S
C228 C233 1.425 . S
C228 C235 1.409 . S
C229 H221 0.930 . S
C229 C227 1.419 . S
C229 C230 1.362 . S
C230 H222 0.930 . S
C230 C229 1.362 . S
C230 C233 1.409 . S
C231 H223 0.930 . S
C231 C232 1.355 . S
C231 C233 1.415 . S
C232 C231 1.355 . S
C232 C234 1.419 . S
C233 C228 1.425 . S
C233 C230 1.409 . S
C233 C231 1.415 . S
C234 H224 0.930 . S
C234 C232 1.419 . S
C234 C235 1.362 . S
C235 H225 0.930 . S
C235 C228 1.409 . S
C235 C234 1.362 . S
H236 C242 0.930 . S
H237 C245 0.930 . S
H238 C246 0.930 . S
H239 C247 0.930 . S
H240 C250 0.930 1_545 S
H241 C251 0.930 . S
C242 H236 0.930 . S
C242 C243 1.355 . S
C242 C244 1.415 . S
C243 C242 1.355 . S
C243 C245 1.419 . S
C244 C242 1.415 . S
C244 C249 1.425 . S
C244 C251 1.409 . S
C245 H237 0.930 . S
C245 C243 1.419 . S
C245 C246 1.362 . S
C246 H238 0.930 . S
C246 C245 1.362 . S
C246 C249 1.409 . S
C247 H239 0.930 . S
C247 C248 1.355 . S
C247 C249 1.415 1_545 S
C248 C247 1.355 . S
C248 C250 1.419 1_545 S
C249 C244 1.425 . S
C249 C246 1.409 . S
C249 C247 1.415 1_565 S
C250 H240 0.930 1_565 S
C250 C248 1.419 1_565 S
C250 C251 1.362 . S
C251 H241 0.930 . S
C251 C244 1.409 . S
C251 C250 1.362 . S
H252 C258 0.930 . S
H253 C261 0.930 . S
H254 C262 0.930 . S
H255 C263 0.930 . S
H256 C266 0.930 . S
H257 C267 0.930 . S
C258 H252 0.930 . S
C258 C259 1.355 1_454 S
C258 C260 1.415 1_554 S
C259 C258 1.355 1_656 S
C259 C261 1.419 . S
C260 C258 1.415 1_556 S
C260 C265 1.425 . S
C260 C267 1.409 1_556 S
C261 H253 0.930 . S
C261 C259 1.419 . S
C261 C262 1.362 1_655 S
C262 H254 0.930 . S
C262 C261 1.362 1_455 S
C262 C265 1.409 . S
C263 H255 0.930 . S
C263 C264 1.355 . S
C263 C265 1.415 . S
C264 C263 1.355 . S
C264 C266 1.419 1_556 S
C265 C260 1.425 . S
C265 C262 1.409 . S
C265 C263 1.415 . S
C266 H256 0.930 . S
C266 C264 1.419 1_554 S
C266 C267 1.362 . S
C267 H257 0.930 . S
C267 C260 1.409 1_554 S
C267 C266 1.362 . S
H268 C274 0.930 . S
H269 C277 0.930 . S
H270 C278 0.930 . S
H271 C279 0.930 . S
H272 C282 0.930 . S
H273 C283 0.930 . S
C274 H268 0.930 . S
C274 C275 1.355 . S
C274 C276 1.415 . S
C275 C274 1.355 . S
C275 C277 1.419 . S
C276 C274 1.415 . S
C276 C281 1.425 . S
C276 C283 1.409 . S
C277 H269 0.930 . S
C277 C275 1.419 . S
C277 C278 1.362 . S
C278 H270 0.930 . S
C278 C277 1.362 . S
C278 C281 1.409 . S
C279 H271 0.930 . S
C279 C280 1.355 . S
C279 C281 1.415 . S
C280 C279 1.355 . S
C280 C282 1.419 . S
C281 C276 1.425 . S
C281 C278 1.409 . S
C281 C279 1.415 . S
C282 H272 0.930 . S
C282 C280 1.419 . S
C282 C283 1.362 . S
C283 H273 0.930 . S
C283 C276 1.409 . S
C283 C282 1.362 . S
H284 C290 0.930 . S
H285 C293 0.930 . S
H286 C294 0.930 . S
H287 C295 0.930 . S
H288 C298 0.930 . S
H289 C299 0.930 . S
C290 H284 0.930 . S
C290 C291 1.355 . S
C290 C292 1.415 . S
C291 C290 1.355 . S
C291 C293 1.419 . S
C292 C290 1.415 . S
C292 C297 1.425 . S
C292 C299 1.409 . S
C293 H285 0.930 . S
C293 C291 1.419 . S
C293 C294 1.362 . S
C294 H286 0.930 . S
C294 C293 1.362 . S
C294 C297 1.409 . S
C295 H287 0.930 . S
C295 C296 1.355 1_655 S
C295 C297 1.415 . S
C296 C295 1.355 1_455 S
C296 C298 1.419 . S
C297 C292 1.425 . S
C297 C294 1.409 . S
C297 C295 1.415 . S
C298 H288 0.930 . S
C298 C296 1.419 . S
C298 C299 1.362 1_455 S
C299 H289 0.930 . S
C299 C292 1.409 . S
C299 C298 1.362 1_655 S
H300 C306 0.930 . S
H301 C309 0.930 . S
H302 C310 0.930 . S
H303 C311 0.930 . S
H304 C314 0.930 . S
H305 C315 0.930 . S
C306 H300 0.930 . S
C306 C307 1.355 . S
C306 C308 1.415 . S
C307 C306 1.355 . S
C307 C309 1.419 . S
C308 C306 1.415 . S
C308 C313 1.425 . S
C308 C315 1.409 . S
C309 H301 0.930 . S
C309 C307 1.419 . S
C309 C310 1.362 . S
C310 H302 0.930 . S
C310 C309 1.362 . S
C310 C313 1.409 . S
C311 H303 0.930 . S
C311 C312 1.355 . S
C311 C313 1.415 . S
C312 C311 1.355 . S
C312 C314 1.419 . S
C313 C308 1.425 . S
C313 C310 1.409 . S
C313 C311 1.415 . S
C314 H304 0.930 . S
C314 C312 1.419 . S
C314 C315 1.362 . S
C315 H305 0.930 . S
C315 C308 1.409 . S
C315 C314 1.362 . S
H316 C322 0.930 . S
H317 C325 0.930 . S
H318 C326 0.930 1_655 S
H319 C327 0.930 . S
H320 C330 0.930 . S
H321 C331 0.930 . S
C322 H316 0.930 . S
C322 C323 1.355 1_565 S
C322 C324 1.415 . S
C323 C322 1.355 1_545 S
C323 C325 1.419 . S
C324 C322 1.415 . S
C324 C329 1.425 . S
C324 C331 1.409 . S
C325 H317 0.930 . S
C325 C323 1.419 . S
C325 C326 1.362 1_545 S
C326 H318 0.930 1_455 S
C326 C325 1.362 1_565 S
C326 C329 1.409 . S
C327 H319 0.930 . S
C327 C328 1.355 1_655 S
C327 C329 1.415 1_655 S
C328 C327 1.355 1_455 S
C328 C330 1.419 . S
C329 C324 1.425 . S
C329 C326 1.409 . S
C329 C327 1.415 1_455 S
C330 H320 0.930 . S
C330 C328 1.419 . S
C330 C331 1.362 . S
C331 H321 0.930 . S
C331 C324 1.409 . S
C331 C330 1.362 . S
H332 C338 0.930 . S
H333 C341 0.930 . S
H334 C342 0.930 . S
H335 C343 0.930 . S
H336 C346 0.930 . S
H337 C347 0.930 . S
C338 H332 0.930 . S
C338 C339 1.355 . S
C338 C340 1.415 . S
C339 C338 1.355 . S
C339 C341 1.419 . S
C340 C338 1.415 . S
C340 C345 1.425 . S
C340 C347 1.409 . S
C341 H333 0.930 . S
C341 C339 1.419 . S
C341 C342 1.362 . S
C342 H334 0.930 . S
C342 C341 1.362 . S
C342 C345 1.409 . S
C343 H335 0.930 . S
C343 C344 1.355 . S
C343 C345 1.415 . S
C344 C343 1.355 . S
C344 C346 1.419 . S
C345 C340 1.425 . S
C345 C342 1.409 . S
C345 C343 1.415 . S
C346 H336 0.930 . S
C346 C344 1.419 . S
C346 C347 1.362 . S
C347 H337 0.930 . S
C347 C340 1.409 . S
C347 C346 1.362 . S
H348 C354 0.930 . S
H349 C357 0.930 . S
H350 C358 0.930 . S
H351 C359 0.930 . S
H352 C362 0.929 1_554 S
H353 C363 0.930 . S
C354 H348 0.930 . S
C354 C355 1.355 . S
C354 C356 1.415 1_455 S
C355 C354 1.355 . S
C355 C357 1.419 1_455 S
C356 C354 1.415 1_655 S
C356 C361 1.425 . S
C356 C363 1.409 . S
C357 H349 0.930 . S
C357 C355 1.419 1_655 S
C357 C358 1.362 . S
C358 H350 0.930 . S
C358 C357 1.362 . S
C358 C361 1.409 . S
C359 H351 0.930 . S
C359 C360 1.355 . S
C359 C361 1.415 1_565 S
C360 C359 1.355 . S
C360 C362 1.419 1_565 S
C361 C356 1.425 . S
C361 C358 1.409 . S
C361 C359 1.415 1_545 S
C362 H352 0.929 1_556 S
C362 C360 1.419 1_545 S
C362 C363 1.362 . S
C363 H353 0.930 . S
C363 C356 1.409 . S
C363 C362 1.362 . S
H364 C370 0.930 . S
H365 C373 0.930 . S
H366 C374 0.930 . S
H367 C375 0.930 1_554 S
H368 C378 0.930 . S
H369 C379 0.930 . S
C370 H364 0.930 . S
C370 C371 1.355 . S
C370 C372 1.415 1_554 S
C371 C370 1.355 . S
C371 C373 1.419 . S
C372 C370 1.415 1_556 S
C372 C377 1.425 1_556 S
C372 C379 1.409 . S
C373 H365 0.930 . S
C373 C371 1.419 . S
C373 C374 1.362 . S
C374 H366 0.930 . S
C374 C373 1.362 . S
C374 C377 1.409 . S
C375 H367 0.930 1_556 S
C375 C376 1.355 . S
C375 C377 1.415 1_556 S
C376 C375 1.355 . S
C376 C378 1.419 . S
C377 C372 1.425 1_554 S
C377 C374 1.409 . S
C377 C375 1.415 1_554 S
C378 H368 0.930 . S
C378 C376 1.419 . S
C378 C379 1.362 . S
C379 H369 0.930 . S
C379 C372 1.409 . S
C379 C378 1.362 . S
C131 C19 1.291 . S
C136 C30 1.316 . S
C147 C50 1.365 . S
C152 C61 1.375 1_556 S
C163 C72 1.312 . S
C168 C62 1.285 . S
C179 C103 1.338 1_554 S
C184 C93 1.321 . S
C195 C123 1.424 . S
C200 C1 1.665 . S
C211 C32 1.776 . S
C216 C0 1.667 . S
C227 C91 2.002 . S
C232 C31 1.902 . S
C243 C122 1.871 . S
C248 C92 1.629 . S
C259 C10 1.435 . S
C264 C113 1.662 . S
C275 C41 1.674 . S
C280 C2 1.875 . S
C291 C33 1.970 . S
C296 C81 1.948 . S
C307 C82 1.749 . S
C312 C112 1.707 . S
C323 C63 0.348 . S
C328 C20 0.581 1_455 S
C339 C51 0.352 . S
C344 C94 0.560 . S
C355 C64 0.603 . S
C360 C29 0.675 . S
C371 C60 0.668 . S
C376 C95 0.606 . S
