# Generated by pormake.
# Topology smc, (6)-cn, num edge types: 1
# Building blocks:
#     Node 0, Type 0, BuildingBlock: BETDEL_clean_sbu_0, # of connection points: 6
#     Node 1, Type 0, BuildingBlock: BETDEL_clean_sbu_0, # of connection points: 6
#     Node 2, Type 0, BuildingBlock: BETDEL_clean_sbu_0, # of connection points: 6
#     Node 3, Type 0, BuildingBlock: BETDEL_clean_sbu_0, # of connection points: 6
#     Node 4, Type 0, BuildingBlock: BETDEL_clean_sbu_0, # of connection points: 6
#     Node 5, Type 0, BuildingBlock: BETDEL_clean_sbu_0, # of connection points: 6
#     Node 6, Type 0, BuildingBlock: BETDEL_clean_sbu_0, # of connection points: 6
#     Node 7, Type 0, BuildingBlock: BETDEL_clean_sbu_0, # of connection points: 6
#     Node 8, Type 0, BuildingBlock: BETDEL_clean_sbu_0, # of connection points: 6
#     Edge 9, Type (0, 0), BuildingBlock: EYOCIG_clean_linker_4, # of connection points: 2
#     Edge 10, Type (0, 0), BuildingBlock: EYOCIG_clean_linker_4, # of connection points: 2
#     Edge 11, Type (0, 0), BuildingBlock: EYOCIG_clean_linker_4, # of connection points: 2
#     Edge 12, Type (0, 0), BuildingBlock: EYOCIG_clean_linker_4, # of connection points: 2
#     Edge 13, Type (0, 0), BuildingBlock: EYOCIG_clean_linker_4, # of connection points: 2
#     Edge 14, Type (0, 0), BuildingBlock: EYOCIG_clean_linker_4, # of connection points: 2
#     Edge 15, Type (0, 0), BuildingBlock: EYOCIG_clean_linker_4, # of connection points: 2
#     Edge 16, Type (0, 0), BuildingBlock: EYOCIG_clean_linker_4, # of connection points: 2
#     Edge 17, Type (0, 0), BuildingBlock: EYOCIG_clean_linker_4, # of connection points: 2
#     Edge 18, Type (0, 0), BuildingBlock: EYOCIG_clean_linker_4, # of connection points: 2
#     Edge 19, Type (0, 0), BuildingBlock: EYOCIG_clean_linker_4, # of connection points: 2
#     Edge 20, Type (0, 0), BuildingBlock: EYOCIG_clean_linker_4, # of connection points: 2
#     Edge 21, Type (0, 0), BuildingBlock: EYOCIG_clean_linker_4, # of connection points: 2
#     Edge 22, Type (0, 0), BuildingBlock: EYOCIG_clean_linker_4, # of connection points: 2
#     Edge 23, Type (0, 0), BuildingBlock: EYOCIG_clean_linker_4, # of connection points: 2
#     Edge 24, Type (0, 0), BuildingBlock: EYOCIG_clean_linker_4, # of connection points: 2
#     Edge 25, Type (0, 0), BuildingBlock: EYOCIG_clean_linker_4, # of connection points: 2
#     Edge 26, Type (0, 0), BuildingBlock: EYOCIG_clean_linker_4, # of connection points: 2
#     Edge 27, Type (0, 0), BuildingBlock: EYOCIG_clean_linker_4, # of connection points: 2
#     Edge 28, Type (0, 0), BuildingBlock: EYOCIG_clean_linker_4, # of connection points: 2
#     Edge 29, Type (0, 0), BuildingBlock: EYOCIG_clean_linker_4, # of connection points: 2
#     Edge 30, Type (0, 0), BuildingBlock: EYOCIG_clean_linker_4, # of connection points: 2
#     Edge 31, Type (0, 0), BuildingBlock: EYOCIG_clean_linker_4, # of connection points: 2
#     Edge 32, Type (0, 0), BuildingBlock: EYOCIG_clean_linker_4, # of connection points: 2
#     Edge 33, Type (0, 0), BuildingBlock: EYOCIG_clean_linker_4, # of connection points: 2
#     Edge 34, Type (0, 0), BuildingBlock: EYOCIG_clean_linker_4, # of connection points: 2
#     Edge 35, Type (0, 0), BuildingBlock: EYOCIG_clean_linker_4, # of connection points: 2
# Relax obj value: 0.160
# Max RMSD: 0.271
# Mean RMSD: 0.271
data_MOF--net-smc--node1-BETDEL_clean_sbu_0--edge1-EYOCIG_clean_linker_4
_symmetry_space_group_name_H-M    P1
_symmetry_Int_Tables_number       1
_symmetry_cell_setting            triclinic
loop_
_symmetry_equiv_pos_as_xyz
'x, y, z'
_cell_length_a     26.22092
_cell_length_b     26.196751
_cell_length_c     29.636338
_cell_angle_alpha  90.033994
_cell_angle_beta   89.82166
_cell_angle_gamma 119.96007
loop_
_atom_site_label
_atom_site_type_symbol
_atom_site_fract_x
_atom_site_fract_y
_atom_site_fract_z
_atom_type_partial_charge
Dy0 Dy 0.04894 0.51655 1.05043 0.0
C1 C 0.85551 0.27946 0.06513 0.0
C2 C 0.14639 0.62461 1.05562 0.0
Dy3 Dy 0.96246 0.37717 0.07439 0.0
O4 O 0.10637 0.60827 1.02456 0.0
O5 O 0.13183 0.58319 0.08542 0.0
O6 O 0.02467 0.50011 0.97448 0.0
O7 O 1.00062 0.43335 1.0195 0.0
C8 C 0.99454 0.44312 0.97953 0.0
C9 C 0.01618 0.43127 0.14904 0.0
O10 O 0.05307 0.38419 0.06115 0.0
O11 O 0.10989 0.48482 1.04079 0.0
O12 O 0.89152 0.28827 0.09826 0.0
O13 O 0.88111 0.32008 1.03458 0.0
O14 O 0.97572 0.37607 0.14724 0.0
O15 O 0.02069 0.4567 0.11087 0.0
O16 O 0.97015 0.52233 0.06803 0.0
O17 O 0.90673 0.42124 0.07968 0.0
C18 C 0.10433 0.43364 1.05077 0.0
C19 C 0.91757 0.47634 0.07574 0.0
Dy20 Dy 0.49675 0.53766 1.05122 0.0
C21 C 0.7349 0.58376 0.06529 0.0
C22 C 0.38851 0.52699 0.05731 0.0
Dy23 Dy 0.63534 0.58986 0.07403 0.0
O24 O 0.40575 0.50574 1.02484 0.0
O25 O 0.42897 0.55102 0.088 0.0
O26 O 0.51127 0.53265 0.97452 0.0
O27 O 0.57708 0.55815 1.02037 0.0
C28 C 0.56736 0.55209 0.97927 0.0
C29 C 0.57135 0.58002 0.14744 0.0
O30 O 0.62909 0.67383 0.06048 0.0
O31 O 0.52994 0.63001 1.03669 0.0
O32 O 0.72506 0.61091 0.09826 0.0
O33 O 0.69478 0.56827 1.03443 0.0
O34 O 0.61778 0.57415 0.14719 0.0
O35 O 0.56022 0.58754 0.107 0.0
O36 O 0.49026 0.45359 0.07169 0.0
O37 O 0.59169 0.48983 0.07628 0.0
C38 C 0.58047 0.67581 1.04777 0.0
C39 C 0.53617 0.44602 0.07567 0.0
Dy40 Dy 0.47569 0.96367 1.05118 0.0
C41 C 0.42787 0.15498 0.06452 0.0
C42 C 0.48662 0.8663 0.05749 0.0
Dy43 Dy 0.42217 0.04946 0.07379 0.0
O44 O 0.50756 0.90435 1.02473 0.0
O45 O 0.46301 0.8832 0.08837 0.0
O46 O 0.47955 0.98197 0.97436 0.0
O47 O 0.45546 0.02364 1.02037 0.0
C48 C 0.46032 0.01888 0.97918 0.0
C49 C 0.43219 0.99525 0.14701 0.0
O50 O 0.3387 0.9596 0.05899 0.0
O51 O 0.38325 0.90355 1.03818 0.0
O52 O 0.40066 0.11823 0.09763 0.0
O53 O 0.44383 0.13021 1.03391 0.0
O54 O 0.43741 0.04731 0.14702 0.0
O55 O 0.42495 0.97688 0.10652 0.0
O56 O 0.55912 0.04177 0.07196 0.0
O57 O 0.52186 0.10629 0.07679 0.0
C58 C 0.3371 0.9088 1.04722 0.0
C59 C 0.56598 0.09503 0.0763 0.0
Dy60 Dy 0.71625 0.84994 0.38422 0.0
C61 C 0.52286 0.6117 0.39625 0.0
C62 C 0.81371 0.95788 0.39077 0.0
Dy63 Dy 0.62881 0.70984 0.40682 0.0
O64 O 0.77456 0.94194 0.35905 0.0
O65 O 0.79816 0.91615 0.42043 0.0
O66 O 0.69511 0.83485 0.30771 0.0
O67 O 0.66632 0.76754 0.35272 0.0
C68 C 0.6634 0.77792 0.31233 0.0
C69 C 0.68174 0.76343 0.48194 0.0
O70 O 0.71839 0.71557 0.39303 0.0
O71 O 0.77697 0.81734 0.37669 0.0
O72 O 0.55808 0.62065 0.42995 0.0
O73 O 0.54863 0.65272 0.36604 0.0
O74 O 0.64099 0.70838 0.47989 0.0
O75 O 0.68652 0.78905 0.44388 0.0
O76 O 0.63682 0.85504 0.40124 0.0
O77 O 0.57295 0.7536 0.41152 0.0
C78 C 0.77019 0.76508 0.38436 0.0
C79 C 0.58403 0.80879 0.40802 0.0
Dy80 Dy 0.16251 0.87049 0.38365 0.0
C81 C 0.39957 0.91303 0.39719 0.0
C82 C 0.05398 0.85833 0.38998 0.0
Dy83 Dy 0.30203 0.92232 0.40674 0.0
O84 O 0.07086 0.83583 0.35821 0.0
O85 O 0.09528 0.88512 0.41973 0.0
O86 O 0.17829 0.8643 0.3072 0.0
O87 O 0.24497 0.90182 0.35258 0.0
C88 C 0.23504 0.889 0.31213 0.0
C89 C 0.24841 0.92282 0.48157 0.0
O90 O 0.29584 0.00632 0.39412 0.0
O91 O 0.19515 0.96347 0.37471 0.0
O92 O 0.39009 0.93913 0.43088 0.0
O93 O 0.35972 0.89908 0.36633 0.0
O94 O 0.30324 0.93631 0.47967 0.0
O95 O 0.22279 0.90181 0.44356 0.0
O96 O 0.1565 0.78577 0.40049 0.0
O97 O 0.25753 0.82254 0.41143 0.0
C98 C 0.24661 0.00868 0.38444 0.0
C99 C 0.2023 0.77874 0.40754 0.0
Dy100 Dy 0.14224 0.29634 0.38365 0.0
C101 C 0.09696 0.48944 0.39699 0.0
C102 C 0.15275 0.19886 0.39087 0.0
Dy103 Dy 0.09034 0.3838 0.40725 0.0
O104 O 0.17632 0.23811 0.35909 0.0
O105 O 0.12578 0.21409 0.42012 0.0
O106 O 0.1511 0.32128 0.30775 0.0
O107 O 0.10707 0.34434 0.35253 0.0
C108 C 0.12415 0.35139 0.31277 0.0
C109 C 0.09138 0.33093 0.4822 0.0
O110 O 0.00662 0.29311 0.3953 0.0
O111 O 0.04971 0.23613 0.3734 0.0
O112 O 0.07091 0.45386 0.43071 0.0
O113 O 0.11253 0.46411 0.3666 0.0
O114 O 0.07758 0.37211 0.48041 0.0
O115 O 0.11184 0.32593 0.44395 0.0
O116 O 0.22684 0.37511 0.40038 0.0
O117 O 0.18999 0.4395 0.41085 0.0
C118 C 0.00445 0.24182 0.38439 0.0
C119 C 0.23381 0.42803 0.4071 0.0
Dy120 Dy 0.3834 0.18342 0.71721 0.0
C121 C 0.18892 0.9461 0.73125 0.0
C122 C 0.48081 0.29129 0.72402 0.0
Dy123 Dy 0.29569 0.04372 0.74017 0.0
O124 O 0.44183 0.27543 0.69218 0.0
O125 O 0.46517 0.24949 0.75362 0.0
O126 O 0.36134 0.16839 0.64086 0.0
O127 O 0.33348 0.10089 0.68569 0.0
C128 C 0.32976 0.11142 0.64543 0.0
C129 C 0.34948 0.09711 0.81509 0.0
O130 O 0.38545 0.04942 0.72687 0.0
O131 O 0.44383 0.15069 0.70879 0.0
O132 O 0.22483 0.95524 0.76448 0.0
O133 O 0.21445 0.98634 0.70044 0.0
O134 O 0.30826 0.04226 0.81317 0.0
O135 O 0.35404 0.12281 0.77706 0.0
O136 O 0.30427 0.18911 0.73394 0.0
O137 O 0.24017 0.08785 0.74445 0.0
C138 C 0.43723 0.09877 0.71766 0.0
C139 C 0.25139 0.14303 0.74061 0.0
Dy140 Dy 0.82951 0.20334 0.71763 0.0
C141 C 0.06686 0.24728 0.72975 0.0
C142 C 0.72102 0.19159 0.72431 0.0
Dy143 Dy 0.96922 0.25607 0.74041 0.0
O144 O 0.73759 0.16877 0.69255 0.0
O145 O 0.76256 0.21834 0.75389 0.0
O146 O 0.84529 0.19701 0.64121 0.0
O147 O 0.91222 0.23691 0.6862 0.0
C148 C 0.9022 0.22296 0.64589 0.0
C149 C 0.91529 0.25524 0.81556 0.0
O150 O 0.96273 0.33979 0.72769 0.0
O151 O 0.86167 0.29639 0.70925 0.0
O152 O 0.05777 0.27332 0.7637 0.0
O153 O 0.02647 0.23305 0.69931 0.0
O154 O 0.97045 0.26996 0.81342 0.0
O155 O 0.88985 0.23443 0.77747 0.0
O156 O 0.82444 0.11876 0.73389 0.0
O157 O 0.92557 0.15644 0.74498 0.0
C158 C 0.91327 0.34185 0.71836 0.0
C159 C 0.87061 0.11227 0.74089 0.0
Dy160 Dy 0.80953 0.63 0.71705 0.0
C161 C 0.76577 0.82345 0.73004 0.0
C162 C 0.82041 0.53283 0.72422 0.0
Dy163 Dy 0.75651 0.71678 0.74051 0.0
O164 O 0.84396 0.57211 0.69246 0.0
O165 O 0.79343 0.54795 0.75354 0.0
O166 O 0.81598 0.65221 0.64065 0.0
O167 O 0.77707 0.68022 0.68606 0.0
C168 C 0.79033 0.68353 0.64558 0.0
C169 C 0.75597 0.66251 0.81509 0.0
O170 O 0.67312 0.62641 0.72773 0.0
O171 O 0.71684 0.56943 0.70746 0.0
O172 O 0.7396 0.78841 0.76401 0.0
O173 O 0.77982 0.79707 0.69946 0.0
O174 O 0.74169 0.70335 0.81337 0.0
O175 O 0.77745 0.65839 0.77703 0.0
O176 O 0.89389 0.70921 0.73405 0.0
O177 O 0.856 0.77247 0.74625 0.0
C178 C 0.67132 0.57514 0.71754 0.0
C179 C 0.90024 0.7617 0.74202 0.0
C180 C 0.2774 0.49944 0.06019 0.0
C181 C 0.32908 0.515 0.06211 0.0
C182 C 0.21506 0.46714 0.05804 0.0
C183 C 0.16173 0.44033 1.05631 0.0
C184 C 0.51342 0.78218 0.0602 0.0
C185 C 0.49825 0.81862 0.06223 0.0
C186 C 0.54553 0.75196 0.05753 0.0
C187 C 0.57248 0.72559 1.05497 0.0
C188 C 0.2597 0.79792 1.05462 0.0
C189 C 0.28643 0.85127 1.05267 0.0
C190 C 0.22981 0.73562 0.05747 0.0
C191 C 0.19415 0.68384 0.05999 0.0
C192 C 0.48079 0.27157 0.07124 0.0
C193 C 0.45619 0.21833 0.06889 0.0
C194 C 0.50786 0.33388 0.07416 0.0
C195 C 0.52489 0.38616 0.07517 0.0
C196 C 0.67733 0.18011 0.07542 0.0
C197 C 0.6254 0.14407 0.07615 0.0
C198 C 0.73934 0.21606 0.07223 0.0
C199 C 0.79239 0.24478 0.06938 0.0
C200 C 0.83288 0.50313 0.0759 0.0
C201 C 0.86856 0.48674 0.07646 0.0
C202 C 0.79748 0.5299 0.07291 0.0
C203 C 0.76929 0.5549 0.0701 0.0
C204 C 0.88011 0.7957 0.39061 0.0
C205 C 0.82684 0.7698 0.38885 0.0
C206 C 0.94236 0.82827 0.39313 0.0
C207 C 0.99435 0.84539 0.39508 0.0
C208 C 0.1813 0.11613 0.39519 0.0
C209 C 0.16474 0.15154 0.39661 0.0
C210 C 0.21398 0.08645 0.39296 0.0
C211 C 0.2406 0.05974 0.39067 0.0
C212 C 0.92729 0.13117 0.39252 0.0
C213 C 0.95386 0.18451 0.39062 0.0
C214 C 0.89729 0.06881 0.39447 0.0
C215 C 0.86133 0.01705 0.39604 0.0
C216 C 0.17475 0.6673 0.40614 0.0
C217 C 0.19147 0.71932 0.40737 0.0
C218 C 0.14835 0.6054 0.40292 0.0
C219 C 0.12464 0.55242 0.40062 0.0
C220 C 0.34509 0.51205 0.4053 0.0
C221 C 0.29315 0.47665 0.40668 0.0
C222 C 0.40694 0.54755 0.40203 0.0
C223 C 0.45989 0.57665 0.39973 0.0
C224 C 0.46243 0.85986 0.40371 0.0
C225 C 0.43386 0.88429 0.40098 0.0
C226 C 0.49857 0.8342 0.40699 0.0
C227 C 0.53492 0.81883 0.40797 0.0
C228 C 0.60959 0.16247 0.72791 0.0
C229 C 0.66152 0.17913 0.72961 0.0
C230 C 0.54729 0.13013 0.72544 0.0
C231 C 0.49402 0.10406 0.72325 0.0
C232 C 0.88112 0.42004 0.72611 0.0
C233 C 0.90746 0.39306 0.72401 0.0
C234 C 0.84872 0.44996 0.72836 0.0
C235 C 0.83232 0.48547 0.72984 0.0
C236 C 0.59406 0.46455 0.72575 0.0
C237 C 0.62065 0.51787 0.72364 0.0
C238 C 0.56416 0.40222 0.72789 0.0
C239 C 0.52832 0.35044 0.72943 0.0
C240 C 0.81908 0.93954 0.73567 0.0
C241 C 0.79461 0.88653 0.73333 0.0
C242 C 0.84506 1.00138 0.73901 0.0
C243 C 0.86072 0.05317 0.74044 0.0
C244 C 0.01116 0.84698 0.74193 0.0
C245 C 0.95936 0.81085 0.74259 0.0
C246 C 0.073 0.88299 0.73865 0.0
C247 C 0.12594 0.91162 0.73561 0.0
C248 C 0.1662 0.16875 0.73846 0.0
C249 C 0.20241 0.15323 0.73995 0.0
C250 C 0.13014 0.1945 0.73518 0.0
C251 C 0.10138 0.21874 0.73294 0.0
C252 C 0.09771 0.40737 0.2501 0.0
C253 C 0.11011 0.38169 0.2783 0.0
C254 C 0.08113 0.43401 0.21536 0.0
C255 C 0.06026 0.44622 0.18337 0.0
C256 C 0.61066 0.69657 0.24865 0.0
C257 C 0.63491 0.73415 0.27732 0.0
C258 C 0.58628 0.65356 0.21376 0.0
C259 C 0.57369 0.62019 0.18198 0.0
C260 C 0.35856 0.93578 0.21294 0.0
C261 C 0.3921 0.95695 0.18129 0.0
C262 C 0.31587 0.91723 0.24806 0.0
C263 C 0.27904 0.90437 0.27731 0.0
C264 C 0.43138 0.07129 0.91525 0.0
C265 C 0.44474 0.0471 0.94405 0.0
C266 C 0.41489 0.09788 0.88042 0.0
C267 C 0.39398 0.11078 0.84884 0.0
C268 C 0.93902 0.3607 0.91684 0.0
C269 C 0.96448 0.39871 0.94509 0.0
C270 C 0.91255 0.31754 0.88206 0.0
C271 C 0.9004 0.28445 0.85005 0.0
C272 C 0.69176 0.59652 0.88043 0.0
C273 C 0.72558 0.61769 0.84881 0.0
C274 C 0.64864 0.58008 0.91529 0.0
C275 C 0.61112 0.56713 0.94412 0.0
C276 C 0.74676 0.76529 0.54791 0.0
C277 C 0.72586 0.77776 0.51611 0.0
C278 C 0.76338 0.73868 0.58261 0.0
C279 C 0.77595 0.71335 0.61097 0.0
C280 C 0.24724 0.98738 0.54703 0.0
C281 C 0.23457 0.95362 0.51541 0.0
C282 C 0.27398 0.03041 0.58186 0.0
C283 C 0.2996 0.06781 0.6105 0.0
C284 C 0.98405 0.24937 0.58265 0.0
C285 C 0.94624 0.23703 0.61113 0.0
C286 C 0.02729 0.26568 0.54792 0.0
C287 C 0.06095 0.28651 0.51617 0.0
loop_
_geom_bond_atom_site_label_1
_geom_bond_atom_site_label_2
_geom_bond_distance
_geom_bond_site_symmetry_2
_ccdc_geom_bond_type
Dy0 O4 2.398 . S
Dy0 O5 2.491 1_556 S
Dy0 O6 2.403 . S
Dy0 O7 2.664 1_455 S
Dy0 O11 2.326 . S
Dy0 O15 2.310 1_556 S
Dy0 O16 2.351 1_456 S
C1 O12 1.185 . S
C1 O13 1.355 1_554 S
C2 O4 1.185 . S
C2 O5 1.355 1_556 S
Dy3 O7 2.310 1_554 S
Dy3 O10 2.351 1_655 S
Dy3 O12 2.398 . S
Dy3 O13 2.491 1_554 S
Dy3 O14 2.403 . S
Dy3 O15 2.664 1_655 S
Dy3 O17 2.326 . S
O4 Dy0 2.398 . S
O4 C2 1.185 . S
O5 Dy0 2.491 1_554 S
O5 C2 1.355 1_554 S
O6 Dy0 2.403 . S
O6 C8 1.254 1_455 S
O7 Dy0 2.664 1_655 S
O7 Dy3 2.310 1_556 S
O7 C8 1.268 . S
C8 O6 1.254 1_655 S
C8 O7 1.268 . S
C9 O14 1.254 1_455 S
C9 O15 1.268 . S
O10 Dy3 2.351 1_455 S
O10 C18 1.249 1_554 S
O11 Dy0 2.326 . S
O11 C18 1.267 . S
O12 C1 1.185 . S
O12 Dy3 2.398 . S
O13 C1 1.355 1_556 S
O13 Dy3 2.491 1_556 S
O14 Dy3 2.403 . S
O14 C9 1.254 1_655 S
O15 Dy0 2.310 1_554 S
O15 Dy3 2.664 1_455 S
O15 C9 1.268 . S
O16 Dy0 2.351 1_654 S
O16 C19 1.249 . S
O17 Dy3 2.326 . S
O17 C19 1.267 . S
C18 O10 1.249 1_556 S
C18 O11 1.267 . S
C19 O16 1.249 . S
C19 O17 1.267 . S
Dy20 O24 2.398 . S
Dy20 O25 2.491 1_556 S
Dy20 O26 2.403 . S
Dy20 O27 2.664 . S
Dy20 O31 2.326 . S
Dy20 O35 2.310 1_556 S
Dy20 O36 2.351 1_556 S
C21 O32 1.185 . S
C21 O33 1.355 1_554 S
C22 O24 1.185 . S
C22 O25 1.355 1_556 S
Dy23 O27 2.310 1_554 S
Dy23 O30 2.351 . S
Dy23 O32 2.398 . S
Dy23 O33 2.491 1_554 S
Dy23 O34 2.403 . S
Dy23 O35 2.664 . S
Dy23 O37 2.326 . S
O24 Dy20 2.398 . S
O24 C22 1.185 . S
O25 Dy20 2.491 1_554 S
O25 C22 1.355 1_554 S
O26 Dy20 2.403 . S
O26 C28 1.254 . S
O27 Dy20 2.664 . S
O27 Dy23 2.310 1_556 S
O27 C28 1.268 . S
C28 O26 1.254 . S
C28 O27 1.268 . S
C29 O34 1.254 . S
C29 O35 1.268 . S
O30 Dy23 2.351 . S
O30 C38 1.249 1_554 S
O31 Dy20 2.326 . S
O31 C38 1.267 . S
O32 C21 1.185 . S
O32 Dy23 2.398 . S
O33 C21 1.355 1_556 S
O33 Dy23 2.491 1_556 S
O34 Dy23 2.403 . S
O34 C29 1.254 . S
O35 Dy20 2.310 1_554 S
O35 Dy23 2.664 . S
O35 C29 1.268 . S
O36 Dy20 2.351 1_554 S
O36 C39 1.249 . S
O37 Dy23 2.326 . S
O37 C39 1.267 . S
C38 O30 1.249 1_556 S
C38 O31 1.267 . S
C39 O36 1.249 . S
C39 O37 1.267 . S
Dy40 O44 2.398 . S
Dy40 O45 2.491 1_556 S
Dy40 O46 2.403 . S
Dy40 O47 2.664 1_565 S
Dy40 O51 2.326 . S
Dy40 O55 2.310 1_556 S
Dy40 O56 2.351 1_566 S
C41 O52 1.185 . S
C41 O53 1.355 1_554 S
C42 O44 1.185 . S
C42 O45 1.355 1_556 S
Dy43 O47 2.310 1_554 S
Dy43 O50 2.351 1_545 S
Dy43 O52 2.398 . S
Dy43 O53 2.491 1_554 S
Dy43 O54 2.403 . S
Dy43 O55 2.664 1_545 S
Dy43 O57 2.326 . S
O44 Dy40 2.398 . S
O44 C42 1.185 . S
O45 Dy40 2.491 1_554 S
O45 C42 1.355 1_554 S
O46 Dy40 2.403 . S
O46 C48 1.254 1_565 S
O47 Dy40 2.664 1_545 S
O47 Dy43 2.310 1_556 S
O47 C48 1.268 . S
C48 O46 1.254 1_545 S
C48 O47 1.268 . S
C49 O54 1.254 1_565 S
C49 O55 1.268 . S
O50 Dy43 2.351 1_565 S
O50 C58 1.249 1_554 S
O51 Dy40 2.326 . S
O51 C58 1.267 . S
O52 C41 1.185 . S
O52 Dy43 2.398 . S
O53 C41 1.355 1_556 S
O53 Dy43 2.491 1_556 S
O54 Dy43 2.403 . S
O54 C49 1.254 1_545 S
O55 Dy40 2.310 1_554 S
O55 Dy43 2.664 1_565 S
O55 C49 1.268 . S
O56 Dy40 2.351 1_544 S
O56 C59 1.249 . S
O57 Dy43 2.326 . S
O57 C59 1.267 . S
C58 O50 1.249 1_556 S
C58 O51 1.267 . S
C59 O56 1.249 . S
C59 O57 1.267 . S
Dy60 O64 2.398 . S
Dy60 O65 2.491 . S
Dy60 O66 2.403 . S
Dy60 O67 2.664 . S
Dy60 O71 2.326 . S
Dy60 O75 2.310 . S
Dy60 O76 2.351 . S
C61 O72 1.185 . S
C61 O73 1.355 . S
C62 O64 1.185 . S
C62 O65 1.355 . S
Dy63 O67 2.310 . S
Dy63 O70 2.351 . S
Dy63 O72 2.398 . S
Dy63 O73 2.491 . S
Dy63 O74 2.403 . S
Dy63 O75 2.664 . S
Dy63 O77 2.326 . S
O64 Dy60 2.398 . S
O64 C62 1.185 . S
O65 Dy60 2.491 . S
O65 C62 1.355 . S
O66 Dy60 2.403 . S
O66 C68 1.254 . S
O67 Dy60 2.664 . S
O67 Dy63 2.310 . S
O67 C68 1.268 . S
C68 O66 1.254 . S
C68 O67 1.268 . S
C69 O74 1.254 . S
C69 O75 1.268 . S
O70 Dy63 2.351 . S
O70 C78 1.249 . S
O71 Dy60 2.326 . S
O71 C78 1.267 . S
O72 C61 1.185 . S
O72 Dy63 2.398 . S
O73 C61 1.355 . S
O73 Dy63 2.491 . S
O74 Dy63 2.403 . S
O74 C69 1.254 . S
O75 Dy60 2.310 . S
O75 Dy63 2.664 . S
O75 C69 1.268 . S
O76 Dy60 2.351 . S
O76 C79 1.249 . S
O77 Dy63 2.326 . S
O77 C79 1.267 . S
C78 O70 1.249 . S
C78 O71 1.267 . S
C79 O76 1.249 . S
C79 O77 1.267 . S
Dy80 O84 2.398 . S
Dy80 O85 2.491 . S
Dy80 O86 2.403 . S
Dy80 O87 2.664 . S
Dy80 O91 2.326 . S
Dy80 O95 2.310 . S
Dy80 O96 2.351 . S
C81 O92 1.185 . S
C81 O93 1.355 . S
C82 O84 1.185 . S
C82 O85 1.355 . S
Dy83 O87 2.310 . S
Dy83 O90 2.351 . S
Dy83 O92 2.398 . S
Dy83 O93 2.491 . S
Dy83 O94 2.403 . S
Dy83 O95 2.664 . S
Dy83 O97 2.326 . S
O84 Dy80 2.398 . S
O84 C82 1.185 . S
O85 Dy80 2.491 . S
O85 C82 1.355 . S
O86 Dy80 2.403 . S
O86 C88 1.254 . S
O87 Dy80 2.664 . S
O87 Dy83 2.310 . S
O87 C88 1.268 . S
C88 O86 1.254 . S
C88 O87 1.268 . S
C89 O94 1.254 . S
C89 O95 1.268 . S
O90 Dy83 2.351 . S
O90 C98 1.249 . S
O91 Dy80 2.326 . S
O91 C98 1.267 . S
O92 C81 1.185 . S
O92 Dy83 2.398 . S
O93 C81 1.355 . S
O93 Dy83 2.491 . S
O94 Dy83 2.403 . S
O94 C89 1.254 . S
O95 Dy80 2.310 . S
O95 Dy83 2.664 . S
O95 C89 1.268 . S
O96 Dy80 2.351 . S
O96 C99 1.249 . S
O97 Dy83 2.326 . S
O97 C99 1.267 . S
C98 O90 1.249 . S
C98 O91 1.267 . S
C99 O96 1.249 . S
C99 O97 1.267 . S
Dy100 O104 2.398 . S
Dy100 O105 2.491 . S
Dy100 O106 2.403 . S
Dy100 O107 2.664 . S
Dy100 O111 2.326 . S
Dy100 O115 2.310 . S
Dy100 O116 2.351 . S
C101 O112 1.185 . S
C101 O113 1.355 . S
C102 O104 1.185 . S
C102 O105 1.355 . S
Dy103 O107 2.310 . S
Dy103 O110 2.351 . S
Dy103 O112 2.398 . S
Dy103 O113 2.491 . S
Dy103 O114 2.403 . S
Dy103 O115 2.664 . S
Dy103 O117 2.326 . S
O104 Dy100 2.398 . S
O104 C102 1.185 . S
O105 Dy100 2.491 . S
O105 C102 1.355 . S
O106 Dy100 2.403 . S
O106 C108 1.254 . S
O107 Dy100 2.664 . S
O107 Dy103 2.310 . S
O107 C108 1.268 . S
C108 O106 1.254 . S
C108 O107 1.268 . S
C109 O114 1.254 . S
C109 O115 1.268 . S
O110 Dy103 2.351 . S
O110 C118 1.249 . S
O111 Dy100 2.326 . S
O111 C118 1.267 . S
O112 C101 1.185 . S
O112 Dy103 2.398 . S
O113 C101 1.355 . S
O113 Dy103 2.491 . S
O114 Dy103 2.403 . S
O114 C109 1.254 . S
O115 Dy100 2.310 . S
O115 Dy103 2.664 . S
O115 C109 1.268 . S
O116 Dy100 2.351 . S
O116 C119 1.249 . S
O117 Dy103 2.326 . S
O117 C119 1.267 . S
C118 O110 1.249 . S
C118 O111 1.267 . S
C119 O116 1.249 . S
C119 O117 1.267 . S
Dy120 O124 2.398 . S
Dy120 O125 2.491 . S
Dy120 O126 2.403 . S
Dy120 O127 2.664 . S
Dy120 O131 2.326 . S
Dy120 O135 2.310 . S
Dy120 O136 2.351 . S
C121 O132 1.185 . S
C121 O133 1.355 . S
C122 O124 1.185 . S
C122 O125 1.355 . S
Dy123 O127 2.310 . S
Dy123 O130 2.351 . S
Dy123 O132 2.398 1_545 S
Dy123 O133 2.491 1_545 S
Dy123 O134 2.403 . S
Dy123 O135 2.664 . S
Dy123 O137 2.326 . S
O124 Dy120 2.398 . S
O124 C122 1.185 . S
O125 Dy120 2.491 . S
O125 C122 1.355 . S
O126 Dy120 2.403 . S
O126 C128 1.254 . S
O127 Dy120 2.664 . S
O127 Dy123 2.310 . S
O127 C128 1.268 . S
C128 O126 1.254 . S
C128 O127 1.268 . S
C129 O134 1.254 . S
C129 O135 1.268 . S
O130 Dy123 2.351 . S
O130 C138 1.249 . S
O131 Dy120 2.326 . S
O131 C138 1.267 . S
O132 C121 1.185 . S
O132 Dy123 2.398 1_565 S
O133 C121 1.355 . S
O133 Dy123 2.491 1_565 S
O134 Dy123 2.403 . S
O134 C129 1.254 . S
O135 Dy120 2.310 . S
O135 Dy123 2.664 . S
O135 C129 1.268 . S
O136 Dy120 2.351 . S
O136 C139 1.249 . S
O137 Dy123 2.326 . S
O137 C139 1.267 . S
C138 O130 1.249 . S
C138 O131 1.267 . S
C139 O136 1.249 . S
C139 O137 1.267 . S
Dy140 O144 2.398 . S
Dy140 O145 2.491 . S
Dy140 O146 2.403 . S
Dy140 O147 2.664 . S
Dy140 O151 2.326 . S
Dy140 O155 2.310 . S
Dy140 O156 2.351 . S
C141 O152 1.185 . S
C141 O153 1.355 . S
C142 O144 1.185 . S
C142 O145 1.355 . S
Dy143 O147 2.310 . S
Dy143 O150 2.351 . S
Dy143 O152 2.398 1_655 S
Dy143 O153 2.491 1_655 S
Dy143 O154 2.403 . S
Dy143 O155 2.664 . S
Dy143 O157 2.326 . S
O144 Dy140 2.398 . S
O144 C142 1.185 . S
O145 Dy140 2.491 . S
O145 C142 1.355 . S
O146 Dy140 2.403 . S
O146 C148 1.254 . S
O147 Dy140 2.664 . S
O147 Dy143 2.310 . S
O147 C148 1.268 . S
C148 O146 1.254 . S
C148 O147 1.268 . S
C149 O154 1.254 . S
C149 O155 1.268 . S
O150 Dy143 2.351 . S
O150 C158 1.249 . S
O151 Dy140 2.326 . S
O151 C158 1.267 . S
O152 C141 1.185 . S
O152 Dy143 2.398 1_455 S
O153 C141 1.355 . S
O153 Dy143 2.491 1_455 S
O154 Dy143 2.403 . S
O154 C149 1.254 . S
O155 Dy140 2.310 . S
O155 Dy143 2.664 . S
O155 C149 1.268 . S
O156 Dy140 2.351 . S
O156 C159 1.249 . S
O157 Dy143 2.326 . S
O157 C159 1.267 . S
C158 O150 1.249 . S
C158 O151 1.267 . S
C159 O156 1.249 . S
C159 O157 1.267 . S
Dy160 O164 2.398 . S
Dy160 O165 2.491 . S
Dy160 O166 2.403 . S
Dy160 O167 2.664 . S
Dy160 O171 2.326 . S
Dy160 O175 2.310 . S
Dy160 O176 2.351 . S
C161 O172 1.185 . S
C161 O173 1.355 . S
C162 O164 1.185 . S
C162 O165 1.355 . S
Dy163 O167 2.310 . S
Dy163 O170 2.351 . S
Dy163 O172 2.398 . S
Dy163 O173 2.491 . S
Dy163 O174 2.403 . S
Dy163 O175 2.664 . S
Dy163 O177 2.326 . S
O164 Dy160 2.398 . S
O164 C162 1.185 . S
O165 Dy160 2.491 . S
O165 C162 1.355 . S
O166 Dy160 2.403 . S
O166 C168 1.254 . S
O167 Dy160 2.664 . S
O167 Dy163 2.310 . S
O167 C168 1.268 . S
C168 O166 1.254 . S
C168 O167 1.268 . S
C169 O174 1.254 . S
C169 O175 1.268 . S
O170 Dy163 2.351 . S
O170 C178 1.249 . S
O171 Dy160 2.326 . S
O171 C178 1.267 . S
O172 C161 1.185 . S
O172 Dy163 2.398 . S
O173 C161 1.355 . S
O173 Dy163 2.491 . S
O174 Dy163 2.403 . S
O174 C169 1.254 . S
O175 Dy160 2.310 . S
O175 Dy163 2.664 . S
O175 C169 1.268 . S
O176 Dy160 2.351 . S
O176 C179 1.249 . S
O177 Dy163 2.326 . S
O177 C179 1.267 . S
C178 O170 1.249 . S
C178 O171 1.267 . S
C179 O176 1.249 . S
C179 O177 1.267 . S
C180 C181 1.170 . S
C180 C182 1.380 1_556 S
C181 C180 1.170 . S
C182 C180 1.380 1_554 S
C182 C183 1.170 . S
C183 C182 1.170 . S
C184 C185 1.170 1_554 S
C184 C186 1.380 . S
C185 C184 1.170 1_556 S
C186 C184 1.380 . S
C186 C187 1.170 . S
C187 C186 1.170 . S
C188 C189 1.170 . S
C188 C190 1.380 . S
C189 C188 1.170 . S
C190 C188 1.380 . S
C190 C191 1.170 . S
C191 C190 1.170 . S
C192 C193 1.170 . S
C192 C194 1.380 . S
C193 C192 1.170 . S
C194 C192 1.380 . S
C194 C195 1.170 . S
C195 C194 1.170 . S
C196 C197 1.170 . S
C196 C198 1.380 . S
C197 C196 1.170 . S
C198 C196 1.380 . S
C198 C199 1.170 . S
C199 C198 1.170 . S
C200 C201 1.170 . S
C200 C202 1.380 . S
C201 C200 1.170 . S
C202 C200 1.380 . S
C202 C203 1.170 . S
C203 C202 1.170 . S
C204 C205 1.170 . S
C204 C206 1.380 . S
C205 C204 1.170 . S
C206 C204 1.380 . S
C206 C207 1.170 . S
C207 C206 1.170 . S
C208 C209 1.170 . S
C208 C210 1.380 . S
C209 C208 1.170 . S
C210 C208 1.380 . S
C210 C211 1.170 . S
C211 C210 1.170 . S
C212 C213 1.170 . S
C212 C214 1.380 . S
C213 C212 1.170 . S
C214 C212 1.380 . S
C214 C215 1.170 . S
C215 C214 1.170 . S
C216 C217 1.170 . S
C216 C218 1.380 . S
C217 C216 1.170 . S
C218 C216 1.380 . S
C218 C219 1.170 . S
C219 C218 1.170 . S
C220 C221 1.170 . S
C220 C222 1.380 . S
C221 C220 1.170 . S
C222 C220 1.380 . S
C222 C223 1.170 . S
C223 C222 1.170 . S
C224 C225 1.170 . S
C224 C226 1.380 . S
C225 C224 1.170 . S
C226 C224 1.380 . S
C226 C227 1.170 . S
C227 C226 1.170 . S
C228 C229 1.170 . S
C228 C230 1.380 . S
C229 C228 1.170 . S
C230 C228 1.380 . S
C230 C231 1.170 . S
C231 C230 1.170 . S
C232 C233 1.170 . S
C232 C234 1.380 . S
C233 C232 1.170 . S
C234 C232 1.380 . S
C234 C235 1.170 . S
C235 C234 1.170 . S
C236 C237 1.170 . S
C236 C238 1.380 . S
C237 C236 1.170 . S
C238 C236 1.380 . S
C238 C239 1.170 . S
C239 C238 1.170 . S
C240 C241 1.170 . S
C240 C242 1.380 1_565 S
C241 C240 1.170 . S
C242 C240 1.380 1_545 S
C242 C243 1.170 . S
C243 C242 1.170 . S
C244 C245 1.170 . S
C244 C246 1.380 1_655 S
C245 C244 1.170 . S
C246 C244 1.380 1_455 S
C246 C247 1.170 . S
C247 C246 1.170 . S
C248 C249 1.170 . S
C248 C250 1.380 . S
C249 C248 1.170 . S
C250 C248 1.380 . S
C250 C251 1.170 . S
C251 C250 1.170 . S
C252 C253 1.170 . S
C252 C254 1.380 . S
C253 C252 1.170 . S
C254 C252 1.380 . S
C254 C255 1.170 . S
C255 C254 1.170 . S
C256 C257 1.170 . S
C256 C258 1.380 . S
C257 C256 1.170 . S
C258 C256 1.380 . S
C258 C259 1.170 . S
C259 C258 1.170 . S
C260 C261 1.170 . S
C260 C262 1.380 . S
C261 C260 1.170 . S
C262 C260 1.380 . S
C262 C263 1.170 . S
C263 C262 1.170 . S
C264 C265 1.170 . S
C264 C266 1.380 . S
C265 C264 1.170 . S
C266 C264 1.380 . S
C266 C267 1.170 . S
C267 C266 1.170 . S
C268 C269 1.170 . S
C268 C270 1.380 . S
C269 C268 1.170 . S
C270 C268 1.380 . S
C270 C271 1.170 . S
C271 C270 1.170 . S
C272 C273 1.170 . S
C272 C274 1.380 . S
C273 C272 1.170 . S
C274 C272 1.380 . S
C274 C275 1.170 . S
C275 C274 1.170 . S
C276 C277 1.170 . S
C276 C278 1.380 . S
C277 C276 1.170 . S
C278 C276 1.380 . S
C278 C279 1.170 . S
C279 C278 1.170 . S
C280 C281 1.170 . S
C280 C282 1.380 1_565 S
C281 C280 1.170 . S
C282 C280 1.380 1_545 S
C282 C283 1.170 . S
C283 C282 1.170 . S
C284 C285 1.170 . S
C284 C286 1.380 1_655 S
C285 C284 1.170 . S
C286 C284 1.380 1_455 S
C286 C287 1.170 . S
C287 C286 1.170 . S
C181 C22 1.392 . S
C183 C18 1.430 1_554 S
C185 C42 1.392 . S
C187 C38 1.431 1_554 S
C189 C58 1.429 . S
C191 C2 1.361 . S
C193 C41 1.461 . S
C195 C39 1.380 . S
C197 C59 1.401 . S
C199 C1 1.450 . S
C201 C19 1.387 . S
C203 C21 1.453 . S
C205 C78 1.456 . S
C207 C82 1.337 1_655 S
C209 C102 1.380 . S
C211 C98 1.448 1_545 S
C213 C118 1.438 1_655 S
C215 C62 1.390 1_545 S
C217 C99 1.389 . S
C219 C101 1.462 . S
C221 C119 1.401 . S
C223 C61 1.461 . S
C225 C81 1.449 . S
C227 C79 1.418 . S
C229 C142 1.354 . S
C231 C138 1.457 . S
C233 C158 1.453 . S
C235 C162 1.371 . S
C237 C178 1.440 . S
C239 C122 1.389 . S
C241 C161 1.452 . S
C243 C159 1.421 . S
C245 C179 1.404 . S
C247 C121 1.449 . S
C249 C139 1.418 . S
C251 C141 1.455 . S
C253 C108 2.212 . S
C255 C9 1.953 . S
C257 C68 2.216 . S
C259 C29 1.915 . S
C261 C49 1.913 . S
C263 C88 2.219 . S
C265 C48 2.221 . S
C267 C129 1.915 . S
C269 C8 2.212 . S
C271 C149 1.947 . S
C273 C169 1.926 . S
C275 C28 2.224 . S
C277 C69 1.924 . S
C279 C168 2.213 . S
C281 C89 1.917 . S
C283 C128 2.222 . S
C285 C148 2.214 . S
C287 C109 1.922 . S
