# Generated by pormake.
# Topology ukp, (4)-cn, num edge types: 1
# Building blocks:
#     Node 0, Type 0, BuildingBlock: ESEHIV_clean_sbu_0, # of connection points: 4
#     Node 1, Type 0, BuildingBlock: ESEHIV_clean_sbu_0, # of connection points: 4
#     Node 2, Type 0, BuildingBlock: ESEHIV_clean_sbu_0, # of connection points: 4
#     Node 3, Type 0, BuildingBlock: ESEHIV_clean_sbu_0, # of connection points: 4
#     Node 4, Type 0, BuildingBlock: ESEHIV_clean_sbu_0, # of connection points: 4
#     Node 5, Type 0, BuildingBlock: ESEHIV_clean_sbu_0, # of connection points: 4
#     Node 6, Type 0, BuildingBlock: ESEHIV_clean_sbu_0, # of connection points: 4
#     Node 7, Type 0, BuildingBlock: ESEHIV_clean_sbu_0, # of connection points: 4
#     Node 8, Type 0, BuildingBlock: ESEHIV_clean_sbu_0, # of connection points: 4
#     Node 9, Type 0, BuildingBlock: ESEHIV_clean_sbu_0, # of connection points: 4
#     Node 10, Type 0, BuildingBlock: ESEHIV_clean_sbu_0, # of connection points: 4
#     Node 11, Type 0, BuildingBlock: ESEHIV_clean_sbu_0, # of connection points: 4
#     Node 12, Type 0, BuildingBlock: ESEHIV_clean_sbu_0, # of connection points: 4
#     Node 13, Type 0, BuildingBlock: ESEHIV_clean_sbu_0, # of connection points: 4
#     Node 14, Type 0, BuildingBlock: ESEHIV_clean_sbu_0, # of connection points: 4
#     Node 15, Type 0, BuildingBlock: ESEHIV_clean_sbu_0, # of connection points: 4
#     Node 16, Type 0, BuildingBlock: ESEHIV_clean_sbu_0, # of connection points: 4
#     Node 17, Type 0, BuildingBlock: ESEHIV_clean_sbu_0, # of connection points: 4
#     Node 18, Type 0, BuildingBlock: ESEHIV_clean_sbu_0, # of connection points: 4
#     Node 19, Type 0, BuildingBlock: ESEHIV_clean_sbu_0, # of connection points: 4
#     Node 20, Type 0, BuildingBlock: ESEHIV_clean_sbu_0, # of connection points: 4
#     Node 21, Type 0, BuildingBlock: ESEHIV_clean_sbu_0, # of connection points: 4
#     Node 22, Type 0, BuildingBlock: ESEHIV_clean_sbu_0, # of connection points: 4
#     Node 23, Type 0, BuildingBlock: ESEHIV_clean_sbu_0, # of connection points: 4
#     Node 24, Type 0, BuildingBlock: ESEHIV_clean_sbu_0, # of connection points: 4
#     Node 25, Type 0, BuildingBlock: ESEHIV_clean_sbu_0, # of connection points: 4
#     Node 26, Type 0, BuildingBlock: ESEHIV_clean_sbu_0, # of connection points: 4
#     Node 27, Type 0, BuildingBlock: ESEHIV_clean_sbu_0, # of connection points: 4
#     Node 28, Type 0, BuildingBlock: ESEHIV_clean_sbu_0, # of connection points: 4
#     Node 29, Type 0, BuildingBlock: ESEHIV_clean_sbu_0, # of connection points: 4
#     Node 30, Type 0, BuildingBlock: ESEHIV_clean_sbu_0, # of connection points: 4
#     Node 31, Type 0, BuildingBlock: ESEHIV_clean_sbu_0, # of connection points: 4
#     Node 32, Type 0, BuildingBlock: ESEHIV_clean_sbu_0, # of connection points: 4
#     Node 33, Type 0, BuildingBlock: ESEHIV_clean_sbu_0, # of connection points: 4
#     Node 34, Type 0, BuildingBlock: ESEHIV_clean_sbu_0, # of connection points: 4
#     Node 35, Type 0, BuildingBlock: ESEHIV_clean_sbu_0, # of connection points: 4
#     Node 36, Type 0, BuildingBlock: ESEHIV_clean_sbu_0, # of connection points: 4
#     Node 37, Type 0, BuildingBlock: ESEHIV_clean_sbu_0, # of connection points: 4
#     Node 38, Type 0, BuildingBlock: ESEHIV_clean_sbu_0, # of connection points: 4
#     Node 39, Type 0, BuildingBlock: ESEHIV_clean_sbu_0, # of connection points: 4
#     Node 40, Type 0, BuildingBlock: ESEHIV_clean_sbu_0, # of connection points: 4
#     Node 41, Type 0, BuildingBlock: ESEHIV_clean_sbu_0, # of connection points: 4
#     Node 42, Type 0, BuildingBlock: ESEHIV_clean_sbu_0, # of connection points: 4
#     Node 43, Type 0, BuildingBlock: ESEHIV_clean_sbu_0, # of connection points: 4
#     Node 44, Type 0, BuildingBlock: ESEHIV_clean_sbu_0, # of connection points: 4
#     Node 45, Type 0, BuildingBlock: ESEHIV_clean_sbu_0, # of connection points: 4
#     Node 46, Type 0, BuildingBlock: ESEHIV_clean_sbu_0, # of connection points: 4
#     Node 47, Type 0, BuildingBlock: ESEHIV_clean_sbu_0, # of connection points: 4
#     Edge 48, Type (0, 0), BuildingBlock: XIVTED_clean_linker_0, # of connection points: 2
#     Edge 49, Type (0, 0), BuildingBlock: XIVTED_clean_linker_0, # of connection points: 2
#     Edge 50, Type (0, 0), BuildingBlock: XIVTED_clean_linker_0, # of connection points: 2
#     Edge 51, Type (0, 0), BuildingBlock: XIVTED_clean_linker_0, # of connection points: 2
#     Edge 52, Type (0, 0), BuildingBlock: XIVTED_clean_linker_0, # of connection points: 2
#     Edge 53, Type (0, 0), BuildingBlock: XIVTED_clean_linker_0, # of connection points: 2
#     Edge 54, Type (0, 0), BuildingBlock: XIVTED_clean_linker_0, # of connection points: 2
#     Edge 55, Type (0, 0), BuildingBlock: XIVTED_clean_linker_0, # of connection points: 2
#     Edge 56, Type (0, 0), BuildingBlock: XIVTED_clean_linker_0, # of connection points: 2
#     Edge 57, Type (0, 0), BuildingBlock: XIVTED_clean_linker_0, # of connection points: 2
#     Edge 58, Type (0, 0), BuildingBlock: XIVTED_clean_linker_0, # of connection points: 2
#     Edge 59, Type (0, 0), BuildingBlock: XIVTED_clean_linker_0, # of connection points: 2
#     Edge 60, Type (0, 0), BuildingBlock: XIVTED_clean_linker_0, # of connection points: 2
#     Edge 61, Type (0, 0), BuildingBlock: XIVTED_clean_linker_0, # of connection points: 2
#     Edge 62, Type (0, 0), BuildingBlock: XIVTED_clean_linker_0, # of connection points: 2
#     Edge 63, Type (0, 0), BuildingBlock: XIVTED_clean_linker_0, # of connection points: 2
#     Edge 64, Type (0, 0), BuildingBlock: XIVTED_clean_linker_0, # of connection points: 2
#     Edge 65, Type (0, 0), BuildingBlock: XIVTED_clean_linker_0, # of connection points: 2
#     Edge 66, Type (0, 0), BuildingBlock: XIVTED_clean_linker_0, # of connection points: 2
#     Edge 67, Type (0, 0), BuildingBlock: XIVTED_clean_linker_0, # of connection points: 2
#     Edge 68, Type (0, 0), BuildingBlock: XIVTED_clean_linker_0, # of connection points: 2
#     Edge 69, Type (0, 0), BuildingBlock: XIVTED_clean_linker_0, # of connection points: 2
#     Edge 70, Type (0, 0), BuildingBlock: XIVTED_clean_linker_0, # of connection points: 2
#     Edge 71, Type (0, 0), BuildingBlock: XIVTED_clean_linker_0, # of connection points: 2
#     Edge 72, Type (0, 0), BuildingBlock: XIVTED_clean_linker_0, # of connection points: 2
#     Edge 73, Type (0, 0), BuildingBlock: XIVTED_clean_linker_0, # of connection points: 2
#     Edge 74, Type (0, 0), BuildingBlock: XIVTED_clean_linker_0, # of connection points: 2
#     Edge 75, Type (0, 0), BuildingBlock: XIVTED_clean_linker_0, # of connection points: 2
#     Edge 76, Type (0, 0), BuildingBlock: XIVTED_clean_linker_0, # of connection points: 2
#     Edge 77, Type (0, 0), BuildingBlock: XIVTED_clean_linker_0, # of connection points: 2
#     Edge 78, Type (0, 0), BuildingBlock: XIVTED_clean_linker_0, # of connection points: 2
#     Edge 79, Type (0, 0), BuildingBlock: XIVTED_clean_linker_0, # of connection points: 2
#     Edge 80, Type (0, 0), BuildingBlock: XIVTED_clean_linker_0, # of connection points: 2
#     Edge 81, Type (0, 0), BuildingBlock: XIVTED_clean_linker_0, # of connection points: 2
#     Edge 82, Type (0, 0), BuildingBlock: XIVTED_clean_linker_0, # of connection points: 2
#     Edge 83, Type (0, 0), BuildingBlock: XIVTED_clean_linker_0, # of connection points: 2
#     Edge 84, Type (0, 0), BuildingBlock: XIVTED_clean_linker_0, # of connection points: 2
#     Edge 85, Type (0, 0), BuildingBlock: XIVTED_clean_linker_0, # of connection points: 2
#     Edge 86, Type (0, 0), BuildingBlock: XIVTED_clean_linker_0, # of connection points: 2
#     Edge 87, Type (0, 0), BuildingBlock: XIVTED_clean_linker_0, # of connection points: 2
#     Edge 88, Type (0, 0), BuildingBlock: XIVTED_clean_linker_0, # of connection points: 2
#     Edge 89, Type (0, 0), BuildingBlock: XIVTED_clean_linker_0, # of connection points: 2
#     Edge 90, Type (0, 0), BuildingBlock: XIVTED_clean_linker_0, # of connection points: 2
#     Edge 91, Type (0, 0), BuildingBlock: XIVTED_clean_linker_0, # of connection points: 2
#     Edge 92, Type (0, 0), BuildingBlock: XIVTED_clean_linker_0, # of connection points: 2
#     Edge 93, Type (0, 0), BuildingBlock: XIVTED_clean_linker_0, # of connection points: 2
#     Edge 94, Type (0, 0), BuildingBlock: XIVTED_clean_linker_0, # of connection points: 2
#     Edge 95, Type (0, 0), BuildingBlock: XIVTED_clean_linker_0, # of connection points: 2
#     Edge 96, Type (0, 0), BuildingBlock: XIVTED_clean_linker_0, # of connection points: 2
#     Edge 97, Type (0, 0), BuildingBlock: XIVTED_clean_linker_0, # of connection points: 2
#     Edge 98, Type (0, 0), BuildingBlock: XIVTED_clean_linker_0, # of connection points: 2
#     Edge 99, Type (0, 0), BuildingBlock: XIVTED_clean_linker_0, # of connection points: 2
#     Edge 100, Type (0, 0), BuildingBlock: XIVTED_clean_linker_0, # of connection points: 2
#     Edge 101, Type (0, 0), BuildingBlock: XIVTED_clean_linker_0, # of connection points: 2
#     Edge 102, Type (0, 0), BuildingBlock: XIVTED_clean_linker_0, # of connection points: 2
#     Edge 103, Type (0, 0), BuildingBlock: XIVTED_clean_linker_0, # of connection points: 2
#     Edge 104, Type (0, 0), BuildingBlock: XIVTED_clean_linker_0, # of connection points: 2
#     Edge 105, Type (0, 0), BuildingBlock: XIVTED_clean_linker_0, # of connection points: 2
#     Edge 106, Type (0, 0), BuildingBlock: XIVTED_clean_linker_0, # of connection points: 2
#     Edge 107, Type (0, 0), BuildingBlock: XIVTED_clean_linker_0, # of connection points: 2
#     Edge 108, Type (0, 0), BuildingBlock: XIVTED_clean_linker_0, # of connection points: 2
#     Edge 109, Type (0, 0), BuildingBlock: XIVTED_clean_linker_0, # of connection points: 2
#     Edge 110, Type (0, 0), BuildingBlock: XIVTED_clean_linker_0, # of connection points: 2
#     Edge 111, Type (0, 0), BuildingBlock: XIVTED_clean_linker_0, # of connection points: 2
#     Edge 112, Type (0, 0), BuildingBlock: XIVTED_clean_linker_0, # of connection points: 2
#     Edge 113, Type (0, 0), BuildingBlock: XIVTED_clean_linker_0, # of connection points: 2
#     Edge 114, Type (0, 0), BuildingBlock: XIVTED_clean_linker_0, # of connection points: 2
#     Edge 115, Type (0, 0), BuildingBlock: XIVTED_clean_linker_0, # of connection points: 2
#     Edge 116, Type (0, 0), BuildingBlock: XIVTED_clean_linker_0, # of connection points: 2
#     Edge 117, Type (0, 0), BuildingBlock: XIVTED_clean_linker_0, # of connection points: 2
#     Edge 118, Type (0, 0), BuildingBlock: XIVTED_clean_linker_0, # of connection points: 2
#     Edge 119, Type (0, 0), BuildingBlock: XIVTED_clean_linker_0, # of connection points: 2
#     Edge 120, Type (0, 0), BuildingBlock: XIVTED_clean_linker_0, # of connection points: 2
#     Edge 121, Type (0, 0), BuildingBlock: XIVTED_clean_linker_0, # of connection points: 2
#     Edge 122, Type (0, 0), BuildingBlock: XIVTED_clean_linker_0, # of connection points: 2
#     Edge 123, Type (0, 0), BuildingBlock: XIVTED_clean_linker_0, # of connection points: 2
#     Edge 124, Type (0, 0), BuildingBlock: XIVTED_clean_linker_0, # of connection points: 2
#     Edge 125, Type (0, 0), BuildingBlock: XIVTED_clean_linker_0, # of connection points: 2
#     Edge 126, Type (0, 0), BuildingBlock: XIVTED_clean_linker_0, # of connection points: 2
#     Edge 127, Type (0, 0), BuildingBlock: XIVTED_clean_linker_0, # of connection points: 2
#     Edge 128, Type (0, 0), BuildingBlock: XIVTED_clean_linker_0, # of connection points: 2
#     Edge 129, Type (0, 0), BuildingBlock: XIVTED_clean_linker_0, # of connection points: 2
#     Edge 130, Type (0, 0), BuildingBlock: XIVTED_clean_linker_0, # of connection points: 2
#     Edge 131, Type (0, 0), BuildingBlock: XIVTED_clean_linker_0, # of connection points: 2
#     Edge 132, Type (0, 0), BuildingBlock: XIVTED_clean_linker_0, # of connection points: 2
#     Edge 133, Type (0, 0), BuildingBlock: XIVTED_clean_linker_0, # of connection points: 2
#     Edge 134, Type (0, 0), BuildingBlock: XIVTED_clean_linker_0, # of connection points: 2
#     Edge 135, Type (0, 0), BuildingBlock: XIVTED_clean_linker_0, # of connection points: 2
#     Edge 136, Type (0, 0), BuildingBlock: XIVTED_clean_linker_0, # of connection points: 2
#     Edge 137, Type (0, 0), BuildingBlock: XIVTED_clean_linker_0, # of connection points: 2
#     Edge 138, Type (0, 0), BuildingBlock: XIVTED_clean_linker_0, # of connection points: 2
#     Edge 139, Type (0, 0), BuildingBlock: XIVTED_clean_linker_0, # of connection points: 2
#     Edge 140, Type (0, 0), BuildingBlock: XIVTED_clean_linker_0, # of connection points: 2
#     Edge 141, Type (0, 0), BuildingBlock: XIVTED_clean_linker_0, # of connection points: 2
#     Edge 142, Type (0, 0), BuildingBlock: XIVTED_clean_linker_0, # of connection points: 2
#     Edge 143, Type (0, 0), BuildingBlock: XIVTED_clean_linker_0, # of connection points: 2
# Relax obj value: 0.107
# Max RMSD: 0.157
# Mean RMSD: 0.157
data_MOF--net-ukp--node1-ESEHIV_clean_sbu_0--edge1-XIVTED_clean_linker_0
_symmetry_space_group_name_H-M    P1
_symmetry_Int_Tables_number       1
_symmetry_cell_setting            triclinic
loop_
_symmetry_equiv_pos_as_xyz
'x, y, z'
_cell_length_a     70.202956
_cell_length_b     70.213575
_cell_length_c     70.181864
_cell_angle_alpha  90.029914
_cell_angle_beta   89.966245
_cell_angle_gamma 89.971749
loop_
_atom_site_label
_atom_site_type_symbol
_atom_site_fract_x
_atom_site_fract_y
_atom_site_fract_z
_atom_type_partial_charge
Cu0 Cu 0.20088 0.2892 0.39043 0.0
N1 N 0.19536 0.30163 0.3675 0.0
N2 N 0.19961 0.3194 0.34131 0.0
C3 C 0.20806 0.31044 0.35612 0.0
C4 C 0.18078 0.31605 0.34355 0.0
C5 C 0.17821 0.30517 0.35972 0.0
O6 O 0.22432 0.27503 0.38651 0.0
C7 C 0.18754 0.31534 0.41735 0.0
O8 O 0.17127 0.30703 0.41337 0.0
H9 H 0.22315 0.31079 0.35902 0.0
H10 H 0.16477 0.30048 0.3656 0.0
N11 N 0.18189 0.27124 0.39624 0.0
N12 N 0.16443 0.24925 0.41138 0.0
C13 C 0.17713 0.26361 0.41329 0.0
C14 C 0.17188 0.26132 0.38325 0.0
C15 C 0.16113 0.2478 0.39251 0.0
C16 C 0.24087 0.28226 0.38517 0.0
O17 O 0.24321 0.30053 0.38845 0.0
H18 H 0.1835 0.26788 0.42667 0.0
H19 H 0.17291 0.26331 0.36801 0.0
O20 O 0.20275 0.30913 0.40965 0.0
H21 H 0.16959 0.32112 0.33425 0.0
H22 H 0.15191 0.2374 0.38584 0.0
Cu23 Cu 0.97728 0.94853 0.63908 0.0
N24 N 0.96451 0.94359 0.61623 0.0
N25 N 0.94739 0.94874 0.5898 0.0
C26 C 0.95792 0.95669 0.60385 0.0
C27 C 0.94757 0.92985 0.59351 0.0
C28 C 0.95803 0.92675 0.60983 0.0
O29 O 0.99029 0.9729 0.63575 0.0
C30 C 0.94307 0.95946 0.65699 0.0
O31 O 0.94217 0.97157 0.64275 0.0
H32 H 0.9601 0.97183 0.6057 0.0
H33 H 0.9603 0.91323 0.61686 0.0
N34 N 0.99465 0.92882 0.64431 0.0
N35 N 0.0162 0.9102 0.65875 0.0
C36 C 1.00352 0.92459 0.66088 0.0
C37 C 1.00186 0.9166 0.63141 0.0
C38 C 0.01512 0.90517 0.64022 0.0
C39 C 1.00763 0.97361 0.63041 0.0
O40 O 0.01733 0.95771 0.62877 0.0
H41 H 1.00124 0.93235 0.67402 0.0
H42 H 0.99813 0.91639 0.61647 0.0
O43 O 0.95787 0.94914 0.65882 0.0
H44 H 0.94046 0.91899 0.58522 0.0
H45 H 0.02347 0.89411 0.63344 0.0
Cu46 Cu 0.31501 0.72867 0.88781 0.0
N47 N 0.32052 0.71982 0.86338 0.0
N48 N 0.31677 0.70475 0.83551 0.0
C49 C 0.30878 0.70931 0.85245 0.0
C50 C 0.33428 0.71278 0.83595 0.0
C51 C 0.33656 0.72198 0.85315 0.0
O52 O 0.28898 0.738 0.88596 0.0
C53 C 0.3169 0.70432 0.92181 0.0
O54 O 0.31499 0.71935 0.93281 0.0
H55 H 0.29476 0.70495 0.85708 0.0
H56 H 0.34903 0.72968 0.85787 0.0
N57 N 0.33181 0.74872 0.89358 0.0
N58 N 0.35114 0.77015 0.90738 0.0
C59 C 0.34138 0.7536 0.90961 0.0
C60 C 0.33559 0.76263 0.881 0.0
C61 C 0.34739 0.77575 0.88936 0.0
C62 C 0.28341 0.75435 0.89149 0.0
O63 O 0.29497 0.76509 0.90154 0.0
H64 H 0.34108 0.74532 0.92259 0.0
H65 H 0.3297 0.76338 0.86678 0.0
O66 O 0.31723 0.70623 0.90381 0.0
H67 H 0.34471 0.71229 0.82462 0.0
H68 H 0.35226 0.78878 0.88275 0.0
Cu69 Cu 0.53982 0.0672 0.13837 0.0
N70 N 0.55218 0.07268 0.11535 0.0
N71 N 0.568 0.06886 0.08793 0.0
C72 C 0.55796 0.06022 0.1019 0.0
C73 C 0.5684 0.08747 0.09273 0.0
C74 C 0.55875 0.08975 0.10968 0.0
O75 O 0.52485 0.0441 0.13456 0.0
C76 C 0.57573 0.05861 0.15449 0.0
O77 O 0.57851 0.05026 0.13798 0.0
H78 H 0.55518 0.04508 0.10256 0.0
H79 H 0.55707 0.10286 0.11762 0.0
N80 N 0.52264 0.08695 0.14387 0.0
N81 N 0.50102 0.10555 0.15828 0.0
C82 C 0.51418 0.09161 0.16056 0.0
C83 C 0.51463 0.09837 0.13075 0.0
C84 C 0.50138 0.10983 0.13954 0.0
C85 C 0.53131 0.02717 0.13393 0.0
O86 O 0.54933 0.02405 0.1378 0.0
H87 H 0.51698 0.08437 0.17388 0.0
H88 H 0.51779 0.09798 0.11567 0.0
O89 O 0.55945 0.06583 0.15811 0.0
H90 H 0.57576 0.09855 0.08494 0.0
H91 H 0.49246 0.12032 0.1326 0.0
Cu92 Cu 0.20329 0.72476 0.12611 0.0
N93 N 0.19873 0.71325 0.14977 0.0
N94 N 0.20446 0.69736 0.17682 0.0
C95 C 0.21206 0.70746 0.16231 0.0
C96 C 0.18554 0.69708 0.17344 0.0
C97 C 0.18206 0.70679 0.15669 0.0
O98 O 0.22608 0.74043 0.12903 0.0
C99 C 0.21285 0.68852 0.11093 0.0
O100 O 0.22225 0.68674 0.12698 0.0
H101 H 0.22713 0.71 0.16043 0.0
H102 H 0.16846 0.70834 0.14963 0.0
N103 N 0.18321 0.74138 0.12016 0.0
N104 N 0.16517 0.76297 0.1051 0.0
C105 C 0.17884 0.74949 0.10323 0.0
C106 C 0.17187 0.74999 0.13301 0.0
C107 C 0.16079 0.76328 0.12381 0.0
C108 C 0.24318 0.73451 0.13017 0.0
O109 O 0.24692 0.71648 0.12697 0.0
H110 H 0.18629 0.74641 0.09008 0.0
H111 H 0.17228 0.7474 0.1482 0.0
O112 O 0.20464 0.70429 0.10717 0.0
H113 H 0.17507 0.68955 0.18189 0.0
H114 H 0.15068 0.77287 0.13044 0.0
Cu115 Cu 0.5403 0.95087 0.37821 0.0
N116 N 0.55297 0.94475 0.4008 0.0
N117 N 0.57027 0.94863 0.42733 0.0
C118 C 0.56115 0.95732 0.41276 0.0
C119 C 0.56756 0.92979 0.42436 0.0
C120 C 0.55694 0.92746 0.40798 0.0
O121 O 0.5293 0.97599 0.38263 0.0
C122 C 0.57391 0.96138 0.35938 0.0
O123 O 0.57441 0.97427 0.37294 0.0
H124 H 0.56083 0.97254 0.41042 0.0
H125 H 0.55262 0.91411 0.40162 0.0
N126 N 0.52117 0.93283 0.37339 0.0
N127 N 0.49891 0.91499 0.35905 0.0
C128 C 0.51372 0.92711 0.35657 0.0
C129 C 0.51085 0.92393 0.38685 0.0
C130 C 0.49717 0.91296 0.3781 0.0
C131 C 0.51216 0.98056 0.37889 0.0
O132 O 0.50134 0.96861 0.3694 0.0
H133 H 0.51853 0.93233 0.34288 0.0
H134 H 0.51288 0.92567 0.40203 0.0
O135 O 0.55944 0.95052 0.35818 0.0
H136 H 0.57285 0.91843 0.43332 0.0
H137 H 0.48663 0.90428 0.38525 0.0
Cu138 Cu 0.31766 0.28988 0.62807 0.0
N139 N 0.32157 0.30268 0.65112 0.0
N140 N 0.31482 0.31975 0.67723 0.0
C141 C 0.30776 0.30913 0.6628 0.0
C142 C 0.33388 0.31981 0.67455 0.0
C143 C 0.33798 0.30937 0.65839 0.0
O144 O 0.2931 0.27711 0.63064 0.0
C145 C 0.30691 0.32382 0.6098 0.0
O146 O 0.29411 0.32429 0.62345 0.0
H147 H 0.29278 0.30641 0.66044 0.0
H148 H 0.35186 0.30736 0.652 0.0
N149 N 0.33746 0.27239 0.6237 0.0
N150 N 0.35653 0.2507 0.61004 0.0
C151 C 0.34255 0.2637 0.60726 0.0
C152 C 0.34871 0.26477 0.63719 0.0
C153 C 0.36044 0.25144 0.62886 0.0
C154 C 0.29115 0.25909 0.63131 0.0
O155 O 0.30594 0.24811 0.62803 0.0
H156 H 0.33557 0.26626 0.59375 0.0
H157 H 0.34806 0.2683 0.65218 0.0
O158 O 0.31772 0.30932 0.60837 0.0
H159 H 0.34408 0.32752 0.68316 0.0
H160 H 0.37091 0.24281 0.63616 0.0
Cu161 Cu 0.97992 0.06859 0.87819 0.0
N162 N 0.96641 0.07251 0.90079 0.0
N163 N 0.94835 0.06542 0.92611 0.0
C164 C 0.95968 0.05857 0.91212 0.0
C165 C 0.94801 0.08447 0.92347 0.0
C166 C 0.95903 0.08877 0.90775 0.0
O167 O 0.99408 0.04489 0.8818 0.0
C168 C 0.95446 0.08151 0.84997 0.0
O169 O 0.96305 0.09783 0.85302 0.0
H170 H 0.9627 0.04363 0.90978 0.0
H171 H 0.96085 0.10267 0.90136 0.0
N172 N 0.9968 0.0889 0.87339 0.0
N173 N 0.01845 0.108 0.85973 0.0
C174 C 1.00696 0.09267 0.85745 0.0
C175 C 1.00203 0.10231 0.88605 0.0
C176 C 0.01531 0.11405 0.87771 0.0
C177 C 0.0099 0.04533 0.89069 0.0
O178 O 0.01692 0.06186 0.89589 0.0
H179 H 1.00632 0.08406 0.84467 0.0
H180 H 0.99689 0.10322 0.90054 0.0
O181 O 0.96039 0.06665 0.85853 0.0
H182 H 0.93969 0.09449 0.93172 0.0
H183 H 0.02218 0.1261 0.88443 0.0
Cu184 Cu 0.39219 0.2041 0.28932 0.0
N185 N 0.36888 0.2005 0.30181 0.0
N186 N 0.34257 0.20754 0.31844 0.0
C187 C 0.35642 0.21422 0.30685 0.0
C188 C 0.34634 0.18878 0.32048 0.0
C189 C 0.36262 0.18452 0.31031 0.0
O190 O 0.38961 0.22686 0.27361 0.0
C191 C 0.40852 0.21257 0.32526 0.0
O192 O 0.39246 0.22178 0.32789 0.0
H193 H 0.358 0.22898 0.30275 0.0
H194 H 0.36992 0.17096 0.30992 0.0
N195 N 0.39693 0.18344 0.27301 0.0
N196 N 0.41081 0.16375 0.25202 0.0
C197 C 0.41329 0.17866 0.26403 0.0
C198 C 0.38378 0.17112 0.26654 0.0
C199 C 0.39225 0.15899 0.25366 0.0
C200 C 0.3896 0.24391 0.27979 0.0
O201 O 0.39371 0.24717 0.29773 0.0
H202 H 0.42651 0.18641 0.26568 0.0
H203 H 0.3689 0.17127 0.27054 0.0
O204 O 0.41187 0.20508 0.30903 0.0
H205 H 0.33857 0.17904 0.32955 0.0
H206 H 0.38521 0.14766 0.24594 0.0
Cu207 Cu 0.06684 0.13704 0.54107 0.0
N208 N 0.07194 0.11252 0.54996 0.0
N209 N 0.0679 0.08484 0.56527 0.0
C210 C 0.05983 0.10151 0.55997 0.0
C211 C 0.08582 0.08551 0.55823 0.0
C212 C 0.08828 0.1026 0.54888 0.0
O213 O 0.04093 0.13556 0.53124 0.0
C214 C 0.06905 0.1708 0.56596 0.0
O215 O 0.06732 0.1821 0.55115 0.0
H216 H 0.04554 0.10595 0.56367 0.0
H217 H 0.10115 0.10753 0.54199 0.0
N218 N 0.08423 0.14281 0.52146 0.0
N219 N 0.10364 0.15689 0.50026 0.0
C220 C 0.09309 0.15916 0.51633 0.0
C221 C 0.08927 0.12997 0.50819 0.0
C222 C 0.10113 0.13849 0.49521 0.0
C223 C 0.03604 0.14011 0.51437 0.0
O224 O 0.04828 0.14893 0.50332 0.0
H225 H 0.09169 0.1724 0.52405 0.0
H226 H 0.08418 0.11544 0.50771 0.0
O227 O 0.06903 0.15283 0.56371 0.0
H228 H 0.09647 0.07445 0.55963 0.0
H229 H 0.10688 0.13171 0.48261 0.0
Cu230 Cu 0.12721 0.81744 0.79266 0.0
N231 N 0.14973 0.82284 0.80576 0.0
N232 N 0.17563 0.81819 0.82378 0.0
C233 C 0.16199 0.80995 0.81296 0.0
C234 C 0.17177 0.83704 0.82321 0.0
C235 C 0.15576 0.83983 0.8122 0.0
O236 O 0.13129 0.7935 0.77909 0.0
C237 C 0.10886 0.80452 0.82587 0.0
O238 O 0.12202 0.79122 0.82515 0.0
H239 H 0.16031 0.79476 0.81101 0.0
H240 H 0.14864 0.85325 0.80959 0.0
N241 N 0.12172 0.83704 0.77524 0.0
N242 N 0.10723 0.85529 0.7534 0.0
C243 C 0.10526 0.84075 0.76594 0.0
C244 C 0.13436 0.84974 0.76844 0.0
C245 C 0.12552 0.86094 0.75501 0.0
C246 C 0.14322 0.79379 0.76539 0.0
O247 O 0.1513 0.81004 0.76088 0.0
H248 H 0.09235 0.83255 0.76782 0.0
H249 H 0.14917 0.85047 0.77257 0.0
O250 O 0.10755 0.81629 0.81214 0.0
H251 H 0.17973 0.84807 0.83045 0.0
H252 H 0.13211 0.87229 0.74693 0.0
Cu253 Cu 0.45265 0.87738 0.03829 0.0
N254 N 0.44839 0.90053 0.05081 0.0
N255 N 0.45448 0.92664 0.06811 0.0
C256 C 0.46194 0.91188 0.05826 0.0
C257 C 0.43541 0.92452 0.0667 0.0
C258 C 0.43171 0.90834 0.05613 0.0
O259 O 0.47593 0.88027 0.02362 0.0
C260 C 0.43903 0.85054 0.06445 0.0
O261 O 0.42276 0.85455 0.05613 0.0
H262 H 0.47701 0.90921 0.05666 0.0
H263 H 0.41785 0.90237 0.05303 0.0
N264 N 0.43301 0.87224 0.02087 0.0
N265 N 0.41463 0.8577 0.99923 0.0
C266 C 0.42808 0.85544 0.01284 0.0
C267 C 0.42233 0.88545 0.01201 0.0
C268 C 0.41103 0.87656 0.99868 0.0
C269 C 0.49262 0.88075 0.03062 0.0
O270 O 0.49503 0.87721 0.04885 0.0
H271 H 0.43478 0.84199 0.01632 0.0
H272 H 0.42321 0.90061 0.0146 0.0
O273 O 0.45426 0.85818 0.05825 0.0
H274 H 0.42488 0.93357 0.0734 0.0
H275 H 0.40115 0.88347 0.98907 0.0
Cu276 Cu 0.38962 0.81768 0.22766 0.0
N277 N 0.36628 0.82127 0.21522 0.0
N278 N 0.34022 0.81362 0.19852 0.0
C279 C 0.3538 0.80742 0.21068 0.0
C280 C 0.34414 0.83222 0.19562 0.0
C281 C 0.36029 0.83685 0.20582 0.0
O282 O 0.38628 0.79565 0.24427 0.0
C283 C 0.405 0.80551 0.19264 0.0
O284 O 0.38935 0.7953 0.19229 0.0
H285 H 0.35534 0.79282 0.21535 0.0
H286 H 0.36779 0.85029 0.20548 0.0
N287 N 0.39503 0.83884 0.2431 0.0
N288 N 0.40898 0.85836 0.26419 0.0
C289 C 0.41105 0.84272 0.25307 0.0
C290 C 0.38254 0.85251 0.24804 0.0
C291 C 0.39106 0.86453 0.26096 0.0
C292 C 0.38913 0.77826 0.24002 0.0
O293 O 0.3971 0.77392 0.22367 0.0
H294 H 0.42363 0.8338 0.25281 0.0
H295 H 0.36799 0.85334 0.24306 0.0
O296 O 0.40877 0.81527 0.2075 0.0
H297 H 0.33667 0.84149 0.18583 0.0
H298 H 0.38445 0.87675 0.26766 0.0
Cu299 Cu 0.45156 0.13833 0.47857 0.0
N300 N 0.44627 0.11527 0.4662 0.0
N301 N 0.45063 0.08847 0.44938 0.0
C302 C 0.45896 0.10225 0.45997 0.0
C303 C 0.43189 0.09294 0.44926 0.0
C304 C 0.42929 0.10946 0.45954 0.0
O305 O 0.47461 0.1347 0.49363 0.0
C306 C 0.46026 0.15457 0.44267 0.0
O307 O 0.46852 0.13805 0.43977 0.0
H308 H 0.47414 0.10354 0.46225 0.0
H309 H 0.41604 0.11708 0.46148 0.0
N310 N 0.43173 0.14391 0.49566 0.0
N311 N 0.41321 0.1585 0.51724 0.0
C312 C 0.42734 0.1606 0.50425 0.0
C313 C 0.41996 0.13095 0.50344 0.0
C314 C 0.40855 0.13986 0.51666 0.0
C315 C 0.49155 0.13409 0.48718 0.0
O316 O 0.49467 0.13782 0.46913 0.0
H317 H 0.43488 0.17378 0.50163 0.0
H318 H 0.42007 0.11591 0.50013 0.0
O319 O 0.45304 0.15811 0.45898 0.0
H320 H 0.42082 0.0851 0.44197 0.0
H321 H 0.39781 0.13306 0.52538 0.0
Cu322 Cu 0.13064 0.20257 0.72792 0.0
N323 N 0.15343 0.19654 0.71562 0.0
N324 N 0.18008 0.20037 0.69849 0.0
C325 C 0.16508 0.20904 0.70692 0.0
C326 C 0.17769 0.18161 0.70214 0.0
C327 C 0.16123 0.17931 0.71264 0.0
O328 O 0.13465 0.22782 0.73877 0.0
C329 C 0.1115 0.21377 0.69467 0.0
O330 O 0.12365 0.22797 0.69543 0.0
H331 H 0.16226 0.22418 0.70647 0.0
H332 H 0.15527 0.166 0.71762 0.0
N333 N 0.1259 0.18463 0.74719 0.0
N334 N 0.11185 0.16669 0.76956 0.0
C335 C 0.10917 0.17858 0.75459 0.0
C336 C 0.13949 0.17618 0.75771 0.0
C337 C 0.13092 0.16515 0.77144 0.0
C338 C 0.13049 0.23252 0.7558 0.0
O339 O 0.12085 0.22061 0.76652 0.0
H340 H 0.0954 0.18342 0.74964 0.0
H341 H 0.15463 0.1783 0.75579 0.0
O342 O 0.1111 0.20185 0.70834 0.0
H343 H 0.18713 0.17028 0.69766 0.0
H344 H 0.13822 0.15676 0.78212 0.0
Cu345 Cu 0.0696 0.88129 0.97999 0.0
N346 N 0.07422 0.90602 0.97102 0.0
N347 N 0.06991 0.93373 0.95568 0.0
C348 C 0.06235 0.91661 0.96026 0.0
C349 C 0.08733 0.93377 0.96388 0.0
C350 C 0.08996 0.9167 0.97321 0.0
O351 O 0.04538 0.88238 0.99333 0.0
C352 C 0.06916 0.8475 0.95516 0.0
O353 O 0.06834 0.83639 0.97018 0.0
H354 H 0.04858 0.91164 0.95557 0.0
H355 H 0.10257 0.91235 0.98091 0.0
N356 N 0.08821 0.87478 0.99818 0.0
N357 N 0.10776 0.85962 0.01853 0.0
C358 C 0.09686 0.8581 1.0026 0.0
C359 C 0.09366 0.88703 0.01184 0.0
C360 C 0.10565 0.87787 0.02424 0.0
C361 C 0.02922 0.88464 0.98546 0.0
O362 O 0.0279 0.88375 0.96681 0.0
H363 H 0.09491 0.8451 0.99461 0.0
H364 H 0.08858 0.90151 0.01313 0.0
O365 O 0.06952 0.8655 0.95721 0.0
H366 H 0.09751 0.94532 0.96338 0.0
H367 H 0.11158 0.88408 0.03704 0.0
Cu368 Cu 0.28957 0.39361 0.20632 0.0
N369 N 0.30272 0.37098 0.20146 0.0
N370 N 0.3207 0.34525 0.20706 0.0
C371 C 0.31071 0.35977 0.21481 0.0
C372 C 0.31872 0.34734 0.18803 0.0
C373 C 0.30769 0.36328 0.18462 0.0
O374 O 0.27797 0.39013 0.23137 0.0
C375 C 0.32327 0.41311 0.21562 0.0
O376 O 0.32455 0.39974 0.22864 0.0
H377 H 0.30937 0.36243 0.22994 0.0
H378 H 0.30397 0.36913 0.17086 0.0
N379 N 0.27087 0.39749 0.18765 0.0
N380 N 0.24851 0.41107 0.16943 0.0
C381 C 0.26328 0.41406 0.18143 0.0
C382 C 0.26071 0.38367 0.17913 0.0
C383 C 0.24691 0.39197 0.16796 0.0
C384 C 0.26034 0.39255 0.23494 0.0
O385 O 0.24931 0.40019 0.22192 0.0
H386 H 0.26781 0.42794 0.18638 0.0
H387 H 0.26278 0.36858 0.18147 0.0
O388 O 0.30836 0.41392 0.20534 0.0
H389 H 0.3253 0.33842 0.17731 0.0
H390 H 0.23623 0.38453 0.15969 0.0
Cu391 Cu 0.7915 0.12852 0.81846 0.0
N392 N 0.80356 0.15193 0.82225 0.0
N393 N 0.81983 0.17834 0.81494 0.0
C394 C 0.80896 0.16393 0.80829 0.0
C395 C 0.82115 0.17536 0.8339 0.0
C396 C 0.81122 0.15898 0.83834 0.0
O397 O 0.77692 0.13108 0.79494 0.0
C398 C 0.82491 0.11184 0.80449 0.0
O399 O 0.82271 0.12483 0.79121 0.0
H400 H 0.80544 0.16171 0.79345 0.0
H401 H 0.81037 0.15222 0.85216 0.0
N402 N 0.77523 0.12284 0.83896 0.0
N403 N 0.75427 0.10805 0.85793 0.0
C404 C 0.76615 0.10632 0.84283 0.0
C405 C 0.76898 0.1353 0.85213 0.0
C406 C 0.75606 0.12626 0.86379 0.0
C407 C 0.76196 0.14135 0.79548 0.0
O408 O 0.75648 0.14847 0.8119 0.0
H409 H 0.76765 0.09355 0.83431 0.0
H410 H 0.77307 0.15012 0.85285 0.0
O411 O 0.81189 0.10983 0.81695 0.0
H412 H 0.82949 0.18381 0.84372 0.0
H413 H 0.74841 0.13267 0.87556 0.0
Cu414 Cu 0.13571 0.5374 0.06779 0.0
N415 N 0.11109 0.54654 0.07245 0.0
N416 N 0.08344 0.56196 0.06822 0.0
C417 C 0.1004 0.55706 0.06047 0.0
C418 C 0.08361 0.55419 0.08585 0.0
C419 C 0.10066 0.54482 0.08843 0.0
O420 O 0.13475 0.52439 0.04342 0.0
C421 C 0.1698 0.56146 0.06711 0.0
O422 O 0.18043 0.54614 0.06551 0.0
H423 H 0.10519 0.56136 0.04651 0.0
H424 H 0.10518 0.53741 0.10115 0.0
N425 N 0.14184 0.51904 0.08629 0.0
N426 N 0.1565 0.49873 0.10619 0.0
C427 C 0.15833 0.51457 0.09524 0.0
C428 C 0.1294 0.50551 0.09161 0.0
C429 C 0.13826 0.49312 0.10382 0.0
C430 C 0.13312 0.53257 0.02734 0.0
O431 O 0.13444 0.5512 0.02635 0.0
H432 H 0.17141 0.5225 0.09352 0.0
H433 H 0.11496 0.50438 0.08636 0.0
O434 O 0.15179 0.55991 0.06806 0.0
H435 H 0.07222 0.55505 0.0962 0.0
H436 H 0.13187 0.48043 0.10978 0.0
Cu437 Cu 0.72871 0.89163 0.31858 0.0
N438 N 0.71578 0.86865 0.32235 0.0
N439 N 0.699 0.84244 0.31547 0.0
C440 C 0.70994 0.85667 0.30853 0.0
C441 C 0.69806 0.84554 0.33443 0.0
C442 C 0.70829 0.86179 0.3386 0.0
O443 O 0.74287 0.88893 0.29483 0.0
C444 C 0.69483 0.90966 0.30709 0.0
O445 O 0.69446 0.89568 0.29464 0.0
H446 H 0.71327 0.85869 0.29361 0.0
H447 H 0.70958 0.86854 0.3524 0.0
N448 N 0.74554 0.89635 0.33888 0.0
N449 N 0.76705 0.91009 0.35805 0.0
C450 C 0.75526 0.91246 0.34297 0.0
C451 C 0.75131 0.8835 0.35187 0.0
C452 C 0.76452 0.89188 0.36365 0.0
C453 C 0.75725 0.87784 0.29496 0.0
O454 O 0.76229 0.86985 0.31111 0.0
H455 H 0.75418 0.92541 0.33468 0.0
H456 H 0.7466 0.86885 0.35243 0.0
O457 O 0.70931 0.9114 0.31787 0.0
H458 H 0.68984 0.8372 0.34446 0.0
H459 H 0.7718 0.88503 0.37539 0.0
Cu460 Cu 0.87708 0.97777 0.06453 0.0
N461 N 0.90028 0.96515 0.06836 0.0
N462 N 0.9265 0.94844 0.06115 0.0
C463 C 0.91324 0.9609 0.05483 0.0
C464 C 0.92181 0.94499 0.07949 0.0
C465 C 0.90559 0.95519 0.08384 0.0
O466 O 0.88008 0.99418 0.04231 0.0
C467 C 0.86106 0.94199 0.0548 0.0
O468 O 0.87737 0.93949 0.04599 0.0
H469 H 0.91235 0.96609 0.04036 0.0
H470 H 0.89756 0.95446 0.09697 0.0
N471 N 0.87129 0.99317 0.08561 0.0
N472 N 0.85568 0.01265 0.10557 0.0
C473 C 0.85515 1.00315 0.08878 0.0
C474 C 0.88244 0.99659 0.10082 0.0
C475 C 0.87286 1.00851 0.11315 0.0
C476 C 0.88065 0.98833 0.02514 0.0
O477 O 0.87701 0.97037 0.02147 0.0
H478 H 0.8432 1.00327 0.07903 0.0
H479 H 0.89663 0.99095 0.10277 0.0
O480 O 0.85749 0.95809 0.06244 0.0
H481 H 0.92884 0.93487 0.08875 0.0
H482 H 0.8783 0.014 0.12648 0.0
Cu483 Cu 0.22636 0.63006 0.69919 0.0
N484 N 0.21378 0.65293 0.69397 0.0
N485 N 0.19791 0.68018 0.69868 0.0
C486 C 0.20764 0.66575 0.70691 0.0
C487 C 0.19792 0.6762 0.67985 0.0
C488 C 0.20757 0.65933 0.67702 0.0
O489 O 0.23958 0.63372 0.72333 0.0
C490 C 0.20135 0.60158 0.68596 0.0
O491 O 0.21064 0.60415 0.66992 0.0
H492 H 0.21022 0.66444 0.72205 0.0
H493 H 0.20958 0.65202 0.6636 0.0
N494 N 0.2441 0.62434 0.67985 0.0
N495 N 0.26618 0.60951 0.66217 0.0
C496 C 0.25368 0.60791 0.67678 0.0
C497 C 0.25076 0.63662 0.66673 0.0
C498 C 0.26436 0.62757 0.65587 0.0
C499 C 0.25539 0.64263 0.72332 0.0
O500 O 0.26273 0.64808 0.707 0.0
H501 H 0.25188 0.59524 0.68537 0.0
H502 H 0.2464 0.65133 0.66546 0.0
O503 O 0.20649 0.61074 0.70076 0.0
H504 H 0.19097 0.6846 0.66894 0.0
H505 H 0.27234 0.63382 0.64425 0.0
Cu506 Cu 0.14039 0.47947 0.45151 0.0
N507 N 0.11679 0.46786 0.44722 0.0
N508 N 0.08985 0.45213 0.45381 0.0
C509 C 0.10382 0.46346 0.46067 0.0
C510 C 0.09406 0.44962 0.4352 0.0
C511 C 0.11073 0.45923 0.43122 0.0
O512 O 0.13716 0.49575 0.47384 0.0
C513 C 0.15455 0.44374 0.463 0.0
O514 O 0.13861 0.44351 0.47278 0.0
H515 H 0.10519 0.4677 0.47543 0.0
H516 H 0.11847 0.45906 0.41788 0.0
N517 N 0.14646 0.49517 0.43076 0.0
N518 N 0.16134 0.516 0.41169 0.0
C519 C 0.16304 0.50413 0.4268 0.0
C520 C 0.13398 0.50155 0.41769 0.0
C521 C 0.14308 0.51433 0.40595 0.0
C522 C 0.13912 0.49097 0.49122 0.0
O523 O 0.14596 0.4741 0.49542 0.0
H524 H 0.1758 0.50265 0.43533 0.0
H525 H 0.11909 0.49767 0.41714 0.0
O526 O 0.15895 0.45875 0.45375 0.0
H527 H 0.08634 0.44052 0.42544 0.0
H528 H 0.13664 0.52206 0.39426 0.0
Cu529 Cu 0.37573 0.54112 0.95518 0.0
N530 N 0.39928 0.55308 0.95163 0.0
N531 N 0.42597 0.56891 0.95895 0.0
C532 C 0.41196 0.55738 0.96538 0.0
C533 C 0.42205 0.57171 0.94032 0.0
C534 C 0.40553 0.56204 0.93589 0.0
O535 O 0.37835 0.52483 0.97758 0.0
C536 C 0.36054 0.57705 0.96553 0.0
O537 O 0.37642 0.57838 0.9753 0.0
H538 H 0.41041 0.55283 0.98002 0.0
H539 H 0.39806 0.56233 0.92243 0.0
N540 N 0.37048 0.52538 0.93419 0.0
N541 N 0.35639 0.50458 0.91445 0.0
C542 C 0.35415 0.51619 0.92972 0.0
C543 C 0.38335 0.51944 0.92128 0.0
C544 C 0.37474 0.50669 0.90913 0.0
C545 C 0.37768 0.53031 0.99486 0.0
O546 O 0.37264 0.54788 0.99875 0.0
H547 H 0.34117 0.51736 0.93797 0.0
H548 H 0.39815 0.52366 0.92106 0.0
O549 O 0.35678 0.56154 0.95682 0.0
H550 H 0.42988 0.58099 0.93082 0.0
H551 H 0.38158 0.49934 0.89741 0.0
Cu552 Cu 0.69979 0.78931 0.89104 0.0
N553 N 0.69591 0.80256 0.86823 0.0
N554 N 0.70251 0.81976 0.84218 0.0
C555 C 0.70958 0.8086 0.85618 0.0
C556 C 0.68359 0.82066 0.84551 0.0
C557 C 0.67959 0.81016 0.86165 0.0
O558 O 0.72257 0.77392 0.88784 0.0
C559 C 0.68755 0.81489 0.9195 0.0
O560 O 0.67104 0.80659 0.91661 0.0
H561 H 0.72448 0.80515 0.85784 0.0
H562 H 0.66586 0.80873 0.86852 0.0
N563 N 0.67945 0.7726 0.89578 0.0
N564 N 0.66057 0.75081 0.90948 0.0
C565 C 0.67534 0.76296 0.91193 0.0
C566 C 0.66689 0.7663 0.88275 0.0
C567 C 0.65525 0.75293 0.89112 0.0
C568 C 0.7394 0.78059 0.88715 0.0
O569 O 0.74217 0.79879 0.89053 0.0
H570 H 0.68343 0.76433 0.92499 0.0
H571 H 0.66656 0.77074 0.868 0.0
O572 O 0.7022 0.80878 0.91071 0.0
H573 H 0.67347 0.82897 0.83739 0.0
H574 H 0.64387 0.74521 0.88417 0.0
Cu575 Cu 0.47702 0.45072 0.14137 0.0
N576 N 0.46386 0.44623 0.11863 0.0
N577 N 0.44634 0.45268 0.09277 0.0
C578 C 0.45792 0.45979 0.10641 0.0
C579 C 0.44513 0.43386 0.09648 0.0
C580 C 0.45582 0.42996 0.11251 0.0
O581 O 0.49157 0.47405 0.13773 0.0
C582 C 0.44306 0.46288 0.15927 0.0
O583 O 0.44196 0.47433 0.14452 0.0
H584 H 0.46149 0.4747 0.10797 0.0
H585 H 0.45686 0.4164 0.11975 0.0
N586 N 0.49345 0.43042 0.14726 0.0
N587 N 0.51367 0.41144 0.1631 0.0
C588 C 0.50328 0.42769 0.16357 0.0
C589 C 0.49787 0.41548 0.13609 0.0
C590 C 0.51026 0.40376 0.1458 0.0
C591 C 0.50638 0.47315 0.12726 0.0
O592 O 0.51164 0.45652 0.12048 0.0
H593 H 0.50266 0.43735 0.17557 0.0
H594 H 0.49265 0.41334 0.12176 0.0
O595 O 0.45785 0.45258 0.16132 0.0
H596 H 0.43631 0.42381 0.08881 0.0
H597 H 0.51656 0.39077 0.14037 0.0
Cu598 Cu 0.81903 0.22871 0.38925 0.0
N599 N 0.82296 0.21551 0.36639 0.0
N600 N 0.8162 0.19779 0.34071 0.0
C601 C 0.80917 0.20885 0.35483 0.0
C602 C 0.83524 0.19761 0.34345 0.0
C603 C 0.83934 0.20843 0.35937 0.0
O604 O 0.79618 0.244 0.38598 0.0
C605 C 0.83131 0.2031 0.41759 0.0
O606 O 0.84777 0.21151 0.41473 0.0
H607 H 0.79421 0.21174 0.35696 0.0
H608 H 0.8532 0.21037 0.36582 0.0
N609 N 0.83924 0.24552 0.39421 0.0
N610 N 0.85787 0.26726 0.40833 0.0
C611 C 0.84315 0.25501 0.41051 0.0
C612 C 0.85187 0.25204 0.38136 0.0
C613 C 0.86336 0.26538 0.38999 0.0
C614 C 0.77936 0.23729 0.38554 0.0
O615 O 0.77663 0.21917 0.38933 0.0
H616 H 0.83496 0.25343 0.42349 0.0
H617 H 0.85235 0.24778 0.36656 0.0
O618 O 0.81663 0.20915 0.40881 0.0
H619 H 0.84539 0.18955 0.33509 0.0
H620 H 0.87477 0.27323 0.38322 0.0
Cu621 Cu 0.03953 0.57001 0.638 0.0
N622 N 0.05224 0.57456 0.61502 0.0
N623 N 0.06971 0.56815 0.5891 0.0
C624 C 0.05841 0.56098 0.60293 0.0
C625 C 0.07053 0.58705 0.59256 0.0
C626 C 0.05989 0.59093 0.60864 0.0
O627 O 0.0249 0.54675 0.63446 0.0
C628 C 0.0725 0.55536 0.65514 0.0
O629 O 0.07081 0.54246 0.64168 0.0
H630 H 0.0552 0.54601 0.6047 0.0
H631 H 0.05865 0.60455 0.61574 0.0
N632 N 0.02342 0.59038 0.64447 0.0
N633 N 1.00381 0.60951 0.66092 0.0
C634 C 0.01418 0.59324 0.66111 0.0
C635 C 0.01859 0.60523 0.63336 0.0
C636 C 1.0066 0.61705 0.64345 0.0
C637 C 0.00994 0.54764 0.62425 0.0
O638 O 1.00441 0.5643 0.61778 0.0
H639 H 0.01519 0.58367 0.67315 0.0
H640 H 0.02325 0.60722 0.61882 0.0
O641 O 0.05938 0.56771 0.65712 0.0
H642 H 0.07908 0.59718 0.58468 0.0
H643 H 1.00009 0.62998 0.63816 0.0
Cu644 Cu 0.69922 0.2255 0.63065 0.0
N645 N 0.69381 0.21311 0.65362 0.0
N646 N 0.69839 0.19713 0.68082 0.0
C647 C 0.70657 0.20753 0.66684 0.0
C648 C 0.67974 0.19621 0.6762 0.0
C649 C 0.677 0.20593 0.65936 0.0
O650 O 0.7228 0.23959 0.6346 0.0
C651 C 0.71363 0.19221 0.61441 0.0
O652 O 0.72608 0.19418 0.62825 0.0
H653 H 0.72162 0.21077 0.666 0.0
H654 H 0.6638 0.20717 0.65152 0.0
N655 N 0.67932 0.2423 0.6243 0.0
N656 N 0.66123 0.26393 0.60931 0.0
C657 C 0.67617 0.2518 0.60783 0.0
C658 C 0.66585 0.24857 0.63643 0.0
C659 C 0.65475 0.26186 0.62729 0.0
C660 C 0.72214 0.25413 0.64545 0.0
O661 O 0.70562 0.25942 0.65248 0.0
H662 H 0.68508 0.25041 0.59532 0.0
H663 H 0.66457 0.24425 0.65116 0.0
O664 O 0.70144 0.20537 0.61175 0.0
H665 H 0.66896 0.18844 0.68403 0.0
H666 H 0.64292 0.26959 0.63348 0.0
Cu667 Cu 0.04051 0.45571 0.87479 0.0
N668 N 0.05359 0.45106 0.8975 0.0
N669 N 0.07083 0.45742 0.92355 0.0
C670 C 0.05867 0.46437 0.91035 0.0
C671 C 0.0733 0.43892 0.91888 0.0
C672 C 0.06278 0.43509 0.90273 0.0
O673 O 0.02591 0.47902 0.87867 0.0
C674 C 0.07502 0.46738 0.85774 0.0
O675 O 0.07601 0.47867 0.87263 0.0
H676 H 0.05413 0.47908 0.90949 0.0
H677 H 0.06266 0.42189 0.89478 0.0
N678 N 0.0243 0.43526 0.8688 0.0
N679 N 1.00447 0.41584 0.853 0.0
C680 C 0.01428 0.43245 0.85262 0.0
C681 C 0.02058 0.42002 0.8798 0.0
C682 C 1.00844 0.40804 0.87012 0.0
C683 C 0.01112 0.47799 0.88915 0.0
O684 O 1.00582 0.46126 0.8956 0.0
H685 H 0.01441 0.44225 0.84072 0.0
H686 H 0.02621 0.4178 0.89396 0.0
O687 O 0.05997 0.45758 0.85514 0.0
H688 H 0.08288 0.42911 0.92593 0.0
H689 H 1.00271 0.39475 0.87543 0.0
Cu690 Cu 0.81768 0.79191 0.13132 0.0
N691 N 0.82407 0.80529 0.15342 0.0
N692 N 0.82087 0.82204 0.18036 0.0
C693 C 0.81179 0.81259 0.16625 0.0
C694 C 0.8396 0.82054 0.1762 0.0
C695 C 0.84152 0.81028 0.15953 0.0
O696 O 0.79281 0.78069 0.13632 0.0
C697 C 0.80706 0.82516 0.112 0.0
O698 O 0.79505 0.82657 0.1263 0.0
H699 H 0.7965 0.8109 0.16528 0.0
H700 H 0.85467 0.80682 0.15228 0.0
N701 N 0.83595 0.77289 0.12688 0.0
N702 N 0.85407 0.75045 0.11316 0.0
C703 C 0.84162 0.76491 0.11028 0.0
C704 C 0.84524 0.76329 0.1406 0.0
C705 C 0.85638 0.74951 0.13223 0.0
C706 C 0.78829 0.76357 0.13244 0.0
O707 O 0.80014 0.75294 0.12258 0.0
H708 H 0.83614 0.76909 0.09648 0.0
H709 H 0.84366 0.7659 0.15571 0.0
O710 O 0.81744 0.81034 0.1107 0.0
H711 H 0.8511 0.82671 0.1844 0.0
H712 H 0.86538 0.73943 0.13966 0.0
Cu713 Cu 0.47888 0.5675 0.37984 0.0
N714 N 0.46547 0.57172 0.40243 0.0
N715 N 0.44741 0.56498 0.42783 0.0
C716 C 0.4585 0.55791 0.41376 0.0
C717 C 0.44749 0.58404 0.42524 0.0
C718 C 0.45851 0.58813 0.40946 0.0
O719 O 0.49302 0.54388 0.38361 0.0
C720 C 0.45393 0.58024 0.35111 0.0
O721 O 0.46298 0.59639 0.3537 0.0
H722 H 0.46121 0.54292 0.41139 0.0
H723 H 0.46066 0.602 0.40312 0.0
N724 N 0.49601 0.58755 0.37484 0.0
N725 N 0.51774 0.60625 0.36079 0.0
C726 C 0.50595 0.59114 0.35872 0.0
C727 C 0.50173 0.60084 0.38741 0.0
C728 C 0.51509 0.61234 0.37884 0.0
C729 C 0.50736 0.54444 0.39472 0.0
O730 O 0.51241 0.56088 0.4021 0.0
H731 H 0.5049 0.58258 0.34594 0.0
H732 H 0.49687 0.60184 0.40199 0.0
O733 O 0.45933 0.5655 0.3602 0.0
H734 H 0.43948 0.59423 0.43359 0.0
H735 H 0.52235 0.62424 0.38542 0.0
Cu736 Cu 0.88977 0.70071 0.7925 0.0
N737 N 0.86676 0.69663 0.80526 0.0
N738 N 0.84082 0.70391 0.82235 0.0
C739 C 0.8544 0.7104 0.81035 0.0
C740 C 0.84473 0.68523 0.82474 0.0
C741 C 0.86082 0.68083 0.81433 0.0
O742 O 0.88636 0.72371 0.77745 0.0
C743 C 0.90661 0.7158 0.82533 0.0
O744 O 0.89316 0.72865 0.82326 0.0
H745 H 0.85587 0.72509 0.80593 0.0
H746 H 0.86829 0.66735 0.81427 0.0
N747 N 0.89606 0.67997 0.77678 0.0
N748 N 0.91198 0.66072 0.75687 0.0
C749 C 0.91215 0.67741 0.76655 0.0
C750 C 0.88531 0.66449 0.77332 0.0
C751 C 0.89508 0.6526 0.76114 0.0
C752 C 0.87614 0.72258 0.76251 0.0
O753 O 0.86972 0.70583 0.75721 0.0
H754 H 0.9238 0.6875 0.76636 0.0
H755 H 0.87123 0.6621 0.77905 0.0
O756 O 0.90878 0.70326 0.81241 0.0
H757 H 0.83721 0.67569 0.83423 0.0
H758 H 0.88994 0.63919 0.75553 0.0
Cu759 Cu 0.56894 0.63713 0.04167 0.0
N760 N 0.57438 0.61426 0.05422 0.0
N761 N 0.5702 0.58717 0.07049 0.0
C762 C 0.56171 0.60134 0.06063 0.0
C763 C 0.58897 0.59134 0.07023 0.0
C764 C 0.59148 0.60811 0.06031 0.0
O765 O 0.54555 0.63347 0.02739 0.0
C766 C 0.58171 0.66543 0.06699 0.0
O767 O 0.59784 0.66284 0.05787 0.0
H768 H 0.54654 0.60234 0.05819 0.0
H769 H 0.60477 0.61556 0.05807 0.0
N770 N 0.58821 0.64267 0.02392 0.0
N771 N 0.60598 0.65729 1.00179 0.0
C772 C 0.592 0.65928 0.01493 0.0
C773 C 0.60014 0.62985 0.01613 0.0
C774 C 0.6111 0.63878 1.00255 0.0
C775 C 0.5291 0.63181 0.03478 0.0
O776 O 0.52701 0.63431 0.05322 0.0
H777 H 0.58425 0.67236 0.01755 0.0
H778 H 0.60051 0.61488 0.01974 0.0
O779 O 0.56694 0.65641 0.06157 0.0
H780 H 0.60004 0.5832 0.07722 0.0
H781 H 0.62191 0.63212 0.9938 0.0
Cu782 Cu 0.62961 0.31748 0.29123 0.0
N783 N 0.65287 0.32178 0.30358 0.0
N784 N 0.67932 0.31506 0.32009 0.0
C785 C 0.66592 0.3084 0.30798 0.0
C786 C 0.67466 0.33347 0.32315 0.0
C787 C 0.65828 0.33752 0.31307 0.0
O788 O 0.63283 0.29524 0.27493 0.0
C789 C 0.61396 0.30752 0.32719 0.0
O790 O 0.63058 0.29938 0.32983 0.0
H791 H 0.66501 0.29379 0.3032 0.0
H792 H 0.65023 0.35065 0.31359 0.0
N793 N 0.62319 0.33831 0.27575 0.0
N794 N 0.60695 0.35758 0.25614 0.0
C795 C 0.60692 0.34091 0.26583 0.0
C796 C 0.6339 0.35377 0.2721 0.0
C797 C 0.62393 0.36568 0.26011 0.0
C798 C 0.63356 0.27817 0.28097 0.0
O799 O 0.63 0.27469 0.29899 0.0
H800 H 0.59527 0.33083 0.26586 0.0
H801 H 0.64808 0.35615 0.2776 0.0
O802 O 0.61019 0.31493 0.31104 0.0
H803 H 0.68182 0.34298 0.33295 0.0
H804 H 0.62899 0.37908 0.25442 0.0
Cu805 Cu 0.94905 0.38253 0.53899 0.0
N806 N 0.94357 0.40567 0.55111 0.0
N807 N 0.94763 0.43321 0.56663 0.0
C808 C 0.95611 0.41915 0.55656 0.0
C809 C 0.92902 0.42844 0.56737 0.0
C810 C 0.92659 0.41141 0.55789 0.0
O811 O 0.97234 0.38605 0.52429 0.0
C812 C 0.95708 0.36655 0.5751 0.0
O813 O 0.96513 0.38315 0.57807 0.0
H814 H 0.9712 0.41845 0.55355 0.0
H815 H 0.91347 0.40347 0.55651 0.0
N816 N 0.92951 0.37694 0.52165 0.0
N817 N 0.91147 0.36234 0.49975 0.0
C818 C 0.92534 0.36025 0.51298 0.0
C819 C 0.91784 0.38988 0.51369 0.0
C820 C 0.90673 0.38096 0.50024 0.0
C821 C 0.98906 0.38734 0.53117 0.0
O822 O 0.99175 0.38427 0.54941 0.0
H823 H 0.93289 0.34709 0.5157 0.0
H824 H 0.91785 0.40492 0.51701 0.0
O825 O 0.95018 0.36288 0.5587 0.0
H826 H 0.91806 0.4363 0.57486 0.0
H827 H 0.89615 0.38773 0.4913 0.0
Cu828 Cu 0.88655 0.31984 0.72768 0.0
N829 N 0.86315 0.32502 0.71595 0.0
N830 N 0.83538 0.3204 0.70101 0.0
C831 C 0.84937 0.31239 0.71152 0.0
C832 C 0.84051 0.3388 0.69887 0.0
C833 C 0.85769 0.34156 0.70796 0.0
O834 O 0.88329 0.29725 0.74349 0.0
C835 C 0.90134 0.31045 0.69122 0.0
O836 O 0.8845 0.30271 0.68875 0.0
H837 H 0.84988 0.2975 0.71545 0.0
H838 H 0.866 0.35452 0.7081 0.0
N839 N 0.89339 0.34024 0.74359 0.0
N840 N 0.91009 0.35965 0.7627 0.0
C841 C 0.9103 0.34345 0.7522 0.0
C842 C 0.88211 0.35477 0.74899 0.0
C843 C 0.89235 0.36677 0.76065 0.0
C844 C 0.88211 0.28032 0.73712 0.0
O845 O 0.88496 0.27716 0.71891 0.0
H846 H 0.92252 0.33415 0.7507 0.0
H847 H 0.86736 0.35644 0.74492 0.0
O848 O 0.90555 0.31748 0.70745 0.0
H849 H 0.83285 0.3493 0.69058 0.0
H850 H 0.88698 0.37951 0.76747 0.0
Cu851 Cu 0.94828 0.63997 0.9791 0.0
N852 N 0.94292 0.61753 0.96581 0.0
N853 N 0.94754 0.59087 0.9489 0.0
C854 C 0.95577 0.60474 0.95943 0.0
C855 C 0.92879 0.59518 0.94865 0.0
C856 C 0.92602 0.61169 0.95894 0.0
O857 O 0.97212 0.63551 0.99269 0.0
C858 C 0.93614 0.66889 0.95407 0.0
O859 O 0.9198 0.66639 0.96284 0.0
H860 H 0.97088 0.60574 0.96232 0.0
H861 H 0.9127 0.6192 0.96085 0.0
N862 N 0.92858 0.64565 0.99647 0.0
N863 N 0.91042 0.66013 0.01842 0.0
C864 C 0.92547 0.66183 1.00646 0.0
C865 C 0.91502 0.63343 1.0023 0.0
C866 C 0.90386 0.64227 0.01578 0.0
C867 C 0.97176 0.62719 1.00882 0.0
O868 O 0.95525 0.62292 0.01649 0.0
H869 H 0.93435 0.67438 1.00535 0.0
H870 H 0.91362 0.61889 0.99744 0.0
O871 O 0.95069 0.6596 0.95964 0.0
H872 H 0.91792 0.58733 0.94104 0.0
H873 H 0.89185 0.63598 0.02312 0.0
Cu874 Cu 0.63147 0.70013 0.23015 0.0
N875 N 0.65459 0.69453 0.21807 0.0
N876 N 0.68149 0.69875 0.20141 0.0
C877 C 0.66777 0.70713 0.21207 0.0
C878 C 0.67682 0.68008 0.20105 0.0
C879 C 0.66022 0.67756 0.21123 0.0
O880 O 0.63571 0.72293 0.24552 0.0
C881 C 0.61646 0.71123 0.1947 0.0
O882 O 0.63243 0.7209 0.19398 0.0
H883 H 0.66658 0.7223 0.21451 0.0
H884 H 0.65241 0.6644 0.21292 0.0
N885 N 0.62543 0.6802 0.2469 0.0
N886 N 0.61059 0.66172 0.26828 0.0
C887 C 0.60865 0.67588 0.25532 0.0
C888 C 0.63827 0.66835 0.25476 0.0
C889 C 0.62921 0.65697 0.26787 0.0
C890 C 0.6333 0.74023 0.24069 0.0
O891 O 0.62554 0.74424 0.22417 0.0
H892 H 0.59552 0.68352 0.25267 0.0
H893 H 0.65336 0.66844 0.25164 0.0
O894 O 0.61239 0.70215 0.2099 0.0
H895 H 0.68453 0.669 0.1936 0.0
H896 H 0.63589 0.64622 0.27667 0.0
Cu897 Cu 0.56899 0.37956 0.48009 0.0
N898 N 0.57424 0.40258 0.46765 0.0
N899 N 0.56997 0.42994 0.45188 0.0
C900 C 0.56163 0.41602 0.46222 0.0
C901 C 0.58858 0.42515 0.45095 0.0
C902 C 0.59113 0.40823 0.46058 0.0
O903 O 0.54601 0.38325 0.49525 0.0
C904 C 0.56029 0.36327 0.44427 0.0
O905 O 0.55235 0.37991 0.44122 0.0
H906 H 0.54658 0.41538 0.46544 0.0
H907 H 0.60428 0.40029 0.46187 0.0
N908 N 0.58893 0.374 0.49701 0.0
N909 N 0.60764 0.3594 0.51836 0.0
C910 C 0.59342 0.3573 0.50549 0.0
C911 C 0.60074 0.38696 0.50471 0.0
C912 C 0.61227 0.37805 0.51781 0.0
C913 C 0.5292 0.38463 0.48862 0.0
O914 O 0.52624 0.38156 0.47041 0.0
H915 H 0.58587 0.34411 0.5029 0.0
H916 H 0.60059 0.40201 0.50143 0.0
O917 O 0.56736 0.35971 0.46063 0.0
H918 H 0.59944 0.43291 0.44324 0.0
H919 H 0.62305 0.38484 0.52648 0.0
Cu920 Cu 0.78911 0.88654 0.70059 0.0
N921 N 0.80133 0.86339 0.69544 0.0
N922 N 0.81695 0.83595 0.69975 0.0
C923 C 0.80673 0.84999 0.70809 0.0
C924 C 0.81784 0.84065 0.68112 0.0
C925 C 0.80831 0.85761 0.67854 0.0
O926 O 0.77405 0.88324 0.72374 0.0
C927 C 0.82509 0.90251 0.70897 0.0
O928 O 0.82779 0.88599 0.71728 0.0
H929 H 0.80361 0.85076 0.72316 0.0
H930 H 0.80704 0.86551 0.66538 0.0
N931 N 0.7721 0.89188 0.68068 0.0
N932 N 0.75075 0.90622 0.66178 0.0
C933 C 0.76354 0.9085 0.67605 0.0
C934 C 0.76452 0.87878 0.66894 0.0
C935 C 0.75144 0.88754 0.65729 0.0
C936 C 0.78064 0.88247 0.74062 0.0
O937 O 0.79879 0.88582 0.74354 0.0
H938 H 0.76607 0.92177 0.68347 0.0
H939 H 0.7679 0.86376 0.66919 0.0
O940 O 0.80882 0.9062 0.70177 0.0
H941 H 0.8255 0.83281 0.67027 0.0
H942 H 0.74292 0.8806 0.64647 0.0
Cu943 Cu 0.29071 0.6301 0.31782 0.0
N944 N 0.30289 0.6534 0.32226 0.0
N945 N 0.31944 0.67992 0.31609 0.0
C946 C 0.30844 0.66591 0.30881 0.0
C947 C 0.32057 0.67623 0.33493 0.0
C948 C 0.31046 0.65979 0.33866 0.0
O949 O 0.2748 0.63379 0.29533 0.0
C950 C 0.32583 0.61472 0.30597 0.0
O951 O 0.32614 0.63024 0.29554 0.0
H952 H 0.30514 0.66427 0.29384 0.0
H953 H 0.30948 0.65251 0.3522 0.0
N954 N 0.27456 0.62442 0.33835 0.0
N955 N 0.25339 0.60988 0.3573 0.0
C956 C 0.26575 0.60784 0.34261 0.0
C957 C 0.26759 0.63723 0.35079 0.0
C958 C 0.25461 0.62835 0.36246 0.0
C959 C 0.27891 0.63001 0.27807 0.0
O960 O 0.29479 0.62097 0.27409 0.0
H961 H 0.26765 0.59483 0.33455 0.0
H962 H 0.2712 0.6522 0.35091 0.0
O963 O 0.31095 0.61103 0.31573 0.0
H964 H 0.32901 0.68418 0.34509 0.0
H965 H 0.24641 0.63507 0.37367 0.0
Cu966 Cu 0.64215 0.03808 0.56441 0.0
N967 N 0.61948 0.0513 0.56871 0.0
N968 N 0.59378 0.06902 0.56228 0.0
C969 C 0.60846 0.05892 0.555 0.0
C970 C 0.59567 0.06763 0.58139 0.0
C971 C 0.61161 0.05678 0.5853 0.0
O972 O 0.63879 0.02588 0.53963 0.0
C973 C 0.66895 0.06342 0.5799 0.0
O974 O 0.66414 0.05489 0.59584 0.0
H975 H 0.61134 0.05718 0.53995 0.0
H976 H 0.61734 0.05352 0.59923 0.0
N977 N 0.64602 0.01985 0.58365 0.0
N978 N 0.65912 0.99772 0.60257 0.0
C979 C 0.66232 0.01115 0.5891 0.0
C980 C 0.63216 0.01171 0.59406 0.0
C981 C 0.64015 0.99813 0.60571 0.0
C982 C 0.64004 1.00801 0.53668 0.0
O983 O 0.64611 0.99684 0.5504 0.0
H984 H 0.67609 0.01413 0.58283 0.0
H985 H 0.61718 0.01513 0.59294 0.0
O986 O 0.66193 0.05752 0.56425 0.0
H987 H 0.58659 0.07445 0.59182 0.0
H988 H 0.63252 0.98913 0.61564 0.0
Cu989 Cu 0.22848 0.39104 0.81694 0.0
N990 N 0.21587 0.3681 0.82215 0.0
N991 N 0.19914 0.34128 0.81769 0.0
C992 C 0.20973 0.35509 0.80941 0.0
C993 C 0.19891 0.34573 0.83643 0.0
C994 C 0.20915 0.36226 0.8391 0.0
O995 O 0.24359 0.38717 0.79388 0.0
C996 C 0.19283 0.40775 0.80815 0.0
O997 O 0.18988 0.3913 0.79977 0.0
H998 H 0.21214 0.35635 0.79425 0.0
H999 H 0.21108 0.36983 0.85238 0.0
N1000 N 0.24555 0.3963 0.83684 0.0
N1001 N 0.26696 0.41057 0.85575 0.0
C1002 C 0.25385 0.41296 0.84179 0.0
C1003 C 0.25362 0.38306 0.84809 0.0
C1004 C 0.26675 0.39177 0.85973 0.0
C1005 C 0.23716 0.38628 0.77695 0.0
O1006 O 0.21913 0.39008 0.77378 0.0
H1007 H 0.25096 0.42637 0.83475 0.0
H1008 H 0.25056 0.36798 0.84746 0.0
O1009 O 0.20909 0.41108 0.81555 0.0
H1010 H 0.19162 0.33783 0.84747 0.0
H1011 H 0.27567 0.38474 0.87016 0.0
Cu1012 Cu 0.37806 0.47902 0.56796 0.0
N1013 N 0.40146 0.46677 0.57163 0.0
N1014 N 0.42799 0.4505 0.56463 0.0
C1015 C 0.41401 0.46192 0.55793 0.0
C1016 C 0.42423 0.4484 0.58338 0.0
C1017 C 0.40781 0.45835 0.58762 0.0
O1018 O 0.38055 0.49487 0.54527 0.0
C1019 C 0.36206 0.4432 0.5588 0.0
O1020 O 0.37823 0.44097 0.5497 0.0
H1021 H 0.41241 0.466 0.54316 0.0
H1022 H 0.40048 0.45864 0.60118 0.0
N1023 N 0.3732 0.49527 0.5886 0.0
N1024 N 0.35933 0.51658 0.6079 0.0
C1025 C 0.35685 0.50434 0.5932 0.0
C1026 C 0.38634 0.50193 0.60084 0.0
C1027 C 0.37786 0.51503 0.61273 0.0
C1028 C 0.38062 0.4889 0.52815 0.0
O1029 O 0.37674 0.47095 0.52466 0.0
H1030 H 0.34367 0.50266 0.58538 0.0
H1031 H 0.40124 0.498 0.60072 0.0
O1032 O 0.35852 0.45917 0.56674 0.0
H1033 H 0.43211 0.43941 0.59312 0.0
H1034 H 0.38489 0.52302 0.62389 0.0
Cu1035 Cu 0.72867 0.12848 0.20099 0.0
N1036 N 0.71651 0.15187 0.1969 0.0
N1037 N 0.70015 0.17835 0.20387 0.0
C1038 C 0.71214 0.16479 0.21042 0.0
C1039 C 0.69714 0.17395 0.18539 0.0
C1040 C 0.70712 0.15754 0.18118 0.0
O1041 O 0.74504 0.13141 0.22327 0.0
C1042 C 0.69255 0.11311 0.21086 0.0
O1043 O 0.69022 0.12956 0.21945 0.0
H1044 H 0.71684 0.16364 0.22504 0.0
H1045 H 0.70661 0.14965 0.16796 0.0
N1046 N 0.74408 0.12231 0.18002 0.0
N1047 N 0.76338 0.10634 0.16017 0.0
C1048 C 0.75363 0.10591 0.17683 0.0
C1049 C 0.74806 0.1335 0.16499 0.0
C1050 C 0.75985 0.1237 0.15272 0.0
C1051 C 0.73917 0.13186 0.24043 0.0
O1052 O 0.7212 0.12821 0.24405 0.0
H1053 H 0.7533 0.09388 0.18646 0.0
H1054 H 0.74292 0.1479 0.16314 0.0
O1055 O 0.70862 0.10927 0.20326 0.0
H1056 H 0.6874 0.18128 0.17595 0.0
H1057 H 0.76572 0.12914 0.13954 0.0
Cu1058 Cu 0.64189 0.97702 0.95169 0.0
N1059 N 0.61902 0.96412 0.94743 0.0
N1060 N 0.59318 0.94666 0.95402 0.0
C1061 C 0.60704 0.95797 0.9611 0.0
C1062 C 0.59652 0.94583 0.93508 0.0
C1063 C 0.61254 0.9565 0.93109 0.0
O1064 O 0.63843 0.99132 0.97525 0.0
C1065 C 0.65945 0.94435 0.96601 0.0
O1066 O 0.64653 0.94657 0.97939 0.0
H1067 H 0.60887 0.9613 0.97604 0.0
H1068 H 0.61947 0.95789 0.91739 0.0
N1069 N 0.64727 0.99361 0.93138 0.0
N1070 N 0.66154 0.01511 0.91262 0.0
C1071 C 0.66358 1.0031 0.92757 0.0
C1072 C 0.63464 0.99973 0.91832 0.0
C1073 C 0.64335 0.01297 0.9068 0.0
C1074 C 0.62717 1.00556 0.97474 0.0
O1075 O 0.61965 0.01049 0.95834 0.0
H1076 H 0.6764 1.0018 0.93602 0.0
H1077 H 0.61991 0.99532 0.91761 0.0
O1078 O 0.66116 0.95722 0.95336 0.0
H1079 H 0.58856 0.93737 0.92495 0.0
H1080 H 0.63674 0.02062 0.89516 0.0
Cu1081 Cu 0.87916 0.04155 0.45285 0.0
N1082 N 0.90187 0.05417 0.44714 0.0
N1083 N 0.92805 0.07187 0.45143 0.0
C1084 C 0.91367 0.06226 0.45992 0.0
C1085 C 0.92513 0.06959 0.43253 0.0
C1086 C 0.90896 0.05873 0.42994 0.0
O1087 O 0.88329 0.02988 0.47772 0.0
C1088 C 0.86075 0.07436 0.46546 0.0
O1089 O 0.87318 0.07256 0.47933 0.0
H1090 H 0.91129 0.06166 0.47513 0.0
H1091 H 0.90259 0.05477 0.41648 0.0
N1092 N 0.87431 0.02297 0.43423 0.0
N1093 N 0.8602 1.00092 0.41596 0.0
C1094 C 0.85758 0.01531 0.42857 0.0
C1095 C 0.88784 0.01324 0.42478 0.0
C1096 C 0.87924 0.9997 0.41354 0.0
C1097 C 0.87933 0.01268 0.48188 0.0
O1098 O 0.86993 1.00219 0.46958 0.0
H1099 H 0.84388 0.01961 0.4342 0.0
H1100 H 0.90299 0.01553 0.42636 0.0
O1101 O 0.85967 0.06122 0.45301 0.0
H1102 H 0.93395 0.07542 0.42131 0.0
H1103 H 0.88649 0.98958 0.40443 0.0
H1104 H 0.13226 0.15022 0.47503 0.0
H1105 H 0.15234 0.25859 0.44706 0.0
H1106 H 0.10037 0.19586 0.50124 0.0
H1107 H 0.15996 0.2112 0.4088 0.0
H1108 H 0.13845 0.23662 0.47083 0.0
H1109 H 0.14807 0.17328 0.45469 0.0
C1110 C 0.12846 0.16508 0.47654 0.0
C1111 C 0.1145 0.17092 0.48968 0.0
C1112 C 0.14324 0.2311 0.45723 0.0
C1113 C 0.13314 0.19768 0.46645 0.0
C1114 C 0.15123 0.24356 0.44377 0.0
C1115 C 0.15718 0.23667 0.42593 0.0
C1116 C 0.14167 0.2116 0.45293 0.0
C1117 C 0.15535 0.21712 0.42227 0.0
C1118 C 0.13763 0.17828 0.46491 0.0
C1119 C 0.11091 0.1906 0.49131 0.0
N1120 N 0.14787 0.2053 0.43564 0.0
N1121 N 0.1201 0.20328 0.47976 0.0
H1122 H 0.06886 0.85864 0.7584 0.0
H1123 H 0.05188 0.8971 0.65247 0.0
H1124 H 0.11394 0.86882 0.71795 0.0
H1125 H 0.01032 0.90565 0.69689 0.0
H1126 H 0.0736 0.88326 0.67578 0.0
H1127 H 0.04594 0.87234 0.73559 0.0
C1128 C 0.0739 0.86365 0.74471 0.0
C1129 C 0.09336 0.86267 0.74011 0.0
C1130 C 0.05974 0.88817 0.6805 0.0
C1131 C 0.06732 0.87824 0.71402 0.0
C1132 C 0.04728 0.89597 0.66715 0.0
C1133 C 0.02921 0.90249 0.67271 0.0
C1134 C 0.05412 0.88658 0.69964 0.0
C1135 C 0.02416 0.90092 0.69203 0.0
C1136 C 0.06087 0.87158 0.73178 0.0
C1137 C 0.09915 0.86951 0.72222 0.0
N1138 N 0.0365 0.893 0.70481 0.0
N1139 N 0.08623 0.87689 0.70986 0.0
H1140 H 0.40413 0.8214 1.00793 0.0
H1141 H 0.37843 0.79657 0.90001 0.0
H1142 H 0.40741 0.8616 0.96169 0.0
H1143 H 0.35017 0.76774 0.94641 0.0
H1144 H 0.39481 0.81669 0.92286 0.0
H1145 H 0.38961 0.79803 0.98597 0.0
C1146 C 0.40192 0.82522 0.99315 0.0
C1147 C 0.40686 0.84347 0.9866 0.0
C1148 C 0.38505 0.80594 0.92807 0.0
C1149 C 0.39061 0.81692 0.96152 0.0
C1150 C 0.37555 0.79444 0.91499 0.0
C1151 C 0.36243 0.78062 0.92115 0.0
C1152 C 0.38174 0.8036 0.94762 0.0
C1153 C 0.36004 0.77821 0.94093 0.0
C1154 C 0.39356 0.81197 0.9807 0.0
C1155 C 0.40362 0.84779 0.96736 0.0
N1156 N 0.36953 0.78966 0.95349 0.0
N1157 N 0.39582 0.83462 0.95553 0.0
H1158 H 0.44921 0.1602 0.25683 0.0
H1159 H 0.46473 0.11704 0.15244 0.0
H1160 H 0.40367 0.14826 0.21741 0.0
H1161 H 0.50762 0.11194 0.19606 0.0
H1162 H 0.44317 0.13131 0.17563 0.0
H1163 H 0.47185 0.14543 0.2344 0.0
C1164 C 0.44399 0.15454 0.24346 0.0
C1165 C 0.42448 0.1554 0.23904 0.0
C1166 C 0.45727 0.12706 0.18021 0.0
C1167 C 0.45024 0.13859 0.21336 0.0
C1168 C 0.46965 0.11901 0.16692 0.0
C1169 C 0.48807 0.11336 0.17227 0.0
C1170 C 0.4633 0.12978 0.1991 0.0
C1171 C 0.49352 0.11599 0.19137 0.0
C1172 C 0.45688 0.14602 0.23074 0.0
C1173 C 0.41849 0.14771 0.22157 0.0
N1174 N 0.48124 0.12415 0.20409 0.0
N1175 N 0.43128 0.13976 0.20939 0.0
H1176 H 0.15486 0.75532 0.06849 0.0
H1177 H 0.1362 0.86469 0.04433 0.0
H1178 H 0.15991 0.80075 0.10943 0.0
H1179 H 0.10379 0.82074 0.01604 0.0
H1180 H 0.15109 0.84059 0.06413 0.0
H1181 H 0.14177 0.77834 0.04523 0.0
C1182 C 0.15334 0.77014 0.07248 0.0
C1183 C 0.15835 0.77617 0.0909 0.0
C1184 C 0.14074 0.8362 0.05356 0.0
C1185 C 0.1438 0.80243 0.0645 0.0
C1186 C 0.1321 0.85 0.04223 0.0
C1187 C 0.11823 0.84496 0.02869 0.0
C1188 C 0.13586 0.81698 0.05128 0.0
C1189 C 0.11426 0.82542 0.02631 0.0
C1190 C 0.14581 0.78319 0.05931 0.0
C1191 C 0.15604 0.79549 0.09546 0.0
N1192 N 0.12297 0.81213 0.03756 0.0
N1193 N 0.14907 0.8079 0.08236 0.0
H1194 H 0.50791 0.90498 0.32257 0.0
H1195 H 0.40055 0.87576 0.29757 0.0
H1196 H 0.46143 0.9066 0.36272 0.0
H1197 H 0.4478 0.85884 0.26213 0.0
H1198 H 0.42281 0.88972 0.32021 0.0
H1199 H 0.48634 0.8907 0.29886 0.0
C1200 C 0.49319 0.9024 0.32637 0.0
C1201 C 0.48652 0.9069 0.34471 0.0
C1202 C 0.42839 0.88296 0.30751 0.0
C1203 C 0.4618 0.89066 0.31772 0.0
C1204 C 0.41564 0.87507 0.29448 0.0
C1205 C 0.42228 0.86618 0.27783 0.0
C1206 C 0.44805 0.88219 0.30391 0.0
C1207 C 0.44207 0.86545 0.27482 0.0
C1208 C 0.48094 0.89415 0.31289 0.0
C1209 C 0.46732 0.90313 0.3489 0.0
N1210 N 0.45428 0.87346 0.28768 0.0
N1211 N 0.45569 0.89534 0.33554 0.0
H1212 H 0.36958 0.21505 0.61684 0.0
H1213 H 0.4086 0.1966 0.51114 0.0
H1214 H 0.36211 0.25627 0.57194 0.0
H1215 H 0.40033 0.15257 0.55312 0.0
H1216 H 0.39462 0.21983 0.53347 0.0
H1217 H 0.38388 0.19315 0.59401 0.0
C1218 C 0.37106 0.21956 0.60217 0.0
C1219 C 0.36469 0.2376 0.59635 0.0
C1220 C 0.39585 0.20506 0.53772 0.0
C1221 C 0.38109 0.21239 0.56991 0.0
C1222 C 0.40393 0.19184 0.52505 0.0
C1223 C 0.40554 0.17257 0.5302 0.0
C1224 C 0.38963 0.19899 0.55578 0.0
C1225 C 0.39914 0.16717 0.54838 0.0
C1226 C 0.37912 0.20697 0.58908 0.0
C1227 C 0.36671 0.24247 0.57702 0.0
N1228 N 0.39157 0.18027 0.56047 0.0
N1229 N 0.37483 0.22998 0.56449 0.0
H1230 H 0.07562 0.15581 0.76059 0.0
H1231 H 0.05191 0.1252 0.868 0.0
H1232 H 0.11562 0.15861 0.8071 0.0
H1233 H 0.01593 0.10907 0.82093 0.0
H1234 H 0.07417 0.13969 0.84569 0.0
H1235 H 0.05228 0.14097 0.7822 0.0
C1236 C 0.07947 0.15338 0.77532 0.0
C1237 C 0.09767 0.15836 0.78199 0.0
C1238 C 0.06144 0.13298 0.84015 0.0
C1239 C 0.07111 0.14145 0.80674 0.0
C1240 C 0.04864 0.12478 0.85294 0.0
C1241 C 0.03195 0.11597 0.84637 0.0
C1242 C 0.05758 0.1326 0.82052 0.0
C1243 C 0.02868 0.1156 0.8266 0.0
C1244 C 0.06621 0.14481 0.7876 0.0
C1245 C 0.10193 0.15476 0.80121 0.0
N1246 N 0.04132 0.1239 0.81437 0.0
N1247 N 0.08878 0.14662 0.81284 0.0
H1248 H 0.21043 0.40775 0.16558 0.0
H1249 H 0.19537 0.50018 0.10219 0.0
H1250 H 0.25718 0.44609 0.15514 0.0
H1251 H 0.15069 0.474 0.13536 0.0
H1252 H 0.21876 0.48009 0.11886 0.0
H1253 H 0.18866 0.43077 0.15132 0.0
C1254 C 0.21611 0.42103 0.16021 0.0
C1255 C 0.23564 0.42499 0.16147 0.0
C1256 C 0.20381 0.47891 0.1225 0.0
C1257 C 0.21074 0.45152 0.145 0.0
C1258 C 0.19044 0.49041 0.11304 0.0
C1259 C 0.17087 0.4886 0.11704 0.0
C1260 C 0.19754 0.46539 0.13588 0.0
C1261 C 0.16545 0.47559 0.13128 0.0
C1262 C 0.20366 0.43425 0.15218 0.0
C1263 C 0.24219 0.44257 0.15449 0.0
N1264 N 0.17862 0.46441 0.13995 0.0
N1265 N 0.22979 0.45516 0.14635 0.0
H1266 H 0.7597 0.06975 0.86073 0.0
H1267 H 0.65434 0.05037 0.89899 0.0
H1268 H 0.71916 0.11435 0.87252 0.0
H1269 H 0.69989 0.01045 0.90901 0.0
H1270 H 0.67728 0.07273 0.88542 0.0
H1271 H 0.73737 0.04645 0.87455 0.0
C1272 C 0.74609 0.0746 0.86614 0.0
C1273 C 0.7413 0.09402 0.86556 0.0
C1274 C 0.68231 0.0591 0.8906 0.0
C1275 C 0.71575 0.06755 0.8812 0.0
C1276 C 0.6692 0.04629 0.89825 0.0
C1277 C 0.67521 0.0285 0.9051 0.0
C1278 C 0.70163 0.05406 0.88946 0.0
C1279 C 0.6947 0.02407 0.90401 0.0
C1280 C 0.73344 0.06136 0.87413 0.0
C1281 C 0.72354 0.09958 0.87289 0.0
N1282 N 0.70723 0.0367 0.89619 0.0
N1283 N 0.7114 0.08644 0.88027 0.0
H1284 H 0.80109 0.90214 0.37429 0.0
H1285 H 0.82334 1.00921 0.40681 0.0
H1286 H 0.76374 0.94877 0.36009 0.0
H1287 H 0.86471 0.9638 0.4065 0.0
H1288 H 0.80002 0.98742 0.39225 0.0
H1289 H 0.82329 0.92459 0.38863 0.0
C1290 C 0.7975 0.91713 0.37427 0.0
C1291 C 0.78045 0.92354 0.36604 0.0
C1292 C 0.81423 0.98229 0.39534 0.0
C1293 C 0.806 0.94954 0.38249 0.0
C1294 C 0.82749 0.99468 0.40375 0.0
C1295 C 0.84606 0.98837 0.40778 0.0
C1296 C 0.81952 0.96341 0.3912 0.0
C1297 C 0.8507 0.96941 0.4034 0.0
C1298 C 0.81027 0.92999 0.38238 0.0
C1299 C 0.77677 0.94323 0.36617 0.0
N1300 N 0.83755 0.95765 0.39545 0.0
N1301 N 0.78939 0.95554 0.37437 0.0
H1302 H 0.8492 0.01983 0.14307 0.0
H1303 H 0.77076 0.09999 0.12271 0.0
H1304 H 0.82919 0.03378 0.08669 0.0
H1305 H 0.7837 0.07921 0.17905 0.0
H1306 H 0.79246 0.07628 0.10929 0.0
H1307 H 0.82579 0.04185 0.15651 0.0
C1308 C 0.8399 0.02754 0.13349 0.0
C1309 C 0.84128 0.02498 0.11367 0.0
C1310 C 0.7905 0.07683 0.12458 0.0
C1311 C 0.81429 0.05028 0.12904 0.0
C1312 C 0.77818 0.09046 0.13228 0.0
C1313 C 0.77545 0.09171 0.15208 0.0
C1314 C 0.80038 0.06438 0.13674 0.0
C1315 C 0.78525 0.07872 0.16372 0.0
C1316 C 0.82644 0.04005 0.1412 0.0
C1317 C 0.82859 0.03517 0.10202 0.0
N1318 N 0.79736 0.06571 0.1559 0.0
N1319 N 0.81575 0.04745 0.10986 0.0
H1320 H 0.26084 0.57119 0.65962 0.0
H1321 H 0.36646 0.55192 0.62153 0.0
H1322 H 0.30165 0.61565 0.64847 0.0
H1323 H 0.32111 0.51157 0.61242 0.0
H1324 H 0.34357 0.57414 0.63538 0.0
H1325 H 0.28338 0.54778 0.6463 0.0
C1326 C 0.27457 0.57599 0.65449 0.0
C1327 C 0.27936 0.5954 0.65507 0.0
C1328 C 0.33857 0.56044 0.63036 0.0
C1329 C 0.30515 0.56881 0.63996 0.0
C1330 C 0.35167 0.54768 0.62255 0.0
C1331 C 0.3457 0.52982 0.61585 0.0
C1332 C 0.3193 0.55529 0.63176 0.0
C1333 C 0.32627 0.52524 0.6173 0.0
C1334 C 0.28735 0.56268 0.64678 0.0
C1335 C 0.29728 0.60089 0.64809 0.0
N1336 N 0.31375 0.53785 0.62522 0.0
N1337 N 0.30951 0.58769 0.64093 0.0
H1338 H 0.21772 0.61638 0.37029 0.0
H1339 H 0.19973 0.51091 0.40905 0.0
H1340 H 0.25896 0.5717 0.36169 0.0
H1341 H 0.15484 0.55108 0.39716 0.0
H1342 H 0.22293 0.53348 0.3954 0.0
H1343 H 0.19572 0.59318 0.38386 0.0
C1344 C 0.22219 0.60167 0.37135 0.0
C1345 C 0.24024 0.59599 0.3649 0.0
C1346 C 0.20798 0.53727 0.39576 0.0
C1347 C 0.21503 0.5692 0.38051 0.0
C1348 C 0.19479 0.52448 0.40364 0.0
C1349 C 0.17532 0.52908 0.40415 0.0
C1350 C 0.20165 0.55491 0.38869 0.0
C1351 C 0.16965 0.54681 0.39684 0.0
C1352 C 0.20957 0.58838 0.379 0.0
C1353 C 0.24513 0.57663 0.36639 0.0
N1354 N 0.18272 0.55906 0.38954 0.0
N1355 N 0.23264 0.56392 0.37417 0.0
H1356 H 0.31786 0.5088 0.91173 0.0
H1357 H 0.30325 0.40486 0.86732 0.0
H1358 H 0.36382 0.47026 0.89849 0.0
H1359 H 0.25997 0.44818 0.86268 0.0
H1360 H 0.32457 0.42805 0.88189 0.0
H1361 H 0.29534 0.48625 0.89699 0.0
C1362 C 0.32319 0.4956 0.90581 0.0
C1363 C 0.34278 0.49147 0.90626 0.0
C1364 C 0.31043 0.43257 0.87769 0.0
C1365 C 0.31718 0.46565 0.8895 0.0
C1366 C 0.29819 0.41927 0.86946 0.0
C1367 C 0.27974 0.42454 0.86384 0.0
C1368 C 0.30423 0.45136 0.88061 0.0
C1369 C 0.27411 0.44355 0.8667 0.0
C1370 C 0.31037 0.48282 0.8973 0.0
C1371 C 0.34892 0.4742 0.89825 0.0
N1372 N 0.28626 0.45627 0.87502 0.0
N1373 N 0.33621 0.46195 0.89032 0.0
H1374 H 0.6105 0.69528 1.0082 0.0
H1375 H 0.64613 0.71589 0.90192 0.0
H1376 H 0.61832 0.65164 0.96568 0.0
H1377 H 0.65714 0.75507 0.94791 0.0
H1378 H 0.63237 0.6935 0.92466 0.0
H1379 H 0.62403 0.71876 0.98591 0.0
C1380 C 0.61496 0.69068 0.99417 0.0
C1381 C 0.61336 0.67146 0.98882 0.0
C1382 C 0.6378 0.70698 0.92983 0.0
C1383 C 0.62872 0.69815 0.9633 0.0
C1384 C 0.64556 0.71983 0.91682 0.0
C1385 C 0.65276 0.73742 0.92301 0.0
C1386 C 0.63695 0.71175 0.94925 0.0
C1387 C 0.65188 0.74161 0.94258 0.0
C1388 C 0.62279 0.70403 0.98152 0.0
C1389 C 0.6195 0.66623 0.97051 0.0
N1390 N 0.644 0.72892 0.95501 0.0
N1391 N 0.6268 0.67947 0.95843 0.0
H1392 H 0.58094 0.33766 0.23541 0.0
H1393 H 0.53324 0.43121 0.19013 0.0
H1394 H 0.5994 0.39477 0.24845 0.0
H1395 H 0.5226 0.37433 0.16951 0.0
H1396 H 0.55515 0.41806 0.2139 0.0
H1397 H 0.55712 0.35077 0.21355 0.0
C1398 C 0.5799 0.35295 0.23381 0.0
C1399 C 0.59229 0.3651 0.24375 0.0
C1400 C 0.54799 0.40846 0.20419 0.0
C1401 C 0.56506 0.38025 0.21864 0.0
C1402 C 0.53538 0.41595 0.19068 0.0
C1403 C 0.5261 0.40389 0.1777 0.0
C1404 C 0.55126 0.3887 0.20488 0.0
C1405 C 0.52962 0.38421 0.17901 0.0
C1406 C 0.56636 0.36044 0.22123 0.0
C1407 C 0.59037 0.38483 0.24091 0.0
N1408 N 0.54187 0.37726 0.19232 0.0
N1409 N 0.57704 0.39177 0.22866 0.0
H1410 H 0.9001 0.36817 0.4634 0.0
H1411 H 0.86043 0.26273 0.4468 0.0
H1412 H 0.90612 0.3244 0.50602 0.0
H1413 H 0.87269 0.30218 0.40138 0.0
H1414 H 0.87396 0.28559 0.46973 0.0
H1415 H 0.88689 0.34469 0.44147 0.0
C1416 C 0.89855 0.3536 0.46818 0.0
C1417 C 0.90415 0.34827 0.48662 0.0
C1418 C 0.87372 0.28916 0.45472 0.0
C1419 C 0.88897 0.32115 0.46146 0.0
C1420 C 0.86589 0.2762 0.44168 0.0
C1421 C 0.86549 0.28051 0.42213 0.0
C1422 C 0.88088 0.30669 0.4482 0.0
C1423 C 0.87291 0.29813 0.41624 0.0
C1424 C 0.89111 0.34015 0.45559 0.0
C1425 C 0.90208 0.32907 0.4919 0.0
N1426 N 0.88017 0.31055 0.42919 0.0
N1427 N 0.89452 0.31621 0.47943 0.0
H1428 H 0.91956 0.62352 0.74943 0.0
H1429 H 0.99532 0.64667 0.6675 0.0
H1430 H 0.93743 0.68056 0.73536 0.0
H1431 H 0.98487 0.58993 0.68853 0.0
H1432 H 0.97382 0.65932 0.69181 0.0
H1433 H 0.94293 0.61095 0.72686 0.0
C1434 C 0.92838 0.63342 0.74158 0.0
C1435 C 0.92642 0.65316 0.74425 0.0
C1436 C 0.97628 0.64411 0.69118 0.0
C1437 C 0.95334 0.63881 0.71833 0.0
C1438 C 0.98849 0.63685 0.67721 0.0
C1439 C 0.99186 0.61717 0.67586 0.0
C1440 C 0.96716 0.63162 0.70387 0.0
C1441 C 0.98282 0.60519 0.68909 0.0
C1442 C 0.94182 0.62621 0.72876 0.0
C1443 C 0.93851 0.66526 0.73387 0.0
N1444 N 0.97079 0.61258 0.70243 0.0
N1445 N 0.95133 0.65791 0.72128 0.0
H1446 H 0.61998 0.36525 0.55438 0.0
H1447 H 0.65946 0.25961 0.57074 0.0
H1448 H 0.61295 0.32144 0.51191 0.0
H1449 H 0.64705 0.29908 0.61614 0.0
H1450 H 0.64622 0.28263 0.54773 0.0
H1451 H 0.63367 0.34178 0.57599 0.0
C1452 C 0.62141 0.35068 0.54955 0.0
C1453 C 0.61535 0.34534 0.53126 0.0
C1454 C 0.6464 0.28618 0.56275 0.0
C1455 C 0.6311 0.31822 0.55607 0.0
C1456 C 0.65406 0.27313 0.57583 0.0
C1457 C 0.65425 0.27739 0.5954 0.0
C1458 C 0.63924 0.30373 0.56928 0.0
C1459 C 0.64696 0.29508 0.60126 0.0
C1460 C 0.62914 0.33723 0.56196 0.0
C1461 C 0.61732 0.32613 0.52593 0.0
N1462 N 0.63987 0.30757 0.58829 0.0
N1463 N 0.62515 0.31326 0.53824 0.0
H1464 H 0.93854 0.34057 0.78086 0.0
H1465 H 0.98341 0.43522 0.82685 0.0
H1466 H 0.91619 0.39692 0.77102 0.0
H1467 H 0.99721 0.3785 0.84593 0.0
H1468 H 0.96143 0.42155 0.80341 0.0
H1469 H 0.96286 0.35433 0.80182 0.0
C1470 C 0.93885 0.35584 0.78296 0.0
C1471 C 0.9252 0.36757 0.77424 0.0
C1472 C 0.96931 0.41209 0.81271 0.0
C1473 C 0.95298 0.38345 0.79828 0.0
C1474 C 0.98196 0.4199 0.82601 0.0
C1475 C 0.99211 0.40802 0.83849 0.0
C1476 C 0.96691 0.39223 0.8117 0.0
C1477 C 0.98948 0.38823 0.83683 0.0
C1478 C 0.95266 0.36368 0.79502 0.0
C1479 C 0.92622 0.38729 0.77765 0.0
N1480 N 0.97718 0.38098 0.82372 0.0
N1481 N 0.93982 0.39458 0.78936 0.0
H1482 H 0.86323 0.71334 0.11822 0.0
H1483 H 0.90978 0.69882 0.01498 0.0
H1484 H 0.86356 0.75814 0.07623 0.0
H1485 H 0.89432 0.65292 0.0527 0.0
H1486 H 0.89602 0.72163 0.03787 0.0
H1487 H 0.87765 0.69188 0.09507 0.0
C1488 C 0.86645 0.71872 0.10413 0.0
C1489 C 0.86224 0.73764 0.09922 0.0
C1490 C 0.89565 0.70655 0.04107 0.0
C1491 C 0.87879 0.71294 0.07241 0.0
C1492 C 0.90361 0.69357 0.0281 0.0
C1493 C 0.90311 0.67392 0.03188 0.0
C1494 C 0.88741 0.69984 0.05806 0.0
C1495 C 0.89479 0.66788 0.04904 0.0
C1496 C 0.87459 0.70639 0.09084 0.0
C1497 C 0.86645 0.74365 0.08058 0.0
N1498 N 0.88737 0.68074 0.06146 0.0
N1499 N 0.87459 0.73137 0.06786 0.0
H1500 H 0.55219 0.62173 0.36825 0.0
H1501 H 0.57276 0.65619 0.26158 0.0
H1502 H 0.51376 0.60853 0.32223 0.0
H1503 H 0.61615 0.65008 0.30457 0.0
H1504 H 0.54941 0.64227 0.28385 0.0
H1505 H 0.57435 0.63568 0.34539 0.0
C1506 C 0.54838 0.62184 0.3533 0.0
C1507 C 0.53107 0.61398 0.34715 0.0
C1508 C 0.56407 0.64397 0.28834 0.0
C1509 C 0.55646 0.63003 0.32077 0.0
C1510 C 0.57733 0.65201 0.2757 0.0
C1511 C 0.59644 0.65418 0.28119 0.0
C1512 C 0.56993 0.63842 0.30668 0.0
C1513 C 0.60165 0.64843 0.29963 0.0
C1514 C 0.56109 0.62972 0.34023 0.0
C1515 C 0.52702 0.6143 0.32754 0.0
N1516 N 0.5885 0.64093 0.31168 0.0
N1517 N 0.53956 0.62232 0.31503 0.0
H1518 H 0.75678 0.94433 0.65724 0.0
H1519 H 0.65233 0.96176 0.61469 0.0
H1520 H 0.71526 0.90005 0.64804 0.0
H1521 H 0.69681 1.00381 0.60982 0.0
H1522 H 0.67484 0.94003 0.62962 0.0
H1523 H 0.73472 0.96739 0.64265 0.0
C1524 C 0.74303 0.93949 0.65224 0.0
C1525 C 0.73792 0.92019 0.65376 0.0
C1526 C 0.67976 0.95399 0.6253 0.0
C1527 C 0.71266 0.94641 0.63714 0.0
C1528 C 0.66684 0.96649 0.61686 0.0
C1529 C 0.67264 0.98471 0.61105 0.0
C1530 C 0.69872 0.95969 0.62817 0.0
C1531 C 0.69177 0.98986 0.61397 0.0
C1532 C 0.73051 0.95261 0.64382 0.0
C1533 C 0.71996 0.91467 0.64693 0.0
N1534 N 0.70413 0.97745 0.62242 0.0
N1535 N 0.70802 0.92768 0.63901 0.0
H1536 H 0.22334 0.39509 0.24721 0.0
H1537 H 0.23685 0.3182 0.33026 0.0
H1538 H 0.27765 0.37047 0.26223 0.0
H1539 H 0.18354 0.34666 0.31872 0.0
H1540 H 0.25208 0.33761 0.30585 0.0
H1541 H 0.20869 0.37816 0.27386 0.0
C1542 C 0.23225 0.38629 0.25622 0.0
C1543 C 0.25178 0.38418 0.25239 0.0
C1544 C 0.23706 0.33965 0.30869 0.0
C1545 C 0.23499 0.36453 0.28289 0.0
C1546 C 0.22831 0.32858 0.32274 0.0
C1547 C 0.20879 0.33071 0.3267 0.0
C1548 C 0.22626 0.35296 0.29838 0.0
C1549 C 0.19852 0.34426 0.3161 0.0
C1550 C 0.22384 0.37657 0.27143 0.0
C1551 C 0.26256 0.37256 0.26461 0.0
N1552 N 0.20736 0.35481 0.30245 0.0
N1553 N 0.254 0.36307 0.27919 0.0
H1554 H 0.87315 0.97672 0.49577 0.0
H1555 H 0.95363 0.98458 0.57613 0.0
H1556 H 0.90434 0.02837 0.50754 0.0
H1557 H 0.91741 0.9354 0.56896 0.0
H1558 H 0.93582 1.00083 0.55111 0.0
H1559 H 0.88907 0.96143 0.52268 0.0
C1560 C 0.88322 0.98492 0.50411 0.0
C1561 C 0.88742 1.00387 0.49932 0.0
C1562 C 0.93175 0.98649 0.55506 0.0
C1563 C 0.90591 0.98633 0.5301 0.0
C1564 C 0.94191 0.97718 0.56943 0.0
C1565 C 0.93713 0.95849 0.5748 0.0
C1566 C 0.9167 0.97708 0.54583 0.0
C1567 C 0.92189 0.94964 0.56525 0.0
C1568 C 0.89234 0.97615 0.51947 0.0
C1569 C 0.90062 0.01375 0.51068 0.0
N1570 N 0.91229 0.95898 0.55126 0.0
N1571 N 0.90947 1.00483 0.52543 0.0
H1572 H 0.33489 0.68848 0.80516 0.0
H1573 H 0.23977 0.64553 0.75919 0.0
H1574 H 0.27921 0.69558 0.8305 0.0
H1575 H 0.29223 0.65365 0.72818 0.0
H1576 H 0.25502 0.65899 0.78767 0.0
H1577 H 0.32031 0.67119 0.77891 0.0
C1578 C 0.31963 0.68652 0.80529 0.0
C1579 C 0.30835 0.6938 0.82017 0.0
C1580 C 0.26319 0.65767 0.77465 0.0
C1581 C 0.29154 0.67354 0.79006 0.0
C1582 C 0.25455 0.64988 0.75845 0.0
C1583 C 0.26472 0.64857 0.74127 0.0
C1584 C 0.28219 0.66396 0.77368 0.0
C1585 C 0.28381 0.65453 0.74108 0.0
C1586 C 0.31131 0.6765 0.79027 0.0
C1587 C 0.28861 0.69025 0.81953 0.0
N1588 N 0.29189 0.66198 0.757 0.0
N1589 N 0.28086 0.68043 0.80473 0.0
H1590 H 0.62972 0.99333 0.01196 0.0
H1591 H 0.57524 0.08479 0.05352 0.0
H1592 H 0.61003 0.04023 0.97748 0.0
H1593 H 0.58228 0.03287 0.08556 0.0
H1594 H 0.59147 0.06995 0.02654 0.0
H1595 H 0.61611 1.00898 0.0402 0.0
C1596 C 0.62277 1.00701 0.01037 0.0
C1597 C 0.62096 0.01546 0.99233 0.0
C1598 C 0.58947 0.06178 0.03946 0.0
C1599 C 0.60534 0.03336 0.02447 0.0
C1600 C 0.58027 0.07029 0.05491 0.0
C1601 C 0.57732 0.06006 0.07183 0.0
C1602 C 0.59597 0.0429 0.04092 0.0
C1603 C 0.584 0.0412 0.07272 0.0
C1604 C 0.61489 0.01586 0.02645 0.0
C1605 C 0.61167 0.03313 0.99107 0.0
N1606 N 0.59305 0.03324 0.0575 0.0
N1607 N 0.60422 0.04146 1.00688 0.0
H1608 H 0.19186 0.68854 0.21233 0.0
H1609 H 0.2868 0.63128 0.23981 0.0
H1610 H 0.2402 0.68261 0.17484 0.0
H1611 H 0.24385 0.64709 0.28093 0.0
H1612 H 0.26822 0.64704 0.21492 0.0
H1613 H 0.20917 0.67069 0.23683 0.0
C1614 C 0.20609 0.68346 0.20924 0.0
C1615 C 0.21461 0.6872 0.19153 0.0
C1616 C 0.26282 0.64699 0.22938 0.0
C1617 C 0.23451 0.66669 0.21947 0.0
C1618 C 0.27337 0.63788 0.24359 0.0
C1619 C 0.26693 0.63789 0.26253 0.0
C1620 C 0.24561 0.65609 0.23407 0.0
C1621 C 0.24943 0.64678 0.26655 0.0
C1622 C 0.21599 0.67333 0.22325 0.0
C1623 C 0.23316 0.68037 0.18836 0.0
N1624 N 0.23941 0.65553 0.25246 0.0
N1625 N 0.24244 0.67042 0.20215 0.0
H1626 H 0.64191 0.97085 0.52486 0.0
H1627 H 0.56841 0.98563 0.43917 0.0
H1628 H 0.61974 0.02576 0.50833 0.0
H1629 H 0.59713 0.93237 0.45028 0.0
H1630 H 0.58701 1.00049 0.4644 0.0
H1631 H 0.62582 0.95652 0.49752 0.0
C1632 C 0.63382 0.97994 0.51539 0.0
C1633 C 0.63216 0.99955 0.51897 0.0
C1634 C 0.58929 0.98556 0.46127 0.0
C1635 C 0.61347 0.98315 0.48769 0.0
C1636 C 0.57867 0.97702 0.44676 0.0
C1637 C 0.5811 0.95761 0.44243 0.0
C1638 C 0.60241 0.97466 0.47171 0.0
C1639 C 0.59449 0.94725 0.45315 0.0
C1640 C 0.6246 0.97173 0.49978 0.0
C1641 C 0.62146 0.01059 0.50615 0.0
N1642 N 0.60457 0.95588 0.46728 0.0
N1643 N 0.61241 1.00222 0.49119 0.0
H1644 H 0.327 0.33094 0.7123 0.0
H1645 H 0.2272 0.37938 0.73981 0.0
H1646 H 0.27822 0.33241 0.67495 0.0
H1647 H 0.27469 0.37527 0.77864 0.0
H1648 H 0.24643 0.36395 0.71523 0.0
H1649 H 0.30877 0.34867 0.73615 0.0
C1650 C 0.3125 0.33503 0.70906 0.0
C1651 C 0.30416 0.33005 0.69156 0.0
C1652 C 0.25269 0.36651 0.72909 0.0
C1653 C 0.28312 0.35035 0.7189 0.0
C1654 C 0.24173 0.3754 0.74314 0.0
C1655 C 0.24929 0.37861 0.76138 0.0
C1656 C 0.27141 0.36074 0.73324 0.0
C1657 C 0.26823 0.37308 0.76481 0.0
C1658 C 0.30206 0.34511 0.72273 0.0
C1659 C 0.2852 0.33561 0.6883 0.0
N1660 N 0.27859 0.36436 0.75092 0.0
N1661 N 0.27536 0.34544 0.7018 0.0
H1662 H 0.89093 0.02601 0.02773 0.0
H1663 H 0.93619 0.02875 0.92301 0.0
H1664 H 0.88798 0.97926 0.98787 0.0
H1665 H 0.93579 0.07719 0.96087 0.0
H1666 H 0.91824 0.01063 0.94656 0.0
H1667 H 0.9065 0.04534 1.00327 0.0
C1668 C 0.89337 0.01985 0.01379 0.0
C1669 C 0.88817 1.00092 0.00991 0.0
C1670 C 0.92204 0.02523 0.94974 0.0
C1671 C 0.90621 0.02296 0.98186 0.0
C1672 C 0.93246 0.03558 0.93632 0.0
C1673 C 0.93766 0.05455 0.93996 0.0
C1674 C 0.91679 0.03383 0.96704 0.0
C1675 C 0.932 0.06268 0.95737 0.0
C1676 C 0.90232 0.0309 0.99984 0.0
C1677 C 0.89173 0.99375 0.99156 0.0
N1678 N 0.92196 0.05226 0.97028 0.0
N1679 N 0.90063 1.00472 0.9783 0.0
H1680 H 0.34363 0.24523 0.32763 0.0
H1681 H 0.24104 0.24397 0.37758 0.0
H1682 H 0.3087 0.19489 0.33233 0.0
H1683 H 0.27673 0.29394 0.37467 0.0
H1684 H 0.26606 0.2256 0.36188 0.0
H1685 H 0.31949 0.26321 0.34503 0.0
C1686 C 0.33083 0.23795 0.33215 0.0
C1687 C 0.32821 0.21847 0.32837 0.0
C1688 C 0.26849 0.24056 0.36476 0.0
C1689 C 0.30053 0.23902 0.34866 0.0
C1690 C 0.2542 0.25107 0.37379 0.0
C1691 C 0.25673 0.27059 0.37743 0.0
C1692 C 0.28545 0.24958 0.35921 0.0
C1693 C 0.27413 0.27895 0.37218 0.0
C1694 C 0.31709 0.24823 0.34226 0.0
C1695 C 0.31144 0.20981 0.33501 0.0
N1696 N 0.28776 0.26844 0.36324 0.0
N1697 N 0.29824 0.22014 0.34477 0.0
H1698 H 0.98981 1.00735 0.62136 0.0
H1699 H 0.08608 0.05668 0.58488 0.0
H1700 H 0.04524 0.9809 0.62401 0.0
H1701 H 0.03003 0.07819 0.57137 0.0
H1702 H 0.07144 0.03081 0.6027 0.0
H1703 H 1.00447 0.0356 0.60691 0.0
C1704 C 1.00508 1.00758 0.61916 0.0
C1705 C 0.0163 0.9917 0.62383 0.0
C1706 C 0.06234 0.04122 0.59586 0.0
C1707 C 0.03312 0.02388 0.60722 0.0
C1708 C 0.07071 0.056 0.58554 0.0
C1709 C 0.05935 0.0697 0.57636 0.0
C1710 C 0.04241 0.04004 0.59717 0.0
C1711 C 0.03945 0.06813 0.57824 0.0
C1712 C 0.01341 0.02365 0.6108 0.0
C1713 C 0.03601 0.99275 0.62053 0.0
N1714 N 0.03163 0.05357 0.58837 0.0
N1715 N 0.04375 1.0085 0.6124 0.0
H1716 H 0.19494 0.83193 0.85458 0.0
H1717 H 0.25825 0.73778 0.86661 0.0
H1718 H 0.19012 0.7826 0.81813 0.0
H1719 H 0.26773 0.78947 0.89856 0.0
H1720 H 0.23102 0.75283 0.85105 0.0
H1721 H 0.2198 0.81572 0.87259 0.0
C1722 C 0.19912 0.81775 0.85024 0.0
C1723 C 0.19036 0.80873 0.83465 0.0
C1724 C 0.23897 0.76084 0.86157 0.0
C1725 C 0.21877 0.78989 0.85556 0.0
C1726 C 0.25448 0.75221 0.87055 0.0
C1727 C 0.26541 0.7624 0.88388 0.0
C1728 C 0.23427 0.7798 0.86591 0.0
C1729 C 0.2598 0.78108 0.88835 0.0
C1730 C 0.21327 0.80843 0.86067 0.0
C1731 C 0.19624 0.79013 0.83008 0.0
N1732 N 0.24471 0.78921 0.87931 0.0
N1733 N 0.21007 0.78137 0.84045 0.0
H1734 H 0.54099 0.98973 0.12845 0.0
H1735 H 0.44241 0.96224 0.07774 0.0
H1736 H 0.49401 0.02891 0.12222 0.0
H1737 H 0.49018 0.92388 0.08301 0.0
H1738 H 0.4603 0.9863 0.0955 0.0
H1739 H 0.52178 0.96488 0.11352 0.0
C1740 C 0.52658 0.99309 0.1241 0.0
C1741 C 0.51917 0.0115 0.12656 0.0
C1742 C 0.46685 0.9726 0.09278 0.0
C1743 C 0.49706 0.98306 0.10925 0.0
C1744 C 0.4566 0.95881 0.08269 0.0
C1745 C 0.46479 0.94098 0.07872 0.0
C1746 C 0.48544 0.96856 0.09903 0.0
C1747 C 0.48335 0.93748 0.08538 0.0
C1748 C 0.51561 0.97888 0.1155 0.0
C1749 C 0.50036 0.01496 0.1206 0.0
N1750 N 0.49301 0.95112 0.09516 0.0
N1751 N 0.49001 1.00092 0.11215 0.0
H1752 H 0.34248 0.77589 0.1899 0.0
H1753 H 0.24058 0.77259 0.13885 0.0
H1754 H 0.30636 0.82524 0.18372 0.0
H1755 H 0.27987 0.72529 0.13987 0.0
H1756 H 0.26438 0.79222 0.15503 0.0
H1757 H 0.31937 0.75711 0.17207 0.0
C1758 C 0.32961 0.78277 0.18498 0.0
C1759 C 0.32635 0.80221 0.18847 0.0
C1760 C 0.26784 0.77759 0.15159 0.0
C1761 C 0.29983 0.78073 0.16766 0.0
C1762 C 0.25427 0.76636 0.14229 0.0
C1763 C 0.25817 0.7472 0.138 0.0
C1764 C 0.28544 0.76959 0.15678 0.0
C1765 C 0.27618 0.73996 0.14286 0.0
C1766 C 0.31647 0.77205 0.1746 0.0
C1767 C 0.30953 0.81036 0.18129 0.0
N1768 N 0.28906 0.7511 0.15208 0.0
N1769 N 0.29689 0.79958 0.17129 0.0
H1770 H 0.47645 0.99532 0.37318 0.0
H1771 H 0.48605 0.07366 0.45553 0.0
H1772 H 0.52844 1.0053 0.40445 0.0
H1773 H 0.43679 0.0684 0.41908 0.0
H1774 H 0.50174 0.04859 0.43722 0.0
H1775 H 0.46173 0.02211 0.38984 0.0
C1776 C 0.48485 1.00324 0.38342 0.0
C1777 C 0.50372 0.99799 0.38742 0.0
C1778 C 0.4875 0.05296 0.43323 0.0
C1779 C 0.48682 0.02863 0.40676 0.0
C1780 C 0.47851 0.06736 0.44367 0.0
C1781 C 0.45996 0.07329 0.43896 0.0
C1782 C 0.4779 0.04429 0.41795 0.0
C1783 C 0.45092 0.06425 0.42353 0.0
C1784 C 0.4764 0.01854 0.39297 0.0
C1785 C 0.51386 1.00882 0.40086 0.0
N1786 N 0.45995 0.05024 0.41364 0.0
N1787 N 0.50525 0.02352 0.41013 0.0
H1788 H 0.19035 0.2379 0.69831 0.0
H1789 H 0.28102 0.22145 0.63164 0.0
H1790 H 0.20474 0.18338 0.67361 0.0
H1791 H 0.26053 0.27718 0.64766 0.0
H1792 H 0.2531 0.20725 0.64679 0.0
H1793 H 0.21592 0.25248 0.67999 0.0
C1794 C 0.19872 0.22894 0.68898 0.0
C1795 C 0.19522 0.20926 0.68764 0.0
C1796 C 0.25461 0.22259 0.64685 0.0
C1797 C 0.22491 0.22601 0.66668 0.0
C1798 C 0.27055 0.23073 0.63817 0.0
C1799 C 0.27318 0.25055 0.63841 0.0
C1800 C 0.24124 0.23432 0.65604 0.0
C1801 C 0.2591 0.26184 0.64709 0.0
C1802 C 0.21342 0.23733 0.67852 0.0
C1803 C 0.20693 0.1985 0.67542 0.0
N1804 N 0.24384 0.25356 0.6557 0.0
N1805 N 0.22125 0.207 0.66551 0.0
H1806 H 0.03234 0.93775 0.94595 0.0
H1807 H 0.04685 0.04115 0.90169 0.0
H1808 H 0.08741 0.96446 0.93946 0.0
H1809 H 0.99471 0.0094 0.89487 0.0
H1810 H 0.06175 0.01315 0.91583 0.0
H1811 H 0.0181 0.96365 0.92772 0.0
C1812 C 0.04155 0.94888 0.94064 0.0
C1813 C 0.06124 0.94876 0.94448 0.0
C1814 C 0.04711 0.01219 0.91109 0.0
C1815 C 0.04477 0.97877 0.92368 0.0
C1816 C 0.03857 0.0282 0.903 0.0
C1817 C 0.01948 0.02764 0.89711 0.0
C1818 C 0.03643 0.99548 0.91363 0.0
C1819 C 0.00949 0.01043 0.89913 0.0
C1820 C 0.03332 0.96375 0.93022 0.0
C1821 C 0.07219 0.96391 0.93727 0.0
N1822 N 0.01801 0.99509 0.90743 0.0
N1823 N 0.06381 0.97828 0.92737 0.0
H1824 H 0.3367 0.34849 0.24221 0.0
H1825 H 0.37761 0.24199 0.24257 0.0
H1826 H 0.33068 0.3098 0.1948 0.0
H1827 H 0.38408 0.28137 0.28938 0.0
H1828 H 0.36199 0.26707 0.22413 0.0
H1829 H 0.35512 0.32442 0.25911 0.0
C1830 C 0.33913 0.3349 0.23536 0.0
C1831 C 0.33193 0.33118 0.21706 0.0
C1832 C 0.36695 0.27027 0.23838 0.0
C1833 C 0.35337 0.30348 0.23635 0.0
C1834 C 0.37594 0.25596 0.24892 0.0
C1835 C 0.38213 0.25952 0.26763 0.0
C1836 C 0.36405 0.28829 0.24659 0.0
C1837 C 0.37954 0.27792 0.27505 0.0
C1838 C 0.34982 0.32118 0.24499 0.0
C1839 C 0.336 0.31339 0.20881 0.0
N1840 N 0.37061 0.29154 0.26458 0.0
N1841 N 0.34636 0.30019 0.21854 0.0
H1842 H 0.8307 0.17616 0.77778 0.0
H1843 H 0.87326 0.28195 0.77523 0.0
H1844 H 0.83148 0.21338 0.82673 0.0
H1845 H 0.87461 0.24327 0.72741 0.0
H1846 H 0.85888 0.25685 0.79465 0.0
H1847 H 0.84713 0.20053 0.75935 0.0
C1848 C 0.83417 0.18951 0.78465 0.0
C1849 C 0.82953 0.19273 0.80386 0.0
C1850 C 0.86243 0.25382 0.77994 0.0
C1851 C 0.8487 0.22074 0.78277 0.0
C1852 C 0.8707 0.26814 0.76884 0.0
C1853 C 0.87512 0.26477 0.7496 0.0
C1854 C 0.85846 0.23599 0.77176 0.0
C1855 C 0.87144 0.24657 0.74214 0.0
C1856 C 0.84374 0.2034 0.77412 0.0
C1857 C 0.83485 0.21021 0.81203 0.0
N1858 N 0.86325 0.23294 0.75319 0.0
N1859 N 0.84408 0.22357 0.80143 0.0
H1860 H 0.97643 0.617 0.04595 0.0
H1861 H 0.07874 0.57054 0.03047 0.0
H1862 H 1.00724 0.62179 0.99296 0.0
H1863 H 0.05339 0.5792 0.08593 0.0
H1864 H 0.05282 0.58876 0.01627 0.0
H1865 H 1.00449 0.60276 0.06065 0.0
C1866 C 0.98918 0.6152 0.03744 0.0
C1867 C 0.98947 0.62055 0.01818 0.0
C1868 C 0.05303 0.58674 0.03156 0.0
C1869 C 0.02167 0.60395 0.03489 0.0
C1870 C 0.0679 0.57633 0.03976 0.0
C1871 C 0.06839 0.57311 0.05956 0.0
C1872 C 0.03837 0.59388 0.04315 0.0
C1873 C 0.05362 0.5809 0.07064 0.0
C1874 C 1.00522 0.60707 0.04585 0.0
C1875 C 1.00642 0.61793 1.00787 0.0
N1876 N 0.03922 0.59079 0.06229 0.0
N1877 N 0.0218 0.60961 0.0163 0.0
H1878 H 0.64769 0.73751 0.27692 0.0
H1879 H 0.68662 0.84458 0.27882 0.0
H1880 H 0.63736 0.7781 0.23191 0.0
H1881 H 0.68845 0.80724 0.32757 0.0
H1882 H 0.66956 0.82002 0.26104 0.0
H1883 H 0.66314 0.76258 0.2955 0.0
C1884 C 0.64854 0.75172 0.27098 0.0
C1885 C 0.64121 0.75567 0.25278 0.0
C1886 C 0.67366 0.81719 0.27564 0.0
C1887 C 0.65912 0.78443 0.27395 0.0
C1888 C 0.68357 0.83117 0.28576 0.0
C1889 C 0.68908 0.82796 0.30473 0.0
C1890 C 0.66931 0.79977 0.28445 0.0
C1891 C 0.68437 0.81039 0.31306 0.0
C1892 C 0.65739 0.76604 0.28161 0.0
C1893 C 0.64275 0.77438 0.24587 0.0
N1894 N 0.67485 0.79694 0.30285 0.0
N1895 N 0.65164 0.78801 0.25639 0.0
H1896 H 0.02709 0.888 0.02431 0.0
H1897 H 0.92672 0.94224 0.02279 0.0
H1898 H 0.99426 0.89718 0.97314 0.0
H1899 H 0.95925 0.93226 0.07399 0.0
H1900 H 0.95089 0.92522 1.0045 0.0
H1901 H 1.00169 0.90283 0.04288 0.0
C1902 C 0.01445 0.89295 0.01697 0.0
C1903 C 0.01288 0.89138 0.99708 0.0
C1904 C 0.95275 0.92674 0.01974 0.0
C1905 C 0.98374 0.90864 0.01833 0.0
C1906 C 0.93901 0.93664 0.03021 0.0
C1907 C 0.94094 0.93883 0.05003 0.0
C1908 C 0.96863 0.91895 0.02908 0.0
C1909 C 0.95705 0.93083 0.05881 0.0
C1910 C 0.99996 0.90149 0.02761 0.0
C1911 C 0.99612 0.89806 0.98842 0.0
N1912 N 0.97026 0.9213 0.04829 0.0
N1913 N 0.98229 0.90651 0.99907 0.0
H1914 H 0.19191 0.71532 0.68387 0.0
H1915 H 0.13892 0.75633 0.7765 0.0
H1916 H 0.18352 0.68187 0.73471 0.0
H1917 H 0.16115 0.79131 0.73112 0.0
H1918 H 0.15138 0.72797 0.76005 0.0
H1919 H 0.17691 0.74245 0.69966 0.0
C1920 C 0.18682 0.71364 0.69832 0.0
C1921 C 0.18904 0.69628 0.70797 0.0
C1922 C 0.15343 0.74188 0.7537 0.0
C1923 C 0.17182 0.72739 0.72624 0.0
C1924 C 0.14622 0.75803 0.76301 0.0
C1925 C 0.14905 0.77622 0.75521 0.0
C1926 C 0.1633 0.74396 0.73637 0.0
C1927 C 0.15873 0.7776 0.73774 0.0
C1928 C 0.17833 0.72918 0.70739 0.0
C1929 C 0.18233 0.69504 0.72681 0.0
N1930 N 0.16547 0.76174 0.72895 0.0
N1931 N 0.17398 0.71037 0.73532 0.0
H1932 H 0.0256 0.39571 0.54208 0.0
H1933 H 0.05571 0.4393 0.44086 0.0
H1934 H 0.98839 0.39649 0.49313 0.0
H1935 H 0.09053 0.44264 0.49139 0.0
H1936 H 0.03155 0.42206 0.45916 0.0
H1937 H 0.05036 0.41099 0.52302 0.0
C1938 C 0.02267 0.39892 0.52727 0.0
C1939 C 1.00482 0.39484 0.51924 0.0
C1940 C 0.04447 0.4266 0.46624 0.0
C1941 C 0.03315 0.41253 0.49732 0.0
C1942 C 0.05829 0.43641 0.45578 0.0
C1943 C 0.07517 0.44255 0.46458 0.0
C1944 C 0.04757 0.42278 0.48565 0.0
C1945 C 0.07765 0.43852 0.48404 0.0
C1946 C 0.03681 0.40774 0.51641 0.0
C1947 C 1.0019 0.39939 0.49996 0.0
N1948 N 0.06405 0.42888 0.49387 0.0
N1949 N 0.01587 0.40804 0.48969 0.0
H1950 H 0.42536 0.57685 0.99695 0.0
H1951 H 0.52853 0.62545 0.99626 0.0
H1952 H 0.45996 0.58261 0.94643 0.0
H1953 H 0.4933 0.62121 0.04652 0.0
H1954 H 0.50319 0.61063 0.97764 0.0
H1955 H 0.4499 0.59326 0.01525 0.0
C1956 C 0.43817 0.58139 0.98969 0.0
C1957 C 0.44058 0.57821 0.97006 0.0
C1958 C 0.50094 0.61303 0.99272 0.0
C1959 C 0.46872 0.59737 0.991 0.0
C1960 C 0.51541 0.62155 1.00338 0.0
C1961 C 0.5131 0.62456 0.02304 0.0
C1962 C 0.48401 0.60736 1.00175 0.0
C1963 C 0.49574 0.6192 0.03142 0.0
C1964 C 0.45214 0.59094 1.00016 0.0
C1965 C 0.45738 0.58485 0.96146 0.0
N1966 N 0.48192 0.61077 0.02076 0.0
N1967 N 0.4708 0.59406 0.97197 0.0
H1968 H 0.68982 0.83166 0.80754 0.0
H1969 H 0.79084 0.8759 0.77773 0.0
H1970 H 0.73961 0.8309 0.84357 0.0
H1971 H 0.74274 0.87272 0.73957 0.0
H1972 H 0.77144 0.86158 0.8028 0.0
H1973 H 0.70818 0.84861 0.78322 0.0
C1974 C 0.70457 0.83511 0.81039 0.0
C1975 C 0.71316 0.82971 0.82764 0.0
C1976 C 0.76508 0.86409 0.78897 0.0
C1977 C 0.73432 0.84911 0.79979 0.0
C1978 C 0.77615 0.87236 0.77464 0.0
C1979 C 0.76847 0.87548 0.75644 0.0
C1980 C 0.74614 0.85889 0.78515 0.0
C1981 C 0.74931 0.87055 0.75335 0.0
C1982 C 0.71508 0.84473 0.79646 0.0
C1983 C 0.73242 0.83444 0.83042 0.0
N1984 N 0.73884 0.86244 0.76751 0.0
N1985 N 0.74231 0.84384 0.81667 0.0
H1986 H 0.43379 0.44006 0.05839 0.0
H1987 H 0.38335 0.5392 0.03246 0.0
H1988 H 0.43444 0.48948 0.09491 0.0
H1989 H 0.39004 0.49324 0.99212 0.0
H1990 H 0.39928 0.51988 0.05658 0.0
H1991 H 0.41538 0.45815 0.0349 0.0
C1992 C 0.43004 0.45469 0.06149 0.0
C1993 C 0.4358 0.46327 0.07862 0.0
C1994 C 0.39718 0.51397 0.04248 0.0
C1995 C 0.41467 0.48407 0.05182 0.0
C1996 C 0.38797 0.52497 0.0287 0.0
C1997 C 0.38538 0.5179 0.01016 0.0
C1998 C 0.40383 0.49568 0.03778 0.0
C1999 C 0.39175 0.49933 1.00619 0.0
C2000 C 0.41958 0.46503 0.04805 0.0
C2001 C 0.43063 0.48234 0.08181 0.0
N2002 N 0.40073 0.4889 0.01985 0.0
N2003 N 0.42035 0.49206 0.06858 0.0
H2004 H 0.77966 0.18526 0.34361 0.0
H2005 H 0.77684 0.14228 0.23795 0.0
H2006 H 0.82809 0.18589 0.30573 0.0
H2007 H 0.73017 0.1385 0.27784 0.0
H2008 H 0.79622 0.15735 0.26269 0.0
H2009 H 0.76159 0.16777 0.31971 0.0
C2010 C 0.7865 0.18185 0.33022 0.0
C2011 C 0.80544 0.18724 0.32668 0.0
C2012 C 0.78179 0.15309 0.26607 0.0
C2013 C 0.78477 0.16686 0.29917 0.0
C2014 C 0.77071 0.14443 0.25195 0.0
C2015 C 0.75179 0.13914 0.25577 0.0
C2016 C 0.77389 0.1566 0.28414 0.0
C2017 C 0.74465 0.14233 0.2742 0.0
C2018 C 0.77618 0.17169 0.3166 0.0
C2019 C 0.81359 0.18197 0.30915 0.0
N2020 N 0.75565 0.15094 0.28762 0.0
N2021 N 0.80319 0.17216 0.29603 0.0
H2022 H 0.08139 0.58052 0.55434 0.0
H2023 H 0.1348 0.4827 0.52916 0.0
H2024 H 0.08268 0.53175 0.59166 0.0
H2025 H 0.12492 0.52728 0.48799 0.0
H2026 H 0.11866 0.50193 0.5533 0.0
H2027 H 0.09992 0.56254 0.53083 0.0
C2028 C 0.0856 0.56606 0.55761 0.0
C2029 C 0.08035 0.55762 0.57497 0.0
C2030 C 0.12011 0.50756 0.53901 0.0
C2031 C 0.10162 0.53694 0.54815 0.0
C2032 C 0.12943 0.49662 0.52522 0.0
C2033 C 0.13119 0.50333 0.50646 0.0
C2034 C 0.11253 0.52541 0.53409 0.0
C2035 C 0.12386 0.52148 0.50224 0.0
C2036 C 0.09613 0.55577 0.54416 0.0
C2037 C 0.0861 0.53875 0.57838 0.0
N2038 N 0.11482 0.53185 0.51591 0.0
N2039 N 0.09644 0.52909 0.56513 0.0
H2040 H 0.73502 0.18454 0.68295 0.0
H2041 H 0.7261 0.15582 0.79272 0.0
H2042 H 0.68291 0.18885 0.71525 0.0
H2043 H 0.77463 0.1403 0.7583 0.0
H2044 H 0.71039 0.16836 0.76442 0.0
H2045 H 0.75028 0.16918 0.71033 0.0
C2046 C 0.72681 0.18235 0.69581 0.0
C2047 C 0.70764 0.18808 0.6968 0.0
C2048 C 0.72441 0.16208 0.76297 0.0
C2049 C 0.725 0.17036 0.72816 0.0
C2050 C 0.73341 0.1549 0.77915 0.0
C2051 C 0.75174 0.14701 0.77789 0.0
C2052 C 0.73385 0.16164 0.74533 0.0
C2053 C 0.76046 0.14618 0.7599 0.0
C2054 C 0.73549 0.17343 0.71138 0.0
C2055 C 0.69763 0.18456 0.71376 0.0
N2056 N 0.75151 0.15358 0.74434 0.0
N2057 N 0.70644 0.17605 0.72876 0.0
H2058 H 0.08585 0.44355 0.95642 0.0
H2059 H 0.12276 0.54562 0.99193 0.0
H2060 H 0.07872 0.49541 0.92423 0.0
H2061 H 0.12843 0.49391 0.02471 0.0
H2062 H 0.10855 0.52716 0.96602 0.0
H2063 H 0.10305 0.46149 0.98078 0.0
C2064 C 0.08794 0.45868 0.95442 0.0
C2065 C 0.0807 0.46794 0.93824 0.0
C2066 C 0.11303 0.51983 0.97883 0.0
C2067 C 0.10039 0.48866 0.96618 0.0
C2068 C 0.12124 0.53036 0.99361 0.0
C2069 C 0.12673 0.52135 0.0106 0.0
C2070 C 0.11026 0.50013 0.98102 0.0
C2071 C 0.12435 0.50152 0.01193 0.0
C2072 C 0.09773 0.46895 0.96838 0.0
C2073 C 0.08371 0.48767 0.93657 0.0
N2074 N 0.11621 0.49162 0.99741 0.0
N2075 N 0.0933 0.49734 0.95034 0.0
H2076 H 0.74539 0.88206 0.25776 0.0
H2077 H 0.83671 0.82805 0.21511 0.0
H2078 H 0.792 0.86092 0.29177 0.0
H2079 H 0.7856 0.83806 0.18252 0.0
H2080 H 0.82196 0.84379 0.24241 0.0
H2081 H 0.76138 0.86982 0.22909 0.0
C2082 C 0.75907 0.87507 0.25917 0.0
C2083 C 0.76733 0.87244 0.2772 0.0
C2084 C 0.81396 0.84258 0.22928 0.0
C2085 C 0.78564 0.85838 0.24456 0.0
C2086 C 0.82243 0.83367 0.21363 0.0
C2087 C 0.81237 0.83163 0.19648 0.0
C2088 C 0.79529 0.84966 0.22782 0.0
C2089 C 0.79379 0.83905 0.19552 0.0
C2090 C 0.76813 0.86799 0.24284 0.0
C2091 C 0.78503 0.86317 0.2782 0.0
N2092 N 0.78585 0.84774 0.21096 0.0
N2093 N 0.79355 0.85648 0.26216 0.0
H2094 H 0.39099 0.52656 0.53029 0.0
H2095 H 0.43456 0.52854 0.42486 0.0
H2096 H 0.3872 0.47957 0.49078 0.0
H2097 H 0.43543 0.57698 0.46271 0.0
H2098 H 0.41669 0.51068 0.44868 0.0
H2099 H 0.40619 0.54568 0.50546 0.0
C2100 C 0.39317 0.5203 0.51635 0.0
C2101 C 0.38785 0.50136 0.51267 0.0
C2102 C 0.42074 0.52523 0.45179 0.0
C2103 C 0.40546 0.52317 0.48419 0.0
C2104 C 0.43111 0.53542 0.43822 0.0
C2105 C 0.43667 0.55431 0.44179 0.0
C2106 C 0.4159 0.5339 0.46917 0.0
C2107 C 0.43137 0.56253 0.45927 0.0
C2108 C 0.4019 0.53123 0.50218 0.0
C2109 C 0.39105 0.49407 0.49431 0.0
N2110 N 0.42137 0.55226 0.47232 0.0
N2111 N 0.39976 0.50493 0.48083 0.0
H2112 H 0.73879 0.7423 0.87946 0.0
H2113 H 0.84213 0.74166 0.83116 0.0
H2114 H 0.77582 0.79134 0.87778 0.0
H2115 H 0.80696 0.69156 0.83653 0.0
H2116 H 0.81805 0.76001 0.84824 0.0
H2117 H 0.7638 0.72334 0.86441 0.0
C2118 C 0.75224 0.74907 0.87609 0.0
C2119 C 0.75515 0.7685 0.87987 0.0
C2120 C 0.81559 0.74499 0.84571 0.0
C2121 C 0.78385 0.74683 0.86239 0.0
C2122 C 0.82929 0.73451 0.83577 0.0
C2123 C 0.82656 0.715 0.83225 0.0
C2124 C 0.79893 0.73598 0.85216 0.0
C2125 C 0.80975 0.70651 0.83901 0.0
C2126 C 0.76651 0.73821 0.86744 0.0
C2127 C 0.77291 0.77643 0.87516 0.0
N2128 N 0.79657 0.71705 0.84856 0.0
N2129 N 0.78651 0.76561 0.86657 0.0
H2130 H 0.54169 0.47526 0.11129 0.0
H2131 H 0.5342 0.58564 0.08483 0.0
H2132 H 0.49457 0.51054 0.12906 0.0
H2133 H 0.58537 0.55234 0.07773 0.0
H2134 H 0.519 0.55835 0.10031 0.0
H2135 H 0.55762 0.50337 0.09859 0.0
C2136 C 0.53473 0.48896 0.11264 0.0
C2137 C 0.51674 0.49053 0.12122 0.0
C2138 C 0.53358 0.55705 0.09544 0.0
C2139 C 0.53487 0.52287 0.10645 0.0
C2140 C 0.54223 0.57258 0.08645 0.0
C2141 C 0.5611 0.57128 0.07987 0.0
C2142 C 0.5438 0.54 0.09773 0.0
C2143 C 0.57088 0.55407 0.08268 0.0
C2144 C 0.54386 0.50504 0.10538 0.0
C2145 C 0.50847 0.50869 0.12261 0.0
N2146 N 0.56209 0.5391 0.09128 0.0
N2147 N 0.51753 0.52415 0.11514 0.0
H2148 H 0.71281 0.32806 0.33444 0.0
H2149 H 0.74293 0.22626 0.37667 0.0
H2150 H 0.67885 0.27721 0.32844 0.0
H2151 H 0.77988 0.27538 0.3769 0.0
H2152 H 0.71824 0.2454 0.36127 0.0
H2153 H 0.73666 0.30959 0.35192 0.0
C2154 C 0.71035 0.31303 0.3368 0.0
C2155 C 0.69382 0.3042 0.32984 0.0
C2156 C 0.73172 0.25202 0.36477 0.0
C2157 C 0.72107 0.28292 0.3499 0.0
C2158 C 0.7458 0.24112 0.37368 0.0
C2159 C 0.76356 0.24918 0.37805 0.0
C2160 C 0.73536 0.27117 0.36024 0.0
C2161 C 0.76645 0.26852 0.37375 0.0
C2162 C 0.724 0.30247 0.34674 0.0
C2163 C 0.69148 0.2846 0.33322 0.0
N2164 N 0.75253 0.27881 0.36504 0.0
N2165 N 0.70491 0.27466 0.34302 0.0
H2166 H 0.97455 0.54521 0.6085 0.0
H2167 H 0.98394 0.43543 0.58 0.0
H2168 H 0.02239 0.51047 0.6253 0.0
H2169 H 0.93195 0.46769 0.57431 0.0
H2170 H 0.99881 0.46285 0.59559 0.0
H2171 H 0.95908 0.51703 0.59534 0.0
C2172 C 0.98175 0.5316 0.60955 0.0
C2173 C 0.99982 0.53022 0.61799 0.0
C2174 C 0.98413 0.4639 0.59098 0.0
C2175 C 0.98222 0.49782 0.60269 0.0
C2176 C 0.97568 0.44831 0.58192 0.0
C2177 C 0.95666 0.44927 0.57575 0.0
C2178 C 0.97357 0.48068 0.59373 0.0
C2179 C 0.94657 0.46624 0.57894 0.0
C2180 C 0.97289 0.5155 0.60202 0.0
C2181 C 1.00843 0.51218 0.61898 0.0
N2182 N 0.95517 0.48128 0.58761 0.0
N2183 N 0.99963 0.49671 0.61126 0.0
H2184 H 0.80099 0.33598 0.69306 0.0
H2185 H 0.75939 0.2419 0.64348 0.0
H2186 H 0.83281 0.28356 0.6892 0.0
H2187 H 0.72468 0.28931 0.6616 0.0
H2188 H 0.78755 0.25818 0.65642 0.0
H2189 H 0.77386 0.32022 0.67796 0.0
C2190 C 0.80228 0.32116 0.68898 0.0
C2191 C 0.81917 0.31107 0.69248 0.0
C2192 C 0.77376 0.26502 0.65747 0.0
C2193 C 0.78816 0.29289 0.67512 0.0
C2194 C 0.75772 0.2558 0.64998 0.0
C2195 C 0.73965 0.26424 0.65151 0.0
C2196 C 0.7717 0.28287 0.66633 0.0
C2197 C 0.7383 0.28222 0.66019 0.0
C2198 C 0.78677 0.31214 0.68043 0.0
C2199 C 0.81998 0.29182 0.68703 0.0
N2200 N 0.75407 0.29091 0.66724 0.0
N2201 N 0.80472 0.28337 0.67856 0.0
H2202 H 0.98394 0.58933 0.9355 0.0
H2203 H 0.97572 0.48 0.90491 0.0
H2204 H 0.93231 0.5564 0.94035 0.0
H2205 H 0.02334 0.51531 0.88877 0.0
H2206 H 0.96001 0.50783 0.91853 0.0
H2207 H 0.99919 0.56237 0.91938 0.0
C2208 C 0.97582 0.57642 0.93326 0.0
C2209 C 0.95679 0.57515 0.93936 0.0
C2210 C 0.97383 0.50957 0.9119 0.0
C2211 C 0.97416 0.54425 0.92079 0.0
C2212 C 0.98283 0.49366 0.9041 0.0
C2213 C 1.0009 0.4953 0.89568 0.0
C2214 C 0.98302 0.52733 0.91154 0.0
C2215 C 1.00938 0.51341 0.89503 0.0
C2216 C 0.9845 0.56109 0.92391 0.0
C2217 C 0.94692 0.55813 0.93578 0.0
N2218 N 1.00044 0.5287 0.90302 0.0
N2219 N 0.95573 0.54336 0.92684 0.0
H2220 H 0.70143 0.68496 0.17097 0.0
H2221 H 0.76338 0.77978 0.15788 0.0
H2222 H 0.69641 0.73409 0.20771 0.0
H2223 H 0.77403 0.72761 0.12707 0.0
H2224 H 0.73688 0.76427 0.17431 0.0
H2225 H 0.7265 0.70112 0.15333 0.0
C2226 C 0.70562 0.69907 0.17549 0.0
C2227 C 0.69668 0.70806 0.19102 0.0
C2228 C 0.74496 0.75624 0.16389 0.0
C2229 C 0.72537 0.72688 0.17045 0.0
C2230 C 0.76005 0.76512 0.15441 0.0
C2231 C 0.77103 0.75498 0.14109 0.0
C2232 C 0.74073 0.73708 0.16 0.0
C2233 C 0.76602 0.73599 0.13726 0.0
C2234 C 0.71992 0.70836 0.16526 0.0
C2235 C 0.70265 0.72658 0.19579 0.0
N2236 N 0.7513 0.72766 0.14669 0.0
N2237 N 0.71659 0.73535 0.18556 0.0
H2238 H 0.54259 0.5419 0.41064 0.0
H2239 H 0.53352 0.43214 0.43884 0.0
H2240 H 0.49502 0.5072 0.3931 0.0
H2241 H 0.58558 0.46434 0.44387 0.0
H2242 H 0.51851 0.45952 0.42324 0.0
H2243 H 0.55808 0.51367 0.4236 0.0
C2244 C 0.53545 0.52829 0.40939 0.0
C2245 C 0.51746 0.52693 0.40079 0.0
C2246 C 0.53324 0.46055 0.4277 0.0
C2247 C 0.53508 0.49445 0.41589 0.0
C2248 C 0.54177 0.44499 0.43677 0.0
C2249 C 0.56085 0.44596 0.44276 0.0
C2250 C 0.54378 0.47729 0.42478 0.0
C2251 C 0.57092 0.46288 0.43938 0.0
C2252 C 0.54433 0.51215 0.4168 0.0
C2253 C 0.50893 0.50888 0.39954 0.0
N2254 N 0.56225 0.47788 0.43073 0.0
N2255 N 0.51774 0.49336 0.40718 0.0
H2256 H 0.8302 0.83401 0.73613 0.0
H2257 H 0.86029 0.72461 0.72712 0.0
H2258 H 0.82493 0.80147 0.68426 0.0
H2259 H 0.87674 0.75982 0.77475 0.0
H2260 H 0.84664 0.75252 0.71158 0.0
H2261 H 0.84615 0.80685 0.75111 0.0
C2262 C 0.83228 0.82112 0.72792 0.0
C2263 C 0.82615 0.82 0.7089 0.0
C2264 C 0.85336 0.75422 0.72536 0.0
C2265 C 0.84454 0.78891 0.72593 0.0
C2266 C 0.86117 0.73827 0.73426 0.0
C2267 C 0.86966 0.73987 0.75229 0.0
C2268 C 0.85379 0.77194 0.73462 0.0
C2269 C 0.87041 0.75795 0.76082 0.0
C2270 C 0.84154 0.80568 0.73644 0.0
C2271 C 0.82954 0.80303 0.69888 0.0
N2272 N 0.86241 0.77327 0.75198 0.0
N2273 N 0.83841 0.78815 0.70753 0.0
H2274 H 0.33032 0.71485 0.32862 0.0
H2275 H 0.38584 0.74017 0.23207 0.0
H2276 H 0.33267 0.67763 0.27976 0.0
H2277 H 0.3735 0.78173 0.27573 0.0
H2278 H 0.36943 0.71601 0.25099 0.0
H2279 H 0.34879 0.73859 0.3109 0.0
C2280 C 0.33473 0.71167 0.31418 0.0
C2281 C 0.32983 0.69426 0.30565 0.0
C2282 C 0.37039 0.73039 0.25648 0.0
C2283 C 0.35105 0.7213 0.2853 0.0
C2284 C 0.37988 0.74419 0.24573 0.0
C2285 C 0.38103 0.76306 0.25227 0.0
C2286 C 0.36207 0.73542 0.27399 0.0
C2287 C 0.37292 0.76739 0.27007 0.0
C2288 C 0.34522 0.72524 0.30405 0.0
C2289 C 0.33583 0.69095 0.28683 0.0
N2290 N 0.36377 0.7537 0.28028 0.0
N2291 N 0.34615 0.7043 0.27733 0.0
H2292 H 0.48994 0.12346 0.5248 0.0
H2293 H 0.59682 0.08354 0.52645 0.0
H2294 H 0.52885 0.12783 0.47735 0.0
H2295 H 0.5582 0.07907 0.57411 0.0
H2296 H 0.57248 0.10084 0.50877 0.0
H2297 H 0.51521 0.10874 0.54368 0.0
C2298 C 0.50384 0.12149 0.51838 0.0
C2299 C 0.50722 0.12686 0.49939 0.0
C2300 C 0.56932 0.09612 0.52311 0.0
C2301 C 0.53623 0.10982 0.52095 0.0
C2302 C 0.58321 0.08608 0.5332 0.0
C2303 C 0.57958 0.07965 0.55181 0.0
C2304 C 0.55158 0.0998 0.53161 0.0
C2305 C 0.56173 0.08382 0.55988 0.0
C2306 C 0.51826 0.11303 0.52918 0.0
C2307 C 0.52554 0.12392 0.49189 0.0
N2308 N 0.54839 0.09355 0.54972 0.0
N2309 N 0.5393 0.11552 0.50265 0.0
H2310 H 0.2058 0.32642 0.78236 0.0
H2311 H 0.12409 0.24745 0.79134 0.0
H2312 H 0.16888 0.32103 0.8313 0.0
H2313 H 0.15605 0.25739 0.73973 0.0
H2314 H 0.14026 0.27446 0.80615 0.0
H2315 H 0.18792 0.30115 0.76658 0.0
C2316 C 0.19392 0.32005 0.78981 0.0
C2317 C 0.18895 0.32601 0.80829 0.0
C2318 C 0.14365 0.27083 0.79154 0.0
C2319 C 0.16843 0.29677 0.79024 0.0
C2320 C 0.13438 0.25541 0.78304 0.0
C2321 C 0.13872 0.25007 0.76425 0.0
C2322 C 0.15751 0.28097 0.78125 0.0
C2323 C 0.15221 0.26096 0.75424 0.0
C2324 C 0.18372 0.30553 0.78077 0.0
C2325 C 0.17351 0.31687 0.81722 0.0
N2326 N 0.16121 0.27579 0.7629 0.0
N2327 N 0.16386 0.30274 0.80814 0.0
H2328 H 0.42659 0.44081 0.52711 0.0
H2329 H 0.53034 0.39339 0.52674 0.0
H2330 H 0.46224 0.43735 0.57706 0.0
H2331 H 0.4927 0.39367 0.47812 0.0
H2332 H 0.50549 0.4089 0.54561 0.0
H2333 H 0.45075 0.42363 0.50903 0.0
C2334 C 0.43956 0.43661 0.53427 0.0
C2335 C 0.44239 0.44068 0.55367 0.0
C2336 C 0.50262 0.40546 0.53085 0.0
C2337 C 0.47012 0.42063 0.533 0.0
C2338 C 0.5168 0.39655 0.52006 0.0
C2339 C 0.51366 0.39225 0.50076 0.0
C2340 C 0.48517 0.41022 0.52229 0.0
C2341 C 0.49581 0.39671 0.49292 0.0
C2342 C 0.45332 0.42661 0.52395 0.0
C2343 C 0.45938 0.43443 0.5622 0.0
N2344 N 0.48231 0.40554 0.50366 0.0
N2345 N 0.47261 0.42478 0.55181 0.0
H2346 H 0.64279 0.28016 0.24297 0.0
H2347 H 0.69141 0.17706 0.2416 0.0
H2348 H 0.64222 0.24141 0.29071 0.0
H2349 H 0.686 0.21218 0.19146 0.0
H2350 H 0.67401 0.20092 0.25986 0.0
H2351 H 0.65852 0.25567 0.22376 0.0
C2352 C 0.64579 0.26645 0.24937 0.0
C2353 C 0.6412 0.26288 0.26853 0.0
C2354 C 0.67661 0.20345 0.24486 0.0
C2355 C 0.65944 0.23485 0.24665 0.0
C2356 C 0.68674 0.18988 0.23443 0.0
C2357 C 0.69032 0.19265 0.21494 0.0
C2358 C 0.67003 0.22003 0.23581 0.0
C2359 C 0.68348 0.2094 0.20641 0.0
C2360 C 0.65483 0.25249 0.2384 0.0
C2361 C 0.64547 0.24484 0.27603 0.0
N2362 N 0.67373 0.22248 0.2169 0.0
N2363 N 0.65445 0.23158 0.26513 0.0
H2364 H 0.52922 0.8888 0.04187 0.0
H2365 H 0.55895 0.9339 0.94119 0.0
H2366 H 0.49244 0.88965 0.9926 0.0
H2367 H 0.59475 0.93543 0.99113 0.0
H2368 H 0.53517 0.91605 0.95928 0.0
H2369 H 0.55424 0.90395 0.02294 0.0
C2370 C 0.52645 0.89197 0.02703 0.0
C2371 C 0.50864 0.88799 0.01887 0.0
C2372 C 0.54823 0.92029 0.96628 0.0
C2373 C 0.53721 0.90553 0.99712 0.0
C2374 C 0.56187 0.93044 0.95592 0.0
C2375 C 0.57889 0.9363 0.96462 0.0
C2376 C 0.55162 0.91586 0.98551 0.0
C2377 C 0.58175 0.93154 0.98387 0.0
C2378 C 0.54073 0.90071 0.01624 0.0
C2379 C 0.5059 0.8925 0.99955 0.0
N2380 N 0.56827 0.92162 0.99364 0.0
N2381 N 0.51998 0.90108 0.98939 0.0
H2382 H 0.00945 0.11726 0.53169 0.0
H2383 H 0.94926 0.1006 0.43615 0.0
H2384 H 0.02171 0.14539 0.47839 0.0
H2385 H 0.94073 0.06863 0.48799 0.0
H2386 H 0.97418 0.11889 0.452 0.0
H2387 H 0.98217 0.10168 0.51675 0.0
C2388 C 1.00629 0.12037 0.51691 0.0
C2389 C 0.01801 0.13261 0.50627 0.0
C2390 C 0.96682 0.1079 0.45992 0.0
C2391 C 0.98681 0.1146 0.48899 0.0
C2392 C 0.95263 0.09731 0.45082 0.0
C2393 C 0.94281 0.08291 0.46066 0.0
C2394 C 0.9713 0.10412 0.47905 0.0
C2395 C 0.94768 0.07966 0.47982 0.0
C2396 C 0.99074 0.11137 0.50836 0.0
C2397 C 0.01316 0.13603 0.48715 0.0
N2398 N 0.96157 0.09013 0.48834 0.0
N2399 N 0.99802 0.12699 0.47911 0.0
H2400 H 0.18316 0.43538 0.43724 0.0
H2401 H 0.16318 0.32515 0.44574 0.0
H2402 H 0.14943 0.41046 0.48221 0.0
H2403 H 0.21096 0.34646 0.41356 0.0
H2404 H 0.15927 0.35648 0.46024 0.0
H2405 H 0.19526 0.40351 0.42928 0.0
C2406 C 0.1786 0.42331 0.44569 0.0
C2407 C 0.16502 0.42558 0.46023 0.0
C2408 C 0.17083 0.35431 0.45025 0.0
C2409 C 0.17857 0.38915 0.45105 0.0
C2410 C 0.17305 0.3364 0.44197 0.0
C2411 C 0.18737 0.33325 0.42843 0.0
C2412 C 0.18272 0.36939 0.44461 0.0
C2413 C 0.19978 0.34832 0.42404 0.0
C2414 C 0.18548 0.40512 0.44112 0.0
C2415 C 0.15964 0.40941 0.4707 0.0
N2416 N 0.19695 0.36588 0.43184 0.0
N2417 N 0.16619 0.39191 0.46572 0.0
H2418 H 0.90727 0.97457 0.65285 0.0
H2419 H 0.86052 0.89964 0.72464 0.0
H2420 H 0.93934 0.93492 0.68719 0.0
H2421 H 0.82781 0.93375 0.68532 0.0
H2422 H 0.88917 0.91681 0.71526 0.0
H2423 H 0.87805 0.9641 0.66867 0.0
C2424 C 0.90824 0.96387 0.66392 0.0
C2425 C 0.92581 0.95545 0.66853 0.0
C2426 C 0.87572 0.92071 0.70881 0.0
C2427 C 0.89233 0.94335 0.68663 0.0
C2428 C 0.85929 0.91093 0.71419 0.0
C2429 C 0.84172 0.91507 0.70558 0.0
C2430 C 0.87468 0.93474 0.69462 0.0
C2431 C 0.84105 0.92999 0.69227 0.0
C2432 C 0.89151 0.95786 0.6729 0.0
C2433 C 0.92613 0.9417 0.68303 0.0
N2434 N 0.85734 0.93914 0.68702 0.0
N2435 N 0.90964 0.93597 0.69143 0.0
H2436 H 0.31274 0.67018 0.90371 0.0
H2437 H 0.36087 0.60993 0.98628 0.0
H2438 H 0.32681 0.69434 0.95847 0.0
H2439 H 0.335 0.58433 0.93675 0.0
H2440 H 0.34689 0.64053 0.97742 0.0
H2441 H 0.3194 0.63851 0.91625 0.0
C2442 C 0.31713 0.66883 0.91844 0.0
C2443 C 0.3194 0.68501 0.93 0.0
C2444 C 0.34401 0.62818 0.96863 0.0
C2445 C 0.32719 0.64861 0.94446 0.0
C2446 C 0.35198 0.61067 0.97369 0.0
C2447 C 0.34924 0.59455 0.96215 0.0
C2448 C 0.33343 0.6297 0.95174 0.0
C2449 C 0.33752 0.59637 0.94606 0.0
C2450 C 0.32086 0.65068 0.92561 0.0
C2451 C 0.32494 0.68229 0.94903 0.0
N2452 N 0.33029 0.61369 0.94117 0.0
N2453 N 0.32888 0.66446 0.95559 0.0
H2454 H 0.65654 0.11743 0.22512 0.0
H2455 H 0.61144 0.04344 0.15156 0.0
H2456 H 0.68981 0.08132 0.18804 0.0
H2457 H 0.57809 0.08214 0.18583 0.0
H2458 H 0.63997 0.05325 0.16877 0.0
H2459 H 0.62776 0.10083 0.21496 0.0
C2460 C 0.65786 0.10581 0.21504 0.0
C2461 C 0.67565 0.10094 0.20724 0.0
C2462 C 0.6264 0.05944 0.17271 0.0
C2463 C 0.64259 0.08194 0.19541 0.0
C2464 C 0.61005 0.05383 0.1629 0.0
C2465 C 0.59233 0.06216 0.16707 0.0
C2466 C 0.62511 0.0736 0.18678 0.0
C2467 C 0.59144 0.07541 0.18204 0.0
C2468 C 0.64136 0.09636 0.20921 0.0
C2469 C 0.67642 0.08567 0.19435 0.0
N2470 N 0.60764 0.08089 0.19118 0.0
N2471 N 0.6601 0.07687 0.18867 0.0
H2472 H 0.18474 0.68244 0.08433 0.0
H2473 H 0.20681 0.57059 0.07622 0.0
H2474 H 0.23266 0.65506 0.11138 0.0
H2475 H 0.15246 0.59602 0.06283 0.0
H2476 H 0.21954 0.60245 0.08289 0.0
H2477 H 0.17604 0.65189 0.06985 0.0
C2478 C 0.19365 0.67012 0.08692 0.0
C2479 C 0.20933 0.67127 0.09926 0.0
C2480 C 0.20488 0.60104 0.0783 0.0
C2481 C 0.19939 0.63627 0.08285 0.0
C2482 C 0.19763 0.58287 0.07444 0.0
C2483 C 0.17848 0.5806 0.06918 0.0
C2484 C 0.19295 0.61705 0.07671 0.0
C2485 C 0.16725 0.59705 0.06708 0.0
C2486 C 0.18861 0.65265 0.07875 0.0
C2487 C 0.22033 0.65479 0.10213 0.0
N2488 N 0.17461 0.61453 0.07094 0.0
N2489 N 0.21507 0.63796 0.09413 0.0
H2490 H 0.65959 0.90522 0.29096 0.0
H2491 H 0.6089 0.97835 0.36234 0.0
H2492 H 0.68993 0.93944 0.33207 0.0
H2493 H 0.5787 0.93521 0.33059 0.0
H2494 H 0.63844 0.96866 0.3467 0.0
H2495 H 0.62988 0.92054 0.30069 0.0
C2496 C 0.66008 0.91616 0.30184 0.0
C2497 C 0.67731 0.9209 0.31084 0.0
C2498 C 0.62532 0.96145 0.34301 0.0
C2499 C 0.64323 0.93845 0.3221 0.0
C2500 C 0.60839 0.96701 0.35188 0.0
C2501 C 0.59126 0.95746 0.34793 0.0
C2502 C 0.62518 0.94625 0.33001 0.0
C2503 C 0.59157 0.9429 0.33419 0.0
C2504 C 0.64306 0.92484 0.30744 0.0
C2505 C 0.67699 0.93522 0.32482 0.0
N2506 N 0.60827 0.93766 0.32583 0.0
N2507 N 0.66022 0.94338 0.33011 0.0
H2508 H 0.36528 0.40801 0.54263 0.0
H2509 H 0.29097 0.35925 0.61383 0.0
H2510 H 0.33124 0.43966 0.58294 0.0
H2511 H 0.33222 0.32826 0.5803 0.0
H2512 H 0.30111 0.38876 0.59838 0.0
H2513 H 0.34873 0.37896 0.55189 0.0
C2514 C 0.35414 0.40892 0.55328 0.0
C2515 C 0.34983 0.42632 0.5622 0.0
C2516 C 0.30778 0.37547 0.59425 0.0
C2517 C 0.33086 0.39291 0.57299 0.0
C2518 C 0.30196 0.35857 0.60301 0.0
C2519 C 0.3109 0.34123 0.59851 0.0
C2520 C 0.3226 0.37505 0.58082 0.0
C2521 C 0.32502 0.34129 0.58435 0.0
C2522 C 0.34472 0.39227 0.55859 0.0
C2523 C 0.33511 0.42657 0.57576 0.0
N2524 N 0.33053 0.35794 0.57613 0.0
N2525 N 0.3263 0.41007 0.5809 0.0
H2526 H 0.92419 0.05702 0.85379 0.0
H2527 H 0.85766 0.11835 0.78441 0.0
H2528 H 0.94323 0.10611 0.82215 0.0
H2529 H 0.83541 0.0847 0.83083 0.0
H2530 H 0.8897 0.10742 0.79228 0.0
H2531 H 0.89238 0.06079 0.83968 0.0
C2532 C 0.92181 0.06831 0.84355 0.0
C2533 C 0.93633 0.08136 0.8392 0.0
C2534 C 0.87777 0.10223 0.80059 0.0
C2535 C 0.9001 0.0857 0.82307 0.0
C2536 C 0.85943 0.1084 0.79606 0.0
C2537 C 0.84378 0.10264 0.80713 0.0
C2538 C 0.88057 0.09009 0.81621 0.0
C2539 C 0.84705 0.08965 0.82201 0.0
C2540 C 0.90363 0.07052 0.83563 0.0
C2541 C 0.9324 0.09582 0.82599 0.0
N2542 N 0.86511 0.08393 0.82623 0.0
N2543 N 0.91467 0.09765 0.81846 0.0
H2544 H 0.43826 0.18703 0.44103 0.0
H2545 H 0.43976 0.18893 0.3272 0.0
H2546 H 0.4743 0.15102 0.40653 0.0
H2547 H 0.40473 0.22598 0.36164 0.0
H2548 H 0.45591 0.17808 0.35612 0.0
H2549 H 0.42913 0.2046 0.41232 0.0
C2550 C 0.44449 0.183 0.42749 0.0
C2551 C 0.45688 0.16736 0.42619 0.0
C2552 C 0.44485 0.18877 0.35733 0.0
C2553 C 0.44634 0.18728 0.39322 0.0
C2554 C 0.43567 0.19502 0.34078 0.0
C2555 C 0.42068 0.20821 0.34198 0.0
C2556 C 0.43896 0.19568 0.37521 0.0
C2557 C 0.41605 0.21563 0.36001 0.0
C2558 C 0.43923 0.193 0.41108 0.0
C2559 C 0.46453 0.16283 0.40823 0.0
N2560 N 0.42497 0.2091 0.3759 0.0
N2561 N 0.45898 0.17258 0.39246 0.0
H2562 H 0.06594 0.15184 0.59973 0.0
H2563 H 0.10982 0.23575 0.6624 0.0
H2564 H 0.07863 0.20738 0.57667 0.0
H2565 H 0.08976 0.18253 0.68571 0.0
H2566 H 0.09665 0.22675 0.63143 0.0
H2567 H 0.07292 0.16373 0.63155 0.0
C2568 C 0.07011 0.16661 0.60136 0.0
C2569 C 0.07185 0.17859 0.58543 0.0
C2570 C 0.09493 0.21714 0.64337 0.0
C2571 C 0.08002 0.19233 0.62206 0.0
C2572 C 0.10242 0.22228 0.6611 0.0
C2573 C 0.10107 0.20981 0.6767 0.0
C2574 C 0.08612 0.19932 0.64114 0.0
C2575 C 0.09125 0.19258 0.67412 0.0
C2576 C 0.07405 0.17341 0.6196 0.0
C2577 C 0.07715 0.19763 0.58852 0.0
N2578 N 0.08436 0.18778 0.65666 0.0
N2579 N 0.08124 0.20386 0.60645 0.0
H2580 H 0.06374 0.8658 0.92129 0.0
H2581 H 0.10892 0.78283 0.85839 0.0
H2582 H 0.07892 0.81097 0.94455 0.0
H2583 H 0.0855 0.83457 0.83489 0.0
H2584 H 0.09605 0.79161 0.88958 0.0
H2585 H 0.06976 0.8536 0.88934 0.0
C2586 C 0.06822 0.85112 0.91968 0.0
C2587 C 0.07099 0.83944 0.93569 0.0
C2588 C 0.0935 0.80092 0.87755 0.0
C2589 C 0.07808 0.82537 0.89895 0.0
C2590 C 0.10083 0.7959 0.8597 0.0
C2591 C 0.09846 0.80806 0.84397 0.0
C2592 C 0.08387 0.81832 0.87977 0.0
C2593 C 0.08778 0.82478 0.84657 0.0
C2594 C 0.07162 0.84414 0.90138 0.0
C2595 C 0.07664 0.82049 0.93264 0.0
N2596 N 0.0811 0.82951 0.86415 0.0
N2597 N 0.08023 0.81411 0.91464 0.0
H2598 H 0.41483 0.82203 0.07416 0.0
H2599 H 0.43325 0.83166 0.18445 0.0
H2600 H 0.46219 0.85461 0.09572 0.0
H2601 H 0.4009 0.78571 0.15952 0.0
H2602 H 0.44571 0.83943 0.15268 0.0
H2603 H 0.41079 0.80765 0.10553 0.0
C2604 C 0.42458 0.82591 0.08547 0.0
C2605 C 0.43882 0.83953 0.08238 0.0
C2606 C 0.43617 0.82743 0.15428 0.0
C2607 C 0.43401 0.8235 0.11856 0.0
C2608 C 0.42908 0.82296 0.17241 0.0
C2609 C 0.41576 0.8082 0.17464 0.0
C2610 C 0.42973 0.81717 0.13832 0.0
C2611 C 0.41089 0.79741 0.1585 0.0
C2612 C 0.42229 0.8177 0.1034 0.0
C2613 C 0.45108 0.84407 0.09753 0.0
N2614 N 0.41761 0.80229 0.14105 0.0
N2615 N 0.44817 0.83634 0.11511 0.0
H2616 H 0.43985 0.44012 0.19094 0.0
H2617 H 0.32638 0.44156 0.18891 0.0
H2618 H 0.40717 0.47755 0.15473 0.0
H2619 H 0.35911 0.41072 0.23082 0.0
H2620 H 0.35566 0.45691 0.17793 0.0
H2621 H 0.41053 0.43118 0.20747 0.0
C2622 C 0.42656 0.44667 0.18663 0.0
C2623 C 0.42599 0.45949 0.17129 0.0
C2624 C 0.35641 0.44697 0.18969 0.0
C2625 C 0.39226 0.4491 0.19003 0.0
C2626 C 0.33966 0.43821 0.19599 0.0
C2627 C 0.34027 0.42467 0.21071 0.0
C2628 C 0.37394 0.44204 0.19803 0.0
C2629 C 0.35793 0.42096 0.21937 0.0
C2630 C 0.40979 0.44153 0.19607 0.0
C2631 C 0.40832 0.46754 0.1664 0.0
N2632 N 0.37406 0.4294 0.21275 0.0
N2633 N 0.39216 0.46204 0.17556 0.0
H2634 H 0.86475 0.90603 0.04036 0.0
H2635 H 0.79098 0.86066 0.11426 0.0
H2636 H 0.82984 0.93942 0.07846 0.0
H2637 H 0.83183 0.82804 0.08182 0.0
H2638 H 0.80068 0.88929 0.09702 0.0
H2639 H 0.84836 0.87734 0.05099 0.0
C2640 C 0.85343 0.9074 0.05077 0.0
C2641 C 0.84885 0.92519 0.05871 0.0
C2642 C 0.80736 0.87583 0.09352 0.0
C2643 C 0.83009 0.89222 0.07109 0.0
C2644 C 0.80179 0.85943 0.10332 0.0
C2645 C 0.81076 0.84191 0.09966 0.0
C2646 C 0.82199 0.87474 0.07991 0.0
C2647 C 0.82463 0.84124 0.08525 0.0
C2648 C 0.84411 0.89095 0.05688 0.0
C2649 C 0.83394 0.92602 0.07203 0.0
N2650 N 0.82993 0.85744 0.07604 0.0
N2651 N 0.82524 0.90973 0.07797 0.0
H2652 H 0.19167 0.57301 0.66159 0.0
H2653 H 0.08171 0.58086 0.68345 0.0
H2654 H 0.17025 0.60505 0.70948 0.0
H2655 H 0.10585 0.53629 0.64858 0.0
H2656 H 0.11374 0.58876 0.69477 0.0
H2657 H 0.16044 0.55819 0.65794 0.0
C2658 C 0.18044 0.57671 0.67152 0.0
C2659 C 0.18352 0.59036 0.68578 0.0
C2660 C 0.11197 0.57704 0.6849 0.0
C2661 C 0.14755 0.57372 0.68146 0.0
C2662 C 0.09368 0.57251 0.67842 0.0
C2663 C 0.09108 0.55803 0.66484 0.0
C2664 C 0.12779 0.56721 0.67753 0.0
C2665 C 0.10714 0.54766 0.65892 0.0
C2666 C 0.1626 0.56822 0.66945 0.0
C2667 C 0.16848 0.59457 0.69831 0.0
N2668 N 0.1248 0.55265 0.66505 0.0
N2669 N 0.15103 0.58654 0.69564 0.0
H2670 H 0.65329 0.91175 0.9864 0.0
H2671 H 0.71253 0.84472 0.9156 0.0
H2672 H 0.6862 0.93371 0.9393 0.0
H2673 H 0.66352 0.82633 0.94778 0.0
H2674 H 0.70954 0.87647 0.93006 0.0
H2675 H 0.66384 0.87963 0.9783 0.0
C2676 C 0.66302 0.9099 0.97456 0.0
C2677 C 0.66864 0.92549 0.96335 0.0
C2678 C 0.69966 0.86537 0.93415 0.0
C2679 C 0.68075 0.88861 0.95401 0.0
C2680 C 0.70142 0.84723 0.92602 0.0
C2681 C 0.68816 0.83292 0.93042 0.0
C2682 C 0.68472 0.86907 0.94696 0.0
C2683 C 0.67395 0.83699 0.94388 0.0
C2684 C 0.66896 0.89151 0.9699 0.0
C2685 C 0.68135 0.92212 0.94822 0.0
N2686 N 0.67256 0.85469 0.95161 0.0
N2687 N 0.68684 0.90402 0.94388 0.0
H2688 H 0.80707 0.17276 0.41307 0.0
H2689 H 0.86537 0.10721 0.48584 0.0
H2690 H 0.85489 0.19218 0.44637 0.0
H2691 H 0.83502 0.0843 0.43751 0.0
H2692 H 0.85444 0.13904 0.47719 0.0
H2693 H 0.81038 0.14106 0.42758 0.0
C2694 C 0.81796 0.17048 0.42375 0.0
C2695 C 0.83081 0.18507 0.42847 0.0
C2696 C 0.84997 0.12701 0.46863 0.0
C2697 C 0.8346 0.149 0.44507 0.0
C2698 C 0.85613 0.10878 0.47359 0.0
C2699 C 0.85134 0.09302 0.46223 0.0
C2700 C 0.83877 0.12957 0.45228 0.0
C2701 C 0.83922 0.09604 0.44658 0.0
C2702 C 0.81992 0.15238 0.4319 0.0
C2703 C 0.84478 0.18129 0.44224 0.0
N2704 N 0.83348 0.114 0.44195 0.0
N2705 N 0.84634 0.16364 0.45 0.0
H2706 H 0.73282 0.15922 0.62209 0.0
H2707 H 0.66776 0.09372 0.55521 0.0
H2708 H 0.6891 0.18218 0.58545 0.0
H2709 H 0.69444 0.07433 0.60704 0.0
H2710 H 0.68189 0.12535 0.56027 0.0
H2711 H 0.72534 0.12733 0.61045 0.0
C2712 C 0.72186 0.15764 0.61134 0.0
C2713 C 0.7114 0.17344 0.60493 0.0
C2714 C 0.68486 0.11405 0.57034 0.0
C2715 C 0.70278 0.13683 0.59156 0.0
C2716 C 0.67693 0.09599 0.56741 0.0
C2717 C 0.67986 0.08143 0.58081 0.0
C2718 C 0.69603 0.11742 0.5866 0.0
C2719 C 0.69171 0.08519 0.59644 0.0
C2720 C 0.71755 0.13938 0.60478 0.0
C2721 C 0.69741 0.17041 0.59093 0.0
N2722 N 0.69931 0.10282 0.59894 0.0
N2723 N 0.6934 0.15244 0.58481 0.0
H2724 H 0.11112 0.48126 0.86326 0.0
H2725 H 0.15769 0.4059 0.7917 0.0
H2726 H 0.07888 0.44359 0.8269 0.0
H2727 H 0.19032 0.43888 0.83203 0.0
H2728 H 0.12927 0.42379 0.80051 0.0
H2729 H 0.14047 0.47014 0.84813 0.0
C2730 C 0.11015 0.47089 0.85187 0.0
C2731 C 0.09246 0.46321 0.84651 0.0
C2732 C 0.14267 0.42729 0.80731 0.0
C2733 C 0.12611 0.4503 0.82921 0.0
C2734 C 0.15896 0.41709 0.80226 0.0
C2735 C 0.17642 0.42071 0.8113 0.0
C2736 C 0.14372 0.44122 0.82162 0.0
C2737 C 0.17716 0.43552 0.82474 0.0
C2738 C 0.12696 0.46449 0.8433 0.0
C2739 C 0.09216 0.44982 0.83164 0.0
N2740 N 0.16099 0.44508 0.82966 0.0
N2741 N 0.10873 0.44368 0.82366 0.0
H2742 H 0.33386 0.58661 0.33229 0.0
H2743 H 0.44464 0.60313 0.32133 0.0
H2744 H 0.35906 0.61872 0.28631 0.0
H2745 H 0.4221 0.55811 0.3565 0.0
H2746 H 0.41326 0.60729 0.30703 0.0
H2747 H 0.36551 0.57397 0.34016 0.0
C2748 C 0.34594 0.59071 0.32361 0.0
C2749 C 0.34381 0.60398 0.30879 0.0
C2750 C 0.41517 0.59626 0.31764 0.0
C2751 C 0.38003 0.58979 0.31787 0.0
C2752 C 0.43311 0.59389 0.32581 0.0
C2753 C 0.43595 0.58031 0.34015 0.0
C2754 C 0.39975 0.58528 0.32417 0.0
C2755 C 0.42052 0.56871 0.34541 0.0
C2756 C 0.36401 0.58352 0.32814 0.0
C2757 C 0.36 0.60875 0.29804 0.0
N2758 N 0.40296 0.57169 0.33767 0.0
N2759 N 0.3774 0.6019 0.30296 0.0
H2760 H 0.96088 0.66542 0.92393 0.0
H2761 H 0.89989 0.73575 0.85814 0.0
H2762 H 0.91202 0.69732 0.94328 0.0
H2763 H 0.93439 0.69009 0.83557 0.0
H2764 H 0.91087 0.72778 0.89015 0.0
H2765 H 0.95761 0.68028 0.89242 0.0
C2766 C 0.94973 0.67585 0.92168 0.0
C2767 C 0.93658 0.68003 0.93618 0.0
C2768 C 0.91625 0.71968 0.87816 0.0
C2769 C 0.93281 0.69703 0.90029 0.0
C2770 C 0.91005 0.72427 0.85984 0.0
C2771 C 0.916 0.7134 0.84412 0.0
C2772 C 0.92858 0.70418 0.88085 0.0
C2773 C 0.92927 0.69873 0.84728 0.0
C2774 C 0.94781 0.68422 0.90368 0.0
C2775 C 0.92235 0.69356 0.93245 0.0
N2776 N 0.93497 0.69442 0.86531 0.0
N2777 N 0.92078 0.70149 0.91486 0.0
H2778 H 0.60452 0.69529 0.07612 0.0
H2779 H 0.58814 0.68501 0.18702 0.0
H2780 H 0.55964 0.6601 0.0989 0.0
H2781 H 0.62021 0.73077 0.16143 0.0
H2782 H 0.57536 0.67697 0.15545 0.0
H2783 H 0.60861 0.70982 0.10741 0.0
C2784 C 0.59531 0.69084 0.08769 0.0
C2785 C 0.58179 0.67644 0.08495 0.0
C2786 C 0.58492 0.68898 0.15685 0.0
C2787 C 0.58668 0.69268 0.12105 0.0
C2788 C 0.59218 0.69361 0.17487 0.0
C2789 C 0.60552 0.7084 0.17684 0.0
C2790 C 0.59118 0.69913 0.14074 0.0
C2791 C 0.61023 0.71905 0.16059 0.0
C2792 C 0.59763 0.69914 0.10558 0.0
C2793 C 0.5702 0.67123 0.10042 0.0
N2794 N 0.60331 0.71404 0.14324 0.0
N2795 N 0.57315 0.6791 0.11794 0.0
H2796 H 0.58126 0.32905 0.32905 0.0
H2797 H 0.58246 0.33094 0.44281 0.0
H2798 H 0.61831 0.29413 0.36351 0.0
H2799 H 0.54606 0.36639 0.4082 0.0
H2800 H 0.59188 0.3134 0.41416 0.0
H2801 H 0.56437 0.33888 0.35792 0.0
C2802 C 0.58565 0.32319 0.34263 0.0
C2803 C 0.60142 0.31097 0.34386 0.0
C2804 C 0.58163 0.32485 0.41288 0.0
C2805 C 0.58229 0.32233 0.37703 0.0
C2806 C 0.57619 0.33484 0.42926 0.0
C2807 C 0.56367 0.35036 0.42789 0.0
C2808 C 0.57453 0.33047 0.395 0.0
C2809 C 0.55596 0.3547 0.40993 0.0
C2810 C 0.57604 0.32886 0.35914 0.0
C2811 C 0.6064 0.30378 0.36187 0.0
N2812 N 0.56169 0.34498 0.39419 0.0
N2813 N 0.59703 0.30975 0.37774 0.0
H2814 H 0.89675 0.29663 0.65508 0.0
H2815 H 0.97204 0.3692 0.61091 0.0
H2816 H 0.93384 0.3322 0.68882 0.0
H2817 H 0.93359 0.33521 0.57707 0.0
H2818 H 0.96202 0.35182 0.63926 0.0
H2819 H 0.91377 0.30652 0.62644 0.0
C2820 C 0.90866 0.30632 0.65653 0.0
C2821 C 0.91369 0.3138 0.6744 0.0
C2822 C 0.95593 0.34797 0.62562 0.0
C2823 C 0.93318 0.32534 0.64152 0.0
C2824 C 0.96167 0.35788 0.60938 0.0
C2825 C 0.95345 0.35385 0.59158 0.0
C2826 C 0.94176 0.33396 0.62416 0.0
C2827 C 0.94022 0.3389 0.59049 0.0
C2828 C 0.91837 0.31199 0.64012 0.0
C2829 C 0.92936 0.32616 0.67535 0.0
N2830 N 0.9346 0.32967 0.6066 0.0
N2831 N 0.93839 0.33173 0.65911 0.0
loop_
_geom_bond_atom_site_label_1
_geom_bond_atom_site_label_2
_geom_bond_distance
_geom_bond_site_symmetry_2
_ccdc_geom_bond_type
Cu0 N1 1.999 . S
Cu0 O6 1.974 . S
Cu0 N11 1.985 . S
Cu0 O20 1.959 . S
N1 Cu0 1.999 . S
N1 C3 1.263 . S
N1 C5 1.389 . S
N2 C3 1.358 . S
N2 C4 1.400 . S
C3 N1 1.263 . S
C3 N2 1.358 . S
C3 H9 0.930 . S
C4 N2 1.400 . S
C4 C5 1.351 . S
C4 H21 0.930 . S
C5 N1 1.389 . S
C5 C4 1.351 . S
C5 H10 0.930 . S
O6 Cu0 1.974 . S
O6 C16 1.282 . S
C7 O8 1.261 . S
C7 O20 1.251 . S
O8 C7 1.261 . S
H9 C3 0.930 . S
H10 C5 0.930 . S
N11 Cu0 1.985 . S
N11 C13 1.335 . S
N11 C14 1.390 . S
N12 C13 1.345 . S
N12 C15 1.336 . S
C13 N11 1.335 . S
C13 N12 1.345 . S
C13 H18 0.930 . S
C14 N11 1.390 . S
C14 C15 1.346 . S
C14 H19 0.930 . S
C15 N12 1.336 . S
C15 C14 1.346 . S
C15 H22 0.929 . S
C16 O6 1.282 . S
C16 O17 1.216 . S
O17 C16 1.216 . S
H18 C13 0.930 . S
H19 C14 0.930 . S
O20 Cu0 1.959 . S
O20 C7 1.251 . S
H21 C4 0.930 . S
H22 C15 0.929 . S
Cu23 N24 1.999 . S
Cu23 O29 1.974 . S
Cu23 N34 1.985 . S
Cu23 O43 1.959 . S
N24 Cu23 1.999 . S
N24 C26 1.263 . S
N24 C28 1.389 . S
N25 C26 1.358 . S
N25 C27 1.400 . S
C26 N24 1.263 . S
C26 N25 1.358 . S
C26 H32 0.930 . S
C27 N25 1.400 . S
C27 C28 1.351 . S
C27 H44 0.930 . S
C28 N24 1.389 . S
C28 C27 1.351 . S
C28 H33 0.930 . S
O29 Cu23 1.974 . S
O29 C39 1.282 . S
C30 O31 1.261 . S
C30 O43 1.251 . S
O31 C30 1.261 . S
H32 C26 0.930 . S
H33 C28 0.930 . S
N34 Cu23 1.985 . S
N34 C36 1.335 . S
N34 C37 1.390 . S
N35 C36 1.345 . S
N35 C38 1.336 1_655 S
C36 N34 1.335 . S
C36 N35 1.345 . S
C36 H41 0.930 . S
C37 N34 1.390 . S
C37 C38 1.346 1_655 S
C37 H42 0.930 1_655 S
C38 N35 1.336 1_455 S
C38 C37 1.346 1_455 S
C38 H45 0.929 . S
C39 O29 1.282 . S
C39 O40 1.216 . S
O40 C39 1.216 . S
H41 C36 0.930 . S
H42 C37 0.930 1_455 S
O43 Cu23 1.959 . S
O43 C30 1.251 . S
H44 C27 0.930 . S
H45 C38 0.929 . S
Cu46 N47 1.999 . S
Cu46 O52 1.974 . S
Cu46 N57 1.985 . S
Cu46 O66 1.959 . S
N47 Cu46 1.999 . S
N47 C49 1.263 . S
N47 C51 1.389 . S
N48 C49 1.358 . S
N48 C50 1.400 . S
C49 N47 1.263 . S
C49 N48 1.358 . S
C49 H55 0.930 . S
C50 N48 1.400 . S
C50 C51 1.351 . S
C50 H67 0.930 . S
C51 N47 1.389 . S
C51 C50 1.351 . S
C51 H56 0.930 . S
O52 Cu46 1.974 . S
O52 C62 1.282 . S
C53 O54 1.261 . S
C53 O66 1.251 . S
O54 C53 1.261 . S
H55 C49 0.930 . S
H56 C51 0.930 . S
N57 Cu46 1.985 . S
N57 C59 1.335 . S
N57 C60 1.390 . S
N58 C59 1.345 . S
N58 C61 1.336 . S
C59 N57 1.335 . S
C59 N58 1.345 . S
C59 H64 0.930 . S
C60 N57 1.390 . S
C60 C61 1.346 . S
C60 H65 0.930 . S
C61 N58 1.336 . S
C61 C60 1.346 . S
C61 H68 0.929 . S
C62 O52 1.282 . S
C62 O63 1.216 . S
O63 C62 1.216 . S
H64 C59 0.930 . S
H65 C60 0.930 . S
O66 Cu46 1.959 . S
O66 C53 1.251 . S
H67 C50 0.930 . S
H68 C61 0.929 . S
Cu69 N70 1.999 . S
Cu69 O75 1.974 . S
Cu69 N80 1.985 . S
Cu69 O89 1.959 . S
N70 Cu69 1.999 . S
N70 C72 1.263 . S
N70 C74 1.389 . S
N71 C72 1.358 . S
N71 C73 1.400 . S
C72 N70 1.263 . S
C72 N71 1.358 . S
C72 H78 0.930 . S
C73 N71 1.400 . S
C73 C74 1.351 . S
C73 H90 0.930 . S
C74 N70 1.389 . S
C74 C73 1.351 . S
C74 H79 0.930 . S
O75 Cu69 1.974 . S
O75 C85 1.282 . S
C76 O77 1.261 . S
C76 O89 1.251 . S
O77 C76 1.261 . S
H78 C72 0.930 . S
H79 C74 0.930 . S
N80 Cu69 1.985 . S
N80 C82 1.335 . S
N80 C83 1.390 . S
N81 C82 1.345 . S
N81 C84 1.336 . S
C82 N80 1.335 . S
C82 N81 1.345 . S
C82 H87 0.930 . S
C83 N80 1.390 . S
C83 C84 1.346 . S
C83 H88 0.930 . S
C84 N81 1.336 . S
C84 C83 1.346 . S
C84 H91 0.929 . S
C85 O75 1.282 . S
C85 O86 1.216 . S
O86 C85 1.216 . S
H87 C82 0.930 . S
H88 C83 0.930 . S
O89 Cu69 1.959 . S
O89 C76 1.251 . S
H90 C73 0.930 . S
H91 C84 0.929 . S
Cu92 N93 1.999 . S
Cu92 O98 1.974 . S
Cu92 N103 1.985 . S
Cu92 O112 1.959 . S
N93 Cu92 1.999 . S
N93 C95 1.263 . S
N93 C97 1.389 . S
N94 C95 1.358 . S
N94 C96 1.400 . S
C95 N93 1.263 . S
C95 N94 1.358 . S
C95 H101 0.930 . S
C96 N94 1.400 . S
C96 C97 1.351 . S
C96 H113 0.930 . S
C97 N93 1.389 . S
C97 C96 1.351 . S
C97 H102 0.930 . S
O98 Cu92 1.974 . S
O98 C108 1.282 . S
C99 O100 1.261 . S
C99 O112 1.251 . S
O100 C99 1.261 . S
H101 C95 0.930 . S
H102 C97 0.930 . S
N103 Cu92 1.985 . S
N103 C105 1.335 . S
N103 C106 1.390 . S
N104 C105 1.345 . S
N104 C107 1.336 . S
C105 N103 1.335 . S
C105 N104 1.345 . S
C105 H110 0.930 . S
C106 N103 1.390 . S
C106 C107 1.346 . S
C106 H111 0.930 . S
C107 N104 1.336 . S
C107 C106 1.346 . S
C107 H114 0.929 . S
C108 O98 1.282 . S
C108 O109 1.216 . S
O109 C108 1.216 . S
H110 C105 0.930 . S
H111 C106 0.930 . S
O112 Cu92 1.959 . S
O112 C99 1.251 . S
H113 C96 0.930 . S
H114 C107 0.929 . S
Cu115 N116 1.999 . S
Cu115 O121 1.974 . S
Cu115 N126 1.985 . S
Cu115 O135 1.959 . S
N116 Cu115 1.999 . S
N116 C118 1.263 . S
N116 C120 1.389 . S
N117 C118 1.358 . S
N117 C119 1.400 . S
C118 N116 1.263 . S
C118 N117 1.358 . S
C118 H124 0.930 . S
C119 N117 1.400 . S
C119 C120 1.351 . S
C119 H136 0.930 . S
C120 N116 1.389 . S
C120 C119 1.351 . S
C120 H125 0.930 . S
O121 Cu115 1.974 . S
O121 C131 1.282 . S
C122 O123 1.261 . S
C122 O135 1.251 . S
O123 C122 1.261 . S
H124 C118 0.930 . S
H125 C120 0.930 . S
N126 Cu115 1.985 . S
N126 C128 1.335 . S
N126 C129 1.390 . S
N127 C128 1.345 . S
N127 C130 1.336 . S
C128 N126 1.335 . S
C128 N127 1.345 . S
C128 H133 0.930 . S
C129 N126 1.390 . S
C129 C130 1.346 . S
C129 H134 0.930 . S
C130 N127 1.336 . S
C130 C129 1.346 . S
C130 H137 0.929 . S
C131 O121 1.282 . S
C131 O132 1.216 . S
O132 C131 1.216 . S
H133 C128 0.930 . S
H134 C129 0.930 . S
O135 Cu115 1.959 . S
O135 C122 1.251 . S
H136 C119 0.930 . S
H137 C130 0.929 . S
Cu138 N139 1.999 . S
Cu138 O144 1.974 . S
Cu138 N149 1.985 . S
Cu138 O158 1.959 . S
N139 Cu138 1.999 . S
N139 C141 1.263 . S
N139 C143 1.389 . S
N140 C141 1.358 . S
N140 C142 1.400 . S
C141 N139 1.263 . S
C141 N140 1.358 . S
C141 H147 0.930 . S
C142 N140 1.400 . S
C142 C143 1.351 . S
C142 H159 0.930 . S
C143 N139 1.389 . S
C143 C142 1.351 . S
C143 H148 0.930 . S
O144 Cu138 1.974 . S
O144 C154 1.282 . S
C145 O146 1.261 . S
C145 O158 1.251 . S
O146 C145 1.261 . S
H147 C141 0.930 . S
H148 C143 0.930 . S
N149 Cu138 1.985 . S
N149 C151 1.335 . S
N149 C152 1.390 . S
N150 C151 1.345 . S
N150 C153 1.336 . S
C151 N149 1.335 . S
C151 N150 1.345 . S
C151 H156 0.930 . S
C152 N149 1.390 . S
C152 C153 1.346 . S
C152 H157 0.930 . S
C153 N150 1.336 . S
C153 C152 1.346 . S
C153 H160 0.929 . S
C154 O144 1.282 . S
C154 O155 1.216 . S
O155 C154 1.216 . S
H156 C151 0.930 . S
H157 C152 0.930 . S
O158 Cu138 1.959 . S
O158 C145 1.251 . S
H159 C142 0.930 . S
H160 C153 0.929 . S
Cu161 N162 1.999 . S
Cu161 O167 1.974 . S
Cu161 N172 1.985 . S
Cu161 O181 1.959 . S
N162 Cu161 1.999 . S
N162 C164 1.263 . S
N162 C166 1.389 . S
N163 C164 1.358 . S
N163 C165 1.400 . S
C164 N162 1.263 . S
C164 N163 1.358 . S
C164 H170 0.930 . S
C165 N163 1.400 . S
C165 C166 1.351 . S
C165 H182 0.930 . S
C166 N162 1.389 . S
C166 C165 1.351 . S
C166 H171 0.930 . S
O167 Cu161 1.974 . S
O167 C177 1.282 . S
C168 O169 1.261 . S
C168 O181 1.251 . S
O169 C168 1.261 . S
H170 C164 0.930 . S
H171 C166 0.930 . S
N172 Cu161 1.985 . S
N172 C174 1.335 . S
N172 C175 1.390 . S
N173 C174 1.345 . S
N173 C176 1.336 1_655 S
C174 N172 1.335 . S
C174 N173 1.345 . S
C174 H179 0.930 . S
C175 N172 1.390 . S
C175 C176 1.346 1_655 S
C175 H180 0.930 1_655 S
C176 N173 1.336 1_455 S
C176 C175 1.346 1_455 S
C176 H183 0.929 . S
C177 O167 1.282 . S
C177 O178 1.216 . S
O178 C177 1.216 . S
H179 C174 0.930 . S
H180 C175 0.930 1_455 S
O181 Cu161 1.959 . S
O181 C168 1.251 . S
H182 C165 0.930 . S
H183 C176 0.929 . S
Cu184 N185 1.999 . S
Cu184 O190 1.974 . S
Cu184 N195 1.985 . S
Cu184 O204 1.959 . S
N185 Cu184 1.999 . S
N185 C187 1.263 . S
N185 C189 1.389 . S
N186 C187 1.358 . S
N186 C188 1.400 . S
C187 N185 1.263 . S
C187 N186 1.358 . S
C187 H193 0.930 . S
C188 N186 1.400 . S
C188 C189 1.351 . S
C188 H205 0.930 . S
C189 N185 1.389 . S
C189 C188 1.351 . S
C189 H194 0.930 . S
O190 Cu184 1.974 . S
O190 C200 1.282 . S
C191 O192 1.261 . S
C191 O204 1.251 . S
O192 C191 1.261 . S
H193 C187 0.930 . S
H194 C189 0.930 . S
N195 Cu184 1.985 . S
N195 C197 1.335 . S
N195 C198 1.390 . S
N196 C197 1.345 . S
N196 C199 1.336 . S
C197 N195 1.335 . S
C197 N196 1.345 . S
C197 H202 0.930 . S
C198 N195 1.390 . S
C198 C199 1.346 . S
C198 H203 0.930 . S
C199 N196 1.336 . S
C199 C198 1.346 . S
C199 H206 0.929 . S
C200 O190 1.282 . S
C200 O201 1.216 . S
O201 C200 1.216 . S
H202 C197 0.930 . S
H203 C198 0.930 . S
O204 Cu184 1.959 . S
O204 C191 1.251 . S
H205 C188 0.930 . S
H206 C199 0.929 . S
Cu207 N208 1.999 . S
Cu207 O213 1.974 . S
Cu207 N218 1.985 . S
Cu207 O227 1.959 . S
N208 Cu207 1.999 . S
N208 C210 1.263 . S
N208 C212 1.389 . S
N209 C210 1.358 . S
N209 C211 1.400 . S
C210 N208 1.263 . S
C210 N209 1.358 . S
C210 H216 0.930 . S
C211 N209 1.400 . S
C211 C212 1.351 . S
C211 H228 0.930 . S
C212 N208 1.389 . S
C212 C211 1.351 . S
C212 H217 0.930 . S
O213 Cu207 1.974 . S
O213 C223 1.282 . S
C214 O215 1.261 . S
C214 O227 1.251 . S
O215 C214 1.261 . S
H216 C210 0.930 . S
H217 C212 0.930 . S
N218 Cu207 1.985 . S
N218 C220 1.335 . S
N218 C221 1.390 . S
N219 C220 1.345 . S
N219 C222 1.336 . S
C220 N218 1.335 . S
C220 N219 1.345 . S
C220 H225 0.930 . S
C221 N218 1.390 . S
C221 C222 1.346 . S
C221 H226 0.930 . S
C222 N219 1.336 . S
C222 C221 1.346 . S
C222 H229 0.929 . S
C223 O213 1.282 . S
C223 O224 1.216 . S
O224 C223 1.216 . S
H225 C220 0.930 . S
H226 C221 0.930 . S
O227 Cu207 1.959 . S
O227 C214 1.251 . S
H228 C211 0.930 . S
H229 C222 0.929 . S
Cu230 N231 1.999 . S
Cu230 O236 1.974 . S
Cu230 N241 1.985 . S
Cu230 O250 1.959 . S
N231 Cu230 1.999 . S
N231 C233 1.263 . S
N231 C235 1.389 . S
N232 C233 1.358 . S
N232 C234 1.400 . S
C233 N231 1.263 . S
C233 N232 1.358 . S
C233 H239 0.930 . S
C234 N232 1.400 . S
C234 C235 1.351 . S
C234 H251 0.930 . S
C235 N231 1.389 . S
C235 C234 1.351 . S
C235 H240 0.930 . S
O236 Cu230 1.974 . S
O236 C246 1.282 . S
C237 O238 1.261 . S
C237 O250 1.251 . S
O238 C237 1.261 . S
H239 C233 0.930 . S
H240 C235 0.930 . S
N241 Cu230 1.985 . S
N241 C243 1.335 . S
N241 C244 1.390 . S
N242 C243 1.345 . S
N242 C245 1.336 . S
C243 N241 1.335 . S
C243 N242 1.345 . S
C243 H248 0.930 . S
C244 N241 1.390 . S
C244 C245 1.346 . S
C244 H249 0.930 . S
C245 N242 1.336 . S
C245 C244 1.346 . S
C245 H252 0.929 . S
C246 O236 1.282 . S
C246 O247 1.216 . S
O247 C246 1.216 . S
H248 C243 0.930 . S
H249 C244 0.930 . S
O250 Cu230 1.959 . S
O250 C237 1.251 . S
H251 C234 0.930 . S
H252 C245 0.929 . S
Cu253 N254 1.999 . S
Cu253 O259 1.974 . S
Cu253 N264 1.985 . S
Cu253 O273 1.959 . S
N254 Cu253 1.999 . S
N254 C256 1.263 . S
N254 C258 1.389 . S
N255 C256 1.358 . S
N255 C257 1.400 . S
C256 N254 1.263 . S
C256 N255 1.358 . S
C256 H262 0.930 . S
C257 N255 1.400 . S
C257 C258 1.351 . S
C257 H274 0.930 . S
C258 N254 1.389 . S
C258 C257 1.351 . S
C258 H263 0.930 . S
O259 Cu253 1.974 . S
O259 C269 1.282 . S
C260 O261 1.261 . S
C260 O273 1.251 . S
O261 C260 1.261 . S
H262 C256 0.930 . S
H263 C258 0.930 . S
N264 Cu253 1.985 . S
N264 C266 1.335 . S
N264 C267 1.390 . S
N265 C266 1.345 . S
N265 C268 1.336 1_554 S
C266 N264 1.335 . S
C266 N265 1.345 . S
C266 H271 0.930 . S
C267 N264 1.390 . S
C267 C268 1.346 1_554 S
C267 H272 0.930 1_554 S
C268 N265 1.336 1_556 S
C268 C267 1.346 1_556 S
C268 H275 0.929 . S
C269 O259 1.282 . S
C269 O270 1.216 . S
O270 C269 1.216 . S
H271 C266 0.930 . S
H272 C267 0.930 1_556 S
O273 Cu253 1.959 . S
O273 C260 1.251 . S
H274 C257 0.930 . S
H275 C268 0.929 . S
Cu276 N277 1.999 . S
Cu276 O282 1.974 . S
Cu276 N287 1.985 . S
Cu276 O296 1.959 . S
N277 Cu276 1.999 . S
N277 C279 1.263 . S
N277 C281 1.389 . S
N278 C279 1.358 . S
N278 C280 1.400 . S
C279 N277 1.263 . S
C279 N278 1.358 . S
C279 H285 0.930 . S
C280 N278 1.400 . S
C280 C281 1.351 . S
C280 H297 0.930 . S
C281 N277 1.389 . S
C281 C280 1.351 . S
C281 H286 0.930 . S
O282 Cu276 1.974 . S
O282 C292 1.282 . S
C283 O284 1.261 . S
C283 O296 1.251 . S
O284 C283 1.261 . S
H285 C279 0.930 . S
H286 C281 0.930 . S
N287 Cu276 1.985 . S
N287 C289 1.335 . S
N287 C290 1.390 . S
N288 C289 1.345 . S
N288 C291 1.336 . S
C289 N287 1.335 . S
C289 N288 1.345 . S
C289 H294 0.930 . S
C290 N287 1.390 . S
C290 C291 1.346 . S
C290 H295 0.930 . S
C291 N288 1.336 . S
C291 C290 1.346 . S
C291 H298 0.929 . S
C292 O282 1.282 . S
C292 O293 1.216 . S
O293 C292 1.216 . S
H294 C289 0.930 . S
H295 C290 0.930 . S
O296 Cu276 1.959 . S
O296 C283 1.251 . S
H297 C280 0.930 . S
H298 C291 0.929 . S
Cu299 N300 1.999 . S
Cu299 O305 1.974 . S
Cu299 N310 1.985 . S
Cu299 O319 1.959 . S
N300 Cu299 1.999 . S
N300 C302 1.263 . S
N300 C304 1.389 . S
N301 C302 1.358 . S
N301 C303 1.400 . S
C302 N300 1.263 . S
C302 N301 1.358 . S
C302 H308 0.930 . S
C303 N301 1.400 . S
C303 C304 1.351 . S
C303 H320 0.930 . S
C304 N300 1.389 . S
C304 C303 1.351 . S
C304 H309 0.930 . S
O305 Cu299 1.974 . S
O305 C315 1.282 . S
C306 O307 1.261 . S
C306 O319 1.251 . S
O307 C306 1.261 . S
H308 C302 0.930 . S
H309 C304 0.930 . S
N310 Cu299 1.985 . S
N310 C312 1.335 . S
N310 C313 1.390 . S
N311 C312 1.345 . S
N311 C314 1.336 . S
C312 N310 1.335 . S
C312 N311 1.345 . S
C312 H317 0.930 . S
C313 N310 1.390 . S
C313 C314 1.346 . S
C313 H318 0.930 . S
C314 N311 1.336 . S
C314 C313 1.346 . S
C314 H321 0.929 . S
C315 O305 1.282 . S
C315 O316 1.216 . S
O316 C315 1.216 . S
H317 C312 0.930 . S
H318 C313 0.930 . S
O319 Cu299 1.959 . S
O319 C306 1.251 . S
H320 C303 0.930 . S
H321 C314 0.929 . S
Cu322 N323 1.999 . S
Cu322 O328 1.974 . S
Cu322 N333 1.985 . S
Cu322 O342 1.959 . S
N323 Cu322 1.999 . S
N323 C325 1.263 . S
N323 C327 1.389 . S
N324 C325 1.358 . S
N324 C326 1.400 . S
C325 N323 1.263 . S
C325 N324 1.358 . S
C325 H331 0.930 . S
C326 N324 1.400 . S
C326 C327 1.351 . S
C326 H343 0.930 . S
C327 N323 1.389 . S
C327 C326 1.351 . S
C327 H332 0.930 . S
O328 Cu322 1.974 . S
O328 C338 1.282 . S
C329 O330 1.261 . S
C329 O342 1.251 . S
O330 C329 1.261 . S
H331 C325 0.930 . S
H332 C327 0.930 . S
N333 Cu322 1.985 . S
N333 C335 1.335 . S
N333 C336 1.390 . S
N334 C335 1.345 . S
N334 C337 1.336 . S
C335 N333 1.335 . S
C335 N334 1.345 . S
C335 H340 0.930 . S
C336 N333 1.390 . S
C336 C337 1.346 . S
C336 H341 0.930 . S
C337 N334 1.336 . S
C337 C336 1.346 . S
C337 H344 0.929 . S
C338 O328 1.282 . S
C338 O339 1.216 . S
O339 C338 1.216 . S
H340 C335 0.930 . S
H341 C336 0.930 . S
O342 Cu322 1.959 . S
O342 C329 1.251 . S
H343 C326 0.930 . S
H344 C337 0.929 . S
Cu345 N346 1.999 . S
Cu345 O351 1.974 . S
Cu345 N356 1.985 . S
Cu345 O365 1.959 . S
N346 Cu345 1.999 . S
N346 C348 1.263 . S
N346 C350 1.389 . S
N347 C348 1.358 . S
N347 C349 1.400 . S
C348 N346 1.263 . S
C348 N347 1.358 . S
C348 H354 0.930 . S
C349 N347 1.400 . S
C349 C350 1.351 . S
C349 H366 0.930 . S
C350 N346 1.389 . S
C350 C349 1.351 . S
C350 H355 0.930 . S
O351 Cu345 1.974 . S
O351 C361 1.282 . S
C352 O353 1.261 . S
C352 O365 1.251 . S
O353 C352 1.261 . S
H354 C348 0.930 . S
H355 C350 0.930 . S
N356 Cu345 1.985 . S
N356 C358 1.335 . S
N356 C359 1.390 . S
N357 C358 1.345 . S
N357 C360 1.336 1_556 S
C358 N356 1.335 . S
C358 N357 1.345 . S
C358 H363 0.930 . S
C359 N356 1.390 . S
C359 C360 1.346 1_556 S
C359 H364 0.930 1_556 S
C360 N357 1.336 1_554 S
C360 C359 1.346 1_554 S
C360 H367 0.929 . S
C361 O351 1.282 . S
C361 O362 1.216 . S
O362 C361 1.216 . S
H363 C358 0.930 . S
H364 C359 0.930 1_554 S
O365 Cu345 1.959 . S
O365 C352 1.251 . S
H366 C349 0.930 . S
H367 C360 0.929 . S
Cu368 N369 1.999 . S
Cu368 O374 1.974 . S
Cu368 N379 1.985 . S
Cu368 O388 1.959 . S
N369 Cu368 1.999 . S
N369 C371 1.263 . S
N369 C373 1.389 . S
N370 C371 1.358 . S
N370 C372 1.400 . S
C371 N369 1.263 . S
C371 N370 1.358 . S
C371 H377 0.930 . S
C372 N370 1.400 . S
C372 C373 1.351 . S
C372 H389 0.930 . S
C373 N369 1.389 . S
C373 C372 1.351 . S
C373 H378 0.930 . S
O374 Cu368 1.974 . S
O374 C384 1.282 . S
C375 O376 1.261 . S
C375 O388 1.251 . S
O376 C375 1.261 . S
H377 C371 0.930 . S
H378 C373 0.930 . S
N379 Cu368 1.985 . S
N379 C381 1.335 . S
N379 C382 1.390 . S
N380 C381 1.345 . S
N380 C383 1.336 . S
C381 N379 1.335 . S
C381 N380 1.345 . S
C381 H386 0.930 . S
C382 N379 1.390 . S
C382 C383 1.346 . S
C382 H387 0.930 . S
C383 N380 1.336 . S
C383 C382 1.346 . S
C383 H390 0.929 . S
C384 O374 1.282 . S
C384 O385 1.216 . S
O385 C384 1.216 . S
H386 C381 0.930 . S
H387 C382 0.930 . S
O388 Cu368 1.959 . S
O388 C375 1.251 . S
H389 C372 0.930 . S
H390 C383 0.929 . S
Cu391 N392 1.999 . S
Cu391 O397 1.974 . S
Cu391 N402 1.985 . S
Cu391 O411 1.959 . S
N392 Cu391 1.999 . S
N392 C394 1.263 . S
N392 C396 1.389 . S
N393 C394 1.358 . S
N393 C395 1.400 . S
C394 N392 1.263 . S
C394 N393 1.358 . S
C394 H400 0.930 . S
C395 N393 1.400 . S
C395 C396 1.351 . S
C395 H412 0.930 . S
C396 N392 1.389 . S
C396 C395 1.351 . S
C396 H401 0.930 . S
O397 Cu391 1.974 . S
O397 C407 1.282 . S
C398 O399 1.261 . S
C398 O411 1.251 . S
O399 C398 1.261 . S
H400 C394 0.930 . S
H401 C396 0.930 . S
N402 Cu391 1.985 . S
N402 C404 1.335 . S
N402 C405 1.390 . S
N403 C404 1.345 . S
N403 C406 1.336 . S
C404 N402 1.335 . S
C404 N403 1.345 . S
C404 H409 0.930 . S
C405 N402 1.390 . S
C405 C406 1.346 . S
C405 H410 0.930 . S
C406 N403 1.336 . S
C406 C405 1.346 . S
C406 H413 0.929 . S
C407 O397 1.282 . S
C407 O408 1.216 . S
O408 C407 1.216 . S
H409 C404 0.930 . S
H410 C405 0.930 . S
O411 Cu391 1.959 . S
O411 C398 1.251 . S
H412 C395 0.930 . S
H413 C406 0.929 . S
Cu414 N415 1.999 . S
Cu414 O420 1.974 . S
Cu414 N425 1.985 . S
Cu414 O434 1.959 . S
N415 Cu414 1.999 . S
N415 C417 1.263 . S
N415 C419 1.389 . S
N416 C417 1.358 . S
N416 C418 1.400 . S
C417 N415 1.263 . S
C417 N416 1.358 . S
C417 H423 0.930 . S
C418 N416 1.400 . S
C418 C419 1.351 . S
C418 H435 0.930 . S
C419 N415 1.389 . S
C419 C418 1.351 . S
C419 H424 0.930 . S
O420 Cu414 1.974 . S
O420 C430 1.282 . S
C421 O422 1.261 . S
C421 O434 1.251 . S
O422 C421 1.261 . S
H423 C417 0.930 . S
H424 C419 0.930 . S
N425 Cu414 1.985 . S
N425 C427 1.335 . S
N425 C428 1.390 . S
N426 C427 1.345 . S
N426 C429 1.336 . S
C427 N425 1.335 . S
C427 N426 1.345 . S
C427 H432 0.930 . S
C428 N425 1.390 . S
C428 C429 1.346 . S
C428 H433 0.930 . S
C429 N426 1.336 . S
C429 C428 1.346 . S
C429 H436 0.929 . S
C430 O420 1.282 . S
C430 O431 1.216 . S
O431 C430 1.216 . S
H432 C427 0.930 . S
H433 C428 0.930 . S
O434 Cu414 1.959 . S
O434 C421 1.251 . S
H435 C418 0.930 . S
H436 C429 0.929 . S
Cu437 N438 1.999 . S
Cu437 O443 1.974 . S
Cu437 N448 1.985 . S
Cu437 O457 1.959 . S
N438 Cu437 1.999 . S
N438 C440 1.263 . S
N438 C442 1.389 . S
N439 C440 1.358 . S
N439 C441 1.400 . S
C440 N438 1.263 . S
C440 N439 1.358 . S
C440 H446 0.930 . S
C441 N439 1.400 . S
C441 C442 1.351 . S
C441 H458 0.930 . S
C442 N438 1.389 . S
C442 C441 1.351 . S
C442 H447 0.930 . S
O443 Cu437 1.974 . S
O443 C453 1.282 . S
C444 O445 1.261 . S
C444 O457 1.251 . S
O445 C444 1.261 . S
H446 C440 0.930 . S
H447 C442 0.930 . S
N448 Cu437 1.985 . S
N448 C450 1.335 . S
N448 C451 1.390 . S
N449 C450 1.345 . S
N449 C452 1.336 . S
C450 N448 1.335 . S
C450 N449 1.345 . S
C450 H455 0.930 . S
C451 N448 1.390 . S
C451 C452 1.346 . S
C451 H456 0.930 . S
C452 N449 1.336 . S
C452 C451 1.346 . S
C452 H459 0.929 . S
C453 O443 1.282 . S
C453 O454 1.216 . S
O454 C453 1.216 . S
H455 C450 0.930 . S
H456 C451 0.930 . S
O457 Cu437 1.959 . S
O457 C444 1.251 . S
H458 C441 0.930 . S
H459 C452 0.929 . S
Cu460 N461 1.999 . S
Cu460 O466 1.974 . S
Cu460 N471 1.985 . S
Cu460 O480 1.959 . S
N461 Cu460 1.999 . S
N461 C463 1.263 . S
N461 C465 1.389 . S
N462 C463 1.358 . S
N462 C464 1.400 . S
C463 N461 1.263 . S
C463 N462 1.358 . S
C463 H469 0.930 . S
C464 N462 1.400 . S
C464 C465 1.351 . S
C464 H481 0.930 . S
C465 N461 1.389 . S
C465 C464 1.351 . S
C465 H470 0.930 . S
O466 Cu460 1.974 . S
O466 C476 1.282 . S
C467 O468 1.261 . S
C467 O480 1.251 . S
O468 C467 1.261 . S
H469 C463 0.930 . S
H470 C465 0.930 . S
N471 Cu460 1.985 . S
N471 C473 1.335 . S
N471 C474 1.390 . S
N472 C473 1.345 . S
N472 C475 1.336 1_565 S
C473 N471 1.335 . S
C473 N472 1.345 . S
C473 H478 0.930 . S
C474 N471 1.390 . S
C474 C475 1.346 1_565 S
C474 H479 0.930 1_565 S
C475 N472 1.336 1_545 S
C475 C474 1.346 1_545 S
C475 H482 0.929 . S
C476 O466 1.282 . S
C476 O477 1.216 . S
O477 C476 1.216 . S
H478 C473 0.930 . S
H479 C474 0.930 1_545 S
O480 Cu460 1.959 . S
O480 C467 1.251 . S
H481 C464 0.930 . S
H482 C475 0.929 . S
Cu483 N484 1.999 . S
Cu483 O489 1.974 . S
Cu483 N494 1.985 . S
Cu483 O503 1.959 . S
N484 Cu483 1.999 . S
N484 C486 1.263 . S
N484 C488 1.389 . S
N485 C486 1.358 . S
N485 C487 1.400 . S
C486 N484 1.263 . S
C486 N485 1.358 . S
C486 H492 0.930 . S
C487 N485 1.400 . S
C487 C488 1.351 . S
C487 H504 0.930 . S
C488 N484 1.389 . S
C488 C487 1.351 . S
C488 H493 0.930 . S
O489 Cu483 1.974 . S
O489 C499 1.282 . S
C490 O491 1.261 . S
C490 O503 1.251 . S
O491 C490 1.261 . S
H492 C486 0.930 . S
H493 C488 0.930 . S
N494 Cu483 1.985 . S
N494 C496 1.335 . S
N494 C497 1.390 . S
N495 C496 1.345 . S
N495 C498 1.336 . S
C496 N494 1.335 . S
C496 N495 1.345 . S
C496 H501 0.930 . S
C497 N494 1.390 . S
C497 C498 1.346 . S
C497 H502 0.930 . S
C498 N495 1.336 . S
C498 C497 1.346 . S
C498 H505 0.929 . S
C499 O489 1.282 . S
C499 O500 1.216 . S
O500 C499 1.216 . S
H501 C496 0.930 . S
H502 C497 0.930 . S
O503 Cu483 1.959 . S
O503 C490 1.251 . S
H504 C487 0.930 . S
H505 C498 0.929 . S
Cu506 N507 1.999 . S
Cu506 O512 1.974 . S
Cu506 N517 1.985 . S
Cu506 O526 1.959 . S
N507 Cu506 1.999 . S
N507 C509 1.263 . S
N507 C511 1.389 . S
N508 C509 1.358 . S
N508 C510 1.400 . S
C509 N507 1.263 . S
C509 N508 1.358 . S
C509 H515 0.930 . S
C510 N508 1.400 . S
C510 C511 1.351 . S
C510 H527 0.930 . S
C511 N507 1.389 . S
C511 C510 1.351 . S
C511 H516 0.930 . S
O512 Cu506 1.974 . S
O512 C522 1.282 . S
C513 O514 1.261 . S
C513 O526 1.251 . S
O514 C513 1.261 . S
H515 C509 0.930 . S
H516 C511 0.930 . S
N517 Cu506 1.985 . S
N517 C519 1.335 . S
N517 C520 1.390 . S
N518 C519 1.345 . S
N518 C521 1.336 . S
C519 N517 1.335 . S
C519 N518 1.345 . S
C519 H524 0.930 . S
C520 N517 1.390 . S
C520 C521 1.346 . S
C520 H525 0.930 . S
C521 N518 1.336 . S
C521 C520 1.346 . S
C521 H528 0.929 . S
C522 O512 1.282 . S
C522 O523 1.216 . S
O523 C522 1.216 . S
H524 C519 0.930 . S
H525 C520 0.930 . S
O526 Cu506 1.959 . S
O526 C513 1.251 . S
H527 C510 0.930 . S
H528 C521 0.929 . S
Cu529 N530 1.999 . S
Cu529 O535 1.974 . S
Cu529 N540 1.985 . S
Cu529 O549 1.959 . S
N530 Cu529 1.999 . S
N530 C532 1.263 . S
N530 C534 1.389 . S
N531 C532 1.358 . S
N531 C533 1.400 . S
C532 N530 1.263 . S
C532 N531 1.358 . S
C532 H538 0.930 . S
C533 N531 1.400 . S
C533 C534 1.351 . S
C533 H550 0.930 . S
C534 N530 1.389 . S
C534 C533 1.351 . S
C534 H539 0.930 . S
O535 Cu529 1.974 . S
O535 C545 1.282 . S
C536 O537 1.261 . S
C536 O549 1.251 . S
O537 C536 1.261 . S
H538 C532 0.930 . S
H539 C534 0.930 . S
N540 Cu529 1.985 . S
N540 C542 1.335 . S
N540 C543 1.390 . S
N541 C542 1.345 . S
N541 C544 1.336 . S
C542 N540 1.335 . S
C542 N541 1.345 . S
C542 H547 0.930 . S
C543 N540 1.390 . S
C543 C544 1.346 . S
C543 H548 0.930 . S
C544 N541 1.336 . S
C544 C543 1.346 . S
C544 H551 0.929 . S
C545 O535 1.282 . S
C545 O546 1.216 . S
O546 C545 1.216 . S
H547 C542 0.930 . S
H548 C543 0.930 . S
O549 Cu529 1.959 . S
O549 C536 1.251 . S
H550 C533 0.930 . S
H551 C544 0.929 . S
Cu552 N553 1.999 . S
Cu552 O558 1.974 . S
Cu552 N563 1.985 . S
Cu552 O572 1.959 . S
N553 Cu552 1.999 . S
N553 C555 1.263 . S
N553 C557 1.389 . S
N554 C555 1.358 . S
N554 C556 1.400 . S
C555 N553 1.263 . S
C555 N554 1.358 . S
C555 H561 0.930 . S
C556 N554 1.400 . S
C556 C557 1.351 . S
C556 H573 0.930 . S
C557 N553 1.389 . S
C557 C556 1.351 . S
C557 H562 0.930 . S
O558 Cu552 1.974 . S
O558 C568 1.282 . S
C559 O560 1.261 . S
C559 O572 1.251 . S
O560 C559 1.261 . S
H561 C555 0.930 . S
H562 C557 0.930 . S
N563 Cu552 1.985 . S
N563 C565 1.335 . S
N563 C566 1.390 . S
N564 C565 1.345 . S
N564 C567 1.336 . S
C565 N563 1.335 . S
C565 N564 1.345 . S
C565 H570 0.930 . S
C566 N563 1.390 . S
C566 C567 1.346 . S
C566 H571 0.930 . S
C567 N564 1.336 . S
C567 C566 1.346 . S
C567 H574 0.929 . S
C568 O558 1.282 . S
C568 O569 1.216 . S
O569 C568 1.216 . S
H570 C565 0.930 . S
H571 C566 0.930 . S
O572 Cu552 1.959 . S
O572 C559 1.251 . S
H573 C556 0.930 . S
H574 C567 0.929 . S
Cu575 N576 1.999 . S
Cu575 O581 1.974 . S
Cu575 N586 1.985 . S
Cu575 O595 1.959 . S
N576 Cu575 1.999 . S
N576 C578 1.263 . S
N576 C580 1.389 . S
N577 C578 1.358 . S
N577 C579 1.400 . S
C578 N576 1.263 . S
C578 N577 1.358 . S
C578 H584 0.930 . S
C579 N577 1.400 . S
C579 C580 1.351 . S
C579 H596 0.930 . S
C580 N576 1.389 . S
C580 C579 1.351 . S
C580 H585 0.930 . S
O581 Cu575 1.974 . S
O581 C591 1.282 . S
C582 O583 1.261 . S
C582 O595 1.251 . S
O583 C582 1.261 . S
H584 C578 0.930 . S
H585 C580 0.930 . S
N586 Cu575 1.985 . S
N586 C588 1.335 . S
N586 C589 1.390 . S
N587 C588 1.345 . S
N587 C590 1.336 . S
C588 N586 1.335 . S
C588 N587 1.345 . S
C588 H593 0.930 . S
C589 N586 1.390 . S
C589 C590 1.346 . S
C589 H594 0.930 . S
C590 N587 1.336 . S
C590 C589 1.346 . S
C590 H597 0.929 . S
C591 O581 1.282 . S
C591 O592 1.216 . S
O592 C591 1.216 . S
H593 C588 0.930 . S
H594 C589 0.930 . S
O595 Cu575 1.959 . S
O595 C582 1.251 . S
H596 C579 0.930 . S
H597 C590 0.929 . S
Cu598 N599 1.999 . S
Cu598 O604 1.974 . S
Cu598 N609 1.985 . S
Cu598 O618 1.959 . S
N599 Cu598 1.999 . S
N599 C601 1.263 . S
N599 C603 1.389 . S
N600 C601 1.358 . S
N600 C602 1.400 . S
C601 N599 1.263 . S
C601 N600 1.358 . S
C601 H607 0.930 . S
C602 N600 1.400 . S
C602 C603 1.351 . S
C602 H619 0.930 . S
C603 N599 1.389 . S
C603 C602 1.351 . S
C603 H608 0.930 . S
O604 Cu598 1.974 . S
O604 C614 1.282 . S
C605 O606 1.261 . S
C605 O618 1.251 . S
O606 C605 1.261 . S
H607 C601 0.930 . S
H608 C603 0.930 . S
N609 Cu598 1.985 . S
N609 C611 1.335 . S
N609 C612 1.390 . S
N610 C611 1.345 . S
N610 C613 1.336 . S
C611 N609 1.335 . S
C611 N610 1.345 . S
C611 H616 0.930 . S
C612 N609 1.390 . S
C612 C613 1.346 . S
C612 H617 0.930 . S
C613 N610 1.336 . S
C613 C612 1.346 . S
C613 H620 0.929 . S
C614 O604 1.282 . S
C614 O615 1.216 . S
O615 C614 1.216 . S
H616 C611 0.930 . S
H617 C612 0.930 . S
O618 Cu598 1.959 . S
O618 C605 1.251 . S
H619 C602 0.930 . S
H620 C613 0.929 . S
Cu621 N622 1.999 . S
Cu621 O627 1.974 . S
Cu621 N632 1.985 . S
Cu621 O641 1.959 . S
N622 Cu621 1.999 . S
N622 C624 1.263 . S
N622 C626 1.389 . S
N623 C624 1.358 . S
N623 C625 1.400 . S
C624 N622 1.263 . S
C624 N623 1.358 . S
C624 H630 0.930 . S
C625 N623 1.400 . S
C625 C626 1.351 . S
C625 H642 0.930 . S
C626 N622 1.389 . S
C626 C625 1.351 . S
C626 H631 0.930 . S
O627 Cu621 1.974 . S
O627 C637 1.282 . S
C628 O629 1.261 . S
C628 O641 1.251 . S
O629 C628 1.261 . S
H630 C624 0.930 . S
H631 C626 0.930 . S
N632 Cu621 1.985 . S
N632 C634 1.335 . S
N632 C635 1.390 . S
N633 C634 1.345 . S
N633 C636 1.336 1_455 S
C634 N632 1.335 . S
C634 N633 1.345 . S
C634 H639 0.930 . S
C635 N632 1.390 . S
C635 C636 1.346 1_455 S
C635 H640 0.930 1_455 S
C636 N633 1.336 1_655 S
C636 C635 1.346 1_655 S
C636 H643 0.929 . S
C637 O627 1.282 . S
C637 O638 1.216 . S
O638 C637 1.216 . S
H639 C634 0.930 . S
H640 C635 0.930 1_655 S
O641 Cu621 1.959 . S
O641 C628 1.251 . S
H642 C625 0.930 . S
H643 C636 0.929 . S
Cu644 N645 1.999 . S
Cu644 O650 1.974 . S
Cu644 N655 1.985 . S
Cu644 O664 1.959 . S
N645 Cu644 1.999 . S
N645 C647 1.263 . S
N645 C649 1.389 . S
N646 C647 1.358 . S
N646 C648 1.400 . S
C647 N645 1.263 . S
C647 N646 1.358 . S
C647 H653 0.930 . S
C648 N646 1.400 . S
C648 C649 1.351 . S
C648 H665 0.930 . S
C649 N645 1.389 . S
C649 C648 1.351 . S
C649 H654 0.930 . S
O650 Cu644 1.974 . S
O650 C660 1.282 . S
C651 O652 1.261 . S
C651 O664 1.251 . S
O652 C651 1.261 . S
H653 C647 0.930 . S
H654 C649 0.930 . S
N655 Cu644 1.985 . S
N655 C657 1.335 . S
N655 C658 1.390 . S
N656 C657 1.345 . S
N656 C659 1.336 . S
C657 N655 1.335 . S
C657 N656 1.345 . S
C657 H662 0.930 . S
C658 N655 1.390 . S
C658 C659 1.346 . S
C658 H663 0.930 . S
C659 N656 1.336 . S
C659 C658 1.346 . S
C659 H666 0.929 . S
C660 O650 1.282 . S
C660 O661 1.216 . S
O661 C660 1.216 . S
H662 C657 0.930 . S
H663 C658 0.930 . S
O664 Cu644 1.959 . S
O664 C651 1.251 . S
H665 C648 0.930 . S
H666 C659 0.929 . S
Cu667 N668 1.999 . S
Cu667 O673 1.974 . S
Cu667 N678 1.985 . S
Cu667 O687 1.959 . S
N668 Cu667 1.999 . S
N668 C670 1.263 . S
N668 C672 1.389 . S
N669 C670 1.358 . S
N669 C671 1.400 . S
C670 N668 1.263 . S
C670 N669 1.358 . S
C670 H676 0.930 . S
C671 N669 1.400 . S
C671 C672 1.351 . S
C671 H688 0.930 . S
C672 N668 1.389 . S
C672 C671 1.351 . S
C672 H677 0.930 . S
O673 Cu667 1.974 . S
O673 C683 1.282 . S
C674 O675 1.261 . S
C674 O687 1.251 . S
O675 C674 1.261 . S
H676 C670 0.930 . S
H677 C672 0.930 . S
N678 Cu667 1.985 . S
N678 C680 1.335 . S
N678 C681 1.390 . S
N679 C680 1.345 . S
N679 C682 1.336 1_455 S
C680 N678 1.335 . S
C680 N679 1.345 . S
C680 H685 0.930 . S
C681 N678 1.390 . S
C681 C682 1.346 1_455 S
C681 H686 0.930 1_455 S
C682 N679 1.336 1_655 S
C682 C681 1.346 1_655 S
C682 H689 0.929 . S
C683 O673 1.282 . S
C683 O684 1.216 . S
O684 C683 1.216 . S
H685 C680 0.930 . S
H686 C681 0.930 1_655 S
O687 Cu667 1.959 . S
O687 C674 1.251 . S
H688 C671 0.930 . S
H689 C682 0.929 . S
Cu690 N691 1.999 . S
Cu690 O696 1.974 . S
Cu690 N701 1.985 . S
Cu690 O710 1.959 . S
N691 Cu690 1.999 . S
N691 C693 1.263 . S
N691 C695 1.389 . S
N692 C693 1.358 . S
N692 C694 1.400 . S
C693 N691 1.263 . S
C693 N692 1.358 . S
C693 H699 0.930 . S
C694 N692 1.400 . S
C694 C695 1.351 . S
C694 H711 0.930 . S
C695 N691 1.389 . S
C695 C694 1.351 . S
C695 H700 0.930 . S
O696 Cu690 1.974 . S
O696 C706 1.282 . S
C697 O698 1.261 . S
C697 O710 1.251 . S
O698 C697 1.261 . S
H699 C693 0.930 . S
H700 C695 0.930 . S
N701 Cu690 1.985 . S
N701 C703 1.335 . S
N701 C704 1.390 . S
N702 C703 1.345 . S
N702 C705 1.336 . S
C703 N701 1.335 . S
C703 N702 1.345 . S
C703 H708 0.930 . S
C704 N701 1.390 . S
C704 C705 1.346 . S
C704 H709 0.930 . S
C705 N702 1.336 . S
C705 C704 1.346 . S
C705 H712 0.929 . S
C706 O696 1.282 . S
C706 O707 1.216 . S
O707 C706 1.216 . S
H708 C703 0.930 . S
H709 C704 0.930 . S
O710 Cu690 1.959 . S
O710 C697 1.251 . S
H711 C694 0.930 . S
H712 C705 0.929 . S
Cu713 N714 1.999 . S
Cu713 O719 1.974 . S
Cu713 N724 1.985 . S
Cu713 O733 1.959 . S
N714 Cu713 1.999 . S
N714 C716 1.263 . S
N714 C718 1.389 . S
N715 C716 1.358 . S
N715 C717 1.400 . S
C716 N714 1.263 . S
C716 N715 1.358 . S
C716 H722 0.930 . S
C717 N715 1.400 . S
C717 C718 1.351 . S
C717 H734 0.930 . S
C718 N714 1.389 . S
C718 C717 1.351 . S
C718 H723 0.930 . S
O719 Cu713 1.974 . S
O719 C729 1.282 . S
C720 O721 1.261 . S
C720 O733 1.251 . S
O721 C720 1.261 . S
H722 C716 0.930 . S
H723 C718 0.930 . S
N724 Cu713 1.985 . S
N724 C726 1.335 . S
N724 C727 1.390 . S
N725 C726 1.345 . S
N725 C728 1.336 . S
C726 N724 1.335 . S
C726 N725 1.345 . S
C726 H731 0.930 . S
C727 N724 1.390 . S
C727 C728 1.346 . S
C727 H732 0.930 . S
C728 N725 1.336 . S
C728 C727 1.346 . S
C728 H735 0.929 . S
C729 O719 1.282 . S
C729 O730 1.216 . S
O730 C729 1.216 . S
H731 C726 0.930 . S
H732 C727 0.930 . S
O733 Cu713 1.959 . S
O733 C720 1.251 . S
H734 C717 0.930 . S
H735 C728 0.929 . S
Cu736 N737 1.999 . S
Cu736 O742 1.974 . S
Cu736 N747 1.985 . S
Cu736 O756 1.959 . S
N737 Cu736 1.999 . S
N737 C739 1.263 . S
N737 C741 1.389 . S
N738 C739 1.358 . S
N738 C740 1.400 . S
C739 N737 1.263 . S
C739 N738 1.358 . S
C739 H745 0.930 . S
C740 N738 1.400 . S
C740 C741 1.351 . S
C740 H757 0.930 . S
C741 N737 1.389 . S
C741 C740 1.351 . S
C741 H746 0.930 . S
O742 Cu736 1.974 . S
O742 C752 1.282 . S
C743 O744 1.261 . S
C743 O756 1.251 . S
O744 C743 1.261 . S
H745 C739 0.930 . S
H746 C741 0.930 . S
N747 Cu736 1.985 . S
N747 C749 1.335 . S
N747 C750 1.390 . S
N748 C749 1.345 . S
N748 C751 1.336 . S
C749 N747 1.335 . S
C749 N748 1.345 . S
C749 H754 0.930 . S
C750 N747 1.390 . S
C750 C751 1.346 . S
C750 H755 0.930 . S
C751 N748 1.336 . S
C751 C750 1.346 . S
C751 H758 0.929 . S
C752 O742 1.282 . S
C752 O753 1.216 . S
O753 C752 1.216 . S
H754 C749 0.930 . S
H755 C750 0.930 . S
O756 Cu736 1.959 . S
O756 C743 1.251 . S
H757 C740 0.930 . S
H758 C751 0.929 . S
Cu759 N760 1.999 . S
Cu759 O765 1.974 . S
Cu759 N770 1.985 . S
Cu759 O779 1.959 . S
N760 Cu759 1.999 . S
N760 C762 1.263 . S
N760 C764 1.389 . S
N761 C762 1.358 . S
N761 C763 1.400 . S
C762 N760 1.263 . S
C762 N761 1.358 . S
C762 H768 0.930 . S
C763 N761 1.400 . S
C763 C764 1.351 . S
C763 H780 0.930 . S
C764 N760 1.389 . S
C764 C763 1.351 . S
C764 H769 0.930 . S
O765 Cu759 1.974 . S
O765 C775 1.282 . S
C766 O767 1.261 . S
C766 O779 1.251 . S
O767 C766 1.261 . S
H768 C762 0.930 . S
H769 C764 0.930 . S
N770 Cu759 1.985 . S
N770 C772 1.335 . S
N770 C773 1.390 . S
N771 C772 1.345 . S
N771 C774 1.336 1_554 S
C772 N770 1.335 . S
C772 N771 1.345 . S
C772 H777 0.930 . S
C773 N770 1.390 . S
C773 C774 1.346 1_554 S
C773 H778 0.930 1_554 S
C774 N771 1.336 1_556 S
C774 C773 1.346 1_556 S
C774 H781 0.929 . S
C775 O765 1.282 . S
C775 O776 1.216 . S
O776 C775 1.216 . S
H777 C772 0.930 . S
H778 C773 0.930 1_556 S
O779 Cu759 1.959 . S
O779 C766 1.251 . S
H780 C763 0.930 . S
H781 C774 0.929 . S
Cu782 N783 1.999 . S
Cu782 O788 1.974 . S
Cu782 N793 1.985 . S
Cu782 O802 1.959 . S
N783 Cu782 1.999 . S
N783 C785 1.263 . S
N783 C787 1.389 . S
N784 C785 1.358 . S
N784 C786 1.400 . S
C785 N783 1.263 . S
C785 N784 1.358 . S
C785 H791 0.930 . S
C786 N784 1.400 . S
C786 C787 1.351 . S
C786 H803 0.930 . S
C787 N783 1.389 . S
C787 C786 1.351 . S
C787 H792 0.930 . S
O788 Cu782 1.974 . S
O788 C798 1.282 . S
C789 O790 1.261 . S
C789 O802 1.251 . S
O790 C789 1.261 . S
H791 C785 0.930 . S
H792 C787 0.930 . S
N793 Cu782 1.985 . S
N793 C795 1.335 . S
N793 C796 1.390 . S
N794 C795 1.345 . S
N794 C797 1.336 . S
C795 N793 1.335 . S
C795 N794 1.345 . S
C795 H800 0.930 . S
C796 N793 1.390 . S
C796 C797 1.346 . S
C796 H801 0.930 . S
C797 N794 1.336 . S
C797 C796 1.346 . S
C797 H804 0.929 . S
C798 O788 1.282 . S
C798 O799 1.216 . S
O799 C798 1.216 . S
H800 C795 0.930 . S
H801 C796 0.930 . S
O802 Cu782 1.959 . S
O802 C789 1.251 . S
H803 C786 0.930 . S
H804 C797 0.929 . S
Cu805 N806 1.999 . S
Cu805 O811 1.974 . S
Cu805 N816 1.985 . S
Cu805 O825 1.959 . S
N806 Cu805 1.999 . S
N806 C808 1.263 . S
N806 C810 1.389 . S
N807 C808 1.358 . S
N807 C809 1.400 . S
C808 N806 1.263 . S
C808 N807 1.358 . S
C808 H814 0.930 . S
C809 N807 1.400 . S
C809 C810 1.351 . S
C809 H826 0.930 . S
C810 N806 1.389 . S
C810 C809 1.351 . S
C810 H815 0.930 . S
O811 Cu805 1.974 . S
O811 C821 1.282 . S
C812 O813 1.261 . S
C812 O825 1.251 . S
O813 C812 1.261 . S
H814 C808 0.930 . S
H815 C810 0.930 . S
N816 Cu805 1.985 . S
N816 C818 1.335 . S
N816 C819 1.390 . S
N817 C818 1.345 . S
N817 C820 1.336 . S
C818 N816 1.335 . S
C818 N817 1.345 . S
C818 H823 0.930 . S
C819 N816 1.390 . S
C819 C820 1.346 . S
C819 H824 0.930 . S
C820 N817 1.336 . S
C820 C819 1.346 . S
C820 H827 0.929 . S
C821 O811 1.282 . S
C821 O822 1.216 . S
O822 C821 1.216 . S
H823 C818 0.930 . S
H824 C819 0.930 . S
O825 Cu805 1.959 . S
O825 C812 1.251 . S
H826 C809 0.930 . S
H827 C820 0.929 . S
Cu828 N829 1.999 . S
Cu828 O834 1.974 . S
Cu828 N839 1.985 . S
Cu828 O848 1.959 . S
N829 Cu828 1.999 . S
N829 C831 1.263 . S
N829 C833 1.389 . S
N830 C831 1.358 . S
N830 C832 1.400 . S
C831 N829 1.263 . S
C831 N830 1.358 . S
C831 H837 0.930 . S
C832 N830 1.400 . S
C832 C833 1.351 . S
C832 H849 0.930 . S
C833 N829 1.389 . S
C833 C832 1.351 . S
C833 H838 0.930 . S
O834 Cu828 1.974 . S
O834 C844 1.282 . S
C835 O836 1.261 . S
C835 O848 1.251 . S
O836 C835 1.261 . S
H837 C831 0.930 . S
H838 C833 0.930 . S
N839 Cu828 1.985 . S
N839 C841 1.335 . S
N839 C842 1.390 . S
N840 C841 1.345 . S
N840 C843 1.336 . S
C841 N839 1.335 . S
C841 N840 1.345 . S
C841 H846 0.930 . S
C842 N839 1.390 . S
C842 C843 1.346 . S
C842 H847 0.930 . S
C843 N840 1.336 . S
C843 C842 1.346 . S
C843 H850 0.929 . S
C844 O834 1.282 . S
C844 O845 1.216 . S
O845 C844 1.216 . S
H846 C841 0.930 . S
H847 C842 0.930 . S
O848 Cu828 1.959 . S
O848 C835 1.251 . S
H849 C832 0.930 . S
H850 C843 0.929 . S
Cu851 N852 1.999 . S
Cu851 O857 1.974 . S
Cu851 N862 1.985 . S
Cu851 O871 1.959 . S
N852 Cu851 1.999 . S
N852 C854 1.263 . S
N852 C856 1.389 . S
N853 C854 1.358 . S
N853 C855 1.400 . S
C854 N852 1.263 . S
C854 N853 1.358 . S
C854 H860 0.930 . S
C855 N853 1.400 . S
C855 C856 1.351 . S
C855 H872 0.930 . S
C856 N852 1.389 . S
C856 C855 1.351 . S
C856 H861 0.930 . S
O857 Cu851 1.974 . S
O857 C867 1.282 . S
C858 O859 1.261 . S
C858 O871 1.251 . S
O859 C858 1.261 . S
H860 C854 0.930 . S
H861 C856 0.930 . S
N862 Cu851 1.985 . S
N862 C864 1.335 . S
N862 C865 1.390 . S
N863 C864 1.345 . S
N863 C866 1.336 1_556 S
C864 N862 1.335 . S
C864 N863 1.345 . S
C864 H869 0.930 . S
C865 N862 1.390 . S
C865 C866 1.346 1_556 S
C865 H870 0.930 1_556 S
C866 N863 1.336 1_554 S
C866 C865 1.346 1_554 S
C866 H873 0.929 . S
C867 O857 1.282 . S
C867 O868 1.216 . S
O868 C867 1.216 . S
H869 C864 0.930 . S
H870 C865 0.930 1_554 S
O871 Cu851 1.959 . S
O871 C858 1.251 . S
H872 C855 0.930 . S
H873 C866 0.929 . S
Cu874 N875 1.999 . S
Cu874 O880 1.974 . S
Cu874 N885 1.985 . S
Cu874 O894 1.959 . S
N875 Cu874 1.999 . S
N875 C877 1.263 . S
N875 C879 1.389 . S
N876 C877 1.358 . S
N876 C878 1.400 . S
C877 N875 1.263 . S
C877 N876 1.358 . S
C877 H883 0.930 . S
C878 N876 1.400 . S
C878 C879 1.351 . S
C878 H895 0.930 . S
C879 N875 1.389 . S
C879 C878 1.351 . S
C879 H884 0.930 . S
O880 Cu874 1.974 . S
O880 C890 1.282 . S
C881 O882 1.261 . S
C881 O894 1.251 . S
O882 C881 1.261 . S
H883 C877 0.930 . S
H884 C879 0.930 . S
N885 Cu874 1.985 . S
N885 C887 1.335 . S
N885 C888 1.390 . S
N886 C887 1.345 . S
N886 C889 1.336 . S
C887 N885 1.335 . S
C887 N886 1.345 . S
C887 H892 0.930 . S
C888 N885 1.390 . S
C888 C889 1.346 . S
C888 H893 0.930 . S
C889 N886 1.336 . S
C889 C888 1.346 . S
C889 H896 0.929 . S
C890 O880 1.282 . S
C890 O891 1.216 . S
O891 C890 1.216 . S
H892 C887 0.930 . S
H893 C888 0.930 . S
O894 Cu874 1.959 . S
O894 C881 1.251 . S
H895 C878 0.930 . S
H896 C889 0.929 . S
Cu897 N898 1.999 . S
Cu897 O903 1.974 . S
Cu897 N908 1.985 . S
Cu897 O917 1.959 . S
N898 Cu897 1.999 . S
N898 C900 1.263 . S
N898 C902 1.389 . S
N899 C900 1.358 . S
N899 C901 1.400 . S
C900 N898 1.263 . S
C900 N899 1.358 . S
C900 H906 0.930 . S
C901 N899 1.400 . S
C901 C902 1.351 . S
C901 H918 0.930 . S
C902 N898 1.389 . S
C902 C901 1.351 . S
C902 H907 0.930 . S
O903 Cu897 1.974 . S
O903 C913 1.282 . S
C904 O905 1.261 . S
C904 O917 1.251 . S
O905 C904 1.261 . S
H906 C900 0.930 . S
H907 C902 0.930 . S
N908 Cu897 1.985 . S
N908 C910 1.335 . S
N908 C911 1.390 . S
N909 C910 1.345 . S
N909 C912 1.336 . S
C910 N908 1.335 . S
C910 N909 1.345 . S
C910 H915 0.930 . S
C911 N908 1.390 . S
C911 C912 1.346 . S
C911 H916 0.930 . S
C912 N909 1.336 . S
C912 C911 1.346 . S
C912 H919 0.929 . S
C913 O903 1.282 . S
C913 O914 1.216 . S
O914 C913 1.216 . S
H915 C910 0.930 . S
H916 C911 0.930 . S
O917 Cu897 1.959 . S
O917 C904 1.251 . S
H918 C901 0.930 . S
H919 C912 0.929 . S
Cu920 N921 1.999 . S
Cu920 O926 1.974 . S
Cu920 N931 1.985 . S
Cu920 O940 1.959 . S
N921 Cu920 1.999 . S
N921 C923 1.263 . S
N921 C925 1.389 . S
N922 C923 1.358 . S
N922 C924 1.400 . S
C923 N921 1.263 . S
C923 N922 1.358 . S
C923 H929 0.930 . S
C924 N922 1.400 . S
C924 C925 1.351 . S
C924 H941 0.930 . S
C925 N921 1.389 . S
C925 C924 1.351 . S
C925 H930 0.930 . S
O926 Cu920 1.974 . S
O926 C936 1.282 . S
C927 O928 1.261 . S
C927 O940 1.251 . S
O928 C927 1.261 . S
H929 C923 0.930 . S
H930 C925 0.930 . S
N931 Cu920 1.985 . S
N931 C933 1.335 . S
N931 C934 1.390 . S
N932 C933 1.345 . S
N932 C935 1.336 . S
C933 N931 1.335 . S
C933 N932 1.345 . S
C933 H938 0.930 . S
C934 N931 1.390 . S
C934 C935 1.346 . S
C934 H939 0.930 . S
C935 N932 1.336 . S
C935 C934 1.346 . S
C935 H942 0.929 . S
C936 O926 1.282 . S
C936 O937 1.216 . S
O937 C936 1.216 . S
H938 C933 0.930 . S
H939 C934 0.930 . S
O940 Cu920 1.959 . S
O940 C927 1.251 . S
H941 C924 0.930 . S
H942 C935 0.929 . S
Cu943 N944 1.999 . S
Cu943 O949 1.974 . S
Cu943 N954 1.985 . S
Cu943 O963 1.959 . S
N944 Cu943 1.999 . S
N944 C946 1.263 . S
N944 C948 1.389 . S
N945 C946 1.358 . S
N945 C947 1.400 . S
C946 N944 1.263 . S
C946 N945 1.358 . S
C946 H952 0.930 . S
C947 N945 1.400 . S
C947 C948 1.351 . S
C947 H964 0.930 . S
C948 N944 1.389 . S
C948 C947 1.351 . S
C948 H953 0.930 . S
O949 Cu943 1.974 . S
O949 C959 1.282 . S
C950 O951 1.261 . S
C950 O963 1.251 . S
O951 C950 1.261 . S
H952 C946 0.930 . S
H953 C948 0.930 . S
N954 Cu943 1.985 . S
N954 C956 1.335 . S
N954 C957 1.390 . S
N955 C956 1.345 . S
N955 C958 1.336 . S
C956 N954 1.335 . S
C956 N955 1.345 . S
C956 H961 0.930 . S
C957 N954 1.390 . S
C957 C958 1.346 . S
C957 H962 0.930 . S
C958 N955 1.336 . S
C958 C957 1.346 . S
C958 H965 0.929 . S
C959 O949 1.282 . S
C959 O960 1.216 . S
O960 C959 1.216 . S
H961 C956 0.930 . S
H962 C957 0.930 . S
O963 Cu943 1.959 . S
O963 C950 1.251 . S
H964 C947 0.930 . S
H965 C958 0.929 . S
Cu966 N967 1.999 . S
Cu966 O972 1.974 . S
Cu966 N977 1.985 . S
Cu966 O986 1.959 . S
N967 Cu966 1.999 . S
N967 C969 1.263 . S
N967 C971 1.389 . S
N968 C969 1.358 . S
N968 C970 1.400 . S
C969 N967 1.263 . S
C969 N968 1.358 . S
C969 H975 0.930 . S
C970 N968 1.400 . S
C970 C971 1.351 . S
C970 H987 0.930 . S
C971 N967 1.389 . S
C971 C970 1.351 . S
C971 H976 0.930 . S
O972 Cu966 1.974 . S
O972 C982 1.282 . S
C973 O974 1.261 . S
C973 O986 1.251 . S
O974 C973 1.261 . S
H975 C969 0.930 . S
H976 C971 0.930 . S
N977 Cu966 1.985 . S
N977 C979 1.335 . S
N977 C980 1.390 . S
N978 C979 1.345 . S
N978 C981 1.336 1_545 S
C979 N977 1.335 . S
C979 N978 1.345 . S
C979 H984 0.930 . S
C980 N977 1.390 . S
C980 C981 1.346 1_545 S
C980 H985 0.930 1_545 S
C981 N978 1.336 1_565 S
C981 C980 1.346 1_565 S
C981 H988 0.929 . S
C982 O972 1.282 . S
C982 O983 1.216 . S
O983 C982 1.216 . S
H984 C979 0.930 . S
H985 C980 0.930 1_565 S
O986 Cu966 1.959 . S
O986 C973 1.251 . S
H987 C970 0.930 . S
H988 C981 0.929 . S
Cu989 N990 1.999 . S
Cu989 O995 1.974 . S
Cu989 N1000 1.985 . S
Cu989 O1009 1.959 . S
N990 Cu989 1.999 . S
N990 C992 1.263 . S
N990 C994 1.389 . S
N991 C992 1.358 . S
N991 C993 1.400 . S
C992 N990 1.263 . S
C992 N991 1.358 . S
C992 H998 0.930 . S
C993 N991 1.400 . S
C993 C994 1.351 . S
C993 H1010 0.930 . S
C994 N990 1.389 . S
C994 C993 1.351 . S
C994 H999 0.930 . S
O995 Cu989 1.974 . S
O995 C1005 1.282 . S
C996 O997 1.261 . S
C996 O1009 1.251 . S
O997 C996 1.261 . S
H998 C992 0.930 . S
H999 C994 0.930 . S
N1000 Cu989 1.985 . S
N1000 C1002 1.335 . S
N1000 C1003 1.390 . S
N1001 C1002 1.345 . S
N1001 C1004 1.336 . S
C1002 N1000 1.335 . S
C1002 N1001 1.345 . S
C1002 H1007 0.930 . S
C1003 N1000 1.390 . S
C1003 C1004 1.346 . S
C1003 H1008 0.930 . S
C1004 N1001 1.336 . S
C1004 C1003 1.346 . S
C1004 H1011 0.929 . S
C1005 O995 1.282 . S
C1005 O1006 1.216 . S
O1006 C1005 1.216 . S
H1007 C1002 0.930 . S
H1008 C1003 0.930 . S
O1009 Cu989 1.959 . S
O1009 C996 1.251 . S
H1010 C993 0.930 . S
H1011 C1004 0.929 . S
Cu1012 N1013 1.999 . S
Cu1012 O1018 1.974 . S
Cu1012 N1023 1.985 . S
Cu1012 O1032 1.959 . S
N1013 Cu1012 1.999 . S
N1013 C1015 1.263 . S
N1013 C1017 1.389 . S
N1014 C1015 1.358 . S
N1014 C1016 1.400 . S
C1015 N1013 1.263 . S
C1015 N1014 1.358 . S
C1015 H1021 0.930 . S
C1016 N1014 1.400 . S
C1016 C1017 1.351 . S
C1016 H1033 0.930 . S
C1017 N1013 1.389 . S
C1017 C1016 1.351 . S
C1017 H1022 0.930 . S
O1018 Cu1012 1.974 . S
O1018 C1028 1.282 . S
C1019 O1020 1.261 . S
C1019 O1032 1.251 . S
O1020 C1019 1.261 . S
H1021 C1015 0.930 . S
H1022 C1017 0.930 . S
N1023 Cu1012 1.985 . S
N1023 C1025 1.335 . S
N1023 C1026 1.390 . S
N1024 C1025 1.345 . S
N1024 C1027 1.336 . S
C1025 N1023 1.335 . S
C1025 N1024 1.345 . S
C1025 H1030 0.930 . S
C1026 N1023 1.390 . S
C1026 C1027 1.346 . S
C1026 H1031 0.930 . S
C1027 N1024 1.336 . S
C1027 C1026 1.346 . S
C1027 H1034 0.929 . S
C1028 O1018 1.282 . S
C1028 O1029 1.216 . S
O1029 C1028 1.216 . S
H1030 C1025 0.930 . S
H1031 C1026 0.930 . S
O1032 Cu1012 1.959 . S
O1032 C1019 1.251 . S
H1033 C1016 0.930 . S
H1034 C1027 0.929 . S
Cu1035 N1036 1.999 . S
Cu1035 O1041 1.974 . S
Cu1035 N1046 1.985 . S
Cu1035 O1055 1.959 . S
N1036 Cu1035 1.999 . S
N1036 C1038 1.263 . S
N1036 C1040 1.389 . S
N1037 C1038 1.358 . S
N1037 C1039 1.400 . S
C1038 N1036 1.263 . S
C1038 N1037 1.358 . S
C1038 H1044 0.930 . S
C1039 N1037 1.400 . S
C1039 C1040 1.351 . S
C1039 H1056 0.930 . S
C1040 N1036 1.389 . S
C1040 C1039 1.351 . S
C1040 H1045 0.930 . S
O1041 Cu1035 1.974 . S
O1041 C1051 1.282 . S
C1042 O1043 1.261 . S
C1042 O1055 1.251 . S
O1043 C1042 1.261 . S
H1044 C1038 0.930 . S
H1045 C1040 0.930 . S
N1046 Cu1035 1.985 . S
N1046 C1048 1.335 . S
N1046 C1049 1.390 . S
N1047 C1048 1.345 . S
N1047 C1050 1.336 . S
C1048 N1046 1.335 . S
C1048 N1047 1.345 . S
C1048 H1053 0.930 . S
C1049 N1046 1.390 . S
C1049 C1050 1.346 . S
C1049 H1054 0.930 . S
C1050 N1047 1.336 . S
C1050 C1049 1.346 . S
C1050 H1057 0.929 . S
C1051 O1041 1.282 . S
C1051 O1052 1.216 . S
O1052 C1051 1.216 . S
H1053 C1048 0.930 . S
H1054 C1049 0.930 . S
O1055 Cu1035 1.959 . S
O1055 C1042 1.251 . S
H1056 C1039 0.930 . S
H1057 C1050 0.929 . S
Cu1058 N1059 1.999 . S
Cu1058 O1064 1.974 . S
Cu1058 N1069 1.985 . S
Cu1058 O1078 1.959 . S
N1059 Cu1058 1.999 . S
N1059 C1061 1.263 . S
N1059 C1063 1.389 . S
N1060 C1061 1.358 . S
N1060 C1062 1.400 . S
C1061 N1059 1.263 . S
C1061 N1060 1.358 . S
C1061 H1067 0.930 . S
C1062 N1060 1.400 . S
C1062 C1063 1.351 . S
C1062 H1079 0.930 . S
C1063 N1059 1.389 . S
C1063 C1062 1.351 . S
C1063 H1068 0.930 . S
O1064 Cu1058 1.974 . S
O1064 C1074 1.282 . S
C1065 O1066 1.261 . S
C1065 O1078 1.251 . S
O1066 C1065 1.261 . S
H1067 C1061 0.930 . S
H1068 C1063 0.930 . S
N1069 Cu1058 1.985 . S
N1069 C1071 1.335 . S
N1069 C1072 1.390 . S
N1070 C1071 1.345 . S
N1070 C1073 1.336 1_565 S
C1071 N1069 1.335 . S
C1071 N1070 1.345 . S
C1071 H1076 0.930 . S
C1072 N1069 1.390 . S
C1072 C1073 1.346 1_565 S
C1072 H1077 0.930 1_565 S
C1073 N1070 1.336 1_545 S
C1073 C1072 1.346 1_545 S
C1073 H1080 0.929 . S
C1074 O1064 1.282 . S
C1074 O1075 1.216 . S
O1075 C1074 1.216 . S
H1076 C1071 0.930 . S
H1077 C1072 0.930 1_545 S
O1078 Cu1058 1.959 . S
O1078 C1065 1.251 . S
H1079 C1062 0.930 . S
H1080 C1073 0.929 . S
Cu1081 N1082 1.999 . S
Cu1081 O1087 1.974 . S
Cu1081 N1092 1.985 . S
Cu1081 O1101 1.959 . S
N1082 Cu1081 1.999 . S
N1082 C1084 1.263 . S
N1082 C1086 1.389 . S
N1083 C1084 1.358 . S
N1083 C1085 1.400 . S
C1084 N1082 1.263 . S
C1084 N1083 1.358 . S
C1084 H1090 0.930 . S
C1085 N1083 1.400 . S
C1085 C1086 1.351 . S
C1085 H1102 0.930 . S
C1086 N1082 1.389 . S
C1086 C1085 1.351 . S
C1086 H1091 0.930 . S
O1087 Cu1081 1.974 . S
O1087 C1097 1.282 . S
C1088 O1089 1.261 . S
C1088 O1101 1.251 . S
O1089 C1088 1.261 . S
H1090 C1084 0.930 . S
H1091 C1086 0.930 . S
N1092 Cu1081 1.985 . S
N1092 C1094 1.335 . S
N1092 C1095 1.390 . S
N1093 C1094 1.345 . S
N1093 C1096 1.336 1_545 S
C1094 N1092 1.335 . S
C1094 N1093 1.345 . S
C1094 H1099 0.930 . S
C1095 N1092 1.390 . S
C1095 C1096 1.346 1_545 S
C1095 H1100 0.930 1_545 S
C1096 N1093 1.336 1_565 S
C1096 C1095 1.346 1_565 S
C1096 H1103 0.929 . S
C1097 O1087 1.282 . S
C1097 O1098 1.216 . S
O1098 C1097 1.216 . S
H1099 C1094 0.930 . S
H1100 C1095 0.930 1_565 S
O1101 Cu1081 1.959 . S
O1101 C1088 1.251 . S
H1102 C1085 0.930 . S
H1103 C1096 0.929 . S
H1104 C1110 0.930 . S
H1105 C1114 0.930 . S
H1106 C1119 0.929 . S
H1107 C1117 0.929 . S
H1108 C1112 0.929 . S
H1109 C1118 0.929 . S
C1110 H1104 0.930 . S
C1110 C1111 1.367 . S
C1110 C1118 1.378 . S
C1111 C1110 1.367 . S
C1111 C1119 1.433 . S
C1112 H1108 0.929 . S
C1112 C1114 1.378 . S
C1112 C1116 1.350 . S
C1113 C1116 1.463 . S
C1113 C1118 1.350 . S
C1113 N1121 1.427 . S
C1114 H1105 0.930 . S
C1114 C1112 1.378 . S
C1114 C1115 1.367 . S
C1115 C1114 1.367 . S
C1115 C1117 1.433 . S
C1116 C1112 1.350 . S
C1116 C1113 1.463 . S
C1116 N1120 1.427 . S
C1117 H1107 0.929 . S
C1117 C1115 1.433 . S
C1117 N1120 1.384 . S
C1118 H1109 0.929 . S
C1118 C1110 1.378 . S
C1118 C1113 1.350 . S
C1119 H1106 0.929 . S
C1119 C1111 1.433 . S
C1119 N1121 1.384 . S
N1120 C1116 1.427 . S
N1120 C1117 1.384 . S
N1121 C1113 1.427 . S
N1121 C1119 1.384 . S
H1122 C1128 0.930 . S
H1123 C1132 0.930 . S
H1124 C1137 0.929 . S
H1125 C1135 0.929 1_655 S
H1126 C1130 0.929 . S
H1127 C1136 0.929 . S
C1128 H1122 0.930 . S
C1128 C1129 1.367 . S
C1128 C1136 1.378 . S
C1129 C1128 1.367 . S
C1129 C1137 1.433 . S
C1130 H1126 0.929 . S
C1130 C1132 1.378 . S
C1130 C1134 1.350 . S
C1131 C1134 1.463 . S
C1131 C1136 1.350 . S
C1131 N1139 1.427 . S
C1132 H1123 0.930 . S
C1132 C1130 1.378 . S
C1132 C1133 1.367 . S
C1133 C1132 1.367 . S
C1133 C1135 1.433 . S
C1134 C1130 1.350 . S
C1134 C1131 1.463 . S
C1134 N1138 1.427 . S
C1135 H1125 0.929 1_455 S
C1135 C1133 1.433 . S
C1135 N1138 1.384 . S
C1136 H1127 0.929 . S
C1136 C1128 1.378 . S
C1136 C1131 1.350 . S
C1137 H1124 0.929 . S
C1137 C1129 1.433 . S
C1137 N1139 1.384 . S
N1138 C1134 1.427 . S
N1138 C1135 1.384 . S
N1139 C1131 1.427 . S
N1139 C1137 1.384 . S
H1140 C1146 0.930 1_554 S
H1141 C1150 0.930 . S
H1142 C1155 0.929 . S
H1143 C1153 0.929 . S
H1144 C1148 0.929 . S
H1145 C1154 0.929 . S
C1146 H1140 0.930 1_556 S
C1146 C1147 1.367 . S
C1146 C1154 1.378 . S
C1147 C1146 1.367 . S
C1147 C1155 1.433 . S
C1148 H1144 0.929 . S
C1148 C1150 1.378 . S
C1148 C1152 1.350 . S
C1149 C1152 1.463 . S
C1149 C1154 1.350 . S
C1149 N1157 1.427 . S
C1150 H1141 0.930 . S
C1150 C1148 1.378 . S
C1150 C1151 1.367 . S
C1151 C1150 1.367 . S
C1151 C1153 1.433 . S
C1152 C1148 1.350 . S
C1152 C1149 1.463 . S
C1152 N1156 1.427 . S
C1153 H1143 0.929 . S
C1153 C1151 1.433 . S
C1153 N1156 1.384 . S
C1154 H1145 0.929 . S
C1154 C1146 1.378 . S
C1154 C1149 1.350 . S
C1155 H1142 0.929 . S
C1155 C1147 1.433 . S
C1155 N1157 1.384 . S
N1156 C1152 1.427 . S
N1156 C1153 1.384 . S
N1157 C1149 1.427 . S
N1157 C1155 1.384 . S
H1158 C1164 0.930 . S
H1159 C1168 0.930 . S
H1160 C1173 0.929 . S
H1161 C1171 0.929 . S
H1162 C1166 0.929 . S
H1163 C1172 0.929 . S
C1164 H1158 0.930 . S
C1164 C1165 1.367 . S
C1164 C1172 1.378 . S
C1165 C1164 1.367 . S
C1165 C1173 1.433 . S
C1166 H1162 0.929 . S
C1166 C1168 1.378 . S
C1166 C1170 1.350 . S
C1167 C1170 1.463 . S
C1167 C1172 1.350 . S
C1167 N1175 1.427 . S
C1168 H1159 0.930 . S
C1168 C1166 1.378 . S
C1168 C1169 1.367 . S
C1169 C1168 1.367 . S
C1169 C1171 1.433 . S
C1170 C1166 1.350 . S
C1170 C1167 1.463 . S
C1170 N1174 1.427 . S
C1171 H1161 0.929 . S
C1171 C1169 1.433 . S
C1171 N1174 1.384 . S
C1172 H1163 0.929 . S
C1172 C1164 1.378 . S
C1172 C1167 1.350 . S
C1173 H1160 0.929 . S
C1173 C1165 1.433 . S
C1173 N1175 1.384 . S
N1174 C1170 1.427 . S
N1174 C1171 1.384 . S
N1175 C1167 1.427 . S
N1175 C1173 1.384 . S
H1176 C1182 0.930 . S
H1177 C1186 0.930 . S
H1178 C1191 0.929 . S
H1179 C1189 0.929 1_556 S
H1180 C1184 0.929 . S
H1181 C1190 0.929 . S
C1182 H1176 0.930 . S
C1182 C1183 1.367 . S
C1182 C1190 1.378 . S
C1183 C1182 1.367 . S
C1183 C1191 1.433 . S
C1184 H1180 0.929 . S
C1184 C1186 1.378 . S
C1184 C1188 1.350 . S
C1185 C1188 1.463 . S
C1185 C1190 1.350 . S
C1185 N1193 1.427 . S
C1186 H1177 0.930 . S
C1186 C1184 1.378 . S
C1186 C1187 1.367 . S
C1187 C1186 1.367 . S
C1187 C1189 1.433 . S
C1188 C1184 1.350 . S
C1188 C1185 1.463 . S
C1188 N1192 1.427 . S
C1189 H1179 0.929 1_554 S
C1189 C1187 1.433 . S
C1189 N1192 1.384 . S
C1190 H1181 0.929 . S
C1190 C1182 1.378 . S
C1190 C1185 1.350 . S
C1191 H1178 0.929 . S
C1191 C1183 1.433 . S
C1191 N1193 1.384 . S
N1192 C1188 1.427 . S
N1192 C1189 1.384 . S
N1193 C1185 1.427 . S
N1193 C1191 1.384 . S
H1194 C1200 0.930 . S
H1195 C1204 0.930 . S
H1196 C1209 0.929 . S
H1197 C1207 0.929 . S
H1198 C1202 0.929 . S
H1199 C1208 0.929 . S
C1200 H1194 0.930 . S
C1200 C1201 1.367 . S
C1200 C1208 1.378 . S
C1201 C1200 1.367 . S
C1201 C1209 1.433 . S
C1202 H1198 0.929 . S
C1202 C1204 1.378 . S
C1202 C1206 1.350 . S
C1203 C1206 1.463 . S
C1203 C1208 1.350 . S
C1203 N1211 1.427 . S
C1204 H1195 0.930 . S
C1204 C1202 1.378 . S
C1204 C1205 1.367 . S
C1205 C1204 1.367 . S
C1205 C1207 1.433 . S
C1206 C1202 1.350 . S
C1206 C1203 1.463 . S
C1206 N1210 1.427 . S
C1207 H1197 0.929 . S
C1207 C1205 1.433 . S
C1207 N1210 1.384 . S
C1208 H1199 0.929 . S
C1208 C1200 1.378 . S
C1208 C1203 1.350 . S
C1209 H1196 0.929 . S
C1209 C1201 1.433 . S
C1209 N1211 1.384 . S
N1210 C1206 1.427 . S
N1210 C1207 1.384 . S
N1211 C1203 1.427 . S
N1211 C1209 1.384 . S
H1212 C1218 0.930 . S
H1213 C1222 0.930 . S
H1214 C1227 0.929 . S
H1215 C1225 0.929 . S
H1216 C1220 0.929 . S
H1217 C1226 0.929 . S
C1218 H1212 0.930 . S
C1218 C1219 1.367 . S
C1218 C1226 1.378 . S
C1219 C1218 1.367 . S
C1219 C1227 1.433 . S
C1220 H1216 0.929 . S
C1220 C1222 1.378 . S
C1220 C1224 1.350 . S
C1221 C1224 1.463 . S
C1221 C1226 1.350 . S
C1221 N1229 1.427 . S
C1222 H1213 0.930 . S
C1222 C1220 1.378 . S
C1222 C1223 1.367 . S
C1223 C1222 1.367 . S
C1223 C1225 1.433 . S
C1224 C1220 1.350 . S
C1224 C1221 1.463 . S
C1224 N1228 1.427 . S
C1225 H1215 0.929 . S
C1225 C1223 1.433 . S
C1225 N1228 1.384 . S
C1226 H1217 0.929 . S
C1226 C1218 1.378 . S
C1226 C1221 1.350 . S
C1227 H1214 0.929 . S
C1227 C1219 1.433 . S
C1227 N1229 1.384 . S
N1228 C1224 1.427 . S
N1228 C1225 1.384 . S
N1229 C1221 1.427 . S
N1229 C1227 1.384 . S
H1230 C1236 0.930 . S
H1231 C1240 0.930 . S
H1232 C1245 0.929 . S
H1233 C1243 0.951 . S
H1234 C1238 0.929 . S
H1235 C1244 0.929 . S
C1236 H1230 0.930 . S
C1236 C1237 1.367 . S
C1236 C1244 1.378 . S
C1237 C1236 1.367 . S
C1237 C1245 1.433 . S
C1238 H1234 0.929 . S
C1238 C1240 1.378 . S
C1238 C1242 1.350 . S
C1239 C1242 1.463 . S
C1239 C1244 1.350 . S
C1239 N1247 1.427 . S
C1240 H1231 0.930 . S
C1240 C1238 1.378 . S
C1240 C1241 1.367 . S
C1241 C1240 1.367 . S
C1241 C1243 1.433 . S
C1242 C1238 1.350 . S
C1242 C1239 1.463 . S
C1242 N1246 1.427 . S
C1243 H1233 0.951 . S
C1243 C1241 1.433 . S
C1243 N1246 1.384 . S
C1244 H1235 0.929 . S
C1244 C1236 1.378 . S
C1244 C1239 1.350 . S
C1245 H1232 0.929 . S
C1245 C1237 1.433 . S
C1245 N1247 1.384 . S
N1246 C1242 1.427 . S
N1246 C1243 1.384 . S
N1247 C1239 1.427 . S
N1247 C1245 1.384 . S
H1248 C1254 0.930 . S
H1249 C1258 0.930 . S
H1250 C1263 0.929 . S
H1251 C1261 0.929 . S
H1252 C1256 0.929 . S
H1253 C1262 0.929 . S
C1254 H1248 0.930 . S
C1254 C1255 1.367 . S
C1254 C1262 1.378 . S
C1255 C1254 1.367 . S
C1255 C1263 1.433 . S
C1256 H1252 0.929 . S
C1256 C1258 1.378 . S
C1256 C1260 1.350 . S
C1257 C1260 1.463 . S
C1257 C1262 1.350 . S
C1257 N1265 1.427 . S
C1258 H1249 0.930 . S
C1258 C1256 1.378 . S
C1258 C1259 1.367 . S
C1259 C1258 1.367 . S
C1259 C1261 1.433 . S
C1260 C1256 1.350 . S
C1260 C1257 1.463 . S
C1260 N1264 1.427 . S
C1261 H1251 0.929 . S
C1261 C1259 1.433 . S
C1261 N1264 1.384 . S
C1262 H1253 0.929 . S
C1262 C1254 1.378 . S
C1262 C1257 1.350 . S
C1263 H1250 0.929 . S
C1263 C1255 1.433 . S
C1263 N1265 1.384 . S
N1264 C1260 1.427 . S
N1264 C1261 1.384 . S
N1265 C1257 1.427 . S
N1265 C1263 1.384 . S
H1266 C1272 0.930 . S
H1267 C1276 0.930 . S
H1268 C1281 0.929 . S
H1269 C1279 0.929 1_565 S
H1270 C1274 0.929 . S
H1271 C1280 0.929 . S
C1272 H1266 0.930 . S
C1272 C1273 1.367 . S
C1272 C1280 1.378 . S
C1273 C1272 1.367 . S
C1273 C1281 1.433 . S
C1274 H1270 0.929 . S
C1274 C1276 1.378 . S
C1274 C1278 1.350 . S
C1275 C1278 1.463 . S
C1275 C1280 1.350 . S
C1275 N1283 1.427 . S
C1276 H1267 0.930 . S
C1276 C1274 1.378 . S
C1276 C1277 1.367 . S
C1277 C1276 1.367 . S
C1277 C1279 1.433 . S
C1278 C1274 1.350 . S
C1278 C1275 1.463 . S
C1278 N1282 1.427 . S
C1279 H1269 0.929 1_545 S
C1279 C1277 1.433 . S
C1279 N1282 1.384 . S
C1280 H1271 0.929 . S
C1280 C1272 1.378 . S
C1280 C1275 1.350 . S
C1281 H1268 0.929 . S
C1281 C1273 1.433 . S
C1281 N1283 1.384 . S
N1282 C1278 1.427 . S
N1282 C1279 1.384 . S
N1283 C1275 1.427 . S
N1283 C1281 1.384 . S
H1284 C1290 0.930 . S
H1285 C1294 0.930 1_545 S
H1286 C1299 0.929 . S
H1287 C1297 0.929 . S
H1288 C1292 0.929 . S
H1289 C1298 0.929 . S
C1290 H1284 0.930 . S
C1290 C1291 1.367 . S
C1290 C1298 1.378 . S
C1291 C1290 1.367 . S
C1291 C1299 1.433 . S
C1292 H1288 0.929 . S
C1292 C1294 1.378 . S
C1292 C1296 1.350 . S
C1293 C1296 1.463 . S
C1293 C1298 1.350 . S
C1293 N1301 1.427 . S
C1294 H1285 0.930 1_565 S
C1294 C1292 1.378 . S
C1294 C1295 1.367 . S
C1295 C1294 1.367 . S
C1295 C1297 1.433 . S
C1296 C1292 1.350 . S
C1296 C1293 1.463 . S
C1296 N1300 1.427 . S
C1297 H1287 0.929 . S
C1297 C1295 1.433 . S
C1297 N1300 1.384 . S
C1298 H1289 0.929 . S
C1298 C1290 1.378 . S
C1298 C1293 1.350 . S
C1299 H1286 0.929 . S
C1299 C1291 1.433 . S
C1299 N1301 1.384 . S
N1300 C1296 1.427 . S
N1300 C1297 1.384 . S
N1301 C1293 1.427 . S
N1301 C1299 1.384 . S
H1302 C1308 0.930 1_565 S
H1303 C1312 0.930 . S
H1304 C1317 0.929 . S
H1305 C1315 0.929 . S
H1306 C1310 0.929 . S
H1307 C1316 0.929 . S
C1308 H1302 0.930 1_545 S
C1308 C1309 1.367 . S
C1308 C1316 1.378 . S
C1309 C1308 1.367 . S
C1309 C1317 1.433 . S
C1310 H1306 0.929 . S
C1310 C1312 1.378 . S
C1310 C1314 1.350 . S
C1311 C1314 1.463 . S
C1311 C1316 1.350 . S
C1311 N1319 1.427 . S
C1312 H1303 0.930 . S
C1312 C1310 1.378 . S
C1312 C1313 1.367 . S
C1313 C1312 1.367 . S
C1313 C1315 1.433 . S
C1314 C1310 1.350 . S
C1314 C1311 1.463 . S
C1314 N1318 1.427 . S
C1315 H1305 0.929 . S
C1315 C1313 1.433 . S
C1315 N1318 1.384 . S
C1316 H1307 0.929 . S
C1316 C1308 1.378 . S
C1316 C1311 1.350 . S
C1317 H1304 0.929 . S
C1317 C1309 1.433 . S
C1317 N1319 1.384 . S
N1318 C1314 1.427 . S
N1318 C1315 1.384 . S
N1319 C1311 1.427 . S
N1319 C1317 1.384 . S
H1320 C1326 0.930 . S
H1321 C1330 0.930 . S
H1322 C1335 0.929 . S
H1323 C1333 0.929 . S
H1324 C1328 0.929 . S
H1325 C1334 0.929 . S
C1326 H1320 0.930 . S
C1326 C1327 1.367 . S
C1326 C1334 1.378 . S
C1327 C1326 1.367 . S
C1327 C1335 1.433 . S
C1328 H1324 0.929 . S
C1328 C1330 1.378 . S
C1328 C1332 1.350 . S
C1329 C1332 1.463 . S
C1329 C1334 1.350 . S
C1329 N1337 1.427 . S
C1330 H1321 0.930 . S
C1330 C1328 1.378 . S
C1330 C1331 1.367 . S
C1331 C1330 1.367 . S
C1331 C1333 1.433 . S
C1332 C1328 1.350 . S
C1332 C1329 1.463 . S
C1332 N1336 1.427 . S
C1333 H1323 0.929 . S
C1333 C1331 1.433 . S
C1333 N1336 1.384 . S
C1334 H1325 0.929 . S
C1334 C1326 1.378 . S
C1334 C1329 1.350 . S
C1335 H1322 0.929 . S
C1335 C1327 1.433 . S
C1335 N1337 1.384 . S
N1336 C1332 1.427 . S
N1336 C1333 1.384 . S
N1337 C1329 1.427 . S
N1337 C1335 1.384 . S
H1338 C1344 0.930 . S
H1339 C1348 0.930 . S
H1340 C1353 0.929 . S
H1341 C1351 0.929 . S
H1342 C1346 0.929 . S
H1343 C1352 0.929 . S
C1344 H1338 0.930 . S
C1344 C1345 1.367 . S
C1344 C1352 1.378 . S
C1345 C1344 1.367 . S
C1345 C1353 1.433 . S
C1346 H1342 0.929 . S
C1346 C1348 1.378 . S
C1346 C1350 1.350 . S
C1347 C1350 1.463 . S
C1347 C1352 1.350 . S
C1347 N1355 1.427 . S
C1348 H1339 0.930 . S
C1348 C1346 1.378 . S
C1348 C1349 1.367 . S
C1349 C1348 1.367 . S
C1349 C1351 1.433 . S
C1350 C1346 1.350 . S
C1350 C1347 1.463 . S
C1350 N1354 1.427 . S
C1351 H1341 0.929 . S
C1351 C1349 1.433 . S
C1351 N1354 1.384 . S
C1352 H1343 0.929 . S
C1352 C1344 1.378 . S
C1352 C1347 1.350 . S
C1353 H1340 0.929 . S
C1353 C1345 1.433 . S
C1353 N1355 1.384 . S
N1354 C1350 1.427 . S
N1354 C1351 1.384 . S
N1355 C1347 1.427 . S
N1355 C1353 1.384 . S
H1356 C1362 0.930 . S
H1357 C1366 0.930 . S
H1358 C1371 0.929 . S
H1359 C1369 0.929 . S
H1360 C1364 0.929 . S
H1361 C1370 0.929 . S
C1362 H1356 0.930 . S
C1362 C1363 1.367 . S
C1362 C1370 1.378 . S
C1363 C1362 1.367 . S
C1363 C1371 1.433 . S
C1364 H1360 0.929 . S
C1364 C1366 1.378 . S
C1364 C1368 1.350 . S
C1365 C1368 1.463 . S
C1365 C1370 1.350 . S
C1365 N1373 1.427 . S
C1366 H1357 0.930 . S
C1366 C1364 1.378 . S
C1366 C1367 1.367 . S
C1367 C1366 1.367 . S
C1367 C1369 1.433 . S
C1368 C1364 1.350 . S
C1368 C1365 1.463 . S
C1368 N1372 1.427 . S
C1369 H1359 0.929 . S
C1369 C1367 1.433 . S
C1369 N1372 1.384 . S
C1370 H1361 0.929 . S
C1370 C1362 1.378 . S
C1370 C1365 1.350 . S
C1371 H1358 0.929 . S
C1371 C1363 1.433 . S
C1371 N1373 1.384 . S
N1372 C1368 1.427 . S
N1372 C1369 1.384 . S
N1373 C1365 1.427 . S
N1373 C1371 1.384 . S
H1374 C1380 0.930 1_554 S
H1375 C1384 0.930 . S
H1376 C1389 0.929 . S
H1377 C1387 0.929 . S
H1378 C1382 0.929 . S
H1379 C1388 0.929 . S
C1380 H1374 0.930 1_556 S
C1380 C1381 1.367 . S
C1380 C1388 1.378 . S
C1381 C1380 1.367 . S
C1381 C1389 1.433 . S
C1382 H1378 0.929 . S
C1382 C1384 1.378 . S
C1382 C1386 1.350 . S
C1383 C1386 1.463 . S
C1383 C1388 1.350 . S
C1383 N1391 1.427 . S
C1384 H1375 0.930 . S
C1384 C1382 1.378 . S
C1384 C1385 1.367 . S
C1385 C1384 1.367 . S
C1385 C1387 1.433 . S
C1386 C1382 1.350 . S
C1386 C1383 1.463 . S
C1386 N1390 1.427 . S
C1387 H1377 0.929 . S
C1387 C1385 1.433 . S
C1387 N1390 1.384 . S
C1388 H1379 0.929 . S
C1388 C1380 1.378 . S
C1388 C1383 1.350 . S
C1389 H1376 0.929 . S
C1389 C1381 1.433 . S
C1389 N1391 1.384 . S
N1390 C1386 1.427 . S
N1390 C1387 1.384 . S
N1391 C1383 1.427 . S
N1391 C1389 1.384 . S
H1392 C1398 0.930 . S
H1393 C1402 0.930 . S
H1394 C1407 0.929 . S
H1395 C1405 0.929 . S
H1396 C1400 0.929 . S
H1397 C1406 0.929 . S
C1398 H1392 0.930 . S
C1398 C1399 1.367 . S
C1398 C1406 1.378 . S
C1399 C1398 1.367 . S
C1399 C1407 1.433 . S
C1400 H1396 0.929 . S
C1400 C1402 1.378 . S
C1400 C1404 1.350 . S
C1401 C1404 1.463 . S
C1401 C1406 1.350 . S
C1401 N1409 1.427 . S
C1402 H1393 0.930 . S
C1402 C1400 1.378 . S
C1402 C1403 1.367 . S
C1403 C1402 1.367 . S
C1403 C1405 1.433 . S
C1404 C1400 1.350 . S
C1404 C1401 1.463 . S
C1404 N1408 1.427 . S
C1405 H1395 0.929 . S
C1405 C1403 1.433 . S
C1405 N1408 1.384 . S
C1406 H1397 0.929 . S
C1406 C1398 1.378 . S
C1406 C1401 1.350 . S
C1407 H1394 0.929 . S
C1407 C1399 1.433 . S
C1407 N1409 1.384 . S
N1408 C1404 1.427 . S
N1408 C1405 1.384 . S
N1409 C1401 1.427 . S
N1409 C1407 1.384 . S
H1410 C1416 0.930 . S
H1411 C1420 0.930 . S
H1412 C1425 0.929 . S
H1413 C1423 0.929 . S
H1414 C1418 0.929 . S
H1415 C1424 0.929 . S
C1416 H1410 0.930 . S
C1416 C1417 1.367 . S
C1416 C1424 1.378 . S
C1417 C1416 1.367 . S
C1417 C1425 1.433 . S
C1418 H1414 0.929 . S
C1418 C1420 1.378 . S
C1418 C1422 1.350 . S
C1419 C1422 1.463 . S
C1419 C1424 1.350 . S
C1419 N1427 1.427 . S
C1420 H1411 0.930 . S
C1420 C1418 1.378 . S
C1420 C1421 1.367 . S
C1421 C1420 1.367 . S
C1421 C1423 1.433 . S
C1422 C1418 1.350 . S
C1422 C1419 1.463 . S
C1422 N1426 1.427 . S
C1423 H1413 0.929 . S
C1423 C1421 1.433 . S
C1423 N1426 1.384 . S
C1424 H1415 0.929 . S
C1424 C1416 1.378 . S
C1424 C1419 1.350 . S
C1425 H1412 0.929 . S
C1425 C1417 1.433 . S
C1425 N1427 1.384 . S
N1426 C1422 1.427 . S
N1426 C1423 1.384 . S
N1427 C1419 1.427 . S
N1427 C1425 1.384 . S
H1428 C1434 0.930 . S
H1429 C1438 0.955 . S
H1430 C1443 0.929 . S
H1431 C1441 0.929 . S
H1432 C1436 0.929 . S
H1433 C1442 0.929 . S
C1434 H1428 0.930 . S
C1434 C1435 1.367 . S
C1434 C1442 1.378 . S
C1435 C1434 1.367 . S
C1435 C1443 1.433 . S
C1436 H1432 0.929 . S
C1436 C1438 1.378 . S
C1436 C1440 1.350 . S
C1437 C1440 1.463 . S
C1437 C1442 1.350 . S
C1437 N1445 1.427 . S
C1438 H1429 0.955 . S
C1438 C1436 1.378 . S
C1438 C1439 1.367 . S
C1439 C1438 1.367 . S
C1439 C1441 1.433 . S
C1440 C1436 1.350 . S
C1440 C1437 1.463 . S
C1440 N1444 1.427 . S
C1441 H1431 0.929 . S
C1441 C1439 1.433 . S
C1441 N1444 1.384 . S
C1442 H1433 0.929 . S
C1442 C1434 1.378 . S
C1442 C1437 1.350 . S
C1443 H1430 0.929 . S
C1443 C1435 1.433 . S
C1443 N1445 1.384 . S
N1444 C1440 1.427 . S
N1444 C1441 1.384 . S
N1445 C1437 1.427 . S
N1445 C1443 1.384 . S
H1446 C1452 0.930 . S
H1447 C1456 0.930 . S
H1448 C1461 0.929 . S
H1449 C1459 0.929 . S
H1450 C1454 0.929 . S
H1451 C1460 0.929 . S
C1452 H1446 0.930 . S
C1452 C1453 1.367 . S
C1452 C1460 1.378 . S
C1453 C1452 1.367 . S
C1453 C1461 1.433 . S
C1454 H1450 0.929 . S
C1454 C1456 1.378 . S
C1454 C1458 1.350 . S
C1455 C1458 1.463 . S
C1455 C1460 1.350 . S
C1455 N1463 1.427 . S
C1456 H1447 0.930 . S
C1456 C1454 1.378 . S
C1456 C1457 1.367 . S
C1457 C1456 1.367 . S
C1457 C1459 1.433 . S
C1458 C1454 1.350 . S
C1458 C1455 1.463 . S
C1458 N1462 1.427 . S
C1459 H1449 0.929 . S
C1459 C1457 1.433 . S
C1459 N1462 1.384 . S
C1460 H1451 0.929 . S
C1460 C1452 1.378 . S
C1460 C1455 1.350 . S
C1461 H1448 0.929 . S
C1461 C1453 1.433 . S
C1461 N1463 1.384 . S
N1462 C1458 1.427 . S
N1462 C1459 1.384 . S
N1463 C1455 1.427 . S
N1463 C1461 1.384 . S
H1464 C1470 0.930 . S
H1465 C1474 0.930 . S
H1466 C1479 0.929 . S
H1467 C1477 0.929 . S
H1468 C1472 0.929 . S
H1469 C1478 0.929 . S
C1470 H1464 0.930 . S
C1470 C1471 1.367 . S
C1470 C1478 1.378 . S
C1471 C1470 1.367 . S
C1471 C1479 1.433 . S
C1472 H1468 0.929 . S
C1472 C1474 1.378 . S
C1472 C1476 1.350 . S
C1473 C1476 1.463 . S
C1473 C1478 1.350 . S
C1473 N1481 1.427 . S
C1474 H1465 0.930 . S
C1474 C1472 1.378 . S
C1474 C1475 1.367 . S
C1475 C1474 1.367 . S
C1475 C1477 1.433 . S
C1476 C1472 1.350 . S
C1476 C1473 1.463 . S
C1476 N1480 1.427 . S
C1477 H1467 0.929 . S
C1477 C1475 1.433 . S
C1477 N1480 1.384 . S
C1478 H1469 0.929 . S
C1478 C1470 1.378 . S
C1478 C1473 1.350 . S
C1479 H1466 0.929 . S
C1479 C1471 1.433 . S
C1479 N1481 1.384 . S
N1480 C1476 1.427 . S
N1480 C1477 1.384 . S
N1481 C1473 1.427 . S
N1481 C1479 1.384 . S
H1482 C1488 0.930 . S
H1483 C1492 0.930 1_556 S
H1484 C1497 0.929 . S
H1485 C1495 0.929 . S
H1486 C1490 0.929 . S
H1487 C1496 0.929 . S
C1488 H1482 0.930 . S
C1488 C1489 1.367 . S
C1488 C1496 1.378 . S
C1489 C1488 1.367 . S
C1489 C1497 1.433 . S
C1490 H1486 0.929 . S
C1490 C1492 1.378 . S
C1490 C1494 1.350 . S
C1491 C1494 1.463 . S
C1491 C1496 1.350 . S
C1491 N1499 1.427 . S
C1492 H1483 0.930 1_554 S
C1492 C1490 1.378 . S
C1492 C1493 1.367 . S
C1493 C1492 1.367 . S
C1493 C1495 1.433 . S
C1494 C1490 1.350 . S
C1494 C1491 1.463 . S
C1494 N1498 1.427 . S
C1495 H1485 0.929 . S
C1495 C1493 1.433 . S
C1495 N1498 1.384 . S
C1496 H1487 0.929 . S
C1496 C1488 1.378 . S
C1496 C1491 1.350 . S
C1497 H1484 0.929 . S
C1497 C1489 1.433 . S
C1497 N1499 1.384 . S
N1498 C1494 1.427 . S
N1498 C1495 1.384 . S
N1499 C1491 1.427 . S
N1499 C1497 1.384 . S
H1500 C1506 0.930 . S
H1501 C1510 0.930 . S
H1502 C1515 0.929 . S
H1503 C1513 0.929 . S
H1504 C1508 0.929 . S
H1505 C1514 0.929 . S
C1506 H1500 0.930 . S
C1506 C1507 1.367 . S
C1506 C1514 1.378 . S
C1507 C1506 1.367 . S
C1507 C1515 1.433 . S
C1508 H1504 0.929 . S
C1508 C1510 1.378 . S
C1508 C1512 1.350 . S
C1509 C1512 1.463 . S
C1509 C1514 1.350 . S
C1509 N1517 1.427 . S
C1510 H1501 0.930 . S
C1510 C1508 1.378 . S
C1510 C1511 1.367 . S
C1511 C1510 1.367 . S
C1511 C1513 1.433 . S
C1512 C1508 1.350 . S
C1512 C1509 1.463 . S
C1512 N1516 1.427 . S
C1513 H1503 0.929 . S
C1513 C1511 1.433 . S
C1513 N1516 1.384 . S
C1514 H1505 0.929 . S
C1514 C1506 1.378 . S
C1514 C1509 1.350 . S
C1515 H1502 0.929 . S
C1515 C1507 1.433 . S
C1515 N1517 1.384 . S
N1516 C1512 1.427 . S
N1516 C1513 1.384 . S
N1517 C1509 1.427 . S
N1517 C1515 1.384 . S
H1518 C1524 0.930 . S
H1519 C1528 0.930 . S
H1520 C1533 0.929 . S
H1521 C1531 0.929 1_545 S
H1522 C1526 0.929 . S
H1523 C1532 0.929 . S
C1524 H1518 0.930 . S
C1524 C1525 1.367 . S
C1524 C1532 1.378 . S
C1525 C1524 1.367 . S
C1525 C1533 1.433 . S
C1526 H1522 0.929 . S
C1526 C1528 1.378 . S
C1526 C1530 1.350 . S
C1527 C1530 1.463 . S
C1527 C1532 1.350 . S
C1527 N1535 1.427 . S
C1528 H1519 0.930 . S
C1528 C1526 1.378 . S
C1528 C1529 1.367 . S
C1529 C1528 1.367 . S
C1529 C1531 1.433 . S
C1530 C1526 1.350 . S
C1530 C1527 1.463 . S
C1530 N1534 1.427 . S
C1531 H1521 0.929 1_565 S
C1531 C1529 1.433 . S
C1531 N1534 1.384 . S
C1532 H1523 0.929 . S
C1532 C1524 1.378 . S
C1532 C1527 1.350 . S
C1533 H1520 0.929 . S
C1533 C1525 1.433 . S
C1533 N1535 1.384 . S
N1534 C1530 1.427 . S
N1534 C1531 1.384 . S
N1535 C1527 1.427 . S
N1535 C1533 1.384 . S
H1536 C1542 0.930 . S
H1537 C1546 0.930 . S
H1538 C1551 0.929 . S
H1539 C1549 0.929 . S
H1540 C1544 0.929 . S
H1541 C1550 0.929 . S
C1542 H1536 0.930 . S
C1542 C1543 1.367 . S
C1542 C1550 1.378 . S
C1543 C1542 1.367 . S
C1543 C1551 1.433 . S
C1544 H1540 0.929 . S
C1544 C1546 1.378 . S
C1544 C1548 1.350 . S
C1545 C1548 1.463 . S
C1545 C1550 1.350 . S
C1545 N1553 1.427 . S
C1546 H1537 0.930 . S
C1546 C1544 1.378 . S
C1546 C1547 1.367 . S
C1547 C1546 1.367 . S
C1547 C1549 1.433 . S
C1548 C1544 1.350 . S
C1548 C1545 1.463 . S
C1548 N1552 1.427 . S
C1549 H1539 0.929 . S
C1549 C1547 1.433 . S
C1549 N1552 1.384 . S
C1550 H1541 0.929 . S
C1550 C1542 1.378 . S
C1550 C1545 1.350 . S
C1551 H1538 0.929 . S
C1551 C1543 1.433 . S
C1551 N1553 1.384 . S
N1552 C1548 1.427 . S
N1552 C1549 1.384 . S
N1553 C1545 1.427 . S
N1553 C1551 1.384 . S
H1554 C1560 0.930 . S
H1555 C1564 0.930 . S
H1556 C1569 0.929 . S
H1557 C1567 0.929 . S
H1558 C1562 0.929 . S
H1559 C1568 0.929 . S
C1560 H1554 0.930 . S
C1560 C1561 1.367 1_565 S
C1560 C1568 1.378 . S
C1561 C1560 1.367 1_545 S
C1561 C1569 1.433 . S
C1562 H1558 0.929 . S
C1562 C1564 1.378 . S
C1562 C1566 1.350 . S
C1563 C1566 1.463 . S
C1563 C1568 1.350 . S
C1563 N1571 1.427 1_565 S
C1564 H1555 0.930 . S
C1564 C1562 1.378 . S
C1564 C1565 1.367 . S
C1565 C1564 1.367 . S
C1565 C1567 1.433 . S
C1566 C1562 1.350 . S
C1566 C1563 1.463 . S
C1566 N1570 1.427 . S
C1567 H1557 0.929 . S
C1567 C1565 1.433 . S
C1567 N1570 1.384 . S
C1568 H1559 0.929 . S
C1568 C1560 1.378 . S
C1568 C1563 1.350 . S
C1569 H1556 0.929 . S
C1569 C1561 1.433 . S
C1569 N1571 1.384 . S
N1570 C1566 1.427 . S
N1570 C1567 1.384 . S
N1571 C1563 1.427 1_545 S
N1571 C1569 1.384 . S
H1572 C1578 0.930 . S
H1573 C1582 0.930 . S
H1574 C1587 0.929 . S
H1575 C1585 0.929 . S
H1576 C1580 0.929 . S
H1577 C1586 0.929 . S
C1578 H1572 0.930 . S
C1578 C1579 1.367 . S
C1578 C1586 1.378 . S
C1579 C1578 1.367 . S
C1579 C1587 1.433 . S
C1580 H1576 0.929 . S
C1580 C1582 1.378 . S
C1580 C1584 1.350 . S
C1581 C1584 1.463 . S
C1581 C1586 1.350 . S
C1581 N1589 1.427 . S
C1582 H1573 0.930 . S
C1582 C1580 1.378 . S
C1582 C1583 1.367 . S
C1583 C1582 1.367 . S
C1583 C1585 1.433 . S
C1584 C1580 1.350 . S
C1584 C1581 1.463 . S
C1584 N1588 1.427 . S
C1585 H1575 0.929 . S
C1585 C1583 1.433 . S
C1585 N1588 1.384 . S
C1586 H1577 0.929 . S
C1586 C1578 1.378 . S
C1586 C1581 1.350 . S
C1587 H1574 0.929 . S
C1587 C1579 1.433 . S
C1587 N1589 1.384 . S
N1588 C1584 1.427 . S
N1588 C1585 1.384 . S
N1589 C1581 1.427 . S
N1589 C1587 1.384 . S
H1590 C1596 0.930 . S
H1591 C1600 0.930 . S
H1592 C1605 0.929 . S
H1593 C1603 0.929 . S
H1594 C1598 0.929 . S
H1595 C1604 0.929 . S
C1596 H1590 0.930 . S
C1596 C1597 1.367 1_545 S
C1596 C1604 1.378 . S
C1597 C1596 1.367 1_565 S
C1597 C1605 1.433 . S
C1598 H1594 0.929 . S
C1598 C1600 1.378 . S
C1598 C1602 1.350 . S
C1599 C1602 1.463 . S
C1599 C1604 1.350 1_554 S
C1599 N1607 1.427 . S
C1600 H1591 0.930 . S
C1600 C1598 1.378 . S
C1600 C1601 1.367 . S
C1601 C1600 1.367 . S
C1601 C1603 1.433 . S
C1602 C1598 1.350 . S
C1602 C1599 1.463 . S
C1602 N1606 1.427 . S
C1603 H1593 0.929 . S
C1603 C1601 1.433 . S
C1603 N1606 1.384 . S
C1604 H1595 0.929 . S
C1604 C1596 1.378 . S
C1604 C1599 1.350 1_556 S
C1605 H1592 0.929 . S
C1605 C1597 1.433 . S
C1605 N1607 1.384 1_566 S
N1606 C1602 1.427 . S
N1606 C1603 1.384 . S
N1607 C1599 1.427 . S
N1607 C1605 1.384 1_544 S
H1608 C1614 0.930 . S
H1609 C1618 0.930 . S
H1610 C1623 0.929 . S
H1611 C1621 0.929 . S
H1612 C1616 0.929 . S
H1613 C1622 0.929 . S
C1614 H1608 0.930 . S
C1614 C1615 1.367 . S
C1614 C1622 1.378 . S
C1615 C1614 1.367 . S
C1615 C1623 1.433 . S
C1616 H1612 0.929 . S
C1616 C1618 1.378 . S
C1616 C1620 1.350 . S
C1617 C1620 1.463 . S
C1617 C1622 1.350 . S
C1617 N1625 1.427 . S
C1618 H1609 0.930 . S
C1618 C1616 1.378 . S
C1618 C1619 1.367 . S
C1619 C1618 1.367 . S
C1619 C1621 1.433 . S
C1620 C1616 1.350 . S
C1620 C1617 1.463 . S
C1620 N1624 1.427 . S
C1621 H1611 0.929 . S
C1621 C1619 1.433 . S
C1621 N1624 1.384 . S
C1622 H1613 0.929 . S
C1622 C1614 1.378 . S
C1622 C1617 1.350 . S
C1623 H1610 0.929 . S
C1623 C1615 1.433 . S
C1623 N1625 1.384 . S
N1624 C1620 1.427 . S
N1624 C1621 1.384 . S
N1625 C1617 1.427 . S
N1625 C1623 1.384 . S
H1626 C1632 0.930 . S
H1627 C1636 0.930 . S
H1628 C1641 0.929 . S
H1629 C1639 0.929 . S
H1630 C1634 0.929 . S
H1631 C1640 0.929 . S
C1632 H1626 0.930 . S
C1632 C1633 1.367 1_565 S
C1632 C1640 1.378 . S
C1633 C1632 1.367 1_545 S
C1633 C1641 1.433 . S
C1634 H1630 0.929 . S
C1634 C1636 1.378 . S
C1634 C1638 1.350 . S
C1635 C1638 1.463 . S
C1635 C1640 1.350 . S
C1635 N1643 1.427 1_565 S
C1636 H1627 0.930 . S
C1636 C1634 1.378 . S
C1636 C1637 1.367 . S
C1637 C1636 1.367 . S
C1637 C1639 1.433 . S
C1638 C1634 1.350 . S
C1638 C1635 1.463 . S
C1638 N1642 1.427 . S
C1639 H1629 0.929 . S
C1639 C1637 1.433 . S
C1639 N1642 1.384 . S
C1640 H1631 0.929 . S
C1640 C1632 1.378 . S
C1640 C1635 1.350 . S
C1641 H1628 0.929 . S
C1641 C1633 1.433 . S
C1641 N1643 1.384 . S
N1642 C1638 1.427 . S
N1642 C1639 1.384 . S
N1643 C1635 1.427 1_545 S
N1643 C1641 1.384 . S
H1644 C1650 0.930 . S
H1645 C1654 0.930 . S
H1646 C1659 0.929 . S
H1647 C1657 0.929 . S
H1648 C1652 0.929 . S
H1649 C1658 0.929 . S
C1650 H1644 0.930 . S
C1650 C1651 1.367 . S
C1650 C1658 1.378 . S
C1651 C1650 1.367 . S
C1651 C1659 1.433 . S
C1652 H1648 0.929 . S
C1652 C1654 1.378 . S
C1652 C1656 1.350 . S
C1653 C1656 1.463 . S
C1653 C1658 1.350 . S
C1653 N1661 1.427 . S
C1654 H1645 0.930 . S
C1654 C1652 1.378 . S
C1654 C1655 1.367 . S
C1655 C1654 1.367 . S
C1655 C1657 1.433 . S
C1656 C1652 1.350 . S
C1656 C1653 1.463 . S
C1656 N1660 1.427 . S
C1657 H1647 0.929 . S
C1657 C1655 1.433 . S
C1657 N1660 1.384 . S
C1658 H1649 0.929 . S
C1658 C1650 1.378 . S
C1658 C1653 1.350 . S
C1659 H1646 0.929 . S
C1659 C1651 1.433 . S
C1659 N1661 1.384 . S
N1660 C1656 1.427 . S
N1660 C1657 1.384 . S
N1661 C1653 1.427 . S
N1661 C1659 1.384 . S
H1662 C1668 0.930 . S
H1663 C1672 0.930 . S
H1664 C1677 0.929 . S
H1665 C1675 0.929 . S
H1666 C1670 0.929 1_565 S
H1667 C1676 0.929 . S
C1668 H1662 0.930 . S
C1668 C1669 1.367 1_545 S
C1668 C1676 1.378 1_554 S
C1669 C1668 1.367 1_565 S
C1669 C1677 1.433 . S
C1670 H1666 0.929 1_545 S
C1670 C1672 1.378 . S
C1670 C1674 1.350 . S
C1671 C1674 1.463 . S
C1671 C1676 1.350 . S
C1671 N1679 1.427 1_545 S
C1672 H1663 0.930 . S
C1672 C1670 1.378 . S
C1672 C1673 1.367 . S
C1673 C1672 1.367 . S
C1673 C1675 1.433 . S
C1674 C1670 1.350 . S
C1674 C1671 1.463 . S
C1674 N1678 1.427 . S
C1675 H1665 0.929 . S
C1675 C1673 1.433 . S
C1675 N1678 1.384 . S
C1676 H1667 0.929 . S
C1676 C1668 1.378 1_556 S
C1676 C1671 1.350 . S
C1677 H1664 0.929 . S
C1677 C1669 1.433 . S
C1677 N1679 1.384 1_554 S
N1678 C1674 1.427 . S
N1678 C1675 1.384 . S
N1679 C1671 1.427 1_565 S
N1679 C1677 1.384 1_556 S
H1680 C1686 0.930 . S
H1681 C1690 0.930 . S
H1682 C1695 0.929 . S
H1683 C1693 0.929 . S
H1684 C1688 0.929 . S
H1685 C1694 0.929 . S
C1686 H1680 0.930 . S
C1686 C1687 1.367 . S
C1686 C1694 1.378 . S
C1687 C1686 1.367 . S
C1687 C1695 1.433 . S
C1688 H1684 0.929 . S
C1688 C1690 1.378 . S
C1688 C1692 1.350 . S
C1689 C1692 1.463 . S
C1689 C1694 1.350 . S
C1689 N1697 1.427 . S
C1690 H1681 0.930 . S
C1690 C1688 1.378 . S
C1690 C1691 1.367 . S
C1691 C1690 1.367 . S
C1691 C1693 1.433 . S
C1692 C1688 1.350 . S
C1692 C1689 1.463 . S
C1692 N1696 1.427 . S
C1693 H1683 0.929 . S
C1693 C1691 1.433 . S
C1693 N1696 1.384 . S
C1694 H1685 0.929 . S
C1694 C1686 1.378 . S
C1694 C1689 1.350 . S
C1695 H1682 0.929 . S
C1695 C1687 1.433 . S
C1695 N1697 1.384 . S
N1696 C1692 1.427 . S
N1696 C1693 1.384 . S
N1697 C1689 1.427 . S
N1697 C1695 1.384 . S
H1698 C1704 0.933 . S
H1699 C1708 0.930 . S
H1700 C1713 0.929 . S
H1701 C1711 0.929 . S
H1702 C1706 0.929 . S
H1703 C1712 0.929 . S
C1704 H1698 0.933 . S
C1704 C1705 1.371 . S
C1704 C1712 1.371 1_655 S
C1705 C1704 1.371 . S
C1705 C1713 1.433 . S
C1706 H1702 0.929 . S
C1706 C1708 1.378 . S
C1706 C1710 1.350 . S
C1707 C1710 1.463 . S
C1707 C1712 1.350 1_545 S
C1707 N1715 1.427 . S
C1708 H1699 0.930 . S
C1708 C1706 1.378 . S
C1708 C1709 1.367 . S
C1709 C1708 1.367 . S
C1709 C1711 1.433 . S
C1710 C1706 1.350 . S
C1710 C1707 1.463 . S
C1710 N1714 1.427 . S
C1711 H1701 0.929 . S
C1711 C1709 1.433 . S
C1711 N1714 1.384 . S
C1712 H1703 0.929 . S
C1712 C1704 1.371 1_455 S
C1712 C1707 1.350 1_565 S
C1713 H1700 0.929 . S
C1713 C1705 1.433 . S
C1713 N1715 1.384 1_665 S
N1714 C1710 1.427 . S
N1714 C1711 1.384 . S
N1715 C1707 1.427 . S
N1715 C1713 1.384 1_445 S
H1716 C1722 0.930 . S
H1717 C1726 0.930 . S
H1718 C1731 0.929 . S
H1719 C1729 0.929 . S
H1720 C1724 0.929 . S
H1721 C1730 0.929 . S
C1722 H1716 0.930 . S
C1722 C1723 1.367 . S
C1722 C1730 1.378 . S
C1723 C1722 1.367 . S
C1723 C1731 1.433 . S
C1724 H1720 0.929 . S
C1724 C1726 1.378 . S
C1724 C1728 1.350 . S
C1725 C1728 1.463 . S
C1725 C1730 1.350 . S
C1725 N1733 1.427 . S
C1726 H1717 0.930 . S
C1726 C1724 1.378 . S
C1726 C1727 1.367 . S
C1727 C1726 1.367 . S
C1727 C1729 1.433 . S
C1728 C1724 1.350 . S
C1728 C1725 1.463 . S
C1728 N1732 1.427 . S
C1729 H1719 0.929 . S
C1729 C1727 1.433 . S
C1729 N1732 1.384 . S
C1730 H1721 0.929 . S
C1730 C1722 1.378 . S
C1730 C1725 1.350 . S
C1731 H1718 0.929 . S
C1731 C1723 1.433 . S
C1731 N1733 1.384 . S
N1732 C1728 1.427 . S
N1732 C1729 1.384 . S
N1733 C1725 1.427 . S
N1733 C1731 1.384 . S
H1734 C1740 0.930 . S
H1735 C1744 0.930 . S
H1736 C1749 0.929 . S
H1737 C1747 0.929 . S
H1738 C1742 0.929 . S
H1739 C1748 0.929 . S
C1740 H1734 0.930 . S
C1740 C1741 1.367 . S
C1740 C1748 1.378 1_545 S
C1741 C1740 1.367 . S
C1741 C1749 1.433 . S
C1742 H1738 0.929 . S
C1742 C1744 1.378 . S
C1742 C1746 1.350 . S
C1743 C1746 1.463 . S
C1743 C1748 1.350 . S
C1743 N1751 1.427 1_565 S
C1744 H1735 0.930 . S
C1744 C1742 1.378 . S
C1744 C1745 1.367 . S
C1745 C1744 1.367 . S
C1745 C1747 1.433 . S
C1746 C1742 1.350 . S
C1746 C1743 1.463 . S
C1746 N1750 1.427 . S
C1747 H1737 0.929 . S
C1747 C1745 1.433 . S
C1747 N1750 1.384 . S
C1748 H1739 0.929 . S
C1748 C1740 1.378 1_565 S
C1748 C1743 1.350 . S
C1749 H1736 0.929 . S
C1749 C1741 1.433 . S
C1749 N1751 1.384 . S
N1750 C1746 1.427 . S
N1750 C1747 1.384 . S
N1751 C1743 1.427 1_545 S
N1751 C1749 1.384 . S
H1752 C1758 0.930 . S
H1753 C1762 0.930 . S
H1754 C1767 0.929 . S
H1755 C1765 0.929 . S
H1756 C1760 0.929 . S
H1757 C1766 0.929 . S
C1758 H1752 0.930 . S
C1758 C1759 1.367 . S
C1758 C1766 1.378 . S
C1759 C1758 1.367 . S
C1759 C1767 1.433 . S
C1760 H1756 0.929 . S
C1760 C1762 1.378 . S
C1760 C1764 1.350 . S
C1761 C1764 1.463 . S
C1761 C1766 1.350 . S
C1761 N1769 1.427 . S
C1762 H1753 0.930 . S
C1762 C1760 1.378 . S
C1762 C1763 1.367 . S
C1763 C1762 1.367 . S
C1763 C1765 1.433 . S
C1764 C1760 1.350 . S
C1764 C1761 1.463 . S
C1764 N1768 1.427 . S
C1765 H1755 0.929 . S
C1765 C1763 1.433 . S
C1765 N1768 1.384 . S
C1766 H1757 0.929 . S
C1766 C1758 1.378 . S
C1766 C1761 1.350 . S
C1767 H1754 0.929 . S
C1767 C1759 1.433 . S
C1767 N1769 1.384 . S
N1768 C1764 1.427 . S
N1768 C1765 1.384 . S
N1769 C1761 1.427 . S
N1769 C1767 1.384 . S
H1770 C1776 0.930 . S
H1771 C1780 0.930 . S
H1772 C1785 0.929 . S
H1773 C1783 0.929 . S
H1774 C1778 0.929 . S
H1775 C1784 0.929 . S
C1776 H1770 0.930 . S
C1776 C1777 1.367 . S
C1776 C1784 1.378 1_565 S
C1777 C1776 1.367 . S
C1777 C1785 1.433 . S
C1778 H1774 0.929 . S
C1778 C1780 1.378 . S
C1778 C1782 1.350 . S
C1779 C1782 1.463 . S
C1779 C1784 1.350 . S
C1779 N1787 1.427 . S
C1780 H1771 0.930 . S
C1780 C1778 1.378 . S
C1780 C1781 1.367 . S
C1781 C1780 1.367 . S
C1781 C1783 1.433 . S
C1782 C1778 1.350 . S
C1782 C1779 1.463 . S
C1782 N1786 1.427 . S
C1783 H1773 0.929 . S
C1783 C1781 1.433 . S
C1783 N1786 1.384 . S
C1784 H1775 0.929 . S
C1784 C1776 1.378 1_545 S
C1784 C1779 1.350 . S
C1785 H1772 0.929 . S
C1785 C1777 1.433 . S
C1785 N1787 1.384 1_565 S
N1786 C1782 1.427 . S
N1786 C1783 1.384 . S
N1787 C1779 1.427 . S
N1787 C1785 1.384 1_545 S
H1788 C1794 0.930 . S
H1789 C1798 0.930 . S
H1790 C1803 0.929 . S
H1791 C1801 0.929 . S
H1792 C1796 0.929 . S
H1793 C1802 0.929 . S
C1794 H1788 0.930 . S
C1794 C1795 1.367 . S
C1794 C1802 1.378 . S
C1795 C1794 1.367 . S
C1795 C1803 1.433 . S
C1796 H1792 0.929 . S
C1796 C1798 1.378 . S
C1796 C1800 1.350 . S
C1797 C1800 1.463 . S
C1797 C1802 1.350 . S
C1797 N1805 1.427 . S
C1798 H1789 0.930 . S
C1798 C1796 1.378 . S
C1798 C1799 1.367 . S
C1799 C1798 1.367 . S
C1799 C1801 1.433 . S
C1800 C1796 1.350 . S
C1800 C1797 1.463 . S
C1800 N1804 1.427 . S
C1801 H1791 0.929 . S
C1801 C1799 1.433 . S
C1801 N1804 1.384 . S
C1802 H1793 0.929 . S
C1802 C1794 1.378 . S
C1802 C1797 1.350 . S
C1803 H1790 0.929 . S
C1803 C1795 1.433 . S
C1803 N1805 1.384 . S
N1804 C1800 1.427 . S
N1804 C1801 1.384 . S
N1805 C1797 1.427 . S
N1805 C1803 1.384 . S
H1806 C1812 0.930 . S
H1807 C1816 0.930 . S
H1808 C1821 0.929 . S
H1809 C1819 0.929 . S
H1810 C1814 0.929 . S
H1811 C1820 0.924 1_655 S
C1812 H1806 0.930 . S
C1812 C1813 1.367 . S
C1812 C1820 1.378 . S
C1813 C1812 1.367 . S
C1813 C1821 1.433 . S
C1814 H1810 0.929 . S
C1814 C1816 1.378 1_565 S
C1814 C1818 1.350 . S
C1815 C1818 1.463 . S
C1815 C1820 1.350 . S
C1815 N1823 1.427 . S
C1816 H1807 0.930 . S
C1816 C1814 1.378 1_545 S
C1816 C1817 1.367 1_455 S
C1817 C1816 1.367 1_655 S
C1817 C1819 1.433 . S
C1818 C1814 1.350 . S
C1818 C1815 1.463 . S
C1818 N1822 1.427 1_455 S
C1819 H1809 0.929 . S
C1819 C1817 1.433 . S
C1819 N1822 1.384 1_545 S
C1820 H1811 0.924 1_455 S
C1820 C1812 1.378 . S
C1820 C1815 1.350 . S
C1821 H1808 0.929 . S
C1821 C1813 1.433 . S
C1821 N1823 1.384 . S
N1822 C1818 1.427 1_655 S
N1822 C1819 1.384 1_565 S
N1823 C1815 1.427 . S
N1823 C1821 1.384 . S
H1824 C1830 0.930 . S
H1825 C1834 0.930 . S
H1826 C1839 0.929 . S
H1827 C1837 0.929 . S
H1828 C1832 0.929 . S
H1829 C1838 0.929 . S
C1830 H1824 0.930 . S
C1830 C1831 1.367 . S
C1830 C1838 1.378 . S
C1831 C1830 1.367 . S
C1831 C1839 1.433 . S
C1832 H1828 0.929 . S
C1832 C1834 1.378 . S
C1832 C1836 1.350 . S
C1833 C1836 1.463 . S
C1833 C1838 1.350 . S
C1833 N1841 1.427 . S
C1834 H1825 0.930 . S
C1834 C1832 1.378 . S
C1834 C1835 1.367 . S
C1835 C1834 1.367 . S
C1835 C1837 1.433 . S
C1836 C1832 1.350 . S
C1836 C1833 1.463 . S
C1836 N1840 1.427 . S
C1837 H1827 0.929 . S
C1837 C1835 1.433 . S
C1837 N1840 1.384 . S
C1838 H1829 0.929 . S
C1838 C1830 1.378 . S
C1838 C1833 1.350 . S
C1839 H1826 0.929 . S
C1839 C1831 1.433 . S
C1839 N1841 1.384 . S
N1840 C1836 1.427 . S
N1840 C1837 1.384 . S
N1841 C1833 1.427 . S
N1841 C1839 1.384 . S
H1842 C1848 0.930 . S
H1843 C1852 0.930 . S
H1844 C1857 0.929 . S
H1845 C1855 0.929 . S
H1846 C1850 0.929 . S
H1847 C1856 0.929 . S
C1848 H1842 0.930 . S
C1848 C1849 1.367 . S
C1848 C1856 1.378 . S
C1849 C1848 1.367 . S
C1849 C1857 1.433 . S
C1850 H1846 0.929 . S
C1850 C1852 1.378 . S
C1850 C1854 1.350 . S
C1851 C1854 1.463 . S
C1851 C1856 1.350 . S
C1851 N1859 1.427 . S
C1852 H1843 0.930 . S
C1852 C1850 1.378 . S
C1852 C1853 1.367 . S
C1853 C1852 1.367 . S
C1853 C1855 1.433 . S
C1854 C1850 1.350 . S
C1854 C1851 1.463 . S
C1854 N1858 1.427 . S
C1855 H1845 0.929 . S
C1855 C1853 1.433 . S
C1855 N1858 1.384 . S
C1856 H1847 0.929 . S
C1856 C1848 1.378 . S
C1856 C1851 1.350 . S
C1857 H1844 0.929 . S
C1857 C1849 1.433 . S
C1857 N1859 1.384 . S
N1858 C1854 1.427 . S
N1858 C1855 1.384 . S
N1859 C1851 1.427 . S
N1859 C1857 1.384 . S
H1860 C1866 0.930 . S
H1861 C1870 0.930 . S
H1862 C1875 0.929 . S
H1863 C1873 0.929 . S
H1864 C1868 0.929 . S
H1865 C1874 0.929 . S
C1866 H1860 0.930 . S
C1866 C1867 1.367 1_554 S
C1866 C1874 1.378 1_655 S
C1867 C1866 1.367 1_556 S
C1867 C1875 1.433 . S
C1868 H1864 0.929 . S
C1868 C1870 1.378 . S
C1868 C1872 1.350 . S
C1869 C1872 1.463 . S
C1869 C1874 1.350 . S
C1869 N1877 1.411 1_455 S
C1870 H1861 0.930 . S
C1870 C1868 1.378 . S
C1870 C1871 1.367 . S
C1871 C1870 1.367 . S
C1871 C1873 1.433 . S
C1872 C1868 1.350 . S
C1872 C1869 1.463 . S
C1872 N1876 1.427 . S
C1873 H1863 0.929 . S
C1873 C1871 1.433 . S
C1873 N1876 1.384 . S
C1874 H1865 0.929 . S
C1874 C1866 1.378 1_455 S
C1874 C1869 1.350 . S
C1875 H1862 0.929 . S
C1875 C1867 1.433 . S
C1875 N1877 1.406 1_556 S
N1876 C1872 1.427 . S
N1876 C1873 1.384 . S
N1877 C1869 1.411 1_655 S
N1877 C1875 1.406 1_554 S
H1878 C1884 0.930 . S
H1879 C1888 0.930 . S
H1880 C1893 0.929 . S
H1881 C1891 0.929 . S
H1882 C1886 0.929 . S
H1883 C1892 0.929 . S
C1884 H1878 0.930 . S
C1884 C1885 1.367 . S
C1884 C1892 1.378 . S
C1885 C1884 1.367 . S
C1885 C1893 1.433 . S
C1886 H1882 0.929 . S
C1886 C1888 1.378 . S
C1886 C1890 1.350 . S
C1887 C1890 1.463 . S
C1887 C1892 1.350 . S
C1887 N1895 1.427 . S
C1888 H1879 0.930 . S
C1888 C1886 1.378 . S
C1888 C1889 1.367 . S
C1889 C1888 1.367 . S
C1889 C1891 1.433 . S
C1890 C1886 1.350 . S
C1890 C1887 1.463 . S
C1890 N1894 1.427 . S
C1891 H1881 0.929 . S
C1891 C1889 1.433 . S
C1891 N1894 1.384 . S
C1892 H1883 0.929 . S
C1892 C1884 1.378 . S
C1892 C1887 1.350 . S
C1893 H1880 0.929 . S
C1893 C1885 1.433 . S
C1893 N1895 1.384 . S
N1894 C1890 1.427 . S
N1894 C1891 1.384 . S
N1895 C1887 1.427 . S
N1895 C1893 1.384 . S
H1896 C1902 0.930 . S
H1897 C1906 0.930 . S
H1898 C1911 0.929 . S
H1899 C1909 0.929 . S
H1900 C1904 0.929 1_556 S
H1901 C1910 0.935 . S
C1902 H1896 0.930 . S
C1902 C1903 1.367 1_554 S
C1902 C1910 1.357 1_455 S
C1903 C1902 1.367 1_556 S
C1903 C1911 1.433 . S
C1904 H1900 0.929 1_554 S
C1904 C1906 1.378 . S
C1904 C1908 1.350 . S
C1905 C1908 1.463 . S
C1905 C1910 1.365 . S
C1905 N1913 1.427 1_554 S
C1906 H1897 0.930 . S
C1906 C1904 1.378 . S
C1906 C1907 1.367 . S
C1907 C1906 1.367 . S
C1907 C1909 1.433 . S
C1908 C1904 1.350 . S
C1908 C1905 1.463 . S
C1908 N1912 1.427 . S
C1909 H1899 0.929 . S
C1909 C1907 1.433 . S
C1909 N1912 1.384 . S
C1910 H1901 0.935 . S
C1910 C1902 1.357 1_655 S
C1910 C1905 1.365 . S
C1911 H1898 0.929 . S
C1911 C1903 1.433 . S
C1911 N1913 1.384 1_455 S
N1912 C1908 1.427 . S
N1912 C1909 1.384 . S
N1913 C1905 1.427 1_556 S
N1913 C1911 1.384 1_655 S
H1914 C1920 0.930 . S
H1915 C1924 0.930 . S
H1916 C1929 0.929 . S
H1917 C1927 0.929 . S
H1918 C1922 0.929 . S
H1919 C1928 0.929 . S
C1920 H1914 0.930 . S
C1920 C1921 1.367 . S
C1920 C1928 1.378 . S
C1921 C1920 1.367 . S
C1921 C1929 1.433 . S
C1922 H1918 0.929 . S
C1922 C1924 1.378 . S
C1922 C1926 1.350 . S
C1923 C1926 1.463 . S
C1923 C1928 1.350 . S
C1923 N1931 1.427 . S
C1924 H1915 0.930 . S
C1924 C1922 1.378 . S
C1924 C1925 1.367 . S
C1925 C1924 1.367 . S
C1925 C1927 1.433 . S
C1926 C1922 1.350 . S
C1926 C1923 1.463 . S
C1926 N1930 1.427 . S
C1927 H1917 0.929 . S
C1927 C1925 1.433 . S
C1927 N1930 1.384 . S
C1928 H1919 0.929 . S
C1928 C1920 1.378 . S
C1928 C1923 1.350 . S
C1929 H1916 0.929 . S
C1929 C1921 1.433 . S
C1929 N1931 1.384 . S
N1930 C1926 1.427 . S
N1930 C1927 1.384 . S
N1931 C1923 1.427 . S
N1931 C1929 1.384 . S
H1932 C1938 0.930 . S
H1933 C1942 0.930 . S
H1934 C1947 0.929 . S
H1935 C1945 0.929 . S
H1936 C1940 0.929 . S
H1937 C1946 0.929 . S
C1938 H1932 0.930 . S
C1938 C1939 1.367 . S
C1938 C1946 1.378 1_655 S
C1939 C1938 1.367 . S
C1939 C1947 1.433 . S
C1940 H1936 0.929 . S
C1940 C1942 1.378 . S
C1940 C1944 1.350 . S
C1941 C1944 1.463 . S
C1941 C1946 1.350 . S
C1941 N1949 1.427 1_455 S
C1942 H1933 0.930 . S
C1942 C1940 1.378 . S
C1942 C1943 1.367 . S
C1943 C1942 1.367 . S
C1943 C1945 1.433 . S
C1944 C1940 1.350 . S
C1944 C1941 1.463 . S
C1944 N1948 1.427 . S
C1945 H1935 0.929 . S
C1945 C1943 1.433 . S
C1945 N1948 1.384 . S
C1946 H1937 0.929 . S
C1946 C1938 1.378 1_455 S
C1946 C1941 1.350 . S
C1947 H1934 0.929 . S
C1947 C1939 1.433 . S
C1947 N1949 1.384 . S
N1948 C1944 1.427 . S
N1948 C1945 1.384 . S
N1949 C1941 1.427 1_655 S
N1949 C1947 1.384 . S
H1950 C1956 0.930 . S
H1951 C1960 0.930 . S
H1952 C1965 0.929 . S
H1953 C1963 0.929 . S
H1954 C1958 0.929 . S
H1955 C1964 0.959 . S
C1956 H1950 0.930 . S
C1956 C1957 1.367 . S
C1956 C1964 1.378 . S
C1957 C1956 1.367 . S
C1957 C1965 1.433 . S
C1958 H1954 0.929 . S
C1958 C1960 1.378 . S
C1958 C1962 1.350 . S
C1959 C1962 1.463 . S
C1959 C1964 1.350 . S
C1959 N1967 1.427 . S
C1960 H1951 0.930 . S
C1960 C1958 1.378 . S
C1960 C1961 1.367 1_556 S
C1961 C1960 1.367 1_554 S
C1961 C1963 1.433 . S
C1962 C1958 1.350 . S
C1962 C1959 1.463 . S
C1962 N1966 1.427 1_556 S
C1963 H1953 0.929 . S
C1963 C1961 1.433 . S
C1963 N1966 1.384 . S
C1964 H1955 0.959 . S
C1964 C1956 1.378 . S
C1964 C1959 1.350 . S
C1965 H1952 0.929 . S
C1965 C1957 1.433 . S
C1965 N1967 1.384 . S
N1966 C1962 1.427 1_554 S
N1966 C1963 1.384 . S
N1967 C1959 1.427 . S
N1967 C1965 1.384 . S
H1968 C1974 0.930 . S
H1969 C1978 0.930 . S
H1970 C1983 0.929 . S
H1971 C1981 0.929 . S
H1972 C1976 0.929 . S
H1973 C1982 0.929 . S
C1974 H1968 0.930 . S
C1974 C1975 1.367 . S
C1974 C1982 1.378 . S
C1975 C1974 1.367 . S
C1975 C1983 1.433 . S
C1976 H1972 0.929 . S
C1976 C1978 1.378 . S
C1976 C1980 1.350 . S
C1977 C1980 1.463 . S
C1977 C1982 1.350 . S
C1977 N1985 1.427 . S
C1978 H1969 0.930 . S
C1978 C1976 1.378 . S
C1978 C1979 1.367 . S
C1979 C1978 1.367 . S
C1979 C1981 1.433 . S
C1980 C1976 1.350 . S
C1980 C1977 1.463 . S
C1980 N1984 1.427 . S
C1981 H1971 0.929 . S
C1981 C1979 1.433 . S
C1981 N1984 1.384 . S
C1982 H1973 0.929 . S
C1982 C1974 1.378 . S
C1982 C1977 1.350 . S
C1983 H1970 0.929 . S
C1983 C1975 1.433 . S
C1983 N1985 1.384 . S
N1984 C1980 1.427 . S
N1984 C1981 1.384 . S
N1985 C1977 1.427 . S
N1985 C1983 1.384 . S
H1986 C1992 0.930 . S
H1987 C1996 0.930 . S
H1988 C2001 0.929 . S
H1989 C1999 0.929 . S
H1990 C1994 0.929 . S
H1991 C2000 0.929 . S
C1992 H1986 0.930 . S
C1992 C1993 1.367 . S
C1992 C2000 1.378 . S
C1993 C1992 1.367 . S
C1993 C2001 1.433 . S
C1994 H1990 0.929 . S
C1994 C1996 1.378 1_554 S
C1994 C1998 1.350 . S
C1995 C1998 1.463 . S
C1995 C2000 1.350 . S
C1995 N2003 1.427 . S
C1996 H1987 0.930 . S
C1996 C1994 1.378 1_556 S
C1996 C1997 1.367 . S
C1997 C1996 1.367 . S
C1997 C1999 1.433 . S
C1998 C1994 1.350 . S
C1998 C1995 1.463 . S
C1998 N2002 1.427 1_554 S
C1999 H1989 0.929 . S
C1999 C1997 1.433 . S
C1999 N2002 1.384 . S
C2000 H1991 0.929 . S
C2000 C1992 1.378 . S
C2000 C1995 1.350 . S
C2001 H1988 0.929 . S
C2001 C1993 1.433 . S
C2001 N2003 1.384 . S
N2002 C1998 1.427 1_556 S
N2002 C1999 1.384 . S
N2003 C1995 1.427 . S
N2003 C2001 1.384 . S
H2004 C2010 0.930 . S
H2005 C2014 0.930 . S
H2006 C2019 0.929 . S
H2007 C2017 0.929 . S
H2008 C2012 0.929 . S
H2009 C2018 0.929 . S
C2010 H2004 0.930 . S
C2010 C2011 1.367 . S
C2010 C2018 1.378 . S
C2011 C2010 1.367 . S
C2011 C2019 1.433 . S
C2012 H2008 0.929 . S
C2012 C2014 1.378 . S
C2012 C2016 1.350 . S
C2013 C2016 1.463 . S
C2013 C2018 1.350 . S
C2013 N2021 1.427 . S
C2014 H2005 0.930 . S
C2014 C2012 1.378 . S
C2014 C2015 1.367 . S
C2015 C2014 1.367 . S
C2015 C2017 1.433 . S
C2016 C2012 1.350 . S
C2016 C2013 1.463 . S
C2016 N2020 1.427 . S
C2017 H2007 0.929 . S
C2017 C2015 1.433 . S
C2017 N2020 1.384 . S
C2018 H2009 0.929 . S
C2018 C2010 1.378 . S
C2018 C2013 1.350 . S
C2019 H2006 0.929 . S
C2019 C2011 1.433 . S
C2019 N2021 1.384 . S
N2020 C2016 1.427 . S
N2020 C2017 1.384 . S
N2021 C2013 1.427 . S
N2021 C2019 1.384 . S
H2022 C2028 0.930 . S
H2023 C2032 0.930 . S
H2024 C2037 0.929 . S
H2025 C2035 0.929 . S
H2026 C2030 0.929 . S
H2027 C2036 0.929 . S
C2028 H2022 0.930 . S
C2028 C2029 1.367 . S
C2028 C2036 1.378 . S
C2029 C2028 1.367 . S
C2029 C2037 1.433 . S
C2030 H2026 0.929 . S
C2030 C2032 1.378 . S
C2030 C2034 1.350 . S
C2031 C2034 1.463 . S
C2031 C2036 1.350 . S
C2031 N2039 1.427 . S
C2032 H2023 0.930 . S
C2032 C2030 1.378 . S
C2032 C2033 1.367 . S
C2033 C2032 1.367 . S
C2033 C2035 1.433 . S
C2034 C2030 1.350 . S
C2034 C2031 1.463 . S
C2034 N2038 1.427 . S
C2035 H2025 0.929 . S
C2035 C2033 1.433 . S
C2035 N2038 1.384 . S
C2036 H2027 0.929 . S
C2036 C2028 1.378 . S
C2036 C2031 1.350 . S
C2037 H2024 0.929 . S
C2037 C2029 1.433 . S
C2037 N2039 1.384 . S
N2038 C2034 1.427 . S
N2038 C2035 1.384 . S
N2039 C2031 1.427 . S
N2039 C2037 1.384 . S
H2040 C2046 0.930 . S
H2041 C2050 0.930 . S
H2042 C2055 0.929 . S
H2043 C2053 0.929 . S
H2044 C2048 0.929 . S
H2045 C2054 0.929 . S
C2046 H2040 0.930 . S
C2046 C2047 1.367 . S
C2046 C2054 1.378 . S
C2047 C2046 1.367 . S
C2047 C2055 1.433 . S
C2048 H2044 0.929 . S
C2048 C2050 1.378 . S
C2048 C2052 1.350 . S
C2049 C2052 1.463 . S
C2049 C2054 1.350 . S
C2049 N2057 1.427 . S
C2050 H2041 0.930 . S
C2050 C2048 1.378 . S
C2050 C2051 1.367 . S
C2051 C2050 1.367 . S
C2051 C2053 1.433 . S
C2052 C2048 1.350 . S
C2052 C2049 1.463 . S
C2052 N2056 1.427 . S
C2053 H2043 0.929 . S
C2053 C2051 1.433 . S
C2053 N2056 1.384 . S
C2054 H2045 0.929 . S
C2054 C2046 1.378 . S
C2054 C2049 1.350 . S
C2055 H2042 0.929 . S
C2055 C2047 1.433 . S
C2055 N2057 1.384 . S
N2056 C2052 1.427 . S
N2056 C2053 1.384 . S
N2057 C2049 1.427 . S
N2057 C2055 1.384 . S
H2058 C2064 0.930 . S
H2059 C2068 0.930 . S
H2060 C2073 0.929 . S
H2061 C2071 0.929 . S
H2062 C2066 0.929 . S
H2063 C2072 0.929 . S
C2064 H2058 0.930 . S
C2064 C2065 1.367 . S
C2064 C2072 1.378 . S
C2065 C2064 1.367 . S
C2065 C2073 1.433 . S
C2066 H2062 0.929 . S
C2066 C2068 1.378 1_556 S
C2066 C2070 1.350 . S
C2067 C2070 1.463 . S
C2067 C2072 1.350 . S
C2067 N2075 1.427 . S
C2068 H2059 0.930 . S
C2068 C2066 1.378 1_554 S
C2068 C2069 1.367 . S
C2069 C2068 1.367 . S
C2069 C2071 1.433 . S
C2070 C2066 1.350 . S
C2070 C2067 1.463 . S
C2070 N2074 1.445 . S
C2071 H2061 0.929 . S
C2071 C2069 1.433 . S
C2071 N2074 1.357 1_554 S
C2072 H2063 0.929 . S
C2072 C2064 1.378 . S
C2072 C2067 1.350 . S
C2073 H2060 0.929 . S
C2073 C2065 1.433 . S
C2073 N2075 1.384 . S
N2074 C2070 1.445 . S
N2074 C2071 1.357 1_556 S
N2075 C2067 1.427 . S
N2075 C2073 1.384 . S
H2076 C2082 0.930 . S
H2077 C2086 0.930 . S
H2078 C2091 0.929 . S
H2079 C2089 0.929 . S
H2080 C2084 0.929 . S
H2081 C2090 0.929 . S
C2082 H2076 0.930 . S
C2082 C2083 1.367 . S
C2082 C2090 1.378 . S
C2083 C2082 1.367 . S
C2083 C2091 1.433 . S
C2084 H2080 0.929 . S
C2084 C2086 1.378 . S
C2084 C2088 1.350 . S
C2085 C2088 1.463 . S
C2085 C2090 1.350 . S
C2085 N2093 1.427 . S
C2086 H2077 0.930 . S
C2086 C2084 1.378 . S
C2086 C2087 1.367 . S
C2087 C2086 1.367 . S
C2087 C2089 1.433 . S
C2088 C2084 1.350 . S
C2088 C2085 1.463 . S
C2088 N2092 1.427 . S
C2089 H2079 0.929 . S
C2089 C2087 1.433 . S
C2089 N2092 1.384 . S
C2090 H2081 0.929 . S
C2090 C2082 1.378 . S
C2090 C2085 1.350 . S
C2091 H2078 0.929 . S
C2091 C2083 1.433 . S
C2091 N2093 1.384 . S
N2092 C2088 1.427 . S
N2092 C2089 1.384 . S
N2093 C2085 1.427 . S
N2093 C2091 1.384 . S
H2094 C2100 0.930 . S
H2095 C2104 0.930 . S
H2096 C2109 0.929 . S
H2097 C2107 0.929 . S
H2098 C2102 0.929 . S
H2099 C2108 0.929 . S
C2100 H2094 0.930 . S
C2100 C2101 1.367 . S
C2100 C2108 1.378 . S
C2101 C2100 1.367 . S
C2101 C2109 1.433 . S
C2102 H2098 0.929 . S
C2102 C2104 1.378 . S
C2102 C2106 1.350 . S
C2103 C2106 1.463 . S
C2103 C2108 1.350 . S
C2103 N2111 1.427 . S
C2104 H2095 0.930 . S
C2104 C2102 1.378 . S
C2104 C2105 1.367 . S
C2105 C2104 1.367 . S
C2105 C2107 1.433 . S
C2106 C2102 1.350 . S
C2106 C2103 1.463 . S
C2106 N2110 1.427 . S
C2107 H2097 0.929 . S
C2107 C2105 1.433 . S
C2107 N2110 1.384 . S
C2108 H2099 0.929 . S
C2108 C2100 1.378 . S
C2108 C2103 1.350 . S
C2109 H2096 0.929 . S
C2109 C2101 1.433 . S
C2109 N2111 1.384 . S
N2110 C2106 1.427 . S
N2110 C2107 1.384 . S
N2111 C2103 1.427 . S
N2111 C2109 1.384 . S
H2112 C2118 0.930 . S
H2113 C2122 0.930 . S
H2114 C2127 0.929 . S
H2115 C2125 0.929 . S
H2116 C2120 0.929 . S
H2117 C2126 0.929 . S
C2118 H2112 0.930 . S
C2118 C2119 1.367 . S
C2118 C2126 1.378 . S
C2119 C2118 1.367 . S
C2119 C2127 1.433 . S
C2120 H2116 0.929 . S
C2120 C2122 1.378 . S
C2120 C2124 1.350 . S
C2121 C2124 1.463 . S
C2121 C2126 1.350 . S
C2121 N2129 1.427 . S
C2122 H2113 0.930 . S
C2122 C2120 1.378 . S
C2122 C2123 1.367 . S
C2123 C2122 1.367 . S
C2123 C2125 1.433 . S
C2124 C2120 1.350 . S
C2124 C2121 1.463 . S
C2124 N2128 1.427 . S
C2125 H2115 0.929 . S
C2125 C2123 1.433 . S
C2125 N2128 1.384 . S
C2126 H2117 0.929 . S
C2126 C2118 1.378 . S
C2126 C2121 1.350 . S
C2127 H2114 0.929 . S
C2127 C2119 1.433 . S
C2127 N2129 1.384 . S
N2128 C2124 1.427 . S
N2128 C2125 1.384 . S
N2129 C2121 1.427 . S
N2129 C2127 1.384 . S
H2130 C2136 0.930 . S
H2131 C2140 0.930 . S
H2132 C2145 0.929 . S
H2133 C2143 0.929 . S
H2134 C2138 0.929 . S
H2135 C2144 0.929 . S
C2136 H2130 0.930 . S
C2136 C2137 1.367 . S
C2136 C2144 1.378 . S
C2137 C2136 1.367 . S
C2137 C2145 1.433 . S
C2138 H2134 0.929 . S
C2138 C2140 1.378 . S
C2138 C2142 1.350 . S
C2139 C2142 1.463 . S
C2139 C2144 1.350 . S
C2139 N2147 1.427 . S
C2140 H2131 0.930 . S
C2140 C2138 1.378 . S
C2140 C2141 1.367 . S
C2141 C2140 1.367 . S
C2141 C2143 1.433 . S
C2142 C2138 1.350 . S
C2142 C2139 1.463 . S
C2142 N2146 1.427 . S
C2143 H2133 0.929 . S
C2143 C2141 1.433 . S
C2143 N2146 1.384 . S
C2144 H2135 0.929 . S
C2144 C2136 1.378 . S
C2144 C2139 1.350 . S
C2145 H2132 0.929 . S
C2145 C2137 1.433 . S
C2145 N2147 1.384 . S
N2146 C2142 1.427 . S
N2146 C2143 1.384 . S
N2147 C2139 1.427 . S
N2147 C2145 1.384 . S
H2148 C2154 0.930 . S
H2149 C2158 0.930 . S
H2150 C2163 0.929 . S
H2151 C2161 0.929 . S
H2152 C2156 0.929 . S
H2153 C2162 0.929 . S
C2154 H2148 0.930 . S
C2154 C2155 1.367 . S
C2154 C2162 1.378 . S
C2155 C2154 1.367 . S
C2155 C2163 1.433 . S
C2156 H2152 0.929 . S
C2156 C2158 1.378 . S
C2156 C2160 1.350 . S
C2157 C2160 1.463 . S
C2157 C2162 1.350 . S
C2157 N2165 1.427 . S
C2158 H2149 0.930 . S
C2158 C2156 1.378 . S
C2158 C2159 1.367 . S
C2159 C2158 1.367 . S
C2159 C2161 1.433 . S
C2160 C2156 1.350 . S
C2160 C2157 1.463 . S
C2160 N2164 1.427 . S
C2161 H2151 0.929 . S
C2161 C2159 1.433 . S
C2161 N2164 1.384 . S
C2162 H2153 0.929 . S
C2162 C2154 1.378 . S
C2162 C2157 1.350 . S
C2163 H2150 0.929 . S
C2163 C2155 1.433 . S
C2163 N2165 1.384 . S
N2164 C2160 1.427 . S
N2164 C2161 1.384 . S
N2165 C2157 1.427 . S
N2165 C2163 1.384 . S
H2166 C2172 0.930 . S
H2167 C2176 0.930 . S
H2168 C2181 0.929 . S
H2169 C2179 0.929 . S
H2170 C2174 0.929 . S
H2171 C2180 0.929 . S
C2172 H2166 0.930 . S
C2172 C2173 1.367 1_655 S
C2172 C2180 1.378 . S
C2173 C2172 1.367 1_455 S
C2173 C2181 1.433 . S
C2174 H2170 0.929 . S
C2174 C2176 1.378 . S
C2174 C2178 1.350 . S
C2175 C2178 1.463 . S
C2175 C2180 1.350 . S
C2175 N2183 1.427 1_655 S
C2176 H2167 0.930 . S
C2176 C2174 1.378 . S
C2176 C2177 1.367 . S
C2177 C2176 1.367 . S
C2177 C2179 1.433 . S
C2178 C2174 1.350 . S
C2178 C2175 1.463 . S
C2178 N2182 1.427 . S
C2179 H2169 0.929 . S
C2179 C2177 1.433 . S
C2179 N2182 1.384 . S
C2180 H2171 0.929 . S
C2180 C2172 1.378 . S
C2180 C2175 1.350 . S
C2181 H2168 0.929 . S
C2181 C2173 1.433 . S
C2181 N2183 1.384 . S
N2182 C2178 1.427 . S
N2182 C2179 1.384 . S
N2183 C2175 1.427 1_455 S
N2183 C2181 1.384 . S
H2184 C2190 0.930 . S
H2185 C2194 0.930 . S
H2186 C2199 0.929 . S
H2187 C2197 0.929 . S
H2188 C2192 0.929 . S
H2189 C2198 0.929 . S
C2190 H2184 0.930 . S
C2190 C2191 1.367 . S
C2190 C2198 1.378 . S
C2191 C2190 1.367 . S
C2191 C2199 1.433 . S
C2192 H2188 0.929 . S
C2192 C2194 1.378 . S
C2192 C2196 1.350 . S
C2193 C2196 1.463 . S
C2193 C2198 1.350 . S
C2193 N2201 1.427 . S
C2194 H2185 0.930 . S
C2194 C2192 1.378 . S
C2194 C2195 1.367 . S
C2195 C2194 1.367 . S
C2195 C2197 1.433 . S
C2196 C2192 1.350 . S
C2196 C2193 1.463 . S
C2196 N2200 1.427 . S
C2197 H2187 0.929 . S
C2197 C2195 1.433 . S
C2197 N2200 1.384 . S
C2198 H2189 0.929 . S
C2198 C2190 1.378 . S
C2198 C2193 1.350 . S
C2199 H2186 0.929 . S
C2199 C2191 1.433 . S
C2199 N2201 1.384 . S
N2200 C2196 1.427 . S
N2200 C2197 1.384 . S
N2201 C2193 1.427 . S
N2201 C2199 1.384 . S
H2202 C2208 0.930 . S
H2203 C2212 0.930 . S
H2204 C2217 0.929 . S
H2205 C2215 0.929 . S
H2206 C2210 0.929 . S
H2207 C2216 0.929 . S
C2208 H2202 0.930 . S
C2208 C2209 1.367 . S
C2208 C2216 1.378 . S
C2209 C2208 1.367 . S
C2209 C2217 1.433 . S
C2210 H2206 0.929 . S
C2210 C2212 1.378 1_655 S
C2210 C2214 1.350 . S
C2211 C2214 1.463 . S
C2211 C2216 1.350 . S
C2211 N2219 1.427 . S
C2212 H2203 0.930 . S
C2212 C2210 1.378 1_455 S
C2212 C2213 1.367 . S
C2213 C2212 1.367 . S
C2213 C2215 1.433 1_455 S
C2214 C2210 1.350 . S
C2214 C2211 1.463 . S
C2214 N2218 1.427 . S
C2215 H2205 0.929 . S
C2215 C2213 1.433 1_655 S
C2215 N2218 1.384 . S
C2216 H2207 0.929 . S
C2216 C2208 1.378 . S
C2216 C2211 1.350 . S
C2217 H2204 0.929 . S
C2217 C2209 1.433 . S
C2217 N2219 1.384 . S
N2218 C2214 1.427 . S
N2218 C2215 1.384 . S
N2219 C2211 1.427 . S
N2219 C2217 1.384 . S
H2220 C2226 0.930 . S
H2221 C2230 0.930 . S
H2222 C2235 0.929 . S
H2223 C2233 0.929 . S
H2224 C2228 0.929 . S
H2225 C2234 0.929 . S
C2226 H2220 0.930 . S
C2226 C2227 1.367 . S
C2226 C2234 1.378 . S
C2227 C2226 1.367 . S
C2227 C2235 1.433 . S
C2228 H2224 0.929 . S
C2228 C2230 1.378 . S
C2228 C2232 1.350 . S
C2229 C2232 1.463 . S
C2229 C2234 1.350 . S
C2229 N2237 1.427 . S
C2230 H2221 0.930 . S
C2230 C2228 1.378 . S
C2230 C2231 1.367 . S
C2231 C2230 1.367 . S
C2231 C2233 1.433 . S
C2232 C2228 1.350 . S
C2232 C2229 1.463 . S
C2232 N2236 1.427 . S
C2233 H2223 0.929 . S
C2233 C2231 1.433 . S
C2233 N2236 1.384 . S
C2234 H2225 0.929 . S
C2234 C2226 1.378 . S
C2234 C2229 1.350 . S
C2235 H2222 0.929 . S
C2235 C2227 1.433 . S
C2235 N2237 1.384 . S
N2236 C2232 1.427 . S
N2236 C2233 1.384 . S
N2237 C2229 1.427 . S
N2237 C2235 1.384 . S
H2238 C2244 0.930 . S
H2239 C2248 0.930 . S
H2240 C2253 0.929 . S
H2241 C2251 0.929 . S
H2242 C2246 0.929 . S
H2243 C2252 0.929 . S
C2244 H2238 0.930 . S
C2244 C2245 1.367 . S
C2244 C2252 1.378 . S
C2245 C2244 1.367 . S
C2245 C2253 1.433 . S
C2246 H2242 0.929 . S
C2246 C2248 1.378 . S
C2246 C2250 1.350 . S
C2247 C2250 1.463 . S
C2247 C2252 1.350 . S
C2247 N2255 1.427 . S
C2248 H2239 0.930 . S
C2248 C2246 1.378 . S
C2248 C2249 1.367 . S
C2249 C2248 1.367 . S
C2249 C2251 1.433 . S
C2250 C2246 1.350 . S
C2250 C2247 1.463 . S
C2250 N2254 1.427 . S
C2251 H2241 0.929 . S
C2251 C2249 1.433 . S
C2251 N2254 1.384 . S
C2252 H2243 0.929 . S
C2252 C2244 1.378 . S
C2252 C2247 1.350 . S
C2253 H2240 0.929 . S
C2253 C2245 1.433 . S
C2253 N2255 1.384 . S
N2254 C2250 1.427 . S
N2254 C2251 1.384 . S
N2255 C2247 1.427 . S
N2255 C2253 1.384 . S
H2256 C2262 0.930 . S
H2257 C2266 0.930 . S
H2258 C2271 0.929 . S
H2259 C2269 0.929 . S
H2260 C2264 0.929 . S
H2261 C2270 0.929 . S
C2262 H2256 0.930 . S
C2262 C2263 1.367 . S
C2262 C2270 1.378 . S
C2263 C2262 1.367 . S
C2263 C2271 1.433 . S
C2264 H2260 0.929 . S
C2264 C2266 1.378 . S
C2264 C2268 1.350 . S
C2265 C2268 1.463 . S
C2265 C2270 1.350 . S
C2265 N2273 1.427 . S
C2266 H2257 0.930 . S
C2266 C2264 1.378 . S
C2266 C2267 1.367 . S
C2267 C2266 1.367 . S
C2267 C2269 1.433 . S
C2268 C2264 1.350 . S
C2268 C2265 1.463 . S
C2268 N2272 1.427 . S
C2269 H2259 0.929 . S
C2269 C2267 1.433 . S
C2269 N2272 1.384 . S
C2270 H2261 0.929 . S
C2270 C2262 1.378 . S
C2270 C2265 1.350 . S
C2271 H2258 0.929 . S
C2271 C2263 1.433 . S
C2271 N2273 1.384 . S
N2272 C2268 1.427 . S
N2272 C2269 1.384 . S
N2273 C2265 1.427 . S
N2273 C2271 1.384 . S
H2274 C2280 0.930 . S
H2275 C2284 0.930 . S
H2276 C2289 0.929 . S
H2277 C2287 0.929 . S
H2278 C2282 0.929 . S
H2279 C2288 0.929 . S
C2280 H2274 0.930 . S
C2280 C2281 1.367 . S
C2280 C2288 1.378 . S
C2281 C2280 1.367 . S
C2281 C2289 1.433 . S
C2282 H2278 0.929 . S
C2282 C2284 1.378 . S
C2282 C2286 1.350 . S
C2283 C2286 1.463 . S
C2283 C2288 1.350 . S
C2283 N2291 1.427 . S
C2284 H2275 0.930 . S
C2284 C2282 1.378 . S
C2284 C2285 1.367 . S
C2285 C2284 1.367 . S
C2285 C2287 1.433 . S
C2286 C2282 1.350 . S
C2286 C2283 1.463 . S
C2286 N2290 1.427 . S
C2287 H2277 0.929 . S
C2287 C2285 1.433 . S
C2287 N2290 1.384 . S
C2288 H2279 0.929 . S
C2288 C2280 1.378 . S
C2288 C2283 1.350 . S
C2289 H2276 0.929 . S
C2289 C2281 1.433 . S
C2289 N2291 1.384 . S
N2290 C2286 1.427 . S
N2290 C2287 1.384 . S
N2291 C2283 1.427 . S
N2291 C2289 1.384 . S
H2292 C2298 0.930 . S
H2293 C2302 0.930 . S
H2294 C2307 0.929 . S
H2295 C2305 0.929 . S
H2296 C2300 0.929 . S
H2297 C2306 0.929 . S
C2298 H2292 0.930 . S
C2298 C2299 1.367 . S
C2298 C2306 1.378 . S
C2299 C2298 1.367 . S
C2299 C2307 1.433 . S
C2300 H2296 0.929 . S
C2300 C2302 1.378 . S
C2300 C2304 1.350 . S
C2301 C2304 1.463 . S
C2301 C2306 1.350 . S
C2301 N2309 1.427 . S
C2302 H2293 0.930 . S
C2302 C2300 1.378 . S
C2302 C2303 1.367 . S
C2303 C2302 1.367 . S
C2303 C2305 1.433 . S
C2304 C2300 1.350 . S
C2304 C2301 1.463 . S
C2304 N2308 1.427 . S
C2305 H2295 0.929 . S
C2305 C2303 1.433 . S
C2305 N2308 1.384 . S
C2306 H2297 0.929 . S
C2306 C2298 1.378 . S
C2306 C2301 1.350 . S
C2307 H2294 0.929 . S
C2307 C2299 1.433 . S
C2307 N2309 1.384 . S
N2308 C2304 1.427 . S
N2308 C2305 1.384 . S
N2309 C2301 1.427 . S
N2309 C2307 1.384 . S
H2310 C2316 0.930 . S
H2311 C2320 0.930 . S
H2312 C2325 0.929 . S
H2313 C2323 0.929 . S
H2314 C2318 0.929 . S
H2315 C2324 0.929 . S
C2316 H2310 0.930 . S
C2316 C2317 1.367 . S
C2316 C2324 1.378 . S
C2317 C2316 1.367 . S
C2317 C2325 1.433 . S
C2318 H2314 0.929 . S
C2318 C2320 1.378 . S
C2318 C2322 1.350 . S
C2319 C2322 1.463 . S
C2319 C2324 1.350 . S
C2319 N2327 1.427 . S
C2320 H2311 0.930 . S
C2320 C2318 1.378 . S
C2320 C2321 1.367 . S
C2321 C2320 1.367 . S
C2321 C2323 1.433 . S
C2322 C2318 1.350 . S
C2322 C2319 1.463 . S
C2322 N2326 1.427 . S
C2323 H2313 0.929 . S
C2323 C2321 1.433 . S
C2323 N2326 1.384 . S
C2324 H2315 0.929 . S
C2324 C2316 1.378 . S
C2324 C2319 1.350 . S
C2325 H2312 0.929 . S
C2325 C2317 1.433 . S
C2325 N2327 1.384 . S
N2326 C2322 1.427 . S
N2326 C2323 1.384 . S
N2327 C2319 1.427 . S
N2327 C2325 1.384 . S
H2328 C2334 0.930 . S
H2329 C2338 0.930 . S
H2330 C2343 0.929 . S
H2331 C2341 0.929 . S
H2332 C2336 0.929 . S
H2333 C2342 0.929 . S
C2334 H2328 0.930 . S
C2334 C2335 1.367 . S
C2334 C2342 1.378 . S
C2335 C2334 1.367 . S
C2335 C2343 1.433 . S
C2336 H2332 0.929 . S
C2336 C2338 1.378 . S
C2336 C2340 1.350 . S
C2337 C2340 1.463 . S
C2337 C2342 1.350 . S
C2337 N2345 1.427 . S
C2338 H2329 0.930 . S
C2338 C2336 1.378 . S
C2338 C2339 1.367 . S
C2339 C2338 1.367 . S
C2339 C2341 1.433 . S
C2340 C2336 1.350 . S
C2340 C2337 1.463 . S
C2340 N2344 1.427 . S
C2341 H2331 0.929 . S
C2341 C2339 1.433 . S
C2341 N2344 1.384 . S
C2342 H2333 0.929 . S
C2342 C2334 1.378 . S
C2342 C2337 1.350 . S
C2343 H2330 0.929 . S
C2343 C2335 1.433 . S
C2343 N2345 1.384 . S
N2344 C2340 1.427 . S
N2344 C2341 1.384 . S
N2345 C2337 1.427 . S
N2345 C2343 1.384 . S
H2346 C2352 0.930 . S
H2347 C2356 0.930 . S
H2348 C2361 0.929 . S
H2349 C2359 0.929 . S
H2350 C2354 0.929 . S
H2351 C2360 0.929 . S
C2352 H2346 0.930 . S
C2352 C2353 1.367 . S
C2352 C2360 1.378 . S
C2353 C2352 1.367 . S
C2353 C2361 1.433 . S
C2354 H2350 0.929 . S
C2354 C2356 1.378 . S
C2354 C2358 1.350 . S
C2355 C2358 1.463 . S
C2355 C2360 1.350 . S
C2355 N2363 1.427 . S
C2356 H2347 0.930 . S
C2356 C2354 1.378 . S
C2356 C2357 1.367 . S
C2357 C2356 1.367 . S
C2357 C2359 1.433 . S
C2358 C2354 1.350 . S
C2358 C2355 1.463 . S
C2358 N2362 1.427 . S
C2359 H2349 0.929 . S
C2359 C2357 1.433 . S
C2359 N2362 1.384 . S
C2360 H2351 0.929 . S
C2360 C2352 1.378 . S
C2360 C2355 1.350 . S
C2361 H2348 0.929 . S
C2361 C2353 1.433 . S
C2361 N2363 1.384 . S
N2362 C2358 1.427 . S
N2362 C2359 1.384 . S
N2363 C2355 1.427 . S
N2363 C2361 1.384 . S
H2364 C2370 0.930 . S
H2365 C2374 0.930 . S
H2366 C2379 0.929 . S
H2367 C2377 0.929 . S
H2368 C2372 0.929 . S
H2369 C2378 0.929 . S
C2370 H2364 0.930 . S
C2370 C2371 1.367 . S
C2370 C2378 1.378 . S
C2371 C2370 1.367 . S
C2371 C2379 1.433 1_554 S
C2372 H2368 0.929 . S
C2372 C2374 1.378 . S
C2372 C2376 1.350 . S
C2373 C2376 1.463 . S
C2373 C2378 1.350 1_556 S
C2373 N2381 1.427 . S
C2374 H2365 0.930 . S
C2374 C2372 1.378 . S
C2374 C2375 1.367 . S
C2375 C2374 1.367 . S
C2375 C2377 1.433 . S
C2376 C2372 1.350 . S
C2376 C2373 1.463 . S
C2376 N2380 1.427 . S
C2377 H2367 0.929 . S
C2377 C2375 1.433 . S
C2377 N2380 1.384 . S
C2378 H2369 0.929 . S
C2378 C2370 1.378 . S
C2378 C2373 1.350 1_554 S
C2379 H2366 0.929 . S
C2379 C2371 1.433 1_556 S
C2379 N2381 1.384 . S
N2380 C2376 1.427 . S
N2380 C2377 1.384 . S
N2381 C2373 1.427 . S
N2381 C2379 1.384 . S
H2382 C2388 0.930 . S
H2383 C2392 0.930 . S
H2384 C2397 0.929 . S
H2385 C2395 0.929 . S
H2386 C2390 0.929 . S
H2387 C2396 0.929 . S
C2388 H2382 0.930 . S
C2388 C2389 1.367 . S
C2388 C2396 1.378 1_455 S
C2389 C2388 1.367 . S
C2389 C2397 1.433 . S
C2390 H2386 0.929 . S
C2390 C2392 1.378 . S
C2390 C2394 1.350 . S
C2391 C2394 1.463 . S
C2391 C2396 1.350 . S
C2391 N2399 1.427 . S
C2392 H2383 0.930 . S
C2392 C2390 1.378 . S
C2392 C2393 1.367 . S
C2393 C2392 1.367 . S
C2393 C2395 1.433 . S
C2394 C2390 1.350 . S
C2394 C2391 1.463 . S
C2394 N2398 1.427 . S
C2395 H2385 0.929 . S
C2395 C2393 1.433 . S
C2395 N2398 1.384 . S
C2396 H2387 0.929 . S
C2396 C2388 1.378 1_655 S
C2396 C2391 1.350 . S
C2397 H2384 0.929 . S
C2397 C2389 1.433 . S
C2397 N2399 1.384 1_455 S
N2398 C2394 1.427 . S
N2398 C2395 1.384 . S
N2399 C2391 1.427 . S
N2399 C2397 1.384 1_655 S
H2400 C2406 0.930 . S
H2401 C2410 0.930 . S
H2402 C2415 0.929 . S
H2403 C2413 0.929 . S
H2404 C2408 0.929 . S
H2405 C2414 0.929 . S
C2406 H2400 0.930 . S
C2406 C2407 1.367 . S
C2406 C2414 1.378 . S
C2407 C2406 1.367 . S
C2407 C2415 1.433 . S
C2408 H2404 0.929 . S
C2408 C2410 1.378 . S
C2408 C2412 1.350 . S
C2409 C2412 1.463 . S
C2409 C2414 1.350 . S
C2409 N2417 1.427 . S
C2410 H2401 0.930 . S
C2410 C2408 1.378 . S
C2410 C2411 1.367 . S
C2411 C2410 1.367 . S
C2411 C2413 1.433 . S
C2412 C2408 1.350 . S
C2412 C2409 1.463 . S
C2412 N2416 1.427 . S
C2413 H2403 0.929 . S
C2413 C2411 1.433 . S
C2413 N2416 1.384 . S
C2414 H2405 0.929 . S
C2414 C2406 1.378 . S
C2414 C2409 1.350 . S
C2415 H2402 0.929 . S
C2415 C2407 1.433 . S
C2415 N2417 1.384 . S
N2416 C2412 1.427 . S
N2416 C2413 1.384 . S
N2417 C2409 1.427 . S
N2417 C2415 1.384 . S
H2418 C2424 0.930 . S
H2419 C2428 0.930 . S
H2420 C2433 0.929 . S
H2421 C2431 0.929 . S
H2422 C2426 0.929 . S
H2423 C2432 0.929 . S
C2424 H2418 0.930 . S
C2424 C2425 1.367 . S
C2424 C2432 1.378 . S
C2425 C2424 1.367 . S
C2425 C2433 1.433 . S
C2426 H2422 0.929 . S
C2426 C2428 1.378 . S
C2426 C2430 1.350 . S
C2427 C2430 1.463 . S
C2427 C2432 1.350 . S
C2427 N2435 1.427 . S
C2428 H2419 0.930 . S
C2428 C2426 1.378 . S
C2428 C2429 1.367 . S
C2429 C2428 1.367 . S
C2429 C2431 1.433 . S
C2430 C2426 1.350 . S
C2430 C2427 1.463 . S
C2430 N2434 1.427 . S
C2431 H2421 0.929 . S
C2431 C2429 1.433 . S
C2431 N2434 1.384 . S
C2432 H2423 0.929 . S
C2432 C2424 1.378 . S
C2432 C2427 1.350 . S
C2433 H2420 0.929 . S
C2433 C2425 1.433 . S
C2433 N2435 1.384 . S
N2434 C2430 1.427 . S
N2434 C2431 1.384 . S
N2435 C2427 1.427 . S
N2435 C2433 1.384 . S
H2436 C2442 0.930 . S
H2437 C2446 0.930 . S
H2438 C2451 0.929 . S
H2439 C2449 0.929 . S
H2440 C2444 0.929 . S
H2441 C2450 0.929 . S
C2442 H2436 0.930 . S
C2442 C2443 1.367 . S
C2442 C2450 1.378 . S
C2443 C2442 1.367 . S
C2443 C2451 1.433 . S
C2444 H2440 0.929 . S
C2444 C2446 1.378 . S
C2444 C2448 1.350 . S
C2445 C2448 1.463 . S
C2445 C2450 1.350 . S
C2445 N2453 1.427 . S
C2446 H2437 0.930 . S
C2446 C2444 1.378 . S
C2446 C2447 1.367 . S
C2447 C2446 1.367 . S
C2447 C2449 1.433 . S
C2448 C2444 1.350 . S
C2448 C2445 1.463 . S
C2448 N2452 1.427 . S
C2449 H2439 0.929 . S
C2449 C2447 1.433 . S
C2449 N2452 1.384 . S
C2450 H2441 0.929 . S
C2450 C2442 1.378 . S
C2450 C2445 1.350 . S
C2451 H2438 0.929 . S
C2451 C2443 1.433 . S
C2451 N2453 1.384 . S
N2452 C2448 1.427 . S
N2452 C2449 1.384 . S
N2453 C2445 1.427 . S
N2453 C2451 1.384 . S
H2454 C2460 0.930 . S
H2455 C2464 0.930 . S
H2456 C2469 0.929 . S
H2457 C2467 0.929 . S
H2458 C2462 0.929 . S
H2459 C2468 0.929 . S
C2460 H2454 0.930 . S
C2460 C2461 1.367 . S
C2460 C2468 1.378 . S
C2461 C2460 1.367 . S
C2461 C2469 1.433 . S
C2462 H2458 0.929 . S
C2462 C2464 1.378 . S
C2462 C2466 1.350 . S
C2463 C2466 1.463 . S
C2463 C2468 1.350 . S
C2463 N2471 1.427 . S
C2464 H2455 0.930 . S
C2464 C2462 1.378 . S
C2464 C2465 1.367 . S
C2465 C2464 1.367 . S
C2465 C2467 1.433 . S
C2466 C2462 1.350 . S
C2466 C2463 1.463 . S
C2466 N2470 1.427 . S
C2467 H2457 0.929 . S
C2467 C2465 1.433 . S
C2467 N2470 1.384 . S
C2468 H2459 0.929 . S
C2468 C2460 1.378 . S
C2468 C2463 1.350 . S
C2469 H2456 0.929 . S
C2469 C2461 1.433 . S
C2469 N2471 1.384 . S
N2470 C2466 1.427 . S
N2470 C2467 1.384 . S
N2471 C2463 1.427 . S
N2471 C2469 1.384 . S
H2472 C2478 0.930 . S
H2473 C2482 0.930 . S
H2474 C2487 0.929 . S
H2475 C2485 0.929 . S
H2476 C2480 0.929 . S
H2477 C2486 0.929 . S
C2478 H2472 0.930 . S
C2478 C2479 1.367 . S
C2478 C2486 1.378 . S
C2479 C2478 1.367 . S
C2479 C2487 1.433 . S
C2480 H2476 0.929 . S
C2480 C2482 1.378 . S
C2480 C2484 1.350 . S
C2481 C2484 1.463 . S
C2481 C2486 1.350 . S
C2481 N2489 1.427 . S
C2482 H2473 0.930 . S
C2482 C2480 1.378 . S
C2482 C2483 1.367 . S
C2483 C2482 1.367 . S
C2483 C2485 1.433 . S
C2484 C2480 1.350 . S
C2484 C2481 1.463 . S
C2484 N2488 1.427 . S
C2485 H2475 0.929 . S
C2485 C2483 1.433 . S
C2485 N2488 1.384 . S
C2486 H2477 0.929 . S
C2486 C2478 1.378 . S
C2486 C2481 1.350 . S
C2487 H2474 0.929 . S
C2487 C2479 1.433 . S
C2487 N2489 1.384 . S
N2488 C2484 1.427 . S
N2488 C2485 1.384 . S
N2489 C2481 1.427 . S
N2489 C2487 1.384 . S
H2490 C2496 0.930 . S
H2491 C2500 0.930 . S
H2492 C2505 0.929 . S
H2493 C2503 0.929 . S
H2494 C2498 0.929 . S
H2495 C2504 0.929 . S
C2496 H2490 0.930 . S
C2496 C2497 1.367 . S
C2496 C2504 1.378 . S
C2497 C2496 1.367 . S
C2497 C2505 1.433 . S
C2498 H2494 0.929 . S
C2498 C2500 1.378 . S
C2498 C2502 1.350 . S
C2499 C2502 1.463 . S
C2499 C2504 1.350 . S
C2499 N2507 1.427 . S
C2500 H2491 0.930 . S
C2500 C2498 1.378 . S
C2500 C2501 1.367 . S
C2501 C2500 1.367 . S
C2501 C2503 1.433 . S
C2502 C2498 1.350 . S
C2502 C2499 1.463 . S
C2502 N2506 1.427 . S
C2503 H2493 0.929 . S
C2503 C2501 1.433 . S
C2503 N2506 1.384 . S
C2504 H2495 0.929 . S
C2504 C2496 1.378 . S
C2504 C2499 1.350 . S
C2505 H2492 0.929 . S
C2505 C2497 1.433 . S
C2505 N2507 1.384 . S
N2506 C2502 1.427 . S
N2506 C2503 1.384 . S
N2507 C2499 1.427 . S
N2507 C2505 1.384 . S
H2508 C2514 0.930 . S
H2509 C2518 0.930 . S
H2510 C2523 0.929 . S
H2511 C2521 0.929 . S
H2512 C2516 0.929 . S
H2513 C2522 0.929 . S
C2514 H2508 0.930 . S
C2514 C2515 1.367 . S
C2514 C2522 1.378 . S
C2515 C2514 1.367 . S
C2515 C2523 1.433 . S
C2516 H2512 0.929 . S
C2516 C2518 1.378 . S
C2516 C2520 1.350 . S
C2517 C2520 1.463 . S
C2517 C2522 1.350 . S
C2517 N2525 1.427 . S
C2518 H2509 0.930 . S
C2518 C2516 1.378 . S
C2518 C2519 1.367 . S
C2519 C2518 1.367 . S
C2519 C2521 1.433 . S
C2520 C2516 1.350 . S
C2520 C2517 1.463 . S
C2520 N2524 1.427 . S
C2521 H2511 0.929 . S
C2521 C2519 1.433 . S
C2521 N2524 1.384 . S
C2522 H2513 0.929 . S
C2522 C2514 1.378 . S
C2522 C2517 1.350 . S
C2523 H2510 0.929 . S
C2523 C2515 1.433 . S
C2523 N2525 1.384 . S
N2524 C2520 1.427 . S
N2524 C2521 1.384 . S
N2525 C2517 1.427 . S
N2525 C2523 1.384 . S
H2526 C2532 0.930 . S
H2527 C2536 0.930 . S
H2528 C2541 0.929 . S
H2529 C2539 0.929 . S
H2530 C2534 0.929 . S
H2531 C2540 0.929 . S
C2532 H2526 0.930 . S
C2532 C2533 1.367 . S
C2532 C2540 1.378 . S
C2533 C2532 1.367 . S
C2533 C2541 1.433 . S
C2534 H2530 0.929 . S
C2534 C2536 1.378 . S
C2534 C2538 1.350 . S
C2535 C2538 1.463 . S
C2535 C2540 1.350 . S
C2535 N2543 1.427 . S
C2536 H2527 0.930 . S
C2536 C2534 1.378 . S
C2536 C2537 1.367 . S
C2537 C2536 1.367 . S
C2537 C2539 1.433 . S
C2538 C2534 1.350 . S
C2538 C2535 1.463 . S
C2538 N2542 1.427 . S
C2539 H2529 0.929 . S
C2539 C2537 1.433 . S
C2539 N2542 1.384 . S
C2540 H2531 0.929 . S
C2540 C2532 1.378 . S
C2540 C2535 1.350 . S
C2541 H2528 0.929 . S
C2541 C2533 1.433 . S
C2541 N2543 1.384 . S
N2542 C2538 1.427 . S
N2542 C2539 1.384 . S
N2543 C2535 1.427 . S
N2543 C2541 1.384 . S
H2544 C2550 0.930 . S
H2545 C2554 0.930 . S
H2546 C2559 0.929 . S
H2547 C2557 0.929 . S
H2548 C2552 0.929 . S
H2549 C2558 0.929 . S
C2550 H2544 0.930 . S
C2550 C2551 1.367 . S
C2550 C2558 1.378 . S
C2551 C2550 1.367 . S
C2551 C2559 1.433 . S
C2552 H2548 0.929 . S
C2552 C2554 1.378 . S
C2552 C2556 1.350 . S
C2553 C2556 1.463 . S
C2553 C2558 1.350 . S
C2553 N2561 1.427 . S
C2554 H2545 0.930 . S
C2554 C2552 1.378 . S
C2554 C2555 1.367 . S
C2555 C2554 1.367 . S
C2555 C2557 1.433 . S
C2556 C2552 1.350 . S
C2556 C2553 1.463 . S
C2556 N2560 1.427 . S
C2557 H2547 0.929 . S
C2557 C2555 1.433 . S
C2557 N2560 1.384 . S
C2558 H2549 0.929 . S
C2558 C2550 1.378 . S
C2558 C2553 1.350 . S
C2559 H2546 0.929 . S
C2559 C2551 1.433 . S
C2559 N2561 1.384 . S
N2560 C2556 1.427 . S
N2560 C2557 1.384 . S
N2561 C2553 1.427 . S
N2561 C2559 1.384 . S
H2562 C2568 0.930 . S
H2563 C2572 0.930 . S
H2564 C2577 0.929 . S
H2565 C2575 0.929 . S
H2566 C2570 0.929 . S
H2567 C2576 0.929 . S
C2568 H2562 0.930 . S
C2568 C2569 1.367 . S
C2568 C2576 1.378 . S
C2569 C2568 1.367 . S
C2569 C2577 1.433 . S
C2570 H2566 0.929 . S
C2570 C2572 1.378 . S
C2570 C2574 1.350 . S
C2571 C2574 1.463 . S
C2571 C2576 1.350 . S
C2571 N2579 1.427 . S
C2572 H2563 0.930 . S
C2572 C2570 1.378 . S
C2572 C2573 1.367 . S
C2573 C2572 1.367 . S
C2573 C2575 1.433 . S
C2574 C2570 1.350 . S
C2574 C2571 1.463 . S
C2574 N2578 1.427 . S
C2575 H2565 0.929 . S
C2575 C2573 1.433 . S
C2575 N2578 1.384 . S
C2576 H2567 0.929 . S
C2576 C2568 1.378 . S
C2576 C2571 1.350 . S
C2577 H2564 0.929 . S
C2577 C2569 1.433 . S
C2577 N2579 1.384 . S
N2578 C2574 1.427 . S
N2578 C2575 1.384 . S
N2579 C2571 1.427 . S
N2579 C2577 1.384 . S
H2580 C2586 0.930 . S
H2581 C2590 0.930 . S
H2582 C2595 0.929 . S
H2583 C2593 0.929 . S
H2584 C2588 0.929 . S
H2585 C2594 0.929 . S
C2586 H2580 0.930 . S
C2586 C2587 1.367 . S
C2586 C2594 1.378 . S
C2587 C2586 1.367 . S
C2587 C2595 1.433 . S
C2588 H2584 0.929 . S
C2588 C2590 1.378 . S
C2588 C2592 1.350 . S
C2589 C2592 1.463 . S
C2589 C2594 1.350 . S
C2589 N2597 1.427 . S
C2590 H2581 0.930 . S
C2590 C2588 1.378 . S
C2590 C2591 1.367 . S
C2591 C2590 1.367 . S
C2591 C2593 1.433 . S
C2592 C2588 1.350 . S
C2592 C2589 1.463 . S
C2592 N2596 1.427 . S
C2593 H2583 0.929 . S
C2593 C2591 1.433 . S
C2593 N2596 1.384 . S
C2594 H2585 0.929 . S
C2594 C2586 1.378 . S
C2594 C2589 1.350 . S
C2595 H2582 0.929 . S
C2595 C2587 1.433 . S
C2595 N2597 1.384 . S
N2596 C2592 1.427 . S
N2596 C2593 1.384 . S
N2597 C2589 1.427 . S
N2597 C2595 1.384 . S
H2598 C2604 0.930 . S
H2599 C2608 0.930 . S
H2600 C2613 0.929 . S
H2601 C2611 0.929 . S
H2602 C2606 0.929 . S
H2603 C2612 0.929 . S
C2604 H2598 0.930 . S
C2604 C2605 1.367 . S
C2604 C2612 1.378 . S
C2605 C2604 1.367 . S
C2605 C2613 1.433 . S
C2606 H2602 0.929 . S
C2606 C2608 1.378 . S
C2606 C2610 1.350 . S
C2607 C2610 1.463 . S
C2607 C2612 1.350 . S
C2607 N2615 1.427 . S
C2608 H2599 0.930 . S
C2608 C2606 1.378 . S
C2608 C2609 1.367 . S
C2609 C2608 1.367 . S
C2609 C2611 1.433 . S
C2610 C2606 1.350 . S
C2610 C2607 1.463 . S
C2610 N2614 1.427 . S
C2611 H2601 0.929 . S
C2611 C2609 1.433 . S
C2611 N2614 1.384 . S
C2612 H2603 0.929 . S
C2612 C2604 1.378 . S
C2612 C2607 1.350 . S
C2613 H2600 0.929 . S
C2613 C2605 1.433 . S
C2613 N2615 1.384 . S
N2614 C2610 1.427 . S
N2614 C2611 1.384 . S
N2615 C2607 1.427 . S
N2615 C2613 1.384 . S
H2616 C2622 0.930 . S
H2617 C2626 0.930 . S
H2618 C2631 0.929 . S
H2619 C2629 0.929 . S
H2620 C2624 0.929 . S
H2621 C2630 0.929 . S
C2622 H2616 0.930 . S
C2622 C2623 1.367 . S
C2622 C2630 1.378 . S
C2623 C2622 1.367 . S
C2623 C2631 1.433 . S
C2624 H2620 0.929 . S
C2624 C2626 1.378 . S
C2624 C2628 1.350 . S
C2625 C2628 1.463 . S
C2625 C2630 1.350 . S
C2625 N2633 1.427 . S
C2626 H2617 0.930 . S
C2626 C2624 1.378 . S
C2626 C2627 1.367 . S
C2627 C2626 1.367 . S
C2627 C2629 1.433 . S
C2628 C2624 1.350 . S
C2628 C2625 1.463 . S
C2628 N2632 1.427 . S
C2629 H2619 0.929 . S
C2629 C2627 1.433 . S
C2629 N2632 1.384 . S
C2630 H2621 0.929 . S
C2630 C2622 1.378 . S
C2630 C2625 1.350 . S
C2631 H2618 0.929 . S
C2631 C2623 1.433 . S
C2631 N2633 1.384 . S
N2632 C2628 1.427 . S
N2632 C2629 1.384 . S
N2633 C2625 1.427 . S
N2633 C2631 1.384 . S
H2634 C2640 0.930 . S
H2635 C2644 0.930 . S
H2636 C2649 0.929 . S
H2637 C2647 0.929 . S
H2638 C2642 0.929 . S
H2639 C2648 0.929 . S
C2640 H2634 0.930 . S
C2640 C2641 1.367 . S
C2640 C2648 1.378 . S
C2641 C2640 1.367 . S
C2641 C2649 1.433 . S
C2642 H2638 0.929 . S
C2642 C2644 1.378 . S
C2642 C2646 1.350 . S
C2643 C2646 1.463 . S
C2643 C2648 1.350 . S
C2643 N2651 1.427 . S
C2644 H2635 0.930 . S
C2644 C2642 1.378 . S
C2644 C2645 1.367 . S
C2645 C2644 1.367 . S
C2645 C2647 1.433 . S
C2646 C2642 1.350 . S
C2646 C2643 1.463 . S
C2646 N2650 1.427 . S
C2647 H2637 0.929 . S
C2647 C2645 1.433 . S
C2647 N2650 1.384 . S
C2648 H2639 0.929 . S
C2648 C2640 1.378 . S
C2648 C2643 1.350 . S
C2649 H2636 0.929 . S
C2649 C2641 1.433 . S
C2649 N2651 1.384 . S
N2650 C2646 1.427 . S
N2650 C2647 1.384 . S
N2651 C2643 1.427 . S
N2651 C2649 1.384 . S
H2652 C2658 0.930 . S
H2653 C2662 0.930 . S
H2654 C2667 0.929 . S
H2655 C2665 0.929 . S
H2656 C2660 0.929 . S
H2657 C2666 0.929 . S
C2658 H2652 0.930 . S
C2658 C2659 1.367 . S
C2658 C2666 1.378 . S
C2659 C2658 1.367 . S
C2659 C2667 1.433 . S
C2660 H2656 0.929 . S
C2660 C2662 1.378 . S
C2660 C2664 1.350 . S
C2661 C2664 1.463 . S
C2661 C2666 1.350 . S
C2661 N2669 1.427 . S
C2662 H2653 0.930 . S
C2662 C2660 1.378 . S
C2662 C2663 1.367 . S
C2663 C2662 1.367 . S
C2663 C2665 1.433 . S
C2664 C2660 1.350 . S
C2664 C2661 1.463 . S
C2664 N2668 1.427 . S
C2665 H2655 0.929 . S
C2665 C2663 1.433 . S
C2665 N2668 1.384 . S
C2666 H2657 0.929 . S
C2666 C2658 1.378 . S
C2666 C2661 1.350 . S
C2667 H2654 0.929 . S
C2667 C2659 1.433 . S
C2667 N2669 1.384 . S
N2668 C2664 1.427 . S
N2668 C2665 1.384 . S
N2669 C2661 1.427 . S
N2669 C2667 1.384 . S
H2670 C2676 0.930 . S
H2671 C2680 0.930 . S
H2672 C2685 0.929 . S
H2673 C2683 0.929 . S
H2674 C2678 0.929 . S
H2675 C2684 0.929 . S
C2676 H2670 0.930 . S
C2676 C2677 1.367 . S
C2676 C2684 1.378 . S
C2677 C2676 1.367 . S
C2677 C2685 1.433 . S
C2678 H2674 0.929 . S
C2678 C2680 1.378 . S
C2678 C2682 1.350 . S
C2679 C2682 1.463 . S
C2679 C2684 1.350 . S
C2679 N2687 1.427 . S
C2680 H2671 0.930 . S
C2680 C2678 1.378 . S
C2680 C2681 1.367 . S
C2681 C2680 1.367 . S
C2681 C2683 1.433 . S
C2682 C2678 1.350 . S
C2682 C2679 1.463 . S
C2682 N2686 1.427 . S
C2683 H2673 0.929 . S
C2683 C2681 1.433 . S
C2683 N2686 1.384 . S
C2684 H2675 0.929 . S
C2684 C2676 1.378 . S
C2684 C2679 1.350 . S
C2685 H2672 0.929 . S
C2685 C2677 1.433 . S
C2685 N2687 1.384 . S
N2686 C2682 1.427 . S
N2686 C2683 1.384 . S
N2687 C2679 1.427 . S
N2687 C2685 1.384 . S
H2688 C2694 0.930 . S
H2689 C2698 0.930 . S
H2690 C2703 0.929 . S
H2691 C2701 0.929 . S
H2692 C2696 0.929 . S
H2693 C2702 0.929 . S
C2694 H2688 0.930 . S
C2694 C2695 1.367 . S
C2694 C2702 1.378 . S
C2695 C2694 1.367 . S
C2695 C2703 1.433 . S
C2696 H2692 0.929 . S
C2696 C2698 1.378 . S
C2696 C2700 1.350 . S
C2697 C2700 1.463 . S
C2697 C2702 1.350 . S
C2697 N2705 1.427 . S
C2698 H2689 0.930 . S
C2698 C2696 1.378 . S
C2698 C2699 1.367 . S
C2699 C2698 1.367 . S
C2699 C2701 1.433 . S
C2700 C2696 1.350 . S
C2700 C2697 1.463 . S
C2700 N2704 1.427 . S
C2701 H2691 0.929 . S
C2701 C2699 1.433 . S
C2701 N2704 1.384 . S
C2702 H2693 0.929 . S
C2702 C2694 1.378 . S
C2702 C2697 1.350 . S
C2703 H2690 0.929 . S
C2703 C2695 1.433 . S
C2703 N2705 1.384 . S
N2704 C2700 1.427 . S
N2704 C2701 1.384 . S
N2705 C2697 1.427 . S
N2705 C2703 1.384 . S
H2706 C2712 0.930 . S
H2707 C2716 0.930 . S
H2708 C2721 0.929 . S
H2709 C2719 0.929 . S
H2710 C2714 0.929 . S
H2711 C2720 0.929 . S
C2712 H2706 0.930 . S
C2712 C2713 1.367 . S
C2712 C2720 1.378 . S
C2713 C2712 1.367 . S
C2713 C2721 1.433 . S
C2714 H2710 0.929 . S
C2714 C2716 1.378 . S
C2714 C2718 1.350 . S
C2715 C2718 1.463 . S
C2715 C2720 1.350 . S
C2715 N2723 1.427 . S
C2716 H2707 0.930 . S
C2716 C2714 1.378 . S
C2716 C2717 1.367 . S
C2717 C2716 1.367 . S
C2717 C2719 1.433 . S
C2718 C2714 1.350 . S
C2718 C2715 1.463 . S
C2718 N2722 1.427 . S
C2719 H2709 0.929 . S
C2719 C2717 1.433 . S
C2719 N2722 1.384 . S
C2720 H2711 0.929 . S
C2720 C2712 1.378 . S
C2720 C2715 1.350 . S
C2721 H2708 0.929 . S
C2721 C2713 1.433 . S
C2721 N2723 1.384 . S
N2722 C2718 1.427 . S
N2722 C2719 1.384 . S
N2723 C2715 1.427 . S
N2723 C2721 1.384 . S
H2724 C2730 0.930 . S
H2725 C2734 0.930 . S
H2726 C2739 0.929 . S
H2727 C2737 0.929 . S
H2728 C2732 0.929 . S
H2729 C2738 0.929 . S
C2730 H2724 0.930 . S
C2730 C2731 1.367 . S
C2730 C2738 1.378 . S
C2731 C2730 1.367 . S
C2731 C2739 1.433 . S
C2732 H2728 0.929 . S
C2732 C2734 1.378 . S
C2732 C2736 1.350 . S
C2733 C2736 1.463 . S
C2733 C2738 1.350 . S
C2733 N2741 1.427 . S
C2734 H2725 0.930 . S
C2734 C2732 1.378 . S
C2734 C2735 1.367 . S
C2735 C2734 1.367 . S
C2735 C2737 1.433 . S
C2736 C2732 1.350 . S
C2736 C2733 1.463 . S
C2736 N2740 1.427 . S
C2737 H2727 0.929 . S
C2737 C2735 1.433 . S
C2737 N2740 1.384 . S
C2738 H2729 0.929 . S
C2738 C2730 1.378 . S
C2738 C2733 1.350 . S
C2739 H2726 0.929 . S
C2739 C2731 1.433 . S
C2739 N2741 1.384 . S
N2740 C2736 1.427 . S
N2740 C2737 1.384 . S
N2741 C2733 1.427 . S
N2741 C2739 1.384 . S
H2742 C2748 0.930 . S
H2743 C2752 0.930 . S
H2744 C2757 0.929 . S
H2745 C2755 0.929 . S
H2746 C2750 0.929 . S
H2747 C2756 0.929 . S
C2748 H2742 0.930 . S
C2748 C2749 1.367 . S
C2748 C2756 1.378 . S
C2749 C2748 1.367 . S
C2749 C2757 1.433 . S
C2750 H2746 0.929 . S
C2750 C2752 1.378 . S
C2750 C2754 1.350 . S
C2751 C2754 1.463 . S
C2751 C2756 1.350 . S
C2751 N2759 1.427 . S
C2752 H2743 0.930 . S
C2752 C2750 1.378 . S
C2752 C2753 1.367 . S
C2753 C2752 1.367 . S
C2753 C2755 1.433 . S
C2754 C2750 1.350 . S
C2754 C2751 1.463 . S
C2754 N2758 1.427 . S
C2755 H2745 0.929 . S
C2755 C2753 1.433 . S
C2755 N2758 1.384 . S
C2756 H2747 0.929 . S
C2756 C2748 1.378 . S
C2756 C2751 1.350 . S
C2757 H2744 0.929 . S
C2757 C2749 1.433 . S
C2757 N2759 1.384 . S
N2758 C2754 1.427 . S
N2758 C2755 1.384 . S
N2759 C2751 1.427 . S
N2759 C2757 1.384 . S
H2760 C2766 0.930 . S
H2761 C2770 0.930 . S
H2762 C2775 0.929 . S
H2763 C2773 0.929 . S
H2764 C2768 0.929 . S
H2765 C2774 0.929 . S
C2766 H2760 0.930 . S
C2766 C2767 1.367 . S
C2766 C2774 1.378 . S
C2767 C2766 1.367 . S
C2767 C2775 1.433 . S
C2768 H2764 0.929 . S
C2768 C2770 1.378 . S
C2768 C2772 1.350 . S
C2769 C2772 1.463 . S
C2769 C2774 1.350 . S
C2769 N2777 1.427 . S
C2770 H2761 0.930 . S
C2770 C2768 1.378 . S
C2770 C2771 1.367 . S
C2771 C2770 1.367 . S
C2771 C2773 1.433 . S
C2772 C2768 1.350 . S
C2772 C2769 1.463 . S
C2772 N2776 1.427 . S
C2773 H2763 0.929 . S
C2773 C2771 1.433 . S
C2773 N2776 1.384 . S
C2774 H2765 0.929 . S
C2774 C2766 1.378 . S
C2774 C2769 1.350 . S
C2775 H2762 0.929 . S
C2775 C2767 1.433 . S
C2775 N2777 1.384 . S
N2776 C2772 1.427 . S
N2776 C2773 1.384 . S
N2777 C2769 1.427 . S
N2777 C2775 1.384 . S
H2778 C2784 0.930 . S
H2779 C2788 0.930 . S
H2780 C2793 0.929 . S
H2781 C2791 0.929 . S
H2782 C2786 0.929 . S
H2783 C2792 0.929 . S
C2784 H2778 0.930 . S
C2784 C2785 1.367 . S
C2784 C2792 1.378 . S
C2785 C2784 1.367 . S
C2785 C2793 1.433 . S
C2786 H2782 0.929 . S
C2786 C2788 1.378 . S
C2786 C2790 1.350 . S
C2787 C2790 1.463 . S
C2787 C2792 1.350 . S
C2787 N2795 1.427 . S
C2788 H2779 0.930 . S
C2788 C2786 1.378 . S
C2788 C2789 1.367 . S
C2789 C2788 1.367 . S
C2789 C2791 1.433 . S
C2790 C2786 1.350 . S
C2790 C2787 1.463 . S
C2790 N2794 1.427 . S
C2791 H2781 0.929 . S
C2791 C2789 1.433 . S
C2791 N2794 1.384 . S
C2792 H2783 0.929 . S
C2792 C2784 1.378 . S
C2792 C2787 1.350 . S
C2793 H2780 0.929 . S
C2793 C2785 1.433 . S
C2793 N2795 1.384 . S
N2794 C2790 1.427 . S
N2794 C2791 1.384 . S
N2795 C2787 1.427 . S
N2795 C2793 1.384 . S
H2796 C2802 0.930 . S
H2797 C2806 0.930 . S
H2798 C2811 0.929 . S
H2799 C2809 0.929 . S
H2800 C2804 0.929 . S
H2801 C2810 0.929 . S
C2802 H2796 0.930 . S
C2802 C2803 1.367 . S
C2802 C2810 1.378 . S
C2803 C2802 1.367 . S
C2803 C2811 1.433 . S
C2804 H2800 0.929 . S
C2804 C2806 1.378 . S
C2804 C2808 1.350 . S
C2805 C2808 1.463 . S
C2805 C2810 1.350 . S
C2805 N2813 1.427 . S
C2806 H2797 0.930 . S
C2806 C2804 1.378 . S
C2806 C2807 1.367 . S
C2807 C2806 1.367 . S
C2807 C2809 1.433 . S
C2808 C2804 1.350 . S
C2808 C2805 1.463 . S
C2808 N2812 1.427 . S
C2809 H2799 0.929 . S
C2809 C2807 1.433 . S
C2809 N2812 1.384 . S
C2810 H2801 0.929 . S
C2810 C2802 1.378 . S
C2810 C2805 1.350 . S
C2811 H2798 0.929 . S
C2811 C2803 1.433 . S
C2811 N2813 1.384 . S
N2812 C2808 1.427 . S
N2812 C2809 1.384 . S
N2813 C2805 1.427 . S
N2813 C2811 1.384 . S
H2814 C2820 0.930 . S
H2815 C2824 0.930 . S
H2816 C2829 0.929 . S
H2817 C2827 0.929 . S
H2818 C2822 0.929 . S
H2819 C2828 0.929 . S
C2820 H2814 0.930 . S
C2820 C2821 1.367 . S
C2820 C2828 1.378 . S
C2821 C2820 1.367 . S
C2821 C2829 1.433 . S
C2822 H2818 0.929 . S
C2822 C2824 1.378 . S
C2822 C2826 1.350 . S
C2823 C2826 1.463 . S
C2823 C2828 1.350 . S
C2823 N2831 1.427 . S
C2824 H2815 0.930 . S
C2824 C2822 1.378 . S
C2824 C2825 1.367 . S
C2825 C2824 1.367 . S
C2825 C2827 1.433 . S
C2826 C2822 1.350 . S
C2826 C2823 1.463 . S
C2826 N2830 1.427 . S
C2827 H2817 0.929 . S
C2827 C2825 1.433 . S
C2827 N2830 1.384 . S
C2828 H2819 0.929 . S
C2828 C2820 1.378 . S
C2828 C2823 1.350 . S
C2829 H2816 0.929 . S
C2829 C2821 1.433 . S
C2829 N2831 1.384 . S
N2830 C2826 1.427 . S
N2830 C2827 1.384 . S
N2831 C2823 1.427 . S
N2831 C2829 1.384 . S
C1111 N219 2.154 . S
C1115 N12 2.162 . S
C1129 N242 2.159 . S
C1133 N35 2.153 1_455 S
C1147 N265 2.162 1_556 S
C1151 N58 2.155 . S
C1165 N196 2.163 . S
C1169 N81 2.156 . S
C1183 N104 2.159 . S
C1187 N357 2.153 1_554 S
C1201 N127 2.156 . S
C1205 N288 2.153 . S
C1219 N150 2.154 . S
C1223 N311 2.161 . S
C1237 N334 2.163 . S
C1241 N173 2.157 1_455 S
C1255 N380 2.158 . S
C1259 N426 2.163 . S
C1273 N403 2.163 . S
C1277 N1070 2.156 1_545 S
C1291 N449 2.160 . S
C1295 N1093 2.162 1_565 S
C1309 N472 2.162 1_545 S
C1313 N1047 2.161 . S
C1327 N495 2.157 . S
C1331 N1024 2.153 . S
C1345 N955 2.157 . S
C1349 N518 2.163 . S
C1363 N541 2.158 . S
C1367 N1001 2.153 . S
C1381 N771 2.163 1_556 S
C1385 N564 2.157 . S
C1399 N794 2.154 . S
C1403 N587 2.154 . S
C1417 N817 2.154 . S
C1421 N610 2.161 . S
C1435 N748 2.161 . S
C1439 N633 2.162 1_655 S
C1453 N909 2.153 . S
C1457 N656 2.156 . S
C1471 N840 2.154 . S
C1475 N679 2.155 1_655 S
C1489 N702 2.153 . S
C1493 N863 2.160 1_554 S
C1507 N725 2.156 . S
C1511 N886 2.163 . S
C1525 N932 2.156 . S
C1529 N978 2.153 1_565 S
C1543 C384 1.045 . S
C1547 N2 1.044 . S
C1561 C1097 1.050 . S
C1565 N25 1.050 . S
C1579 N48 1.042 . S
C1583 C499 1.055 . S
C1597 C1074 1.059 . S
C1601 N71 1.049 . S
C1615 N94 1.036 . S
C1619 C959 1.042 . S
C1633 C982 1.048 . S
C1637 N117 1.048 . S
C1651 N140 1.035 . S
C1655 C1005 1.042 . S
C1669 C476 1.052 . S
C1673 N163 1.052 . S
C1687 N186 1.054 . S
C1691 C16 1.055 . S
C1705 C39 1.058 . S
C1709 N209 1.047 . S
C1723 N232 1.049 . S
C1727 C62 1.059 . S
C1741 C85 1.043 . S
C1745 N255 1.035 . S
C1759 N278 1.055 . S
C1763 C108 1.058 . S
C1777 C131 1.048 . S
C1781 N301 1.049 . S
C1795 N324 1.040 . S
C1799 C154 1.042 . S
C1813 N347 1.051 . S
C1817 C177 1.051 . S
C1831 N370 1.051 . S
C1835 C200 1.060 . S
C1849 N393 1.052 . S
C1853 C844 1.052 . S
C1867 C867 1.046 . S
C1871 N416 1.046 . S
C1885 C890 1.060 . S
C1889 N439 1.053 . S
C1903 C361 1.055 . S
C1907 N462 1.054 . S
C1921 N485 1.038 . S
C1925 C246 1.051 . S
C1939 C821 1.044 . S
C1943 N508 1.035 . S
C1957 N531 1.053 . S
C1961 C775 1.060 . S
C1975 N554 1.038 . S
C1979 C936 1.042 . S
C1993 N577 1.035 . S
C1997 C545 1.043 . S
C2011 N600 1.055 . S
C2015 C1051 1.059 . S
C2029 N623 1.035 . S
C2033 C522 1.045 . S
C2047 N646 1.052 . S
C2051 C407 1.052 . S
C2065 N669 1.036 . S
C2069 C430 1.047 . S
C2083 C453 1.059 . S
C2087 N692 1.050 . S
C2101 C1028 1.059 . S
C2105 N715 1.055 . S
C2119 C568 1.060 . S
C2123 N738 1.052 . S
C2137 C591 1.048 . S
C2141 N761 1.048 . S
C2155 N784 1.037 . S
C2159 C614 1.042 . S
C2173 C637 1.048 . S
C2177 N807 1.049 . S
C2191 N830 1.038 . S
C2195 C660 1.051 . S
C2209 N853 1.041 . S
C2213 C683 1.043 . S
C2227 N876 1.042 . S
C2231 C706 1.054 . S
C2245 C729 1.044 . S
C2249 N899 1.043 . S
C2263 N922 1.040 . S
C2267 C752 1.043 . S
C2281 N945 1.037 . S
C2285 C292 1.049 . S
C2299 C315 1.057 . S
C2303 N968 1.055 . S
C2317 N991 1.040 . S
C2321 C338 1.042 . S
C2335 N1014 1.054 . S
C2339 C913 1.060 . S
C2353 C798 1.060 . S
C2357 N1037 1.054 . S
C2371 C269 1.046 . S
C2375 N1060 1.035 . S
C2389 C223 1.054 . S
C2393 N1083 1.042 . S
C2407 C513 1.406 . S
C2411 C7 1.403 . S
C2425 C30 1.392 . S
C2429 C927 1.390 . S
C2443 C53 1.398 . S
C2447 C536 1.393 . S
C2461 C1042 1.390 . S
C2465 C76 1.390 . S
C2479 C99 1.402 . S
C2483 C421 1.397 . S
C2497 C444 1.391 . S
C2501 C122 1.390 . S
C2515 C1019 1.390 . S
C2519 C145 1.391 . S
C2533 C168 1.394 . S
C2537 C398 1.391 . S
C2551 C306 1.406 . S
C2555 C191 1.407 . S
C2569 C214 1.397 . S
C2573 C329 1.393 . S
C2587 C352 1.400 . S
C2591 C237 1.395 . S
C2605 C260 1.402 . S
C2609 C283 1.406 . S
C2623 C582 1.406 . S
C2627 C375 1.407 . S
C2641 C467 1.390 . S
C2645 C697 1.390 . S
C2659 C490 1.397 . S
C2663 C628 1.402 . S
C2677 C1065 1.392 . S
C2681 C559 1.395 . S
C2695 C605 1.398 . S
C2699 C1088 1.393 . S
C2713 C651 1.393 . S
C2717 C973 1.397 . S
C2731 C674 1.390 . S
C2735 C996 1.391 . S
C2749 C950 1.404 . S
C2753 C720 1.400 . S
C2767 C858 1.398 . S
C2771 C743 1.394 . S
C2785 C766 1.399 . S
C2789 C881 1.403 . S
C2803 C789 1.407 . S
C2807 C904 1.405 . S
C2821 C835 1.393 . S
C2825 C812 1.390 . S
