# Generated by pormake.
# Topology yfj, (5)-cn, num edge types: 1
# Building blocks:
#     Node 0, Type 0, BuildingBlock: XOMCOT_clean_sbu_0, # of connection points: 5
#     Node 1, Type 0, BuildingBlock: XOMCOT_clean_sbu_0, # of connection points: 5
#     Node 2, Type 0, BuildingBlock: XOMCOT_clean_sbu_0, # of connection points: 5
#     Node 3, Type 0, BuildingBlock: XOMCOT_clean_sbu_0, # of connection points: 5
#     Node 4, Type 0, BuildingBlock: XOMCOT_clean_sbu_0, # of connection points: 5
#     Node 5, Type 0, BuildingBlock: XOMCOT_clean_sbu_0, # of connection points: 5
#     Node 6, Type 0, BuildingBlock: XOMCOT_clean_sbu_0, # of connection points: 5
#     Node 7, Type 0, BuildingBlock: XOMCOT_clean_sbu_0, # of connection points: 5
#     Node 8, Type 0, BuildingBlock: XOMCOT_clean_sbu_0, # of connection points: 5
#     Node 9, Type 0, BuildingBlock: XOMCOT_clean_sbu_0, # of connection points: 5
#     Node 10, Type 0, BuildingBlock: XOMCOT_clean_sbu_0, # of connection points: 5
#     Node 11, Type 0, BuildingBlock: XOMCOT_clean_sbu_0, # of connection points: 5
#     Node 12, Type 0, BuildingBlock: XOMCOT_clean_sbu_0, # of connection points: 5
#     Node 13, Type 0, BuildingBlock: XOMCOT_clean_sbu_0, # of connection points: 5
#     Node 14, Type 0, BuildingBlock: XOMCOT_clean_sbu_0, # of connection points: 5
#     Node 15, Type 0, BuildingBlock: XOMCOT_clean_sbu_0, # of connection points: 5
#     Edge 16, Type (0, 0), BuildingBlock: ZUJKAS_clean_linker_0, # of connection points: 2
#     Edge 17, Type (0, 0), BuildingBlock: ZUJKAS_clean_linker_0, # of connection points: 2
#     Edge 18, Type (0, 0), BuildingBlock: ZUJKAS_clean_linker_0, # of connection points: 2
#     Edge 19, Type (0, 0), BuildingBlock: ZUJKAS_clean_linker_0, # of connection points: 2
#     Edge 20, Type (0, 0), BuildingBlock: ZUJKAS_clean_linker_0, # of connection points: 2
#     Edge 21, Type (0, 0), BuildingBlock: ZUJKAS_clean_linker_0, # of connection points: 2
#     Edge 22, Type (0, 0), BuildingBlock: ZUJKAS_clean_linker_0, # of connection points: 2
#     Edge 23, Type (0, 0), BuildingBlock: ZUJKAS_clean_linker_0, # of connection points: 2
#     Edge 24, Type (0, 0), BuildingBlock: ZUJKAS_clean_linker_0, # of connection points: 2
#     Edge 25, Type (0, 0), BuildingBlock: ZUJKAS_clean_linker_0, # of connection points: 2
#     Edge 26, Type (0, 0), BuildingBlock: ZUJKAS_clean_linker_0, # of connection points: 2
#     Edge 27, Type (0, 0), BuildingBlock: ZUJKAS_clean_linker_0, # of connection points: 2
#     Edge 28, Type (0, 0), BuildingBlock: ZUJKAS_clean_linker_0, # of connection points: 2
#     Edge 29, Type (0, 0), BuildingBlock: ZUJKAS_clean_linker_0, # of connection points: 2
#     Edge 30, Type (0, 0), BuildingBlock: ZUJKAS_clean_linker_0, # of connection points: 2
#     Edge 31, Type (0, 0), BuildingBlock: ZUJKAS_clean_linker_0, # of connection points: 2
#     Edge 32, Type (0, 0), BuildingBlock: ZUJKAS_clean_linker_0, # of connection points: 2
#     Edge 33, Type (0, 0), BuildingBlock: ZUJKAS_clean_linker_0, # of connection points: 2
#     Edge 34, Type (0, 0), BuildingBlock: ZUJKAS_clean_linker_0, # of connection points: 2
#     Edge 35, Type (0, 0), BuildingBlock: ZUJKAS_clean_linker_0, # of connection points: 2
#     Edge 36, Type (0, 0), BuildingBlock: ZUJKAS_clean_linker_0, # of connection points: 2
#     Edge 37, Type (0, 0), BuildingBlock: ZUJKAS_clean_linker_0, # of connection points: 2
#     Edge 38, Type (0, 0), BuildingBlock: ZUJKAS_clean_linker_0, # of connection points: 2
#     Edge 39, Type (0, 0), BuildingBlock: ZUJKAS_clean_linker_0, # of connection points: 2
#     Edge 40, Type (0, 0), BuildingBlock: ZUJKAS_clean_linker_0, # of connection points: 2
#     Edge 41, Type (0, 0), BuildingBlock: ZUJKAS_clean_linker_0, # of connection points: 2
#     Edge 42, Type (0, 0), BuildingBlock: ZUJKAS_clean_linker_0, # of connection points: 2
#     Edge 43, Type (0, 0), BuildingBlock: ZUJKAS_clean_linker_0, # of connection points: 2
#     Edge 44, Type (0, 0), BuildingBlock: ZUJKAS_clean_linker_0, # of connection points: 2
#     Edge 45, Type (0, 0), BuildingBlock: ZUJKAS_clean_linker_0, # of connection points: 2
#     Edge 46, Type (0, 0), BuildingBlock: ZUJKAS_clean_linker_0, # of connection points: 2
#     Edge 47, Type (0, 0), BuildingBlock: ZUJKAS_clean_linker_0, # of connection points: 2
#     Edge 48, Type (0, 0), BuildingBlock: ZUJKAS_clean_linker_0, # of connection points: 2
#     Edge 49, Type (0, 0), BuildingBlock: ZUJKAS_clean_linker_0, # of connection points: 2
#     Edge 50, Type (0, 0), BuildingBlock: ZUJKAS_clean_linker_0, # of connection points: 2
#     Edge 51, Type (0, 0), BuildingBlock: ZUJKAS_clean_linker_0, # of connection points: 2
#     Edge 52, Type (0, 0), BuildingBlock: ZUJKAS_clean_linker_0, # of connection points: 2
#     Edge 53, Type (0, 0), BuildingBlock: ZUJKAS_clean_linker_0, # of connection points: 2
#     Edge 54, Type (0, 0), BuildingBlock: ZUJKAS_clean_linker_0, # of connection points: 2
#     Edge 55, Type (0, 0), BuildingBlock: ZUJKAS_clean_linker_0, # of connection points: 2
# Relax obj value: 0.404
# Max RMSD: 0.236
# Mean RMSD: 0.236
data_MOF--net-yfj--node1-XOMCOT_clean_sbu_0--edge1-ZUJKAS_clean_linker_0
_symmetry_space_group_name_H-M    P1
_symmetry_Int_Tables_number       1
_symmetry_cell_setting            triclinic
loop_
_symmetry_equiv_pos_as_xyz
'x, y, z'
_cell_length_a     60.146088
_cell_length_b     60.167129
_cell_length_c     60.337888
_cell_angle_alpha  90.033946
_cell_angle_beta   89.944627
_cell_angle_gamma 90.022614
loop_
_atom_site_label
_atom_site_type_symbol
_atom_site_fract_x
_atom_site_fract_y
_atom_site_fract_z
_atom_type_partial_charge
Co0 Co 0.13616 0.14327 0.33294 0.0
C1 C 0.16363 0.14734 0.29181 0.0
C2 C 0.13897 0.17293 0.29379 0.0
C3 C 0.15035 0.17508 0.27398 0.0
N4 N 0.14733 0.15554 0.30505 0.0
N5 N 0.16588 0.1589 0.27268 0.0
H6 H 0.17354 0.13298 0.2959 0.0
H7 H 0.12511 0.18299 0.29926 0.0
C8 C 0.115 0.18078 0.35981 0.0
O9 O 0.10184 0.16652 0.36974 0.0
N10 N 0.12577 0.13028 0.36053 0.0
C11 C 0.11196 0.1128 0.36307 0.0
C12 C 0.11045 0.10779 0.38529 0.0
C13 C 0.13334 0.13489 0.38111 0.0
N14 N 0.12384 0.12176 0.39659 0.0
C15 C 0.11001 0.1204 0.30175 0.0
C16 C 0.06904 0.12778 0.32091 0.0
C17 C 0.0716 0.10959 0.30652 0.0
C18 C 0.09206 0.10699 0.29577 0.0
C19 C 0.08747 0.14112 0.32613 0.0
N20 N 0.1081 0.13594 0.31816 0.0
H21 H 0.12607 0.11671 0.29465 0.0
H22 H 0.08513 0.15442 0.33763 0.0
H23 H 0.10393 0.1039 0.34973 0.0
H24 H 0.14509 0.14803 0.38469 0.0
O25 O 0.15084 0.11534 0.32728 0.0
O26 O 0.16575 0.14401 0.34508 0.0
O27 O 0.12716 0.17463 0.3433 0.0
C28 C 0.16752 0.12355 0.33822 0.0
H29 H 0.14687 0.18725 0.26126 0.0
H30 H 0.1006 0.09458 0.3925 0.0
H31 H 0.05325 0.13094 0.32896 0.0
H32 H 0.09486 0.09341 0.28431 0.0
Co33 Co 0.86498 0.63828 0.57883 0.0
C34 C 0.86077 0.66696 0.53848 0.0
C35 C 0.8336 0.64411 0.5415 0.0
C36 C 0.83099 0.65618 0.52221 0.0
N37 N 0.85224 0.65091 0.55181 0.0
N38 N 0.84813 0.67058 0.52025 0.0
H39 H 0.87604 0.67575 0.54187 0.0
H40 H 0.82289 0.63088 0.54727 0.0
C41 C 0.82729 0.61802 0.6061 0.0
O42 O 0.84116 0.60398 0.61531 0.0
N43 N 0.87842 0.62633 0.60559 0.0
C44 C 0.89525 0.6116 0.60684 0.0
C45 C 0.901 0.60885 0.62874 0.0
C46 C 0.87493 0.63314 0.62668 0.0
N47 N 0.88812 0.6223 0.64124 0.0
C48 C 0.88534 0.61212 0.54598 0.0
C49 C 0.87557 0.57079 0.56314 0.0
C50 C 0.89336 0.57281 0.54814 0.0
C51 C 0.89715 0.59365 0.53853 0.0
C52 C 0.86395 0.58984 0.57002 0.0
N53 N 0.87029 0.61043 0.56286 0.0
H54 H 0.88987 0.62822 0.53951 0.0
H55 H 0.85098 0.58784 0.58196 0.0
H56 H 0.90321 0.60372 0.59282 0.0
H57 H 0.8625 0.64531 0.63127 0.0
O58 O 0.89342 0.6517 0.57259 0.0
O59 O 0.86618 0.6675 0.59187 0.0
O60 O 0.83363 0.63045 0.58991 0.0
C61 C 0.88642 0.66845 0.58422 0.0
H62 H 0.81778 0.65397 0.51025 0.0
H63 H 0.91399 0.59808 0.63492 0.0
H64 H 0.87139 0.55485 0.57034 0.0
H65 H 0.91048 0.59621 0.52673 0.0
Co66 Co 0.37002 0.3734 0.83624 0.0
C67 C 0.34283 0.36623 0.79519 0.0
C68 C 0.36762 0.34101 0.79944 0.0
C69 C 0.356 0.33672 0.78019 0.0
N70 N 0.35934 0.3595 0.80895 0.0
N71 N 0.34037 0.3526 0.77748 0.0
H72 H 0.33271 0.38078 0.798 0.0
H73 H 0.3814 0.33146 0.80588 0.0
C74 C 0.38726 0.33575 0.86588 0.0
O75 O 0.39997 0.34955 0.87693 0.0
N76 N 0.37992 0.38789 0.86337 0.0
C77 C 0.39314 0.40592 0.86469 0.0
C78 C 0.39403 0.41288 0.88638 0.0
C79 C 0.372 0.3849 0.88418 0.0
N80 N 0.38089 0.39955 0.89875 0.0
C81 C 0.39909 0.39077 0.8041 0.0
C82 C 0.43786 0.38642 0.82806 0.0
C83 C 0.43682 0.40257 0.8113 0.0
C84 C 0.41761 0.40345 0.79823 0.0
C85 C 0.41892 0.3738 0.8332 0.0
N86 N 0.39925 0.37763 0.82257 0.0
H87 H 0.38375 0.39359 0.79525 0.0
H88 H 0.41983 0.36278 0.84703 0.0
H89 H 0.40105 0.41398 0.85075 0.0
H90 H 0.3603 0.37196 0.88852 0.0
O91 O 0.35795 0.40169 0.82754 0.0
O92 O 0.33984 0.37587 0.84678 0.0
O93 O 0.37638 0.34234 0.84876 0.0
C94 C 0.34017 0.39576 0.83821 0.0
H95 H 0.35921 0.32316 0.76883 0.0
H96 H 0.40327 0.42708 0.8924 0.0
H97 H 0.45265 0.38463 0.83812 0.0
H98 H 0.41599 0.41546 0.78498 0.0
Co99 Co 0.63835 0.87476 0.08159 0.0
C100 C 0.64278 0.84689 0.04068 0.0
C101 C 0.66736 0.87264 0.04196 0.0
C102 C 0.66993 0.86094 0.02241 0.0
N103 N 0.65035 0.86381 0.0535 0.0
N104 N 0.65441 0.84472 0.02156 0.0
H105 H 0.62893 0.8364 0.04511 0.0
H106 H 0.67695 0.88694 0.04714 0.0
C107 C 0.67648 0.89587 0.10764 0.0
O108 O 0.66258 0.90903 0.11804 0.0
N109 N 0.62583 0.88491 0.10952 0.0
C110 C 0.60798 0.89811 0.11251 0.0
C111 C 0.60362 0.89966 0.13488 0.0
C112 C 0.63137 0.87776 0.13001 0.0
N113 N 0.61846 0.88697 0.14589 0.0
C114 C 0.61553 0.90085 0.05038 0.0
C115 C 0.62171 0.9417 0.07015 0.0
C116 C 0.60392 0.93896 0.05535 0.0
C117 C 0.60192 0.91859 0.04433 0.0
C118 C 0.63527 0.92349 0.07545 0.0
N119 N 0.63073 0.90287 0.06708 0.0
H120 H 0.61223 0.88478 0.0431 0.0
H121 H 0.64814 0.92595 0.08735 0.0
H122 H 0.59853 0.90585 0.09939 0.0
H123 H 0.64476 0.86618 0.13317 0.0
O124 O 0.61034 0.86017 0.07622 0.0
O125 O 0.63924 0.84505 0.09348 0.0
O126 O 0.66983 0.88374 0.09134 0.0
C127 C 0.61869 0.84339 0.08687 0.0
H128 H 0.68197 0.86457 1.00958 0.0
H129 H 0.59068 0.90962 0.1424 0.0
H130 H 0.62435 0.95743 0.07848 0.0
H131 H 0.58862 0.91567 0.03259 0.0
Co132 Co 0.14466 0.37304 0.93815 0.0
C133 C 0.17234 0.36452 0.97855 0.0
C134 C 0.1473 0.33959 0.97397 0.0
C135 C 0.1591 0.33476 0.99299 0.0
N136 N 0.15562 0.35824 0.96483 0.0
N137 N 0.17486 0.35048 0.99591 0.0
H138 H 0.18252 0.37908 0.97603 0.0
H139 H 0.13334 0.33031 0.96749 0.0
C140 C 0.12562 0.33651 0.90822 0.0
O141 O 0.11278 0.35085 0.89807 0.0
N142 N 0.13459 0.38834 0.91154 0.0
C143 C 0.12217 0.40696 0.91078 0.0
C144 C 0.12093 0.41413 0.88917 0.0
C145 C 0.14178 0.38522 0.8905 0.0
N146 N 0.13311 0.40035 0.87632 0.0
C147 C 0.1171 0.38969 0.97189 0.0
C148 C 0.07784 0.38937 0.94832 0.0
C149 C 0.08029 0.40454 0.96584 0.0
C150 C 0.09956 0.40317 0.97876 0.0
C151 C 0.09583 0.37584 0.94216 0.0
N152 N 0.11588 0.37775 0.95265 0.0
H153 H 0.13268 0.39107 0.98066 0.0
H154 H 0.09406 0.36596 0.92757 0.0
H155 H 0.11506 0.41522 0.92503 0.0
H156 H 0.15278 0.37183 0.88569 0.0
O157 O 0.15758 0.40081 0.94726 0.0
O158 O 0.17465 0.37505 0.92699 0.0
O159 O 0.13721 0.34244 0.92511 0.0
C160 C 0.17499 0.39475 0.93605 0.0
H161 H 0.15589 0.32099 1.00407 0.0
H162 H 0.11212 0.42873 0.8835 0.0
H163 H 0.06306 0.38946 0.93808 0.0
H164 H 0.1019 0.41391 0.99298 0.0
Co165 Co 0.64629 0.63919 0.19621 0.0
C166 C 0.65001 0.6666 0.23741 0.0
C167 C 0.67906 0.64668 0.23222 0.0
C168 C 0.68181 0.65893 0.25139 0.0
N169 N 0.65913 0.65156 0.22332 0.0
N170 N 0.6635 0.67152 0.25472 0.0
H171 H 0.6336 0.67353 0.23528 0.0
H172 H 0.69085 0.63498 0.22536 0.0
C173 C 0.68369 0.6187 0.16877 0.0
O174 O 0.66967 0.60476 0.15956 0.0
N175 N 0.63284 0.62761 0.16929 0.0
C176 C 0.616 0.61293 0.16767 0.0
C177 C 0.61042 0.61055 0.14566 0.0
C178 C 0.63659 0.63467 0.14834 0.0
N179 N 0.62347 0.62414 0.13347 0.0
C180 C 0.62552 0.61285 0.22864 0.0
C181 C 0.63567 0.57159 0.21153 0.0
C182 C 0.61775 0.5735 0.22638 0.0
C183 C 0.61375 0.59432 0.23598 0.0
C184 C 0.64727 0.5907 0.2048 0.0
N185 N 0.64074 0.61126 0.21191 0.0
H186 H 0.62085 0.62891 0.23513 0.0
H187 H 0.66045 0.58876 0.1931 0.0
H188 H 0.60807 0.60467 0.18148 0.0
H189 H 0.64886 0.64714 0.14413 0.0
O190 O 0.61797 0.6528 0.20252 0.0
O191 O 0.64539 0.66856 0.18349 0.0
O192 O 0.67752 0.63114 0.18502 0.0
C193 C 0.62518 0.66966 0.19119 0.0
H194 H 0.69639 0.65864 0.26187 0.0
H195 H 0.5979 0.5994 0.13918 0.0
H196 H 0.63999 0.55567 0.20436 0.0
H197 H 0.6003 0.59678 0.24767 0.0
Co198 Co 0.37772 0.14293 0.44157 0.0
C199 C 0.35012 0.14627 0.48261 0.0
C200 C 0.37403 0.1726 0.48069 0.0
C201 C 0.36258 0.1744 0.5005 0.0
N202 N 0.36617 0.15496 0.46939 0.0
N203 N 0.34756 0.15773 0.50176 0.0
H204 H 0.34063 0.13161 0.47851 0.0
H205 H 0.3876 0.18305 0.47526 0.0
C206 C 0.39871 0.18078 0.41512 0.0
O207 O 0.41203 0.16674 0.40509 0.0
N208 N 0.38851 0.13014 0.41403 0.0
C209 C 0.40222 0.11258 0.41164 0.0
C210 C 0.40373 0.10736 0.38948 0.0
C211 C 0.38104 0.13463 0.39339 0.0
N212 N 0.39046 0.1213 0.37801 0.0
C213 C 0.40369 0.12032 0.47303 0.0
C214 C 0.4448 0.12795 0.45425 0.0
C215 C 0.44221 0.10983 0.4687 0.0
C216 C 0.42166 0.10711 0.47926 0.0
C217 C 0.42632 0.14109 0.44877 0.0
N218 N 0.40566 0.1358 0.45659 0.0
H219 H 0.38757 0.11648 0.47994 0.0
H220 H 0.42865 0.15427 0.43715 0.0
H221 H 0.41007 0.10367 0.42507 0.0
H222 H 0.36927 0.14773 0.38973 0.0
O223 O 0.36318 0.11485 0.44687 0.0
O224 O 0.34828 0.14353 0.42913 0.0
O225 O 0.38659 0.17438 0.43155 0.0
C226 C 0.34656 0.12302 0.43582 0.0
H227 H 0.36568 0.18664 0.51327 0.0
H228 H 0.4134 0.09393 0.38243 0.0
H229 H 0.46063 0.13116 0.44631 0.0
H230 H 0.41884 0.09355 0.49072 0.0
Co231 Co 0.87373 0.87383 0.69436 0.0
C232 C 0.86838 0.84557 0.73484 0.0
C233 C 0.84452 0.87199 0.73386 0.0
C234 C 0.84174 0.86027 0.75336 0.0
N235 N 0.86125 0.86277 0.72219 0.0
N236 N 0.85683 0.84366 0.75403 0.0
H237 H 0.88197 0.83478 0.73033 0.0
H238 H 0.83539 0.88663 0.72888 0.0
C239 C 0.83591 0.89616 0.66883 0.0
O240 O 0.8499 0.9094 0.65866 0.0
N241 N 0.88656 0.88399 0.66658 0.0
C242 C 0.90541 0.89577 0.66375 0.0
C243 C 0.90983 0.89736 0.6414 0.0
C244 C 0.88048 0.87759 0.64598 0.0
N245 N 0.89404 0.88602 0.63021 0.0
C246 C 0.89597 0.89847 0.727 0.0
C247 C 0.89544 0.93918 0.70602 0.0
C248 C 0.91213 0.93481 0.72166 0.0
C249 C 0.91108 0.9148 0.73339 0.0
C250 C 0.88033 0.92231 0.70026 0.0
N251 N 0.88211 0.90155 0.70933 0.0
H252 H 0.89738 0.88234 0.73467 0.0
H253 H 0.86903 0.92558 0.68705 0.0
H254 H 0.91558 0.90236 0.67699 0.0
H255 H 0.86638 0.86691 0.64271 0.0
O256 O 0.90136 0.85863 0.69973 0.0
O257 O 0.87227 0.84429 0.68207 0.0
O258 O 0.8425 0.88359 0.68477 0.0
C259 C 0.89275 0.84215 0.68881 0.0
H260 H 0.82995 0.86422 0.76633 0.0
H261 H 0.92358 0.90631 0.63404 0.0
H262 H 0.89531 0.95464 0.69685 0.0
H263 H 0.92313 0.91098 0.74617 0.0
Co264 Co 0.63205 0.63822 0.83237 0.0
C265 C 0.65874 0.64385 0.79078 0.0
C266 C 0.63333 0.66863 0.79386 0.0
C267 C 0.64452 0.67192 0.77413 0.0
N268 N 0.64229 0.65107 0.80441 0.0
N269 N 0.66053 0.65629 0.77214 0.0
H270 H 0.6692 0.62971 0.7943 0.0
H271 H 0.6193 0.67814 0.79985 0.0
C272 C 0.61002 0.67487 0.85955 0.0
O273 O 0.59701 0.66036 0.86934 0.0
N274 N 0.62252 0.62481 0.8601 0.0
C275 C 0.60947 0.60679 0.86271 0.0
C276 C 0.60785 0.60203 0.88497 0.0
C277 C 0.62957 0.63005 0.88074 0.0
N278 N 0.62036 0.61678 0.89633 0.0
C279 C 0.60627 0.61411 0.80179 0.0
C280 C 0.56524 0.62094 0.82103 0.0
C281 C 0.56814 0.60251 0.80701 0.0
C282 C 0.58861 0.60017 0.79619 0.0
C283 C 0.58339 0.63476 0.82592 0.0
N284 N 0.6041 0.62987 0.81796 0.0
H285 H 0.62236 0.61074 0.79459 0.0
H286 H 0.58079 0.64833 0.83702 0.0
H287 H 0.60188 0.59747 0.84939 0.0
H288 H 0.64055 0.64385 0.88426 0.0
O289 O 0.64776 0.61092 0.82641 0.0
O290 O 0.66173 0.64013 0.84411 0.0
O291 O 0.6221 0.6691 0.84289 0.0
C292 C 0.66424 0.61979 0.83715 0.0
H293 H 0.64069 0.68454 0.76196 0.0
H294 H 0.5984 0.58854 0.89217 0.0
H295 H 0.5494 0.62397 0.82903 0.0
H296 H 0.59167 0.58644 0.78497 0.0
Co297 Co 0.36404 0.1298 0.0777 0.0
C298 C 0.35862 0.15522 0.03562 0.0
C299 C 0.33329 0.13043 0.0391 0.0
C300 C 0.33015 0.14153 0.01926 0.0
N301 N 0.35112 0.13912 0.04946 0.0
N302 N 0.34616 0.15714 0.01707 0.0
H303 H 0.37294 0.16548 0.03897 0.0
H304 H 0.32339 0.11679 0.04533 0.0
C305 C 0.32839 0.10684 0.10521 0.0
O306 O 0.34329 0.09426 0.11491 0.0
N307 N 0.37763 0.12129 0.10559 0.0
C308 C 0.39617 0.10904 0.10839 0.0
C309 C 0.40109 0.10818 0.13064 0.0
C310 C 0.37211 0.12853 0.12609 0.0
N311 N 0.38587 0.12034 0.14178 0.0
C312 C 0.38998 0.10474 0.04792 0.0
C313 C 0.38362 0.06349 0.06678 0.0
C314 C 0.40215 0.06682 0.05299 0.0
C315 C 0.40434 0.08739 0.0424 0.0
C316 C 0.36933 0.08132 0.07153 0.0
N317 N 0.37391 0.10214 0.06372 0.0
H318 H 0.39313 0.12092 0.04083 0.0
H319 H 0.35557 0.07839 0.08234 0.0
H320 H 0.40569 0.10144 0.09522 0.0
H321 H 0.35817 0.1394 0.12939 0.0
O322 O 0.39054 0.14698 0.07193 0.0
O323 O 0.36021 0.15942 0.08896 0.0
O324 O 0.3336 0.11851 0.08809 0.0
C325 C 0.3803 0.16318 0.08188 0.0
H326 H 0.31728 0.13802 1.00723 0.0
H327 H 0.41466 0.09901 0.138 0.0
H328 H 0.38078 0.04755 0.07463 0.0
H329 H 0.41816 0.09073 0.03138 0.0
Co330 Co 0.87518 0.87557 0.32966 0.0
C331 C 0.84882 0.87046 0.28786 0.0
C332 C 0.87384 0.84531 0.29098 0.0
C333 C 0.86264 0.84215 0.27125 0.0
N334 N 0.86513 0.86303 0.3015 0.0
N335 N 0.84688 0.85801 0.26925 0.0
H336 H 0.83851 0.88472 0.29138 0.0
H337 H 0.88765 0.83554 0.29703 0.0
C338 C 0.89528 0.83791 0.35716 0.0
O339 O 0.90833 0.8519 0.36758 0.0
N340 N 0.88445 0.88859 0.35765 0.0
C341 C 0.89763 0.90644 0.36075 0.0
C342 C 0.89863 0.91103 0.3831 0.0
C343 C 0.87674 0.88331 0.37802 0.0
N344 N 0.88561 0.89635 0.39398 0.0
C345 C 0.90238 0.898 0.29905 0.0
C346 C 0.9425 0.89205 0.3203 0.0
C347 C 0.94027 0.9098 0.30537 0.0
C348 C 0.92032 0.91167 0.2936 0.0
C349 C 0.92411 0.87845 0.325 0.0
N350 N 0.9038 0.88292 0.31592 0.0
H351 H 0.88659 0.9012 0.29117 0.0
H352 H 0.92615 0.8656 0.337 0.0
H353 H 0.9058 0.91568 0.34772 0.0
H354 H 0.86506 0.86997 0.38105 0.0
O355 O 0.86081 0.90347 0.32332 0.0
O356 O 0.84509 0.87492 0.34065 0.0
O357 O 0.88373 0.84429 0.34036 0.0
C358 C 0.84369 0.89535 0.33364 0.0
H359 H 0.86625 0.82941 0.2591 0.0
H360 H 0.90851 0.92398 0.39071 0.0
H361 H 0.95792 0.88946 0.32918 0.0
H362 H 0.9178 0.9249 0.28171 0.0
Co363 Co 0.14361 0.39127 0.57601 0.0
C364 C 0.1453 0.35932 0.53779 0.0
C365 C 0.17056 0.38445 0.53617 0.0
C366 C 0.17237 0.37102 0.51773 0.0
N367 N 0.15368 0.37712 0.54881 0.0
N368 N 0.15647 0.35515 0.51866 0.0
H369 H 0.13129 0.34966 0.54356 0.0
H370 H 0.18061 0.39888 0.53988 0.0
C371 C 0.18815 0.38573 0.59533 0.0
O372 O 0.19173 0.40397 0.58391 0.0
N373 N 0.13322 0.40517 0.60329 0.0
C374 C 0.11193 0.41068 0.60765 0.0
C375 C 0.10978 0.41525 0.62989 0.0
C376 C 0.14367 0.40639 0.62314 0.0
N377 N 0.12971 0.41234 0.63971 0.0
C378 C 0.1065 0.40229 0.54812 0.0
C379 C 0.11023 0.44766 0.55458 0.0
C380 C 0.09047 0.43919 0.54536 0.0
C381 C 0.08924 0.41622 0.54128 0.0
C382 C 0.1271 0.43309 0.56124 0.0
N383 N 0.12447 0.41071 0.55903 0.0
H384 H 0.10464 0.38457 0.54597 0.0
H385 H 0.14153 0.43954 0.56979 0.0
H386 H 0.09847 0.4099 0.59582 0.0
H387 H 0.16084 0.40206 0.62573 0.0
O388 O 0.1199 0.36848 0.58023 0.0
O389 O 0.15216 0.36418 0.59368 0.0
O390 O 0.16896 0.37601 0.59355 0.0
C391 C 0.13231 0.35633 0.59188 0.0
H392 H 0.18416 0.37324 0.50437 0.0
H393 H 0.09432 0.41881 0.63836 0.0
H394 H 0.11226 0.4653 0.55753 0.0
H395 H 0.07446 0.40877 0.53424 0.0
Co396 Co 0.6386 0.87594 0.44617 0.0
C397 C 0.6648 0.8702 0.4879 0.0
C398 C 0.63935 0.84547 0.48467 0.0
C399 C 0.65038 0.84217 0.50448 0.0
N400 N 0.64845 0.86302 0.47419 0.0
N401 N 0.66641 0.85778 0.50655 0.0
H402 H 0.67536 0.88428 0.48443 0.0
H403 H 0.62537 0.83597 0.47858 0.0
C404 C 0.61758 0.8392 0.41827 0.0
O405 O 0.60477 0.85375 0.40836 0.0
N406 N 0.62952 0.88939 0.41833 0.0
C407 C 0.61629 0.90721 0.41537 0.0
C408 C 0.61524 0.91191 0.39304 0.0
C409 C 0.63718 0.88421 0.39791 0.0
N410 N 0.62823 0.89729 0.38205 0.0
C411 C 0.61183 0.89893 0.47675 0.0
C412 C 0.57135 0.89248 0.45633 0.0
C413 C 0.5738 0.91045 0.47099 0.0
C414 C 0.59395 0.91257 0.48237 0.0
C415 C 0.5897 0.87889 0.45148 0.0
N416 N 0.61017 0.88364 0.46008 0.0
H417 H 0.62771 0.90221 0.48441 0.0
H418 H 0.58742 0.86566 0.43993 0.0
H419 H 0.60805 0.91631 0.42847 0.0
H420 H 0.64876 0.87081 0.39476 0.0
O421 O 0.65352 0.90352 0.45272 0.0
O422 O 0.66866 0.87484 0.43509 0.0
O423 O 0.62937 0.84493 0.43515 0.0
C424 C 0.67047 0.89519 0.44229 0.0
H425 H 0.64645 0.82955 0.51663 0.0
H426 H 0.60527 0.92482 0.38551 0.0
H427 H 0.55575 0.88965 0.44783 0.0
H428 H 0.59662 0.92596 0.49408 0.0
Co429 Co 0.15098 0.12846 0.6962 0.0
C430 C 0.15499 0.15392 0.73833 0.0
C431 C 0.18357 0.13337 0.73307 0.0
C432 C 0.18656 0.14544 0.75236 0.0
N433 N 0.16378 0.1388 0.72415 0.0
N434 N 0.16857 0.15848 0.75561 0.0
H435 H 0.13885 0.16144 0.73617 0.0
H436 H 0.19526 0.1217 0.72601 0.0
C437 C 0.18646 0.10412 0.66983 0.0
O438 O 0.17155 0.09119 0.66053 0.0
N439 N 0.13754 0.11899 0.66852 0.0
C440 C 0.11943 0.10606 0.66582 0.0
C441 C 0.11483 0.10443 0.64354 0.0
C442 C 0.14308 0.12585 0.64791 0.0
N443 N 0.12977 0.11681 0.63231 0.0
C444 C 0.12388 0.10489 0.72611 0.0
C445 C 0.13174 0.06257 0.71043 0.0
C446 C 0.11259 0.06643 0.72327 0.0
C447 C 0.1096 0.08772 0.7322 0.0
C448 C 0.1458 0.08037 0.70486 0.0
N449 N 0.14059 0.10155 0.71115 0.0
H450 H 0.12023 0.1214 0.73209 0.0
H451 H 0.15999 0.07704 0.69469 0.0
H452 H 0.10992 0.09857 0.67907 0.0
H453 H 0.15703 0.13666 0.64441 0.0
O454 O 0.12476 0.14634 0.701 0.0
O455 O 0.15544 0.15752 0.68383 0.0
O456 O 0.18124 0.1163 0.68657 0.0
C457 C 0.13543 0.16201 0.69068 0.0
H458 H 0.20115 0.14498 0.76281 0.0
H459 H 0.10129 0.09514 0.6362 0.0
H460 H 0.13531 0.04617 0.70395 0.0
H461 H 0.09531 0.09167 0.74238 0.0
Co462 Co 0.87856 0.63802 0.94252 0.0
C463 C 0.85186 0.64391 0.98404 0.0
C464 C 0.87781 0.66818 0.98125 0.0
C465 C 0.8667 0.67149 1.00101 0.0
N466 N 0.86847 0.65091 0.97051 0.0
N467 N 0.85038 0.65618 1.00282 0.0
H468 H 0.84113 0.62999 0.98039 0.0
H469 H 0.89208 0.67741 0.9754 0.0
C470 C 0.90147 0.67463 0.916 0.0
O471 O 0.91426 0.66011 0.90597 0.0
N472 N 0.88786 0.62475 0.91462 0.0
C473 C 0.8999 0.60609 0.91169 0.0
C474 C 0.90118 0.60159 0.88934 0.0
C475 C 0.88109 0.63068 0.8941 0.0
N476 N 0.88946 0.61717 0.87825 0.0
C477 C 0.90319 0.61405 0.9739 0.0
C478 C 0.94425 0.61684 0.95373 0.0
C479 C 0.9401 0.59922 0.96843 0.0
C480 C 0.9198 0.59907 0.97979 0.0
C481 C 0.92708 0.63175 0.94847 0.0
N482 N 0.90622 0.62885 0.95701 0.0
H483 H 0.88702 0.6121 0.98144 0.0
H484 H 0.93039 0.64424 0.93637 0.0
H485 H 0.907 0.5962 0.92484 0.0
H486 H 0.87035 0.64474 0.89091 0.0
O487 O 0.86235 0.611 0.94821 0.0
O488 O 0.84895 0.64055 0.93068 0.0
O489 O 0.88922 0.66877 0.93247 0.0
C490 C 0.84607 0.62019 0.93747 0.0
H491 H 0.87084 0.68385 0.01338 0.0
H492 H 0.9103 0.58801 0.88188 0.0
H493 H 0.95994 0.61804 0.94499 0.0
H494 H 0.91614 0.58639 0.99201 0.0
Co495 Co 0.36873 0.38995 0.19913 0.0
C496 C 0.36699 0.35858 0.23775 0.0
C497 C 0.34153 0.38353 0.23887 0.0
C498 C 0.33967 0.37032 0.25745 0.0
N499 N 0.35856 0.37616 0.22645 0.0
N500 N 0.35569 0.35459 0.25683 0.0
H501 H 0.38111 0.34896 0.23221 0.0
H502 H 0.33141 0.39783 0.2349 0.0
C503 C 0.32456 0.38301 0.17958 0.0
O504 O 0.32043 0.40128 0.19078 0.0
N505 N 0.37917 0.40351 0.17174 0.0
C506 C 0.40044 0.40912 0.1674 0.0
C507 C 0.40258 0.41366 0.14517 0.0
C508 C 0.36872 0.40464 0.1519 0.0
N509 N 0.38267 0.41065 0.13534 0.0
C510 C 0.40506 0.40216 0.22749 0.0
C511 C 0.4012 0.44727 0.21953 0.0
C512 C 0.42082 0.43922 0.22934 0.0
C513 C 0.42209 0.41642 0.23422 0.0
C514 C 0.38453 0.43238 0.21304 0.0
N515 N 0.38726 0.4101 0.21597 0.0
H516 H 0.40699 0.38453 0.2302 0.0
H517 H 0.37023 0.43844 0.20402 0.0
H518 H 0.41387 0.40851 0.17928 0.0
H519 H 0.35155 0.40026 0.14931 0.0
O520 O 0.39295 0.36759 0.19571 0.0
O521 O 0.36098 0.36229 0.18191 0.0
O522 O 0.34396 0.37381 0.18159 0.0
C523 C 0.38094 0.35489 0.18419 0.0
H524 H 0.32776 0.37262 0.2707 0.0
H525 H 0.41802 0.41734 0.1367 0.0
H526 H 0.39917 0.46478 0.21593 0.0
H527 H 0.43679 0.40932 0.24175 0.0
H528 H 0.09339 0.11133 0.42791 0.0
H529 H 0.09789 0.11368 0.4681 0.0
H530 H 0.16494 0.13751 0.45943 0.0
H531 H 0.16064 0.13494 0.41906 0.0
H532 H 0.15914 0.10172 0.49151 0.0
H533 H 0.10123 0.17219 0.5053 0.0
H534 H 0.09009 0.15014 0.48854 0.0
H535 H 0.1133 0.16607 0.47854 0.0
C536 C 0.10915 0.11693 0.43452 0.0
C537 C 0.12666 0.12296 0.42029 0.0
C538 C 0.11161 0.11849 0.45748 0.0
C539 C 0.13163 0.12606 0.46669 0.0
C540 C 0.14929 0.13182 0.45261 0.0
H541 H 0.1454 0.15238 0.60944 0.0
H542 H 0.14843 0.15597 0.56901 0.0
C543 C 0.14677 0.13043 0.42958 0.0
C544 C 0.13414 0.12731 0.49108 0.0
H545 H 0.11187 0.15141 0.5373 0.0
C546 C 0.14901 0.11276 0.50154 0.0
C547 C 0.12112 0.14194 0.50406 0.0
C548 C 0.10567 0.15864 0.49358 0.0
C549 C 0.15042 0.1117 0.52475 0.0
C550 C 0.13647 0.12544 0.53774 0.0
C551 C 0.12239 0.14076 0.52727 0.0
C552 C 0.1353 0.12321 0.56215 0.0
C553 C 0.16659 0.09572 0.53524 0.0
C554 C 0.12672 0.10372 0.57159 0.0
C555 C 0.12487 0.10168 0.59457 0.0
C556 C 0.13162 0.11908 0.60859 0.0
C557 C 0.14027 0.13861 0.59908 0.0
C558 C 0.14193 0.14072 0.57603 0.0
H559 H 0.17976 0.09051 0.52341 0.0
H560 H 0.17457 0.10328 0.55003 0.0
H561 H 0.1575 0.08063 0.5407 0.0
H562 H 0.12125 0.09013 0.56114 0.0
H563 H 0.11838 0.08635 0.60136 0.0
H564 H 0.88078 0.65495 0.85497 0.0
H565 H 0.87925 0.65895 0.81463 0.0
H566 H 0.8926 0.58898 0.80706 0.0
H567 H 0.89369 0.58468 0.84727 0.0
H568 H 0.92115 0.61972 0.78183 0.0
H569 H 0.83061 0.63523 0.77027 0.0
H570 H 0.84485 0.6512 0.79113 0.0
H571 H 0.84151 0.62181 0.79474 0.0
C572 C 0.88296 0.6403 0.84479 0.0
C573 C 0.88737 0.61946 0.85449 0.0
C574 C 0.88215 0.64266 0.8217 0.0
C575 C 0.88568 0.62423 0.80788 0.0
C576 C 0.88984 0.60341 0.81745 0.0
H577 H 0.89977 0.59028 0.67051 0.0
H578 H 0.89955 0.59271 0.71083 0.0
C579 C 0.89057 0.60102 0.84048 0.0
C580 C 0.88609 0.62663 0.78341 0.0
H581 H 0.85302 0.6352 0.7382 0.0
C582 C 0.90628 0.62319 0.77227 0.0
C583 C 0.86672 0.63143 0.77104 0.0
C584 C 0.8446 0.63504 0.78227 0.0
C585 C 0.9076 0.62412 0.74906 0.0
C586 C 0.88805 0.62801 0.73658 0.0
C587 C 0.86796 0.63212 0.74776 0.0
C588 C 0.88799 0.62675 0.71196 0.0
C589 C 0.92998 0.62107 0.73815 0.0
C590 C 0.88089 0.64484 0.69908 0.0
C591 C 0.88091 0.64346 0.67588 0.0
C592 C 0.88799 0.62392 0.66513 0.0
C593 C 0.89474 0.60576 0.67816 0.0
C594 C 0.89462 0.60712 0.70127 0.0
H595 H 0.94376 0.62539 0.74962 0.0
H596 H 0.93201 0.60338 0.73335 0.0
H597 H 0.93151 0.63145 0.72301 0.0
H598 H 0.87556 0.66012 0.70697 0.0
H599 H 0.8757 0.65778 0.66638 0.0
H600 H 0.35064 0.38743 0.11307 0.0
H601 H 0.34626 0.38457 0.07281 0.0
H602 H 0.40085 0.43003 0.06356 0.0
H603 H 0.40509 0.4334 0.10366 0.0
H604 H 0.34082 0.42003 0.03791 0.0
H605 H 0.4185 0.37072 0.03062 0.0
H606 H 0.40365 0.37387 0.05647 0.0
H607 H 0.42102 0.39596 0.04638 0.0
C608 C 0.36147 0.39718 0.10254 0.0
C609 C 0.37843 0.4105 0.11172 0.0
C610 C 0.35898 0.39541 0.07949 0.0
C611 C 0.37346 0.40682 0.06522 0.0
C612 C 0.38974 0.42081 0.07429 0.0
H613 H 0.40839 0.41873 0.9289 0.0
H614 H 0.40402 0.41975 0.96892 0.0
C615 C 0.39218 0.42265 0.09725 0.0
C616 C 0.37239 0.40352 0.04085 0.0
H617 H 0.40297 0.38432 0.99716 0.0
C618 C 0.35425 0.41202 0.02894 0.0
C619 C 0.38988 0.39294 0.02926 0.0
C620 C 0.40931 0.38265 0.04129 0.0
C621 C 0.3537 0.4112 1.0056 0.0
C622 C 0.3716 0.40126 0.99397 0.0
C623 C 0.38932 0.39207 1.00603 0.0
C624 C 0.37314 0.40133 0.96934 0.0
C625 C 0.33446 0.42182 0.99358 0.0
C626 C 0.35721 0.39062 0.95607 0.0
C627 C 0.35953 0.3902 0.93292 0.0
C628 C 0.37792 0.40039 0.92257 0.0
C629 C 0.39379 0.41106 0.93604 0.0
C630 C 0.39142 0.41151 0.95906 0.0
H631 H 0.32471 0.43297 1.00459 0.0
H632 H 0.3404 0.43154 0.9791 0.0
H633 H 0.32316 0.40862 0.98741 0.0
H634 H 0.34316 0.38227 0.96362 0.0
H635 H 0.3469 0.38192 0.9232 0.0
H636 H 0.63848 0.85982 0.359 0.0
H637 H 0.64055 0.85568 0.31875 0.0
H638 H 0.62406 0.92496 0.3108 0.0
H639 H 0.62279 0.92944 0.35099 0.0
H640 H 0.60753 0.86167 0.28875 0.0
H641 H 0.67705 0.91889 0.26981 0.0
H642 H 0.67113 0.90941 0.29758 0.0
H643 H 0.65557 0.93204 0.28576 0.0
C644 C 0.63579 0.87432 0.34874 0.0
C645 C 0.63058 0.89503 0.35832 0.0
C646 C 0.63681 0.87187 0.32569 0.0
C647 C 0.63278 0.89007 0.31172 0.0
C648 C 0.62771 0.91077 0.32121 0.0
H649 H 0.58636 0.89263 0.17704 0.0
H650 H 0.59088 0.89153 0.21721 0.0
C651 C 0.62672 0.91325 0.34424 0.0
C652 C 0.63262 0.8872 0.28724 0.0
H653 H 0.65402 0.90825 0.23917 0.0
C654 C 0.61787 0.8717 0.27792 0.0
C655 C 0.64635 0.89999 0.27309 0.0
C656 C 0.66358 0.91585 0.28206 0.0
C657 C 0.61586 0.86928 0.25484 0.0
C658 C 0.62863 0.88303 0.24069 0.0
C659 C 0.64402 0.8979 0.25001 0.0
C660 C 0.62578 0.88282 0.21622 0.0
C661 C 0.60012 0.85194 0.24587 0.0
C662 C 0.64398 0.87872 0.20221 0.0
C663 C 0.6415 0.87963 0.17916 0.0
C664 C 0.62078 0.88481 0.16963 0.0
C665 C 0.60257 0.88875 0.18375 0.0
C666 C 0.60507 0.88786 0.20676 0.0
H667 H 0.5971 0.83851 0.25814 0.0
H668 H 0.5839 0.85986 0.24212 0.0
H669 H 0.60665 0.84438 0.23038 0.0
H670 H 0.66017 0.87499 0.20913 0.0
H671 H 0.65598 0.87686 0.16887 0.0
H672 H 0.10694 0.43459 0.67154 0.0
H673 H 0.11136 0.43125 0.71162 0.0
H674 H 0.16651 0.38656 0.70207 0.0
H675 H 0.16198 0.38939 0.66187 0.0
H676 H 0.10926 0.38821 0.7349 0.0
H677 H 0.18871 0.43376 0.74882 0.0
H678 H 0.17141 0.43888 0.72488 0.0
H679 H 0.18752 0.4139 0.72651 0.0
C680 C 0.12006 0.42407 0.67787 0.0
C681 C 0.13397 0.41218 0.66332 0.0
C682 C 0.12263 0.42228 0.70082 0.0
C683 C 0.13931 0.40875 0.70982 0.0
C684 C 0.15371 0.39734 0.69546 0.0
H685 H 0.16619 0.38245 0.85093 0.0
H686 H 0.16877 0.38277 0.81038 0.0
C687 C 0.1511 0.39904 0.67243 0.0
C688 C 0.14052 0.4056 0.7342 0.0
H689 H 0.17102 0.41855 0.78022 0.0
C690 C 0.12281 0.39475 0.7448 0.0
C691 C 0.15834 0.4139 0.74704 0.0
C692 C 0.1776 0.42588 0.73638 0.0
C693 C 0.12224 0.39229 0.76794 0.0
C694 C 0.13958 0.40143 0.78092 0.0
C695 C 0.15769 0.41165 0.77027 0.0
C696 C 0.1385 0.40154 0.80556 0.0
C697 C 0.10305 0.37985 0.77825 0.0
C698 C 0.12087 0.4123 0.81637 0.0
C699 C 0.11925 0.41203 0.83946 0.0
C700 C 0.13536 0.40114 0.85244 0.0
C701 C 0.15332 0.39074 0.84156 0.0
C702 C 0.1549 0.39102 0.81836 0.0
H703 H 0.09519 0.36829 0.76621 0.0
H704 H 0.10851 0.37019 0.79294 0.0
H705 H 0.09021 0.39193 0.78367 0.0
H706 H 0.10822 0.42088 0.80689 0.0
H707 H 0.10508 0.42004 0.84707 0.0
H708 H 0.59033 0.60348 0.9271 0.0
H709 H 0.59327 0.60686 0.96725 0.0
H710 H 0.65746 0.63799 0.96015 0.0
H711 H 0.65466 0.63463 0.91978 0.0
H712 H 0.62467 0.5889 0.99492 0.0
H713 H 0.62516 0.68107 1.00135 0.0
H714 H 0.61727 0.66672 0.97628 0.0
H715 H 0.6461 0.66953 0.9835 0.0
C716 C 0.60517 0.61092 0.934 0.0
C717 C 0.62228 0.61873 0.92013 0.0
C718 C 0.60676 0.61297 0.95701 0.0
C719 C 0.62544 0.62295 0.96674 0.0
C720 C 0.64265 0.63069 0.95301 0.0
H721 H 0.65815 0.63766 0.1077 0.0
H722 H 0.65959 0.6384 0.06714 0.0
C723 C 0.64105 0.6287 0.92992 0.0
C724 C 0.627 0.62442 0.9913 0.0
H725 H 0.62992 0.66088 0.03473 0.0
C726 C 0.62584 0.60465 1.00359 0.0
C727 C 0.62863 0.64499 1.00263 0.0
C728 C 0.62918 0.66682 0.99034 0.0
C729 C 0.62609 0.60485 0.02685 0.0
C730 C 0.62727 0.62539 0.03818 0.0
C731 C 0.62897 0.64517 0.02596 0.0
C732 C 0.62596 0.62652 0.06273 0.0
C733 C 0.62513 0.58305 0.03917 0.0
C734 C 0.60639 0.62013 0.07367 0.0
C735 C 0.60543 0.61985 0.09681 0.0
C736 C 0.62403 0.62597 0.10957 0.0
C737 C 0.64343 0.63303 0.0985 0.0
C738 C 0.64434 0.63337 0.07529 0.0
H739 H 0.62952 0.56878 0.02831 0.0
H740 H 0.63656 0.58321 0.05361 0.0
H741 H 0.60798 0.58038 0.04544 0.0
H742 H 0.59189 0.61512 0.06426 0.0
H743 H 0.59008 0.61475 0.10468 0.0
H744 H 0.42014 0.10884 0.34668 0.0
H745 H 0.41539 0.11026 0.30655 0.0
H746 H 0.34935 0.13682 0.31514 0.0
H747 H 0.35403 0.13548 0.35545 0.0
H748 H 0.38418 0.08903 0.28075 0.0
H749 H 0.37716 0.18076 0.27163 0.0
H750 H 0.38697 0.16783 0.29678 0.0
H751 H 0.35777 0.16824 0.29055 0.0
C752 C 0.40455 0.11487 0.34008 0.0
C753 C 0.38748 0.12206 0.35431 0.0
C754 C 0.4019 0.11578 0.31712 0.0
C755 C 0.38214 0.12393 0.30783 0.0
C756 C 0.36494 0.13095 0.32193 0.0
H757 H 0.34858 0.12913 0.16587 0.0
H758 H 0.34557 0.13086 0.20636 0.0
C759 C 0.36762 0.13014 0.34497 0.0
C760 C 0.3796 0.12443 0.28336 0.0
H761 H 0.37372 0.15928 0.23899 0.0
C762 C 0.38178 0.10439 0.27165 0.0
C763 C 0.37637 0.14449 0.27151 0.0
C764 C 0.3746 0.16661 0.28318 0.0
C765 C 0.38125 0.10388 0.24842 0.0
C766 C 0.37863 0.12396 0.23658 0.0
C767 C 0.37571 0.14394 0.24821 0.0
C768 C 0.38047 0.12452 0.21213 0.0
C769 C 0.38378 0.08192 0.23661 0.0
C770 C 0.40116 0.12088 0.20207 0.0
C771 C 0.40299 0.12008 0.17902 0.0
C772 C 0.38414 0.12286 0.16552 0.0
C773 C 0.36348 0.12714 0.1757 0.0
C774 C 0.36168 0.12803 0.19884 0.0
H775 H 0.38103 0.06761 0.24793 0.0
H776 H 0.37191 0.08071 0.22257 0.0
H777 H 0.40086 0.08065 0.22976 0.0
H778 H 0.41588 0.11839 0.2121 0.0
H779 H 0.4192 0.11717 0.1718 0.0
H780 H 0.87452 0.85907 0.41695 0.0
H781 H 0.87203 0.85503 0.45718 0.0
H782 H 0.88964 0.92404 0.46526 0.0
H783 H 0.89127 0.92846 0.42511 0.0
H784 H 0.90476 0.86037 0.48739 0.0
H785 H 0.83647 0.91907 0.50594 0.0
H786 H 0.8424 0.90954 0.47818 0.0
H787 H 0.8583 0.93186 0.49019 0.0
C788 C 0.87737 0.87354 0.42723 0.0
C789 C 0.88301 0.89415 0.41769 0.0
C790 C 0.87611 0.87114 0.45027 0.0
C791 C 0.88034 0.8893 0.46427 0.0
C792 C 0.88583 0.9099 0.45482 0.0
H793 H 0.92647 0.89042 0.59912 0.0
H794 H 0.92203 0.88953 0.55897 0.0
C795 C 0.88704 0.91233 0.43181 0.0
C796 C 0.88029 0.88647 0.48875 0.0
H797 H 0.85928 0.90822 0.53669 0.0
C798 C 0.89464 0.87067 0.49816 0.0
C799 C 0.86681 0.89963 0.50283 0.0
C800 C 0.84996 0.9158 0.49377 0.0
C801 C 0.89651 0.86828 0.52125 0.0
C802 C 0.88406 0.88241 0.53533 0.0
C803 C 0.86905 0.89759 0.52592 0.0
C804 C 0.8868 0.88222 0.55982 0.0
C805 C 0.91175 0.85057 0.5303 0.0
C806 C 0.86839 0.87893 0.57376 0.0
C807 C 0.87081 0.8798 0.59682 0.0
C808 C 0.8917 0.88408 0.60644 0.0
C809 C 0.91012 0.88725 0.59238 0.0
C810 C 0.90766 0.88644 0.56935 0.0
H811 H 0.9143 0.83695 0.51811 0.0
H812 H 0.92823 0.85802 0.5339 0.0
H813 H 0.90506 0.84332 0.54586 0.0
H814 H 0.85209 0.87584 0.56679 0.0
H815 H 0.85618 0.87765 0.60704 0.0
H816 H 0.30095 0.14355 0.10345 0.0
H817 H 0.27163 0.15345 0.1301 0.0
H818 H 0.27935 0.08989 0.16207 0.0
H819 H 0.30868 0.08007 0.13586 0.0
H820 H 0.23085 0.13483 0.14384 0.0
H821 H 0.29197 0.13327 0.21243 0.0
H822 H 0.30021 0.13265 0.18368 0.0
H823 H 0.29097 0.10766 0.19723 0.0
C824 C 0.29601 0.13147 0.1158 0.0
C825 C 0.3073 0.11103 0.11754 0.0
C826 C 0.27935 0.13722 0.13116 0.0
C827 C 0.27367 0.12267 0.14854 0.0
C828 C 0.28381 0.10167 0.14925 0.0
H829 H 0.18815 0.12023 0.26395 0.0
H830 H 0.2138 0.11279 0.23355 0.0
C831 C 0.30047 0.09598 0.13406 0.0
C832 C 0.25794 0.12959 0.16649 0.0
H833 H 0.2538 0.13546 0.2228 0.0
C834 C 0.23591 0.13515 0.16108 0.0
C835 C 0.26453 0.1302 0.18906 0.0
C836 C 0.28825 0.12585 0.19598 0.0
C837 C 0.22016 0.14046 0.17762 0.0
C838 C 0.22662 0.14046 0.2002 0.0
C839 C 0.24875 0.13531 0.20555 0.0
C840 C 0.21065 0.14528 0.21861 0.0
C841 C 0.19653 0.14535 0.17085 0.0
C842 C 0.20041 0.16617 0.22065 0.0
C843 C 0.18579 0.17064 0.23828 0.0
C844 C 0.18103 0.15433 0.2544 0.0
C845 C 0.19144 0.13342 0.25225 0.0
C846 C 0.2061 0.12903 0.23469 0.0
H847 H 0.1931 0.13998 0.15357 0.0
H848 H 0.18459 0.13695 0.18212 0.0
H849 H 0.19356 0.16352 0.17193 0.0
H850 H 0.20395 0.17917 0.20875 0.0
H851 H 0.1785 0.18703 0.23938 0.0
H852 H 0.81829 0.68711 0.49047 0.0
H853 H 0.82565 0.71242 0.45966 0.0
H854 H 0.89475 0.71538 0.47824 0.0
H855 H 0.88777 0.68947 0.50853 0.0
H856 H 0.84098 0.75489 0.4594 0.0
H857 H 0.89997 0.70178 0.41291 0.0
H858 H 0.88312 0.69121 0.43532 0.0
H859 H 0.90832 0.70628 0.44109 0.0
C860 C 0.83515 0.69284 0.4879 0.0
C861 C 0.85241 0.68595 0.50213 0.0
C862 C 0.8393 0.70749 0.47027 0.0
C863 C 0.86085 0.71558 0.46624 0.0
C864 C 0.87807 0.70902 0.48057 0.0
H865 H 0.92281 0.8154 0.38501 0.0
H866 H 0.91337 0.78442 0.40942 0.0
C867 C 0.87395 0.69435 0.49818 0.0
C868 C 0.86519 0.73138 0.44753 0.0
H869 H 0.89798 0.73986 0.40185 0.0
C870 C 0.85326 0.75146 0.44668 0.0
C871 C 0.88119 0.727 0.43081 0.0
C872 C 0.89373 0.70531 0.42989 0.0
C873 C 0.85743 0.7675 0.43016 0.0
C874 C 0.87375 0.7633 0.41374 0.0
C875 C 0.88542 0.74309 0.41436 0.0
C876 C 0.87999 0.78036 0.39682 0.0
C877 C 0.84493 0.78924 0.43091 0.0
C878 C 0.8647 0.78789 0.38084 0.0
C879 C 0.87017 0.80557 0.36658 0.0
C880 C 0.891 0.81613 0.36813 0.0
C881 C 0.90662 0.80769 0.38332 0.0
C882 C 0.90123 0.78997 0.39738 0.0
H883 H 0.83596 0.79156 0.44685 0.0
H884 H 0.85647 0.80345 0.42848 0.0
H885 H 0.83254 0.78959 0.41731 0.0
H886 H 0.84829 0.78053 0.37985 0.0
H887 H 0.85766 0.81175 0.35525 0.0
H888 H 0.32538 0.31989 0.75003 0.0
H889 H 0.29946 0.32362 0.7191 0.0
H890 H 0.29326 0.3937 0.73251 0.0
H891 H 0.31928 0.39019 0.76339 0.0
H892 H 0.25253 0.37374 0.7246 0.0
H893 H 0.31268 0.35084 0.65869 0.0
H894 H 0.31008 0.33053 0.68033 0.0
H895 H 0.32125 0.35754 0.68656 0.0
C896 C 0.31874 0.33618 0.74633 0.0
C897 C 0.32469 0.35475 0.7593 0.0
C898 C 0.30385 0.33828 0.72856 0.0
C899 C 0.2946 0.35902 0.72316 0.0
C900 C 0.30018 0.37751 0.73626 0.0
H901 H 0.23086 0.40026 0.60097 0.0
H902 H 0.25592 0.39281 0.63196 0.0
C903 C 0.31506 0.37544 0.75405 0.0
C904 C 0.27903 0.36145 0.70398 0.0
H905 H 0.2751 0.35501 0.64775 0.0
C906 C 0.25747 0.36962 0.7078 0.0
C907 C 0.28548 0.35632 0.68197 0.0
C908 C 0.30868 0.34851 0.67652 0.0
C909 C 0.24221 0.37268 0.69034 0.0
C910 C 0.24852 0.36712 0.66837 0.0
C911 C 0.27012 0.35906 0.66456 0.0
C912 C 0.23339 0.37058 0.649 0.0
C913 C 0.21968 0.38242 0.69554 0.0
C914 C 0.21248 0.36016 0.64782 0.0
C915 C 0.19806 0.3644 0.63003 0.0
C916 C 0.20426 0.37905 0.61291 0.0
C917 C 0.22548 0.38888 0.6138 0.0
C918 C 0.23987 0.38463 0.63156 0.0
H919 H 0.21954 0.39093 0.71188 0.0
H920 H 0.2145 0.39449 0.68263 0.0
H921 H 0.20718 0.36886 0.6961 0.0
H922 H 0.20718 0.34891 0.66079 0.0
H923 H 0.18179 0.35674 0.63008 0.0
H924 H 0.68351 0.83193 0.98919 0.0
H925 H 0.67705 0.80515 0.9594 0.0
H926 H 0.61054 0.794 0.98351 0.0
H927 H 0.61662 0.82093 0.0131 0.0
H928 H 0.63432 0.75454 0.97467 0.0
H929 H 0.639 0.81255 0.90319 0.0
H930 H 0.66224 0.81339 0.92187 0.0
H931 H 0.6353 0.82209 0.93133 0.0
C932 C 0.66738 0.82407 0.98808 0.0
C933 C 0.65063 0.82883 1.00377 0.0
C934 C 0.66371 0.8087 0.97094 0.0
C935 C 0.6432 0.7977 0.96897 0.0
C936 C 0.62651 0.80227 0.98461 0.0
H937 H 0.58213 0.6955 0.88856 0.0
H938 H 0.59085 0.72597 0.9138 0.0
C939 C 0.63011 0.81767 1.0017 0.0
C940 C 0.63926 0.78092 0.95111 0.0
H941 H 0.63531 0.77429 0.89484 0.0
C942 C 0.63452 0.7589 0.95723 0.0
C943 C 0.63972 0.78647 0.92828 0.0
C944 C 0.64416 0.80993 0.92067 0.0
C945 C 0.63025 0.74236 0.94127 0.0
C946 C 0.63013 0.74802 0.91846 0.0
C947 C 0.63529 0.76994 0.91228 0.0
C948 C 0.624 0.73145 0.90101 0.0
C949 C 0.62623 0.71884 0.94905 0.0
C950 C 0.63917 0.72522 0.88436 0.0
C951 C 0.63408 0.70786 0.86956 0.0
C952 C 0.6137 0.69644 0.87116 0.0
C953 C 0.59804 0.70378 0.88691 0.0
C954 C 0.60308 0.72111 0.90154 0.0
H955 H 0.6332 0.71598 0.96585 0.0
H956 H 0.60807 0.71572 0.94986 0.0
H957 H 0.63369 0.70659 0.93745 0.0
H958 H 0.65535 0.73309 0.88345 0.0
H959 H 0.6466 0.70254 0.85778 0.0
H960 H 0.19572 0.38779 1.01101 0.0
H961 H 0.22195 0.39061 0.04174 0.0
H962 H 0.21623 0.32015 0.05323 0.0
H963 H 0.19002 0.31713 0.02242 0.0
H964 H 0.21332 0.34372 0.09172 0.0
H965 H 0.28682 0.3722 0.04417 0.0
H966 H 0.26278 0.38936 0.04002 0.0
H967 H 0.2624 0.36088 0.03093 0.0
C968 C 0.20022 0.37279 0.01979 0.0
C969 C 0.19069 0.35219 0.014 0.0
C970 C 0.21532 0.37445 0.03743 0.0
C971 C 0.22144 0.35555 0.04966 0.0
C972 C 0.21188 0.33499 0.04404 0.0
H973 H 0.33222 0.35451 0.14469 0.0
H974 H 0.30726 0.34593 0.11376 0.0
C975 C 0.19676 0.33331 0.02642 0.0
C976 C 0.23715 0.35734 0.06879 0.0
H977 H 0.28917 0.37507 0.08354 0.0
C978 C 0.22995 0.35045 0.08987 0.0
C979 C 0.25903 0.36579 0.06645 0.0
C980 C 0.26834 0.37228 0.04414 0.0
C981 C 0.24369 0.35238 0.10867 0.0
C982 C 0.26518 0.36179 0.1065 0.0
C983 C 0.27265 0.36805 0.08532 0.0
C984 C 0.27992 0.36583 0.12603 0.0
C985 C 0.23509 0.34413 0.13067 0.0
C986 C 0.27297 0.37984 0.14333 0.0
C987 C 0.28717 0.38468 0.16108 0.0
C988 C 0.30876 0.37569 0.16199 0.0
C989 C 0.31561 0.3614 0.1448 0.0
C990 C 0.30139 0.35663 0.12697 0.0
H991 H 0.22166 0.33164 0.12849 0.0
H992 H 0.24862 0.33658 0.14066 0.0
H993 H 0.2281 0.35833 0.14013 0.0
H994 H 0.25671 0.38755 0.14283 0.0
H995 H 0.28138 0.39591 0.17388 0.0
H996 H 0.59156 0.82057 0.38641 0.0
H997 H 0.60077 0.78992 0.36166 0.0
H998 H 0.66135 0.77831 0.3979 0.0
H999 H 0.65229 0.80935 0.42291 0.0
H1000 H 0.64197 0.79047 0.33572 0.0
H1001 H 0.63305 0.71468 0.38786 0.0
H1002 H 0.61898 0.74038 0.39447 0.0
H1003 H 0.6483 0.73784 0.39913 0.0
C1004 C 0.60666 0.81127 0.38952 0.0
C1005 C 0.62119 0.81755 0.40673 0.0
C1006 C 0.61192 0.79373 0.37524 0.0
C1007 C 0.63175 0.78178 0.37783 0.0
C1008 C 0.64583 0.78714 0.39568 0.0
H1009 H 0.68566 0.67492 0.2942 0.0
H1010 H 0.67922 0.70176 0.32384 0.0
C1011 C 0.64058 0.80486 0.41004 0.0
C1012 C 0.63828 0.76517 0.36063 0.0
H1013 H 0.64442 0.7095 0.35081 0.0
C1014 C 0.64257 0.77276 0.33904 0.0
C1015 C 0.63929 0.7421 0.36498 0.0
C1016 C 0.63457 0.73308 0.38781 0.0
C1017 C 0.64771 0.75798 0.32168 0.0
C1018 C 0.64792 0.73477 0.32577 0.0
C1019 C 0.64412 0.72721 0.34754 0.0
C1020 C 0.6517 0.71817 0.30763 0.0
C1021 C 0.65323 0.76752 0.29921 0.0
C1022 C 0.63822 0.71805 0.28862 0.0
C1023 C 0.64206 0.70288 0.27138 0.0
C1024 C 0.65932 0.68708 0.27275 0.0
C1025 C 0.67245 0.68692 0.29213 0.0
C1026 C 0.66868 0.70222 0.30931 0.0
H1027 H 0.65937 0.78489 0.30054 0.0
H1028 H 0.66604 0.75742 0.29058 0.0
H1029 H 0.63798 0.76776 0.28888 0.0
H1030 H 0.62463 0.72974 0.28706 0.0
H1031 H 0.63154 0.70384 0.2569 0.0
H1032 H 0.20582 0.07726 0.63893 0.0
H1033 H 0.23552 0.08676 0.61302 0.0
H1034 H 0.24357 0.15025 0.64521 0.0
H1035 H 0.21408 0.14061 0.67157 0.0
H1036 H 0.23367 0.12005 0.5836 0.0
H1037 H 0.30772 0.1326 0.63684 0.0
H1038 H 0.28286 0.11901 0.64674 0.0
H1039 H 0.28407 0.14883 0.64503 0.0
C1040 C 0.2143 0.09302 0.64093 0.0
C1041 C 0.20757 0.10809 0.65747 0.0
C1042 C 0.23125 0.0985 0.62597 0.0
C1043 C 0.24198 0.11922 0.62708 0.0
C1044 C 0.23596 0.13398 0.64418 0.0
H1045 H 0.33337 0.1856 0.53463 0.0
H1046 H 0.30801 0.17683 0.56516 0.0
C1047 C 0.21905 0.12842 0.65931 0.0
C1048 C 0.25793 0.12588 0.60919 0.0
H1049 H 0.31112 0.14362 0.59914 0.0
C1050 C 0.25064 0.12509 0.58706 0.0
C1051 C 0.28006 0.13269 0.61357 0.0
C1052 C 0.28926 0.13317 0.6368 0.0
C1053 C 0.2647 0.13088 0.56932 0.0
C1054 C 0.28688 0.13743 0.57366 0.0
C1055 C 0.29414 0.13858 0.59578 0.0
C1056 C 0.30285 0.14264 0.55538 0.0
C1057 C 0.25555 0.13024 0.54605 0.0
C1058 C 0.30876 0.12629 0.53984 0.0
C1059 C 0.32339 0.13119 0.52241 0.0
C1060 C 0.33258 0.15262 0.52001 0.0
C1061 C 0.32685 0.16889 0.53586 0.0
C1062 C 0.31225 0.16393 0.55336 0.0
H1063 H 0.23708 0.13058 0.54593 0.0
H1064 H 0.26181 0.14448 0.53614 0.0
H1065 H 0.261 0.11466 0.53783 0.0
H1066 H 0.30213 0.10961 0.54126 0.0
H1067 H 0.32764 0.11799 0.51101 0.0
H1068 H 0.86507 0.70243 0.91825 0.0
H1069 H 0.85625 0.73304 0.89276 0.0
H1070 H 0.92054 0.7259 0.86199 0.0
H1071 H 0.92935 0.69535 0.88705 0.0
H1072 H 0.87663 0.77437 0.88104 0.0
H1073 H 0.87725 0.71527 0.81055 0.0
H1074 H 0.87694 0.7062 0.83906 0.0
H1075 H 0.90253 0.71498 0.82633 0.0
C1076 C 0.87755 0.70776 0.90643 0.0
C1077 C 0.89788 0.6963 0.90463 0.0
C1078 C 0.87242 0.72518 0.89176 0.0
C1079 C 0.8875 0.7314 0.87504 0.0
C1080 C 0.9084 0.72105 0.87434 0.0
H1081 H 0.8944 0.8196 0.76237 0.0
H1082 H 0.90044 0.79289 0.79212 0.0
C1083 C 0.91348 0.70367 0.88886 0.0
C1084 C 0.88122 0.74782 0.85758 0.0
H1085 H 0.87617 0.75374 0.8014 0.0
C1086 C 0.87633 0.76984 0.86365 0.0
C1087 C 0.88066 0.7419 0.83484 0.0
C1088 C 0.8844 0.71826 0.82727 0.0
C1089 C 0.87179 0.78622 0.84756 0.0
C1090 C 0.87185 0.7804 0.82479 0.0
C1091 C 0.87628 0.75828 0.8188 0.0
C1092 C 0.86791 0.79702 0.80684 0.0
C1093 C 0.86766 0.8098 0.85499 0.0
C1094 C 0.84748 0.80816 0.80492 0.0
C1095 C 0.84384 0.82339 0.78768 0.0
C1096 C 0.86053 0.82785 0.77186 0.0
C1097 C 0.88096 0.81654 0.77387 0.0
C1098 C 0.88454 0.80128 0.79105 0.0
H1099 H 0.87297 0.81255 0.87241 0.0
H1100 H 0.87659 0.82175 0.84415 0.0
H1101 H 0.84961 0.81344 0.85387 0.0
H1102 H 0.8342 0.80484 0.8166 0.0
H1103 H 0.82778 0.83141 0.78662 0.0
H1104 H 0.68263 0.61844 0.76033 0.0
H1105 H 0.70862 0.61359 0.72957 0.0
H1106 H 0.69889 0.68189 0.71047 0.0
H1107 H 0.67348 0.68715 0.74163 0.0
H1108 H 0.70221 0.61806 0.68453 0.0
H1109 H 0.76619 0.67815 0.71288 0.0
H1110 H 0.74408 0.66856 0.7307 0.0
H1111 H 0.73881 0.68972 0.71035 0.0
C1112 C 0.68619 0.63258 0.74986 0.0
C1113 C 0.67591 0.65327 0.75377 0.0
C1114 C 0.70099 0.6297 0.73208 0.0
C1115 C 0.70606 0.64743 0.71778 0.0
C1116 C 0.69567 0.66803 0.72145 0.0
H1117 H 0.80091 0.65554 0.60621 0.0
H1118 H 0.7694 0.66331 0.63107 0.0
C1119 C 0.68087 0.67094 0.73922 0.0
C1120 C 0.72194 0.64421 0.69891 0.0
H1121 H 0.77153 0.66217 0.67747 0.0
C1122 C 0.71735 0.62774 0.68301 0.0
C1123 C 0.7417 0.65688 0.69673 0.0
C1124 C 0.74816 0.67419 0.71365 0.0
C1125 C 0.73189 0.62359 0.66515 0.0
C1126 C 0.75183 0.63598 0.66319 0.0
C1127 C 0.75622 0.65275 0.67882 0.0
C1128 C 0.76916 0.63069 0.64617 0.0
C1129 C 0.72567 0.60601 0.64843 0.0
C1130 C 0.77934 0.6097 0.64604 0.0
C1131 C 0.79725 0.60524 0.63188 0.0
C1132 C 0.80554 0.62165 0.61743 0.0
C1133 C 0.79477 0.64241 0.61686 0.0
C1134 C 0.77687 0.64693 0.63122 0.0
H1135 H 0.70742 0.60315 0.6481 0.0
H1136 H 0.73128 0.61066 0.63151 0.0
H1137 H 0.73378 0.59011 0.65302 0.0
H1138 H 0.77409 0.59699 0.65762 0.0
H1139 H 0.8052 0.58912 0.63292 0.0
H1140 H 0.31558 0.17117 0.98672 0.0
H1141 H 0.32127 0.19786 0.95663 0.0
H1142 H 0.38961 0.20599 0.97647 0.0
H1143 H 0.38441 0.1788 1.00582 0.0
H1144 H 0.33265 0.24128 0.9583 0.0
H1145 H 0.39727 0.19629 0.91103 0.0
H1146 H 0.38116 0.18314 0.9326 0.0
H1147 H 0.40498 0.19992 0.9395 0.0
C1148 C 0.33194 0.17831 0.9845 0.0
C1149 C 0.34949 0.17263 0.99889 0.0
C1150 C 0.33513 0.19373 0.9673 0.0
C1151 C 0.35599 0.20375 0.96392 0.0
C1152 C 0.37349 0.19818 0.97829 0.0
H1153 H 0.41364 0.31359 0.89513 0.0
H1154 H 0.40471 0.28019 0.91631 0.0
C1155 C 0.37035 0.18276 0.9954 0.0
C1156 C 0.3593 0.22075 0.94612 0.0
H1157 H 0.3935 0.23524 0.90307 0.0
C1158 C 0.34573 0.23977 0.946 0.0
C1159 C 0.37632 0.21886 0.92995 0.0
C1160 C 0.3906 0.19834 0.92809 0.0
C1161 C 0.34936 0.2573 0.93093 0.0
C1162 C 0.3669 0.25574 0.91534 0.0
C1163 C 0.38007 0.23647 0.91502 0.0
C1164 C 0.37293 0.27468 0.90052 0.0
C1165 C 0.33503 0.27782 0.93245 0.0
C1166 C 0.35841 0.28234 0.88392 0.0
C1167 C 0.36359 0.30146 0.87154 0.0
C1168 C 0.38334 0.31334 0.87565 0.0
C1169 C 0.39826 0.30495 0.89155 0.0
C1170 C 0.39317 0.28581 0.90372 0.0
H1171 H 0.32461 0.27795 0.94766 0.0
H1172 H 0.34549 0.29304 0.9323 0.0
H1173 H 0.32383 0.27852 0.91786 0.0
H1174 H 0.34282 0.27385 0.88093 0.0
H1175 H 0.35167 0.3075 0.85952 0.0
H1176 H 0.83287 0.82711 0.23927 0.0
H1177 H 0.80724 0.83263 0.20832 0.0
H1178 H 0.79944 0.90136 0.22687 0.0
H1179 H 0.82555 0.89622 0.25736 0.0
H1180 H 0.76347 0.84539 0.20842 0.0
H1181 H 0.81307 0.90685 0.16128 0.0
H1182 H 0.82468 0.89065 0.18362 0.0
H1183 H 0.80834 0.91501 0.1895 0.0
C1184 C 0.82599 0.8435 0.23665 0.0
C1185 C 0.83153 0.86121 0.25093 0.0
C1186 C 0.81117 0.8466 0.21895 0.0
C1187 C 0.80162 0.86752 0.21491 0.0
C1188 C 0.80691 0.88517 0.22924 0.0
H1189 H 0.69903 0.92449 0.13436 0.0
H1190 H 0.73078 0.91632 0.15815 0.0
C1191 C 0.8217 0.8821 0.24695 0.0
C1192 C 0.78558 0.87072 0.19622 0.0
H1193 H 0.77508 0.90267 0.15046 0.0
C1194 C 0.76615 0.85773 0.19559 0.0
C1195 C 0.78901 0.88678 0.17938 0.0
C1196 C 0.81 0.90047 0.17829 0.0
C1197 C 0.74976 0.86095 0.17922 0.0
C1198 C 0.75297 0.87737 0.16269 0.0
C1199 C 0.7726 0.89005 0.16304 0.0
C1200 C 0.73538 0.8828 0.14605 0.0
C1201 C 0.72866 0.8474 0.18031 0.0
C1202 C 0.72787 0.86703 0.13051 0.0
C1203 C 0.70969 0.87175 0.11662 0.0
C1204 C 0.69864 0.89233 0.11809 0.0
C1205 C 0.70708 0.90846 0.13277 0.0
C1206 C 0.72526 0.9038 0.14646 0.0
H1207 H 0.72689 0.83861 0.19641 0.0
H1208 H 0.71387 0.85815 0.17782 0.0
H1209 H 0.72886 0.83476 0.16693 0.0
H1210 H 0.73564 0.85082 0.12958 0.0
H1211 H 0.70354 0.85888 0.10567 0.0
H1212 H 0.08566 0.20253 0.38641 0.0
H1213 H 0.09295 0.23384 0.41105 0.0
H1214 H 0.15938 0.23933 0.38473 0.0
H1215 H 0.152 0.20802 0.35962 0.0
H1216 H 0.12338 0.23398 0.4438 0.0
H1217 H 0.14115 0.3041 0.38685 0.0
H1218 H 0.12827 0.27865 0.37755 0.0
H1219 H 0.15781 0.27984 0.38192 0.0
C1220 C 0.10167 0.21074 0.38539 0.0
C1221 C 0.11819 0.20276 0.37087 0.0
C1222 C 0.10586 0.22862 0.39965 0.0
C1223 C 0.12671 0.23914 0.39988 0.0
C1224 C 0.143 0.23187 0.3847 0.0
H1225 H 0.18548 0.33847 0.48815 0.0
H1226 H 0.17816 0.31053 0.45974 0.0
C1227 C 0.13875 0.21395 0.37025 0.0
C1228 C 0.13165 0.25636 0.4172 0.0
H1229 H 0.14821 0.31027 0.42508 0.0
C1230 C 0.1287 0.25069 0.43964 0.0
C1231 C 0.13876 0.27819 0.41196 0.0
C1232 C 0.14151 0.28569 0.38827 0.0
C1233 C 0.13278 0.26602 0.45684 0.0
C1234 C 0.13968 0.28791 0.45161 0.0
C1235 C 0.14285 0.29356 0.42919 0.0
C1236 C 0.1439 0.30509 0.46915 0.0
C1237 C 0.13016 0.2584 0.48053 0.0
C1238 C 0.12707 0.31165 0.484 0.0
C1239 C 0.13119 0.3278 0.50036 0.0
C1240 C 0.15222 0.33797 0.5022 0.0
C1241 C 0.16899 0.33135 0.48722 0.0
C1242 C 0.16486 0.31524 0.47091 0.0
H1243 H 0.13078 0.23999 0.4819 0.0
H1244 H 0.14332 0.26558 0.49126 0.0
H1245 H 0.11379 0.26399 0.48691 0.0
H1246 H 0.11061 0.30448 0.48278 0.0
H1247 H 0.11772 0.3326 0.51125 0.0
H1248 H 0.68867 0.89559 0.51815 0.0
H1249 H 0.71485 0.90042 0.54865 0.0
H1250 H 0.70464 0.83233 0.56829 0.0
H1251 H 0.67904 0.82705 0.53731 0.0
H1252 H 0.70898 0.89644 0.59365 0.0
H1253 H 0.77189 0.83535 0.56496 0.0
H1254 H 0.74964 0.84498 0.54739 0.0
H1255 H 0.74441 0.82412 0.56808 0.0
C1256 C 0.69215 0.88148 0.52868 0.0
C1257 C 0.68172 0.86082 0.52494 0.0
C1258 C 0.70706 0.88435 0.54632 0.0
C1259 C 0.71208 0.86668 0.56067 0.0
C1260 C 0.70147 0.84614 0.55724 0.0
H1261 H 0.80876 0.85926 0.67036 0.0
H1262 H 0.77653 0.85155 0.64652 0.0
C1263 C 0.68656 0.84322 0.53958 0.0
C1264 C 0.72821 0.86991 0.57927 0.0
H1265 H 0.77802 0.85186 0.59996 0.0
C1266 C 0.72405 0.88664 0.59502 0.0
C1267 C 0.74789 0.8571 0.58124 0.0
C1268 C 0.7539 0.83951 0.56443 0.0
C1269 C 0.73896 0.89095 0.6125 0.0
C1270 C 0.75882 0.87843 0.61422 0.0
C1271 C 0.76276 0.86138 0.59878 0.0
C1272 C 0.77652 0.88385 0.63076 0.0
C1273 C 0.73325 0.90886 0.62906 0.0
C1274 C 0.78705 0.90467 0.63019 0.0
C1275 C 0.80538 0.9091 0.64378 0.0
C1276 C 0.81373 0.89283 0.65832 0.0
C1277 C 0.80258 0.8723 0.65964 0.0
C1278 C 0.78427 0.86779 0.64585 0.0
H1279 H 0.71506 0.91198 0.62966 0.0
H1280 H 0.73907 0.90439 0.64593 0.0
H1281 H 0.74153 0.92458 0.62409 0.0
H1282 H 0.78174 0.91722 0.61848 0.0
H1283 H 0.81362 0.92503 0.64217 0.0
H1284 H 0.15868 0.30551 0.91592 0.0
H1285 H 0.16748 0.27276 0.89305 0.0
H1286 H 0.10975 0.28543 0.85279 0.0
H1287 H 0.1008 0.31782 0.87536 0.0
H1288 H 0.13826 0.23277 0.87828 0.0
H1289 H 0.16653 0.28866 0.81061 0.0
H1290 H 0.16467 0.29763 0.83913 0.0
H1291 H 0.13996 0.29524 0.82262 0.0
C1292 C 0.1476 0.30103 0.9025 0.0
C1293 C 0.12912 0.31448 0.89742 0.0
C1294 C 0.1527 0.28235 0.8894 0.0
C1295 C 0.13945 0.27686 0.871 0.0
C1296 C 0.12036 0.2895 0.86672 0.0
H1297 H 0.14005 0.19373 0.75523 0.0
H1298 H 0.13391 0.22087 0.78448 0.0
C1299 C 0.11525 0.30804 0.87974 0.0
C1300 C 0.14603 0.25892 0.85528 0.0
H1301 H 0.16245 0.25057 0.80167 0.0
C1302 C 0.1438 0.23658 0.8616 0.0
C1303 C 0.15318 0.26395 0.83351 0.0
C1304 C 0.15643 0.28765 0.826 0.0
C1305 C 0.1477 0.21915 0.84642 0.0
C1306 C 0.15447 0.2242 0.82446 0.0
C1307 C 0.15721 0.24659 0.81841 0.0
C1308 C 0.15791 0.20674 0.80712 0.0
C1309 C 0.14363 0.19554 0.85379 0.0
C1310 C 0.17356 0.18962 0.80989 0.0
C1311 C 0.17695 0.17373 0.79316 0.0
C1312 C 0.16491 0.17466 0.77314 0.0
C1313 C 0.14938 0.19199 0.77043 0.0
C1314 C 0.14595 0.20776 0.78717 0.0
H1315 H 0.13314 0.19483 0.86895 0.0
H1316 H 0.1354 0.18575 0.84052 0.0
H1317 H 0.15979 0.18755 0.85765 0.0
H1318 H 0.18339 0.18868 0.82488 0.0
H1319 H 0.18899 0.16069 0.796 0.0
H1320 H 0.83749 0.687 0.03335 0.0
H1321 H 0.81239 0.68157 0.0648 0.0
H1322 H 0.80274 0.61327 0.04552 0.0
H1323 H 0.82833 0.61831 0.0145 0.0
H1324 H 0.7683 0.6695 0.0656 0.0
H1325 H 0.81814 0.60678 0.11069 0.0
H1326 H 0.82944 0.62313 0.08827 0.0
H1327 H 0.8126 0.5991 0.08249 0.0
C1328 C 0.8303 0.67072 0.0359 0.0
C1329 C 0.83517 0.65309 0.02128 0.0
C1330 C 0.81579 0.66768 0.05388 0.0
C1331 C 0.80591 0.6469 0.05786 0.0
C1332 C 0.81049 0.62934 0.04317 0.0
H1333 H 0.70501 0.59027 0.14081 0.0
H1334 H 0.73605 0.59843 0.11607 0.0
C1335 C 0.82497 0.63236 0.02518 0.0
C1336 C 0.79031 0.64373 0.07693 0.0
H1337 H 0.78054 0.61145 0.12263 0.0
C1338 C 0.77112 0.65699 0.07822 0.0
C1339 C 0.79395 0.62744 0.0935 0.0
C1340 C 0.81475 0.61344 0.09385 0.0
C1341 C 0.75511 0.65383 0.095 0.0
C1342 C 0.75851 0.63718 0.11125 0.0
C1343 C 0.77792 0.62424 0.11024 0.0
C1344 C 0.74129 0.6318 0.1283 0.0
C1345 C 0.73421 0.66769 0.09463 0.0
C1346 C 0.73437 0.64751 0.14418 0.0
C1347 C 0.71658 0.64281 0.15859 0.0
C1348 C 0.70535 0.62232 0.15732 0.0
C1349 C 0.71319 0.60624 0.14224 0.0
C1350 C 0.73097 0.61089 0.12801 0.0
H1351 H 0.73213 0.67664 0.07866 0.0
H1352 H 0.71932 0.65715 0.09748 0.0
H1353 H 0.73498 0.68023 0.1081 0.0
H1354 H 0.74233 0.66364 0.14502 0.0
H1355 H 0.71092 0.65562 0.16988 0.0
H1356 H 0.32648 0.33771 0.28696 0.0
H1357 H 0.33394 0.31062 0.3161 0.0
H1358 H 0.40175 0.30493 0.29371 0.0
H1359 H 0.39463 0.33264 0.26489 0.0
H1360 H 0.34715 0.26733 0.31389 0.0
H1361 H 0.4105 0.31619 0.35944 0.0
H1362 H 0.39307 0.32829 0.33832 0.0
H1363 H 0.41706 0.31216 0.33069 0.0
C1364 C 0.34309 0.33098 0.28831 0.0
C1365 C 0.35999 0.33772 0.27354 0.0
C1366 C 0.34729 0.31529 0.30498 0.0
C1367 C 0.36853 0.30594 0.30751 0.0
C1368 C 0.38534 0.31223 0.29253 0.0
H1369 H 0.42729 0.20285 0.38789 0.0
H1370 H 0.41914 0.23422 0.36359 0.0
C1371 C 0.38115 0.32793 0.2758 0.0
C1372 C 0.37284 0.28933 0.32552 0.0
H1373 H 0.40594 0.27847 0.3704 0.0
C1374 C 0.35989 0.26988 0.32635 0.0
C1375 C 0.38942 0.29256 0.34189 0.0
C1376 C 0.40318 0.31351 0.34274 0.0
C1377 C 0.36347 0.2534 0.34257 0.0
C1378 C 0.38021 0.25652 0.35878 0.0
C1379 C 0.39303 0.27606 0.35809 0.0
C1380 C 0.38563 0.23906 0.37562 0.0
C1381 C 0.3498 0.23237 0.34172 0.0
C1382 C 0.36985 0.23179 0.3913 0.0
C1383 C 0.37456 0.21383 0.40548 0.0
C1384 C 0.39513 0.20274 0.4042 0.0
C1385 C 0.41126 0.21093 0.38935 0.0
C1386 C 0.40661 0.22889 0.37535 0.0
H1387 H 0.34102 0.23048 0.32563 0.0
H1388 H 0.36044 0.21754 0.34439 0.0
H1389 H 0.33712 0.23281 0.35508 0.0
H1390 H 0.35366 0.23961 0.39215 0.0
H1391 H 0.36169 0.20789 0.41656 0.0
H1392 H 0.05717 0.08744 0.26935 0.0
H1393 H 0.0339 0.05403 0.26795 0.0
H1394 H 0.02557 0.05687 0.3389 0.0
H1395 H 0.0484 0.09039 0.34032 0.0
H1396 H 0.04266 0.01465 0.28632 0.0
H1397 H 0.96282 0.04508 0.32038 0.0
H1398 H 0.98466 0.06371 0.3117 0.0
H1399 H 0.98568 0.05075 0.33857 0.0
C1400 C 0.04997 0.08119 0.28459 0.0
C1401 C 0.05449 0.09173 0.30493 0.0
C1402 C 0.03673 0.06205 0.28378 0.0
C1403 C 0.02772 0.05296 0.30328 0.0
C1404 C 0.03176 0.06379 0.32353 0.0
H1405 H 0.96159 0.93012 0.33977 0.0
H1406 H 0.98413 0.96399 0.33862 0.0
C1407 C 0.04483 0.08304 0.32432 0.0
C1408 C 0.01553 0.03136 0.30268 0.0
H1409 H 0.96751 1.00562 0.31897 0.0
C1410 C 0.02613 0.01277 0.29326 0.0
C1411 C 0.99395 0.02877 0.31177 0.0
C1412 C 0.98102 0.04819 0.32097 0.0
C1413 C 0.016 0.99168 0.29314 0.0
C1414 C 0.99466 0.98907 0.30261 0.0
C1415 C 0.98397 0.00762 0.31188 0.0
C1416 C 0.98299 0.96728 0.30295 0.0
C1417 C 0.02836 0.9722 0.28335 0.0
C1418 C 0.97521 0.95763 0.28324 0.0
C1419 C 0.96233 0.93822 0.28383 0.0
C1420 C 0.95706 0.92801 0.30417 0.0
C1421 C 0.96566 0.93727 0.3238 0.0
C1422 C 0.97836 0.95678 0.3232 0.0
H1423 H 0.04621 0.97603 0.28052 0.0
H1424 H 0.02708 0.95748 0.29438 0.0
H1425 H 0.02077 0.96773 0.26719 0.0
H1426 H 0.97841 0.96556 0.26744 0.0
H1427 H 0.95597 0.93153 0.26842 0.0
H1428 H 0.05889 0.43705 0.51227 0.0
H1429 H 0.02419 0.45816 0.50963 0.0
H1430 H 0.04196 0.49517 0.56813 0.0
H1431 H 0.07627 0.4738 0.5714 0.0
H1432 H 0.99006 0.46089 0.54451 0.0
H1433 H 0.02473 0.54316 0.5209 0.0
H1434 H 0.03996 0.51754 0.51722 0.0
H1435 H 0.03784 0.52996 0.54421 0.0
C1436 C 0.05548 0.44968 0.5246 0.0
C1437 C 0.07054 0.45367 0.54204 0.0
C1438 C 0.03564 0.46178 0.52299 0.0
C1439 C 0.03056 0.47832 0.5386 0.0
C1440 C 0.0457 0.48271 0.55572 0.0
H1441 H 0.90962 0.54355 0.57888 0.0
H1442 H 0.94131 0.51848 0.57487 0.0
C1443 C 0.06544 0.47053 0.55745 0.0
C1444 C 0.00906 0.49042 0.53758 0.0
H1445 H 0.98665 0.54218 0.53129 0.0
C1446 C 0.98927 0.47863 0.54146 0.0
C1447 C 0.00806 0.51352 0.53346 0.0
C1448 C 0.02873 0.52684 0.52852 0.0
C1449 C 0.96855 0.48949 0.54192 0.0
C1450 C 0.96763 0.51272 0.53848 0.0
C1451 C 0.98737 0.52438 0.534 0.0
C1452 C 0.94652 0.52547 0.54009 0.0
C1453 C 0.9478 0.47605 0.54608 0.0
C1454 C 0.93862 0.53746 0.52178 0.0
C1455 C 0.92031 0.55166 0.52395 0.0
C1456 C 0.90968 0.55443 0.54458 0.0
C1457 C 0.91706 0.54159 0.56265 0.0
C1458 C 0.9353 0.52729 0.56042 0.0
H1459 H 0.95058 0.45804 0.54303 0.0
H1460 H 0.94264 0.47816 0.56362 0.0
H1461 H 0.93395 0.48184 0.53538 0.0
H1462 H 0.947 0.53627 0.50592 0.0
H1463 H 0.91496 0.56105 0.50961 0.0
H1464 H 0.45656 0.42531 0.84515 0.0
H1465 H 0.47902 0.45905 0.84271 0.0
H1466 H 0.47743 0.45512 0.77137 0.0
H1467 H 0.45471 0.42138 0.77368 0.0
H1468 H 0.51904 0.46953 0.82472 0.0
H1469 H 0.45241 0.51664 0.7819 0.0
H1470 H 0.44768 0.4897 0.79414 0.0
H1471 H 0.46096 0.49197 0.76751 0.0
C1472 C 0.4614 0.43129 0.82891 0.0
C1473 C 0.45375 0.42062 0.8096 0.0
C1474 C 0.47411 0.45074 0.82755 0.0
C1475 C 0.47946 0.46 0.80686 0.0
C1476 C 0.47296 0.44869 0.78753 0.0
H1477 H 0.55455 0.57874 0.77046 0.0
H1478 H 0.53236 0.54452 0.77013 0.0
C1479 C 0.46012 0.4293 0.78887 0.0
C1480 C 0.49135 0.48172 0.80568 0.0
H1481 H 0.48696 0.53505 0.78642 0.0
C1482 C 0.51199 0.48384 0.81636 0.0
C1483 C 0.48213 0.50049 0.79486 0.0
C1484 C 0.45949 0.49973 0.78413 0.0
C1485 C 0.52371 0.50407 0.81633 0.0
C1486 C 0.51449 0.52278 0.80552 0.0
C1487 C 0.49398 0.52067 0.79468 0.0
C1488 C 0.52599 0.54466 0.80541 0.0
C1489 C 0.54604 0.50522 0.82766 0.0
C1490 C 0.52904 0.55653 0.82521 0.0
C1491 C 0.5416 0.57613 0.82544 0.0
C1492 C 0.55141 0.58424 0.80585 0.0
C1493 C 0.54737 0.57287 0.78585 0.0
C1494 C 0.53468 0.55333 0.78563 0.0
H1495 H 0.55292 0.48843 0.83105 0.0
H1496 H 0.55815 0.51462 0.81739 0.0
H1497 H 0.5442 0.51405 0.84371 0.0
H1498 H 0.52223 0.55028 0.84062 0.0
H1499 H 0.54459 0.58426 0.84117 0.0
H1500 H 0.42547 0.0532 0.01623 0.0
H1501 H 0.45942 0.03071 0.01536 0.0
H1502 H 0.45541 0.02213 0.08622 0.0
H1503 H 0.42133 0.04415 0.08709 0.0
H1504 H 0.49828 0.04006 0.03434 0.0
H1505 H 0.46858 0.95971 0.06775 0.0
H1506 H 0.44973 0.98124 0.05885 0.0
H1507 H 0.46225 0.98241 0.08594 0.0
C1508 C 0.4316 0.04612 0.03155 0.0
C1509 C 0.42056 0.0503 0.0517 0.0
C1510 C 0.45104 0.03332 0.03105 0.0
C1511 C 0.45993 0.02445 0.05069 0.0
C1512 C 0.44865 0.02821 0.07075 0.0
H1513 H 0.58352 0.96121 0.08911 0.0
H1514 H 0.54946 0.9834 0.08729 0.0
C1515 C 0.42909 0.04082 0.07123 0.0
C1516 C 0.48174 0.01265 0.05041 0.0
H1517 H 0.50799 0.96509 0.06705 0.0
C1518 C 0.50032 0.02357 0.0413 0.0
C1519 C 0.48452 0.99112 0.05951 0.0
C1520 C 0.46516 0.97785 0.06835 0.0
C1521 C 0.52156 0.01378 0.04148 0.0
C1522 C 0.52435 0.99252 0.05098 0.0
C1523 C 0.50583 0.98151 0.05994 0.0
C1524 C 0.5463 0.98123 0.05166 0.0
C1525 C 0.54101 0.02639 0.03194 0.0
C1526 C 0.55607 0.97302 0.03217 0.0
C1527 C 0.57557 0.96032 0.03315 0.0
C1528 C 0.58573 0.95569 0.05364 0.0
C1529 C 0.57638 0.96478 0.07303 0.0
C1530 C 0.55679 0.97729 0.07205 0.0
H1531 H 0.53686 0.04407 0.02863 0.0
H1532 H 0.55543 0.02571 0.04342 0.0
H1533 H 0.54614 0.01854 0.0161 0.0
H1534 H 0.54816 0.97572 0.01628 0.0
H1535 H 0.58234 0.95355 0.01794 0.0
H1536 H 0.09149 0.44765 0.97388 0.0
H1537 H 0.06728 0.48002 0.97585 0.0
H1538 H 0.01015 0.43831 0.9644 0.0
H1539 H 0.0344 0.40545 0.96277 0.0
H1540 H 0.0381 0.49464 0.94107 0.0
H1541 H 0.99331 0.47676 0.01976 0.0
H1542 H 0.01935 0.46359 0.01267 0.0
H1543 H 0.99407 0.45471 0.99961 0.0
C1544 C 0.07373 0.44516 0.97231 0.0
C1545 C 0.06488 0.4238 0.96853 0.0
C1546 C 0.05993 0.46379 0.97321 0.0
C1547 C 0.03692 0.46159 0.97048 0.0
C1548 C 0.02788 0.44034 0.96685 0.0
H1549 H 0.92834 0.55554 0.96895 0.0
H1550 H 0.95235 0.523 0.96963 0.0
C1551 C 0.04175 0.4216 0.96581 0.0
C1552 C 0.0227 0.48178 0.9706 0.0
H1553 H 0.98201 0.5085 0.99975 0.0
C1554 C 0.02584 0.49772 0.9539 0.0
C1555 C 1.00675 0.48572 0.98736 0.0
C1556 C 1.00317 0.46942 1.00601 0.0
C1557 C 0.01318 0.51735 0.95327 0.0
C1558 C 0.99734 0.52145 0.97017 0.0
C1559 C 0.99423 0.50545 0.98688 0.0
C1560 C 0.98307 0.54168 0.97028 0.0
C1561 C 0.01646 0.53319 0.93416 0.0
C1562 C 0.99228 0.56318 0.9707 0.0
C1563 C 0.97849 0.58201 0.9703 0.0
C1564 C 0.95523 0.57964 0.96987 0.0
C1565 C 0.94615 0.55805 0.96978 0.0
C1566 C 0.95988 0.53936 0.97003 0.0
H1567 H 0.02469 0.52496 0.91985 0.0
H1568 H 1.00035 0.54016 0.92851 0.0
H1569 H 0.02722 0.54715 0.93957 0.0
H1570 H 0.01012 0.56543 0.97138 0.0
H1571 H 0.986 0.59836 0.9705 0.0
H1572 H 0.43549 0.47251 0.20197 0.0
H1573 H 0.46998 0.49373 0.20461 0.0
H1574 H 0.4865 0.4598 0.26526 0.0
H1575 H 0.45167 0.4388 0.26314 0.0
H1576 H 0.48672 0.52177 0.24005 0.0
H1577 H 0.54054 0.44858 0.22276 0.0
H1578 H 0.51112 0.44877 0.21678 0.0
H1579 H 0.52058 0.44549 0.24478 0.0
C1580 C 0.44613 0.46985 0.21618 0.0
C1581 C 0.44069 0.45383 0.23233 0.0
C1582 C 0.46598 0.48189 0.21754 0.0
C1583 C 0.48096 0.47808 0.23492 0.0
C1584 C 0.47535 0.46269 0.25147 0.0
H1585 H 0.59623 0.56134 0.26479 0.0
H1586 H 0.56391 0.53681 0.2681 0.0
C1587 C 0.45541 0.4507 0.25022 0.0
C1588 C 0.50256 0.49005 0.23545 0.0
H1589 H 0.55868 0.48268 0.22989 0.0
C1590 C 0.50247 0.51323 0.23798 0.0
C1591 C 0.52305 0.47887 0.23245 0.0
C1592 C 0.52399 0.45407 0.22886 0.0
C1593 C 0.52233 0.52553 0.23767 0.0
C1594 C 0.54284 0.51434 0.2349 0.0
C1595 C 0.54295 0.49117 0.23226 0.0
C1596 C 0.56418 0.52671 0.23371 0.0
C1597 C 0.52122 0.5505 0.23977 0.0
C1598 C 0.57565 0.52836 0.21352 0.0
C1599 C 0.59408 0.54244 0.21152 0.0
C1600 C 0.60146 0.55509 0.22974 0.0
C1601 C 0.5908 0.55215 0.25033 0.0
C1602 C 0.57232 0.53814 0.25227 0.0
H1603 H 0.504 0.55687 0.23778 0.0
H1604 H 0.5273 0.5555 0.2564 0.0
H1605 H 0.53204 0.55856 0.22719 0.0
H1606 H 0.56965 0.51962 0.199 0.0
H1607 H 0.60165 0.54445 0.19535 0.0
H1608 H 0.55181 0.93026 0.43676 0.0
H1609 H 0.52961 0.96427 0.43792 0.0
H1610 H 0.53587 0.96615 0.50909 0.0
H1611 H 0.55844 0.93227 0.508 0.0
H1612 H 0.4911 0.97665 0.45718 0.0
H1613 H 0.5602 0.02636 0.49255 0.0
H1614 H 0.5641 0.99847 0.48228 0.0
H1615 H 0.55245 1.00304 0.50939 0.0
C1616 C 0.54807 0.93763 0.45272 0.0
C1617 C 0.55699 0.92859 0.47229 0.0
C1618 C 0.53551 0.9572 0.45334 0.0
C1619 C 0.53156 0.96817 0.47353 0.0
C1620 C 0.53928 0.95842 0.49324 0.0
H1621 H 0.45637 0.08772 0.50598 0.0
H1622 H 0.479 0.05382 0.50736 0.0
C1623 C 0.55201 0.93894 0.49261 0.0
C1624 C 0.51983 0.98999 0.47378 0.0
H1625 H 0.52531 0.04448 0.48926 0.0
C1626 C 0.49863 0.99146 0.46415 0.0
C1627 C 0.52969 0.00944 0.48276 0.0
C1628 C 0.55294 0.00938 0.49213 0.0
C1629 C 0.48694 0.01169 0.46351 0.0
C1630 C 0.49674 0.03102 0.47261 0.0
C1631 C 0.51785 0.0296 0.48235 0.0
C1632 C 0.48519 0.05282 0.47208 0.0
C1633 C 0.46406 0.01225 0.45331 0.0
C1634 C 0.4819 0.06391 0.4519 0.0
C1635 C 0.46914 0.08335 0.45107 0.0
C1636 C 0.45932 0.09201 0.47042 0.0
C1637 C 0.4636 0.08143 0.49078 0.0
C1638 C 0.47652 0.06207 0.4916 0.0
H1639 H 0.45723 0.99529 0.45064 0.0
H1640 H 0.45239 0.02174 0.46399 0.0
H1641 H 0.46494 0.02076 0.43702 0.0
H1642 H 0.48862 0.05713 0.43666 0.0
H1643 H 0.46594 0.09087 0.43508 0.0
H1644 H 0.08586 0.05781 0.75934 0.0
H1645 H 0.05207 0.0354 0.7602 0.0
H1646 H 0.06439 0.01399 0.69309 0.0
H1647 H 0.0976 0.03734 0.69166 0.0
H1648 H 0.02245 0.02778 0.69782 0.0
H1649 H 0.04211 0.96991 0.76635 0.0
H1650 H 0.04455 0.99849 0.77446 0.0
H1651 H 0.06293 0.98735 0.75366 0.0
C1652 C 0.08153 0.04821 0.74479 0.0
C1653 C 0.09453 0.04951 0.7254 0.0
C1654 C 0.06225 0.03519 0.7454 0.0
C1655 C 0.0557 0.0228 0.72678 0.0
C1656 C 0.06909 0.02335 0.70769 0.0
H1657 H 0.95508 0.92104 0.72249 0.0
H1658 H 0.98875 0.94339 0.72392 0.0
C1659 C 0.08829 0.03652 0.70701 0.0
C1660 C 0.03424 0.0104 0.72671 0.0
H1661 H 1.0044 0.97086 0.75442 0.0
C1662 C 0.01854 0.01525 0.71015 0.0
C1663 C 0.02913 0.99395 0.7427 0.0
C1664 C 0.04565 0.98694 0.76015 0.0
C1665 C 0.99797 1.00417 0.70912 0.0
C1666 C 0.99262 0.98816 0.72548 0.0
C1667 C 0.00832 0.98332 0.74204 0.0
C1668 C 0.97162 0.97499 0.72485 0.0
C1669 C 0.9825 0.00924 0.69011 0.0
C1670 C 0.95057 0.98523 0.72504 0.0
C1671 C 0.93109 0.97237 0.7241 0.0
C1672 C 0.93234 0.94904 0.72343 0.0
C1673 C 0.95345 0.93894 0.7235 0.0
C1674 C 0.97278 0.95172 0.7242 0.0
H1675 H 0.99136 0.01738 0.67613 0.0
H1676 H 0.97444 0.99387 0.68384 0.0
H1677 H 0.96929 0.02073 0.6959 0.0
H1678 H 0.94918 1.00314 0.72601 0.0
H1679 H 0.91509 0.98062 0.72411 0.0
H1680 H 0.34397 0.07771 0.4358 0.0
H1681 H 0.3139 0.05497 0.41999 0.0
H1682 H 0.27652 0.11453 0.40619 0.0
H1683 H 0.30637 0.13723 0.42153 0.0
H1684 H 0.2537 0.06957 0.42701 0.0
H1685 H 0.30057 0.06508 0.3477 0.0
H1686 H 0.31349 0.06039 0.37435 0.0
H1687 H 0.30697 0.08816 0.36564 0.0
C1688 C 0.32909 0.08585 0.42981 0.0
C1689 C 0.32744 0.1092 0.42969 0.0
C1690 C 0.31204 0.07285 0.42083 0.0
C1691 C 0.29317 0.08317 0.41203 0.0
C1692 C 0.29103 0.10636 0.41306 0.0
H1693 H 0.20759 0.13784 0.35289 0.0
H1694 H 0.23776 0.11506 0.36743 0.0
C1695 C 0.30807 0.1193 0.42172 0.0
C1696 C 0.27634 0.07083 0.39942 0.0
H1697 H 0.26115 0.07128 0.34521 0.0
C1698 C 0.25532 0.06846 0.40913 0.0
C1699 C 0.27868 0.06911 0.3762 0.0
C1700 C 0.30117 0.07064 0.36525 0.0
C1701 C 0.23618 0.06847 0.39594 0.0
C1702 C 0.23849 0.07117 0.37281 0.0
C1703 C 0.25954 0.06943 0.36302 0.0
C1704 C 0.22146 0.08369 0.36069 0.0
C1705 C 0.21368 0.0693 0.40695 0.0
C1706 C 0.20268 0.07341 0.35165 0.0
C1707 C 0.18544 0.08645 0.34315 0.0
C1708 C 0.18681 0.1098 0.34396 0.0
C1709 C 0.20609 0.11991 0.35217 0.0
C1710 C 0.22332 0.10693 0.36037 0.0
H1711 H 0.21437 0.06319 0.42431 0.0
H1712 H 0.20761 0.08673 0.40714 0.0
H1713 H 0.20151 0.05915 0.39752 0.0
H1714 H 0.20103 0.05548 0.35193 0.0
H1715 H 0.17064 0.07829 0.33695 0.0
H1716 H 0.87485 0.7111 0.5926 0.0
H1717 H 0.89873 0.74024 0.60765 0.0
H1718 H 0.95511 0.696 0.60495 0.0
H1719 H 0.93128 0.66685 0.58911 0.0
H1720 H 0.94072 0.71392 0.64898 0.0
H1721 H 0.95326 0.77967 0.58648 0.0
H1722 H 0.92611 0.7674 0.58447 0.0
H1723 H 0.95033 0.75057 0.57931 0.0
C1724 C 0.89245 0.70783 0.59461 0.0
C1725 C 0.90129 0.68686 0.58985 0.0
C1726 C 0.90611 0.72448 0.60298 0.0
C1727 C 0.9287 0.72027 0.60707 0.0
C1728 C 0.93781 0.6996 0.60149 0.0
H1729 H 0.93758 0.84029 0.68368 0.0
H1730 H 0.95909 0.80932 0.66804 0.0
C1731 C 0.9242 0.68304 0.59255 0.0
C1732 C 0.9409 0.73617 0.62099 0.0
H1733 H 0.94399 0.79242 0.62431 0.0
C1734 C 0.94267 0.73101 0.64358 0.0
C1735 C 0.94393 0.75828 0.61386 0.0
C1736 C 0.94355 0.76428 0.58963 0.0
C1737 C 0.9431 0.74797 0.65946 0.0
C1738 C 0.94191 0.77024 0.6523 0.0
C1739 C 0.9445 0.77523 0.62974 0.0
C1740 C 0.93091 0.78712 0.6661 0.0
C1741 C 0.94183 0.74202 0.68368 0.0
C1742 C 0.90805 0.78466 0.67021 0.0
C1743 C 0.89569 0.80236 0.6785 0.0
C1744 C 0.90612 0.82263 0.68311 0.0
C1745 C 0.92925 0.82467 0.68034 0.0
C1746 C 0.94156 0.80707 0.67152 0.0
H1747 H 0.95034 0.72597 0.68697 0.0
H1748 H 0.94941 0.75521 0.69412 0.0
H1749 H 0.92413 0.74017 0.68855 0.0
H1750 H 0.89949 0.76948 0.66565 0.0
H1751 H 0.8779 0.80044 0.68057 0.0
H1752 H 0.21811 0.38475 0.92754 0.0
H1753 H 0.24682 0.41038 0.91472 0.0
H1754 H 0.20131 0.46539 0.92157 0.0
H1755 H 0.17262 0.43977 0.93515 0.0
H1756 H 0.21838 0.45551 0.87706 0.0
H1757 H 0.28631 0.46329 0.93767 0.0
H1758 H 0.27434 0.43597 0.93859 0.0
H1759 H 0.25749 0.45969 0.94574 0.0
C1760 C 0.21449 0.40238 0.92699 0.0
C1761 C 0.19327 0.41034 0.93217 0.0
C1762 C 0.23091 0.41705 0.91992 0.0
C1763 C 0.22621 0.43981 0.91755 0.0
C1764 C 0.20532 0.44797 0.92373 0.0
H1765 H 0.34368 0.44061 0.84133 0.0
H1766 H 0.31534 0.46622 0.85564 0.0
C1767 C 0.189 0.43332 0.93136 0.0
C1768 C 0.2416 0.45325 0.90418 0.0
H1769 H 0.29773 0.45432 0.89895 0.0
C1770 C 0.23571 0.45656 0.88193 0.0
C1771 C 0.26403 0.45537 0.91061 0.0
C1772 C 0.27087 0.45364 0.93456 0.0
C1773 C 0.25211 0.4569 0.86546 0.0
C1774 C 0.2745 0.45407 0.87173 0.0
C1775 C 0.28042 0.45591 0.89415 0.0
C1776 C 0.28967 0.44115 0.85759 0.0
C1777 C 0.24525 0.45681 0.84146 0.0
C1778 C 0.2844 0.41871 0.85375 0.0
C1779 C 0.30061 0.40401 0.84628 0.0
C1780 C 0.32218 0.41165 0.84216 0.0
C1781 C 0.32702 0.43443 0.84429 0.0
C1782 C 0.31091 0.44908 0.85233 0.0
H1783 H 0.23005 0.467 0.83899 0.0
H1784 H 0.25877 0.46324 0.83067 0.0
H1785 H 0.24135 0.43952 0.83633 0.0
H1786 H 0.26822 0.41218 0.85823 0.0
H1787 H 0.29656 0.38653 0.84469 0.0
H1788 H 0.6327 0.80118 0.09363 0.0
H1789 H 0.61097 0.77059 0.10903 0.0
H1790 H 0.55237 0.81192 0.10964 0.0
H1791 H 0.57401 0.84254 0.09349 0.0
H1792 H 0.56876 0.79466 0.15239 0.0
H1793 H 0.55852 0.72814 0.09031 0.0
H1794 H 0.58497 0.74172 0.08757 0.0
H1795 H 0.55983 0.75731 0.083 0.0
C1796 C 0.61505 0.8035 0.09643 0.0
C1797 C 0.60499 0.82409 0.09254 0.0
C1798 C 0.6026 0.78601 0.10499 0.0
C1799 C 0.58002 0.78899 0.11014 0.0
C1800 C 0.56966 0.80926 0.10536 0.0
H1801 H 0.58019 0.66885 0.18723 0.0
H1802 H 0.55654 0.69842 0.17203 0.0
C1803 C 0.58204 0.82667 0.09625 0.0
C1804 C 0.56927 0.77235 0.12441 0.0
H1805 H 0.56968 0.71603 0.12788 0.0
C1806 C 0.56774 0.77747 0.14705 0.0
C1807 C 0.56743 0.75007 0.11739 0.0
C1808 C 0.56753 0.744 0.09317 0.0
C1809 C 0.56869 0.76057 0.16295 0.0
C1810 C 0.57105 0.73839 0.15579 0.0
C1811 C 0.56827 0.73317 0.1333 0.0
C1812 C 0.58332 0.72224 0.16936 0.0
C1813 C 0.57014 0.76668 0.18712 0.0
C1814 C 0.60607 0.72606 0.17293 0.0
C1815 C 0.61963 0.70916 0.18096 0.0
C1816 C 0.61052 0.68833 0.18587 0.0
C1817 C 0.58749 0.68492 0.18366 0.0
C1818 C 0.57398 0.70172 0.17509 0.0
H1819 H 0.56078 0.78221 0.1906 0.0
H1820 H 0.56359 0.75311 0.19777 0.0
H1821 H 0.58782 0.76959 0.19156 0.0
H1822 H 0.61363 0.7417 0.16814 0.0
H1823 H 0.63732 0.71213 0.1826 0.0
H1824 H 0.66838 0.57464 0.83759 0.0
H1825 H 0.69926 0.55322 0.85355 0.0
H1826 H 0.73493 0.6142 0.86578 0.0
H1827 H 0.70424 0.63562 0.8503 0.0
H1828 H 0.75928 0.56975 0.84653 0.0
H1829 H 0.71139 0.5655 0.92536 0.0
H1830 H 0.69899 0.55956 0.89872 0.0
H1831 H 0.70466 0.58777 0.90657 0.0
C1832 C 0.68308 0.58338 0.84322 0.0
C1833 C 0.68398 0.60676 0.84293 0.0
C1834 C 0.7006 0.57113 0.85228 0.0
C1835 C 0.71918 0.58223 0.86076 0.0
C1836 C 0.72065 0.60544 0.85917 0.0
H1837 H 0.80691 0.6364 0.92228 0.0
H1838 H 0.77611 0.61505 0.90682 0.0
C1839 C 0.70312 0.61764 0.85043 0.0
C1840 C 0.73623 0.57072 0.8738 0.0
H1841 H 0.75066 0.57128 0.92826 0.0
C1842 C 0.75742 0.56866 0.86439 0.0
C1843 C 0.73357 0.56912 0.897 0.0
C1844 C 0.71091 0.57044 0.90763 0.0
C1845 C 0.77636 0.56875 0.87785 0.0
C1846 C 0.7737 0.57124 0.90097 0.0
C1847 C 0.75252 0.56954 0.91045 0.0
C1848 C 0.79087 0.58297 0.91367 0.0
C1849 C 0.79902 0.56965 0.86719 0.0
C1850 C 0.80891 0.57181 0.92312 0.0
C1851 C 0.82648 0.58402 0.93215 0.0
C1852 C 0.82619 0.60742 0.93147 0.0
C1853 C 0.80757 0.61842 0.92292 0.0
C1854 C 0.78999 0.60626 0.91417 0.0
H1855 H 0.79858 0.56379 0.84973 0.0
H1856 H 0.80517 0.58706 0.86737 0.0
H1857 H 0.81101 0.55933 0.87664 0.0
H1858 H 0.80978 0.55384 0.9227 0.0
H1859 H 0.84076 0.57517 0.9386 0.0
H1860 H 0.35937 0.20259 0.08617 0.0
H1861 H 0.37611 0.23837 0.09493 0.0
H1862 H 0.44141 0.20871 0.09323 0.0
H1863 H 0.4246 0.17261 0.08394 0.0
H1864 H 0.42849 0.22933 0.13405 0.0
H1865 H 0.41462 0.28605 0.0638 0.0
H1866 H 0.39089 0.26849 0.06807 0.0
H1867 H 0.41715 0.25625 0.06042 0.0
C1868 C 0.37732 0.20379 0.0872 0.0
C1869 C 0.39074 0.18497 0.08465 0.0
C1870 C 0.38689 0.22426 0.09188 0.0
C1871 C 0.41001 0.22618 0.09431 0.0
C1872 C 0.42358 0.20754 0.09099 0.0
H1873 H 0.42415 0.34192 0.18186 0.0
H1874 H 0.43978 0.31258 0.15837 0.0
C1875 C 0.41398 0.18702 0.08584 0.0
C1876 C 0.41875 0.24663 0.10438 0.0
H1877 H 0.40835 0.30205 0.10108 0.0
C1878 C 0.42516 0.24544 0.12669 0.0
C1879 C 0.41463 0.26748 0.09456 0.0
C1880 C 0.40917 0.26965 0.07029 0.0
C1881 C 0.42405 0.26425 0.14032 0.0
C1882 C 0.41674 0.28452 0.13108 0.0
C1883 C 0.41354 0.2863 0.10813 0.0
C1884 C 0.40795 0.30237 0.14521 0.0
C1885 C 0.42813 0.26177 0.16487 0.0
C1886 C 0.38492 0.3061 0.14555 0.0
C1887 C 0.37596 0.32274 0.15886 0.0
C1888 C 0.38995 0.33585 0.17202 0.0
C1889 C 0.41299 0.33185 0.17196 0.0
C1890 C 0.42197 0.31523 0.15854 0.0
H1891 H 0.4328 0.24452 0.16948 0.0
H1892 H 0.44174 0.27309 0.17003 0.0
H1893 H 0.41297 0.26652 0.17427 0.0
H1894 H 0.37387 0.29611 0.13544 0.0
H1895 H 0.35817 0.32552 0.15863 0.0
H1896 H 0.80125 0.88192 0.34054 0.0
H1897 H 0.77121 0.904 0.35653 0.0
H1898 H 0.81336 0.96204 0.35645 0.0
H1899 H 0.8434 0.94006 0.33973 0.0
H1900 H 0.79728 0.94564 0.39944 0.0
H1901 H 0.72887 0.95694 0.33963 0.0
H1902 H 0.74185 0.93023 0.33664 0.0
H1903 H 0.75776 0.95503 0.33131 0.0
C1904 C 0.80383 0.89954 0.34324 0.0
C1905 C 0.82452 0.90933 0.33907 0.0
C1906 C 0.78665 0.91219 0.35216 0.0
C1907 C 0.79006 0.93469 0.35737 0.0
C1908 C 0.81037 0.94481 0.35215 0.0
H1909 H 0.67177 0.94005 0.43759 0.0
H1910 H 0.7022 0.9619 0.42144 0.0
C1911 C 0.82744 0.93224 0.3427 0.0
C1912 C 0.77402 0.94552 0.37226 0.0
H1913 H 0.71784 0.94676 0.37773 0.0
C1914 C 0.77994 0.94705 0.3947 0.0
C1915 C 0.75156 0.94782 0.36601 0.0
C1916 C 0.74466 0.94766 0.34202 0.0
C1917 C 0.76358 0.94678 0.4112 0.0
C1918 C 0.74109 0.94512 0.40487 0.0
C1919 C 0.7352 0.94768 0.38252 0.0
C1920 C 0.72482 0.93407 0.41935 0.0
C1921 C 0.77048 0.9455 0.43517 0.0
C1922 C 0.72772 0.91133 0.4237 0.0
C1923 C 0.71031 0.89877 0.43231 0.0
C1924 C 0.6899 0.90888 0.43702 0.0
C1925 C 0.68749 0.93196 0.4342 0.0
C1926 C 0.70479 0.94446 0.42507 0.0
H1927 H 0.78646 0.95435 0.43792 0.0
H1928 H 0.75754 0.95271 0.44617 0.0
H1929 H 0.7729 0.92782 0.43981 0.0
H1930 H 0.74295 0.90296 0.41893 0.0
H1931 H 0.7125 0.88102 0.43439 0.0
H1932 H 0.09203 0.17422 0.69671 0.0
H1933 H 0.0754 0.21054 0.68804 0.0
H1934 H 0.13982 0.23508 0.66826 0.0
H1935 H 0.15643 0.19917 0.67664 0.0
H1936 H 0.10876 0.26452 0.69809 0.0
H1937 H 0.07398 0.23131 0.61908 0.0
H1938 H 0.07013 0.21714 0.64518 0.0
H1939 H 0.0968 0.21672 0.63186 0.0
C1940 C 0.10262 0.1875 0.69074 0.0
C1941 C 0.12545 0.18393 0.68709 0.0
C1942 C 0.09311 0.20813 0.68589 0.0
C1943 C 0.10647 0.22529 0.67763 0.0
C1944 C 0.12935 0.22195 0.6748 0.0
H1945 H 0.15581 0.32869 0.61862 0.0
H1946 H 0.14095 0.29996 0.64303 0.0
C1947 C 0.13878 0.20142 0.67942 0.0
C1948 C 0.09706 0.24629 0.66966 0.0
H1949 H 0.08539 0.26893 0.6194 0.0
C1950 C 0.10266 0.2657 0.68121 0.0
C1951 C 0.08876 0.24767 0.64784 0.0
C1952 C 0.08193 0.22716 0.63516 0.0
C1953 C 0.10313 0.28621 0.67034 0.0
C1954 C 0.0983 0.28694 0.64745 0.0
C1955 C 0.0895 0.26815 0.63688 0.0
C1956 C 0.10662 0.30513 0.63343 0.0
C1957 C 0.11067 0.30653 0.68292 0.0
C1958 C 0.09234 0.31673 0.61925 0.0
C1959 C 0.10087 0.33298 0.60512 0.0
C1960 C 0.12379 0.33764 0.60491 0.0
C1961 C 0.1381 0.32556 0.61866 0.0
C1962 C 0.12957 0.30938 0.63277 0.0
H1963 H 0.10546 0.30556 0.70056 0.0
H1964 H 0.12909 0.30743 0.68254 0.0
H1965 H 0.10387 0.32199 0.67551 0.0
H1966 H 0.07465 0.3133 0.61923 0.0
H1967 H 0.08948 0.34215 0.59466 0.0
loop_
_geom_bond_atom_site_label_1
_geom_bond_atom_site_label_2
_geom_bond_distance
_geom_bond_site_symmetry_2
_ccdc_geom_bond_type
Co0 N4 2.148 . S
Co0 N10 2.128 . S
Co0 N20 2.194 . S
Co0 O25 2.351 . S
Co0 O26 2.155 . S
Co0 O27 2.096 . S
C1 N4 1.301 . S
C1 N5 1.328 . S
C1 H6 0.930 . S
C2 C3 1.333 . S
C2 N4 1.317 . S
C2 H7 0.930 . S
C3 C2 1.333 . S
C3 N5 1.350 . S
C3 H29 0.931 . S
N4 Co0 2.148 . S
N4 C1 1.301 . S
N4 C2 1.317 . S
N5 C1 1.328 . S
N5 C3 1.350 . S
H6 C1 0.930 . S
H7 C2 0.930 . S
C8 O9 1.224 . S
C8 O27 1.247 . S
O9 C8 1.224 . S
N10 Co0 2.128 . S
N10 C11 1.355 . S
N10 C13 1.311 . S
C11 N10 1.355 . S
C11 C12 1.363 . S
C11 H23 0.929 . S
C12 C11 1.363 . S
C12 N14 1.375 . S
C12 H30 0.931 . S
C13 N10 1.311 . S
C13 N14 1.347 . S
C13 H24 0.929 . S
N14 C12 1.375 . S
N14 C13 1.347 . S
C15 C18 1.365 . S
C15 N20 1.328 . S
C15 H21 0.929 . S
C16 C17 1.362 . S
C16 C19 1.378 . S
C16 H31 0.929 . S
C17 C16 1.362 . S
C17 C18 1.366 . S
C18 C15 1.365 . S
C18 C17 1.366 . S
C18 H32 0.930 . S
C19 C16 1.378 . S
C19 N20 1.315 . S
C19 H22 0.930 . S
N20 Co0 2.194 . S
N20 C15 1.328 . S
N20 C19 1.315 . S
H21 C15 0.929 . S
H22 C19 0.930 . S
H23 C11 0.929 . S
H24 C13 0.929 . S
O25 Co0 2.351 . S
O25 C28 1.244 . S
O26 Co0 2.155 . S
O26 C28 1.240 . S
O27 Co0 2.096 . S
O27 C8 1.247 . S
C28 O25 1.244 . S
C28 O26 1.240 . S
H29 C3 0.931 . S
H30 C12 0.931 . S
H31 C16 0.929 . S
H32 C18 0.930 . S
Co33 N37 2.148 . S
Co33 N43 2.128 . S
Co33 N53 2.194 . S
Co33 O58 2.351 . S
Co33 O59 2.155 . S
Co33 O60 2.096 . S
C34 N37 1.301 . S
C34 N38 1.328 . S
C34 H39 0.930 . S
C35 C36 1.333 . S
C35 N37 1.317 . S
C35 H40 0.930 . S
C36 C35 1.333 . S
C36 N38 1.350 . S
C36 H62 0.931 . S
N37 Co33 2.148 . S
N37 C34 1.301 . S
N37 C35 1.317 . S
N38 C34 1.328 . S
N38 C36 1.350 . S
H39 C34 0.930 . S
H40 C35 0.930 . S
C41 O42 1.224 . S
C41 O60 1.247 . S
O42 C41 1.224 . S
N43 Co33 2.128 . S
N43 C44 1.355 . S
N43 C46 1.311 . S
C44 N43 1.355 . S
C44 C45 1.363 . S
C44 H56 0.929 . S
C45 C44 1.363 . S
C45 N47 1.375 . S
C45 H63 0.931 . S
C46 N43 1.311 . S
C46 N47 1.347 . S
C46 H57 0.929 . S
N47 C45 1.375 . S
N47 C46 1.347 . S
C48 C51 1.365 . S
C48 N53 1.328 . S
C48 H54 0.929 . S
C49 C50 1.362 . S
C49 C52 1.378 . S
C49 H64 0.929 . S
C50 C49 1.362 . S
C50 C51 1.366 . S
C51 C48 1.365 . S
C51 C50 1.366 . S
C51 H65 0.930 . S
C52 C49 1.378 . S
C52 N53 1.315 . S
C52 H55 0.930 . S
N53 Co33 2.194 . S
N53 C48 1.328 . S
N53 C52 1.315 . S
H54 C48 0.929 . S
H55 C52 0.930 . S
H56 C44 0.929 . S
H57 C46 0.929 . S
O58 Co33 2.351 . S
O58 C61 1.244 . S
O59 Co33 2.155 . S
O59 C61 1.240 . S
O60 Co33 2.096 . S
O60 C41 1.247 . S
C61 O58 1.244 . S
C61 O59 1.240 . S
H62 C36 0.931 . S
H63 C45 0.931 . S
H64 C49 0.929 . S
H65 C51 0.930 . S
Co66 N70 2.148 . S
Co66 N76 2.128 . S
Co66 N86 2.194 . S
Co66 O91 2.351 . S
Co66 O92 2.155 . S
Co66 O93 2.096 . S
C67 N70 1.301 . S
C67 N71 1.328 . S
C67 H72 0.930 . S
C68 C69 1.333 . S
C68 N70 1.317 . S
C68 H73 0.930 . S
C69 C68 1.333 . S
C69 N71 1.350 . S
C69 H95 0.931 . S
N70 Co66 2.148 . S
N70 C67 1.301 . S
N70 C68 1.317 . S
N71 C67 1.328 . S
N71 C69 1.350 . S
H72 C67 0.930 . S
H73 C68 0.930 . S
C74 O75 1.224 . S
C74 O93 1.247 . S
O75 C74 1.224 . S
N76 Co66 2.128 . S
N76 C77 1.355 . S
N76 C79 1.311 . S
C77 N76 1.355 . S
C77 C78 1.363 . S
C77 H89 0.929 . S
C78 C77 1.363 . S
C78 N80 1.375 . S
C78 H96 0.931 . S
C79 N76 1.311 . S
C79 N80 1.347 . S
C79 H90 0.929 . S
N80 C78 1.375 . S
N80 C79 1.347 . S
C81 C84 1.365 . S
C81 N86 1.328 . S
C81 H87 0.929 . S
C82 C83 1.362 . S
C82 C85 1.378 . S
C82 H97 0.929 . S
C83 C82 1.362 . S
C83 C84 1.366 . S
C84 C81 1.365 . S
C84 C83 1.366 . S
C84 H98 0.930 . S
C85 C82 1.378 . S
C85 N86 1.315 . S
C85 H88 0.930 . S
N86 Co66 2.194 . S
N86 C81 1.328 . S
N86 C85 1.315 . S
H87 C81 0.929 . S
H88 C85 0.930 . S
H89 C77 0.929 . S
H90 C79 0.929 . S
O91 Co66 2.351 . S
O91 C94 1.244 . S
O92 Co66 2.155 . S
O92 C94 1.240 . S
O93 Co66 2.096 . S
O93 C74 1.247 . S
C94 O91 1.244 . S
C94 O92 1.240 . S
H95 C69 0.931 . S
H96 C78 0.931 . S
H97 C82 0.929 . S
H98 C84 0.930 . S
Co99 N103 2.148 . S
Co99 N109 2.128 . S
Co99 N119 2.194 . S
Co99 O124 2.351 . S
Co99 O125 2.155 . S
Co99 O126 2.096 . S
C100 N103 1.301 . S
C100 N104 1.328 . S
C100 H105 0.930 . S
C101 C102 1.333 . S
C101 N103 1.317 . S
C101 H106 0.930 . S
C102 C101 1.333 . S
C102 N104 1.350 . S
C102 H128 0.931 . S
N103 Co99 2.148 . S
N103 C100 1.301 . S
N103 C101 1.317 . S
N104 C100 1.328 . S
N104 C102 1.350 . S
H105 C100 0.930 . S
H106 C101 0.930 . S
C107 O108 1.224 . S
C107 O126 1.247 . S
O108 C107 1.224 . S
N109 Co99 2.128 . S
N109 C110 1.355 . S
N109 C112 1.311 . S
C110 N109 1.355 . S
C110 C111 1.363 . S
C110 H122 0.929 . S
C111 C110 1.363 . S
C111 N113 1.375 . S
C111 H129 0.931 . S
C112 N109 1.311 . S
C112 N113 1.347 . S
C112 H123 0.929 . S
N113 C111 1.375 . S
N113 C112 1.347 . S
C114 C117 1.365 . S
C114 N119 1.328 . S
C114 H120 0.929 . S
C115 C116 1.362 . S
C115 C118 1.378 . S
C115 H130 0.929 . S
C116 C115 1.362 . S
C116 C117 1.366 . S
C117 C114 1.365 . S
C117 C116 1.366 . S
C117 H131 0.930 . S
C118 C115 1.378 . S
C118 N119 1.315 . S
C118 H121 0.930 . S
N119 Co99 2.194 . S
N119 C114 1.328 . S
N119 C118 1.315 . S
H120 C114 0.929 . S
H121 C118 0.930 . S
H122 C110 0.929 . S
H123 C112 0.929 . S
O124 Co99 2.351 . S
O124 C127 1.244 . S
O125 Co99 2.155 . S
O125 C127 1.240 . S
O126 Co99 2.096 . S
O126 C107 1.247 . S
C127 O124 1.244 . S
C127 O125 1.240 . S
H128 C102 0.931 . S
H129 C111 0.931 . S
H130 C115 0.929 . S
H131 C117 0.930 . S
Co132 N136 2.148 . S
Co132 N142 2.128 . S
Co132 N152 2.194 . S
Co132 O157 2.351 . S
Co132 O158 2.155 . S
Co132 O159 2.096 . S
C133 N136 1.301 . S
C133 N137 1.328 . S
C133 H138 0.930 . S
C134 C135 1.333 . S
C134 N136 1.317 . S
C134 H139 0.930 . S
C135 C134 1.333 . S
C135 N137 1.350 . S
C135 H161 0.931 . S
N136 Co132 2.148 . S
N136 C133 1.301 . S
N136 C134 1.317 . S
N137 C133 1.328 . S
N137 C135 1.350 . S
H138 C133 0.930 . S
H139 C134 0.930 . S
C140 O141 1.224 . S
C140 O159 1.247 . S
O141 C140 1.224 . S
N142 Co132 2.128 . S
N142 C143 1.355 . S
N142 C145 1.311 . S
C143 N142 1.355 . S
C143 C144 1.363 . S
C143 H155 0.929 . S
C144 C143 1.363 . S
C144 N146 1.375 . S
C144 H162 0.931 . S
C145 N142 1.311 . S
C145 N146 1.347 . S
C145 H156 0.929 . S
N146 C144 1.375 . S
N146 C145 1.347 . S
C147 C150 1.365 . S
C147 N152 1.328 . S
C147 H153 0.929 . S
C148 C149 1.362 . S
C148 C151 1.378 . S
C148 H163 0.929 . S
C149 C148 1.362 . S
C149 C150 1.366 . S
C150 C147 1.365 . S
C150 C149 1.366 . S
C150 H164 0.930 . S
C151 C148 1.378 . S
C151 N152 1.315 . S
C151 H154 0.930 . S
N152 Co132 2.194 . S
N152 C147 1.328 . S
N152 C151 1.315 . S
H153 C147 0.929 . S
H154 C151 0.930 . S
H155 C143 0.929 . S
H156 C145 0.929 . S
O157 Co132 2.351 . S
O157 C160 1.244 . S
O158 Co132 2.155 . S
O158 C160 1.240 . S
O159 Co132 2.096 . S
O159 C140 1.247 . S
C160 O157 1.244 . S
C160 O158 1.240 . S
H161 C135 0.931 . S
H162 C144 0.931 . S
H163 C148 0.929 . S
H164 C150 0.930 . S
Co165 N169 2.148 . S
Co165 N175 2.128 . S
Co165 N185 2.194 . S
Co165 O190 2.351 . S
Co165 O191 2.155 . S
Co165 O192 2.096 . S
C166 N169 1.301 . S
C166 N170 1.328 . S
C166 H171 0.930 . S
C167 C168 1.333 . S
C167 N169 1.317 . S
C167 H172 0.930 . S
C168 C167 1.333 . S
C168 N170 1.350 . S
C168 H194 0.931 . S
N169 Co165 2.148 . S
N169 C166 1.301 . S
N169 C167 1.317 . S
N170 C166 1.328 . S
N170 C168 1.350 . S
H171 C166 0.930 . S
H172 C167 0.930 . S
C173 O174 1.224 . S
C173 O192 1.247 . S
O174 C173 1.224 . S
N175 Co165 2.128 . S
N175 C176 1.355 . S
N175 C178 1.311 . S
C176 N175 1.355 . S
C176 C177 1.363 . S
C176 H188 0.929 . S
C177 C176 1.363 . S
C177 N179 1.375 . S
C177 H195 0.931 . S
C178 N175 1.311 . S
C178 N179 1.347 . S
C178 H189 0.929 . S
N179 C177 1.375 . S
N179 C178 1.347 . S
C180 C183 1.365 . S
C180 N185 1.328 . S
C180 H186 0.929 . S
C181 C182 1.362 . S
C181 C184 1.378 . S
C181 H196 0.929 . S
C182 C181 1.362 . S
C182 C183 1.366 . S
C183 C180 1.365 . S
C183 C182 1.366 . S
C183 H197 0.930 . S
C184 C181 1.378 . S
C184 N185 1.315 . S
C184 H187 0.930 . S
N185 Co165 2.194 . S
N185 C180 1.328 . S
N185 C184 1.315 . S
H186 C180 0.929 . S
H187 C184 0.930 . S
H188 C176 0.929 . S
H189 C178 0.929 . S
O190 Co165 2.351 . S
O190 C193 1.244 . S
O191 Co165 2.155 . S
O191 C193 1.240 . S
O192 Co165 2.096 . S
O192 C173 1.247 . S
C193 O190 1.244 . S
C193 O191 1.240 . S
H194 C168 0.931 . S
H195 C177 0.931 . S
H196 C181 0.929 . S
H197 C183 0.930 . S
Co198 N202 2.148 . S
Co198 N208 2.128 . S
Co198 N218 2.194 . S
Co198 O223 2.351 . S
Co198 O224 2.155 . S
Co198 O225 2.096 . S
C199 N202 1.301 . S
C199 N203 1.328 . S
C199 H204 0.930 . S
C200 C201 1.333 . S
C200 N202 1.317 . S
C200 H205 0.930 . S
C201 C200 1.333 . S
C201 N203 1.350 . S
C201 H227 0.931 . S
N202 Co198 2.148 . S
N202 C199 1.301 . S
N202 C200 1.317 . S
N203 C199 1.328 . S
N203 C201 1.350 . S
H204 C199 0.930 . S
H205 C200 0.930 . S
C206 O207 1.224 . S
C206 O225 1.247 . S
O207 C206 1.224 . S
N208 Co198 2.128 . S
N208 C209 1.355 . S
N208 C211 1.311 . S
C209 N208 1.355 . S
C209 C210 1.363 . S
C209 H221 0.929 . S
C210 C209 1.363 . S
C210 N212 1.375 . S
C210 H228 0.931 . S
C211 N208 1.311 . S
C211 N212 1.347 . S
C211 H222 0.929 . S
N212 C210 1.375 . S
N212 C211 1.347 . S
C213 C216 1.365 . S
C213 N218 1.328 . S
C213 H219 0.929 . S
C214 C215 1.362 . S
C214 C217 1.378 . S
C214 H229 0.929 . S
C215 C214 1.362 . S
C215 C216 1.366 . S
C216 C213 1.365 . S
C216 C215 1.366 . S
C216 H230 0.930 . S
C217 C214 1.378 . S
C217 N218 1.315 . S
C217 H220 0.930 . S
N218 Co198 2.194 . S
N218 C213 1.328 . S
N218 C217 1.315 . S
H219 C213 0.929 . S
H220 C217 0.930 . S
H221 C209 0.929 . S
H222 C211 0.929 . S
O223 Co198 2.351 . S
O223 C226 1.244 . S
O224 Co198 2.155 . S
O224 C226 1.240 . S
O225 Co198 2.096 . S
O225 C206 1.247 . S
C226 O223 1.244 . S
C226 O224 1.240 . S
H227 C201 0.931 . S
H228 C210 0.931 . S
H229 C214 0.929 . S
H230 C216 0.930 . S
Co231 N235 2.148 . S
Co231 N241 2.128 . S
Co231 N251 2.194 . S
Co231 O256 2.351 . S
Co231 O257 2.155 . S
Co231 O258 2.096 . S
C232 N235 1.301 . S
C232 N236 1.328 . S
C232 H237 0.930 . S
C233 C234 1.333 . S
C233 N235 1.317 . S
C233 H238 0.930 . S
C234 C233 1.333 . S
C234 N236 1.350 . S
C234 H260 0.931 . S
N235 Co231 2.148 . S
N235 C232 1.301 . S
N235 C233 1.317 . S
N236 C232 1.328 . S
N236 C234 1.350 . S
H237 C232 0.930 . S
H238 C233 0.930 . S
C239 O240 1.224 . S
C239 O258 1.247 . S
O240 C239 1.224 . S
N241 Co231 2.128 . S
N241 C242 1.355 . S
N241 C244 1.311 . S
C242 N241 1.355 . S
C242 C243 1.363 . S
C242 H254 0.929 . S
C243 C242 1.363 . S
C243 N245 1.375 . S
C243 H261 0.931 . S
C244 N241 1.311 . S
C244 N245 1.347 . S
C244 H255 0.929 . S
N245 C243 1.375 . S
N245 C244 1.347 . S
C246 C249 1.365 . S
C246 N251 1.328 . S
C246 H252 0.929 . S
C247 C248 1.362 . S
C247 C250 1.378 . S
C247 H262 0.929 . S
C248 C247 1.362 . S
C248 C249 1.366 . S
C249 C246 1.365 . S
C249 C248 1.366 . S
C249 H263 0.930 . S
C250 C247 1.378 . S
C250 N251 1.315 . S
C250 H253 0.930 . S
N251 Co231 2.194 . S
N251 C246 1.328 . S
N251 C250 1.315 . S
H252 C246 0.929 . S
H253 C250 0.930 . S
H254 C242 0.929 . S
H255 C244 0.929 . S
O256 Co231 2.351 . S
O256 C259 1.244 . S
O257 Co231 2.155 . S
O257 C259 1.240 . S
O258 Co231 2.096 . S
O258 C239 1.247 . S
C259 O256 1.244 . S
C259 O257 1.240 . S
H260 C234 0.931 . S
H261 C243 0.931 . S
H262 C247 0.929 . S
H263 C249 0.930 . S
Co264 N268 2.148 . S
Co264 N274 2.128 . S
Co264 N284 2.194 . S
Co264 O289 2.351 . S
Co264 O290 2.155 . S
Co264 O291 2.096 . S
C265 N268 1.301 . S
C265 N269 1.328 . S
C265 H270 0.930 . S
C266 C267 1.333 . S
C266 N268 1.317 . S
C266 H271 0.930 . S
C267 C266 1.333 . S
C267 N269 1.350 . S
C267 H293 0.931 . S
N268 Co264 2.148 . S
N268 C265 1.301 . S
N268 C266 1.317 . S
N269 C265 1.328 . S
N269 C267 1.350 . S
H270 C265 0.930 . S
H271 C266 0.930 . S
C272 O273 1.224 . S
C272 O291 1.247 . S
O273 C272 1.224 . S
N274 Co264 2.128 . S
N274 C275 1.355 . S
N274 C277 1.311 . S
C275 N274 1.355 . S
C275 C276 1.363 . S
C275 H287 0.929 . S
C276 C275 1.363 . S
C276 N278 1.375 . S
C276 H294 0.931 . S
C277 N274 1.311 . S
C277 N278 1.347 . S
C277 H288 0.929 . S
N278 C276 1.375 . S
N278 C277 1.347 . S
C279 C282 1.365 . S
C279 N284 1.328 . S
C279 H285 0.929 . S
C280 C281 1.362 . S
C280 C283 1.378 . S
C280 H295 0.929 . S
C281 C280 1.362 . S
C281 C282 1.366 . S
C282 C279 1.365 . S
C282 C281 1.366 . S
C282 H296 0.930 . S
C283 C280 1.378 . S
C283 N284 1.315 . S
C283 H286 0.930 . S
N284 Co264 2.194 . S
N284 C279 1.328 . S
N284 C283 1.315 . S
H285 C279 0.929 . S
H286 C283 0.930 . S
H287 C275 0.929 . S
H288 C277 0.929 . S
O289 Co264 2.351 . S
O289 C292 1.244 . S
O290 Co264 2.155 . S
O290 C292 1.240 . S
O291 Co264 2.096 . S
O291 C272 1.247 . S
C292 O289 1.244 . S
C292 O290 1.240 . S
H293 C267 0.931 . S
H294 C276 0.931 . S
H295 C280 0.929 . S
H296 C282 0.930 . S
Co297 N301 2.148 . S
Co297 N307 2.128 . S
Co297 N317 2.194 . S
Co297 O322 2.351 . S
Co297 O323 2.155 . S
Co297 O324 2.096 . S
C298 N301 1.301 . S
C298 N302 1.328 . S
C298 H303 0.930 . S
C299 C300 1.333 . S
C299 N301 1.317 . S
C299 H304 0.930 . S
C300 C299 1.333 . S
C300 N302 1.350 . S
C300 H326 0.931 . S
N301 Co297 2.148 . S
N301 C298 1.301 . S
N301 C299 1.317 . S
N302 C298 1.328 . S
N302 C300 1.350 . S
H303 C298 0.930 . S
H304 C299 0.930 . S
C305 O306 1.224 . S
C305 O324 1.247 . S
O306 C305 1.224 . S
N307 Co297 2.128 . S
N307 C308 1.355 . S
N307 C310 1.311 . S
C308 N307 1.355 . S
C308 C309 1.363 . S
C308 H320 0.929 . S
C309 C308 1.363 . S
C309 N311 1.375 . S
C309 H327 0.931 . S
C310 N307 1.311 . S
C310 N311 1.347 . S
C310 H321 0.929 . S
N311 C309 1.375 . S
N311 C310 1.347 . S
C312 C315 1.365 . S
C312 N317 1.328 . S
C312 H318 0.929 . S
C313 C314 1.362 . S
C313 C316 1.378 . S
C313 H328 0.929 . S
C314 C313 1.362 . S
C314 C315 1.366 . S
C315 C312 1.365 . S
C315 C314 1.366 . S
C315 H329 0.930 . S
C316 C313 1.378 . S
C316 N317 1.315 . S
C316 H319 0.930 . S
N317 Co297 2.194 . S
N317 C312 1.328 . S
N317 C316 1.315 . S
H318 C312 0.929 . S
H319 C316 0.930 . S
H320 C308 0.929 . S
H321 C310 0.929 . S
O322 Co297 2.351 . S
O322 C325 1.244 . S
O323 Co297 2.155 . S
O323 C325 1.240 . S
O324 Co297 2.096 . S
O324 C305 1.247 . S
C325 O322 1.244 . S
C325 O323 1.240 . S
H326 C300 0.931 . S
H327 C309 0.931 . S
H328 C313 0.929 . S
H329 C315 0.930 . S
Co330 N334 2.148 . S
Co330 N340 2.128 . S
Co330 N350 2.194 . S
Co330 O355 2.351 . S
Co330 O356 2.155 . S
Co330 O357 2.096 . S
C331 N334 1.301 . S
C331 N335 1.328 . S
C331 H336 0.930 . S
C332 C333 1.333 . S
C332 N334 1.317 . S
C332 H337 0.930 . S
C333 C332 1.333 . S
C333 N335 1.350 . S
C333 H359 0.931 . S
N334 Co330 2.148 . S
N334 C331 1.301 . S
N334 C332 1.317 . S
N335 C331 1.328 . S
N335 C333 1.350 . S
H336 C331 0.930 . S
H337 C332 0.930 . S
C338 O339 1.224 . S
C338 O357 1.247 . S
O339 C338 1.224 . S
N340 Co330 2.128 . S
N340 C341 1.355 . S
N340 C343 1.311 . S
C341 N340 1.355 . S
C341 C342 1.363 . S
C341 H353 0.929 . S
C342 C341 1.363 . S
C342 N344 1.375 . S
C342 H360 0.931 . S
C343 N340 1.311 . S
C343 N344 1.347 . S
C343 H354 0.929 . S
N344 C342 1.375 . S
N344 C343 1.347 . S
C345 C348 1.365 . S
C345 N350 1.328 . S
C345 H351 0.929 . S
C346 C347 1.362 . S
C346 C349 1.378 . S
C346 H361 0.929 . S
C347 C346 1.362 . S
C347 C348 1.366 . S
C348 C345 1.365 . S
C348 C347 1.366 . S
C348 H362 0.930 . S
C349 C346 1.378 . S
C349 N350 1.315 . S
C349 H352 0.930 . S
N350 Co330 2.194 . S
N350 C345 1.328 . S
N350 C349 1.315 . S
H351 C345 0.929 . S
H352 C349 0.930 . S
H353 C341 0.929 . S
H354 C343 0.929 . S
O355 Co330 2.351 . S
O355 C358 1.244 . S
O356 Co330 2.155 . S
O356 C358 1.240 . S
O357 Co330 2.096 . S
O357 C338 1.247 . S
C358 O355 1.244 . S
C358 O356 1.240 . S
H359 C333 0.931 . S
H360 C342 0.931 . S
H361 C346 0.929 . S
H362 C348 0.930 . S
Co363 N367 2.148 . S
Co363 N373 2.128 . S
Co363 N383 2.194 . S
Co363 O388 2.351 . S
Co363 O389 2.155 . S
Co363 O390 2.096 . S
C364 N367 1.301 . S
C364 N368 1.328 . S
C364 H369 0.930 . S
C365 C366 1.333 . S
C365 N367 1.317 . S
C365 H370 0.930 . S
C366 C365 1.333 . S
C366 N368 1.350 . S
C366 H392 0.931 . S
N367 Co363 2.148 . S
N367 C364 1.301 . S
N367 C365 1.317 . S
N368 C364 1.328 . S
N368 C366 1.350 . S
H369 C364 0.930 . S
H370 C365 0.930 . S
C371 O372 1.224 . S
C371 O390 1.247 . S
O372 C371 1.224 . S
N373 Co363 2.128 . S
N373 C374 1.355 . S
N373 C376 1.311 . S
C374 N373 1.355 . S
C374 C375 1.363 . S
C374 H386 0.929 . S
C375 C374 1.363 . S
C375 N377 1.375 . S
C375 H393 0.931 . S
C376 N373 1.311 . S
C376 N377 1.347 . S
C376 H387 0.929 . S
N377 C375 1.375 . S
N377 C376 1.347 . S
C378 C381 1.365 . S
C378 N383 1.328 . S
C378 H384 0.929 . S
C379 C380 1.362 . S
C379 C382 1.378 . S
C379 H394 0.929 . S
C380 C379 1.362 . S
C380 C381 1.366 . S
C381 C378 1.365 . S
C381 C380 1.366 . S
C381 H395 0.930 . S
C382 C379 1.378 . S
C382 N383 1.315 . S
C382 H385 0.930 . S
N383 Co363 2.194 . S
N383 C378 1.328 . S
N383 C382 1.315 . S
H384 C378 0.929 . S
H385 C382 0.930 . S
H386 C374 0.929 . S
H387 C376 0.929 . S
O388 Co363 2.351 . S
O388 C391 1.244 . S
O389 Co363 2.155 . S
O389 C391 1.240 . S
O390 Co363 2.096 . S
O390 C371 1.247 . S
C391 O388 1.244 . S
C391 O389 1.240 . S
H392 C366 0.931 . S
H393 C375 0.931 . S
H394 C379 0.929 . S
H395 C381 0.930 . S
Co396 N400 2.148 . S
Co396 N406 2.128 . S
Co396 N416 2.194 . S
Co396 O421 2.351 . S
Co396 O422 2.155 . S
Co396 O423 2.096 . S
C397 N400 1.301 . S
C397 N401 1.328 . S
C397 H402 0.930 . S
C398 C399 1.333 . S
C398 N400 1.317 . S
C398 H403 0.930 . S
C399 C398 1.333 . S
C399 N401 1.350 . S
C399 H425 0.931 . S
N400 Co396 2.148 . S
N400 C397 1.301 . S
N400 C398 1.317 . S
N401 C397 1.328 . S
N401 C399 1.350 . S
H402 C397 0.930 . S
H403 C398 0.930 . S
C404 O405 1.224 . S
C404 O423 1.247 . S
O405 C404 1.224 . S
N406 Co396 2.128 . S
N406 C407 1.355 . S
N406 C409 1.311 . S
C407 N406 1.355 . S
C407 C408 1.363 . S
C407 H419 0.929 . S
C408 C407 1.363 . S
C408 N410 1.375 . S
C408 H426 0.931 . S
C409 N406 1.311 . S
C409 N410 1.347 . S
C409 H420 0.929 . S
N410 C408 1.375 . S
N410 C409 1.347 . S
C411 C414 1.365 . S
C411 N416 1.328 . S
C411 H417 0.929 . S
C412 C413 1.362 . S
C412 C415 1.378 . S
C412 H427 0.929 . S
C413 C412 1.362 . S
C413 C414 1.366 . S
C414 C411 1.365 . S
C414 C413 1.366 . S
C414 H428 0.930 . S
C415 C412 1.378 . S
C415 N416 1.315 . S
C415 H418 0.930 . S
N416 Co396 2.194 . S
N416 C411 1.328 . S
N416 C415 1.315 . S
H417 C411 0.929 . S
H418 C415 0.930 . S
H419 C407 0.929 . S
H420 C409 0.929 . S
O421 Co396 2.351 . S
O421 C424 1.244 . S
O422 Co396 2.155 . S
O422 C424 1.240 . S
O423 Co396 2.096 . S
O423 C404 1.247 . S
C424 O421 1.244 . S
C424 O422 1.240 . S
H425 C399 0.931 . S
H426 C408 0.931 . S
H427 C412 0.929 . S
H428 C414 0.930 . S
Co429 N433 2.148 . S
Co429 N439 2.128 . S
Co429 N449 2.194 . S
Co429 O454 2.351 . S
Co429 O455 2.155 . S
Co429 O456 2.096 . S
C430 N433 1.301 . S
C430 N434 1.328 . S
C430 H435 0.930 . S
C431 C432 1.333 . S
C431 N433 1.317 . S
C431 H436 0.930 . S
C432 C431 1.333 . S
C432 N434 1.350 . S
C432 H458 0.931 . S
N433 Co429 2.148 . S
N433 C430 1.301 . S
N433 C431 1.317 . S
N434 C430 1.328 . S
N434 C432 1.350 . S
H435 C430 0.930 . S
H436 C431 0.930 . S
C437 O438 1.224 . S
C437 O456 1.247 . S
O438 C437 1.224 . S
N439 Co429 2.128 . S
N439 C440 1.355 . S
N439 C442 1.311 . S
C440 N439 1.355 . S
C440 C441 1.363 . S
C440 H452 0.929 . S
C441 C440 1.363 . S
C441 N443 1.375 . S
C441 H459 0.931 . S
C442 N439 1.311 . S
C442 N443 1.347 . S
C442 H453 0.929 . S
N443 C441 1.375 . S
N443 C442 1.347 . S
C444 C447 1.365 . S
C444 N449 1.328 . S
C444 H450 0.929 . S
C445 C446 1.362 . S
C445 C448 1.378 . S
C445 H460 0.929 . S
C446 C445 1.362 . S
C446 C447 1.366 . S
C447 C444 1.365 . S
C447 C446 1.366 . S
C447 H461 0.930 . S
C448 C445 1.378 . S
C448 N449 1.315 . S
C448 H451 0.930 . S
N449 Co429 2.194 . S
N449 C444 1.328 . S
N449 C448 1.315 . S
H450 C444 0.929 . S
H451 C448 0.930 . S
H452 C440 0.929 . S
H453 C442 0.929 . S
O454 Co429 2.351 . S
O454 C457 1.244 . S
O455 Co429 2.155 . S
O455 C457 1.240 . S
O456 Co429 2.096 . S
O456 C437 1.247 . S
C457 O454 1.244 . S
C457 O455 1.240 . S
H458 C432 0.931 . S
H459 C441 0.931 . S
H460 C445 0.929 . S
H461 C447 0.930 . S
Co462 N466 2.148 . S
Co462 N472 2.128 . S
Co462 N482 2.194 . S
Co462 O487 2.351 . S
Co462 O488 2.155 . S
Co462 O489 2.096 . S
C463 N466 1.301 . S
C463 N467 1.328 . S
C463 H468 0.930 . S
C464 C465 1.333 . S
C464 N466 1.317 . S
C464 H469 0.930 . S
C465 C464 1.333 . S
C465 N467 1.350 . S
C465 H491 0.931 . S
N466 Co462 2.148 . S
N466 C463 1.301 . S
N466 C464 1.317 . S
N467 C463 1.328 . S
N467 C465 1.350 . S
H468 C463 0.930 . S
H469 C464 0.930 . S
C470 O471 1.224 . S
C470 O489 1.247 . S
O471 C470 1.224 . S
N472 Co462 2.128 . S
N472 C473 1.355 . S
N472 C475 1.311 . S
C473 N472 1.355 . S
C473 C474 1.363 . S
C473 H485 0.929 . S
C474 C473 1.363 . S
C474 N476 1.375 . S
C474 H492 0.931 . S
C475 N472 1.311 . S
C475 N476 1.347 . S
C475 H486 0.929 . S
N476 C474 1.375 . S
N476 C475 1.347 . S
C477 C480 1.365 . S
C477 N482 1.328 . S
C477 H483 0.929 . S
C478 C479 1.362 . S
C478 C481 1.378 . S
C478 H493 0.929 . S
C479 C478 1.362 . S
C479 C480 1.366 . S
C480 C477 1.365 . S
C480 C479 1.366 . S
C480 H494 0.930 . S
C481 C478 1.378 . S
C481 N482 1.315 . S
C481 H484 0.930 . S
N482 Co462 2.194 . S
N482 C477 1.328 . S
N482 C481 1.315 . S
H483 C477 0.929 . S
H484 C481 0.930 . S
H485 C473 0.929 . S
H486 C475 0.929 . S
O487 Co462 2.351 . S
O487 C490 1.244 . S
O488 Co462 2.155 . S
O488 C490 1.240 . S
O489 Co462 2.096 . S
O489 C470 1.247 . S
C490 O487 1.244 . S
C490 O488 1.240 . S
H491 C465 0.931 . S
H492 C474 0.931 . S
H493 C478 0.929 . S
H494 C480 0.930 . S
Co495 N499 2.148 . S
Co495 N505 2.128 . S
Co495 N515 2.194 . S
Co495 O520 2.351 . S
Co495 O521 2.155 . S
Co495 O522 2.096 . S
C496 N499 1.301 . S
C496 N500 1.328 . S
C496 H501 0.930 . S
C497 C498 1.333 . S
C497 N499 1.317 . S
C497 H502 0.930 . S
C498 C497 1.333 . S
C498 N500 1.350 . S
C498 H524 0.931 . S
N499 Co495 2.148 . S
N499 C496 1.301 . S
N499 C497 1.317 . S
N500 C496 1.328 . S
N500 C498 1.350 . S
H501 C496 0.930 . S
H502 C497 0.930 . S
C503 O504 1.224 . S
C503 O522 1.247 . S
O504 C503 1.224 . S
N505 Co495 2.128 . S
N505 C506 1.355 . S
N505 C508 1.311 . S
C506 N505 1.355 . S
C506 C507 1.363 . S
C506 H518 0.929 . S
C507 C506 1.363 . S
C507 N509 1.375 . S
C507 H525 0.931 . S
C508 N505 1.311 . S
C508 N509 1.347 . S
C508 H519 0.929 . S
N509 C507 1.375 . S
N509 C508 1.347 . S
C510 C513 1.365 . S
C510 N515 1.328 . S
C510 H516 0.929 . S
C511 C512 1.362 . S
C511 C514 1.378 . S
C511 H526 0.929 . S
C512 C511 1.362 . S
C512 C513 1.366 . S
C513 C510 1.365 . S
C513 C512 1.366 . S
C513 H527 0.930 . S
C514 C511 1.378 . S
C514 N515 1.315 . S
C514 H517 0.930 . S
N515 Co495 2.194 . S
N515 C510 1.328 . S
N515 C514 1.315 . S
H516 C510 0.929 . S
H517 C514 0.930 . S
H518 C506 0.929 . S
H519 C508 0.929 . S
O520 Co495 2.351 . S
O520 C523 1.244 . S
O521 Co495 2.155 . S
O521 C523 1.240 . S
O522 Co495 2.096 . S
O522 C503 1.247 . S
C523 O520 1.244 . S
C523 O521 1.240 . S
H524 C498 0.931 . S
H525 C507 0.931 . S
H526 C511 0.929 . S
H527 C513 0.930 . S
H528 C536 0.929 . S
H529 C538 0.930 . S
H530 C540 0.930 . S
H531 C543 0.929 . S
H532 C546 0.930 . S
H533 C548 0.960 . S
H534 C548 0.960 . S
H535 C548 0.960 . S
C536 H528 0.929 . S
C536 C537 1.377 . S
C536 C538 1.384 . S
C537 C536 1.377 . S
C537 C543 1.390 . S
C538 H529 0.930 . S
C538 C536 1.384 . S
C538 C539 1.372 . S
C539 C538 1.372 . S
C539 C540 1.400 . S
C539 C544 1.490 . S
C540 H530 0.930 . S
C540 C539 1.400 . S
C540 C543 1.386 . S
H541 C557 0.930 . S
H542 C558 0.931 . S
C543 H531 0.929 . S
C543 C537 1.390 . S
C543 C540 1.386 . S
C544 C539 1.490 . S
C544 C546 1.395 . S
C544 C547 1.403 . S
H545 C551 0.930 . S
C546 H532 0.930 . S
C546 C544 1.395 . S
C546 C549 1.403 . S
C547 C544 1.403 . S
C547 C548 1.524 . S
C547 C551 1.400 . S
C548 H533 0.960 . S
C548 H534 0.960 . S
C548 H535 0.960 . S
C548 C547 1.524 . S
C549 C546 1.403 . S
C549 C550 1.392 . S
C549 C553 1.495 . S
C550 C549 1.392 . S
C550 C551 1.385 . S
C550 C552 1.478 . S
C551 H545 0.930 . S
C551 C547 1.400 . S
C551 C550 1.385 . S
C552 C550 1.478 . S
C552 C554 1.381 . S
C552 C558 1.383 . S
C553 C549 1.495 . S
C553 H559 0.959 . S
C553 H560 0.961 . S
C553 H561 0.960 . S
C554 C552 1.381 . S
C554 C555 1.394 . S
C554 H562 0.930 . S
C555 C554 1.394 . S
C555 C556 1.383 . S
C555 H563 0.929 . S
C556 C555 1.383 . S
C556 C557 1.377 . S
C557 H541 0.930 . S
C557 C556 1.377 . S
C557 C558 1.379 . S
C558 H542 0.931 . S
C558 C552 1.383 . S
C558 C557 1.379 . S
H559 C553 0.959 . S
H560 C553 0.961 . S
H561 C553 0.960 . S
H562 C554 0.930 . S
H563 C555 0.929 . S
H564 C572 0.929 . S
H565 C574 0.930 . S
H566 C576 0.930 . S
H567 C579 0.929 . S
H568 C582 0.930 . S
H569 C584 0.960 . S
H570 C584 0.960 . S
H571 C584 0.960 . S
C572 H564 0.929 . S
C572 C573 1.377 . S
C572 C574 1.384 . S
C573 C572 1.377 . S
C573 C579 1.390 . S
C574 H565 0.930 . S
C574 C572 1.384 . S
C574 C575 1.372 . S
C575 C574 1.372 . S
C575 C576 1.400 . S
C575 C580 1.490 . S
C576 H566 0.930 . S
C576 C575 1.400 . S
C576 C579 1.386 . S
H577 C593 0.930 . S
H578 C594 0.931 . S
C579 H567 0.929 . S
C579 C573 1.390 . S
C579 C576 1.386 . S
C580 C575 1.490 . S
C580 C582 1.395 . S
C580 C583 1.403 . S
H581 C587 0.930 . S
C582 H568 0.930 . S
C582 C580 1.395 . S
C582 C585 1.403 . S
C583 C580 1.403 . S
C583 C584 1.524 . S
C583 C587 1.400 . S
C584 H569 0.960 . S
C584 H570 0.960 . S
C584 H571 0.960 . S
C584 C583 1.524 . S
C585 C582 1.403 . S
C585 C586 1.392 . S
C585 C589 1.495 . S
C586 C585 1.392 . S
C586 C587 1.385 . S
C586 C588 1.478 . S
C587 H581 0.930 . S
C587 C583 1.400 . S
C587 C586 1.385 . S
C588 C586 1.478 . S
C588 C590 1.381 . S
C588 C594 1.383 . S
C589 C585 1.495 . S
C589 H595 0.959 . S
C589 H596 0.961 . S
C589 H597 0.960 . S
C590 C588 1.381 . S
C590 C591 1.394 . S
C590 H598 0.930 . S
C591 C590 1.394 . S
C591 C592 1.383 . S
C591 H599 0.929 . S
C592 C591 1.383 . S
C592 C593 1.377 . S
C593 H577 0.930 . S
C593 C592 1.377 . S
C593 C594 1.379 . S
C594 H578 0.931 . S
C594 C588 1.383 . S
C594 C593 1.379 . S
H595 C589 0.959 . S
H596 C589 0.961 . S
H597 C589 0.960 . S
H598 C590 0.930 . S
H599 C591 0.929 . S
H600 C608 0.929 . S
H601 C610 0.930 . S
H602 C612 0.930 . S
H603 C615 0.929 . S
H604 C618 0.930 . S
H605 C620 0.960 . S
H606 C620 0.960 . S
H607 C620 0.960 . S
C608 H600 0.929 . S
C608 C609 1.377 . S
C608 C610 1.384 . S
C609 C608 1.377 . S
C609 C615 1.390 . S
C610 H601 0.930 . S
C610 C608 1.384 . S
C610 C611 1.372 . S
C611 C610 1.372 . S
C611 C612 1.400 . S
C611 C616 1.490 . S
C612 H602 0.930 . S
C612 C611 1.400 . S
C612 C615 1.386 . S
H613 C629 0.930 . S
H614 C630 0.931 . S
C615 H603 0.929 . S
C615 C609 1.390 . S
C615 C612 1.386 . S
C616 C611 1.490 . S
C616 C618 1.395 . S
C616 C619 1.403 . S
H617 C623 0.930 . S
C618 H604 0.930 . S
C618 C616 1.395 . S
C618 C621 1.403 1_554 S
C619 C616 1.403 . S
C619 C620 1.524 . S
C619 C623 1.400 1_554 S
C620 H605 0.960 . S
C620 H606 0.960 . S
C620 H607 0.960 . S
C620 C619 1.524 . S
C621 C618 1.403 1_556 S
C621 C622 1.392 . S
C621 C625 1.495 . S
C622 C621 1.392 . S
C622 C623 1.385 . S
C622 C624 1.478 . S
C623 H617 0.930 . S
C623 C619 1.400 1_556 S
C623 C622 1.385 . S
C624 C622 1.478 . S
C624 C626 1.381 . S
C624 C630 1.383 . S
C625 C621 1.495 . S
C625 H631 0.959 . S
C625 H632 0.961 . S
C625 H633 0.960 . S
C626 C624 1.381 . S
C626 C627 1.394 . S
C626 H634 0.930 . S
C627 C626 1.394 . S
C627 C628 1.383 . S
C627 H635 0.929 . S
C628 C627 1.383 . S
C628 C629 1.377 . S
C629 H613 0.930 . S
C629 C628 1.377 . S
C629 C630 1.379 . S
C630 H614 0.931 . S
C630 C624 1.383 . S
C630 C629 1.379 . S
H631 C625 0.959 . S
H632 C625 0.961 . S
H633 C625 0.960 . S
H634 C626 0.930 . S
H635 C627 0.929 . S
H636 C644 0.929 . S
H637 C646 0.930 . S
H638 C648 0.930 . S
H639 C651 0.929 . S
H640 C654 0.930 . S
H641 C656 0.960 . S
H642 C656 0.960 . S
H643 C656 0.960 . S
C644 H636 0.929 . S
C644 C645 1.377 . S
C644 C646 1.384 . S
C645 C644 1.377 . S
C645 C651 1.390 . S
C646 H637 0.930 . S
C646 C644 1.384 . S
C646 C647 1.372 . S
C647 C646 1.372 . S
C647 C648 1.400 . S
C647 C652 1.490 . S
C648 H638 0.930 . S
C648 C647 1.400 . S
C648 C651 1.386 . S
H649 C665 0.930 . S
H650 C666 0.931 . S
C651 H639 0.929 . S
C651 C645 1.390 . S
C651 C648 1.386 . S
C652 C647 1.490 . S
C652 C654 1.395 . S
C652 C655 1.403 . S
H653 C659 0.930 . S
C654 H640 0.930 . S
C654 C652 1.395 . S
C654 C657 1.403 . S
C655 C652 1.403 . S
C655 C656 1.524 . S
C655 C659 1.400 . S
C656 H641 0.960 . S
C656 H642 0.960 . S
C656 H643 0.960 . S
C656 C655 1.524 . S
C657 C654 1.403 . S
C657 C658 1.392 . S
C657 C661 1.495 . S
C658 C657 1.392 . S
C658 C659 1.385 . S
C658 C660 1.478 . S
C659 H653 0.930 . S
C659 C655 1.400 . S
C659 C658 1.385 . S
C660 C658 1.478 . S
C660 C662 1.381 . S
C660 C666 1.383 . S
C661 C657 1.495 . S
C661 H667 0.959 . S
C661 H668 0.961 . S
C661 H669 0.960 . S
C662 C660 1.381 . S
C662 C663 1.394 . S
C662 H670 0.930 . S
C663 C662 1.394 . S
C663 C664 1.383 . S
C663 H671 0.929 . S
C664 C663 1.383 . S
C664 C665 1.377 . S
C665 H649 0.930 . S
C665 C664 1.377 . S
C665 C666 1.379 . S
C666 H650 0.931 . S
C666 C660 1.383 . S
C666 C665 1.379 . S
H667 C661 0.959 . S
H668 C661 0.961 . S
H669 C661 0.960 . S
H670 C662 0.930 . S
H671 C663 0.929 . S
H672 C680 0.929 . S
H673 C682 0.930 . S
H674 C684 0.930 . S
H675 C687 0.929 . S
H676 C690 0.930 . S
H677 C692 0.960 . S
H678 C692 0.960 . S
H679 C692 0.960 . S
C680 H672 0.929 . S
C680 C681 1.377 . S
C680 C682 1.384 . S
C681 C680 1.377 . S
C681 C687 1.390 . S
C682 H673 0.930 . S
C682 C680 1.384 . S
C682 C683 1.372 . S
C683 C682 1.372 . S
C683 C684 1.400 . S
C683 C688 1.490 . S
C684 H674 0.930 . S
C684 C683 1.400 . S
C684 C687 1.386 . S
H685 C701 0.930 . S
H686 C702 0.931 . S
C687 H675 0.929 . S
C687 C681 1.390 . S
C687 C684 1.386 . S
C688 C683 1.490 . S
C688 C690 1.395 . S
C688 C691 1.403 . S
H689 C695 0.930 . S
C690 H676 0.930 . S
C690 C688 1.395 . S
C690 C693 1.403 . S
C691 C688 1.403 . S
C691 C692 1.524 . S
C691 C695 1.400 . S
C692 H677 0.960 . S
C692 H678 0.960 . S
C692 H679 0.960 . S
C692 C691 1.524 . S
C693 C690 1.403 . S
C693 C694 1.392 . S
C693 C697 1.495 . S
C694 C693 1.392 . S
C694 C695 1.385 . S
C694 C696 1.478 . S
C695 H689 0.930 . S
C695 C691 1.400 . S
C695 C694 1.385 . S
C696 C694 1.478 . S
C696 C698 1.381 . S
C696 C702 1.383 . S
C697 C693 1.495 . S
C697 H703 0.959 . S
C697 H704 0.961 . S
C697 H705 0.960 . S
C698 C696 1.381 . S
C698 C699 1.394 . S
C698 H706 0.930 . S
C699 C698 1.394 . S
C699 C700 1.383 . S
C699 H707 0.929 . S
C700 C699 1.383 . S
C700 C701 1.377 . S
C701 H685 0.930 . S
C701 C700 1.377 . S
C701 C702 1.379 . S
C702 H686 0.931 . S
C702 C696 1.383 . S
C702 C701 1.379 . S
H703 C697 0.959 . S
H704 C697 0.961 . S
H705 C697 0.960 . S
H706 C698 0.930 . S
H707 C699 0.929 . S
H708 C716 0.929 . S
H709 C718 0.930 . S
H710 C720 0.930 . S
H711 C723 0.929 . S
H712 C726 0.930 . S
H713 C728 0.960 . S
H714 C728 0.960 . S
H715 C728 0.960 . S
C716 H708 0.929 . S
C716 C717 1.377 . S
C716 C718 1.384 . S
C717 C716 1.377 . S
C717 C723 1.390 . S
C718 H709 0.930 . S
C718 C716 1.384 . S
C718 C719 1.372 . S
C719 C718 1.372 . S
C719 C720 1.400 . S
C719 C724 1.490 . S
C720 H710 0.930 . S
C720 C719 1.400 . S
C720 C723 1.386 . S
H721 C737 0.930 . S
H722 C738 0.931 . S
C723 H711 0.929 . S
C723 C717 1.390 . S
C723 C720 1.386 . S
C724 C719 1.490 . S
C724 C726 1.395 . S
C724 C727 1.403 . S
H725 C731 0.930 . S
C726 H712 0.930 . S
C726 C724 1.395 . S
C726 C729 1.403 1_556 S
C727 C724 1.403 . S
C727 C728 1.524 . S
C727 C731 1.400 1_556 S
C728 H713 0.960 . S
C728 H714 0.960 . S
C728 H715 0.960 . S
C728 C727 1.524 . S
C729 C726 1.403 1_554 S
C729 C730 1.392 . S
C729 C733 1.495 . S
C730 C729 1.392 . S
C730 C731 1.385 . S
C730 C732 1.478 . S
C731 H725 0.930 . S
C731 C727 1.400 1_554 S
C731 C730 1.385 . S
C732 C730 1.478 . S
C732 C734 1.381 . S
C732 C738 1.383 . S
C733 C729 1.495 . S
C733 H739 0.959 . S
C733 H740 0.961 . S
C733 H741 0.960 . S
C734 C732 1.381 . S
C734 C735 1.394 . S
C734 H742 0.930 . S
C735 C734 1.394 . S
C735 C736 1.383 . S
C735 H743 0.929 . S
C736 C735 1.383 . S
C736 C737 1.377 . S
C737 H721 0.930 . S
C737 C736 1.377 . S
C737 C738 1.379 . S
C738 H722 0.931 . S
C738 C732 1.383 . S
C738 C737 1.379 . S
H739 C733 0.959 . S
H740 C733 0.961 . S
H741 C733 0.960 . S
H742 C734 0.930 . S
H743 C735 0.929 . S
H744 C752 0.929 . S
H745 C754 0.930 . S
H746 C756 0.930 . S
H747 C759 0.929 . S
H748 C762 0.930 . S
H749 C764 0.960 . S
H750 C764 0.960 . S
H751 C764 0.960 . S
C752 H744 0.929 . S
C752 C753 1.377 . S
C752 C754 1.384 . S
C753 C752 1.377 . S
C753 C759 1.390 . S
C754 H745 0.930 . S
C754 C752 1.384 . S
C754 C755 1.372 . S
C755 C754 1.372 . S
C755 C756 1.400 . S
C755 C760 1.490 . S
C756 H746 0.930 . S
C756 C755 1.400 . S
C756 C759 1.386 . S
H757 C773 0.930 . S
H758 C774 0.931 . S
C759 H747 0.929 . S
C759 C753 1.390 . S
C759 C756 1.386 . S
C760 C755 1.490 . S
C760 C762 1.395 . S
C760 C763 1.403 . S
H761 C767 0.930 . S
C762 H748 0.930 . S
C762 C760 1.395 . S
C762 C765 1.403 . S
C763 C760 1.403 . S
C763 C764 1.524 . S
C763 C767 1.400 . S
C764 H749 0.960 . S
C764 H750 0.960 . S
C764 H751 0.960 . S
C764 C763 1.524 . S
C765 C762 1.403 . S
C765 C766 1.392 . S
C765 C769 1.495 . S
C766 C765 1.392 . S
C766 C767 1.385 . S
C766 C768 1.478 . S
C767 H761 0.930 . S
C767 C763 1.400 . S
C767 C766 1.385 . S
C768 C766 1.478 . S
C768 C770 1.381 . S
C768 C774 1.383 . S
C769 C765 1.495 . S
C769 H775 0.959 . S
C769 H776 0.961 . S
C769 H777 0.960 . S
C770 C768 1.381 . S
C770 C771 1.394 . S
C770 H778 0.930 . S
C771 C770 1.394 . S
C771 C772 1.383 . S
C771 H779 0.929 . S
C772 C771 1.383 . S
C772 C773 1.377 . S
C773 H757 0.930 . S
C773 C772 1.377 . S
C773 C774 1.379 . S
C774 H758 0.931 . S
C774 C768 1.383 . S
C774 C773 1.379 . S
H775 C769 0.959 . S
H776 C769 0.961 . S
H777 C769 0.960 . S
H778 C770 0.930 . S
H779 C771 0.929 . S
H780 C788 0.929 . S
H781 C790 0.930 . S
H782 C792 0.930 . S
H783 C795 0.929 . S
H784 C798 0.930 . S
H785 C800 0.960 . S
H786 C800 0.960 . S
H787 C800 0.960 . S
C788 H780 0.929 . S
C788 C789 1.377 . S
C788 C790 1.384 . S
C789 C788 1.377 . S
C789 C795 1.390 . S
C790 H781 0.930 . S
C790 C788 1.384 . S
C790 C791 1.372 . S
C791 C790 1.372 . S
C791 C792 1.400 . S
C791 C796 1.490 . S
C792 H782 0.930 . S
C792 C791 1.400 . S
C792 C795 1.386 . S
H793 C809 0.930 . S
H794 C810 0.931 . S
C795 H783 0.929 . S
C795 C789 1.390 . S
C795 C792 1.386 . S
C796 C791 1.490 . S
C796 C798 1.395 . S
C796 C799 1.403 . S
H797 C803 0.930 . S
C798 H784 0.930 . S
C798 C796 1.395 . S
C798 C801 1.403 . S
C799 C796 1.403 . S
C799 C800 1.524 . S
C799 C803 1.400 . S
C800 H785 0.960 . S
C800 H786 0.960 . S
C800 H787 0.960 . S
C800 C799 1.524 . S
C801 C798 1.403 . S
C801 C802 1.392 . S
C801 C805 1.495 . S
C802 C801 1.392 . S
C802 C803 1.385 . S
C802 C804 1.478 . S
C803 H797 0.930 . S
C803 C799 1.400 . S
C803 C802 1.385 . S
C804 C802 1.478 . S
C804 C806 1.381 . S
C804 C810 1.383 . S
C805 C801 1.495 . S
C805 H811 0.959 . S
C805 H812 0.961 . S
C805 H813 0.960 . S
C806 C804 1.381 . S
C806 C807 1.394 . S
C806 H814 0.930 . S
C807 C806 1.394 . S
C807 C808 1.383 . S
C807 H815 0.929 . S
C808 C807 1.383 . S
C808 C809 1.377 . S
C809 H793 0.930 . S
C809 C808 1.377 . S
C809 C810 1.379 . S
C810 H794 0.931 . S
C810 C804 1.383 . S
C810 C809 1.379 . S
H811 C805 0.959 . S
H812 C805 0.961 . S
H813 C805 0.960 . S
H814 C806 0.930 . S
H815 C807 0.929 . S
H816 C824 0.929 . S
H817 C826 0.930 . S
H818 C828 0.930 . S
H819 C831 0.929 . S
H820 C834 0.930 . S
H821 C836 0.960 . S
H822 C836 0.960 . S
H823 C836 0.960 . S
C824 H816 0.929 . S
C824 C825 1.377 . S
C824 C826 1.384 . S
C825 C824 1.377 . S
C825 C831 1.390 . S
C826 H817 0.930 . S
C826 C824 1.384 . S
C826 C827 1.372 . S
C827 C826 1.372 . S
C827 C828 1.400 . S
C827 C832 1.490 . S
C828 H818 0.930 . S
C828 C827 1.400 . S
C828 C831 1.386 . S
H829 C845 0.930 . S
H830 C846 0.931 . S
C831 H819 0.929 . S
C831 C825 1.390 . S
C831 C828 1.386 . S
C832 C827 1.490 . S
C832 C834 1.395 . S
C832 C835 1.403 . S
H833 C839 0.930 . S
C834 H820 0.930 . S
C834 C832 1.395 . S
C834 C837 1.403 . S
C835 C832 1.403 . S
C835 C836 1.524 . S
C835 C839 1.400 . S
C836 H821 0.960 . S
C836 H822 0.960 . S
C836 H823 0.960 . S
C836 C835 1.524 . S
C837 C834 1.403 . S
C837 C838 1.392 . S
C837 C841 1.495 . S
C838 C837 1.392 . S
C838 C839 1.385 . S
C838 C840 1.478 . S
C839 H833 0.930 . S
C839 C835 1.400 . S
C839 C838 1.385 . S
C840 C838 1.478 . S
C840 C842 1.381 . S
C840 C846 1.383 . S
C841 C837 1.495 . S
C841 H847 0.959 . S
C841 H848 0.961 . S
C841 H849 0.960 . S
C842 C840 1.381 . S
C842 C843 1.394 . S
C842 H850 0.930 . S
C843 C842 1.394 . S
C843 C844 1.383 . S
C843 H851 0.929 . S
C844 C843 1.383 . S
C844 C845 1.377 . S
C845 H829 0.930 . S
C845 C844 1.377 . S
C845 C846 1.379 . S
C846 H830 0.931 . S
C846 C840 1.383 . S
C846 C845 1.379 . S
H847 C841 0.959 . S
H848 C841 0.961 . S
H849 C841 0.960 . S
H850 C842 0.930 . S
H851 C843 0.929 . S
H852 C860 0.929 . S
H853 C862 0.930 . S
H854 C864 0.930 . S
H855 C867 0.929 . S
H856 C870 0.930 . S
H857 C872 0.960 . S
H858 C872 0.960 . S
H859 C872 0.960 . S
C860 H852 0.929 . S
C860 C861 1.377 . S
C860 C862 1.384 . S
C861 C860 1.377 . S
C861 C867 1.390 . S
C862 H853 0.930 . S
C862 C860 1.384 . S
C862 C863 1.372 . S
C863 C862 1.372 . S
C863 C864 1.400 . S
C863 C868 1.490 . S
C864 H854 0.930 . S
C864 C863 1.400 . S
C864 C867 1.386 . S
H865 C881 0.930 . S
H866 C882 0.931 . S
C867 H855 0.929 . S
C867 C861 1.390 . S
C867 C864 1.386 . S
C868 C863 1.490 . S
C868 C870 1.395 . S
C868 C871 1.403 . S
H869 C875 0.930 . S
C870 H856 0.930 . S
C870 C868 1.395 . S
C870 C873 1.403 . S
C871 C868 1.403 . S
C871 C872 1.524 . S
C871 C875 1.400 . S
C872 H857 0.960 . S
C872 H858 0.960 . S
C872 H859 0.960 . S
C872 C871 1.524 . S
C873 C870 1.403 . S
C873 C874 1.392 . S
C873 C877 1.495 . S
C874 C873 1.392 . S
C874 C875 1.385 . S
C874 C876 1.478 . S
C875 H869 0.930 . S
C875 C871 1.400 . S
C875 C874 1.385 . S
C876 C874 1.478 . S
C876 C878 1.381 . S
C876 C882 1.383 . S
C877 C873 1.495 . S
C877 H883 0.959 . S
C877 H884 0.961 . S
C877 H885 0.960 . S
C878 C876 1.381 . S
C878 C879 1.394 . S
C878 H886 0.930 . S
C879 C878 1.394 . S
C879 C880 1.383 . S
C879 H887 0.929 . S
C880 C879 1.383 . S
C880 C881 1.377 . S
C881 H865 0.930 . S
C881 C880 1.377 . S
C881 C882 1.379 . S
C882 H866 0.931 . S
C882 C876 1.383 . S
C882 C881 1.379 . S
H883 C877 0.959 . S
H884 C877 0.961 . S
H885 C877 0.960 . S
H886 C878 0.930 . S
H887 C879 0.929 . S
H888 C896 0.929 . S
H889 C898 0.930 . S
H890 C900 0.930 . S
H891 C903 0.929 . S
H892 C906 0.930 . S
H893 C908 0.960 . S
H894 C908 0.960 . S
H895 C908 0.960 . S
C896 H888 0.929 . S
C896 C897 1.377 . S
C896 C898 1.384 . S
C897 C896 1.377 . S
C897 C903 1.390 . S
C898 H889 0.930 . S
C898 C896 1.384 . S
C898 C899 1.372 . S
C899 C898 1.372 . S
C899 C900 1.400 . S
C899 C904 1.490 . S
C900 H890 0.930 . S
C900 C899 1.400 . S
C900 C903 1.386 . S
H901 C917 0.930 . S
H902 C918 0.931 . S
C903 H891 0.929 . S
C903 C897 1.390 . S
C903 C900 1.386 . S
C904 C899 1.490 . S
C904 C906 1.395 . S
C904 C907 1.403 . S
H905 C911 0.930 . S
C906 H892 0.930 . S
C906 C904 1.395 . S
C906 C909 1.403 . S
C907 C904 1.403 . S
C907 C908 1.524 . S
C907 C911 1.400 . S
C908 H893 0.960 . S
C908 H894 0.960 . S
C908 H895 0.960 . S
C908 C907 1.524 . S
C909 C906 1.403 . S
C909 C910 1.392 . S
C909 C913 1.495 . S
C910 C909 1.392 . S
C910 C911 1.385 . S
C910 C912 1.478 . S
C911 H905 0.930 . S
C911 C907 1.400 . S
C911 C910 1.385 . S
C912 C910 1.478 . S
C912 C914 1.381 . S
C912 C918 1.383 . S
C913 C909 1.495 . S
C913 H919 0.959 . S
C913 H920 0.961 . S
C913 H921 0.960 . S
C914 C912 1.381 . S
C914 C915 1.394 . S
C914 H922 0.930 . S
C915 C914 1.394 . S
C915 C916 1.383 . S
C915 H923 0.929 . S
C916 C915 1.383 . S
C916 C917 1.377 . S
C917 H901 0.930 . S
C917 C916 1.377 . S
C917 C918 1.379 . S
C918 H902 0.931 . S
C918 C912 1.383 . S
C918 C917 1.379 . S
H919 C913 0.959 . S
H920 C913 0.961 . S
H921 C913 0.960 . S
H922 C914 0.930 . S
H923 C915 0.929 . S
H924 C932 0.929 . S
H925 C934 0.930 . S
H926 C936 0.930 . S
H927 C939 0.929 . S
H928 C942 0.930 . S
H929 C944 0.960 . S
H930 C944 0.960 . S
H931 C944 0.960 . S
C932 H924 0.929 . S
C932 C933 1.377 1_554 S
C932 C934 1.384 1_554 S
C933 C932 1.377 1_556 S
C933 C939 1.390 . S
C934 H925 0.930 . S
C934 C932 1.384 1_556 S
C934 C935 1.372 . S
C935 C934 1.372 . S
C935 C936 1.400 . S
C935 C940 1.490 . S
C936 H926 0.930 . S
C936 C935 1.400 . S
C936 C939 1.386 . S
H937 C953 0.930 . S
H938 C954 0.931 . S
C939 H927 0.929 . S
C939 C933 1.390 . S
C939 C936 1.386 . S
C940 C935 1.490 . S
C940 C942 1.395 . S
C940 C943 1.403 . S
H941 C947 0.930 . S
C942 H928 0.930 . S
C942 C940 1.395 . S
C942 C945 1.403 . S
C943 C940 1.403 . S
C943 C944 1.524 . S
C943 C947 1.400 . S
C944 H929 0.960 . S
C944 H930 0.960 . S
C944 H931 0.960 . S
C944 C943 1.524 . S
C945 C942 1.403 . S
C945 C946 1.392 . S
C945 C949 1.495 . S
C946 C945 1.392 . S
C946 C947 1.385 . S
C946 C948 1.478 . S
C947 H941 0.930 . S
C947 C943 1.400 . S
C947 C946 1.385 . S
C948 C946 1.478 . S
C948 C950 1.381 . S
C948 C954 1.383 . S
C949 C945 1.495 . S
C949 H955 0.959 . S
C949 H956 0.961 . S
C949 H957 0.960 . S
C950 C948 1.381 . S
C950 C951 1.394 . S
C950 H958 0.930 . S
C951 C950 1.394 . S
C951 C952 1.383 . S
C951 H959 0.929 . S
C952 C951 1.383 . S
C952 C953 1.377 . S
C953 H937 0.930 . S
C953 C952 1.377 . S
C953 C954 1.379 . S
C954 H938 0.931 . S
C954 C948 1.383 . S
C954 C953 1.379 . S
H955 C949 0.959 . S
H956 C949 0.961 . S
H957 C949 0.960 . S
H958 C950 0.930 . S
H959 C951 0.929 . S
H960 C968 0.929 . S
H961 C970 0.930 . S
H962 C972 0.930 . S
H963 C975 0.929 1_556 S
H964 C978 0.930 . S
H965 C980 0.960 . S
H966 C980 0.960 . S
H967 C980 0.960 . S
C968 H960 0.929 . S
C968 C969 1.377 . S
C968 C970 1.384 . S
C969 C968 1.377 . S
C969 C975 1.390 . S
C970 H961 0.930 . S
C970 C968 1.384 . S
C970 C971 1.372 . S
C971 C970 1.372 . S
C971 C972 1.400 . S
C971 C976 1.490 . S
C972 H962 0.930 . S
C972 C971 1.400 . S
C972 C975 1.386 . S
H973 C989 0.930 . S
H974 C990 0.931 . S
C975 H963 0.929 1_554 S
C975 C969 1.390 . S
C975 C972 1.386 . S
C976 C971 1.490 . S
C976 C978 1.395 . S
C976 C979 1.403 . S
H977 C983 0.930 . S
C978 H964 0.930 . S
C978 C976 1.395 . S
C978 C981 1.403 . S
C979 C976 1.403 . S
C979 C980 1.524 . S
C979 C983 1.400 . S
C980 H965 0.960 . S
C980 H966 0.960 . S
C980 H967 0.960 . S
C980 C979 1.524 . S
C981 C978 1.403 . S
C981 C982 1.392 . S
C981 C985 1.495 . S
C982 C981 1.392 . S
C982 C983 1.385 . S
C982 C984 1.478 . S
C983 H977 0.930 . S
C983 C979 1.400 . S
C983 C982 1.385 . S
C984 C982 1.478 . S
C984 C986 1.381 . S
C984 C990 1.383 . S
C985 C981 1.495 . S
C985 H991 0.959 . S
C985 H992 0.961 . S
C985 H993 0.960 . S
C986 C984 1.381 . S
C986 C987 1.394 . S
C986 H994 0.930 . S
C987 C986 1.394 . S
C987 C988 1.383 . S
C987 H995 0.929 . S
C988 C987 1.383 . S
C988 C989 1.377 . S
C989 H973 0.930 . S
C989 C988 1.377 . S
C989 C990 1.379 . S
C990 H974 0.931 . S
C990 C984 1.383 . S
C990 C989 1.379 . S
H991 C985 0.959 . S
H992 C985 0.961 . S
H993 C985 0.960 . S
H994 C986 0.930 . S
H995 C987 0.929 . S
H996 C1004 0.929 . S
H997 C1006 0.930 . S
H998 C1008 0.930 . S
H999 C1011 0.929 . S
H1000 C1014 0.930 . S
H1001 C1016 0.960 . S
H1002 C1016 0.960 . S
H1003 C1016 0.960 . S
C1004 H996 0.929 . S
C1004 C1005 1.377 . S
C1004 C1006 1.384 . S
C1005 C1004 1.377 . S
C1005 C1011 1.390 . S
C1006 H997 0.930 . S
C1006 C1004 1.384 . S
C1006 C1007 1.372 . S
C1007 C1006 1.372 . S
C1007 C1008 1.400 . S
C1007 C1012 1.490 . S
C1008 H998 0.930 . S
C1008 C1007 1.400 . S
C1008 C1011 1.386 . S
H1009 C1025 0.930 . S
H1010 C1026 0.931 . S
C1011 H999 0.929 . S
C1011 C1005 1.390 . S
C1011 C1008 1.386 . S
C1012 C1007 1.490 . S
C1012 C1014 1.395 . S
C1012 C1015 1.403 . S
H1013 C1019 0.930 . S
C1014 H1000 0.930 . S
C1014 C1012 1.395 . S
C1014 C1017 1.403 . S
C1015 C1012 1.403 . S
C1015 C1016 1.524 . S
C1015 C1019 1.400 . S
C1016 H1001 0.960 . S
C1016 H1002 0.960 . S
C1016 H1003 0.960 . S
C1016 C1015 1.524 . S
C1017 C1014 1.403 . S
C1017 C1018 1.392 . S
C1017 C1021 1.495 . S
C1018 C1017 1.392 . S
C1018 C1019 1.385 . S
C1018 C1020 1.478 . S
C1019 H1013 0.930 . S
C1019 C1015 1.400 . S
C1019 C1018 1.385 . S
C1020 C1018 1.478 . S
C1020 C1022 1.381 . S
C1020 C1026 1.383 . S
C1021 C1017 1.495 . S
C1021 H1027 0.959 . S
C1021 H1028 0.961 . S
C1021 H1029 0.960 . S
C1022 C1020 1.381 . S
C1022 C1023 1.394 . S
C1022 H1030 0.930 . S
C1023 C1022 1.394 . S
C1023 C1024 1.383 . S
C1023 H1031 0.929 . S
C1024 C1023 1.383 . S
C1024 C1025 1.377 . S
C1025 H1009 0.930 . S
C1025 C1024 1.377 . S
C1025 C1026 1.379 . S
C1026 H1010 0.931 . S
C1026 C1020 1.383 . S
C1026 C1025 1.379 . S
H1027 C1021 0.959 . S
H1028 C1021 0.961 . S
H1029 C1021 0.960 . S
H1030 C1022 0.930 . S
H1031 C1023 0.929 . S
H1032 C1040 0.929 . S
H1033 C1042 0.930 . S
H1034 C1044 0.930 . S
H1035 C1047 0.929 . S
H1036 C1050 0.930 . S
H1037 C1052 0.960 . S
H1038 C1052 0.960 . S
H1039 C1052 0.960 . S
C1040 H1032 0.929 . S
C1040 C1041 1.377 . S
C1040 C1042 1.384 . S
C1041 C1040 1.377 . S
C1041 C1047 1.390 . S
C1042 H1033 0.930 . S
C1042 C1040 1.384 . S
C1042 C1043 1.372 . S
C1043 C1042 1.372 . S
C1043 C1044 1.400 . S
C1043 C1048 1.490 . S
C1044 H1034 0.930 . S
C1044 C1043 1.400 . S
C1044 C1047 1.386 . S
H1045 C1061 0.930 . S
H1046 C1062 0.931 . S
C1047 H1035 0.929 . S
C1047 C1041 1.390 . S
C1047 C1044 1.386 . S
C1048 C1043 1.490 . S
C1048 C1050 1.395 . S
C1048 C1051 1.403 . S
H1049 C1055 0.930 . S
C1050 H1036 0.930 . S
C1050 C1048 1.395 . S
C1050 C1053 1.403 . S
C1051 C1048 1.403 . S
C1051 C1052 1.524 . S
C1051 C1055 1.400 . S
C1052 H1037 0.960 . S
C1052 H1038 0.960 . S
C1052 H1039 0.960 . S
C1052 C1051 1.524 . S
C1053 C1050 1.403 . S
C1053 C1054 1.392 . S
C1053 C1057 1.495 . S
C1054 C1053 1.392 . S
C1054 C1055 1.385 . S
C1054 C1056 1.478 . S
C1055 H1049 0.930 . S
C1055 C1051 1.400 . S
C1055 C1054 1.385 . S
C1056 C1054 1.478 . S
C1056 C1058 1.381 . S
C1056 C1062 1.383 . S
C1057 C1053 1.495 . S
C1057 H1063 0.959 . S
C1057 H1064 0.961 . S
C1057 H1065 0.960 . S
C1058 C1056 1.381 . S
C1058 C1059 1.394 . S
C1058 H1066 0.930 . S
C1059 C1058 1.394 . S
C1059 C1060 1.383 . S
C1059 H1067 0.929 . S
C1060 C1059 1.383 . S
C1060 C1061 1.377 . S
C1061 H1045 0.930 . S
C1061 C1060 1.377 . S
C1061 C1062 1.379 . S
C1062 H1046 0.931 . S
C1062 C1056 1.383 . S
C1062 C1061 1.379 . S
H1063 C1057 0.959 . S
H1064 C1057 0.961 . S
H1065 C1057 0.960 . S
H1066 C1058 0.930 . S
H1067 C1059 0.929 . S
H1068 C1076 0.929 . S
H1069 C1078 0.930 . S
H1070 C1080 0.930 . S
H1071 C1083 0.929 . S
H1072 C1086 0.930 . S
H1073 C1088 0.960 . S
H1074 C1088 0.960 . S
H1075 C1088 0.960 . S
C1076 H1068 0.929 . S
C1076 C1077 1.377 . S
C1076 C1078 1.384 . S
C1077 C1076 1.377 . S
C1077 C1083 1.390 . S
C1078 H1069 0.930 . S
C1078 C1076 1.384 . S
C1078 C1079 1.372 . S
C1079 C1078 1.372 . S
C1079 C1080 1.400 . S
C1079 C1084 1.490 . S
C1080 H1070 0.930 . S
C1080 C1079 1.400 . S
C1080 C1083 1.386 . S
H1081 C1097 0.930 . S
H1082 C1098 0.931 . S
C1083 H1071 0.929 . S
C1083 C1077 1.390 . S
C1083 C1080 1.386 . S
C1084 C1079 1.490 . S
C1084 C1086 1.395 . S
C1084 C1087 1.403 . S
H1085 C1091 0.930 . S
C1086 H1072 0.930 . S
C1086 C1084 1.395 . S
C1086 C1089 1.403 . S
C1087 C1084 1.403 . S
C1087 C1088 1.524 . S
C1087 C1091 1.400 . S
C1088 H1073 0.960 . S
C1088 H1074 0.960 . S
C1088 H1075 0.960 . S
C1088 C1087 1.524 . S
C1089 C1086 1.403 . S
C1089 C1090 1.392 . S
C1089 C1093 1.495 . S
C1090 C1089 1.392 . S
C1090 C1091 1.385 . S
C1090 C1092 1.478 . S
C1091 H1085 0.930 . S
C1091 C1087 1.400 . S
C1091 C1090 1.385 . S
C1092 C1090 1.478 . S
C1092 C1094 1.381 . S
C1092 C1098 1.383 . S
C1093 C1089 1.495 . S
C1093 H1099 0.959 . S
C1093 H1100 0.961 . S
C1093 H1101 0.960 . S
C1094 C1092 1.381 . S
C1094 C1095 1.394 . S
C1094 H1102 0.930 . S
C1095 C1094 1.394 . S
C1095 C1096 1.383 . S
C1095 H1103 0.929 . S
C1096 C1095 1.383 . S
C1096 C1097 1.377 . S
C1097 H1081 0.930 . S
C1097 C1096 1.377 . S
C1097 C1098 1.379 . S
C1098 H1082 0.931 . S
C1098 C1092 1.383 . S
C1098 C1097 1.379 . S
H1099 C1093 0.959 . S
H1100 C1093 0.961 . S
H1101 C1093 0.960 . S
H1102 C1094 0.930 . S
H1103 C1095 0.929 . S
H1104 C1112 0.929 . S
H1105 C1114 0.930 . S
H1106 C1116 0.930 . S
H1107 C1119 0.929 . S
H1108 C1122 0.930 . S
H1109 C1124 0.960 . S
H1110 C1124 0.960 . S
H1111 C1124 0.960 . S
C1112 H1104 0.929 . S
C1112 C1113 1.377 . S
C1112 C1114 1.384 . S
C1113 C1112 1.377 . S
C1113 C1119 1.390 . S
C1114 H1105 0.930 . S
C1114 C1112 1.384 . S
C1114 C1115 1.372 . S
C1115 C1114 1.372 . S
C1115 C1116 1.400 . S
C1115 C1120 1.490 . S
C1116 H1106 0.930 . S
C1116 C1115 1.400 . S
C1116 C1119 1.386 . S
H1117 C1133 0.930 . S
H1118 C1134 0.931 . S
C1119 H1107 0.929 . S
C1119 C1113 1.390 . S
C1119 C1116 1.386 . S
C1120 C1115 1.490 . S
C1120 C1122 1.395 . S
C1120 C1123 1.403 . S
H1121 C1127 0.930 . S
C1122 H1108 0.930 . S
C1122 C1120 1.395 . S
C1122 C1125 1.403 . S
C1123 C1120 1.403 . S
C1123 C1124 1.524 . S
C1123 C1127 1.400 . S
C1124 H1109 0.960 . S
C1124 H1110 0.960 . S
C1124 H1111 0.960 . S
C1124 C1123 1.524 . S
C1125 C1122 1.403 . S
C1125 C1126 1.392 . S
C1125 C1129 1.495 . S
C1126 C1125 1.392 . S
C1126 C1127 1.385 . S
C1126 C1128 1.478 . S
C1127 H1121 0.930 . S
C1127 C1123 1.400 . S
C1127 C1126 1.385 . S
C1128 C1126 1.478 . S
C1128 C1130 1.381 . S
C1128 C1134 1.383 . S
C1129 C1125 1.495 . S
C1129 H1135 0.959 . S
C1129 H1136 0.961 . S
C1129 H1137 0.960 . S
C1130 C1128 1.381 . S
C1130 C1131 1.394 . S
C1130 H1138 0.930 . S
C1131 C1130 1.394 . S
C1131 C1132 1.383 . S
C1131 H1139 0.929 . S
C1132 C1131 1.383 . S
C1132 C1133 1.377 . S
C1133 H1117 0.930 . S
C1133 C1132 1.377 . S
C1133 C1134 1.379 . S
C1134 H1118 0.931 . S
C1134 C1128 1.383 . S
C1134 C1133 1.379 . S
H1135 C1129 0.959 . S
H1136 C1129 0.961 . S
H1137 C1129 0.960 . S
H1138 C1130 0.930 . S
H1139 C1131 0.929 . S
H1140 C1148 0.929 . S
H1141 C1150 0.930 . S
H1142 C1152 0.930 . S
H1143 C1155 0.913 1_554 S
H1144 C1158 0.930 . S
H1145 C1160 0.960 . S
H1146 C1160 0.960 . S
H1147 C1160 0.960 . S
C1148 H1140 0.929 . S
C1148 C1149 1.377 . S
C1148 C1150 1.384 . S
C1149 C1148 1.377 . S
C1149 C1155 1.390 . S
C1150 H1141 0.930 . S
C1150 C1148 1.384 . S
C1150 C1151 1.372 . S
C1151 C1150 1.372 . S
C1151 C1152 1.400 . S
C1151 C1156 1.490 . S
C1152 H1142 0.930 . S
C1152 C1151 1.400 . S
C1152 C1155 1.386 . S
H1153 C1169 0.930 . S
H1154 C1170 0.931 . S
C1155 H1143 0.913 1_556 S
C1155 C1149 1.390 . S
C1155 C1152 1.386 . S
C1156 C1151 1.490 . S
C1156 C1158 1.395 . S
C1156 C1159 1.403 . S
H1157 C1163 0.930 . S
C1158 H1144 0.930 . S
C1158 C1156 1.395 . S
C1158 C1161 1.403 . S
C1159 C1156 1.403 . S
C1159 C1160 1.524 . S
C1159 C1163 1.400 . S
C1160 H1145 0.960 . S
C1160 H1146 0.960 . S
C1160 H1147 0.960 . S
C1160 C1159 1.524 . S
C1161 C1158 1.403 . S
C1161 C1162 1.392 . S
C1161 C1165 1.495 . S
C1162 C1161 1.392 . S
C1162 C1163 1.385 . S
C1162 C1164 1.478 . S
C1163 H1157 0.930 . S
C1163 C1159 1.400 . S
C1163 C1162 1.385 . S
C1164 C1162 1.478 . S
C1164 C1166 1.381 . S
C1164 C1170 1.383 . S
C1165 C1161 1.495 . S
C1165 H1171 0.959 . S
C1165 H1172 0.961 . S
C1165 H1173 0.960 . S
C1166 C1164 1.381 . S
C1166 C1167 1.394 . S
C1166 H1174 0.930 . S
C1167 C1166 1.394 . S
C1167 C1168 1.383 . S
C1167 H1175 0.929 . S
C1168 C1167 1.383 . S
C1168 C1169 1.377 . S
C1169 H1153 0.930 . S
C1169 C1168 1.377 . S
C1169 C1170 1.379 . S
C1170 H1154 0.931 . S
C1170 C1164 1.383 . S
C1170 C1169 1.379 . S
H1171 C1165 0.959 . S
H1172 C1165 0.961 . S
H1173 C1165 0.960 . S
H1174 C1166 0.930 . S
H1175 C1167 0.929 . S
H1176 C1184 0.929 . S
H1177 C1186 0.930 . S
H1178 C1188 0.930 . S
H1179 C1191 0.929 . S
H1180 C1194 0.930 . S
H1181 C1196 0.960 . S
H1182 C1196 0.960 . S
H1183 C1196 0.960 . S
C1184 H1176 0.929 . S
C1184 C1185 1.377 . S
C1184 C1186 1.384 . S
C1185 C1184 1.377 . S
C1185 C1191 1.390 . S
C1186 H1177 0.930 . S
C1186 C1184 1.384 . S
C1186 C1187 1.372 . S
C1187 C1186 1.372 . S
C1187 C1188 1.400 . S
C1187 C1192 1.490 . S
C1188 H1178 0.930 . S
C1188 C1187 1.400 . S
C1188 C1191 1.386 . S
H1189 C1205 0.930 . S
H1190 C1206 0.931 . S
C1191 H1179 0.929 . S
C1191 C1185 1.390 . S
C1191 C1188 1.386 . S
C1192 C1187 1.490 . S
C1192 C1194 1.395 . S
C1192 C1195 1.403 . S
H1193 C1199 0.930 . S
C1194 H1180 0.930 . S
C1194 C1192 1.395 . S
C1194 C1197 1.403 . S
C1195 C1192 1.403 . S
C1195 C1196 1.524 . S
C1195 C1199 1.400 . S
C1196 H1181 0.960 . S
C1196 H1182 0.960 . S
C1196 H1183 0.960 . S
C1196 C1195 1.524 . S
C1197 C1194 1.403 . S
C1197 C1198 1.392 . S
C1197 C1201 1.495 . S
C1198 C1197 1.392 . S
C1198 C1199 1.385 . S
C1198 C1200 1.478 . S
C1199 H1193 0.930 . S
C1199 C1195 1.400 . S
C1199 C1198 1.385 . S
C1200 C1198 1.478 . S
C1200 C1202 1.381 . S
C1200 C1206 1.383 . S
C1201 C1197 1.495 . S
C1201 H1207 0.959 . S
C1201 H1208 0.961 . S
C1201 H1209 0.960 . S
C1202 C1200 1.381 . S
C1202 C1203 1.394 . S
C1202 H1210 0.930 . S
C1203 C1202 1.394 . S
C1203 C1204 1.383 . S
C1203 H1211 0.929 . S
C1204 C1203 1.383 . S
C1204 C1205 1.377 . S
C1205 H1189 0.930 . S
C1205 C1204 1.377 . S
C1205 C1206 1.379 . S
C1206 H1190 0.931 . S
C1206 C1200 1.383 . S
C1206 C1205 1.379 . S
H1207 C1201 0.959 . S
H1208 C1201 0.961 . S
H1209 C1201 0.960 . S
H1210 C1202 0.930 . S
H1211 C1203 0.929 . S
H1212 C1220 0.929 . S
H1213 C1222 0.930 . S
H1214 C1224 0.930 . S
H1215 C1227 0.929 . S
H1216 C1230 0.930 . S
H1217 C1232 0.960 . S
H1218 C1232 0.960 . S
H1219 C1232 0.960 . S
C1220 H1212 0.929 . S
C1220 C1221 1.377 . S
C1220 C1222 1.384 . S
C1221 C1220 1.377 . S
C1221 C1227 1.390 . S
C1222 H1213 0.930 . S
C1222 C1220 1.384 . S
C1222 C1223 1.372 . S
C1223 C1222 1.372 . S
C1223 C1224 1.400 . S
C1223 C1228 1.490 . S
C1224 H1214 0.930 . S
C1224 C1223 1.400 . S
C1224 C1227 1.386 . S
H1225 C1241 0.930 . S
H1226 C1242 0.931 . S
C1227 H1215 0.929 . S
C1227 C1221 1.390 . S
C1227 C1224 1.386 . S
C1228 C1223 1.490 . S
C1228 C1230 1.395 . S
C1228 C1231 1.403 . S
H1229 C1235 0.930 . S
C1230 H1216 0.930 . S
C1230 C1228 1.395 . S
C1230 C1233 1.403 . S
C1231 C1228 1.403 . S
C1231 C1232 1.524 . S
C1231 C1235 1.400 . S
C1232 H1217 0.960 . S
C1232 H1218 0.960 . S
C1232 H1219 0.960 . S
C1232 C1231 1.524 . S
C1233 C1230 1.403 . S
C1233 C1234 1.392 . S
C1233 C1237 1.495 . S
C1234 C1233 1.392 . S
C1234 C1235 1.385 . S
C1234 C1236 1.478 . S
C1235 H1229 0.930 . S
C1235 C1231 1.400 . S
C1235 C1234 1.385 . S
C1236 C1234 1.478 . S
C1236 C1238 1.381 . S
C1236 C1242 1.383 . S
C1237 C1233 1.495 . S
C1237 H1243 0.959 . S
C1237 H1244 0.961 . S
C1237 H1245 0.960 . S
C1238 C1236 1.381 . S
C1238 C1239 1.394 . S
C1238 H1246 0.930 . S
C1239 C1238 1.394 . S
C1239 C1240 1.383 . S
C1239 H1247 0.929 . S
C1240 C1239 1.383 . S
C1240 C1241 1.377 . S
C1241 H1225 0.930 . S
C1241 C1240 1.377 . S
C1241 C1242 1.379 . S
C1242 H1226 0.931 . S
C1242 C1236 1.383 . S
C1242 C1241 1.379 . S
H1243 C1237 0.959 . S
H1244 C1237 0.961 . S
H1245 C1237 0.960 . S
H1246 C1238 0.930 . S
H1247 C1239 0.929 . S
H1248 C1256 0.929 . S
H1249 C1258 0.930 . S
H1250 C1260 0.930 . S
H1251 C1263 0.929 . S
H1252 C1266 0.930 . S
H1253 C1268 0.960 . S
H1254 C1268 0.960 . S
H1255 C1268 0.960 . S
C1256 H1248 0.929 . S
C1256 C1257 1.377 . S
C1256 C1258 1.384 . S
C1257 C1256 1.377 . S
C1257 C1263 1.390 . S
C1258 H1249 0.930 . S
C1258 C1256 1.384 . S
C1258 C1259 1.372 . S
C1259 C1258 1.372 . S
C1259 C1260 1.400 . S
C1259 C1264 1.490 . S
C1260 H1250 0.930 . S
C1260 C1259 1.400 . S
C1260 C1263 1.386 . S
H1261 C1277 0.930 . S
H1262 C1278 0.931 . S
C1263 H1251 0.929 . S
C1263 C1257 1.390 . S
C1263 C1260 1.386 . S
C1264 C1259 1.490 . S
C1264 C1266 1.395 . S
C1264 C1267 1.403 . S
H1265 C1271 0.930 . S
C1266 H1252 0.930 . S
C1266 C1264 1.395 . S
C1266 C1269 1.403 . S
C1267 C1264 1.403 . S
C1267 C1268 1.524 . S
C1267 C1271 1.400 . S
C1268 H1253 0.960 . S
C1268 H1254 0.960 . S
C1268 H1255 0.960 . S
C1268 C1267 1.524 . S
C1269 C1266 1.403 . S
C1269 C1270 1.392 . S
C1269 C1273 1.495 . S
C1270 C1269 1.392 . S
C1270 C1271 1.385 . S
C1270 C1272 1.478 . S
C1271 H1265 0.930 . S
C1271 C1267 1.400 . S
C1271 C1270 1.385 . S
C1272 C1270 1.478 . S
C1272 C1274 1.381 . S
C1272 C1278 1.383 . S
C1273 C1269 1.495 . S
C1273 H1279 0.959 . S
C1273 H1280 0.961 . S
C1273 H1281 0.960 . S
C1274 C1272 1.381 . S
C1274 C1275 1.394 . S
C1274 H1282 0.930 . S
C1275 C1274 1.394 . S
C1275 C1276 1.383 . S
C1275 H1283 0.929 . S
C1276 C1275 1.383 . S
C1276 C1277 1.377 . S
C1277 H1261 0.930 . S
C1277 C1276 1.377 . S
C1277 C1278 1.379 . S
C1278 H1262 0.931 . S
C1278 C1272 1.383 . S
C1278 C1277 1.379 . S
H1279 C1273 0.959 . S
H1280 C1273 0.961 . S
H1281 C1273 0.960 . S
H1282 C1274 0.930 . S
H1283 C1275 0.929 . S
H1284 C1292 0.929 . S
H1285 C1294 0.930 . S
H1286 C1296 0.930 . S
H1287 C1299 0.929 . S
H1288 C1302 0.930 . S
H1289 C1304 0.960 . S
H1290 C1304 0.960 . S
H1291 C1304 0.960 . S
C1292 H1284 0.929 . S
C1292 C1293 1.377 . S
C1292 C1294 1.384 . S
C1293 C1292 1.377 . S
C1293 C1299 1.390 . S
C1294 H1285 0.930 . S
C1294 C1292 1.384 . S
C1294 C1295 1.372 . S
C1295 C1294 1.372 . S
C1295 C1296 1.400 . S
C1295 C1300 1.490 . S
C1296 H1286 0.930 . S
C1296 C1295 1.400 . S
C1296 C1299 1.386 . S
H1297 C1313 0.930 . S
H1298 C1314 0.931 . S
C1299 H1287 0.929 . S
C1299 C1293 1.390 . S
C1299 C1296 1.386 . S
C1300 C1295 1.490 . S
C1300 C1302 1.395 . S
C1300 C1303 1.403 . S
H1301 C1307 0.930 . S
C1302 H1288 0.930 . S
C1302 C1300 1.395 . S
C1302 C1305 1.403 . S
C1303 C1300 1.403 . S
C1303 C1304 1.524 . S
C1303 C1307 1.400 . S
C1304 H1289 0.960 . S
C1304 H1290 0.960 . S
C1304 H1291 0.960 . S
C1304 C1303 1.524 . S
C1305 C1302 1.403 . S
C1305 C1306 1.392 . S
C1305 C1309 1.495 . S
C1306 C1305 1.392 . S
C1306 C1307 1.385 . S
C1306 C1308 1.478 . S
C1307 H1301 0.930 . S
C1307 C1303 1.400 . S
C1307 C1306 1.385 . S
C1308 C1306 1.478 . S
C1308 C1310 1.381 . S
C1308 C1314 1.383 . S
C1309 C1305 1.495 . S
C1309 H1315 0.959 . S
C1309 H1316 0.961 . S
C1309 H1317 0.960 . S
C1310 C1308 1.381 . S
C1310 C1311 1.394 . S
C1310 H1318 0.930 . S
C1311 C1310 1.394 . S
C1311 C1312 1.383 . S
C1311 H1319 0.929 . S
C1312 C1311 1.383 . S
C1312 C1313 1.377 . S
C1313 H1297 0.930 . S
C1313 C1312 1.377 . S
C1313 C1314 1.379 . S
C1314 H1298 0.931 . S
C1314 C1308 1.383 . S
C1314 C1313 1.379 . S
H1315 C1309 0.959 . S
H1316 C1309 0.961 . S
H1317 C1309 0.960 . S
H1318 C1310 0.930 . S
H1319 C1311 0.929 . S
H1320 C1328 0.929 1_556 S
H1321 C1330 0.930 . S
H1322 C1332 0.930 . S
H1323 C1335 0.929 . S
H1324 C1338 0.930 . S
H1325 C1340 0.960 . S
H1326 C1340 0.960 . S
H1327 C1340 0.960 . S
C1328 H1320 0.929 1_554 S
C1328 C1329 1.377 . S
C1328 C1330 1.384 . S
C1329 C1328 1.377 . S
C1329 C1335 1.390 . S
C1330 H1321 0.930 . S
C1330 C1328 1.384 . S
C1330 C1331 1.372 . S
C1331 C1330 1.372 . S
C1331 C1332 1.400 . S
C1331 C1336 1.490 . S
C1332 H1322 0.930 . S
C1332 C1331 1.400 . S
C1332 C1335 1.386 . S
H1333 C1349 0.930 . S
H1334 C1350 0.931 . S
C1335 H1323 0.929 . S
C1335 C1329 1.390 . S
C1335 C1332 1.386 . S
C1336 C1331 1.490 . S
C1336 C1338 1.395 . S
C1336 C1339 1.403 . S
H1337 C1343 0.930 . S
C1338 H1324 0.930 . S
C1338 C1336 1.395 . S
C1338 C1341 1.403 . S
C1339 C1336 1.403 . S
C1339 C1340 1.524 . S
C1339 C1343 1.400 . S
C1340 H1325 0.960 . S
C1340 H1326 0.960 . S
C1340 H1327 0.960 . S
C1340 C1339 1.524 . S
C1341 C1338 1.403 . S
C1341 C1342 1.392 . S
C1341 C1345 1.495 . S
C1342 C1341 1.392 . S
C1342 C1343 1.385 . S
C1342 C1344 1.478 . S
C1343 H1337 0.930 . S
C1343 C1339 1.400 . S
C1343 C1342 1.385 . S
C1344 C1342 1.478 . S
C1344 C1346 1.381 . S
C1344 C1350 1.383 . S
C1345 C1341 1.495 . S
C1345 H1351 0.959 . S
C1345 H1352 0.961 . S
C1345 H1353 0.960 . S
C1346 C1344 1.381 . S
C1346 C1347 1.394 . S
C1346 H1354 0.930 . S
C1347 C1346 1.394 . S
C1347 C1348 1.383 . S
C1347 H1355 0.929 . S
C1348 C1347 1.383 . S
C1348 C1349 1.377 . S
C1349 H1333 0.930 . S
C1349 C1348 1.377 . S
C1349 C1350 1.379 . S
C1350 H1334 0.931 . S
C1350 C1344 1.383 . S
C1350 C1349 1.379 . S
H1351 C1345 0.959 . S
H1352 C1345 0.961 . S
H1353 C1345 0.960 . S
H1354 C1346 0.930 . S
H1355 C1347 0.929 . S
H1356 C1364 0.929 . S
H1357 C1366 0.930 . S
H1358 C1368 0.930 . S
H1359 C1371 0.929 . S
H1360 C1374 0.930 . S
H1361 C1376 0.960 . S
H1362 C1376 0.960 . S
H1363 C1376 0.960 . S
C1364 H1356 0.929 . S
C1364 C1365 1.377 . S
C1364 C1366 1.384 . S
C1365 C1364 1.377 . S
C1365 C1371 1.390 . S
C1366 H1357 0.930 . S
C1366 C1364 1.384 . S
C1366 C1367 1.372 . S
C1367 C1366 1.372 . S
C1367 C1368 1.400 . S
C1367 C1372 1.490 . S
C1368 H1358 0.930 . S
C1368 C1367 1.400 . S
C1368 C1371 1.386 . S
H1369 C1385 0.930 . S
H1370 C1386 0.931 . S
C1371 H1359 0.929 . S
C1371 C1365 1.390 . S
C1371 C1368 1.386 . S
C1372 C1367 1.490 . S
C1372 C1374 1.395 . S
C1372 C1375 1.403 . S
H1373 C1379 0.930 . S
C1374 H1360 0.930 . S
C1374 C1372 1.395 . S
C1374 C1377 1.403 . S
C1375 C1372 1.403 . S
C1375 C1376 1.524 . S
C1375 C1379 1.400 . S
C1376 H1361 0.960 . S
C1376 H1362 0.960 . S
C1376 H1363 0.960 . S
C1376 C1375 1.524 . S
C1377 C1374 1.403 . S
C1377 C1378 1.392 . S
C1377 C1381 1.495 . S
C1378 C1377 1.392 . S
C1378 C1379 1.385 . S
C1378 C1380 1.478 . S
C1379 H1373 0.930 . S
C1379 C1375 1.400 . S
C1379 C1378 1.385 . S
C1380 C1378 1.478 . S
C1380 C1382 1.381 . S
C1380 C1386 1.383 . S
C1381 C1377 1.495 . S
C1381 H1387 0.959 . S
C1381 H1388 0.961 . S
C1381 H1389 0.960 . S
C1382 C1380 1.381 . S
C1382 C1383 1.394 . S
C1382 H1390 0.930 . S
C1383 C1382 1.394 . S
C1383 C1384 1.383 . S
C1383 H1391 0.929 . S
C1384 C1383 1.383 . S
C1384 C1385 1.377 . S
C1385 H1369 0.930 . S
C1385 C1384 1.377 . S
C1385 C1386 1.379 . S
C1386 H1370 0.931 . S
C1386 C1380 1.383 . S
C1386 C1385 1.379 . S
H1387 C1381 0.959 . S
H1388 C1381 0.961 . S
H1389 C1381 0.960 . S
H1390 C1382 0.930 . S
H1391 C1383 0.929 . S
H1392 C1400 0.929 . S
H1393 C1402 0.930 . S
H1394 C1404 0.930 . S
H1395 C1407 0.929 . S
H1396 C1410 0.929 1_545 S
H1397 C1412 0.960 . S
H1398 C1412 0.960 . S
H1399 C1412 0.960 . S
C1400 H1392 0.929 . S
C1400 C1401 1.377 . S
C1400 C1402 1.384 . S
C1401 C1400 1.377 . S
C1401 C1407 1.390 . S
C1402 H1393 0.930 . S
C1402 C1400 1.384 . S
C1402 C1403 1.372 . S
C1403 C1402 1.372 . S
C1403 C1404 1.400 . S
C1403 C1408 1.490 . S
C1404 H1394 0.930 . S
C1404 C1403 1.400 . S
C1404 C1407 1.386 . S
H1405 C1421 0.930 . S
H1406 C1422 0.931 . S
C1407 H1395 0.929 . S
C1407 C1401 1.390 . S
C1407 C1404 1.386 . S
C1408 C1403 1.490 . S
C1408 C1410 1.394 1_545 S
C1408 C1411 1.403 1_455 S
H1409 C1415 0.930 . S
C1410 H1396 0.929 1_565 S
C1410 C1408 1.394 1_565 S
C1410 C1413 1.404 . S
C1411 C1408 1.403 1_655 S
C1411 C1412 1.524 . S
C1411 C1415 1.400 1_545 S
C1412 H1397 0.960 . S
C1412 H1398 0.960 . S
C1412 H1399 0.960 . S
C1412 C1411 1.524 . S
C1413 C1410 1.404 . S
C1413 C1414 1.392 1_455 S
C1413 C1417 1.495 . S
C1414 C1413 1.392 1_655 S
C1414 C1415 1.385 . S
C1414 C1416 1.478 . S
C1415 H1409 0.930 . S
C1415 C1411 1.400 1_565 S
C1415 C1414 1.385 . S
C1416 C1414 1.478 . S
C1416 C1418 1.381 . S
C1416 C1422 1.383 . S
C1417 C1413 1.495 . S
C1417 H1423 0.959 . S
C1417 H1424 0.961 . S
C1417 H1425 0.960 . S
C1418 C1416 1.381 . S
C1418 C1419 1.394 . S
C1418 H1426 0.930 . S
C1419 C1418 1.394 . S
C1419 C1420 1.383 . S
C1419 H1427 0.929 . S
C1420 C1419 1.383 . S
C1420 C1421 1.377 . S
C1421 H1405 0.930 . S
C1421 C1420 1.377 . S
C1421 C1422 1.379 . S
C1422 H1406 0.931 . S
C1422 C1416 1.383 . S
C1422 C1421 1.379 . S
H1423 C1417 0.959 . S
H1424 C1417 0.961 . S
H1425 C1417 0.960 . S
H1426 C1418 0.930 . S
H1427 C1419 0.929 . S
H1428 C1436 0.929 . S
H1429 C1438 0.930 . S
H1430 C1440 0.930 . S
H1431 C1443 0.929 . S
H1432 C1446 0.930 . S
H1433 C1448 0.960 . S
H1434 C1448 0.960 . S
H1435 C1448 0.960 . S
C1436 H1428 0.929 . S
C1436 C1437 1.377 . S
C1436 C1438 1.384 . S
C1437 C1436 1.377 . S
C1437 C1443 1.390 . S
C1438 H1429 0.930 . S
C1438 C1436 1.384 . S
C1438 C1439 1.372 . S
C1439 C1438 1.372 . S
C1439 C1440 1.400 . S
C1439 C1444 1.490 . S
C1440 H1430 0.930 . S
C1440 C1439 1.400 . S
C1440 C1443 1.386 . S
H1441 C1457 0.930 . S
H1442 C1458 0.931 . S
C1443 H1431 0.929 . S
C1443 C1437 1.390 . S
C1443 C1440 1.386 . S
C1444 C1439 1.490 . S
C1444 C1446 1.395 1_455 S
C1444 C1447 1.403 . S
H1445 C1451 0.930 . S
C1446 H1432 0.930 . S
C1446 C1444 1.395 1_655 S
C1446 C1449 1.403 . S
C1447 C1444 1.403 . S
C1447 C1448 1.524 . S
C1447 C1451 1.367 1_455 S
C1448 H1433 0.960 . S
C1448 H1434 0.960 . S
C1448 H1435 0.960 . S
C1448 C1447 1.524 . S
C1449 C1446 1.403 . S
C1449 C1450 1.392 . S
C1449 C1453 1.495 . S
C1450 C1449 1.392 . S
C1450 C1451 1.419 . S
C1450 C1452 1.478 . S
C1451 H1445 0.930 . S
C1451 C1447 1.367 1_655 S
C1451 C1450 1.419 . S
C1452 C1450 1.478 . S
C1452 C1454 1.381 . S
C1452 C1458 1.383 . S
C1453 C1449 1.495 . S
C1453 H1459 0.959 . S
C1453 H1460 0.961 . S
C1453 H1461 0.960 . S
C1454 C1452 1.381 . S
C1454 C1455 1.394 . S
C1454 H1462 0.930 . S
C1455 C1454 1.394 . S
C1455 C1456 1.383 . S
C1455 H1463 0.929 . S
C1456 C1455 1.383 . S
C1456 C1457 1.377 . S
C1457 H1441 0.930 . S
C1457 C1456 1.377 . S
C1457 C1458 1.379 . S
C1458 H1442 0.931 . S
C1458 C1452 1.383 . S
C1458 C1457 1.379 . S
H1459 C1453 0.959 . S
H1460 C1453 0.961 . S
H1461 C1453 0.960 . S
H1462 C1454 0.930 . S
H1463 C1455 0.929 . S
H1464 C1472 0.929 . S
H1465 C1474 0.930 . S
H1466 C1476 0.930 . S
H1467 C1479 0.929 . S
H1468 C1482 0.930 . S
H1469 C1484 0.960 . S
H1470 C1484 0.960 . S
H1471 C1484 0.960 . S
C1472 H1464 0.929 . S
C1472 C1473 1.377 . S
C1472 C1474 1.384 . S
C1473 C1472 1.377 . S
C1473 C1479 1.390 . S
C1474 H1465 0.930 . S
C1474 C1472 1.384 . S
C1474 C1475 1.372 . S
C1475 C1474 1.372 . S
C1475 C1476 1.400 . S
C1475 C1480 1.490 . S
C1476 H1466 0.930 . S
C1476 C1475 1.400 . S
C1476 C1479 1.386 . S
H1477 C1493 0.930 . S
H1478 C1494 0.931 . S
C1479 H1467 0.929 . S
C1479 C1473 1.390 . S
C1479 C1476 1.386 . S
C1480 C1475 1.490 . S
C1480 C1482 1.395 . S
C1480 C1483 1.403 . S
H1481 C1487 0.930 . S
C1482 H1468 0.930 . S
C1482 C1480 1.395 . S
C1482 C1485 1.403 . S
C1483 C1480 1.403 . S
C1483 C1484 1.524 . S
C1483 C1487 1.400 . S
C1484 H1469 0.960 . S
C1484 H1470 0.960 . S
C1484 H1471 0.960 . S
C1484 C1483 1.524 . S
C1485 C1482 1.403 . S
C1485 C1486 1.392 . S
C1485 C1489 1.495 . S
C1486 C1485 1.392 . S
C1486 C1487 1.385 . S
C1486 C1488 1.478 . S
C1487 H1481 0.930 . S
C1487 C1483 1.400 . S
C1487 C1486 1.385 . S
C1488 C1486 1.478 . S
C1488 C1490 1.381 . S
C1488 C1494 1.383 . S
C1489 C1485 1.495 . S
C1489 H1495 0.959 . S
C1489 H1496 0.961 . S
C1489 H1497 0.960 . S
C1490 C1488 1.381 . S
C1490 C1491 1.394 . S
C1490 H1498 0.930 . S
C1491 C1490 1.394 . S
C1491 C1492 1.383 . S
C1491 H1499 0.929 . S
C1492 C1491 1.383 . S
C1492 C1493 1.377 . S
C1493 H1477 0.930 . S
C1493 C1492 1.377 . S
C1493 C1494 1.379 . S
C1494 H1478 0.931 . S
C1494 C1488 1.383 . S
C1494 C1493 1.379 . S
H1495 C1489 0.959 . S
H1496 C1489 0.961 . S
H1497 C1489 0.960 . S
H1498 C1490 0.930 . S
H1499 C1491 0.929 . S
H1500 C1508 0.929 . S
H1501 C1510 0.930 . S
H1502 C1512 0.930 . S
H1503 C1515 0.929 . S
H1504 C1518 0.930 . S
H1505 C1520 0.960 . S
H1506 C1520 0.960 . S
H1507 C1520 0.960 1_545 S
C1508 H1500 0.929 . S
C1508 C1509 1.377 . S
C1508 C1510 1.384 . S
C1509 C1508 1.377 . S
C1509 C1515 1.390 . S
C1510 H1501 0.930 . S
C1510 C1508 1.384 . S
C1510 C1511 1.372 . S
C1511 C1510 1.372 . S
C1511 C1512 1.400 . S
C1511 C1516 1.490 . S
C1512 H1502 0.930 . S
C1512 C1511 1.400 . S
C1512 C1515 1.386 . S
H1513 C1529 0.930 . S
H1514 C1530 0.931 . S
C1515 H1503 0.929 . S
C1515 C1509 1.390 . S
C1515 C1512 1.386 . S
C1516 C1511 1.490 . S
C1516 C1518 1.395 . S
C1516 C1519 1.403 1_545 S
H1517 C1523 0.930 . S
C1518 H1504 0.930 . S
C1518 C1516 1.395 . S
C1518 C1521 1.403 . S
C1519 C1516 1.403 1_565 S
C1519 C1520 1.524 . S
C1519 C1523 1.400 . S
C1520 H1505 0.960 . S
C1520 H1506 0.960 . S
C1520 H1507 0.960 1_565 S
C1520 C1519 1.524 . S
C1521 C1518 1.403 . S
C1521 C1522 1.392 1_545 S
C1521 C1525 1.495 . S
C1522 C1521 1.392 1_565 S
C1522 C1523 1.385 . S
C1522 C1524 1.478 . S
C1523 H1517 0.930 . S
C1523 C1519 1.400 . S
C1523 C1522 1.385 . S
C1524 C1522 1.478 . S
C1524 C1526 1.381 . S
C1524 C1530 1.383 . S
C1525 C1521 1.495 . S
C1525 H1531 0.959 . S
C1525 H1532 0.961 . S
C1525 H1533 0.960 1_545 S
C1526 C1524 1.381 . S
C1526 C1527 1.394 . S
C1526 H1534 0.930 . S
C1527 C1526 1.394 . S
C1527 C1528 1.383 . S
C1527 H1535 0.929 . S
C1528 C1527 1.383 . S
C1528 C1529 1.377 . S
C1529 H1513 0.930 . S
C1529 C1528 1.377 . S
C1529 C1530 1.379 . S
C1530 H1514 0.931 . S
C1530 C1524 1.383 . S
C1530 C1529 1.379 . S
H1531 C1525 0.959 . S
H1532 C1525 0.961 . S
H1533 C1525 0.960 1_565 S
H1534 C1526 0.930 . S
H1535 C1527 0.929 . S
H1536 C1544 0.929 . S
H1537 C1546 0.930 . S
H1538 C1548 0.930 . S
H1539 C1551 0.929 . S
H1540 C1554 0.930 . S
H1541 C1556 0.960 . S
H1542 C1556 0.960 . S
H1543 C1556 0.960 . S
C1544 H1536 0.929 . S
C1544 C1545 1.377 . S
C1544 C1546 1.384 . S
C1545 C1544 1.377 . S
C1545 C1551 1.390 . S
C1546 H1537 0.930 . S
C1546 C1544 1.384 . S
C1546 C1547 1.372 . S
C1547 C1546 1.372 . S
C1547 C1548 1.400 . S
C1547 C1552 1.490 . S
C1548 H1538 0.930 . S
C1548 C1547 1.400 . S
C1548 C1551 1.386 . S
H1549 C1565 0.930 . S
H1550 C1566 0.931 . S
C1551 H1539 0.929 . S
C1551 C1545 1.390 . S
C1551 C1548 1.386 . S
C1552 C1547 1.490 . S
C1552 C1554 1.395 . S
C1552 C1555 1.403 . S
H1553 C1559 0.930 . S
C1554 H1540 0.930 . S
C1554 C1552 1.395 . S
C1554 C1557 1.403 1_455 S
C1555 C1552 1.403 . S
C1555 C1556 1.524 . S
C1555 C1559 1.400 1_455 S
C1556 H1541 0.960 . S
C1556 H1542 0.960 . S
C1556 H1543 0.960 . S
C1556 C1555 1.524 . S
C1557 C1554 1.403 1_655 S
C1557 C1558 1.392 . S
C1557 C1561 1.495 . S
C1558 C1557 1.392 . S
C1558 C1559 1.385 . S
C1558 C1560 1.478 . S
C1559 H1553 0.930 . S
C1559 C1555 1.400 1_655 S
C1559 C1558 1.385 . S
C1560 C1558 1.478 . S
C1560 C1562 1.381 . S
C1560 C1566 1.383 . S
C1561 C1557 1.495 . S
C1561 H1567 0.959 . S
C1561 H1568 0.961 . S
C1561 H1569 0.960 . S
C1562 C1560 1.381 . S
C1562 C1563 1.394 . S
C1562 H1570 0.930 . S
C1563 C1562 1.394 . S
C1563 C1564 1.383 . S
C1563 H1571 0.929 . S
C1564 C1563 1.383 . S
C1564 C1565 1.377 . S
C1565 H1549 0.930 . S
C1565 C1564 1.377 . S
C1565 C1566 1.379 . S
C1566 H1550 0.931 . S
C1566 C1560 1.383 . S
C1566 C1565 1.379 . S
H1567 C1561 0.959 . S
H1568 C1561 0.961 . S
H1569 C1561 0.960 . S
H1570 C1562 0.930 . S
H1571 C1563 0.929 . S
H1572 C1580 0.929 . S
H1573 C1582 0.930 . S
H1574 C1584 0.930 . S
H1575 C1587 0.929 . S
H1576 C1590 0.930 . S
H1577 C1592 0.960 . S
H1578 C1592 0.960 . S
H1579 C1592 0.960 . S
C1580 H1572 0.929 . S
C1580 C1581 1.377 . S
C1580 C1582 1.384 . S
C1581 C1580 1.377 . S
C1581 C1587 1.390 . S
C1582 H1573 0.930 . S
C1582 C1580 1.384 . S
C1582 C1583 1.372 . S
C1583 C1582 1.372 . S
C1583 C1584 1.400 . S
C1583 C1588 1.490 . S
C1584 H1574 0.930 . S
C1584 C1583 1.400 . S
C1584 C1587 1.386 . S
H1585 C1601 0.930 . S
H1586 C1602 0.931 . S
C1587 H1575 0.929 . S
C1587 C1581 1.390 . S
C1587 C1584 1.386 . S
C1588 C1583 1.490 . S
C1588 C1590 1.395 . S
C1588 C1591 1.403 . S
H1589 C1595 0.930 . S
C1590 H1576 0.930 . S
C1590 C1588 1.395 . S
C1590 C1593 1.403 . S
C1591 C1588 1.403 . S
C1591 C1592 1.524 . S
C1591 C1595 1.400 . S
C1592 H1577 0.960 . S
C1592 H1578 0.960 . S
C1592 H1579 0.960 . S
C1592 C1591 1.524 . S
C1593 C1590 1.403 . S
C1593 C1594 1.392 . S
C1593 C1597 1.495 . S
C1594 C1593 1.392 . S
C1594 C1595 1.385 . S
C1594 C1596 1.478 . S
C1595 H1589 0.930 . S
C1595 C1591 1.400 . S
C1595 C1594 1.385 . S
C1596 C1594 1.478 . S
C1596 C1598 1.381 . S
C1596 C1602 1.383 . S
C1597 C1593 1.495 . S
C1597 H1603 0.959 . S
C1597 H1604 0.961 . S
C1597 H1605 0.960 . S
C1598 C1596 1.381 . S
C1598 C1599 1.394 . S
C1598 H1606 0.930 . S
C1599 C1598 1.394 . S
C1599 C1600 1.383 . S
C1599 H1607 0.929 . S
C1600 C1599 1.383 . S
C1600 C1601 1.377 . S
C1601 H1585 0.930 . S
C1601 C1600 1.377 . S
C1601 C1602 1.379 . S
C1602 H1586 0.931 . S
C1602 C1596 1.383 . S
C1602 C1601 1.379 . S
H1603 C1597 0.959 . S
H1604 C1597 0.961 . S
H1605 C1597 0.960 . S
H1606 C1598 0.930 . S
H1607 C1599 0.929 . S
H1608 C1616 0.929 . S
H1609 C1618 0.930 . S
H1610 C1620 0.930 . S
H1611 C1623 0.929 . S
H1612 C1626 0.930 . S
H1613 C1628 0.960 . S
H1614 C1628 0.960 . S
H1615 C1628 0.960 1_565 S
C1616 H1608 0.929 . S
C1616 C1617 1.377 . S
C1616 C1618 1.384 . S
C1617 C1616 1.377 . S
C1617 C1623 1.390 . S
C1618 H1609 0.930 . S
C1618 C1616 1.384 . S
C1618 C1619 1.372 . S
C1619 C1618 1.372 . S
C1619 C1620 1.400 . S
C1619 C1624 1.490 . S
C1620 H1610 0.930 . S
C1620 C1619 1.400 . S
C1620 C1623 1.386 . S
H1621 C1637 0.930 . S
H1622 C1638 0.931 . S
C1623 H1611 0.929 . S
C1623 C1617 1.390 . S
C1623 C1620 1.386 . S
C1624 C1619 1.490 . S
C1624 C1626 1.395 . S
C1624 C1627 1.381 1_565 S
H1625 C1631 0.930 . S
C1626 H1612 0.930 . S
C1626 C1624 1.395 . S
C1626 C1629 1.403 . S
C1627 C1624 1.381 1_545 S
C1627 C1628 1.527 . S
C1627 C1631 1.420 . S
C1628 H1613 0.960 . S
C1628 H1614 0.960 . S
C1628 H1615 0.960 1_545 S
C1628 C1627 1.527 . S
C1629 C1626 1.403 . S
C1629 C1630 1.392 1_565 S
C1629 C1633 1.495 . S
C1630 C1629 1.392 1_545 S
C1630 C1631 1.385 . S
C1630 C1632 1.478 . S
C1631 H1625 0.930 . S
C1631 C1627 1.420 . S
C1631 C1630 1.385 . S
C1632 C1630 1.478 . S
C1632 C1634 1.381 . S
C1632 C1638 1.383 . S
C1633 C1629 1.495 . S
C1633 H1639 0.959 . S
C1633 H1640 0.961 . S
C1633 H1641 0.960 1_565 S
C1634 C1632 1.381 . S
C1634 C1635 1.394 . S
C1634 H1642 0.930 . S
C1635 C1634 1.394 . S
C1635 C1636 1.383 . S
C1635 H1643 0.929 . S
C1636 C1635 1.383 . S
C1636 C1637 1.377 . S
C1637 H1621 0.930 . S
C1637 C1636 1.377 . S
C1637 C1638 1.379 . S
C1638 H1622 0.931 . S
C1638 C1632 1.383 . S
C1638 C1637 1.379 . S
H1639 C1633 0.959 . S
H1640 C1633 0.961 . S
H1641 C1633 0.960 1_545 S
H1642 C1634 0.930 . S
H1643 C1635 0.929 . S
H1644 C1652 0.929 . S
H1645 C1654 0.930 . S
H1646 C1656 0.930 . S
H1647 C1659 0.929 . S
H1648 C1662 0.930 . S
H1649 C1664 0.960 . S
H1650 C1664 0.960 . S
H1651 C1664 0.960 . S
C1652 H1644 0.929 . S
C1652 C1653 1.377 . S
C1652 C1654 1.384 . S
C1653 C1652 1.377 . S
C1653 C1659 1.390 . S
C1654 H1645 0.930 . S
C1654 C1652 1.384 . S
C1654 C1655 1.372 . S
C1655 C1654 1.372 . S
C1655 C1656 1.400 . S
C1655 C1660 1.490 . S
C1656 H1646 0.930 . S
C1656 C1655 1.400 . S
C1656 C1659 1.386 . S
H1657 C1673 0.930 . S
H1658 C1674 0.931 . S
C1659 H1647 0.929 . S
C1659 C1653 1.390 . S
C1659 C1656 1.386 . S
C1660 C1655 1.490 . S
C1660 C1662 1.395 1_455 S
C1660 C1663 1.403 1_545 S
H1661 C1667 0.932 . S
C1662 H1648 0.930 . S
C1662 C1660 1.395 1_655 S
C1662 C1665 1.403 . S
C1663 C1660 1.403 1_565 S
C1663 C1664 1.524 . S
C1663 C1667 1.400 1_455 S
C1664 H1649 0.960 . S
C1664 H1650 0.960 . S
C1664 H1651 0.960 . S
C1664 C1663 1.524 . S
C1665 C1662 1.403 . S
C1665 C1666 1.392 1_545 S
C1665 C1669 1.495 . S
C1666 C1665 1.392 1_565 S
C1666 C1667 1.385 . S
C1666 C1668 1.478 . S
C1667 H1661 0.932 . S
C1667 C1663 1.400 1_655 S
C1667 C1666 1.385 . S
C1668 C1666 1.478 . S
C1668 C1670 1.381 . S
C1668 C1674 1.383 . S
C1669 C1665 1.495 . S
C1669 H1675 0.959 . S
C1669 H1676 0.961 . S
C1669 H1677 0.960 . S
C1670 C1668 1.381 . S
C1670 C1671 1.394 . S
C1670 H1678 0.930 . S
C1671 C1670 1.394 . S
C1671 C1672 1.383 . S
C1671 H1679 0.929 . S
C1672 C1671 1.383 . S
C1672 C1673 1.377 . S
C1673 H1657 0.930 . S
C1673 C1672 1.377 . S
C1673 C1674 1.379 . S
C1674 H1658 0.931 . S
C1674 C1668 1.383 . S
C1674 C1673 1.379 . S
H1675 C1669 0.959 . S
H1676 C1669 0.961 . S
H1677 C1669 0.960 . S
H1678 C1670 0.930 . S
H1679 C1671 0.929 . S
H1680 C1688 0.929 . S
H1681 C1690 0.930 . S
H1682 C1692 0.930 . S
H1683 C1695 0.929 . S
H1684 C1698 0.930 . S
H1685 C1700 0.960 . S
H1686 C1700 0.960 . S
H1687 C1700 0.960 . S
C1688 H1680 0.929 . S
C1688 C1689 1.377 . S
C1688 C1690 1.384 . S
C1689 C1688 1.377 . S
C1689 C1695 1.390 . S
C1690 H1681 0.930 . S
C1690 C1688 1.384 . S
C1690 C1691 1.372 . S
C1691 C1690 1.372 . S
C1691 C1692 1.400 . S
C1691 C1696 1.490 . S
C1692 H1682 0.930 . S
C1692 C1691 1.400 . S
C1692 C1695 1.386 . S
H1693 C1709 0.930 . S
H1694 C1710 0.931 . S
C1695 H1683 0.929 . S
C1695 C1689 1.390 . S
C1695 C1692 1.386 . S
C1696 C1691 1.490 . S
C1696 C1698 1.395 . S
C1696 C1699 1.403 . S
H1697 C1703 0.930 . S
C1698 H1684 0.930 . S
C1698 C1696 1.395 . S
C1698 C1701 1.403 . S
C1699 C1696 1.403 . S
C1699 C1700 1.524 . S
C1699 C1703 1.400 . S
C1700 H1685 0.960 . S
C1700 H1686 0.960 . S
C1700 H1687 0.960 . S
C1700 C1699 1.524 . S
C1701 C1698 1.403 . S
C1701 C1702 1.392 . S
C1701 C1705 1.495 . S
C1702 C1701 1.392 . S
C1702 C1703 1.385 . S
C1702 C1704 1.478 . S
C1703 H1697 0.930 . S
C1703 C1699 1.400 . S
C1703 C1702 1.385 . S
C1704 C1702 1.478 . S
C1704 C1706 1.381 . S
C1704 C1710 1.383 . S
C1705 C1701 1.495 . S
C1705 H1711 0.959 . S
C1705 H1712 0.961 . S
C1705 H1713 0.960 . S
C1706 C1704 1.381 . S
C1706 C1707 1.394 . S
C1706 H1714 0.930 . S
C1707 C1706 1.394 . S
C1707 C1708 1.383 . S
C1707 H1715 0.929 . S
C1708 C1707 1.383 . S
C1708 C1709 1.377 . S
C1709 H1693 0.930 . S
C1709 C1708 1.377 . S
C1709 C1710 1.379 . S
C1710 H1694 0.931 . S
C1710 C1704 1.383 . S
C1710 C1709 1.379 . S
H1711 C1705 0.959 . S
H1712 C1705 0.961 . S
H1713 C1705 0.960 . S
H1714 C1706 0.930 . S
H1715 C1707 0.929 . S
H1716 C1724 0.929 . S
H1717 C1726 0.930 . S
H1718 C1728 0.930 . S
H1719 C1731 0.929 . S
H1720 C1734 0.930 . S
H1721 C1736 0.960 . S
H1722 C1736 0.960 . S
H1723 C1736 0.960 . S
C1724 H1716 0.929 . S
C1724 C1725 1.377 . S
C1724 C1726 1.384 . S
C1725 C1724 1.377 . S
C1725 C1731 1.390 . S
C1726 H1717 0.930 . S
C1726 C1724 1.384 . S
C1726 C1727 1.372 . S
C1727 C1726 1.372 . S
C1727 C1728 1.400 . S
C1727 C1732 1.490 . S
C1728 H1718 0.930 . S
C1728 C1727 1.400 . S
C1728 C1731 1.386 . S
H1729 C1745 0.930 . S
H1730 C1746 0.931 . S
C1731 H1719 0.929 . S
C1731 C1725 1.390 . S
C1731 C1728 1.386 . S
C1732 C1727 1.490 . S
C1732 C1734 1.395 . S
C1732 C1735 1.403 . S
H1733 C1739 0.930 . S
C1734 H1720 0.930 . S
C1734 C1732 1.395 . S
C1734 C1737 1.403 . S
C1735 C1732 1.403 . S
C1735 C1736 1.524 . S
C1735 C1739 1.400 . S
C1736 H1721 0.960 . S
C1736 H1722 0.960 . S
C1736 H1723 0.960 . S
C1736 C1735 1.524 . S
C1737 C1734 1.403 . S
C1737 C1738 1.392 . S
C1737 C1741 1.495 . S
C1738 C1737 1.392 . S
C1738 C1739 1.385 . S
C1738 C1740 1.478 . S
C1739 H1733 0.930 . S
C1739 C1735 1.400 . S
C1739 C1738 1.385 . S
C1740 C1738 1.478 . S
C1740 C1742 1.381 . S
C1740 C1746 1.383 . S
C1741 C1737 1.495 . S
C1741 H1747 0.959 . S
C1741 H1748 0.961 . S
C1741 H1749 0.960 . S
C1742 C1740 1.381 . S
C1742 C1743 1.394 . S
C1742 H1750 0.930 . S
C1743 C1742 1.394 . S
C1743 C1744 1.383 . S
C1743 H1751 0.929 . S
C1744 C1743 1.383 . S
C1744 C1745 1.377 . S
C1745 H1729 0.930 . S
C1745 C1744 1.377 . S
C1745 C1746 1.379 . S
C1746 H1730 0.931 . S
C1746 C1740 1.383 . S
C1746 C1745 1.379 . S
H1747 C1741 0.959 . S
H1748 C1741 0.961 . S
H1749 C1741 0.960 . S
H1750 C1742 0.930 . S
H1751 C1743 0.929 . S
H1752 C1760 0.929 . S
H1753 C1762 0.930 . S
H1754 C1764 0.930 . S
H1755 C1767 0.929 . S
H1756 C1770 0.930 . S
H1757 C1772 0.960 . S
H1758 C1772 0.960 . S
H1759 C1772 0.960 . S
C1760 H1752 0.929 . S
C1760 C1761 1.377 . S
C1760 C1762 1.384 . S
C1761 C1760 1.377 . S
C1761 C1767 1.390 . S
C1762 H1753 0.930 . S
C1762 C1760 1.384 . S
C1762 C1763 1.372 . S
C1763 C1762 1.372 . S
C1763 C1764 1.400 . S
C1763 C1768 1.490 . S
C1764 H1754 0.930 . S
C1764 C1763 1.400 . S
C1764 C1767 1.386 . S
H1765 C1781 0.930 . S
H1766 C1782 0.931 . S
C1767 H1755 0.929 . S
C1767 C1761 1.390 . S
C1767 C1764 1.386 . S
C1768 C1763 1.490 . S
C1768 C1770 1.395 . S
C1768 C1771 1.403 . S
H1769 C1775 0.930 . S
C1770 H1756 0.930 . S
C1770 C1768 1.395 . S
C1770 C1773 1.403 . S
C1771 C1768 1.403 . S
C1771 C1772 1.524 . S
C1771 C1775 1.400 . S
C1772 H1757 0.960 . S
C1772 H1758 0.960 . S
C1772 H1759 0.960 . S
C1772 C1771 1.524 . S
C1773 C1770 1.403 . S
C1773 C1774 1.392 . S
C1773 C1777 1.495 . S
C1774 C1773 1.392 . S
C1774 C1775 1.385 . S
C1774 C1776 1.478 . S
C1775 H1769 0.930 . S
C1775 C1771 1.400 . S
C1775 C1774 1.385 . S
C1776 C1774 1.478 . S
C1776 C1778 1.381 . S
C1776 C1782 1.383 . S
C1777 C1773 1.495 . S
C1777 H1783 0.959 . S
C1777 H1784 0.961 . S
C1777 H1785 0.960 . S
C1778 C1776 1.381 . S
C1778 C1779 1.394 . S
C1778 H1786 0.930 . S
C1779 C1778 1.394 . S
C1779 C1780 1.383 . S
C1779 H1787 0.929 . S
C1780 C1779 1.383 . S
C1780 C1781 1.377 . S
C1781 H1765 0.930 . S
C1781 C1780 1.377 . S
C1781 C1782 1.379 . S
C1782 H1766 0.931 . S
C1782 C1776 1.383 . S
C1782 C1781 1.379 . S
H1783 C1777 0.959 . S
H1784 C1777 0.961 . S
H1785 C1777 0.960 . S
H1786 C1778 0.930 . S
H1787 C1779 0.929 . S
H1788 C1796 0.929 . S
H1789 C1798 0.930 . S
H1790 C1800 0.930 . S
H1791 C1803 0.929 . S
H1792 C1806 0.930 . S
H1793 C1808 0.960 . S
H1794 C1808 0.960 . S
H1795 C1808 0.960 . S
C1796 H1788 0.929 . S
C1796 C1797 1.377 . S
C1796 C1798 1.384 . S
C1797 C1796 1.377 . S
C1797 C1803 1.390 . S
C1798 H1789 0.930 . S
C1798 C1796 1.384 . S
C1798 C1799 1.372 . S
C1799 C1798 1.372 . S
C1799 C1800 1.400 . S
C1799 C1804 1.490 . S
C1800 H1790 0.930 . S
C1800 C1799 1.400 . S
C1800 C1803 1.386 . S
H1801 C1817 0.930 . S
H1802 C1818 0.931 . S
C1803 H1791 0.929 . S
C1803 C1797 1.390 . S
C1803 C1800 1.386 . S
C1804 C1799 1.490 . S
C1804 C1806 1.395 . S
C1804 C1807 1.403 . S
H1805 C1811 0.930 . S
C1806 H1792 0.930 . S
C1806 C1804 1.395 . S
C1806 C1809 1.403 . S
C1807 C1804 1.403 . S
C1807 C1808 1.524 . S
C1807 C1811 1.400 . S
C1808 H1793 0.960 . S
C1808 H1794 0.960 . S
C1808 H1795 0.960 . S
C1808 C1807 1.524 . S
C1809 C1806 1.403 . S
C1809 C1810 1.392 . S
C1809 C1813 1.495 . S
C1810 C1809 1.392 . S
C1810 C1811 1.385 . S
C1810 C1812 1.478 . S
C1811 H1805 0.930 . S
C1811 C1807 1.400 . S
C1811 C1810 1.385 . S
C1812 C1810 1.478 . S
C1812 C1814 1.381 . S
C1812 C1818 1.383 . S
C1813 C1809 1.495 . S
C1813 H1819 0.959 . S
C1813 H1820 0.961 . S
C1813 H1821 0.960 . S
C1814 C1812 1.381 . S
C1814 C1815 1.394 . S
C1814 H1822 0.930 . S
C1815 C1814 1.394 . S
C1815 C1816 1.383 . S
C1815 H1823 0.929 . S
C1816 C1815 1.383 . S
C1816 C1817 1.377 . S
C1817 H1801 0.930 . S
C1817 C1816 1.377 . S
C1817 C1818 1.379 . S
C1818 H1802 0.931 . S
C1818 C1812 1.383 . S
C1818 C1817 1.379 . S
H1819 C1813 0.959 . S
H1820 C1813 0.961 . S
H1821 C1813 0.960 . S
H1822 C1814 0.930 . S
H1823 C1815 0.929 . S
H1824 C1832 0.929 . S
H1825 C1834 0.930 . S
H1826 C1836 0.930 . S
H1827 C1839 0.929 . S
H1828 C1842 0.930 . S
H1829 C1844 0.960 . S
H1830 C1844 0.960 . S
H1831 C1844 0.960 . S
C1832 H1824 0.929 . S
C1832 C1833 1.377 . S
C1832 C1834 1.384 . S
C1833 C1832 1.377 . S
C1833 C1839 1.390 . S
C1834 H1825 0.930 . S
C1834 C1832 1.384 . S
C1834 C1835 1.372 . S
C1835 C1834 1.372 . S
C1835 C1836 1.400 . S
C1835 C1840 1.490 . S
C1836 H1826 0.930 . S
C1836 C1835 1.400 . S
C1836 C1839 1.386 . S
H1837 C1853 0.930 . S
H1838 C1854 0.931 . S
C1839 H1827 0.929 . S
C1839 C1833 1.390 . S
C1839 C1836 1.386 . S
C1840 C1835 1.490 . S
C1840 C1842 1.395 . S
C1840 C1843 1.403 . S
H1841 C1847 0.930 . S
C1842 H1828 0.930 . S
C1842 C1840 1.395 . S
C1842 C1845 1.403 . S
C1843 C1840 1.403 . S
C1843 C1844 1.524 . S
C1843 C1847 1.400 . S
C1844 H1829 0.960 . S
C1844 H1830 0.960 . S
C1844 H1831 0.960 . S
C1844 C1843 1.524 . S
C1845 C1842 1.403 . S
C1845 C1846 1.392 . S
C1845 C1849 1.495 . S
C1846 C1845 1.392 . S
C1846 C1847 1.385 . S
C1846 C1848 1.478 . S
C1847 H1841 0.930 . S
C1847 C1843 1.400 . S
C1847 C1846 1.385 . S
C1848 C1846 1.478 . S
C1848 C1850 1.381 . S
C1848 C1854 1.383 . S
C1849 C1845 1.495 . S
C1849 H1855 0.959 . S
C1849 H1856 0.961 . S
C1849 H1857 0.960 . S
C1850 C1848 1.381 . S
C1850 C1851 1.394 . S
C1850 H1858 0.930 . S
C1851 C1850 1.394 . S
C1851 C1852 1.383 . S
C1851 H1859 0.929 . S
C1852 C1851 1.383 . S
C1852 C1853 1.377 . S
C1853 H1837 0.930 . S
C1853 C1852 1.377 . S
C1853 C1854 1.379 . S
C1854 H1838 0.931 . S
C1854 C1848 1.383 . S
C1854 C1853 1.379 . S
H1855 C1849 0.959 . S
H1856 C1849 0.961 . S
H1857 C1849 0.960 . S
H1858 C1850 0.930 . S
H1859 C1851 0.929 . S
H1860 C1868 0.929 . S
H1861 C1870 0.930 . S
H1862 C1872 0.930 . S
H1863 C1875 0.929 . S
H1864 C1878 0.930 . S
H1865 C1880 0.960 . S
H1866 C1880 0.960 . S
H1867 C1880 0.960 . S
C1868 H1860 0.929 . S
C1868 C1869 1.377 . S
C1868 C1870 1.384 . S
C1869 C1868 1.377 . S
C1869 C1875 1.390 . S
C1870 H1861 0.930 . S
C1870 C1868 1.384 . S
C1870 C1871 1.372 . S
C1871 C1870 1.372 . S
C1871 C1872 1.400 . S
C1871 C1876 1.490 . S
C1872 H1862 0.930 . S
C1872 C1871 1.400 . S
C1872 C1875 1.386 . S
H1873 C1889 0.930 . S
H1874 C1890 0.931 . S
C1875 H1863 0.929 . S
C1875 C1869 1.390 . S
C1875 C1872 1.386 . S
C1876 C1871 1.490 . S
C1876 C1878 1.395 . S
C1876 C1879 1.403 . S
H1877 C1883 0.930 . S
C1878 H1864 0.930 . S
C1878 C1876 1.395 . S
C1878 C1881 1.403 . S
C1879 C1876 1.403 . S
C1879 C1880 1.524 . S
C1879 C1883 1.400 . S
C1880 H1865 0.960 . S
C1880 H1866 0.960 . S
C1880 H1867 0.960 . S
C1880 C1879 1.524 . S
C1881 C1878 1.403 . S
C1881 C1882 1.392 . S
C1881 C1885 1.495 . S
C1882 C1881 1.392 . S
C1882 C1883 1.385 . S
C1882 C1884 1.478 . S
C1883 H1877 0.930 . S
C1883 C1879 1.400 . S
C1883 C1882 1.385 . S
C1884 C1882 1.478 . S
C1884 C1886 1.381 . S
C1884 C1890 1.383 . S
C1885 C1881 1.495 . S
C1885 H1891 0.959 . S
C1885 H1892 0.961 . S
C1885 H1893 0.960 . S
C1886 C1884 1.381 . S
C1886 C1887 1.394 . S
C1886 H1894 0.930 . S
C1887 C1886 1.394 . S
C1887 C1888 1.383 . S
C1887 H1895 0.929 . S
C1888 C1887 1.383 . S
C1888 C1889 1.377 . S
C1889 H1873 0.930 . S
C1889 C1888 1.377 . S
C1889 C1890 1.379 . S
C1890 H1874 0.931 . S
C1890 C1884 1.383 . S
C1890 C1889 1.379 . S
H1891 C1885 0.959 . S
H1892 C1885 0.961 . S
H1893 C1885 0.960 . S
H1894 C1886 0.930 . S
H1895 C1887 0.929 . S
H1896 C1904 0.929 . S
H1897 C1906 0.930 . S
H1898 C1908 0.930 . S
H1899 C1911 0.929 . S
H1900 C1914 0.930 . S
H1901 C1916 0.960 . S
H1902 C1916 0.960 . S
H1903 C1916 0.960 . S
C1904 H1896 0.929 . S
C1904 C1905 1.377 . S
C1904 C1906 1.384 . S
C1905 C1904 1.377 . S
C1905 C1911 1.390 . S
C1906 H1897 0.930 . S
C1906 C1904 1.384 . S
C1906 C1907 1.372 . S
C1907 C1906 1.372 . S
C1907 C1908 1.400 . S
C1907 C1912 1.490 . S
C1908 H1898 0.930 . S
C1908 C1907 1.400 . S
C1908 C1911 1.386 . S
H1909 C1925 0.930 . S
H1910 C1926 0.931 . S
C1911 H1899 0.929 . S
C1911 C1905 1.390 . S
C1911 C1908 1.386 . S
C1912 C1907 1.490 . S
C1912 C1914 1.395 . S
C1912 C1915 1.403 . S
H1913 C1919 0.930 . S
C1914 H1900 0.930 . S
C1914 C1912 1.395 . S
C1914 C1917 1.403 . S
C1915 C1912 1.403 . S
C1915 C1916 1.524 . S
C1915 C1919 1.400 . S
C1916 H1901 0.960 . S
C1916 H1902 0.960 . S
C1916 H1903 0.960 . S
C1916 C1915 1.524 . S
C1917 C1914 1.403 . S
C1917 C1918 1.392 . S
C1917 C1921 1.495 . S
C1918 C1917 1.392 . S
C1918 C1919 1.385 . S
C1918 C1920 1.478 . S
C1919 H1913 0.930 . S
C1919 C1915 1.400 . S
C1919 C1918 1.385 . S
C1920 C1918 1.478 . S
C1920 C1922 1.381 . S
C1920 C1926 1.383 . S
C1921 C1917 1.495 . S
C1921 H1927 0.959 . S
C1921 H1928 0.961 . S
C1921 H1929 0.960 . S
C1922 C1920 1.381 . S
C1922 C1923 1.394 . S
C1922 H1930 0.930 . S
C1923 C1922 1.394 . S
C1923 C1924 1.383 . S
C1923 H1931 0.929 . S
C1924 C1923 1.383 . S
C1924 C1925 1.377 . S
C1925 H1909 0.930 . S
C1925 C1924 1.377 . S
C1925 C1926 1.379 . S
C1926 H1910 0.931 . S
C1926 C1920 1.383 . S
C1926 C1925 1.379 . S
H1927 C1921 0.959 . S
H1928 C1921 0.961 . S
H1929 C1921 0.960 . S
H1930 C1922 0.930 . S
H1931 C1923 0.929 . S
H1932 C1940 0.929 . S
H1933 C1942 0.930 . S
H1934 C1944 0.930 . S
H1935 C1947 0.929 . S
H1936 C1950 0.930 . S
H1937 C1952 0.960 . S
H1938 C1952 0.960 . S
H1939 C1952 0.960 . S
C1940 H1932 0.929 . S
C1940 C1941 1.377 . S
C1940 C1942 1.384 . S
C1941 C1940 1.377 . S
C1941 C1947 1.390 . S
C1942 H1933 0.930 . S
C1942 C1940 1.384 . S
C1942 C1943 1.372 . S
C1943 C1942 1.372 . S
C1943 C1944 1.400 . S
C1943 C1948 1.490 . S
C1944 H1934 0.930 . S
C1944 C1943 1.400 . S
C1944 C1947 1.386 . S
H1945 C1961 0.930 . S
H1946 C1962 0.931 . S
C1947 H1935 0.929 . S
C1947 C1941 1.390 . S
C1947 C1944 1.386 . S
C1948 C1943 1.490 . S
C1948 C1950 1.395 . S
C1948 C1951 1.403 . S
H1949 C1955 0.930 . S
C1950 H1936 0.930 . S
C1950 C1948 1.395 . S
C1950 C1953 1.403 . S
C1951 C1948 1.403 . S
C1951 C1952 1.524 . S
C1951 C1955 1.400 . S
C1952 H1937 0.960 . S
C1952 H1938 0.960 . S
C1952 H1939 0.960 . S
C1952 C1951 1.524 . S
C1953 C1950 1.403 . S
C1953 C1954 1.392 . S
C1953 C1957 1.495 . S
C1954 C1953 1.392 . S
C1954 C1955 1.385 . S
C1954 C1956 1.478 . S
C1955 H1949 0.930 . S
C1955 C1951 1.400 . S
C1955 C1954 1.385 . S
C1956 C1954 1.478 . S
C1956 C1958 1.381 . S
C1956 C1962 1.383 . S
C1957 C1953 1.495 . S
C1957 H1963 0.959 . S
C1957 H1964 0.961 . S
C1957 H1965 0.960 . S
C1958 C1956 1.381 . S
C1958 C1959 1.394 . S
C1958 H1966 0.930 . S
C1959 C1958 1.394 . S
C1959 C1960 1.383 . S
C1959 H1967 0.929 . S
C1960 C1959 1.383 . S
C1960 C1961 1.377 . S
C1961 H1945 0.930 . S
C1961 C1960 1.377 . S
C1961 C1962 1.379 . S
C1962 H1946 0.931 . S
C1962 C1956 1.383 . S
C1962 C1961 1.379 . S
H1963 C1957 0.959 . S
H1964 C1957 0.961 . S
H1965 C1957 0.960 . S
H1966 C1958 0.930 . S
H1967 C1959 0.929 . S
C537 N14 0.450 . S
C556 N443 0.534 . S
C573 N476 0.444 . S
C592 N47 0.386 . S
C609 N509 0.415 . S
C628 N80 0.366 . S
C645 N410 0.441 . S
C664 N113 0.372 . S
C681 N377 0.446 . S
C700 N146 0.536 . S
C717 N278 0.453 . S
C736 N179 0.444 . S
C753 N212 0.456 . S
C772 N311 0.470 . S
C789 N344 0.441 . S
C808 N245 0.369 . S
C825 C305 2.096 . S
C844 N5 2.165 . S
C861 N38 2.167 . S
C880 C338 2.075 . S
C897 N71 2.167 . S
C916 C371 2.072 . S
C933 N104 2.163 1_556 S
C952 C272 2.092 . S
C969 N137 2.163 1_554 S
C988 C503 2.110 . S
C1005 C404 2.101 . S
C1024 N170 2.148 . S
C1041 C437 2.103 . S
C1060 N203 2.144 . S
C1077 C470 2.095 . S
C1096 N236 2.175 . S
C1113 N269 2.161 . S
C1132 C41 2.117 . S
C1149 N302 2.166 1_556 S
C1168 C74 2.073 . S
C1185 N335 2.166 . S
C1204 C107 2.077 . S
C1221 C8 2.103 . S
C1240 N368 2.151 . S
C1257 N401 2.161 . S
C1276 C239 2.117 . S
C1293 C140 2.095 . S
C1312 N434 2.174 . S
C1329 N467 2.165 1_554 S
C1348 C173 2.079 . S
C1365 N500 2.165 . S
C1384 C206 2.082 . S
C1401 C17 1.360 . S
C1420 C347 1.366 . S
C1437 C380 1.360 . S
C1456 C50 1.364 . S
C1473 C83 1.355 . S
C1492 C281 1.342 . S
C1509 C314 1.359 . S
C1528 C116 1.367 . S
C1545 C149 1.357 . S
C1564 C479 1.345 . S
C1581 C512 1.355 . S
C1600 C182 1.343 . S
C1617 C413 1.355 . S
C1636 C215 1.342 . S
C1653 C446 1.360 . S
C1672 C248 1.358 . S
C1689 C226 0.502 . S
C1708 C28 0.491 . S
C1725 C61 0.522 . S
C1744 C259 0.549 . S
C1761 C160 0.520 . S
C1780 C94 0.559 . S
C1797 C127 0.512 . S
C1816 C193 0.588 . S
C1833 C292 0.508 . S
C1852 C490 0.462 . S
C1869 C325 0.523 . S
C1888 C523 0.543 . S
C1905 C358 0.518 . S
C1924 C424 0.569 . S
C1941 C457 0.501 . S
C1960 C391 0.497 . S
