# Generated by pormake.
# Topology lcy, (6)-cn, num edge types: 1
# Building blocks:
#     Node 0, Type 0, BuildingBlock: FUNLAD_clean_sbu_0, # of connection points: 6
#     Node 1, Type 0, BuildingBlock: FUNLAD_clean_sbu_0, # of connection points: 6
#     Node 2, Type 0, BuildingBlock: FUNLAD_clean_sbu_0, # of connection points: 6
#     Node 3, Type 0, BuildingBlock: FUNLAD_clean_sbu_0, # of connection points: 6
#     Edge 4, Type (0, 0), BuildingBlock: EZIPEK_clean_linker_0, # of connection points: 2
#     Edge 5, Type (0, 0), BuildingBlock: EZIPEK_clean_linker_0, # of connection points: 2
#     Edge 6, Type (0, 0), BuildingBlock: EZIPEK_clean_linker_0, # of connection points: 2
#     Edge 7, Type (0, 0), BuildingBlock: EZIPEK_clean_linker_0, # of connection points: 2
#     Edge 8, Type (0, 0), BuildingBlock: EZIPEK_clean_linker_0, # of connection points: 2
#     Edge 9, Type (0, 0), BuildingBlock: EZIPEK_clean_linker_0, # of connection points: 2
#     Edge 10, Type (0, 0), BuildingBlock: EZIPEK_clean_linker_0, # of connection points: 2
#     Edge 11, Type (0, 0), BuildingBlock: EZIPEK_clean_linker_0, # of connection points: 2
#     Edge 12, Type (0, 0), BuildingBlock: EZIPEK_clean_linker_0, # of connection points: 2
#     Edge 13, Type (0, 0), BuildingBlock: EZIPEK_clean_linker_0, # of connection points: 2
#     Edge 14, Type (0, 0), BuildingBlock: EZIPEK_clean_linker_0, # of connection points: 2
#     Edge 15, Type (0, 0), BuildingBlock: EZIPEK_clean_linker_0, # of connection points: 2
# Relax obj value: 0.772
# Max RMSD: 0.375
# Mean RMSD: 0.333
data_MOF--net-lcy--node1-FUNLAD_clean_sbu_0--edge1-EZIPEK_clean_linker_0
_symmetry_space_group_name_H-M    P1
_symmetry_Int_Tables_number       1
_symmetry_cell_setting            triclinic
loop_
_symmetry_equiv_pos_as_xyz
'x, y, z'
_cell_length_a     21.276419
_cell_length_b     21.216245
_cell_length_c     20.077634
_cell_angle_alpha  77.040284
_cell_angle_beta   76.616659
_cell_angle_gamma 66.865907
loop_
_atom_site_label
_atom_site_type_symbol
_atom_site_fract_x
_atom_site_fract_y
_atom_site_fract_z
_atom_type_partial_charge
C0 C 0.29898 0.49598 0.34544 0.0
N1 N 0.46883 0.5327 0.3979 0.0
C2 C 0.47156 0.57587 0.33648 0.0
C3 C 0.49789 0.62928 0.32875 0.0
C4 C 0.52173 0.6384 0.38458 0.0
C5 C 0.51961 0.59255 0.44631 0.0
C6 C 0.49274 0.54069 0.45202 0.0
Zn7 Zn 0.41537 0.46157 0.42521 0.0
C8 C 0.31564 0.49857 0.56411 0.0
N9 N 0.29646 0.32686 0.50434 0.0
C10 C 0.28186 0.30626 0.45177 0.0
C11 C 0.26395 0.31586 0.5705 0.0
C12 C 0.21318 0.28565 0.58493 0.0
C13 C 0.19568 0.26694 0.53079 0.0
C14 C 0.23173 0.27613 0.4639 0.0
Zn15 Zn 0.35608 0.39002 0.47328 0.0
O16 O 0.34068 0.52274 0.35357 0.0
C17 C 0.46233 0.33869 0.35073 0.0
O18 O 0.28961 0.44713 0.39226 0.0
H19 H 0.27484 0.33332 0.61165 0.0
H20 H 0.45102 0.57085 0.29426 0.0
H21 H 0.30633 0.31647 0.39912 0.0
O22 O 0.47497 0.39458 0.34365 0.0
O23 O 0.41824 0.32635 0.4008 0.0
H24 H 0.48824 0.50898 0.50175 0.0
O25 O 0.43179 0.33115 0.54511 0.0
O26 O 0.48834 0.39926 0.48788 0.0
O27 O 0.29433 0.4536 0.55396 0.0
O28 O 0.35867 0.51691 0.51558 0.0
C29 C 0.48406 0.34996 0.53522 0.0
H30 H 0.49799 0.66422 0.2803 0.0
H31 H 0.53645 0.59833 0.49082 0.0
H32 H 0.18594 0.27948 0.63726 0.0
H33 H 0.21924 0.26263 0.42094 0.0
C34 C 0.74817 0.23829 0.63202 0.0
N35 N 0.87965 0.03407 0.60858 0.0
C36 C 0.83443 0.02255 0.57918 0.0
C37 C 0.8597 0.97416 0.53311 0.0
C38 C 0.93142 0.93745 0.51921 0.0
C39 C 0.97588 0.94699 0.5533 0.0
C40 C 0.94923 0.99722 0.59589 0.0
Zn41 Zn 0.85603 0.10883 0.66848 0.0
C42 C 0.95945 0.18265 0.61344 0.0
N43 N 0.84542 0.24734 0.79527 0.0
C44 C 0.7843 0.29206 0.8242 0.0
C45 C 0.9072 0.24624 0.80433 0.0
C46 C 0.90952 0.29329 0.84066 0.0
C47 C 0.84775 0.34093 0.86979 0.0
C48 C 0.78426 0.33925 0.86308 0.0
Zn49 Zn 0.85295 0.17898 0.73519 0.0
O50 O 0.78211 0.17886 0.61427 0.0
C51 C 0.75277 0.11129 0.79718 0.0
O52 O 0.76906 0.25564 0.67781 0.0
H53 H 0.95517 0.20942 0.78227 0.0
H54 H 0.77967 0.05269 0.58909 0.0
H55 H 0.73586 0.29147 0.81672 0.0
O56 O 0.7745 0.08027 0.74374 0.0
O57 O 0.77977 0.15267 0.80296 0.0
H58 H 0.98581 0.00805 0.61638 0.0
O59 O 0.93259 0.09413 0.79403 0.0
O60 O 0.92267 0.03674 0.72294 0.0
O61 O 0.92888 0.2097 0.66731 0.0
O62 O 0.93932 0.13948 0.59781 0.0
C63 C 0.94849 0.0368 0.77243 0.0
H64 H 0.82433 0.96758 0.50653 0.0
H65 H 0.03138 0.91993 0.54256 0.0
H66 H 0.95936 0.29284 0.84566 0.0
H67 H 0.73575 0.37488 0.88607 0.0
C68 C 0.20519 0.55605 0.0736 0.0
N69 N 0.2336 0.73254 0.96614 0.0
C70 C 0.23281 0.74786 0.02853 0.0
C71 C 0.26721 0.79033 0.03253 0.0
C72 C 0.30048 0.81873 0.97148 0.0
C73 C 0.29959 0.80303 0.90779 0.0
C74 C 0.26773 0.75743 0.90666 0.0
Zn75 Zn 0.17801 0.677 0.9603 0.0
C76 C 0.24735 0.57867 0.84526 0.0
N77 N 0.06283 0.56077 0.94607 0.0
C78 C 0.02481 0.54193 1.00624 0.0
C79 C 0.0573 0.54906 0.88422 0.0
C80 C 0.01243 0.51667 0.88147 0.0
C81 C 0.97166 0.49824 0.94265 0.0
C82 C 0.97723 0.51224 1.00544 0.0
Zn83 Zn 0.12295 0.61372 0.9502 0.0
O84 O 0.22575 0.60411 0.03998 0.0
C85 C 0.03472 0.71429 0.04366 0.0
O86 O 0.16365 0.54122 0.04754 0.0
H87 H 0.08721 0.56538 0.83702 0.0
H88 H 0.20521 0.72739 0.07503 0.0
H89 H 0.03012 0.55139 0.05501 0.0
O90 O 0.08699 0.73198 0.03897 0.0
O91 O 0.042 0.66697 1.01204 0.0
H92 H 0.26926 0.74278 0.85813 0.0
O93 O 0.08177 0.69858 0.86077 0.0
O94 O 0.13642 0.75315 0.88995 0.0
O95 O 0.20099 0.55533 0.87872 0.0
O96 O 0.25654 0.62482 0.87021 0.0
C97 C 0.09822 0.75266 0.85158 0.0
H98 H 0.26715 0.80172 0.08253 0.0
H99 H 0.32475 0.82442 0.8599 0.0
H100 H 0.00882 0.50684 0.83206 0.0
H101 H 0.94597 0.49916 0.05335 0.0
C102 C 0.5772 0.07581 0.24788 0.0
N103 N 0.77854 0.93609 0.26146 0.0
C104 C 0.77547 0.9338 0.33 0.0
C105 C 0.83599 0.90427 0.35847 0.0
C106 C 0.9 0.87588 0.31607 0.0
C107 C 0.90191 0.88224 0.24505 0.0
C108 C 0.84019 0.9133 0.2185 0.0
Zn109 Zn 0.69409 0.94526 0.22662 0.0
C110 C 0.60971 0.8684 0.3168 0.0
N111 N 0.53978 0.95061 0.13249 0.0
C112 C 0.4985 0.00919 0.09706 0.0
C113 C 0.53608 0.88768 0.13491 0.0
C114 C 0.48989 0.88171 0.10035 0.0
C115 C 0.44899 0.94062 0.06109 0.0
C116 C 0.45319 1.00512 0.05938 0.0
Zn117 Zn 0.61483 0.95246 0.17612 0.0
O118 O 0.64125 0.0443 0.24973 0.0
C119 C 0.6918 0.02073 0.07703 0.0
O120 O 0.54523 0.04592 0.22617 0.0
H121 H 0.57038 0.84168 0.16207 0.0
H122 H 0.72593 0.95107 0.3631 0.0
H123 H 0.50257 0.05865 0.0958 0.0
O124 O 0.73394 0.99163 0.12058 0.0
O125 O 0.633 0.01698 0.09256 0.0
H126 H 0.84144 0.91323 0.16444 0.0
O127 O 0.69755 0.86007 0.12529 0.0
O128 O 0.74951 0.84967 0.20937 0.0
O129 O 0.5895 0.88563 0.25905 0.0
O130 O 0.65185 0.89375 0.32672 0.0
C131 C 0.74897 0.82628 0.15813 0.0
H132 H 0.83248 0.90243 0.41345 0.0
H133 H 0.94998 0.86147 0.21079 0.0
H134 H 0.48795 0.83109 0.10196 0.0
H135 H 0.42266 0.05117 0.02866 0.0
C136 C 0.17837 0.53689 0.20752 0.0
C137 C 0.227 0.5256 0.14503 0.0
C138 C 0.32055 0.50211 0.21212 0.0
C139 C 0.27272 0.51048 0.27592 0.0
N140 N 0.15587 0.52692 0.33364 0.0
N141 N 0.34579 0.47928 0.09329 0.0
C142 C 0.20173 0.52439 0.27325 0.0
C143 C 0.29834 0.50287 0.14943 0.0
N144 N 0.10927 0.56329 0.20386 0.0
N145 N 0.38806 0.49333 0.21018 0.0
H146 H 0.33121 0.47779 0.04761 0.0
H147 H 0.39864 0.45412 0.09443 0.0
H148 H 0.41011 0.48604 0.25353 0.0
H149 H 0.42196 0.49751 0.16423 0.0
H150 H 0.07071 0.58082 0.24517 0.0
H151 H 0.09029 0.57124 0.15808 0.0
H152 H 0.10602 0.5276 0.33714 0.0
H153 H 0.16872 0.52506 0.38127 0.0
C154 C 0.99636 0.89486 0.33856 0.0
C155 C 0.96429 0.84676 0.3464 0.0
C156 C 0.95772 0.82963 0.47083 0.0
C157 C 0.96115 0.89648 0.46215 0.0
N158 N 0.99564 0.98881 0.38804 0.0
N159 N 0.95002 0.74387 0.41269 0.0
C160 C 0.98661 0.92708 0.39627 0.0
C161 C 0.96079 0.80352 0.41045 0.0
N162 N 0.03 0.91314 0.27531 0.0
N163 N 0.94764 0.79444 0.53574 0.0
H164 H 0.94917 0.72848 0.36708 0.0
H165 H 0.94316 0.71024 0.45781 0.0
H166 H 0.94559 0.81384 0.57994 0.0
H167 H 0.94406 0.7456 0.54577 0.0
H168 H 0.05722 0.94643 0.26691 0.0
H169 H 0.03596 0.88873 0.23333 0.0
H170 H 0.00714 0.01603 0.33969 0.0
H171 H 0.9882 0.01474 0.42918 0.0
C172 C 0.30832 0.48973 0.76255 0.0
C173 C 0.27776 0.56046 0.77181 0.0
C174 C 0.27752 0.59137 0.64395 0.0
C175 C 0.30048 0.52033 0.63602 0.0
N176 N 0.33354 0.4008 0.69269 0.0
N177 N 0.22394 0.67843 0.72017 0.0
C178 C 0.3143 0.46941 0.69684 0.0
C179 C 0.26092 0.61113 0.71186 0.0
N180 N 0.33433 0.44152 0.81668 0.0
N181 N 0.26987 0.64094 0.5866 0.0
H182 H 0.21174 0.69435 0.76803 0.0
H183 H 0.20112 0.71686 0.68144 0.0
H184 H 0.27371 0.63042 0.53725 0.0
H185 H 0.26315 0.69213 0.58741 0.0
H186 H 0.36453 0.38987 0.81246 0.0
H187 H 0.33178 0.45494 0.86445 0.0
H188 H 0.33351 0.36294 0.73585 0.0
H189 H 0.34687 0.38128 0.64641 0.0
C190 C 0.67795 0.11891 0.98003 0.0
C191 C 0.71018 0.04716 1.00352 0.0
C192 C 0.72201 0.02251 0.88645 0.0
C193 C 0.70773 0.09278 0.86082 0.0
N194 N 0.64967 0.21041 0.88137 0.0
N195 N 0.76514 0.93051 0.9782 0.0
C196 C 0.67699 0.14188 0.90772 0.0
C197 C 0.73257 0.99894 0.95629 0.0
N198 N 0.64823 0.16425 0.02707 0.0
N199 N 0.7253 0.97899 0.84402 0.0
H200 H 0.7788 0.9129 0.02743 0.0
H201 H 0.78446 0.89335 0.94541 0.0
H202 H 0.71502 0.99747 0.79344 0.0
H203 H 0.73024 0.92739 0.86122 0.0
H204 H 0.61966 0.21663 1.01487 0.0
H205 H 0.65173 0.14872 0.07967 0.0
H206 H 0.63091 0.25093 0.91022 0.0
H207 H 0.64608 0.22611 0.82874 0.0
C208 C 0.08894 0.14949 0.58391 0.0
C209 C 0.0217 0.19833 0.57504 0.0
C210 C 0.06921 0.29127 0.53338 0.0
C211 C 0.13635 0.24256 0.54276 0.0
N212 N 0.21318 0.12367 0.56151 0.0
N213 N 0.94993 0.31104 0.52701 0.0
C214 C 0.14717 0.17101 0.56282 0.0
C215 C 0.01276 0.2678 0.5449 0.0
N216 N 0.09665 0.08363 0.6165 0.0
N217 N 0.059 0.36031 0.5159 0.0
H218 H 0.90828 0.29449 0.53442 0.0
H219 H 0.94076 0.36069 0.49932 0.0
H220 H 0.09919 0.37933 0.50546 0.0
H221 H 0.01036 0.3993 0.51586 0.0
H222 H 0.14268 0.04792 0.63205 0.0
H223 H 0.0557 0.06564 0.63179 0.0
H224 H 0.22524 0.07034 0.56827 0.0
H225 H 0.25671 0.13788 0.54816 0.0
C226 C 0.99555 0.84672 0.80744 0.0
C227 C 0.06668 0.82169 0.8088 0.0
C228 C 0.06201 0.94335 0.79168 0.0
C229 C 0.98918 0.96617 0.80407 0.0
N230 N 0.88641 0.93807 0.83466 0.0
N231 N 0.17162 0.84709 0.78411 0.0
C232 C 0.95628 0.9168 0.81588 0.0
C233 C 0.10112 0.87073 0.7948 0.0
N234 N 0.96591 0.80404 0.79685 0.0
N235 N 0.09327 0.99138 0.77465 0.0
H236 H 0.20091 0.79645 0.77606 0.0
H237 H 0.20107 0.87678 0.7824 0.0
H238 H 0.06522 0.04412 0.77569 0.0
H239 H 0.14609 0.9801 0.75846 0.0
H240 H 0.91444 0.82104 0.78999 0.0
H241 H 0.99544 0.75386 0.7862 0.0
H242 H 0.85923 0.90471 0.84511 0.0
H243 H 0.85771 0.98813 0.84578 0.0
C244 C 0.29797 0.92418 1.00836 0.0
C245 C 0.33617 0.86456 0.97562 0.0
C246 C 0.44202 0.88571 0.96877 0.0
C247 C 0.40677 0.93118 1.01821 0.0
N248 N 0.2999 0.99549 0.08577 0.0
N249 N 0.44745 0.78465 0.92877 0.0
C250 C 0.33395 0.95251 0.03709 0.0
C251 C 0.40894 0.84501 0.95509 0.0
N252 N 0.22762 0.95265 1.0127 0.0
N253 N 0.50812 0.8793 0.93792 0.0
H254 H 0.42645 0.75031 0.92165 0.0
H255 H 0.5014 0.76531 0.92011 0.0
H256 H 0.53316 0.90895 0.94802 0.0
H257 H 0.53462 0.85046 0.89763 0.0
H258 H 0.19775 0.99926 0.03143 0.0
H259 H 0.20031 0.93316 0.99082 0.0
H260 H 0.24798 0.00578 0.10718 0.0
H261 H 0.32448 0.01763 0.10787 0.0
C262 C 0.56063 0.23076 0.32607 0.0
C263 C 0.49966 0.28294 0.3063 0.0
C264 C 0.49169 0.20302 0.23857 0.0
C265 C 0.54446 0.14675 0.27057 0.0
N266 N 0.61296 0.10836 0.36321 0.0
N267 N 0.40057 0.31521 0.2501 0.0
C268 C 0.57478 0.16109 0.31924 0.0
C269 C 0.46326 0.26804 0.26422 0.0
N270 N 0.60409 0.24714 0.35359 0.0
N271 N 0.47045 0.19635 0.18225 0.0
H272 H 0.37927 0.3634 0.26693 0.0
H273 H 0.36829 0.30435 0.22602 0.0
H274 H 0.49214 0.15175 0.15902 0.0
H275 H 0.4365 0.23801 0.15405 0.0
H276 H 0.65275 0.21152 0.36274 0.0
H277 H 0.59424 0.29785 0.35993 0.0
H278 H 0.63289 0.1169 0.40173 0.0
H279 H 0.61623 0.05727 0.36778 0.0
C280 C 0.62049 0.3256 0.64311 0.0
C281 C 0.67957 0.27831 0.60589 0.0
C282 C 0.60113 0.26272 0.54341 0.0
C283 C 0.54397 0.31495 0.57355 0.0
N284 N 0.50189 0.40654 0.643 0.0
N285 N 0.72289 0.22901 0.49917 0.0
C286 C 0.55437 0.34926 0.62107 0.0
C287 C 0.6688 0.25505 0.54956 0.0
N288 N 0.62591 0.34846 0.69913 0.0
N289 N 0.59123 0.22094 0.50748 0.0
H290 H 0.77185 0.23042 0.49691 0.0
H291 H 0.71645 0.21516 0.45522 0.0
H292 H 0.54195 0.22568 0.50174 0.0
H293 H 0.63163 0.17746 0.49055 0.0
H294 H 0.58283 0.37324 0.73361 0.0
H295 H 0.67241 0.34276 0.71222 0.0
H296 H 0.5083 0.43887 0.67095 0.0
H297 H 0.45304 0.42429 0.62877 0.0
C298 C 0.93231 0.3961 0.97399 0.0
C299 C 0.92312 0.46474 0.93992 0.0
C300 C 0.84163 0.46045 0.87453 0.0
C301 C 0.8531 0.39108 0.9068 0.0
N302 N 0.88622 0.30364 1.0044 0.0
N303 N 0.85079 0.56984 0.8784 0.0
C304 C 0.88969 0.36332 0.96344 0.0
C305 C 0.87117 0.49964 0.89732 0.0
N306 N 0.98529 0.35985 1.01111 0.0
N307 N 0.80719 0.48725 0.81912 0.0
H308 H 0.871 0.59983 0.89554 0.0
H309 H 0.80919 0.59871 0.85197 0.0
H310 H 0.78373 0.46068 0.80148 0.0
H311 H 0.80516 0.53441 0.78838 0.0
H312 H 0.99811 0.3073 0.0306 0.0
H313 H 0.02066 0.38003 1.01723 0.0
H314 H 0.90784 0.28338 0.0497 0.0
H315 H 0.85539 0.27886 0.99634 0.0
C316 C 0.90998 0.7695 0.03172 0.0
C317 C 0.96118 0.74982 0.07544 0.0
C318 C 0.87033 0.74736 0.17565 0.0
C319 C 0.81878 0.77577 0.13135 0.0
N320 N 0.79619 0.77458 1.02116 0.0
N321 N 0.9895 0.72033 0.1899 0.0
C322 C 0.84063 0.77464 0.06032 0.0
C323 C 0.94111 0.73854 0.14792 0.0
N324 N 0.92792 0.7851 0.96219 0.0
N325 N 0.85089 0.72608 0.24395 0.0
H326 H 0.04096 0.71482 0.17022 0.0
H327 H 0.97805 0.71607 0.24357 0.0
H328 H 0.80057 0.72706 0.26283 0.0
H329 H 0.88489 0.70139 0.27954 0.0
H330 H 0.89315 0.80179 0.92749 0.0
H331 H 0.97646 0.78762 0.94089 0.0
H332 H 0.811 0.7664 0.96965 0.0
H333 H 0.74658 0.77484 0.04317 0.0
C334 C 0.516 0.82327 0.37683 0.0
C335 C 0.58765 0.81295 0.36469 0.0
C336 C 0.61613 0.6873 0.37387 0.0
C337 C 0.5446 0.69814 0.38099 0.0
N338 N 0.42595 0.77341 0.40823 0.0
N339 N 0.70317 0.7345 0.37585 0.0
C340 C 0.49433 0.76528 0.38875 0.0
C341 C 0.63675 0.74449 0.37169 0.0
N342 N 0.46895 0.88955 0.37331 0.0
N343 N 0.66458 0.62298 0.36586 0.0
H344 H 0.71845 0.77565 0.37553 0.0
H345 H 0.74083 0.68587 0.3866 0.0
H346 H 0.65151 0.58009 0.3674 0.0
H347 H 0.71754 0.613 0.35292 0.0
H348 H 0.41659 0.90269 0.3723 0.0
H349 H 0.48366 0.93201 0.36909 0.0
H350 H 0.3872 0.81942 0.42121 0.0
H351 H 0.4083 0.7324 0.41656 0.0
loop_
_geom_bond_atom_site_label_1
_geom_bond_atom_site_label_2
_geom_bond_distance
_geom_bond_site_symmetry_2
_ccdc_geom_bond_type
C0 O16 1.251 . S
C0 O18 1.254 . S
N1 C2 1.333 . S
N1 C6 1.307 . S
N1 Zn7 2.020 . S
C2 N1 1.333 . S
C2 C3 1.379 . S
C2 H20 0.952 . S
C3 C2 1.379 . S
C3 C4 1.390 . S
C3 H30 0.949 . S
C4 C3 1.390 . S
C4 C5 1.357 . S
C5 C4 1.357 . S
C5 C6 1.370 . S
C5 H31 0.950 . S
C6 N1 1.307 . S
C6 C5 1.370 . S
C6 H24 0.948 . S
Zn7 N1 2.020 . S
Zn7 O16 2.039 . S
Zn7 O22 2.034 . S
Zn7 O26 2.025 . S
Zn7 O28 2.024 . S
C8 O27 1.246 . S
C8 O28 1.249 . S
N9 C10 1.307 . S
N9 C11 1.333 . S
N9 Zn15 2.020 . S
C10 N9 1.307 . S
C10 C14 1.370 . S
C10 H21 0.948 . S
C11 N9 1.333 . S
C11 C12 1.379 . S
C11 H19 0.952 . S
C12 C11 1.379 . S
C12 C13 1.390 . S
C12 H32 0.949 . S
C13 C12 1.390 . S
C13 C14 1.357 . S
C14 C10 1.370 . S
C14 C13 1.357 . S
C14 H33 0.950 . S
Zn15 N9 2.020 . S
Zn15 O18 2.025 . S
Zn15 O23 2.024 . S
Zn15 O25 2.039 . S
Zn15 O27 2.034 . S
O16 C0 1.251 . S
O16 Zn7 2.039 . S
C17 O22 1.246 . S
C17 O23 1.249 . S
O18 C0 1.254 . S
O18 Zn15 2.025 . S
H19 C11 0.952 . S
H20 C2 0.952 . S
H21 C10 0.948 . S
O22 Zn7 2.034 . S
O22 C17 1.246 . S
O23 Zn15 2.024 . S
O23 C17 1.249 . S
H24 C6 0.948 . S
O25 Zn15 2.039 . S
O25 C29 1.251 . S
O26 Zn7 2.025 . S
O26 C29 1.254 . S
O27 C8 1.246 . S
O27 Zn15 2.034 . S
O28 Zn7 2.024 . S
O28 C8 1.249 . S
C29 O25 1.251 . S
C29 O26 1.254 . S
H30 C3 0.949 . S
H31 C5 0.950 . S
H32 C12 0.949 . S
H33 C14 0.950 . S
C34 O50 1.251 . S
C34 O52 1.254 . S
N35 C36 1.333 . S
N35 C40 1.307 1_545 S
N35 Zn41 2.020 . S
C36 N35 1.333 . S
C36 C37 1.379 . S
C36 H54 0.952 . S
C37 C36 1.379 . S
C37 C38 1.390 1_545 S
C37 H64 0.949 . S
C38 C37 1.390 1_565 S
C38 C39 1.357 . S
C39 C38 1.357 . S
C39 C40 1.370 . S
C39 H65 0.950 . S
C40 N35 1.307 1_565 S
C40 C39 1.370 . S
C40 H58 0.948 . S
Zn41 N35 2.020 . S
Zn41 O50 2.039 . S
Zn41 O56 2.034 . S
Zn41 O60 2.025 . S
Zn41 O62 2.024 . S
C42 O61 1.246 . S
C42 O62 1.249 . S
N43 C44 1.307 . S
N43 C45 1.333 . S
N43 Zn49 2.020 . S
C44 N43 1.307 . S
C44 C48 1.370 . S
C44 H55 0.948 . S
C45 N43 1.333 . S
C45 C46 1.379 . S
C45 H53 0.952 . S
C46 C45 1.379 . S
C46 C47 1.390 . S
C46 H66 0.949 . S
C47 C46 1.390 . S
C47 C48 1.357 . S
C48 C44 1.370 . S
C48 C47 1.357 . S
C48 H67 0.950 . S
Zn49 N43 2.020 . S
Zn49 O52 2.025 . S
Zn49 O57 2.024 . S
Zn49 O59 2.039 . S
Zn49 O61 2.034 . S
O50 C34 1.251 . S
O50 Zn41 2.039 . S
C51 O56 1.246 . S
C51 O57 1.249 . S
O52 C34 1.254 . S
O52 Zn49 2.025 . S
H53 C45 0.952 . S
H54 C36 0.952 . S
H55 C44 0.948 . S
O56 Zn41 2.034 . S
O56 C51 1.246 . S
O57 Zn49 2.024 . S
O57 C51 1.249 . S
H58 C40 0.948 . S
O59 Zn49 2.039 . S
O59 C63 1.251 . S
O60 Zn41 2.025 . S
O60 C63 1.254 . S
O61 C42 1.246 . S
O61 Zn49 2.034 . S
O62 Zn41 2.024 . S
O62 C42 1.249 . S
C63 O59 1.251 . S
C63 O60 1.254 . S
H64 C37 0.949 . S
H65 C39 0.950 . S
H66 C46 0.949 . S
H67 C48 0.950 . S
C68 O84 1.251 1_554 S
C68 O86 1.254 1_554 S
N69 C70 1.333 1_556 S
N69 C74 1.307 . S
N69 Zn75 2.020 . S
C70 N69 1.333 1_554 S
C70 C71 1.379 . S
C70 H88 0.952 . S
C71 C70 1.379 . S
C71 C72 1.390 1_554 S
C71 H98 0.949 . S
C72 C71 1.390 1_556 S
C72 C73 1.357 . S
C73 C72 1.357 . S
C73 C74 1.370 . S
C73 H99 0.950 . S
C74 N69 1.307 . S
C74 C73 1.370 . S
C74 H92 0.948 . S
Zn75 N69 2.020 . S
Zn75 O84 2.039 . S
Zn75 O90 2.032 1_556 S
Zn75 O94 2.025 . S
Zn75 O96 2.024 . S
C76 O95 1.246 . S
C76 O96 1.249 . S
N77 C78 1.307 . S
N77 C79 1.333 . S
N77 Zn83 2.020 . S
C78 N77 1.307 . S
C78 C82 1.370 1_455 S
C78 H89 0.948 . S
C79 N77 1.333 . S
C79 C80 1.379 1_455 S
C79 H87 0.952 . S
C80 C79 1.379 1_655 S
C80 C81 1.390 . S
C80 H100 0.949 . S
C81 C80 1.390 . S
C81 C82 1.357 . S
C82 C78 1.370 1_655 S
C82 C81 1.357 . S
C82 H101 0.950 . S
Zn83 N77 2.020 . S
Zn83 O86 2.025 . S
Zn83 O91 2.024 . S
Zn83 O93 2.039 . S
Zn83 O95 2.034 . S
O84 C68 1.251 1_556 S
O84 Zn75 2.039 . S
C85 O90 1.245 . S
C85 O91 1.249 1_554 S
O86 C68 1.254 1_556 S
O86 Zn83 2.025 . S
H87 C79 0.952 . S
H88 C70 0.952 . S
H89 C78 0.948 . S
O90 Zn75 2.032 1_554 S
O90 C85 1.245 . S
O91 Zn83 2.024 . S
O91 C85 1.249 1_556 S
H92 C74 0.948 . S
O93 Zn83 2.039 . S
O93 C97 1.251 . S
O94 Zn75 2.025 . S
O94 C97 1.254 . S
O95 C76 1.246 . S
O95 Zn83 2.034 . S
O96 Zn75 2.024 . S
O96 C76 1.249 . S
C97 O93 1.251 . S
C97 O94 1.254 . S
H98 C71 0.949 . S
H99 C73 0.950 . S
H100 C80 0.949 . S
H101 C82 0.950 . S
C102 O118 1.251 . S
C102 O120 1.254 . S
N103 C104 1.333 1_565 S
N103 C108 1.307 . S
N103 Zn109 2.020 . S
C104 N103 1.333 1_545 S
C104 C105 1.379 . S
C104 H122 0.952 . S
C105 C104 1.379 . S
C105 C106 1.390 1_545 S
C105 H132 0.949 . S
C106 C105 1.390 1_565 S
C106 C107 1.357 . S
C107 C106 1.357 . S
C107 C108 1.370 . S
C107 H133 0.950 . S
C108 N103 1.307 . S
C108 C107 1.370 . S
C108 H126 0.948 . S
Zn109 N103 2.020 . S
Zn109 O118 2.039 1_565 S
Zn109 O124 2.034 1_565 S
Zn109 O128 2.025 . S
Zn109 O130 2.024 . S
C110 O129 1.246 . S
C110 O130 1.249 . S
N111 C112 1.307 . S
N111 C113 1.333 . S
N111 Zn117 2.020 . S
C112 N111 1.307 . S
C112 C116 1.370 1_554 S
C112 H123 0.948 1_565 S
C113 N111 1.333 . S
C113 C114 1.379 1_554 S
C113 H121 0.952 . S
C114 C113 1.379 1_556 S
C114 C115 1.390 . S
C114 H134 0.949 . S
C115 C114 1.390 . S
C115 C116 1.357 . S
C116 C112 1.370 1_556 S
C116 C115 1.357 . S
C116 H135 0.950 . S
Zn117 N111 2.020 . S
Zn117 O120 2.025 1_565 S
Zn117 O125 2.024 . S
Zn117 O127 2.039 . S
Zn117 O129 2.034 . S
O118 C102 1.251 . S
O118 Zn109 2.039 1_545 S
C119 O124 1.246 . S
C119 O125 1.249 1_545 S
O120 C102 1.254 . S
O120 Zn117 2.025 1_545 S
H121 C113 0.952 . S
H122 C104 0.952 . S
H123 C112 0.948 1_545 S
O124 Zn109 2.034 1_545 S
O124 C119 1.246 . S
O125 Zn117 2.024 . S
O125 C119 1.249 1_565 S
H126 C108 0.948 . S
O127 Zn117 2.039 . S
O127 C131 1.251 . S
O128 Zn109 2.025 . S
O128 C131 1.254 . S
O129 C110 1.246 . S
O129 Zn117 2.034 . S
O130 Zn109 2.024 . S
O130 C110 1.249 . S
C131 O127 1.251 . S
C131 O128 1.254 . S
H132 C105 0.949 . S
H133 C107 0.950 . S
H134 C114 0.949 . S
H135 C116 0.950 . S
C136 C137 1.363 . S
C136 C142 1.379 . S
C136 N144 1.356 . S
C137 C136 1.363 . S
C137 C143 1.363 . S
C138 C139 1.363 . S
C138 C143 1.379 . S
C138 N145 1.356 . S
C139 C138 1.363 . S
C139 C142 1.363 . S
N140 C142 1.356 . S
N140 H152 0.984 . S
N140 H153 0.985 . S
N141 C143 1.356 . S
N141 H146 0.984 . S
N141 H147 0.985 . S
C142 C136 1.379 . S
C142 C139 1.363 . S
C142 N140 1.356 . S
C143 C137 1.363 . S
C143 C138 1.379 . S
C143 N141 1.356 . S
N144 C136 1.356 . S
N144 H150 0.984 . S
N144 H151 0.984 . S
N145 C138 1.356 . S
N145 H148 0.984 . S
N145 H149 0.985 . S
H146 N141 0.984 . S
H147 N141 0.985 . S
H148 N145 0.984 . S
H149 N145 0.985 . S
H150 N144 0.984 . S
H151 N144 0.984 . S
H152 N140 0.984 . S
H153 N140 0.985 . S
C154 C155 1.363 1_545 S
C154 C160 1.379 . S
C154 N162 1.356 . S
C155 C154 1.363 1_565 S
C155 C161 1.363 . S
C156 C157 1.363 . S
C156 C161 1.379 . S
C156 N163 1.356 . S
C157 C156 1.363 . S
C157 C160 1.363 1_565 S
N158 C160 1.356 . S
N158 H170 0.984 . S
N158 H171 0.985 . S
N159 C161 1.356 . S
N159 H164 0.984 . S
N159 H165 0.985 . S
C160 C154 1.379 . S
C160 C157 1.363 1_545 S
C160 N158 1.356 . S
C161 C155 1.363 . S
C161 C156 1.379 . S
C161 N159 1.356 . S
N162 C154 1.356 . S
N162 H168 0.984 . S
N162 H169 0.984 . S
N163 C156 1.356 . S
N163 H166 0.984 . S
N163 H167 0.985 . S
H164 N159 0.984 . S
H165 N159 0.985 . S
H166 N163 0.984 . S
H167 N163 0.985 . S
H168 N162 0.984 . S
H169 N162 0.984 . S
H170 N158 0.984 . S
H171 N158 0.985 . S
C172 C173 1.363 . S
C172 C178 1.379 . S
C172 N180 1.356 . S
C173 C172 1.363 . S
C173 C179 1.363 . S
C174 C175 1.363 . S
C174 C179 1.379 . S
C174 N181 1.356 . S
C175 C174 1.363 . S
C175 C178 1.363 . S
N176 C178 1.356 . S
N176 H188 0.984 . S
N176 H189 0.985 . S
N177 C179 1.356 . S
N177 H182 0.984 . S
N177 H183 0.985 . S
C178 C172 1.379 . S
C178 C175 1.363 . S
C178 N176 1.356 . S
C179 C173 1.363 . S
C179 C174 1.379 . S
C179 N177 1.356 . S
N180 C172 1.356 . S
N180 H186 0.984 . S
N180 H187 0.984 . S
N181 C174 1.356 . S
N181 H184 0.984 . S
N181 H185 0.985 . S
H182 N177 0.984 . S
H183 N177 0.985 . S
H184 N181 0.984 . S
H185 N181 0.985 . S
H186 N180 0.984 . S
H187 N180 0.984 . S
H188 N176 0.984 . S
H189 N176 0.985 . S
C190 C191 1.363 . S
C190 C196 1.379 . S
C190 N198 1.356 1_556 S
C191 C190 1.363 . S
C191 C197 1.363 1_545 S
C192 C193 1.363 . S
C192 C197 1.379 1_545 S
C192 N199 1.356 1_545 S
C193 C192 1.363 . S
C193 C196 1.363 . S
N194 C196 1.356 . S
N194 H206 0.984 . S
N194 H207 0.985 . S
N195 C197 1.356 1_554 S
N195 H200 0.984 . S
N195 H201 0.985 1_554 S
C196 C190 1.379 . S
C196 C193 1.363 . S
C196 N194 1.356 . S
C197 C191 1.363 1_565 S
C197 C192 1.379 1_565 S
C197 N195 1.356 1_556 S
N198 C190 1.356 1_554 S
N198 H204 0.984 . S
N198 H205 0.984 . S
N199 C192 1.356 1_565 S
N199 H202 0.984 1_565 S
N199 H203 0.985 . S
H200 N195 0.984 . S
H201 N195 0.985 1_556 S
H202 N199 0.984 1_545 S
H203 N199 0.985 . S
H204 N198 0.984 . S
H205 N198 0.984 . S
H206 N194 0.984 . S
H207 N194 0.985 . S
C208 C209 1.363 . S
C208 C214 1.379 . S
C208 N216 1.356 . S
C209 C208 1.363 . S
C209 C215 1.363 . S
C210 C211 1.363 . S
C210 C215 1.379 . S
C210 N217 1.356 . S
C211 C210 1.363 . S
C211 C214 1.363 . S
N212 C214 1.356 . S
N212 H224 0.984 . S
N212 H225 0.985 . S
N213 C215 1.356 1_655 S
N213 H218 0.984 . S
N213 H219 0.985 . S
C214 C208 1.379 . S
C214 C211 1.363 . S
C214 N212 1.356 . S
C215 C209 1.363 . S
C215 C210 1.379 . S
C215 N213 1.356 1_455 S
N216 C208 1.356 . S
N216 H222 0.984 . S
N216 H223 0.984 1_455 S
N217 C210 1.356 . S
N217 H220 0.984 . S
N217 H221 0.985 . S
H218 N213 0.984 . S
H219 N213 0.985 . S
H220 N217 0.984 . S
H221 N217 0.985 . S
H222 N216 0.984 . S
H223 N216 0.984 1_655 S
H224 N212 0.984 . S
H225 N212 0.985 . S
C226 C227 1.363 1_655 S
C226 C232 1.379 . S
C226 N234 1.356 . S
C227 C226 1.363 1_455 S
C227 C233 1.363 . S
C228 C229 1.363 1_455 S
C228 C233 1.379 . S
C228 N235 1.356 . S
C229 C228 1.363 1_655 S
C229 C232 1.363 . S
N230 C232 1.356 . S
N230 H242 0.984 . S
N230 H243 0.985 1_565 S
N231 C233 1.356 . S
N231 H236 0.984 . S
N231 H237 0.985 . S
C232 C226 1.379 . S
C232 C229 1.363 . S
C232 N230 1.356 . S
C233 C227 1.363 . S
C233 C228 1.379 . S
C233 N231 1.356 . S
N234 C226 1.356 . S
N234 H240 0.984 . S
N234 H241 0.983 1_655 S
N235 C228 1.356 . S
N235 H238 0.984 1_565 S
N235 H239 0.985 . S
H236 N231 0.984 . S
H237 N231 0.985 . S
H238 N235 0.984 1_545 S
H239 N235 0.985 . S
H240 N234 0.984 . S
H241 N234 0.983 1_455 S
H242 N230 0.984 . S
H243 N230 0.985 1_545 S
C244 C245 1.363 . S
C244 C250 1.379 . S
C244 N252 1.356 . S
C245 C244 1.363 . S
C245 C251 1.363 . S
C246 C247 1.363 . S
C246 C251 1.379 . S
C246 N253 1.356 . S
C247 C246 1.363 . S
C247 C250 1.363 . S
N248 C250 1.356 . S
N248 H260 0.984 1_565 S
N248 H261 0.985 . S
N249 C251 1.356 . S
N249 H254 0.984 . S
N249 H255 0.985 . S
C250 C244 1.379 . S
C250 C247 1.363 . S
C250 N248 1.356 . S
C251 C245 1.363 . S
C251 C246 1.379 . S
C251 N249 1.356 . S
N252 C244 1.356 . S
N252 H258 0.971 1_565 S
N252 H259 0.984 1_556 S
N253 C246 1.356 . S
N253 H256 0.984 . S
N253 H257 0.985 . S
H254 N249 0.984 . S
H255 N249 0.985 . S
H256 N253 0.984 . S
H257 N253 0.985 . S
H258 N252 0.971 1_545 S
H259 N252 0.984 1_554 S
H260 N248 0.984 1_545 S
H261 N248 0.985 . S
C262 C263 1.363 . S
C262 C268 1.379 . S
C262 N270 1.356 . S
C263 C262 1.363 . S
C263 C269 1.363 . S
C264 C265 1.363 . S
C264 C269 1.379 . S
C264 N271 1.356 . S
C265 C264 1.363 . S
C265 C268 1.363 . S
N266 C268 1.356 . S
N266 H278 0.984 . S
N266 H279 0.985 . S
N267 C269 1.356 . S
N267 H272 0.984 . S
N267 H273 0.985 . S
C268 C262 1.379 . S
C268 C265 1.363 . S
C268 N266 1.356 . S
C269 C263 1.363 . S
C269 C264 1.379 . S
C269 N267 1.356 . S
N270 C262 1.356 . S
N270 H276 0.984 . S
N270 H277 0.984 . S
N271 C264 1.356 . S
N271 H274 0.984 . S
N271 H275 0.985 . S
H272 N267 0.984 . S
H273 N267 0.985 . S
H274 N271 0.984 . S
H275 N271 0.985 . S
H276 N270 0.984 . S
H277 N270 0.984 . S
H278 N266 0.984 . S
H279 N266 0.985 . S
C280 C281 1.363 . S
C280 C286 1.379 . S
C280 N288 1.356 . S
C281 C280 1.363 . S
C281 C287 1.363 . S
C282 C283 1.363 . S
C282 C287 1.379 . S
C282 N289 1.356 . S
C283 C282 1.363 . S
C283 C286 1.363 . S
N284 C286 1.356 . S
N284 H296 0.984 . S
N284 H297 0.985 . S
N285 C287 1.356 . S
N285 H290 0.984 . S
N285 H291 0.985 . S
C286 C280 1.379 . S
C286 C283 1.363 . S
C286 N284 1.356 . S
C287 C281 1.363 . S
C287 C282 1.379 . S
C287 N285 1.356 . S
N288 C280 1.356 . S
N288 H294 0.984 . S
N288 H295 0.984 . S
N289 C282 1.356 . S
N289 H292 0.984 . S
N289 H293 0.985 . S
H290 N285 0.984 . S
H291 N285 0.985 . S
H292 N289 0.984 . S
H293 N289 0.985 . S
H294 N288 0.984 . S
H295 N288 0.984 . S
H296 N284 0.984 . S
H297 N284 0.985 . S
C298 C299 1.363 . S
C298 C304 1.379 . S
C298 N306 1.356 1_655 S
C299 C298 1.363 . S
C299 C305 1.363 . S
C300 C301 1.363 . S
C300 C305 1.379 . S
C300 N307 1.356 . S
C301 C300 1.363 . S
C301 C304 1.363 . S
N302 C304 1.356 . S
N302 H314 0.984 1_656 S
N302 H315 0.985 . S
N303 C305 1.356 . S
N303 H308 0.984 . S
N303 H309 0.985 . S
C304 C298 1.379 . S
C304 C301 1.363 . S
C304 N302 1.356 . S
C305 C299 1.363 . S
C305 C300 1.379 . S
C305 N303 1.356 . S
N306 C298 1.356 1_455 S
N306 H312 0.984 . S
N306 H313 0.984 . S
N307 C300 1.356 . S
N307 H310 0.984 . S
N307 H311 0.985 . S
H308 N303 0.984 . S
H309 N303 0.985 . S
H310 N307 0.984 . S
H311 N307 0.985 . S
H312 N306 0.984 . S
H313 N306 0.984 . S
H314 N302 0.984 1_454 S
H315 N302 0.985 . S
C316 C317 1.363 1_556 S
C316 C322 1.378 . S
C316 N324 1.356 . S
C317 C316 1.363 1_554 S
C317 C323 1.363 . S
C318 C319 1.363 . S
C318 C323 1.379 . S
C318 N325 1.356 . S
C319 C318 1.363 . S
C319 C322 1.356 1_554 S
N320 C322 1.362 . S
N320 H332 0.984 . S
N320 H333 0.985 . S
N321 C323 1.356 . S
N321 H326 0.984 1_655 S
N321 H327 0.985 . S
C322 C316 1.378 . S
C322 C319 1.356 1_556 S
C322 N320 1.362 . S
C323 C317 1.363 . S
C323 C318 1.379 . S
C323 N321 1.356 . S
N324 C316 1.356 . S
N324 H330 0.984 . S
N324 H331 0.984 1_655 S
N325 C318 1.356 . S
N325 H328 0.984 . S
N325 H329 0.985 . S
H326 N321 0.984 1_455 S
H327 N321 0.985 . S
H328 N325 0.984 . S
H329 N325 0.985 . S
H330 N324 0.984 . S
H331 N324 0.984 1_455 S
H332 N320 0.984 . S
H333 N320 0.985 . S
C334 C335 1.363 . S
C334 C340 1.379 . S
C334 N342 1.356 . S
C335 C334 1.363 . S
C335 C341 1.363 . S
C336 C337 1.363 . S
C336 C341 1.379 . S
C336 N343 1.356 . S
C337 C336 1.363 . S
C337 C340 1.363 . S
N338 C340 1.356 . S
N338 H350 0.984 . S
N338 H351 0.985 . S
N339 C341 1.356 . S
N339 H344 0.984 . S
N339 H345 0.985 . S
C340 C334 1.379 . S
C340 C337 1.363 . S
C340 N338 1.356 . S
C341 C335 1.363 . S
C341 C336 1.379 . S
C341 N339 1.356 . S
N342 C334 1.356 . S
N342 H348 0.984 . S
N342 H349 0.984 . S
N343 C336 1.356 . S
N343 H346 0.984 . S
N343 H347 0.985 . S
H344 N339 0.984 . S
H345 N339 0.985 . S
H346 N343 0.984 . S
H347 N343 0.985 . S
H348 N342 0.984 . S
H349 N342 0.984 . S
H350 N338 0.984 . S
H351 N338 0.985 . S
C137 C68 2.462 . S
C139 C0 2.494 . S
C155 C106 1.111 . S
C157 C38 1.111 . S
C173 C76 2.405 . S
C175 C8 2.431 . S
C191 C119 0.969 1_556 S
C193 C51 0.968 . S
C209 C42 1.776 1_455 S
C211 C13 1.805 . S
C227 C97 1.204 . S
C229 C63 1.217 1_565 S
C245 C72 1.236 . S
C247 C115 1.140 . S
C263 C17 2.224 . S
C265 C102 2.162 . S
C281 C34 2.170 . S
C283 C29 2.244 . S
C299 C81 1.275 . S
C301 C47 1.198 . S
C317 C85 1.197 1_655 S
C319 C131 1.201 . S
C335 C110 1.701 . S
C337 C4 1.773 . S
