# Generated by pormake.
# Topology xfy, (5)-cn, num edge types: 1
# Building blocks:
#     Node 0, Type 0, BuildingBlock: BEQFEK_clean_sbu_0, # of connection points: 5
#     Node 1, Type 0, BuildingBlock: BEQFEK_clean_sbu_0, # of connection points: 5
#     Node 2, Type 0, BuildingBlock: BEQFEK_clean_sbu_0, # of connection points: 5
#     Node 3, Type 0, BuildingBlock: BEQFEK_clean_sbu_0, # of connection points: 5
#     Node 4, Type 0, BuildingBlock: BEQFEK_clean_sbu_0, # of connection points: 5
#     Node 5, Type 0, BuildingBlock: BEQFEK_clean_sbu_0, # of connection points: 5
#     Node 6, Type 0, BuildingBlock: BEQFEK_clean_sbu_0, # of connection points: 5
#     Node 7, Type 0, BuildingBlock: BEQFEK_clean_sbu_0, # of connection points: 5
#     Edge 8, Type (0, 0), BuildingBlock: KIFKEQ_clean_linker_1, # of connection points: 2
#     Edge 9, Type (0, 0), BuildingBlock: KIFKEQ_clean_linker_1, # of connection points: 2
#     Edge 10, Type (0, 0), BuildingBlock: KIFKEQ_clean_linker_1, # of connection points: 2
#     Edge 11, Type (0, 0), BuildingBlock: KIFKEQ_clean_linker_1, # of connection points: 2
#     Edge 12, Type (0, 0), BuildingBlock: KIFKEQ_clean_linker_1, # of connection points: 2
#     Edge 13, Type (0, 0), BuildingBlock: KIFKEQ_clean_linker_1, # of connection points: 2
#     Edge 14, Type (0, 0), BuildingBlock: KIFKEQ_clean_linker_1, # of connection points: 2
#     Edge 15, Type (0, 0), BuildingBlock: KIFKEQ_clean_linker_1, # of connection points: 2
#     Edge 16, Type (0, 0), BuildingBlock: KIFKEQ_clean_linker_1, # of connection points: 2
#     Edge 17, Type (0, 0), BuildingBlock: KIFKEQ_clean_linker_1, # of connection points: 2
#     Edge 18, Type (0, 0), BuildingBlock: KIFKEQ_clean_linker_1, # of connection points: 2
#     Edge 19, Type (0, 0), BuildingBlock: KIFKEQ_clean_linker_1, # of connection points: 2
#     Edge 20, Type (0, 0), BuildingBlock: KIFKEQ_clean_linker_1, # of connection points: 2
#     Edge 21, Type (0, 0), BuildingBlock: KIFKEQ_clean_linker_1, # of connection points: 2
#     Edge 22, Type (0, 0), BuildingBlock: KIFKEQ_clean_linker_1, # of connection points: 2
#     Edge 23, Type (0, 0), BuildingBlock: KIFKEQ_clean_linker_1, # of connection points: 2
#     Edge 24, Type (0, 0), BuildingBlock: KIFKEQ_clean_linker_1, # of connection points: 2
#     Edge 25, Type (0, 0), BuildingBlock: KIFKEQ_clean_linker_1, # of connection points: 2
#     Edge 26, Type (0, 0), BuildingBlock: KIFKEQ_clean_linker_1, # of connection points: 2
#     Edge 27, Type (0, 0), BuildingBlock: KIFKEQ_clean_linker_1, # of connection points: 2
# Relax obj value: 0.383
# Max RMSD: 0.221
# Mean RMSD: 0.221
data_MOF--net-xfy--node1-BEQFEK_clean_sbu_0--edge1-KIFKEQ_clean_linker_1
_symmetry_space_group_name_H-M    P1
_symmetry_Int_Tables_number       1
_symmetry_cell_setting            triclinic
loop_
_symmetry_equiv_pos_as_xyz
'x, y, z'
_cell_length_a     29.363589
_cell_length_b     29.359975
_cell_length_c     59.757902
_cell_angle_alpha  89.971624
_cell_angle_beta   90.005583
_cell_angle_gamma 89.992583
loop_
_atom_site_label
_atom_site_type_symbol
_atom_site_fract_x
_atom_site_fract_y
_atom_site_fract_z
_atom_type_partial_charge
Co0 Co 0.23472 0.04317 0.41665 0.0
Co1 Co 0.22466 0.12729 0.38463 0.0
C2 C 0.15732 0.05014 0.38463 0.0
O3 O 0.1793 0.02871 0.39967 0.0
O4 O 0.17065 0.08881 0.37749 0.0
C5 C 0.24109 0.94975 0.43179 0.0
O6 O 0.22617 0.93938 0.4117 0.0
C7 C 0.21988 0.17264 0.3412 0.0
C8 C 0.2423 0.24253 0.34934 0.0
C9 C 0.22923 0.21478 0.3317 0.0
N10 N 0.22717 0.17546 0.36335 0.0
N11 N 0.23989 0.21748 0.36818 0.0
C12 C 0.20891 0.12905 0.32937 0.0
H13 H 0.21847 0.09935 0.33986 0.0
H14 H 0.227 0.12716 0.3131 0.0
H15 H 0.17172 0.1276 0.32615 0.0
C16 C 0.32175 0.03428 0.39281 0.0
N17 N 0.28252 0.0563 0.39684 0.0
N18 N 0.27939 0.09192 0.38351 0.0
C19 C 0.31728 0.09389 0.37071 0.0
C20 C 0.34475 0.05699 0.37598 0.0
C21 C 0.33751 0.99311 0.40541 0.0
H22 H 0.33172 -0.00189 0.42357 0.0
H23 H 0.31745 0.96314 0.39989 0.0
H24 H 0.37419 0.98618 0.40255 0.0
O25 O 0.22281 0.09501 0.43665 0.0
O26 O 0.21559 0.15532 0.41462 0.0
H27 H 0.31838 0.16364 0.36013 0.0
H28 H 0.36256 0.12879 0.34781 0.0
C29 C 0.32653 0.12947 0.35337 0.0
H30 H 0.30465 0.12311 0.3386 0.0
H31 H 0.24841 0.22862 0.38422 0.0
O32 O 0.24843 0.99122 0.43667 0.0
C33 C 0.21573 0.1374 0.43403 0.0
Co34 Co 0.0462 0.76092 0.57878 0.0
Co35 Co 0.13033 0.76955 0.61099 0.0
C36 C 0.05615 0.84036 0.60915 0.0
O37 O 0.03373 0.81796 0.59466 0.0
O38 O 0.09425 0.82605 0.61657 0.0
C39 C 0.95285 0.75765 0.56422 0.0
O40 O 0.94402 0.77348 0.58432 0.0
C41 C 0.17302 0.77502 0.65505 0.0
C42 C 0.24083 0.74476 0.64906 0.0
C43 C 0.21269 0.76136 0.66579 0.0
N44 N 0.17706 0.76566 0.63314 0.0
N45 N 0.21798 0.74834 0.62958 0.0
C46 C 0.1321 0.79767 0.6651 0.0
H47 H 0.1249 0.82962 0.65589 0.0
H48 H 0.10198 0.77516 0.66326 0.0
H49 H 0.13729 0.8065 0.68294 0.0
C50 C 0.03346 0.67565 0.6037 0.0
N51 N 0.05673 0.71406 0.59942 0.0
N52 N 0.09223 0.7166 0.61284 0.0
C53 C 0.09277 0.67912 0.62599 0.0
C54 C 0.05517 0.65256 0.62081 0.0
C55 C 0.99253 0.66028 0.59081 0.0
H56 H -0.00157 0.66529 0.57265 0.0
H57 H 0.96275 0.68115 0.59583 0.0
H58 H 0.98467 0.62387 0.59394 0.0
O59 O 0.09906 0.76923 0.55897 0.0
O60 O 0.15962 0.77505 0.581 0.0
H61 H 0.1625 0.67326 0.63605 0.0
H62 H 0.12457 0.63396 0.65004 0.0
C63 C 0.12808 0.66902 0.64335 0.0
H64 H 0.1243 0.69328 0.65741 0.0
H65 H 0.22964 0.73737 0.61399 0.0
O66 O 0.99375 0.74841 0.55896 0.0
C67 C 0.14175 0.77452 0.56156 0.0
Co68 Co 0.76336 0.95271 0.41571 0.0
Co69 Co 0.77042 0.8658 0.38527 0.0
C70 C 0.84186 0.93896 0.38474 0.0
O71 O 0.82034 0.96241 0.39917 0.0
O72 O 0.82688 0.9006 0.37801 0.0
C73 C 0.7683 0.04596 0.42998 0.0
O74 O 0.79335 0.05085 0.41193 0.0
C75 C 0.77401 0.81807 0.3426 0.0
C76 C 0.74828 0.74962 0.35133 0.0
C77 C 0.76299 0.776 0.33349 0.0
N78 N 0.76614 0.81653 0.36472 0.0
N79 N 0.75141 0.77535 0.36992 0.0
C80 C 0.787 0.86067 0.33038 0.0
H81 H 0.77844 0.89117 0.3405 0.0
H82 H 0.76933 0.86264 0.31399 0.0
H83 H 0.82428 0.86048 0.32734 0.0
C84 C 0.6781 0.96427 0.39097 0.0
N85 N 0.71616 0.9407 0.39552 0.0
N86 N 0.71776 0.90396 0.38292 0.0
C87 C 0.67986 0.9027 0.37011 0.0
C88 C 0.65407 0.94128 0.37457 0.0
C89 C 0.6642 0.00672 0.40305 0.0
H90 H 0.66645 0.00095 0.42136 0.0
H91 H 0.6881 0.03459 0.39867 0.0
H92 H 0.62898 0.01727 0.39882 0.0
O93 O 0.77139 0.90183 0.43682 0.0
O94 O 0.77667 0.83974 0.41586 0.0
H95 H 0.67496 0.83203 0.36148 0.0
H96 H 0.63286 0.8678 0.34804 0.0
C97 C 0.66873 0.86578 0.35375 0.0
H98 H 0.69106 0.86922 0.3389 0.0
H99 H 0.74202 0.76531 0.38603 0.0
O100 O 0.75076 0.00736 0.43424 0.0
C101 C 0.77648 0.85897 0.43496 0.0
Co102 Co 0.94463 0.23586 0.57819 0.0
Co103 Co 0.86441 0.22454 0.61256 0.0
C104 C 0.93987 0.15612 0.6092 0.0
O105 O 0.95941 0.17861 0.59374 0.0
O106 O 0.90273 0.16978 0.61793 0.0
C107 C 0.03685 0.24122 0.56244 0.0
O108 O 0.04692 0.2266 0.58263 0.0
C109 C 0.82356 0.21745 0.65709 0.0
C110 C 0.75513 0.24684 0.65174 0.0
C111 C 0.7839 0.22999 0.66816 0.0
N112 N 0.81882 0.22759 0.63528 0.0
N113 N 0.77758 0.24445 0.63212 0.0
C114 C 0.86493 0.19479 0.66667 0.0
H115 H 0.87186 0.16303 0.65727 0.0
H116 H 0.89491 0.21741 0.66464 0.0
H117 H 0.86048 0.18561 0.68453 0.0
C118 C 0.95762 0.32125 0.60296 0.0
N119 N 0.9349 0.28234 0.59911 0.0
N120 N 0.90095 0.27868 0.61341 0.0
C121 C 0.90096 0.31582 0.62677 0.0
C122 C 0.93726 0.34341 0.62074 0.0
C123 C 0.99692 0.3378 0.58923 0.0
H124 H 0.98988 0.33212 0.57122 0.0
H125 H 0.02785 0.31828 0.59386 0.0
H126 H 0.00356 0.37457 0.59202 0.0
O127 O 0.89036 0.22741 0.55934 0.0
O128 O 0.83326 0.21659 0.58316 0.0
H129 H 0.87169 0.35904 0.65238 0.0
H130 H 0.8734 0.29921 0.65881 0.0
C131 C 0.86774 0.32436 0.64527 0.0
H132 H 0.83254 0.32019 0.63891 0.0
H133 H 0.76532 0.25572 0.61669 0.0
O134 O 0.99552 0.24916 0.55751 0.0
C135 C 0.84856 0.21944 0.56326 0.0
Co136 Co 0.26082 0.54843 0.91855 0.0
Co137 Co 0.27022 0.62926 0.88442 0.0
C138 C 0.33771 0.55311 0.88563 0.0
O139 O 0.31648 0.53378 0.9016 0.0
O140 O 0.32379 0.59052 0.87725 0.0
C141 C 0.25654 0.45564 0.93426 0.0
O142 O 0.27072 0.4455 0.91401 0.0
C143 C 0.27313 0.67298 0.84045 0.0
C144 C 0.24939 0.74265 0.84815 0.0
C145 C 0.26266 0.71461 0.83067 0.0
N146 N 0.26626 0.67637 0.86261 0.0
N147 N 0.25271 0.71827 0.86716 0.0
C148 C 0.28487 0.62929 0.8289 0.0
H149 H 0.27598 0.59972 0.83961 0.0
H150 H 0.26669 0.62657 0.81267 0.0
H151 H 0.32205 0.62846 0.82562 0.0
C152 C 0.17334 0.53702 0.89539 0.0
N153 N 0.21265 0.5594 0.89868 0.0
N154 N 0.21543 0.59374 0.88454 0.0
C155 C 0.17722 0.59444 0.87192 0.0
C156 C 0.1499 0.55809 0.87821 0.0
C157 C 0.15796 0.49701 0.90897 0.0
H158 H 0.16458 0.50345 0.92695 0.0
H159 H 0.17759 0.46649 0.90383 0.0
H160 H 0.12112 0.49008 0.90661 0.0
O161 O 0.27142 0.60193 0.93771 0.0
O162 O 0.28149 0.65902 0.91382 0.0
H163 H 0.17506 0.66309 0.8598 0.0
H164 H 0.1316 0.62642 0.84817 0.0
C165 C 0.16756 0.6282 0.85377 0.0
H166 H 0.18973 0.62087 0.83922 0.0
H167 H 0.2443 0.72976 0.88316 0.0
O168 O 0.2486 0.497 0.93917 0.0
C169 C 0.27993 0.6436 0.93372 0.0
Co170 Co 0.54827 0.736 0.08026 0.0
Co171 Co 0.63021 0.72561 0.11388 0.0
C172 C 0.55509 0.65699 0.11182 0.0
O173 O 0.53513 0.67888 0.09629 0.0
O174 O 0.59239 0.67102 0.1202 0.0
C175 C 0.45594 0.73447 0.06552 0.0
O176 O 0.4497 0.71344 0.08468 0.0
C177 C 0.67275 0.71931 0.15793 0.0
C178 C 0.74071 0.74937 0.15212 0.0
C179 C 0.71255 0.7323 0.16873 0.0
N180 N 0.67679 0.72937 0.13609 0.0
N181 N 0.71776 0.74665 0.13264 0.0
C182 C 0.63186 0.69628 0.1678 0.0
H183 H 0.62616 0.66355 0.15902 0.0
H184 H 0.60125 0.71778 0.16513 0.0
H185 H 0.63613 0.68867 0.18583 0.0
C186 C 0.53584 0.82135 0.10485 0.0
N187 N 0.55886 0.78269 0.10089 0.0
N188 N 0.59348 0.77957 0.11482 0.0
C189 C 0.59368 0.81692 0.12804 0.0
C190 C 0.55682 0.84408 0.12229 0.0
C191 C 0.49552 0.83683 0.09152 0.0
H192 H 0.50282 0.83307 0.07341 0.0
H193 H 0.46587 0.81497 0.09565 0.0
H194 H 0.48671 0.87287 0.09504 0.0
O195 O 0.60156 0.72737 0.06072 0.0
O196 O 0.65956 0.71675 0.08408 0.0
H197 H 0.66249 0.82217 0.13955 0.0
H198 H 0.62336 0.8605 0.1534 0.0
C199 C 0.62749 0.8259 0.14623 0.0
H200 H 0.62267 0.80065 0.15981 0.0
H201 H 0.72946 0.758 0.11712 0.0
O202 O 0.49542 0.74909 0.06057 0.0
C203 C 0.64348 0.71919 0.0643 0.0
Co204 Co 0.73016 0.44874 0.9171 0.0
Co205 Co 0.72302 0.36415 0.88504 0.0
C206 C 0.65173 0.4367 0.88544 0.0
O207 O 0.67285 0.4585 0.90063 0.0
O208 O 0.66702 0.39929 0.87768 0.0
C209 C 0.72427 0.54161 0.93165 0.0
O210 O 0.7001 0.54648 0.91331 0.0
C211 C 0.7211 0.31732 0.84201 0.0
C212 C 0.74703 0.2489 0.8507 0.0
C213 C 0.73275 0.27546 0.83283 0.0
N214 N 0.72824 0.31547 0.86419 0.0
N215 N 0.7431 0.27431 0.86935 0.0
C216 C 0.70813 0.35999 0.82986 0.0
H217 H 0.71607 0.39039 0.84017 0.0
H218 H 0.7263 0.36237 0.81361 0.0
H219 H 0.67095 0.35954 0.82653 0.0
C220 C 0.81568 0.46186 0.89281 0.0
N221 N 0.77743 0.4382 0.89679 0.0
N222 N 0.77595 0.40227 0.88363 0.0
C223 C 0.81417 0.40164 0.87103 0.0
C224 C 0.84002 0.43978 0.87623 0.0
C225 C 0.82951 0.50346 0.9056 0.0
H226 H 0.80588 0.53173 0.90148 0.0
H227 H 0.86488 0.51407 0.9017 0.0
H228 H 0.82679 0.49661 0.9238 0.0
O229 O 0.72338 0.39667 0.93767 0.0
O230 O 0.71486 0.33691 0.91525 0.0
H231 H 0.86166 0.36804 0.84875 0.0
H232 H 0.80361 0.36985 0.83935 0.0
C233 C 0.82567 0.36564 0.85424 0.0
H234 H 0.81937 0.33148 0.8615 0.0
H235 H 0.75203 0.26407 0.88549 0.0
O236 O 0.74184 0.50308 0.93606 0.0
C237 C 0.71671 0.35429 0.93474 0.0
Co238 Co 0.45185 0.26369 0.08196 0.0
Co239 Co 0.36608 0.2712 0.11335 0.0
C240 C 0.43955 0.34237 0.11286 0.0
O241 O 0.4624 0.32057 0.09833 0.0
O242 O 0.40136 0.32767 0.11992 0.0
C243 C 0.54497 0.26807 0.06824 0.0
O244 O 0.54962 0.29106 0.08694 0.0
C245 C 0.3211 0.27582 0.15679 0.0
C246 C 0.2542 0.2442 0.15011 0.0
C247 C 0.28126 0.26142 0.16712 0.0
N248 N 0.31822 0.26632 0.13485 0.0
N249 N 0.27783 0.24817 0.13087 0.0
C250 C 0.36113 0.2993 0.16724 0.0
H251 H 0.39209 0.27808 0.16507 0.0
H252 H 0.35563 0.30687 0.18519 0.0
H253 H 0.36707 0.33208 0.15853 0.0
C254 C 0.4641 0.1784 0.10659 0.0
N255 N 0.44055 0.21659 0.10227 0.0
N256 N 0.40449 0.21853 0.11533 0.0
C257 C 0.4038 0.18079 0.12829 0.0
C258 C 0.44188 0.15467 0.12334 0.0
C259 C 0.50583 0.16408 0.09403 0.0
H260 H 0.49954 0.16709 0.07579 0.0
H261 H 0.53434 0.18722 0.09841 0.0
H262 H 0.51579 0.12851 0.09792 0.0
O263 O 0.40005 0.2721 0.06142 0.0
O264 O 0.33868 0.27762 0.08296 0.0
H265 H 0.33382 0.17352 0.13764 0.0
H266 H 0.372 0.13532 0.15222 0.0
C267 C 0.36801 0.17017 0.14532 0.0
H268 H 0.37061 0.19478 0.15931 0.0
H269 H 0.26709 0.23691 0.11517 0.0
O270 O 0.5063 0.25154 0.06323 0.0
C271 C 0.35728 0.27752 0.06368 0.0
H272 H 0.6334 0.01804 0.35159 0.0
H273 H 0.57485 0.89472 0.37814 0.0
H274 H 0.55711 0.04751 0.34361 0.0
H275 H 0.49865 0.92404 0.37071 0.0
H276 H 0.36441 0.97911 0.35388 0.0
H277 H 0.44026 0.94956 0.34517 0.0
H278 H 0.49977 0.07496 0.36937 0.0
H279 H 0.42384 0.10445 0.37746 0.0
C280 C 0.60404 0.99689 0.35514 0.0
C281 C 0.60947 0.95433 0.36545 0.0
C282 C 0.56052 0.01375 0.35073 0.0
C283 C 0.52182 0.98835 0.35672 0.0
C284 C 0.52767 0.94428 0.36559 0.0
C285 C 0.57121 0.92743 0.36992 0.0
C286 C 0.39385 0.00065 0.35663 0.0
C287 C 0.38883 0.04382 0.36633 0.0
C288 C 0.43714 0.98375 0.3518 0.0
C289 C 0.47605 0.00966 0.35683 0.0
C290 C 0.47054 0.05429 0.36503 0.0
C291 C 0.42717 0.07123 0.36974 0.0
H292 H 0.88989 0.42248 0.62 0.0
H293 H 0.01672 0.36295 0.64149 0.0
H294 H 0.92006 0.49838 0.62735 0.0
H295 H 0.04684 0.43872 0.64982 0.0
H296 H 0.97762 0.63234 0.64315 0.0
H297 H 0.94807 0.55629 0.65146 0.0
H298 H 0.07226 0.49726 0.62542 0.0
H299 H 0.10188 0.57333 0.61804 0.0
C300 C 0.92366 0.42582 0.62714 0.0
C301 C 0.95121 0.38744 0.63015 0.0
C302 C 0.94101 0.4692 0.63145 0.0
C303 C 0.98617 0.47473 0.63896 0.0
C304 C 0.0123 0.43572 0.64364 0.0
C305 C 0.99505 0.39243 0.63909 0.0
C306 C -0.00111 0.6029 0.63993 0.0
C307 C 0.04182 0.60814 0.63002 0.0
C308 C 0.98196 0.55946 0.64449 0.0
C309 C 0.00749 0.52059 0.63886 0.0
C310 C 0.05183 0.52632 0.63028 0.0
C311 C 0.06887 0.5698 0.62595 0.0
H312 H 0.91925 0.39349 0.88044 0.0
H313 H 0.86127 0.51696 0.85376 0.0
H314 H 0.99562 0.42313 0.87381 0.0
H315 H 0.9377 0.54663 0.84638 0.0
H316 H 0.13043 0.47854 0.85757 0.0
H317 H 0.05476 0.44824 0.84915 0.0
H318 H 0.99464 0.57472 0.87164 0.0
H319 H 0.07046 0.605 0.87927 0.0
C320 C 0.9231 0.42633 0.87237 0.0
C321 C 0.88492 0.45314 0.86761 0.0
C322 C 0.96675 0.44337 0.86849 0.0
C323 C 0.97279 0.48751 0.85972 0.0
C324 C 0.9342 0.51285 0.85347 0.0
C325 C 0.89058 0.49586 0.85751 0.0
C326 C 0.10088 0.50008 0.86002 0.0
C327 C 0.10572 0.54388 0.86903 0.0
C328 C 0.05767 0.48275 0.85538 0.0
C329 C 0.01861 0.50882 0.85997 0.0
C330 C 0.02395 0.55388 0.86762 0.0
C331 C 0.06724 0.57128 0.87208 0.0
H332 H 0.39462 0.07589 0.11997 0.0
H333 H 0.51911 0.13321 0.14577 0.0
H334 H 0.42343 -0.0006 0.1271 0.0
H335 H 0.5479 0.05667 0.15372 0.0
H336 H 0.60461 0.92286 0.12134 0.0
H337 H 0.57524 -0.00103 0.12896 0.0
H338 H 0.44822 0.94031 0.15167 0.0
H339 H 0.4776 0.86429 0.1432 0.0
C340 C 0.42752 0.0719 0.12795 0.0
C341 C 0.45488 0.10989 0.13228 0.0
C342 C 0.44408 0.02817 0.13214 0.0
C343 C 0.48825 0.02185 0.14081 0.0
C344 C 0.5141 0.06034 0.14669 0.0
C345 C 0.49762 0.10404 0.14232 0.0
C346 C 0.57097 0.92644 0.12858 0.0
C347 C 0.54312 0.88828 0.13162 0.0
C348 C 0.55408 0.96993 0.13304 0.0
C349 C 0.5091 0.9758 0.14073 0.0
C350 C 0.48266 0.93701 0.1454 0.0
C351 C 0.49947 0.89359 0.14073 0.0
H352 H 0.09074 0.09284 0.36027 0.0
H353 H 0.12477 0.96424 0.39135 0.0
H354 H 0.01372 0.06496 0.35306 0.0
H355 H 0.04805 0.93679 0.38431 0.0
H356 H 0.87517 0.02518 0.388 0.0
H357 H 0.95252 0.0505 0.38091 0.0
H358 H 0.98762 0.91637 0.35675 0.0
H359 H 0.90973 0.89068 0.364 0.0
C360 C 0.08212 0.05837 0.36516 0.0
C361 C 0.11357 0.03105 0.37676 0.0
C362 C 0.03803 0.04248 0.36106 0.0
C363 C 0.02478 -0.00112 0.3683 0.0
C364 C 0.0573 0.9704 0.37837 0.0
C365 C 0.10119 0.98635 0.3826 0.0
C366 C 0.89909 0.00121 0.38081 0.0
C367 C 0.88655 0.95571 0.37692 0.0
C368 C 0.94335 0.0159 0.37653 0.0
C369 C 0.97619 0.98534 0.36839 0.0
C370 C 0.96302 0.94052 0.3632 0.0
C371 C 0.91846 0.92589 0.3673 0.0
H372 H 0.89883 0.08798 0.63316 0.0
H373 H 0.02512 0.12394 0.60042 0.0
H374 H 0.9278 0.01099 0.6395 0.0
H375 H 0.05375 0.04723 0.60671 0.0
H376 H 0.10309 0.91014 0.62902 0.0
H377 H 0.07606 0.98798 0.63523 0.0
H378 H 0.9428 0.94957 0.61117 0.0
H379 H 0.96952 0.87221 0.60499 0.0
C380 C 0.93303 0.07976 0.6277 0.0
C381 C 0.95943 0.11183 0.616 0.0
C382 C 0.94952 0.03569 0.63128 0.0
C383 C 0.99289 0.02311 0.62349 0.0
C384 C 0.02035 0.05604 0.61308 0.0
C385 C 0.00374 0.09989 0.6093 0.0
C386 C 0.0678 0.91815 0.6255 0.0
C387 C 0.0386 0.88526 0.61622 0.0
C388 C 0.05242 0.96267 0.62898 0.0
C389 C 0.00743 0.97481 0.62357 0.0
C390 C 0.97752 0.94114 0.61569 0.0
C391 C 0.99298 0.8969 0.61196 0.0
H392 H 0.61966 0.52327 0.88919 0.0
H393 H 0.58294 0.38965 0.86483 0.0
H394 H 0.54252 0.54983 0.88236 0.0
H395 H 0.50522 0.41649 0.85798 0.0
H396 H 0.36932 0.46726 0.89343 0.0
H397 H 0.44566 0.43842 0.88647 0.0
H398 H 0.48134 0.56468 0.85379 0.0
H399 H 0.40466 0.59386 0.86078 0.0
C400 C 0.59529 0.49977 0.882 0.0
C401 C 0.60716 0.45419 0.87786 0.0
C402 C 0.55118 0.51514 0.87788 0.0
C403 C 0.51784 0.48516 0.86973 0.0
C404 C 0.53028 0.44021 0.86439 0.0
C405 C 0.57472 0.42493 0.86826 0.0
C406 C 0.39312 0.48862 0.88438 0.0
C407 C 0.38122 0.53315 0.878 0.0
C408 C 0.43675 0.47189 0.88021 0.0
C409 C 0.46949 0.49945 0.86973 0.0
C410 C 0.45678 0.5429 0.86207 0.0
C411 C 0.4129 0.55952 0.86604 0.0
H412 H 0.39187 0.4118 0.13262 0.0
H413 H 0.52639 0.37398 0.10989 0.0
H414 H 0.41867 0.48961 0.13918 0.0
H415 H 0.55284 0.45122 0.11633 0.0
H416 H 0.59622 0.59006 0.1366 0.0
H417 H 0.5672 0.51345 0.14391 0.0
H418 H 0.4412 0.54819 0.11073 0.0
H419 H 0.4698 0.62446 0.10356 0.0
C420 C 0.42731 0.41981 0.12948 0.0
C421 C 0.45685 0.38702 0.12039 0.0
C422 C 0.44257 0.46431 0.13317 0.0
C423 C 0.48774 0.47649 0.12813 0.0
C424 C 0.51797 0.44281 0.12057 0.0
C425 C 0.50265 0.39862 0.11666 0.0
C426 C 0.56199 0.58161 0.13128 0.0
C427 C 0.53558 0.61307 0.11919 0.0
C428 C 0.54545 0.53777 0.13543 0.0
C429 C 0.50207 0.52483 0.12778 0.0
C430 C 0.47458 0.55727 0.11703 0.0
C431 C 0.49121 0.60088 0.11271 0.0
H432 H 0.20066 0.27709 0.18845 0.0
H433 H 0.33909 0.23355 0.20003 0.0
H434 H 0.18456 0.26921 0.22861 0.0
H435 H 0.32357 0.22708 0.2399 0.0
H436 H 0.29431 0.26601 0.31173 0.0
H437 H 0.30441 0.28053 0.27183 0.0
H438 H 0.18169 0.20487 0.25759 0.0
H439 H 0.17119 0.1909 0.29767 0.0
C440 C 0.2277 0.26641 0.19962 0.0
C441 C 0.27158 0.25773 0.19131 0.0
C442 C 0.21849 0.2618 0.22251 0.0
C443 C 0.25309 0.24839 0.23738 0.0
C444 C 0.29663 0.23875 0.22891 0.0
C445 C 0.30562 0.24287 0.20611 0.0
C446 C 0.26922 0.25292 0.3001 0.0
C447 C 0.23251 0.22651 0.30771 0.0
C448 C 0.27515 0.26099 0.27728 0.0
C449 C 0.24414 0.24334 0.26164 0.0
C450 C 0.20613 0.21882 0.26931 0.0
C451 C 0.20043 0.21038 0.29218 0.0
H452 H 0.19672 0.76449 0.81054 0.0
H453 H 0.32083 0.69085 0.79667 0.0
H454 H 0.18671 0.77895 0.77062 0.0
H455 H 0.31041 0.7047 0.75659 0.0
H456 H 0.29254 0.77732 0.68771 0.0
H457 H 0.30767 0.76905 0.72791 0.0
H458 H 0.16847 0.72662 0.73829 0.0
H459 H 0.15388 0.73353 0.69835 0.0
C460 C 0.222 0.75164 0.79894 0.0
C461 C 0.25903 0.72575 0.80662 0.0
C462 C 0.21613 0.75967 0.77611 0.0
C463 C 0.24751 0.7425 0.76052 0.0
C464 C 0.2857 0.71831 0.76826 0.0
C465 C 0.29135 0.70991 0.79114 0.0
C466 C 0.26522 0.76652 0.69868 0.0
C467 C 0.22157 0.75782 0.69007 0.0
C468 C 0.27389 0.76167 0.7216 0.0
C469 C 0.239 0.74796 0.73623 0.0
C470 C 0.19564 0.73847 0.72749 0.0
C471 C 0.18717 0.74286 0.70464 0.0
H472 H 0.6961 0.72708 0.31352 0.0
H473 H 0.82291 0.79599 0.29967 0.0
H474 H 0.68606 0.71233 0.27362 0.0
H475 H 0.81244 0.78197 0.25964 0.0
H476 H 0.7919 0.71287 0.19041 0.0
H477 H 0.80732 0.71895 0.23068 0.0
H478 H 0.66954 0.76543 0.24152 0.0
H479 H 0.65471 0.76056 0.20153 0.0
C480 C 0.72202 0.73871 0.30194 0.0
C481 C 0.75976 0.76355 0.30959 0.0
C482 C 0.71612 0.73054 0.27913 0.0
C483 C 0.74817 0.74654 0.26354 0.0
C484 C 0.78718 0.7693 0.27129 0.0
C485 C 0.79289 0.7778 0.29415 0.0
C486 C 0.76496 0.72406 0.20151 0.0
C487 C 0.72161 0.73455 0.19301 0.0
C488 C 0.77377 0.72763 0.22446 0.0
C489 C 0.73935 0.74186 0.23924 0.0
C490 C 0.6963 0.7531 0.23061 0.0
C491 C 0.68769 0.74995 0.20773 0.0
H492 H 0.80007 0.22654 0.8132 0.0
H493 H 0.67371 0.29573 0.79868 0.0
H494 H 0.81066 0.21122 0.77339 0.0
H495 H 0.68475 0.28121 0.75874 0.0
H496 H 0.7047 0.21117 0.69001 0.0
H497 H 0.68948 0.21786 0.73024 0.0
H498 H 0.82785 0.2627 0.7409 0.0
H499 H 0.84254 0.25718 0.70092 0.0
C500 C 0.77441 0.23818 0.80149 0.0
C501 C 0.73659 0.26319 0.80894 0.0
C502 C 0.78062 0.22968 0.77872 0.0
C503 C 0.74881 0.24551 0.76297 0.0
C504 C 0.70982 0.26862 0.77052 0.0
C505 C 0.7038 0.27743 0.79332 0.0
C506 C 0.73184 0.22207 0.70105 0.0
C507 C 0.77526 0.23201 0.69249 0.0
C508 C 0.72313 0.22602 0.724 0.0
C509 C 0.75771 0.2401 0.73871 0.0
C510 C 0.80092 0.25055 0.73004 0.0
C511 C 0.80945 0.247 0.70716 0.0
H512 H 0.11704 0.76579 0.51787 0.0
H513 H 0.22884 0.80875 0.5599 0.0
H514 H 0.15396 0.79924 0.48564 0.0
H515 H 0.26683 0.84133 0.52721 0.0
H516 H 0.26183 0.9622 0.47589 0.0
H517 H 0.24986 0.90894 0.50633 0.0
H518 H 0.21361 0.80417 0.45876 0.0
H519 H 0.22412 0.85826 0.42819 0.0
C520 C 0.15016 0.78136 0.52014 0.0
C521 C 0.16949 0.78547 0.54157 0.0
C522 C 0.17166 0.80023 0.50153 0.0
C523 C 0.21317 0.82361 0.50383 0.0
C524 C 0.23445 0.8243 0.52494 0.0
C525 C 0.21283 0.80536 0.54365 0.0
C526 C 0.25212 0.92758 0.47184 0.0
C527 C 0.24286 0.91479 0.44963 0.0
C528 C 0.24566 0.89679 0.48935 0.0
C529 C 0.23009 0.85235 0.48507 0.0
C530 C 0.22467 0.83843 0.46268 0.0
C531 C 0.23085 0.86939 0.44514 0.0
H532 H 0.80596 0.77033 0.4378 0.0
H533 H 0.7726 0.88766 0.47828 0.0
H534 H 0.83825 0.73282 0.47066 0.0
H535 H 0.80576 0.851 0.5107 0.0
H536 H 0.86274 0.7801 0.5686 0.0
H537 H 0.80798 0.79234 0.53848 0.0
H538 H 0.90817 0.74751 0.49029 0.0
H539 H 0.96209 0.73399 0.5203 0.0
C540 C 0.80466 0.78776 0.45376 0.0
C541 C 0.78752 0.83237 0.45532 0.0
C542 C 0.82339 0.76637 0.47256 0.0
C543 C 0.82525 0.78914 0.49326 0.0
C544 C 0.80468 0.8322 0.49513 0.0
C545 C 0.78599 0.85349 0.47641 0.0
C546 C 0.87267 0.77187 0.55162 0.0
C547 C 0.91707 0.75699 0.54679 0.0
C548 C 0.84134 0.77903 0.53435 0.0
C549 C 0.85388 0.77165 0.51191 0.0
C550 C 0.89711 0.75329 0.50734 0.0
C551 C 0.92829 0.74592 0.52459 0.0
H552 H 0.8265 0.11733 0.43442 0.0
H553 H 0.70732 0.05625 0.46422 0.0
H554 H 0.8336 0.16813 0.46603 0.0
H555 H 0.71245 0.10931 0.49552 0.0
H556 H 0.78727 0.15041 0.56106 0.0
H557 H 0.75683 0.11651 0.52714 0.0
H558 H 0.81268 0.22784 0.48834 0.0
H559 H 0.84605 0.25942 0.52228 0.0
C560 C 0.80089 0.11578 0.44745 0.0
C561 C 0.76681 0.08234 0.44702 0.0
C562 C 0.80468 0.14532 0.46563 0.0
C563 C 0.77386 0.14282 0.48368 0.0
C564 C 0.73757 0.11158 0.48231 0.0
C565 C 0.73437 0.08134 0.46429 0.0
C566 C 0.79188 0.16817 0.54532 0.0
C567 C 0.81945 0.20707 0.54416 0.0
C568 C 0.7743 0.14883 0.52577 0.0
C569 C 0.78316 0.16868 0.50471 0.0
C570 C 0.80655 0.21054 0.50405 0.0
C571 C 0.82522 0.22906 0.52352 0.0
H572 H 0.22066 0.11214 0.47782 0.0
H573 H 0.18107 0.22433 0.43518 0.0
H574 H 0.18592 0.14957 0.50959 0.0
H575 H 0.14709 0.2627 0.46739 0.0
H576 H 0.02496 0.26043 0.51812 0.0
H577 H 0.07838 0.24657 0.48792 0.0
H578 H 0.18211 0.21051 0.53609 0.0
H579 H 0.12796 0.22304 0.56642 0.0
C580 C 0.20547 0.14537 0.47531 0.0
C581 C 0.20284 0.16479 0.45385 0.0
C582 C 0.18587 0.16715 0.49366 0.0
C583 C 0.16323 0.20899 0.49104 0.0
C584 C 0.16363 0.23011 0.46989 0.0
C585 C 0.18331 0.20825 0.45146 0.0
C586 C 0.0594 0.25038 0.52234 0.0
C587 C 0.0719 0.24182 0.54466 0.0
C588 C 0.09026 0.24281 0.50497 0.0
C589 C 0.13442 0.22676 0.50954 0.0
C590 C 0.14805 0.22195 0.53199 0.0
C591 C 0.11706 0.22929 0.54938 0.0
H592 H 0.38368 0.27141 0.02008 0.0
H593 H 0.27007 0.31128 0.06167 0.0
H594 H 0.34737 0.30602 0.98792 0.0
H595 H 0.23284 0.3451 0.02909 0.0
H596 H 0.27563 0.36465 0.93042 0.0
H597 H 0.28758 0.31042 0.96081 0.0
H598 H 0.24989 0.41387 0.00879 0.0
H599 H 0.23667 0.46738 0.97852 0.0
C600 C 0.35033 0.28656 0.02226 0.0
C601 C 0.33023 0.28937 0.04357 0.0
C602 C 0.32922 0.30612 0.0037 0.0
C603 C 0.28738 0.32892 0.00593 0.0
C604 C 0.26547 0.3285 0.02689 0.0
C605 C 0.28667 0.30884 0.04553 0.0
C606 C 0.26895 0.37548 0.94743 0.0
C607 C 0.25606 0.42059 0.95208 0.0
C608 C 0.27595 0.34444 0.96486 0.0
C609 C 0.27039 0.35794 0.98729 0.0
C610 C 0.25419 0.40208 0.99176 0.0
C611 C 0.24699 0.43299 0.97435 0.0
H612 H 0.34996 0.70374 0.93479 0.0
H613 H 0.24217 0.64735 0.97519 0.0
H614 H 0.38497 0.7361 0.96798 0.0
H615 H 0.27465 0.68291 0.00837 0.0
H616 H 0.38453 0.67616 0.06264 0.0
H617 H 0.33393 0.6654 0.03123 0.0
H618 H 0.39329 0.78273 0.99837 0.0
H619 H 0.44642 0.79117 0.02948 0.0
C620 C 0.33279 0.69995 0.95073 0.0
C621 C 0.29384 0.67263 0.95257 0.0
C622 C 0.35272 0.7187 0.96987 0.0
C623 C 0.33338 0.71141 0.99117 0.0
C624 C 0.29164 0.68789 0.99248 0.0
C625 C 0.27259 0.66794 0.97345 0.0
C626 C 0.38625 0.70014 0.04888 0.0
C627 C 0.41983 0.73407 0.04835 0.0
C628 C 0.35682 0.69426 0.03079 0.0
C629 C 0.35947 0.72288 0.01189 0.0
C630 C 0.39091 0.75914 0.01224 0.0
C631 C 0.42117 0.7643 0.03015 0.0
H632 H 0.70513 0.65043 0.06238 0.0
H633 H 0.64392 0.7568 0.02272 0.0
H634 H 0.73489 0.61513 0.02868 0.0
H635 H 0.67666 0.72388 0.98895 0.0
H636 H 0.66473 0.61189 0.93585 0.0
H637 H 0.65674 0.66325 0.96718 0.0
H638 H 0.77868 0.60685 0.99707 0.0
H639 H 0.78463 0.55311 0.96608 0.0
C640 C 0.69978 0.66732 0.04647 0.0
C641 C 0.6718 0.7059 0.04505 0.0
C642 C 0.71698 0.64717 0.02703 0.0
C643 C 0.70737 0.66587 0.00581 0.0
C644 C 0.68339 0.70739 0.00481 0.0
C645 C 0.66508 0.7267 0.02418 0.0
C646 C 0.69028 0.61096 0.94892 0.0
C647 C 0.72489 0.57805 0.94868 0.0
C648 C 0.68598 0.64083 0.96694 0.0
C649 C 0.71682 0.63926 0.985 0.0
C650 C 0.75352 0.60842 0.98385 0.0
C651 C 0.7572 0.5778 0.96601 0.0
H652 H 0.65107 0.28961 0.93751 0.0
H653 H 0.75455 0.35767 0.97626 0.0
H654 H 0.61817 0.25872 0.97151 0.0
H655 H 0.72434 0.32374 0.01038 0.0
H656 H 0.61316 0.32984 0.06414 0.0
H657 H 0.66391 0.3398 0.03271 0.0
H658 H 0.61245 0.21538 0.00313 0.0
H659 H 0.55901 0.20763 0.03415 0.0
C660 C 0.66788 0.29634 0.95332 0.0
C661 C 0.70483 0.32647 0.95439 0.0
C662 C 0.64916 0.27844 0.97293 0.0
C663 C 0.6678 0.28943 0.994 0.0
C664 C 0.70785 0.31583 0.99465 0.0
C665 C 0.72562 0.33489 0.97509 0.0
C666 C 0.61326 0.30418 0.05111 0.0
C667 C 0.58168 0.26838 0.05139 0.0
C668 C 0.64279 0.30962 0.03303 0.0
C669 C 0.64226 0.27872 0.01498 0.0
C670 C 0.61307 0.2407 0.01628 0.0
C671 C 0.58265 0.23595 0.03415 0.0
loop_
_geom_bond_atom_site_label_1
_geom_bond_atom_site_label_2
_geom_bond_distance
_geom_bond_site_symmetry_2
_ccdc_geom_bond_type
Co0 O3 1.970 . S
Co0 N17 1.989 . S
Co0 O25 1.967 . S
Co0 O32 1.920 . S
Co1 O4 1.966 . S
Co1 N10 2.022 . S
Co1 N18 1.993 . S
Co1 O26 1.941 . S
C2 O3 1.258 . S
C2 O4 1.263 . S
O3 Co0 1.970 . S
O3 C2 1.258 . S
O4 Co1 1.966 . S
O4 C2 1.263 . S
C5 O6 1.235 . S
C5 O32 1.289 1_565 S
O6 C5 1.235 . S
C7 C9 1.400 . S
C7 N10 1.351 . S
C7 C12 1.501 . S
C8 C9 1.387 . S
C8 N11 1.341 . S
C9 C7 1.400 . S
C9 C8 1.387 . S
N10 Co1 2.022 . S
N10 C7 1.351 . S
N10 N11 1.365 . S
N11 C8 1.341 . S
N11 N10 1.365 . S
N11 H31 0.862 . S
C12 C7 1.501 . S
C12 H13 0.961 . S
C12 H14 0.961 . S
C12 H15 0.960 . S
H13 C12 0.961 . S
H14 C12 0.961 . S
H15 C12 0.960 . S
C16 N17 1.342 . S
C16 C20 1.401 . S
C16 C21 1.499 . S
N17 Co0 1.989 . S
N17 C16 1.342 . S
N17 N18 1.388 . S
N18 Co1 1.993 . S
N18 N17 1.388 . S
N18 C19 1.346 . S
C19 N18 1.346 . S
C19 C20 1.396 . S
C19 C29 1.510 . S
C20 C16 1.401 . S
C20 C19 1.396 . S
C21 C16 1.499 . S
C21 H22 0.959 . S
C21 H23 0.960 1_545 S
C21 H24 0.961 . S
H22 C21 0.959 . S
H23 C21 0.960 1_565 S
H24 C21 0.961 . S
O25 Co0 1.967 . S
O25 C33 1.258 . S
O26 Co1 1.941 . S
O26 C33 1.266 . S
H27 C29 0.959 . S
H28 C29 0.961 . S
C29 C19 1.510 . S
C29 H27 0.959 . S
C29 H28 0.961 . S
C29 H30 0.960 . S
H30 C29 0.960 . S
H31 N11 0.862 . S
O32 Co0 1.920 . S
O32 C5 1.289 1_545 S
C33 O25 1.258 . S
C33 O26 1.266 . S
Co34 O37 1.970 . S
Co34 N51 1.989 . S
Co34 O59 1.967 . S
Co34 O66 1.920 . S
Co35 O38 1.966 . S
Co35 N44 2.022 . S
Co35 N52 1.993 . S
Co35 O60 1.941 . S
C36 O37 1.258 . S
C36 O38 1.263 . S
O37 Co34 1.970 . S
O37 C36 1.258 . S
O38 Co35 1.966 . S
O38 C36 1.263 . S
C39 O40 1.235 . S
C39 O66 1.289 1_655 S
O40 C39 1.235 . S
C41 C43 1.400 . S
C41 N44 1.351 . S
C41 C46 1.501 . S
C42 C43 1.387 . S
C42 N45 1.341 . S
C43 C41 1.400 . S
C43 C42 1.387 . S
N44 Co35 2.022 . S
N44 C41 1.351 . S
N44 N45 1.365 . S
N45 C42 1.341 . S
N45 N44 1.365 . S
N45 H65 0.862 . S
C46 C41 1.501 . S
C46 H47 0.961 . S
C46 H48 0.961 . S
C46 H49 0.960 . S
H47 C46 0.961 . S
H48 C46 0.961 . S
H49 C46 0.960 . S
C50 N51 1.342 . S
C50 C54 1.401 . S
C50 C55 1.499 . S
N51 Co34 1.989 . S
N51 C50 1.342 . S
N51 N52 1.388 . S
N52 Co35 1.993 . S
N52 N51 1.388 . S
N52 C53 1.346 . S
C53 N52 1.346 . S
C53 C54 1.396 . S
C53 C63 1.510 . S
C54 C50 1.401 . S
C54 C53 1.396 . S
C55 C50 1.499 . S
C55 H56 0.959 . S
C55 H57 0.960 1_455 S
C55 H58 0.961 . S
H56 C55 0.959 . S
H57 C55 0.960 1_655 S
H58 C55 0.961 . S
O59 Co34 1.967 . S
O59 C67 1.258 . S
O60 Co35 1.941 . S
O60 C67 1.266 . S
H61 C63 0.959 . S
H62 C63 0.961 . S
C63 C53 1.510 . S
C63 H61 0.959 . S
C63 H62 0.961 . S
C63 H64 0.960 . S
H64 C63 0.960 . S
H65 N45 0.862 . S
O66 Co34 1.920 . S
O66 C39 1.289 1_455 S
C67 O59 1.258 . S
C67 O60 1.266 . S
Co68 O71 1.970 . S
Co68 N85 1.989 . S
Co68 O93 1.967 . S
Co68 O100 1.920 . S
Co69 O72 1.966 . S
Co69 N78 2.022 . S
Co69 N86 1.993 . S
Co69 O94 1.941 . S
C70 O71 1.258 . S
C70 O72 1.263 . S
O71 Co68 1.970 . S
O71 C70 1.258 . S
O72 Co69 1.966 . S
O72 C70 1.263 . S
C73 O74 1.235 . S
C73 O100 1.289 1_545 S
O74 C73 1.235 . S
C75 C77 1.400 . S
C75 N78 1.351 . S
C75 C80 1.501 . S
C76 C77 1.387 . S
C76 N79 1.341 . S
C77 C75 1.400 . S
C77 C76 1.387 . S
N78 Co69 2.022 . S
N78 C75 1.351 . S
N78 N79 1.365 . S
N79 C76 1.341 . S
N79 N78 1.365 . S
N79 H99 0.862 . S
C80 C75 1.501 . S
C80 H81 0.961 . S
C80 H82 0.961 . S
C80 H83 0.960 . S
H81 C80 0.961 . S
H82 C80 0.961 . S
H83 C80 0.960 . S
C84 N85 1.342 . S
C84 C88 1.401 . S
C84 C89 1.499 . S
N85 Co68 1.989 . S
N85 C84 1.342 . S
N85 N86 1.388 . S
N86 Co69 1.993 . S
N86 N85 1.388 . S
N86 C87 1.346 . S
C87 N86 1.346 . S
C87 C88 1.396 . S
C87 C97 1.510 . S
C88 C84 1.401 . S
C88 C87 1.396 . S
C89 C84 1.499 . S
C89 H90 0.959 . S
C89 H91 0.960 1_565 S
C89 H92 0.961 . S
H90 C89 0.959 . S
H91 C89 0.960 1_545 S
H92 C89 0.961 . S
O93 Co68 1.967 . S
O93 C101 1.258 . S
O94 Co69 1.941 . S
O94 C101 1.266 . S
H95 C97 0.959 . S
H96 C97 0.961 . S
C97 C87 1.510 . S
C97 H95 0.959 . S
C97 H96 0.961 . S
C97 H98 0.960 . S
H98 C97 0.960 . S
H99 N79 0.862 . S
O100 Co68 1.920 . S
O100 C73 1.289 1_565 S
C101 O93 1.258 . S
C101 O94 1.266 . S
Co102 O105 1.970 . S
Co102 N119 1.989 . S
Co102 O127 1.967 . S
Co102 O134 1.920 . S
Co103 O106 1.966 . S
Co103 N112 2.022 . S
Co103 N120 1.993 . S
Co103 O128 1.941 . S
C104 O105 1.258 . S
C104 O106 1.263 . S
O105 Co102 1.970 . S
O105 C104 1.258 . S
O106 Co103 1.966 . S
O106 C104 1.263 . S
C107 O108 1.235 . S
C107 O134 1.289 1_455 S
O108 C107 1.235 . S
C109 C111 1.400 . S
C109 N112 1.351 . S
C109 C114 1.501 . S
C110 C111 1.387 . S
C110 N113 1.341 . S
C111 C109 1.400 . S
C111 C110 1.387 . S
N112 Co103 2.022 . S
N112 C109 1.351 . S
N112 N113 1.365 . S
N113 C110 1.341 . S
N113 N112 1.365 . S
N113 H133 0.862 . S
C114 C109 1.501 . S
C114 H115 0.961 . S
C114 H116 0.961 . S
C114 H117 0.960 . S
H115 C114 0.961 . S
H116 C114 0.961 . S
H117 C114 0.960 . S
C118 N119 1.342 . S
C118 C122 1.401 . S
C118 C123 1.499 . S
N119 Co102 1.989 . S
N119 C118 1.342 . S
N119 N120 1.388 . S
N120 Co103 1.993 . S
N120 N119 1.388 . S
N120 C121 1.346 . S
C121 N120 1.346 . S
C121 C122 1.396 . S
C121 C131 1.510 . S
C122 C118 1.401 . S
C122 C121 1.396 . S
C123 C118 1.499 . S
C123 H124 0.959 . S
C123 H125 0.960 1_655 S
C123 H126 0.961 . S
H124 C123 0.959 . S
H125 C123 0.960 1_455 S
H126 C123 0.961 . S
O127 Co102 1.967 . S
O127 C135 1.258 . S
O128 Co103 1.941 . S
O128 C135 1.266 . S
H129 C131 0.959 . S
H130 C131 0.961 . S
C131 C121 1.510 . S
C131 H129 0.959 . S
C131 H130 0.961 . S
C131 H132 0.960 . S
H132 C131 0.960 . S
H133 N113 0.862 . S
O134 Co102 1.920 . S
O134 C107 1.289 1_655 S
C135 O127 1.258 . S
C135 O128 1.266 . S
Co136 O139 1.970 . S
Co136 N153 1.989 . S
Co136 O161 1.967 . S
Co136 O168 1.920 . S
Co137 O140 1.966 . S
Co137 N146 2.022 . S
Co137 N154 1.993 . S
Co137 O162 1.941 . S
C138 O139 1.258 . S
C138 O140 1.263 . S
O139 Co136 1.970 . S
O139 C138 1.258 . S
O140 Co137 1.966 . S
O140 C138 1.263 . S
C141 O142 1.235 . S
C141 O168 1.289 . S
O142 C141 1.235 . S
C143 C145 1.400 . S
C143 N146 1.351 . S
C143 C148 1.501 . S
C144 C145 1.387 . S
C144 N147 1.341 . S
C145 C143 1.400 . S
C145 C144 1.387 . S
N146 Co137 2.022 . S
N146 C143 1.351 . S
N146 N147 1.365 . S
N147 C144 1.341 . S
N147 N146 1.365 . S
N147 H167 0.862 . S
C148 C143 1.501 . S
C148 H149 0.961 . S
C148 H150 0.961 . S
C148 H151 0.960 . S
H149 C148 0.961 . S
H150 C148 0.961 . S
H151 C148 0.960 . S
C152 N153 1.342 . S
C152 C156 1.401 . S
C152 C157 1.499 . S
N153 Co136 1.989 . S
N153 C152 1.342 . S
N153 N154 1.388 . S
N154 Co137 1.993 . S
N154 N153 1.388 . S
N154 C155 1.346 . S
C155 N154 1.346 . S
C155 C156 1.396 . S
C155 C165 1.510 . S
C156 C152 1.401 . S
C156 C155 1.396 . S
C157 C152 1.499 . S
C157 H158 0.959 . S
C157 H159 0.960 . S
C157 H160 0.961 . S
H158 C157 0.959 . S
H159 C157 0.960 . S
H160 C157 0.961 . S
O161 Co136 1.967 . S
O161 C169 1.258 . S
O162 Co137 1.941 . S
O162 C169 1.266 . S
H163 C165 0.959 . S
H164 C165 0.961 . S
C165 C155 1.510 . S
C165 H163 0.959 . S
C165 H164 0.961 . S
C165 H166 0.960 . S
H166 C165 0.960 . S
H167 N147 0.862 . S
O168 Co136 1.920 . S
O168 C141 1.289 . S
C169 O161 1.258 . S
C169 O162 1.266 . S
Co170 O173 1.970 . S
Co170 N187 1.989 . S
Co170 O195 1.967 . S
Co170 O202 1.920 . S
Co171 O174 1.966 . S
Co171 N180 2.022 . S
Co171 N188 1.993 . S
Co171 O196 1.941 . S
C172 O173 1.258 . S
C172 O174 1.263 . S
O173 Co170 1.970 . S
O173 C172 1.258 . S
O174 Co171 1.966 . S
O174 C172 1.263 . S
C175 O176 1.235 . S
C175 O202 1.289 . S
O176 C175 1.235 . S
C177 C179 1.400 . S
C177 N180 1.351 . S
C177 C182 1.501 . S
C178 C179 1.387 . S
C178 N181 1.341 . S
C179 C177 1.400 . S
C179 C178 1.387 . S
N180 Co171 2.022 . S
N180 C177 1.351 . S
N180 N181 1.365 . S
N181 C178 1.341 . S
N181 N180 1.365 . S
N181 H201 0.862 . S
C182 C177 1.501 . S
C182 H183 0.961 . S
C182 H184 0.961 . S
C182 H185 0.960 . S
H183 C182 0.961 . S
H184 C182 0.961 . S
H185 C182 0.960 . S
C186 N187 1.342 . S
C186 C190 1.401 . S
C186 C191 1.499 . S
N187 Co170 1.989 . S
N187 C186 1.342 . S
N187 N188 1.388 . S
N188 Co171 1.993 . S
N188 N187 1.388 . S
N188 C189 1.346 . S
C189 N188 1.346 . S
C189 C190 1.396 . S
C189 C199 1.510 . S
C190 C186 1.401 . S
C190 C189 1.396 . S
C191 C186 1.499 . S
C191 H192 0.959 . S
C191 H193 0.960 . S
C191 H194 0.961 . S
H192 C191 0.959 . S
H193 C191 0.960 . S
H194 C191 0.961 . S
O195 Co170 1.967 . S
O195 C203 1.258 . S
O196 Co171 1.941 . S
O196 C203 1.266 . S
H197 C199 0.959 . S
H198 C199 0.961 . S
C199 C189 1.510 . S
C199 H197 0.959 . S
C199 H198 0.961 . S
C199 H200 0.960 . S
H200 C199 0.960 . S
H201 N181 0.862 . S
O202 Co170 1.920 . S
O202 C175 1.289 . S
C203 O195 1.258 . S
C203 O196 1.266 . S
Co204 O207 1.970 . S
Co204 N221 1.989 . S
Co204 O229 1.967 . S
Co204 O236 1.920 . S
Co205 O208 1.966 . S
Co205 N214 2.022 . S
Co205 N222 1.993 . S
Co205 O230 1.941 . S
C206 O207 1.258 . S
C206 O208 1.263 . S
O207 Co204 1.970 . S
O207 C206 1.258 . S
O208 Co205 1.966 . S
O208 C206 1.263 . S
C209 O210 1.235 . S
C209 O236 1.289 . S
O210 C209 1.235 . S
C211 C213 1.400 . S
C211 N214 1.351 . S
C211 C216 1.501 . S
C212 C213 1.387 . S
C212 N215 1.341 . S
C213 C211 1.400 . S
C213 C212 1.387 . S
N214 Co205 2.022 . S
N214 C211 1.351 . S
N214 N215 1.365 . S
N215 C212 1.341 . S
N215 N214 1.365 . S
N215 H235 0.862 . S
C216 C211 1.501 . S
C216 H217 0.961 . S
C216 H218 0.961 . S
C216 H219 0.960 . S
H217 C216 0.961 . S
H218 C216 0.961 . S
H219 C216 0.960 . S
C220 N221 1.342 . S
C220 C224 1.401 . S
C220 C225 1.499 . S
N221 Co204 1.989 . S
N221 C220 1.342 . S
N221 N222 1.388 . S
N222 Co205 1.993 . S
N222 N221 1.388 . S
N222 C223 1.346 . S
C223 N222 1.346 . S
C223 C224 1.396 . S
C223 C233 1.510 . S
C224 C220 1.401 . S
C224 C223 1.396 . S
C225 C220 1.499 . S
C225 H226 0.959 . S
C225 H227 0.960 . S
C225 H228 0.961 . S
H226 C225 0.959 . S
H227 C225 0.960 . S
H228 C225 0.961 . S
O229 Co204 1.967 . S
O229 C237 1.258 . S
O230 Co205 1.941 . S
O230 C237 1.266 . S
H231 C233 0.959 . S
H232 C233 0.961 . S
C233 C223 1.510 . S
C233 H231 0.959 . S
C233 H232 0.961 . S
C233 H234 0.960 . S
H234 C233 0.960 . S
H235 N215 0.862 . S
O236 Co204 1.920 . S
O236 C209 1.289 . S
C237 O229 1.258 . S
C237 O230 1.266 . S
Co238 O241 1.970 . S
Co238 N255 1.989 . S
Co238 O263 1.967 . S
Co238 O270 1.920 . S
Co239 O242 1.966 . S
Co239 N248 2.022 . S
Co239 N256 1.993 . S
Co239 O264 1.941 . S
C240 O241 1.258 . S
C240 O242 1.263 . S
O241 Co238 1.970 . S
O241 C240 1.258 . S
O242 Co239 1.966 . S
O242 C240 1.263 . S
C243 O244 1.235 . S
C243 O270 1.289 . S
O244 C243 1.235 . S
C245 C247 1.400 . S
C245 N248 1.351 . S
C245 C250 1.501 . S
C246 C247 1.387 . S
C246 N249 1.341 . S
C247 C245 1.400 . S
C247 C246 1.387 . S
N248 Co239 2.022 . S
N248 C245 1.351 . S
N248 N249 1.365 . S
N249 C246 1.341 . S
N249 N248 1.365 . S
N249 H269 0.862 . S
C250 C245 1.501 . S
C250 H251 0.961 . S
C250 H252 0.961 . S
C250 H253 0.960 . S
H251 C250 0.961 . S
H252 C250 0.961 . S
H253 C250 0.960 . S
C254 N255 1.342 . S
C254 C258 1.401 . S
C254 C259 1.499 . S
N255 Co238 1.989 . S
N255 C254 1.342 . S
N255 N256 1.388 . S
N256 Co239 1.993 . S
N256 N255 1.388 . S
N256 C257 1.346 . S
C257 N256 1.346 . S
C257 C258 1.396 . S
C257 C267 1.510 . S
C258 C254 1.401 . S
C258 C257 1.396 . S
C259 C254 1.499 . S
C259 H260 0.959 . S
C259 H261 0.960 . S
C259 H262 0.961 . S
H260 C259 0.959 . S
H261 C259 0.960 . S
H262 C259 0.961 . S
O263 Co238 1.967 . S
O263 C271 1.258 . S
O264 Co239 1.941 . S
O264 C271 1.266 . S
H265 C267 0.959 . S
H266 C267 0.961 . S
C267 C257 1.510 . S
C267 H265 0.959 . S
C267 H266 0.961 . S
C267 H268 0.960 . S
H268 C267 0.960 . S
H269 N249 0.862 . S
O270 Co238 1.920 . S
O270 C243 1.289 . S
C271 O263 1.258 . S
C271 O264 1.266 . S
H272 C280 0.957 . S
H273 C285 0.950 . S
H274 C282 0.950 . S
H275 C284 0.950 . S
H276 C286 0.957 . S
H277 C288 0.950 . S
H278 C290 0.950 . S
H279 C291 0.950 . S
C280 H272 0.957 . S
C280 C281 1.386 . S
C280 C282 1.391 1_565 S
C281 C280 1.386 . S
C281 C285 1.393 . S
C282 H274 0.950 . S
C282 C280 1.391 1_545 S
C282 C283 1.400 1_545 S
C283 C282 1.400 1_565 S
C283 C284 1.398 . S
C283 C289 1.491 1_565 S
C284 H275 0.950 . S
C284 C283 1.398 . S
C284 C285 1.391 . S
C285 H273 0.950 . S
C285 C281 1.393 . S
C285 C284 1.391 . S
C286 H276 0.957 . S
C286 C287 1.386 . S
C286 C288 1.391 1_545 S
C287 C286 1.386 . S
C287 C291 1.393 . S
C288 H277 0.950 . S
C288 C286 1.391 1_565 S
C288 C289 1.400 1_565 S
C289 C283 1.491 1_545 S
C289 C288 1.400 1_545 S
C289 C290 1.398 . S
C290 H278 0.950 . S
C290 C289 1.398 . S
C290 C291 1.391 . S
C291 H279 0.950 . S
C291 C287 1.393 . S
C291 C290 1.391 . S
H292 C300 0.950 . S
H293 C305 0.950 . S
H294 C302 0.950 . S
H295 C304 0.950 . S
H296 C306 0.950 . S
H297 C308 0.950 . S
H298 C310 0.950 . S
H299 C311 0.950 . S
C300 H292 0.950 . S
C300 C301 1.386 . S
C300 C302 1.391 . S
C301 C300 1.386 . S
C301 C305 1.393 . S
C302 H294 0.950 . S
C302 C300 1.391 . S
C302 C303 1.400 . S
C303 C302 1.400 . S
C303 C304 1.398 . S
C303 C309 1.491 1_655 S
C304 H295 0.950 . S
C304 C303 1.398 . S
C304 C305 1.391 . S
C305 H293 0.950 . S
C305 C301 1.393 . S
C305 C304 1.391 . S
C306 H296 0.950 . S
C306 C307 1.386 . S
C306 C308 1.391 . S
C307 C306 1.386 . S
C307 C311 1.393 . S
C308 H297 0.950 . S
C308 C306 1.391 . S
C308 C309 1.400 . S
C309 C303 1.491 1_455 S
C309 C308 1.400 . S
C309 C310 1.398 . S
C310 H298 0.950 . S
C310 C309 1.398 . S
C310 C311 1.391 . S
C311 H299 0.950 . S
C311 C307 1.393 . S
C311 C310 1.391 . S
H312 C320 0.950 . S
H313 C325 0.950 . S
H314 C322 0.950 . S
H315 C324 0.950 . S
H316 C326 0.950 . S
H317 C328 0.950 . S
H318 C330 0.950 . S
H319 C331 0.950 . S
C320 H312 0.950 . S
C320 C321 1.386 . S
C320 C322 1.391 . S
C321 C320 1.386 . S
C321 C325 1.393 . S
C322 H314 0.950 . S
C322 C320 1.391 . S
C322 C323 1.400 . S
C323 C322 1.400 . S
C323 C324 1.398 . S
C323 C329 1.491 1_655 S
C324 H315 0.950 . S
C324 C323 1.398 . S
C324 C325 1.391 . S
C325 H313 0.950 . S
C325 C321 1.393 . S
C325 C324 1.391 . S
C326 H316 0.950 . S
C326 C327 1.386 . S
C326 C328 1.391 . S
C327 C326 1.386 . S
C327 C331 1.393 . S
C328 H317 0.950 . S
C328 C326 1.391 . S
C328 C329 1.400 . S
C329 C323 1.491 1_455 S
C329 C328 1.400 . S
C329 C330 1.398 . S
C330 H318 0.950 . S
C330 C329 1.398 . S
C330 C331 1.391 . S
C331 H319 0.950 . S
C331 C327 1.393 . S
C331 C330 1.391 . S
H332 C340 0.950 . S
H333 C345 0.950 . S
H334 C342 0.957 . S
H335 C344 0.950 . S
H336 C346 0.950 . S
H337 C348 0.957 . S
H338 C350 0.950 . S
H339 C351 0.950 . S
C340 H332 0.950 . S
C340 C341 1.386 . S
C340 C342 1.391 . S
C341 C340 1.386 . S
C341 C345 1.393 . S
C342 H334 0.957 . S
C342 C340 1.391 . S
C342 C343 1.400 . S
C343 C342 1.400 . S
C343 C344 1.398 . S
C343 C349 1.491 1_545 S
C344 H335 0.950 . S
C344 C343 1.398 . S
C344 C345 1.391 . S
C345 H333 0.950 . S
C345 C341 1.393 . S
C345 C344 1.391 . S
C346 H336 0.950 . S
C346 C347 1.386 . S
C346 C348 1.391 . S
C347 C346 1.386 . S
C347 C351 1.393 . S
C348 H337 0.957 . S
C348 C346 1.391 . S
C348 C349 1.400 . S
C349 C343 1.491 1_565 S
C349 C348 1.400 . S
C349 C350 1.398 . S
C350 H338 0.950 . S
C350 C349 1.398 . S
C350 C351 1.391 . S
C351 H339 0.950 . S
C351 C347 1.393 . S
C351 C350 1.391 . S
H352 C360 0.950 . S
H353 C365 0.950 . S
H354 C362 0.950 . S
H355 C364 0.950 . S
H356 C366 0.950 . S
H357 C368 0.950 . S
H358 C370 0.950 . S
H359 C371 0.950 . S
C360 H352 0.950 . S
C360 C361 1.386 . S
C360 C362 1.391 . S
C361 C360 1.386 . S
C361 C365 1.393 . S
C362 H354 0.950 . S
C362 C360 1.391 . S
C362 C363 1.400 . S
C363 C362 1.400 . S
C363 C364 1.398 1_545 S
C363 C369 1.491 1_445 S
C364 H355 0.950 . S
C364 C363 1.398 1_565 S
C364 C365 1.391 1_565 S
C365 H353 0.950 . S
C365 C361 1.393 . S
C365 C364 1.391 1_545 S
C366 H356 0.950 . S
C366 C367 1.386 . S
C366 C368 1.391 . S
C367 C366 1.386 . S
C367 C371 1.393 . S
C368 H357 0.950 . S
C368 C366 1.391 . S
C368 C369 1.400 . S
C369 C363 1.491 1_665 S
C369 C368 1.400 . S
C369 C370 1.398 1_565 S
C370 H358 0.950 . S
C370 C369 1.398 1_545 S
C370 C371 1.391 1_545 S
C371 H359 0.950 . S
C371 C367 1.393 . S
C371 C370 1.391 1_565 S
H372 C380 0.950 . S
H373 C385 0.950 1_455 S
H374 C382 0.950 . S
H375 C384 0.950 . S
H376 C386 0.950 . S
H377 C388 0.950 . S
H378 C390 0.950 . S
H379 C391 0.950 1_655 S
C380 H372 0.950 . S
C380 C381 1.386 . S
C380 C382 1.391 . S
C381 C380 1.386 . S
C381 C385 1.393 . S
C382 H374 0.950 . S
C382 C380 1.391 . S
C382 C383 1.400 . S
C383 C382 1.400 . S
C383 C384 1.398 1_655 S
C383 C389 1.491 1_645 S
C384 H375 0.950 . S
C384 C383 1.398 1_455 S
C384 C385 1.391 1_455 S
C385 H373 0.950 1_655 S
C385 C381 1.393 . S
C385 C384 1.391 1_655 S
C386 H376 0.950 . S
C386 C387 1.386 . S
C386 C388 1.391 . S
C387 C386 1.386 . S
C387 C391 1.393 . S
C388 H377 0.950 . S
C388 C386 1.391 . S
C388 C389 1.400 . S
C389 C383 1.491 1_465 S
C389 C388 1.400 . S
C389 C390 1.398 1_455 S
C390 H378 0.950 . S
C390 C389 1.398 1_655 S
C390 C391 1.391 1_655 S
C391 H379 0.950 1_455 S
C391 C387 1.393 . S
C391 C390 1.391 1_455 S
H392 C400 0.950 . S
H393 C405 0.950 . S
H394 C402 0.950 . S
H395 C404 0.950 . S
H396 C406 0.950 . S
H397 C408 0.950 . S
H398 C410 0.950 . S
H399 C411 0.950 . S
C400 H392 0.950 . S
C400 C401 1.386 . S
C400 C402 1.391 . S
C401 C400 1.386 . S
C401 C405 1.393 . S
C402 H394 0.950 . S
C402 C400 1.391 . S
C402 C403 1.400 . S
C403 C402 1.400 . S
C403 C404 1.398 . S
C403 C409 1.491 . S
C404 H395 0.950 . S
C404 C403 1.398 . S
C404 C405 1.391 . S
C405 H393 0.950 . S
C405 C401 1.393 . S
C405 C404 1.391 . S
C406 H396 0.950 . S
C406 C407 1.386 . S
C406 C408 1.391 . S
C407 C406 1.386 . S
C407 C411 1.393 . S
C408 H397 0.950 . S
C408 C406 1.391 . S
C408 C409 1.400 . S
C409 C403 1.491 . S
C409 C408 1.400 . S
C409 C410 1.398 . S
C410 H398 0.950 . S
C410 C409 1.398 . S
C410 C411 1.391 . S
C411 H399 0.950 . S
C411 C407 1.393 . S
C411 C410 1.391 . S
H412 C420 0.950 . S
H413 C425 0.950 . S
H414 C422 0.950 . S
H415 C424 0.950 . S
H416 C426 0.950 . S
H417 C428 0.950 . S
H418 C430 0.950 . S
H419 C431 0.950 . S
C420 H412 0.950 . S
C420 C421 1.386 . S
C420 C422 1.391 . S
C421 C420 1.386 . S
C421 C425 1.393 . S
C422 H414 0.950 . S
C422 C420 1.391 . S
C422 C423 1.400 . S
C423 C422 1.400 . S
C423 C424 1.398 . S
C423 C429 1.491 . S
C424 H415 0.950 . S
C424 C423 1.398 . S
C424 C425 1.391 . S
C425 H413 0.950 . S
C425 C421 1.393 . S
C425 C424 1.391 . S
C426 H416 0.950 . S
C426 C427 1.386 . S
C426 C428 1.391 . S
C427 C426 1.386 . S
C427 C431 1.393 . S
C428 H417 0.950 . S
C428 C426 1.391 . S
C428 C429 1.400 . S
C429 C423 1.491 . S
C429 C428 1.400 . S
C429 C430 1.398 . S
C430 H418 0.950 . S
C430 C429 1.398 . S
C430 C431 1.391 . S
C431 H419 0.950 . S
C431 C427 1.393 . S
C431 C430 1.391 . S
H432 C440 0.950 . S
H433 C445 0.950 . S
H434 C442 0.950 . S
H435 C444 0.950 . S
H436 C446 0.950 . S
H437 C448 0.950 . S
H438 C450 0.950 . S
H439 C451 0.950 . S
C440 H432 0.950 . S
C440 C441 1.386 . S
C440 C442 1.391 . S
C441 C440 1.386 . S
C441 C445 1.393 . S
C442 H434 0.950 . S
C442 C440 1.391 . S
C442 C443 1.400 . S
C443 C442 1.400 . S
C443 C444 1.398 . S
C443 C449 1.491 . S
C444 H435 0.950 . S
C444 C443 1.398 . S
C444 C445 1.391 . S
C445 H433 0.950 . S
C445 C441 1.393 . S
C445 C444 1.391 . S
C446 H436 0.950 . S
C446 C447 1.386 . S
C446 C448 1.391 . S
C447 C446 1.386 . S
C447 C451 1.393 . S
C448 H437 0.950 . S
C448 C446 1.391 . S
C448 C449 1.400 . S
C449 C443 1.491 . S
C449 C448 1.400 . S
C449 C450 1.398 . S
C450 H438 0.950 . S
C450 C449 1.398 . S
C450 C451 1.391 . S
C451 H439 0.950 . S
C451 C447 1.393 . S
C451 C450 1.391 . S
H452 C460 0.950 . S
H453 C465 0.950 . S
H454 C462 0.950 . S
H455 C464 0.950 . S
H456 C466 0.950 . S
H457 C468 0.950 . S
H458 C470 0.950 . S
H459 C471 0.950 . S
C460 H452 0.950 . S
C460 C461 1.386 . S
C460 C462 1.391 . S
C461 C460 1.386 . S
C461 C465 1.393 . S
C462 H454 0.950 . S
C462 C460 1.391 . S
C462 C463 1.400 . S
C463 C462 1.400 . S
C463 C464 1.398 . S
C463 C469 1.491 . S
C464 H455 0.950 . S
C464 C463 1.398 . S
C464 C465 1.391 . S
C465 H453 0.950 . S
C465 C461 1.393 . S
C465 C464 1.391 . S
C466 H456 0.950 . S
C466 C467 1.386 . S
C466 C468 1.391 . S
C467 C466 1.386 . S
C467 C471 1.393 . S
C468 H457 0.950 . S
C468 C466 1.391 . S
C468 C469 1.400 . S
C469 C463 1.491 . S
C469 C468 1.400 . S
C469 C470 1.398 . S
C470 H458 0.950 . S
C470 C469 1.398 . S
C470 C471 1.391 . S
C471 H459 0.950 . S
C471 C467 1.393 . S
C471 C470 1.391 . S
H472 C480 0.950 . S
H473 C485 0.950 . S
H474 C482 0.950 . S
H475 C484 0.950 . S
H476 C486 0.950 . S
H477 C488 0.950 . S
H478 C490 0.950 . S
H479 C491 0.950 . S
C480 H472 0.950 . S
C480 C481 1.386 . S
C480 C482 1.391 . S
C481 C480 1.386 . S
C481 C485 1.393 . S
C482 H474 0.950 . S
C482 C480 1.391 . S
C482 C483 1.400 . S
C483 C482 1.400 . S
C483 C484 1.398 . S
C483 C489 1.491 . S
C484 H475 0.950 . S
C484 C483 1.398 . S
C484 C485 1.391 . S
C485 H473 0.950 . S
C485 C481 1.393 . S
C485 C484 1.391 . S
C486 H476 0.950 . S
C486 C487 1.386 . S
C486 C488 1.391 . S
C487 C486 1.386 . S
C487 C491 1.393 . S
C488 H477 0.950 . S
C488 C486 1.391 . S
C488 C489 1.400 . S
C489 C483 1.491 . S
C489 C488 1.400 . S
C489 C490 1.398 . S
C490 H478 0.950 . S
C490 C489 1.398 . S
C490 C491 1.391 . S
C491 H479 0.950 . S
C491 C487 1.393 . S
C491 C490 1.391 . S
H492 C500 0.950 . S
H493 C505 0.950 . S
H494 C502 0.950 . S
H495 C504 0.950 . S
H496 C506 0.950 . S
H497 C508 0.950 . S
H498 C510 0.950 . S
H499 C511 0.950 . S
C500 H492 0.950 . S
C500 C501 1.386 . S
C500 C502 1.391 . S
C501 C500 1.386 . S
C501 C505 1.393 . S
C502 H494 0.950 . S
C502 C500 1.391 . S
C502 C503 1.400 . S
C503 C502 1.400 . S
C503 C504 1.398 . S
C503 C509 1.491 . S
C504 H495 0.950 . S
C504 C503 1.398 . S
C504 C505 1.391 . S
C505 H493 0.950 . S
C505 C501 1.393 . S
C505 C504 1.391 . S
C506 H496 0.950 . S
C506 C507 1.386 . S
C506 C508 1.391 . S
C507 C506 1.386 . S
C507 C511 1.393 . S
C508 H497 0.950 . S
C508 C506 1.391 . S
C508 C509 1.400 . S
C509 C503 1.491 . S
C509 C508 1.400 . S
C509 C510 1.398 . S
C510 H498 0.950 . S
C510 C509 1.398 . S
C510 C511 1.391 . S
C511 H499 0.950 . S
C511 C507 1.393 . S
C511 C510 1.391 . S
H512 C520 0.950 . S
H513 C525 0.950 . S
H514 C522 0.950 . S
H515 C524 0.950 . S
H516 C526 0.950 1_545 S
H517 C528 0.950 . S
H518 C530 0.950 . S
H519 C531 0.950 . S
C520 H512 0.950 . S
C520 C521 1.386 . S
C520 C522 1.391 . S
C521 C520 1.386 . S
C521 C525 1.393 . S
C522 H514 0.950 . S
C522 C520 1.391 . S
C522 C523 1.400 . S
C523 C522 1.400 . S
C523 C524 1.398 . S
C523 C529 1.491 . S
C524 H515 0.950 . S
C524 C523 1.398 . S
C524 C525 1.391 . S
C525 H513 0.950 . S
C525 C521 1.393 . S
C525 C524 1.391 . S
C526 H516 0.950 1_565 S
C526 C527 1.386 . S
C526 C528 1.391 . S
C527 C526 1.386 . S
C527 C531 1.393 . S
C528 H517 0.950 . S
C528 C526 1.391 . S
C528 C529 1.400 . S
C529 C523 1.491 . S
C529 C528 1.400 . S
C529 C530 1.398 . S
C530 H518 0.950 . S
C530 C529 1.398 . S
C530 C531 1.391 . S
C531 H519 0.950 . S
C531 C527 1.393 . S
C531 C530 1.391 . S
H532 C540 0.950 . S
H533 C545 0.950 . S
H534 C542 0.950 . S
H535 C544 0.950 . S
H536 C546 0.950 . S
H537 C548 0.950 . S
H538 C550 0.950 . S
H539 C551 0.950 1_455 S
C540 H532 0.950 . S
C540 C541 1.386 . S
C540 C542 1.391 . S
C541 C540 1.386 . S
C541 C545 1.393 . S
C542 H534 0.950 . S
C542 C540 1.391 . S
C542 C543 1.400 . S
C543 C542 1.400 . S
C543 C544 1.398 . S
C543 C549 1.491 . S
C544 H535 0.950 . S
C544 C543 1.398 . S
C544 C545 1.391 . S
C545 H533 0.950 . S
C545 C541 1.393 . S
C545 C544 1.391 . S
C546 H536 0.950 . S
C546 C547 1.386 . S
C546 C548 1.391 . S
C547 C546 1.386 . S
C547 C551 1.393 . S
C548 H537 0.950 . S
C548 C546 1.391 . S
C548 C549 1.400 . S
C549 C543 1.491 . S
C549 C548 1.400 . S
C549 C550 1.398 . S
C550 H538 0.950 . S
C550 C549 1.398 . S
C550 C551 1.391 . S
C551 H539 0.950 1_655 S
C551 C547 1.393 . S
C551 C550 1.391 . S
H552 C560 0.950 . S
H553 C565 0.950 1_565 S
H554 C562 0.950 . S
H555 C564 0.950 . S
H556 C566 0.950 . S
H557 C568 0.950 . S
H558 C570 0.950 . S
H559 C571 0.950 . S
C560 H552 0.950 . S
C560 C561 1.386 . S
C560 C562 1.391 . S
C561 C560 1.386 . S
C561 C565 1.393 . S
C562 H554 0.950 . S
C562 C560 1.391 . S
C562 C563 1.400 . S
C563 C562 1.400 . S
C563 C564 1.398 . S
C563 C569 1.491 . S
C564 H555 0.950 . S
C564 C563 1.398 . S
C564 C565 1.391 . S
C565 H553 0.950 1_545 S
C565 C561 1.393 . S
C565 C564 1.391 . S
C566 H556 0.950 . S
C566 C567 1.386 . S
C566 C568 1.391 . S
C567 C566 1.386 . S
C567 C571 1.393 . S
C568 H557 0.950 . S
C568 C566 1.391 . S
C568 C569 1.400 . S
C569 C563 1.491 . S
C569 C568 1.400 . S
C569 C570 1.398 . S
C570 H558 0.950 . S
C570 C569 1.398 . S
C570 C571 1.391 . S
C571 H559 0.950 . S
C571 C567 1.393 . S
C571 C570 1.391 . S
H572 C580 0.950 . S
H573 C585 0.950 . S
H574 C582 0.950 . S
H575 C584 0.950 . S
H576 C586 0.950 1_655 S
H577 C588 0.950 . S
H578 C590 0.950 . S
H579 C591 0.950 . S
C580 H572 0.950 . S
C580 C581 1.386 . S
C580 C582 1.391 . S
C581 C580 1.386 . S
C581 C585 1.393 . S
C582 H574 0.950 . S
C582 C580 1.391 . S
C582 C583 1.400 . S
C583 C582 1.400 . S
C583 C584 1.398 . S
C583 C589 1.491 . S
C584 H575 0.950 . S
C584 C583 1.398 . S
C584 C585 1.391 . S
C585 H573 0.950 . S
C585 C581 1.393 . S
C585 C584 1.391 . S
C586 H576 0.950 1_455 S
C586 C587 1.386 . S
C586 C588 1.391 . S
C587 C586 1.386 . S
C587 C591 1.393 . S
C588 H577 0.950 . S
C588 C586 1.391 . S
C588 C589 1.400 . S
C589 C583 1.491 . S
C589 C588 1.400 . S
C589 C590 1.398 . S
C590 H578 0.950 . S
C590 C589 1.398 . S
C590 C591 1.391 . S
C591 H579 0.950 . S
C591 C587 1.393 . S
C591 C590 1.391 . S
H592 C600 0.950 . S
H593 C605 0.950 . S
H594 C602 0.950 . S
H595 C604 0.950 . S
H596 C606 0.950 . S
H597 C608 0.950 1_554 S
H598 C610 0.950 1_554 S
H599 C611 0.950 . S
C600 H592 0.950 . S
C600 C601 1.386 . S
C600 C602 1.391 . S
C601 C600 1.386 . S
C601 C605 1.393 . S
C602 H594 0.950 . S
C602 C600 1.391 . S
C602 C603 1.400 . S
C603 C602 1.400 . S
C603 C604 1.398 . S
C603 C609 1.491 . S
C604 H595 0.950 . S
C604 C603 1.398 . S
C604 C605 1.391 . S
C605 H593 0.950 . S
C605 C601 1.393 . S
C605 C604 1.391 . S
C606 H596 0.950 . S
C606 C607 1.386 . S
C606 C608 1.391 . S
C607 C606 1.386 . S
C607 C611 1.393 . S
C608 H597 0.950 1_556 S
C608 C606 1.391 . S
C608 C609 1.400 1_556 S
C609 C603 1.491 . S
C609 C608 1.400 1_554 S
C609 C610 1.398 1_554 S
C610 H598 0.950 1_556 S
C610 C609 1.398 1_556 S
C610 C611 1.391 . S
C611 H599 0.950 . S
C611 C607 1.393 . S
C611 C610 1.391 . S
H612 C620 0.950 . S
H613 C625 0.950 . S
H614 C622 0.950 . S
H615 C624 0.950 . S
H616 C626 0.950 . S
H617 C628 0.950 . S
H618 C630 0.950 . S
H619 C631 0.950 . S
C620 H612 0.950 . S
C620 C621 1.386 . S
C620 C622 1.391 . S
C621 C620 1.386 . S
C621 C625 1.393 . S
C622 H614 0.950 . S
C622 C620 1.391 . S
C622 C623 1.400 . S
C623 C622 1.400 . S
C623 C624 1.398 . S
C623 C629 1.491 . S
C624 H615 0.950 . S
C624 C623 1.398 . S
C624 C625 1.391 . S
C625 H613 0.950 . S
C625 C621 1.393 . S
C625 C624 1.391 . S
C626 H616 0.950 . S
C626 C627 1.386 . S
C626 C628 1.391 . S
C627 C626 1.386 . S
C627 C631 1.393 . S
C628 H617 0.950 . S
C628 C626 1.391 . S
C628 C629 1.400 1_554 S
C629 C623 1.491 . S
C629 C628 1.400 1_556 S
C629 C630 1.398 . S
C630 H618 0.950 . S
C630 C629 1.398 . S
C630 C631 1.391 1_556 S
C631 H619 0.950 . S
C631 C627 1.393 . S
C631 C630 1.391 1_554 S
H632 C640 0.950 . S
H633 C645 0.950 . S
H634 C642 0.950 . S
H635 C644 0.950 . S
H636 C646 0.950 . S
H637 C648 0.950 . S
H638 C650 0.950 . S
H639 C651 0.956 . S
C640 H632 0.950 . S
C640 C641 1.386 . S
C640 C642 1.391 . S
C641 C640 1.386 . S
C641 C645 1.393 . S
C642 H634 0.950 . S
C642 C640 1.391 . S
C642 C643 1.400 . S
C643 C642 1.400 . S
C643 C644 1.398 . S
C643 C649 1.491 . S
C644 H635 0.950 . S
C644 C643 1.398 . S
C644 C645 1.391 . S
C645 H633 0.950 . S
C645 C641 1.393 . S
C645 C644 1.391 . S
C646 H636 0.950 . S
C646 C647 1.386 . S
C646 C648 1.391 . S
C647 C646 1.386 . S
C647 C651 1.393 . S
C648 H637 0.950 . S
C648 C646 1.391 . S
C648 C649 1.400 1_556 S
C649 C643 1.491 . S
C649 C648 1.400 1_554 S
C649 C650 1.398 . S
C650 H638 0.950 . S
C650 C649 1.398 . S
C650 C651 1.391 1_554 S
C651 H639 0.956 . S
C651 C647 1.393 . S
C651 C650 1.391 1_556 S
H652 C660 0.950 . S
H653 C665 0.950 . S
H654 C662 0.950 . S
H655 C664 0.950 . S
H656 C666 0.950 . S
H657 C668 0.950 . S
H658 C670 0.950 . S
H659 C671 0.952 . S
C660 H652 0.950 . S
C660 C661 1.386 . S
C660 C662 1.391 . S
C661 C660 1.386 . S
C661 C665 1.393 . S
C662 H654 0.950 . S
C662 C660 1.391 . S
C662 C663 1.400 . S
C663 C662 1.400 . S
C663 C664 1.398 . S
C663 C669 1.491 . S
C664 H655 0.950 . S
C664 C663 1.398 . S
C664 C665 1.391 . S
C665 H653 0.950 . S
C665 C661 1.393 . S
C665 C664 1.391 . S
C666 H656 0.950 . S
C666 C667 1.386 . S
C666 C668 1.391 . S
C667 C666 1.386 . S
C667 C671 1.393 . S
C668 H657 0.950 . S
C668 C666 1.391 . S
C668 C669 1.400 1_554 S
C669 C663 1.491 . S
C669 C668 1.400 1_556 S
C669 C670 1.398 . S
C670 H658 0.950 . S
C670 C669 1.398 . S
C670 C671 1.391 1_556 S
C671 H659 0.952 . S
C671 C667 1.393 . S
C671 C670 1.391 1_554 S
C281 C88 1.166 . S
C287 C20 1.166 . S
C301 C122 1.182 . S
C307 C54 1.182 . S
C321 C224 1.181 . S
C327 C156 1.181 . S
C341 C258 1.166 . S
C347 C190 1.166 . S
C361 C2 1.339 . S
C367 C70 1.329 . S
C381 C104 1.329 . S
C387 C36 1.346 . S
C401 C206 1.337 . S
C407 C138 1.339 . S
C421 C240 1.340 . S
C427 C172 1.328 . S
C441 C247 1.444 . S
C447 C9 1.443 . S
C461 C145 1.444 . S
C467 C43 1.446 . S
C481 C77 1.457 . S
C487 C179 1.455 . S
C501 C213 1.443 . S
C507 C111 1.445 . S
C521 C67 0.580 . S
C527 C5 0.576 . S
C541 C101 0.595 . S
C547 C39 0.592 . S
C561 C73 0.574 . S
C567 C135 0.580 . S
C581 C33 0.622 . S
C587 C107 0.558 . S
C601 C271 0.631 . S
C607 C141 0.599 . S
C621 C169 0.650 . S
C627 C175 0.593 . S
C641 C203 0.581 . S
C647 C209 0.579 . S
C661 C237 0.655 . S
C667 C243 0.580 . S
