# Generated by pormake.
# Topology lon, (4)-cn, num edge types: 1
# Building blocks:
#     Node 0, Type 0, BuildingBlock: KUFVIS_clean_sbu_0, # of connection points: 4
#     Node 1, Type 0, BuildingBlock: KUFVIS_clean_sbu_0, # of connection points: 4
#     Node 2, Type 0, BuildingBlock: KUFVIS_clean_sbu_0, # of connection points: 4
#     Node 3, Type 0, BuildingBlock: KUFVIS_clean_sbu_0, # of connection points: 4
#     Edge 4, Type (0, 0), BuildingBlock: FUNLAD_clean_linker_0, # of connection points: 2
#     Edge 5, Type (0, 0), BuildingBlock: FUNLAD_clean_linker_0, # of connection points: 2
#     Edge 6, Type (0, 0), BuildingBlock: FUNLAD_clean_linker_0, # of connection points: 2
#     Edge 7, Type (0, 0), BuildingBlock: FUNLAD_clean_linker_0, # of connection points: 2
#     Edge 8, Type (0, 0), BuildingBlock: FUNLAD_clean_linker_0, # of connection points: 2
#     Edge 9, Type (0, 0), BuildingBlock: FUNLAD_clean_linker_0, # of connection points: 2
#     Edge 10, Type (0, 0), BuildingBlock: FUNLAD_clean_linker_0, # of connection points: 2
#     Edge 11, Type (0, 0), BuildingBlock: FUNLAD_clean_linker_0, # of connection points: 2
# Relax obj value: 0.048
# Max RMSD: 0.108
# Mean RMSD: 0.090
data_MOF--net-lon--node1-KUFVIS_clean_sbu_0--edge1-FUNLAD_clean_linker_0
_symmetry_space_group_name_H-M    P1
_symmetry_Int_Tables_number       1
_symmetry_cell_setting            triclinic
loop_
_symmetry_equiv_pos_as_xyz
'x, y, z'
_cell_length_a     28.628272
_cell_length_b     27.718027
_cell_length_c     46.80365
_cell_angle_alpha  99.551872
_cell_angle_beta   90.297119
_cell_angle_gamma 120.97556
loop_
_atom_site_label
_atom_site_type_symbol
_atom_site_fract_x
_atom_site_fract_y
_atom_site_fract_z
_atom_type_partial_charge
Mn0 Mn 0.3208 0.69247 0.0835 0.0
Mn1 Mn 0.27207 0.6366 1.01239 0.0
C2 C 0.23143 0.66184 0.06751 0.0
C3 C 0.33644 0.68192 0.13049 0.0
C4 C 0.34976 0.76372 0.03554 0.0
O5 O 0.37471 0.66998 0.06784 0.0
O6 O 0.33638 0.63092 0.02121 0.0
C7 C 0.23384 0.51525 0.01325 0.0
N8 N 0.22318 0.55551 1.00762 0.0
C9 C 0.12948 0.48331 0.98989 0.0
C10 C 0.13951 0.44104 0.99537 0.0
C11 C 0.19186 0.45713 1.00722 0.0
C12 C 0.1728 0.54058 0.99656 0.0
H13 H 0.27406 0.5274 0.02227 0.0
C14 C 0.37264 0.6444 0.04206 0.0
O15 O 0.36544 0.7306 0.12218 0.0
O16 O 0.29925 0.63911 0.11132 0.0
N17 N 0.20887 0.63863 1.00105 0.0
C18 C 0.20546 0.68481 0.99803 0.0
C19 C 0.15556 0.67615 0.98677 0.0
C20 C 0.10997 0.62015 0.97839 0.0
C21 C 0.11463 0.57328 0.98143 0.0
C22 C 0.16536 0.58455 0.99282 0.0
H23 H 0.24054 0.7279 1.00413 0.0
O24 O 0.25527 0.69937 0.09155 0.0
O25 O 0.26088 0.64482 0.0536 0.0
O26 O 0.35315 0.76026 0.06225 0.0
O27 O 0.32094 0.72009 0.01522 0.0
C28 C 0.07085 0.51584 0.9738 0.0
C29 C 0.07812 0.47093 0.97827 0.0
H30 H 0.10727 0.39615 0.99069 0.0
H31 H 0.19987 0.42477 1.01161 0.0
H32 H 0.15231 0.71255 0.98445 0.0
H33 H 0.07153 0.61366 0.96977 0.0
H34 H 0.03123 0.50574 0.96476 0.0
H35 H 0.0439 0.42702 0.97277 0.0
Mn36 Mn 0.72586 0.35515 0.5721 0.0
Mn37 Mn 0.58928 0.27878 0.57614 0.0
C38 C 0.67824 0.25563 0.56282 0.0
C39 C 0.80426 0.40135 0.54818 0.0
C40 C 0.67212 0.33641 0.62931 0.0
O41 O 0.70366 0.41383 0.56879 0.0
O42 O 0.61364 0.35874 0.57356 0.0
C43 C 0.55277 0.27989 0.51703 0.0
N44 N 0.55167 0.2502 0.53774 0.0
C45 C 0.48181 0.16085 0.5082 0.0
C46 C 0.48202 0.19041 0.48658 0.0
C47 C 0.51798 0.25016 0.49093 0.0
C48 C 0.51813 0.19263 0.53351 0.0
H49 H 0.57974 0.3259 0.52047 0.0
C50 C 0.65574 0.40606 0.5704 0.0
O51 O 0.80514 0.41474 0.57613 0.0
O52 O 0.75712 0.36271 0.53371 0.0
N53 N 0.55902 0.20017 0.57845 0.0
C54 C 0.56584 0.17791 0.60086 0.0
C55 C 0.53392 0.11849 0.59963 0.0
C56 C 0.49445 0.08289 0.57575 0.0
C57 C 0.48797 0.10688 0.55303 0.0
C58 C 0.52167 0.16619 0.5552 0.0
H59 H 0.59524 0.20533 0.61958 0.0
O60 O 0.73037 0.28533 0.5714 0.0
O61 O 0.65519 0.28487 0.56016 0.0
O62 O 0.71405 0.35928 0.61547 0.0
O63 O 0.62334 0.30502 0.61675 0.0
C64 C 0.44902 0.07451 0.52847 0.0
C65 C 0.44658 0.10122 0.50583 0.0
H66 H 0.45477 0.1677 0.46656 0.0
H67 H 0.51843 0.2733 0.47434 0.0
H68 H 0.53911 0.10027 0.61724 0.0
H69 H 0.46936 0.03729 0.5752 0.0
H70 H 0.42048 0.02909 0.52683 0.0
H71 H 0.41714 0.07558 0.48681 0.0
Mn72 Mn 0.3706 0.64281 0.44656 0.0
Mn73 Mn 0.32551 0.73432 0.44843 0.0
C74 C 0.43172 0.7414 0.45768 0.0
C75 C 0.39759 0.58994 0.46865 0.0
C76 C 0.33475 0.66931 0.39224 0.0
O77 O 0.28817 0.5912 0.45048 0.0
O78 O 0.26484 0.65805 0.45294 0.0
C79 C 0.30161 0.74122 0.50991 0.0
N80 N 0.32859 0.76764 0.48804 0.0
C81 C 0.37373 0.86015 0.52001 0.0
C82 C 0.34624 0.83404 0.54285 0.0
C83 C 0.31004 0.77429 0.53778 0.0
C84 C 0.36348 0.82507 0.49268 0.0
H85 H 0.27404 0.69526 0.50614 0.0
C86 C 0.25299 0.60681 0.45311 0.0
O87 O 0.38303 0.5775 0.44084 0.0
O88 O 0.39218 0.63003 0.48392 0.0
N89 N 0.38075 0.81005 0.4445 0.0
C90 C 0.40558 0.8283 0.42043 0.0
C91 C 0.44318 0.88703 0.42188 0.0
C92 C 0.45474 0.92629 0.448 0.0
C93 C 0.42842 0.90644 0.4724 0.0
C94 C 0.39067 0.8476 0.46954 0.0
H95 H 0.39686 0.7983 0.4003 0.0
O96 O 0.44853 0.70727 0.4473 0.0
O97 O 0.37983 0.71694 0.4606 0.0
O98 O 0.3539 0.64384 0.404 0.0
O99 O 0.32194 0.70321 0.40683 0.0
C100 C 0.43912 0.94255 0.49964 0.0
C101 C 0.4119 0.91941 0.52345 0.0
H102 H 0.35296 0.85938 0.56443 0.0
H103 H 0.28886 0.75377 0.55533 0.0
H104 H 0.46338 0.90196 0.40295 0.0
H105 H 0.4842 0.97149 0.44914 0.0
H106 H 0.46917 0.98796 0.50261 0.0
H107 H 0.42106 0.94732 0.54442 0.0
Mn108 Mn 0.64187 0.33594 0.94178 0.0
Mn109 Mn 0.64965 0.38869 0.01331 0.0
C110 C 0.58328 0.3659 0.95862 0.0
C111 C 0.66611 0.34913 0.89484 0.0
C112 C 0.59946 0.26199 0.98862 0.0
O113 O 0.71857 0.35798 0.95706 0.0
O114 O 0.7192 0.39397 1.00417 0.0
C115 C 0.73341 0.51033 0.01378 0.0
N116 N 0.68243 0.47003 0.01903 0.0
C117 C 0.66147 0.54241 0.03728 0.0
C118 C 0.71384 0.58471 0.0322 0.0
C119 C 0.74988 0.56856 0.02029 0.0
C120 C 0.64723 0.48505 0.03019 0.0
H121 H 0.7613 0.49815 1.00467 0.0
C122 C 0.74203 0.38187 0.98305 0.0
O123 O 0.64747 0.2998 0.90232 0.0
O124 O 0.67269 0.39109 0.91491 0.0
N125 N 0.58487 0.38696 0.02492 0.0
C126 C 0.53518 0.3408 0.02757 0.0
C127 C 0.49417 0.34954 0.03886 0.0
C128 C 0.50486 0.4056 0.0476 0.0
C129 C 0.55648 0.45245 0.04494 0.0
C130 C 0.59574 0.4411 0.03357 0.0
H131 H 0.5269 0.29764 0.02112 0.0
O132 O 0.56929 0.32916 0.93428 0.0
O133 O 0.62992 0.38243 0.97236 0.0
O134 O 0.60685 0.26672 0.96209 0.0
O135 O 0.61431 0.3049 1.00938 0.0
C136 C 0.57039 0.50995 0.05292 0.0
C137 C 0.62268 0.55487 0.04887 0.0
H138 H 0.72672 0.62967 0.03722 0.0
H139 H 0.7903 0.60093 0.0162 0.0
H140 H 0.45445 0.31316 0.04086 0.0
H141 H 0.47307 0.41217 0.0562 0.0
H142 H 0.54099 0.5201 0.06191 0.0
H143 H 0.63257 0.59884 0.05466 0.0
C144 C 0.30236 0.62915 0.17157 0.0
C145 C 0.34341 0.67617 0.16087 0.0
C146 C 0.30692 0.62564 0.20083 0.0
C147 C 0.35299 0.66881 0.21993 0.0
C148 C 0.395 0.71456 0.20895 0.0
C149 C 0.39 0.71862 0.17981 0.0
C150 C 0.35811 0.66734 0.25135 0.0
C151 C 0.31472 0.64805 0.26693 0.0
C152 C 0.31989 0.65165 0.29892 0.0
C153 C 0.28493 0.66288 0.31576 0.0
C154 C 0.28959 0.66824 0.34601 0.0
C155 C 0.32836 0.66085 0.36004 0.0
H156 H 0.38507 0.63359 0.30033 0.0
C157 C 0.36218 0.64762 0.34308 0.0
C158 C 0.35832 0.64353 0.31282 0.0
H159 H 0.39249 0.64177 0.35327 0.0
H160 H 0.26604 0.59565 0.1575 0.0
H161 H 0.27443 0.58906 0.20844 0.0
H162 H 0.43112 0.7481 0.22316 0.0
H163 H 0.42246 0.75518 0.17215 0.0
H164 H 0.39907 0.68729 0.26244 0.0
H165 H 0.27458 0.63382 0.25641 0.0
H166 H 0.25468 0.66883 0.30554 0.0
H167 H 0.2627 0.67809 0.35844 0.0
C168 C 0.63742 0.33566 0.67842 0.0
C169 C 0.68029 0.34372 0.6614 0.0
C170 C 0.6437 0.33862 0.70844 0.0
C171 C 0.69279 0.34896 0.72205 0.0
C172 C 0.73561 0.35702 0.70509 0.0
C173 C 0.72975 0.3552 0.67515 0.0
C174 C 0.69892 0.34812 0.75349 0.0
C175 C 0.67631 0.36807 0.77359 0.0
C176 C 0.67954 0.36506 0.80489 0.0
C177 C 0.67942 0.40753 0.82583 0.0
C178 C 0.67766 0.40356 0.85523 0.0
C179 C 0.67458 0.35619 0.86426 0.0
H180 H 0.67723 0.28443 0.79831 0.0
C181 C 0.6755 0.31398 0.84339 0.0
C182 C 0.67832 0.31854 0.81399 0.0
H183 H 0.67291 0.27686 0.84968 0.0
H184 H 0.59871 0.32647 0.66849 0.0
H185 H 0.60941 0.33092 0.72075 0.0
H186 H 0.77365 0.36456 0.71502 0.0
H187 H 0.76334 0.36096 0.66261 0.0
H188 H 0.72414 0.33239 0.76032 0.0
H189 H 0.65583 0.38904 0.76709 0.0
H190 H 0.67996 0.44358 0.81937 0.0
H191 H 0.67663 0.43662 0.87071 0.0
C192 C 0.42161 0.59777 0.05636 0.0
C193 C 0.40935 0.62247 0.0359 0.0
C194 C 0.44402 0.56381 0.04779 0.0
C195 C 0.45539 0.55508 0.01888 0.0
C196 C 0.44615 0.58281 0.99895 0.0
C197 C 0.42339 0.61614 1.00741 0.0
C198 C 0.47263 0.51347 1.00937 0.0
C199 C 0.50358 0.51793 0.98733 0.0
C200 C 0.52127 0.47684 0.9782 0.0
C201 C 0.57491 0.49803 0.97107 0.0
C202 C 0.59425 0.4611 0.96423 0.0
C203 C 0.55992 0.40227 0.96389 0.0
H204 H 0.44387 0.39999 0.9813 0.0
C205 C 0.50507 0.38009 0.96898 0.0
C206 C 0.48594 0.41742 0.97655 0.0
H207 H 0.47792 0.33459 0.96829 0.0
H208 H 0.41035 0.60131 0.07833 0.0
H209 H 0.45079 0.5428 0.0635 0.0
H210 H 0.45332 0.57622 0.97635 0.0
H211 H 0.41395 0.63445 0.99118 0.0
H212 H 0.46077 0.47915 0.02136 0.0
H213 H 0.52036 0.55531 0.97723 0.0
H214 H 0.60253 0.54352 0.97188 0.0
H215 H 0.63653 0.47872 0.95977 0.0
C216 C 0.15532 0.57965 0.45282 0.0
C217 C 0.19532 0.56587 0.45769 0.0
C218 C 0.10274 0.54757 0.46089 0.0
C219 C 0.08831 0.50058 0.47413 0.0
C220 C 0.12673 0.48399 0.47721 0.0
C221 C 0.18001 0.51656 0.46919 0.0
C222 C 0.03384 0.47001 0.48538 0.0
C223 C 1.01099 0.49899 0.49833 0.0
C224 C 0.95748 0.47206 0.51061 0.0
C225 C 0.95063 0.50325 0.53534 0.0
C226 C 0.90064 0.48044 0.54725 0.0
C227 C 0.85571 0.42659 0.53414 0.0
H228 H 0.91626 0.39357 0.4779 0.0
C229 C 0.86189 0.39581 0.50889 0.0
C230 C 0.91256 0.41808 0.49737 0.0
H231 H 0.828 0.35396 0.49848 0.0
H232 H 0.16499 0.61648 0.44338 0.0
H233 H 0.07358 0.56027 0.45714 0.0
H234 H 0.1163 0.44733 0.48697 0.0
H235 H 0.20968 0.50461 0.47312 0.0
H236 H 1.01409 0.42418 0.4846 0.0
H237 H 0.0341 0.54559 0.5017 0.0
H238 H 0.98439 0.54522 0.54576 0.0
H239 H 0.89712 0.50512 0.56672 0.0
C240 C 0.55137 0.15433 0.97411 0.0
C241 C 0.57137 0.20391 0.99594 0.0
C242 C 0.52374 0.09973 0.98118 0.0
C243 C 0.51571 0.09342 1.01036 0.0
C244 C 0.53585 0.14306 0.03207 0.0
C245 C 0.56331 0.19748 0.02502 0.0
C246 C 0.48558 0.03657 0.01936 0.0
C247 C 0.47118 0.98601 1.00198 0.0
C248 C 0.44019 0.92989 1.01149 0.0
C249 C 0.40884 0.87988 0.99025 0.0
C250 C 0.37931 0.82621 0.99808 0.0
C251 C 0.38085 0.82104 0.02743 0.0
H252 H 0.4673 0.96203 0.05786 0.0
C253 C 0.41281 0.87107 0.04873 0.0
C254 C 0.44225 0.92485 0.04087 0.0
H255 H 0.41542 0.86876 0.07151 0.0
H256 H 0.55649 0.15756 0.95146 0.0
H257 H 0.5082 0.06308 0.96351 0.0
H258 H 0.53025 0.13983 0.0547 0.0
H259 H 0.57795 0.23452 0.04249 0.0
H260 H 0.47447 0.0368 0.0415 0.0
H261 H 0.48077 0.98462 0.97961 0.0
H262 H 0.40682 0.88234 0.96745 0.0
H263 H 0.35538 0.78875 0.981 0.0
C264 C 0.65211 0.46861 0.53892 0.0
C265 C 0.64473 0.45077 0.56578 0.0
C266 C 0.62602 0.49619 0.53078 0.0
C267 C 0.5925 0.50671 0.54953 0.0
C268 C 0.58916 0.49314 0.57732 0.0
C269 C 0.61428 0.46466 0.58519 0.0
C270 C 0.55857 0.5293 0.54053 0.0
C271 C 0.53528 0.51589 0.51296 0.0
C272 C 0.49671 0.53284 0.50332 0.0
C273 C 0.4691 0.5084 0.47502 0.0
C274 C 0.43469 0.52473 0.46424 0.0
C275 C 0.42688 0.56603 0.48153 0.0
H276 H 0.50816 0.59383 0.54271 0.0
C277 C 0.45296 0.58924 0.51017 0.0
C278 C 0.48763 0.57312 0.52093 0.0
H279 H 0.44832 0.62165 0.52399 0.0
H280 H 0.67459 0.45744 0.52338 0.0
H281 H 0.63077 0.5076 0.5095 0.0
H282 H 0.5642 0.50131 0.59233 0.0
H283 H 0.60736 0.45057 0.60585 0.0
H284 H 0.54855 0.55267 0.55778 0.0
H285 H 0.54289 0.48871 0.4966 0.0
H286 H 0.47493 0.47717 0.46088 0.0
H287 H 0.4155 0.50617 0.44203 0.0
C288 C 0.13892 0.64794 0.05729 0.0
C289 C 0.17164 0.62575 0.06265 0.0
C290 C 0.0824 0.61068 0.04982 0.0
C291 C 0.05829 0.55131 0.04849 0.0
C292 C 0.09081 0.53021 0.05597 0.0
C293 C 0.14712 0.56704 0.06273 0.0
C294 C 0.99949 0.51008 0.03919 0.0
C295 C 0.97264 0.51458 0.01713 0.0
C296 C 0.91401 0.47239 1.00713 0.0
C297 C 0.87717 0.44273 0.02651 0.0
C298 C 0.8212 0.40884 0.01764 0.0
C299 C 0.80075 0.40391 0.98929 0.0
H300 H 0.92154 0.48738 0.96297 0.0
C301 C 0.83763 0.43049 0.96931 0.0
C302 C 0.89389 0.46493 0.97828 0.0
H303 H 0.8228 0.42809 0.94746 0.0
H304 H 0.15727 0.69335 0.05764 0.0
H305 H 0.05776 0.62812 0.04483 0.0
H306 H 0.07298 0.48477 0.05542 0.0
H307 H 0.17181 0.54941 0.06737 0.0
H308 H 0.97932 0.47241 0.04907 0.0
H309 H 0.99474 0.54931 1.00539 0.0
H310 H 0.89084 0.4482 0.04905 0.0
H311 H 0.79352 0.38909 0.03352 0.0
C312 C 0.66068 0.15757 0.56335 0.0
C313 C 0.65153 0.19404 0.54992 0.0
C314 C 0.63857 0.10009 0.54981 0.0
C315 C 0.60749 0.0784 0.52234 0.0
C316 C 0.59919 0.11543 0.50887 0.0
C317 C 0.62118 0.17267 0.52243 0.0
C318 C 0.58435 0.01823 0.50655 0.0
C319 C 0.57201 0.97414 0.51983 0.0
C320 C 0.54117 0.91348 0.50395 0.0
C321 C 0.50324 0.87125 0.51837 0.0
C322 C 0.46829 0.81515 0.5032 0.0
C323 C 0.47118 0.80003 0.47343 0.0
H324 H 0.57673 0.92847 0.46304 0.0
C325 C 0.5122 0.84067 0.45949 0.0
C326 C 0.54664 0.89731 0.47454 0.0
H327 H 0.51603 0.82926 0.43671 0.0
H328 H 0.68516 0.17363 0.58426 0.0
H329 H 0.64717 0.07345 0.56058 0.0
H330 H 0.57579 0.10013 0.48766 0.0
H331 H 0.61536 0.20057 0.51114 0.0
H332 H 0.57274 1.00928 0.48327 0.0
H333 H 0.57852 0.98171 0.54342 0.0
H334 H 0.49867 0.8823 0.54107 0.0
H335 H 0.43795 0.78382 0.51459 0.0
loop_
_geom_bond_atom_site_label_1
_geom_bond_atom_site_label_2
_geom_bond_distance
_geom_bond_site_symmetry_2
_ccdc_geom_bond_type
Mn0 O5 2.095 . S
Mn0 O15 2.162 . S
Mn0 O16 2.297 . S
Mn0 O24 2.385 . S
Mn0 O25 2.209 . S
Mn0 O26 2.094 . S
Mn1 O6 2.135 . S
Mn1 N8 2.245 1_554 S
Mn1 N17 2.268 1_554 S
Mn1 O25 2.247 . S
Mn1 O27 2.122 . S
C2 O24 1.234 . S
C2 O25 1.283 . S
C3 O15 1.281 . S
C3 O16 1.236 . S
C4 O26 1.240 . S
C4 O27 1.264 . S
O5 Mn0 2.095 . S
O5 C14 1.250 . S
O6 Mn1 2.135 . S
O6 C14 1.258 . S
C7 N8 1.326 . S
C7 C11 1.460 . S
C7 H13 0.929 . S
N8 Mn1 2.245 1_556 S
N8 C7 1.326 . S
N8 C12 1.362 . S
C9 C10 1.258 . S
C9 C12 1.431 . S
C9 C29 1.449 . S
C10 C9 1.258 . S
C10 C11 1.477 . S
C10 H30 0.931 . S
C11 C7 1.460 . S
C11 C10 1.477 . S
C11 H31 0.930 . S
C12 N8 1.362 . S
C12 C9 1.431 . S
C12 C22 1.476 . S
H13 C7 0.929 . S
C14 O5 1.250 . S
C14 O6 1.258 . S
O15 Mn0 2.162 . S
O15 C3 1.281 . S
O16 Mn0 2.297 . S
O16 C3 1.236 . S
N17 Mn1 2.268 1_556 S
N17 C18 1.328 . S
N17 C22 1.318 . S
C18 N17 1.328 . S
C18 C19 1.457 . S
C18 H23 0.929 1_556 S
C19 C18 1.457 . S
C19 C20 1.291 . S
C19 H32 0.931 . S
C20 C19 1.291 . S
C20 C21 1.373 . S
C20 H33 0.929 . S
C21 C20 1.373 . S
C21 C22 1.396 . S
C21 C28 1.403 . S
C22 C12 1.476 . S
C22 N17 1.318 . S
C22 C21 1.396 . S
H23 C18 0.929 1_554 S
O24 Mn0 2.385 . S
O24 C2 1.234 . S
O25 Mn0 2.209 . S
O25 Mn1 2.247 . S
O25 C2 1.283 . S
O26 Mn0 2.094 . S
O26 C4 1.240 . S
O27 Mn1 2.122 . S
O27 C4 1.264 . S
C28 C21 1.403 . S
C28 C29 1.399 . S
C28 H34 0.929 . S
C29 C9 1.449 . S
C29 C28 1.399 . S
C29 H35 0.930 . S
H30 C10 0.931 . S
H31 C11 0.930 . S
H32 C19 0.931 . S
H33 C20 0.929 . S
H34 C28 0.929 . S
H35 C29 0.930 . S
Mn36 O41 2.095 . S
Mn36 O51 2.162 . S
Mn36 O52 2.297 . S
Mn36 O60 2.385 . S
Mn36 O61 2.209 . S
Mn36 O62 2.094 . S
Mn37 O42 2.121 . S
Mn37 N44 2.257 . S
Mn37 N53 2.282 . S
Mn37 O61 2.215 . S
Mn37 O63 2.117 . S
C38 O60 1.234 . S
C38 O61 1.283 . S
C39 O51 1.281 . S
C39 O52 1.236 . S
C40 O62 1.240 . S
C40 O63 1.264 . S
O41 Mn36 2.095 . S
O41 C50 1.250 . S
O42 Mn37 2.121 . S
O42 C50 1.258 . S
C43 N44 1.326 . S
C43 C47 1.460 . S
C43 H49 0.929 . S
N44 Mn37 2.257 . S
N44 C43 1.326 . S
N44 C48 1.362 . S
C45 C46 1.258 . S
C45 C48 1.431 . S
C45 C65 1.449 . S
C46 C45 1.258 . S
C46 C47 1.477 . S
C46 H66 0.931 . S
C47 C43 1.460 . S
C47 C46 1.477 . S
C47 H67 0.930 . S
C48 N44 1.362 . S
C48 C45 1.431 . S
C48 C58 1.476 . S
H49 C43 0.929 . S
C50 O41 1.250 . S
C50 O42 1.258 . S
O51 Mn36 2.162 . S
O51 C39 1.281 . S
O52 Mn36 2.297 . S
O52 C39 1.236 . S
N53 Mn37 2.282 . S
N53 C54 1.328 . S
N53 C58 1.318 . S
C54 N53 1.328 . S
C54 C55 1.457 . S
C54 H59 0.929 . S
C55 C54 1.457 . S
C55 C56 1.291 . S
C55 H68 0.931 . S
C56 C55 1.291 . S
C56 C57 1.373 . S
C56 H69 0.929 . S
C57 C56 1.373 . S
C57 C58 1.396 . S
C57 C64 1.403 . S
C58 C48 1.476 . S
C58 N53 1.318 . S
C58 C57 1.396 . S
H59 C54 0.929 . S
O60 Mn36 2.385 . S
O60 C38 1.234 . S
O61 Mn36 2.209 . S
O61 Mn37 2.215 . S
O61 C38 1.283 . S
O62 Mn36 2.094 . S
O62 C40 1.240 . S
O63 Mn37 2.117 . S
O63 C40 1.264 . S
C64 C57 1.403 . S
C64 C65 1.399 . S
C64 H70 0.929 . S
C65 C45 1.449 . S
C65 C64 1.399 . S
C65 H71 0.930 . S
H66 C46 0.931 . S
H67 C47 0.930 . S
H68 C55 0.931 . S
H69 C56 0.929 . S
H70 C64 0.929 . S
H71 C65 0.930 . S
Mn72 O77 2.095 . S
Mn72 O87 2.162 . S
Mn72 O88 2.297 . S
Mn72 O96 2.385 . S
Mn72 O97 2.209 . S
Mn72 O98 2.094 . S
Mn73 O78 2.121 . S
Mn73 N80 2.257 . S
Mn73 N89 2.282 . S
Mn73 O97 2.215 . S
Mn73 O99 2.117 . S
C74 O96 1.234 . S
C74 O97 1.283 . S
C75 O87 1.281 . S
C75 O88 1.236 . S
C76 O98 1.240 . S
C76 O99 1.264 . S
O77 Mn72 2.095 . S
O77 C86 1.250 . S
O78 Mn73 2.121 . S
O78 C86 1.258 . S
C79 N80 1.326 . S
C79 C83 1.460 . S
C79 H85 0.929 . S
N80 Mn73 2.257 . S
N80 C79 1.326 . S
N80 C84 1.362 . S
C81 C82 1.258 . S
C81 C84 1.431 . S
C81 C101 1.449 . S
C82 C81 1.258 . S
C82 C83 1.477 . S
C82 H102 0.931 . S
C83 C79 1.460 . S
C83 C82 1.477 . S
C83 H103 0.930 . S
C84 N80 1.362 . S
C84 C81 1.431 . S
C84 C94 1.476 . S
H85 C79 0.929 . S
C86 O77 1.250 . S
C86 O78 1.258 . S
O87 Mn72 2.162 . S
O87 C75 1.281 . S
O88 Mn72 2.297 . S
O88 C75 1.236 . S
N89 Mn73 2.282 . S
N89 C90 1.328 . S
N89 C94 1.318 . S
C90 N89 1.328 . S
C90 C91 1.457 . S
C90 H95 0.929 . S
C91 C90 1.457 . S
C91 C92 1.291 . S
C91 H104 0.931 . S
C92 C91 1.291 . S
C92 C93 1.373 . S
C92 H105 0.929 . S
C93 C92 1.373 . S
C93 C94 1.396 . S
C93 C100 1.403 . S
C94 C84 1.476 . S
C94 N89 1.318 . S
C94 C93 1.396 . S
H95 C90 0.929 . S
O96 Mn72 2.385 . S
O96 C74 1.234 . S
O97 Mn72 2.209 . S
O97 Mn73 2.215 . S
O97 C74 1.283 . S
O98 Mn72 2.094 . S
O98 C76 1.240 . S
O99 Mn73 2.117 . S
O99 C76 1.264 . S
C100 C93 1.403 . S
C100 C101 1.399 . S
C100 H106 0.929 . S
C101 C81 1.449 . S
C101 C100 1.399 . S
C101 H107 0.930 . S
H102 C82 0.931 . S
H103 C83 0.930 . S
H104 C91 0.931 . S
H105 C92 0.929 . S
H106 C100 0.929 . S
H107 C101 0.930 . S
Mn108 O113 2.095 . S
Mn108 O123 2.162 . S
Mn108 O124 2.297 . S
Mn108 O132 2.385 . S
Mn108 O133 2.209 . S
Mn108 O134 2.094 . S
Mn109 O114 2.135 . S
Mn109 N116 2.245 1_556 S
Mn109 N125 2.268 1_556 S
Mn109 O133 2.247 . S
Mn109 O135 2.122 . S
C110 O132 1.234 . S
C110 O133 1.283 . S
C111 O123 1.281 . S
C111 O124 1.236 . S
C112 O134 1.240 . S
C112 O135 1.264 . S
O113 Mn108 2.095 . S
O113 C122 1.250 . S
O114 Mn109 2.135 . S
O114 C122 1.258 . S
C115 N116 1.326 . S
C115 C119 1.460 . S
C115 H121 0.929 . S
N116 Mn109 2.245 1_554 S
N116 C115 1.326 . S
N116 C120 1.362 . S
C117 C118 1.258 . S
C117 C120 1.431 . S
C117 C137 1.449 . S
C118 C117 1.258 . S
C118 C119 1.477 . S
C118 H138 0.931 . S
C119 C115 1.460 . S
C119 C118 1.477 . S
C119 H139 0.930 . S
C120 N116 1.362 . S
C120 C117 1.431 . S
C120 C130 1.476 . S
H121 C115 0.929 . S
C122 O113 1.250 . S
C122 O114 1.258 . S
O123 Mn108 2.162 . S
O123 C111 1.281 . S
O124 Mn108 2.297 . S
O124 C111 1.236 . S
N125 Mn109 2.268 1_554 S
N125 C126 1.328 . S
N125 C130 1.318 . S
C126 N125 1.328 . S
C126 C127 1.457 . S
C126 H131 0.929 1_554 S
C127 C126 1.457 . S
C127 C128 1.291 . S
C127 H140 0.931 . S
C128 C127 1.291 . S
C128 C129 1.373 . S
C128 H141 0.929 . S
C129 C128 1.373 . S
C129 C130 1.396 . S
C129 C136 1.403 . S
C130 C120 1.476 . S
C130 N125 1.318 . S
C130 C129 1.396 . S
H131 C126 0.929 1_556 S
O132 Mn108 2.385 . S
O132 C110 1.234 . S
O133 Mn108 2.209 . S
O133 Mn109 2.247 . S
O133 C110 1.283 . S
O134 Mn108 2.094 . S
O134 C112 1.240 . S
O135 Mn109 2.122 . S
O135 C112 1.264 . S
C136 C129 1.403 . S
C136 C137 1.399 . S
C136 H142 0.929 . S
C137 C117 1.449 . S
C137 C136 1.399 . S
C137 H143 0.930 . S
H138 C118 0.931 . S
H139 C119 0.930 . S
H140 C127 0.931 . S
H141 C128 0.929 . S
H142 C136 0.929 . S
H143 C137 0.930 . S
C144 C145 1.386 . S
C144 C146 1.383 . S
C144 H160 0.951 . S
C145 C144 1.386 . S
C145 C149 1.383 . S
C146 C144 1.383 . S
C146 C147 1.402 . S
C146 H161 0.951 . S
C147 C146 1.402 . S
C147 C148 1.375 . S
C147 C150 1.481 . S
C148 C147 1.375 . S
C148 C149 1.367 . S
C148 H162 0.951 . S
C149 C145 1.383 . S
C149 C148 1.367 . S
C149 H163 0.950 . S
C150 C147 1.481 . S
C150 C151 1.297 . S
C150 H164 0.950 . S
C151 C150 1.297 . S
C151 C152 1.479 . S
C151 H165 0.950 . S
C152 C151 1.479 . S
C152 C153 1.375 . S
C152 C158 1.404 . S
C153 C152 1.375 . S
C153 C154 1.369 . S
C153 H166 0.950 . S
C154 C153 1.369 . S
C154 C155 1.392 . S
C154 H167 0.951 . S
C155 C154 1.392 . S
C155 C157 1.384 . S
H156 C158 0.949 . S
C157 C155 1.384 . S
C157 C158 1.385 . S
C157 H159 0.950 . S
C158 C152 1.404 . S
C158 H156 0.949 . S
C158 C157 1.385 . S
H159 C157 0.950 . S
H160 C144 0.951 . S
H161 C146 0.951 . S
H162 C148 0.951 . S
H163 C149 0.950 . S
H164 C150 0.950 . S
H165 C151 0.950 . S
H166 C153 0.950 . S
H167 C154 0.951 . S
C168 C169 1.386 . S
C168 C170 1.383 . S
C168 H184 0.951 . S
C169 C168 1.386 . S
C169 C173 1.383 . S
C170 C168 1.383 . S
C170 C171 1.402 . S
C170 H185 0.951 . S
C171 C170 1.402 . S
C171 C172 1.375 . S
C171 C174 1.481 . S
C172 C171 1.375 . S
C172 C173 1.367 . S
C172 H186 0.951 . S
C173 C169 1.383 . S
C173 C172 1.367 . S
C173 H187 0.950 . S
C174 C171 1.481 . S
C174 C175 1.297 . S
C174 H188 0.950 . S
C175 C174 1.297 . S
C175 C176 1.479 . S
C175 H189 0.950 . S
C176 C175 1.479 . S
C176 C177 1.375 . S
C176 C182 1.404 . S
C177 C176 1.375 . S
C177 C178 1.369 . S
C177 H190 0.950 . S
C178 C177 1.369 . S
C178 C179 1.392 . S
C178 H191 0.951 . S
C179 C178 1.392 . S
C179 C181 1.384 . S
H180 C182 0.949 . S
C181 C179 1.384 . S
C181 C182 1.385 . S
C181 H183 0.950 . S
C182 C176 1.404 . S
C182 H180 0.949 . S
C182 C181 1.385 . S
H183 C181 0.950 . S
H184 C168 0.951 . S
H185 C170 0.951 . S
H186 C172 0.951 . S
H187 C173 0.950 . S
H188 C174 0.950 . S
H189 C175 0.950 . S
H190 C177 0.950 . S
H191 C178 0.951 . S
C192 C193 1.386 . S
C192 C194 1.383 . S
C192 H208 0.951 . S
C193 C192 1.386 . S
C193 C197 1.383 . S
C194 C192 1.383 . S
C194 C195 1.402 . S
C194 H209 0.951 . S
C195 C194 1.402 . S
C195 C196 1.375 1_554 S
C195 C198 1.481 1_554 S
C196 C195 1.375 1_556 S
C196 C197 1.367 1_556 S
C196 H210 0.951 . S
C197 C193 1.383 . S
C197 C196 1.367 1_554 S
C197 H211 0.950 1_554 S
C198 C195 1.481 1_556 S
C198 C199 1.297 1_556 S
C198 H212 0.950 . S
C199 C198 1.297 1_554 S
C199 C200 1.479 1_554 S
C199 H213 0.950 . S
C200 C199 1.479 1_556 S
C200 C201 1.375 1_556 S
C200 C206 1.404 . S
C201 C200 1.375 1_554 S
C201 C202 1.369 1_554 S
C201 H214 0.950 . S
C202 C201 1.369 1_556 S
C202 C203 1.392 . S
C202 H215 0.948 . S
C203 C202 1.392 . S
C203 C205 1.384 . S
H204 C206 0.949 . S
C205 C203 1.384 . S
C205 C206 1.385 . S
C205 H207 0.950 . S
C206 C200 1.404 . S
C206 H204 0.949 . S
C206 C205 1.385 . S
H207 C205 0.950 . S
H208 C192 0.951 . S
H209 C194 0.951 . S
H210 C196 0.951 . S
H211 C197 0.950 1_556 S
H212 C198 0.950 . S
H213 C199 0.950 . S
H214 C201 0.950 . S
H215 C202 0.948 . S
C216 C217 1.386 . S
C216 C218 1.383 . S
C216 H232 0.951 . S
C217 C216 1.386 . S
C217 C221 1.383 . S
C218 C216 1.383 . S
C218 C219 1.402 . S
C218 H233 0.951 . S
C219 C218 1.402 . S
C219 C220 1.375 . S
C219 C222 1.481 . S
C220 C219 1.375 . S
C220 C221 1.367 . S
C220 H234 0.951 . S
C221 C217 1.383 . S
C221 C220 1.367 . S
C221 H235 0.950 . S
C222 C219 1.481 . S
C222 C223 1.297 . S
C222 H236 0.950 . S
C223 C222 1.297 . S
C223 C224 1.479 1_455 S
C223 H237 0.950 . S
C224 C223 1.479 1_655 S
C224 C225 1.375 . S
C224 C230 1.404 . S
C225 C224 1.375 . S
C225 C226 1.369 . S
C225 H238 0.950 . S
C226 C225 1.369 . S
C226 C227 1.392 . S
C226 H239 0.951 . S
C227 C226 1.392 . S
C227 C229 1.384 . S
H228 C230 0.949 . S
C229 C227 1.384 . S
C229 C230 1.385 . S
C229 H231 0.950 . S
C230 C224 1.404 . S
C230 H228 0.949 . S
C230 C229 1.385 . S
H231 C229 0.950 . S
H232 C216 0.951 . S
H233 C218 0.951 . S
H234 C220 0.951 . S
H235 C221 0.950 . S
H236 C222 0.950 . S
H237 C223 0.950 . S
H238 C225 0.950 . S
H239 C226 0.951 . S
C240 C241 1.386 . S
C240 C242 1.383 . S
C240 H256 0.951 . S
C241 C240 1.386 . S
C241 C245 1.387 1_556 S
C242 C240 1.383 . S
C242 C243 1.402 . S
C242 H257 0.951 . S
C243 C242 1.402 . S
C243 C244 1.375 1_556 S
C243 C246 1.481 1_556 S
C244 C243 1.375 1_554 S
C244 C245 1.364 . S
C244 H258 0.951 . S
C245 C241 1.387 1_554 S
C245 C244 1.364 . S
C245 H259 0.949 . S
C246 C243 1.481 1_554 S
C246 C247 1.297 1_545 S
C246 H260 0.950 . S
C247 C246 1.297 1_565 S
C247 C248 1.479 . S
C247 H261 0.950 1_554 S
C248 C247 1.479 . S
C248 C249 1.375 1_554 S
C248 C254 1.404 . S
C249 C248 1.375 1_556 S
C249 C250 1.369 1_556 S
C249 H262 0.950 . S
C250 C249 1.369 1_554 S
C250 C251 1.392 . S
C250 H263 0.951 1_554 S
C251 C250 1.392 . S
C251 C253 1.384 . S
H252 C254 0.949 . S
C253 C251 1.384 . S
C253 C254 1.385 . S
C253 H255 0.950 . S
C254 C248 1.404 . S
C254 H252 0.949 . S
C254 C253 1.385 . S
H255 C253 0.950 . S
H256 C240 0.951 . S
H257 C242 0.951 . S
H258 C244 0.951 . S
H259 C245 0.949 . S
H260 C246 0.950 . S
H261 C247 0.950 1_556 S
H262 C249 0.950 . S
H263 C250 0.951 1_556 S
C264 C265 1.386 . S
C264 C266 1.383 . S
C264 H280 0.951 . S
C265 C264 1.386 . S
C265 C269 1.383 . S
C266 C264 1.383 . S
C266 C267 1.402 . S
C266 H281 0.951 . S
C267 C266 1.402 . S
C267 C268 1.375 . S
C267 C270 1.481 . S
C268 C267 1.375 . S
C268 C269 1.367 . S
C268 H282 0.951 . S
C269 C265 1.383 . S
C269 C268 1.367 . S
C269 H283 0.950 . S
C270 C267 1.481 . S
C270 C271 1.297 . S
C270 H284 0.950 . S
C271 C270 1.297 . S
C271 C272 1.479 . S
C271 H285 0.950 . S
C272 C271 1.479 . S
C272 C273 1.375 . S
C272 C278 1.404 . S
C273 C272 1.375 . S
C273 C274 1.369 . S
C273 H286 0.950 . S
C274 C273 1.369 . S
C274 C275 1.392 . S
C274 H287 0.951 . S
C275 C274 1.392 . S
C275 C277 1.384 . S
H276 C278 0.949 . S
C277 C275 1.384 . S
C277 C278 1.385 . S
C277 H279 0.950 . S
C278 C272 1.404 . S
C278 H276 0.949 . S
C278 C277 1.385 . S
H279 C277 0.950 . S
H280 C264 0.951 . S
H281 C266 0.951 . S
H282 C268 0.951 . S
H283 C269 0.950 . S
H284 C270 0.950 . S
H285 C271 0.950 . S
H286 C273 0.950 . S
H287 C274 0.951 . S
C288 C289 1.386 . S
C288 C290 1.383 . S
C288 H304 0.951 . S
C289 C288 1.386 . S
C289 C293 1.383 . S
C290 C288 1.383 . S
C290 C291 1.402 . S
C290 H305 0.951 . S
C291 C290 1.402 . S
C291 C292 1.375 1_554 S
C291 C294 1.481 1_454 S
C292 C291 1.375 1_556 S
C292 C293 1.367 1_556 S
C292 H306 0.951 . S
C293 C289 1.383 . S
C293 C292 1.367 1_554 S
C293 H307 0.950 1_554 S
C294 C291 1.481 1_656 S
C294 C295 1.297 1_556 S
C294 H308 0.950 . S
C295 C294 1.297 1_554 S
C295 C296 1.479 1_554 S
C295 H309 0.950 . S
C296 C295 1.479 1_556 S
C296 C297 1.375 1_556 S
C296 C302 1.404 . S
C297 C296 1.375 1_554 S
C297 C298 1.369 1_554 S
C297 H310 0.950 . S
C298 C297 1.369 1_556 S
C298 C299 1.392 . S
C298 H311 0.951 1_556 S
C299 C298 1.392 . S
C299 C301 1.384 . S
H300 C302 0.949 . S
C301 C299 1.384 . S
C301 C302 1.385 . S
C301 H303 0.950 . S
C302 C296 1.404 . S
C302 H300 0.949 . S
C302 C301 1.385 . S
H303 C301 0.950 . S
H304 C288 0.951 . S
H305 C290 0.951 . S
H306 C292 0.951 . S
H307 C293 0.950 1_556 S
H308 C294 0.950 . S
H309 C295 0.950 . S
H310 C297 0.950 . S
H311 C298 0.951 1_554 S
C312 C313 1.386 . S
C312 C314 1.383 . S
C312 H328 0.951 . S
C313 C312 1.386 . S
C313 C317 1.383 . S
C314 C312 1.383 . S
C314 C315 1.402 . S
C314 H329 0.951 . S
C315 C314 1.402 . S
C315 C316 1.375 . S
C315 C318 1.481 . S
C316 C315 1.375 . S
C316 C317 1.367 . S
C316 H330 0.951 . S
C317 C313 1.383 . S
C317 C316 1.367 . S
C317 H331 0.950 . S
C318 C315 1.481 . S
C318 C319 1.297 1_545 S
C318 H332 0.950 . S
C319 C318 1.297 1_565 S
C319 C320 1.479 . S
C319 H333 0.950 . S
C320 C319 1.479 . S
C320 C321 1.375 . S
C320 C326 1.404 . S
C321 C320 1.375 . S
C321 C322 1.369 . S
C321 H334 0.950 . S
C322 C321 1.369 . S
C322 C323 1.392 . S
C322 H335 0.951 . S
C323 C322 1.392 . S
C323 C325 1.384 . S
H324 C326 0.949 . S
C325 C323 1.384 . S
C325 C326 1.385 . S
C325 H327 0.950 . S
C326 C320 1.404 . S
C326 H324 0.949 . S
C326 C325 1.385 . S
H327 C325 0.950 . S
H328 C312 0.951 . S
H329 C314 0.951 . S
H330 C316 0.951 . S
H331 C317 0.950 . S
H332 C318 0.950 . S
H333 C319 0.950 . S
H334 C321 0.950 . S
H335 C322 0.951 . S
C145 C3 1.505 . S
C155 C76 1.516 . S
C169 C40 1.502 . S
C179 C111 1.512 . S
C193 C14 1.346 . S
C203 C110 1.383 . S
C217 C86 1.561 . S
C227 C39 1.629 . S
C241 C112 1.699 . S
C251 C4 1.701 . S
C265 C50 1.532 . S
C275 C75 1.620 . S
C289 C2 1.396 . S
C299 C122 1.342 . S
C313 C38 1.320 . S
C323 C74 1.298 . S
