# Generated by pormake.
# Topology tfs, (6)-cn, num edge types: 1
# Building blocks:
#     Node 0, Type 0, BuildingBlock: INOVEN_clean_sbu_0, # of connection points: 6
#     Node 1, Type 0, BuildingBlock: INOVEN_clean_sbu_0, # of connection points: 6
#     Node 2, Type 0, BuildingBlock: INOVEN_clean_sbu_0, # of connection points: 6
#     Node 3, Type 0, BuildingBlock: INOVEN_clean_sbu_0, # of connection points: 6
#     Node 4, Type 0, BuildingBlock: INOVEN_clean_sbu_0, # of connection points: 6
#     Node 5, Type 0, BuildingBlock: INOVEN_clean_sbu_0, # of connection points: 6
#     Edge 6, Type (0, 0), BuildingBlock: XUDNAN_clean_linker_2, # of connection points: 2
#     Edge 7, Type (0, 0), BuildingBlock: XUDNAN_clean_linker_2, # of connection points: 2
#     Edge 8, Type (0, 0), BuildingBlock: XUDNAN_clean_linker_2, # of connection points: 2
#     Edge 9, Type (0, 0), BuildingBlock: XUDNAN_clean_linker_2, # of connection points: 2
#     Edge 10, Type (0, 0), BuildingBlock: XUDNAN_clean_linker_2, # of connection points: 2
#     Edge 11, Type (0, 0), BuildingBlock: XUDNAN_clean_linker_2, # of connection points: 2
#     Edge 12, Type (0, 0), BuildingBlock: XUDNAN_clean_linker_2, # of connection points: 2
#     Edge 13, Type (0, 0), BuildingBlock: XUDNAN_clean_linker_2, # of connection points: 2
#     Edge 14, Type (0, 0), BuildingBlock: XUDNAN_clean_linker_2, # of connection points: 2
#     Edge 15, Type (0, 0), BuildingBlock: XUDNAN_clean_linker_2, # of connection points: 2
#     Edge 16, Type (0, 0), BuildingBlock: XUDNAN_clean_linker_2, # of connection points: 2
#     Edge 17, Type (0, 0), BuildingBlock: XUDNAN_clean_linker_2, # of connection points: 2
#     Edge 18, Type (0, 0), BuildingBlock: XUDNAN_clean_linker_2, # of connection points: 2
#     Edge 19, Type (0, 0), BuildingBlock: XUDNAN_clean_linker_2, # of connection points: 2
#     Edge 20, Type (0, 0), BuildingBlock: XUDNAN_clean_linker_2, # of connection points: 2
#     Edge 21, Type (0, 0), BuildingBlock: XUDNAN_clean_linker_2, # of connection points: 2
#     Edge 22, Type (0, 0), BuildingBlock: XUDNAN_clean_linker_2, # of connection points: 2
#     Edge 23, Type (0, 0), BuildingBlock: XUDNAN_clean_linker_2, # of connection points: 2
# Relax obj value: 0.474
# Max RMSD: 0.394
# Mean RMSD: 0.354
data_MOF--net-tfs--node1-INOVEN_clean_sbu_0--edge1-XUDNAN_clean_linker_2
_symmetry_space_group_name_H-M    P1
_symmetry_Int_Tables_number       1
_symmetry_cell_setting            triclinic
loop_
_symmetry_equiv_pos_as_xyz
'x, y, z'
_cell_length_a     51.433576
_cell_length_b     51.139954
_cell_length_c     12.575046
_cell_angle_alpha  92.65995
_cell_angle_beta   99.611942
_cell_angle_gamma 119.97411
loop_
_atom_site_label
_atom_site_type_symbol
_atom_site_fract_x
_atom_site_fract_y
_atom_site_fract_z
_atom_type_partial_charge
Gd0 Gd 0.20272 0.37256 0.11247 0.0
Gd1 Gd 0.18542 0.4191 0.01645 0.0
C2 C 0.14345 0.37334 0.16719 0.0
C3 C 0.22397 0.34247 0.21621 0.0
C4 C 0.23614 0.32518 0.27594 0.0
C5 C 0.26074 0.3235 0.24842 0.0
C6 C 0.2258 0.31335 0.36901 0.0
C7 C 0.26681 0.30231 0.41378 0.0
C8 C 0.24116 0.30237 0.43787 0.0
C9 C 0.27581 0.31194 0.31639 0.0
C10 C 0.17042 0.35639 0.90144 0.0
C11 C 0.24987 0.42691 0.00656 0.0
C12 C 0.16974 0.45007 0.89201 0.0
C13 C 0.16803 0.47783 0.90833 0.0
C14 C 0.14855 0.47925 0.97136 0.0
C15 C 0.18723 0.50379 0.86497 0.0
C16 C 0.16962 0.533 0.95627 0.0
C17 C 0.18811 0.53122 0.88901 0.0
C18 C 0.14922 0.5065 -0.00553 0.0
C19 C 0.21272 0.43619 0.23051 0.0
O20 O 0.16292 0.36346 0.1899 0.0
O21 O 0.14549 0.39193 0.09444 0.0
O22 O 0.23482 0.3562 0.13515 0.0
O23 O 0.20066 0.34402 0.23658 0.0
O24 O 0.18991 0.3483 0.93877 0.0
O25 O 0.16785 0.37024 0.97926 0.0
O26 O 0.22575 0.42611 0.9472 0.0
O27 O 0.24721 0.41227 0.09158 0.0
O28 O 0.14998 0.42603 0.92839 0.0
O29 O 0.19743 0.45422 0.91251 0.0
O30 O 0.19903 0.44866 0.17695 0.0
O31 O 0.21702 0.42077 0.1613 0.0
H32 H 0.26923 0.33232 0.17697 0.0
H33 H 0.20671 0.31377 0.39171 0.0
H34 H 0.23351 0.29471 0.51177 0.0
H35 H 0.29554 0.31212 0.29597 0.0
H36 H 0.13328 0.45958 0.00525 0.0
H37 H 0.20229 0.50313 0.81544 0.0
H38 H 0.20415 0.55125 0.85867 0.0
H39 H 0.13414 0.50694 0.0443 0.0
Gd40 Gd 0.79255 0.20516 0.85733 0.0
Gd41 Gd 0.85168 0.24157 0.77397 0.0
C42 C 0.82907 0.27922 0.89098 0.0
C43 C 0.7532 0.18253 0.98025 0.0
C44 C 0.72682 0.18456 -0.0003 0.0
C45 C 0.69856 0.15743 -0.01001 0.0
C46 C 0.72838 0.21276 0.01554 0.0
C47 C 0.6729 0.18629 -0.00535 0.0
C48 C 0.70153 0.2136 0.01365 0.0
C49 C 0.67178 0.15826 -0.01302 0.0
C50 C 0.78322 0.21653 0.64982 0.0
C51 C 0.81035 0.16766 0.71033 0.0
C52 C 0.89532 0.26692 0.66871 0.0
C53 C 0.92584 0.2734 0.65346 0.0
C54 C 0.95291 0.29709 0.72275 0.0
C55 C 0.92812 0.25989 0.55816 0.0
C56 C 0.98308 0.29693 0.59302 0.0
C57 C 0.95651 0.2715 0.52833 0.0
C58 C 0.98121 0.30869 0.69286 0.0
C59 C 0.85747 0.22626 0.97867 0.0
O60 O 0.81309 0.25454 0.93476 0.0
O61 O 0.84049 0.27783 0.80598 0.0
O62 O 0.74928 0.16894 0.88328 0.0
O63 O 0.7806 0.20684 0.01397 0.0
O64 O 0.76273 0.19397 0.68834 0.0
O65 O 0.80509 0.23404 0.72811 0.0
O66 O 0.82932 0.19389 0.68045 0.0
O67 O 0.7984 0.16693 0.79629 0.0
O68 O 0.89421 0.28059 0.75684 0.0
O69 O 0.87142 0.23938 0.6358 0.0
O70 O 0.8767 0.25229 0.95361 0.0
O71 O 0.83792 0.21023 0.89424 0.0
H72 H 0.69693 0.13548 0.97845 0.0
H73 H 0.74998 0.23406 0.02356 0.0
H74 H 0.7029 0.23547 0.01942 0.0
H75 H 0.64996 0.13692 0.97325 0.0
H76 H 0.95207 0.30804 0.79683 0.0
H77 H 0.90767 0.2417 0.50282 0.0
H78 H 0.9572 0.26206 0.45064 0.0
H79 H 1.0014 0.32806 0.74499 0.0
Gd80 Gd 0.56103 0.75792 0.23032 0.0
Gd81 Gd 0.59417 0.82381 0.16917 0.0
C82 C 0.52016 0.78173 0.08805 0.0
C83 C 0.52546 0.70439 0.27889 0.0
C84 C 0.49461 0.67707 0.24236 0.0
C85 C 0.47692 0.67101 0.13626 0.0
C86 C 0.48452 0.65486 0.311 0.0
C87 C 0.44144 0.61923 0.16427 0.0
C88 C 0.4582 0.62623 0.27246 0.0
C89 C 0.45033 0.64225 0.0976 0.0
C90 C 0.59028 0.76591 0.06621 0.0
C91 C 0.63162 0.79878 0.32331 0.0
C92 C 0.62197 0.87422 0.09198 0.0
C93 C 0.64557 0.90598 0.14484 0.0
C94 C 0.63726 0.9241 0.2013 0.0
C95 C 0.67674 0.91819 0.14265 0.0
C96 C 0.69079 0.96544 0.25561 0.0
C97 C 0.6991 0.94756 0.19753 0.0
C98 C 0.65953 0.95336 0.25595 0.0
C99 C 0.58781 0.82326 0.37726 0.0
O100 O 0.5212 0.75924 0.13244 0.0
O101 O 0.54517 0.80824 0.08801 0.0
O102 O 0.54422 0.70964 0.21371 0.0
O103 O 0.52769 0.72926 0.32296 0.0
O104 O 0.58938 0.74774 0.13529 0.0
O105 O 0.57458 0.77763 0.08254 0.0
O106 O 0.63229 0.81487 0.24252 0.0
O107 O 0.60575 0.77881 0.34911 0.0
O108 O 0.59464 0.86329 0.11352 0.0
O109 O 0.63066 0.85406 0.09107 0.0
O110 O 0.60829 0.84651 0.34221 0.0
O111 O 0.56938 0.80299 0.29668 0.0
H112 H 0.48442 0.68794 0.08197 0.0
H113 H 0.49786 0.65915 0.39303 0.0
H114 H 0.45157 0.60911 0.32626 0.0
H115 H 0.43778 0.63746 0.014 0.0
H116 H 0.61348 0.91568 0.20423 0.0
H117 H 0.68391 0.9049 0.09965 0.0
H118 H 0.72296 0.95602 0.19599 0.0
H119 H 0.65214 0.96664 0.29767 0.0
Gd120 Gd 0.83678 0.59127 0.88386 0.0
Gd121 Gd 0.81204 0.62727 0.75029 0.0
C122 C 0.76539 0.57367 0.86057 0.0
C123 C 0.85405 0.56588 0.0304 0.0
C124 C 0.85179 0.53603 0.03203 0.0
C125 C 0.85414 0.52139 0.94007 0.0
C126 C 0.84743 0.52202 0.12597 0.0
C127 C 0.84856 0.4793 0.03666 0.0
C128 C 0.84575 0.49387 0.12828 0.0
C129 C 0.85276 0.49348 0.94259 0.0
C130 C 0.81816 0.57108 0.6666 0.0
C131 C 0.88194 0.64401 0.77127 0.0
C132 C 0.79833 0.65684 0.61218 0.0
C133 C 0.78249 0.67403 0.59557 0.0
C134 C 0.76457 0.67489 0.66672 0.0
C135 C 0.78645 0.69086 0.5087 0.0
C136 C 0.75494 0.70974 0.56425 0.0
C137 C 0.77282 0.70852 0.49303 0.0
C138 C 0.75086 0.69259 0.65113 0.0
C139 C 0.83188 0.64517 0.96891 0.0
O140 O 0.78958 0.57409 0.91908 0.0
O141 O 0.76759 0.59015 0.78069 0.0
O142 O 0.87192 0.58383 0.97035 0.0
O143 O 0.82826 0.56575 0.02052 0.0
O144 O 0.83721 0.56637 0.73214 0.0
O145 O 0.8067 0.5818 0.723 0.0
O146 O 0.85694 0.63937 0.70319 0.0
O147 O 0.88007 0.63246 0.86348 0.0
O148 O 0.78127 0.6273 0.60996 0.0
O149 O 0.8236 0.66962 0.68824 0.0
O150 O 0.8083 0.64533 0.91321 0.0
O151 O 0.84347 0.63695 0.90531 0.0
H152 H 0.85737 0.53168 0.86633 0.0
H153 H 0.84535 0.53288 0.19755 0.0
H154 H 0.84202 0.48343 0.20153 0.0
H155 H 0.85553 0.48331 0.87111 0.0
H156 H 0.76138 0.66207 0.73449 0.0
H157 H 0.80049 0.69071 0.45361 0.0
H158 H 0.77686 0.72175 0.42641 0.0
H159 H 0.73694 0.69269 0.70672 0.0
Gd160 Gd 0.16581 0.77864 0.14267 0.0
Gd161 Gd 0.22765 0.80497 0.06283 0.0
C162 C 0.20509 0.85 0.15573 0.0
C163 C 0.11988 0.75021 0.23486 0.0
C164 C 0.09923 0.75237 0.29869 0.0
C165 C 0.06748 0.73202 0.26307 0.0
C166 C 0.11049 0.77111 0.40053 0.0
C167 C 0.05874 0.74614 0.43533 0.0
C168 C 0.0904 0.7679 0.4685 0.0
C169 C 0.04742 0.72899 0.33035 0.0
C170 C 0.16319 0.78434 0.93176 0.0
C171 C 0.19248 0.73473 0.0809 0.0
C172 C 0.27226 0.82901 0.96194 0.0
C173 C 0.2948 0.82096 0.93827 0.0
C174 C 0.32627 0.84326 0.96374 0.0
C175 C 0.2857 0.7906 0.90278 0.0
C176 C 0.33939 0.80436 0.93063 0.0
C177 C 0.30772 0.78249 0.89757 0.0
C178 C 0.34839 0.83507 0.96035 0.0
C179 C 0.23095 0.79781 0.27276 0.0
O180 O 0.18498 0.82756 0.19903 0.0
O181 O 0.2201 0.84534 0.08716 0.0
O182 O 0.11647 0.7542 0.13248 0.0
O183 O 0.14857 0.76096 0.28412 0.0
O184 O 0.14786 0.79126 -0.01209 0.0
O185 O 0.17858 0.77538 -0.0108 0.0
O186 O 0.21282 0.75561 0.03342 0.0
O187 O 0.17474 0.73972 0.13347 0.0
O188 O 0.27537 0.83745 0.06533 0.0
O189 O 0.24341 0.81091 0.91109 0.0
O190 O 0.24935 0.79574 0.21799 0.0
O191 O 0.21484 0.80641 0.21734 0.0
H192 H 0.05831 0.71721 0.18521 0.0
H193 H 0.13491 0.78714 0.42991 0.0
H194 H 0.09978 0.78168 0.54847 0.0
H195 H 0.02328 0.71177 0.30258 0.0
H196 H 0.3338 0.86682 -0.00823 0.0
H197 H 0.26164 0.77284 0.88369 0.0
H198 H 0.29986 0.75875 0.8716 0.0
H199 H 0.37247 0.85253 -0.01304 0.0
Gd200 Gd 0.42915 0.20035 0.79791 0.0
Gd201 Gd 0.47093 0.25763 0.95065 0.0
C202 C 0.40117 0.24108 0.83062 0.0
C203 C 0.39992 0.1442 0.70504 0.0
C204 C 0.37371 0.11809 0.62982 0.0
C205 C 0.37963 0.09908 0.56735 0.0
C206 C 0.34318 0.10973 0.62838 0.0
C207 C 0.32482 0.06212 0.50921 0.0
C208 C 0.3189 0.08201 0.568 0.0
C209 C 0.35551 0.07135 0.50804 0.0
C210 C 0.4558 0.25101 0.70433 0.0
C211 C 0.49924 0.21962 0.8917 0.0
C212 C 0.50472 0.31352 0.0488 0.0
C213 C 0.53097 0.34134 0.02661 0.0
C214 C 0.5536 0.36342 0.11328 0.0
C215 C 0.53317 0.34643 0.91879 0.0
C216 C 0.57926 0.39625 -0.01532 0.0
C217 C 0.55698 0.37373 0.89808 0.0
C218 C 0.57771 0.39064 0.0925 0.0
C219 C 0.44044 0.20711 0.04553 0.0
O220 O 0.39367 0.21301 0.79532 0.0
O221 O 0.42923 0.26181 0.8862 0.0
O222 O 0.42022 0.16661 0.66396 0.0
O223 O 0.39554 0.15295 0.79662 0.0
O224 O 0.42794 0.22805 0.66804 0.0
O225 O 0.46941 0.24473 0.78213 0.0
O226 O 0.50606 0.24814 0.90691 0.0
O227 O 0.47042 0.19709 0.869 0.0
O228 O 0.50976 0.29186 0.07616 0.0
O229 O 0.47853 0.30311 0.97949 0.0
O230 O 0.46896 0.2285 0.07995 0.0
O231 O 0.42942 0.21448 0.96438 0.0
H232 H 0.40308 0.10503 0.56848 0.0
H233 H 0.33812 0.1241 0.67633 0.0
H234 H 0.29555 0.07587 0.56939 0.0
H235 H 0.36113 0.05655 0.46576 0.0
H236 H 0.55235 0.35981 0.19695 0.0
H237 H 0.5162 0.3295 0.85049 0.0
H238 H 0.55793 0.37729 0.81422 0.0
H239 H 0.5946 0.40768 0.16063 0.0
H240 H 0.36279 0.22419 0.6308 0.0
H241 H 0.39213 0.28193 0.94179 0.0
H242 H 0.35872 0.30201 0.87056 0.0
H243 H 0.36451 0.27984 0.46959 0.0
H244 H 0.33173 0.25302 0.36441 0.0
H245 H 0.35533 0.24089 0.44294 0.0
H246 H 0.30734 0.19779 0.49812 0.0
H247 H 0.28353 0.20972 0.41952 0.0
H248 H 0.28358 0.20719 0.56204 0.0
H249 H 0.32283 0.31607 0.76495 0.0
H250 H 0.28971 0.32625 0.62867 0.0
H251 H 0.28674 0.26219 0.38152 0.0
C252 C 0.36153 0.24048 0.68465 0.0
C253 C 0.37929 0.25101 0.79272 0.0
C254 C 0.37821 0.2733 0.85946 0.0
C255 C 0.35936 0.28478 0.81964 0.0
C256 C 0.34231 0.27414 0.7123 0.0
C257 C 0.34345 0.25271 0.64531 0.0
C258 C 0.32474 0.24684 0.53072 0.0
C259 C 0.34531 0.25568 0.44702 0.0
C260 C 0.29822 0.2134 0.50089 0.0
C261 C 0.31283 0.26831 0.54374 0.0
C262 C 0.32293 0.28351 0.64952 0.0
C263 C 0.31476 0.30431 0.68195 0.0
C264 C 0.29587 0.30984 0.60421 0.0
C265 C 0.28566 0.29493 0.49496 0.0
C266 C 0.29433 0.27394 0.46447 0.0
H267 H 0.10817 0.31951 0.24371 0.0
H268 H 0.12822 0.41264 0.24664 0.0
H269 H 0.09386 0.40435 0.37291 0.0
H270 H 0.02788 0.28796 0.23171 0.0
H271 H 0.02417 0.25897 0.31467 0.0
H272 H 0.05319 0.27308 0.23502 0.0
H273 H 0.09462 0.28653 0.40956 0.0
H274 H 0.06612 0.27348 0.49135 0.0
H275 H 0.09887 0.31185 0.52472 0.0
H276 H 0.05766 0.38651 0.49708 0.0
H277 H 0.01512 0.35796 0.58891 0.0
H278 H 0.01365 0.27448 0.49363 0.0
C279 C 0.10528 0.33808 0.27144 0.0
C280 C 0.12092 0.36677 0.2361 0.0
C281 C 0.1163 0.39044 0.27238 0.0
C282 C 0.09712 0.38607 0.34507 0.0
C283 C 0.08208 0.35762 0.37879 0.0
C284 C 0.08534 0.33377 0.34163 0.0
C285 C 0.06382 0.3046 0.38163 0.0
C286 C 0.0409 0.27968 0.28501 0.0
C287 C 0.08197 0.29349 0.45627 0.0
C288 C 0.04781 0.31579 0.44575 0.0
C289 C 0.0594 0.34665 0.44529 0.0
C290 C 0.0484 0.36234 0.49821 0.0
C291 C 0.02435 0.34593 0.55081 0.0
C292 C 1.01117 0.31403 0.54894 0.0
C293 C 0.02333 0.29886 0.49651 0.0
H294 H 0.76365 0.11 0.7217 0.0
H295 H 0.83211 0.16004 0.53393 0.0
H296 H 0.81047 0.11321 0.40182 0.0
H297 H 0.761 0.03727 0.67592 0.0
H298 H 0.72002 0.01492 0.66502 0.0
H299 H 0.74249 0.05185 0.74916 0.0
H300 H 0.70741 0.069 0.64259 0.0
H301 H 0.68495 0.03226 0.55758 0.0
H302 H 0.7022 0.06651 0.49634 0.0
H303 H 0.77933 0.06164 0.28369 0.0
H304 H 0.74132 0.00932 0.18931 0.0
H305 H 0.69351 0.99268 0.45508 0.0
C306 C 0.77461 0.11099 0.65435 0.0
C307 C 0.7999 0.1387 0.63926 0.0
C308 C 0.813 0.13906 0.54828 0.0
C309 C 0.80081 0.11256 0.47248 0.0
C310 C 0.77556 0.08578 0.48882 0.0
C311 C 0.76269 0.08476 0.57777 0.0
C312 C 0.73472 0.05349 0.57358 0.0
C313 C 0.73988 0.03849 0.67173 0.0
C314 C 0.70561 0.05545 0.5671 0.0
C315 C 0.7337 0.03715 0.46785 0.0
C316 C 0.75752 0.05614 0.42043 0.0
C317 C 0.76079 0.04645 0.32071 0.0
C318 C 0.73915 0.01659 0.26792 0.0
C319 C 0.7144 0.99669 0.31459 0.0
C320 C 0.71194 1.00727 0.41646 0.0
H321 H 0.7279 0.71798 0.37085 0.0
H322 H 0.75021 0.74529 0.72155 0.0
H323 H 0.72651 0.7769 0.69523 0.0
H324 H 0.74165 0.79159 0.29371 0.0
H325 H 0.70982 0.77385 0.17692 0.0
H326 H 0.73024 0.75482 0.22235 0.0
H327 H 0.67916 0.70712 0.23874 0.0
H328 H 0.65864 0.72589 0.19225 0.0
H329 H 0.65545 0.7114 0.32036 0.0
H330 H 0.6964 0.80167 0.6323 0.0
H331 H 0.66066 0.81631 0.53658 0.0
H332 H 0.66066 0.7758 0.22713 0.0
C333 C 0.72839 0.73108 0.44212 0.0
C334 C 0.74102 0.72915 0.54838 0.0
C335 C 0.74039 0.74606 0.63944 0.0
C336 C 0.72729 0.76437 0.62525 0.0
C337 C 0.71515 0.7658 0.51945 0.0
C338 C 0.71557 0.74959 0.42939 0.0
C339 C 0.69926 0.75355 0.32487 0.0
C340 C 0.72159 0.7694 0.25007 0.0
C341 C 0.67148 0.72266 0.26564 0.0
C342 C 0.68916 0.77412 0.37032 0.0
C343 C 0.6987 0.78105 0.4828 0.0
C344 C 0.68953 0.79712 0.54413 0.0
C345 C 0.66941 0.80554 0.48934 0.0
C346 C 0.65906 0.79824 0.37475 0.0
C347 C 0.66959 0.78297 0.31434 0.0
H348 H 0.99899 0.73363 0.39557 0.0
H349 H 0.07121 0.73999 0.64955 0.0
H350 H 0.03459 0.71892 0.76988 0.0
H351 H 0.95803 0.75045 0.58621 0.0
H352 H 0.92089 0.72401 0.49977 0.0
H353 H 0.95393 0.74426 0.44055 0.0
H354 H 0.94323 0.69265 0.34646 0.0
H355 H 0.91067 0.67267 0.4076 0.0
H356 H 0.94076 0.66377 0.42841 0.0
H357 H 0.98892 0.69042 0.8521 0.0
H358 H 0.93802 0.65965 0.89568 0.0
H359 H 0.89499 0.67117 0.58803 0.0
C360 C 1.00724 0.7312 0.47737 0.0
C361 C 0.03804 0.73859 0.51319 0.0
C362 C 0.04793 0.73504 0.62081 0.0
C363 C 0.02722 0.7229 0.68965 0.0
C364 C 0.99678 0.71478 0.6503 0.0
C365 C 0.9869 0.71925 0.54737 0.0
C366 C 0.95256 0.70689 0.5226 0.0
C367 C 0.94597 0.73296 0.51168 0.0
C368 C 0.93588 0.68254 0.42012 0.0
C369 C 0.94439 0.69304 0.62472 0.0
C370 C 0.97033 0.69836 0.69817 0.0
C371 C 0.9685 0.68655 0.79605 0.0
C372 C 0.93942 0.66893 0.81976 0.0
C373 C 0.91248 0.66307 0.74557 0.0
C374 C 0.91514 0.67545 0.64696 0.0
H375 H 0.25043 0.90478 0.11149 0.0
H376 H 0.18178 0.86623 0.30839 0.0
H377 H 0.20243 0.91711 0.40946 0.0
H378 H 0.31107 0.95666 0.3195 0.0
H379 H 0.32765 0.98727 0.24078 0.0
H380 H 0.30545 0.94829 0.17378 0.0
H381 H 0.26939 0.96069 0.04559 0.0
H382 H 0.29166 0.99988 0.11155 0.0
H383 H 0.25078 0.97802 0.10343 0.0
H384 H 0.2342 0.97024 0.50581 0.0
H385 H 0.27351 0.02348 0.58351 0.0
H386 H 0.31962 0.02938 0.31791 0.0
C387 C 0.23917 0.90718 0.17357 0.0
C388 C 0.21438 0.8814 0.20118 0.0
C389 C 0.20067 0.88551 0.28464 0.0
C390 C 0.21223 0.9144 0.34302 0.0
C391 C 0.23718 0.93917 0.31598 0.0
C392 C 0.25023 0.93604 0.23224 0.0
C393 C 0.27787 0.96633 0.22397 0.0
C394 C 0.30724 0.96451 0.24054 0.0
C395 C 0.27207 0.97685 0.11463 0.0
C396 C 0.27886 0.98655 0.31853 0.0
C397 C 0.25508 0.97041 0.37009 0.0
C398 C 0.25247 0.98344 0.46445 0.0
C399 C 0.27486 0.01383 0.50761 0.0
C400 C 0.29954 0.03096 0.45628 0.0
C401 C 0.30113 0.01706 0.35941 0.0
H402 H 0.19377 0.69945 0.91251 0.0
H403 H 0.18506 0.70308 0.24953 0.0
H404 H 0.17936 0.65238 0.2536 0.0
H405 H 0.13599 0.61935 0.83525 0.0
H406 H 0.15553 0.61183 0.74267 0.0
H407 H 0.16066 0.64929 0.76649 0.0
H408 H 0.21962 0.67305 0.82253 0.0
H409 H 0.21471 0.63568 0.79886 0.0
H410 H 0.23542 0.65939 0.92966 0.0
H411 H 0.17522 0.60269 0.22426 0.0
H412 H 0.1701 0.55391 0.16016 0.0
H413 H 0.17754 0.57954 0.83692 0.0
C414 C 0.19099 0.68955 -0.01287 0.0
C415 C 0.19006 0.70499 0.08113 0.0
C416 C 0.18578 0.69139 0.17693 0.0
C417 C 0.18261 0.66273 0.1801 0.0
C418 C 0.18331 0.64786 0.08618 0.0
C419 C 0.18708 0.6605 -0.00898 0.0
C420 C 0.18534 0.63866 0.90044 0.0
C421 C 0.15773 0.62923 0.80564 0.0
C422 C 0.21558 0.65253 0.86058 0.0
C423 C 0.18056 0.61211 0.96069 0.0
C424 C 0.17956 0.61811 0.06766 0.0
C425 C 0.17563 0.59747 0.14039 0.0
C426 C 0.17248 0.56971 0.10283 0.0
C427 C 0.17294 0.56266 -0.00691 0.0
C428 C 0.17718 0.58429 0.9213 0.0
H429 H 0.55294 0.24046 0.04404 0.0
H430 H 0.49842 0.18118 0.73644 0.0
H431 H 0.53675 0.16579 0.73239 0.0
H432 H 0.62779 0.26599 -0.00643 0.0
H433 H 0.64442 0.26417 0.12908 0.0
H434 H 0.61291 0.27095 0.10811 0.0
H435 H 0.58177 0.22443 0.20202 0.0
H436 H 0.61318 0.21747 0.22322 0.0
H437 H 0.57532 0.18762 0.15186 0.0
H438 H 0.58003 0.15706 0.75919 0.0
H439 H 0.62725 0.15525 0.81527 0.0
H440 H 0.65421 0.21893 0.10907 0.0
C441 C 0.54945 0.22452 0.97564 0.0
C442 C 0.52316 0.21216 0.88975 0.0
C443 C 0.51862 0.19084 0.80252 0.0
C444 C 0.54016 0.18196 0.79966 0.0
C445 C 0.56574 0.19422 0.88584 0.0
C446 C 0.57049 0.21485 0.9727 0.0
C447 C 0.59962 0.22366 0.05604 0.0
C448 C 0.62254 0.25825 0.07258 0.0
C449 C 0.59201 0.21264 0.16471 0.0
C450 C 0.61109 0.20581 -0.00033 0.0
C451 C 0.59083 0.18867 0.9025 0.0
C452 C 0.59602 0.17016 0.83543 0.0
C453 C 0.62277 0.16917 0.86822 0.0
C454 C 0.64408 0.18671 0.96679 0.0
C455 C 0.63819 0.2053 0.0334 0.0
H456 H 0.38236 0.59793 0.04623 0.0
H457 H 0.44471 0.56833 0.18407 0.0
H458 H 0.40336 0.51465 0.1259 0.0
H459 H 0.3191 0.54405 0.13215 0.0
H460 H 0.29067 0.5374 0.01214 0.0
H461 H 0.32629 0.57344 0.04752 0.0
H462 H 0.33648 0.56652 0.85622 0.0
H463 H 0.3009 0.53018 0.82086 0.0
H464 H 0.33655 0.53263 0.81037 0.0
H465 H 0.35487 0.46529 0.07988 0.0
H466 H 0.30116 0.42307 0.05517 0.0
H467 H 0.26901 0.48282 0.94101 0.0
C468 C 0.38739 0.58007 0.06134 0.0
C469 C 0.4167 0.58724 0.1199 0.0
C470 C 0.42234 0.56332 0.14027 0.0
C471 C 0.3991 0.53276 0.10646 0.0
C472 C 0.37028 0.52633 0.05118 0.0
C473 C 0.36425 0.54922 0.02818 0.0
C474 C 0.33035 0.53583 0.97791 0.0
C475 C 0.31576 0.54842 0.04658 0.0
C476 C 0.32581 0.54164 0.85928 0.0
C477 C 0.31813 0.50213 0.98273 0.0
C478 C 0.34177 0.49718 0.02279 0.0
C479 C 0.33619 0.46866 0.04595 0.0
C480 C 0.30563 0.44482 0.03177 0.0
C481 C 0.28105 0.4496 -0.00522 0.0
C482 C 0.2874 0.47831 0.96617 0.0
H483 H 0.82236 0.43097 0.86964 0.0
H484 H 0.87252 0.46038 0.20784 0.0
H485 H 0.87163 0.41168 0.20907 0.0
H486 H 0.77442 0.35158 0.88608 0.0
H487 H 0.7764 0.33869 0.75342 0.0
H488 H 0.7799 0.37534 0.78052 0.0
H489 H 0.83215 0.40152 0.72187 0.0
H490 H 0.82878 0.36496 0.69424 0.0
H491 H 0.86236 0.39555 0.78702 0.0
H492 H 0.86656 0.36012 0.17137 0.0
H493 H 0.85781 0.30998 0.09591 0.0
H494 H 0.81236 0.31523 0.78271 0.0
C495 C 0.83339 0.4274 0.94396 0.0
C496 C 0.84744 0.44963 0.03879 0.0
C497 C 0.86112 0.44359 0.13463 0.0
C498 C 0.86095 0.41606 0.13593 0.0
C499 C 0.84712 0.39483 0.04069 0.0
C500 C 0.83367 0.40024 0.94641 0.0
C501 C 0.82089 0.37404 0.8542 0.0
C502 C 0.78582 0.35903 0.81637 0.0
C503 C 0.83702 0.38466 0.75872 0.0
C504 C 0.82929 0.35302 0.91116 0.0
C505 C 0.84428 0.36533 0.01892 0.0
C506 C 0.85449 0.35012 0.0876 0.0
C507 C 0.84909 0.32157 0.04492 0.0
C508 C 0.83362 0.30863 0.93535 0.0
C509 C 0.82392 0.32466 0.86737 0.0
H510 H 0.39881 0.83425 0.89354 0.0
H511 H 0.33298 0.75286 0.00688 0.0
H512 H 0.37063 0.7365 0.03874 0.0
H513 H 0.4356 0.79879 0.76469 0.0
H514 H 0.47367 0.83194 0.8085 0.0
H515 H 0.44062 0.83634 0.78233 0.0
H516 H 0.45725 0.8661 0.97711 0.0
H517 H 0.49039 0.86195 0.00355 0.0
H518 H 0.4638 0.84897 0.09294 0.0
H519 H 0.41467 0.72922 0.06575 0.0
H520 H 0.465 0.73351 0.10366 0.0
H521 H 0.50526 0.82105 -0.01458 0.0
C522 C 0.39223 0.81287 0.92417 0.0
C523 C 0.36245 0.79451 0.94491 0.0
C524 C 0.35504 0.76684 -0.01382 0.0
C525 C 0.3764 0.75738 0.00536 0.0
C526 C 0.40529 0.7758 -0.01645 0.0
C527 C 0.41347 0.80307 0.94468 0.0
C528 C 0.44695 0.81932 0.9354 0.0
C529 C 0.44934 0.82174 0.8156 0.0
C530 C 0.4657 0.85095 0.00654 0.0
C531 C 0.45641 0.79736 0.97916 0.0
C532 C 0.43165 0.77213 0.00365 0.0
C533 C 0.43426 0.74877 0.04651 0.0
C534 C 0.4631 0.75146 0.06754 0.0
C535 C 0.48932 0.77764 0.04773 0.0
C536 C 0.48572 0.80067 0.001 0.0
H537 H 0.75042 0.53049 -0.00161 0.0
H538 H 0.7104 0.56767 0.76498 0.0
H539 H 0.65855 0.52809 0.78095 0.0
H540 H 0.69637 0.45384 0.89998 0.0
H541 H 0.6951 0.44104 0.03122 0.0
H542 H 0.72936 0.47427 0.01208 0.0
H543 H 0.72714 0.50487 0.17345 0.0
H544 H 0.6919 0.47298 0.19222 0.0
H545 H 0.69387 0.50847 0.17071 0.0
H546 H 0.61123 0.48166 0.80631 0.0
H547 H 0.57125 0.43287 0.84889 0.0
H548 H 0.64156 0.42601 0.06775 0.0
C549 C 0.73082 0.53082 0.95254 0.0
C550 C 0.73456 0.55231 0.88044 0.0
C551 C 0.70821 0.55153 0.82074 0.0
C552 C 0.67862 0.52914 0.82938 0.0
C553 C 0.67574 0.50784 0.89876 0.0
C554 C 0.7011 0.50866 0.96046 0.0
C555 C 0.6915 0.48188 0.02354 0.0
C556 C 0.70381 0.46156 -0.01039 0.0
C557 C 0.7017 0.49275 0.1473 0.0
C558 C 0.65684 0.46569 -0.0138 0.0
C559 C 0.64826 0.48107 0.91429 0.0
C560 C 0.61762 0.46966 0.86379 0.0
C561 C 0.59513 0.44187 0.88785 0.0
C562 C 0.60337 0.42586 0.96197 0.0
C563 C 0.63463 0.43808 0.01219 0.0
H564 H 0.1899 0.34297 0.7287 0.0
H565 H 0.1354 0.37947 0.81679 0.0
H566 H 0.14246 0.40687 0.65637 0.0
H567 H 0.24216 0.39296 0.61523 0.0
H568 H 0.23567 0.37035 0.48869 0.0
H569 H 0.22467 0.35207 0.60552 0.0
H570 H 0.16954 0.3169 0.50074 0.0
H571 H 0.17517 0.3333 0.37749 0.0
H572 H 0.14687 0.33248 0.44174 0.0
H573 H 0.16857 0.4401 0.51832 0.0
H574 H 0.19096 0.46053 0.36146 0.0
H575 H 0.22062 0.39494 0.3447 0.0
C576 C 0.1792 0.35645 0.71337 0.0
C577 C 0.1647 0.36193 0.78932 0.0
C578 C 0.14901 0.37771 0.76339 0.0
C579 C 0.15262 0.39294 0.67245 0.0
C580 C 0.17016 0.38999 0.60518 0.0
C581 C 0.18131 0.37055 0.62048 0.0
C582 C 0.19409 0.36702 0.52542 0.0
C583 C 0.22604 0.37083 0.56098 0.0
C584 C 0.17023 0.33563 0.45749 0.0
C585 C 0.19515 0.39273 0.46765 0.0
C586 C 0.18005 0.40489 0.51303 0.0
C587 C 0.17939 0.43004 0.47909 0.0
C588 C 0.19274 0.44183 0.39137 0.0
C589 C 0.20661 0.42849 0.33875 0.0
C590 C 0.20918 0.40467 0.38109 0.0
H591 H 0.81705 0.26135 0.53529 0.0
H592 H 0.76039 0.16308 0.516 0.0
H593 H 0.77735 0.15577 0.35091 0.0
H594 H 0.79714 0.2558 0.22813 0.0
H595 H 0.83378 0.28953 0.23269 0.0
H596 H 0.81569 0.28514 0.34617 0.0
H597 H 0.86636 0.2934 0.4721 0.0
H598 H 0.88268 0.29671 0.35374 0.0
H599 H 0.88024 0.26859 0.43858 0.0
H600 H 0.80491 0.15898 0.20308 0.0
H601 H 0.8301 0.17178 0.04694 0.0
H602 H 0.86543 0.26791 0.14781 0.0
C603 C 0.80791 0.23837 0.49492 0.0
C604 C 0.78794 0.21278 0.53916 0.0
C605 C 0.77584 0.183 0.48357 0.0
C606 C 0.78559 0.1786 0.39044 0.0
C607 C 0.80653 0.20426 0.35189 0.0
C608 C 0.81648 0.23353 0.39914 0.0
C609 C 0.83638 0.25694 0.33391 0.0
C610 C 0.81974 0.27275 0.28205 0.0
C611 C 0.8683 0.2803 0.40395 0.0
C612 C 0.83824 0.23638 0.24821 0.0
C613 C 0.82074 0.20606 0.26057 0.0
C614 C 0.81845 0.18258 0.19171 0.0
C615 C 0.83313 0.19009 0.10424 0.0
C616 C 0.84993 0.22078 0.08642 0.0
C617 C 0.85327 0.24435 0.16107 0.0
H618 H 0.56503 0.73169 0.86963 0.0
H619 H 0.64689 0.81195 0.05722 0.0
H620 H 0.65943 0.83292 0.88843 0.0
H621 H 0.60004 0.7367 0.59948 0.0
H622 H 0.56187 0.722 0.51853 0.0
H623 H 0.56716 0.70806 0.64461 0.0
H624 H 0.52942 0.7219 0.70654 0.0
H625 H 0.52566 0.73781 0.58505 0.0
H626 H 0.53844 0.76101 0.71666 0.0
H627 H 0.65218 0.85244 0.71949 0.0
H628 H 0.6346 0.86374 0.54278 0.0
H629 H 0.55582 0.77176 0.46628 0.0
C630 C 0.58672 0.75254 0.87338 0.0
C631 C 0.60496 0.77051 0.97427 0.0
C632 C 0.63271 0.79814 0.97948 0.0
C633 C 0.64004 0.81011 0.884 0.0
C634 C 0.61961 0.79355 0.78529 0.0
C635 C 0.5943 0.76453 0.77823 0.0
C636 C 0.57343 0.75375 0.66553 0.0
C637 C 0.57578 0.72865 0.60339 0.0
C638 C 0.53978 0.74305 0.66886 0.0
C639 C 0.58826 0.78285 0.61718 0.0
C640 C 0.61546 0.80509 0.68565 0.0
C641 C 0.63171 0.83476 0.66294 0.0
C642 C 0.62119 0.8411 0.56344 0.0
C643 C 0.59436 0.81801 0.48949 0.0
C644 C 0.57702 0.7891 0.51919 0.0
H645 H 0.77949 0.57714 0.50359 0.0
H646 H 0.86718 0.58149 0.58418 0.0
H647 H 0.88055 0.60362 0.41835 0.0
H648 H 0.76991 0.55696 0.2 0.0
H649 H 0.75028 0.5774 0.16605 0.0
H650 H 0.74658 0.55959 0.28746 0.0
H651 H 0.76472 0.61176 0.39783 0.0
H652 H 0.7708 0.63042 0.27915 0.0
H653 H 0.80219 0.64407 0.39609 0.0
H654 H 0.88697 0.6294 0.25786 0.0
H655 H 0.883 0.65087 0.08945 0.0
H656 H 0.78984 0.62694 0.09984 0.0
C657 C 0.80116 0.58221 0.4846 0.0
C658 C 0.82247 0.57797 0.55675 0.0
C659 C 0.85052 0.5845 0.52967 0.0
C660 C 0.85844 0.59728 0.43614 0.0
C661 C 0.83764 0.60249 0.36918 0.0
C662 C 0.80914 0.59426 0.38941 0.0
C663 C 0.79093 0.60159 0.30054 0.0
C664 C 0.76273 0.57213 0.23461 0.0
C665 C 0.78163 0.62327 0.34645 0.0
C666 C 0.81457 0.61716 0.23256 0.0
C667 C 0.84121 0.61714 0.27366 0.0
C668 C 0.86635 0.62979 0.22521 0.0
C669 C 0.86392 0.64206 0.1301 0.0
C670 C 0.83622 0.64071 0.08289 0.0
C671 C 0.81149 0.62887 0.13602 0.0
H672 H 0.20844 0.75331 0.39728 0.0
H673 H 0.25988 0.85126 0.40495 0.0
H674 H 0.24496 0.85865 0.57521 0.0
H675 H 0.14576 0.74509 0.47695 0.0
H676 H 0.14149 0.71714 0.56445 0.0
H677 H 0.16072 0.72057 0.45424 0.0
H678 H 0.20802 0.7281 0.59691 0.0
H679 H 0.18837 0.72551 0.70549 0.0
H680 H 0.22565 0.75853 0.71079 0.0
H681 H 0.21562 0.85472 0.71896 0.0
H682 H 0.18683 0.84033 0.86696 0.0
H683 H 0.15523 0.74524 0.76546 0.0
C684 C 0.21812 0.77625 0.4392 0.0
C685 C 0.23556 0.80179 0.39049 0.0
C686 C 0.24706 0.8316 0.44382 0.0
C687 C 0.23825 0.83596 0.53911 0.0
C688 C 0.21853 0.81019 0.58003 0.0
C689 C 0.20981 0.78095 0.53525 0.0
C690 C 0.18803 0.7572 0.59434 0.0
C691 C 0.15722 0.73363 0.51769 0.0
C692 C 0.20343 0.7414 0.65556 0.0
C693 C 0.18401 0.77752 0.6726 0.0
C694 C 0.20182 0.80799 0.66353 0.0
C695 C 0.2018 0.83096 0.72791 0.0
C696 C 0.18488 0.82262 0.80969 0.0
C697 C 0.16858 0.79174 0.8248 0.0
C698 C 0.16704 0.76892 0.75282 0.0
H699 H 0.50227 0.25431 0.62257 0.0
H700 H 0.44327 0.29167 0.60904 0.0
H701 H 0.4215 0.27045 0.41431 0.0
H702 H 0.50727 0.25271 0.31577 0.0
H703 H 0.50676 0.21731 0.32146 0.0
H704 H 0.52527 0.2464 0.43967 0.0
H705 H 0.491 0.20495 0.54771 0.0
H706 H 0.47016 0.17694 0.42678 0.0
H707 H 0.44976 0.18704 0.50725 0.0
H708 H 0.39497 0.23158 0.24553 0.0
H709 H 0.38562 0.20098 0.07136 0.0
H710 H 0.4556 0.18157 0.20972 0.0
C711 C 0.48668 0.26014 0.57584 0.0
C712 C 0.47143 0.27112 0.62954 0.0
C713 C 0.45329 0.281 0.56791 0.0
C714 C 0.44004 0.26813 0.45824 0.0
C715 C 0.44841 0.24871 0.4138 0.0
C716 C 0.47266 0.24619 0.46799 0.0
C717 C 0.47494 0.22139 0.40783 0.0
C718 C 0.50534 0.23528 0.36875 0.0
C719 C 0.47127 0.19613 0.47668 0.0
C720 C 0.44751 0.20965 0.31405 0.0
C721 C 0.43236 0.22553 0.31977 0.0
C722 C 0.4074 0.21986 0.23855 0.0
C723 C 0.40151 0.20154 0.14118 0.0
C724 C 0.42274 0.1925 0.12665 0.0
C725 C 0.44058 0.19022 0.21912 0.0
loop_
_geom_bond_atom_site_label_1
_geom_bond_atom_site_label_2
_geom_bond_distance
_geom_bond_site_symmetry_2
_ccdc_geom_bond_type
Gd0 C3 2.818 . S
Gd0 O20 2.377 1_554 S
Gd0 O22 2.448 1_554 S
Gd0 O23 2.506 . S
Gd0 O24 2.435 1_554 S
Gd0 O25 2.717 1_554 S
Gd0 O27 2.395 1_554 S
Gd0 O31 2.327 . S
Gd1 C12 2.818 . S
Gd1 O21 2.395 1_556 S
Gd1 O25 2.327 . S
Gd1 O26 2.377 1_556 S
Gd1 O28 2.448 1_556 S
Gd1 O29 2.506 . S
Gd1 O30 2.435 1_556 S
Gd1 O31 2.717 1_556 S
C2 O20 1.240 1_554 S
C2 O21 1.240 . S
C3 Gd0 2.818 . S
C3 C4 1.510 . S
C3 O22 1.249 1_554 S
C3 O23 1.252 . S
C4 C3 1.510 . S
C4 C5 1.404 . S
C4 C6 1.352 . S
C5 C4 1.404 . S
C5 C9 1.389 . S
C5 H32 0.930 1_554 S
C6 C4 1.352 . S
C6 C8 1.374 . S
C6 H33 0.931 . S
C7 C8 1.359 . S
C7 C9 1.364 . S
C8 C6 1.374 . S
C8 C7 1.359 . S
C8 H34 0.931 . S
C9 C5 1.389 . S
C9 C7 1.364 . S
C9 H35 0.931 . S
C10 O24 1.256 . S
C10 O25 1.257 . S
C11 O26 1.240 1_556 S
C11 O27 1.240 . S
C12 Gd1 2.818 . S
C12 C13 1.510 . S
C12 O28 1.249 1_556 S
C12 O29 1.252 . S
C13 C12 1.510 . S
C13 C14 1.404 . S
C13 C15 1.352 . S
C14 C13 1.404 . S
C14 C18 1.389 . S
C14 H36 0.930 1_556 S
C15 C13 1.352 . S
C15 C17 1.374 . S
C15 H37 0.931 . S
C16 C17 1.359 . S
C16 C18 1.364 . S
C17 C15 1.374 . S
C17 C16 1.359 . S
C17 H38 0.931 . S
C18 C14 1.389 . S
C18 C16 1.364 . S
C18 H39 0.931 . S
C19 O30 1.256 . S
C19 O31 1.257 . S
O20 Gd0 2.377 1_556 S
O20 C2 1.240 1_556 S
O21 Gd1 2.395 1_554 S
O21 C2 1.240 . S
O22 Gd0 2.448 1_556 S
O22 C3 1.249 1_556 S
O23 Gd0 2.506 . S
O23 C3 1.252 . S
O24 Gd0 2.435 1_556 S
O24 C10 1.256 . S
O25 Gd0 2.717 1_556 S
O25 Gd1 2.327 . S
O25 C10 1.257 . S
O26 Gd1 2.377 1_554 S
O26 C11 1.240 1_554 S
O27 Gd0 2.395 1_556 S
O27 C11 1.240 . S
O28 Gd1 2.448 1_554 S
O28 C12 1.249 1_554 S
O29 Gd1 2.506 . S
O29 C12 1.252 . S
O30 Gd1 2.435 1_554 S
O30 C19 1.256 . S
O31 Gd0 2.327 . S
O31 Gd1 2.717 1_554 S
O31 C19 1.257 . S
H32 C5 0.930 1_556 S
H33 C6 0.931 . S
H34 C8 0.931 . S
H35 C9 0.931 . S
H36 C14 0.930 1_554 S
H37 C15 0.931 . S
H38 C17 0.931 . S
H39 C18 0.931 . S
Gd40 C43 2.818 1_556 S
Gd40 O60 2.377 . S
Gd40 O62 2.448 . S
Gd40 O63 2.506 1_556 S
Gd40 O64 2.435 . S
Gd40 O65 2.717 . S
Gd40 O67 2.395 . S
Gd40 O71 2.327 1_556 S
Gd41 C52 2.818 1_554 S
Gd41 O61 2.395 . S
Gd41 O65 2.327 1_554 S
Gd41 O66 2.377 . S
Gd41 O68 2.448 . S
Gd41 O69 2.506 1_554 S
Gd41 O70 2.435 . S
Gd41 O71 2.717 . S
C42 O60 1.240 1_554 S
C42 O61 1.240 . S
C43 Gd40 2.818 1_554 S
C43 C44 1.510 . S
C43 O62 1.249 1_554 S
C43 O63 1.252 . S
C44 C43 1.510 . S
C44 C45 1.404 1_554 S
C44 C46 1.352 . S
C45 C44 1.404 1_556 S
C45 C49 1.388 1_556 S
C45 H72 0.930 . S
C46 C44 1.352 . S
C46 C48 1.374 . S
C46 H73 0.931 . S
C47 C48 1.359 . S
C47 C49 1.366 . S
C48 C46 1.374 . S
C48 C47 1.359 . S
C48 H74 0.931 . S
C49 C45 1.388 1_554 S
C49 C47 1.366 . S
C49 H75 0.930 1_554 S
C50 O64 1.256 . S
C50 O65 1.257 . S
C51 O66 1.240 1_556 S
C51 O67 1.240 . S
C52 Gd41 2.818 1_556 S
C52 C53 1.510 . S
C52 O68 1.249 1_556 S
C52 O69 1.252 . S
C53 C52 1.510 . S
C53 C54 1.404 1_556 S
C53 C55 1.352 . S
C54 C53 1.404 1_554 S
C54 C58 1.387 1_554 S
C54 H76 0.930 . S
C55 C53 1.352 . S
C55 C57 1.374 . S
C55 H77 0.931 . S
C56 C57 1.359 . S
C56 C58 1.368 . S
C57 C55 1.374 . S
C57 C56 1.359 . S
C57 H78 0.931 . S
C58 C54 1.387 1_556 S
C58 C56 1.368 . S
C58 H79 0.929 1_656 S
C59 O70 1.256 . S
C59 O71 1.257 . S
O60 Gd40 2.377 . S
O60 C42 1.240 1_556 S
O61 Gd41 2.395 . S
O61 C42 1.240 . S
O62 Gd40 2.448 . S
O62 C43 1.249 1_556 S
O63 Gd40 2.506 1_554 S
O63 C43 1.252 . S
O64 Gd40 2.435 . S
O64 C50 1.256 . S
O65 Gd40 2.717 . S
O65 Gd41 2.327 1_556 S
O65 C50 1.257 . S
O66 Gd41 2.377 . S
O66 C51 1.240 1_554 S
O67 Gd40 2.395 . S
O67 C51 1.240 . S
O68 Gd41 2.448 . S
O68 C52 1.249 1_554 S
O69 Gd41 2.506 1_556 S
O69 C52 1.252 . S
O70 Gd41 2.435 . S
O70 C59 1.256 . S
O71 Gd40 2.327 1_554 S
O71 Gd41 2.717 . S
O71 C59 1.257 . S
H72 C45 0.930 . S
H73 C46 0.931 . S
H74 C48 0.931 . S
H75 C49 0.930 1_556 S
H76 C54 0.930 . S
H77 C55 0.931 . S
H78 C57 0.931 . S
H79 C58 0.929 1_454 S
Gd80 C83 2.818 . S
Gd80 O100 2.377 . S
Gd80 O102 2.448 . S
Gd80 O103 2.506 1_556 S
Gd80 O104 2.435 . S
Gd80 O105 2.717 . S
Gd80 O107 2.395 1_556 S
Gd80 O111 2.327 1_556 S
Gd81 C92 2.818 . S
Gd81 O101 2.395 1_554 S
Gd81 O105 2.327 1_554 S
Gd81 O106 2.377 . S
Gd81 O108 2.448 . S
Gd81 O109 2.506 1_554 S
Gd81 O110 2.435 . S
Gd81 O111 2.717 . S
C82 O100 1.240 . S
C82 O101 1.240 . S
C83 Gd80 2.818 . S
C83 C84 1.510 . S
C83 O102 1.249 . S
C83 O103 1.252 1_556 S
C84 C83 1.510 . S
C84 C85 1.404 . S
C84 C86 1.352 . S
C85 C84 1.404 . S
C85 C89 1.389 . S
C85 H112 0.930 . S
C86 C84 1.352 . S
C86 C88 1.374 . S
C86 H113 0.931 1_556 S
C87 C88 1.359 . S
C87 C89 1.364 . S
C88 C86 1.374 . S
C88 C87 1.359 . S
C88 H114 0.931 1_556 S
C89 C85 1.389 . S
C89 C87 1.364 . S
C89 H115 0.931 . S
C90 O104 1.256 . S
C90 O105 1.257 . S
C91 O106 1.240 . S
C91 O107 1.240 . S
C92 Gd81 2.818 . S
C92 C93 1.510 . S
C92 O108 1.249 . S
C92 O109 1.252 1_554 S
C93 C92 1.510 . S
C93 C94 1.404 . S
C93 C95 1.352 . S
C94 C93 1.404 . S
C94 C98 1.389 . S
C94 H116 0.930 . S
C95 C93 1.352 . S
C95 C97 1.374 . S
C95 H117 0.931 1_554 S
C96 C97 1.359 . S
C96 C98 1.364 . S
C97 C95 1.374 . S
C97 C96 1.359 . S
C97 H118 0.931 1_554 S
C98 C94 1.389 . S
C98 C96 1.364 . S
C98 H119 0.931 . S
C99 O110 1.256 . S
C99 O111 1.257 . S
O100 Gd80 2.377 . S
O100 C82 1.240 . S
O101 Gd81 2.395 1_556 S
O101 C82 1.240 . S
O102 Gd80 2.448 . S
O102 C83 1.249 . S
O103 Gd80 2.506 1_554 S
O103 C83 1.252 1_554 S
O104 Gd80 2.435 . S
O104 C90 1.256 . S
O105 Gd80 2.717 . S
O105 Gd81 2.327 1_556 S
O105 C90 1.257 . S
O106 Gd81 2.377 . S
O106 C91 1.240 . S
O107 Gd80 2.395 1_554 S
O107 C91 1.240 . S
O108 Gd81 2.448 . S
O108 C92 1.249 . S
O109 Gd81 2.506 1_556 S
O109 C92 1.252 1_556 S
O110 Gd81 2.435 . S
O110 C99 1.256 . S
O111 Gd80 2.327 1_554 S
O111 Gd81 2.717 . S
O111 C99 1.257 . S
H112 C85 0.930 . S
H113 C86 0.931 1_554 S
H114 C88 0.931 1_554 S
H115 C89 0.931 . S
H116 C94 0.930 . S
H117 C95 0.931 1_556 S
H118 C97 0.931 1_556 S
H119 C98 0.931 . S
Gd120 C123 2.818 . S
Gd120 O140 2.377 1_554 S
Gd120 O142 2.448 1_554 S
Gd120 O143 2.506 . S
Gd120 O144 2.435 1_554 S
Gd120 O145 2.717 1_554 S
Gd120 O147 2.395 1_554 S
Gd120 O151 2.327 . S
Gd121 C132 2.818 . S
Gd121 O141 2.395 1_556 S
Gd121 O145 2.327 . S
Gd121 O146 2.377 1_556 S
Gd121 O148 2.448 1_556 S
Gd121 O149 2.506 . S
Gd121 O150 2.435 1_556 S
Gd121 O151 2.717 1_556 S
C122 O140 1.240 1_554 S
C122 O141 1.240 . S
C123 Gd120 2.818 . S
C123 C124 1.510 . S
C123 O142 1.249 1_554 S
C123 O143 1.252 . S
C124 C123 1.510 . S
C124 C125 1.404 . S
C124 C126 1.352 . S
C125 C124 1.404 . S
C125 C129 1.389 . S
C125 H152 0.930 1_554 S
C126 C124 1.352 . S
C126 C128 1.374 . S
C126 H153 0.931 . S
C127 C128 1.359 . S
C127 C129 1.364 . S
C128 C126 1.374 . S
C128 C127 1.359 . S
C128 H154 0.931 . S
C129 C125 1.389 . S
C129 C127 1.364 . S
C129 H155 0.931 . S
C130 O144 1.256 . S
C130 O145 1.257 . S
C131 O146 1.240 1_556 S
C131 O147 1.240 . S
C132 Gd121 2.818 . S
C132 C133 1.510 . S
C132 O148 1.249 1_556 S
C132 O149 1.252 . S
C133 C132 1.510 . S
C133 C134 1.404 . S
C133 C135 1.352 . S
C134 C133 1.404 . S
C134 C138 1.389 . S
C134 H156 0.930 1_556 S
C135 C133 1.352 . S
C135 C137 1.374 . S
C135 H157 0.931 . S
C136 C137 1.359 . S
C136 C138 1.364 . S
C137 C135 1.374 . S
C137 C136 1.359 . S
C137 H158 0.931 . S
C138 C134 1.389 . S
C138 C136 1.364 . S
C138 H159 0.931 . S
C139 O150 1.256 . S
C139 O151 1.257 . S
O140 Gd120 2.377 1_556 S
O140 C122 1.240 1_556 S
O141 Gd121 2.395 1_554 S
O141 C122 1.240 . S
O142 Gd120 2.448 1_556 S
O142 C123 1.249 1_556 S
O143 Gd120 2.506 . S
O143 C123 1.252 . S
O144 Gd120 2.435 1_556 S
O144 C130 1.256 . S
O145 Gd120 2.717 1_556 S
O145 Gd121 2.327 . S
O145 C130 1.257 . S
O146 Gd121 2.377 1_554 S
O146 C131 1.240 1_554 S
O147 Gd120 2.395 1_556 S
O147 C131 1.240 . S
O148 Gd121 2.448 1_554 S
O148 C132 1.249 1_554 S
O149 Gd121 2.506 . S
O149 C132 1.252 . S
O150 Gd121 2.435 1_554 S
O150 C139 1.256 . S
O151 Gd120 2.327 . S
O151 Gd121 2.717 1_554 S
O151 C139 1.257 . S
H152 C125 0.930 1_556 S
H153 C126 0.931 . S
H154 C128 0.931 . S
H155 C129 0.931 . S
H156 C134 0.930 1_554 S
H157 C135 0.931 . S
H158 C137 0.931 . S
H159 C138 0.931 . S
Gd160 C163 2.818 1_556 S
Gd160 O180 2.377 . S
Gd160 O182 2.448 . S
Gd160 O183 2.506 1_556 S
Gd160 O184 2.435 . S
Gd160 O185 2.717 . S
Gd160 O187 2.395 . S
Gd160 O191 2.327 1_556 S
Gd161 C172 2.818 1_554 S
Gd161 O181 2.395 . S
Gd161 O185 2.327 1_554 S
Gd161 O186 2.377 . S
Gd161 O188 2.448 . S
Gd161 O189 2.506 1_554 S
Gd161 O190 2.435 . S
Gd161 O191 2.717 . S
C162 O180 1.240 1_554 S
C162 O181 1.240 . S
C163 Gd160 2.818 1_554 S
C163 C164 1.510 . S
C163 O182 1.249 1_554 S
C163 O183 1.252 . S
C164 C163 1.510 . S
C164 C165 1.404 1_554 S
C164 C166 1.352 . S
C165 C164 1.404 1_556 S
C165 C169 1.387 1_556 S
C165 H192 0.930 . S
C166 C164 1.352 . S
C166 C168 1.374 . S
C166 H193 0.931 . S
C167 C168 1.359 . S
C167 C169 1.368 . S
C168 C166 1.374 . S
C168 C167 1.359 . S
C168 H194 0.931 . S
C169 C165 1.387 1_554 S
C169 C167 1.368 . S
C169 H195 0.929 1_454 S
C170 O184 1.256 . S
C170 O185 1.257 . S
C171 O186 1.240 1_556 S
C171 O187 1.240 . S
C172 Gd161 2.818 1_556 S
C172 C173 1.510 . S
C172 O188 1.249 1_556 S
C172 O189 1.252 . S
C173 C172 1.510 . S
C173 C174 1.404 1_556 S
C173 C175 1.352 . S
C174 C173 1.404 1_554 S
C174 C178 1.388 1_554 S
C174 H196 0.930 . S
C175 C173 1.352 . S
C175 C177 1.374 . S
C175 H197 0.931 . S
C176 C177 1.359 . S
C176 C178 1.366 . S
C177 C175 1.374 . S
C177 C176 1.359 . S
C177 H198 0.931 . S
C178 C174 1.388 1_556 S
C178 C176 1.366 . S
C178 H199 0.930 1_556 S
C179 O190 1.256 . S
C179 O191 1.257 . S
O180 Gd160 2.377 . S
O180 C162 1.240 1_556 S
O181 Gd161 2.395 . S
O181 C162 1.240 . S
O182 Gd160 2.448 . S
O182 C163 1.249 1_556 S
O183 Gd160 2.506 1_554 S
O183 C163 1.252 . S
O184 Gd160 2.435 . S
O184 C170 1.256 . S
O185 Gd160 2.717 . S
O185 Gd161 2.327 1_556 S
O185 C170 1.257 . S
O186 Gd161 2.377 . S
O186 C171 1.240 1_554 S
O187 Gd160 2.395 . S
O187 C171 1.240 . S
O188 Gd161 2.448 . S
O188 C172 1.249 1_554 S
O189 Gd161 2.506 1_556 S
O189 C172 1.252 . S
O190 Gd161 2.435 . S
O190 C179 1.256 . S
O191 Gd160 2.327 1_554 S
O191 Gd161 2.717 . S
O191 C179 1.257 . S
H192 C165 0.930 . S
H193 C166 0.931 . S
H194 C168 0.931 . S
H195 C169 0.929 1_656 S
H196 C174 0.930 . S
H197 C175 0.931 . S
H198 C177 0.931 . S
H199 C178 0.930 1_554 S
Gd200 C203 2.818 . S
Gd200 O220 2.377 . S
Gd200 O222 2.448 . S
Gd200 O223 2.506 1_556 S
Gd200 O224 2.435 . S
Gd200 O225 2.717 . S
Gd200 O227 2.395 1_556 S
Gd200 O231 2.327 1_556 S
Gd201 C212 2.818 . S
Gd201 O221 2.395 1_554 S
Gd201 O225 2.327 1_554 S
Gd201 O226 2.377 . S
Gd201 O228 2.448 . S
Gd201 O229 2.506 1_554 S
Gd201 O230 2.435 . S
Gd201 O231 2.717 . S
C202 O220 1.240 . S
C202 O221 1.240 . S
C203 Gd200 2.818 . S
C203 C204 1.510 . S
C203 O222 1.249 . S
C203 O223 1.252 1_556 S
C204 C203 1.510 . S
C204 C205 1.404 . S
C204 C206 1.352 . S
C205 C204 1.404 . S
C205 C209 1.389 . S
C205 H232 0.930 . S
C206 C204 1.352 . S
C206 C208 1.374 . S
C206 H233 0.931 1_556 S
C207 C208 1.359 . S
C207 C209 1.364 . S
C208 C206 1.374 . S
C208 C207 1.359 . S
C208 H234 0.931 1_556 S
C209 C205 1.389 . S
C209 C207 1.364 . S
C209 H235 0.931 . S
C210 O224 1.256 . S
C210 O225 1.257 . S
C211 O226 1.240 . S
C211 O227 1.240 . S
C212 Gd201 2.818 . S
C212 C213 1.510 . S
C212 O228 1.249 . S
C212 O229 1.252 1_554 S
C213 C212 1.510 . S
C213 C214 1.404 . S
C213 C215 1.352 . S
C214 C213 1.404 . S
C214 C218 1.389 . S
C214 H236 0.930 . S
C215 C213 1.352 . S
C215 C217 1.374 . S
C215 H237 0.931 1_554 S
C216 C217 1.359 . S
C216 C218 1.364 . S
C217 C215 1.374 . S
C217 C216 1.359 . S
C217 H238 0.931 1_554 S
C218 C214 1.389 . S
C218 C216 1.364 . S
C218 H239 0.931 . S
C219 O230 1.256 . S
C219 O231 1.257 . S
O220 Gd200 2.377 . S
O220 C202 1.240 . S
O221 Gd201 2.395 1_556 S
O221 C202 1.240 . S
O222 Gd200 2.448 . S
O222 C203 1.249 . S
O223 Gd200 2.506 1_554 S
O223 C203 1.252 1_554 S
O224 Gd200 2.435 . S
O224 C210 1.256 . S
O225 Gd200 2.717 . S
O225 Gd201 2.327 1_556 S
O225 C210 1.257 . S
O226 Gd201 2.377 . S
O226 C211 1.240 . S
O227 Gd200 2.395 1_554 S
O227 C211 1.240 . S
O228 Gd201 2.448 . S
O228 C212 1.249 . S
O229 Gd201 2.506 1_556 S
O229 C212 1.252 1_556 S
O230 Gd201 2.435 . S
O230 C219 1.256 . S
O231 Gd200 2.327 1_554 S
O231 Gd201 2.717 . S
O231 C219 1.257 . S
H232 C205 0.930 . S
H233 C206 0.931 1_554 S
H234 C208 0.931 1_554 S
H235 C209 0.931 . S
H236 C214 0.930 . S
H237 C215 0.931 1_556 S
H238 C217 0.931 1_556 S
H239 C218 0.931 . S
H240 C252 0.930 . S
H241 C254 0.930 . S
H242 C255 0.930 . S
H243 C259 0.959 . S
H244 C259 0.959 . S
H245 C259 0.961 . S
H246 C260 0.960 . S
H247 C260 0.961 . S
H248 C260 0.959 . S
H249 C263 0.929 . S
H250 C264 0.931 . S
H251 C266 0.930 . S
C252 H240 0.930 . S
C252 C253 1.399 . S
C252 C257 1.399 . S
C253 C252 1.399 . S
C253 C254 1.376 . S
C254 H241 0.930 . S
C254 C253 1.376 . S
C254 C255 1.388 . S
C255 H242 0.930 . S
C255 C254 1.388 . S
C255 C256 1.390 . S
C256 C255 1.390 . S
C256 C257 1.394 . S
C256 C262 1.465 . S
C257 C252 1.399 . S
C257 C256 1.394 . S
C257 C258 1.516 . S
C258 C257 1.516 . S
C258 C259 1.502 . S
C258 C260 1.561 . S
C258 C261 1.526 . S
C259 H243 0.959 . S
C259 H244 0.959 . S
C259 H245 0.961 . S
C259 C258 1.502 . S
C260 H246 0.960 . S
C260 H247 0.961 . S
C260 H248 0.959 . S
C260 C258 1.561 . S
C261 C258 1.526 . S
C261 C262 1.396 . S
C261 C266 1.390 . S
C262 C256 1.465 . S
C262 C261 1.396 . S
C262 C263 1.399 . S
C263 H249 0.929 . S
C263 C262 1.399 . S
C263 C264 1.385 . S
C264 H250 0.931 . S
C264 C263 1.385 . S
C264 C265 1.389 . S
C265 C264 1.389 . S
C265 C266 1.387 . S
C266 H251 0.930 . S
C266 C261 1.390 . S
C266 C265 1.387 . S
H267 C279 0.930 . S
H268 C281 0.930 . S
H269 C282 0.930 . S
H270 C286 0.959 . S
H271 C286 0.959 . S
H272 C286 0.961 . S
H273 C287 0.960 . S
H274 C287 0.961 . S
H275 C287 0.959 . S
H276 C290 0.929 . S
H277 C291 0.931 . S
H278 C293 0.930 1_655 S
C279 H267 0.930 . S
C279 C280 1.399 . S
C279 C284 1.399 . S
C280 C279 1.399 . S
C280 C281 1.376 . S
C281 H268 0.930 . S
C281 C280 1.376 . S
C281 C282 1.388 . S
C282 H269 0.930 . S
C282 C281 1.388 . S
C282 C283 1.390 . S
C283 C282 1.390 . S
C283 C284 1.394 . S
C283 C289 1.465 . S
C284 C279 1.399 . S
C284 C283 1.394 . S
C284 C285 1.516 . S
C285 C284 1.516 . S
C285 C286 1.502 1_455 S
C285 C287 1.561 . S
C285 C288 1.526 . S
C286 H270 0.959 . S
C286 H271 0.959 . S
C286 H272 0.961 . S
C286 C285 1.502 1_655 S
C287 H273 0.960 . S
C287 H274 0.961 . S
C287 H275 0.959 . S
C287 C285 1.561 . S
C288 C285 1.526 . S
C288 C289 1.396 . S
C288 C293 1.390 . S
C289 C283 1.465 . S
C289 C288 1.396 . S
C289 C290 1.399 . S
C290 H276 0.929 . S
C290 C289 1.399 . S
C290 C291 1.385 . S
C291 H277 0.931 . S
C291 C290 1.385 . S
C291 C292 1.389 . S
C292 C291 1.389 . S
C292 C293 1.387 . S
C293 H278 0.930 1_455 S
C293 C288 1.390 . S
C293 C292 1.387 . S
H294 C306 0.930 . S
H295 C308 0.930 . S
H296 C309 0.930 . S
H297 C313 0.959 . S
H298 C313 0.959 1_565 S
H299 C313 0.961 . S
H300 C314 0.960 . S
H301 C314 0.961 1_565 S
H302 C314 0.959 . S
H303 C317 0.929 . S
H304 C318 0.931 . S
H305 C320 0.936 . S
C306 H294 0.930 . S
C306 C307 1.399 . S
C306 C311 1.399 . S
C307 C306 1.399 . S
C307 C308 1.376 . S
C308 H295 0.930 . S
C308 C307 1.376 . S
C308 C309 1.388 . S
C309 H296 0.930 . S
C309 C308 1.388 . S
C309 C310 1.390 . S
C310 C309 1.390 . S
C310 C311 1.394 . S
C310 C316 1.465 . S
C311 C306 1.399 . S
C311 C310 1.394 . S
C311 C312 1.516 . S
C312 C311 1.516 . S
C312 C313 1.502 . S
C312 C314 1.561 . S
C312 C315 1.526 . S
C313 H297 0.959 . S
C313 H298 0.959 1_545 S
C313 H299 0.961 . S
C313 C312 1.502 . S
C314 H300 0.960 . S
C314 H301 0.961 1_545 S
C314 H302 0.959 . S
C314 C312 1.561 . S
C315 C312 1.526 . S
C315 C316 1.396 . S
C315 C320 1.384 1_545 S
C316 C310 1.465 . S
C316 C315 1.396 . S
C316 C317 1.399 . S
C317 H303 0.929 . S
C317 C316 1.399 . S
C317 C318 1.385 . S
C318 H304 0.931 . S
C318 C317 1.385 . S
C318 C319 1.389 . S
C319 C318 1.389 . S
C319 C320 1.386 1_545 S
C320 H305 0.936 . S
C320 C315 1.384 1_565 S
C320 C319 1.386 1_565 S
H321 C333 0.930 . S
H322 C335 0.930 . S
H323 C336 0.930 . S
H324 C340 0.959 . S
H325 C340 0.959 . S
H326 C340 0.961 . S
H327 C341 0.960 . S
H328 C341 0.961 . S
H329 C341 0.959 . S
H330 C344 0.929 . S
H331 C345 0.931 . S
H332 C347 0.930 . S
C333 H321 0.930 . S
C333 C334 1.399 . S
C333 C338 1.399 . S
C334 C333 1.399 . S
C334 C335 1.376 . S
C335 H322 0.930 . S
C335 C334 1.376 . S
C335 C336 1.388 . S
C336 H323 0.930 . S
C336 C335 1.388 . S
C336 C337 1.390 . S
C337 C336 1.390 . S
C337 C338 1.394 . S
C337 C343 1.465 . S
C338 C333 1.399 . S
C338 C337 1.394 . S
C338 C339 1.516 . S
C339 C338 1.516 . S
C339 C340 1.502 . S
C339 C341 1.561 . S
C339 C342 1.526 . S
C340 H324 0.959 . S
C340 H325 0.959 . S
C340 H326 0.961 . S
C340 C339 1.502 . S
C341 H327 0.960 . S
C341 H328 0.961 . S
C341 H329 0.959 . S
C341 C339 1.561 . S
C342 C339 1.526 . S
C342 C343 1.396 . S
C342 C347 1.390 . S
C343 C337 1.465 . S
C343 C342 1.396 . S
C343 C344 1.399 . S
C344 H330 0.929 . S
C344 C343 1.399 . S
C344 C345 1.385 . S
C345 H331 0.931 . S
C345 C344 1.385 . S
C345 C346 1.389 . S
C346 C345 1.389 . S
C346 C347 1.387 . S
C347 H332 0.930 . S
C347 C342 1.390 . S
C347 C346 1.387 . S
H348 C360 0.930 . S
H349 C362 0.930 1_455 S
H350 C363 0.909 1_455 S
H351 C367 0.959 . S
H352 C367 0.959 . S
H353 C367 0.961 . S
H354 C368 0.960 . S
H355 C368 0.961 . S
H356 C368 0.959 . S
H357 C371 0.929 . S
H358 C372 0.931 . S
H359 C374 0.930 . S
C360 H348 0.930 . S
C360 C361 1.399 . S
C360 C365 1.399 . S
C361 C360 1.399 . S
C361 C362 1.376 . S
C362 H349 0.930 1_655 S
C362 C361 1.376 . S
C362 C363 1.388 . S
C363 H350 0.909 1_655 S
C363 C362 1.388 . S
C363 C364 1.390 . S
C364 C363 1.390 . S
C364 C365 1.394 . S
C364 C370 1.465 . S
C365 C360 1.399 . S
C365 C364 1.394 . S
C365 C366 1.516 . S
C366 C365 1.516 . S
C366 C367 1.502 . S
C366 C368 1.561 . S
C366 C369 1.526 . S
C367 H351 0.959 . S
C367 H352 0.959 . S
C367 H353 0.961 . S
C367 C366 1.502 . S
C368 H354 0.960 . S
C368 H355 0.961 . S
C368 H356 0.959 . S
C368 C366 1.561 . S
C369 C366 1.526 . S
C369 C370 1.396 . S
C369 C374 1.390 . S
C370 C364 1.465 . S
C370 C369 1.396 . S
C370 C371 1.399 . S
C371 H357 0.929 . S
C371 C370 1.399 . S
C371 C372 1.385 . S
C372 H358 0.931 . S
C372 C371 1.385 . S
C372 C373 1.389 . S
C373 C372 1.389 . S
C373 C374 1.387 . S
C374 H359 0.930 . S
C374 C369 1.390 . S
C374 C373 1.387 . S
H375 C387 0.930 . S
H376 C389 0.930 . S
H377 C390 0.930 . S
H378 C394 0.959 . S
H379 C394 0.959 1_545 S
H380 C394 0.961 . S
H381 C395 0.960 . S
H382 C395 0.947 1_545 S
H383 C395 0.959 . S
H384 C398 0.929 . S
H385 C399 0.931 . S
H386 C401 0.927 . S
C387 H375 0.930 . S
C387 C388 1.399 . S
C387 C392 1.399 . S
C388 C387 1.399 . S
C388 C389 1.376 . S
C389 H376 0.930 . S
C389 C388 1.376 . S
C389 C390 1.388 . S
C390 H377 0.930 . S
C390 C389 1.388 . S
C390 C391 1.390 . S
C391 C390 1.390 . S
C391 C392 1.394 . S
C391 C397 1.465 . S
C392 C387 1.399 . S
C392 C391 1.394 . S
C392 C393 1.516 . S
C393 C392 1.516 . S
C393 C394 1.502 . S
C393 C395 1.561 . S
C393 C396 1.526 . S
C394 H378 0.959 . S
C394 H379 0.959 1_565 S
C394 H380 0.961 . S
C394 C393 1.502 . S
C395 H381 0.960 . S
C395 H382 0.947 1_565 S
C395 H383 0.959 . S
C395 C393 1.561 . S
C396 C393 1.526 . S
C396 C397 1.396 . S
C396 C401 1.392 1_565 S
C397 C391 1.465 . S
C397 C396 1.396 . S
C397 C398 1.399 . S
C398 H384 0.929 . S
C398 C397 1.399 . S
C398 C399 1.385 . S
C399 H385 0.931 . S
C399 C398 1.385 . S
C399 C400 1.389 . S
C400 C399 1.389 . S
C400 C401 1.387 1_565 S
C401 H386 0.927 . S
C401 C396 1.392 1_545 S
C401 C400 1.387 1_545 S
H402 C414 0.930 . S
H403 C416 0.930 . S
H404 C417 0.930 . S
H405 C421 0.959 . S
H406 C421 0.959 . S
H407 C421 0.961 . S
H408 C422 0.960 . S
H409 C422 0.961 . S
H410 C422 0.959 . S
H411 C425 0.929 1_554 S
H412 C426 0.931 . S
H413 C428 0.930 . S
C414 H402 0.930 . S
C414 C415 1.399 . S
C414 C419 1.399 . S
C415 C414 1.399 . S
C415 C416 1.376 1_556 S
C416 H403 0.930 . S
C416 C415 1.376 1_554 S
C416 C417 1.388 . S
C417 H404 0.930 . S
C417 C416 1.388 . S
C417 C418 1.390 1_554 S
C418 C417 1.390 1_556 S
C418 C419 1.394 . S
C418 C424 1.465 . S
C419 C414 1.399 . S
C419 C418 1.394 . S
C419 C420 1.516 . S
C420 C419 1.516 . S
C420 C421 1.502 . S
C420 C422 1.561 . S
C420 C423 1.526 . S
C421 H405 0.959 . S
C421 H406 0.959 . S
C421 H407 0.961 . S
C421 C420 1.502 . S
C422 H408 0.960 . S
C422 H409 0.961 . S
C422 H410 0.959 . S
C422 C420 1.561 . S
C423 C420 1.526 . S
C423 C424 1.396 . S
C423 C428 1.390 . S
C424 C418 1.465 . S
C424 C423 1.396 . S
C424 C425 1.399 . S
C425 H411 0.929 1_556 S
C425 C424 1.399 . S
C425 C426 1.385 . S
C426 H412 0.931 . S
C426 C425 1.385 . S
C426 C427 1.389 . S
C427 C426 1.389 . S
C427 C428 1.387 . S
C428 H413 0.930 . S
C428 C423 1.390 . S
C428 C427 1.387 . S
H429 C441 0.930 . S
H430 C443 0.930 . S
H431 C444 0.930 . S
H432 C448 0.959 . S
H433 C448 0.959 . S
H434 C448 0.961 . S
H435 C449 0.960 . S
H436 C449 0.961 . S
H437 C449 0.959 . S
H438 C452 0.929 . S
H439 C453 0.931 . S
H440 C455 0.930 . S
C441 H429 0.930 . S
C441 C442 1.399 . S
C441 C446 1.399 . S
C442 C441 1.399 . S
C442 C443 1.376 1_554 S
C443 H430 0.930 . S
C443 C442 1.376 1_556 S
C443 C444 1.388 . S
C444 H431 0.930 . S
C444 C443 1.388 . S
C444 C445 1.390 1_556 S
C445 C444 1.390 1_554 S
C445 C446 1.394 . S
C445 C451 1.465 . S
C446 C441 1.399 . S
C446 C445 1.394 . S
C446 C447 1.516 . S
C447 C446 1.516 . S
C447 C448 1.502 . S
C447 C449 1.561 . S
C447 C450 1.526 . S
C448 H432 0.959 . S
C448 H433 0.959 . S
C448 H434 0.961 . S
C448 C447 1.502 . S
C449 H435 0.960 . S
C449 H436 0.961 . S
C449 H437 0.959 . S
C449 C447 1.561 . S
C450 C447 1.526 . S
C450 C451 1.396 . S
C450 C455 1.390 . S
C451 C445 1.465 . S
C451 C450 1.396 . S
C451 C452 1.399 1_554 S
C452 H438 0.929 . S
C452 C451 1.399 1_556 S
C452 C453 1.385 . S
C453 H439 0.931 . S
C453 C452 1.385 . S
C453 C454 1.389 1_556 S
C454 C453 1.389 1_554 S
C454 C455 1.387 . S
C455 H440 0.930 . S
C455 C450 1.390 . S
C455 C454 1.387 . S
H456 C468 0.930 . S
H457 C470 0.930 1_554 S
H458 C471 0.930 . S
H459 C475 0.959 . S
H460 C475 0.959 . S
H461 C475 0.961 . S
H462 C476 0.960 . S
H463 C476 0.961 . S
H464 C476 0.959 . S
H465 C479 0.929 . S
H466 C480 0.931 . S
H467 C482 0.930 . S
C468 H456 0.930 . S
C468 C469 1.399 . S
C468 C473 1.399 . S
C469 C468 1.399 . S
C469 C470 1.376 . S
C470 H457 0.930 1_556 S
C470 C469 1.376 . S
C470 C471 1.388 1_556 S
C471 H458 0.930 . S
C471 C470 1.388 1_554 S
C471 C472 1.390 1_554 S
C472 C471 1.390 1_556 S
C472 C473 1.394 . S
C472 C478 1.465 . S
C473 C468 1.399 . S
C473 C472 1.394 . S
C473 C474 1.516 . S
C474 C473 1.516 . S
C474 C475 1.502 . S
C474 C476 1.561 . S
C474 C477 1.526 . S
C475 H459 0.959 . S
C475 H460 0.959 . S
C475 H461 0.961 . S
C475 C474 1.502 . S
C476 H462 0.960 . S
C476 H463 0.961 . S
C476 H464 0.959 . S
C476 C474 1.561 . S
C477 C474 1.526 . S
C477 C478 1.396 . S
C477 C482 1.390 . S
C478 C472 1.465 . S
C478 C477 1.396 . S
C478 C479 1.399 1_556 S
C479 H465 0.929 . S
C479 C478 1.399 1_554 S
C479 C480 1.385 . S
C480 H466 0.931 . S
C480 C479 1.385 . S
C480 C481 1.389 1_554 S
C481 C480 1.389 1_556 S
C481 C482 1.387 . S
C482 H467 0.930 . S
C482 C477 1.390 . S
C482 C481 1.387 . S
H483 C495 0.930 . S
H484 C497 0.930 . S
H485 C498 0.930 . S
H486 C502 0.959 . S
H487 C502 0.959 . S
H488 C502 0.961 . S
H489 C503 0.960 . S
H490 C503 0.961 . S
H491 C503 0.959 . S
H492 C506 0.929 . S
H493 C507 0.931 . S
H494 C509 0.930 1_556 S
C495 H483 0.930 . S
C495 C496 1.399 . S
C495 C500 1.399 . S
C496 C495 1.399 . S
C496 C497 1.376 . S
C497 H484 0.930 . S
C497 C496 1.376 . S
C497 C498 1.388 . S
C498 H485 0.930 . S
C498 C497 1.388 . S
C498 C499 1.390 . S
C499 C498 1.390 . S
C499 C500 1.394 . S
C499 C505 1.465 . S
C500 C495 1.399 . S
C500 C499 1.394 . S
C500 C501 1.516 1_554 S
C501 C500 1.516 1_556 S
C501 C502 1.502 . S
C501 C503 1.561 . S
C501 C504 1.526 1_556 S
C502 H486 0.959 . S
C502 H487 0.959 . S
C502 H488 0.961 . S
C502 C501 1.502 . S
C503 H489 0.960 . S
C503 H490 0.961 . S
C503 H491 0.959 . S
C503 C501 1.561 . S
C504 C501 1.526 1_554 S
C504 C505 1.396 . S
C504 C509 1.390 . S
C505 C499 1.465 . S
C505 C504 1.396 . S
C505 C506 1.399 . S
C506 H492 0.929 . S
C506 C505 1.399 . S
C506 C507 1.385 . S
C507 H493 0.931 . S
C507 C506 1.385 . S
C507 C508 1.389 . S
C508 C507 1.389 . S
C508 C509 1.387 . S
C509 H494 0.930 1_554 S
C509 C504 1.390 . S
C509 C508 1.387 . S
H510 C522 0.930 . S
H511 C524 0.930 . S
H512 C525 0.930 . S
H513 C529 0.959 . S
H514 C529 0.959 . S
H515 C529 0.961 . S
H516 C530 0.960 . S
H517 C530 0.961 . S
H518 C530 0.959 . S
H519 C533 0.929 . S
H520 C534 0.931 . S
H521 C536 0.930 . S
C522 H510 0.930 . S
C522 C523 1.399 . S
C522 C527 1.399 . S
C523 C522 1.399 . S
C523 C524 1.376 1_556 S
C524 H511 0.930 . S
C524 C523 1.376 1_554 S
C524 C525 1.388 . S
C525 H512 0.930 . S
C525 C524 1.388 . S
C525 C526 1.390 1_554 S
C526 C525 1.390 1_556 S
C526 C527 1.394 . S
C526 C532 1.465 . S
C527 C522 1.399 . S
C527 C526 1.394 . S
C527 C528 1.516 . S
C528 C527 1.516 . S
C528 C529 1.502 . S
C528 C530 1.561 . S
C528 C531 1.526 . S
C529 H513 0.959 . S
C529 H514 0.959 . S
C529 H515 0.961 . S
C529 C528 1.502 . S
C530 H516 0.960 . S
C530 H517 0.961 . S
C530 H518 0.959 . S
C530 C528 1.561 . S
C531 C528 1.526 . S
C531 C532 1.396 . S
C531 C536 1.390 . S
C532 C526 1.465 . S
C532 C531 1.396 . S
C532 C533 1.399 1_556 S
C533 H519 0.929 . S
C533 C532 1.399 1_554 S
C533 C534 1.385 . S
C534 H520 0.931 . S
C534 C533 1.385 . S
C534 C535 1.389 1_554 S
C535 C534 1.389 1_556 S
C535 C536 1.387 . S
C536 H521 0.930 . S
C536 C531 1.390 . S
C536 C535 1.387 . S
H537 C549 0.930 . S
H538 C551 0.930 . S
H539 C552 0.930 . S
H540 C556 0.959 . S
H541 C556 0.959 . S
H542 C556 0.961 . S
H543 C557 0.960 . S
H544 C557 0.961 . S
H545 C557 0.959 . S
H546 C560 0.929 . S
H547 C561 0.931 1_556 S
H548 C563 0.930 . S
C549 H537 0.930 . S
C549 C550 1.399 . S
C549 C554 1.399 . S
C550 C549 1.399 . S
C550 C551 1.376 1_554 S
C551 H538 0.930 . S
C551 C550 1.376 1_556 S
C551 C552 1.388 . S
C552 H539 0.930 . S
C552 C551 1.388 . S
C552 C553 1.390 1_556 S
C553 C552 1.390 1_554 S
C553 C554 1.394 . S
C553 C559 1.465 . S
C554 C549 1.399 . S
C554 C553 1.394 . S
C554 C555 1.516 . S
C555 C554 1.516 . S
C555 C556 1.502 . S
C555 C557 1.561 . S
C555 C558 1.526 . S
C556 H540 0.959 . S
C556 H541 0.959 . S
C556 H542 0.961 . S
C556 C555 1.502 . S
C557 H543 0.960 . S
C557 H544 0.961 . S
C557 H545 0.959 . S
C557 C555 1.561 . S
C558 C555 1.526 . S
C558 C559 1.396 . S
C558 C563 1.390 . S
C559 C553 1.465 . S
C559 C558 1.396 . S
C559 C560 1.399 1_554 S
C560 H546 0.929 . S
C560 C559 1.399 1_556 S
C560 C561 1.385 1_556 S
C561 H547 0.931 1_554 S
C561 C560 1.385 1_554 S
C561 C562 1.389 . S
C562 C561 1.389 . S
C562 C563 1.387 . S
C563 H548 0.930 . S
C563 C558 1.390 . S
C563 C562 1.387 . S
H564 C576 0.930 . S
H565 C578 0.930 . S
H566 C579 0.930 . S
H567 C583 0.959 . S
H568 C583 0.959 . S
H569 C583 0.961 . S
H570 C584 0.960 . S
H571 C584 0.961 . S
H572 C584 0.959 . S
H573 C587 0.929 . S
H574 C588 0.931 . S
H575 C590 0.930 . S
C576 H564 0.930 . S
C576 C577 1.399 . S
C576 C581 1.399 . S
C577 C576 1.399 . S
C577 C578 1.376 . S
C578 H565 0.930 . S
C578 C577 1.376 . S
C578 C579 1.388 . S
C579 H566 0.930 . S
C579 C578 1.388 . S
C579 C580 1.390 . S
C580 C579 1.390 . S
C580 C581 1.394 . S
C580 C586 1.465 . S
C581 C576 1.399 . S
C581 C580 1.394 . S
C581 C582 1.516 . S
C582 C581 1.516 . S
C582 C583 1.502 . S
C582 C584 1.561 . S
C582 C585 1.526 . S
C583 H567 0.959 . S
C583 H568 0.959 . S
C583 H569 0.961 . S
C583 C582 1.502 . S
C584 H570 0.960 . S
C584 H571 0.961 . S
C584 H572 0.959 . S
C584 C582 1.561 . S
C585 C582 1.526 . S
C585 C586 1.396 . S
C585 C590 1.390 . S
C586 C580 1.465 . S
C586 C585 1.396 . S
C586 C587 1.399 . S
C587 H573 0.929 . S
C587 C586 1.399 . S
C587 C588 1.385 . S
C588 H574 0.931 . S
C588 C587 1.385 . S
C588 C589 1.389 . S
C589 C588 1.389 . S
C589 C590 1.387 . S
C590 H575 0.930 . S
C590 C585 1.390 . S
C590 C589 1.387 . S
H591 C603 0.930 . S
H592 C605 0.930 . S
H593 C606 0.930 . S
H594 C610 0.959 . S
H595 C610 0.959 . S
H596 C610 0.961 . S
H597 C611 0.960 . S
H598 C611 0.961 . S
H599 C611 0.959 . S
H600 C614 0.929 . S
H601 C615 0.931 . S
H602 C617 0.930 . S
C603 H591 0.930 . S
C603 C604 1.399 . S
C603 C608 1.399 . S
C604 C603 1.399 . S
C604 C605 1.376 . S
C605 H592 0.930 . S
C605 C604 1.376 . S
C605 C606 1.388 . S
C606 H593 0.930 . S
C606 C605 1.388 . S
C606 C607 1.390 . S
C607 C606 1.390 . S
C607 C608 1.394 . S
C607 C613 1.465 . S
C608 C603 1.399 . S
C608 C607 1.394 . S
C608 C609 1.516 . S
C609 C608 1.516 . S
C609 C610 1.502 . S
C609 C611 1.561 . S
C609 C612 1.526 . S
C610 H594 0.959 . S
C610 H595 0.959 . S
C610 H596 0.961 . S
C610 C609 1.502 . S
C611 H597 0.960 . S
C611 H598 0.961 . S
C611 H599 0.959 . S
C611 C609 1.561 . S
C612 C609 1.526 . S
C612 C613 1.396 . S
C612 C617 1.390 . S
C613 C607 1.465 . S
C613 C612 1.396 . S
C613 C614 1.399 . S
C614 H600 0.929 . S
C614 C613 1.399 . S
C614 C615 1.385 . S
C615 H601 0.931 . S
C615 C614 1.385 . S
C615 C616 1.389 . S
C616 C615 1.389 . S
C616 C617 1.387 . S
C617 H602 0.930 . S
C617 C612 1.390 . S
C617 C616 1.387 . S
H618 C630 0.930 . S
H619 C632 0.930 . S
H620 C633 0.930 . S
H621 C637 0.959 . S
H622 C637 0.959 . S
H623 C637 0.961 . S
H624 C638 0.960 . S
H625 C638 0.961 . S
H626 C638 0.959 . S
H627 C641 0.929 . S
H628 C642 0.931 . S
H629 C644 0.930 . S
C630 H618 0.930 . S
C630 C631 1.399 . S
C630 C635 1.399 . S
C631 C630 1.399 . S
C631 C632 1.376 . S
C632 H619 0.930 . S
C632 C631 1.376 . S
C632 C633 1.388 . S
C633 H620 0.930 . S
C633 C632 1.388 . S
C633 C634 1.390 . S
C634 C633 1.390 . S
C634 C635 1.394 . S
C634 C640 1.465 . S
C635 C630 1.399 . S
C635 C634 1.394 . S
C635 C636 1.516 . S
C636 C635 1.516 . S
C636 C637 1.502 . S
C636 C638 1.561 . S
C636 C639 1.526 . S
C637 H621 0.959 . S
C637 H622 0.959 . S
C637 H623 0.961 . S
C637 C636 1.502 . S
C638 H624 0.960 . S
C638 H625 0.961 . S
C638 H626 0.959 . S
C638 C636 1.561 . S
C639 C636 1.526 . S
C639 C640 1.396 . S
C639 C644 1.390 . S
C640 C634 1.465 . S
C640 C639 1.396 . S
C640 C641 1.399 . S
C641 H627 0.929 . S
C641 C640 1.399 . S
C641 C642 1.385 . S
C642 H628 0.931 . S
C642 C641 1.385 . S
C642 C643 1.389 . S
C643 C642 1.389 . S
C643 C644 1.387 . S
C644 H629 0.930 . S
C644 C639 1.390 . S
C644 C643 1.387 . S
H645 C657 0.930 . S
H646 C659 0.930 . S
H647 C660 0.930 . S
H648 C664 0.959 . S
H649 C664 0.959 . S
H650 C664 0.961 . S
H651 C665 0.960 . S
H652 C665 0.961 . S
H653 C665 0.959 . S
H654 C668 0.929 . S
H655 C669 0.931 . S
H656 C671 0.930 . S
C657 H645 0.930 . S
C657 C658 1.399 . S
C657 C662 1.399 . S
C658 C657 1.399 . S
C658 C659 1.376 . S
C659 H646 0.930 . S
C659 C658 1.376 . S
C659 C660 1.388 . S
C660 H647 0.930 . S
C660 C659 1.388 . S
C660 C661 1.390 . S
C661 C660 1.390 . S
C661 C662 1.394 . S
C661 C667 1.465 . S
C662 C657 1.399 . S
C662 C661 1.394 . S
C662 C663 1.516 . S
C663 C662 1.516 . S
C663 C664 1.502 . S
C663 C665 1.561 . S
C663 C666 1.526 . S
C664 H648 0.959 . S
C664 H649 0.959 . S
C664 H650 0.961 . S
C664 C663 1.502 . S
C665 H651 0.960 . S
C665 H652 0.961 . S
C665 H653 0.959 . S
C665 C663 1.561 . S
C666 C663 1.526 . S
C666 C667 1.396 . S
C666 C671 1.390 . S
C667 C661 1.465 . S
C667 C666 1.396 . S
C667 C668 1.399 . S
C668 H654 0.929 . S
C668 C667 1.399 . S
C668 C669 1.385 . S
C669 H655 0.931 . S
C669 C668 1.385 . S
C669 C670 1.389 . S
C670 C669 1.389 . S
C670 C671 1.387 . S
C671 H656 0.930 . S
C671 C666 1.390 . S
C671 C670 1.387 . S
H672 C684 0.930 . S
H673 C686 0.930 . S
H674 C687 0.930 . S
H675 C691 0.959 . S
H676 C691 0.959 . S
H677 C691 0.961 . S
H678 C692 0.960 . S
H679 C692 0.961 . S
H680 C692 0.959 . S
H681 C695 0.929 . S
H682 C696 0.931 . S
H683 C698 0.930 . S
C684 H672 0.930 . S
C684 C685 1.399 . S
C684 C689 1.399 . S
C685 C684 1.399 . S
C685 C686 1.376 . S
C686 H673 0.930 . S
C686 C685 1.376 . S
C686 C687 1.388 . S
C687 H674 0.930 . S
C687 C686 1.388 . S
C687 C688 1.390 . S
C688 C687 1.390 . S
C688 C689 1.394 . S
C688 C694 1.465 . S
C689 C684 1.399 . S
C689 C688 1.394 . S
C689 C690 1.516 . S
C690 C689 1.516 . S
C690 C691 1.502 . S
C690 C692 1.561 . S
C690 C693 1.526 . S
C691 H675 0.959 . S
C691 H676 0.959 . S
C691 H677 0.961 . S
C691 C690 1.502 . S
C692 H678 0.960 . S
C692 H679 0.961 . S
C692 H680 0.959 . S
C692 C690 1.561 . S
C693 C690 1.526 . S
C693 C694 1.396 . S
C693 C698 1.390 . S
C694 C688 1.465 . S
C694 C693 1.396 . S
C694 C695 1.399 . S
C695 H681 0.929 . S
C695 C694 1.399 . S
C695 C696 1.385 . S
C696 H682 0.931 . S
C696 C695 1.385 . S
C696 C697 1.389 . S
C697 C696 1.389 . S
C697 C698 1.387 . S
C698 H683 0.930 . S
C698 C693 1.390 . S
C698 C697 1.387 . S
H699 C711 0.930 . S
H700 C713 0.930 . S
H701 C714 0.930 . S
H702 C718 0.959 . S
H703 C718 0.959 . S
H704 C718 0.961 . S
H705 C719 0.960 . S
H706 C719 0.961 . S
H707 C719 0.959 . S
H708 C722 0.929 . S
H709 C723 0.931 . S
H710 C725 0.930 . S
C711 H699 0.930 . S
C711 C712 1.399 . S
C711 C716 1.399 . S
C712 C711 1.399 . S
C712 C713 1.376 . S
C713 H700 0.930 . S
C713 C712 1.376 . S
C713 C714 1.388 . S
C714 H701 0.930 . S
C714 C713 1.388 . S
C714 C715 1.390 . S
C715 C714 1.390 . S
C715 C716 1.394 . S
C715 C721 1.465 . S
C716 C711 1.399 . S
C716 C715 1.394 . S
C716 C717 1.516 . S
C717 C716 1.516 . S
C717 C718 1.502 . S
C717 C719 1.561 . S
C717 C720 1.526 . S
C718 H702 0.959 . S
C718 H703 0.959 . S
C718 H704 0.961 . S
C718 C717 1.502 . S
C719 H705 0.960 . S
C719 H706 0.961 . S
C719 H707 0.959 . S
C719 C717 1.561 . S
C720 C717 1.526 . S
C720 C721 1.396 . S
C720 C725 1.390 . S
C721 C715 1.465 . S
C721 C720 1.396 . S
C721 C722 1.399 . S
C722 H708 0.929 . S
C722 C721 1.399 . S
C722 C723 1.385 . S
C723 H709 0.931 . S
C723 C722 1.385 . S
C723 C724 1.389 . S
C724 C723 1.389 . S
C724 C725 1.387 . S
C725 H710 0.930 . S
C725 C720 1.390 . S
C725 C724 1.387 . S
C253 C202 3.112 . S
C265 C7 2.895 . S
C280 C2 3.278 . S
C292 C56 3.042 1_455 S
C307 C51 3.100 . S
C319 C96 2.944 1_545 S
C334 C136 2.927 . S
C346 C91 3.076 . S
C361 C167 2.998 1_655 S
C373 C131 3.293 . S
C388 C162 3.112 . S
C400 C207 2.952 1_565 S
C415 C171 2.243 . S
C427 C16 2.223 . S
C442 C211 2.083 . S
C454 C47 2.060 . S
C469 C87 2.074 . S
C481 C11 2.124 . S
C496 C127 2.243 . S
C508 C42 2.258 . S
C523 C176 2.053 . S
C535 C82 2.084 . S
C550 C122 2.123 . S
C562 C216 2.073 . S
C577 C10 0.523 . S
C589 C19 0.435 . S
C604 C50 0.321 . S
C616 C59 0.368 . S
C631 C90 0.564 . S
C643 C99 0.384 . S
C658 C130 0.386 . S
C670 C139 0.497 . S
C685 C179 0.242 . S
C697 C170 0.411 . S
C712 C210 0.546 . S
C724 C219 0.405 . S
