# Generated by pormake.
# Topology wna, (6)-cn, num edge types: 1
# Building blocks:
#     Node 0, Type 0, BuildingBlock: HISSIN_clean_sbu_0, # of connection points: 6
#     Node 1, Type 0, BuildingBlock: HISSIN_clean_sbu_0, # of connection points: 6
#     Node 2, Type 0, BuildingBlock: HISSIN_clean_sbu_0, # of connection points: 6
#     Node 3, Type 0, BuildingBlock: HISSIN_clean_sbu_0, # of connection points: 6
#     Node 4, Type 0, BuildingBlock: HISSIN_clean_sbu_0, # of connection points: 6
#     Node 5, Type 0, BuildingBlock: HISSIN_clean_sbu_0, # of connection points: 6
#     Node 6, Type 0, BuildingBlock: HISSIN_clean_sbu_0, # of connection points: 6
#     Node 7, Type 0, BuildingBlock: HISSIN_clean_sbu_0, # of connection points: 6
#     Node 8, Type 0, BuildingBlock: HISSIN_clean_sbu_0, # of connection points: 6
#     Node 9, Type 0, BuildingBlock: HISSIN_clean_sbu_0, # of connection points: 6
#     Node 10, Type 0, BuildingBlock: HISSIN_clean_sbu_0, # of connection points: 6
#     Node 11, Type 0, BuildingBlock: HISSIN_clean_sbu_0, # of connection points: 6
#     Node 12, Type 0, BuildingBlock: HISSIN_clean_sbu_0, # of connection points: 6
#     Node 13, Type 0, BuildingBlock: HISSIN_clean_sbu_0, # of connection points: 6
#     Node 14, Type 0, BuildingBlock: HISSIN_clean_sbu_0, # of connection points: 6
#     Node 15, Type 0, BuildingBlock: HISSIN_clean_sbu_0, # of connection points: 6
#     Node 16, Type 0, BuildingBlock: HISSIN_clean_sbu_0, # of connection points: 6
#     Node 17, Type 0, BuildingBlock: HISSIN_clean_sbu_0, # of connection points: 6
#     Node 18, Type 0, BuildingBlock: HISSIN_clean_sbu_0, # of connection points: 6
#     Node 19, Type 0, BuildingBlock: HISSIN_clean_sbu_0, # of connection points: 6
#     Node 20, Type 0, BuildingBlock: HISSIN_clean_sbu_0, # of connection points: 6
#     Node 21, Type 0, BuildingBlock: HISSIN_clean_sbu_0, # of connection points: 6
#     Node 22, Type 0, BuildingBlock: HISSIN_clean_sbu_0, # of connection points: 6
#     Node 23, Type 0, BuildingBlock: HISSIN_clean_sbu_0, # of connection points: 6
#     Node 24, Type 0, BuildingBlock: HISSIN_clean_sbu_0, # of connection points: 6
#     Node 25, Type 0, BuildingBlock: HISSIN_clean_sbu_0, # of connection points: 6
#     Node 26, Type 0, BuildingBlock: HISSIN_clean_sbu_0, # of connection points: 6
#     Node 27, Type 0, BuildingBlock: HISSIN_clean_sbu_0, # of connection points: 6
#     Node 28, Type 0, BuildingBlock: HISSIN_clean_sbu_0, # of connection points: 6
#     Node 29, Type 0, BuildingBlock: HISSIN_clean_sbu_0, # of connection points: 6
#     Node 30, Type 0, BuildingBlock: HISSIN_clean_sbu_0, # of connection points: 6
#     Node 31, Type 0, BuildingBlock: HISSIN_clean_sbu_0, # of connection points: 6
#     Node 32, Type 0, BuildingBlock: HISSIN_clean_sbu_0, # of connection points: 6
#     Node 33, Type 0, BuildingBlock: HISSIN_clean_sbu_0, # of connection points: 6
#     Node 34, Type 0, BuildingBlock: HISSIN_clean_sbu_0, # of connection points: 6
#     Node 35, Type 0, BuildingBlock: HISSIN_clean_sbu_0, # of connection points: 6
#     Edge 36, Type (0, 0), BuildingBlock: EZIPEK_clean_linker_0, # of connection points: 2
#     Edge 37, Type (0, 0), BuildingBlock: EZIPEK_clean_linker_0, # of connection points: 2
#     Edge 38, Type (0, 0), BuildingBlock: EZIPEK_clean_linker_0, # of connection points: 2
#     Edge 39, Type (0, 0), BuildingBlock: EZIPEK_clean_linker_0, # of connection points: 2
#     Edge 40, Type (0, 0), BuildingBlock: EZIPEK_clean_linker_0, # of connection points: 2
#     Edge 41, Type (0, 0), BuildingBlock: EZIPEK_clean_linker_0, # of connection points: 2
#     Edge 42, Type (0, 0), BuildingBlock: EZIPEK_clean_linker_0, # of connection points: 2
#     Edge 43, Type (0, 0), BuildingBlock: EZIPEK_clean_linker_0, # of connection points: 2
#     Edge 44, Type (0, 0), BuildingBlock: EZIPEK_clean_linker_0, # of connection points: 2
#     Edge 45, Type (0, 0), BuildingBlock: EZIPEK_clean_linker_0, # of connection points: 2
#     Edge 46, Type (0, 0), BuildingBlock: EZIPEK_clean_linker_0, # of connection points: 2
#     Edge 47, Type (0, 0), BuildingBlock: EZIPEK_clean_linker_0, # of connection points: 2
#     Edge 48, Type (0, 0), BuildingBlock: EZIPEK_clean_linker_0, # of connection points: 2
#     Edge 49, Type (0, 0), BuildingBlock: EZIPEK_clean_linker_0, # of connection points: 2
#     Edge 50, Type (0, 0), BuildingBlock: EZIPEK_clean_linker_0, # of connection points: 2
#     Edge 51, Type (0, 0), BuildingBlock: EZIPEK_clean_linker_0, # of connection points: 2
#     Edge 52, Type (0, 0), BuildingBlock: EZIPEK_clean_linker_0, # of connection points: 2
#     Edge 53, Type (0, 0), BuildingBlock: EZIPEK_clean_linker_0, # of connection points: 2
#     Edge 54, Type (0, 0), BuildingBlock: EZIPEK_clean_linker_0, # of connection points: 2
#     Edge 55, Type (0, 0), BuildingBlock: EZIPEK_clean_linker_0, # of connection points: 2
#     Edge 56, Type (0, 0), BuildingBlock: EZIPEK_clean_linker_0, # of connection points: 2
#     Edge 57, Type (0, 0), BuildingBlock: EZIPEK_clean_linker_0, # of connection points: 2
#     Edge 58, Type (0, 0), BuildingBlock: EZIPEK_clean_linker_0, # of connection points: 2
#     Edge 59, Type (0, 0), BuildingBlock: EZIPEK_clean_linker_0, # of connection points: 2
#     Edge 60, Type (0, 0), BuildingBlock: EZIPEK_clean_linker_0, # of connection points: 2
#     Edge 61, Type (0, 0), BuildingBlock: EZIPEK_clean_linker_0, # of connection points: 2
#     Edge 62, Type (0, 0), BuildingBlock: EZIPEK_clean_linker_0, # of connection points: 2
#     Edge 63, Type (0, 0), BuildingBlock: EZIPEK_clean_linker_0, # of connection points: 2
#     Edge 64, Type (0, 0), BuildingBlock: EZIPEK_clean_linker_0, # of connection points: 2
#     Edge 65, Type (0, 0), BuildingBlock: EZIPEK_clean_linker_0, # of connection points: 2
#     Edge 66, Type (0, 0), BuildingBlock: EZIPEK_clean_linker_0, # of connection points: 2
#     Edge 67, Type (0, 0), BuildingBlock: EZIPEK_clean_linker_0, # of connection points: 2
#     Edge 68, Type (0, 0), BuildingBlock: EZIPEK_clean_linker_0, # of connection points: 2
#     Edge 69, Type (0, 0), BuildingBlock: EZIPEK_clean_linker_0, # of connection points: 2
#     Edge 70, Type (0, 0), BuildingBlock: EZIPEK_clean_linker_0, # of connection points: 2
#     Edge 71, Type (0, 0), BuildingBlock: EZIPEK_clean_linker_0, # of connection points: 2
#     Edge 72, Type (0, 0), BuildingBlock: EZIPEK_clean_linker_0, # of connection points: 2
#     Edge 73, Type (0, 0), BuildingBlock: EZIPEK_clean_linker_0, # of connection points: 2
#     Edge 74, Type (0, 0), BuildingBlock: EZIPEK_clean_linker_0, # of connection points: 2
#     Edge 75, Type (0, 0), BuildingBlock: EZIPEK_clean_linker_0, # of connection points: 2
#     Edge 76, Type (0, 0), BuildingBlock: EZIPEK_clean_linker_0, # of connection points: 2
#     Edge 77, Type (0, 0), BuildingBlock: EZIPEK_clean_linker_0, # of connection points: 2
#     Edge 78, Type (0, 0), BuildingBlock: EZIPEK_clean_linker_0, # of connection points: 2
#     Edge 79, Type (0, 0), BuildingBlock: EZIPEK_clean_linker_0, # of connection points: 2
#     Edge 80, Type (0, 0), BuildingBlock: EZIPEK_clean_linker_0, # of connection points: 2
#     Edge 81, Type (0, 0), BuildingBlock: EZIPEK_clean_linker_0, # of connection points: 2
#     Edge 82, Type (0, 0), BuildingBlock: EZIPEK_clean_linker_0, # of connection points: 2
#     Edge 83, Type (0, 0), BuildingBlock: EZIPEK_clean_linker_0, # of connection points: 2
#     Edge 84, Type (0, 0), BuildingBlock: EZIPEK_clean_linker_0, # of connection points: 2
#     Edge 85, Type (0, 0), BuildingBlock: EZIPEK_clean_linker_0, # of connection points: 2
#     Edge 86, Type (0, 0), BuildingBlock: EZIPEK_clean_linker_0, # of connection points: 2
#     Edge 87, Type (0, 0), BuildingBlock: EZIPEK_clean_linker_0, # of connection points: 2
#     Edge 88, Type (0, 0), BuildingBlock: EZIPEK_clean_linker_0, # of connection points: 2
#     Edge 89, Type (0, 0), BuildingBlock: EZIPEK_clean_linker_0, # of connection points: 2
#     Edge 90, Type (0, 0), BuildingBlock: EZIPEK_clean_linker_0, # of connection points: 2
#     Edge 91, Type (0, 0), BuildingBlock: EZIPEK_clean_linker_0, # of connection points: 2
#     Edge 92, Type (0, 0), BuildingBlock: EZIPEK_clean_linker_0, # of connection points: 2
#     Edge 93, Type (0, 0), BuildingBlock: EZIPEK_clean_linker_0, # of connection points: 2
#     Edge 94, Type (0, 0), BuildingBlock: EZIPEK_clean_linker_0, # of connection points: 2
#     Edge 95, Type (0, 0), BuildingBlock: EZIPEK_clean_linker_0, # of connection points: 2
#     Edge 96, Type (0, 0), BuildingBlock: EZIPEK_clean_linker_0, # of connection points: 2
#     Edge 97, Type (0, 0), BuildingBlock: EZIPEK_clean_linker_0, # of connection points: 2
#     Edge 98, Type (0, 0), BuildingBlock: EZIPEK_clean_linker_0, # of connection points: 2
#     Edge 99, Type (0, 0), BuildingBlock: EZIPEK_clean_linker_0, # of connection points: 2
#     Edge 100, Type (0, 0), BuildingBlock: EZIPEK_clean_linker_0, # of connection points: 2
#     Edge 101, Type (0, 0), BuildingBlock: EZIPEK_clean_linker_0, # of connection points: 2
#     Edge 102, Type (0, 0), BuildingBlock: EZIPEK_clean_linker_0, # of connection points: 2
#     Edge 103, Type (0, 0), BuildingBlock: EZIPEK_clean_linker_0, # of connection points: 2
#     Edge 104, Type (0, 0), BuildingBlock: EZIPEK_clean_linker_0, # of connection points: 2
#     Edge 105, Type (0, 0), BuildingBlock: EZIPEK_clean_linker_0, # of connection points: 2
#     Edge 106, Type (0, 0), BuildingBlock: EZIPEK_clean_linker_0, # of connection points: 2
#     Edge 107, Type (0, 0), BuildingBlock: EZIPEK_clean_linker_0, # of connection points: 2
#     Edge 108, Type (0, 0), BuildingBlock: EZIPEK_clean_linker_0, # of connection points: 2
#     Edge 109, Type (0, 0), BuildingBlock: EZIPEK_clean_linker_0, # of connection points: 2
#     Edge 110, Type (0, 0), BuildingBlock: EZIPEK_clean_linker_0, # of connection points: 2
#     Edge 111, Type (0, 0), BuildingBlock: EZIPEK_clean_linker_0, # of connection points: 2
#     Edge 112, Type (0, 0), BuildingBlock: EZIPEK_clean_linker_0, # of connection points: 2
#     Edge 113, Type (0, 0), BuildingBlock: EZIPEK_clean_linker_0, # of connection points: 2
#     Edge 114, Type (0, 0), BuildingBlock: EZIPEK_clean_linker_0, # of connection points: 2
#     Edge 115, Type (0, 0), BuildingBlock: EZIPEK_clean_linker_0, # of connection points: 2
#     Edge 116, Type (0, 0), BuildingBlock: EZIPEK_clean_linker_0, # of connection points: 2
#     Edge 117, Type (0, 0), BuildingBlock: EZIPEK_clean_linker_0, # of connection points: 2
#     Edge 118, Type (0, 0), BuildingBlock: EZIPEK_clean_linker_0, # of connection points: 2
#     Edge 119, Type (0, 0), BuildingBlock: EZIPEK_clean_linker_0, # of connection points: 2
#     Edge 120, Type (0, 0), BuildingBlock: EZIPEK_clean_linker_0, # of connection points: 2
#     Edge 121, Type (0, 0), BuildingBlock: EZIPEK_clean_linker_0, # of connection points: 2
#     Edge 122, Type (0, 0), BuildingBlock: EZIPEK_clean_linker_0, # of connection points: 2
#     Edge 123, Type (0, 0), BuildingBlock: EZIPEK_clean_linker_0, # of connection points: 2
#     Edge 124, Type (0, 0), BuildingBlock: EZIPEK_clean_linker_0, # of connection points: 2
#     Edge 125, Type (0, 0), BuildingBlock: EZIPEK_clean_linker_0, # of connection points: 2
#     Edge 126, Type (0, 0), BuildingBlock: EZIPEK_clean_linker_0, # of connection points: 2
#     Edge 127, Type (0, 0), BuildingBlock: EZIPEK_clean_linker_0, # of connection points: 2
#     Edge 128, Type (0, 0), BuildingBlock: EZIPEK_clean_linker_0, # of connection points: 2
#     Edge 129, Type (0, 0), BuildingBlock: EZIPEK_clean_linker_0, # of connection points: 2
#     Edge 130, Type (0, 0), BuildingBlock: EZIPEK_clean_linker_0, # of connection points: 2
#     Edge 131, Type (0, 0), BuildingBlock: EZIPEK_clean_linker_0, # of connection points: 2
#     Edge 132, Type (0, 0), BuildingBlock: EZIPEK_clean_linker_0, # of connection points: 2
#     Edge 133, Type (0, 0), BuildingBlock: EZIPEK_clean_linker_0, # of connection points: 2
#     Edge 134, Type (0, 0), BuildingBlock: EZIPEK_clean_linker_0, # of connection points: 2
#     Edge 135, Type (0, 0), BuildingBlock: EZIPEK_clean_linker_0, # of connection points: 2
#     Edge 136, Type (0, 0), BuildingBlock: EZIPEK_clean_linker_0, # of connection points: 2
#     Edge 137, Type (0, 0), BuildingBlock: EZIPEK_clean_linker_0, # of connection points: 2
#     Edge 138, Type (0, 0), BuildingBlock: EZIPEK_clean_linker_0, # of connection points: 2
#     Edge 139, Type (0, 0), BuildingBlock: EZIPEK_clean_linker_0, # of connection points: 2
#     Edge 140, Type (0, 0), BuildingBlock: EZIPEK_clean_linker_0, # of connection points: 2
#     Edge 141, Type (0, 0), BuildingBlock: EZIPEK_clean_linker_0, # of connection points: 2
#     Edge 142, Type (0, 0), BuildingBlock: EZIPEK_clean_linker_0, # of connection points: 2
#     Edge 143, Type (0, 0), BuildingBlock: EZIPEK_clean_linker_0, # of connection points: 2
# Relax obj value: 0.144
# Max RMSD: 0.233
# Mean RMSD: 0.214
data_MOF--net-wna--node1-HISSIN_clean_sbu_0--edge1-EZIPEK_clean_linker_0
_symmetry_space_group_name_H-M    P1
_symmetry_Int_Tables_number       1
_symmetry_cell_setting            triclinic
loop_
_symmetry_equiv_pos_as_xyz
'x, y, z'
_cell_length_a     30.601323
_cell_length_b     30.608677
_cell_length_c     126.74798
_cell_angle_alpha  89.91861
_cell_angle_beta   90.069066
_cell_angle_gamma 119.97894
loop_
_atom_site_label
_atom_site_type_symbol
_atom_site_fract_x
_atom_site_fract_y
_atom_site_fract_z
_atom_type_partial_charge
Eu0 Eu 0.12756 0.25885 0.18121 0.0
Eu1 Eu 0.14074 0.27096 0.20729 0.0
C2 C 0.10028 0.33063 0.19398 0.0
C3 C 0.14739 0.26969 0.15078 0.0
C4 C 0.12438 0.27414 0.14158 0.0
C5 C 0.22532 0.298 0.14096 0.0
C6 C 0.15154 0.29063 0.13217 0.0
C7 C 0.19809 0.28165 0.15043 0.0
C8 C 0.20222 0.30297 0.13179 0.0
C9 C 0.11785 0.25421 0.16061 0.0
O10 O 0.05654 0.22042 0.20495 0.0
O11 O 0.05533 0.19419 0.18778 0.0
C12 C 0.03349 0.1895 0.19701 0.0
O13 O 0.16339 0.21335 0.18629 0.0
O14 O 0.13914 0.30925 0.22168 0.0
O15 O 0.16225 0.25322 0.22249 0.0
O16 O 0.13135 0.19514 0.2031 0.0
C17 C 0.14981 0.18474 0.19475 0.0
O18 O 0.20546 0.32576 0.18403 0.0
O19 O 0.2198 0.30677 0.20079 0.0
O20 O 0.136 0.33712 0.2006 0.0
O21 O 0.11882 0.21917 0.16631 0.0
O22 O 0.11973 0.29036 0.16636 0.0
O23 O 0.08255 0.29325 0.18726 0.0
C24 C 0.12349 0.26448 0.23766 0.0
C25 C 0.07782 0.21842 0.23805 0.0
C26 C 0.11424 0.27801 0.25622 0.0
C27 C 0.05054 0.20227 0.24751 0.0
C28 C 0.14151 0.29399 0.2468 0.0
C29 C 0.06857 0.23216 0.25663 0.0
C30 C 0.15226 0.2836 0.2278 0.0
C31 C 0.23625 0.33084 0.19179 0.0
H32 H 0.08538 0.26526 0.14171 0.0
H33 H 0.26443 0.3073 0.14079 0.0
H34 H 0.13311 0.29412 0.12517 0.0
H35 H 0.21658 0.27871 0.15747 0.0
H36 H 0.06315 0.19532 0.23104 0.0
H37 H 0.12856 0.30155 0.26317 0.0
H38 H 1.0152 0.16686 0.24769 0.0
H39 H 0.17654 0.32974 0.24663 0.0
Eu40 Eu 0.77394 0.90867 0.18276 0.0
Eu41 Eu 0.75993 0.90162 0.20876 0.0
C42 C 0.70258 0.80394 0.19408 0.0
C43 C 0.7597 0.91428 0.1523 0.0
C44 C 0.70719 0.89058 0.15146 0.0
C45 C 0.7668 0.93865 0.13389 0.0
C46 C 0.68462 0.89155 0.14189 0.0
C47 C 0.78918 0.93742 0.14341 0.0
C48 C 0.71401 0.91869 0.13301 0.0
C49 C 0.78502 0.91476 0.1622 0.0
O50 O 0.83186 0.8995 0.20636 0.0
O51 O 0.82702 0.882 0.18851 0.0
C52 C 0.84787 0.88709 0.19787 0.0
O53 O 0.84228 0.97666 0.18947 0.0
O54 O 0.71394 0.86212 0.22255 0.0
O55 O 0.78457 0.93199 0.22454 0.0
O56 O 0.80652 0.9846 0.20465 0.0
C57 C 0.84259 1.00355 0.19756 0.0
O58 O 0.72798 0.94637 0.18631 0.0
O59 O 0.6967 0.91261 0.20267 0.0
O60 O 0.73053 0.82246 0.20256 0.0
O61 O 0.79861 0.95358 0.16833 0.0
O62 O 0.76708 0.87265 0.16749 0.0
O63 O 0.70421 0.83377 0.18644 0.0
C64 C 0.75896 0.87329 0.23847 0.0
C65 C 0.7987 0.86279 0.2382 0.0
C66 C 0.74547 0.84988 0.25699 0.0
C67 C 0.81212 0.84652 0.24734 0.0
C68 C 0.73213 0.86621 0.24787 0.0
C69 C 0.78587 0.84048 0.2568 0.0
C70 C 0.74665 0.89419 0.22923 0.0
C71 C 0.69775 0.9387 0.19434 0.0
H72 H 0.68355 0.87065 0.15815 0.0
H73 H 0.7917 0.95444 0.12721 0.0
H74 H 0.64416 0.86933 0.14166 0.0
H75 H 0.82984 0.95421 0.14378 0.0
H76 H 0.81985 0.86811 0.231 0.0
H77 H 0.72491 0.84542 0.26423 0.0
H78 H 0.84345 0.83947 0.24709 0.0
H79 H 0.70146 0.87425 0.24821 0.0
Eu80 Eu 0.12554 0.89226 0.18266 0.0
Eu81 Eu 0.13721 0.89593 0.20896 0.0
C82 C 0.23049 0.92272 0.19387 0.0
C83 C 0.12294 0.86055 0.15264 0.0
C84 C 0.15691 0.89219 0.14491 0.0
C85 C 0.09784 0.78871 0.14094 0.0
C86 C 0.16091 0.87251 0.13527 0.0
C87 C 0.09383 0.80842 0.15063 0.0
C88 C 0.13078 0.82089 0.13315 0.0
C89 C 0.11477 0.88358 0.16214 0.0
O90 O 0.14944 0.97346 0.20438 0.0
O91 O 0.13484 0.96769 0.18636 0.0
C92 C 0.14427 0.99208 0.19534 0.0
O93 O 0.05027 0.87846 0.18911 0.0
O94 O 0.18692 0.93123 0.22246 0.0
O95 O 0.11331 0.86504 0.22477 0.0
O96 O 0.06102 0.88798 0.20723 0.0
C97 C 0.0343 0.88093 0.19865 0.0
O98 O 0.12315 0.82047 0.18768 0.0
O99 O 0.09276 0.81399 0.20446 0.0
O100 O 0.20437 0.89482 0.20187 0.0
O101 O 0.08005 0.85418 0.16882 0.0
O102 O 0.15437 0.91966 0.16681 0.0
O103 O 0.20884 0.93425 0.18631 0.0
C104 C 0.14778 0.92335 0.23892 0.0
C105 C 0.10566 0.92942 0.24056 0.0
C106 C 0.18054 0.96042 0.25606 0.0
C107 C 0.10091 0.95059 0.24999 0.0
C108 C 0.18513 0.93914 0.24671 0.0
C109 C 0.13848 0.96624 0.25778 0.0
C110 C 0.15398 0.90048 0.22927 0.0
C111 C 0.09879 0.79345 0.19593 0.0
H112 H 0.17933 0.9325 0.1462 0.0
H113 H 0.07439 0.74873 0.13941 0.0
H114 H 0.18654 0.8978 0.12933 0.0
H115 H 0.06704 0.78307 0.1564 0.0
H116 H 0.0765 0.91764 0.23461 0.0
H117 H 0.20976 0.97219 0.26201 0.0
H118 H 0.06815 0.95473 0.25123 0.0
H119 H 0.21785 0.93479 0.24558 0.0
Eu120 Eu 0.25188 0.13018 0.37228 0.0
Eu121 Eu 0.26059 0.13204 0.34598 0.0
C122 C 0.32264 0.09643 0.35973 0.0
C123 C 0.27135 0.15949 0.403 0.0
C124 C 0.3182 0.2026 0.40515 0.0
C125 C 0.25126 0.15185 0.42172 0.0
C126 C 0.33218 0.21885 0.41557 0.0
C127 C 0.23729 0.13558 0.41132 0.0
C128 C 0.29955 0.19223 0.42393 0.0
C129 C 0.26124 0.13312 0.39277 0.0
O130 O 0.19563 0.05334 0.35014 0.0
O131 O 0.18945 0.0529 0.36838 0.0
C132 C 0.17385 0.03129 0.35914 0.0
O133 O 0.18804 0.14207 0.36728 0.0
O134 O 0.27249 0.10052 0.33161 0.0
O135 O 0.26085 0.16478 0.33064 0.0
O136 O 0.20345 0.156 0.34932 0.0
C137 C 0.17767 0.15275 0.35786 0.0
O138 O 0.29201 0.21205 0.36729 0.0
O139 O 0.32371 0.20778 0.35123 0.0
O140 O 0.32573 0.1249 0.35179 0.0
O141 O 0.21797 0.11764 0.38805 0.0
O142 O 0.29879 0.14667 0.38621 0.0
O143 O 0.29008 0.08628 0.36735 0.0
C144 C 0.23765 0.11021 0.31585 0.0
C145 C 0.18466 0.08493 0.31596 0.0
C146 C 0.23613 0.08897 0.29741 0.0
C147 C 0.15748 0.06137 0.30677 0.0
C148 C 0.2631 0.11264 0.30651 0.0
C149 C 0.18325 0.0625 0.29751 0.0
C150 C 0.26765 0.1319 0.32543 0.0
C151 C 0.32222 0.23397 0.35925 0.0
H152 H 0.34531 0.22172 0.3989 0.0
H153 H 0.22578 0.13074 0.42809 0.0
H154 H 0.36969 0.25001 0.41716 0.0
H155 H 0.2012 0.10204 0.40988 0.0
H156 H 0.1645 0.0826 0.32315 0.0
H157 H 0.25654 0.09026 0.29032 0.0
H158 H 0.11663 0.04113 0.30695 0.0
H159 H 0.30395 0.13191 0.30632 0.0
Eu160 Eu 0.88931 0.11908 0.37194 0.0
Eu161 Eu 0.88269 0.1263 0.34545 0.0
C162 C 0.91973 0.22322 0.36019 0.0
C163 C 0.88065 0.12718 0.40274 0.0
C164 C 0.84341 0.14101 0.40359 0.0
C165 C 0.88965 0.13103 0.42181 0.0
C166 C 0.82935 0.14977 0.41356 0.0
C167 C 0.90367 0.1224 0.4119 0.0
C168 C 0.85238 0.14466 0.42272 0.0
C169 C 0.89556 0.11596 0.39252 0.0
O170 O 0.96457 0.15275 0.34799 0.0
O171 O 0.96589 0.13634 0.36578 0.0
C172 C 0.98753 0.14928 0.35642 0.0
O173 O 0.8899 0.05029 0.36622 0.0
O174 O 0.86926 0.15829 0.33115 0.0
O175 O 0.88067 0.09402 0.33006 0.0
O176 O 0.85874 0.04487 0.34942 0.0
C177 C 0.87133 0.0258 0.35739 0.0
O178 O 0.80644 0.07982 0.36791 0.0
O179 O 0.80965 0.11614 0.35179 0.0
O180 O 0.9279 0.206 0.35138 0.0
O181 O 0.86046 0.07976 0.3869 0.0
O182 O 0.92746 0.15393 0.38677 0.0
O183 O 0.89324 0.19302 0.36794 0.0
C184 C 0.90358 0.14717 0.31521 0.0
C185 C 0.95652 0.17528 0.31546 0.0
C186 C 0.906 0.14977 0.29605 0.0
C187 C 0.98405 0.19042 0.30603 0.0
C188 C 0.87858 0.13489 0.30546 0.0
C189 C 0.9589 0.17729 0.29625 0.0
C190 C 0.87368 0.12687 0.32489 0.0
C191 C 0.78463 0.08952 0.36004 0.0
H192 H 0.82517 0.14473 0.39659 0.0
H193 H 0.90782 0.12702 0.42879 0.0
H194 H 0.80053 0.16033 0.41414 0.0
H195 H 0.93237 0.11161 0.41138 0.0
H196 H 0.97642 0.18467 0.32293 0.0
H197 H 0.886 0.13931 0.28859 0.0
H198 H 0.02488 0.21167 0.30632 0.0
H199 H 0.83778 0.11287 0.30512 0.0
Eu200 Eu 0.88479 0.7613 0.3707 0.0
Eu201 Eu 0.89425 0.75681 0.34446 0.0
C202 C 0.78815 0.69667 0.35622 0.0
C203 C 0.87863 0.74489 0.4016 0.0
C204 C 0.87373 0.69722 0.40329 0.0
C205 C 0.88374 0.75847 0.42057 0.0
C206 C 0.87257 0.67988 0.41359 0.0
C207 C 0.88492 0.77579 0.4103 0.0
C208 C 0.87624 0.70992 0.42229 0.0
C209 C 0.87052 0.76057 0.3911 0.0
O210 O 0.85992 0.80653 0.3468 0.0
O211 O 0.88277 0.82899 0.3642 0.0
C212 C 0.86711 0.83574 0.35499 0.0
O213 O 0.96827 0.80937 0.36751 0.0
O214 O 0.86946 0.7143 0.32972 0.0
O215 O 0.93162 0.79104 0.32958 0.0
O216 O 0.96447 0.82677 0.34997 0.0
C217 C 0.98838 0.83703 0.35903 0.0
O218 O 0.89816 0.69617 0.3675 0.0
O219 O 0.93545 0.71935 0.35113 0.0
O220 O 0.81742 0.69281 0.34919 0.0
O221 O 0.9087 0.79749 0.38624 0.0
O222 O 0.84005 0.72513 0.38467 0.0
O223 O 0.80687 0.72959 0.36388 0.0
C224 C 0.88174 0.76301 0.31421 0.0
C225 C 0.91496 0.78609 0.30573 0.0
C226 C 0.81448 0.76294 0.30394 0.0
C227 C 0.89823 0.79767 0.29645 0.0
C228 C 0.8313 0.75152 0.31327 0.0
C229 C 0.84794 0.78616 0.2955 0.0
C230 C 0.90109 0.75218 0.32392 0.0
C231 C 0.9257 0.69316 0.35988 0.0
H232 H 0.86868 0.67263 0.3967 0.0
H233 H 0.88652 0.78209 0.42719 0.0
H234 H 0.86671 0.64227 0.41478 0.0
H235 H 0.88839 0.8125 0.40918 0.0
H236 H 0.95401 0.7954 0.30632 0.0
H237 H 0.77557 0.75403 0.30332 0.0
H238 H 0.92451 0.81576 0.29002 0.0
H239 H 0.80507 0.73399 0.31973 0.0
Eu240 Eu 0.89235 0.76515 0.84547 0.0
Eu241 Eu 0.90782 0.78564 0.87142 0.0
C242 C 0.87953 0.8521 0.85612 0.0
C243 C 0.91008 0.75049 0.8158 0.0
C244 C 0.96254 0.77091 0.81638 0.0
C245 C 0.91376 0.74374 0.79678 0.0
C246 C 0.99056 0.77827 0.80716 0.0
C247 C 0.88582 0.73629 0.80598 0.0
C248 C 0.96635 0.76545 0.79729 0.0
C249 C 0.88039 0.74654 0.8252 0.0
O250 O 0.82384 0.7336 0.86961 0.0
O251 O 0.8168 0.70798 0.85229 0.0
C252 C 0.79689 0.70593 0.8616 0.0
O253 O 0.94091 0.73368 0.85128 0.0
O254 O 0.88654 0.80826 0.886 0.0
O255 O 0.94717 0.79094 0.88612 0.0
O256 O 0.91192 0.71507 0.86825 0.0
C257 C 0.93616 0.71007 0.86022 0.0
O258 O 0.96967 0.83468 0.84694 0.0
O259 O 0.98589 0.83535 0.86479 0.0
O260 O 0.90815 0.85294 0.86394 0.0
O261 O 0.87479 0.71306 0.83227 0.0
O262 O 0.88952 0.7891 0.82943 0.0
O263 O 0.85854 0.81382 0.84959 0.0
C264 C 0.90111 0.77766 0.90214 0.0
C265 C 0.91568 0.74372 0.90603 0.0
C266 C 0.85952 0.7719 0.91887 0.0
C267 C 0.9026 0.72446 0.91627 0.0
C268 C 0.87269 0.7913 0.90864 0.0
C269 C 0.87486 0.73881 0.92277 0.0
C270 C 0.91867 0.80244 0.89175 0.0
C271 C 1.00011 0.85267 0.85515 0.0
H272 H 0.98183 0.78223 0.82391 0.0
H273 H 0.89459 0.73389 0.78923 0.0
H274 H 0.03118 0.7953 0.80766 0.0
H275 H 0.84536 0.72063 0.80541 0.0
H276 H 0.93794 0.73274 0.90126 0.0
H277 H 0.83816 0.78337 0.92381 0.0
H278 H 0.91473 0.69894 0.91919 0.0
H279 H 0.86152 0.81783 0.90589 0.0
Eu280 Eu 0.28546 0.1428 0.84533 0.0
Eu281 Eu 0.25935 0.12613 0.87089 0.0
C282 C 0.19315 0.03641 0.85371 0.0
C283 C 0.2902 0.17216 0.81549 0.0
C284 C 0.26575 0.13281 0.80814 0.0
C285 C 0.28161 0.22888 0.80326 0.0
C286 C 0.24938 0.14145 0.79846 0.0
C287 C 0.29798 0.22032 0.81293 0.0
C288 C 0.25746 0.18959 0.79596 0.0
C289 C 0.31047 0.16405 0.82545 0.0
O290 O 0.33163 0.12392 0.86862 0.0
O291 O 0.32169 0.09909 0.85131 0.0
C292 C 0.34143 0.10261 0.86068 0.0
O293 O 0.34694 0.20913 0.85414 0.0
O294 O 0.23626 0.07792 0.8849 0.0
O295 O 0.25729 0.15633 0.88639 0.0
O296 O 0.29834 0.21008 0.86755 0.0
C297 C 0.33701 0.23405 0.86122 0.0
O298 O 0.22551 0.16467 0.84778 0.0
O299 O 0.19285 0.1291 0.86403 0.0
O300 O 0.2088 0.04941 0.86351 0.0
O301 O 0.32241 0.19785 0.83281 0.0
O302 O 0.2893 0.11839 0.82929 0.0
O303 O 0.21313 0.06833 0.84584 0.0
C304 C 0.27216 0.11738 0.90114 0.0
C305 C 0.32403 0.15059 0.90217 0.0
C306 C 0.27054 0.08872 0.91909 0.0
C307 C 0.3491 0.15234 0.91157 0.0
C308 C 0.24555 0.08721 0.90973 0.0
C309 C 0.32369 0.11886 0.92007 0.0
C310 C 0.2446 0.11433 0.89136 0.0
C311 C 0.19073 0.15049 0.85517 0.0
H312 H 0.25982 0.09552 0.80981 0.0
H313 H 0.2882 0.26628 0.80143 0.0
H314 H 0.23087 0.11079 0.79286 0.0
H315 H 0.31729 0.25167 0.81833 0.0
H316 H 0.34513 0.17586 0.89577 0.0
H317 H 0.24705 0.06681 0.92559 0.0
H318 H 0.38801 0.18153 0.91202 0.0
H319 H 0.20501 0.06274 0.90927 0.0
Eu320 Eu 0.90702 0.15024 0.84372 0.0
Eu321 Eu 0.91864 0.14382 0.86965 0.0
C322 C 1.00733 0.16033 0.85425 0.0
C323 C 0.87923 0.12783 0.8137 0.0
C324 C 0.91098 0.13583 0.80506 0.0
C325 C 0.80874 0.0627 0.80372 0.0
C326 C 0.89203 0.10739 0.79587 0.0
C327 C 0.82782 0.09109 0.81298 0.0
C328 C 0.8409 0.07064 0.79514 0.0
C329 C 0.90121 0.15855 0.82328 0.0
O330 O 0.95941 0.227 0.86555 0.0
O331 O 0.91807 0.22374 0.85021 0.0
C332 C 0.94773 0.24924 0.85809 0.0
O333 O 0.82806 0.10443 0.8502 0.0
O334 O 0.96423 0.17258 0.88396 0.0
O335 O 0.88794 0.10892 0.88486 0.0
O336 O 0.84333 0.13912 0.86674 0.0
C337 C 0.81189 0.11273 0.85914 0.0
O338 O 0.89011 0.07004 0.84587 0.0
O339 O 0.89529 0.06515 0.864 0.0
O340 O 0.98059 0.13483 0.86242 0.0
O341 O 0.87094 0.1623 0.83 0.0
O342 O 0.9368 0.15407 0.82792 0.0
O343 O 0.98999 0.181 0.84759 0.0
C344 C 0.92139 0.15824 0.90028 0.0
C345 C 0.88637 0.17472 0.90159 0.0
C346 C 0.93973 0.16924 0.91904 0.0
C347 C 0.87762 0.18774 0.91164 0.0
C348 C 0.94847 0.1563 0.90903 0.0
C349 C 0.90379 0.18435 0.92044 0.0
C350 C 0.9285 0.14001 0.89008 0.0
C351 C 0.88793 0.04509 0.85451 0.0
H352 H 0.95068 0.16399 0.80544 0.0
H353 H 0.76919 0.03424 0.80328 0.0
H354 H 0.91733 0.11378 0.78933 0.0
H355 H 0.80255 0.08413 0.81955 0.0
H356 H 0.86516 0.17645 0.89492 0.0
H357 H 0.96014 0.16636 0.92575 0.0
H358 H 0.84971 0.19932 0.91261 0.0
H359 H 0.97558 0.1436 0.90814 0.0
Eu360 Eu 0.77724 0.87483 0.70745 0.0
Eu361 Eu 0.78377 0.87718 0.68093 0.0
C362 C 0.85957 0.85874 0.69575 0.0
C363 C 0.77341 0.90495 0.73715 0.0
C364 C 0.81312 0.95505 0.73793 0.0
C365 C 0.7468 0.91059 0.75491 0.0
C366 C 0.8202 0.98231 0.74725 0.0
C367 C 0.73982 0.88332 0.74562 0.0
C368 C 0.78761 0.95985 0.75586 0.0
C369 C 0.76821 0.87317 0.72798 0.0
O370 O 0.73484 0.79516 0.68474 0.0
O371 O 0.71822 0.79624 0.70249 0.0
C372 C 0.71158 0.77241 0.69348 0.0
O373 O 0.74234 0.91938 0.70128 0.0
O374 O 0.80573 0.85437 0.66652 0.0
O375 O 0.77469 0.90423 0.66552 0.0
O376 O 0.71322 0.87879 0.6855 0.0
C377 C 0.71253 0.90771 0.69307 0.0
O378 O 0.84517 0.95047 0.70349 0.0
O379 O 0.83061 0.95847 0.68588 0.0
O380 O 0.85482 0.88161 0.68743 0.0
O381 O 0.73086 0.86198 0.72151 0.0
O382 O 0.80948 0.88233 0.72311 0.0
O383 O 0.82555 0.84109 0.70326 0.0
C384 C 0.76433 0.85318 0.65039 0.0
C385 C 0.75078 0.87941 0.6432 0.0
C386 C 0.73796 0.78544 0.63751 0.0
C387 C 0.73138 0.85909 0.63325 0.0
C388 C 0.75723 0.80566 0.64748 0.0
C389 C 0.72545 0.8123 0.6303 0.0
C390 C 0.7908 0.87835 0.66029 0.0
C391 C 0.85552 0.97703 0.69473 0.0
H392 H 0.83939 0.97256 0.73147 0.0
H393 H 0.72136 0.89276 0.76149 0.0
H394 H 0.85189 0.02034 0.74787 0.0
H395 H 0.70901 0.84474 0.74517 0.0
H396 H 0.75651 0.91636 0.64515 0.0
H397 H 0.7337 0.74928 0.63534 0.0
H398 H 0.72208 0.88038 0.62776 0.0
H399 H 0.76772 0.78463 0.65278 0.0
Eu400 Eu 0.15698 0.88859 0.70956 0.0
Eu401 Eu 0.15011 0.89006 0.68288 0.0
C402 C 0.16554 0.98644 0.6971 0.0
C403 C 0.13252 0.85559 0.73919 0.0
C404 C 0.08283 0.84657 0.7398 0.0
C405 C 0.1251 0.8237 0.75707 0.0
C406 C 0.05496 0.8274 0.74909 0.0
C407 C 0.15305 0.84308 0.7478 0.0
C408 C 0.0763 0.81671 0.75783 0.0
C409 C 0.16457 0.88084 0.72997 0.0
O410 O 0.23272 0.92109 0.68565 0.0
O411 O 0.23673 0.91696 0.70383 0.0
C412 C 0.25785 0.92786 0.69445 0.0
O413 O 0.11196 0.80847 0.70378 0.0
O414 O 0.17244 0.92961 0.66779 0.0
O415 O 0.11465 0.8506 0.66823 0.0
O416 O 0.14728 0.81738 0.68746 0.0
C417 C 0.12106 0.78916 0.69543 0.0
O418 O 0.07693 0.87036 0.70713 0.0
O419 O 0.07257 0.87071 0.68885 0.0
O420 O 0.16063 0.96511 0.68786 0.0
O421 O 0.17041 0.85239 0.72312 0.0
O422 O 0.15883 0.91602 0.72548 0.0
O423 O 0.16719 0.96561 0.70608 0.0
C424 C 0.16258 0.88211 0.65237 0.0
C425 C 0.16806 0.83973 0.65066 0.0
C426 C 0.18997 0.9097 0.63438 0.0
C427 C 0.18367 0.83208 0.64078 0.0
C428 C 0.17435 0.9173 0.64421 0.0
C429 C 0.19397 0.86671 0.63256 0.0
C430 C 0.14237 0.88978 0.6623 0.0
C431 C 0.05278 0.86681 0.6983 0.0
H432 H 0.06618 0.85575 0.73323 0.0
H433 H 0.14213 0.81586 0.76377 0.0
H434 H 0.01739 0.82239 0.74959 0.0
H435 H 0.19129 0.84976 0.74747 0.0
H436 H 0.15932 0.81213 0.65685 0.0
H437 H 0.19755 0.93661 0.6281 0.0
H438 H 0.18643 0.79859 0.63946 0.0
H439 H 0.1703 0.95017 0.64537 0.0
Eu440 Eu 0.13536 0.25336 0.70785 0.0
Eu441 Eu 0.13061 0.24408 0.68158 0.0
C442 C 0.03497 0.17476 0.69564 0.0
C443 C 0.1587 0.25572 0.73771 0.0
C444 C 0.17692 0.22173 0.73752 0.0
C445 C 0.1783 0.26991 0.75637 0.0
C446 C 0.19496 0.21128 0.74677 0.0
C447 C 0.16008 0.28018 0.74714 0.0
C448 C 0.1952 0.23492 0.75627 0.0
C449 C 0.13543 0.26384 0.72833 0.0
O450 O 0.13493 0.31828 0.68492 0.0
O451 O 0.09958 0.29694 0.7014 0.0
C452 C 0.11094 0.32452 0.69282 0.0
O453 O 0.21689 0.29905 0.70273 0.0
O454 O 0.09009 0.23705 0.66695 0.0
O455 O 0.15597 0.22818 0.66668 0.0
O456 O 0.21253 0.29894 0.68447 0.0
C457 C 0.23803 0.31238 0.69336 0.0
O458 O 0.16456 0.20009 0.70509 0.0
O459 O 0.13359 0.17632 0.68819 0.0
O460 O 0.05091 0.2066 0.68777 0.0
O461 O 0.16501 0.30031 0.72198 0.0
O462 O 0.10325 0.22337 0.72326 0.0
O463 O 0.06422 0.18127 0.70375 0.0
C464 C 0.13442 0.25435 0.65081 0.0
C465 C 0.15895 0.30708 0.64986 0.0
C466 C 0.13141 0.24693 0.63171 0.0
C467 C 0.16953 0.32958 0.63984 0.0
C468 C 0.12096 0.22453 0.64169 0.0
C469 C 0.15555 0.29953 0.63072 0.0
C470 C 0.1205 0.22909 0.66114 0.0
C471 C 0.15368 0.17019 0.69689 0.0
H472 H 0.17615 0.20254 0.73028 0.0
H473 H 0.17829 0.28843 0.76365 0.0
H474 H 0.20789 0.18418 0.74657 0.0
H475 H 0.14608 0.30643 0.74742 0.0
H476 H 0.16941 0.33062 0.65684 0.0
H477 H 0.12041 0.22324 0.62475 0.0
H478 H 0.18819 0.37028 0.6392 0.0
H479 H 0.10184 0.18378 0.64229 0.0
Eu480 Eu 0.80273 0.57775 0.5163 0.0
Eu481 Eu 0.8193 0.59862 0.54226 0.0
C482 C 0.77469 0.65246 0.5279 0.0
C483 C 0.81176 0.59139 0.48564 0.0
C484 C 0.80243 0.63006 0.48245 0.0
C485 C 0.85014 0.59629 0.46851 0.0
C486 C 0.81621 0.65106 0.47233 0.0
C487 C 0.83627 0.57519 0.4786 0.0
C488 C 0.83954 0.63383 0.46526 0.0
C489 C 0.79276 0.56462 0.49582 0.0
O490 O 0.74131 0.53001 0.54111 0.0
O491 O 0.72557 0.52615 0.52312 0.0
C492 C 0.71134 0.51064 0.53287 0.0
O493 O 0.80253 0.51014 0.52354 0.0
O494 O 0.83733 0.65129 0.55537 0.0
O495 O 0.82608 0.5765 0.55823 0.0
O496 O 0.85239 0.54938 0.53789 0.0
C497 C 0.83147 0.51113 0.53132 0.0
O498 O 0.88674 0.62338 0.51857 0.0
O499 O 0.89105 0.65933 0.53473 0.0
O500 O 0.76837 0.62716 0.53665 0.0
O501 O 0.82371 0.55659 0.50147 0.0
O502 O 0.76456 0.57592 0.50161 0.0
O503 O 0.80012 0.64878 0.51994 0.0
C504 C 0.80663 0.61487 0.57215 0.0
C505 C 0.75378 0.58592 0.57253 0.0
C506 C 0.8086 0.63046 0.59097 0.0
C507 C 0.72856 0.57851 0.58215 0.0
C508 C 0.83376 0.63788 0.58137 0.0
C509 C 0.75598 0.59999 0.59144 0.0
C510 C 0.83444 0.61889 0.56243 0.0
C511 C 0.91233 0.65608 0.52601 0.0
H512 H 0.78342 0.64327 0.48765 0.0
H513 H 0.86786 0.58237 0.46313 0.0
H514 H 0.80756 0.67988 0.46992 0.0
H515 H 0.84351 0.54519 0.48082 0.0
H516 H 0.73232 0.56786 0.56547 0.0
H517 H 0.83025 0.64695 0.59809 0.0
H518 H 0.68793 0.55455 0.58242 0.0
H519 H 0.87456 0.66029 0.58119 0.0
Eu520 Eu 0.44404 0.23062 0.51695 0.0
Eu521 Eu 0.42997 0.22338 0.54288 0.0
C522 C 0.37109 0.12634 0.52855 0.0
C523 C 0.41929 0.23045 0.48671 0.0
C524 C 0.37842 0.18371 0.4836 0.0
C525 C 0.41177 0.26752 0.47028 0.0
C526 C 0.35518 0.1788 0.47381 0.0
C527 C 0.43502 0.27243 0.48005 0.0
C528 C 0.37247 0.22047 0.46701 0.0
C529 C 0.44896 0.23584 0.49633 0.0
O530 O 0.48943 0.20147 0.5408 0.0
O531 O 0.50178 0.20978 0.52271 0.0
C532 C 0.51347 0.20104 0.53224 0.0
O533 O 0.51565 0.29623 0.52268 0.0
O534 O 0.38228 0.18881 0.55674 0.0
O535 O 0.45569 0.25568 0.55848 0.0
O536 O 0.4884 0.3049 0.53902 0.0
C537 C 0.52191 0.32199 0.53133 0.0
O538 O 0.40681 0.27557 0.52145 0.0
O539 O 0.36553 0.2299 0.53594 0.0
O540 O 0.39848 0.14391 0.5371 0.0
O541 O 0.45939 0.27408 0.50243 0.0
O542 O 0.43915 0.19539 0.50167 0.0
O543 O 0.37355 0.1567 0.52094 0.0
C544 C 0.42596 0.19905 0.57278 0.0
C545 C 0.46168 0.183 0.57269 0.0
C546 C 0.4129 0.18081 0.59153 0.0
C547 C 0.47342 0.1666 0.58202 0.0
C548 C 0.40122 0.19725 0.58221 0.0
C549 C 0.44953 0.16604 0.59151 0.0
C550 C 0.41611 0.22042 0.5633 0.0
C551 C 0.37109 0.26196 0.5285 0.0
H552 H 0.36548 0.15067 0.48856 0.0
H553 H 0.42577 0.29994 0.4651 0.0
H554 H 0.32503 0.14213 0.47135 0.0
H555 H 0.4666 0.30878 0.48223 0.0
H556 H 0.48117 0.18421 0.56547 0.0
H557 H 0.39421 0.1806 0.5988 0.0
H558 H 0.50184 0.15537 0.5819 0.0
H559 H 0.37365 0.20959 0.58241 0.0
Eu560 Eu 0.79214 0.21882 0.51666 0.0
Eu561 Eu 0.8022 0.21134 0.54255 0.0
C562 C 0.89914 0.25325 0.52771 0.0
C563 C 0.79234 0.20393 0.4859 0.0
C564 C 0.8391 0.20876 0.48317 0.0
C565 C 0.76146 0.17325 0.46819 0.0
C566 C 0.8471 0.19659 0.47297 0.0
C567 C 0.75347 0.18544 0.47837 0.0
C568 C 0.80853 0.17944 0.46538 0.0
C569 C 0.7842 0.22187 0.49613 0.0
O570 O 0.81941 0.29179 0.54048 0.0
O571 O 0.81226 0.29668 0.52239 0.0
C572 C 0.82059 0.31679 0.5319 0.0
O573 O 0.72787 0.22487 0.52365 0.0
O574 O 0.83722 0.19921 0.55646 0.0
O575 O 0.76945 0.20435 0.55811 0.0
O576 O 0.71942 0.17878 0.53845 0.0
C577 C 0.70146 0.19887 0.53181 0.0
O578 O 0.75158 0.13561 0.52081 0.0
O579 O 0.7955 0.14014 0.53576 0.0
O580 O 0.88152 0.25997 0.53662 0.0
O581 O 0.74809 0.18921 0.50216 0.0
O582 O 0.82375 0.25399 0.50149 0.0
O583 O 0.86872 0.22647 0.51999 0.0
C584 C 0.82418 0.22985 0.57263 0.0
C585 C 0.80609 0.20598 0.58239 0.0
C586 C 0.87276 0.31011 0.58162 0.0
C587 C 0.82082 0.23397 0.59171 0.0
C588 C 0.85779 0.28205 0.57227 0.0
C589 C 0.85391 0.28618 0.59137 0.0
C590 C 0.80461 0.2 0.56297 0.0
C591 C 0.76433 0.1138 0.52817 0.0
H592 H 0.86976 0.22303 0.48882 0.0
H593 H 0.73134 0.16015 0.46243 0.0
H594 H 0.88367 0.20159 0.47092 0.0
H595 H 0.71726 0.18173 0.48027 0.0
H596 H 0.77979 0.16578 0.58278 0.0
H597 H 0.89824 0.35047 0.58126 0.0
H598 H 0.80594 0.21508 0.59917 0.0
H599 H 0.87166 0.30106 0.56477 0.0
Eu600 Eu 0.93355 0.46291 0.70626 0.0
Eu601 Eu 0.94195 0.47175 0.67997 0.0
C602 C 1.00634 0.4374 0.69314 0.0
C603 C 0.94763 0.48322 0.73692 0.0
C604 C 0.97332 0.4709 0.74448 0.0
C605 C 0.94715 0.54407 0.74924 0.0
C606 C 0.98558 0.49459 0.75433 0.0
C607 C 0.93486 0.52031 0.73934 0.0
C608 C 0.97232 0.53105 0.7568 0.0
C609 C 0.93308 0.45493 0.72687 0.0
O610 O 0.89316 0.38816 0.68305 0.0
O611 O 0.86867 0.38943 0.70025 0.0
C612 C 0.86314 0.36629 0.69117 0.0
O613 O 0.88356 0.49425 0.70132 0.0
O614 O 0.97762 0.4665 0.66558 0.0
O615 O 0.92316 0.49185 0.6647 0.0
O616 O 0.86666 0.46345 0.68435 0.0
C617 C 0.85542 0.48091 0.69275 0.0
O618 O 0.99582 0.54296 0.70307 0.0
O619 O 0.98003 0.55164 0.68564 0.0
O620 O 1.01052 0.47142 0.68634 0.0
O621 O 0.89565 0.45262 0.72145 0.0
O622 O 0.9696 0.4593 0.72086 0.0
O623 O 0.97058 0.41998 0.70024 0.0
C624 C 0.93171 0.4501 0.64977 0.0
C625 C 0.90812 0.39722 0.64991 0.0
C626 C 0.92475 0.44832 0.63068 0.0
C627 C 0.89366 0.37012 0.64045 0.0
C628 C 0.9393 0.47537 0.64013 0.0
C629 C 0.90254 0.39566 0.63078 0.0
C630 C 0.95222 0.47986 0.65943 0.0
C631 C 1.00256 0.57087 0.69465 0.0
H632 H 0.98336 0.4423 0.74282 0.0
H633 H 0.93663 0.57217 0.75104 0.0
H634 H 1.00492 0.48404 0.76007 0.0
H635 H 0.91502 0.53051 0.73366 0.0
H636 H 0.90203 0.37712 0.6573 0.0
H637 H 0.93175 0.46846 0.62328 0.0
H638 H 0.87642 0.32943 0.64063 0.0
H639 H 0.95763 0.51616 0.63988 0.0
Eu640 Eu 0.55937 0.44944 0.70503 0.0
Eu641 Eu 0.5597 0.45279 0.67844 0.0
C642 C 0.59492 0.55395 0.69235 0.0
C643 C 0.53108 0.44836 0.7351 0.0
C644 C 0.51238 0.48193 0.73532 0.0
C645 C 0.51392 0.43241 0.75381 0.0
C646 C 0.49528 0.4913 0.74484 0.0
C647 C 0.53082 0.42301 0.74433 0.0
C648 C 0.497 0.46729 0.75417 0.0
C649 C 0.55328 0.44046 0.72556 0.0
O650 O 0.63981 0.47305 0.683 0.0
O651 O 0.63419 0.45705 0.70096 0.0
C652 C 0.65884 0.4679 0.69198 0.0
O653 O 0.55523 0.37756 0.69951 0.0
O654 O 0.53898 0.47616 0.66384 0.0
O655 O 0.57875 0.43419 0.66319 0.0
O656 O 0.53024 0.37123 0.68217 0.0
C657 C 0.54007 0.35278 0.69058 0.0
O658 O 0.48327 0.43806 0.70018 0.0
O659 O 0.47792 0.41095 0.68307 0.0
O660 O 0.57326 0.52885 0.68371 0.0
O661 O 0.5228 0.40508 0.71912 0.0
O662 O 0.58761 0.48045 0.72065 0.0
O663 O 0.59808 0.53214 0.70101 0.0
C664 C 0.58887 0.48682 0.64872 0.0
C665 C 0.56907 0.4704 0.63859 0.0
C666 C 0.66616 0.55349 0.64095 0.0
C667 C 0.59787 0.49463 0.62969 0.0
C668 C 0.63728 0.52901 0.64989 0.0
C669 C 0.64684 0.53571 0.63081 0.0
C670 C 0.55955 0.45691 0.65781 0.0
C671 C 0.45691 0.41521 0.69172 0.0
H672 H 0.5122 0.50166 0.72824 0.0
H673 H 0.51557 0.4137 0.76093 0.0
H674 H 0.48239 0.51843 0.74502 0.0
H675 H 0.54502 0.3969 0.74427 0.0
H676 H 0.53184 0.43779 0.63757 0.0
H677 H 0.7041 0.58496 0.64192 0.0
H678 H 0.58262 0.48032 0.62193 0.0
H679 H 0.65315 0.54195 0.65767 0.0
Eu680 Eu 0.58367 0.1001 0.70439 0.0
Eu681 Eu 0.5796 0.09153 0.67789 0.0
C682 C 0.4771 0.03405 0.6918 0.0
C683 C 0.58265 0.07908 0.73496 0.0
C684 C 0.59268 0.03915 0.73596 0.0
C685 C 0.56164 0.07166 0.75359 0.0
C686 C 0.58735 0.01575 0.74578 0.0
C687 C 0.56697 0.09493 0.74383 0.0
C688 C 0.57204 0.03216 0.75466 0.0
C689 C 0.59023 0.10676 0.725 0.0
O690 O 0.56196 0.1536 0.6813 0.0
O691 O 0.56547 0.15967 0.69957 0.0
C692 C 0.55843 0.17373 0.69023 0.0
O693 O 0.64959 0.17165 0.69812 0.0
O694 O 0.55208 0.04838 0.66329 0.0
O695 O 0.61089 0.12675 0.66268 0.0
O696 O 0.66126 0.13788 0.68309 0.0
C697 C 0.67789 0.17407 0.69013 0.0
O698 O 0.61745 0.05152 0.70011 0.0
O699 O 0.58587 0.02516 0.6834 0.0
O700 O 0.49827 0.05334 0.68268 0.0
O701 O 0.62699 0.11268 0.71886 0.0
O702 O 0.55014 0.0984 0.71974 0.0
O703 O 0.50344 0.04001 0.70047 0.0
C704 C 0.55711 0.09516 0.64794 0.0
C705 C 0.58433 0.1099 0.63847 0.0
C706 C 0.48813 0.09934 0.63939 0.0
C707 C 0.56382 0.11956 0.62953 0.0
C708 C 0.50881 0.08988 0.64838 0.0
C709 C 0.51572 0.11444 0.62994 0.0
C710 C 0.58062 0.0868 0.65726 0.0
C711 C 0.60929 0.02267 0.69183 0.0
H712 H 0.60486 0.02635 0.7292 0.0
H713 H 0.54953 0.08457 0.76034 0.0
H714 H 0.59517 0.98504 0.74648 0.0
H715 H 0.55926 0.12576 0.74323 0.0
H716 H 0.62171 0.11437 0.63802 0.0
H717 H 0.45103 0.09553 0.63982 0.0
H718 H 0.58561 0.13141 0.6223 0.0
H719 H 0.48739 0.07887 0.65565 0.0
Eu720 Eu 0.54633 0.10762 0.1787 0.0
Eu721 Eu 0.55588 0.11833 0.2049 0.0
C722 C 0.52835 0.1885 0.19071 0.0
C723 C 0.5715 0.11324 0.1488 0.0
C724 C 0.61972 0.15643 0.14886 0.0
C725 C 0.58134 0.10121 0.13023 0.0
C726 C 0.64835 0.1722 0.1396 0.0
C727 C 0.55272 0.08555 0.13946 0.0
C728 C 0.62908 0.1448 0.13022 0.0
C729 C 0.53902 0.09812 0.15817 0.0
O730 O 0.47283 0.06826 0.20175 0.0
O731 O 0.47244 0.04373 0.18455 0.0
C732 C 0.44925 0.04054 0.19347 0.0
O733 O 0.59566 0.07651 0.18422 0.0
O734 O 0.52949 0.13193 0.21994 0.0
O735 O 0.59372 0.12015 0.21959 0.0
O736 O 0.55981 0.04879 0.20045 0.0
C737 C 0.58715 0.04785 0.19255 0.0
O738 O 0.62138 0.1782 0.18137 0.0
O739 O 0.63497 0.16993 0.19903 0.0
O740 O 0.556 0.18762 0.19856 0.0
O741 O 0.54009 0.06472 0.1644 0.0
O742 O 0.53811 0.13435 0.16335 0.0
O743 O 0.50887 0.15189 0.18375 0.0
C744 C 0.5462 0.09909 0.23558 0.0
C745 C 0.55719 0.06088 0.23817 0.0
C746 C 0.51226 0.09272 0.25324 0.0
C747 C 0.5464 0.03933 0.24827 0.0
C748 C 0.52314 0.11434 0.24317 0.0
C749 C 0.52449 0.05562 0.2559 0.0
C750 C 0.56275 0.12701 0.22549 0.0
C751 C 0.65045 0.19201 0.1898 0.0
H752 H 0.63477 0.17831 0.15601 0.0
H753 H 0.56606 0.07969 0.12304 0.0
H754 H 0.68518 0.20592 0.1397 0.0
H755 H 0.51554 0.05228 0.13928 0.0
H756 H 0.5752 0.04848 0.23251 0.0
H757 H 0.49539 0.10573 0.25904 0.0
H758 H 0.55603 0.01068 0.2502 0.0
H759 H 0.51476 0.14403 0.2414 0.0
Eu760 Eu 0.92951 0.47948 0.17972 0.0
Eu761 Eu 0.91635 0.46916 0.20595 0.0
C762 C 0.8444 0.37464 0.19083 0.0
C763 C 0.91238 0.48452 0.14948 0.0
C764 C 0.861 0.47003 0.1496 0.0
C765 C 0.91525 0.49963 0.13065 0.0
C766 C 0.83705 0.47114 0.14025 0.0
C767 C 0.93899 0.49825 0.13994 0.0
C768 C 0.86452 0.48725 0.13078 0.0
C769 C 0.94048 0.49063 0.15926 0.0
O770 O 0.95928 0.43022 0.20109 0.0
O771 O 0.99319 0.46876 0.18535 0.0
C772 C 0.99122 0.4406 0.19332 0.0
O773 O 0.99276 0.55128 0.18626 0.0
O774 O 0.88233 0.4415 0.22156 0.0
O775 O 0.96014 0.50229 0.22011 0.0
O776 O 0.95373 0.55165 0.20151 0.0
C777 C 0.98797 0.57529 0.19425 0.0
O778 O 0.86275 0.49062 0.18347 0.0
O779 O 0.85431 0.48442 0.20169 0.0
O780 O 0.85259 0.39507 0.20028 0.0
O781 O 0.94398 0.5255 0.16568 0.0
O782 O 0.93268 0.44989 0.1642 0.0
O783 O 0.87254 0.39746 0.18254 0.0
C784 C 0.93845 0.45523 0.23616 0.0
C785 C 0.9896 0.47615 0.23897 0.0
C786 C 0.91485 0.41874 0.25376 0.0
C787 C 1.00312 0.47029 0.24919 0.0
C788 C 0.90125 0.42502 0.24356 0.0
C789 C 0.96585 0.44325 0.25677 0.0
C790 C 0.92402 0.47237 0.22651 0.0
C791 C 0.83951 0.49013 0.1923 0.0
H792 H 0.84005 0.45959 0.15694 0.0
H793 H 0.93694 0.51212 0.12342 0.0
H794 H 0.79784 0.46147 0.14047 0.0
H795 H 0.97871 0.50975 0.13975 0.0
H796 H 0.01931 0.49977 0.2335 0.0
H797 H 0.88558 0.39779 0.25953 0.0
H798 H 0.04265 0.48944 0.25137 0.0
H799 H 0.86161 0.40887 0.24167 0.0
Eu800 Eu 0.55594 0.4825 0.17701 0.0
Eu801 Eu 0.55476 0.47703 0.20318 0.0
C802 C 0.65231 0.49605 0.19036 0.0
C803 C 0.5386 0.45295 0.14708 0.0
C804 C 0.56274 0.47229 0.13739 0.0
C805 C 0.4829 0.37275 0.13854 0.0
C806 C 0.54701 0.44227 0.12833 0.0
C807 C 0.49878 0.40279 0.14763 0.0
C808 C 0.50677 0.39248 0.12883 0.0
C809 C 0.55421 0.48646 0.15634 0.0
O810 O 0.5719 0.55662 0.1995 0.0
O811 O 0.599 0.56385 0.1823 0.0
C812 C 0.59532 0.58417 0.19116 0.0
O813 O 0.48311 0.47662 0.18265 0.0
O814 O 0.58281 0.46802 0.21854 0.0
O815 O 0.51493 0.47375 0.21757 0.0
O816 O 0.47466 0.43073 0.19739 0.0
C817 C 0.45462 0.4442 0.18986 0.0
O818 O 0.52132 0.39911 0.18058 0.0
O819 O 0.54906 0.40414 0.19771 0.0
O820 O 0.63656 0.51034 0.1986 0.0
O821 O 0.51841 0.48299 0.16243 0.0
O822 O 0.59283 0.49162 0.1617 0.0
O823 O 0.62394 0.47656 0.18195 0.0
C824 C 0.55801 0.49488 0.23409 0.0
C825 C 0.54078 0.52841 0.23667 0.0
C826 C 0.57937 0.4935 0.25255 0.0
C827 C 0.54117 0.54281 0.24715 0.0
C828 C 0.57881 0.47892 0.24207 0.0
C829 C 0.55893 0.52408 0.25518 0.0
C830 C 0.54675 0.46942 0.22374 0.0
C831 C 0.53079 0.37906 0.18887 0.0
H832 H 0.59346 0.51088 0.13681 0.0
H833 H 0.45194 0.33429 0.13906 0.0
H834 H 0.56594 0.45796 0.12091 0.0
H835 H 0.47971 0.3871 0.15504 0.0
H836 H 0.52438 0.54124 0.2307 0.0
H837 H 0.5929 0.47848 0.25867 0.0
H838 H 0.52506 0.56628 0.24908 0.0
H839 H 0.59184 0.45269 0.2403 0.0
Eu840 Eu 0.4259 0.208 0.04064 0.0
Eu841 Eu 0.43006 0.22013 1.01395 0.0
C842 C 0.50161 0.18851 1.02603 0.0
C843 C 0.42841 0.22345 0.0709 0.0
C844 C 0.44937 0.27607 0.07073 0.0
C845 C 0.42586 0.22484 0.09005 0.0
C846 C 0.45915 0.30297 0.08019 0.0
C847 C 0.41614 0.198 0.0806 0.0
C848 C 0.44806 0.27754 0.08991 0.0
C849 C 0.42213 0.1949 0.06114 0.0
O850 O 0.36424 0.14249 1.01685 0.0
O851 O 0.38232 0.12928 0.03385 0.0
C852 C 0.35821 0.11269 1.02485 0.0
O853 O 0.37426 0.23918 0.03729 0.0
O854 O 0.46767 0.22886 0.99875 0.0
O855 O 0.39843 0.23146 0.99943 0.0
O856 O 0.38558 0.25576 1.0194 0.0
C857 C 0.36672 0.25764 0.02855 0.0
O858 O 0.47809 0.29127 0.03829 0.0
O859 O 0.49681 0.29105 1.0206 0.0
O860 O 0.4716 0.17859 1.01788 0.0
O861 O 0.3826 0.1836 0.05535 0.0
O862 O 0.46264 0.2097 0.05548 0.0
O863 O 0.49467 0.20623 0.03491 0.0
C864 C 0.4171 0.2069 0.98305 0.0
C865 C 0.38974 0.22063 0.97622 0.0
C866 C 0.41837 0.15183 0.96933 0.0
C867 C 0.37706 0.20048 0.96605 0.0
C868 C 0.43106 0.17198 0.97955 0.0
C869 C 0.39164 0.16633 0.96251 0.0
C870 C 0.43328 0.2325 0.99339 0.0
C871 C 0.50534 0.3135 0.02988 0.0
H872 H 0.45921 0.29634 0.0633 0.0
H873 H 0.41719 0.20469 0.09748 0.0
H874 H 0.47641 0.34366 0.07996 0.0
H875 H 0.40011 0.15745 0.08088 0.0
H876 H 0.37895 0.24779 0.97869 0.0
H877 H 0.42995 0.12549 0.9667 0.0
H878 H 0.35651 0.21213 0.96088 0.0
H879 H 0.45235 0.16085 0.98461 0.0
Eu880 Eu 0.79689 0.21447 0.03939 0.0
Eu881 Eu 0.79904 0.226 1.01311 0.0
C882 C 0.80551 0.31495 0.0292 0.0
C883 C 0.76996 0.19583 0.06966 0.0
C884 C 0.78188 0.23974 0.07541 0.0
C885 C 0.71412 0.14506 0.08385 0.0
C886 C 0.76028 0.23619 0.08533 0.0
C887 C 0.73569 0.14854 0.07397 0.0
C888 C 0.72664 0.18876 0.08962 0.0
C889 C 0.79608 0.19802 0.0597 0.0
O890 O 0.87299 0.23172 1.01773 0.0
O891 O 0.87868 0.26062 0.03465 0.0
C892 C 0.89971 0.25558 1.02608 0.0
O893 O 0.80011 0.14874 0.03212 0.0
O894 O 0.83465 0.27321 0.99924 0.0
O895 O 0.77105 0.19762 0.99733 0.0
O896 O 0.75962 0.14249 1.01663 0.0
C897 C 0.77156 0.1216 1.02429 0.0
O898 O 0.71683 0.19633 0.03511 0.0
O899 O 0.72179 0.21105 1.01711 0.0
O900 O 0.81041 0.30023 1.0197 0.0
O901 O 0.77068 0.16292 0.05277 0.0
O902 O 0.82484 0.24185 0.05531 0.0
O903 O 0.79795 0.28765 0.03771 0.0
C904 C 0.82586 0.23352 0.98268 0.0
C905 C 0.84017 0.19687 0.98133 0.0
C906 C 0.84481 0.25737 0.96427 0.0
C907 C 0.85612 0.19012 0.97141 0.0
C908 C 0.82903 0.26415 0.97415 0.0
C909 C 0.85774 0.21986 0.9628 0.0
C910 C 0.80435 0.23879 0.99262 0.0
C911 C 0.69705 0.19981 1.02606 0.0
H912 H 0.80863 0.27669 0.07236 0.0
H913 H 0.68841 0.10819 0.08709 0.0
H914 H 0.77045 0.27025 0.08974 0.0
H915 H 0.72639 0.11404 0.06982 0.0
H916 H 0.83792 0.17287 0.98784 0.0
H917 H 0.84578 0.28053 0.9577 0.0
H918 H 0.86597 0.16097 0.97038 0.0
H919 H 0.81801 0.29252 0.97506 0.0
Eu920 Eu 0.79309 0.59318 0.04158 0.0
Eu921 Eu 0.7889 0.58478 1.01524 0.0
C922 C 0.69273 0.50492 0.02908 0.0
C923 C 0.80272 0.58028 0.07177 0.0
C924 C 0.76181 0.53562 0.07579 0.0
C925 C 0.85293 0.58319 0.08692 0.0
C926 C 0.76642 0.51523 0.08534 0.0
C927 C 0.8483 0.60368 0.07743 0.0
C928 C 0.81197 0.5391 0.09098 0.0
C929 C 0.79785 0.60468 0.0621 0.0
O930 O 0.74951 0.62832 1.01909 0.0
O931 O 0.78261 0.65682 0.03559 0.0
C932 C 0.75675 0.65698 0.02734 0.0
O933 O 0.87271 0.62702 0.03557 0.0
O934 O 0.75525 0.5799 0.99983 0.0
O935 O 0.82657 0.58102 1.00088 0.0
O936 O 0.8614 0.65526 1.0197 0.0
C937 C 0.8909 0.65689 0.02738 0.0
O938 O 0.80496 0.52732 0.03935 0.0
O939 O 0.80262 0.52214 1.0211 0.0
O940 O 0.7136 0.52021 1.01978 0.0
O941 O 0.83701 0.62618 0.0559 0.0
O942 O 0.75568 0.5814 0.05683 0.0
O943 O 0.71481 0.52773 0.03796 0.0
C944 C 0.80871 0.60912 0.98483 0.0
C945 C 0.80938 0.6551 0.98361 0.0
C946 C 0.83304 0.61301 0.96648 0.0
C947 C 0.82129 0.67957 0.97381 0.0
C948 C 0.8212 0.58865 0.97624 0.0
C949 C 0.83261 0.65825 0.96517 0.0
C950 C 0.79199 0.57977 0.99466 0.0
C951 C 0.80601 0.50545 0.03052 0.0
H952 H 0.72602 0.51687 0.07167 0.0
H953 H 0.88823 0.60225 0.09122 0.0
H954 H 0.73435 0.48136 0.08842 0.0
H955 H 0.88021 0.63838 0.07459 0.0
H956 H 0.79979 0.67147 0.99016 0.0
H957 H 0.84172 0.59615 0.95989 0.0
H958 H 0.82082 0.71452 0.9729 0.0
H959 H 0.82071 0.55315 0.97703 0.0
Eu960 Eu 0.48699 0.92867 0.8499 0.0
Eu961 Eu 0.49056 0.93363 0.87633 0.0
C962 C 0.45384 0.99665 0.86297 0.0
C963 C 0.50927 0.94289 0.81908 0.0
C964 C 0.5343 0.99301 0.81541 0.0
C965 C 0.51925 0.91514 0.80169 0.0
C966 C 0.55005 1.00379 0.8049 0.0
C967 C 0.50319 0.90425 0.81219 0.0
C968 C 0.54107 0.96476 0.79789 0.0
C969 C 0.48208 0.92975 0.82929 0.0
O970 O 0.40869 0.8779 0.87261 0.0
O971 O 0.41272 0.86233 0.85487 0.0
C972 C 0.38865 0.85175 0.86393 0.0
O973 O 0.51932 0.87957 0.85487 0.0
O974 O 0.47094 0.95727 0.89089 0.0
O975 O 0.51543 0.92019 0.89162 0.0
O976 O 0.48808 0.86115 0.8718 0.0
C977 C 0.5066 0.85122 0.86339 0.0
O978 O 0.56648 0.99053 0.85358 0.0
O979 O 0.5722 0.97853 0.87141 0.0
O980 O 0.4854 1.00052 0.87039 0.0
O981 O 0.47777 0.89129 0.83464 0.0
O982 O 0.48728 0.96648 0.83536 0.0
O983 O 0.44076 0.96293 0.8555 0.0
C984 C 0.46102 0.90797 0.90621 0.0
C985 C 0.48263 0.89006 0.91361 0.0
C986 C 0.38772 0.87887 0.91765 0.0
C987 C 0.45735 0.8674 0.92301 0.0
C988 C 0.4128 0.90122 0.90824 0.0
C989 C 0.41027 0.8628 0.92519 0.0
C990 C 0.4909 0.9375 0.89697 0.0
C991 C 0.59291 0.99925 0.86231 0.0
H992 H 0.53933 0.02368 0.82046 0.0
H993 H 0.512 0.88455 0.79637 0.0
H994 H 0.56686 0.04231 0.8021 0.0
H995 H 0.48354 0.86526 0.81475 0.0
H996 H 0.51981 0.89501 0.91228 0.0
H997 H 0.3514 0.87559 0.91921 0.0
H998 H 0.47527 0.8552 0.92875 0.0
H999 H 0.395 0.91458 0.90272 0.0
Eu1000 Eu 0.11852 0.57259 0.84729 0.0
Eu1001 Eu 0.11685 0.568 0.87356 0.0
C1002 C 0.05382 0.46868 0.85971 0.0
C1003 C 0.09137 0.58037 0.81731 0.0
C1004 C 0.03899 0.55 0.81636 0.0
C1005 C 0.09401 0.6129 0.79967 0.0
C1006 C 1.01428 0.55133 0.80713 0.0
C1007 C 0.11856 0.61142 0.80886 0.0
C1008 C 0.04076 0.58483 0.79869 0.0
C1009 C 0.11938 0.57808 0.82661 0.0
O1010 O 0.18454 0.5604 0.8691 0.0
O1011 O 0.16988 0.54158 0.85132 0.0
C1012 C 0.19527 0.54649 0.86007 0.0
O1013 O 0.1917 0.63828 0.85314 0.0
O1014 O 0.07839 0.53304 0.8884 0.0
O1015 O 0.15035 0.60266 0.8886 0.0
O1016 O 0.16196 0.64977 0.86876 0.0
C1017 C 0.19632 0.66625 0.86135 0.0
O1018 O 0.07591 0.61155 0.85238 0.0
O1019 O 0.04986 0.57602 0.86879 0.0
O1020 O 0.08408 0.48799 0.86784 0.0
O1021 O 0.13969 0.61733 0.83278 0.0
O1022 O 0.10066 0.53583 0.83186 0.0
O1023 O 0.05158 0.49776 0.8523 0.0
C1024 C 0.12896 0.55168 0.90386 0.0
C1025 C 0.1676 0.53957 0.90386 0.0
C1026 C 0.12218 0.54155 0.92289 0.0
C1027 C 0.18358 0.52871 0.91338 0.0
C1028 C 0.10619 0.55223 0.91341 0.0
C1029 C 0.16116 0.53009 0.92295 0.0
C1030 C 0.1141 0.56766 0.89421 0.0
C1031 C 0.04778 0.60243 0.86082 0.0
H1032 H 0.0172 0.52415 0.82263 0.0
H1033 H 0.11803 0.63488 0.79324 0.0
H1034 H 0.97469 0.52402 0.80669 0.0
H1035 H 0.15936 0.63371 0.80923 0.0
H1036 H 0.1858 0.53929 0.89655 0.0
H1037 H 0.10442 0.54258 0.9302 0.0
H1038 H 0.21365 0.51977 0.91332 0.0
H1039 H 0.07658 0.56184 0.91355 0.0
Eu1040 Eu 0.48162 0.5598 0.84899 0.0
Eu1041 Eu 0.47381 0.55223 0.87485 0.0
C1042 C 0.57806 0.59069 0.86307 0.0
C1043 C 0.47892 0.54047 0.81825 0.0
C1044 C 0.50426 0.51573 0.81458 0.0
C1045 C 0.44096 0.53045 0.80087 0.0
C1046 C 0.49912 0.49991 0.8041 0.0
C1047 C 0.4462 0.54648 0.81136 0.0
C1048 C 0.46863 0.50851 0.79712 0.0
C1049 C 0.49261 0.56713 0.82849 0.0
O1050 O 0.49956 0.63475 0.87186 0.0
O1051 O 0.4851 0.63239 0.85391 0.0
C1052 C 0.49599 0.65587 0.86306 0.0
O1053 O 0.39833 0.52075 0.85301 0.0
O1054 O 0.51213 0.56733 0.88996 0.0
O1055 O 0.43047 0.52194 0.88942 0.0
O1056 O 0.40609 0.55696 0.86919 0.0
C1057 C 0.37947 0.53522 0.86067 0.0
O1058 O 0.46956 0.48206 0.85275 0.0
O1059 O 0.43471 0.47166 0.86925 0.0
O1060 O 0.54759 0.55744 0.86995 0.0
O1061 O 0.45856 0.57273 0.8335 0.0
O1062 O 0.52181 0.55963 0.83485 0.0
O1063 O 0.55999 0.6066 0.8556 0.0
C1064 C 0.46795 0.56644 0.90525 0.0
C1065 C 0.48683 0.61863 0.90593 0.0
C1066 C 0.45557 0.55913 0.92421 0.0
C1067 C 0.49125 0.6411 0.91577 0.0
C1068 C 0.45117 0.53672 0.91439 0.0
C1069 C 0.4768 0.61154 0.92497 0.0
C1070 C 0.47055 0.54292 0.89538 0.0
C1071 C 0.44391 0.45326 0.86075 0.0
H1072 H 0.53013 0.51093 0.81963 0.0
H1073 H 0.41759 0.53769 0.79554 0.0
H1074 H 0.52095 0.48326 0.80128 0.0
H1075 H 0.42674 0.56601 0.81392 0.0
H1076 H 0.50004 0.64213 0.89894 0.0
H1077 H 0.4445 0.53595 0.93125 0.0
H1078 H 0.50787 0.68167 0.91627 0.0
H1079 H 0.43671 0.49642 0.91398 0.0
Eu1080 Eu 0.58121 0.80108 0.04028 0.0
Eu1081 Eu 0.57929 0.79981 1.01403 0.0
C1082 C 0.64687 0.7662 0.02719 0.0
C1083 C 0.60632 0.82899 0.07066 0.0
C1084 C 0.62242 0.80489 0.07785 0.0
C1085 C 0.62906 0.89638 0.08344 0.0
C1086 C 0.64112 0.82601 0.08777 0.0
C1087 C 0.61055 0.87541 0.0735 0.0
C1088 C 0.64373 0.87142 0.09069 0.0
C1089 C 0.57943 0.80217 0.06095 0.0
O1090 O 0.51047 0.72619 1.01891 0.0
O1091 O 0.53256 0.71914 0.03597 0.0
C1092 C 0.503 0.70033 0.02771 0.0
O1093 O 0.50854 0.7964 0.03476 0.0
O1094 O 0.61394 0.80021 0.99894 0.0
O1095 O 0.54442 0.80281 0.99925 0.0
O1096 O 0.53799 0.83949 1.01934 0.0
C1097 C 0.50402 0.82135 1.02682 0.0
O1098 O 0.62951 0.88259 0.03567 0.0
O1099 O 0.64532 0.87604 1.01814 0.0
O1100 O 0.61474 0.75426 1.01937 0.0
O1101 O 0.56077 0.82341 0.05491 0.0
O1102 O 0.59717 0.77821 0.05554 0.0
O1103 O 0.64902 0.7963 0.03481 0.0
C1104 C 0.55936 0.76828 0.98405 0.0
C1105 C 0.54503 0.78605 0.97526 0.0
C1106 C 0.53935 0.69203 0.97441 0.0
C1107 C 0.52851 0.75738 0.96606 0.0
C1108 C 0.55582 0.72077 0.98366 0.0
C1109 C 0.52615 0.71055 0.96555 0.0
C1110 C 0.5782 0.80072 0.9934 0.0
C1111 C 0.653 0.90273 1.02676 0.0
H1112 H 0.6189 0.76878 0.07593 0.0
H1113 H 0.63074 0.93143 0.08559 0.0
H1114 H 0.65212 0.80619 0.09329 0.0
H1115 H 0.59805 0.89476 0.0682 0.0
H1116 H 0.54732 0.82253 0.97546 0.0
H1117 H 0.53778 0.65591 0.97409 0.0
H1118 H 0.51857 0.77215 0.95927 0.0
H1119 H 0.56635 0.70629 0.99042 0.0
Eu1120 Eu 0.21507 0.79816 0.0382 0.0
Eu1121 Eu 0.21087 0.79374 1.01187 0.0
C1122 C 0.24594 0.89507 1.02417 0.0
C1123 C 0.19584 0.79964 0.06895 0.0
C1124 C 0.19446 0.83942 0.07416 0.0
C1125 C 0.16075 0.74765 0.08467 0.0
C1126 C 0.17734 0.83378 0.08454 0.0
C1127 C 0.1781 0.75333 0.07425 0.0
C1128 C 0.1615 0.78835 0.08994 0.0
C1129 C 0.22209 0.80987 0.05868 0.0
O1130 O 0.29335 0.82456 1.01576 0.0
O1131 O 0.28735 0.80134 0.03328 0.0
C1132 C 0.31254 0.8167 1.02438 0.0
O1133 O 0.17865 0.71564 0.03403 0.0
O1134 O 0.22518 0.83361 0.99686 0.0
O1135 O 0.18967 0.75217 0.99697 0.0
O1136 O 0.21339 0.72503 1.01753 0.0
C1137 C 0.19224 0.69792 1.02601 0.0
O1138 O 0.13629 0.78212 0.03425 0.0
O1139 O 0.12964 0.75638 1.01692 0.0
O1140 O 0.21327 0.8653 1.01715 0.0
O1141 O 0.22452 0.77353 0.05383 0.0
O1142 O 0.21727 0.84031 0.05219 0.0
O1143 O 0.26132 0.87662 0.03167 0.0
C1144 C 0.23906 0.79621 0.98195 0.0
C1145 C 0.26947 0.77373 0.98175 0.0
C1146 C 0.268 0.82934 0.96433 0.0
C1147 C 0.29899 0.77912 0.97285 0.0
C1148 C 0.23843 0.82375 0.97316 0.0
C1149 C 0.29859 0.8073 0.96412 0.0
C1150 C 0.20842 0.79289 0.9912 0.0
C1151 C 0.10944 0.76063 1.02573 0.0
H1152 H 0.20854 0.87573 0.07035 0.0
H1153 H 0.14852 0.71229 0.08875 0.0
H1154 H 0.17812 0.86553 0.08849 0.0
H1155 H 0.17919 0.72215 0.07049 0.0
H1156 H 0.27076 0.75257 0.98849 0.0
H1157 H 0.26746 0.85137 0.95769 0.0
H1158 H 0.32268 0.76212 0.97282 0.0
H1159 H 0.21536 0.84147 0.97317 0.0
Eu1160 Eu 0.21559 0.42961 0.04148 0.0
Eu1161 Eu 0.22064 0.43299 1.01515 0.0
C1162 C 0.11823 0.36599 0.02743 0.0
C1163 C 0.22726 0.40601 0.07138 0.0
C1164 C 0.21708 0.35627 0.0726 0.0
C1165 C 0.26214 0.42421 0.08913 0.0
C1166 C 0.22911 0.3406 0.08201 0.0
C1167 C 0.2499 0.43971 0.07974 0.0
C1168 C 0.25367 0.37454 0.09047 0.0
C1169 C 0.20919 0.42191 0.06208 0.0
O1170 O 0.19457 0.48828 1.01907 0.0
O1171 O 0.20797 0.49709 0.03715 0.0
C1172 C 0.1975 0.51108 0.02809 0.0
O1173 O 0.2978 0.47635 0.03684 0.0
O1174 O 0.18036 0.40838 1.00026 0.0
O1175 O 0.2621 0.45116 1.00016 0.0
O1176 O 0.28724 0.50542 1.0209 0.0
C1177 C 0.31513 0.50983 0.02917 0.0
O1178 O 0.23019 0.36685 0.03678 0.0
O1179 O 0.26308 0.39409 1.02019 0.0
O1180 O 0.14839 0.36402 1.02036 0.0
O1181 O 0.24152 0.46296 0.05715 0.0
O1182 O 0.17816 0.38685 0.05562 0.0
O1183 O 0.13642 0.39758 0.03532 0.0
C1184 C 0.21938 0.45578 0.98472 0.0
C1185 C 0.2577 0.46987 0.97716 0.0
C1186 C 0.17235 0.47695 0.97222 0.0
C1187 C 0.25298 0.48646 0.96715 0.0
C1188 C 0.17714 0.4606 0.98223 0.0
C1189 C 0.20969 0.4889 0.96455 0.0
C1190 C 0.22103 0.43014 0.99449 0.0
C1191 C 0.25648 0.36653 0.02862 0.0
H1192 H 0.19791 0.32868 0.06643 0.0
H1193 H 0.27574 0.45136 0.09546 0.0
H1194 H 0.21614 0.3009 0.08259 0.0
H1195 H 0.25631 0.47781 0.07918 0.0
H1196 H 0.29036 0.46606 0.97885 0.0
H1197 H 0.13867 0.47859 0.97031 0.0
H1198 H 0.28207 0.49545 0.9613 0.0
H1199 H 0.14685 0.44989 0.98787 0.0
Eu1200 Eu 0.21993 0.42414 0.51144 0.0
Eu1201 Eu 0.22613 0.44284 0.53751 0.0
C1202 C 0.20455 0.51349 0.52169 0.0
C1203 C 0.25105 0.41201 0.48207 0.0
C1204 C 0.30197 0.44953 0.48098 0.0
C1205 C 0.25314 0.38161 0.46445 0.0
C1206 C 0.32769 0.45399 0.47156 0.0
C1207 C 0.22736 0.37726 0.47385 0.0
C1208 C 0.30296 0.4209 0.46314 0.0
C1209 C 0.22025 0.41216 0.491 0.0
O1210 O 0.14592 0.37965 0.53423 0.0
O1211 O 0.13869 0.38499 0.51621 0.0
C1212 C 0.11861 0.36833 0.52553 0.0
O1213 O 0.22427 0.35965 0.51896 0.0
O1214 O 0.19605 0.45504 0.55218 0.0
O1215 O 0.26385 0.44924 0.5525 0.0
O1216 O 0.26701 0.40038 0.53385 0.0
C1217 C 0.25518 0.36538 0.52668 0.0
O1218 O 0.30259 0.47406 0.51573 0.0
O1219 O 0.2945 0.51062 0.53085 0.0
O1220 O 0.21953 0.50756 0.53102 0.0
O1221 O 0.20301 0.37473 0.49767 0.0
O1222 O 0.23455 0.45534 0.49559 0.0
O1223 O 0.19574 0.48226 0.51381 0.0
C1224 C 0.21514 0.42798 0.56825 0.0
C1225 C 0.21221 0.38119 0.56993 0.0
C1226 C 0.19432 0.42978 0.58669 0.0
C1227 C 0.20088 0.35914 0.57999 0.0
C1228 C 0.20559 0.45175 0.57667 0.0
C1229 C 0.19239 0.38361 0.58845 0.0
C1230 C 0.23084 0.45449 0.55804 0.0
C1231 C 0.32115 0.5106 0.52275 0.0
H1232 H 0.32113 0.47677 0.48721 0.0
H1233 H 0.23347 0.35595 0.45801 0.0
H1234 H 0.36611 0.48466 0.47065 0.0
H1235 H 0.18808 0.3482 0.47452 0.0
H1236 H 0.21945 0.36219 0.56355 0.0
H1237 H 0.18789 0.44915 0.59313 0.0
H1238 H 0.19949 0.32344 0.58122 0.0
H1239 H 0.20784 0.48791 0.57553 0.0
Eu1240 Eu 0.59723 0.79655 0.5125 0.0
Eu1241 Eu 0.58857 0.78943 0.53899 0.0
C1242 C 0.51393 0.69482 0.52382 0.0
C1243 C 0.60411 0.83205 0.48296 0.0
C1244 C 0.56917 0.84908 0.48307 0.0
C1245 C 0.6225 0.85654 0.46457 0.0
C1246 C 0.56019 0.86876 0.47388 0.0
C1247 C 0.6314 0.83684 0.47374 0.0
C1248 C 0.58615 0.87163 0.46454 0.0
C1249 C 0.6102 0.80593 0.49207 0.0
O1250 O 0.63615 0.7544 0.53525 0.0
O1251 O 0.65631 0.77747 0.5178 0.0
C1252 C 0.66075 0.75712 0.52658 0.0
O1253 O 0.6284 0.87559 0.51863 0.0
O1254 O 0.56431 0.74518 0.55349 0.0
O1255 O 0.60085 0.82652 0.55435 0.0
O1256 O 0.65608 0.86519 0.53472 0.0
C1257 C 0.65662 0.89441 0.52704 0.0
O1258 O 0.52834 0.80322 0.51584 0.0
O1259 O 0.53281 0.81361 0.53401 0.0
O1260 O 0.52071 0.71916 0.53275 0.0
O1261 O 0.64552 0.8333 0.49884 0.0
O1262 O 0.5689 0.77178 0.49661 0.0
O1263 O 0.54488 0.71421 0.5158 0.0
C1264 C 0.60678 0.78282 0.56936 0.0
C1265 C 0.6575 0.79562 0.56947 0.0
C1266 C 0.60137 0.76343 0.58803 0.0
C1267 C 0.67987 0.79157 0.57882 0.0
C1268 C 0.57928 0.76774 0.57874 0.0
C1269 C 0.65139 0.77209 0.58824 0.0
C1270 C 0.58117 0.78434 0.55964 0.0
C1271 C 0.51207 0.81184 0.52478 0.0
H1272 H 0.54783 0.84571 0.49014 0.0
H1273 H 0.64264 0.85836 0.45741 0.0
H1274 H 0.53188 0.88013 0.47394 0.0
H1275 H 0.65846 0.82384 0.47354 0.0
H1276 H 0.67995 0.80911 0.56235 0.0
H1277 H 0.57868 0.75386 0.5951 0.0
H1278 H 0.71963 0.80507 0.5784 0.0
H1279 H 0.54041 0.7593 0.5789 0.0
Eu1280 Eu 0.23066 0.80995 0.5108 0.0
Eu1281 Eu 0.22997 0.79896 0.53697 0.0
C1282 C 0.32809 0.82348 0.52376 0.0
C1283 C 0.2287 0.79065 0.48067 0.0
C1284 C 0.26502 0.77596 0.47903 0.0
C1285 C 0.19061 0.75409 0.46379 0.0
C1286 C 0.26412 0.7506 0.46976 0.0
C1287 C 0.19175 0.77969 0.47296 0.0
C1288 C 0.22656 0.73918 0.46214 0.0
C1289 C 0.2276 0.81687 0.4903 0.0
O1290 O 0.24685 0.87917 0.5343 0.0
O1291 O 0.2678 0.8896 0.51662 0.0
C1292 C 0.26626 0.90787 0.52589 0.0
O1293 O 0.15873 0.80422 0.51702 0.0
O1294 O 0.25687 0.78611 0.5521 0.0
O1295 O 0.18971 0.79334 0.55144 0.0
O1296 O 0.15092 0.75314 0.53071 0.0
C1297 C 0.13054 0.76976 0.52392 0.0
O1298 O 0.20595 0.72778 0.51329 0.0
O1299 O 0.22446 0.72689 0.53097 0.0
O1300 O 0.31179 0.83566 0.53222 0.0
O1301 O 0.1876 0.79266 0.4962 0.0
O1302 O 0.26902 0.84094 0.49582 0.0
O1303 O 0.30023 0.80595 0.51522 0.0
C1304 C 0.23202 0.81019 0.56801 0.0
C1305 C 0.2177 0.84566 0.57087 0.0
C1306 C 0.25057 0.8036 0.58643 0.0
C1307 C 0.2182 0.8586 0.58146 0.0
C1308 C 0.24992 0.79052 0.57584 0.0
C1309 C 0.23316 0.83644 0.58932 0.0
C1310 C 0.22085 0.78699 0.55743 0.0
C1311 C 0.21159 0.7054 0.52163 0.0
H1312 H 0.29381 0.78386 0.48489 0.0
H1313 H 0.1615 0.74571 0.45797 0.0
H1314 H 0.29225 0.73947 0.46856 0.0
H1315 H 0.16348 0.79072 0.47407 0.0
H1316 H 0.20359 0.86134 0.56501 0.0
H1317 H 0.26196 0.78599 0.59241 0.0
H1318 H 0.20449 0.8839 0.58359 0.0
H1319 H 0.26069 0.76278 0.57384 0.0
Eu1320 Eu 0.09138 0.54418 0.37631 0.0
Eu1321 Eu 0.10165 0.54691 0.34977 0.0
C1322 C 0.17727 0.52662 0.36493 0.0
C1323 C 0.11155 0.57291 0.40608 0.0
C1324 C 0.16451 0.59721 0.406 0.0
C1325 C 0.1139 0.60228 0.42393 0.0
C1326 C 0.19205 0.62408 0.41489 0.0
C1327 C 0.08651 0.57529 0.41511 0.0
C1328 C 0.16677 0.62729 0.42385 0.0
C1329 C 0.08144 0.54677 0.39676 0.0
O1330 O 0.04487 0.46586 0.35353 0.0
O1331 O 0.04118 0.46333 0.37179 0.0
C1332 C 0.02877 0.44141 0.36251 0.0
O1333 O 0.02626 0.54933 0.36939 0.0
O1334 O 0.13612 0.54797 0.3345 0.0
O1335 O 0.06663 0.55071 0.33515 0.0
O1336 O 0.06726 0.59396 0.35477 0.0
C1337 C 0.03205 0.58112 0.36189 0.0
O1338 O 0.15735 0.62209 0.37246 0.0
O1339 O 0.16537 0.62258 0.35425 0.0
O1340 O 0.16275 0.53112 0.35537 0.0
O1341 O 0.07336 0.5745 0.39012 0.0
O1342 O 0.09156 0.51505 0.39203 0.0
O1343 O 0.15451 0.52808 0.3736 0.0
C1344 C 0.08291 0.52093 0.31925 0.0
C1345 C 0.03726 0.47484 0.31871 0.0
C1346 C 0.08826 0.52274 0.30014 0.0
C1347 C 0.01661 0.45353 0.30887 0.0
C1348 C 0.10895 0.54377 0.30993 0.0
C1349 C 0.04128 0.4784 0.29954 0.0
C1350 C 0.10067 0.54979 0.32913 0.0
C1351 C 0.18036 0.64375 0.36355 0.0
H1352 H 0.1844 0.59595 0.39905 0.0
H1353 H 0.09387 0.60434 0.43078 0.0
H1354 H 0.23288 0.64315 0.41473 0.0
H1355 H 0.0457 0.55688 0.41528 0.0
H1356 H 0.01647 0.45676 0.32583 0.0
H1357 H 0.10767 0.54245 0.29301 0.0
H1358 H 0.98018 0.41937 0.30853 0.0
H1359 H 0.14403 0.57945 0.31019 0.0
Eu1360 Eu 0.47662 0.55136 0.37423 0.0
Eu1361 Eu 0.46205 0.55925 0.34843 0.0
C1362 C 0.4932 0.65527 0.36412 0.0
C1363 C 0.45663 0.51161 0.40373 0.0
C1364 C 0.40376 0.48233 0.40352 0.0
C1365 C 0.45566 0.49595 0.42254 0.0
C1366 C 0.37693 0.46106 0.41285 0.0
C1367 C 0.48239 0.51713 0.41323 0.0
C1368 C 0.40276 0.46898 0.42247 0.0
C1369 C 0.48524 0.54148 0.39453 0.0
O1370 O 0.53835 0.56543 0.35092 0.0
O1371 O 0.55552 0.59527 0.36787 0.0
C1372 C 0.57055 0.5897 0.35855 0.0
O1373 O 0.4669 0.48024 0.36666 0.0
O1374 O 0.48788 0.60562 0.33419 0.0
O1375 O 0.42905 0.52712 0.33313 0.0
O1376 O 0.41854 0.47658 0.35264 0.0
C1377 C 0.43259 0.45403 0.35954 0.0
O1378 O 0.39344 0.52623 0.37189 0.0
O1379 O 0.39038 0.55131 0.3548 0.0
O1380 O 0.4717 0.63173 0.3553 0.0
O1381 O 0.49816 0.51938 0.38739 0.0
O1382 O 0.47005 0.57065 0.39041 0.0
O1383 O 0.50622 0.63415 0.37154 0.0
C1384 C 0.48097 0.56391 0.31805 0.0
C1385 C 0.49173 0.52487 0.31637 0.0
C1386 C 0.50706 0.593 0.30008 0.0
C1387 C 0.50914 0.51943 0.30652 0.0
C1388 C 0.48962 0.59837 0.3099 0.0
C1389 C 0.51607 0.55302 0.29827 0.0
C1390 C 0.4586 0.56849 0.32797 0.0
C1391 C 0.36961 0.53368 0.36402 0.0
H1392 H 0.38325 0.47783 0.39625 0.0
H1393 H 0.47612 0.50261 0.4299 0.0
H1394 H 0.33608 0.4405 0.41267 0.0
H1395 H 0.52316 0.53979 0.41354 0.0
H1396 H 0.48557 0.49799 0.32258 0.0
H1397 H 0.51201 0.61907 0.29379 0.0
H1398 H 0.51579 0.48826 0.30522 0.0
H1399 H 0.48163 0.62877 0.31105 0.0
Eu1400 Eu 0.46599 0.92253 0.37545 0.0
Eu1401 Eu 0.46249 0.91307 0.34897 0.0
C1402 C 0.36723 0.83598 0.3635 0.0
C1403 C 0.49569 0.93713 0.40529 0.0
C1404 C 0.51889 0.90752 0.40566 0.0
C1405 C 0.5119 0.95462 0.424 0.0
C1406 C 0.53756 0.90066 0.41521 0.0
C1407 C 0.49321 0.96141 0.41445 0.0
C1408 C 0.53325 0.92343 0.42446 0.0
C1409 C 0.47007 0.93967 0.39572 0.0
O1410 O 0.45058 0.97864 0.35176 0.0
O1411 O 0.42669 0.96295 0.36919 0.0
C1412 C 0.43015 0.98565 0.36019 0.0
O1413 O 0.54676 0.96114 0.36987 0.0
O1414 O 0.42381 0.90212 0.33394 0.0
O1415 O 0.49589 0.90463 0.3344 0.0
O1416 O 0.5382 0.98029 0.35274 0.0
C1417 C 0.56621 0.98477 0.36096 0.0
O1418 O 0.49269 0.86723 0.3732 0.0
O1419 O 0.47684 0.85185 0.35533 0.0
O1420 O 0.383 0.86043 0.35452 0.0
O1421 O 0.49713 0.97448 0.38881 0.0
O1422 O 0.4389 0.89658 0.39134 0.0
O1423 O 0.39441 0.84992 0.37214 0.0
C1424 C 0.47279 0.92751 0.31829 0.0
C1425 C 0.48046 0.97654 0.3172 0.0
C1426 C 0.48517 0.92479 0.29942 0.0
C1427 C 0.49007 0.99939 0.30723 0.0
C1428 C 0.47564 0.90206 0.30936 0.0
C1429 C 0.49204 0.9734 0.29827 0.0
C1430 C 0.45925 0.90082 0.32848 0.0
C1431 C 0.48919 0.84172 0.36462 0.0
H1432 H 0.521 0.88843 0.39865 0.0
H1433 H 0.50812 0.97219 0.43108 0.0
H1434 H 0.55379 0.8763 0.41548 0.0
H1435 H 0.47524 0.98423 0.41429 0.0
H1436 H 0.47831 0.99672 0.32401 0.0
H1437 H 0.48661 0.90427 0.2926 0.0
H1438 H 0.49532 0.03696 0.30646 0.0
H1439 H 0.46968 0.86417 0.31005 0.0
C1440 C 0.11427 0.09594 0.1884 0.0
C1441 C 0.15052 0.13671 0.19453 0.0
C1442 C 0.18664 0.08484 0.20024 0.0
C1443 C 0.14655 0.0421 0.19518 0.0
N1444 N 0.066 1.00587 0.18611 0.0
N1445 N 0.21774 0.16883 0.20734 0.0
C1446 C 0.10879 0.04738 0.18967 0.0
C1447 C 0.1854 0.13067 0.20084 0.0
N1448 N 0.08486 0.1033 0.18131 0.0
N1449 N 0.22766 0.08288 0.20383 0.0
H1450 H 0.22002 0.20399 0.20754 0.0
H1451 H 0.23988 0.16444 0.21302 0.0
H1452 H 0.23144 0.05129 0.2028 0.0
H1453 H 0.26023 0.11412 0.20667 0.0
H1454 H 0.06239 0.0765 0.17572 0.0
H1455 H 0.08613 0.13763 0.18032 0.0
H1456 H 0.03467 1.00719 0.18331 0.0
H1457 H 0.05894 0.9692 0.18701 0.0
C1458 C 0.94308 0.13914 0.19107 0.0
C1459 C 0.98113 0.14634 0.19844 0.0
C1460 C 0.92085 0.06725 0.20727 0.0
C1461 C 0.88637 0.05573 0.19879 0.0
N1462 N 0.86364 0.08101 0.18263 0.0
N1463 N 1.00784 0.11384 0.21296 0.0
C1464 C 0.89717 0.09195 0.19071 0.0
C1465 C 0.97021 0.11002 0.20652 0.0
N1466 N 0.95031 0.1781 0.18464 0.0
N1467 N 0.90732 0.03668 0.21595 0.0
H1468 H 0.04476 0.1437 0.21268 0.0
H1469 H 1.00364 0.08508 0.218 0.0
H1470 H 0.87323 1.00307 0.21659 0.0
H1471 H 0.92855 0.04659 0.22287 0.0
H1472 H 0.92242 0.17708 0.17976 0.0
H1473 H 0.98279 0.21353 0.18495 0.0
H1474 H 0.87194 0.10265 0.1758 0.0
H1475 H 0.8279 0.04886 0.18257 0.0
C1476 C 0.93968 0.83662 0.1962 0.0
C1477 C 0.98513 0.87953 0.19964 0.0
C1478 C 0.94065 0.92684 0.20157 0.0
C1479 C 0.89457 0.88349 0.19871 0.0
N1480 N 0.84805 0.79413 0.1955 0.0
N1481 N 0.02495 0.96109 0.20834 0.0
C1482 C 0.89343 0.83742 0.19661 0.0
C1483 C 0.98423 0.92291 0.20331 0.0
N1484 N 0.94061 0.79493 0.19269 0.0
N1485 N 0.94403 0.97296 0.20187 0.0
H1486 H 0.05923 0.96238 0.20935 0.0
H1487 H 0.02338 0.99019 0.21226 0.0
H1488 H 0.91355 0.97775 0.20022 0.0
H1489 H 0.97805 1.00679 0.20256 0.0
H1490 H 0.91035 0.76491 0.18889 0.0
H1491 H 0.97264 0.79129 0.19323 0.0
H1492 H 0.84407 0.75841 0.19485 0.0
H1493 H 0.81382 0.7935 0.19624 0.0
C1494 C 0.09304 0.12325 0.34961 0.0
C1495 C 0.1317 0.15685 0.35656 0.0
C1496 C 0.07837 0.19121 0.36229 0.0
C1497 C 0.03963 0.15745 0.35534 0.0
N1498 N 0.0165 0.10155 0.34017 0.0
N1499 N 0.1663 0.23031 0.36767 0.0
C1500 C 0.0493 0.12742 0.34819 0.0
C1501 C 0.12585 0.19307 0.36239 0.0
N1502 N 0.09589 0.08437 0.34497 0.0
N1503 N 0.06975 0.2218 0.36874 0.0
H1504 H 0.20174 0.23317 0.3677 0.0
H1505 H 0.16623 0.26077 0.37129 0.0
H1506 H 0.03799 0.22569 0.36796 0.0
H1507 H 0.09321 0.24234 0.37497 0.0
H1508 H 0.06582 0.05478 0.34102 0.0
H1509 H 0.12621 0.07833 0.34593 0.0
H1510 H 0.02592 0.08571 0.33393 0.0
H1511 H 0.98106 0.09781 0.33926 0.0
C1512 C 0.91002 0.92795 0.3519 0.0
C1513 C 0.86441 0.88242 0.35361 0.0
C1514 C 0.82069 0.93052 0.35627 0.0
C1515 C 0.86809 0.97598 0.35608 0.0
N1516 N 0.95903 0.01625 0.35599 0.0
N1517 N 0.77588 0.83881 0.35771 0.0
C1518 C 0.91308 0.97421 0.35454 0.0
C1519 C 0.81935 0.88317 0.35579 0.0
N1520 N 0.95025 0.92706 0.34749 0.0
N1521 N 0.7773 0.93267 0.35709 0.0
H1522 H 0.77367 0.8038 0.35695 0.0
H1523 H 0.74282 0.83666 0.36045 0.0
H1524 H 0.77735 0.96647 0.35816 0.0
H1525 H 0.74138 0.90147 0.35621 0.0
H1526 H 0.98343 0.95946 0.34529 0.0
H1527 H 0.94772 0.89383 0.34477 0.0
H1528 H 0.99276 0.01566 0.35598 0.0
H1529 H 0.9632 0.05072 0.35823 0.0
C1530 C 0.04003 0.92635 0.36537 0.0
C1531 C 0.03756 0.88489 0.35982 0.0
C1532 C 0.12623 0.93821 0.35444 0.0
C1533 C 0.1268 0.98085 0.35901 0.0
N1534 N 0.08052 0.01693 0.36708 0.0
N1535 N 0.07646 0.85186 0.34823 0.0
C1536 C 0.08273 0.97522 0.36404 0.0
C1537 C 0.08011 0.89108 0.35406 0.0
N1538 N 1.00149 0.91939 0.37189 0.0
N1539 N 0.17024 0.94202 0.35096 0.0
H1540 H 0.04463 0.81591 0.34835 0.0
H1541 H 0.10384 0.85564 0.34285 0.0
H1542 H 0.20473 0.97541 0.35143 0.0
H1543 H 0.17347 0.91129 0.34853 0.0
H1544 H 1.00392 0.94678 0.3771 0.0
H1545 H 0.96857 0.88494 0.37285 0.0
H1546 H 0.04791 0.01578 0.36981 0.0
H1547 H 0.1099 0.05353 0.36589 0.0
C1548 C 0.85021 0.91113 0.86258 0.0
C1549 C 0.8729 0.89675 0.85457 0.0
C1550 C 0.90383 0.97891 0.84602 0.0
C1551 C 0.87866 0.9923 0.85369 0.0
N1552 N 0.81321 0.9626 0.86686 0.0
N1553 N 0.90679 0.91137 0.83684 0.0
C1554 C 0.84733 0.95574 0.86125 0.0
C1555 C 0.89423 0.92844 0.84562 0.0
N1556 N 0.83175 0.8827 0.8715 0.0
N1557 N 0.94024 0.01476 0.83969 0.0
H1558 H 0.90281 0.87567 0.83632 0.0
H1559 H 0.91762 0.93159 0.82978 0.0
H1560 H 0.95225 0.05297 0.84025 0.0
H1561 H 0.96286 1.00733 0.83472 0.0
H1562 H 0.81979 0.89457 0.87804 0.0
H1563 H 0.83172 0.84901 0.87269 0.0
H1564 H 0.78655 0.93534 0.87188 0.0
H1565 H 0.80745 0.99282 0.86538 0.0
C1566 C 0.10766 0.97869 0.84548 0.0
C1567 C 0.14862 0.98467 0.85179 0.0
C1568 C 0.095 0.89681 0.85784 0.0
C1569 C 0.0519 0.89688 0.85364 0.0
N1570 N 0.01804 0.94499 0.84547 0.0
N1571 N 0.18321 0.94562 0.86297 0.0
C1572 C 0.05845 0.93964 0.84796 0.0
C1573 C 0.14278 0.94246 0.85771 0.0
N1574 N 0.11506 1.00819 0.83685 0.0
N1575 N 0.09069 0.85284 0.86151 0.0
H1576 H 0.21985 0.9754 0.86181 0.0
H1577 H 0.18031 0.91923 0.86853 0.0
H1578 H 0.05688 0.81857 0.86123 0.0
H1579 H 0.12132 0.8492 0.86387 0.0
H1580 H 0.08563 1.0024 0.83182 0.0
H1581 H 0.15051 0.03195 0.83367 0.0
H1582 H 0.02187 0.97786 0.84211 0.0
H1583 H 0.98179 0.91964 0.84805 0.0
C1584 C 0.09361 0.18952 0.86178 0.0
C1585 C 0.05937 0.16815 0.85321 0.0
C1586 C 0.1154 0.14199 0.84496 0.0
C1587 C 0.14842 0.16117 0.8538 0.0
N1588 N 0.17688 0.21617 0.86891 0.0
N1589 N 0.04431 0.13668 0.83535 0.0
C1590 C 0.13981 0.1888 0.86171 0.0
C1591 C 0.0726 0.14878 0.84435 0.0
N1592 N 0.08173 0.2104 0.87003 0.0
N1593 N 0.12314 0.11468 0.83743 0.0
H1594 H 1.01181 0.13924 0.83466 0.0
H1595 H 0.05515 0.12805 0.82823 0.0
H1596 H 0.15457 0.1101 0.83732 0.0
H1597 H 0.09692 0.09379 0.83161 0.0
H1598 H 0.10095 0.22 0.8772 0.0
H1599 H 0.05131 0.21683 0.86983 0.0
H1600 H 0.17534 0.24109 0.87427 0.0
H1601 H 0.21173 0.21778 0.86889 0.0
C1602 C 0.91767 0.82623 0.69066 0.0
C1603 C 0.90721 0.85756 0.69716 0.0
C1604 C 0.99227 0.89488 0.70479 0.0
C1605 C 1.00122 0.86065 0.69886 0.0
N1606 N 0.96624 0.7841 0.68874 0.0
N1607 N 0.93123 0.91527 0.71187 0.0
C1608 C 0.96203 0.82349 0.69254 0.0
C1609 C 0.94328 0.88946 0.70475 0.0
N1610 N 0.88583 0.79961 0.6826 0.0
N1611 N 0.03107 0.93476 0.7099 0.0
H1612 H 0.89692 0.91458 0.71183 0.0
H1613 H 0.95375 0.93415 0.71835 0.0
H1614 H 0.06793 0.94157 0.71 0.0
H1615 H 0.02796 0.96431 0.71316 0.0
H1616 H 0.89437 0.78011 0.67699 0.0
H1617 H 0.85301 0.80065 0.68094 0.0
H1618 H 0.93722 0.75345 0.6848 0.0
H1619 H 0.9965 0.77925 0.69079 0.0
C1620 C 0.20374 0.12566 0.70049 0.0
C1621 C 0.15749 0.1236 0.69791 0.0
C1622 C 0.11899 0.03351 0.69408 0.0
C1623 C 0.16371 0.03414 0.69738 0.0
N1624 N 0.24665 0.07958 0.70519 0.0
N1625 N 0.06739 0.07162 0.69622 0.0
C1626 C 0.20543 0.07983 0.70111 0.0
C1627 C 0.11413 0.07644 0.69581 0.0
N1628 N 0.24637 0.17128 0.70196 0.0
N1629 N 0.0806 0.99211 0.68929 0.0
H1630 H 0.06217 0.10132 0.69842 0.0
H1631 H 0.03402 0.03697 0.69587 0.0
H1632 H 0.08029 0.95836 0.68824 0.0
H1633 H 0.05025 0.99261 0.68566 0.0
H1634 H 0.28232 0.17579 0.70259 0.0
H1635 H 0.24636 0.2053 0.70185 0.0
H1636 H 0.27586 0.11032 0.70905 0.0
H1637 H 0.25016 0.04742 0.70534 0.0
C1638 C 0.90285 0.06571 0.70192 0.0
C1639 C 0.89948 0.02921 0.69456 0.0
C1640 C 0.97938 0.09234 0.68653 0.0
C1641 C 0.98604 0.12686 0.69472 0.0
N1642 N 0.95557 0.14615 0.71057 0.0
N1643 N 0.93968 1.00538 0.68112 0.0
C1644 C 0.94819 0.11338 0.70254 0.0
C1645 C 0.93875 0.04203 0.68711 0.0
N1646 N 0.86197 0.05559 0.70801 0.0
N1647 N 1.01252 0.10666 0.67827 0.0
H1648 H 0.91159 0.96775 0.6813 0.0
H1649 H 0.97086 0.0112 0.67671 0.0
H1650 H 0.04615 0.14079 0.67786 0.0
H1651 H 1.005 0.08543 0.6714 0.0
H1652 H 0.86013 0.08225 0.71279 0.0
H1653 H 0.82787 0.02166 0.70757 0.0
H1654 H 0.93264 0.1363 0.71723 0.0
H1655 H 0.98625 0.1828 0.71083 0.0
C1656 C 0.86133 0.4066 0.52519 0.0
C1657 C 0.83082 0.37003 0.53286 0.0
C1658 C 0.81964 0.43528 0.54167 0.0
C1659 C 0.83919 0.46693 0.53267 0.0
N1660 N 0.87881 0.48204 0.51557 0.0
N1661 N 0.77313 0.34902 0.54758 0.0
C1662 C 0.86007 0.45234 0.52433 0.0
C1663 C 0.80848 0.38435 0.541 0.0
N1664 N 0.89347 0.39879 0.51907 0.0
N1665 N 0.81005 0.45281 0.55077 0.0
H1666 H 0.75993 0.31063 0.54688 0.0
H1667 H 0.75229 0.35716 0.55292 0.0
H1668 H 0.81572 0.48908 0.55156 0.0
H1669 H 0.80049 0.43243 0.55781 0.0
H1670 H 0.91965 0.42588 0.51396 0.0
H1671 H 0.89831 0.36777 0.52016 0.0
H1672 H 0.88898 0.47029 0.50875 0.0
H1673 H 0.88166 0.51733 0.5149 0.0
C1674 C 0.61657 0.37197 0.53253 0.0
C1675 C 0.56969 0.37113 0.53251 0.0
C1676 C 0.61586 0.4641 0.53332 0.0
C1677 C 0.66189 0.46373 0.53423 0.0
N1678 N 0.70387 0.41645 0.53766 0.0
N1679 N 0.5241 0.41645 0.53384 0.0
C1680 C 0.66139 0.41739 0.53481 0.0
C1681 C 0.56911 0.41727 0.53331 0.0
N1682 N 0.61923 0.33007 0.52995 0.0
N1683 N 0.61705 0.50909 0.53221 0.0
H1684 H 0.48935 0.38342 0.53312 0.0
H1685 H 0.52104 0.44809 0.53552 0.0
H1686 H 0.65049 0.54371 0.53267 0.0
H1687 H 0.58558 0.51219 0.53033 0.0
H1688 H 0.65314 0.33081 0.52853 0.0
H1689 H 0.58799 0.29539 0.52829 0.0
H1690 H 0.7042 0.38328 0.53934 0.0
H1691 H 0.73721 0.44898 0.53954 0.0
C1692 C 0.59562 0.21964 0.54123 0.0
C1693 C 0.55801 0.19334 0.53336 0.0
C1694 C 0.61256 0.16491 0.52526 0.0
C1695 C 0.64949 0.19063 0.53317 0.0
N1696 N 0.66862 0.22821 0.5505 0.0
N1697 N 0.52474 0.12775 0.52024 0.0
C1698 C 0.63831 0.21287 0.54179 0.0
C1699 C 0.56479 0.16208 0.52605 0.0
N1700 N 0.59333 0.25436 0.54764 0.0
N1701 N 0.62295 0.14292 0.517 0.0
H1702 H 0.48866 0.12237 0.52127 0.0
H1703 H 0.52587 0.10079 0.51542 0.0
H1704 H 0.65563 0.14032 0.51661 0.0
H1705 H 0.60019 0.12931 0.51032 0.0
H1706 H 0.6229 0.27857 0.55256 0.0
H1707 H 0.56524 0.26398 0.54725 0.0
H1708 H 0.65907 0.23942 0.55748 0.0
H1709 H 0.70087 0.22518 0.55117 0.0
C1710 C 0.76543 0.44171 0.6987 0.0
C1711 C 0.80634 0.47989 0.69291 0.0
C1712 C 0.75224 0.51384 0.68735 0.0
C1713 C 0.70977 0.472 0.69205 0.0
N1714 N 0.67519 0.38905 0.69987 0.0
N1715 N 0.83613 0.54693 0.68005 0.0
C1716 C 0.71617 0.43403 0.69712 0.0
C1717 C 0.7989 0.51417 0.68666 0.0
N1718 N 0.77318 0.41238 0.70574 0.0
N1719 N 0.74903 0.55463 0.68409 0.0
H1720 H 0.87093 0.54869 0.67942 0.0
H1721 H 0.8308 0.56923 0.67456 0.0
H1722 H 0.71663 0.557 0.68519 0.0
H1723 H 0.77998 0.58811 0.68149 0.0
H1724 H 0.7455 0.38778 0.71097 0.0
H1725 H 0.80832 0.41596 0.7071 0.0
H1726 H 0.67775 0.35805 0.70244 0.0
H1727 H 0.6384 0.38051 0.69841 0.0
C1728 C 0.51085 0.21782 0.69551 0.0
C1729 C 0.55079 0.21793 0.68977 0.0
C1730 C 0.57749 0.30301 0.68321 0.0
C1731 C 0.54043 0.30473 0.68967 0.0
N1732 N 0.47529 0.26643 0.70287 0.0
N1733 N 0.62929 0.2652 0.68035 0.0
C1734 C 0.50802 0.26283 0.69608 0.0
C1735 C 0.5857 0.26151 0.6841 0.0
N1736 N 0.47504 0.17447 0.70026 0.0
N1737 N 0.60629 0.34176 0.67645 0.0
H1738 H 0.63821 0.23684 0.68134 0.0
H1739 H 0.6592 0.29832 0.67732 0.0
H1740 H 0.60589 0.37551 0.6762 0.0
H1741 H 0.62871 0.33919 0.67058 0.0
H1742 H 0.44174 0.1701 0.70344 0.0
H1743 H 0.47668 0.14129 0.70038 0.0
H1744 H 0.45509 0.23976 0.70867 0.0
H1745 H 0.47047 0.29779 0.70318 0.0
C1746 C 0.78438 0.30243 0.68163 0.0
C1747 C 0.81961 0.31408 0.68997 0.0
C1748 C 0.76452 0.23043 0.69775 0.0
C1749 C 0.72982 0.21868 0.6893 0.0
N1750 N 0.71516 0.23807 0.67159 0.0
N1751 N 0.84953 0.28449 0.70436 0.0
C1752 C 0.74271 0.25269 0.68069 0.0
C1753 C 0.81152 0.27663 0.69757 0.0
N1754 N 0.78811 0.33952 0.67503 0.0
N1755 N 0.75259 0.19734 0.70595 0.0
H1756 H 0.88493 0.31707 0.70417 0.0
H1757 H 0.84791 0.25698 0.70944 0.0
H1758 H 0.72101 0.16122 0.70588 0.0
H1759 H 0.77288 0.20634 0.71299 0.0
H1760 H 0.75978 0.33427 0.66974 0.0
H1761 H 0.81688 0.37689 0.67545 0.0
H1762 H 0.72666 0.25929 0.66467 0.0
H1763 H 0.683 0.20311 0.67066 0.0
C1764 C 0.49843 0.24688 0.1974 0.0
C1765 C 0.52205 0.23362 0.18936 0.0
C1766 C 0.54806 0.3144 0.18041 0.0
C1767 C 0.52306 0.32695 0.18826 0.0
N1768 N 0.46376 0.29972 0.20263 0.0
N1769 N 0.55979 0.25031 0.17198 0.0
C1770 C 0.49503 0.29149 0.19628 0.0
C1771 C 0.54304 0.26559 0.18041 0.0
N1772 N 0.47961 0.21717 0.20616 0.0
N1773 N 0.58015 0.35026 0.17344 0.0
H1774 H 0.5625 0.21781 0.172 0.0
H1775 H 0.56868 0.2688 0.16472 0.0
H1776 H 0.58607 0.38678 0.17314 0.0
H1777 H 0.6046 0.34529 0.16853 0.0
H1778 H 0.46771 0.22797 0.21286 0.0
H1779 H 0.47849 0.18274 0.20701 0.0
H1780 H 0.43859 0.27321 0.20796 0.0
H1781 H 0.4592 0.33113 0.20179 0.0
C1782 C 0.79207 0.28055 0.1934 0.0
C1783 C 0.79735 0.32593 0.18921 0.0
C1784 C 0.70681 0.28391 0.18575 0.0
C1785 C 0.70157 0.23739 0.18918 0.0
N1786 N 0.74086 0.18922 0.19437 0.0
N1787 N 0.76191 0.36716 0.17884 0.0
C1788 C 0.74476 0.23501 0.19247 0.0
C1789 C 0.75555 0.32623 0.18445 0.0
N1790 N 0.83208 0.28111 0.19833 0.0
N1791 N 0.6653 0.28912 0.18459 0.0
H1792 H 0.79676 0.39955 0.17779 0.0
H1793 H 0.73318 0.36699 0.17438 0.0
H1794 H 0.62914 0.26016 0.18631 0.0
H1795 H 0.66725 0.32365 0.18324 0.0
H1796 H 0.82918 0.25065 0.20259 0.0
H1797 H 0.86781 0.31323 0.19863 0.0
H1798 H 0.77176 0.1846 0.19588 0.0
H1799 H 0.7071 0.15522 0.19349 0.0
C1800 C 0.78967 0.53088 0.18581 0.0
C1801 C 0.79188 0.49242 0.19168 0.0
C1802 C 0.70505 0.46144 0.19776 0.0
C1803 C 0.70102 0.4963 0.19101 0.0
N1804 N 0.73688 0.55852 0.17715 0.0
N1805 N 0.7461 0.41299 0.201 0.0
C1806 C 0.74248 0.52914 0.18454 0.0
C1807 C 0.74809 0.45555 0.19706 0.0
N1808 N 0.83295 0.57052 0.1819 0.0
N1809 N 0.66783 0.43355 0.20487 0.0
H1810 H 0.77564 0.40563 0.20033 0.0
H1811 H 0.71308 0.38218 0.20382 0.0
H1812 H 0.63475 0.43501 0.20551 0.0
H1813 H 0.67183 0.41218 0.2108 0.0
H1814 H 0.8344 0.60216 0.17846 0.0
H1815 H 0.86834 0.57427 0.18308 0.0
H1816 H 0.76414 0.57916 0.17148 0.0
H1817 H 0.70337 0.55911 0.17614 0.0
C1818 C 0.63748 0.22895 1.01971 0.0
C1819 C 0.64551 0.19441 1.02581 0.0
C1820 C 0.55694 0.15336 0.03164 0.0
C1821 C 0.54852 0.18563 1.02496 0.0
N1822 N 0.57843 0.24666 1.01076 0.0
N1823 N 0.60812 0.11517 0.03514 0.0
C1824 C 0.58775 0.22026 1.01826 0.0
C1825 C 0.60392 0.15426 0.03115 0.0
N1826 N 0.67754 0.2725 1.01596 0.0
N1827 N 0.51992 0.12142 0.0384 0.0
H1828 H 0.64046 0.11279 0.03411 0.0
H1829 H 0.57794 0.08257 0.03828 0.0
H1830 H 0.48374 0.11681 0.03841 0.0
H1831 H 0.52599 0.10156 0.04436 0.0
H1832 H 0.67393 0.30097 1.01228 0.0
H1833 H 0.71495 0.28365 1.0176 0.0
H1834 H 0.60394 0.26703 1.00478 0.0
H1835 H 0.54424 0.24586 1.01002 0.0
C1836 C 0.84964 0.40899 1.02629 0.0
C1837 C 0.80761 0.36456 0.03032 0.0
C1838 C 0.77011 0.4149 0.03648 0.0
C1839 C 0.80867 0.45796 0.03116 0.0
N1840 N 0.88573 0.49653 1.02109 0.0
N1841 N 0.7253 0.32412 0.03854 0.0
C1842 C 0.84846 0.45498 1.02605 0.0
C1843 C 0.76753 0.36734 0.03537 0.0
N1844 N 0.89201 0.40788 1.02329 0.0
N1845 N 0.73524 0.41892 0.04252 0.0
H1846 H 0.7207 0.2883 0.03772 0.0
H1847 H 0.69259 0.3228 0.04125 0.0
H1848 H 0.73151 0.45082 0.04275 0.0
H1849 H 0.71136 0.39133 0.04783 0.0
H1850 H 0.92585 0.43978 1.02124 0.0
H1851 H 0.89515 0.37557 1.02385 0.0
H1852 H 0.91181 0.49558 1.01597 0.0
H1853 H 0.8895 0.53207 1.02187 0.0
C1854 C 0.55327 0.40761 0.03411 0.0
C1855 C 0.55295 0.36273 0.03114 0.0
C1856 C 0.64206 0.41136 1.02634 0.0
C1857 C 0.64385 0.45658 0.02961 0.0
N1858 N 0.60237 0.49798 0.03743 0.0
N1859 N 0.60184 0.32186 0.02895 0.0
C1860 C 0.5998 0.45471 0.03384 0.0
C1861 C 0.59868 0.36467 0.02853 0.0
N1862 N 0.50919 0.40529 0.037 0.0
N1863 N 0.68144 0.41221 1.02109 0.0
H1864 H 0.57196 0.2878 0.03154 0.0
H1865 H 0.63571 0.32186 0.02822 0.0
H1866 H 0.71546 0.4447 1.0196 0.0
H1867 H 0.67872 0.38041 1.01747 0.0
H1868 H 0.50507 0.43674 0.03805 0.0
H1869 H 0.47582 0.37123 0.0381 0.0
H1870 H 0.57369 0.499 0.04162 0.0
H1871 H 0.6344 0.53329 0.0365 0.0
C1872 C 0.46819 0.76166 0.85725 0.0
C1873 C 0.50634 0.80249 0.86307 0.0
C1874 C 0.54112 0.74861 0.8683 0.0
C1875 C 0.49954 0.70644 0.86349 0.0
N1876 N 0.41541 0.67147 0.85646 0.0
N1877 N 0.57237 0.83111 0.87616 0.0
C1878 C 0.46086 0.71262 0.85878 0.0
C1879 C 0.54071 0.79484 0.86926 0.0
N1880 N 0.43838 0.76913 0.85031 0.0
N1881 N 0.58196 0.74542 0.87153 0.0
H1882 H 0.57236 0.86484 0.87723 0.0
H1883 H 0.59496 0.82553 0.88153 0.0
H1884 H 0.58438 0.71303 0.87042 0.0
H1885 H 0.61525 0.77635 0.87421 0.0
H1886 H 0.41331 0.74113 0.84519 0.0
H1887 H 0.44213 0.80427 0.84888 0.0
H1888 H 0.38411 0.67386 0.85404 0.0
H1889 H 0.40725 0.63518 0.85837 0.0
C1890 C 0.27955 0.72005 0.87036 0.0
C1891 C 0.24347 0.71551 0.86273 0.0
C1892 C 0.29878 0.80402 0.85759 0.0
C1893 C 0.33716 0.80658 0.86432 0.0
N1894 N 0.36633 0.76472 0.87619 0.0
N1895 N 0.21917 0.75158 0.84858 0.0
C1896 C 0.32797 0.7642 0.87056 0.0
C1897 C 0.25324 0.7571 0.85619 0.0
N1898 N 0.26775 0.68209 0.87746 0.0
N1899 N 0.3053 0.847 0.85283 0.0
H1900 H 0.18431 0.71874 0.84771 0.0
H1901 H 0.22649 0.77831 0.84273 0.0
H1902 H 0.33768 0.88205 0.85389 0.0
H1903 H 0.2771 0.84903 0.84864 0.0
H1904 H 0.28973 0.68584 0.88405 0.0
H1905 H 0.23407 0.64791 0.87727 0.0
H1906 H 0.36417 0.73265 0.87957 0.0
H1907 H 0.40189 0.79639 0.87691 0.0
C1908 C 0.2914 0.50606 0.86751 0.0
C1909 C 0.32848 0.53044 0.85952 0.0
C1910 C 0.27768 0.56421 0.8518 0.0
C1911 C 0.23975 0.53865 0.85957 0.0
N1912 N 0.20508 0.47543 0.87322 0.0
N1913 N 0.34968 0.57189 0.84245 0.0
C1914 C 0.24509 0.50676 0.86699 0.0
C1915 C 0.31883 0.55518 0.85108 0.0
N1916 N 0.30032 0.48192 0.87559 0.0
N1917 N 0.27712 0.60058 0.84561 0.0
H1918 H 0.38335 0.57167 0.84188 0.0
H1919 H 0.34006 0.58337 0.83551 0.0
H1920 H 0.24936 0.61056 0.84602 0.0
H1921 H 0.30717 0.62489 0.84081 0.0
H1922 H 0.27829 0.46938 0.88238 0.0
H1923 H 0.33112 0.47609 0.87569 0.0
H1924 H 0.20471 0.44781 0.87808 0.0
H1925 H 0.17015 0.47358 0.87278 0.0
C1926 C 0.42166 0.79492 1.01758 0.0
C1927 C 0.45675 0.82357 1.02563 0.0
C1928 C 0.40109 0.85544 0.03133 0.0
C1929 C 0.3638 0.82258 1.02406 0.0
N1930 N 0.33588 0.75587 1.01115 0.0
N1931 N 0.47827 0.87753 0.04087 0.0
C1932 C 0.37356 0.79141 1.01732 0.0
C1933 C 0.44597 0.85281 0.03272 0.0
N1934 N 0.43386 0.77036 1.01018 0.0
N1935 N 0.39426 0.89042 0.03665 0.0
H1936 H 0.51239 0.87815 0.04191 0.0
H1937 H 0.46984 0.89465 0.04701 0.0
H1938 H 0.36241 0.89409 0.03562 0.0
H1939 H 0.42196 0.91884 0.04128 0.0
H1940 H 0.4133 0.7552 1.00328 0.0
H1941 H 0.46629 0.76767 1.01058 0.0
H1942 H 0.33834 0.72722 1.00726 0.0
H1943 H 0.30037 0.75225 1.01046 0.0
C1944 C 0.22539 0.64493 0.03376 0.0
C1945 C 0.1902 0.64865 0.02708 0.0
C1946 C 0.15434 0.55946 1.02232 0.0
C1947 C 0.19387 0.55791 0.02788 0.0
N1948 N 0.27551 0.6053 0.03625 0.0
N1949 N 0.12738 0.61193 1.01334 0.0
C1950 C 0.23159 0.60221 0.03295 0.0
C1951 C 0.15654 0.60668 1.02083 0.0
N1952 N 0.25381 0.68238 0.04078 0.0
N1953 N 0.11381 0.51582 1.01881 0.0
H1954 H 0.12835 0.64595 1.01194 0.0
H1955 H 0.1058 0.58379 1.0079 0.0
H1956 H 0.1098 0.48043 1.02021 0.0
H1957 H 0.08184 0.51435 1.01554 0.0
H1958 H 0.27606 0.67866 0.04655 0.0
H1959 H 0.25173 0.71508 0.04154 0.0
H1960 H 0.30637 0.63855 0.03898 0.0
H1961 H 0.28365 0.57664 0.03498 0.0
C1962 C 0.40097 0.56538 1.02111 0.0
C1963 C 0.36719 0.55436 0.02972 0.0
C1964 C 0.42327 0.63822 0.03712 0.0
C1965 C 0.45764 0.64911 0.02864 0.0
N1966 N 0.48507 0.61888 1.01397 0.0
N1967 N 0.35412 0.57555 0.04743 0.0
C1968 C 0.44814 0.61146 1.02102 0.0
C1969 C 0.38118 0.58892 0.03825 0.0
N1970 N 0.38809 0.5316 1.01302 0.0
N1971 N 0.42826 0.67581 0.04371 0.0
H1972 H 0.32064 0.54186 0.04853 0.0
H1973 H 0.36703 0.59687 0.05431 0.0
H1974 H 0.45753 0.71287 0.04322 0.0
H1975 H 0.40049 0.67143 0.04905 0.0
H1976 H 0.40737 0.54003 1.00588 0.0
H1977 H 0.35682 0.49534 1.01331 0.0
H1978 H 0.48263 0.59115 1.00887 0.0
H1979 H 0.52045 0.65148 1.01389 0.0
C1980 C 0.16636 0.56653 0.52683 0.0
C1981 C 0.19895 0.55867 0.52011 0.0
C1982 C 0.23709 0.64594 0.51374 0.0
C1983 C 0.20454 0.65391 0.52045 0.0
N1984 N 0.1312 0.61949 0.53165 0.0
N1985 N 0.25649 0.58694 0.5053 0.0
C1986 C 0.16704 0.61343 0.52649 0.0
C1987 C 0.23115 0.59695 0.51292 0.0
N1988 N 0.1351 0.52921 0.53363 0.0
N1989 N 0.27606 0.68582 0.50868 0.0
H1990 H 0.2551 0.55251 0.50454 0.0
H1991 H 0.27548 0.61139 0.49907 0.0
H1992 H 0.28157 0.72215 0.50881 0.0
H1993 H 0.30545 0.68388 0.50499 0.0
H1994 H 0.11533 0.53446 0.5397 0.0
H1995 H 0.13029 0.49298 0.53346 0.0
H1996 H 0.09967 0.5902 0.53529 0.0
H1997 H 0.13066 0.65328 0.53157 0.0
C1998 C 0.43194 0.63659 0.51458 0.0
C1999 C 0.46767 0.64451 0.52261 0.0
C2000 C 0.40932 0.56098 0.53002 0.0
C2001 C 0.37419 0.55283 0.52185 0.0
N2002 N 0.35861 0.5767 0.5047 0.0
N2003 N 0.49556 0.6099 0.5364 0.0
C2004 C 0.38777 0.58849 0.51356 0.0
C2005 C 0.45786 0.60534 0.52988 0.0
N2006 N 0.4382 0.67583 0.50836 0.0
N2007 N 0.39613 0.52635 0.53796 0.0
H2008 H 0.53178 0.64136 0.5363 0.0
H2009 H 0.49255 0.58086 0.54119 0.0
H2010 H 0.36283 0.49155 0.53786 0.0
H2011 H 0.41713 0.53287 0.54484 0.0
H2012 H 0.41025 0.67375 0.50334 0.0
H2013 H 0.46928 0.71199 0.50888 0.0
H2014 H 0.36948 0.59934 0.49798 0.0
H2015 H 0.32604 0.54203 0.5036 0.0
C2016 C 0.46371 0.85391 0.51839 0.0
C2017 C 0.46572 0.81626 0.52459 0.0
C2018 C 0.38052 0.78869 0.53125 0.0
C2019 C 0.37647 0.823 0.52431 0.0
N2020 N 0.41168 0.88363 0.51014 0.0
N2021 N 0.42086 0.73997 0.53489 0.0
C2022 C 0.41728 0.85412 0.5175 0.0
C2023 C 0.42285 0.78173 0.53052 0.0
N2024 N 0.50663 0.89068 0.51369 0.0
N2025 N 0.3438 0.76201 0.53855 0.0
H2026 H 0.45013 0.73227 0.53434 0.0
H2027 H 0.38819 0.7101 0.53808 0.0
H2028 H 0.3102 0.76249 0.53902 0.0
H2029 H 0.34838 0.74209 0.54471 0.0
H2030 H 0.50895 0.92215 0.50998 0.0
H2031 H 0.54135 0.89218 0.51431 0.0
H2032 H 0.43783 0.90268 0.50418 0.0
H2033 H 0.37916 0.88635 0.50951 0.0
C2034 C 0.22881 0.48484 0.36092 0.0
C2035 C 0.2245 0.52394 0.36601 0.0
C2036 C 0.31423 0.56558 0.37094 0.0
C2037 C 0.31859 0.52685 0.36582 0.0
N2038 N 0.27971 0.44539 0.35756 0.0
N2039 N 0.26123 0.59693 0.37758 0.0
C2040 C 0.27564 0.48511 0.36129 0.0
C2041 C 0.26642 0.56245 0.37166 0.0
N2042 N 0.1881 0.44761 0.35569 0.0
N2043 N 0.35669 0.60734 0.37451 0.0
H2044 H 0.2295 0.60096 0.37749 0.0
H2045 H 0.28793 0.62053 0.38307 0.0
H2046 H 0.392 0.61014 0.37447 0.0
H2047 H 0.35776 0.64049 0.37681 0.0
H2048 H 0.18976 0.42125 0.35079 0.0
H2049 H 0.15233 0.44387 0.35598 0.0
H2050 H 0.24937 0.41163 0.35494 0.0
H2051 H 0.31347 0.44474 0.35783 0.0
C2052 C 0.52803 0.74465 0.35771 0.0
C2053 C 0.50222 0.70753 0.36562 0.0
C2054 C 0.47024 0.75963 0.37321 0.0
C2055 C 0.49677 0.79738 0.36547 0.0
N2056 N 0.56241 0.83188 0.35234 0.0
N2057 N 0.46569 0.69042 0.38317 0.0
C2058 C 0.52913 0.79168 0.35828 0.0
C2059 C 0.4792 0.71859 0.37415 0.0
N2060 N 0.55188 0.73514 0.34969 0.0
N2061 N 0.43354 0.76048 0.3792 0.0
H2062 H 0.4708 0.6597 0.38437 0.0
H2063 H 0.45368 0.70075 0.38993 0.0
H2064 H 0.4231 0.78787 0.37846 0.0
H2065 H 0.4095 0.73077 0.38411 0.0
H2066 H 0.5656 0.75762 0.34297 0.0
H2067 H 0.55639 0.70358 0.34961 0.0
H2068 H 0.59018 0.83165 0.34764 0.0
H2069 H 0.56575 0.86734 0.35299 0.0
C2070 C 0.22977 0.73606 0.36863 0.0
C2071 C 0.22814 0.69321 0.36389 0.0
C2072 C 0.31592 0.74565 0.35806 0.0
C2073 C 0.31891 0.78743 0.36354 0.0
N2074 N 0.28114 0.82177 0.3751 0.0
N2075 N 0.27319 0.65546 0.35592 0.0
C2076 C 0.27663 0.78233 0.36922 0.0
C2077 C 0.27214 0.69759 0.35909 0.0
N2078 N 0.18612 0.7334 0.37201 0.0
N2079 N 0.35478 0.75163 0.35175 0.0
H2080 H 0.24226 0.61936 0.3564 0.0
H2081 H 0.30609 0.65554 0.35378 0.0
H2082 H 0.38887 0.78518 0.35113 0.0
H2083 H 0.35183 0.7243 0.34645 0.0
H2084 H 0.18382 0.76454 0.37454 0.0
H2085 H 0.15105 0.70075 0.37139 0.0
H2086 H 0.25365 0.81867 0.38037 0.0
H2087 H 0.31386 0.85705 0.3752 0.0
C2088 C 0.31774 0.35261 0.18254 0.0
C2089 C 0.29175 0.36405 0.19038 0.0
C2090 C 0.37279 0.43098 0.19738 0.0
C2091 C 0.39866 0.42038 0.18939 0.0
N2092 N 0.39602 0.37757 0.17322 0.0
N2093 N 0.29329 0.42056 0.20376 0.0
C2094 C 0.37113 0.38353 0.18155 0.0
C2095 C 0.31899 0.40515 0.19737 0.0
N2096 N 0.29193 0.31022 0.1765 0.0
N2097 N 0.39973 0.46539 0.20506 0.0
H2098 H 0.25401 0.40311 0.20381 0.0
H2099 H 0.31064 0.45322 0.20831 0.0
H2100 H 0.43898 0.48759 0.20491 0.0
H2101 H 0.38356 0.47025 0.21185 0.0
H2102 H 0.3093 0.29636 0.17155 0.0
H2103 H 0.25306 0.28622 0.17701 0.0
H2104 H 0.37783 0.35578 0.16662 0.0
H2105 H 0.43514 0.3974 0.17248 0.0
C2106 C 0.64949 0.02884 0.20143 0.0
C2107 C 0.61288 0.0174 0.1934 0.0
C2108 C 0.6278 0.95021 0.18673 0.0
C2109 C 0.66651 0.96377 0.19435 0.0
N2110 N 0.71736 0.0185 0.20848 0.0
N2111 N 0.5681 0.96912 0.17808 0.0
C2112 C 0.67766 1.00327 0.20167 0.0
C2113 C 0.60239 0.97863 0.18594 0.0
N2114 N 0.65797 0.06487 0.2088 0.0
N2115 N 0.61406 0.90877 0.18053 0.0
H2116 H 0.54583 0.98605 0.17775 0.0
H2117 H 0.56289 0.94607 0.17162 0.0
H2118 H 0.63157 0.88704 0.18099 0.0
H2119 H 0.58316 0.89344 0.17547 0.0
H2120 H 0.67768 0.06964 0.21579 0.0
H2121 H 0.6437 0.08929 0.20816 0.0
H2122 H 0.73259 0.05149 0.21291 0.0
H2123 H 0.73746 0.99966 0.20936 0.0
C2124 C 0.08541 0.70968 0.20221 0.0
C2125 C 0.07258 0.7377 0.1952 0.0
C2126 C 1.00819 0.65937 0.18689 0.0
C2127 C 0.01809 0.63115 0.19446 0.0
N2128 N 0.06275 0.62827 0.20989 0.0
N2129 N 0.0163 0.7396 0.18207 0.0
C2130 C 0.05568 0.65601 0.20231 0.0
C2131 C 0.03281 0.71269 0.18779 0.0
N2132 N 0.12721 0.73441 0.20847 0.0
N2133 N 0.97487 0.63524 0.17886 0.0
H2134 H 0.03253 0.77861 0.18259 0.0
H2135 H 0.98362 0.72312 0.17751 0.0
H2136 H 0.95267 0.59619 0.17837 0.0
H2137 H 0.97127 0.65378 0.17231 0.0
H2138 H 0.14182 0.7163 0.213 0.0
H2139 H 0.14996 0.7736 0.2085 0.0
H2140 H 0.08517 0.64395 0.21654 0.0
H2141 H 0.04387 0.58894 0.20984 0.0
C2142 C 0.36083 0.31836 0.34972 0.0
C2143 C 0.35402 0.2903 0.35915 0.0
C2144 C 0.39466 0.36973 0.36904 0.0
C2145 C 0.40792 0.39774 0.35945 0.0
N2146 N 0.41588 0.39577 0.34049 0.0
N2147 N 0.37956 0.29229 0.37731 0.0
C2148 C 0.39492 0.3712 0.34973 0.0
C2149 C 0.37568 0.31687 0.36867 0.0
N2150 N 0.33265 0.29586 0.34093 0.0
N2151 N 0.39684 0.39233 0.37847 0.0
H2152 H 0.36964 0.25437 0.37718 0.0
H2153 H 0.39852 0.31119 0.38415 0.0
H2154 H 0.4055 0.42972 0.37914 0.0
H2155 H 0.38353 0.372 0.38548 0.0
H2156 H 0.33398 0.31625 0.33422 0.0
H2157 H 0.30339 0.25857 0.34079 0.0
H2158 H 0.41012 0.37684 0.33334 0.0
H2159 H 0.44376 0.43371 0.34019 0.0
C2160 C 0.64755 1.00197 0.3524 0.0
C2161 C 0.62216 0.01518 0.36007 0.0
C2162 C 0.70399 0.08142 0.36698 0.0
C2163 C 0.72889 0.06529 0.35989 0.0
N2164 N 0.72556 1.00767 0.34654 0.0
N2165 N 0.62514 0.06717 0.37465 0.0
C2166 C 0.70101 0.02534 0.3527 0.0
C2167 C 0.65017 0.05486 0.36737 0.0
N2168 N 0.62072 0.9667 0.34485 0.0
N2169 N 0.73199 0.12331 0.37305 0.0
H2170 H 0.58618 0.05238 0.3745 0.0
H2171 H 0.64245 0.09092 0.38105 0.0
H2172 H 0.77135 0.14337 0.37294 0.0
H2173 H 0.7168 0.14041 0.37769 0.0
H2174 H 0.63692 0.96119 0.33814 0.0
H2175 H 0.5817 0.94417 0.34491 0.0
H2176 H 0.70744 0.97424 0.34225 0.0
H2177 H 0.76467 0.02435 0.34625 0.0
C2178 C 0.98788 0.67417 0.36877 0.0
C2179 C 0.94873 0.66072 0.36126 0.0
C2180 C 0.96344 0.59421 0.35427 0.0
C2181 C 1.00154 0.60667 0.36198 0.0
N2182 N 0.04629 0.65394 0.37741 0.0
N2183 N 0.89283 0.60295 0.34815 0.0
C2184 C 1.01227 0.645 0.36954 0.0
C2185 C 0.9347 0.61927 0.35436 0.0
N2186 N 1.00393 0.71672 0.37474 0.0
N2187 N 0.95528 0.55892 0.34675 0.0
H2188 H 0.87074 0.62014 0.34814 0.0
H2189 H 0.87738 0.57008 0.34368 0.0
H2190 H 0.97366 0.53795 0.34677 0.0
H2191 H 0.93248 0.55221 0.34016 0.0
H2192 H 0.03643 0.73248 0.37935 0.0
H2193 H 0.9867 0.73867 0.37459 0.0
H2194 H 0.05107 0.6764 0.38396 0.0
H2195 H 0.06816 0.63667 0.37771 0.0
C2196 C 0.66026 0.65957 0.87003 0.0
C2197 C 0.63381 0.61442 0.86419 0.0
C2198 C 0.71495 0.62322 0.85874 0.0
C2199 C 0.74082 0.67308 0.86293 0.0
N2200 N 0.734 0.74226 0.87041 0.0
N2201 N 0.63551 0.55391 0.85235 0.0
C2202 C 0.7125 0.69212 0.86811 0.0
C2203 C 0.66104 0.59633 0.85836 0.0
N2204 N 0.63553 0.67159 0.8774 0.0
N2205 N 0.74158 0.60072 0.85554 0.0
H2206 H 0.5962 0.53228 0.85228 0.0
H2207 H 0.65324 0.54206 0.84699 0.0
H2208 H 0.7807 0.61803 0.85624 0.0
H2209 H 0.72455 0.56302 0.85327 0.0
H2210 H 0.65413 0.70204 0.88254 0.0
H2211 H 0.59728 0.64821 0.87905 0.0
H2212 H 0.7135 0.7584 0.87335 0.0
H2213 H 0.7704 0.76873 0.8681 0.0
C2214 C 0.41819 0.0965 0.85608 0.0
C2215 C 0.37413 0.07987 0.86231 0.0
C2216 C 0.389 0.01542 0.87049 0.0
C2217 C 0.42938 0.02817 0.86335 0.0
N2218 N 0.48104 0.07844 0.84887 0.0
N2219 N 0.31389 0.01968 0.87463 0.0
C2220 C 0.44366 0.06815 0.85602 0.0
C2221 C 0.3589 0.03874 0.86942 0.0
N2222 N 0.43658 0.14041 0.85047 0.0
N2223 N 0.37902 0.98055 0.87824 0.0
H2224 H 0.29043 0.03517 0.87407 0.0
H2225 H 0.29755 0.98602 0.87886 0.0
H2226 H 0.39824 0.9606 0.87893 0.0
H2227 H 0.35427 0.97396 0.88446 0.0
H2228 H 0.4711 0.1574 0.84657 0.0
H2229 H 0.41939 0.16249 0.85052 0.0
H2230 H 0.4892 0.10278 0.8425 0.0
H2231 H 0.50229 0.06035 0.84897 0.0
C2232 C 0.961 0.33024 0.86626 0.0
C2233 C 0.97201 0.30544 0.85809 0.0
C2234 C 0.03362 0.38776 0.85046 0.0
C2235 C 0.0234 0.41258 0.85876 0.0
N2236 N 0.97265 0.40893 0.87359 0.0
N2237 N 0.022 0.30952 0.84302 0.0
C2238 C 0.98594 0.38414 0.86644 0.0
C2239 C 1.0086 0.33395 0.85025 0.0
N2240 N 0.92717 0.30202 0.87395 0.0
N2241 N 0.06752 0.41578 0.84277 0.0
H2242 H 1.00464 0.27043 0.84251 0.0
H2243 H 0.05236 0.32739 0.83787 0.0
H2244 H 0.09007 0.45484 0.84312 0.0
H2245 H 0.07207 0.40103 0.83574 0.0
H2246 H 0.92117 0.31684 0.88081 0.0
H2247 H 0.90595 0.26274 0.87369 0.0
H2248 H 0.94288 0.39125 0.87888 0.0
H2249 H 0.98941 0.44813 0.87379 0.0
C2250 C 0.60369 0.63701 0.69808 0.0
C2251 C 0.62117 0.60986 0.692 0.0
C2252 C 0.69922 0.68812 0.68825 0.0
C2253 C 0.67993 0.71636 0.69327 0.0
N2254 N 0.60887 0.71772 0.7012 0.0
N2255 N 0.67944 0.61232 0.6788 0.0
C2256 C 0.63074 0.69087 0.69775 0.0
C2257 C 0.66671 0.63628 0.68623 0.0
N2258 N 0.5612 0.61147 0.70409 0.0
N2259 N 0.74956 0.70972 0.68611 0.0
H2260 H 0.65732 0.57414 0.67704 0.0
H2261 H 0.70997 0.63165 0.6737 0.0
H2262 H 0.77571 0.74617 0.68849 0.0
H2263 H 0.76602 0.68931 0.68329 0.0
H2264 H 0.54978 0.62906 0.70957 0.0
H2265 H 0.53896 0.57223 0.70401 0.0
H2266 H 0.5714 0.70093 0.70363 0.0
H2267 H 0.62656 0.7569 0.70067 0.0
C2268 C 0.39333 0.03004 0.68908 0.0
C2269 C 0.42072 1.0059 0.69236 0.0
C2270 C 0.34032 0.92855 0.69638 0.0
C2271 C 0.3138 0.95417 0.69382 0.0
N2272 N 0.31491 0.03143 0.68952 0.0
N2273 N 0.4207 0.9326 0.69944 0.0
C2274 C 0.34026 1.00536 0.6906 0.0
C2275 C 0.39428 0.95533 0.69617 0.0
N2276 N 0.41763 0.07657 0.68442 0.0
N2277 N 0.31371 0.87801 0.69854 0.0
H2278 H 0.45948 0.94851 0.69837 0.0
H2279 H 0.4047 0.89865 0.70356 0.0
H2280 H 0.27437 0.85751 0.69877 0.0
H2281 H 0.32998 0.85542 0.6994 0.0
H2282 H 0.39892 0.09221 0.68044 0.0
H2283 H 0.45659 0.099 0.68394 0.0
H2284 H 0.33275 0.07045 0.68866 0.0
H2285 H 0.27597 0.01488 0.6904 0.0
C2286 C 0.07634 0.42414 0.69975 0.0
C2287 C 0.03849 0.41401 0.69211 0.0
C2288 C 0.05151 0.34818 0.68423 0.0
C2289 C 0.09026 0.35906 0.69171 0.0
N2290 N 0.14656 0.41331 0.7052 0.0
N2291 N 0.99604 0.37315 0.67594 0.0
C2292 C 0.10479 0.39893 0.69906 0.0
C2293 C 0.02839 0.37852 0.68394 0.0
N2294 N 0.08436 0.45717 0.70777 0.0
N2295 N 0.03405 0.30655 0.67792 0.0
H2296 H 0.97561 0.39195 0.67578 0.0
H2297 H 0.9921 0.35286 0.66908 0.0
H2298 H 0.04951 0.28305 0.67784 0.0
H2299 H 1.0016 0.29276 0.67332 0.0
H2300 H 0.10699 0.46187 0.71429 0.0
H2301 H 0.06615 0.47825 0.70819 0.0
H2302 H 0.16217 0.44499 0.71004 0.0
H2303 H 0.1684 0.3959 0.70476 0.0
C2304 C 0.99353 0.7403 0.52574 0.0
C2305 C 0.96816 0.68683 0.52493 0.0
C2306 C 0.04841 0.69118 0.52081 0.0
C2307 C 0.07463 0.74339 0.52314 0.0
N2308 N 0.07295 0.81772 0.52874 0.0
N2309 N 0.97391 0.6109 0.52402 0.0
C2310 C 0.04742 0.76817 0.5258 0.0
C2311 C 0.99622 0.66211 0.52305 0.0
N2312 N 0.96625 0.76452 0.52613 0.0
N2313 N 0.07316 0.66945 0.51619 0.0
H2314 H 0.93647 0.58812 0.52627 0.0
H2315 H 0.99403 0.59171 0.52378 0.0
H2316 H 0.111 0.69018 0.51404 0.0
H2317 H 0.05489 0.63244 0.51343 0.0
H2318 H 0.98253 0.80356 0.5257 0.0
H2319 H 0.92691 0.74538 0.52595 0.0
H2320 H 0.05539 0.83638 0.53191 0.0
H2321 H 0.11224 0.83935 0.52866 0.0
C2322 C 0.3205 0.29208 0.51822 0.0
C2323 C 0.33732 0.28415 0.52811 0.0
C2324 C 0.28848 0.31733 0.53686 0.0
C2325 C 0.28022 0.33418 0.52701 0.0
N2326 N 0.30135 0.34781 0.50837 0.0
N2327 N 0.34624 0.30166 0.5469 0.0
C2328 C 0.29953 0.32424 0.51766 0.0
C2329 C 0.32363 0.29993 0.53748 0.0
N2330 N 0.32325 0.26814 0.50937 0.0
N2331 N 0.26214 0.31679 0.5456 0.0
H2332 H 0.37546 0.29374 0.54768 0.0
H2333 H 0.34023 0.31712 0.55369 0.0
H2334 H 0.23384 0.32632 0.54534 0.0
H2335 H 0.2642 0.30107 0.55275 0.0
H2336 H 0.30771 0.26996 0.50217 0.0
H2337 H 0.33527 0.2417 0.50952 0.0
H2338 H 0.31916 0.34454 0.50166 0.0
H2339 H 0.29115 0.37543 0.50767 0.0
C2340 C 0.6759 0.97603 0.5358 0.0
C2341 C 0.68772 0.9504 0.52798 0.0
C2342 C 0.74982 0.03196 0.52019 0.0
C2343 C 0.73985 0.05761 0.52834 0.0
N2344 N 0.6987 0.0543 0.54484 0.0
N2345 N 0.74142 0.9532 0.51382 0.0
C2346 C 0.70484 0.02967 0.53648 0.0
C2347 C 0.72623 0.97822 0.52046 0.0
N2348 N 0.6348 0.94939 0.54217 0.0
N2349 N 0.78163 0.059 0.51213 0.0
H2350 H 0.72545 0.91406 0.51392 0.0
H2351 H 0.77254 0.97112 0.50885 0.0
H2352 H 0.80206 0.09833 0.51201 0.0
H2353 H 0.78582 0.04269 0.50529 0.0
H2354 H 0.62026 0.96616 0.54711 0.0
H2355 H 0.61229 0.91026 0.54189 0.0
H2356 H 0.67892 0.03604 0.55164 0.0
H2357 H 0.7161 0.0934 0.54536 0.0
C2358 C 0.04896 0.70853 0.68881 0.0
C2359 C 0.0948 0.73341 0.6945 0.0
C2360 C 0.08356 0.65103 0.69971 0.0
C2361 C 0.03418 0.6269 0.69529 0.0
N2362 N 0.96533 0.63614 0.68854 0.0
N2363 N 0.15381 0.72891 0.70642 0.0
C2364 C 1.01563 0.65661 0.69061 0.0
C2365 C 0.11145 0.70481 0.70033 0.0
N2366 N 0.03694 0.73416 0.68165 0.0
N2367 N 0.10492 0.62313 0.7028 0.0
H2368 H 0.17638 0.76812 0.70661 0.0
H2369 H 0.16466 0.71011 0.71174 0.0
H2370 H 0.08677 0.58403 0.70206 0.0
H2371 H 0.14247 0.63917 0.70514 0.0
H2372 H 1.0061 0.71621 0.67657 0.0
H2373 H 0.05989 0.77257 0.6802 0.0
H2374 H 0.94948 0.65748 0.68593 0.0
H2375 H 0.93876 0.59954 0.69079 0.0
C2376 C 0.31862 0.31408 0.68897 0.0
C2377 C 0.29396 0.33985 0.69273 0.0
C2378 C 0.3762 0.41697 0.69499 0.0
C2379 C 0.40081 0.38969 0.69218 0.0
N2380 N 0.39494 0.30919 0.68886 0.0
N2381 N 0.29861 0.41405 0.70041 0.0
C2382 C 0.37189 0.33746 0.68976 0.0
C2383 C 0.32261 0.39074 0.69613 0.0
N2384 N 0.2913 0.26706 0.68463 0.0
N2385 N 0.40371 0.46823 0.69605 0.0
H2386 H 0.25941 0.39704 0.7008 0.0
H2387 H 0.31747 0.44896 0.70415 0.0
H2388 H 0.44273 0.48882 0.69502 0.0
H2389 H 0.38761 0.49093 0.69703 0.0
H2390 H 0.30777 0.24946 0.68054 0.0
H2391 H 0.25202 0.24672 0.68444 0.0
H2392 H 0.37528 0.26997 0.68838 0.0
H2393 H 0.43363 0.32412 0.68974 0.0
C2394 C 0.69452 0.97016 0.6841 0.0
C2395 C 0.68161 0.9325 0.69195 0.0
C2396 C 0.616 0.94913 0.69876 0.0
C2397 C 0.63213 0.98976 0.69154 0.0
N2398 N 0.69041 0.04308 0.6781 0.0
N2399 N 0.6321 0.88693 0.70708 0.0
C2400 C 0.67186 1.00092 0.68431 0.0
C2401 C 0.64283 0.92218 0.69937 0.0
N2402 N 0.72922 0.97731 0.67651 0.0
N2403 N 0.57399 0.93537 0.70477 0.0
H2404 H 0.6483 0.86397 0.70731 0.0
H2405 H 0.60893 0.88178 0.71352 0.0
H2406 H 0.55348 0.95419 0.70445 0.0
H2407 H 0.55702 0.90319 0.70947 0.0
H2408 H 0.73479 0.99857 0.66971 0.0
H2409 H 0.75079 0.95974 0.67665 0.0
H2410 H 0.72367 0.05743 0.67377 0.0
H2411 H 0.6748 0.0664 0.6778 0.0
C2412 C 0.3118 0.99643 0.19973 0.0
C2413 C 0.28644 0.94953 0.19444 0.0
C2414 C 0.36838 0.95782 0.19001 0.0
C2415 C 0.3932 1.00822 0.19389 0.0
N2416 N 0.38519 0.07927 0.19971 0.0
N2417 N 0.29 0.88673 0.18366 0.0
C2418 C 0.36408 0.02856 0.19806 0.0
C2419 C 0.31457 0.93053 0.18928 0.0
N2420 N 0.28619 0.01039 0.20644 0.0
N2421 N 0.39582 0.93528 0.18747 0.0
H2422 H 0.25072 0.86514 0.18332 0.0
H2423 H 0.30851 0.87371 0.1788 0.0
H2424 H 0.43489 0.95319 0.18836 0.0
H2425 H 0.37947 0.89728 0.18549 0.0
H2426 H 0.30421 0.04195 0.21132 0.0
H2427 H 0.2477 0.98789 0.20786 0.0
H2428 H 0.36409 0.09606 0.20186 0.0
H2429 H 0.42214 0.1053 0.19761 0.0
C2430 C 0.04486 0.4123 0.20304 0.0
C2431 C 0.02415 0.41749 0.19339 0.0
C2432 C 0.06741 0.37961 0.18421 0.0
C2433 C 0.07863 0.36481 0.19399 0.0
N2434 N 0.06643 0.35839 0.21293 0.0
N2435 N 1.00612 0.39262 0.17499 0.0
C2436 C 0.06456 0.37902 0.20351 0.0
C2437 C 0.03294 0.39775 0.18398 0.0
N2438 N 0.04681 0.43969 0.2117 0.0
N2439 N 0.09023 0.37729 0.17516 0.0
H2440 H 0.97636 0.3999 0.17464 0.0
H2441 H 1.00905 0.37462 0.16827 0.0
H2442 H 0.1185 0.36771 0.17516 0.0
H2443 H 0.08568 0.39111 0.16796 0.0
H2444 H 0.065 0.4396 0.21866 0.0
H2445 H 0.03592 0.46699 0.21152 0.0
H2446 H 0.0524 0.3647 0.2199 0.0
H2447 H 0.07589 0.33025 0.21355 0.0
C2448 C 0.59626 0.66582 0.19568 0.0
C2449 C 0.62171 0.64067 0.1919 0.0
C2450 C 0.69562 0.72304 0.18771 0.0
C2451 C 0.67287 0.74804 0.1927 0.0
N2452 N 0.60342 0.74329 0.20257 0.0
N2453 N 0.70094 0.64702 0.18696 0.0
C2454 C 0.62373 0.7194 0.19705 0.0
C2455 C 0.67282 0.66976 0.18859 0.0
N2456 N 0.54547 0.63903 0.19748 0.0
N2457 N 0.73888 0.75003 0.18201 0.0
H2458 H 0.68711 0.60881 0.18838 0.0
H2459 H 0.73961 0.66707 0.18549 0.0
H2460 H 0.75669 0.78911 0.18116 0.0
H2461 H 0.75435 0.73314 0.17735 0.0
H2462 H 0.52402 0.65586 0.19924 0.0
H2463 H 0.52379 0.60026 0.19623 0.0
H2464 H 0.57027 0.72416 0.20693 0.0
H2465 H 0.62162 0.78244 0.20335 0.0
C2466 C 0.30686 0.97698 1.01554 0.0
C2467 C 0.26923 0.95062 1.02329 0.0
C2468 C 0.28306 0.03106 0.03049 0.0
C2469 C 0.32475 0.05732 1.02359 0.0
N2470 N 0.37962 0.05557 1.0101 0.0
N2471 N 0.22222 0.95129 0.03846 0.0
C2472 C 0.33707 0.03045 1.01614 0.0
C2473 C 0.2574 0.97735 0.03084 0.0
N2474 N 0.31429 0.95084 1.00768 0.0
N2475 N 0.26714 0.0576 0.03647 0.0
H2476 H 0.20052 0.91201 0.03856 0.0
H2477 H 0.21621 0.96827 0.04497 0.0
H2478 H 0.28464 0.09687 0.03626 0.0
H2479 H 0.23417 0.04089 0.04093 0.0
H2480 H 0.33641 0.96784 1.00104 0.0
H2481 H 0.29558 0.91162 1.00737 0.0
H2482 H 0.39445 0.0377 1.00558 0.0
H2483 H 0.40259 0.09458 1.01013 0.0
C2484 C 0.03503 0.29403 0.03357 0.0
C2485 C 0.06258 0.33391 1.02631 0.0
C2486 C 0.98327 0.32134 1.01865 0.0
C2487 C 0.95569 0.28028 1.02566 0.0
N2488 N 0.95455 0.22147 0.03844 0.0
N2489 N 0.06387 0.38086 1.01089 0.0
C2490 C 0.98141 0.26491 0.03275 0.0
C2491 C 0.03693 0.34577 1.01847 0.0
N2492 N 0.06017 0.28441 0.04133 0.0
N2493 N 0.95837 0.33919 1.01264 0.0
H2494 H 0.10311 0.40214 1.01089 0.0
H2495 H 0.04761 0.38671 1.00421 0.0
H2496 H 0.91923 0.32274 1.01254 0.0
H2497 H 0.97641 0.37274 1.00838 0.0
H2498 H 0.04234 0.26024 0.04766 0.0
H2499 H 0.09945 0.3027 0.04177 0.0
H2500 H 0.97105 0.20521 0.04298 0.0
H2501 H 0.9154 0.19908 0.03793 0.0
C2502 C 0.74365 0.72643 1.02014 0.0
C2503 C 0.73167 0.68794 0.02774 0.0
C2504 C 0.66953 0.7062 0.03587 0.0
C2505 C 0.67843 0.74175 0.02774 0.0
N2506 N 0.72167 0.78444 1.0118 0.0
N2507 N 0.6795 0.63686 0.04215 0.0
C2508 C 0.71485 0.75144 1.01977 0.0
C2509 C 0.6941 0.67713 0.03551 0.0
N2510 N 0.78395 0.7404 1.01358 0.0
N2511 N 0.63694 0.69956 0.0439 0.0
H2512 H 0.69651 0.6147 0.04229 0.0
H2513 H 0.64793 0.62261 0.04701 0.0
H2514 H 0.61411 0.71579 0.04397 0.0
H2515 H 0.63432 0.68007 0.05082 0.0
H2516 H 0.79814 0.77138 1.00855 0.0
H2517 H 0.80608 0.72327 1.01374 0.0
H2518 H 0.74269 0.78864 1.00504 0.0
H2519 H 0.70428 0.80633 1.0117 0.0
C2520 C 0.73215 0.04474 0.86736 0.0
C2521 C 0.75639 0.08824 0.8609 0.0
C2522 C 0.67339 0.07839 0.85662 0.0
C2523 C 0.64926 0.03068 0.86177 0.0
N2524 N 0.65796 0.96305 0.86941 0.0
N2525 N 0.75003 0.14475 0.84855 0.0
C2526 C 0.67924 0.01251 0.8665 0.0
C2527 C 0.72694 0.10447 0.85524 0.0
N2528 N 0.7594 0.03363 0.87429 0.0
N2529 N 0.64568 0.09986 0.85346 0.0
H2530 H 0.78917 0.16636 0.84782 0.0
H2531 H 0.7303 0.1548 0.8433 0.0
H2532 H 0.60692 0.08297 0.85472 0.0
H2533 H 0.66178 0.13651 0.85055 0.0
H2534 H 0.74257 1.00494 0.87989 0.0
H2535 H 0.79838 0.05569 0.87508 0.0
H2536 H 0.67899 0.94687 0.87202 0.0
H2537 H 0.62041 0.93678 0.86784 0.0
C2538 C 0.94614 0.63673 0.8545 0.0
C2539 C 0.96098 0.67885 0.86126 0.0
C2540 C 0.02809 0.66604 0.8688 0.0
C2541 C 1.01505 0.62569 0.86159 0.0
N2542 N 0.96385 0.57357 0.84727 0.0
N2543 N 1.01236 0.73122 0.87558 0.0
C2544 C 0.9745 0.61121 0.85438 0.0
C2545 C 1.00065 0.69252 0.86868 0.0
N2546 N 0.90333 0.61975 0.84855 0.0
N2547 N 0.06913 0.68134 0.87525 0.0
H2548 H 0.99708 0.75484 0.87507 0.0
H2549 H 0.03591 0.73945 0.88208 0.0
H2550 H 0.08953 0.66258 0.87578 0.0
H2551 H 0.08502 0.7139 0.8798 0.0
H2552 H 0.88722 0.5866 0.84417 0.0
H2553 H 0.88112 0.63679 0.84863 0.0
H2554 H 0.93944 0.56513 0.84091 0.0
H2555 H 0.98128 0.55173 0.84745 0.0
C2556 C 0.34456 0.31681 0.85583 0.0
C2557 C 0.36571 0.29039 0.861 0.0
C2558 C 0.44038 0.37151 0.86567 0.0
C2559 C 0.42028 0.39743 0.85994 0.0
N2560 N 0.35857 0.39441 0.84769 0.0
N2561 N 0.43655 0.29179 0.86962 0.0
C2562 C 0.37408 0.36991 0.85442 0.0
C2563 C 0.41463 0.31757 0.86553 0.0
N2564 N 0.29555 0.29143 0.85252 0.0
N2565 N 0.48363 0.39854 0.8714 0.0
H2566 H 0.41799 0.25249 0.86999 0.0
H2567 H 0.47403 0.30901 0.87204 0.0
H2568 H 0.50459 0.43787 0.87124 0.0
H2569 H 0.49741 0.38234 0.87671 0.0
H2570 H 0.27606 0.30915 0.84988 0.0
H2571 H 0.27277 0.2527 0.85331 0.0
H2572 H 0.3281 0.37587 0.84256 0.0
H2573 H 0.37903 0.4332 0.84643 0.0
C2574 C 0.6672 0.98924 0.03064 0.0
C2575 C 0.68524 0.95879 1.02615 0.0
C2576 C 0.7601 0.03586 1.01969 0.0
C2577 C 0.74418 0.06563 1.02526 0.0
N2578 N 0.68933 0.06905 0.03848 0.0
N2579 N 0.75435 0.95406 1.01812 0.0
C2580 C 0.70009 0.04179 0.03155 0.0
C2581 C 0.73327 0.9823 1.02111 0.0
N2582 N 0.61751 0.96894 0.03332 0.0
N2583 N 0.80067 0.05861 1.01309 0.0
H2584 H 0.73706 0.91534 1.01949 0.0
H2585 H 0.79107 0.9697 1.01528 0.0
H2586 H 0.82199 0.09771 1.01222 0.0
H2587 H 0.81094 0.03864 1.00798 0.0
H2588 H 0.602 0.99083 0.03575 0.0
H2589 H 0.59044 0.93158 0.0318 0.0
H2590 H 0.66088 0.05226 0.04413 0.0
H2591 H 0.71106 0.10804 0.03909 0.0
C2592 C 0.97147 0.66474 1.02097 0.0
C2593 C 0.94648 0.68702 1.02611 0.0
C2594 C 0.02867 0.76155 0.03005 0.0
C2595 C 0.05329 0.73571 1.02623 0.0
N2596 N 0.04553 0.65625 1.021 0.0
N2597 N 0.95071 0.75471 0.03654 0.0
C2598 C 0.02399 0.68556 1.02245 0.0
C2599 C 0.97493 0.73491 0.03098 0.0
N2600 N 0.94523 0.62377 1.01462 0.0
N2601 N 0.05614 0.8118 0.03236 0.0
H2602 H 0.91145 0.73709 0.03697 0.0
H2603 H 0.96952 0.7868 0.04123 0.0
H2604 H 0.09519 0.83286 0.03145 0.0
H2605 H 0.03979 0.83358 0.03422 0.0
H2606 H 0.96275 0.60904 1.00993 0.0
H2607 H 0.90663 0.60773 1.01326 0.0
H2608 H 0.02477 0.61805 1.01909 0.0
H2609 H 0.08276 0.66828 1.02309 0.0
C2610 C 0.25825 0.28532 0.03118 0.0
C2611 C 0.28416 0.33812 0.02926 0.0
C2612 C 0.36273 0.33699 1.02624 0.0
C2613 C 0.33809 0.28506 0.02901 0.0
N2614 N 0.26345 0.21038 0.03516 0.0
N2615 N 0.36367 0.41592 0.02777 0.0
C2616 C 0.28624 0.25952 0.03191 0.0
C2617 C 0.33708 0.36438 0.02755 0.0
N2618 N 0.20673 0.25937 0.03169 0.0
N2619 N 0.41065 0.36059 1.02225 0.0
H2620 H 0.34693 0.43771 0.02912 0.0
H2621 H 0.40295 0.43697 0.02779 0.0
H2622 H 0.433 0.34391 1.02174 0.0
H2623 H 0.42728 0.39615 1.01875 0.0
H2624 H 0.18518 0.22019 0.03193 0.0
H2625 H 0.18498 0.27673 0.03098 0.0
H2626 H 0.22774 0.1916 0.03857 0.0
H2627 H 0.28131 0.18897 0.03501 0.0
C2628 C 0.03788 0.29067 0.53168 0.0
C2629 C 0.06225 0.33738 0.52615 0.0
C2630 C 0.97972 0.32119 0.51967 0.0
C2631 C 0.95501 0.27851 0.52636 0.0
N2632 N 0.9605 0.22457 0.53954 0.0
N2633 N 0.05405 0.40258 0.51711 0.0
C2634 C 0.98413 0.26399 0.53266 0.0
C2635 C 0.03255 0.35405 0.52071 0.0
N2636 N 0.06559 0.27038 0.53553 0.0
N2637 N 0.95302 0.3307 0.51228 0.0
H2638 H 0.09185 0.42929 0.51834 0.0
H2639 H 0.0331 0.41802 0.51405 0.0
H2640 H 0.91421 0.30813 0.5113 0.0
H2641 H 0.97019 0.35841 0.5065 0.0
H2642 H 0.04948 0.23421 0.53871 0.0
H2643 H 0.10458 0.28757 0.53462 0.0
H2644 H 0.97967 0.21603 0.54523 0.0
H2645 H 0.92133 0.20206 0.53995 0.0
C2646 C 0.73826 0.75387 0.53207 0.0
C2647 C 0.69204 0.73242 0.52643 0.0
C2648 C 0.70456 0.66301 0.52047 0.0
C2649 C 0.74864 0.6822 0.52679 0.0
N2650 N 0.80619 0.74337 0.53925 0.0
N2651 N 0.62711 0.66302 0.51653 0.0
C2652 C 0.76515 0.72699 0.53278 0.0
C2653 C 0.67432 0.68627 0.52088 0.0
N2654 N 0.75704 0.80062 0.53648 0.0
N2655 N 0.69119 0.62212 0.51412 0.0
H2656 H 0.60372 0.67862 0.51664 0.0
H2657 H 0.60921 0.62644 0.51355 0.0
H2658 H 0.70997 0.60163 0.51415 0.0
H2659 H 0.66345 0.61026 0.50833 0.0
H2660 H 0.79283 0.8209 0.53981 0.0
H2661 H 0.73809 0.82101 0.53615 0.0
H2662 H 0.81684 0.77208 0.54477 0.0
H2663 H 0.82848 0.72643 0.53948 0.0
C2664 C 0.33986 0.9936 0.52211 0.0
C2665 C 0.29179 0.96393 0.52687 0.0
C2666 C 0.29539 0.04188 0.53302 0.0
C2667 C 0.34048 0.07081 0.52717 0.0
N2668 N 0.3976 0.07277 0.51383 0.0
N2669 N 0.21924 0.9607 0.5352 0.0
C2670 C 0.35992 0.04619 0.52092 0.0
C2671 C 0.26819 0.98824 0.53192 0.0
N2672 N 0.36822 0.97229 0.51935 0.0
N2673 N 0.27854 0.06557 0.53961 0.0
H2674 H 0.19754 0.92178 0.53419 0.0
H2675 H 0.19868 0.97697 0.538 0.0
H2676 H 0.29605 0.10477 0.54017 0.0
H2677 H 0.24916 0.04632 0.54495 0.0
H2678 H 0.40533 0.99331 0.5167 0.0
H2679 H 0.35724 0.93486 0.52104 0.0
H2680 H 0.40955 0.05546 0.50838 0.0
H2681 H 0.41372 0.11154 0.51276 0.0
C2682 C 0.95337 0.36041 0.35625 0.0
C2683 C 0.99857 0.38543 0.36224 0.0
C2684 C 0.98504 0.30384 0.36856 0.0
C2685 C 0.94361 0.27868 0.36155 0.0
N2686 N 0.88989 0.28252 0.34809 0.0
N2687 N 0.06342 0.38025 0.37216 0.0
C2688 C 0.92831 0.30688 0.35518 0.0
C2689 C 0.01589 0.35701 0.36794 0.0
N2690 N 0.93333 0.38753 0.35195 0.0
N2691 N 0.99539 0.27717 0.3758 0.0
H2692 H 0.08865 0.41881 0.37148 0.0
H2693 H 0.07999 0.36055 0.37533 0.0
H2694 H 0.97523 0.23803 0.3763 0.0
H2695 H 0.02145 0.29419 0.38188 0.0
H2696 H 0.898 0.37108 0.34837 0.0
H2697 H 0.95003 0.42653 0.35279 0.0
H2698 H 0.88098 0.30113 0.34234 0.0
H2699 H 0.86851 0.24329 0.34759 0.0
C2700 C 0.70726 0.62617 0.36355 0.0
C2701 C 0.73249 0.66347 0.35566 0.0
C2702 C 0.65105 0.64905 0.34889 0.0
C2703 C 0.62571 0.61138 0.35674 0.0
N2704 N 0.62851 0.55557 0.36979 0.0
N2705 N 0.72905 0.70383 0.33959 0.0
C2706 C 0.65355 0.59744 0.36356 0.0
C2707 C 0.7045 0.67244 0.34788 0.0
N2708 N 0.73471 0.61875 0.37114 0.0
N2709 N 0.62459 0.66495 0.34285 0.0
H2710 H 0.76821 0.72349 0.33885 0.0
H2711 H 0.71066 0.7075 0.33303 0.0
H2712 H 0.58557 0.64886 0.34323 0.0
H2713 H 0.64147 0.69655 0.33798 0.0
H2714 H 0.71886 0.59706 0.37788 0.0
H2715 H 0.774 0.63642 0.37096 0.0
H2716 H 0.64642 0.5404 0.37422 0.0
H2717 H 0.5893 0.53296 0.36977 0.0
C2718 C 0.33953 0.03086 0.35204 0.0
C2719 C 0.35238 0.07027 0.35945 0.0
C2720 C 0.42177 0.05938 0.36608 0.0
C2721 C 0.4056 0.01678 0.35942 0.0
N2722 N 0.34372 0.95641 0.34738 0.0
N2723 N 0.40265 0.11985 0.37415 0.0
C2724 C 0.36335 1.00127 0.35267 0.0
C2725 C 0.39261 0.08385 0.36667 0.0
N2726 N 0.30422 0.02131 0.34442 0.0
N2727 N 0.466 0.07741 0.37156 0.0
H2728 H 0.38385 0.14037 0.37446 0.0
H2729 H 0.42743 0.12738 0.38041 0.0
H2730 H 0.48857 0.06081 0.37117 0.0
H2731 H 0.48263 0.11114 0.37575 0.0
H2732 H 0.29814 0.99779 0.33799 0.0
H2733 H 0.28298 0.03925 0.34413 0.0
H2734 H 0.30934 0.94003 0.3434 0.0
H2735 H 0.35924 0.93293 0.3477 0.0
C2736 C 0.28362 0.39054 0.10974 0.0
C2737 C 0.26283 0.35693 0.10111 0.0
C2738 C 0.22311 0.28653 0.11353 0.0
C2739 C 0.23051 0.32127 0.1217 0.0
N2740 N 0.27322 0.40747 0.12792 0.0
N2741 N 0.25378 0.27662 0.09663 0.0
C2742 C 0.26333 0.37366 0.11999 0.0
C2743 C 0.2442 0.3053 0.10341 0.0
N2744 N 0.32617 0.43606 0.1083 0.0
N2745 N 0.19524 0.23586 0.11533 0.0
H2746 H 0.27686 0.29267 0.09004 0.0
H2747 H 0.24512 0.23981 0.09831 0.0
H2748 H 0.18122 0.22077 0.12277 0.0
H2749 H 0.18436 0.2093 0.10929 0.0
H2750 H 0.34588 0.46043 0.11449 0.0
H2751 H 0.34457 0.44599 0.10102 0.0
H2752 H 0.29258 0.44635 0.12668 0.0
H2753 H 0.25954 0.3966 0.13557 0.0
C2754 C 0.62357 0.87114 0.10993 0.0
C2755 C 0.65906 0.89144 0.10156 0.0
C2756 C 0.72174 0.95079 0.114 0.0
C2757 C 0.69092 0.92117 0.12249 0.0
N2758 N 0.60417 0.88881 0.12728 0.0
N2759 N 0.74192 0.95394 0.09547 0.0
C2760 C 0.6388 0.89077 0.12027 0.0
C2761 C 0.70798 0.9329 0.10351 0.0
N2762 N 0.5754 0.83328 0.10808 0.0
N2763 N 0.76037 0.99842 0.11592 0.0
H2764 H 0.73314 0.9421 0.08765 0.0
H2765 H 0.7797 0.98072 0.09672 0.0
H2766 H 0.76678 0.01415 0.12347 0.0
H2767 H 0.78135 0.02375 0.10996 0.0
H2768 H 0.55002 0.81401 0.11416 0.0
H2769 H 0.56186 0.81938 0.10054 0.0
H2770 H 0.56558 0.87061 0.12571 0.0
H2771 H 0.61525 0.91244 0.13387 0.0
C2772 C 0.17451 0.79563 0.11987 0.0
C2773 C 0.13288 0.80169 0.12252 0.0
C2774 C 0.1027 0.78299 0.10424 0.0
C2775 C 0.14851 0.78539 0.10131 0.0
N2776 N 0.22986 0.79657 0.10611 0.0
N2777 N 0.0579 0.80342 0.11731 0.0
C2778 C 0.18466 0.79162 0.10908 0.0
C2779 C 0.09664 0.79526 0.11476 0.0
N2780 N 0.20415 0.79361 0.12772 0.0
N2781 N 0.06504 0.76878 0.09696 0.0
H2782 H 0.05159 0.81148 0.12496 0.0
H2783 H 0.03382 0.80534 0.11176 0.0
H2784 H 0.06862 0.75959 0.0892 0.0
H2785 H 0.02892 0.76166 0.0988 0.0
H2786 H 0.23215 0.78436 0.12642 0.0
H2787 H 0.19762 0.79667 0.13569 0.0
H2788 H 0.26007 0.80728 0.11126 0.0
H2789 H 0.23858 0.79322 0.09831 0.0
C2790 C 0.37031 0.19095 0.4485 0.0
C2791 C 0.3535 0.21373 0.45599 0.0
C2792 C 0.30564 0.22788 0.44215 0.0
C2793 C 0.31873 0.20087 0.43494 0.0
N2794 N 0.3561 0.14886 0.43166 0.0
N2795 N 0.30047 0.24841 0.46045 0.0
C2796 C 0.34902 0.18022 0.43823 0.0
C2797 C 0.31987 0.23081 0.45295 0.0
N2798 N 0.40792 0.18105 0.4511 0.0
N2799 N 0.28065 0.25161 0.4386 0.0
H2800 H 0.31053 0.25148 0.4684 0.0
H2801 H 0.27188 0.25662 0.45896 0.0
H2802 H 0.26938 0.2497 0.43076 0.0
H2803 H 0.2746 0.27631 0.44318 0.0
H2804 H 0.42577 0.16995 0.44561 0.0
H2805 H 0.4246 0.18819 0.45855 0.0
H2806 H 0.37268 0.12795 0.43409 0.0
H2807 H 0.34159 0.14015 0.42402 0.0
C2808 C 0.85928 0.20373 0.43724 0.0
C2809 C 0.83807 0.15371 0.43337 0.0
C2810 C 0.79919 0.12028 0.45064 0.0
C2811 C 0.81813 0.17035 0.45431 0.0
N2812 N 0.85809 0.25949 0.45066 0.0
N2813 N 0.78134 0.06457 0.43563 0.0
C2814 C 0.84584 0.21204 0.44747 0.0
C2815 C 0.806 0.11199 0.43986 0.0
N2816 N 0.89368 0.24321 0.43126 0.0
N2817 N 0.77615 0.08081 0.45755 0.0
H2818 H 0.78558 0.05723 0.42778 0.0
H2819 H 0.75372 0.03309 0.43961 0.0
H2820 H 0.77006 0.08546 0.46546 0.0
H2821 H 0.76637 0.04392 0.45569 0.0
H2822 H 0.91503 0.27987 0.4341 0.0
H2823 H 0.90372 0.2388 0.42364 0.0
H2824 H 0.87328 0.29063 0.44566 0.0
H2825 H 0.84925 0.26718 0.45813 0.0
C2826 C 0.81752 0.655 0.43657 0.0
C2827 C 0.86753 0.68906 0.4332 0.0
C2828 C 0.89914 0.68932 0.45104 0.0
C2829 C 0.84964 0.65259 0.45418 0.0
N2830 N 0.76334 0.59351 0.44955 0.0
N2831 N 0.95692 0.73317 0.43661 0.0
C2832 C 0.80929 0.63339 0.44682 0.0
C2833 C 0.90869 0.70468 0.44027 0.0
N2834 N 0.77764 0.6448 0.43013 0.0
N2835 N 0.93665 0.71055 0.45843 0.0
H2836 H 0.96512 0.74526 0.42879 0.0
H2837 H 0.98879 0.74152 0.44105 0.0
H2838 H 0.93109 0.69969 0.46634 0.0
H2839 H 0.97218 0.74135 0.45691 0.0
H2840 H 0.7402 0.62505 0.4326 0.0
H2841 H 0.78189 0.65961 0.42254 0.0
H2842 H 0.73417 0.57409 0.44417 0.0
H2843 H 0.75559 0.5769 0.45701 0.0
C2844 C 0.81487 0.67872 0.93626 0.0
C2845 C 0.86306 0.72014 0.93379 0.0
C2846 C 0.89128 0.72194 0.952 0.0
C2847 C 0.8424 0.682 0.95457 0.0
N2848 N 0.75506 0.62825 0.94988 0.0
N2849 N 0.94423 0.78722 0.9395 0.0
C2850 C 0.80335 0.66217 0.94691 0.0
C2851 C 0.90044 0.7436 0.94173 0.0
N2852 N 0.78076 0.65416 0.92837 0.0
N2853 N 0.92935 0.73794 0.95925 0.0
H2854 H 0.95249 0.80382 0.93203 0.0
H2855 H 0.97063 0.80918 0.9452 0.0
H2856 H 0.92378 0.72377 0.96692 0.0
H2857 H 0.96709 0.76273 0.95748 0.0
H2858 H 0.74725 0.62026 0.92945 0.0
H2859 H 0.78756 0.66573 0.92051 0.0
H2860 H 0.72394 0.61632 0.94494 0.0
H2861 H 0.74535 0.61505 0.9576 0.0
C2862 C 0.40042 0.157 0.93267 0.0
C2863 C 0.35007 0.11944 0.93038 0.0
C2864 C 0.33579 0.10044 0.94929 0.0
C2865 C 0.37996 0.14703 0.95151 0.0
N2866 N 0.45735 0.21843 0.94525 0.0
N2867 N 0.29237 0.03503 0.93623 0.0
C2868 C 0.41344 0.17483 0.94319 0.0
C2869 C 0.32378 0.08458 0.93862 0.0
N2870 N 0.4373 0.16864 0.92537 0.0
N2871 N 0.30447 0.07217 0.95728 0.0
H2872 H 0.28864 0.02183 0.9285 0.0
H2873 H 0.27561 1.00681 0.94192 0.0
H2874 H 0.31264 0.08198 0.96521 0.0
H2875 H 0.26908 0.04073 0.95594 0.0
H2876 H 0.47549 0.19275 0.92693 0.0
H2877 H 0.43 0.14773 0.91843 0.0
H2878 H 0.48024 0.24241 0.93928 0.0
H2879 H 0.46922 0.23188 0.95288 0.0
C2880 C 0.92617 0.23874 0.93663 0.0
C2881 C 0.89181 0.19391 0.93125 0.0
C2882 C 0.83394 0.16761 0.94631 0.0
C2883 C 0.87022 0.21019 0.95204 0.0
N2884 N 0.95384 0.28241 0.95339 0.0
N2885 N 0.81733 0.11135 0.93153 0.0
C2886 C 0.91725 0.24473 0.94741 0.0
C2887 C 0.84687 0.15709 0.93624 0.0
N2888 N 0.96652 0.27613 0.93136 0.0
N2889 N 0.78647 0.13821 0.9503 0.0
H2890 H 0.82531 0.10214 0.92413 0.0
H2891 H 0.78732 0.08098 0.93531 0.0
H2892 H 0.77541 0.1445 0.95766 0.0
H2893 H 0.75676 0.11021 0.94597 0.0
H2894 H 0.99 0.31182 0.93449 0.0
H2895 H 0.97421 0.27293 0.92347 0.0
H2896 H 0.9907 0.30561 0.95081 0.0
H2897 H 0.94854 0.28786 0.96131 0.0
C2898 C 0.64102 0.73856 0.60712 0.0
C2899 C 0.67326 0.76567 0.59859 0.0
C2900 C 0.74306 0.80958 0.61099 0.0
C2901 C 0.7081 0.79242 0.61947 0.0
N2902 N 0.62369 0.73655 0.62582 0.0
N2903 N 0.75758 0.78759 0.59364 0.0
C2904 C 0.65714 0.75489 0.61764 0.0
C2905 C 0.72572 0.79078 0.60068 0.0
N2906 N 0.59736 0.69461 0.60515 0.0
N2907 N 0.79277 0.84359 0.61271 0.0
H2908 H 0.7436 0.76239 0.58732 0.0
H2909 H 0.79588 0.80199 0.59511 0.0
H2910 H 0.80759 0.85665 0.62021 0.0
H2911 H 0.81838 0.86072 0.60655 0.0
H2912 H 0.5742 0.67044 0.61105 0.0
H2913 H 0.58793 0.67986 0.59752 0.0
H2914 H 0.58498 0.71332 0.62475 0.0
H2915 H 0.63428 0.74716 0.63365 0.0
C2916 C 0.1752 0.81257 0.60483 0.0
C2917 C 0.22438 0.84254 0.6006 0.0
C2918 C 0.2553 0.88254 0.61786 0.0
C2919 C 0.20509 0.85637 0.62174 0.0
N2920 N 0.11602 0.8015 0.61867 0.0
N2921 N 0.31075 0.90858 0.60259 0.0
C2922 C 0.1647 0.82254 0.61518 0.0
C2923 C 0.26444 0.87815 0.607 0.0
N2924 N 0.13875 0.77377 0.59903 0.0
N2925 N 0.29417 0.9108 0.62463 0.0
H2926 H 0.31879 0.90571 0.59471 0.0
H2927 H 0.34033 0.93866 0.60652 0.0
H2928 H 0.28854 0.91493 0.6326 0.0
H2929 H 0.33208 0.92705 0.62261 0.0
H2930 H 0.10401 0.74697 0.60211 0.0
H2931 H 0.14461 0.76563 0.59135 0.0
H2932 H 0.08469 0.78153 0.61383 0.0
H2933 H 0.10658 0.80718 0.62625 0.0
C2934 C 0.13355 0.33879 0.60357 0.0
C2935 C 0.18296 0.36187 0.59928 0.0
C2936 C 0.21416 0.3425 0.61547 0.0
C2937 C 0.16558 0.32274 0.62003 0.0
N2938 N 0.08095 0.30907 0.61922 0.0
N2939 N 0.27205 0.39356 0.60165 0.0
C2940 C 0.12578 0.32292 0.6143 0.0
C2941 C 0.2238 0.3659 0.60537 0.0
N2942 N 0.09382 0.33066 0.59729 0.0
N2943 N 0.25068 0.33757 0.62065 0.0
H2944 H 0.28065 0.411 0.59427 0.0
H2945 H 0.30387 0.40269 0.60618 0.0
H2946 H 0.24536 0.32155 0.62815 0.0
H2947 H 0.2849 0.34584 0.61724 0.0
H2948 H 0.05625 0.30927 0.59959 0.0
H2949 H 0.09812 0.34189 0.5894 0.0
H2950 H 0.05237 0.31356 0.61587 0.0
H2951 H 0.07381 0.29687 0.62704 0.0
C2952 C 0.94953 0.53023 0.77592 0.0
C2953 C 0.98386 0.55426 0.76749 0.0
C2954 C 0.04251 0.61783 0.77991 0.0
C2955 C 1.01495 0.58538 0.78838 0.0
N2956 N 0.92781 0.54199 0.79359 0.0
N2957 N 0.06126 0.62541 0.76121 0.0
C2958 C 0.96369 0.55002 0.78628 0.0
C2959 C 0.02955 0.59996 0.76937 0.0
N2960 N 0.90395 0.48811 0.77413 0.0
N2961 N 0.07602 0.66734 0.78189 0.0
H2962 H 0.05227 0.61422 0.75336 0.0
H2963 H 0.09742 0.65601 0.76234 0.0
H2964 H 0.08052 0.68221 0.78948 0.0
H2965 H 0.09382 0.69416 0.77597 0.0
H2966 H 0.88008 0.46651 0.78024 0.0
H2967 H 0.89142 0.47348 0.76659 0.0
H2968 H 0.88924 0.51986 0.79213 0.0
H2969 H 0.93698 0.56368 0.80045 0.0
C2970 C 0.44054 0.44703 0.76994 0.0
C2971 C 0.48546 0.48135 0.76457 0.0
C2972 C 0.51244 0.53811 0.7798 0.0
C2973 C 0.47129 0.50057 0.78566 0.0
N2974 N 0.3972 0.41821 0.78673 0.0
N2975 N 0.56702 0.5573 0.76463 0.0
C2976 C 0.43528 0.45482 0.78082 0.0
C2977 C 0.52197 0.52662 0.76951 0.0
N2978 N 0.40277 0.40748 0.76456 0.0
N2979 N 0.54222 0.58493 0.78405 0.0
H2980 H 0.57561 0.55064 0.75706 0.0
H2981 H 0.59749 0.58739 0.76837 0.0
H2982 H 0.53693 0.59456 0.79165 0.0
H2983 H 0.5693 0.61553 0.77976 0.0
H2984 H 0.36709 0.38404 0.76771 0.0
H2985 H 0.40571 0.40082 0.75659 0.0
H2986 H 0.37314 0.38179 0.784 0.0
H2987 H 0.39155 0.42337 0.79464 0.0
C2988 C 0.51558 0.97478 0.76879 0.0
C2989 C 0.56519 1.0077 0.76514 0.0
C2990 C 0.59919 1.00215 0.78233 0.0
C2991 C 0.54937 0.97559 0.78639 0.0
N2992 N 0.45981 0.94143 0.78383 0.0
N2993 N 0.65463 0.05607 0.76848 0.0
C2994 C 0.50736 0.96266 0.77969 0.0
C2995 C 0.60725 0.02191 0.77188 0.0
N2996 N 0.47632 0.95496 0.76179 0.0
N2997 N 0.6386 1.00788 0.78842 0.0
H2998 H 0.66214 0.07038 0.76081 0.0
H2999 H 0.68598 0.07268 0.77342 0.0
H3000 H 0.63375 0.99387 0.7961 0.0
H3001 H 0.67522 0.02247 0.78558 0.0
H3002 H 0.43999 0.92676 0.76376 0.0
H3003 H 0.48114 0.96327 0.75374 0.0
H3004 H 0.42866 0.93673 0.77956 0.0
H3005 H 0.45186 0.93219 0.79179 0.0
C3006 C 0.55708 0.05384 0.27401 0.0
C3007 C 0.51601 0.03519 0.26682 0.0
C3008 C 0.45843 0.98116 0.28071 0.0
C3009 C 0.50022 0.99631 0.28758 0.0
N3010 N 0.59005 0.04199 0.29053 0.0
N3011 N 0.42889 0.97682 0.26275 0.0
C3012 C 0.54979 0.03138 0.28418 0.0
C3013 C 0.46696 0.9977 0.27002 0.0
N3014 N 0.60271 0.09398 0.27122 0.0
N3015 N 0.41049 0.95192 0.28448 0.0
H3016 H 0.43363 0.98842 0.25488 0.0
H3017 H 0.39373 0.94548 0.26427 0.0
H3018 H 0.40284 0.93883 0.29224 0.0
H3019 H 0.37825 0.94401 0.28023 0.0
H3020 H 0.63251 0.11297 0.27648 0.0
H3021 H 0.60968 0.11105 0.26381 0.0
H3022 H 0.62741 0.06261 0.28805 0.0
H3023 H 0.58613 0.02703 0.2981 0.0
C3024 C 0.9856 0.48284 0.28566 0.0
C3025 C 1.01579 0.46242 0.28912 0.0
C3026 C 1.00566 0.42181 0.27187 0.0
C3027 C 0.98026 0.44691 0.26809 0.0
N3028 N 0.95314 0.50787 0.27086 0.0
N3029 N 0.05649 0.41393 0.28574 0.0
C3030 C 0.97163 0.47877 0.27487 0.0
C3031 C 0.02619 0.43203 0.28229 0.0
N3032 N 0.97035 0.50633 0.29271 0.0
N3033 N 1.00964 0.38799 0.26549 0.0
H3034 H 0.07007 0.41899 0.29346 0.0
H3035 H 0.0701 0.39587 0.28093 0.0
H3036 H 0.99442 0.3794 0.2579 0.0
H3037 H 0.02518 0.36616 0.26786 0.0
H3038 H 0.94346 0.51664 0.29096 0.0
H3039 H 0.98119 0.51176 0.30062 0.0
H3040 H 0.95189 0.53631 0.27511 0.0
H3041 H 0.94312 0.50705 0.26297 0.0
C3042 C 0.5012 0.49746 0.27077 0.0
C3043 C 0.54939 0.53053 0.2664 0.0
C3044 C 0.578 0.5739 0.28342 0.0
C3045 C 0.52837 0.544 0.28745 0.0
N3046 N 0.44073 0.48234 0.28461 0.0
N3047 N 0.63249 0.60311 0.26801 0.0
C3048 C 0.48944 0.50699 0.28104 0.0
C3049 C 0.58761 0.56954 0.27258 0.0
N3050 N 0.46695 0.45625 0.26518 0.0
N3051 N 0.61603 0.60559 0.29003 0.0
H3052 H 0.64103 0.60023 0.26016 0.0
H3053 H 0.6599 0.63562 0.27173 0.0
H3054 H 0.61006 0.60983 0.29798 0.0
H3055 H 0.65395 0.62476 0.28791 0.0
H3056 H 0.43358 0.42757 0.2684 0.0
H3057 H 0.47358 0.44834 0.25754 0.0
H3058 H 0.40986 0.45953 0.27985 0.0
H3059 H 0.43041 0.48772 0.29213 0.0
C3060 C 1.01378 0.16637 0.28292 0.0
C3061 C 0.98766 0.19156 0.28616 0.0
C3062 C 1.00884 0.2377 0.26938 0.0
C3063 C 0.0392 0.21647 0.26662 0.0
N3064 N 0.07607 0.16544 0.27123 0.0
N3065 N 0.96705 0.25712 0.2833 0.0
C3066 C 0.04323 0.18212 0.27353 0.0
C3067 C 0.98698 0.22884 0.2796 0.0
N3068 N 1.00892 0.12617 0.2886 0.0
N3069 N 0.9997 0.26518 0.2621 0.0
H3070 H 0.9512 0.25216 0.29079 0.0
H3071 H 0.97022 0.28838 0.27932 0.0
H3072 H 1.01573 0.27324 0.25459 0.0
H3073 H 0.97266 0.27595 0.26317 0.0
H3074 H 0.02244 0.10282 0.28604 0.0
H3075 H 0.98763 0.11342 0.2955 0.0
H3076 H 0.08498 0.14494 0.2765 0.0
H3077 H 0.09735 0.17521 0.26431 0.0
C3078 C 0.84123 0.84973 0.28417 0.0
C3079 C 0.83081 0.79949 0.28567 0.0
C3080 C 0.788 0.77518 0.26851 0.0
C3081 C 0.80185 0.82625 0.26668 0.0
N3082 N 0.8482 0.91369 0.27188 0.0
N3083 N 0.80029 0.71554 0.27893 0.0
C3084 C 0.83027 0.864 0.27427 0.0
C3085 C 0.80581 0.76246 0.27774 0.0
N3086 N 0.86046 0.88347 0.29231 0.0
N3087 N 0.75673 0.73876 0.26156 0.0
H3088 H 0.81194 0.70461 0.28568 0.0
H3089 H 0.7875 0.68855 0.27298 0.0
H3090 H 0.74339 0.7468 0.25467 0.0
H3091 H 0.74108 0.70028 0.26292 0.0
H3092 H 0.86365 0.91895 0.29213 0.0
H3093 H 0.86957 0.87456 0.29963 0.0
H3094 H 0.87379 0.94337 0.27659 0.0
H3095 H 0.84079 0.92564 0.26473 0.0
C3096 C 0.15704 0.0622 0.27883 0.0
C3097 C 0.1562 0.03448 0.28787 0.0
C3098 C 0.12333 0.9579 0.27717 0.0
C3099 C 0.13446 0.98782 0.26796 0.0
N3100 N 0.16073 0.06823 0.25973 0.0
N3101 N 0.13878 0.95573 0.29586 0.0
C3102 C 0.14997 0.03981 0.26869 0.0
C3103 C 0.13828 0.98193 0.28716 0.0
N3104 N 0.16515 0.11005 0.28002 0.0
N3105 N 0.09896 0.90655 0.2763 0.0
H3106 H 0.14871 0.97171 0.30335 0.0
H3107 H 0.13222 0.91894 0.29556 0.0
H3108 H 0.08774 0.88821 0.26903 0.0
H3109 H 0.08566 0.88223 0.28275 0.0
H3110 H 0.16237 0.13113 0.27387 0.0
H3111 H 0.17016 0.12691 0.28741 0.0
H3112 H 0.17785 0.10739 0.25974 0.0
H3113 H 0.15481 0.05276 0.25218 0.0
C3114 C 0.99708 0.73974 0.78134 0.0
C3115 C 0.99624 0.77834 0.78739 0.0
C3116 C 0.0521 0.842 0.77462 0.0
C3117 C 0.04944 0.80307 0.76811 0.0
N3118 N 0.01637 0.71475 0.76456 0.0
N3119 N 1.01569 0.86479 0.78905 0.0
C3120 C 0.0211 0.75179 0.77128 0.0
C3121 C 0.02192 0.82914 0.78385 0.0
N3122 N 0.97571 0.6919 0.78534 0.0
N3123 N 0.08442 0.8914 0.77209 0.0
H3124 H 0.99399 0.85712 0.79587 0.0
H3125 H 0.02847 0.90103 0.78615 0.0
H3126 H 0.1066 0.90254 0.7653 0.0
H3127 H 0.09246 0.9213 0.77715 0.0
H3128 H 0.97792 0.66257 0.78174 0.0
H3129 H 0.95822 0.68207 0.79271 0.0
H3130 H 0.99211 0.67644 0.76584 0.0
H3131 H 0.03456 0.72247 0.75727 0.0
C3132 C 0.17416 0.19091 0.77378 0.0
C3133 C 0.21121 0.22161 0.76624 0.0
C3134 C 0.27781 0.22551 0.77765 0.0
C3135 C 0.24127 0.19933 0.78561 0.0
N3136 N 0.15582 0.16299 0.79196 0.0
N3137 N 0.29861 0.27348 0.76136 0.0
C3138 C 0.18969 0.18351 0.78387 0.0
C3139 C 0.2632 0.2403 0.76826 0.0
N3140 N 0.12413 0.16763 0.77116 0.0
N3141 N 0.32618 0.23513 0.77899 0.0
H3142 H 0.28931 0.28514 0.75439 0.0
H3143 H 0.3372 0.29239 0.76288 0.0
H3144 H 0.33826 0.22504 0.78579 0.0
H3145 H 0.35331 0.24929 0.77306 0.0
H3146 H 0.09561 0.14054 0.77589 0.0
H3147 H 0.11126 0.17204 0.76383 0.0
H3148 H 0.11892 0.15606 0.79152 0.0
H3149 H 0.16565 0.15651 0.79944 0.0
C3150 C 0.80105 0.05391 0.77713 0.0
C3151 C 0.82212 0.03933 0.78546 0.0
C3152 C 0.8213 0.9735 0.77434 0.0
C3153 C 0.79827 0.98658 0.76614 0.0
N3154 N 0.75885 0.03325 0.76009 0.0
N3155 N 0.84347 0.97986 0.79288 0.0
C3156 C 0.7859 0.02506 0.76765 0.0
C3157 C 0.82943 0.99734 0.78433 0.0
N3158 N 0.79693 0.09616 0.77818 0.0
N3159 N 0.83737 0.9398 0.77244 0.0
H3160 H 0.85037 0.99681 0.80029 0.0
H3161 H 0.8441 0.94617 0.79288 0.0
H3162 H 0.83201 0.92131 0.76524 0.0
H3163 H 0.85957 0.93304 0.77767 0.0
H3164 H 0.78736 0.11231 0.77203 0.0
H3165 H 0.80604 0.11708 0.78514 0.0
H3166 H 0.74464 0.05756 0.76104 0.0
H3167 H 0.74744 0.01292 0.75305 0.0
C3168 C 0.67981 0.59655 0.61557 0.0
C3169 C 0.67908 0.55635 0.62131 0.0
C3170 C 0.72818 0.5448 0.60746 0.0
C3171 C 0.7303 0.58597 0.60184 0.0
N3172 N 0.71539 0.65609 0.60103 0.0
N3173 N 0.70977 0.49829 0.62389 0.0
C3174 C 0.7083 0.61346 0.60605 0.0
C3175 C 0.7056 0.5324 0.61761 0.0
N3176 N 0.65217 0.6175 0.61909 0.0
N3177 N 0.74621 0.5164 0.60291 0.0
H3178 H 0.69289 0.48744 0.6313 0.0
H3179 H 0.73327 0.48372 0.6222 0.0
H3180 H 0.76412 0.52482 0.59559 0.0
H3181 H 0.74033 0.48236 0.606 0.0
H3182 H 0.6465 0.64313 0.61475 0.0
H3183 H 0.63245 0.60718 0.62621 0.0
H3184 H 0.70482 0.68081 0.60418 0.0
H3185 H 0.73515 0.66876 0.59394 0.0
C3186 C 0.46435 0.0882 0.61325 0.0
C3187 C 0.49539 0.12682 0.62047 0.0
C3188 C 0.49778 0.19105 0.60854 0.0
C3189 C 0.46464 0.1523 0.60156 0.0
N3190 N 0.40999 0.06406 0.59783 0.0
N3191 N 0.53468 0.2136 0.62602 0.0
C3192 C 0.44603 0.10081 0.60409 0.0
C3193 C 0.50995 0.17787 0.61842 0.0
N3194 N 0.45362 0.03975 0.61504 0.0
N3195 N 0.51914 0.24047 0.60552 0.0
H3196 H 0.54489 0.20544 0.6333 0.0
H3197 H 0.54145 0.25042 0.6255 0.0
H3198 H 0.51093 0.25173 0.59837 0.0
H3199 H 0.54793 0.2702 0.6097 0.0
H3200 H 0.43619 0.01087 0.60953 0.0
H3201 H 0.46508 0.02893 0.62183 0.0
H3202 H 0.39103 0.02594 0.59978 0.0
H3203 H 0.39618 0.07201 0.591 0.0
C3204 C 0.84484 0.35586 0.61533 0.0
C3205 C 0.8901 0.36752 0.62068 0.0
C3206 C 0.91108 0.32455 0.60696 0.0
C3207 C 0.86746 0.31576 0.60128 0.0
N3208 N 0.79637 0.32854 0.5991 0.0
N3209 N 0.97005 0.36985 0.6211 0.0
C3210 C 0.83534 0.33306 0.60519 0.0
C3211 C 0.92431 0.35375 0.61636 0.0
N3212 N 0.81031 0.3653 0.62009 0.0
N3213 N 0.9391 0.30391 0.6035 0.0
H3214 H 0.98071 0.39053 0.6281 0.0
H3215 H 0.99896 0.36599 0.61774 0.0
H3216 H 0.93148 0.28368 0.59646 0.0
H3217 H 0.96782 0.30382 0.60789 0.0
H3218 H 0.77418 0.35277 0.61715 0.0
H3219 H 0.81632 0.38256 0.62746 0.0
H3220 H 0.77494 0.34527 0.60095 0.0
H3221 H 0.78766 0.31113 0.59172 0.0
C3222 C 0.72496 0.16738 0.10873 0.0
C3223 C 0.70582 0.18401 0.10039 0.0
C3224 C 0.64369 0.18511 0.11239 0.0
C3225 C 0.65825 0.16186 0.12026 0.0
N3226 N 0.70942 0.12634 0.12578 0.0
N3227 N 0.64454 0.20497 0.09384 0.0
C3228 C 0.6983 0.15212 0.11843 0.0
C3229 C 0.66476 0.19231 0.10211 0.0
N3230 N 0.76909 0.16698 0.10739 0.0
N3231 N 0.6103 0.20096 0.11481 0.0
H3232 H 0.65942 0.2113 0.08623 0.0
H3233 H 0.61099 0.20579 0.09432 0.0
H3234 H 0.5941 0.19615 0.12227 0.0
H3235 H 0.60201 0.2227 0.10976 0.0
H3236 H 0.78772 0.16014 0.11349 0.0
H3237 H 0.78962 0.17801 0.10037 0.0
H3238 H 0.73409 0.11284 0.12438 0.0
H3239 H 0.69119 0.1151 0.13305 0.0
C3240 C 0.83608 0.53809 0.12023 0.0
C3241 C 0.8421 0.49512 0.12107 0.0
C3242 C 0.82365 0.47769 0.10222 0.0
C3243 C 0.81668 0.52007 0.10145 0.0
N3244 N 0.80306 0.58235 0.11008 0.0
N3245 N 0.83049 0.41765 0.11366 0.0
C3246 C 0.81854 0.54753 0.1106 0.0
C3247 C 0.83216 0.46277 0.1123 0.0
N3248 N 0.84987 0.57151 0.12842 0.0
N3249 N 0.8245 0.45321 0.09328 0.0
H3250 H 0.83646 0.40579 0.12097 0.0
H3251 H 0.81877 0.39016 0.10782 0.0
H3252 H 0.81784 0.4627 0.08578 0.0
H3253 H 0.83512 0.42577 0.09319 0.0
H3254 H 0.85208 0.60649 0.12778 0.0
H3255 H 0.86298 0.56627 0.13563 0.0
H3256 H 0.7987 0.59994 0.1167 0.0
H3257 H 0.78985 0.59008 0.10313 0.0
C3258 C 0.44793 0.35591 0.11332 0.0
C3259 C 0.49007 0.36112 0.11911 0.0
C3260 C 0.50628 0.31432 0.10544 0.0
C3261 C 0.46228 0.30628 0.09999 0.0
N3262 N 0.38679 0.3124 0.0994 0.0
N3263 N 0.55435 0.3386 0.12174 0.0
C3264 C 0.4318 0.3251 0.10412 0.0
C3265 C 0.51778 0.33832 0.11547 0.0
N3266 N 0.42431 0.38163 0.11646 0.0
N3267 N 0.53802 0.30052 0.10085 0.0
H3268 H 0.56414 0.35627 0.12909 0.0
H3269 H 0.57209 0.31791 0.12009 0.0
H3270 H 0.53082 0.2826 0.09354 0.0
H3271 H 0.57343 0.31033 0.10385 0.0
H3272 H 0.39706 0.38405 0.11198 0.0
H3273 H 0.43442 0.4037 0.12327 0.0
H3274 H 0.36025 0.32028 0.10264 0.0
H3275 H 0.37411 0.29044 0.09259 0.0
C3276 C 0.34246 0.7962 0.93661 0.0
C3277 C 0.38587 0.84476 0.93567 0.0
C3278 C 0.37885 0.86141 0.95434 0.0
C3279 C 0.3316 0.81625 0.95483 0.0
N3280 N 0.267 0.74043 0.94659 0.0
N3281 N 0.44365 0.92577 0.9433 0.0
C3282 C 0.3132 0.78324 0.94603 0.0
C3283 C 0.40404 0.87775 0.94449 0.0
N3284 N 0.32973 0.76244 0.92852 0.0
N3285 N 0.39961 0.8886 0.96334 0.0
H3286 H 0.46335 0.93938 0.93624 0.0
H3287 H 0.45476 0.95351 0.94907 0.0
H3288 H 0.38174 0.878 0.97066 0.0
H3289 H 0.43629 0.91896 0.96376 0.0
H3290 H 0.30127 0.72489 0.92901 0.0
H3291 H 0.3505 0.77098 0.92155 0.0
H3292 H 0.24856 0.7177 0.94012 0.0
H3293 H 0.24571 0.72886 0.95351 0.0
C3294 C 0.17095 0.45896 0.9467 0.0
C3295 C 0.20119 0.49978 0.95355 0.0
C3296 C 0.21272 0.56006 0.93955 0.0
C3297 C 0.17793 0.51938 0.93315 0.0
N3298 N 0.12023 0.43048 0.93078 0.0
N3299 N 0.24825 0.58907 0.95701 0.0
C3300 C 0.15626 0.46885 0.93674 0.0
C3301 C 0.22169 0.55038 0.95009 0.0
N3302 N 0.15709 0.41075 0.94966 0.0
N3303 N 0.23765 0.60779 0.93546 0.0
H3304 H 0.25654 0.58331 0.96469 0.0
H3305 H 0.25933 0.62655 0.9554 0.0
H3306 H 0.23141 0.61623 0.92782 0.0
H3307 H 0.26726 0.63833 0.93928 0.0
H3308 H 0.13977 0.37989 0.94461 0.0
H3309 H 0.16652 0.40192 0.95696 0.0
H3310 H 0.09844 0.39362 0.93349 0.0
H3311 H 0.10961 0.43605 0.9233 0.0
C3312 C 0.53923 0.65889 0.93923 0.0
C3313 C 0.48882 0.63588 0.93549 0.0
C3314 C 0.46171 0.65537 0.95215 0.0
C3315 C 0.51287 0.68273 0.95542 0.0
N3316 N 0.60135 0.71723 0.95158 0.0
N3317 N 0.40272 0.6165 0.93766 0.0
C3318 C 0.55195 0.68626 0.94884 0.0
C3319 C 0.45011 0.63516 0.94176 0.0
N3320 N 0.57464 0.65328 0.93377 0.0
N3321 N 0.42431 0.64789 0.95906 0.0
H3322 H 0.39293 0.60102 0.93011 0.0
H3323 H 0.37412 0.61963 0.94139 0.0
H3324 H 0.43166 0.66249 0.9667 0.0
H3325 H 0.38608 0.62403 0.95756 0.0
H3326 H 0.61045 0.66425 0.93671 0.0
H3327 H 0.567 0.63371 0.92665 0.0
H3328 H 0.63141 0.72605 0.94651 0.0
H3329 H 0.61241 0.73747 0.95863 0.0
C3330 C 0.32695 0.46961 0.44622 0.0
C3331 C 0.32697 0.43135 0.45255 0.0
C3332 C 0.37028 0.41272 0.43848 0.0
C3333 C 0.37478 0.45439 0.43263 0.0
N3334 N 0.36481 0.52775 0.43164 0.0
N3335 N 0.35303 0.3699 0.45541 0.0
C3336 C 0.35499 0.4842 0.43668 0.0
C3337 C 0.34974 0.40367 0.44886 0.0
N3338 N 0.29909 0.49122 0.44919 0.0
N3339 N 0.38464 0.38127 0.43399 0.0
H3340 H 0.33763 0.36185 0.46298 0.0
H3341 H 0.37396 0.35253 0.45365 0.0
H3342 H 0.39985 0.387 0.42641 0.0
H3343 H 0.37799 0.34752 0.43739 0.0
H3344 H 0.2929 0.51502 0.44432 0.0
H3345 H 0.27838 0.48204 0.45618 0.0
H3346 H 0.35658 0.55406 0.43488 0.0
H3347 H 0.3851 0.53997 0.42462 0.0
C3348 C 0.51322 0.86418 0.43966 0.0
C3349 C 0.54688 0.91096 0.43482 0.0
C3350 C 0.60353 0.93463 0.45009 0.0
C3351 C 0.57213 0.88598 0.45444 0.0
N3352 N 0.50148 0.80142 0.45271 0.0
N3353 N 0.62645 0.98877 0.43465 0.0
C3354 C 0.52811 0.84991 0.44905 0.0
C3355 C 0.59274 0.94578 0.43983 0.0
N3356 N 0.46634 0.83404 0.43544 0.0
N3357 N 0.6429 0.97038 0.45588 0.0
H3358 H 0.61945 0.99822 0.42717 0.0
H3359 H 0.66269 0.01336 0.43739 0.0
H3360 H 0.65206 0.96319 0.46337 0.0
H3361 H 0.6641 1.00808 0.45365 0.0
H3362 H 0.43803 0.80239 0.43927 0.0
H3363 H 0.45402 0.84288 0.42851 0.0
H3364 H 0.47265 0.77204 0.44846 0.0
H3365 H 0.51077 0.78937 0.45963 0.0
C3366 C 0.23528 0.73828 0.44258 0.0
C3367 C 0.2239 0.71181 0.45228 0.0
C3368 C 0.19259 0.63222 0.44271 0.0
C3369 C 0.19464 0.65758 0.4332 0.0
N3370 N 0.21632 0.73479 0.42394 0.0
N3371 N 0.19049 0.63325 0.46182 0.0
C3372 C 0.21644 0.71082 0.43304 0.0
C3373 C 0.20307 0.65869 0.45243 0.0
N3374 N 0.26395 0.78971 0.44254 0.0
N3375 N 0.18041 0.58278 0.44239 0.0
H3376 H 0.19809 0.6513 0.46911 0.0
H3377 H 0.16969 0.59409 0.46238 0.0
H3378 H 0.1727 0.56268 0.43534 0.0
H3379 H 0.18265 0.56327 0.44892 0.0
H3380 H 0.27748 0.81108 0.43568 0.0
H3381 H 0.27831 0.81064 0.44945 0.0
H3382 H 0.22603 0.77258 0.42364 0.0
H3383 H 0.20334 0.71617 0.41675 0.0
loop_
_geom_bond_atom_site_label_1
_geom_bond_atom_site_label_2
_geom_bond_distance
_geom_bond_site_symmetry_2
_ccdc_geom_bond_type
Eu0 C9 2.828 . S
Eu0 O11 2.392 . S
Eu0 O13 2.418 . S
Eu0 O18 2.373 . S
Eu0 O21 2.488 . S
Eu0 O22 2.471 . S
Eu0 O23 2.349 . S
Eu1 O10 2.373 . S
Eu1 O14 2.488 . S
Eu1 O15 2.471 . S
Eu1 O16 2.349 . S
Eu1 O19 2.392 . S
Eu1 O20 2.418 . S
Eu1 C30 2.828 . S
C2 O20 1.244 . S
C2 O23 1.265 . S
C3 C4 1.379 . S
C3 C7 1.373 . S
C3 C9 1.505 . S
C4 C3 1.379 . S
C4 C6 1.369 . S
C4 H32 0.930 . S
C5 C7 1.383 . S
C5 C8 1.382 . S
C5 H33 0.930 . S
C6 C4 1.369 . S
C6 C8 1.392 . S
C6 H34 0.930 . S
C7 C3 1.373 . S
C7 C5 1.383 . S
C7 H35 0.931 . S
C8 C5 1.382 . S
C8 C6 1.392 . S
C9 Eu0 2.828 . S
C9 C3 1.505 . S
C9 O21 1.249 . S
C9 O22 1.244 . S
O10 Eu1 2.373 . S
O10 C12 1.258 . S
O11 Eu0 2.392 . S
O11 C12 1.242 . S
C12 O10 1.258 . S
C12 O11 1.242 . S
O13 Eu0 2.418 . S
O13 C17 1.244 . S
O14 Eu1 2.488 . S
O14 C30 1.249 . S
O15 Eu1 2.471 . S
O15 C30 1.244 . S
O16 Eu1 2.349 . S
O16 C17 1.265 . S
C17 O13 1.244 . S
C17 O16 1.265 . S
O18 Eu0 2.373 . S
O18 C31 1.258 . S
O19 Eu1 2.392 . S
O19 C31 1.242 . S
O20 Eu1 2.418 . S
O20 C2 1.244 . S
O21 Eu0 2.488 . S
O21 C9 1.249 . S
O22 Eu0 2.471 . S
O22 C9 1.244 . S
O23 Eu0 2.349 . S
O23 C2 1.265 . S
C24 C25 1.379 . S
C24 C28 1.373 . S
C24 C30 1.505 . S
C25 C24 1.379 . S
C25 C27 1.369 . S
C25 H36 0.930 . S
C26 C28 1.383 . S
C26 C29 1.382 . S
C26 H37 0.930 . S
C27 C25 1.369 . S
C27 C29 1.392 . S
C27 H38 0.930 . S
C28 C24 1.373 . S
C28 C26 1.383 . S
C28 H39 0.931 . S
C29 C26 1.382 . S
C29 C27 1.392 . S
C30 Eu1 2.828 . S
C30 O14 1.249 . S
C30 O15 1.244 . S
C30 C24 1.505 . S
C31 O18 1.258 . S
C31 O19 1.242 . S
H32 C4 0.930 . S
H33 C5 0.930 . S
H34 C6 0.930 . S
H35 C7 0.931 . S
H36 C25 0.930 . S
H37 C26 0.930 . S
H38 C27 0.930 . S
H39 C28 0.931 . S
Eu40 C49 2.828 . S
Eu40 O51 2.392 . S
Eu40 O53 2.418 . S
Eu40 O58 2.373 . S
Eu40 O61 2.488 . S
Eu40 O62 2.471 . S
Eu40 O63 2.349 . S
Eu41 O50 2.373 . S
Eu41 O54 2.488 . S
Eu41 O55 2.471 . S
Eu41 O56 2.349 . S
Eu41 O59 2.392 . S
Eu41 O60 2.418 . S
Eu41 C70 2.828 . S
C42 O60 1.244 . S
C42 O63 1.265 . S
C43 C44 1.379 . S
C43 C47 1.373 . S
C43 C49 1.505 . S
C44 C43 1.379 . S
C44 C46 1.369 . S
C44 H72 0.930 . S
C45 C47 1.383 . S
C45 C48 1.382 . S
C45 H73 0.930 . S
C46 C44 1.369 . S
C46 C48 1.392 . S
C46 H74 0.930 . S
C47 C43 1.373 . S
C47 C45 1.383 . S
C47 H75 0.931 . S
C48 C45 1.382 . S
C48 C46 1.392 . S
C49 Eu40 2.828 . S
C49 C43 1.505 . S
C49 O61 1.249 . S
C49 O62 1.244 . S
O50 Eu41 2.373 . S
O50 C52 1.258 . S
O51 Eu40 2.392 . S
O51 C52 1.242 . S
C52 O50 1.258 . S
C52 O51 1.242 . S
O53 Eu40 2.418 . S
O53 C57 1.244 . S
O54 Eu41 2.488 . S
O54 C70 1.249 . S
O55 Eu41 2.471 . S
O55 C70 1.244 . S
O56 Eu41 2.349 . S
O56 C57 1.265 . S
C57 O53 1.244 . S
C57 O56 1.265 . S
O58 Eu40 2.373 . S
O58 C71 1.258 . S
O59 Eu41 2.392 . S
O59 C71 1.242 . S
O60 Eu41 2.418 . S
O60 C42 1.244 . S
O61 Eu40 2.488 . S
O61 C49 1.249 . S
O62 Eu40 2.471 . S
O62 C49 1.244 . S
O63 Eu40 2.349 . S
O63 C42 1.265 . S
C64 C65 1.379 . S
C64 C68 1.373 . S
C64 C70 1.505 . S
C65 C64 1.379 . S
C65 C67 1.369 . S
C65 H76 0.930 . S
C66 C68 1.383 . S
C66 C69 1.382 . S
C66 H77 0.930 . S
C67 C65 1.369 . S
C67 C69 1.392 . S
C67 H78 0.930 . S
C68 C64 1.373 . S
C68 C66 1.383 . S
C68 H79 0.931 . S
C69 C66 1.382 . S
C69 C67 1.392 . S
C70 Eu41 2.828 . S
C70 O54 1.249 . S
C70 O55 1.244 . S
C70 C64 1.505 . S
C71 O58 1.258 . S
C71 O59 1.242 . S
H72 C44 0.930 . S
H73 C45 0.930 . S
H74 C46 0.930 . S
H75 C47 0.931 . S
H76 C65 0.930 . S
H77 C66 0.930 . S
H78 C67 0.930 . S
H79 C68 0.931 . S
Eu80 C89 2.828 . S
Eu80 O91 2.392 . S
Eu80 O93 2.418 . S
Eu80 O98 2.373 . S
Eu80 O101 2.488 . S
Eu80 O102 2.471 . S
Eu80 O103 2.349 . S
Eu81 O90 2.373 . S
Eu81 O94 2.488 . S
Eu81 O95 2.471 . S
Eu81 O96 2.349 . S
Eu81 O99 2.392 . S
Eu81 O100 2.418 . S
Eu81 C110 2.828 . S
C82 O100 1.244 . S
C82 O103 1.265 . S
C83 C84 1.379 . S
C83 C87 1.373 . S
C83 C89 1.505 . S
C84 C83 1.379 . S
C84 C86 1.369 . S
C84 H112 0.930 . S
C85 C87 1.383 . S
C85 C88 1.382 . S
C85 H113 0.930 . S
C86 C84 1.369 . S
C86 C88 1.392 . S
C86 H114 0.930 . S
C87 C83 1.373 . S
C87 C85 1.383 . S
C87 H115 0.931 . S
C88 C85 1.382 . S
C88 C86 1.392 . S
C89 Eu80 2.828 . S
C89 C83 1.505 . S
C89 O101 1.249 . S
C89 O102 1.244 . S
O90 Eu81 2.373 . S
O90 C92 1.258 . S
O91 Eu80 2.392 . S
O91 C92 1.242 . S
C92 O90 1.258 . S
C92 O91 1.242 . S
O93 Eu80 2.418 . S
O93 C97 1.244 . S
O94 Eu81 2.488 . S
O94 C110 1.249 . S
O95 Eu81 2.471 . S
O95 C110 1.244 . S
O96 Eu81 2.349 . S
O96 C97 1.265 . S
C97 O93 1.244 . S
C97 O96 1.265 . S
O98 Eu80 2.373 . S
O98 C111 1.258 . S
O99 Eu81 2.392 . S
O99 C111 1.242 . S
O100 Eu81 2.418 . S
O100 C82 1.244 . S
O101 Eu80 2.488 . S
O101 C89 1.249 . S
O102 Eu80 2.471 . S
O102 C89 1.244 . S
O103 Eu80 2.349 . S
O103 C82 1.265 . S
C104 C105 1.379 . S
C104 C108 1.373 . S
C104 C110 1.505 . S
C105 C104 1.379 . S
C105 C107 1.369 . S
C105 H116 0.930 . S
C106 C108 1.383 . S
C106 C109 1.382 . S
C106 H117 0.930 . S
C107 C105 1.369 . S
C107 C109 1.392 . S
C107 H118 0.930 . S
C108 C104 1.373 . S
C108 C106 1.383 . S
C108 H119 0.931 . S
C109 C106 1.382 . S
C109 C107 1.392 . S
C110 Eu81 2.828 . S
C110 O94 1.249 . S
C110 O95 1.244 . S
C110 C104 1.505 . S
C111 O98 1.258 . S
C111 O99 1.242 . S
H112 C84 0.930 . S
H113 C85 0.930 . S
H114 C86 0.930 . S
H115 C87 0.931 . S
H116 C105 0.930 . S
H117 C106 0.930 . S
H118 C107 0.930 . S
H119 C108 0.931 . S
Eu120 C129 2.828 . S
Eu120 O131 2.392 . S
Eu120 O133 2.418 . S
Eu120 O138 2.373 . S
Eu120 O141 2.488 . S
Eu120 O142 2.471 . S
Eu120 O143 2.349 . S
Eu121 O130 2.373 . S
Eu121 O134 2.488 . S
Eu121 O135 2.471 . S
Eu121 O136 2.349 . S
Eu121 O139 2.392 . S
Eu121 O140 2.418 . S
Eu121 C150 2.828 . S
C122 O140 1.244 . S
C122 O143 1.265 . S
C123 C124 1.379 . S
C123 C127 1.373 . S
C123 C129 1.505 . S
C124 C123 1.379 . S
C124 C126 1.369 . S
C124 H152 0.930 . S
C125 C127 1.383 . S
C125 C128 1.382 . S
C125 H153 0.930 . S
C126 C124 1.369 . S
C126 C128 1.392 . S
C126 H154 0.930 . S
C127 C123 1.373 . S
C127 C125 1.383 . S
C127 H155 0.931 . S
C128 C125 1.382 . S
C128 C126 1.392 . S
C129 Eu120 2.828 . S
C129 C123 1.505 . S
C129 O141 1.249 . S
C129 O142 1.244 . S
O130 Eu121 2.373 . S
O130 C132 1.258 . S
O131 Eu120 2.392 . S
O131 C132 1.242 . S
C132 O130 1.258 . S
C132 O131 1.242 . S
O133 Eu120 2.418 . S
O133 C137 1.244 . S
O134 Eu121 2.488 . S
O134 C150 1.249 . S
O135 Eu121 2.471 . S
O135 C150 1.244 . S
O136 Eu121 2.349 . S
O136 C137 1.265 . S
C137 O133 1.244 . S
C137 O136 1.265 . S
O138 Eu120 2.373 . S
O138 C151 1.258 . S
O139 Eu121 2.392 . S
O139 C151 1.242 . S
O140 Eu121 2.418 . S
O140 C122 1.244 . S
O141 Eu120 2.488 . S
O141 C129 1.249 . S
O142 Eu120 2.471 . S
O142 C129 1.244 . S
O143 Eu120 2.349 . S
O143 C122 1.265 . S
C144 C145 1.379 . S
C144 C148 1.373 . S
C144 C150 1.505 . S
C145 C144 1.379 . S
C145 C147 1.369 . S
C145 H156 0.930 . S
C146 C148 1.383 . S
C146 C149 1.382 . S
C146 H157 0.930 . S
C147 C145 1.369 . S
C147 C149 1.392 . S
C147 H158 0.930 . S
C148 C144 1.373 . S
C148 C146 1.383 . S
C148 H159 0.931 . S
C149 C146 1.382 . S
C149 C147 1.392 . S
C150 Eu121 2.828 . S
C150 O134 1.249 . S
C150 O135 1.244 . S
C150 C144 1.505 . S
C151 O138 1.258 . S
C151 O139 1.242 . S
H152 C124 0.930 . S
H153 C125 0.930 . S
H154 C126 0.930 . S
H155 C127 0.931 . S
H156 C145 0.930 . S
H157 C146 0.930 . S
H158 C147 0.930 . S
H159 C148 0.931 . S
Eu160 C169 2.828 . S
Eu160 O171 2.392 . S
Eu160 O173 2.418 . S
Eu160 O178 2.373 . S
Eu160 O181 2.488 . S
Eu160 O182 2.471 . S
Eu160 O183 2.349 . S
Eu161 O170 2.373 . S
Eu161 O174 2.488 . S
Eu161 O175 2.471 . S
Eu161 O176 2.349 . S
Eu161 O179 2.392 . S
Eu161 O180 2.418 . S
Eu161 C190 2.828 . S
C162 O180 1.244 . S
C162 O183 1.265 . S
C163 C164 1.379 . S
C163 C167 1.373 . S
C163 C169 1.505 . S
C164 C163 1.379 . S
C164 C166 1.369 . S
C164 H192 0.930 . S
C165 C167 1.383 . S
C165 C168 1.382 . S
C165 H193 0.930 . S
C166 C164 1.369 . S
C166 C168 1.392 . S
C166 H194 0.930 . S
C167 C163 1.373 . S
C167 C165 1.383 . S
C167 H195 0.931 . S
C168 C165 1.382 . S
C168 C166 1.392 . S
C169 Eu160 2.828 . S
C169 C163 1.505 . S
C169 O181 1.249 . S
C169 O182 1.244 . S
O170 Eu161 2.373 . S
O170 C172 1.258 . S
O171 Eu160 2.392 . S
O171 C172 1.242 . S
C172 O170 1.258 . S
C172 O171 1.242 . S
O173 Eu160 2.418 . S
O173 C177 1.244 . S
O174 Eu161 2.488 . S
O174 C190 1.249 . S
O175 Eu161 2.471 . S
O175 C190 1.244 . S
O176 Eu161 2.349 . S
O176 C177 1.265 . S
C177 O173 1.244 . S
C177 O176 1.265 . S
O178 Eu160 2.373 . S
O178 C191 1.258 . S
O179 Eu161 2.392 . S
O179 C191 1.242 . S
O180 Eu161 2.418 . S
O180 C162 1.244 . S
O181 Eu160 2.488 . S
O181 C169 1.249 . S
O182 Eu160 2.471 . S
O182 C169 1.244 . S
O183 Eu160 2.349 . S
O183 C162 1.265 . S
C184 C185 1.379 . S
C184 C188 1.373 . S
C184 C190 1.505 . S
C185 C184 1.379 . S
C185 C187 1.369 . S
C185 H196 0.930 . S
C186 C188 1.383 . S
C186 C189 1.382 . S
C186 H197 0.930 . S
C187 C185 1.369 . S
C187 C189 1.392 . S
C187 H198 0.930 . S
C188 C184 1.373 . S
C188 C186 1.383 . S
C188 H199 0.931 . S
C189 C186 1.382 . S
C189 C187 1.392 . S
C190 Eu161 2.828 . S
C190 O174 1.249 . S
C190 O175 1.244 . S
C190 C184 1.505 . S
C191 O178 1.258 . S
C191 O179 1.242 . S
H192 C164 0.930 . S
H193 C165 0.930 . S
H194 C166 0.930 . S
H195 C167 0.931 . S
H196 C185 0.930 . S
H197 C186 0.930 . S
H198 C187 0.930 . S
H199 C188 0.931 . S
Eu200 C209 2.828 . S
Eu200 O211 2.392 . S
Eu200 O213 2.418 . S
Eu200 O218 2.373 . S
Eu200 O221 2.488 . S
Eu200 O222 2.471 . S
Eu200 O223 2.349 . S
Eu201 O210 2.373 . S
Eu201 O214 2.488 . S
Eu201 O215 2.471 . S
Eu201 O216 2.349 . S
Eu201 O219 2.392 . S
Eu201 O220 2.418 . S
Eu201 C230 2.828 . S
C202 O220 1.244 . S
C202 O223 1.265 . S
C203 C204 1.379 . S
C203 C207 1.373 . S
C203 C209 1.505 . S
C204 C203 1.379 . S
C204 C206 1.369 . S
C204 H232 0.930 . S
C205 C207 1.383 . S
C205 C208 1.382 . S
C205 H233 0.930 . S
C206 C204 1.369 . S
C206 C208 1.392 . S
C206 H234 0.930 . S
C207 C203 1.373 . S
C207 C205 1.383 . S
C207 H235 0.931 . S
C208 C205 1.382 . S
C208 C206 1.392 . S
C209 Eu200 2.828 . S
C209 C203 1.505 . S
C209 O221 1.249 . S
C209 O222 1.244 . S
O210 Eu201 2.373 . S
O210 C212 1.258 . S
O211 Eu200 2.392 . S
O211 C212 1.242 . S
C212 O210 1.258 . S
C212 O211 1.242 . S
O213 Eu200 2.418 . S
O213 C217 1.244 . S
O214 Eu201 2.488 . S
O214 C230 1.249 . S
O215 Eu201 2.471 . S
O215 C230 1.244 . S
O216 Eu201 2.349 . S
O216 C217 1.265 . S
C217 O213 1.244 . S
C217 O216 1.265 . S
O218 Eu200 2.373 . S
O218 C231 1.258 . S
O219 Eu201 2.392 . S
O219 C231 1.242 . S
O220 Eu201 2.418 . S
O220 C202 1.244 . S
O221 Eu200 2.488 . S
O221 C209 1.249 . S
O222 Eu200 2.471 . S
O222 C209 1.244 . S
O223 Eu200 2.349 . S
O223 C202 1.265 . S
C224 C225 1.379 . S
C224 C228 1.373 . S
C224 C230 1.505 . S
C225 C224 1.379 . S
C225 C227 1.369 . S
C225 H236 0.930 . S
C226 C228 1.383 . S
C226 C229 1.382 . S
C226 H237 0.930 . S
C227 C225 1.369 . S
C227 C229 1.392 . S
C227 H238 0.930 . S
C228 C224 1.373 . S
C228 C226 1.383 . S
C228 H239 0.931 . S
C229 C226 1.382 . S
C229 C227 1.392 . S
C230 Eu201 2.828 . S
C230 O214 1.249 . S
C230 O215 1.244 . S
C230 C224 1.505 . S
C231 O218 1.258 . S
C231 O219 1.242 . S
H232 C204 0.930 . S
H233 C205 0.930 . S
H234 C206 0.930 . S
H235 C207 0.931 . S
H236 C225 0.930 . S
H237 C226 0.930 . S
H238 C227 0.930 . S
H239 C228 0.931 . S
Eu240 C249 2.828 . S
Eu240 O251 2.392 . S
Eu240 O253 2.418 . S
Eu240 O258 2.373 . S
Eu240 O261 2.488 . S
Eu240 O262 2.471 . S
Eu240 O263 2.349 . S
Eu241 O250 2.373 . S
Eu241 O254 2.488 . S
Eu241 O255 2.471 . S
Eu241 O256 2.349 . S
Eu241 O259 2.392 . S
Eu241 O260 2.418 . S
Eu241 C270 2.828 . S
C242 O260 1.244 . S
C242 O263 1.265 . S
C243 C244 1.379 . S
C243 C247 1.373 . S
C243 C249 1.505 . S
C244 C243 1.379 . S
C244 C246 1.369 . S
C244 H272 0.930 . S
C245 C247 1.383 . S
C245 C248 1.382 . S
C245 H273 0.930 . S
C246 C244 1.369 . S
C246 C248 1.392 . S
C246 H274 0.930 . S
C247 C243 1.373 . S
C247 C245 1.383 . S
C247 H275 0.931 . S
C248 C245 1.382 . S
C248 C246 1.392 . S
C249 Eu240 2.828 . S
C249 C243 1.505 . S
C249 O261 1.249 . S
C249 O262 1.244 . S
O250 Eu241 2.373 . S
O250 C252 1.258 . S
O251 Eu240 2.392 . S
O251 C252 1.242 . S
C252 O250 1.258 . S
C252 O251 1.242 . S
O253 Eu240 2.418 . S
O253 C257 1.244 . S
O254 Eu241 2.488 . S
O254 C270 1.249 . S
O255 Eu241 2.471 . S
O255 C270 1.244 . S
O256 Eu241 2.349 . S
O256 C257 1.265 . S
C257 O253 1.244 . S
C257 O256 1.265 . S
O258 Eu240 2.373 . S
O258 C271 1.258 . S
O259 Eu241 2.392 . S
O259 C271 1.242 . S
O260 Eu241 2.418 . S
O260 C242 1.244 . S
O261 Eu240 2.488 . S
O261 C249 1.249 . S
O262 Eu240 2.471 . S
O262 C249 1.244 . S
O263 Eu240 2.349 . S
O263 C242 1.265 . S
C264 C265 1.379 . S
C264 C268 1.373 . S
C264 C270 1.505 . S
C265 C264 1.379 . S
C265 C267 1.369 . S
C265 H276 0.930 . S
C266 C268 1.383 . S
C266 C269 1.382 . S
C266 H277 0.930 . S
C267 C265 1.369 . S
C267 C269 1.392 . S
C267 H278 0.930 . S
C268 C264 1.373 . S
C268 C266 1.383 . S
C268 H279 0.931 . S
C269 C266 1.382 . S
C269 C267 1.392 . S
C270 Eu241 2.828 . S
C270 O254 1.249 . S
C270 O255 1.244 . S
C270 C264 1.505 . S
C271 O258 1.258 . S
C271 O259 1.242 . S
H272 C244 0.930 . S
H273 C245 0.930 . S
H274 C246 0.930 . S
H275 C247 0.931 . S
H276 C265 0.930 . S
H277 C266 0.930 . S
H278 C267 0.930 . S
H279 C268 0.931 . S
Eu280 C289 2.828 . S
Eu280 O291 2.392 . S
Eu280 O293 2.418 . S
Eu280 O298 2.373 . S
Eu280 O301 2.488 . S
Eu280 O302 2.471 . S
Eu280 O303 2.349 . S
Eu281 O290 2.373 . S
Eu281 O294 2.488 . S
Eu281 O295 2.471 . S
Eu281 O296 2.349 . S
Eu281 O299 2.392 . S
Eu281 O300 2.418 . S
Eu281 C310 2.828 . S
C282 O300 1.244 . S
C282 O303 1.265 . S
C283 C284 1.379 . S
C283 C287 1.373 . S
C283 C289 1.505 . S
C284 C283 1.379 . S
C284 C286 1.369 . S
C284 H312 0.930 . S
C285 C287 1.383 . S
C285 C288 1.382 . S
C285 H313 0.930 . S
C286 C284 1.369 . S
C286 C288 1.392 . S
C286 H314 0.930 . S
C287 C283 1.373 . S
C287 C285 1.383 . S
C287 H315 0.931 . S
C288 C285 1.382 . S
C288 C286 1.392 . S
C289 Eu280 2.828 . S
C289 C283 1.505 . S
C289 O301 1.249 . S
C289 O302 1.244 . S
O290 Eu281 2.373 . S
O290 C292 1.258 . S
O291 Eu280 2.392 . S
O291 C292 1.242 . S
C292 O290 1.258 . S
C292 O291 1.242 . S
O293 Eu280 2.418 . S
O293 C297 1.244 . S
O294 Eu281 2.488 . S
O294 C310 1.249 . S
O295 Eu281 2.471 . S
O295 C310 1.244 . S
O296 Eu281 2.349 . S
O296 C297 1.265 . S
C297 O293 1.244 . S
C297 O296 1.265 . S
O298 Eu280 2.373 . S
O298 C311 1.258 . S
O299 Eu281 2.392 . S
O299 C311 1.242 . S
O300 Eu281 2.418 . S
O300 C282 1.244 . S
O301 Eu280 2.488 . S
O301 C289 1.249 . S
O302 Eu280 2.471 . S
O302 C289 1.244 . S
O303 Eu280 2.349 . S
O303 C282 1.265 . S
C304 C305 1.379 . S
C304 C308 1.373 . S
C304 C310 1.505 . S
C305 C304 1.379 . S
C305 C307 1.369 . S
C305 H316 0.930 . S
C306 C308 1.383 . S
C306 C309 1.382 . S
C306 H317 0.930 . S
C307 C305 1.369 . S
C307 C309 1.392 . S
C307 H318 0.930 . S
C308 C304 1.373 . S
C308 C306 1.383 . S
C308 H319 0.931 . S
C309 C306 1.382 . S
C309 C307 1.392 . S
C310 Eu281 2.828 . S
C310 O294 1.249 . S
C310 O295 1.244 . S
C310 C304 1.505 . S
C311 O298 1.258 . S
C311 O299 1.242 . S
H312 C284 0.930 . S
H313 C285 0.930 . S
H314 C286 0.930 . S
H315 C287 0.931 . S
H316 C305 0.930 . S
H317 C306 0.930 . S
H318 C307 0.930 . S
H319 C308 0.931 . S
Eu320 C329 2.828 . S
Eu320 O331 2.392 . S
Eu320 O333 2.418 . S
Eu320 O338 2.373 . S
Eu320 O341 2.488 . S
Eu320 O342 2.471 . S
Eu320 O343 2.349 . S
Eu321 O330 2.373 . S
Eu321 O334 2.488 . S
Eu321 O335 2.471 . S
Eu321 O336 2.349 . S
Eu321 O339 2.392 . S
Eu321 O340 2.418 . S
Eu321 C350 2.828 . S
C322 O340 1.244 . S
C322 O343 1.265 . S
C323 C324 1.379 . S
C323 C327 1.373 . S
C323 C329 1.505 . S
C324 C323 1.379 . S
C324 C326 1.369 . S
C324 H352 0.930 . S
C325 C327 1.383 . S
C325 C328 1.382 . S
C325 H353 0.930 . S
C326 C324 1.369 . S
C326 C328 1.392 . S
C326 H354 0.930 . S
C327 C323 1.373 . S
C327 C325 1.383 . S
C327 H355 0.931 . S
C328 C325 1.382 . S
C328 C326 1.392 . S
C329 Eu320 2.828 . S
C329 C323 1.505 . S
C329 O341 1.249 . S
C329 O342 1.244 . S
O330 Eu321 2.373 . S
O330 C332 1.258 . S
O331 Eu320 2.392 . S
O331 C332 1.242 . S
C332 O330 1.258 . S
C332 O331 1.242 . S
O333 Eu320 2.418 . S
O333 C337 1.244 . S
O334 Eu321 2.488 . S
O334 C350 1.249 . S
O335 Eu321 2.471 . S
O335 C350 1.244 . S
O336 Eu321 2.349 . S
O336 C337 1.265 . S
C337 O333 1.244 . S
C337 O336 1.265 . S
O338 Eu320 2.373 . S
O338 C351 1.258 . S
O339 Eu321 2.392 . S
O339 C351 1.242 . S
O340 Eu321 2.418 . S
O340 C322 1.244 . S
O341 Eu320 2.488 . S
O341 C329 1.249 . S
O342 Eu320 2.471 . S
O342 C329 1.244 . S
O343 Eu320 2.349 . S
O343 C322 1.265 . S
C344 C345 1.379 . S
C344 C348 1.373 . S
C344 C350 1.505 . S
C345 C344 1.379 . S
C345 C347 1.369 . S
C345 H356 0.930 . S
C346 C348 1.383 . S
C346 C349 1.382 . S
C346 H357 0.930 . S
C347 C345 1.369 . S
C347 C349 1.392 . S
C347 H358 0.930 . S
C348 C344 1.373 . S
C348 C346 1.383 . S
C348 H359 0.931 . S
C349 C346 1.382 . S
C349 C347 1.392 . S
C350 Eu321 2.828 . S
C350 O334 1.249 . S
C350 O335 1.244 . S
C350 C344 1.505 . S
C351 O338 1.258 . S
C351 O339 1.242 . S
H352 C324 0.930 . S
H353 C325 0.930 . S
H354 C326 0.930 . S
H355 C327 0.931 . S
H356 C345 0.930 . S
H357 C346 0.930 . S
H358 C347 0.930 . S
H359 C348 0.931 . S
Eu360 C369 2.828 . S
Eu360 O371 2.392 . S
Eu360 O373 2.418 . S
Eu360 O378 2.373 . S
Eu360 O381 2.488 . S
Eu360 O382 2.471 . S
Eu360 O383 2.349 . S
Eu361 O370 2.373 . S
Eu361 O374 2.488 . S
Eu361 O375 2.471 . S
Eu361 O376 2.349 . S
Eu361 O379 2.392 . S
Eu361 O380 2.418 . S
Eu361 C390 2.828 . S
C362 O380 1.244 . S
C362 O383 1.265 . S
C363 C364 1.379 . S
C363 C367 1.373 . S
C363 C369 1.505 . S
C364 C363 1.379 . S
C364 C366 1.369 . S
C364 H392 0.930 . S
C365 C367 1.383 . S
C365 C368 1.382 . S
C365 H393 0.930 . S
C366 C364 1.369 . S
C366 C368 1.392 . S
C366 H394 0.930 . S
C367 C363 1.373 . S
C367 C365 1.383 . S
C367 H395 0.931 . S
C368 C365 1.382 . S
C368 C366 1.392 . S
C369 Eu360 2.828 . S
C369 C363 1.505 . S
C369 O381 1.249 . S
C369 O382 1.244 . S
O370 Eu361 2.373 . S
O370 C372 1.258 . S
O371 Eu360 2.392 . S
O371 C372 1.242 . S
C372 O370 1.258 . S
C372 O371 1.242 . S
O373 Eu360 2.418 . S
O373 C377 1.244 . S
O374 Eu361 2.488 . S
O374 C390 1.249 . S
O375 Eu361 2.471 . S
O375 C390 1.244 . S
O376 Eu361 2.349 . S
O376 C377 1.265 . S
C377 O373 1.244 . S
C377 O376 1.265 . S
O378 Eu360 2.373 . S
O378 C391 1.258 . S
O379 Eu361 2.392 . S
O379 C391 1.242 . S
O380 Eu361 2.418 . S
O380 C362 1.244 . S
O381 Eu360 2.488 . S
O381 C369 1.249 . S
O382 Eu360 2.471 . S
O382 C369 1.244 . S
O383 Eu360 2.349 . S
O383 C362 1.265 . S
C384 C385 1.379 . S
C384 C388 1.373 . S
C384 C390 1.505 . S
C385 C384 1.379 . S
C385 C387 1.369 . S
C385 H396 0.930 . S
C386 C388 1.383 . S
C386 C389 1.382 . S
C386 H397 0.930 . S
C387 C385 1.369 . S
C387 C389 1.392 . S
C387 H398 0.930 . S
C388 C384 1.373 . S
C388 C386 1.383 . S
C388 H399 0.931 . S
C389 C386 1.382 . S
C389 C387 1.392 . S
C390 Eu361 2.828 . S
C390 O374 1.249 . S
C390 O375 1.244 . S
C390 C384 1.505 . S
C391 O378 1.258 . S
C391 O379 1.242 . S
H392 C364 0.930 . S
H393 C365 0.930 . S
H394 C366 0.930 . S
H395 C367 0.931 . S
H396 C385 0.930 . S
H397 C386 0.930 . S
H398 C387 0.930 . S
H399 C388 0.931 . S
Eu400 C409 2.828 . S
Eu400 O411 2.392 . S
Eu400 O413 2.418 . S
Eu400 O418 2.373 . S
Eu400 O421 2.488 . S
Eu400 O422 2.471 . S
Eu400 O423 2.349 . S
Eu401 O410 2.373 . S
Eu401 O414 2.488 . S
Eu401 O415 2.471 . S
Eu401 O416 2.349 . S
Eu401 O419 2.392 . S
Eu401 O420 2.418 . S
Eu401 C430 2.828 . S
C402 O420 1.244 . S
C402 O423 1.265 . S
C403 C404 1.379 . S
C403 C407 1.373 . S
C403 C409 1.505 . S
C404 C403 1.379 . S
C404 C406 1.369 . S
C404 H432 0.930 . S
C405 C407 1.383 . S
C405 C408 1.382 . S
C405 H433 0.930 . S
C406 C404 1.369 . S
C406 C408 1.392 . S
C406 H434 0.930 . S
C407 C403 1.373 . S
C407 C405 1.383 . S
C407 H435 0.931 . S
C408 C405 1.382 . S
C408 C406 1.392 . S
C409 Eu400 2.828 . S
C409 C403 1.505 . S
C409 O421 1.249 . S
C409 O422 1.244 . S
O410 Eu401 2.373 . S
O410 C412 1.258 . S
O411 Eu400 2.392 . S
O411 C412 1.242 . S
C412 O410 1.258 . S
C412 O411 1.242 . S
O413 Eu400 2.418 . S
O413 C417 1.244 . S
O414 Eu401 2.488 . S
O414 C430 1.249 . S
O415 Eu401 2.471 . S
O415 C430 1.244 . S
O416 Eu401 2.349 . S
O416 C417 1.265 . S
C417 O413 1.244 . S
C417 O416 1.265 . S
O418 Eu400 2.373 . S
O418 C431 1.258 . S
O419 Eu401 2.392 . S
O419 C431 1.242 . S
O420 Eu401 2.418 . S
O420 C402 1.244 . S
O421 Eu400 2.488 . S
O421 C409 1.249 . S
O422 Eu400 2.471 . S
O422 C409 1.244 . S
O423 Eu400 2.349 . S
O423 C402 1.265 . S
C424 C425 1.379 . S
C424 C428 1.373 . S
C424 C430 1.505 . S
C425 C424 1.379 . S
C425 C427 1.369 . S
C425 H436 0.930 . S
C426 C428 1.383 . S
C426 C429 1.382 . S
C426 H437 0.930 . S
C427 C425 1.369 . S
C427 C429 1.392 . S
C427 H438 0.930 . S
C428 C424 1.373 . S
C428 C426 1.383 . S
C428 H439 0.931 . S
C429 C426 1.382 . S
C429 C427 1.392 . S
C430 Eu401 2.828 . S
C430 O414 1.249 . S
C430 O415 1.244 . S
C430 C424 1.505 . S
C431 O418 1.258 . S
C431 O419 1.242 . S
H432 C404 0.930 . S
H433 C405 0.930 . S
H434 C406 0.930 . S
H435 C407 0.931 . S
H436 C425 0.930 . S
H437 C426 0.930 . S
H438 C427 0.930 . S
H439 C428 0.931 . S
Eu440 C449 2.828 . S
Eu440 O451 2.392 . S
Eu440 O453 2.418 . S
Eu440 O458 2.373 . S
Eu440 O461 2.488 . S
Eu440 O462 2.471 . S
Eu440 O463 2.349 . S
Eu441 O450 2.373 . S
Eu441 O454 2.488 . S
Eu441 O455 2.471 . S
Eu441 O456 2.349 . S
Eu441 O459 2.392 . S
Eu441 O460 2.418 . S
Eu441 C470 2.828 . S
C442 O460 1.244 . S
C442 O463 1.265 . S
C443 C444 1.379 . S
C443 C447 1.373 . S
C443 C449 1.505 . S
C444 C443 1.379 . S
C444 C446 1.369 . S
C444 H472 0.930 . S
C445 C447 1.383 . S
C445 C448 1.382 . S
C445 H473 0.930 . S
C446 C444 1.369 . S
C446 C448 1.392 . S
C446 H474 0.930 . S
C447 C443 1.373 . S
C447 C445 1.383 . S
C447 H475 0.931 . S
C448 C445 1.382 . S
C448 C446 1.392 . S
C449 Eu440 2.828 . S
C449 C443 1.505 . S
C449 O461 1.249 . S
C449 O462 1.244 . S
O450 Eu441 2.373 . S
O450 C452 1.258 . S
O451 Eu440 2.392 . S
O451 C452 1.242 . S
C452 O450 1.258 . S
C452 O451 1.242 . S
O453 Eu440 2.418 . S
O453 C457 1.244 . S
O454 Eu441 2.488 . S
O454 C470 1.249 . S
O455 Eu441 2.471 . S
O455 C470 1.244 . S
O456 Eu441 2.349 . S
O456 C457 1.265 . S
C457 O453 1.244 . S
C457 O456 1.265 . S
O458 Eu440 2.373 . S
O458 C471 1.258 . S
O459 Eu441 2.392 . S
O459 C471 1.242 . S
O460 Eu441 2.418 . S
O460 C442 1.244 . S
O461 Eu440 2.488 . S
O461 C449 1.249 . S
O462 Eu440 2.471 . S
O462 C449 1.244 . S
O463 Eu440 2.349 . S
O463 C442 1.265 . S
C464 C465 1.379 . S
C464 C468 1.373 . S
C464 C470 1.505 . S
C465 C464 1.379 . S
C465 C467 1.369 . S
C465 H476 0.930 . S
C466 C468 1.383 . S
C466 C469 1.382 . S
C466 H477 0.930 . S
C467 C465 1.369 . S
C467 C469 1.392 . S
C467 H478 0.930 . S
C468 C464 1.373 . S
C468 C466 1.383 . S
C468 H479 0.931 . S
C469 C466 1.382 . S
C469 C467 1.392 . S
C470 Eu441 2.828 . S
C470 O454 1.249 . S
C470 O455 1.244 . S
C470 C464 1.505 . S
C471 O458 1.258 . S
C471 O459 1.242 . S
H472 C444 0.930 . S
H473 C445 0.930 . S
H474 C446 0.930 . S
H475 C447 0.931 . S
H476 C465 0.930 . S
H477 C466 0.930 . S
H478 C467 0.930 . S
H479 C468 0.931 . S
Eu480 C489 2.828 . S
Eu480 O491 2.392 . S
Eu480 O493 2.418 . S
Eu480 O498 2.373 . S
Eu480 O501 2.488 . S
Eu480 O502 2.471 . S
Eu480 O503 2.349 . S
Eu481 O490 2.373 . S
Eu481 O494 2.488 . S
Eu481 O495 2.471 . S
Eu481 O496 2.349 . S
Eu481 O499 2.392 . S
Eu481 O500 2.418 . S
Eu481 C510 2.828 . S
C482 O500 1.244 . S
C482 O503 1.265 . S
C483 C484 1.379 . S
C483 C487 1.373 . S
C483 C489 1.505 . S
C484 C483 1.379 . S
C484 C486 1.369 . S
C484 H512 0.930 . S
C485 C487 1.383 . S
C485 C488 1.382 . S
C485 H513 0.930 . S
C486 C484 1.369 . S
C486 C488 1.392 . S
C486 H514 0.930 . S
C487 C483 1.373 . S
C487 C485 1.383 . S
C487 H515 0.931 . S
C488 C485 1.382 . S
C488 C486 1.392 . S
C489 Eu480 2.828 . S
C489 C483 1.505 . S
C489 O501 1.249 . S
C489 O502 1.244 . S
O490 Eu481 2.373 . S
O490 C492 1.258 . S
O491 Eu480 2.392 . S
O491 C492 1.242 . S
C492 O490 1.258 . S
C492 O491 1.242 . S
O493 Eu480 2.418 . S
O493 C497 1.244 . S
O494 Eu481 2.488 . S
O494 C510 1.249 . S
O495 Eu481 2.471 . S
O495 C510 1.244 . S
O496 Eu481 2.349 . S
O496 C497 1.265 . S
C497 O493 1.244 . S
C497 O496 1.265 . S
O498 Eu480 2.373 . S
O498 C511 1.258 . S
O499 Eu481 2.392 . S
O499 C511 1.242 . S
O500 Eu481 2.418 . S
O500 C482 1.244 . S
O501 Eu480 2.488 . S
O501 C489 1.249 . S
O502 Eu480 2.471 . S
O502 C489 1.244 . S
O503 Eu480 2.349 . S
O503 C482 1.265 . S
C504 C505 1.379 . S
C504 C508 1.373 . S
C504 C510 1.505 . S
C505 C504 1.379 . S
C505 C507 1.369 . S
C505 H516 0.930 . S
C506 C508 1.383 . S
C506 C509 1.382 . S
C506 H517 0.930 . S
C507 C505 1.369 . S
C507 C509 1.392 . S
C507 H518 0.930 . S
C508 C504 1.373 . S
C508 C506 1.383 . S
C508 H519 0.931 . S
C509 C506 1.382 . S
C509 C507 1.392 . S
C510 Eu481 2.828 . S
C510 O494 1.249 . S
C510 O495 1.244 . S
C510 C504 1.505 . S
C511 O498 1.258 . S
C511 O499 1.242 . S
H512 C484 0.930 . S
H513 C485 0.930 . S
H514 C486 0.930 . S
H515 C487 0.931 . S
H516 C505 0.930 . S
H517 C506 0.930 . S
H518 C507 0.930 . S
H519 C508 0.931 . S
Eu520 C529 2.828 . S
Eu520 O531 2.392 . S
Eu520 O533 2.418 . S
Eu520 O538 2.373 . S
Eu520 O541 2.488 . S
Eu520 O542 2.471 . S
Eu520 O543 2.349 . S
Eu521 O530 2.373 . S
Eu521 O534 2.488 . S
Eu521 O535 2.471 . S
Eu521 O536 2.349 . S
Eu521 O539 2.392 . S
Eu521 O540 2.418 . S
Eu521 C550 2.828 . S
C522 O540 1.244 . S
C522 O543 1.265 . S
C523 C524 1.379 . S
C523 C527 1.373 . S
C523 C529 1.505 . S
C524 C523 1.379 . S
C524 C526 1.369 . S
C524 H552 0.930 . S
C525 C527 1.383 . S
C525 C528 1.382 . S
C525 H553 0.930 . S
C526 C524 1.369 . S
C526 C528 1.392 . S
C526 H554 0.930 . S
C527 C523 1.373 . S
C527 C525 1.383 . S
C527 H555 0.931 . S
C528 C525 1.382 . S
C528 C526 1.392 . S
C529 Eu520 2.828 . S
C529 C523 1.505 . S
C529 O541 1.249 . S
C529 O542 1.244 . S
O530 Eu521 2.373 . S
O530 C532 1.258 . S
O531 Eu520 2.392 . S
O531 C532 1.242 . S
C532 O530 1.258 . S
C532 O531 1.242 . S
O533 Eu520 2.418 . S
O533 C537 1.244 . S
O534 Eu521 2.488 . S
O534 C550 1.249 . S
O535 Eu521 2.471 . S
O535 C550 1.244 . S
O536 Eu521 2.349 . S
O536 C537 1.265 . S
C537 O533 1.244 . S
C537 O536 1.265 . S
O538 Eu520 2.373 . S
O538 C551 1.258 . S
O539 Eu521 2.392 . S
O539 C551 1.242 . S
O540 Eu521 2.418 . S
O540 C522 1.244 . S
O541 Eu520 2.488 . S
O541 C529 1.249 . S
O542 Eu520 2.471 . S
O542 C529 1.244 . S
O543 Eu520 2.349 . S
O543 C522 1.265 . S
C544 C545 1.379 . S
C544 C548 1.373 . S
C544 C550 1.505 . S
C545 C544 1.379 . S
C545 C547 1.369 . S
C545 H556 0.930 . S
C546 C548 1.383 . S
C546 C549 1.382 . S
C546 H557 0.930 . S
C547 C545 1.369 . S
C547 C549 1.392 . S
C547 H558 0.930 . S
C548 C544 1.373 . S
C548 C546 1.383 . S
C548 H559 0.931 . S
C549 C546 1.382 . S
C549 C547 1.392 . S
C550 Eu521 2.828 . S
C550 O534 1.249 . S
C550 O535 1.244 . S
C550 C544 1.505 . S
C551 O538 1.258 . S
C551 O539 1.242 . S
H552 C524 0.930 . S
H553 C525 0.930 . S
H554 C526 0.930 . S
H555 C527 0.931 . S
H556 C545 0.930 . S
H557 C546 0.930 . S
H558 C547 0.930 . S
H559 C548 0.931 . S
Eu560 C569 2.828 . S
Eu560 O571 2.392 . S
Eu560 O573 2.418 . S
Eu560 O578 2.373 . S
Eu560 O581 2.488 . S
Eu560 O582 2.471 . S
Eu560 O583 2.349 . S
Eu561 O570 2.373 . S
Eu561 O574 2.488 . S
Eu561 O575 2.471 . S
Eu561 O576 2.349 . S
Eu561 O579 2.392 . S
Eu561 O580 2.418 . S
Eu561 C590 2.828 . S
C562 O580 1.244 . S
C562 O583 1.265 . S
C563 C564 1.379 . S
C563 C567 1.373 . S
C563 C569 1.505 . S
C564 C563 1.379 . S
C564 C566 1.369 . S
C564 H592 0.930 . S
C565 C567 1.383 . S
C565 C568 1.382 . S
C565 H593 0.930 . S
C566 C564 1.369 . S
C566 C568 1.392 . S
C566 H594 0.930 . S
C567 C563 1.373 . S
C567 C565 1.383 . S
C567 H595 0.931 . S
C568 C565 1.382 . S
C568 C566 1.392 . S
C569 Eu560 2.828 . S
C569 C563 1.505 . S
C569 O581 1.249 . S
C569 O582 1.244 . S
O570 Eu561 2.373 . S
O570 C572 1.258 . S
O571 Eu560 2.392 . S
O571 C572 1.242 . S
C572 O570 1.258 . S
C572 O571 1.242 . S
O573 Eu560 2.418 . S
O573 C577 1.244 . S
O574 Eu561 2.488 . S
O574 C590 1.249 . S
O575 Eu561 2.471 . S
O575 C590 1.244 . S
O576 Eu561 2.349 . S
O576 C577 1.265 . S
C577 O573 1.244 . S
C577 O576 1.265 . S
O578 Eu560 2.373 . S
O578 C591 1.258 . S
O579 Eu561 2.392 . S
O579 C591 1.242 . S
O580 Eu561 2.418 . S
O580 C562 1.244 . S
O581 Eu560 2.488 . S
O581 C569 1.249 . S
O582 Eu560 2.471 . S
O582 C569 1.244 . S
O583 Eu560 2.349 . S
O583 C562 1.265 . S
C584 C585 1.379 . S
C584 C588 1.373 . S
C584 C590 1.505 . S
C585 C584 1.379 . S
C585 C587 1.369 . S
C585 H596 0.930 . S
C586 C588 1.383 . S
C586 C589 1.382 . S
C586 H597 0.930 . S
C587 C585 1.369 . S
C587 C589 1.392 . S
C587 H598 0.930 . S
C588 C584 1.373 . S
C588 C586 1.383 . S
C588 H599 0.931 . S
C589 C586 1.382 . S
C589 C587 1.392 . S
C590 Eu561 2.828 . S
C590 O574 1.249 . S
C590 O575 1.244 . S
C590 C584 1.505 . S
C591 O578 1.258 . S
C591 O579 1.242 . S
H592 C564 0.930 . S
H593 C565 0.930 . S
H594 C566 0.930 . S
H595 C567 0.931 . S
H596 C585 0.930 . S
H597 C586 0.930 . S
H598 C587 0.930 . S
H599 C588 0.931 . S
Eu600 C609 2.828 . S
Eu600 O611 2.392 . S
Eu600 O613 2.418 . S
Eu600 O618 2.373 . S
Eu600 O621 2.488 . S
Eu600 O622 2.471 . S
Eu600 O623 2.349 . S
Eu601 O610 2.373 . S
Eu601 O614 2.488 . S
Eu601 O615 2.471 . S
Eu601 O616 2.349 . S
Eu601 O619 2.392 . S
Eu601 O620 2.418 . S
Eu601 C630 2.828 . S
C602 O620 1.244 . S
C602 O623 1.265 . S
C603 C604 1.379 1_655 S
C603 C607 1.373 . S
C603 C609 1.505 . S
C604 C603 1.379 1_455 S
C604 C606 1.369 . S
C604 H632 0.930 . S
C605 C607 1.383 . S
C605 C608 1.382 1_655 S
C605 H633 0.930 . S
C606 C604 1.369 . S
C606 C608 1.392 . S
C606 H634 0.930 . S
C607 C603 1.373 . S
C607 C605 1.383 . S
C607 H635 0.931 . S
C608 C605 1.382 1_455 S
C608 C606 1.392 . S
C609 Eu600 2.828 . S
C609 C603 1.505 . S
C609 O621 1.249 . S
C609 O622 1.244 . S
O610 Eu601 2.373 . S
O610 C612 1.258 . S
O611 Eu600 2.392 . S
O611 C612 1.242 . S
C612 O610 1.258 . S
C612 O611 1.242 . S
O613 Eu600 2.418 . S
O613 C617 1.244 . S
O614 Eu601 2.488 . S
O614 C630 1.249 . S
O615 Eu601 2.471 . S
O615 C630 1.244 . S
O616 Eu601 2.349 . S
O616 C617 1.265 . S
C617 O613 1.244 . S
C617 O616 1.265 . S
O618 Eu600 2.373 . S
O618 C631 1.258 . S
O619 Eu601 2.392 . S
O619 C631 1.242 . S
O620 Eu601 2.418 . S
O620 C602 1.244 . S
O621 Eu600 2.488 . S
O621 C609 1.249 . S
O622 Eu600 2.471 . S
O622 C609 1.244 . S
O623 Eu600 2.349 . S
O623 C602 1.265 . S
C624 C625 1.379 . S
C624 C628 1.373 . S
C624 C630 1.505 . S
C625 C624 1.379 . S
C625 C627 1.369 . S
C625 H636 0.930 . S
C626 C628 1.383 . S
C626 C629 1.382 . S
C626 H637 0.930 . S
C627 C625 1.369 . S
C627 C629 1.392 . S
C627 H638 0.930 . S
C628 C624 1.373 . S
C628 C626 1.383 . S
C628 H639 0.931 . S
C629 C626 1.382 . S
C629 C627 1.392 . S
C630 Eu601 2.828 . S
C630 O614 1.249 . S
C630 O615 1.244 . S
C630 C624 1.505 . S
C631 O618 1.258 . S
C631 O619 1.242 . S
H632 C604 0.930 . S
H633 C605 0.930 . S
H634 C606 0.930 . S
H635 C607 0.931 . S
H636 C625 0.930 . S
H637 C626 0.930 . S
H638 C627 0.930 . S
H639 C628 0.931 . S
Eu640 C649 2.828 . S
Eu640 O651 2.392 . S
Eu640 O653 2.418 . S
Eu640 O658 2.373 . S
Eu640 O661 2.488 . S
Eu640 O662 2.471 . S
Eu640 O663 2.349 . S
Eu641 O650 2.373 . S
Eu641 O654 2.488 . S
Eu641 O655 2.471 . S
Eu641 O656 2.349 . S
Eu641 O659 2.392 . S
Eu641 O660 2.418 . S
Eu641 C670 2.828 . S
C642 O660 1.244 . S
C642 O663 1.265 . S
C643 C644 1.379 . S
C643 C647 1.373 . S
C643 C649 1.505 . S
C644 C643 1.379 . S
C644 C646 1.369 . S
C644 H672 0.930 . S
C645 C647 1.383 . S
C645 C648 1.382 . S
C645 H673 0.930 . S
C646 C644 1.369 . S
C646 C648 1.392 . S
C646 H674 0.930 . S
C647 C643 1.373 . S
C647 C645 1.383 . S
C647 H675 0.931 . S
C648 C645 1.382 . S
C648 C646 1.392 . S
C649 Eu640 2.828 . S
C649 C643 1.505 . S
C649 O661 1.249 . S
C649 O662 1.244 . S
O650 Eu641 2.373 . S
O650 C652 1.258 . S
O651 Eu640 2.392 . S
O651 C652 1.242 . S
C652 O650 1.258 . S
C652 O651 1.242 . S
O653 Eu640 2.418 . S
O653 C657 1.244 . S
O654 Eu641 2.488 . S
O654 C670 1.249 . S
O655 Eu641 2.471 . S
O655 C670 1.244 . S
O656 Eu641 2.349 . S
O656 C657 1.265 . S
C657 O653 1.244 . S
C657 O656 1.265 . S
O658 Eu640 2.373 . S
O658 C671 1.258 . S
O659 Eu641 2.392 . S
O659 C671 1.242 . S
O660 Eu641 2.418 . S
O660 C642 1.244 . S
O661 Eu640 2.488 . S
O661 C649 1.249 . S
O662 Eu640 2.471 . S
O662 C649 1.244 . S
O663 Eu640 2.349 . S
O663 C642 1.265 . S
C664 C665 1.379 . S
C664 C668 1.373 . S
C664 C670 1.505 . S
C665 C664 1.379 . S
C665 C667 1.369 . S
C665 H676 0.930 . S
C666 C668 1.383 . S
C666 C669 1.382 . S
C666 H677 0.930 . S
C667 C665 1.369 . S
C667 C669 1.392 . S
C667 H678 0.930 . S
C668 C664 1.373 . S
C668 C666 1.383 . S
C668 H679 0.931 . S
C669 C666 1.382 . S
C669 C667 1.392 . S
C670 Eu641 2.828 . S
C670 O654 1.249 . S
C670 O655 1.244 . S
C670 C664 1.505 . S
C671 O658 1.258 . S
C671 O659 1.242 . S
H672 C644 0.930 . S
H673 C645 0.930 . S
H674 C646 0.930 . S
H675 C647 0.931 . S
H676 C665 0.930 . S
H677 C666 0.930 . S
H678 C667 0.930 . S
H679 C668 0.931 . S
Eu680 C689 2.828 . S
Eu680 O691 2.392 . S
Eu680 O693 2.418 . S
Eu680 O698 2.373 . S
Eu680 O701 2.488 . S
Eu680 O702 2.471 . S
Eu680 O703 2.349 . S
Eu681 O690 2.373 . S
Eu681 O694 2.488 . S
Eu681 O695 2.471 . S
Eu681 O696 2.349 . S
Eu681 O699 2.392 . S
Eu681 O700 2.418 . S
Eu681 C710 2.828 . S
C682 O700 1.244 . S
C682 O703 1.265 . S
C683 C684 1.379 1_545 S
C683 C687 1.373 . S
C683 C689 1.505 . S
C684 C683 1.379 1_565 S
C684 C686 1.369 . S
C684 H712 0.930 . S
C685 C687 1.383 . S
C685 C688 1.382 1_545 S
C685 H713 0.930 . S
C686 C684 1.369 . S
C686 C688 1.392 . S
C686 H714 0.930 . S
C687 C683 1.373 . S
C687 C685 1.383 . S
C687 H715 0.931 . S
C688 C685 1.382 1_565 S
C688 C686 1.392 . S
C689 Eu680 2.828 . S
C689 C683 1.505 . S
C689 O701 1.249 . S
C689 O702 1.244 . S
O690 Eu681 2.373 . S
O690 C692 1.258 . S
O691 Eu680 2.392 . S
O691 C692 1.242 . S
C692 O690 1.258 . S
C692 O691 1.242 . S
O693 Eu680 2.418 . S
O693 C697 1.244 . S
O694 Eu681 2.488 . S
O694 C710 1.249 . S
O695 Eu681 2.471 . S
O695 C710 1.244 . S
O696 Eu681 2.349 . S
O696 C697 1.265 . S
C697 O693 1.244 . S
C697 O696 1.265 . S
O698 Eu680 2.373 . S
O698 C711 1.258 . S
O699 Eu681 2.392 . S
O699 C711 1.242 . S
O700 Eu681 2.418 . S
O700 C682 1.244 . S
O701 Eu680 2.488 . S
O701 C689 1.249 . S
O702 Eu680 2.471 . S
O702 C689 1.244 . S
O703 Eu680 2.349 . S
O703 C682 1.265 . S
C704 C705 1.379 . S
C704 C708 1.373 . S
C704 C710 1.505 . S
C705 C704 1.379 . S
C705 C707 1.369 . S
C705 H716 0.930 . S
C706 C708 1.383 . S
C706 C709 1.382 . S
C706 H717 0.930 . S
C707 C705 1.369 . S
C707 C709 1.392 . S
C707 H718 0.930 . S
C708 C704 1.373 . S
C708 C706 1.383 . S
C708 H719 0.931 . S
C709 C706 1.382 . S
C709 C707 1.392 . S
C710 Eu681 2.828 . S
C710 O694 1.249 . S
C710 O695 1.244 . S
C710 C704 1.505 . S
C711 O698 1.258 . S
C711 O699 1.242 . S
H712 C684 0.930 . S
H713 C685 0.930 . S
H714 C686 0.930 . S
H715 C687 0.931 . S
H716 C705 0.930 . S
H717 C706 0.930 . S
H718 C707 0.930 . S
H719 C708 0.931 . S
Eu720 C729 2.828 . S
Eu720 O731 2.392 . S
Eu720 O733 2.418 . S
Eu720 O738 2.373 . S
Eu720 O741 2.488 . S
Eu720 O742 2.471 . S
Eu720 O743 2.349 . S
Eu721 O730 2.373 . S
Eu721 O734 2.488 . S
Eu721 O735 2.471 . S
Eu721 O736 2.349 . S
Eu721 O739 2.392 . S
Eu721 O740 2.418 . S
Eu721 C750 2.828 . S
C722 O740 1.244 . S
C722 O743 1.265 . S
C723 C724 1.379 . S
C723 C727 1.373 . S
C723 C729 1.505 . S
C724 C723 1.379 . S
C724 C726 1.369 . S
C724 H752 0.930 . S
C725 C727 1.383 . S
C725 C728 1.382 . S
C725 H753 0.930 . S
C726 C724 1.369 . S
C726 C728 1.392 . S
C726 H754 0.930 . S
C727 C723 1.373 . S
C727 C725 1.383 . S
C727 H755 0.931 . S
C728 C725 1.382 . S
C728 C726 1.392 . S
C729 Eu720 2.828 . S
C729 C723 1.505 . S
C729 O741 1.249 . S
C729 O742 1.244 . S
O730 Eu721 2.373 . S
O730 C732 1.258 . S
O731 Eu720 2.392 . S
O731 C732 1.242 . S
C732 O730 1.258 . S
C732 O731 1.242 . S
O733 Eu720 2.418 . S
O733 C737 1.244 . S
O734 Eu721 2.488 . S
O734 C750 1.249 . S
O735 Eu721 2.471 . S
O735 C750 1.244 . S
O736 Eu721 2.349 . S
O736 C737 1.265 . S
C737 O733 1.244 . S
C737 O736 1.265 . S
O738 Eu720 2.373 . S
O738 C751 1.258 . S
O739 Eu721 2.392 . S
O739 C751 1.242 . S
O740 Eu721 2.418 . S
O740 C722 1.244 . S
O741 Eu720 2.488 . S
O741 C729 1.249 . S
O742 Eu720 2.471 . S
O742 C729 1.244 . S
O743 Eu720 2.349 . S
O743 C722 1.265 . S
C744 C745 1.379 1_545 S
C744 C748 1.373 . S
C744 C750 1.505 . S
C745 C744 1.379 1_565 S
C745 C747 1.369 . S
C745 H756 0.930 . S
C746 C748 1.383 . S
C746 C749 1.382 1_545 S
C746 H757 0.930 . S
C747 C745 1.369 . S
C747 C749 1.392 . S
C747 H758 0.930 . S
C748 C744 1.373 . S
C748 C746 1.383 . S
C748 H759 0.931 . S
C749 C746 1.382 1_565 S
C749 C747 1.392 . S
C750 Eu721 2.828 . S
C750 O734 1.249 . S
C750 O735 1.244 . S
C750 C744 1.505 . S
C751 O738 1.258 . S
C751 O739 1.242 . S
H752 C724 0.930 . S
H753 C725 0.930 . S
H754 C726 0.930 . S
H755 C727 0.931 . S
H756 C745 0.930 . S
H757 C746 0.930 . S
H758 C747 0.930 . S
H759 C748 0.931 . S
Eu760 C769 2.828 . S
Eu760 O771 2.392 . S
Eu760 O773 2.418 . S
Eu760 O778 2.373 . S
Eu760 O781 2.488 . S
Eu760 O782 2.471 . S
Eu760 O783 2.349 . S
Eu761 O770 2.373 . S
Eu761 O774 2.488 . S
Eu761 O775 2.471 . S
Eu761 O776 2.349 . S
Eu761 O779 2.392 . S
Eu761 O780 2.418 . S
Eu761 C790 2.828 . S
C762 O780 1.244 . S
C762 O783 1.265 . S
C763 C764 1.379 . S
C763 C767 1.373 . S
C763 C769 1.505 . S
C764 C763 1.379 . S
C764 C766 1.369 . S
C764 H792 0.930 . S
C765 C767 1.383 . S
C765 C768 1.382 . S
C765 H793 0.930 . S
C766 C764 1.369 . S
C766 C768 1.392 . S
C766 H794 0.930 . S
C767 C763 1.373 . S
C767 C765 1.383 . S
C767 H795 0.931 . S
C768 C765 1.382 . S
C768 C766 1.392 . S
C769 Eu760 2.828 . S
C769 C763 1.505 . S
C769 O781 1.249 . S
C769 O782 1.244 . S
O770 Eu761 2.373 . S
O770 C772 1.258 . S
O771 Eu760 2.392 . S
O771 C772 1.242 . S
C772 O770 1.258 . S
C772 O771 1.242 . S
O773 Eu760 2.418 . S
O773 C777 1.244 . S
O774 Eu761 2.488 . S
O774 C790 1.249 . S
O775 Eu761 2.471 . S
O775 C790 1.244 . S
O776 Eu761 2.349 . S
O776 C777 1.265 . S
C777 O773 1.244 . S
C777 O776 1.265 . S
O778 Eu760 2.373 . S
O778 C791 1.258 . S
O779 Eu761 2.392 . S
O779 C791 1.242 . S
O780 Eu761 2.418 . S
O780 C762 1.244 . S
O781 Eu760 2.488 . S
O781 C769 1.249 . S
O782 Eu760 2.471 . S
O782 C769 1.244 . S
O783 Eu760 2.349 . S
O783 C762 1.265 . S
C784 C785 1.379 1_655 S
C784 C788 1.373 . S
C784 C790 1.505 . S
C785 C784 1.379 1_455 S
C785 C787 1.369 . S
C785 H796 0.930 . S
C786 C788 1.383 . S
C786 C789 1.382 1_655 S
C786 H797 0.930 . S
C787 C785 1.369 . S
C787 C789 1.392 . S
C787 H798 0.930 . S
C788 C784 1.373 . S
C788 C786 1.383 . S
C788 H799 0.931 . S
C789 C786 1.382 1_455 S
C789 C787 1.392 . S
C790 Eu761 2.828 . S
C790 O774 1.249 . S
C790 O775 1.244 . S
C790 C784 1.505 . S
C791 O778 1.258 . S
C791 O779 1.242 . S
H792 C764 0.930 . S
H793 C765 0.930 . S
H794 C766 0.930 . S
H795 C767 0.931 . S
H796 C785 0.930 . S
H797 C786 0.930 . S
H798 C787 0.930 . S
H799 C788 0.931 . S
Eu800 C809 2.828 . S
Eu800 O811 2.392 . S
Eu800 O813 2.418 . S
Eu800 O818 2.373 . S
Eu800 O821 2.488 . S
Eu800 O822 2.471 . S
Eu800 O823 2.349 . S
Eu801 O810 2.373 . S
Eu801 O814 2.488 . S
Eu801 O815 2.471 . S
Eu801 O816 2.349 . S
Eu801 O819 2.392 . S
Eu801 O820 2.418 . S
Eu801 C830 2.828 . S
C802 O820 1.244 . S
C802 O823 1.265 . S
C803 C804 1.379 . S
C803 C807 1.373 . S
C803 C809 1.505 . S
C804 C803 1.379 . S
C804 C806 1.369 . S
C804 H832 0.930 . S
C805 C807 1.383 . S
C805 C808 1.382 . S
C805 H833 0.930 . S
C806 C804 1.369 . S
C806 C808 1.392 . S
C806 H834 0.930 . S
C807 C803 1.373 . S
C807 C805 1.383 . S
C807 H835 0.931 . S
C808 C805 1.382 . S
C808 C806 1.392 . S
C809 Eu800 2.828 . S
C809 C803 1.505 . S
C809 O821 1.249 . S
C809 O822 1.244 . S
O810 Eu801 2.373 . S
O810 C812 1.258 . S
O811 Eu800 2.392 . S
O811 C812 1.242 . S
C812 O810 1.258 . S
C812 O811 1.242 . S
O813 Eu800 2.418 . S
O813 C817 1.244 . S
O814 Eu801 2.488 . S
O814 C830 1.249 . S
O815 Eu801 2.471 . S
O815 C830 1.244 . S
O816 Eu801 2.349 . S
O816 C817 1.265 . S
C817 O813 1.244 . S
C817 O816 1.265 . S
O818 Eu800 2.373 . S
O818 C831 1.258 . S
O819 Eu801 2.392 . S
O819 C831 1.242 . S
O820 Eu801 2.418 . S
O820 C802 1.244 . S
O821 Eu800 2.488 . S
O821 C809 1.249 . S
O822 Eu800 2.471 . S
O822 C809 1.244 . S
O823 Eu800 2.349 . S
O823 C802 1.265 . S
C824 C825 1.379 . S
C824 C828 1.373 . S
C824 C830 1.505 . S
C825 C824 1.379 . S
C825 C827 1.369 . S
C825 H836 0.930 . S
C826 C828 1.383 . S
C826 C829 1.382 . S
C826 H837 0.930 . S
C827 C825 1.369 . S
C827 C829 1.392 . S
C827 H838 0.930 . S
C828 C824 1.373 . S
C828 C826 1.383 . S
C828 H839 0.931 . S
C829 C826 1.382 . S
C829 C827 1.392 . S
C830 Eu801 2.828 . S
C830 O814 1.249 . S
C830 O815 1.244 . S
C830 C824 1.505 . S
C831 O818 1.258 . S
C831 O819 1.242 . S
H832 C804 0.930 . S
H833 C805 0.930 . S
H834 C806 0.930 . S
H835 C807 0.931 . S
H836 C825 0.930 . S
H837 C826 0.930 . S
H838 C827 0.930 . S
H839 C828 0.931 . S
Eu840 C849 2.828 . S
Eu840 O851 2.392 . S
Eu840 O853 2.418 . S
Eu840 O858 2.373 . S
Eu840 O861 2.488 . S
Eu840 O862 2.471 . S
Eu840 O863 2.349 . S
Eu841 O850 2.373 . S
Eu841 O854 2.488 . S
Eu841 O855 2.471 . S
Eu841 O856 2.349 . S
Eu841 O859 2.392 . S
Eu841 O860 2.418 . S
Eu841 C870 2.828 . S
C842 O860 1.244 . S
C842 O863 1.265 1_556 S
C843 C844 1.379 . S
C843 C847 1.373 . S
C843 C849 1.505 . S
C844 C843 1.379 . S
C844 C846 1.369 . S
C844 H872 0.930 . S
C845 C847 1.383 . S
C845 C848 1.382 . S
C845 H873 0.930 . S
C846 C844 1.369 . S
C846 C848 1.392 . S
C846 H874 0.930 . S
C847 C843 1.373 . S
C847 C845 1.383 . S
C847 H875 0.931 . S
C848 C845 1.382 . S
C848 C846 1.392 . S
C849 Eu840 2.828 . S
C849 C843 1.505 . S
C849 O861 1.249 . S
C849 O862 1.244 . S
O850 Eu841 2.373 . S
O850 C852 1.258 . S
O851 Eu840 2.392 . S
O851 C852 1.242 1_554 S
C852 O850 1.258 . S
C852 O851 1.242 1_556 S
O853 Eu840 2.418 . S
O853 C857 1.244 . S
O854 Eu841 2.488 . S
O854 C870 1.249 . S
O855 Eu841 2.471 . S
O855 C870 1.244 . S
O856 Eu841 2.349 . S
O856 C857 1.265 1_556 S
C857 O853 1.244 . S
C857 O856 1.265 1_554 S
O858 Eu840 2.373 . S
O858 C871 1.258 . S
O859 Eu841 2.392 . S
O859 C871 1.242 1_556 S
O860 Eu841 2.418 . S
O860 C842 1.244 . S
O861 Eu840 2.488 . S
O861 C849 1.249 . S
O862 Eu840 2.471 . S
O862 C849 1.244 . S
O863 Eu840 2.349 . S
O863 C842 1.265 1_554 S
C864 C865 1.379 . S
C864 C868 1.373 . S
C864 C870 1.505 . S
C865 C864 1.379 . S
C865 C867 1.369 . S
C865 H876 0.930 . S
C866 C868 1.383 . S
C866 C869 1.382 . S
C866 H877 0.930 . S
C867 C865 1.369 . S
C867 C869 1.392 . S
C867 H878 0.930 . S
C868 C864 1.373 . S
C868 C866 1.383 . S
C868 H879 0.931 . S
C869 C866 1.382 . S
C869 C867 1.392 . S
C870 Eu841 2.828 . S
C870 O854 1.249 . S
C870 O855 1.244 . S
C870 C864 1.505 . S
C871 O858 1.258 . S
C871 O859 1.242 1_554 S
H872 C844 0.930 . S
H873 C845 0.930 . S
H874 C846 0.930 . S
H875 C847 0.931 . S
H876 C865 0.930 . S
H877 C866 0.930 . S
H878 C867 0.930 . S
H879 C868 0.931 . S
Eu880 C889 2.828 . S
Eu880 O891 2.392 . S
Eu880 O893 2.418 . S
Eu880 O898 2.373 . S
Eu880 O901 2.488 . S
Eu880 O902 2.471 . S
Eu880 O903 2.349 . S
Eu881 O890 2.373 . S
Eu881 O894 2.488 . S
Eu881 O895 2.471 . S
Eu881 O896 2.349 . S
Eu881 O899 2.392 . S
Eu881 O900 2.418 . S
Eu881 C910 2.828 . S
C882 O900 1.244 . S
C882 O903 1.265 1_556 S
C883 C884 1.379 . S
C883 C887 1.373 . S
C883 C889 1.505 . S
C884 C883 1.379 . S
C884 C886 1.369 . S
C884 H912 0.930 . S
C885 C887 1.383 . S
C885 C888 1.382 . S
C885 H913 0.930 . S
C886 C884 1.369 . S
C886 C888 1.392 . S
C886 H914 0.930 . S
C887 C883 1.373 . S
C887 C885 1.383 . S
C887 H915 0.931 . S
C888 C885 1.382 . S
C888 C886 1.392 . S
C889 Eu880 2.828 . S
C889 C883 1.505 . S
C889 O901 1.249 . S
C889 O902 1.244 . S
O890 Eu881 2.373 . S
O890 C892 1.258 . S
O891 Eu880 2.392 . S
O891 C892 1.242 1_554 S
C892 O890 1.258 . S
C892 O891 1.242 1_556 S
O893 Eu880 2.418 . S
O893 C897 1.244 . S
O894 Eu881 2.488 . S
O894 C910 1.249 . S
O895 Eu881 2.471 . S
O895 C910 1.244 . S
O896 Eu881 2.349 . S
O896 C897 1.265 1_556 S
C897 O893 1.244 . S
C897 O896 1.265 1_554 S
O898 Eu880 2.373 . S
O898 C911 1.258 . S
O899 Eu881 2.392 . S
O899 C911 1.242 1_556 S
O900 Eu881 2.418 . S
O900 C882 1.244 . S
O901 Eu880 2.488 . S
O901 C889 1.249 . S
O902 Eu880 2.471 . S
O902 C889 1.244 . S
O903 Eu880 2.349 . S
O903 C882 1.265 1_554 S
C904 C905 1.379 . S
C904 C908 1.373 . S
C904 C910 1.505 . S
C905 C904 1.379 . S
C905 C907 1.369 . S
C905 H916 0.930 . S
C906 C908 1.383 . S
C906 C909 1.382 . S
C906 H917 0.930 . S
C907 C905 1.369 . S
C907 C909 1.392 . S
C907 H918 0.930 . S
C908 C904 1.373 . S
C908 C906 1.383 . S
C908 H919 0.931 . S
C909 C906 1.382 . S
C909 C907 1.392 . S
C910 Eu881 2.828 . S
C910 O894 1.249 . S
C910 O895 1.244 . S
C910 C904 1.505 . S
C911 O898 1.258 . S
C911 O899 1.242 1_554 S
H912 C884 0.930 . S
H913 C885 0.930 . S
H914 C886 0.930 . S
H915 C887 0.931 . S
H916 C905 0.930 . S
H917 C906 0.930 . S
H918 C907 0.930 . S
H919 C908 0.931 . S
Eu920 C929 2.828 . S
Eu920 O931 2.392 . S
Eu920 O933 2.418 . S
Eu920 O938 2.373 . S
Eu920 O941 2.488 . S
Eu920 O942 2.471 . S
Eu920 O943 2.349 . S
Eu921 O930 2.373 . S
Eu921 O934 2.488 . S
Eu921 O935 2.471 . S
Eu921 O936 2.349 . S
Eu921 O939 2.392 . S
Eu921 O940 2.418 . S
Eu921 C950 2.828 . S
C922 O940 1.244 . S
C922 O943 1.265 1_556 S
C923 C924 1.379 . S
C923 C927 1.373 . S
C923 C929 1.505 . S
C924 C923 1.379 . S
C924 C926 1.369 . S
C924 H952 0.930 . S
C925 C927 1.383 . S
C925 C928 1.382 . S
C925 H953 0.930 . S
C926 C924 1.369 . S
C926 C928 1.392 . S
C926 H954 0.930 . S
C927 C923 1.373 . S
C927 C925 1.383 . S
C927 H955 0.931 . S
C928 C925 1.382 . S
C928 C926 1.392 . S
C929 Eu920 2.828 . S
C929 C923 1.505 . S
C929 O941 1.249 . S
C929 O942 1.244 . S
O930 Eu921 2.373 . S
O930 C932 1.258 . S
O931 Eu920 2.392 . S
O931 C932 1.242 1_554 S
C932 O930 1.258 . S
C932 O931 1.242 1_556 S
O933 Eu920 2.418 . S
O933 C937 1.244 . S
O934 Eu921 2.488 . S
O934 C950 1.249 . S
O935 Eu921 2.471 . S
O935 C950 1.244 . S
O936 Eu921 2.349 . S
O936 C937 1.265 1_556 S
C937 O933 1.244 . S
C937 O936 1.265 1_554 S
O938 Eu920 2.373 . S
O938 C951 1.258 . S
O939 Eu921 2.392 . S
O939 C951 1.242 1_556 S
O940 Eu921 2.418 . S
O940 C922 1.244 . S
O941 Eu920 2.488 . S
O941 C929 1.249 . S
O942 Eu920 2.471 . S
O942 C929 1.244 . S
O943 Eu920 2.349 . S
O943 C922 1.265 1_554 S
C944 C945 1.379 . S
C944 C948 1.373 . S
C944 C950 1.505 . S
C945 C944 1.379 . S
C945 C947 1.369 . S
C945 H956 0.930 . S
C946 C948 1.383 . S
C946 C949 1.382 . S
C946 H957 0.930 . S
C947 C945 1.369 . S
C947 C949 1.392 . S
C947 H958 0.930 . S
C948 C944 1.373 . S
C948 C946 1.383 . S
C948 H959 0.931 . S
C949 C946 1.382 . S
C949 C947 1.392 . S
C950 Eu921 2.828 . S
C950 O934 1.249 . S
C950 O935 1.244 . S
C950 C944 1.505 . S
C951 O938 1.258 . S
C951 O939 1.242 1_554 S
H952 C924 0.930 . S
H953 C925 0.930 . S
H954 C926 0.930 . S
H955 C927 0.931 . S
H956 C945 0.930 . S
H957 C946 0.930 . S
H958 C947 0.930 . S
H959 C948 0.931 . S
Eu960 C969 2.828 . S
Eu960 O971 2.392 . S
Eu960 O973 2.418 . S
Eu960 O978 2.373 . S
Eu960 O981 2.488 . S
Eu960 O982 2.471 . S
Eu960 O983 2.349 . S
Eu961 O970 2.373 . S
Eu961 O974 2.488 . S
Eu961 O975 2.471 . S
Eu961 O976 2.349 . S
Eu961 O979 2.392 . S
Eu961 O980 2.418 . S
Eu961 C990 2.828 . S
C962 O980 1.244 . S
C962 O983 1.265 . S
C963 C964 1.379 1_565 S
C963 C967 1.373 . S
C963 C969 1.505 . S
C964 C963 1.379 1_545 S
C964 C966 1.369 . S
C964 H992 0.930 . S
C965 C967 1.383 . S
C965 C968 1.382 1_565 S
C965 H993 0.930 . S
C966 C964 1.369 . S
C966 C968 1.392 . S
C966 H994 0.930 . S
C967 C963 1.373 . S
C967 C965 1.383 . S
C967 H995 0.931 . S
C968 C965 1.382 1_545 S
C968 C966 1.392 . S
C969 Eu960 2.828 . S
C969 C963 1.505 . S
C969 O981 1.249 . S
C969 O982 1.244 . S
O970 Eu961 2.373 . S
O970 C972 1.258 . S
O971 Eu960 2.392 . S
O971 C972 1.242 . S
C972 O970 1.258 . S
C972 O971 1.242 . S
O973 Eu960 2.418 . S
O973 C977 1.244 . S
O974 Eu961 2.488 . S
O974 C990 1.249 . S
O975 Eu961 2.471 . S
O975 C990 1.244 . S
O976 Eu961 2.349 . S
O976 C977 1.265 . S
C977 O973 1.244 . S
C977 O976 1.265 . S
O978 Eu960 2.373 . S
O978 C991 1.258 . S
O979 Eu961 2.392 . S
O979 C991 1.242 . S
O980 Eu961 2.418 . S
O980 C962 1.244 . S
O981 Eu960 2.488 . S
O981 C969 1.249 . S
O982 Eu960 2.471 . S
O982 C969 1.244 . S
O983 Eu960 2.349 . S
O983 C962 1.265 . S
C984 C985 1.379 . S
C984 C988 1.373 . S
C984 C990 1.505 . S
C985 C984 1.379 . S
C985 C987 1.369 . S
C985 H996 0.930 . S
C986 C988 1.383 . S
C986 C989 1.382 . S
C986 H997 0.930 . S
C987 C985 1.369 . S
C987 C989 1.392 . S
C987 H998 0.930 . S
C988 C984 1.373 . S
C988 C986 1.383 . S
C988 H999 0.931 . S
C989 C986 1.382 . S
C989 C987 1.392 . S
C990 Eu961 2.828 . S
C990 O974 1.249 . S
C990 O975 1.244 . S
C990 C984 1.505 . S
C991 O978 1.258 . S
C991 O979 1.242 . S
H992 C964 0.930 . S
H993 C965 0.930 . S
H994 C966 0.930 . S
H995 C967 0.931 . S
H996 C985 0.930 . S
H997 C986 0.930 . S
H998 C987 0.930 . S
H999 C988 0.931 . S
Eu1000 C1009 2.828 . S
Eu1000 O1011 2.392 . S
Eu1000 O1013 2.418 . S
Eu1000 O1018 2.373 . S
Eu1000 O1021 2.488 . S
Eu1000 O1022 2.471 . S
Eu1000 O1023 2.349 . S
Eu1001 O1010 2.373 . S
Eu1001 O1014 2.488 . S
Eu1001 O1015 2.471 . S
Eu1001 O1016 2.349 . S
Eu1001 O1019 2.392 . S
Eu1001 O1020 2.418 . S
Eu1001 C1030 2.828 . S
C1002 O1020 1.244 . S
C1002 O1023 1.265 . S
C1003 C1004 1.379 1_455 S
C1003 C1007 1.373 . S
C1003 C1009 1.505 . S
C1004 C1003 1.379 1_655 S
C1004 C1006 1.369 . S
C1004 H1032 0.930 . S
C1005 C1007 1.383 . S
C1005 C1008 1.382 1_455 S
C1005 H1033 0.930 . S
C1006 C1004 1.369 . S
C1006 C1008 1.392 . S
C1006 H1034 0.930 . S
C1007 C1003 1.373 . S
C1007 C1005 1.383 . S
C1007 H1035 0.931 . S
C1008 C1005 1.382 1_655 S
C1008 C1006 1.392 . S
C1009 Eu1000 2.828 . S
C1009 C1003 1.505 . S
C1009 O1021 1.249 . S
C1009 O1022 1.244 . S
O1010 Eu1001 2.373 . S
O1010 C1012 1.258 . S
O1011 Eu1000 2.392 . S
O1011 C1012 1.242 . S
C1012 O1010 1.258 . S
C1012 O1011 1.242 . S
O1013 Eu1000 2.418 . S
O1013 C1017 1.244 . S
O1014 Eu1001 2.488 . S
O1014 C1030 1.249 . S
O1015 Eu1001 2.471 . S
O1015 C1030 1.244 . S
O1016 Eu1001 2.349 . S
O1016 C1017 1.265 . S
C1017 O1013 1.244 . S
C1017 O1016 1.265 . S
O1018 Eu1000 2.373 . S
O1018 C1031 1.258 . S
O1019 Eu1001 2.392 . S
O1019 C1031 1.242 . S
O1020 Eu1001 2.418 . S
O1020 C1002 1.244 . S
O1021 Eu1000 2.488 . S
O1021 C1009 1.249 . S
O1022 Eu1000 2.471 . S
O1022 C1009 1.244 . S
O1023 Eu1000 2.349 . S
O1023 C1002 1.265 . S
C1024 C1025 1.379 . S
C1024 C1028 1.373 . S
C1024 C1030 1.505 . S
C1025 C1024 1.379 . S
C1025 C1027 1.369 . S
C1025 H1036 0.930 . S
C1026 C1028 1.383 . S
C1026 C1029 1.382 . S
C1026 H1037 0.930 . S
C1027 C1025 1.369 . S
C1027 C1029 1.392 . S
C1027 H1038 0.930 . S
C1028 C1024 1.373 . S
C1028 C1026 1.383 . S
C1028 H1039 0.931 . S
C1029 C1026 1.382 . S
C1029 C1027 1.392 . S
C1030 Eu1001 2.828 . S
C1030 O1014 1.249 . S
C1030 O1015 1.244 . S
C1030 C1024 1.505 . S
C1031 O1018 1.258 . S
C1031 O1019 1.242 . S
H1032 C1004 0.930 . S
H1033 C1005 0.930 . S
H1034 C1006 0.930 . S
H1035 C1007 0.931 . S
H1036 C1025 0.930 . S
H1037 C1026 0.930 . S
H1038 C1027 0.930 . S
H1039 C1028 0.931 . S
Eu1040 C1049 2.828 . S
Eu1040 O1051 2.392 . S
Eu1040 O1053 2.418 . S
Eu1040 O1058 2.373 . S
Eu1040 O1061 2.488 . S
Eu1040 O1062 2.471 . S
Eu1040 O1063 2.349 . S
Eu1041 O1050 2.373 . S
Eu1041 O1054 2.488 . S
Eu1041 O1055 2.471 . S
Eu1041 O1056 2.349 . S
Eu1041 O1059 2.392 . S
Eu1041 O1060 2.418 . S
Eu1041 C1070 2.828 . S
C1042 O1060 1.244 . S
C1042 O1063 1.265 . S
C1043 C1044 1.379 . S
C1043 C1047 1.373 . S
C1043 C1049 1.505 . S
C1044 C1043 1.379 . S
C1044 C1046 1.369 . S
C1044 H1072 0.930 . S
C1045 C1047 1.383 . S
C1045 C1048 1.382 . S
C1045 H1073 0.930 . S
C1046 C1044 1.369 . S
C1046 C1048 1.392 . S
C1046 H1074 0.930 . S
C1047 C1043 1.373 . S
C1047 C1045 1.383 . S
C1047 H1075 0.931 . S
C1048 C1045 1.382 . S
C1048 C1046 1.392 . S
C1049 Eu1040 2.828 . S
C1049 C1043 1.505 . S
C1049 O1061 1.249 . S
C1049 O1062 1.244 . S
O1050 Eu1041 2.373 . S
O1050 C1052 1.258 . S
O1051 Eu1040 2.392 . S
O1051 C1052 1.242 . S
C1052 O1050 1.258 . S
C1052 O1051 1.242 . S
O1053 Eu1040 2.418 . S
O1053 C1057 1.244 . S
O1054 Eu1041 2.488 . S
O1054 C1070 1.249 . S
O1055 Eu1041 2.471 . S
O1055 C1070 1.244 . S
O1056 Eu1041 2.349 . S
O1056 C1057 1.265 . S
C1057 O1053 1.244 . S
C1057 O1056 1.265 . S
O1058 Eu1040 2.373 . S
O1058 C1071 1.258 . S
O1059 Eu1041 2.392 . S
O1059 C1071 1.242 . S
O1060 Eu1041 2.418 . S
O1060 C1042 1.244 . S
O1061 Eu1040 2.488 . S
O1061 C1049 1.249 . S
O1062 Eu1040 2.471 . S
O1062 C1049 1.244 . S
O1063 Eu1040 2.349 . S
O1063 C1042 1.265 . S
C1064 C1065 1.379 . S
C1064 C1068 1.373 . S
C1064 C1070 1.505 . S
C1065 C1064 1.379 . S
C1065 C1067 1.369 . S
C1065 H1076 0.930 . S
C1066 C1068 1.383 . S
C1066 C1069 1.382 . S
C1066 H1077 0.930 . S
C1067 C1065 1.369 . S
C1067 C1069 1.392 . S
C1067 H1078 0.930 . S
C1068 C1064 1.373 . S
C1068 C1066 1.383 . S
C1068 H1079 0.931 . S
C1069 C1066 1.382 . S
C1069 C1067 1.392 . S
C1070 Eu1041 2.828 . S
C1070 O1054 1.249 . S
C1070 O1055 1.244 . S
C1070 C1064 1.505 . S
C1071 O1058 1.258 . S
C1071 O1059 1.242 . S
H1072 C1044 0.930 . S
H1073 C1045 0.930 . S
H1074 C1046 0.930 . S
H1075 C1047 0.931 . S
H1076 C1065 0.930 . S
H1077 C1066 0.930 . S
H1078 C1067 0.930 . S
H1079 C1068 0.931 . S
Eu1080 C1089 2.828 . S
Eu1080 O1091 2.392 . S
Eu1080 O1093 2.418 . S
Eu1080 O1098 2.373 . S
Eu1080 O1101 2.488 . S
Eu1080 O1102 2.471 . S
Eu1080 O1103 2.349 . S
Eu1081 O1090 2.373 . S
Eu1081 O1094 2.488 . S
Eu1081 O1095 2.471 . S
Eu1081 O1096 2.349 . S
Eu1081 O1099 2.392 . S
Eu1081 O1100 2.418 . S
Eu1081 C1110 2.828 . S
C1082 O1100 1.244 . S
C1082 O1103 1.265 1_556 S
C1083 C1084 1.379 . S
C1083 C1087 1.373 . S
C1083 C1089 1.505 . S
C1084 C1083 1.379 . S
C1084 C1086 1.369 . S
C1084 H1112 0.930 . S
C1085 C1087 1.383 . S
C1085 C1088 1.382 . S
C1085 H1113 0.930 . S
C1086 C1084 1.369 . S
C1086 C1088 1.392 . S
C1086 H1114 0.930 . S
C1087 C1083 1.373 . S
C1087 C1085 1.383 . S
C1087 H1115 0.931 . S
C1088 C1085 1.382 . S
C1088 C1086 1.392 . S
C1089 Eu1080 2.828 . S
C1089 C1083 1.505 . S
C1089 O1101 1.249 . S
C1089 O1102 1.244 . S
O1090 Eu1081 2.373 . S
O1090 C1092 1.258 . S
O1091 Eu1080 2.392 . S
O1091 C1092 1.242 1_554 S
C1092 O1090 1.258 . S
C1092 O1091 1.242 1_556 S
O1093 Eu1080 2.418 . S
O1093 C1097 1.244 . S
O1094 Eu1081 2.488 . S
O1094 C1110 1.249 . S
O1095 Eu1081 2.471 . S
O1095 C1110 1.244 . S
O1096 Eu1081 2.349 . S
O1096 C1097 1.265 1_556 S
C1097 O1093 1.244 . S
C1097 O1096 1.265 1_554 S
O1098 Eu1080 2.373 . S
O1098 C1111 1.258 . S
O1099 Eu1081 2.392 . S
O1099 C1111 1.242 1_556 S
O1100 Eu1081 2.418 . S
O1100 C1082 1.244 . S
O1101 Eu1080 2.488 . S
O1101 C1089 1.249 . S
O1102 Eu1080 2.471 . S
O1102 C1089 1.244 . S
O1103 Eu1080 2.349 . S
O1103 C1082 1.265 1_554 S
C1104 C1105 1.379 . S
C1104 C1108 1.373 . S
C1104 C1110 1.505 . S
C1105 C1104 1.379 . S
C1105 C1107 1.369 . S
C1105 H1116 0.930 . S
C1106 C1108 1.383 . S
C1106 C1109 1.382 . S
C1106 H1117 0.930 . S
C1107 C1105 1.369 . S
C1107 C1109 1.392 . S
C1107 H1118 0.930 . S
C1108 C1104 1.373 . S
C1108 C1106 1.383 . S
C1108 H1119 0.931 . S
C1109 C1106 1.382 . S
C1109 C1107 1.392 . S
C1110 Eu1081 2.828 . S
C1110 O1094 1.249 . S
C1110 O1095 1.244 . S
C1110 C1104 1.505 . S
C1111 O1098 1.258 . S
C1111 O1099 1.242 1_554 S
H1112 C1084 0.930 . S
H1113 C1085 0.930 . S
H1114 C1086 0.930 . S
H1115 C1087 0.931 . S
H1116 C1105 0.930 . S
H1117 C1106 0.930 . S
H1118 C1107 0.930 . S
H1119 C1108 0.931 . S
Eu1120 C1129 2.828 . S
Eu1120 O1131 2.392 . S
Eu1120 O1133 2.418 . S
Eu1120 O1138 2.373 . S
Eu1120 O1141 2.488 . S
Eu1120 O1142 2.471 . S
Eu1120 O1143 2.349 . S
Eu1121 O1130 2.373 . S
Eu1121 O1134 2.488 . S
Eu1121 O1135 2.471 . S
Eu1121 O1136 2.349 . S
Eu1121 O1139 2.392 . S
Eu1121 O1140 2.418 . S
Eu1121 C1150 2.828 . S
C1122 O1140 1.244 . S
C1122 O1143 1.265 1_556 S
C1123 C1124 1.379 . S
C1123 C1127 1.373 . S
C1123 C1129 1.505 . S
C1124 C1123 1.379 . S
C1124 C1126 1.369 . S
C1124 H1152 0.930 . S
C1125 C1127 1.383 . S
C1125 C1128 1.382 . S
C1125 H1153 0.930 . S
C1126 C1124 1.369 . S
C1126 C1128 1.392 . S
C1126 H1154 0.930 . S
C1127 C1123 1.373 . S
C1127 C1125 1.383 . S
C1127 H1155 0.931 . S
C1128 C1125 1.382 . S
C1128 C1126 1.392 . S
C1129 Eu1120 2.828 . S
C1129 C1123 1.505 . S
C1129 O1141 1.249 . S
C1129 O1142 1.244 . S
O1130 Eu1121 2.373 . S
O1130 C1132 1.258 . S
O1131 Eu1120 2.392 . S
O1131 C1132 1.242 1_554 S
C1132 O1130 1.258 . S
C1132 O1131 1.242 1_556 S
O1133 Eu1120 2.418 . S
O1133 C1137 1.244 . S
O1134 Eu1121 2.488 . S
O1134 C1150 1.249 . S
O1135 Eu1121 2.471 . S
O1135 C1150 1.244 . S
O1136 Eu1121 2.349 . S
O1136 C1137 1.265 1_556 S
C1137 O1133 1.244 . S
C1137 O1136 1.265 1_554 S
O1138 Eu1120 2.373 . S
O1138 C1151 1.258 . S
O1139 Eu1121 2.392 . S
O1139 C1151 1.242 1_556 S
O1140 Eu1121 2.418 . S
O1140 C1122 1.244 . S
O1141 Eu1120 2.488 . S
O1141 C1129 1.249 . S
O1142 Eu1120 2.471 . S
O1142 C1129 1.244 . S
O1143 Eu1120 2.349 . S
O1143 C1122 1.265 1_554 S
C1144 C1145 1.379 . S
C1144 C1148 1.373 . S
C1144 C1150 1.505 . S
C1145 C1144 1.379 . S
C1145 C1147 1.369 . S
C1145 H1156 0.930 . S
C1146 C1148 1.383 . S
C1146 C1149 1.382 . S
C1146 H1157 0.930 . S
C1147 C1145 1.369 . S
C1147 C1149 1.392 . S
C1147 H1158 0.930 . S
C1148 C1144 1.373 . S
C1148 C1146 1.383 . S
C1148 H1159 0.931 . S
C1149 C1146 1.382 . S
C1149 C1147 1.392 . S
C1150 Eu1121 2.828 . S
C1150 O1134 1.249 . S
C1150 O1135 1.244 . S
C1150 C1144 1.505 . S
C1151 O1138 1.258 . S
C1151 O1139 1.242 1_554 S
H1152 C1124 0.930 . S
H1153 C1125 0.930 . S
H1154 C1126 0.930 . S
H1155 C1127 0.931 . S
H1156 C1145 0.930 . S
H1157 C1146 0.930 . S
H1158 C1147 0.930 . S
H1159 C1148 0.931 . S
Eu1160 C1169 2.828 . S
Eu1160 O1171 2.392 . S
Eu1160 O1173 2.418 . S
Eu1160 O1178 2.373 . S
Eu1160 O1181 2.488 . S
Eu1160 O1182 2.471 . S
Eu1160 O1183 2.349 . S
Eu1161 O1170 2.373 . S
Eu1161 O1174 2.488 . S
Eu1161 O1175 2.471 . S
Eu1161 O1176 2.349 . S
Eu1161 O1179 2.392 . S
Eu1161 O1180 2.418 . S
Eu1161 C1190 2.828 . S
C1162 O1180 1.244 . S
C1162 O1183 1.265 1_556 S
C1163 C1164 1.379 . S
C1163 C1167 1.373 . S
C1163 C1169 1.505 . S
C1164 C1163 1.379 . S
C1164 C1166 1.369 . S
C1164 H1192 0.930 . S
C1165 C1167 1.383 . S
C1165 C1168 1.382 . S
C1165 H1193 0.930 . S
C1166 C1164 1.369 . S
C1166 C1168 1.392 . S
C1166 H1194 0.930 . S
C1167 C1163 1.373 . S
C1167 C1165 1.383 . S
C1167 H1195 0.931 . S
C1168 C1165 1.382 . S
C1168 C1166 1.392 . S
C1169 Eu1160 2.828 . S
C1169 C1163 1.505 . S
C1169 O1181 1.249 . S
C1169 O1182 1.244 . S
O1170 Eu1161 2.373 . S
O1170 C1172 1.258 . S
O1171 Eu1160 2.392 . S
O1171 C1172 1.242 1_554 S
C1172 O1170 1.258 . S
C1172 O1171 1.242 1_556 S
O1173 Eu1160 2.418 . S
O1173 C1177 1.244 . S
O1174 Eu1161 2.488 . S
O1174 C1190 1.249 . S
O1175 Eu1161 2.471 . S
O1175 C1190 1.244 . S
O1176 Eu1161 2.349 . S
O1176 C1177 1.265 1_556 S
C1177 O1173 1.244 . S
C1177 O1176 1.265 1_554 S
O1178 Eu1160 2.373 . S
O1178 C1191 1.258 . S
O1179 Eu1161 2.392 . S
O1179 C1191 1.242 1_556 S
O1180 Eu1161 2.418 . S
O1180 C1162 1.244 . S
O1181 Eu1160 2.488 . S
O1181 C1169 1.249 . S
O1182 Eu1160 2.471 . S
O1182 C1169 1.244 . S
O1183 Eu1160 2.349 . S
O1183 C1162 1.265 1_554 S
C1184 C1185 1.379 . S
C1184 C1188 1.373 . S
C1184 C1190 1.505 . S
C1185 C1184 1.379 . S
C1185 C1187 1.369 . S
C1185 H1196 0.930 . S
C1186 C1188 1.383 . S
C1186 C1189 1.382 . S
C1186 H1197 0.930 . S
C1187 C1185 1.369 . S
C1187 C1189 1.392 . S
C1187 H1198 0.930 . S
C1188 C1184 1.373 . S
C1188 C1186 1.383 . S
C1188 H1199 0.931 . S
C1189 C1186 1.382 . S
C1189 C1187 1.392 . S
C1190 Eu1161 2.828 . S
C1190 O1174 1.249 . S
C1190 O1175 1.244 . S
C1190 C1184 1.505 . S
C1191 O1178 1.258 . S
C1191 O1179 1.242 1_554 S
H1192 C1164 0.930 . S
H1193 C1165 0.930 . S
H1194 C1166 0.930 . S
H1195 C1167 0.931 . S
H1196 C1185 0.930 . S
H1197 C1186 0.930 . S
H1198 C1187 0.930 . S
H1199 C1188 0.931 . S
Eu1200 C1209 2.828 . S
Eu1200 O1211 2.392 . S
Eu1200 O1213 2.418 . S
Eu1200 O1218 2.373 . S
Eu1200 O1221 2.488 . S
Eu1200 O1222 2.471 . S
Eu1200 O1223 2.349 . S
Eu1201 O1210 2.373 . S
Eu1201 O1214 2.488 . S
Eu1201 O1215 2.471 . S
Eu1201 O1216 2.349 . S
Eu1201 O1219 2.392 . S
Eu1201 O1220 2.418 . S
Eu1201 C1230 2.828 . S
C1202 O1220 1.244 . S
C1202 O1223 1.265 . S
C1203 C1204 1.379 . S
C1203 C1207 1.373 . S
C1203 C1209 1.505 . S
C1204 C1203 1.379 . S
C1204 C1206 1.369 . S
C1204 H1232 0.930 . S
C1205 C1207 1.383 . S
C1205 C1208 1.382 . S
C1205 H1233 0.930 . S
C1206 C1204 1.369 . S
C1206 C1208 1.392 . S
C1206 H1234 0.930 . S
C1207 C1203 1.373 . S
C1207 C1205 1.383 . S
C1207 H1235 0.931 . S
C1208 C1205 1.382 . S
C1208 C1206 1.392 . S
C1209 Eu1200 2.828 . S
C1209 C1203 1.505 . S
C1209 O1221 1.249 . S
C1209 O1222 1.244 . S
O1210 Eu1201 2.373 . S
O1210 C1212 1.258 . S
O1211 Eu1200 2.392 . S
O1211 C1212 1.242 . S
C1212 O1210 1.258 . S
C1212 O1211 1.242 . S
O1213 Eu1200 2.418 . S
O1213 C1217 1.244 . S
O1214 Eu1201 2.488 . S
O1214 C1230 1.249 . S
O1215 Eu1201 2.471 . S
O1215 C1230 1.244 . S
O1216 Eu1201 2.349 . S
O1216 C1217 1.265 . S
C1217 O1213 1.244 . S
C1217 O1216 1.265 . S
O1218 Eu1200 2.373 . S
O1218 C1231 1.258 . S
O1219 Eu1201 2.392 . S
O1219 C1231 1.242 . S
O1220 Eu1201 2.418 . S
O1220 C1202 1.244 . S
O1221 Eu1200 2.488 . S
O1221 C1209 1.249 . S
O1222 Eu1200 2.471 . S
O1222 C1209 1.244 . S
O1223 Eu1200 2.349 . S
O1223 C1202 1.265 . S
C1224 C1225 1.379 . S
C1224 C1228 1.373 . S
C1224 C1230 1.505 . S
C1225 C1224 1.379 . S
C1225 C1227 1.369 . S
C1225 H1236 0.930 . S
C1226 C1228 1.383 . S
C1226 C1229 1.382 . S
C1226 H1237 0.930 . S
C1227 C1225 1.369 . S
C1227 C1229 1.392 . S
C1227 H1238 0.930 . S
C1228 C1224 1.373 . S
C1228 C1226 1.383 . S
C1228 H1239 0.931 . S
C1229 C1226 1.382 . S
C1229 C1227 1.392 . S
C1230 Eu1201 2.828 . S
C1230 O1214 1.249 . S
C1230 O1215 1.244 . S
C1230 C1224 1.505 . S
C1231 O1218 1.258 . S
C1231 O1219 1.242 . S
H1232 C1204 0.930 . S
H1233 C1205 0.930 . S
H1234 C1206 0.930 . S
H1235 C1207 0.931 . S
H1236 C1225 0.930 . S
H1237 C1226 0.930 . S
H1238 C1227 0.930 . S
H1239 C1228 0.931 . S
Eu1240 C1249 2.828 . S
Eu1240 O1251 2.392 . S
Eu1240 O1253 2.418 . S
Eu1240 O1258 2.373 . S
Eu1240 O1261 2.488 . S
Eu1240 O1262 2.471 . S
Eu1240 O1263 2.349 . S
Eu1241 O1250 2.373 . S
Eu1241 O1254 2.488 . S
Eu1241 O1255 2.471 . S
Eu1241 O1256 2.349 . S
Eu1241 O1259 2.392 . S
Eu1241 O1260 2.418 . S
Eu1241 C1270 2.828 . S
C1242 O1260 1.244 . S
C1242 O1263 1.265 . S
C1243 C1244 1.379 . S
C1243 C1247 1.373 . S
C1243 C1249 1.505 . S
C1244 C1243 1.379 . S
C1244 C1246 1.369 . S
C1244 H1272 0.930 . S
C1245 C1247 1.383 . S
C1245 C1248 1.382 . S
C1245 H1273 0.930 . S
C1246 C1244 1.369 . S
C1246 C1248 1.392 . S
C1246 H1274 0.930 . S
C1247 C1243 1.373 . S
C1247 C1245 1.383 . S
C1247 H1275 0.931 . S
C1248 C1245 1.382 . S
C1248 C1246 1.392 . S
C1249 Eu1240 2.828 . S
C1249 C1243 1.505 . S
C1249 O1261 1.249 . S
C1249 O1262 1.244 . S
O1250 Eu1241 2.373 . S
O1250 C1252 1.258 . S
O1251 Eu1240 2.392 . S
O1251 C1252 1.242 . S
C1252 O1250 1.258 . S
C1252 O1251 1.242 . S
O1253 Eu1240 2.418 . S
O1253 C1257 1.244 . S
O1254 Eu1241 2.488 . S
O1254 C1270 1.249 . S
O1255 Eu1241 2.471 . S
O1255 C1270 1.244 . S
O1256 Eu1241 2.349 . S
O1256 C1257 1.265 . S
C1257 O1253 1.244 . S
C1257 O1256 1.265 . S
O1258 Eu1240 2.373 . S
O1258 C1271 1.258 . S
O1259 Eu1241 2.392 . S
O1259 C1271 1.242 . S
O1260 Eu1241 2.418 . S
O1260 C1242 1.244 . S
O1261 Eu1240 2.488 . S
O1261 C1249 1.249 . S
O1262 Eu1240 2.471 . S
O1262 C1249 1.244 . S
O1263 Eu1240 2.349 . S
O1263 C1242 1.265 . S
C1264 C1265 1.379 . S
C1264 C1268 1.373 . S
C1264 C1270 1.505 . S
C1265 C1264 1.379 . S
C1265 C1267 1.369 . S
C1265 H1276 0.930 . S
C1266 C1268 1.383 . S
C1266 C1269 1.382 . S
C1266 H1277 0.930 . S
C1267 C1265 1.369 . S
C1267 C1269 1.392 . S
C1267 H1278 0.930 . S
C1268 C1264 1.373 . S
C1268 C1266 1.383 . S
C1268 H1279 0.931 . S
C1269 C1266 1.382 . S
C1269 C1267 1.392 . S
C1270 Eu1241 2.828 . S
C1270 O1254 1.249 . S
C1270 O1255 1.244 . S
C1270 C1264 1.505 . S
C1271 O1258 1.258 . S
C1271 O1259 1.242 . S
H1272 C1244 0.930 . S
H1273 C1245 0.930 . S
H1274 C1246 0.930 . S
H1275 C1247 0.931 . S
H1276 C1265 0.930 . S
H1277 C1266 0.930 . S
H1278 C1267 0.930 . S
H1279 C1268 0.931 . S
Eu1280 C1289 2.828 . S
Eu1280 O1291 2.392 . S
Eu1280 O1293 2.418 . S
Eu1280 O1298 2.373 . S
Eu1280 O1301 2.488 . S
Eu1280 O1302 2.471 . S
Eu1280 O1303 2.349 . S
Eu1281 O1290 2.373 . S
Eu1281 O1294 2.488 . S
Eu1281 O1295 2.471 . S
Eu1281 O1296 2.349 . S
Eu1281 O1299 2.392 . S
Eu1281 O1300 2.418 . S
Eu1281 C1310 2.828 . S
C1282 O1300 1.244 . S
C1282 O1303 1.265 . S
C1283 C1284 1.379 . S
C1283 C1287 1.373 . S
C1283 C1289 1.505 . S
C1284 C1283 1.379 . S
C1284 C1286 1.369 . S
C1284 H1312 0.930 . S
C1285 C1287 1.383 . S
C1285 C1288 1.382 . S
C1285 H1313 0.930 . S
C1286 C1284 1.369 . S
C1286 C1288 1.392 . S
C1286 H1314 0.930 . S
C1287 C1283 1.373 . S
C1287 C1285 1.383 . S
C1287 H1315 0.931 . S
C1288 C1285 1.382 . S
C1288 C1286 1.392 . S
C1289 Eu1280 2.828 . S
C1289 C1283 1.505 . S
C1289 O1301 1.249 . S
C1289 O1302 1.244 . S
O1290 Eu1281 2.373 . S
O1290 C1292 1.258 . S
O1291 Eu1280 2.392 . S
O1291 C1292 1.242 . S
C1292 O1290 1.258 . S
C1292 O1291 1.242 . S
O1293 Eu1280 2.418 . S
O1293 C1297 1.244 . S
O1294 Eu1281 2.488 . S
O1294 C1310 1.249 . S
O1295 Eu1281 2.471 . S
O1295 C1310 1.244 . S
O1296 Eu1281 2.349 . S
O1296 C1297 1.265 . S
C1297 O1293 1.244 . S
C1297 O1296 1.265 . S
O1298 Eu1280 2.373 . S
O1298 C1311 1.258 . S
O1299 Eu1281 2.392 . S
O1299 C1311 1.242 . S
O1300 Eu1281 2.418 . S
O1300 C1282 1.244 . S
O1301 Eu1280 2.488 . S
O1301 C1289 1.249 . S
O1302 Eu1280 2.471 . S
O1302 C1289 1.244 . S
O1303 Eu1280 2.349 . S
O1303 C1282 1.265 . S
C1304 C1305 1.379 . S
C1304 C1308 1.373 . S
C1304 C1310 1.505 . S
C1305 C1304 1.379 . S
C1305 C1307 1.369 . S
C1305 H1316 0.930 . S
C1306 C1308 1.383 . S
C1306 C1309 1.382 . S
C1306 H1317 0.930 . S
C1307 C1305 1.369 . S
C1307 C1309 1.392 . S
C1307 H1318 0.930 . S
C1308 C1304 1.373 . S
C1308 C1306 1.383 . S
C1308 H1319 0.931 . S
C1309 C1306 1.382 . S
C1309 C1307 1.392 . S
C1310 Eu1281 2.828 . S
C1310 O1294 1.249 . S
C1310 O1295 1.244 . S
C1310 C1304 1.505 . S
C1311 O1298 1.258 . S
C1311 O1299 1.242 . S
H1312 C1284 0.930 . S
H1313 C1285 0.930 . S
H1314 C1286 0.930 . S
H1315 C1287 0.931 . S
H1316 C1305 0.930 . S
H1317 C1306 0.930 . S
H1318 C1307 0.930 . S
H1319 C1308 0.931 . S
Eu1320 C1329 2.828 . S
Eu1320 O1331 2.392 . S
Eu1320 O1333 2.418 . S
Eu1320 O1338 2.373 . S
Eu1320 O1341 2.488 . S
Eu1320 O1342 2.471 . S
Eu1320 O1343 2.349 . S
Eu1321 O1330 2.373 . S
Eu1321 O1334 2.488 . S
Eu1321 O1335 2.471 . S
Eu1321 O1336 2.349 . S
Eu1321 O1339 2.392 . S
Eu1321 O1340 2.418 . S
Eu1321 C1350 2.828 . S
C1322 O1340 1.244 . S
C1322 O1343 1.265 . S
C1323 C1324 1.379 . S
C1323 C1327 1.373 . S
C1323 C1329 1.505 . S
C1324 C1323 1.379 . S
C1324 C1326 1.369 . S
C1324 H1352 0.930 . S
C1325 C1327 1.383 . S
C1325 C1328 1.382 . S
C1325 H1353 0.930 . S
C1326 C1324 1.369 . S
C1326 C1328 1.392 . S
C1326 H1354 0.930 . S
C1327 C1323 1.373 . S
C1327 C1325 1.383 . S
C1327 H1355 0.931 . S
C1328 C1325 1.382 . S
C1328 C1326 1.392 . S
C1329 Eu1320 2.828 . S
C1329 C1323 1.505 . S
C1329 O1341 1.249 . S
C1329 O1342 1.244 . S
O1330 Eu1321 2.373 . S
O1330 C1332 1.258 . S
O1331 Eu1320 2.392 . S
O1331 C1332 1.242 . S
C1332 O1330 1.258 . S
C1332 O1331 1.242 . S
O1333 Eu1320 2.418 . S
O1333 C1337 1.244 . S
O1334 Eu1321 2.488 . S
O1334 C1350 1.249 . S
O1335 Eu1321 2.471 . S
O1335 C1350 1.244 . S
O1336 Eu1321 2.349 . S
O1336 C1337 1.265 . S
C1337 O1333 1.244 . S
C1337 O1336 1.265 . S
O1338 Eu1320 2.373 . S
O1338 C1351 1.258 . S
O1339 Eu1321 2.392 . S
O1339 C1351 1.242 . S
O1340 Eu1321 2.418 . S
O1340 C1322 1.244 . S
O1341 Eu1320 2.488 . S
O1341 C1329 1.249 . S
O1342 Eu1320 2.471 . S
O1342 C1329 1.244 . S
O1343 Eu1320 2.349 . S
O1343 C1322 1.265 . S
C1344 C1345 1.379 1_455 S
C1344 C1348 1.373 . S
C1344 C1350 1.505 . S
C1345 C1344 1.379 1_655 S
C1345 C1347 1.369 . S
C1345 H1356 0.930 . S
C1346 C1348 1.383 . S
C1346 C1349 1.382 1_455 S
C1346 H1357 0.930 . S
C1347 C1345 1.369 . S
C1347 C1349 1.392 . S
C1347 H1358 0.930 . S
C1348 C1344 1.373 . S
C1348 C1346 1.383 . S
C1348 H1359 0.931 . S
C1349 C1346 1.382 1_655 S
C1349 C1347 1.392 . S
C1350 Eu1321 2.828 . S
C1350 O1334 1.249 . S
C1350 O1335 1.244 . S
C1350 C1344 1.505 . S
C1351 O1338 1.258 . S
C1351 O1339 1.242 . S
H1352 C1324 0.930 . S
H1353 C1325 0.930 . S
H1354 C1326 0.930 . S
H1355 C1327 0.931 . S
H1356 C1345 0.930 . S
H1357 C1346 0.930 . S
H1358 C1347 0.930 . S
H1359 C1348 0.931 . S
Eu1360 C1369 2.828 . S
Eu1360 O1371 2.392 . S
Eu1360 O1373 2.418 . S
Eu1360 O1378 2.373 . S
Eu1360 O1381 2.488 . S
Eu1360 O1382 2.471 . S
Eu1360 O1383 2.349 . S
Eu1361 O1370 2.373 . S
Eu1361 O1374 2.488 . S
Eu1361 O1375 2.471 . S
Eu1361 O1376 2.349 . S
Eu1361 O1379 2.392 . S
Eu1361 O1380 2.418 . S
Eu1361 C1390 2.828 . S
C1362 O1380 1.244 . S
C1362 O1383 1.265 . S
C1363 C1364 1.379 . S
C1363 C1367 1.373 . S
C1363 C1369 1.505 . S
C1364 C1363 1.379 . S
C1364 C1366 1.369 . S
C1364 H1392 0.930 . S
C1365 C1367 1.383 . S
C1365 C1368 1.382 . S
C1365 H1393 0.930 . S
C1366 C1364 1.369 . S
C1366 C1368 1.392 . S
C1366 H1394 0.930 . S
C1367 C1363 1.373 . S
C1367 C1365 1.383 . S
C1367 H1395 0.931 . S
C1368 C1365 1.382 . S
C1368 C1366 1.392 . S
C1369 Eu1360 2.828 . S
C1369 C1363 1.505 . S
C1369 O1381 1.249 . S
C1369 O1382 1.244 . S
O1370 Eu1361 2.373 . S
O1370 C1372 1.258 . S
O1371 Eu1360 2.392 . S
O1371 C1372 1.242 . S
C1372 O1370 1.258 . S
C1372 O1371 1.242 . S
O1373 Eu1360 2.418 . S
O1373 C1377 1.244 . S
O1374 Eu1361 2.488 . S
O1374 C1390 1.249 . S
O1375 Eu1361 2.471 . S
O1375 C1390 1.244 . S
O1376 Eu1361 2.349 . S
O1376 C1377 1.265 . S
C1377 O1373 1.244 . S
C1377 O1376 1.265 . S
O1378 Eu1360 2.373 . S
O1378 C1391 1.258 . S
O1379 Eu1361 2.392 . S
O1379 C1391 1.242 . S
O1380 Eu1361 2.418 . S
O1380 C1362 1.244 . S
O1381 Eu1360 2.488 . S
O1381 C1369 1.249 . S
O1382 Eu1360 2.471 . S
O1382 C1369 1.244 . S
O1383 Eu1360 2.349 . S
O1383 C1362 1.265 . S
C1384 C1385 1.379 . S
C1384 C1388 1.373 . S
C1384 C1390 1.505 . S
C1385 C1384 1.379 . S
C1385 C1387 1.369 . S
C1385 H1396 0.930 . S
C1386 C1388 1.383 . S
C1386 C1389 1.382 . S
C1386 H1397 0.930 . S
C1387 C1385 1.369 . S
C1387 C1389 1.392 . S
C1387 H1398 0.930 . S
C1388 C1384 1.373 . S
C1388 C1386 1.383 . S
C1388 H1399 0.931 . S
C1389 C1386 1.382 . S
C1389 C1387 1.392 . S
C1390 Eu1361 2.828 . S
C1390 O1374 1.249 . S
C1390 O1375 1.244 . S
C1390 C1384 1.505 . S
C1391 O1378 1.258 . S
C1391 O1379 1.242 . S
H1392 C1364 0.930 . S
H1393 C1365 0.930 . S
H1394 C1366 0.930 . S
H1395 C1367 0.931 . S
H1396 C1385 0.930 . S
H1397 C1386 0.930 . S
H1398 C1387 0.930 . S
H1399 C1388 0.931 . S
Eu1400 C1409 2.828 . S
Eu1400 O1411 2.392 . S
Eu1400 O1413 2.418 . S
Eu1400 O1418 2.373 . S
Eu1400 O1421 2.488 . S
Eu1400 O1422 2.471 . S
Eu1400 O1423 2.349 . S
Eu1401 O1410 2.373 . S
Eu1401 O1414 2.488 . S
Eu1401 O1415 2.471 . S
Eu1401 O1416 2.349 . S
Eu1401 O1419 2.392 . S
Eu1401 O1420 2.418 . S
Eu1401 C1430 2.828 . S
C1402 O1420 1.244 . S
C1402 O1423 1.265 . S
C1403 C1404 1.379 . S
C1403 C1407 1.373 . S
C1403 C1409 1.505 . S
C1404 C1403 1.379 . S
C1404 C1406 1.369 . S
C1404 H1432 0.930 . S
C1405 C1407 1.383 . S
C1405 C1408 1.382 . S
C1405 H1433 0.930 . S
C1406 C1404 1.369 . S
C1406 C1408 1.392 . S
C1406 H1434 0.930 . S
C1407 C1403 1.373 . S
C1407 C1405 1.383 . S
C1407 H1435 0.931 . S
C1408 C1405 1.382 . S
C1408 C1406 1.392 . S
C1409 Eu1400 2.828 . S
C1409 C1403 1.505 . S
C1409 O1421 1.249 . S
C1409 O1422 1.244 . S
O1410 Eu1401 2.373 . S
O1410 C1412 1.258 . S
O1411 Eu1400 2.392 . S
O1411 C1412 1.242 . S
C1412 O1410 1.258 . S
C1412 O1411 1.242 . S
O1413 Eu1400 2.418 . S
O1413 C1417 1.244 . S
O1414 Eu1401 2.488 . S
O1414 C1430 1.249 . S
O1415 Eu1401 2.471 . S
O1415 C1430 1.244 . S
O1416 Eu1401 2.349 . S
O1416 C1417 1.265 . S
C1417 O1413 1.244 . S
C1417 O1416 1.265 . S
O1418 Eu1400 2.373 . S
O1418 C1431 1.258 . S
O1419 Eu1401 2.392 . S
O1419 C1431 1.242 . S
O1420 Eu1401 2.418 . S
O1420 C1402 1.244 . S
O1421 Eu1400 2.488 . S
O1421 C1409 1.249 . S
O1422 Eu1400 2.471 . S
O1422 C1409 1.244 . S
O1423 Eu1400 2.349 . S
O1423 C1402 1.265 . S
C1424 C1425 1.379 1_565 S
C1424 C1428 1.373 . S
C1424 C1430 1.505 . S
C1425 C1424 1.379 1_545 S
C1425 C1427 1.369 . S
C1425 H1436 0.930 . S
C1426 C1428 1.383 . S
C1426 C1429 1.382 1_565 S
C1426 H1437 0.930 . S
C1427 C1425 1.369 . S
C1427 C1429 1.392 . S
C1427 H1438 0.930 . S
C1428 C1424 1.373 . S
C1428 C1426 1.383 . S
C1428 H1439 0.931 . S
C1429 C1426 1.382 1_545 S
C1429 C1427 1.392 . S
C1430 Eu1401 2.828 . S
C1430 O1414 1.249 . S
C1430 O1415 1.244 . S
C1430 C1424 1.505 . S
C1431 O1418 1.258 . S
C1431 O1419 1.242 . S
H1432 C1404 0.930 . S
H1433 C1405 0.930 . S
H1434 C1406 0.930 . S
H1435 C1407 0.931 . S
H1436 C1425 0.930 . S
H1437 C1426 0.930 . S
H1438 C1427 0.930 . S
H1439 C1428 0.931 . S
C1440 C1441 1.363 . S
C1440 C1446 1.379 . S
C1440 N1448 1.356 . S
C1441 C1440 1.363 . S
C1441 C1447 1.363 . S
C1442 C1443 1.363 . S
C1442 C1447 1.379 . S
C1442 N1449 1.356 . S
C1443 C1442 1.363 . S
C1443 C1446 1.363 . S
N1444 C1446 1.356 1_565 S
N1444 H1456 0.984 . S
N1444 H1457 0.985 . S
N1445 C1447 1.356 . S
N1445 H1450 0.984 . S
N1445 H1451 0.985 . S
C1446 C1440 1.379 . S
C1446 C1443 1.363 . S
C1446 N1444 1.356 1_545 S
C1447 C1441 1.363 . S
C1447 C1442 1.379 . S
C1447 N1445 1.356 . S
N1448 C1440 1.356 . S
N1448 H1454 0.984 . S
N1448 H1455 0.984 . S
N1449 C1442 1.356 . S
N1449 H1452 0.984 1_545 S
N1449 H1453 0.985 . S
H1450 N1445 0.984 . S
H1451 N1445 0.985 . S
H1452 N1449 0.984 1_565 S
H1453 N1449 0.985 . S
H1454 N1448 0.984 . S
H1455 N1448 0.984 . S
H1456 N1444 0.984 . S
H1457 N1444 0.985 . S
C1458 C1459 1.363 . S
C1458 C1464 1.379 . S
C1458 N1466 1.356 . S
C1459 C1458 1.363 . S
C1459 C1465 1.363 . S
C1460 C1461 1.363 . S
C1460 C1465 1.379 . S
C1460 N1467 1.356 . S
C1461 C1460 1.363 . S
C1461 C1464 1.363 . S
N1462 C1464 1.356 . S
N1462 H1474 0.984 . S
N1462 H1475 0.985 . S
N1463 C1465 1.340 1_455 S
N1463 H1468 0.996 . S
N1463 H1469 0.990 1_455 S
C1464 C1458 1.379 . S
C1464 C1461 1.363 . S
C1464 N1462 1.356 . S
C1465 C1459 1.363 . S
C1465 C1460 1.379 . S
C1465 N1463 1.340 1_655 S
N1466 C1458 1.356 . S
N1466 H1472 0.984 . S
N1466 H1473 0.984 1_655 S
N1467 C1460 1.356 . S
N1467 H1470 0.984 1_545 S
N1467 H1471 0.985 1_545 S
H1468 N1463 0.996 . S
H1469 N1463 0.990 1_655 S
H1470 N1467 0.984 1_565 S
H1471 N1467 0.985 1_565 S
H1472 N1466 0.984 . S
H1473 N1466 0.984 1_455 S
H1474 N1462 0.984 . S
H1475 N1462 0.985 . S
C1476 C1477 1.363 . S
C1476 C1482 1.379 . S
C1476 N1484 1.356 . S
C1477 C1476 1.363 . S
C1477 C1483 1.363 . S
C1478 C1479 1.363 . S
C1478 C1483 1.379 . S
C1478 N1485 1.356 . S
C1479 C1478 1.363 . S
C1479 C1482 1.363 . S
N1480 C1482 1.356 . S
N1480 H1492 0.984 . S
N1480 H1493 0.985 . S
N1481 C1483 1.356 1_455 S
N1481 H1486 0.984 . S
N1481 H1487 0.985 . S
C1482 C1476 1.379 . S
C1482 C1479 1.363 . S
C1482 N1480 1.356 . S
C1483 C1477 1.363 . S
C1483 C1478 1.379 . S
C1483 N1481 1.356 1_655 S
N1484 C1476 1.356 . S
N1484 H1490 0.984 . S
N1484 H1491 0.984 . S
N1485 C1478 1.356 . S
N1485 H1488 0.984 . S
N1485 H1489 0.985 . S
H1486 N1481 0.984 . S
H1487 N1481 0.985 . S
H1488 N1485 0.984 . S
H1489 N1485 0.985 . S
H1490 N1484 0.984 . S
H1491 N1484 0.984 . S
H1492 N1480 0.984 . S
H1493 N1480 0.985 . S
C1494 C1495 1.363 . S
C1494 C1500 1.379 . S
C1494 N1502 1.356 . S
C1495 C1494 1.363 . S
C1495 C1501 1.363 . S
C1496 C1497 1.363 . S
C1496 C1501 1.379 . S
C1496 N1503 1.356 . S
C1497 C1496 1.363 . S
C1497 C1500 1.363 . S
N1498 C1500 1.356 1_655 S
N1498 H1510 0.984 . S
N1498 H1511 0.985 . S
N1499 C1501 1.356 . S
N1499 H1504 0.984 . S
N1499 H1505 0.985 . S
C1500 C1494 1.379 . S
C1500 C1497 1.363 . S
C1500 N1498 1.356 1_455 S
C1501 C1495 1.363 . S
C1501 C1496 1.379 . S
C1501 N1499 1.356 . S
N1502 C1494 1.356 . S
N1502 H1508 0.984 . S
N1502 H1509 0.984 . S
N1503 C1496 1.356 . S
N1503 H1506 0.984 1_455 S
N1503 H1507 0.985 . S
H1504 N1499 0.984 . S
H1505 N1499 0.985 . S
H1506 N1503 0.984 1_655 S
H1507 N1503 0.985 . S
H1508 N1502 0.984 . S
H1509 N1502 0.984 . S
H1510 N1498 0.984 . S
H1511 N1498 0.985 . S
C1512 C1513 1.363 . S
C1512 C1518 1.379 . S
C1512 N1520 1.356 . S
C1513 C1512 1.363 . S
C1513 C1519 1.363 . S
C1514 C1515 1.363 . S
C1514 C1519 1.379 . S
C1514 N1521 1.356 . S
C1515 C1514 1.363 . S
C1515 C1518 1.363 . S
N1516 C1518 1.356 1_545 S
N1516 H1528 0.984 . S
N1516 H1529 0.985 . S
N1517 C1519 1.356 . S
N1517 H1522 0.984 . S
N1517 H1523 0.985 . S
C1518 C1512 1.379 . S
C1518 C1515 1.363 . S
C1518 N1516 1.356 1_565 S
C1519 C1513 1.363 . S
C1519 C1514 1.379 . S
C1519 N1517 1.356 . S
N1520 C1512 1.356 . S
N1520 H1526 0.984 . S
N1520 H1527 0.984 . S
N1521 C1514 1.356 . S
N1521 H1524 0.984 . S
N1521 H1525 0.985 . S
H1522 N1517 0.984 . S
H1523 N1517 0.985 . S
H1524 N1521 0.984 . S
H1525 N1521 0.985 . S
H1526 N1520 0.984 . S
H1527 N1520 0.984 . S
H1528 N1516 0.984 . S
H1529 N1516 0.985 . S
C1530 C1531 1.363 . S
C1530 C1536 1.379 . S
C1530 N1538 1.356 . S
C1531 C1530 1.363 . S
C1531 C1537 1.363 . S
C1532 C1533 1.363 . S
C1532 C1537 1.379 . S
C1532 N1539 1.356 . S
C1533 C1532 1.363 . S
C1533 C1536 1.363 . S
N1534 C1536 1.356 1_545 S
N1534 H1546 0.984 . S
N1534 H1547 0.985 . S
N1535 C1537 1.356 . S
N1535 H1540 0.984 . S
N1535 H1541 0.985 . S
C1536 C1530 1.379 . S
C1536 C1533 1.363 . S
C1536 N1534 1.356 1_565 S
C1537 C1531 1.363 . S
C1537 C1532 1.379 . S
C1537 N1535 1.356 . S
N1538 C1530 1.356 . S
N1538 H1544 0.984 . S
N1538 H1545 0.984 1_455 S
N1539 C1532 1.356 . S
N1539 H1542 0.984 1_565 S
N1539 H1543 0.985 . S
H1540 N1535 0.984 . S
H1541 N1535 0.985 . S
H1542 N1539 0.984 1_545 S
H1543 N1539 0.985 . S
H1544 N1538 0.984 . S
H1545 N1538 0.984 1_655 S
H1546 N1534 0.984 . S
H1547 N1534 0.985 . S
C1548 C1549 1.363 . S
C1548 C1554 1.379 . S
C1548 N1556 1.356 . S
C1549 C1548 1.363 . S
C1549 C1555 1.363 . S
C1550 C1551 1.363 . S
C1550 C1555 1.379 . S
C1550 N1557 1.356 . S
C1551 C1550 1.363 . S
C1551 C1554 1.363 . S
N1552 C1554 1.356 . S
N1552 H1564 0.984 . S
N1552 H1565 0.985 1_565 S
N1553 C1555 1.356 . S
N1553 H1558 0.984 . S
N1553 H1559 0.985 . S
C1554 C1548 1.379 . S
C1554 C1551 1.363 . S
C1554 N1552 1.356 . S
C1555 C1549 1.363 . S
C1555 C1550 1.379 . S
C1555 N1553 1.356 . S
N1556 C1548 1.356 . S
N1556 H1562 0.984 . S
N1556 H1563 0.984 . S
N1557 C1550 1.356 . S
N1557 H1560 0.984 1_565 S
N1557 H1561 0.985 . S
H1558 N1553 0.984 . S
H1559 N1553 0.985 . S
H1560 N1557 0.984 1_545 S
H1561 N1557 0.985 . S
H1562 N1556 0.984 . S
H1563 N1556 0.984 . S
H1564 N1552 0.984 . S
H1565 N1552 0.985 1_545 S
C1566 C1567 1.363 . S
C1566 C1572 1.379 . S
C1566 N1574 1.356 . S
C1567 C1566 1.363 . S
C1567 C1573 1.363 . S
C1568 C1569 1.363 . S
C1568 C1573 1.379 . S
C1568 N1575 1.356 . S
C1569 C1568 1.363 . S
C1569 C1572 1.363 . S
N1570 C1572 1.356 . S
N1570 H1582 0.984 . S
N1570 H1583 0.985 1_455 S
N1571 C1573 1.356 . S
N1571 H1576 0.984 . S
N1571 H1577 0.985 . S
C1572 C1566 1.379 . S
C1572 C1569 1.363 . S
C1572 N1570 1.356 . S
C1573 C1567 1.363 . S
C1573 C1568 1.379 . S
C1573 N1571 1.356 . S
N1574 C1566 1.356 . S
N1574 H1580 0.984 . S
N1574 H1581 0.984 1_565 S
N1575 C1568 1.356 . S
N1575 H1578 0.984 1_455 S
N1575 H1579 0.985 . S
H1576 N1571 0.984 . S
H1577 N1571 0.985 . S
H1578 N1575 0.984 1_655 S
H1579 N1575 0.985 . S
H1580 N1574 0.984 . S
H1581 N1574 0.984 1_545 S
H1582 N1570 0.984 . S
H1583 N1570 0.985 1_655 S
C1584 C1585 1.363 . S
C1584 C1590 1.379 . S
C1584 N1592 1.356 . S
C1585 C1584 1.363 . S
C1585 C1591 1.363 . S
C1586 C1587 1.363 . S
C1586 C1591 1.379 . S
C1586 N1593 1.356 . S
C1587 C1586 1.363 . S
C1587 C1590 1.363 . S
N1588 C1590 1.356 . S
N1588 H1600 0.984 . S
N1588 H1601 0.985 . S
N1589 C1591 1.356 . S
N1589 H1594 0.984 . S
N1589 H1595 0.985 . S
C1590 C1584 1.379 . S
C1590 C1587 1.363 . S
C1590 N1588 1.356 . S
C1591 C1585 1.363 . S
C1591 C1586 1.379 . S
C1591 N1589 1.356 . S
N1592 C1584 1.356 . S
N1592 H1598 0.984 . S
N1592 H1599 0.984 . S
N1593 C1586 1.356 . S
N1593 H1596 0.984 . S
N1593 H1597 0.985 . S
H1594 N1589 0.984 . S
H1595 N1589 0.985 . S
H1596 N1593 0.984 . S
H1597 N1593 0.985 . S
H1598 N1592 0.984 . S
H1599 N1592 0.984 . S
H1600 N1588 0.984 . S
H1601 N1588 0.985 . S
C1602 C1603 1.363 . S
C1602 C1608 1.379 . S
C1602 N1610 1.356 . S
C1603 C1602 1.363 . S
C1603 C1609 1.363 . S
C1604 C1605 1.363 . S
C1604 C1609 1.379 . S
C1604 N1611 1.356 . S
C1605 C1604 1.363 . S
C1605 C1608 1.363 . S
N1606 C1608 1.356 . S
N1606 H1618 0.984 . S
N1606 H1619 0.985 1_655 S
N1607 C1609 1.356 . S
N1607 H1612 0.984 . S
N1607 H1613 0.985 . S
C1608 C1602 1.379 . S
C1608 C1605 1.363 . S
C1608 N1606 1.356 . S
C1609 C1603 1.363 . S
C1609 C1604 1.379 . S
C1609 N1607 1.356 . S
N1610 C1602 1.356 . S
N1610 H1616 0.984 . S
N1610 H1617 0.984 . S
N1611 C1604 1.356 . S
N1611 H1614 0.984 1_655 S
N1611 H1615 0.985 . S
H1612 N1607 0.984 . S
H1613 N1607 0.985 . S
H1614 N1611 0.984 1_455 S
H1615 N1611 0.985 . S
H1616 N1610 0.984 . S
H1617 N1610 0.984 . S
H1618 N1606 0.984 . S
H1619 N1606 0.985 1_455 S
C1620 C1621 1.363 . S
C1620 C1626 1.379 . S
C1620 N1628 1.356 . S
C1621 C1620 1.363 . S
C1621 C1627 1.363 . S
C1622 C1623 1.363 . S
C1622 C1627 1.379 . S
C1622 N1629 1.356 . S
C1623 C1622 1.363 . S
C1623 C1626 1.363 . S
N1624 C1626 1.356 . S
N1624 H1636 0.984 . S
N1624 H1637 0.985 . S
N1625 C1627 1.356 . S
N1625 H1630 0.984 . S
N1625 H1631 0.985 . S
C1626 C1620 1.379 . S
C1626 C1623 1.363 . S
C1626 N1624 1.356 . S
C1627 C1621 1.363 . S
C1627 C1622 1.379 . S
C1627 N1625 1.356 . S
N1628 C1620 1.356 . S
N1628 H1634 0.984 . S
N1628 H1635 0.984 . S
N1629 C1622 1.356 . S
N1629 H1632 0.984 1_545 S
N1629 H1633 0.985 . S
H1630 N1625 0.984 . S
H1631 N1625 0.985 . S
H1632 N1629 0.984 1_565 S
H1633 N1629 0.985 . S
H1634 N1628 0.984 . S
H1635 N1628 0.984 . S
H1636 N1624 0.984 . S
H1637 N1624 0.985 . S
C1638 C1639 1.363 . S
C1638 C1644 1.379 . S
C1638 N1646 1.356 . S
C1639 C1638 1.363 . S
C1639 C1645 1.363 . S
C1640 C1641 1.363 . S
C1640 C1645 1.379 . S
C1640 N1647 1.356 . S
C1641 C1640 1.363 . S
C1641 C1644 1.363 . S
N1642 C1644 1.356 . S
N1642 H1654 0.984 . S
N1642 H1655 0.985 . S
N1643 C1645 1.356 1_565 S
N1643 H1648 0.984 . S
N1643 H1649 0.985 . S
C1644 C1638 1.379 . S
C1644 C1641 1.363 . S
C1644 N1642 1.356 . S
C1645 C1639 1.363 . S
C1645 C1640 1.379 . S
C1645 N1643 1.356 1_545 S
N1646 C1638 1.356 . S
N1646 H1652 0.984 . S
N1646 H1653 0.984 1_545 S
N1647 C1640 1.356 . S
N1647 H1650 0.984 1_655 S
N1647 H1651 0.985 . S
H1648 N1643 0.984 . S
H1649 N1643 0.985 . S
H1650 N1647 0.984 1_455 S
H1651 N1647 0.985 . S
H1652 N1646 0.984 . S
H1653 N1646 0.984 1_565 S
H1654 N1642 0.984 . S
H1655 N1642 0.985 . S
C1656 C1657 1.363 . S
C1656 C1662 1.379 . S
C1656 N1664 1.356 . S
C1657 C1656 1.363 . S
C1657 C1663 1.363 . S
C1658 C1659 1.363 . S
C1658 C1663 1.379 . S
C1658 N1665 1.356 . S
C1659 C1658 1.363 . S
C1659 C1662 1.363 . S
N1660 C1662 1.356 . S
N1660 H1672 0.984 . S
N1660 H1673 0.985 . S
N1661 C1663 1.356 . S
N1661 H1666 0.984 . S
N1661 H1667 0.985 . S
C1662 C1656 1.379 . S
C1662 C1659 1.363 . S
C1662 N1660 1.356 . S
C1663 C1657 1.363 . S
C1663 C1658 1.379 . S
C1663 N1661 1.356 . S
N1664 C1656 1.356 . S
N1664 H1670 0.984 . S
N1664 H1671 0.984 . S
N1665 C1658 1.356 . S
N1665 H1668 0.984 . S
N1665 H1669 0.985 . S
H1666 N1661 0.984 . S
H1667 N1661 0.985 . S
H1668 N1665 0.984 . S
H1669 N1665 0.985 . S
H1670 N1664 0.984 . S
H1671 N1664 0.984 . S
H1672 N1660 0.984 . S
H1673 N1660 0.985 . S
C1674 C1675 1.363 . S
C1674 C1680 1.379 . S
C1674 N1682 1.356 . S
C1675 C1674 1.363 . S
C1675 C1681 1.363 . S
C1676 C1677 1.363 . S
C1676 C1681 1.379 . S
C1676 N1683 1.356 . S
C1677 C1676 1.363 . S
C1677 C1680 1.363 . S
N1678 C1680 1.356 . S
N1678 H1690 0.984 . S
N1678 H1691 0.985 . S
N1679 C1681 1.356 . S
N1679 H1684 0.984 . S
N1679 H1685 0.985 . S
C1680 C1674 1.379 . S
C1680 C1677 1.363 . S
C1680 N1678 1.356 . S
C1681 C1675 1.363 . S
C1681 C1676 1.379 . S
C1681 N1679 1.356 . S
N1682 C1674 1.356 . S
N1682 H1688 0.984 . S
N1682 H1689 0.984 . S
N1683 C1676 1.356 . S
N1683 H1686 0.984 . S
N1683 H1687 0.985 . S
H1684 N1679 0.984 . S
H1685 N1679 0.985 . S
H1686 N1683 0.984 . S
H1687 N1683 0.985 . S
H1688 N1682 0.984 . S
H1689 N1682 0.984 . S
H1690 N1678 0.984 . S
H1691 N1678 0.985 . S
C1692 C1693 1.363 . S
C1692 C1698 1.379 . S
C1692 N1700 1.356 . S
C1693 C1692 1.363 . S
C1693 C1699 1.363 . S
C1694 C1695 1.363 . S
C1694 C1699 1.379 . S
C1694 N1701 1.356 . S
C1695 C1694 1.363 . S
C1695 C1698 1.363 . S
N1696 C1698 1.356 . S
N1696 H1708 0.984 . S
N1696 H1709 0.985 . S
N1697 C1699 1.356 . S
N1697 H1702 0.984 . S
N1697 H1703 0.985 . S
C1698 C1692 1.379 . S
C1698 C1695 1.363 . S
C1698 N1696 1.356 . S
C1699 C1693 1.363 . S
C1699 C1694 1.379 . S
C1699 N1697 1.356 . S
N1700 C1692 1.356 . S
N1700 H1706 0.984 . S
N1700 H1707 0.984 . S
N1701 C1694 1.356 . S
N1701 H1704 0.984 . S
N1701 H1705 0.985 . S
H1702 N1697 0.984 . S
H1703 N1697 0.985 . S
H1704 N1701 0.984 . S
H1705 N1701 0.985 . S
H1706 N1700 0.984 . S
H1707 N1700 0.984 . S
H1708 N1696 0.984 . S
H1709 N1696 0.985 . S
C1710 C1711 1.363 . S
C1710 C1716 1.379 . S
C1710 N1718 1.356 . S
C1711 C1710 1.363 . S
C1711 C1717 1.363 . S
C1712 C1713 1.363 . S
C1712 C1717 1.379 . S
C1712 N1719 1.356 . S
C1713 C1712 1.363 . S
C1713 C1716 1.363 . S
N1714 C1716 1.356 . S
N1714 H1726 0.984 . S
N1714 H1727 0.985 . S
N1715 C1717 1.356 . S
N1715 H1720 0.984 . S
N1715 H1721 0.985 . S
C1716 C1710 1.379 . S
C1716 C1713 1.363 . S
C1716 N1714 1.356 . S
C1717 C1711 1.363 . S
C1717 C1712 1.379 . S
C1717 N1715 1.356 . S
N1718 C1710 1.356 . S
N1718 H1724 0.984 . S
N1718 H1725 0.984 . S
N1719 C1712 1.356 . S
N1719 H1722 0.984 . S
N1719 H1723 0.985 . S
H1720 N1715 0.984 . S
H1721 N1715 0.985 . S
H1722 N1719 0.984 . S
H1723 N1719 0.985 . S
H1724 N1718 0.984 . S
H1725 N1718 0.984 . S
H1726 N1714 0.984 . S
H1727 N1714 0.985 . S
C1728 C1729 1.363 . S
C1728 C1734 1.379 . S
C1728 N1736 1.356 . S
C1729 C1728 1.363 . S
C1729 C1735 1.363 . S
C1730 C1731 1.363 . S
C1730 C1735 1.379 . S
C1730 N1737 1.356 . S
C1731 C1730 1.363 . S
C1731 C1734 1.363 . S
N1732 C1734 1.356 . S
N1732 H1744 0.984 . S
N1732 H1745 0.985 . S
N1733 C1735 1.356 . S
N1733 H1738 0.984 . S
N1733 H1739 0.985 . S
C1734 C1728 1.379 . S
C1734 C1731 1.363 . S
C1734 N1732 1.356 . S
C1735 C1729 1.363 . S
C1735 C1730 1.379 . S
C1735 N1733 1.356 . S
N1736 C1728 1.356 . S
N1736 H1742 0.984 . S
N1736 H1743 0.984 . S
N1737 C1730 1.356 . S
N1737 H1740 0.984 . S
N1737 H1741 0.985 . S
H1738 N1733 0.984 . S
H1739 N1733 0.985 . S
H1740 N1737 0.984 . S
H1741 N1737 0.985 . S
H1742 N1736 0.984 . S
H1743 N1736 0.984 . S
H1744 N1732 0.984 . S
H1745 N1732 0.985 . S
C1746 C1747 1.363 . S
C1746 C1752 1.379 . S
C1746 N1754 1.356 . S
C1747 C1746 1.363 . S
C1747 C1753 1.363 . S
C1748 C1749 1.363 . S
C1748 C1753 1.379 . S
C1748 N1755 1.356 . S
C1749 C1748 1.363 . S
C1749 C1752 1.363 . S
N1750 C1752 1.356 . S
N1750 H1762 0.984 . S
N1750 H1763 0.985 . S
N1751 C1753 1.356 . S
N1751 H1756 0.984 . S
N1751 H1757 0.985 . S
C1752 C1746 1.379 . S
C1752 C1749 1.363 . S
C1752 N1750 1.356 . S
C1753 C1747 1.363 . S
C1753 C1748 1.379 . S
C1753 N1751 1.356 . S
N1754 C1746 1.356 . S
N1754 H1760 0.984 . S
N1754 H1761 0.984 . S
N1755 C1748 1.356 . S
N1755 H1758 0.984 . S
N1755 H1759 0.985 . S
H1756 N1751 0.984 . S
H1757 N1751 0.985 . S
H1758 N1755 0.984 . S
H1759 N1755 0.985 . S
H1760 N1754 0.984 . S
H1761 N1754 0.984 . S
H1762 N1750 0.984 . S
H1763 N1750 0.985 . S
C1764 C1765 1.363 . S
C1764 C1770 1.379 . S
C1764 N1772 1.356 . S
C1765 C1764 1.363 . S
C1765 C1771 1.363 . S
C1766 C1767 1.363 . S
C1766 C1771 1.379 . S
C1766 N1773 1.356 . S
C1767 C1766 1.363 . S
C1767 C1770 1.363 . S
N1768 C1770 1.356 . S
N1768 H1780 0.984 . S
N1768 H1781 0.985 . S
N1769 C1771 1.356 . S
N1769 H1774 0.984 . S
N1769 H1775 0.985 . S
C1770 C1764 1.379 . S
C1770 C1767 1.363 . S
C1770 N1768 1.356 . S
C1771 C1765 1.363 . S
C1771 C1766 1.379 . S
C1771 N1769 1.356 . S
N1772 C1764 1.356 . S
N1772 H1778 0.984 . S
N1772 H1779 0.984 . S
N1773 C1766 1.356 . S
N1773 H1776 0.984 . S
N1773 H1777 0.985 . S
H1774 N1769 0.984 . S
H1775 N1769 0.985 . S
H1776 N1773 0.984 . S
H1777 N1773 0.985 . S
H1778 N1772 0.984 . S
H1779 N1772 0.984 . S
H1780 N1768 0.984 . S
H1781 N1768 0.985 . S
C1782 C1783 1.363 . S
C1782 C1788 1.379 . S
C1782 N1790 1.356 . S
C1783 C1782 1.363 . S
C1783 C1789 1.363 . S
C1784 C1785 1.363 . S
C1784 C1789 1.379 . S
C1784 N1791 1.356 . S
C1785 C1784 1.363 . S
C1785 C1788 1.363 . S
N1786 C1788 1.356 . S
N1786 H1798 0.984 . S
N1786 H1799 0.985 . S
N1787 C1789 1.356 . S
N1787 H1792 0.984 . S
N1787 H1793 0.985 . S
C1788 C1782 1.379 . S
C1788 C1785 1.363 . S
C1788 N1786 1.356 . S
C1789 C1783 1.363 . S
C1789 C1784 1.379 . S
C1789 N1787 1.356 . S
N1790 C1782 1.356 . S
N1790 H1796 0.984 . S
N1790 H1797 0.984 . S
N1791 C1784 1.356 . S
N1791 H1794 0.984 . S
N1791 H1795 0.985 . S
H1792 N1787 0.984 . S
H1793 N1787 0.985 . S
H1794 N1791 0.984 . S
H1795 N1791 0.985 . S
H1796 N1790 0.984 . S
H1797 N1790 0.984 . S
H1798 N1786 0.984 . S
H1799 N1786 0.985 . S
C1800 C1801 1.363 . S
C1800 C1806 1.379 . S
C1800 N1808 1.356 . S
C1801 C1800 1.363 . S
C1801 C1807 1.363 . S
C1802 C1803 1.363 . S
C1802 C1807 1.379 . S
C1802 N1809 1.356 . S
C1803 C1802 1.363 . S
C1803 C1806 1.363 . S
N1804 C1806 1.356 . S
N1804 H1816 0.984 . S
N1804 H1817 0.985 . S
N1805 C1807 1.356 . S
N1805 H1810 0.984 . S
N1805 H1811 0.985 . S
C1806 C1800 1.379 . S
C1806 C1803 1.363 . S
C1806 N1804 1.356 . S
C1807 C1801 1.363 . S
C1807 C1802 1.379 . S
C1807 N1805 1.356 . S
N1808 C1800 1.356 . S
N1808 H1814 0.984 . S
N1808 H1815 0.984 . S
N1809 C1802 1.356 . S
N1809 H1812 0.984 . S
N1809 H1813 0.985 . S
H1810 N1805 0.984 . S
H1811 N1805 0.985 . S
H1812 N1809 0.984 . S
H1813 N1809 0.985 . S
H1814 N1808 0.984 . S
H1815 N1808 0.984 . S
H1816 N1804 0.984 . S
H1817 N1804 0.985 . S
C1818 C1819 1.363 1_556 S
C1818 C1824 1.379 . S
C1818 N1826 1.356 . S
C1819 C1818 1.363 1_554 S
C1819 C1825 1.363 . S
C1820 C1821 1.363 . S
C1820 C1825 1.379 . S
C1820 N1827 1.356 . S
C1821 C1820 1.363 . S
C1821 C1824 1.363 1_554 S
N1822 C1824 1.356 . S
N1822 H1834 0.984 . S
N1822 H1835 0.985 . S
N1823 C1825 1.356 . S
N1823 H1828 0.984 . S
N1823 H1829 0.985 . S
C1824 C1818 1.379 . S
C1824 C1821 1.363 1_556 S
C1824 N1822 1.356 . S
C1825 C1819 1.363 . S
C1825 C1820 1.379 . S
C1825 N1823 1.356 . S
N1826 C1818 1.356 . S
N1826 H1832 0.984 . S
N1826 H1833 0.984 . S
N1827 C1820 1.356 . S
N1827 H1830 0.984 . S
N1827 H1831 0.985 . S
H1828 N1823 0.984 . S
H1829 N1823 0.985 . S
H1830 N1827 0.984 . S
H1831 N1827 0.985 . S
H1832 N1826 0.984 . S
H1833 N1826 0.984 . S
H1834 N1822 0.984 . S
H1835 N1822 0.985 . S
C1836 C1837 1.363 1_556 S
C1836 C1842 1.379 . S
C1836 N1844 1.356 . S
C1837 C1836 1.363 1_554 S
C1837 C1843 1.363 . S
C1838 C1839 1.363 . S
C1838 C1843 1.379 . S
C1838 N1845 1.356 . S
C1839 C1838 1.363 . S
C1839 C1842 1.363 1_554 S
N1840 C1842 1.356 . S
N1840 H1852 0.984 . S
N1840 H1853 0.985 . S
N1841 C1843 1.356 . S
N1841 H1846 0.984 . S
N1841 H1847 0.985 . S
C1842 C1836 1.379 . S
C1842 C1839 1.363 1_556 S
C1842 N1840 1.356 . S
C1843 C1837 1.363 . S
C1843 C1838 1.379 . S
C1843 N1841 1.356 . S
N1844 C1836 1.356 . S
N1844 H1850 0.984 . S
N1844 H1851 0.984 . S
N1845 C1838 1.356 . S
N1845 H1848 0.984 . S
N1845 H1849 0.985 . S
H1846 N1841 0.984 . S
H1847 N1841 0.985 . S
H1848 N1845 0.984 . S
H1849 N1845 0.985 . S
H1850 N1844 0.984 . S
H1851 N1844 0.984 . S
H1852 N1840 0.984 . S
H1853 N1840 0.985 . S
C1854 C1855 1.363 . S
C1854 C1860 1.379 . S
C1854 N1862 1.356 . S
C1855 C1854 1.363 . S
C1855 C1861 1.363 1_554 S
C1856 C1857 1.363 1_556 S
C1856 C1861 1.379 . S
C1856 N1863 1.356 . S
C1857 C1856 1.363 1_554 S
C1857 C1860 1.363 . S
N1858 C1860 1.356 . S
N1858 H1870 0.984 . S
N1858 H1871 0.985 . S
N1859 C1861 1.356 . S
N1859 H1864 0.984 . S
N1859 H1865 0.985 . S
C1860 C1854 1.379 . S
C1860 C1857 1.363 . S
C1860 N1858 1.356 . S
C1861 C1855 1.363 1_556 S
C1861 C1856 1.379 . S
C1861 N1859 1.356 . S
N1862 C1854 1.356 . S
N1862 H1868 0.984 . S
N1862 H1869 0.984 . S
N1863 C1856 1.356 . S
N1863 H1866 0.984 . S
N1863 H1867 0.985 . S
H1864 N1859 0.984 . S
H1865 N1859 0.985 . S
H1866 N1863 0.984 . S
H1867 N1863 0.985 . S
H1868 N1862 0.984 . S
H1869 N1862 0.984 . S
H1870 N1858 0.984 . S
H1871 N1858 0.985 . S
C1872 C1873 1.363 . S
C1872 C1878 1.379 . S
C1872 N1880 1.356 . S
C1873 C1872 1.363 . S
C1873 C1879 1.363 . S
C1874 C1875 1.363 . S
C1874 C1879 1.379 . S
C1874 N1881 1.356 . S
C1875 C1874 1.363 . S
C1875 C1878 1.363 . S
N1876 C1878 1.356 . S
N1876 H1888 0.984 . S
N1876 H1889 0.985 . S
N1877 C1879 1.356 . S
N1877 H1882 0.984 . S
N1877 H1883 0.985 . S
C1878 C1872 1.379 . S
C1878 C1875 1.363 . S
C1878 N1876 1.356 . S
C1879 C1873 1.363 . S
C1879 C1874 1.379 . S
C1879 N1877 1.356 . S
N1880 C1872 1.356 . S
N1880 H1886 0.984 . S
N1880 H1887 0.984 . S
N1881 C1874 1.356 . S
N1881 H1884 0.984 . S
N1881 H1885 0.985 . S
H1882 N1877 0.984 . S
H1883 N1877 0.985 . S
H1884 N1881 0.984 . S
H1885 N1881 0.985 . S
H1886 N1880 0.984 . S
H1887 N1880 0.984 . S
H1888 N1876 0.984 . S
H1889 N1876 0.985 . S
C1890 C1891 1.363 . S
C1890 C1896 1.379 . S
C1890 N1898 1.356 . S
C1891 C1890 1.363 . S
C1891 C1897 1.363 . S
C1892 C1893 1.363 . S
C1892 C1897 1.379 . S
C1892 N1899 1.356 . S
C1893 C1892 1.363 . S
C1893 C1896 1.363 . S
N1894 C1896 1.356 . S
N1894 H1906 0.984 . S
N1894 H1907 0.985 . S
N1895 C1897 1.356 . S
N1895 H1900 0.984 . S
N1895 H1901 0.985 . S
C1896 C1890 1.379 . S
C1896 C1893 1.363 . S
C1896 N1894 1.356 . S
C1897 C1891 1.363 . S
C1897 C1892 1.379 . S
C1897 N1895 1.356 . S
N1898 C1890 1.356 . S
N1898 H1904 0.984 . S
N1898 H1905 0.984 . S
N1899 C1892 1.356 . S
N1899 H1902 0.984 . S
N1899 H1903 0.985 . S
H1900 N1895 0.984 . S
H1901 N1895 0.985 . S
H1902 N1899 0.984 . S
H1903 N1899 0.985 . S
H1904 N1898 0.984 . S
H1905 N1898 0.984 . S
H1906 N1894 0.984 . S
H1907 N1894 0.985 . S
C1908 C1909 1.363 . S
C1908 C1914 1.379 . S
C1908 N1916 1.356 . S
C1909 C1908 1.363 . S
C1909 C1915 1.363 . S
C1910 C1911 1.363 . S
C1910 C1915 1.379 . S
C1910 N1917 1.356 . S
C1911 C1910 1.363 . S
C1911 C1914 1.363 . S
N1912 C1914 1.356 . S
N1912 H1924 0.984 . S
N1912 H1925 0.985 . S
N1913 C1915 1.356 . S
N1913 H1918 0.984 . S
N1913 H1919 0.985 . S
C1914 C1908 1.379 . S
C1914 C1911 1.363 . S
C1914 N1912 1.356 . S
C1915 C1909 1.363 . S
C1915 C1910 1.379 . S
C1915 N1913 1.356 . S
N1916 C1908 1.356 . S
N1916 H1922 0.984 . S
N1916 H1923 0.984 . S
N1917 C1910 1.356 . S
N1917 H1920 0.984 . S
N1917 H1921 0.985 . S
H1918 N1913 0.984 . S
H1919 N1913 0.985 . S
H1920 N1917 0.984 . S
H1921 N1917 0.985 . S
H1922 N1916 0.984 . S
H1923 N1916 0.984 . S
H1924 N1912 0.984 . S
H1925 N1912 0.985 . S
C1926 C1927 1.363 1_554 S
C1926 C1932 1.373 1_554 S
C1926 N1934 1.356 . S
C1927 C1926 1.363 1_556 S
C1927 C1933 1.363 . S
C1928 C1929 1.363 . S
C1928 C1933 1.379 . S
C1928 N1935 1.356 . S
C1929 C1928 1.363 . S
C1929 C1932 1.400 . S
N1930 C1932 1.344 1_554 S
N1930 H1942 1.002 . S
N1930 H1943 0.968 1_554 S
N1931 C1933 1.356 . S
N1931 H1936 0.984 . S
N1931 H1937 0.985 . S
C1932 C1926 1.373 1_556 S
C1932 C1929 1.400 . S
C1932 N1930 1.344 1_556 S
C1933 C1927 1.363 . S
C1933 C1928 1.379 . S
C1933 N1931 1.356 . S
N1934 C1926 1.356 . S
N1934 H1940 0.984 . S
N1934 H1941 0.984 . S
N1935 C1928 1.356 . S
N1935 H1938 0.984 . S
N1935 H1939 0.985 . S
H1936 N1931 0.984 . S
H1937 N1931 0.985 . S
H1938 N1935 0.984 . S
H1939 N1935 0.985 . S
H1940 N1934 0.984 . S
H1941 N1934 0.984 . S
H1942 N1930 1.002 . S
H1943 N1930 0.968 1_556 S
C1944 C1945 1.363 1_554 S
C1944 C1950 1.379 . S
C1944 N1952 1.356 . S
C1945 C1944 1.363 1_556 S
C1945 C1951 1.363 . S
C1946 C1947 1.363 . S
C1946 C1951 1.379 . S
C1946 N1953 1.356 . S
C1947 C1946 1.363 . S
C1947 C1950 1.363 1_556 S
N1948 C1950 1.356 . S
N1948 H1960 0.984 . S
N1948 H1961 0.985 . S
N1949 C1951 1.356 . S
N1949 H1954 0.984 . S
N1949 H1955 0.985 . S
C1950 C1944 1.379 . S
C1950 C1947 1.363 1_554 S
C1950 N1948 1.356 . S
C1951 C1945 1.363 . S
C1951 C1946 1.379 . S
C1951 N1949 1.356 . S
N1952 C1944 1.356 . S
N1952 H1958 0.984 . S
N1952 H1959 0.984 . S
N1953 C1946 1.356 . S
N1953 H1956 0.984 . S
N1953 H1957 0.985 . S
H1954 N1949 0.984 . S
H1955 N1949 0.985 . S
H1956 N1953 0.984 . S
H1957 N1953 0.985 . S
H1958 N1952 0.984 . S
H1959 N1952 0.984 . S
H1960 N1948 0.984 . S
H1961 N1948 0.985 . S
C1962 C1963 1.363 . S
C1962 C1968 1.379 . S
C1962 N1970 1.356 . S
C1963 C1962 1.363 . S
C1963 C1969 1.363 1_556 S
C1964 C1965 1.363 1_554 S
C1964 C1969 1.379 . S
C1964 N1971 1.356 . S
C1965 C1964 1.363 1_556 S
C1965 C1968 1.363 . S
N1966 C1968 1.356 . S
N1966 H1978 0.984 . S
N1966 H1979 0.985 . S
N1967 C1969 1.356 . S
N1967 H1972 0.984 . S
N1967 H1973 0.985 . S
C1968 C1962 1.379 . S
C1968 C1965 1.363 . S
C1968 N1966 1.356 . S
C1969 C1963 1.363 1_554 S
C1969 C1964 1.379 . S
C1969 N1967 1.356 . S
N1970 C1962 1.356 . S
N1970 H1976 0.984 . S
N1970 H1977 0.984 . S
N1971 C1964 1.356 . S
N1971 H1974 0.984 . S
N1971 H1975 0.985 . S
H1972 N1967 0.984 . S
H1973 N1967 0.985 . S
H1974 N1971 0.984 . S
H1975 N1971 0.985 . S
H1976 N1970 0.984 . S
H1977 N1970 0.984 . S
H1978 N1966 0.984 . S
H1979 N1966 0.985 . S
C1980 C1981 1.363 . S
C1980 C1986 1.379 . S
C1980 N1988 1.356 . S
C1981 C1980 1.363 . S
C1981 C1987 1.363 . S
C1982 C1983 1.363 . S
C1982 C1987 1.379 . S
C1982 N1989 1.356 . S
C1983 C1982 1.363 . S
C1983 C1986 1.363 . S
N1984 C1986 1.356 . S
N1984 H1996 0.984 . S
N1984 H1997 0.985 . S
N1985 C1987 1.356 . S
N1985 H1990 0.984 . S
N1985 H1991 0.985 . S
C1986 C1980 1.379 . S
C1986 C1983 1.363 . S
C1986 N1984 1.356 . S
C1987 C1981 1.363 . S
C1987 C1982 1.379 . S
C1987 N1985 1.356 . S
N1988 C1980 1.356 . S
N1988 H1994 0.984 . S
N1988 H1995 0.984 . S
N1989 C1982 1.356 . S
N1989 H1992 0.984 . S
N1989 H1993 0.985 . S
H1990 N1985 0.984 . S
H1991 N1985 0.985 . S
H1992 N1989 0.984 . S
H1993 N1989 0.985 . S
H1994 N1988 0.984 . S
H1995 N1988 0.984 . S
H1996 N1984 0.984 . S
H1997 N1984 0.985 . S
C1998 C1999 1.363 . S
C1998 C2004 1.379 . S
C1998 N2006 1.356 . S
C1999 C1998 1.363 . S
C1999 C2005 1.363 . S
C2000 C2001 1.363 . S
C2000 C2005 1.379 . S
C2000 N2007 1.356 . S
C2001 C2000 1.363 . S
C2001 C2004 1.363 . S
N2002 C2004 1.356 . S
N2002 H2014 0.984 . S
N2002 H2015 0.985 . S
N2003 C2005 1.356 . S
N2003 H2008 0.984 . S
N2003 H2009 0.985 . S
C2004 C1998 1.379 . S
C2004 C2001 1.363 . S
C2004 N2002 1.356 . S
C2005 C1999 1.363 . S
C2005 C2000 1.379 . S
C2005 N2003 1.356 . S
N2006 C1998 1.356 . S
N2006 H2012 0.984 . S
N2006 H2013 0.984 . S
N2007 C2000 1.356 . S
N2007 H2010 0.984 . S
N2007 H2011 0.985 . S
H2008 N2003 0.984 . S
H2009 N2003 0.985 . S
H2010 N2007 0.984 . S
H2011 N2007 0.985 . S
H2012 N2006 0.984 . S
H2013 N2006 0.984 . S
H2014 N2002 0.984 . S
H2015 N2002 0.985 . S
C2016 C2017 1.363 . S
C2016 C2022 1.379 . S
C2016 N2024 1.356 . S
C2017 C2016 1.363 . S
C2017 C2023 1.363 . S
C2018 C2019 1.363 . S
C2018 C2023 1.379 . S
C2018 N2025 1.356 . S
C2019 C2018 1.363 . S
C2019 C2022 1.363 . S
N2020 C2022 1.356 . S
N2020 H2032 0.984 . S
N2020 H2033 0.985 . S
N2021 C2023 1.356 . S
N2021 H2026 0.984 . S
N2021 H2027 0.985 . S
C2022 C2016 1.379 . S
C2022 C2019 1.363 . S
C2022 N2020 1.356 . S
C2023 C2017 1.363 . S
C2023 C2018 1.379 . S
C2023 N2021 1.356 . S
N2024 C2016 1.356 . S
N2024 H2030 0.984 . S
N2024 H2031 0.984 . S
N2025 C2018 1.356 . S
N2025 H2028 0.984 . S
N2025 H2029 0.985 . S
H2026 N2021 0.984 . S
H2027 N2021 0.985 . S
H2028 N2025 0.984 . S
H2029 N2025 0.985 . S
H2030 N2024 0.984 . S
H2031 N2024 0.984 . S
H2032 N2020 0.984 . S
H2033 N2020 0.985 . S
C2034 C2035 1.363 . S
C2034 C2040 1.379 . S
C2034 N2042 1.356 . S
C2035 C2034 1.363 . S
C2035 C2041 1.363 . S
C2036 C2037 1.363 . S
C2036 C2041 1.379 . S
C2036 N2043 1.356 . S
C2037 C2036 1.363 . S
C2037 C2040 1.363 . S
N2038 C2040 1.356 . S
N2038 H2050 0.984 . S
N2038 H2051 0.985 . S
N2039 C2041 1.356 . S
N2039 H2044 0.984 . S
N2039 H2045 0.985 . S
C2040 C2034 1.379 . S
C2040 C2037 1.363 . S
C2040 N2038 1.356 . S
C2041 C2035 1.363 . S
C2041 C2036 1.379 . S
C2041 N2039 1.356 . S
N2042 C2034 1.356 . S
N2042 H2048 0.984 . S
N2042 H2049 0.984 . S
N2043 C2036 1.356 . S
N2043 H2046 0.984 . S
N2043 H2047 0.985 . S
H2044 N2039 0.984 . S
H2045 N2039 0.985 . S
H2046 N2043 0.984 . S
H2047 N2043 0.985 . S
H2048 N2042 0.984 . S
H2049 N2042 0.984 . S
H2050 N2038 0.984 . S
H2051 N2038 0.985 . S
C2052 C2053 1.363 . S
C2052 C2058 1.379 . S
C2052 N2060 1.356 . S
C2053 C2052 1.363 . S
C2053 C2059 1.363 . S
C2054 C2055 1.363 . S
C2054 C2059 1.379 . S
C2054 N2061 1.356 . S
C2055 C2054 1.363 . S
C2055 C2058 1.363 . S
N2056 C2058 1.356 . S
N2056 H2068 0.984 . S
N2056 H2069 0.985 . S
N2057 C2059 1.356 . S
N2057 H2062 0.984 . S
N2057 H2063 0.985 . S
C2058 C2052 1.379 . S
C2058 C2055 1.363 . S
C2058 N2056 1.356 . S
C2059 C2053 1.363 . S
C2059 C2054 1.379 . S
C2059 N2057 1.356 . S
N2060 C2052 1.356 . S
N2060 H2066 0.984 . S
N2060 H2067 0.984 . S
N2061 C2054 1.356 . S
N2061 H2064 0.984 . S
N2061 H2065 0.985 . S
H2062 N2057 0.984 . S
H2063 N2057 0.985 . S
H2064 N2061 0.984 . S
H2065 N2061 0.985 . S
H2066 N2060 0.984 . S
H2067 N2060 0.984 . S
H2068 N2056 0.984 . S
H2069 N2056 0.985 . S
C2070 C2071 1.363 . S
C2070 C2076 1.379 . S
C2070 N2078 1.356 . S
C2071 C2070 1.363 . S
C2071 C2077 1.363 . S
C2072 C2073 1.363 . S
C2072 C2077 1.379 . S
C2072 N2079 1.356 . S
C2073 C2072 1.363 . S
C2073 C2076 1.363 . S
N2074 C2076 1.356 . S
N2074 H2086 0.984 . S
N2074 H2087 0.985 . S
N2075 C2077 1.356 . S
N2075 H2080 0.984 . S
N2075 H2081 0.985 . S
C2076 C2070 1.379 . S
C2076 C2073 1.363 . S
C2076 N2074 1.356 . S
C2077 C2071 1.363 . S
C2077 C2072 1.379 . S
C2077 N2075 1.356 . S
N2078 C2070 1.356 . S
N2078 H2084 0.984 . S
N2078 H2085 0.984 . S
N2079 C2072 1.356 . S
N2079 H2082 0.984 . S
N2079 H2083 0.985 . S
H2080 N2075 0.984 . S
H2081 N2075 0.985 . S
H2082 N2079 0.984 . S
H2083 N2079 0.985 . S
H2084 N2078 0.984 . S
H2085 N2078 0.984 . S
H2086 N2074 0.984 . S
H2087 N2074 0.985 . S
C2088 C2089 1.363 . S
C2088 C2094 1.379 . S
C2088 N2096 1.356 . S
C2089 C2088 1.363 . S
C2089 C2095 1.363 . S
C2090 C2091 1.363 . S
C2090 C2095 1.379 . S
C2090 N2097 1.356 . S
C2091 C2090 1.363 . S
C2091 C2094 1.363 . S
N2092 C2094 1.356 . S
N2092 H2104 0.984 . S
N2092 H2105 0.985 . S
N2093 C2095 1.356 . S
N2093 H2098 0.984 . S
N2093 H2099 0.985 . S
C2094 C2088 1.379 . S
C2094 C2091 1.363 . S
C2094 N2092 1.356 . S
C2095 C2089 1.363 . S
C2095 C2090 1.379 . S
C2095 N2093 1.356 . S
N2096 C2088 1.356 . S
N2096 H2102 0.984 . S
N2096 H2103 0.984 . S
N2097 C2090 1.356 . S
N2097 H2100 0.984 . S
N2097 H2101 0.985 . S
H2098 N2093 0.984 . S
H2099 N2093 0.985 . S
H2100 N2097 0.984 . S
H2101 N2097 0.985 . S
H2102 N2096 0.984 . S
H2103 N2096 0.984 . S
H2104 N2092 0.984 . S
H2105 N2092 0.985 . S
C2106 C2107 1.363 1_545 S
C2106 C2112 1.379 1_545 S
C2106 N2114 1.356 . S
C2107 C2106 1.363 1_565 S
C2107 C2113 1.363 . S
C2108 C2109 1.363 . S
C2108 C2113 1.379 . S
C2108 N2115 1.356 . S
C2109 C2108 1.363 . S
C2109 C2112 1.363 . S
N2110 C2112 1.356 1_545 S
N2110 H2122 0.984 . S
N2110 H2123 0.985 1_545 S
N2111 C2113 1.356 . S
N2111 H2116 0.984 . S
N2111 H2117 0.985 . S
C2112 C2106 1.379 1_565 S
C2112 C2109 1.363 . S
C2112 N2110 1.356 1_565 S
C2113 C2107 1.363 . S
C2113 C2108 1.379 . S
C2113 N2111 1.356 . S
N2114 C2106 1.356 . S
N2114 H2120 0.984 . S
N2114 H2121 0.984 . S
N2115 C2108 1.356 . S
N2115 H2118 0.984 . S
N2115 H2119 0.985 . S
H2116 N2111 0.984 . S
H2117 N2111 0.985 . S
H2118 N2115 0.984 . S
H2119 N2115 0.985 . S
H2120 N2114 0.984 . S
H2121 N2114 0.984 . S
H2122 N2110 0.984 . S
H2123 N2110 0.985 1_565 S
C2124 C2125 1.363 . S
C2124 C2130 1.379 . S
C2124 N2132 1.356 . S
C2125 C2124 1.363 . S
C2125 C2131 1.363 . S
C2126 C2127 1.363 1_655 S
C2126 C2131 1.379 1_655 S
C2126 N2133 1.356 . S
C2127 C2126 1.363 1_455 S
C2127 C2130 1.363 . S
N2128 C2130 1.356 . S
N2128 H2140 0.984 . S
N2128 H2141 0.985 . S
N2129 C2131 1.356 . S
N2129 H2134 0.984 . S
N2129 H2135 0.985 1_455 S
C2130 C2124 1.379 . S
C2130 C2127 1.363 . S
C2130 N2128 1.356 . S
C2131 C2125 1.363 . S
C2131 C2126 1.379 1_455 S
C2131 N2129 1.356 . S
N2132 C2124 1.356 . S
N2132 H2138 0.984 . S
N2132 H2139 0.984 . S
N2133 C2126 1.356 . S
N2133 H2136 0.984 . S
N2133 H2137 0.985 . S
H2134 N2129 0.984 . S
H2135 N2129 0.985 1_655 S
H2136 N2133 0.984 . S
H2137 N2133 0.985 . S
H2138 N2132 0.984 . S
H2139 N2132 0.984 . S
H2140 N2128 0.984 . S
H2141 N2128 0.985 . S
C2142 C2143 1.363 . S
C2142 C2148 1.379 . S
C2142 N2150 1.356 . S
C2143 C2142 1.363 . S
C2143 C2149 1.363 . S
C2144 C2145 1.363 . S
C2144 C2149 1.379 . S
C2144 N2151 1.356 . S
C2145 C2144 1.363 . S
C2145 C2148 1.363 . S
N2146 C2148 1.356 . S
N2146 H2158 0.984 . S
N2146 H2159 0.985 . S
N2147 C2149 1.356 . S
N2147 H2152 0.984 . S
N2147 H2153 0.985 . S
C2148 C2142 1.379 . S
C2148 C2145 1.363 . S
C2148 N2146 1.356 . S
C2149 C2143 1.363 . S
C2149 C2144 1.379 . S
C2149 N2147 1.356 . S
N2150 C2142 1.356 . S
N2150 H2156 0.984 . S
N2150 H2157 0.984 . S
N2151 C2144 1.356 . S
N2151 H2154 0.984 . S
N2151 H2155 0.985 . S
H2152 N2147 0.984 . S
H2153 N2147 0.985 . S
H2154 N2151 0.984 . S
H2155 N2151 0.985 . S
H2156 N2150 0.984 . S
H2157 N2150 0.984 . S
H2158 N2146 0.984 . S
H2159 N2146 0.985 . S
C2160 C2161 1.363 1_565 S
C2160 C2166 1.379 1_565 S
C2160 N2168 1.356 . S
C2161 C2160 1.363 1_545 S
C2161 C2167 1.363 . S
C2162 C2163 1.363 . S
C2162 C2167 1.379 . S
C2162 N2169 1.356 . S
C2163 C2162 1.363 . S
C2163 C2166 1.363 . S
N2164 C2166 1.356 . S
N2164 H2176 0.984 1_545 S
N2164 H2177 0.985 . S
N2165 C2167 1.356 . S
N2165 H2170 0.984 . S
N2165 H2171 0.985 . S
C2166 C2160 1.379 1_545 S
C2166 C2163 1.363 . S
C2166 N2164 1.356 . S
C2167 C2161 1.363 . S
C2167 C2162 1.379 . S
C2167 N2165 1.356 . S
N2168 C2160 1.356 . S
N2168 H2174 0.984 . S
N2168 H2175 0.984 . S
N2169 C2162 1.356 . S
N2169 H2172 0.984 . S
N2169 H2173 0.985 . S
H2170 N2165 0.984 . S
H2171 N2165 0.985 . S
H2172 N2169 0.984 . S
H2173 N2169 0.985 . S
H2174 N2168 0.984 . S
H2175 N2168 0.984 . S
H2176 N2164 0.984 1_565 S
H2177 N2164 0.985 . S
C2178 C2179 1.363 . S
C2178 C2184 1.379 1_655 S
C2178 N2186 1.356 . S
C2179 C2178 1.363 . S
C2179 C2185 1.363 . S
C2180 C2181 1.363 . S
C2180 C2185 1.379 . S
C2180 N2187 1.356 . S
C2181 C2180 1.363 . S
C2181 C2184 1.363 1_655 S
N2182 C2184 1.356 . S
N2182 H2194 0.984 . S
N2182 H2195 0.985 . S
N2183 C2185 1.356 . S
N2183 H2188 0.984 . S
N2183 H2189 0.985 . S
C2184 C2178 1.379 1_455 S
C2184 C2181 1.363 1_455 S
C2184 N2182 1.356 . S
C2185 C2179 1.363 . S
C2185 C2180 1.379 . S
C2185 N2183 1.356 . S
N2186 C2178 1.356 . S
N2186 H2192 0.984 1_655 S
N2186 H2193 0.984 . S
N2187 C2180 1.356 . S
N2187 H2190 0.984 . S
N2187 H2191 0.985 . S
H2188 N2183 0.984 . S
H2189 N2183 0.985 . S
H2190 N2187 0.984 . S
H2191 N2187 0.985 . S
H2192 N2186 0.984 1_455 S
H2193 N2186 0.984 . S
H2194 N2182 0.984 . S
H2195 N2182 0.985 . S
C2196 C2197 1.363 . S
C2196 C2202 1.379 . S
C2196 N2204 1.356 . S
C2197 C2196 1.363 . S
C2197 C2203 1.363 . S
C2198 C2199 1.363 . S
C2198 C2203 1.379 . S
C2198 N2205 1.356 . S
C2199 C2198 1.363 . S
C2199 C2202 1.363 . S
N2200 C2202 1.356 . S
N2200 H2212 0.984 . S
N2200 H2213 0.985 . S
N2201 C2203 1.356 . S
N2201 H2206 0.984 . S
N2201 H2207 0.985 . S
C2202 C2196 1.379 . S
C2202 C2199 1.363 . S
C2202 N2200 1.356 . S
C2203 C2197 1.363 . S
C2203 C2198 1.379 . S
C2203 N2201 1.356 . S
N2204 C2196 1.356 . S
N2204 H2210 0.984 . S
N2204 H2211 0.984 . S
N2205 C2198 1.356 . S
N2205 H2208 0.984 . S
N2205 H2209 0.985 . S
H2206 N2201 0.984 . S
H2207 N2201 0.985 . S
H2208 N2205 0.984 . S
H2209 N2205 0.985 . S
H2210 N2204 0.984 . S
H2211 N2204 0.984 . S
H2212 N2200 0.984 . S
H2213 N2200 0.985 . S
C2214 C2215 1.363 . S
C2214 C2220 1.379 . S
C2214 N2222 1.356 . S
C2215 C2214 1.363 . S
C2215 C2221 1.363 . S
C2216 C2217 1.363 1_565 S
C2216 C2221 1.379 1_565 S
C2216 N2223 1.356 . S
C2217 C2216 1.363 1_545 S
C2217 C2220 1.363 . S
N2218 C2220 1.356 . S
N2218 H2230 0.984 . S
N2218 H2231 0.985 . S
N2219 C2221 1.356 . S
N2219 H2224 0.984 . S
N2219 H2225 0.985 1_545 S
C2220 C2214 1.379 . S
C2220 C2217 1.363 . S
C2220 N2218 1.356 . S
C2221 C2215 1.363 . S
C2221 C2216 1.379 1_545 S
C2221 N2219 1.356 . S
N2222 C2214 1.356 . S
N2222 H2228 0.984 . S
N2222 H2229 0.984 . S
N2223 C2216 1.356 . S
N2223 H2226 0.984 . S
N2223 H2227 0.985 . S
H2224 N2219 0.984 . S
H2225 N2219 0.985 1_565 S
H2226 N2223 0.984 . S
H2227 N2223 0.985 . S
H2228 N2222 0.984 . S
H2229 N2222 0.984 . S
H2230 N2218 0.984 . S
H2231 N2218 0.985 . S
C2232 C2233 1.363 . S
C2232 C2238 1.379 . S
C2232 N2240 1.356 . S
C2233 C2232 1.363 . S
C2233 C2239 1.363 . S
C2234 C2235 1.363 1_455 S
C2234 C2239 1.379 1_455 S
C2234 N2241 1.356 . S
C2235 C2234 1.363 1_655 S
C2235 C2238 1.363 . S
N2236 C2238 1.356 . S
N2236 H2248 0.984 . S
N2236 H2249 0.985 . S
N2237 C2239 1.356 . S
N2237 H2242 0.984 . S
N2237 H2243 0.985 1_655 S
C2238 C2232 1.379 . S
C2238 C2235 1.363 . S
C2238 N2236 1.356 . S
C2239 C2233 1.363 . S
C2239 C2234 1.379 1_655 S
C2239 N2237 1.356 . S
N2240 C2232 1.356 . S
N2240 H2246 0.984 . S
N2240 H2247 0.984 . S
N2241 C2234 1.356 . S
N2241 H2244 0.984 . S
N2241 H2245 0.985 . S
H2242 N2237 0.984 . S
H2243 N2237 0.985 1_455 S
H2244 N2241 0.984 . S
H2245 N2241 0.985 . S
H2246 N2240 0.984 . S
H2247 N2240 0.984 . S
H2248 N2236 0.984 . S
H2249 N2236 0.985 . S
C2250 C2251 1.363 . S
C2250 C2256 1.379 . S
C2250 N2258 1.356 . S
C2251 C2250 1.363 . S
C2251 C2257 1.363 . S
C2252 C2253 1.363 . S
C2252 C2257 1.379 . S
C2252 N2259 1.356 . S
C2253 C2252 1.363 . S
C2253 C2256 1.363 . S
N2254 C2256 1.356 . S
N2254 H2266 0.984 . S
N2254 H2267 0.985 . S
N2255 C2257 1.356 . S
N2255 H2260 0.984 . S
N2255 H2261 0.985 . S
C2256 C2250 1.379 . S
C2256 C2253 1.363 . S
C2256 N2254 1.356 . S
C2257 C2251 1.363 . S
C2257 C2252 1.379 . S
C2257 N2255 1.356 . S
N2258 C2250 1.356 . S
N2258 H2264 0.984 . S
N2258 H2265 0.984 . S
N2259 C2252 1.356 . S
N2259 H2262 0.984 . S
N2259 H2263 0.985 . S
H2260 N2255 0.984 . S
H2261 N2255 0.985 . S
H2262 N2259 0.984 . S
H2263 N2259 0.985 . S
H2264 N2258 0.984 . S
H2265 N2258 0.984 . S
H2266 N2254 0.984 . S
H2267 N2254 0.985 . S
C2268 C2269 1.369 . S
C2268 C2274 1.377 . S
C2268 N2276 1.354 1_565 S
C2269 C2268 1.369 . S
C2269 C2275 1.363 . S
C2270 C2271 1.363 . S
C2270 C2275 1.379 . S
C2270 N2277 1.356 . S
C2271 C2270 1.363 . S
C2271 C2274 1.363 . S
N2272 C2274 1.356 . S
N2272 H2284 0.984 1_565 S
N2272 H2285 0.985 . S
N2273 C2275 1.356 . S
N2273 H2278 0.984 . S
N2273 H2279 0.985 . S
C2274 C2268 1.377 . S
C2274 C2271 1.363 . S
C2274 N2272 1.356 . S
C2275 C2269 1.363 . S
C2275 C2270 1.379 . S
C2275 N2273 1.356 . S
N2276 C2268 1.354 1_545 S
N2276 H2282 0.984 . S
N2276 H2283 0.984 . S
N2277 C2270 1.356 . S
N2277 H2280 0.984 . S
N2277 H2281 0.985 . S
H2278 N2273 0.984 . S
H2279 N2273 0.985 . S
H2280 N2277 0.984 . S
H2281 N2277 0.985 . S
H2282 N2276 0.984 . S
H2283 N2276 0.984 . S
H2284 N2272 0.984 1_545 S
H2285 N2272 0.985 . S
C2286 C2287 1.363 . S
C2286 C2292 1.379 . S
C2286 N2294 1.356 . S
C2287 C2286 1.363 . S
C2287 C2293 1.363 1_455 S
C2288 C2289 1.363 . S
C2288 C2293 1.379 1_455 S
C2288 N2295 1.356 . S
C2289 C2288 1.363 . S
C2289 C2292 1.363 . S
N2290 C2292 1.356 . S
N2290 H2302 0.984 . S
N2290 H2303 0.985 . S
N2291 C2293 1.356 . S
N2291 H2296 0.984 . S
N2291 H2297 0.985 . S
C2292 C2286 1.379 . S
C2292 C2289 1.363 . S
C2292 N2290 1.356 . S
C2293 C2287 1.363 1_655 S
C2293 C2288 1.379 1_655 S
C2293 N2291 1.356 . S
N2294 C2286 1.356 . S
N2294 H2300 0.984 . S
N2294 H2301 0.984 . S
N2295 C2288 1.356 . S
N2295 H2298 0.984 . S
N2295 H2299 0.985 1_455 S
H2296 N2291 0.984 . S
H2297 N2291 0.985 . S
H2298 N2295 0.984 . S
H2299 N2295 0.985 1_655 S
H2300 N2294 0.984 . S
H2301 N2294 0.984 . S
H2302 N2290 0.984 . S
H2303 N2290 0.985 . S
C2304 C2305 1.363 1_455 S
C2304 C2310 1.376 . S
C2304 N2312 1.359 1_455 S
C2305 C2304 1.363 1_655 S
C2305 C2311 1.363 1_655 S
C2306 C2307 1.363 . S
C2306 C2311 1.379 . S
C2306 N2313 1.356 . S
C2307 C2306 1.363 . S
C2307 C2310 1.363 . S
N2308 C2310 1.356 . S
N2308 H2320 0.984 . S
N2308 H2321 0.985 . S
N2309 C2311 1.356 1_655 S
N2309 H2314 0.984 . S
N2309 H2315 0.985 . S
C2310 C2304 1.376 . S
C2310 C2307 1.363 . S
C2310 N2308 1.356 . S
C2311 C2305 1.363 1_455 S
C2311 C2306 1.379 . S
C2311 N2309 1.356 1_455 S
N2312 C2304 1.359 1_655 S
N2312 H2318 0.984 . S
N2312 H2319 0.984 . S
N2313 C2306 1.356 . S
N2313 H2316 0.984 . S
N2313 H2317 0.985 . S
H2314 N2309 0.984 . S
H2315 N2309 0.985 . S
H2316 N2313 0.984 . S
H2317 N2313 0.985 . S
H2318 N2312 0.984 . S
H2319 N2312 0.984 . S
H2320 N2308 0.984 . S
H2321 N2308 0.985 . S
C2322 C2323 1.363 . S
C2322 C2328 1.379 . S
C2322 N2330 1.356 . S
C2323 C2322 1.363 . S
C2323 C2329 1.363 . S
C2324 C2325 1.363 . S
C2324 C2329 1.379 . S
C2324 N2331 1.356 . S
C2325 C2324 1.363 . S
C2325 C2328 1.363 . S
N2326 C2328 1.356 . S
N2326 H2338 0.984 . S
N2326 H2339 0.985 . S
N2327 C2329 1.356 . S
N2327 H2332 0.984 . S
N2327 H2333 0.985 . S
C2328 C2322 1.379 . S
C2328 C2325 1.363 . S
C2328 N2326 1.356 . S
C2329 C2323 1.363 . S
C2329 C2324 1.379 . S
C2329 N2327 1.356 . S
N2330 C2322 1.356 . S
N2330 H2336 0.984 . S
N2330 H2337 0.984 . S
N2331 C2324 1.356 . S
N2331 H2334 0.984 . S
N2331 H2335 0.985 . S
H2332 N2327 0.984 . S
H2333 N2327 0.985 . S
H2334 N2331 0.984 . S
H2335 N2331 0.985 . S
H2336 N2330 0.984 . S
H2337 N2330 0.984 . S
H2338 N2326 0.984 . S
H2339 N2326 0.985 . S
C2340 C2341 1.363 . S
C2340 C2346 1.379 . S
C2340 N2348 1.356 . S
C2341 C2340 1.363 . S
C2341 C2347 1.363 . S
C2342 C2343 1.363 . S
C2342 C2347 1.379 1_545 S
C2342 N2349 1.356 . S
C2343 C2342 1.363 . S
C2343 C2346 1.363 1_545 S
N2344 C2346 1.356 1_545 S
N2344 H2356 0.984 . S
N2344 H2357 0.985 . S
N2345 C2347 1.356 . S
N2345 H2350 0.984 . S
N2345 H2351 0.985 . S
C2346 C2340 1.379 . S
C2346 C2343 1.363 1_565 S
C2346 N2344 1.356 1_565 S
C2347 C2341 1.363 . S
C2347 C2342 1.379 1_565 S
C2347 N2345 1.356 . S
N2348 C2340 1.356 . S
N2348 H2354 0.984 . S
N2348 H2355 0.984 . S
N2349 C2342 1.356 . S
N2349 H2352 0.984 . S
N2349 H2353 0.985 . S
H2350 N2345 0.984 . S
H2351 N2345 0.985 . S
H2352 N2349 0.984 . S
H2353 N2349 0.985 . S
H2354 N2348 0.984 . S
H2355 N2348 0.984 . S
H2356 N2344 0.984 . S
H2357 N2344 0.985 . S
C2358 C2359 1.363 . S
C2358 C2364 1.379 . S
C2358 N2366 1.356 . S
C2359 C2358 1.363 . S
C2359 C2365 1.363 . S
C2360 C2361 1.363 . S
C2360 C2365 1.379 . S
C2360 N2367 1.356 . S
C2361 C2360 1.363 . S
C2361 C2364 1.363 . S
N2362 C2364 1.356 1_655 S
N2362 H2374 0.984 . S
N2362 H2375 0.985 . S
N2363 C2365 1.356 . S
N2363 H2368 0.984 . S
N2363 H2369 0.985 . S
C2364 C2358 1.379 . S
C2364 C2361 1.363 . S
C2364 N2362 1.356 1_455 S
C2365 C2359 1.363 . S
C2365 C2360 1.379 . S
C2365 N2363 1.356 . S
N2366 C2358 1.356 . S
N2366 H2372 0.984 . S
N2366 H2373 0.984 . S
N2367 C2360 1.356 . S
N2367 H2370 0.984 . S
N2367 H2371 0.985 . S
H2368 N2363 0.984 . S
H2369 N2363 0.985 . S
H2370 N2367 0.984 . S
H2371 N2367 0.985 . S
H2372 N2366 0.984 . S
H2373 N2366 0.984 . S
H2374 N2362 0.984 . S
H2375 N2362 0.985 . S
C2376 C2377 1.363 . S
C2376 C2382 1.379 . S
C2376 N2384 1.356 . S
C2377 C2376 1.363 . S
C2377 C2383 1.363 . S
C2378 C2379 1.363 . S
C2378 C2383 1.379 . S
C2378 N2385 1.356 . S
C2379 C2378 1.363 . S
C2379 C2382 1.363 . S
N2380 C2382 1.356 . S
N2380 H2392 0.984 . S
N2380 H2393 0.985 . S
N2381 C2383 1.356 . S
N2381 H2386 0.984 . S
N2381 H2387 0.985 . S
C2382 C2376 1.379 . S
C2382 C2379 1.363 . S
C2382 N2380 1.356 . S
C2383 C2377 1.363 . S
C2383 C2378 1.379 . S
C2383 N2381 1.356 . S
N2384 C2376 1.356 . S
N2384 H2390 0.984 . S
N2384 H2391 0.984 . S
N2385 C2378 1.356 . S
N2385 H2388 0.984 . S
N2385 H2389 0.985 . S
H2386 N2381 0.984 . S
H2387 N2381 0.985 . S
H2388 N2385 0.984 . S
H2389 N2385 0.985 . S
H2390 N2384 0.984 . S
H2391 N2384 0.984 . S
H2392 N2380 0.984 . S
H2393 N2380 0.985 . S
C2394 C2395 1.363 . S
C2394 C2400 1.379 . S
C2394 N2402 1.356 . S
C2395 C2394 1.363 . S
C2395 C2401 1.363 . S
C2396 C2397 1.363 . S
C2396 C2401 1.379 . S
C2396 N2403 1.356 . S
C2397 C2396 1.363 . S
C2397 C2400 1.363 . S
N2398 C2400 1.356 1_545 S
N2398 H2410 0.984 . S
N2398 H2411 0.985 . S
N2399 C2401 1.356 . S
N2399 H2404 0.984 . S
N2399 H2405 0.985 . S
C2400 C2394 1.379 . S
C2400 C2397 1.363 . S
C2400 N2398 1.356 1_565 S
C2401 C2395 1.363 . S
C2401 C2396 1.379 . S
C2401 N2399 1.356 . S
N2402 C2394 1.356 . S
N2402 H2408 0.984 . S
N2402 H2409 0.984 . S
N2403 C2396 1.356 . S
N2403 H2406 0.984 . S
N2403 H2407 0.985 . S
H2404 N2399 0.984 . S
H2405 N2399 0.985 . S
H2406 N2403 0.984 . S
H2407 N2403 0.985 . S
H2408 N2402 0.984 . S
H2409 N2402 0.984 . S
H2410 N2398 0.984 . S
H2411 N2398 0.985 . S
C2412 C2413 1.363 . S
C2412 C2418 1.379 . S
C2412 N2420 1.356 . S
C2413 C2412 1.363 . S
C2413 C2419 1.363 . S
C2414 C2415 1.363 . S
C2414 C2419 1.379 . S
C2414 N2421 1.356 . S
C2415 C2414 1.363 . S
C2415 C2418 1.363 . S
N2416 C2418 1.356 1_545 S
N2416 H2428 0.984 . S
N2416 H2429 0.985 . S
N2417 C2419 1.356 . S
N2417 H2422 0.984 . S
N2417 H2423 0.985 . S
C2418 C2412 1.379 . S
C2418 C2415 1.363 . S
C2418 N2416 1.356 1_565 S
C2419 C2413 1.363 . S
C2419 C2414 1.379 . S
C2419 N2417 1.356 . S
N2420 C2412 1.356 . S
N2420 H2426 0.984 . S
N2420 H2427 0.984 . S
N2421 C2414 1.356 . S
N2421 H2424 0.984 . S
N2421 H2425 0.985 . S
H2422 N2417 0.984 . S
H2423 N2417 0.985 . S
H2424 N2421 0.984 . S
H2425 N2421 0.985 . S
H2426 N2420 0.984 . S
H2427 N2420 0.984 . S
H2428 N2416 0.984 . S
H2429 N2416 0.985 . S
C2430 C2431 1.363 . S
C2430 C2436 1.379 . S
C2430 N2438 1.356 . S
C2431 C2430 1.363 . S
C2431 C2437 1.363 . S
C2432 C2433 1.363 . S
C2432 C2437 1.379 . S
C2432 N2439 1.356 . S
C2433 C2432 1.363 . S
C2433 C2436 1.363 . S
N2434 C2436 1.356 . S
N2434 H2446 0.984 . S
N2434 H2447 0.985 . S
N2435 C2437 1.356 1_655 S
N2435 H2440 0.984 . S
N2435 H2441 0.985 . S
C2436 C2430 1.379 . S
C2436 C2433 1.363 . S
C2436 N2434 1.356 . S
C2437 C2431 1.363 . S
C2437 C2432 1.379 . S
C2437 N2435 1.356 1_455 S
N2438 C2430 1.356 . S
N2438 H2444 0.984 . S
N2438 H2445 0.984 . S
N2439 C2432 1.356 . S
N2439 H2442 0.984 . S
N2439 H2443 0.985 . S
H2440 N2435 0.984 . S
H2441 N2435 0.985 . S
H2442 N2439 0.984 . S
H2443 N2439 0.985 . S
H2444 N2438 0.984 . S
H2445 N2438 0.984 . S
H2446 N2434 0.984 . S
H2447 N2434 0.985 . S
C2448 C2449 1.363 . S
C2448 C2454 1.379 . S
C2448 N2456 1.356 . S
C2449 C2448 1.363 . S
C2449 C2455 1.363 . S
C2450 C2451 1.363 . S
C2450 C2455 1.379 . S
C2450 N2457 1.356 . S
C2451 C2450 1.363 . S
C2451 C2454 1.363 . S
N2452 C2454 1.356 . S
N2452 H2464 0.984 . S
N2452 H2465 0.985 . S
N2453 C2455 1.356 . S
N2453 H2458 0.984 . S
N2453 H2459 0.985 . S
C2454 C2448 1.379 . S
C2454 C2451 1.363 . S
C2454 N2452 1.356 . S
C2455 C2449 1.363 . S
C2455 C2450 1.379 . S
C2455 N2453 1.356 . S
N2456 C2448 1.356 . S
N2456 H2462 0.984 . S
N2456 H2463 0.984 . S
N2457 C2450 1.356 . S
N2457 H2460 0.984 . S
N2457 H2461 0.985 . S
H2458 N2453 0.984 . S
H2459 N2453 0.985 . S
H2460 N2457 0.984 . S
H2461 N2457 0.985 . S
H2462 N2456 0.984 . S
H2463 N2456 0.984 . S
H2464 N2452 0.984 . S
H2465 N2452 0.985 . S
C2466 C2467 1.365 1_556 S
C2466 C2472 1.379 . S
C2466 N2474 1.356 . S
C2467 C2466 1.365 1_554 S
C2467 C2473 1.361 . S
C2468 C2469 1.363 1_554 S
C2468 C2473 1.379 1_545 S
C2468 N2475 1.356 . S
C2469 C2468 1.363 1_556 S
C2469 C2472 1.363 1_545 S
N2470 C2472 1.356 1_545 S
N2470 H2482 0.984 . S
N2470 H2483 0.985 . S
N2471 C2473 1.356 . S
N2471 H2476 0.984 . S
N2471 H2477 0.985 . S
C2472 C2466 1.379 . S
C2472 C2469 1.363 1_565 S
C2472 N2470 1.356 1_565 S
C2473 C2467 1.361 . S
C2473 C2468 1.379 1_565 S
C2473 N2471 1.356 . S
N2474 C2466 1.356 . S
N2474 H2480 0.984 . S
N2474 H2481 0.984 . S
N2475 C2468 1.356 . S
N2475 H2478 0.984 . S
N2475 H2479 0.985 . S
H2476 N2471 0.984 . S
H2477 N2471 0.985 . S
H2478 N2475 0.984 . S
H2479 N2475 0.985 . S
H2480 N2474 0.984 . S
H2481 N2474 0.984 . S
H2482 N2470 0.984 . S
H2483 N2470 0.985 . S
C2484 C2485 1.362 . S
C2484 C2490 1.379 1_455 S
C2484 N2492 1.356 . S
C2485 C2484 1.362 . S
C2485 C2491 1.365 1_554 S
C2486 C2487 1.363 1_455 S
C2486 C2491 1.379 . S
C2486 N2493 1.356 1_455 S
C2487 C2486 1.363 1_655 S
C2487 C2490 1.363 1_556 S
N2488 C2490 1.356 . S
N2488 H2500 0.984 . S
N2488 H2501 0.985 . S
N2489 C2491 1.356 . S
N2489 H2494 0.984 . S
N2489 H2495 0.985 . S
C2490 C2484 1.379 1_655 S
C2490 C2487 1.363 1_554 S
C2490 N2488 1.356 . S
C2491 C2485 1.365 1_556 S
C2491 C2486 1.379 . S
C2491 N2489 1.356 . S
N2492 C2484 1.356 . S
N2492 H2498 0.984 . S
N2492 H2499 0.984 . S
N2493 C2486 1.356 1_655 S
N2493 H2496 0.984 . S
N2493 H2497 0.985 . S
H2494 N2489 0.984 . S
H2495 N2489 0.985 . S
H2496 N2493 0.984 . S
H2497 N2493 0.985 . S
H2498 N2492 0.984 . S
H2499 N2492 0.984 . S
H2500 N2488 0.984 . S
H2501 N2488 0.985 . S
C2502 C2503 1.363 . S
C2502 C2508 1.379 . S
C2502 N2510 1.356 . S
C2503 C2502 1.363 . S
C2503 C2509 1.363 1_556 S
C2504 C2505 1.361 1_554 S
C2504 C2509 1.379 . S
C2504 N2511 1.356 . S
C2505 C2504 1.361 1_556 S
C2505 C2508 1.365 . S
N2506 C2508 1.356 . S
N2506 H2518 0.984 . S
N2506 H2519 0.985 . S
N2507 C2509 1.356 . S
N2507 H2512 0.984 . S
N2507 H2513 0.985 . S
C2508 C2502 1.379 . S
C2508 C2505 1.365 . S
C2508 N2506 1.356 . S
C2509 C2503 1.363 1_554 S
C2509 C2504 1.379 . S
C2509 N2507 1.356 . S
N2510 C2502 1.356 . S
N2510 H2516 0.984 . S
N2510 H2517 0.984 . S
N2511 C2504 1.356 . S
N2511 H2514 0.984 . S
N2511 H2515 0.985 . S
H2512 N2507 0.984 . S
H2513 N2507 0.985 . S
H2514 N2511 0.984 . S
H2515 N2511 0.985 . S
H2516 N2510 0.984 . S
H2517 N2510 0.984 . S
H2518 N2506 0.984 . S
H2519 N2506 0.985 . S
C2520 C2521 1.363 . S
C2520 C2526 1.379 . S
C2520 N2528 1.356 . S
C2521 C2520 1.363 . S
C2521 C2527 1.363 . S
C2522 C2523 1.363 . S
C2522 C2527 1.379 . S
C2522 N2529 1.356 . S
C2523 C2522 1.363 . S
C2523 C2526 1.363 . S
N2524 C2526 1.356 1_565 S
N2524 H2536 0.984 . S
N2524 H2537 0.985 . S
N2525 C2527 1.356 . S
N2525 H2530 0.984 . S
N2525 H2531 0.985 . S
C2526 C2520 1.379 . S
C2526 C2523 1.363 . S
C2526 N2524 1.356 1_545 S
C2527 C2521 1.363 . S
C2527 C2522 1.379 . S
C2527 N2525 1.356 . S
N2528 C2520 1.356 . S
N2528 H2534 0.984 . S
N2528 H2535 0.984 . S
N2529 C2522 1.356 . S
N2529 H2532 0.984 . S
N2529 H2533 0.985 . S
H2530 N2525 0.984 . S
H2531 N2525 0.985 . S
H2532 N2529 0.984 . S
H2533 N2529 0.985 . S
H2534 N2528 0.984 . S
H2535 N2528 0.984 . S
H2536 N2524 0.984 . S
H2537 N2524 0.985 . S
C2538 C2539 1.363 . S
C2538 C2544 1.379 . S
C2538 N2546 1.356 . S
C2539 C2538 1.363 . S
C2539 C2545 1.363 . S
C2540 C2541 1.363 . S
C2540 C2545 1.379 . S
C2540 N2547 1.356 1_655 S
C2541 C2540 1.363 . S
C2541 C2544 1.363 . S
N2542 C2544 1.356 . S
N2542 H2554 0.984 . S
N2542 H2555 0.985 . S
N2543 C2545 1.356 . S
N2543 H2548 0.984 . S
N2543 H2549 0.985 . S
C2544 C2538 1.379 . S
C2544 C2541 1.363 . S
C2544 N2542 1.356 . S
C2545 C2539 1.363 . S
C2545 C2540 1.379 . S
C2545 N2543 1.356 . S
N2546 C2538 1.356 . S
N2546 H2552 0.984 . S
N2546 H2553 0.984 . S
N2547 C2540 1.356 1_455 S
N2547 H2550 0.984 . S
N2547 H2551 0.985 . S
H2548 N2543 0.984 . S
H2549 N2543 0.985 . S
H2550 N2547 0.984 . S
H2551 N2547 0.985 . S
H2552 N2546 0.984 . S
H2553 N2546 0.984 . S
H2554 N2542 0.984 . S
H2555 N2542 0.985 . S
C2556 C2557 1.363 . S
C2556 C2562 1.379 . S
C2556 N2564 1.356 . S
C2557 C2556 1.363 . S
C2557 C2563 1.363 . S
C2558 C2559 1.363 . S
C2558 C2563 1.379 . S
C2558 N2565 1.356 . S
C2559 C2558 1.363 . S
C2559 C2562 1.363 . S
N2560 C2562 1.356 . S
N2560 H2572 0.984 . S
N2560 H2573 0.985 . S
N2561 C2563 1.356 . S
N2561 H2566 0.984 . S
N2561 H2567 0.985 . S
C2562 C2556 1.379 . S
C2562 C2559 1.363 . S
C2562 N2560 1.356 . S
C2563 C2557 1.363 . S
C2563 C2558 1.379 . S
C2563 N2561 1.356 . S
N2564 C2556 1.356 . S
N2564 H2570 0.984 . S
N2564 H2571 0.984 . S
N2565 C2558 1.356 . S
N2565 H2568 0.984 . S
N2565 H2569 0.985 . S
H2566 N2561 0.984 . S
H2567 N2561 0.985 . S
H2568 N2565 0.984 . S
H2569 N2565 0.985 . S
H2570 N2564 0.984 . S
H2571 N2564 0.984 . S
H2572 N2560 0.984 . S
H2573 N2560 0.985 . S
C2574 C2575 1.363 1_545 S
C2574 C2580 1.379 . S
C2574 N2582 1.356 1_545 S
C2575 C2574 1.363 1_565 S
C2575 C2581 1.363 1_554 S
C2576 C2577 1.362 1_556 S
C2576 C2581 1.379 1_545 S
C2576 N2583 1.356 . S
C2577 C2576 1.362 1_554 S
C2577 C2580 1.365 . S
N2578 C2580 1.356 . S
N2578 H2590 0.984 . S
N2578 H2591 0.985 . S
N2579 C2581 1.356 . S
N2579 H2584 0.984 . S
N2579 H2585 0.985 . S
C2580 C2574 1.379 . S
C2580 C2577 1.365 . S
C2580 N2578 1.356 . S
C2581 C2575 1.363 1_556 S
C2581 C2576 1.379 1_565 S
C2581 N2579 1.356 . S
N2582 C2574 1.356 1_565 S
N2582 H2588 0.984 . S
N2582 H2589 0.984 . S
N2583 C2576 1.356 . S
N2583 H2586 0.984 . S
N2583 H2587 0.985 . S
H2584 N2579 0.984 . S
H2585 N2579 0.985 . S
H2586 N2583 0.984 . S
H2587 N2583 0.985 . S
H2588 N2582 0.984 . S
H2589 N2582 0.984 . S
H2590 N2578 0.984 . S
H2591 N2578 0.985 . S
C2592 C2593 1.361 . S
C2592 C2598 1.379 1_655 S
C2592 N2600 1.356 . S
C2593 C2592 1.361 . S
C2593 C2599 1.365 1_556 S
C2594 C2595 1.363 1_655 S
C2594 C2599 1.379 . S
C2594 N2601 1.356 1_655 S
C2595 C2594 1.363 1_455 S
C2595 C2598 1.363 1_554 S
N2596 C2598 1.356 . S
N2596 H2608 0.984 . S
N2596 H2609 0.985 . S
N2597 C2599 1.356 . S
N2597 H2602 0.984 . S
N2597 H2603 0.985 . S
C2598 C2592 1.379 1_455 S
C2598 C2595 1.363 1_556 S
C2598 N2596 1.356 . S
C2599 C2593 1.365 1_554 S
C2599 C2594 1.379 . S
C2599 N2597 1.356 . S
N2600 C2592 1.356 . S
N2600 H2606 0.984 . S
N2600 H2607 0.984 . S
N2601 C2594 1.356 1_455 S
N2601 H2604 0.984 . S
N2601 H2605 0.985 . S
H2602 N2597 0.984 . S
H2603 N2597 0.985 . S
H2604 N2601 0.984 . S
H2605 N2601 0.985 . S
H2606 N2600 0.984 . S
H2607 N2600 0.984 . S
H2608 N2596 0.984 . S
H2609 N2596 0.985 . S
C2610 C2611 1.363 . S
C2610 C2616 1.379 . S
C2610 N2618 1.356 . S
C2611 C2610 1.363 . S
C2611 C2617 1.363 1_554 S
C2612 C2613 1.361 1_556 S
C2612 C2617 1.379 . S
C2612 N2619 1.356 . S
C2613 C2612 1.361 1_554 S
C2613 C2616 1.365 . S
N2614 C2616 1.356 . S
N2614 H2626 0.984 . S
N2614 H2627 0.985 . S
N2615 C2617 1.356 . S
N2615 H2620 0.984 . S
N2615 H2621 0.985 . S
C2616 C2610 1.379 . S
C2616 C2613 1.365 . S
C2616 N2614 1.356 . S
C2617 C2611 1.363 1_556 S
C2617 C2612 1.379 . S
C2617 N2615 1.356 . S
N2618 C2610 1.356 . S
N2618 H2624 0.984 . S
N2618 H2625 0.984 . S
N2619 C2612 1.356 . S
N2619 H2622 0.984 . S
N2619 H2623 0.985 . S
H2620 N2615 0.984 . S
H2621 N2615 0.985 . S
H2622 N2619 0.984 . S
H2623 N2619 0.985 . S
H2624 N2618 0.984 . S
H2625 N2618 0.984 . S
H2626 N2614 0.984 . S
H2627 N2614 0.985 . S
C2628 C2629 1.363 . S
C2628 C2634 1.379 1_455 S
C2628 N2636 1.356 . S
C2629 C2628 1.363 . S
C2629 C2635 1.363 1_455 S
C2630 C2631 1.363 . S
C2630 C2635 1.379 . S
C2630 N2637 1.356 . S
C2631 C2630 1.363 . S
C2631 C2634 1.363 . S
N2632 C2634 1.356 . S
N2632 H2644 0.984 . S
N2632 H2645 0.985 . S
N2633 C2635 1.356 1_455 S
N2633 H2638 0.984 . S
N2633 H2639 0.985 . S
C2634 C2628 1.379 1_655 S
C2634 C2631 1.363 . S
C2634 N2632 1.356 . S
C2635 C2629 1.363 1_655 S
C2635 C2630 1.379 . S
C2635 N2633 1.356 1_655 S
N2636 C2628 1.356 . S
N2636 H2642 0.984 . S
N2636 H2643 0.984 . S
N2637 C2630 1.356 . S
N2637 H2640 0.984 . S
N2637 H2641 0.985 . S
H2638 N2633 0.984 . S
H2639 N2633 0.985 . S
H2640 N2637 0.984 . S
H2641 N2637 0.985 . S
H2642 N2636 0.984 . S
H2643 N2636 0.984 . S
H2644 N2632 0.984 . S
H2645 N2632 0.985 . S
C2646 C2647 1.363 . S
C2646 C2652 1.379 . S
C2646 N2654 1.356 . S
C2647 C2646 1.363 . S
C2647 C2653 1.363 . S
C2648 C2649 1.363 . S
C2648 C2653 1.379 . S
C2648 N2655 1.356 . S
C2649 C2648 1.363 . S
C2649 C2652 1.363 . S
N2650 C2652 1.356 . S
N2650 H2662 0.984 . S
N2650 H2663 0.985 . S
N2651 C2653 1.356 . S
N2651 H2656 0.984 . S
N2651 H2657 0.985 . S
C2652 C2646 1.379 . S
C2652 C2649 1.363 . S
C2652 N2650 1.356 . S
C2653 C2647 1.363 . S
C2653 C2648 1.379 . S
C2653 N2651 1.356 . S
N2654 C2646 1.356 . S
N2654 H2660 0.984 . S
N2654 H2661 0.984 . S
N2655 C2648 1.356 . S
N2655 H2658 0.984 . S
N2655 H2659 0.985 . S
H2656 N2651 0.984 . S
H2657 N2651 0.985 . S
H2658 N2655 0.984 . S
H2659 N2655 0.985 . S
H2660 N2654 0.984 . S
H2661 N2654 0.984 . S
H2662 N2650 0.984 . S
H2663 N2650 0.985 . S
C2664 C2665 1.363 1_545 S
C2664 C2670 1.379 . S
C2664 N2672 1.356 1_545 S
C2665 C2664 1.363 1_565 S
C2665 C2671 1.363 . S
C2666 C2667 1.363 . S
C2666 C2671 1.379 1_545 S
C2666 N2673 1.356 . S
C2667 C2666 1.363 . S
C2667 C2670 1.363 . S
N2668 C2670 1.356 . S
N2668 H2680 0.984 . S
N2668 H2681 0.985 . S
N2669 C2671 1.356 . S
N2669 H2674 0.984 . S
N2669 H2675 0.985 . S
C2670 C2664 1.379 . S
C2670 C2667 1.363 . S
C2670 N2668 1.356 . S
C2671 C2665 1.363 . S
C2671 C2666 1.379 1_565 S
C2671 N2669 1.356 . S
N2672 C2664 1.356 1_565 S
N2672 H2678 0.984 . S
N2672 H2679 0.984 . S
N2673 C2666 1.356 . S
N2673 H2676 0.984 . S
N2673 H2677 0.985 . S
H2674 N2669 0.984 . S
H2675 N2669 0.985 . S
H2676 N2673 0.984 . S
H2677 N2673 0.985 . S
H2678 N2672 0.984 . S
H2679 N2672 0.984 . S
H2680 N2668 0.984 . S
H2681 N2668 0.985 . S
C2682 C2683 1.363 . S
C2682 C2688 1.379 . S
C2682 N2690 1.356 . S
C2683 C2682 1.363 . S
C2683 C2689 1.363 . S
C2684 C2685 1.363 . S
C2684 C2689 1.379 . S
C2684 N2691 1.356 . S
C2685 C2684 1.363 . S
C2685 C2688 1.363 . S
N2686 C2688 1.356 . S
N2686 H2698 0.984 . S
N2686 H2699 0.985 . S
N2687 C2689 1.356 1_455 S
N2687 H2692 0.984 . S
N2687 H2693 0.985 . S
C2688 C2682 1.379 . S
C2688 C2685 1.363 . S
C2688 N2686 1.356 . S
C2689 C2683 1.363 . S
C2689 C2684 1.379 . S
C2689 N2687 1.356 1_655 S
N2690 C2682 1.356 . S
N2690 H2696 0.984 . S
N2690 H2697 0.984 . S
N2691 C2684 1.356 . S
N2691 H2694 0.984 . S
N2691 H2695 0.985 . S
H2692 N2687 0.984 . S
H2693 N2687 0.985 . S
H2694 N2691 0.984 . S
H2695 N2691 0.985 . S
H2696 N2690 0.984 . S
H2697 N2690 0.984 . S
H2698 N2686 0.984 . S
H2699 N2686 0.985 . S
C2700 C2701 1.363 . S
C2700 C2706 1.379 . S
C2700 N2708 1.356 . S
C2701 C2700 1.363 . S
C2701 C2707 1.363 . S
C2702 C2703 1.363 . S
C2702 C2707 1.379 . S
C2702 N2709 1.356 . S
C2703 C2702 1.363 . S
C2703 C2706 1.363 . S
N2704 C2706 1.356 . S
N2704 H2716 0.984 . S
N2704 H2717 0.985 . S
N2705 C2707 1.356 . S
N2705 H2710 0.984 . S
N2705 H2711 0.985 . S
C2706 C2700 1.379 . S
C2706 C2703 1.363 . S
C2706 N2704 1.356 . S
C2707 C2701 1.363 . S
C2707 C2702 1.379 . S
C2707 N2705 1.356 . S
N2708 C2700 1.356 . S
N2708 H2714 0.984 . S
N2708 H2715 0.984 . S
N2709 C2702 1.356 . S
N2709 H2712 0.984 . S
N2709 H2713 0.985 . S
H2710 N2705 0.984 . S
H2711 N2705 0.985 . S
H2712 N2709 0.984 . S
H2713 N2709 0.985 . S
H2714 N2708 0.984 . S
H2715 N2708 0.984 . S
H2716 N2704 0.984 . S
H2717 N2704 0.985 . S
C2718 C2719 1.363 . S
C2718 C2724 1.379 . S
C2718 N2726 1.356 . S
C2719 C2718 1.363 . S
C2719 C2725 1.363 . S
C2720 C2721 1.363 . S
C2720 C2725 1.379 . S
C2720 N2727 1.356 . S
C2721 C2720 1.363 . S
C2721 C2724 1.363 . S
N2722 C2724 1.356 1_565 S
N2722 H2734 0.984 . S
N2722 H2735 0.985 . S
N2723 C2725 1.356 . S
N2723 H2728 0.984 . S
N2723 H2729 0.985 . S
C2724 C2718 1.379 . S
C2724 C2721 1.363 . S
C2724 N2722 1.356 1_545 S
C2725 C2719 1.363 . S
C2725 C2720 1.379 . S
C2725 N2723 1.356 . S
N2726 C2718 1.356 . S
N2726 H2732 0.984 . S
N2726 H2733 0.984 . S
N2727 C2720 1.356 . S
N2727 H2730 0.984 . S
N2727 H2731 0.985 . S
H2728 N2723 0.984 . S
H2729 N2723 0.985 . S
H2730 N2727 0.984 . S
H2731 N2727 0.985 . S
H2732 N2726 0.984 . S
H2733 N2726 0.984 . S
H2734 N2722 0.984 . S
H2735 N2722 0.985 . S
C2736 C2737 1.363 . S
C2736 C2742 1.379 . S
C2736 N2744 1.356 . S
C2737 C2736 1.363 . S
C2737 C2743 1.363 . S
C2738 C2739 1.363 . S
C2738 C2743 1.379 . S
C2738 N2745 1.356 . S
C2739 C2738 1.363 . S
C2739 C2742 1.363 . S
N2740 C2742 1.356 . S
N2740 H2752 0.984 . S
N2740 H2753 0.985 . S
N2741 C2743 1.356 . S
N2741 H2746 0.984 . S
N2741 H2747 0.985 . S
C2742 C2736 1.379 . S
C2742 C2739 1.363 . S
C2742 N2740 1.356 . S
C2743 C2737 1.363 . S
C2743 C2738 1.379 . S
C2743 N2741 1.356 . S
N2744 C2736 1.356 . S
N2744 H2750 0.984 . S
N2744 H2751 0.984 . S
N2745 C2738 1.356 . S
N2745 H2748 0.984 . S
N2745 H2749 0.985 . S
H2746 N2741 0.984 . S
H2747 N2741 0.985 . S
H2748 N2745 0.984 . S
H2749 N2745 0.985 . S
H2750 N2744 0.984 . S
H2751 N2744 0.984 . S
H2752 N2740 0.984 . S
H2753 N2740 0.985 . S
C2754 C2755 1.363 . S
C2754 C2760 1.379 . S
C2754 N2762 1.356 . S
C2755 C2754 1.363 . S
C2755 C2761 1.363 . S
C2756 C2757 1.363 . S
C2756 C2761 1.379 . S
C2756 N2763 1.356 . S
C2757 C2756 1.363 . S
C2757 C2760 1.363 . S
N2758 C2760 1.356 . S
N2758 H2770 0.984 . S
N2758 H2771 0.985 . S
N2759 C2761 1.356 . S
N2759 H2764 0.984 . S
N2759 H2765 0.985 1_565 S
C2760 C2754 1.379 . S
C2760 C2757 1.363 . S
C2760 N2758 1.356 . S
C2761 C2755 1.363 . S
C2761 C2756 1.379 . S
C2761 N2759 1.356 . S
N2762 C2754 1.356 . S
N2762 H2768 0.984 . S
N2762 H2769 0.984 . S
N2763 C2756 1.356 . S
N2763 H2766 0.984 . S
N2763 H2767 0.985 1_565 S
H2764 N2759 0.984 . S
H2765 N2759 0.985 1_545 S
H2766 N2763 0.984 . S
H2767 N2763 0.985 1_545 S
H2768 N2762 0.984 . S
H2769 N2762 0.984 . S
H2770 N2758 0.984 . S
H2771 N2758 0.985 . S
C2772 C2773 1.363 . S
C2772 C2778 1.379 . S
C2772 N2780 1.356 . S
C2773 C2772 1.363 . S
C2773 C2779 1.363 . S
C2774 C2775 1.363 . S
C2774 C2779 1.379 . S
C2774 N2781 1.356 . S
C2775 C2774 1.363 . S
C2775 C2778 1.363 . S
N2776 C2778 1.356 . S
N2776 H2788 0.984 . S
N2776 H2789 0.985 . S
N2777 C2779 1.356 . S
N2777 H2782 0.984 . S
N2777 H2783 0.985 . S
C2778 C2772 1.379 . S
C2778 C2775 1.363 . S
C2778 N2776 1.356 . S
C2779 C2773 1.363 . S
C2779 C2774 1.379 . S
C2779 N2777 1.356 . S
N2780 C2772 1.356 . S
N2780 H2786 0.984 . S
N2780 H2787 0.984 . S
N2781 C2774 1.356 . S
N2781 H2784 0.984 . S
N2781 H2785 0.985 . S
H2782 N2777 0.984 . S
H2783 N2777 0.985 . S
H2784 N2781 0.984 . S
H2785 N2781 0.985 . S
H2786 N2780 0.984 . S
H2787 N2780 0.984 . S
H2788 N2776 0.984 . S
H2789 N2776 0.985 . S
C2790 C2791 1.363 . S
C2790 C2796 1.379 . S
C2790 N2798 1.356 . S
C2791 C2790 1.363 . S
C2791 C2797 1.363 . S
C2792 C2793 1.363 . S
C2792 C2797 1.379 . S
C2792 N2799 1.356 . S
C2793 C2792 1.363 . S
C2793 C2796 1.363 . S
N2794 C2796 1.356 . S
N2794 H2806 0.984 . S
N2794 H2807 0.985 . S
N2795 C2797 1.356 . S
N2795 H2800 0.984 . S
N2795 H2801 0.985 . S
C2796 C2790 1.379 . S
C2796 C2793 1.363 . S
C2796 N2794 1.356 . S
C2797 C2791 1.363 . S
C2797 C2792 1.379 . S
C2797 N2795 1.356 . S
N2798 C2790 1.356 . S
N2798 H2804 0.984 . S
N2798 H2805 0.984 . S
N2799 C2792 1.356 . S
N2799 H2802 0.984 . S
N2799 H2803 0.985 . S
H2800 N2795 0.984 . S
H2801 N2795 0.985 . S
H2802 N2799 0.984 . S
H2803 N2799 0.985 . S
H2804 N2798 0.984 . S
H2805 N2798 0.984 . S
H2806 N2794 0.984 . S
H2807 N2794 0.985 . S
C2808 C2809 1.363 . S
C2808 C2814 1.379 . S
C2808 N2816 1.356 . S
C2809 C2808 1.363 . S
C2809 C2815 1.363 . S
C2810 C2811 1.363 . S
C2810 C2815 1.379 . S
C2810 N2817 1.356 . S
C2811 C2810 1.363 . S
C2811 C2814 1.363 . S
N2812 C2814 1.356 . S
N2812 H2824 0.984 . S
N2812 H2825 0.985 . S
N2813 C2815 1.356 . S
N2813 H2818 0.984 . S
N2813 H2819 0.985 1_545 S
C2814 C2808 1.379 . S
C2814 C2811 1.363 . S
C2814 N2812 1.356 . S
C2815 C2809 1.363 . S
C2815 C2810 1.379 . S
C2815 N2813 1.356 . S
N2816 C2808 1.356 . S
N2816 H2822 0.984 . S
N2816 H2823 0.984 . S
N2817 C2810 1.356 . S
N2817 H2820 0.984 . S
N2817 H2821 0.985 1_545 S
H2818 N2813 0.984 . S
H2819 N2813 0.985 1_565 S
H2820 N2817 0.984 . S
H2821 N2817 0.985 1_565 S
H2822 N2816 0.984 . S
H2823 N2816 0.984 . S
H2824 N2812 0.984 . S
H2825 N2812 0.985 . S
C2826 C2827 1.363 . S
C2826 C2832 1.379 . S
C2826 N2834 1.356 . S
C2827 C2826 1.363 . S
C2827 C2833 1.363 . S
C2828 C2829 1.363 . S
C2828 C2833 1.379 . S
C2828 N2835 1.349 1_655 S
C2829 C2828 1.363 . S
C2829 C2832 1.363 . S
N2830 C2832 1.356 . S
N2830 H2842 0.984 . S
N2830 H2843 0.985 . S
N2831 C2833 1.356 . S
N2831 H2836 0.984 . S
N2831 H2837 0.985 1_655 S
C2832 C2826 1.379 . S
C2832 C2829 1.363 . S
C2832 N2830 1.356 . S
C2833 C2827 1.363 . S
C2833 C2828 1.379 . S
C2833 N2831 1.356 . S
N2834 C2826 1.356 . S
N2834 H2840 0.984 . S
N2834 H2841 0.984 . S
N2835 C2828 1.349 1_455 S
N2835 H2838 0.981 1_455 S
N2835 H2839 0.995 . S
H2836 N2831 0.984 . S
H2837 N2831 0.985 1_455 S
H2838 N2835 0.981 1_655 S
H2839 N2835 0.995 . S
H2840 N2834 0.984 . S
H2841 N2834 0.984 . S
H2842 N2830 0.984 . S
H2843 N2830 0.985 . S
C2844 C2845 1.363 . S
C2844 C2850 1.379 . S
C2844 N2852 1.356 . S
C2845 C2844 1.363 . S
C2845 C2851 1.363 . S
C2846 C2847 1.363 . S
C2846 C2851 1.379 . S
C2846 N2853 1.356 . S
C2847 C2846 1.363 . S
C2847 C2850 1.363 . S
N2848 C2850 1.356 . S
N2848 H2860 0.984 . S
N2848 H2861 0.985 . S
N2849 C2851 1.356 . S
N2849 H2854 0.984 . S
N2849 H2855 0.985 . S
C2850 C2844 1.379 . S
C2850 C2847 1.363 . S
C2850 N2848 1.356 . S
C2851 C2845 1.363 . S
C2851 C2846 1.379 . S
C2851 N2849 1.356 . S
N2852 C2844 1.356 . S
N2852 H2858 0.984 . S
N2852 H2859 0.984 . S
N2853 C2846 1.356 . S
N2853 H2856 0.984 . S
N2853 H2857 0.985 . S
H2854 N2849 0.984 . S
H2855 N2849 0.985 . S
H2856 N2853 0.984 . S
H2857 N2853 0.985 . S
H2858 N2852 0.984 . S
H2859 N2852 0.984 . S
H2860 N2848 0.984 . S
H2861 N2848 0.985 . S
C2862 C2863 1.363 . S
C2862 C2868 1.379 . S
C2862 N2870 1.356 . S
C2863 C2862 1.363 . S
C2863 C2869 1.363 . S
C2864 C2865 1.363 . S
C2864 C2869 1.379 . S
C2864 N2871 1.356 . S
C2865 C2864 1.363 . S
C2865 C2868 1.363 . S
N2866 C2868 1.356 . S
N2866 H2878 0.984 . S
N2866 H2879 0.985 . S
N2867 C2869 1.356 . S
N2867 H2872 0.984 . S
N2867 H2873 0.985 1_545 S
C2868 C2862 1.379 . S
C2868 C2865 1.363 . S
C2868 N2866 1.356 . S
C2869 C2863 1.363 . S
C2869 C2864 1.379 . S
C2869 N2867 1.356 . S
N2870 C2862 1.356 . S
N2870 H2876 0.984 . S
N2870 H2877 0.984 . S
N2871 C2864 1.356 . S
N2871 H2874 0.984 . S
N2871 H2875 0.985 1_545 S
H2872 N2867 0.984 . S
H2873 N2867 0.985 1_565 S
H2874 N2871 0.984 . S
H2875 N2871 0.985 1_565 S
H2876 N2870 0.984 . S
H2877 N2870 0.984 . S
H2878 N2866 0.984 . S
H2879 N2866 0.985 . S
C2880 C2881 1.363 . S
C2880 C2886 1.379 . S
C2880 N2888 1.356 . S
C2881 C2880 1.363 . S
C2881 C2887 1.363 . S
C2882 C2883 1.363 . S
C2882 C2887 1.379 . S
C2882 N2889 1.356 . S
C2883 C2882 1.363 . S
C2883 C2886 1.363 . S
N2884 C2886 1.356 . S
N2884 H2896 0.984 1_655 S
N2884 H2897 0.985 . S
N2885 C2887 1.356 . S
N2885 H2890 0.984 . S
N2885 H2891 0.985 . S
C2886 C2880 1.379 . S
C2886 C2883 1.363 . S
C2886 N2884 1.356 . S
C2887 C2881 1.363 . S
C2887 C2882 1.379 . S
C2887 N2885 1.356 . S
N2888 C2880 1.356 . S
N2888 H2894 0.984 1_655 S
N2888 H2895 0.984 . S
N2889 C2882 1.356 . S
N2889 H2892 0.984 . S
N2889 H2893 0.985 . S
H2890 N2885 0.984 . S
H2891 N2885 0.985 . S
H2892 N2889 0.984 . S
H2893 N2889 0.985 . S
H2894 N2888 0.984 1_455 S
H2895 N2888 0.984 . S
H2896 N2884 0.984 1_455 S
H2897 N2884 0.985 . S
C2898 C2899 1.363 . S
C2898 C2904 1.379 . S
C2898 N2906 1.356 . S
C2899 C2898 1.363 . S
C2899 C2905 1.363 . S
C2900 C2901 1.363 . S
C2900 C2905 1.379 . S
C2900 N2907 1.356 . S
C2901 C2900 1.363 . S
C2901 C2904 1.363 . S
N2902 C2904 1.356 . S
N2902 H2914 0.984 . S
N2902 H2915 0.985 . S
N2903 C2905 1.356 . S
N2903 H2908 0.984 . S
N2903 H2909 0.985 . S
C2904 C2898 1.379 . S
C2904 C2901 1.363 . S
C2904 N2902 1.356 . S
C2905 C2899 1.363 . S
C2905 C2900 1.379 . S
C2905 N2903 1.356 . S
N2906 C2898 1.356 . S
N2906 H2912 0.984 . S
N2906 H2913 0.984 . S
N2907 C2900 1.356 . S
N2907 H2910 0.984 . S
N2907 H2911 0.985 . S
H2908 N2903 0.984 . S
H2909 N2903 0.985 . S
H2910 N2907 0.984 . S
H2911 N2907 0.985 . S
H2912 N2906 0.984 . S
H2913 N2906 0.984 . S
H2914 N2902 0.984 . S
H2915 N2902 0.985 . S
C2916 C2917 1.363 . S
C2916 C2922 1.379 . S
C2916 N2924 1.356 . S
C2917 C2916 1.363 . S
C2917 C2923 1.363 . S
C2918 C2919 1.363 . S
C2918 C2923 1.379 . S
C2918 N2925 1.356 . S
C2919 C2918 1.363 . S
C2919 C2922 1.363 . S
N2920 C2922 1.356 . S
N2920 H2932 0.984 . S
N2920 H2933 0.985 . S
N2921 C2923 1.356 . S
N2921 H2926 0.984 . S
N2921 H2927 0.985 1_565 S
C2922 C2916 1.379 . S
C2922 C2919 1.363 . S
C2922 N2920 1.356 . S
C2923 C2917 1.363 . S
C2923 C2918 1.379 . S
C2923 N2921 1.356 . S
N2924 C2916 1.356 . S
N2924 H2930 0.984 . S
N2924 H2931 0.984 . S
N2925 C2918 1.356 . S
N2925 H2928 0.984 . S
N2925 H2929 0.985 1_565 S
H2926 N2921 0.984 . S
H2927 N2921 0.985 1_545 S
H2928 N2925 0.984 . S
H2929 N2925 0.985 1_545 S
H2930 N2924 0.984 . S
H2931 N2924 0.984 . S
H2932 N2920 0.984 . S
H2933 N2920 0.985 . S
C2934 C2935 1.363 . S
C2934 C2940 1.379 . S
C2934 N2942 1.356 1_455 S
C2935 C2934 1.363 . S
C2935 C2941 1.363 . S
C2936 C2937 1.363 . S
C2936 C2941 1.379 . S
C2936 N2943 1.356 . S
C2937 C2936 1.363 . S
C2937 C2940 1.363 . S
N2938 C2940 1.356 . S
N2938 H2950 0.984 1_455 S
N2938 H2951 0.985 . S
N2939 C2941 1.356 . S
N2939 H2944 0.984 . S
N2939 H2945 0.985 . S
C2940 C2934 1.379 . S
C2940 C2937 1.363 . S
C2940 N2938 1.356 . S
C2941 C2935 1.363 . S
C2941 C2936 1.379 . S
C2941 N2939 1.356 . S
N2942 C2934 1.356 1_655 S
N2942 H2948 0.984 . S
N2942 H2949 0.989 . S
N2943 C2936 1.356 . S
N2943 H2946 0.984 . S
N2943 H2947 0.985 . S
H2944 N2939 0.984 . S
H2945 N2939 0.985 . S
H2946 N2943 0.984 . S
H2947 N2943 0.985 . S
H2948 N2942 0.984 . S
H2949 N2942 0.989 . S
H2950 N2938 0.984 1_655 S
H2951 N2938 0.985 . S
C2952 C2953 1.363 1_655 S
C2952 C2958 1.379 . S
C2952 N2960 1.356 . S
C2953 C2952 1.363 1_455 S
C2953 C2959 1.363 . S
C2954 C2955 1.363 1_455 S
C2954 C2959 1.379 . S
C2954 N2961 1.356 . S
C2955 C2954 1.363 1_655 S
C2955 C2958 1.363 . S
N2956 C2958 1.356 . S
N2956 H2968 0.984 . S
N2956 H2969 0.985 . S
N2957 C2959 1.356 . S
N2957 H2962 0.984 . S
N2957 H2963 0.985 . S
C2958 C2952 1.379 . S
C2958 C2955 1.363 . S
C2958 N2956 1.356 . S
C2959 C2953 1.363 . S
C2959 C2954 1.379 . S
C2959 N2957 1.356 . S
N2960 C2952 1.356 . S
N2960 H2966 0.984 . S
N2960 H2967 0.984 . S
N2961 C2954 1.356 . S
N2961 H2964 0.984 . S
N2961 H2965 0.985 . S
H2962 N2957 0.984 . S
H2963 N2957 0.985 . S
H2964 N2961 0.984 . S
H2965 N2961 0.985 . S
H2966 N2960 0.984 . S
H2967 N2960 0.984 . S
H2968 N2956 0.984 . S
H2969 N2956 0.985 . S
C2970 C2971 1.363 . S
C2970 C2976 1.379 . S
C2970 N2978 1.356 . S
C2971 C2970 1.363 . S
C2971 C2977 1.363 . S
C2972 C2973 1.363 . S
C2972 C2977 1.379 . S
C2972 N2979 1.356 . S
C2973 C2972 1.363 . S
C2973 C2976 1.363 . S
N2974 C2976 1.356 . S
N2974 H2986 0.984 . S
N2974 H2987 0.985 . S
N2975 C2977 1.356 . S
N2975 H2980 0.984 . S
N2975 H2981 0.985 . S
C2976 C2970 1.379 . S
C2976 C2973 1.363 . S
C2976 N2974 1.356 . S
C2977 C2971 1.363 . S
C2977 C2972 1.379 . S
C2977 N2975 1.356 . S
N2978 C2970 1.356 . S
N2978 H2984 0.984 . S
N2978 H2985 0.984 . S
N2979 C2972 1.356 . S
N2979 H2982 0.984 . S
N2979 H2983 0.985 . S
H2980 N2975 0.984 . S
H2981 N2975 0.985 . S
H2982 N2979 0.984 . S
H2983 N2979 0.985 . S
H2984 N2978 0.984 . S
H2985 N2978 0.984 . S
H2986 N2974 0.984 . S
H2987 N2974 0.985 . S
C2988 C2989 1.363 . S
C2988 C2994 1.379 . S
C2988 N2996 1.356 . S
C2989 C2988 1.363 . S
C2989 C2995 1.363 1_565 S
C2990 C2991 1.363 . S
C2990 C2995 1.379 . S
C2990 N2997 1.356 . S
C2991 C2990 1.363 . S
C2991 C2994 1.363 1_545 S
N2992 C2994 1.356 . S
N2992 H3004 0.984 . S
N2992 H3005 0.985 . S
N2993 C2995 1.356 . S
N2993 H2998 0.984 . S
N2993 H2999 0.985 . S
C2994 C2988 1.379 . S
C2994 C2991 1.363 1_565 S
C2994 N2992 1.356 . S
C2995 C2989 1.363 1_545 S
C2995 C2990 1.379 . S
C2995 N2993 1.356 . S
N2996 C2988 1.356 . S
N2996 H3002 0.984 . S
N2996 H3003 0.984 . S
N2997 C2990 1.356 . S
N2997 H3000 0.984 . S
N2997 H3001 0.985 . S
H2998 N2993 0.984 . S
H2999 N2993 0.985 . S
H3000 N2997 0.984 . S
H3001 N2997 0.985 . S
H3002 N2996 0.984 . S
H3003 N2996 0.984 . S
H3004 N2992 0.984 . S
H3005 N2992 0.985 . S
C3006 C3007 1.363 1_545 S
C3006 C3012 1.379 . S
C3006 N3014 1.356 . S
C3007 C3006 1.363 1_565 S
C3007 C3013 1.363 . S
C3008 C3009 1.363 1_565 S
C3008 C3013 1.379 . S
C3008 N3015 1.356 . S
C3009 C3008 1.363 1_545 S
C3009 C3012 1.363 . S
N3010 C3012 1.356 . S
N3010 H3022 0.984 . S
N3010 H3023 0.985 . S
N3011 C3013 1.356 . S
N3011 H3016 0.984 . S
N3011 H3017 0.985 . S
C3012 C3006 1.379 . S
C3012 C3009 1.363 . S
C3012 N3010 1.356 . S
C3013 C3007 1.363 . S
C3013 C3008 1.379 . S
C3013 N3011 1.356 . S
N3014 C3006 1.356 . S
N3014 H3020 0.984 . S
N3014 H3021 0.984 . S
N3015 C3008 1.356 . S
N3015 H3018 0.984 . S
N3015 H3019 0.985 . S
H3016 N3011 0.984 . S
H3017 N3011 0.985 . S
H3018 N3015 0.984 . S
H3019 N3015 0.985 . S
H3020 N3014 0.984 . S
H3021 N3014 0.984 . S
H3022 N3010 0.984 . S
H3023 N3010 0.985 . S
C3024 C3025 1.363 . S
C3024 C3030 1.379 . S
C3024 N3032 1.356 . S
C3025 C3024 1.363 . S
C3025 C3031 1.363 1_655 S
C3026 C3027 1.363 . S
C3026 C3031 1.379 . S
C3026 N3033 1.356 . S
C3027 C3026 1.363 . S
C3027 C3030 1.363 1_455 S
N3028 C3030 1.356 . S
N3028 H3040 0.984 . S
N3028 H3041 0.985 . S
N3029 C3031 1.356 . S
N3029 H3034 0.984 . S
N3029 H3035 0.985 . S
C3030 C3024 1.379 . S
C3030 C3027 1.363 1_655 S
C3030 N3028 1.356 . S
C3031 C3025 1.363 1_455 S
C3031 C3026 1.379 . S
C3031 N3029 1.356 . S
N3032 C3024 1.356 . S
N3032 H3038 0.984 . S
N3032 H3039 0.984 . S
N3033 C3026 1.356 . S
N3033 H3036 0.984 . S
N3033 H3037 0.985 . S
H3034 N3029 0.984 . S
H3035 N3029 0.985 . S
H3036 N3033 0.984 . S
H3037 N3033 0.985 . S
H3038 N3032 0.984 . S
H3039 N3032 0.984 . S
H3040 N3028 0.984 . S
H3041 N3028 0.985 . S
C3042 C3043 1.363 . S
C3042 C3048 1.379 . S
C3042 N3050 1.356 . S
C3043 C3042 1.363 . S
C3043 C3049 1.363 . S
C3044 C3045 1.363 . S
C3044 C3049 1.379 . S
C3044 N3051 1.356 . S
C3045 C3044 1.363 . S
C3045 C3048 1.363 . S
N3046 C3048 1.356 . S
N3046 H3058 0.984 . S
N3046 H3059 0.985 . S
N3047 C3049 1.356 . S
N3047 H3052 0.984 . S
N3047 H3053 0.985 . S
C3048 C3042 1.379 . S
C3048 C3045 1.363 . S
C3048 N3046 1.356 . S
C3049 C3043 1.363 . S
C3049 C3044 1.379 . S
C3049 N3047 1.356 . S
N3050 C3042 1.356 . S
N3050 H3056 0.984 . S
N3050 H3057 0.984 . S
N3051 C3044 1.356 . S
N3051 H3054 0.984 . S
N3051 H3055 0.985 . S
H3052 N3047 0.984 . S
H3053 N3047 0.985 . S
H3054 N3051 0.984 . S
H3055 N3051 0.985 . S
H3056 N3050 0.984 . S
H3057 N3050 0.984 . S
H3058 N3046 0.984 . S
H3059 N3046 0.985 . S
C3060 C3061 1.363 . S
C3060 C3066 1.379 1_655 S
C3060 N3068 1.356 . S
C3061 C3060 1.363 . S
C3061 C3067 1.363 . S
C3062 C3063 1.363 . S
C3062 C3067 1.379 1_455 S
C3062 N3069 1.356 . S
C3063 C3062 1.363 . S
C3063 C3066 1.363 . S
N3064 C3066 1.356 . S
N3064 H3076 0.984 . S
N3064 H3077 0.985 . S
N3065 C3067 1.356 . S
N3065 H3070 0.984 . S
N3065 H3071 0.985 . S
C3066 C3060 1.379 1_455 S
C3066 C3063 1.363 . S
C3066 N3064 1.356 . S
C3067 C3061 1.363 . S
C3067 C3062 1.379 1_655 S
C3067 N3065 1.356 . S
N3068 C3060 1.356 . S
N3068 H3074 0.984 . S
N3068 H3075 0.984 . S
N3069 C3062 1.356 . S
N3069 H3072 0.984 . S
N3069 H3073 0.985 . S
H3070 N3065 0.984 . S
H3071 N3065 0.985 . S
H3072 N3069 0.984 . S
H3073 N3069 0.985 . S
H3074 N3068 0.984 . S
H3075 N3068 0.984 . S
H3076 N3064 0.984 . S
H3077 N3064 0.985 . S
C3078 C3079 1.363 . S
C3078 C3084 1.379 . S
C3078 N3086 1.356 . S
C3079 C3078 1.363 . S
C3079 C3085 1.363 . S
C3080 C3081 1.363 . S
C3080 C3085 1.379 . S
C3080 N3087 1.356 . S
C3081 C3080 1.363 . S
C3081 C3084 1.363 . S
N3082 C3084 1.356 . S
N3082 H3094 0.984 . S
N3082 H3095 0.985 . S
N3083 C3085 1.356 . S
N3083 H3088 0.984 . S
N3083 H3089 0.985 . S
C3084 C3078 1.379 . S
C3084 C3081 1.363 . S
C3084 N3082 1.356 . S
C3085 C3079 1.363 . S
C3085 C3080 1.379 . S
C3085 N3083 1.356 . S
N3086 C3078 1.356 . S
N3086 H3092 0.984 . S
N3086 H3093 0.984 . S
N3087 C3080 1.356 . S
N3087 H3090 0.984 . S
N3087 H3091 0.985 . S
H3088 N3083 0.984 . S
H3089 N3083 0.985 . S
H3090 N3087 0.984 . S
H3091 N3087 0.985 . S
H3092 N3086 0.984 . S
H3093 N3086 0.984 . S
H3094 N3082 0.984 . S
H3095 N3082 0.985 . S
C3096 C3097 1.363 . S
C3096 C3102 1.379 . S
C3096 N3104 1.356 . S
C3097 C3096 1.363 . S
C3097 C3103 1.363 1_545 S
C3098 C3099 1.363 . S
C3098 C3103 1.379 . S
C3098 N3105 1.356 . S
C3099 C3098 1.363 . S
C3099 C3102 1.363 1_565 S
N3100 C3102 1.356 . S
N3100 H3112 0.984 . S
N3100 H3113 0.985 . S
N3101 C3103 1.356 . S
N3101 H3106 0.984 . S
N3101 H3107 0.985 . S
C3102 C3096 1.379 . S
C3102 C3099 1.363 1_545 S
C3102 N3100 1.356 . S
C3103 C3097 1.363 1_565 S
C3103 C3098 1.379 . S
C3103 N3101 1.356 . S
N3104 C3096 1.356 . S
N3104 H3110 0.984 . S
N3104 H3111 0.984 . S
N3105 C3098 1.356 . S
N3105 H3108 0.984 . S
N3105 H3109 0.985 . S
H3106 N3101 0.984 . S
H3107 N3101 0.985 . S
H3108 N3105 0.984 . S
H3109 N3105 0.985 . S
H3110 N3104 0.984 . S
H3111 N3104 0.984 . S
H3112 N3100 0.984 . S
H3113 N3100 0.985 . S
C3114 C3115 1.363 . S
C3114 C3120 1.379 1_655 S
C3114 N3122 1.356 . S
C3115 C3114 1.363 . S
C3115 C3121 1.363 . S
C3116 C3117 1.363 . S
C3116 C3121 1.379 1_455 S
C3116 N3123 1.356 . S
C3117 C3116 1.363 . S
C3117 C3120 1.363 . S
N3118 C3120 1.356 . S
N3118 H3130 0.984 . S
N3118 H3131 0.985 . S
N3119 C3121 1.356 . S
N3119 H3124 0.984 . S
N3119 H3125 0.985 . S
C3120 C3114 1.379 1_455 S
C3120 C3117 1.363 . S
C3120 N3118 1.356 . S
C3121 C3115 1.363 . S
C3121 C3116 1.379 1_655 S
C3121 N3119 1.356 . S
N3122 C3114 1.356 . S
N3122 H3128 0.984 . S
N3122 H3129 0.984 . S
N3123 C3116 1.356 . S
N3123 H3126 0.984 . S
N3123 H3127 0.985 . S
H3124 N3119 0.984 . S
H3125 N3119 0.985 . S
H3126 N3123 0.984 . S
H3127 N3123 0.985 . S
H3128 N3122 0.984 . S
H3129 N3122 0.984 . S
H3130 N3118 0.984 . S
H3131 N3118 0.985 . S
C3132 C3133 1.363 . S
C3132 C3138 1.379 . S
C3132 N3140 1.356 . S
C3133 C3132 1.363 . S
C3133 C3139 1.363 . S
C3134 C3135 1.363 . S
C3134 C3139 1.379 . S
C3134 N3141 1.356 . S
C3135 C3134 1.363 . S
C3135 C3138 1.363 . S
N3136 C3138 1.356 . S
N3136 H3148 0.984 . S
N3136 H3149 0.985 . S
N3137 C3139 1.356 . S
N3137 H3142 0.984 . S
N3137 H3143 0.985 . S
C3138 C3132 1.379 . S
C3138 C3135 1.363 . S
C3138 N3136 1.356 . S
C3139 C3133 1.363 . S
C3139 C3134 1.379 . S
C3139 N3137 1.356 . S
N3140 C3132 1.356 . S
N3140 H3146 0.984 . S
N3140 H3147 0.984 . S
N3141 C3134 1.356 . S
N3141 H3144 0.984 . S
N3141 H3145 0.985 . S
H3142 N3137 0.984 . S
H3143 N3137 0.985 . S
H3144 N3141 0.984 . S
H3145 N3141 0.985 . S
H3146 N3140 0.984 . S
H3147 N3140 0.984 . S
H3148 N3136 0.984 . S
H3149 N3136 0.985 . S
C3150 C3151 1.363 . S
C3150 C3156 1.379 . S
C3150 N3158 1.356 . S
C3151 C3150 1.363 . S
C3151 C3157 1.363 1_545 S
C3152 C3153 1.363 . S
C3152 C3157 1.379 . S
C3152 N3159 1.356 . S
C3153 C3152 1.363 . S
C3153 C3156 1.363 1_565 S
N3154 C3156 1.356 . S
N3154 H3166 0.984 . S
N3154 H3167 0.985 . S
N3155 C3157 1.356 . S
N3155 H3160 0.984 . S
N3155 H3161 0.985 . S
C3156 C3150 1.379 . S
C3156 C3153 1.363 1_545 S
C3156 N3154 1.356 . S
C3157 C3151 1.363 1_565 S
C3157 C3152 1.379 . S
C3157 N3155 1.356 . S
N3158 C3150 1.356 . S
N3158 H3164 0.984 . S
N3158 H3165 0.984 . S
N3159 C3152 1.356 . S
N3159 H3162 0.984 . S
N3159 H3163 0.985 . S
H3160 N3155 0.984 . S
H3161 N3155 0.985 . S
H3162 N3159 0.984 . S
H3163 N3159 0.985 . S
H3164 N3158 0.984 . S
H3165 N3158 0.984 . S
H3166 N3154 0.984 . S
H3167 N3154 0.985 . S
C3168 C3169 1.363 . S
C3168 C3174 1.379 . S
C3168 N3176 1.356 . S
C3169 C3168 1.363 . S
C3169 C3175 1.363 . S
C3170 C3171 1.363 . S
C3170 C3175 1.379 . S
C3170 N3177 1.356 . S
C3171 C3170 1.363 . S
C3171 C3174 1.363 . S
N3172 C3174 1.356 . S
N3172 H3184 0.984 . S
N3172 H3185 0.985 . S
N3173 C3175 1.356 . S
N3173 H3178 0.984 . S
N3173 H3179 0.985 . S
C3174 C3168 1.379 . S
C3174 C3171 1.363 . S
C3174 N3172 1.356 . S
C3175 C3169 1.363 . S
C3175 C3170 1.379 . S
C3175 N3173 1.356 . S
N3176 C3168 1.356 . S
N3176 H3182 0.984 . S
N3176 H3183 0.984 . S
N3177 C3170 1.356 . S
N3177 H3180 0.984 . S
N3177 H3181 0.985 . S
H3178 N3173 0.984 . S
H3179 N3173 0.985 . S
H3180 N3177 0.984 . S
H3181 N3177 0.985 . S
H3182 N3176 0.984 . S
H3183 N3176 0.984 . S
H3184 N3172 0.984 . S
H3185 N3172 0.985 . S
C3186 C3187 1.363 . S
C3186 C3192 1.379 . S
C3186 N3194 1.356 . S
C3187 C3186 1.363 . S
C3187 C3193 1.363 . S
C3188 C3189 1.363 . S
C3188 C3193 1.379 . S
C3188 N3195 1.356 . S
C3189 C3188 1.363 . S
C3189 C3192 1.363 . S
N3190 C3192 1.356 . S
N3190 H3202 0.984 . S
N3190 H3203 0.985 . S
N3191 C3193 1.356 . S
N3191 H3196 0.984 . S
N3191 H3197 0.985 . S
C3192 C3186 1.379 . S
C3192 C3189 1.363 . S
C3192 N3190 1.356 . S
C3193 C3187 1.363 . S
C3193 C3188 1.379 . S
C3193 N3191 1.356 . S
N3194 C3186 1.356 . S
N3194 H3200 0.984 . S
N3194 H3201 0.984 . S
N3195 C3188 1.356 . S
N3195 H3198 0.984 . S
N3195 H3199 0.985 . S
H3196 N3191 0.984 . S
H3197 N3191 0.985 . S
H3198 N3195 0.984 . S
H3199 N3195 0.985 . S
H3200 N3194 0.984 . S
H3201 N3194 0.984 . S
H3202 N3190 0.984 . S
H3203 N3190 0.985 . S
C3204 C3205 1.363 . S
C3204 C3210 1.379 . S
C3204 N3212 1.356 . S
C3205 C3204 1.363 . S
C3205 C3211 1.363 . S
C3206 C3207 1.363 . S
C3206 C3211 1.379 . S
C3206 N3213 1.356 . S
C3207 C3206 1.363 . S
C3207 C3210 1.363 . S
N3208 C3210 1.356 . S
N3208 H3220 0.984 . S
N3208 H3221 0.985 . S
N3209 C3211 1.356 . S
N3209 H3214 0.984 . S
N3209 H3215 0.985 . S
C3210 C3204 1.379 . S
C3210 C3207 1.363 . S
C3210 N3208 1.356 . S
C3211 C3205 1.363 . S
C3211 C3206 1.379 . S
C3211 N3209 1.356 . S
N3212 C3204 1.356 . S
N3212 H3218 0.984 . S
N3212 H3219 0.984 . S
N3213 C3206 1.356 . S
N3213 H3216 0.984 . S
N3213 H3217 0.985 . S
H3214 N3209 0.984 . S
H3215 N3209 0.985 . S
H3216 N3213 0.984 . S
H3217 N3213 0.985 . S
H3218 N3212 0.984 . S
H3219 N3212 0.984 . S
H3220 N3208 0.984 . S
H3221 N3208 0.985 . S
C3222 C3223 1.363 . S
C3222 C3228 1.379 . S
C3222 N3230 1.356 . S
C3223 C3222 1.363 . S
C3223 C3229 1.363 . S
C3224 C3225 1.363 . S
C3224 C3229 1.379 . S
C3224 N3231 1.356 . S
C3225 C3224 1.363 . S
C3225 C3228 1.363 . S
N3226 C3228 1.356 . S
N3226 H3238 0.984 . S
N3226 H3239 0.985 . S
N3227 C3229 1.356 . S
N3227 H3232 0.984 . S
N3227 H3233 0.985 . S
C3228 C3222 1.379 . S
C3228 C3225 1.363 . S
C3228 N3226 1.356 . S
C3229 C3223 1.363 . S
C3229 C3224 1.379 . S
C3229 N3227 1.356 . S
N3230 C3222 1.356 . S
N3230 H3236 0.984 . S
N3230 H3237 0.984 . S
N3231 C3224 1.356 . S
N3231 H3234 0.984 . S
N3231 H3235 0.985 . S
H3232 N3227 0.984 . S
H3233 N3227 0.985 . S
H3234 N3231 0.984 . S
H3235 N3231 0.985 . S
H3236 N3230 0.984 . S
H3237 N3230 0.984 . S
H3238 N3226 0.984 . S
H3239 N3226 0.985 . S
C3240 C3241 1.363 . S
C3240 C3246 1.379 . S
C3240 N3248 1.356 . S
C3241 C3240 1.363 . S
C3241 C3247 1.363 . S
C3242 C3243 1.363 . S
C3242 C3247 1.379 . S
C3242 N3249 1.356 . S
C3243 C3242 1.363 . S
C3243 C3246 1.363 . S
N3244 C3246 1.356 . S
N3244 H3256 0.984 . S
N3244 H3257 0.985 . S
N3245 C3247 1.356 . S
N3245 H3250 0.984 . S
N3245 H3251 0.985 . S
C3246 C3240 1.379 . S
C3246 C3243 1.363 . S
C3246 N3244 1.356 . S
C3247 C3241 1.363 . S
C3247 C3242 1.379 . S
C3247 N3245 1.356 . S
N3248 C3240 1.356 . S
N3248 H3254 0.984 . S
N3248 H3255 0.984 . S
N3249 C3242 1.356 . S
N3249 H3252 0.984 . S
N3249 H3253 0.985 . S
H3250 N3245 0.984 . S
H3251 N3245 0.985 . S
H3252 N3249 0.984 . S
H3253 N3249 0.985 . S
H3254 N3248 0.984 . S
H3255 N3248 0.984 . S
H3256 N3244 0.984 . S
H3257 N3244 0.985 . S
C3258 C3259 1.363 . S
C3258 C3264 1.379 . S
C3258 N3266 1.356 . S
C3259 C3258 1.363 . S
C3259 C3265 1.363 . S
C3260 C3261 1.363 . S
C3260 C3265 1.379 . S
C3260 N3267 1.356 . S
C3261 C3260 1.363 . S
C3261 C3264 1.363 . S
N3262 C3264 1.356 . S
N3262 H3274 0.984 . S
N3262 H3275 0.985 . S
N3263 C3265 1.356 . S
N3263 H3268 0.984 . S
N3263 H3269 0.985 . S
C3264 C3258 1.379 . S
C3264 C3261 1.363 . S
C3264 N3262 1.356 . S
C3265 C3259 1.363 . S
C3265 C3260 1.379 . S
C3265 N3263 1.356 . S
N3266 C3258 1.356 . S
N3266 H3272 0.984 . S
N3266 H3273 0.984 . S
N3267 C3260 1.356 . S
N3267 H3270 0.984 . S
N3267 H3271 0.985 . S
H3268 N3263 0.984 . S
H3269 N3263 0.985 . S
H3270 N3267 0.984 . S
H3271 N3267 0.985 . S
H3272 N3266 0.984 . S
H3273 N3266 0.984 . S
H3274 N3262 0.984 . S
H3275 N3262 0.985 . S
C3276 C3277 1.363 . S
C3276 C3282 1.379 . S
C3276 N3284 1.356 . S
C3277 C3276 1.363 . S
C3277 C3283 1.363 . S
C3278 C3279 1.363 . S
C3278 C3283 1.379 . S
C3278 N3285 1.356 . S
C3279 C3278 1.363 . S
C3279 C3282 1.363 . S
N3280 C3282 1.356 . S
N3280 H3292 0.984 . S
N3280 H3293 0.985 . S
N3281 C3283 1.356 . S
N3281 H3286 0.984 . S
N3281 H3287 0.985 . S
C3282 C3276 1.379 . S
C3282 C3279 1.363 . S
C3282 N3280 1.356 . S
C3283 C3277 1.363 . S
C3283 C3278 1.379 . S
C3283 N3281 1.356 . S
N3284 C3276 1.356 . S
N3284 H3290 0.984 . S
N3284 H3291 0.984 . S
N3285 C3278 1.356 . S
N3285 H3288 0.984 . S
N3285 H3289 0.985 . S
H3286 N3281 0.984 . S
H3287 N3281 0.985 . S
H3288 N3285 0.984 . S
H3289 N3285 0.985 . S
H3290 N3284 0.984 . S
H3291 N3284 0.984 . S
H3292 N3280 0.984 . S
H3293 N3280 0.985 . S
C3294 C3295 1.363 . S
C3294 C3300 1.379 . S
C3294 N3302 1.356 . S
C3295 C3294 1.363 . S
C3295 C3301 1.363 . S
C3296 C3297 1.363 . S
C3296 C3301 1.379 . S
C3296 N3303 1.356 . S
C3297 C3296 1.363 . S
C3297 C3300 1.363 . S
N3298 C3300 1.356 . S
N3298 H3310 0.984 . S
N3298 H3311 0.985 . S
N3299 C3301 1.356 . S
N3299 H3304 0.984 . S
N3299 H3305 0.985 . S
C3300 C3294 1.379 . S
C3300 C3297 1.363 . S
C3300 N3298 1.356 . S
C3301 C3295 1.363 . S
C3301 C3296 1.379 . S
C3301 N3299 1.356 . S
N3302 C3294 1.356 . S
N3302 H3308 0.984 . S
N3302 H3309 0.984 . S
N3303 C3296 1.356 . S
N3303 H3306 0.984 . S
N3303 H3307 0.985 . S
H3304 N3299 0.984 . S
H3305 N3299 0.985 . S
H3306 N3303 0.984 . S
H3307 N3303 0.985 . S
H3308 N3302 0.984 . S
H3309 N3302 0.984 . S
H3310 N3298 0.984 . S
H3311 N3298 0.985 . S
C3312 C3313 1.363 . S
C3312 C3318 1.379 . S
C3312 N3320 1.356 . S
C3313 C3312 1.363 . S
C3313 C3319 1.363 . S
C3314 C3315 1.363 . S
C3314 C3319 1.379 . S
C3314 N3321 1.356 . S
C3315 C3314 1.363 . S
C3315 C3318 1.363 . S
N3316 C3318 1.356 . S
N3316 H3328 0.984 . S
N3316 H3329 0.985 . S
N3317 C3319 1.356 . S
N3317 H3322 0.984 . S
N3317 H3323 0.985 . S
C3318 C3312 1.379 . S
C3318 C3315 1.363 . S
C3318 N3316 1.356 . S
C3319 C3313 1.363 . S
C3319 C3314 1.379 . S
C3319 N3317 1.356 . S
N3320 C3312 1.356 . S
N3320 H3326 0.984 . S
N3320 H3327 0.984 . S
N3321 C3314 1.356 . S
N3321 H3324 0.984 . S
N3321 H3325 0.985 . S
H3322 N3317 0.984 . S
H3323 N3317 0.985 . S
H3324 N3321 0.984 . S
H3325 N3321 0.985 . S
H3326 N3320 0.984 . S
H3327 N3320 0.984 . S
H3328 N3316 0.984 . S
H3329 N3316 0.985 . S
C3330 C3331 1.363 . S
C3330 C3336 1.379 . S
C3330 N3338 1.356 . S
C3331 C3330 1.363 . S
C3331 C3337 1.363 . S
C3332 C3333 1.363 . S
C3332 C3337 1.379 . S
C3332 N3339 1.356 . S
C3333 C3332 1.363 . S
C3333 C3336 1.363 . S
N3334 C3336 1.356 . S
N3334 H3346 0.984 . S
N3334 H3347 0.985 . S
N3335 C3337 1.356 . S
N3335 H3340 0.984 . S
N3335 H3341 0.985 . S
C3336 C3330 1.379 . S
C3336 C3333 1.363 . S
C3336 N3334 1.356 . S
C3337 C3331 1.363 . S
C3337 C3332 1.379 . S
C3337 N3335 1.356 . S
N3338 C3330 1.356 . S
N3338 H3344 0.984 . S
N3338 H3345 0.984 . S
N3339 C3332 1.356 . S
N3339 H3342 0.984 . S
N3339 H3343 0.985 . S
H3340 N3335 0.984 . S
H3341 N3335 0.985 . S
H3342 N3339 0.984 . S
H3343 N3339 0.985 . S
H3344 N3338 0.984 . S
H3345 N3338 0.984 . S
H3346 N3334 0.984 . S
H3347 N3334 0.985 . S
C3348 C3349 1.363 . S
C3348 C3354 1.379 . S
C3348 N3356 1.356 . S
C3349 C3348 1.363 . S
C3349 C3355 1.363 . S
C3350 C3351 1.363 . S
C3350 C3355 1.379 . S
C3350 N3357 1.356 . S
C3351 C3350 1.363 . S
C3351 C3354 1.363 . S
N3352 C3354 1.356 . S
N3352 H3364 0.984 . S
N3352 H3365 0.985 . S
N3353 C3355 1.356 . S
N3353 H3358 0.984 . S
N3353 H3359 0.985 . S
C3354 C3348 1.379 . S
C3354 C3351 1.363 . S
C3354 N3352 1.356 . S
C3355 C3349 1.363 . S
C3355 C3350 1.379 . S
C3355 N3353 1.356 . S
N3356 C3348 1.356 . S
N3356 H3362 0.984 . S
N3356 H3363 0.984 . S
N3357 C3350 1.356 . S
N3357 H3360 0.984 . S
N3357 H3361 0.985 . S
H3358 N3353 0.984 . S
H3359 N3353 0.985 . S
H3360 N3357 0.984 . S
H3361 N3357 0.985 . S
H3362 N3356 0.984 . S
H3363 N3356 0.984 . S
H3364 N3352 0.984 . S
H3365 N3352 0.985 . S
C3366 C3367 1.363 . S
C3366 C3372 1.379 . S
C3366 N3374 1.356 . S
C3367 C3366 1.363 . S
C3367 C3373 1.363 . S
C3368 C3369 1.363 . S
C3368 C3373 1.379 . S
C3368 N3375 1.356 . S
C3369 C3368 1.363 . S
C3369 C3372 1.363 . S
N3370 C3372 1.356 . S
N3370 H3382 0.984 . S
N3370 H3383 0.985 . S
N3371 C3373 1.356 . S
N3371 H3376 0.984 . S
N3371 H3377 0.985 . S
C3372 C3366 1.379 . S
C3372 C3369 1.363 . S
C3372 N3370 1.356 . S
C3373 C3367 1.363 . S
C3373 C3368 1.379 . S
C3373 N3371 1.356 . S
N3374 C3366 1.356 . S
N3374 H3380 0.984 . S
N3374 H3381 0.984 . S
N3375 C3368 1.356 . S
N3375 H3378 0.984 . S
N3375 H3379 0.985 . S
H3376 N3371 0.984 . S
H3377 N3371 0.985 . S
H3378 N3375 0.984 . S
H3379 N3375 0.985 . S
H3380 N3374 0.984 . S
H3381 N3374 0.984 . S
H3382 N3370 0.984 . S
H3383 N3370 0.985 . S
C1441 C17 1.747 . S
C1443 C92 1.831 1_545 S
C1459 C12 1.832 1_655 S
C1461 C57 1.748 1_545 S
C1477 C97 1.748 1_655 S
C1479 C52 1.832 . S
C1495 C137 1.814 . S
C1497 C172 1.897 1_455 S
C1513 C212 1.898 . S
C1515 C177 1.815 1_565 S
C1531 C217 1.815 1_455 S
C1533 C132 1.898 1_565 S
C1549 C242 1.747 . S
C1551 C351 1.831 1_565 S
C1567 C282 1.748 1_565 S
C1569 C271 1.832 1_455 S
C1585 C322 1.748 1_455 S
C1587 C311 1.832 . S
C1603 C362 1.814 . S
C1605 C431 1.897 1_655 S
C1621 C471 1.898 . S
C1623 C402 1.815 1_545 S
C1639 C391 1.898 1_545 S
C1641 C442 1.815 1_655 S
C1657 C572 1.889 . S
C1659 C497 1.805 . S
C1675 C537 1.804 . S
C1677 C492 1.888 . S
C1693 C532 1.889 . S
C1695 C577 1.805 . S
C1711 C617 1.831 . S
C1713 C652 1.912 . S
C1729 C692 1.912 . S
C1731 C657 1.831 . S
C1747 C612 1.912 . S
C1749 C697 1.831 . S
C1765 C722 1.776 . S
C1767 C831 1.859 . S
C1783 C762 1.776 . S
C1785 C751 1.859 . S
C1801 C791 1.859 . S
C1803 C802 1.775 . S
C1819 C911 1.750 . S
C1821 C842 1.686 1_554 S
C1837 C882 1.686 1_554 S
C1839 C951 1.751 . S
C1855 C871 1.750 . S
C1857 C922 1.685 1_554 S
C1873 C977 1.776 . S
C1875 C1052 1.859 . S
C1891 C1017 1.776 . S
C1893 C972 1.859 . S
C1909 C1057 1.775 . S
C1911 C1012 1.859 . S
C1927 C1097 1.686 1_556 S
C1929 C1132 1.750 . S
C1945 C1137 1.686 1_556 S
C1947 C1172 1.751 . S
C1963 C1177 1.685 1_556 S
C1965 C1092 1.750 . S
C1981 C1202 1.805 . S
C1983 C1311 1.889 . S
C1999 C1242 1.804 . S
C2001 C1231 1.888 . S
C2017 C1271 1.889 . S
C2019 C1282 1.805 . S
C2035 C1322 1.831 . S
C2037 C1391 1.912 . S
C2053 C1362 1.831 . S
C2055 C1431 1.912 . S
C2071 C1351 1.912 . S
C2073 C1402 1.831 . S
C2089 C31 1.894 . S
C2091 C817 1.840 . S
C2107 C737 1.839 1_565 S
C2109 C71 1.894 . S
C2125 C111 1.894 . S
C2127 C777 1.839 1_455 S
C2143 C151 1.813 . S
C2145 C1377 1.750 . S
C2161 C1417 1.750 1_545 S
C2163 C191 1.813 . S
C2179 C231 1.813 . S
C2181 C1337 1.750 1_655 S
C2197 C1042 1.840 . S
C2199 C252 1.894 . S
C2215 C292 1.894 . S
C2217 C962 1.839 1_545 S
C2233 C332 1.894 . S
C2235 C1002 1.839 1_655 S
C2251 C642 1.750 . S
C2253 C372 1.813 . S
C2269 C682 1.750 1_565 S
C2271 C412 1.813 . S
C2287 C602 1.750 1_455 S
C2289 C452 1.813 . S
C2305 C511 1.854 . S
C2307 C1297 1.795 . S
C2323 C551 1.854 . S
C2325 C1217 1.795 . S
C2341 C1257 1.795 . S
C2343 C591 1.854 . S
C2359 C417 1.786 . S
C2361 C631 1.848 1_455 S
C2377 C457 1.786 . S
C2379 C671 1.848 . S
C2395 C377 1.786 . S
C2397 C711 1.848 1_565 S
C2413 C82 1.836 . S
C2415 C732 1.889 1_565 S
C2431 C772 1.890 1_455 S
C2433 C2 1.837 . S
C2449 C812 1.889 . S
C2451 C42 1.836 . S
C2467 C1122 1.811 1_554 S
C2469 C852 1.891 . S
C2485 C1162 1.811 1_554 S
C2487 C892 1.891 . S
C2503 C932 1.890 . S
C2505 C1082 1.809 . S
C2521 C337 1.836 . S
C2523 C991 1.889 1_545 S
C2539 C257 1.837 . S
C2541 C1031 1.890 1_655 S
C2557 C297 1.836 . S
C2559 C1071 1.889 . S
C2575 C1111 1.890 . S
C2577 C897 1.809 . S
C2593 C937 1.811 1_556 S
C2595 C1151 1.891 . S
C2611 C1191 1.890 . S
C2613 C857 1.809 . S
C2629 C1212 1.854 . S
C2631 C562 1.795 . S
C2647 C1252 1.854 . S
C2649 C482 1.795 . S
C2665 C1292 1.854 . S
C2667 C522 1.795 . S
C2683 C1332 1.848 1_655 S
C2685 C162 1.786 . S
C2701 C202 1.786 . S
C2703 C1372 1.848 . S
C2719 C122 1.786 . S
C2721 C1412 1.848 1_545 S
C2737 C1168 2.220 . S
C2739 C8 2.215 . S
C2755 C1088 2.220 . S
C2757 C48 2.215 . S
C2773 C88 2.229 . S
C2775 C1128 2.207 . S
C2791 C528 2.392 . S
C2793 C128 2.390 . S
C2809 C168 2.390 . S
C2811 C568 2.392 . S
C2827 C208 2.389 . S
C2829 C488 2.392 . S
C2845 C269 2.228 . S
C2847 C949 2.207 . S
C2863 C309 2.229 . S
C2865 C869 2.207 . S
C2881 C349 2.229 . S
C2883 C909 2.207 . S
C2899 C1269 2.392 . S
C2901 C389 2.389 . S
C2917 C1309 2.392 . S
C2919 C429 2.389 . S
C2935 C1229 2.392 . S
C2937 C469 2.389 . S
C2953 C608 2.422 . S
C2955 C1008 2.427 . S
C2971 C648 2.422 . S
C2973 C1048 2.428 . S
C2989 C688 2.422 . S
C2991 C968 2.428 . S
C3007 C749 2.428 . S
C3009 C1429 2.422 . S
C3025 C1349 2.422 . S
C3027 C789 2.427 . S
C3043 C829 2.428 . S
C3045 C1389 2.422 . S
C3061 C189 1.238 . S
C3063 C29 1.240 . S
C3079 C229 1.238 . S
C3081 C69 1.240 . S
C3097 C149 1.238 . S
C3099 C109 1.240 . S
C3115 C248 1.240 . S
C3117 C408 1.238 . S
C3133 C448 1.238 . S
C3135 C288 1.240 . S
C3151 C328 1.240 . S
C3153 C368 1.238 . S
C3169 C669 1.302 . S
C3171 C509 1.304 . S
C3187 C709 1.302 . S
C3189 C549 1.304 . S
C3205 C629 1.302 . S
C3207 C589 1.304 . S
C3223 C888 1.511 . S
C3225 C728 1.551 . S
C3241 C768 1.539 . S
C3243 C928 1.524 . S
C3259 C808 1.539 . S
C3261 C848 1.524 . S
C3277 C989 1.539 . S
C3279 C1149 1.524 . S
C3295 C1189 1.511 . S
C3297 C1029 1.551 . S
C3313 C1069 1.539 . S
C3315 C1109 1.524 . S
C3331 C1208 1.304 . S
C3333 C1368 1.302 . S
C3349 C1408 1.302 . S
C3351 C1248 1.304 . S
C3367 C1288 1.304 . S
C3369 C1328 1.302 . S
