# Generated by pormake.
# Topology bcs, (6)-cn, num edge types: 1
# Building blocks:
#     Node 0, Type 0, BuildingBlock: FUNLAD_clean_sbu_0, # of connection points: 6
#     Node 1, Type 0, BuildingBlock: FUNLAD_clean_sbu_0, # of connection points: 6
#     Node 2, Type 0, BuildingBlock: FUNLAD_clean_sbu_0, # of connection points: 6
#     Node 3, Type 0, BuildingBlock: FUNLAD_clean_sbu_0, # of connection points: 6
#     Node 4, Type 0, BuildingBlock: FUNLAD_clean_sbu_0, # of connection points: 6
#     Node 5, Type 0, BuildingBlock: FUNLAD_clean_sbu_0, # of connection points: 6
#     Node 6, Type 0, BuildingBlock: FUNLAD_clean_sbu_0, # of connection points: 6
#     Node 7, Type 0, BuildingBlock: FUNLAD_clean_sbu_0, # of connection points: 6
#     Node 8, Type 0, BuildingBlock: FUNLAD_clean_sbu_0, # of connection points: 6
#     Node 9, Type 0, BuildingBlock: FUNLAD_clean_sbu_0, # of connection points: 6
#     Node 10, Type 0, BuildingBlock: FUNLAD_clean_sbu_0, # of connection points: 6
#     Node 11, Type 0, BuildingBlock: FUNLAD_clean_sbu_0, # of connection points: 6
#     Node 12, Type 0, BuildingBlock: FUNLAD_clean_sbu_0, # of connection points: 6
#     Node 13, Type 0, BuildingBlock: FUNLAD_clean_sbu_0, # of connection points: 6
#     Node 14, Type 0, BuildingBlock: FUNLAD_clean_sbu_0, # of connection points: 6
#     Node 15, Type 0, BuildingBlock: FUNLAD_clean_sbu_0, # of connection points: 6
#     Edge 16, Type (0, 0), BuildingBlock: CIFDUS_clean_linker_0, # of connection points: 2
#     Edge 17, Type (0, 0), BuildingBlock: CIFDUS_clean_linker_0, # of connection points: 2
#     Edge 18, Type (0, 0), BuildingBlock: CIFDUS_clean_linker_0, # of connection points: 2
#     Edge 19, Type (0, 0), BuildingBlock: CIFDUS_clean_linker_0, # of connection points: 2
#     Edge 20, Type (0, 0), BuildingBlock: CIFDUS_clean_linker_0, # of connection points: 2
#     Edge 21, Type (0, 0), BuildingBlock: CIFDUS_clean_linker_0, # of connection points: 2
#     Edge 22, Type (0, 0), BuildingBlock: CIFDUS_clean_linker_0, # of connection points: 2
#     Edge 23, Type (0, 0), BuildingBlock: CIFDUS_clean_linker_0, # of connection points: 2
#     Edge 24, Type (0, 0), BuildingBlock: CIFDUS_clean_linker_0, # of connection points: 2
#     Edge 25, Type (0, 0), BuildingBlock: CIFDUS_clean_linker_0, # of connection points: 2
#     Edge 26, Type (0, 0), BuildingBlock: CIFDUS_clean_linker_0, # of connection points: 2
#     Edge 27, Type (0, 0), BuildingBlock: CIFDUS_clean_linker_0, # of connection points: 2
#     Edge 28, Type (0, 0), BuildingBlock: CIFDUS_clean_linker_0, # of connection points: 2
#     Edge 29, Type (0, 0), BuildingBlock: CIFDUS_clean_linker_0, # of connection points: 2
#     Edge 30, Type (0, 0), BuildingBlock: CIFDUS_clean_linker_0, # of connection points: 2
#     Edge 31, Type (0, 0), BuildingBlock: CIFDUS_clean_linker_0, # of connection points: 2
#     Edge 32, Type (0, 0), BuildingBlock: CIFDUS_clean_linker_0, # of connection points: 2
#     Edge 33, Type (0, 0), BuildingBlock: CIFDUS_clean_linker_0, # of connection points: 2
#     Edge 34, Type (0, 0), BuildingBlock: CIFDUS_clean_linker_0, # of connection points: 2
#     Edge 35, Type (0, 0), BuildingBlock: CIFDUS_clean_linker_0, # of connection points: 2
#     Edge 36, Type (0, 0), BuildingBlock: CIFDUS_clean_linker_0, # of connection points: 2
#     Edge 37, Type (0, 0), BuildingBlock: CIFDUS_clean_linker_0, # of connection points: 2
#     Edge 38, Type (0, 0), BuildingBlock: CIFDUS_clean_linker_0, # of connection points: 2
#     Edge 39, Type (0, 0), BuildingBlock: CIFDUS_clean_linker_0, # of connection points: 2
#     Edge 40, Type (0, 0), BuildingBlock: CIFDUS_clean_linker_0, # of connection points: 2
#     Edge 41, Type (0, 0), BuildingBlock: CIFDUS_clean_linker_0, # of connection points: 2
#     Edge 42, Type (0, 0), BuildingBlock: CIFDUS_clean_linker_0, # of connection points: 2
#     Edge 43, Type (0, 0), BuildingBlock: CIFDUS_clean_linker_0, # of connection points: 2
#     Edge 44, Type (0, 0), BuildingBlock: CIFDUS_clean_linker_0, # of connection points: 2
#     Edge 45, Type (0, 0), BuildingBlock: CIFDUS_clean_linker_0, # of connection points: 2
#     Edge 46, Type (0, 0), BuildingBlock: CIFDUS_clean_linker_0, # of connection points: 2
#     Edge 47, Type (0, 0), BuildingBlock: CIFDUS_clean_linker_0, # of connection points: 2
#     Edge 48, Type (0, 0), BuildingBlock: CIFDUS_clean_linker_0, # of connection points: 2
#     Edge 49, Type (0, 0), BuildingBlock: CIFDUS_clean_linker_0, # of connection points: 2
#     Edge 50, Type (0, 0), BuildingBlock: CIFDUS_clean_linker_0, # of connection points: 2
#     Edge 51, Type (0, 0), BuildingBlock: CIFDUS_clean_linker_0, # of connection points: 2
#     Edge 52, Type (0, 0), BuildingBlock: CIFDUS_clean_linker_0, # of connection points: 2
#     Edge 53, Type (0, 0), BuildingBlock: CIFDUS_clean_linker_0, # of connection points: 2
#     Edge 54, Type (0, 0), BuildingBlock: CIFDUS_clean_linker_0, # of connection points: 2
#     Edge 55, Type (0, 0), BuildingBlock: CIFDUS_clean_linker_0, # of connection points: 2
#     Edge 56, Type (0, 0), BuildingBlock: CIFDUS_clean_linker_0, # of connection points: 2
#     Edge 57, Type (0, 0), BuildingBlock: CIFDUS_clean_linker_0, # of connection points: 2
#     Edge 58, Type (0, 0), BuildingBlock: CIFDUS_clean_linker_0, # of connection points: 2
#     Edge 59, Type (0, 0), BuildingBlock: CIFDUS_clean_linker_0, # of connection points: 2
#     Edge 60, Type (0, 0), BuildingBlock: CIFDUS_clean_linker_0, # of connection points: 2
#     Edge 61, Type (0, 0), BuildingBlock: CIFDUS_clean_linker_0, # of connection points: 2
#     Edge 62, Type (0, 0), BuildingBlock: CIFDUS_clean_linker_0, # of connection points: 2
#     Edge 63, Type (0, 0), BuildingBlock: CIFDUS_clean_linker_0, # of connection points: 2
# Relax obj value: 0.573
# Max RMSD: 0.303
# Mean RMSD: 0.245
data_MOF--net-bcs--node1-FUNLAD_clean_sbu_0--edge1-CIFDUS_clean_linker_0
_symmetry_space_group_name_H-M    P1
_symmetry_Int_Tables_number       1
_symmetry_cell_setting            triclinic
loop_
_symmetry_equiv_pos_as_xyz
'x, y, z'
_cell_length_a     34.408841
_cell_length_b     33.969629
_cell_length_c     34.665628
_cell_angle_alpha  76.852675
_cell_angle_beta   76.693737
_cell_angle_gamma 70.459271
loop_
_atom_site_label
_atom_site_type_symbol
_atom_site_fract_x
_atom_site_fract_y
_atom_site_fract_z
_atom_type_partial_charge
C0 C 0.93681 0.07671 0.04511 0.0
N1 N 0.92113 0.97753 1.00378 0.0
C2 C 0.89178 0.97734 0.03747 0.0
C3 C 0.85748 0.96416 0.03843 0.0
C4 C 0.85397 0.94984 1.00485 0.0
C5 C 0.8843 0.95069 0.97024 0.0
C6 C 0.91759 0.96551 0.97012 0.0
Zn7 Zn 0.96817 0.00083 1.00283 0.0
C8 C 0.96645 0.07181 0.93077 0.0
N9 N 0.05918 0.05934 0.99818 0.0
C10 C 0.05948 0.07039 0.03358 0.0
C11 C 0.08954 0.06227 0.96584 0.0
C12 C 0.12184 0.077 0.96838 0.0
C13 C 0.12239 0.08909 1.00437 0.0
C14 C 0.09077 0.08607 0.03717 0.0
Zn15 Zn 0.01401 0.03476 0.99672 0.0
O16 O 0.92653 0.04596 0.03985 0.0
C17 C 0.01471 0.9635 0.06926 0.0
O18 O 0.97231 0.08057 0.02867 0.0
H19 H 0.08867 0.05312 0.9382 0.0
H20 H 0.89531 0.98667 0.06396 0.0
H21 H 0.03547 0.06695 0.05927 0.0
O22 O 0.98647 0.9575 0.05526 0.0
O23 O 0.02987 0.99346 0.05131 0.0
H24 H 0.94097 0.96671 0.94339 0.0
O25 O 0.05721 0.98824 0.9637 0.0
O26 O 0.01075 0.95582 0.96741 0.0
O27 O 0.99691 0.07659 0.94238 0.0
O28 O 0.95023 0.04322 0.95057 0.0
C29 C 0.04785 0.95812 0.95574 0.0
H30 H 0.83547 0.96225 0.06624 0.0
H31 H 0.88306 0.93856 0.94437 0.0
H32 H 0.14561 0.08 0.9422 0.0
H33 H 0.09028 0.09574 0.06502 0.0
C34 C 0.15885 0.82836 0.23152 0.0
N35 N 0.23798 0.71426 0.19691 0.0
C36 C 0.20193 0.70666 0.19557 0.0
C37 C 0.19999 0.6862 0.16591 0.0
C38 C 0.23521 0.67388 0.13678 0.0
C39 C 0.27224 0.68178 0.13842 0.0
C40 C 0.27301 0.70209 0.16921 0.0
Zn41 Zn 0.23325 0.74886 0.24031 0.0
C42 C 0.28241 0.81777 0.20689 0.0
N43 N 0.21709 0.82573 0.32746 0.0
C44 C 0.21819 0.86638 0.31553 0.0
C45 C 0.22429 0.80437 0.36471 0.0
C46 C 0.23878 0.82178 0.38936 0.0
C47 C 0.24606 0.86115 0.37507 0.0
C48 C 0.23286 0.8848 0.33904 0.0
Zn49 Zn 0.22213 0.79146 0.28426 0.0
O50 O 0.17968 0.79408 0.21826 0.0
C51 C 0.1736 0.72257 0.31852 0.0
O52 O 0.16921 0.83682 0.26096 0.0
H53 H 0.22354 0.77194 0.37343 0.0
H54 H 0.17405 0.71746 0.21697 0.0
H55 H 0.21233 0.88274 0.28584 0.0
O56 O 0.19157 0.71232 0.28401 0.0
O57 O 0.18034 0.75437 0.32701 0.0
H58 H 0.3012 0.70886 0.17049 0.0
O59 O 0.27543 0.74716 0.30568 0.0
O60 O 0.28738 0.70367 0.26326 0.0
O61 O 0.26485 0.82713 0.24176 0.0
O62 O 0.2748 0.7869 0.19739 0.0
C63 C 0.2975 0.71339 0.29219 0.0
H64 H 0.17083 0.68089 0.16516 0.0
H65 H 0.29991 0.67273 0.11611 0.0
H66 H 0.24889 0.80259 0.41686 0.0
H67 H 0.2381 0.9153 0.32712 0.0
C68 C 0.56177 0.94271 0.53683 0.0
N69 N 0.5752 0.06279 0.486 0.0
C70 C 0.5878 0.05543 0.52211 0.0
C71 C 0.61614 0.07403 0.52724 0.0
C72 C 0.63132 0.10147 0.49528 0.0
C73 C 0.61747 0.10951 0.45835 0.0
C74 C 0.5895 0.0892 0.45417 0.0
Zn75 Zn 0.53407 0.03105 0.48475 0.0
C76 C 0.55817 0.9808 0.42144 0.0
N77 N 0.45018 0.95959 0.49614 0.0
C78 C 0.43357 0.93349 0.52651 0.0
C79 C 0.43874 0.96925 0.45928 0.0
C80 C 0.40955 0.95344 0.45176 0.0
C81 C 0.39255 0.92551 0.48172 0.0
C82 C 0.40453 0.91579 0.51985 0.0
Zn83 Zn 0.49207 0.98993 0.49881 0.0
O84 O 0.56994 0.97702 0.51973 0.0
C85 C 0.46939 0.03875 0.56284 0.0
O86 O 0.52896 0.93651 0.53179 0.0
H87 H 0.45208 0.98972 0.43516 0.0
H88 H 0.57555 0.03531 0.54746 0.0
H89 H 0.44288 0.92628 0.5557 0.0
O90 O 0.49795 0.05251 0.5391 0.0
O91 O 0.45809 0.01059 0.55351 0.0
H92 H 0.57898 0.0948 0.42575 0.0
O93 O 0.45518 0.04435 0.4677 0.0
O94 O 0.49625 0.0849 0.44995 0.0
O95 O 0.5277 0.96924 0.44382 0.0
O96 O 0.57003 0.00828 0.43124 0.0
C97 C 0.46163 0.07906 0.44988 0.0
H98 H 0.62513 0.06798 0.55651 0.0
H99 H 0.62812 0.13108 0.43321 0.0
H100 H 0.40042 0.96333 0.42233 0.0
H101 H 0.39214 0.89443 0.54391 0.0
C102 C 0.25018 0.28427 0.81883 0.0
N103 N 0.37863 0.20985 0.80811 0.0
C104 C 0.38974 0.24597 0.80096 0.0
C105 C 0.42448 0.24616 0.81512 0.0
C106 C 0.44751 0.20893 0.83713 0.0
C107 C 0.43683 0.1716 0.84195 0.0
C108 C 0.40219 0.17273 0.82691 0.0
Zn109 Zn 0.32374 0.21016 0.7954 0.0
C110 C 0.27802 0.16792 0.86467 0.0
N111 N 0.21054 0.20533 0.76892 0.0
C112 C 0.18951 0.23699 0.74253 0.0
C113 C 0.20213 0.16758 0.77999 0.0
C114 C 0.1749 0.15896 0.76115 0.0
C115 C 0.15696 0.1891 0.73 0.0
C116 C 0.16253 0.22945 0.72242 0.0
Zn117 Zn 0.26407 0.2087 0.78219 0.0
O118 O 0.28938 0.2684 0.81947 0.0
C119 C 0.31038 0.25141 0.7132 0.0
O120 O 0.2321 0.2659 0.80358 0.0
H121 H 0.21924 0.14278 0.8009 0.0
H122 H 0.3705 0.27503 0.78599 0.0
H123 H 0.19645 0.2669 0.73434 0.0
O124 O 0.33549 0.2436 0.73759 0.0
O125 O 0.27687 0.24121 0.72428 0.0
H126 H 0.39293 0.14427 0.83209 0.0
O127 O 0.2968 0.15106 0.75975 0.0
O128 O 0.35581 0.15396 0.77073 0.0
O129 O 0.25215 0.17704 0.84076 0.0
O130 O 0.31233 0.17635 0.85302 0.0
C131 C 0.33628 0.13625 0.75653 0.0
H132 H 0.43142 0.27578 0.8114 0.0
H133 H 0.45384 0.14239 0.85884 0.0
H134 H 0.17058 0.12779 0.76871 0.0
H135 H 0.14934 0.25368 0.69873 0.0
C136 C 1.00318 0.03303 0.45073 0.0
N137 N 0.04051 0.90084 0.46958 0.0
C138 C 1.00009 0.90411 0.46938 0.0
C139 C 0.99108 0.87756 0.44966 0.0
C140 C 0.02403 0.84805 0.42955 0.0
C141 C 0.06529 0.8436 0.4322 0.0
C142 C 0.07286 0.87019 0.45298 0.0
Zn143 Zn 0.05384 0.94758 0.48666 0.0
C144 C 0.1245 0.96992 0.43101 0.0
N145 N 0.08301 0.04646 0.52058 0.0
C146 C 0.05342 0.07555 0.54157 0.0
C147 C 0.12446 0.04094 0.51823 0.0
C148 C 0.13754 0.06228 0.54023 0.0
C149 C 0.1078 0.0886 0.566 0.0
C150 C 0.06519 0.09687 0.5649 0.0
Zn151 Zn 0.06722 0.00101 0.50285 0.0
O152 O 0.01048 0.9934 0.45327 0.0
C153 C 0.99767 0.97843 0.55907 0.0
O154 O 0.02466 0.04666 0.46712 0.0
H155 H 0.14766 0.01747 0.50183 0.0
H156 H 0.97494 0.92893 0.48243 0.0
H157 H 0.0206 0.07979 0.54289 0.0
O158 O 0.00589 0.95017 0.53737 0.0
O159 O 0.01879 0.00418 0.55141 0.0
H160 H 0.10478 0.86797 0.45374 0.0
O161 O 0.1077 0.95472 0.53915 0.0
O162 O 0.09583 0.90238 0.52142 0.0
O163 O 0.1162 0.99664 0.45424 0.0
O164 O 0.10182 0.94598 0.43595 0.0
C165 C 0.11396 0.91526 0.54184 0.0
H166 H 0.95884 0.882 0.44781 0.0
H167 H 0.09134 0.82101 0.41704 0.0
H168 H 0.17076 0.05596 0.53906 0.0
H169 H 0.04109 0.11697 0.58413 0.0
C170 C 0.30547 0.66895 0.84315 0.0
N171 N 0.31599 0.78951 0.78925 0.0
C172 C 0.31517 0.79658 0.82653 0.0
C173 C 0.3317 0.82714 0.83101 0.0
C174 C 0.3498 0.85006 0.79687 0.0
C175 C 0.35213 0.84099 0.75883 0.0
C176 C 0.33452 0.81051 0.75564 0.0
Zn177 Zn 0.28395 0.75051 0.78496 0.0
C178 C 0.324 0.69573 0.72666 0.0
N179 N 0.21188 0.67097 0.78113 0.0
C180 C 0.19414 0.64577 0.81153 0.0
C181 C 0.21149 0.67053 0.74202 0.0
C182 C 0.19381 0.64372 0.73207 0.0
C183 C 0.17591 0.61711 0.76251 0.0
C184 C 0.17556 0.61842 0.80278 0.0
Zn185 Zn 0.24393 0.7095 0.78872 0.0
O186 O 0.31385 0.70364 0.82859 0.0
C187 C 0.20175 0.76783 0.84464 0.0
O188 O 0.27576 0.66185 0.83239 0.0
H189 H 0.22567 0.6905 0.71808 0.0
H190 H 0.30051 0.7794 0.85282 0.0
H191 H 0.19491 0.6464 0.84239 0.0
O192 O 0.23532 0.77746 0.82932 0.0
O193 O 0.19562 0.73707 0.83418 0.0
H194 H 0.33454 0.80454 0.72629 0.0
O195 O 0.21425 0.75716 0.7446 0.0
O196 O 0.25449 0.79654 0.74106 0.0
O197 O 0.29163 0.68432 0.74296 0.0
O198 O 0.33137 0.72412 0.73958 0.0
C199 C 0.22537 0.79017 0.72901 0.0
H200 H 0.3298 0.83332 0.86081 0.0
H201 H 0.36598 0.8583 0.73199 0.0
H202 H 0.19437 0.64354 0.70072 0.0
H203 H 0.16179 0.59816 0.82695 0.0
C204 C 0.42453 0.0909 0.04655 0.0
N205 N 0.53608 0.00998 0.0847 0.0
C206 C 0.53774 0.04701 0.09216 0.0
C207 C 0.55591 0.04742 0.12407 0.0
C208 C 0.57362 0.00931 0.14824 0.0
C209 C 0.57301 0.97123 0.13924 0.0
C210 C 0.55345 0.97234 0.10741 0.0
Zn211 Zn 0.5027 0.01528 0.04005 0.0
C212 C 0.43404 0.96542 0.07301 0.0
N213 N 0.42859 0.03019 0.95149 0.0
C214 C 0.38976 0.02518 0.96223 0.0
C215 C 0.44878 0.0308 0.91273 0.0
C216 C 0.4311 0.02338 0.88367 0.0
C217 C 0.39292 0.0139 0.89488 0.0
C218 C 0.37174 0.01603 0.93454 0.0
Zn219 Zn 0.46141 0.0248 0.99564 0.0
O220 O 0.45758 0.06996 0.06113 0.0
C221 C 0.52959 0.07416 0.96226 0.0
O222 O 0.41672 0.07899 0.01768 0.0
H223 H 0.4799 0.03416 0.90474 0.0
H224 H 0.52441 0.07662 0.07361 0.0
H225 H 0.37397 0.02512 0.99302 0.0
O226 O 0.53912 0.05745 0.99721 0.0
O227 O 0.49884 0.06629 0.95376 0.0
H228 H 0.55174 0.94323 0.10116 0.0
O229 O 0.50517 0.97106 0.97436 0.0
O230 O 0.548 0.9606 0.01642 0.0
O231 O 0.42552 0.98236 0.03786 0.0
O232 O 0.46436 0.97336 0.0826 0.0
C233 C 0.53894 0.94985 0.98742 0.0
H234 H 0.55656 0.07735 0.12952 0.0
H235 H 0.58676 0.94116 0.15705 0.0
H236 H 0.44836 0.02252 0.85336 0.0
H237 H 0.34292 0.00776 0.94496 0.0
C238 C 0.19098 0.30061 0.3327 0.0
N239 N 0.21892 0.19513 0.2758 0.0
C240 C 0.22101 0.16951 0.31196 0.0
C241 C 0.21871 0.12863 0.31642 0.0
C242 C 0.21455 0.11381 0.28324 0.0
C243 C 0.21158 0.14125 0.24647 0.0
C244 C 0.21383 0.18208 0.2434 0.0
Zn245 Zn 0.23118 0.25068 0.26784 0.0
C246 C 0.17707 0.31931 0.22157 0.0
N247 N 0.26706 0.3615 0.24708 0.0
C248 C 0.28099 0.37194 0.27593 0.0
C249 C 0.26277 0.3871 0.211 0.0
C250 C 0.27647 0.42279 0.20134 0.0
C251 C 0.29604 0.4311 0.22858 0.0
C252 C 0.29599 0.40689 0.26717 0.0
Zn253 Zn 0.25446 0.30585 0.25664 0.0
O254 O 0.18942 0.26836 0.32102 0.0
C255 C 0.30855 0.23784 0.30385 0.0
O256 O 0.21591 0.32093 0.31198 0.0
H257 H 0.25145 0.3783 0.18858 0.0
H258 H 0.22517 0.1806 0.33718 0.0
H259 H 0.2832 0.35153 0.30475 0.0
O260 O 0.28142 0.22096 0.30151 0.0
O261 O 0.3061 0.27533 0.28608 0.0
H262 H 0.21253 0.20301 0.21479 0.0
O263 O 0.2944 0.28936 0.2009 0.0
O264 O 0.27186 0.23378 0.21514 0.0
O265 O 0.20242 0.33642 0.22727 0.0
O266 O 0.1818 0.28035 0.23486 0.0
C267 C 0.29465 0.25492 0.192 0.0
H268 H 0.21951 0.1091 0.34582 0.0
H269 H 0.20784 0.13119 0.2204 0.0
H270 H 0.27672 0.44033 0.17101 0.0
H271 H 0.31145 0.41218 0.28859 0.0
C272 C 0.48827 0.52084 0.96363 0.0
N273 N 0.54306 0.38822 0.97489 0.0
C274 C 0.50652 0.38067 0.97565 0.0
C275 C 0.50669 0.3473 0.95833 0.0
C276 C 0.54475 0.32215 0.93967 0.0
C277 C 0.58199 0.3299 0.94021 0.0
C278 C 0.58046 0.36294 0.95858 0.0
Zn279 Zn 0.54472 0.4389 0.99563 0.0
C280 C 0.60953 0.47386 0.94447 0.0
N281 N 0.55599 0.54129 0.03893 0.0
C282 C 0.52113 0.5716 0.05256 0.0
C283 C 0.59497 0.54361 0.03774 0.0
C284 C 0.60002 0.57745 0.05034 0.0
C285 C 0.56467 0.60874 0.06504 0.0
C286 C 0.5248 0.6056 0.0663 0.0
Zn287 Zn 0.55056 0.49133 0.01942 0.0
O288 O 0.49584 0.48134 0.96441 0.0
C289 C 0.48699 0.45615 0.07162 0.0
O290 O 0.50846 0.53322 0.98247 0.0
H291 H 0.62227 0.51902 0.02724 0.0
H292 H 0.47724 0.40117 0.98876 0.0
H293 H 0.49043 0.56931 0.05299 0.0
O294 O 0.50045 0.42952 0.04748 0.0
O295 O 0.50109 0.48737 0.06565 0.0
H296 H 0.60926 0.36905 0.95886 0.0
O297 O 0.59173 0.44869 0.05674 0.0
O298 O 0.59196 0.39752 0.02789 0.0
O299 O 0.60041 0.49441 0.97318 0.0
O300 O 0.58905 0.44924 0.94418 0.0
C301 C 0.60439 0.40973 0.05358 0.0
H302 H 0.47728 0.34238 0.95788 0.0
H303 H 0.61178 0.31109 0.926 0.0
H304 H 0.63128 0.57858 0.04963 0.0
H305 H 0.49691 0.62921 0.07764 0.0
C306 C 0.79913 0.15948 0.3534 0.0
N307 N 0.80316 0.27978 0.29343 0.0
C308 C 0.80335 0.28756 0.33021 0.0
C309 C 0.81767 0.32025 0.33359 0.0
C310 C 0.8328 0.34484 0.29885 0.0
C311 C 0.83414 0.33513 0.2612 0.0
C312 C 0.8186 0.30251 0.25914 0.0
Zn313 Zn 0.77241 0.23738 0.29261 0.0
C314 C 0.81101 0.17736 0.239 0.0
N315 N 0.70149 0.1519 0.30047 0.0
C316 C 0.67965 0.13193 0.33233 0.0
C317 C 0.70349 0.1461 0.26234 0.0
C318 C 0.68438 0.11901 0.25503 0.0
C319 C 0.66153 0.09824 0.28693 0.0
C320 C 0.65875 0.10517 0.32612 0.0
Zn321 Zn 0.73315 0.19347 0.30347 0.0
O322 O 0.80609 0.19361 0.33408 0.0
C323 C 0.69315 0.25336 0.3568 0.0
O324 O 0.76816 0.14972 0.34809 0.0
H325 H 0.71955 0.16302 0.23701 0.0
H326 H 0.79125 0.26911 0.35717 0.0
H327 H 0.67796 0.13714 0.3624 0.0
O328 O 0.72597 0.2634 0.33889 0.0
O329 O 0.68606 0.2222 0.34824 0.0
H330 H 0.81786 0.29611 0.23018 0.0
O331 O 0.7008 0.23863 0.25745 0.0
O332 O 0.73903 0.2808 0.25156 0.0
O333 O 0.78006 0.16604 0.25988 0.0
O334 O 0.81767 0.21005 0.24486 0.0
C335 C 0.7098 0.27284 0.24139 0.0
H336 H 0.81694 0.32627 0.36317 0.0
H337 H 0.8459 0.35332 0.23377 0.0
H338 H 0.68623 0.1155 0.22429 0.0
H339 H 0.6407 0.09017 0.35144 0.0
C340 C 0.92068 0.58477 0.53978 0.0
N341 N 0.02974 0.51364 0.58403 0.0
C342 C 0.00495 0.51774 0.62055 0.0
C343 C 0.01944 0.52565 0.65159 0.0
C344 C 0.05985 0.52963 0.64512 0.0
C345 C 0.08559 0.52307 0.60778 0.0
C346 C 0.0698 0.51514 0.57747 0.0
Zn347 Zn 1.00214 0.51263 0.53778 0.0
C348 C 0.93698 0.45923 0.56966 0.0
N349 N 0.93508 0.51369 0.44734 0.0
C350 C 0.91214 0.54667 0.42326 0.0
C351 C 0.93931 0.47292 0.44497 0.0
C352 C 0.92144 0.46382 0.41739 0.0
C353 C 0.89755 0.49677 0.39246 0.0
C354 C 0.89241 0.53883 0.39563 0.0
Zn355 Zn 0.96419 0.51763 0.49171 0.0
O356 O 0.95397 0.56589 0.55437 0.0
C357 C 0.02869 0.57128 0.45892 0.0
O358 O 0.91408 0.57149 0.511 0.0
H359 H 0.95593 0.44689 0.46518 0.0
H360 H 0.97308 0.51684 0.62515 0.0
H361 H 0.90851 0.57887 0.42595 0.0
O362 O 0.03663 0.55634 0.49469 0.0
O363 O 0.99994 0.56089 0.44914 0.0
H364 H 0.08892 0.51208 0.54817 0.0
O365 O 0.01469 0.46466 0.47442 0.0
O366 O 0.05178 0.45929 0.52002 0.0
O367 O 0.92975 0.47446 0.53393 0.0
O368 O 0.96554 0.46927 0.58004 0.0
C369 C 0.04727 0.44616 0.49029 0.0
H370 H 0.99869 0.52993 0.68 0.0
H371 H 0.11681 0.52628 0.60127 0.0
H372 H 0.92506 0.43105 0.41655 0.0
H373 H 0.87338 0.56503 0.37721 0.0
C374 C 0.71956 0.83342 0.27208 0.0
N375 N 0.84764 0.76551 0.26728 0.0
C376 C 0.85611 0.80289 0.26218 0.0
C377 C 0.88687 0.80547 0.28095 0.0
C378 C 0.90837 0.76934 0.30526 0.0
C379 C 0.90109 0.73073 0.30754 0.0
C380 C 0.87053 0.72948 0.28813 0.0
Zn381 Zn 0.79537 0.76154 0.25236 0.0
C382 C 0.7511 0.71622 0.32035 0.0
N383 N 0.68747 0.74737 0.22345 0.0
C384 C 0.66312 0.77829 0.19902 0.0
C385 C 0.68065 0.70896 0.23664 0.0
C386 C 0.64952 0.69979 0.224 0.0
C387 C 0.6258 0.73008 0.19681 0.0
C388 C 0.63218 0.77008 0.18486 0.0
Zn389 Zn 0.7391 0.75508 0.23655 0.0
O390 O 0.75898 0.82051 0.27109 0.0
C391 C 0.78408 0.79874 0.16819 0.0
O392 O 0.70244 0.81182 0.25958 0.0
H393 H 0.70075 0.68453 0.25542 0.0
H394 H 0.83733 0.83113 0.24571 0.0
H395 H 0.66896 0.80867 0.189 0.0
O396 O 0.80891 0.79129 0.19287 0.0
O397 O 0.75014 0.7893 0.17928 0.0
H398 H 0.86317 0.70012 0.29219 0.0
O399 O 0.7771 0.69851 0.21288 0.0
O400 O 0.83067 0.70373 0.23301 0.0
O401 O 0.72895 0.72063 0.29419 0.0
O402 O 0.78171 0.73106 0.31158 0.0
C403 C 0.81578 0.68451 0.21547 0.0
H404 H 0.89156 0.8359 0.27897 0.0
H405 H 0.91716 0.70233 0.3261 0.0
H406 H 0.64601 0.6683 0.23321 0.0
H407 H 0.61454 0.79405 0.16367 0.0
C408 C 0.66235 0.32179 0.73053 0.0
N409 N 0.73993 0.20954 0.69284 0.0
C410 C 0.70269 0.20713 0.68803 0.0
C411 C 0.70014 0.19074 0.6557 0.0
C412 C 0.73635 0.17585 0.62833 0.0
C413 C 0.77483 0.17677 0.63473 0.0
C414 C 0.77585 0.19441 0.66723 0.0
Zn415 Zn 0.73725 0.24252 0.73662 0.0
C416 C 0.78652 0.31084 0.70175 0.0
N417 N 0.72663 0.31801 0.82295 0.0
C418 C 0.69294 0.33345 0.85084 0.0
C419 C 0.76485 0.32155 0.82286 0.0
C420 C 0.77052 0.34134 0.85089 0.0
C421 C 0.73668 0.35783 0.8797 0.0
C422 C 0.69736 0.35375 0.87999 0.0
Zn423 Zn 0.72797 0.28486 0.78018 0.0
O424 O 0.68387 0.28803 0.71688 0.0
C425 C 0.67858 0.21755 0.81593 0.0
O426 O 0.67325 0.33139 0.75906 0.0
H427 H 0.79156 0.30841 0.80128 0.0
H428 H 0.6745 0.21907 0.70872 0.0
H429 H 0.66293 0.32978 0.85066 0.0
O430 O 0.69497 0.20717 0.78112 0.0
O431 O 0.68712 0.24849 0.82403 0.0
H432 H 0.80508 0.19689 0.67148 0.0
O433 O 0.78239 0.23819 0.80012 0.0
O434 O 0.79092 0.19614 0.75741 0.0
O435 O 0.769 0.3207 0.73634 0.0
O436 O 0.77904 0.27964 0.6928 0.0
C437 C 0.80285 0.20434 0.78601 0.0
H438 H 0.67006 0.18971 0.65208 0.0
H439 H 0.80342 0.16509 0.6143 0.0
H440 H 0.80139 0.34359 0.85018 0.0
H441 H 0.67067 0.36631 0.90202 0.0
C442 C 0.69778 0.83263 0.71097 0.0
N443 N 0.80329 0.84232 0.74398 0.0
C444 C 0.8094 0.86235 0.70554 0.0
C445 C 0.83019 0.89273 0.69575 0.0
C446 C 0.84513 0.90252 0.72577 0.0
C447 C 0.83812 0.88171 0.76537 0.0
C448 C 0.81668 0.85157 0.77394 0.0
Zn449 Zn 0.77186 0.79967 0.75546 0.0
C450 C 0.70388 0.81727 0.82707 0.0
N451 N 0.70027 0.71581 0.77837 0.0
C452 C 0.69356 0.70118 0.74773 0.0
C453 C 0.69233 0.69752 0.81722 0.0
C454 C 0.68011 0.66112 0.8263 0.0
C455 C 0.67694 0.64292 0.79503 0.0
C456 C 0.6818 0.66422 0.75548 0.0
Zn457 Zn 0.73155 0.7587 0.76704 0.0
O458 O 0.72883 0.84123 0.7172 0.0
C459 C 0.80014 0.74169 0.69554 0.0
O460 O 0.68979 0.79895 0.72997 0.0
H461 H 0.69802 0.70962 0.84098 0.0
H462 H 0.79867 0.85428 0.68226 0.0
H463 H 0.6998 0.71662 0.71704 0.0
O464 O 0.80964 0.77078 0.70526 0.0
O465 O 0.76906 0.73032 0.7164 0.0
H466 H 0.81114 0.83523 0.80438 0.0
O467 O 0.77496 0.71654 0.80392 0.0
O468 O 0.81493 0.75773 0.79233 0.0
O469 O 0.69359 0.78826 0.81799 0.0
O470 O 0.735 0.82806 0.8055 0.0
C471 C 0.80751 0.7231 0.80915 0.0
H472 H 0.8362 0.90695 0.66453 0.0
H473 H 0.84976 0.88807 0.78908 0.0
H474 H 0.6753 0.64607 0.85739 0.0
H475 H 0.67897 0.65122 0.73083 0.0
C476 C 0.43445 0.57432 0.54279 0.0
N477 N 0.42212 0.46154 0.52679 0.0
C478 C 0.39674 0.46394 0.56307 0.0
C479 C 0.36515 0.44464 0.57345 0.0
C480 C 0.36038 0.42206 0.54654 0.0
C481 C 0.38605 0.42108 0.50887 0.0
C482 C 0.41669 0.44166 0.49934 0.0
Zn483 Zn 0.46676 0.4909 0.51163 0.0
C484 C 0.45266 0.55119 0.43357 0.0
N485 N 0.55349 0.55981 0.47664 0.0
C486 C 0.56614 0.57315 0.50453 0.0
C487 C 0.57516 0.55858 0.43867 0.0
C488 C 0.61234 0.56898 0.42801 0.0
C489 C 0.62713 0.58108 0.4566 0.0
C490 C 0.60314 0.5843 0.49496 0.0
Zn491 Zn 0.50834 0.53114 0.49319 0.0
O492 O 0.4259 0.54139 0.54067 0.0
C493 C 0.52188 0.47176 0.5718 0.0
O494 O 0.46922 0.57966 0.52462 0.0
H495 H 0.56449 0.54781 0.41709 0.0
H496 H 0.40162 0.47996 0.58434 0.0
H497 H 0.54844 0.57352 0.53466 0.0
O498 O 0.49207 0.46041 0.56635 0.0
O499 O 0.53438 0.49963 0.54557 0.0
H500 H 0.43677 0.44092 0.47034 0.0
O501 O 0.54864 0.48117 0.46252 0.0
O502 O 0.50793 0.44041 0.4833 0.0
O503 O 0.48091 0.56374 0.44057 0.0
O504 O 0.44215 0.5209 0.45779 0.0
C505 C 0.54205 0.44626 0.46387 0.0
H506 H 0.34662 0.44478 0.60332 0.0
H507 H 0.38364 0.40302 0.48794 0.0
H508 H 0.62938 0.56757 0.39764 0.0
H509 H 0.6134 0.5943 0.51743 0.0
C510 C 0.03686 0.43278 0.05525 0.0
N511 N 0.07374 0.54097 1.0064 0.0
C512 C 0.07209 0.53988 0.04624 0.0
C513 C 0.10184 0.55057 0.05942 0.0
C514 C 0.13394 0.56288 0.03156 0.0
C515 C 0.13426 0.56564 0.99039 0.0
C516 C 0.10379 0.55405 0.97837 0.0
Zn517 Zn 0.03203 0.51538 0.99436 0.0
C518 C 0.07084 0.45296 0.93888 0.0
N519 N 0.946 0.45409 0.9848 0.0
C520 C 0.91364 0.44678 0.01359 0.0
C521 C 0.9476 0.45219 0.9457 0.0
C522 C 0.91514 0.44479 0.93388 0.0
C523 C 0.87986 0.44032 0.96225 0.0
C524 C 0.87991 0.43981 1.00287 0.0
Zn525 Zn 0.98834 0.47893 0.99533 0.0
O526 O 0.0504 0.46443 0.04028 0.0
C527 C 0.94961 0.53993 0.05126 0.0
O528 O 0.00828 0.42773 0.04108 0.0
H529 H 0.97291 0.45892 0.923 0.0
H530 H 0.04833 0.5293 0.0683 0.0
H531 H 0.91281 0.44865 0.0445 0.0
O532 O 0.98416 0.54816 0.0377 0.0
O533 O 0.94212 0.51165 0.03829 0.0
H534 H 0.10486 0.55439 0.94686 0.0
O535 O 0.96831 0.53055 0.9505 0.0
O536 O 0.01101 0.56699 0.94815 0.0
O537 O 0.03547 0.44658 0.95241 0.0
O538 O 0.07962 0.48105 0.95123 0.0
C539 C 0.9805 0.5631 0.9359 0.0
H540 H 0.09992 0.54884 0.09138 0.0
H541 H 0.15848 0.57526 0.96799 0.0
H542 H 0.91704 0.44416 0.90239 0.0
H543 H 0.85338 0.43623 0.02571 0.0
H544 H 0.21781 0.20757 0.91835 0.0
H545 H 0.31241 0.08949 0.90261 0.0
H546 H 0.27481 0.05244 0.9608 0.0
H547 H 0.20528 0.05257 0.99833 0.0
H548 H 0.10868 0.17087 0.00931 0.0
H549 H 0.15769 0.20991 0.97285 0.0
C550 C 0.23098 0.17406 0.92907 0.0
C551 C 0.26642 0.15026 0.90626 0.0
C552 C 0.20883 0.15343 0.96157 0.0
C553 C 0.28434 0.10736 0.91992 0.0
C554 C 0.26296 0.0865 0.9529 0.0
C555 C 0.19593 0.08688 0.99467 0.0
C556 C 0.1537 0.10918 1.00488 0.0
C557 C 0.22354 0.10878 0.97162 0.0
C558 C 0.14123 0.15342 1.00095 0.0
C559 C 0.16904 0.17566 0.97957 0.0
H560 H 0.04973 0.98125 0.12349 0.0
H561 H 0.02112 0.87953 0.09194 0.0
H562 H 0.0609 0.82867 0.14178 0.0
H563 H 0.10963 0.81236 0.18952 0.0
H564 H 0.1351 0.91448 0.22376 0.0
H565 H 0.09033 0.96598 0.17817 0.0
C566 C 0.05171 0.94801 0.12799 0.0
C567 C 0.03288 0.93409 0.10375 0.0
C568 C 0.07424 0.91902 0.15705 0.0
C569 C 0.03526 0.89105 0.11022 0.0
C570 C 0.05822 0.86192 0.13857 0.0
C571 C 0.10479 0.84596 0.18747 0.0
C572 C 0.12599 0.85957 0.20969 0.0
C573 C 0.07869 0.87541 0.16145 0.0
C574 C 0.11909 0.90319 0.20708 0.0
C575 C 0.09371 0.93264 0.18079 0.0
H576 H 0.39789 0.90017 0.41186 0.0
H577 H 0.32107 0.90898 0.52885 0.0
H578 H 0.26909 0.88746 0.50719 0.0
H579 H 0.24347 0.87105 0.45242 0.0
H580 H 0.31814 0.87343 0.33386 0.0
H581 H 0.37221 0.88747 0.35824 0.0
C582 C 0.36952 0.89812 0.43267 0.0
C583 C 0.36309 0.90715 0.47167 0.0
C584 C 0.33897 0.88849 0.41937 0.0
C585 C 0.32695 0.90222 0.49863 0.0
C586 C 0.29699 0.8904 0.48609 0.0
C587 C 0.27153 0.87497 0.43212 0.0
C588 C 0.27661 0.872 0.39128 0.0
C589 C 0.30227 0.88435 0.44616 0.0
C590 C 0.31317 0.87662 0.36517 0.0
C591 C 0.34426 0.88426 0.37914 0.0
H592 H 0.41541 0.12542 0.71695 0.0
H593 H 0.30836 0.08116 0.73126 0.0
H594 H 0.34148 0.04415 0.67362 0.0
H595 H 0.39778 0.03107 0.6146 0.0
H596 H 0.50136 0.08134 0.59861 0.0
H597 H 0.47248 0.10955 0.66106 0.0
C598 C 0.3997 0.10678 0.70819 0.0
C599 C 0.35955 0.10592 0.7285 0.0
C600 C 0.41794 0.08746 0.67398 0.0
C601 C 0.3394 0.08217 0.71622 0.0
C602 C 0.35816 0.06135 0.68303 0.0
C603 C 0.41408 0.04799 0.62496 0.0
C604 C 0.45142 0.05449 0.60161 0.0
C605 C 0.39686 0.06494 0.66085 0.0
C606 C 0.47224 0.07639 0.61555 0.0
C607 C 0.45589 0.09237 0.65146 0.0
H608 H 0.15702 0.93267 0.5889 0.0
H609 H 0.12408 0.83047 0.56294 0.0
H610 H 0.15513 0.78296 0.61939 0.0
H611 H 0.18826 0.77149 0.67795 0.0
H612 H 0.22268 0.87291 0.70327 0.0
H613 H 0.19377 0.92006 0.64528 0.0
C614 C 0.15701 0.89989 0.59531 0.0
C615 C 0.138 0.8852 0.57199 0.0
C616 C 0.17451 0.87288 0.62798 0.0
C617 C 0.1385 0.84258 0.58048 0.0
C618 C 0.15597 0.81546 0.6129 0.0
C619 C 0.18914 0.80402 0.67092 0.0
C620 C 0.20689 0.81904 0.69503 0.0
C621 C 0.17329 0.83052 0.63726 0.0
C622 C 0.2088 0.86087 0.68518 0.0
C623 C 0.19245 0.88772 0.65203 0.0
H624 H 0.3024 0.92225 0.82334 0.0
H625 H 0.4299 0.85333 0.78209 0.0
H626 H 0.45489 0.90332 0.80356 0.0
H627 H 0.44018 0.959 0.8438 0.0
H628 H 0.31203 0.0271 0.88574 0.0
H629 H 0.28746 0.98541 0.85373 0.0
C630 C 0.33558 0.91895 0.8183 0.0
C631 C 0.36447 0.88432 0.80172 0.0
C632 C 0.34949 0.94732 0.83114 0.0
C633 C 0.40734 0.87998 0.79491 0.0
C634 C 0.42152 0.90835 0.80737 0.0
C635 C 0.40687 0.96585 0.84485 0.0
C636 C 0.37807 0.99594 0.86773 0.0
C637 C 0.39288 0.94116 0.82691 0.0
C638 C 0.335 0.00384 0.86897 0.0
C639 C 0.32084 0.9799 0.85069 0.0
H640 H 0.44223 0.14569 0.08121 0.0
H641 H 0.33971 0.11703 0.05343 0.0
H642 H 0.28966 0.16977 0.09262 0.0
H643 H 0.27564 0.21758 0.14123 0.0
H644 H 0.37737 0.2491 0.16686 0.0
H645 H 0.42729 0.20238 0.12134 0.0
C646 C 0.40889 0.15151 0.08331 0.0
C647 C 0.3946 0.12709 0.06503 0.0
C648 C 0.38029 0.18234 0.10543 0.0
C649 C 0.35141 0.13533 0.06734 0.0
C650 C 0.32281 0.16536 0.08986 0.0
C651 C 0.30866 0.21505 0.13593 0.0
C652 C 0.32298 0.23653 0.15733 0.0
C653 C 0.33695 0.18819 0.10988 0.0
C654 C 0.36569 0.23317 0.15036 0.0
C655 C 0.39421 0.20609 0.12472 0.0
H656 H 0.11656 0.98969 0.35355 0.0
H657 H 0.2058 0.95424 0.43358 0.0
H658 H 0.25391 0.98414 0.38147 0.0
H659 H 0.2574 0.04104 0.32502 0.0
H660 H 0.15805 0.09188 0.2547 0.0
H661 H 0.12847 0.03466 0.28854 0.0
C662 C 0.14749 0.98679 0.35851 0.0
C663 C 0.15808 0.97023 0.3968 0.0
C664 C 0.17272 0.00815 0.32998 0.0
C665 C 0.19762 0.96683 0.40389 0.0
C666 C 0.22472 0.98448 0.37432 0.0
C667 C 0.22997 0.0387 0.31637 0.0
C668 C 0.20863 0.07159 0.28915 0.0
C669 C 0.21075 0.00855 0.33886 0.0
C670 C 0.17445 0.06745 0.27643 0.0
C671 C 0.15716 0.035 0.29621 0.0
H672 H 0.85886 0.20343 0.16929 0.0
H673 H 0.81765 0.09671 0.2365 0.0
H674 H 0.84855 0.05833 0.18046 0.0
H675 H 0.88692 0.05452 0.11249 0.0
H676 H 0.93263 0.15815 0.0454 0.0
H677 H 0.8996 0.19864 0.10066 0.0
C678 C 0.85738 0.17154 0.17175 0.0
C679 C 0.83603 0.15302 0.2069 0.0
C680 C 0.87513 0.14942 0.13913 0.0
C681 C 0.83386 0.11178 0.20966 0.0
C682 C 0.85127 0.08981 0.17756 0.0
C683 C 0.88888 0.08631 0.10969 0.0
C684 C 0.91142 0.10371 0.07493 0.0
C685 C 0.87148 0.10847 0.14202 0.0
C686 C 0.91486 0.14444 0.07194 0.0
C687 C 0.89638 0.16738 0.1036 0.0
H688 H 0.07244 0.6241 0.47065 0.0
H689 H 0.04264 0.5816 0.37613 0.0
H690 H 0.08386 0.62181 0.3258 0.0
H691 H 0.13027 0.66938 0.30691 0.0
H692 H 0.15449 0.71731 0.40101 0.0
H693 H 0.11453 0.67589 0.45145 0.0
C694 C 0.07475 0.62352 0.43907 0.0
C695 C 0.05384 0.59867 0.42814 0.0
C696 C 0.09814 0.64825 0.40937 0.0
C697 C 0.05768 0.59972 0.38644 0.0
C698 C 0.08166 0.62296 0.35722 0.0
C699 C 0.12693 0.67097 0.33841 0.0
C700 C 0.14662 0.697 0.34924 0.0
C701 C 0.10235 0.6474 0.36803 0.0
C702 C 0.14052 0.69815 0.39078 0.0
C703 C 0.1174 0.67409 0.42007 0.0
H704 H 0.62318 0.9566 0.56344 0.0
H705 H 0.5557 0.8657 0.57955 0.0
H706 H 0.591 0.82427 0.63608 0.0
H707 H 0.63919 0.81546 0.68206 0.0
H708 H 0.70484 0.90794 0.6663 0.0
H709 H 0.67102 0.94789 0.60878 0.0
C710 C 0.6164 0.92748 0.57892 0.0
C711 C 0.5869 0.91419 0.56715 0.0
C712 C 0.63582 0.90463 0.61191 0.0
C713 C 0.57844 0.87651 0.58784 0.0
C714 C 0.59835 0.85302 0.62035 0.0
C715 C 0.64582 0.84458 0.66631 0.0
C716 C 0.67429 0.85886 0.67867 0.0
C717 C 0.62661 0.86717 0.63299 0.0
C718 C 0.68285 0.89639 0.65762 0.0
C719 C 0.66376 0.9191 0.62456 0.0
H720 H 0.51328 0.25603 0.96616 0.0
H721 H 0.57572 0.31964 0.86062 0.0
H722 H 0.55828 0.28177 0.81802 0.0
H723 H 0.51161 0.24342 0.8107 0.0
H724 H 0.44871 0.18053 0.91665 0.0
H725 H 0.481 0.20401 0.95927 0.0
C726 C 0.52393 0.2606 0.93393 0.0
C727 C 0.54456 0.29117 0.91621 0.0
C728 C 0.51327 0.23926 0.90974 0.0
C729 C 0.55923 0.29649 0.87464 0.0
C730 C 0.54903 0.27511 0.85032 0.0
C731 C 0.50603 0.23395 0.84307 0.0
C732 C 0.47708 0.2114 0.86065 0.0
C733 C 0.52395 0.24837 0.86743 0.0
C734 C 0.47064 0.1983 0.90249 0.0
C735 C 0.48872 0.21208 0.92692 0.0
H736 H 0.97489 0.80041 0.28724 0.0
H737 H 0.89562 0.74719 0.38586 0.0
H738 H 0.92842 0.76211 0.43402 0.0
H739 H 0.97335 0.79831 0.4478 0.0
H740 H 0.05411 0.85013 0.34985 0.0
H741 H 0.02791 0.82697 0.30161 0.0
C742 C 0.96543 0.7916 0.31928 0.0
C743 C 0.9328 0.77322 0.33319 0.0
C744 C 0.98459 0.80007 0.34681 0.0
C745 C 0.92083 0.76137 0.37466 0.0
C746 C 0.93939 0.77003 0.40217 0.0
C747 C 0.98571 0.80364 0.41594 0.0
C748 C 0.01505 0.82614 0.40212 0.0
C749 C 0.97039 0.79049 0.38857 0.0
C750 C 0.03142 0.83272 0.36095 0.0
C751 C 0.01622 0.81984 0.33341 0.0
H752 H 0.45451 0.62607 0.57914 0.0
H753 H 0.35199 0.58413 0.57004 0.0
H754 H 0.30861 0.61932 0.62589 0.0
H755 H 0.30189 0.65615 0.68037 0.0
H756 H 0.4036 0.69801 0.6916 0.0
H757 H 0.44563 0.66826 0.63167 0.0
C758 C 0.42237 0.6255 0.58886 0.0
C759 C 0.40642 0.60247 0.57073 0.0
C760 C 0.39793 0.64488 0.62171 0.0
C761 C 0.36491 0.60156 0.58372 0.0
C762 C 0.34021 0.62142 0.61575 0.0
C763 C 0.33333 0.65872 0.66989 0.0
C764 C 0.35003 0.67844 0.69075 0.0
C765 C 0.35684 0.64201 0.63563 0.0
C766 C 0.39036 0.68244 0.67621 0.0
C767 C 0.41425 0.6656 0.64195 0.0
H768 H 0.57882 0.12267 0.97169 0.0
H769 H 0.53799 0.0868 0.87986 0.0
H770 H 0.57936 0.12532 0.82782 0.0
H771 H 0.62947 0.16895 0.80661 0.0
H772 H 0.66414 0.21125 0.8983 0.0
H773 H 0.62377 0.17168 0.95039 0.0
C774 C 0.57891 0.12305 0.94034 0.0
C775 C 0.55501 0.10047 0.93064 0.0
C776 C 0.60238 0.14683 0.90969 0.0
C777 C 0.55568 0.10296 0.88921 0.0
C778 C 0.57971 0.12522 0.85901 0.0
C779 C 0.62846 0.16954 0.83795 0.0
C780 C 0.65132 0.19321 0.84762 0.0
C781 C 0.60364 0.14717 0.86858 0.0
C782 C 0.64789 0.19358 0.88899 0.0
C783 C 0.62454 0.17062 0.91922 0.0
H784 H 0.05926 0.45632 0.11263 0.0
H785 H 0.05203 0.3463 0.07602 0.0
H786 H 0.09157 0.3002 0.12878 0.0
H787 H 0.13564 0.29208 0.17949 0.0
H788 H 0.144 0.40422 0.21178 0.0
H789 H 0.0963 0.44886 0.16643 0.0
C790 C 0.06602 0.42221 0.11641 0.0
C791 C 0.0537 0.40446 0.09025 0.0
C792 C 0.08918 0.39647 0.14577 0.0
C793 C 0.06155 0.36044 0.09591 0.0
C794 C 0.08432 0.33424 0.1258 0.0
C795 C 0.12633 0.32626 0.17701 0.0
C796 C 0.14368 0.34494 0.19842 0.0
C797 C 0.09944 0.35194 0.15008 0.0
C798 C 0.1315 0.38919 0.19512 0.0
C799 C 0.10421 0.41474 0.16927 0.0
H800 H 0.59535 0.50111 0.86877 0.0
H801 H 0.68736 0.47389 0.94458 0.0
H802 H 0.72437 0.51809 0.89503 0.0
H803 H 0.72141 0.57532 0.83916 0.0
H804 H 0.61954 0.6163 0.77258 0.0
H805 H 0.5973 0.55383 0.80691 0.0
C806 C 0.62488 0.50307 0.87305 0.0
C807 C 0.6392 0.48436 0.90963 0.0
C808 C 0.64417 0.53102 0.84577 0.0
C809 C 0.67644 0.48788 0.91616 0.0
C810 C 0.69744 0.51319 0.88796 0.0
C811 C 0.69483 0.56996 0.83165 0.0
C812 C 0.67111 0.60063 0.80476 0.0
C813 C 0.68022 0.53667 0.85395 0.0
C814 C 0.63772 0.59315 0.79385 0.0
C815 C 0.62486 0.55774 0.81374 0.0
H816 H 0.68388 0.2556 0.18059 0.0
H817 H 0.68893 0.35786 0.23177 0.0
H818 H 0.65913 0.40936 0.17655 0.0
H819 H 0.63206 0.42527 0.11392 0.0
H820 H 0.62874 0.32341 0.06076 0.0
H821 H 0.65853 0.27171 0.11595 0.0
C822 C 0.67784 0.28922 0.17974 0.0
C823 C 0.68793 0.30319 0.21018 0.0
C824 C 0.66188 0.31857 0.14725 0.0
C825 C 0.68104 0.34663 0.20858 0.0
C826 C 0.66427 0.376 0.17699 0.0
C827 C 0.63825 0.39175 0.11411 0.0
C828 C 0.62812 0.37827 0.08334 0.0
C829 C 0.6549 0.36231 0.14603 0.0
C830 C 0.63639 0.33466 0.08405 0.0
C831 C 0.6531 0.30507 0.11577 0.0
H832 H 0.93276 0.45596 0.32884 0.0
H833 H 0.8145 0.50852 0.40122 0.0
H834 H 0.78168 0.46927 0.3741 0.0
H835 H 0.79027 0.41046 0.3391 0.0
H836 H 0.90908 0.35666 0.26778 0.0
H837 H 0.93826 0.40596 0.28475 0.0
C838 C 0.89945 0.45999 0.33733 0.0
C839 C 0.87578 0.48535 0.36653 0.0
C840 C 0.88131 0.43626 0.32253 0.0
C841 C 0.83288 0.48994 0.37805 0.0
C842 C 0.81439 0.4669 0.36307 0.0
C843 C 0.8223 0.41021 0.32669 0.0
C844 C 0.84778 0.37969 0.30275 0.0
C845 C 0.83879 0.4385 0.33675 0.0
C846 C 0.88902 0.37985 0.28635 0.0
C847 C 0.90571 0.40788 0.2962 0.0
H848 H 0.63767 0.65327 0.46586 0.0
H849 H 0.70236 0.53685 0.41911 0.0
H850 H 0.75592 0.56778 0.37778 0.0
H851 H 0.77255 0.6327 0.34293 0.0
H852 H 0.70389 0.75076 0.38488 0.0
H853 H 0.6646 0.71435 0.44143 0.0
C854 C 0.66459 0.63415 0.44806 0.0
C855 C 0.66577 0.59349 0.44442 0.0
C856 C 0.69433 0.65264 0.42337 0.0
C857 C 0.70066 0.56867 0.42148 0.0
C858 C 0.7312 0.58629 0.39789 0.0
C859 C 0.7503 0.64985 0.36567 0.0
C860 C 0.74055 0.69386 0.36032 0.0
C861 C 0.72668 0.62904 0.39662 0.0
C862 C 0.71164 0.71657 0.3891 0.0
C863 C 0.68898 0.69585 0.42104 0.0
H864 H 0.7567 0.42966 0.86113 0.0
H865 H 0.73804 0.33157 0.96006 0.0
H866 H 0.77768 0.35247 0.99836 0.0
H867 H 0.82931 0.38953 0.99696 0.0
H868 H 0.84704 0.4873 0.89641 0.0
H869 H 0.79693 0.47502 0.86498 0.0
C870 C 0.75997 0.41407 0.89175 0.0
C871 C 0.74459 0.37944 0.90801 0.0
C872 C 0.78395 0.42516 0.91257 0.0
C873 C 0.74918 0.35885 0.94739 0.0
C874 C 0.77241 0.37036 0.96891 0.0
C875 C 0.82125 0.40893 0.96877 0.0
C876 C 0.84311 0.4381 0.9483 0.0
C877 C 0.79175 0.40209 0.95088 0.0
C878 C 0.83198 0.46337 0.91199 0.0
C879 C 0.80303 0.45669 0.89411 0.0
H880 H 0.739 0.86759 0.12414 0.0
H881 H 0.8555 0.76699 0.11937 0.0
H882 H 0.88134 0.80098 0.05288 0.0
H883 H 0.87785 0.8671 1.00719 0.0
H884 H 0.76834 0.97447 0.02084 0.0
H885 H 0.7311 0.92992 0.07041 0.0
C886 C 0.76957 0.85292 0.10783 0.0
C887 C 0.796 0.81582 0.1263 0.0
C888 C 0.78506 0.87398 0.07089 0.0
C889 C 0.8354 0.79634 0.10555 0.0
C890 C 0.84995 0.81555 0.0676 0.0
C891 C 0.84504 0.88003 0.01943 0.0
C892 C 0.82594 0.92375 0.01146 0.0
C893 C 0.82609 0.85558 0.05124 0.0
C894 C 0.7835 0.94069 0.02702 0.0
C895 C 0.76268 0.91544 0.05606 0.0
H896 H 0.85516 0.22224 0.82304 0.0
H897 H 0.83013 0.11838 0.79151 0.0
H898 H 0.88207 0.06777 0.83064 0.0
H899 H 0.92907 0.0533 0.87945 0.0
H900 H 0.95687 0.15666 0.90867 0.0
H901 H 0.91001 0.20727 0.86422 0.0
C902 C 0.86152 0.1885 0.82433 0.0
C903 C 0.83842 0.17404 0.80483 0.0
C904 C 0.89188 0.15958 0.84647 0.0
C905 C 0.8474 0.1303 0.80626 0.0
C906 C 0.87699 0.10136 0.82877 0.0
C907 C 0.92555 0.08688 0.87538 0.0
C908 C 0.94619 0.10129 0.89749 0.0
C909 C 0.89866 0.11565 0.84976 0.0
C910 C 0.94157 0.14478 0.89179 0.0
C911 C 0.91445 0.17373 0.86668 0.0
H912 H 0.69 0.2167 0.56987 0.0
H913 H 0.77418 0.09604 0.6115 0.0
H914 H 0.75462 0.0628 0.56614 0.0
H915 H 0.70364 0.06615 0.52502 0.0
H916 H 0.61831 0.18656 0.48457 0.0
H917 H 0.64912 0.22232 0.51785 0.0
C918 C 0.70483 0.18337 0.56805 0.0
C919 C 0.73296 0.15856 0.59419 0.0
C920 C 0.693 0.16454 0.54233 0.0
C921 C 0.7524 0.11557 0.59161 0.0
C922 C 0.74099 0.09658 0.56591 0.0
C923 C 0.69281 0.10038 0.52248 0.0
C924 C 0.6584 0.12372 0.50304 0.0
C925 C 0.70991 0.12042 0.5426 0.0
C926 C 0.64472 0.16803 0.49945 0.0
C927 C 0.66201 0.18836 0.5189 0.0
H928 H 0.63783 0.9753 0.38114 0.0
H929 H 0.52882 0.93873 0.38243 0.0
H930 H 0.56793 0.89438 0.33171 0.0
H931 H 0.63498 0.85877 0.29377 0.0
H932 H 0.74556 0.89126 0.29512 0.0
H933 H 0.70395 0.94474 0.33718 0.0
C934 C 0.6225 0.9582 0.36977 0.0
C935 C 0.58064 0.95983 0.38607 0.0
C936 C 0.64559 0.93163 0.34124 0.0
C937 C 0.56118 0.93756 0.3709 0.0
C938 C 0.58353 0.91212 0.34185 0.0
C939 C 0.64995 0.87799 0.30267 0.0
C940 C 0.69347 0.8705 0.29173 0.0
C941 C 0.6261 0.90774 0.32787 0.0
C942 C 0.71219 0.89595 0.30346 0.0
C943 C 0.68842 0.92651 0.32764 0.0
H944 H 0.85738 0.17955 0.37877 0.0
H945 H 0.81203 0.0744 0.38242 0.0
H946 H 0.87211 0.02574 0.41258 0.0
H947 H 0.93953 0.01311 0.43367 0.0
H948 H 0.98446 0.11892 0.42883 0.0
H949 H 0.92254 0.1675 0.40223 0.0
C950 C 0.8603 0.146 0.38644 0.0
C951 C 0.83039 0.13053 0.37807 0.0
C952 C 0.8952 0.11839 0.40269 0.0
C953 C 0.83448 0.0871 0.38869 0.0
C954 C 0.86905 0.05929 0.40551 0.0
C955 C 0.93599 0.04678 0.4265 0.0
C956 C 0.96693 0.06237 0.43265 0.0
C957 C 0.90005 0.07454 0.41175 0.0
C958 C 0.96137 0.10612 0.424 0.0
C959 C 0.92589 0.13389 0.40901 0.0
H960 H 0.69301 0.02966 0.24908 0.0
H961 H 0.5773 0.11262 0.30117 0.0
H962 H 0.53816 0.08753 0.26621 0.0
H963 H 0.53871 0.05227 0.21099 0.0
H964 H 0.65436 0.96904 0.15903 0.0
H965 H 0.69171 0.98325 0.2041 0.0
C966 C 0.6591 0.04109 0.25377 0.0
C967 C 0.638 0.07323 0.27728 0.0
C968 C 0.63696 0.02703 0.23297 0.0
C969 C 0.59412 0.0878 0.28334 0.0
C970 C 0.57182 0.07382 0.26294 0.0
C971 C 0.57192 0.03654 0.21028 0.0
C972 C 0.59397 0.01022 0.18135 0.0
C973 C 0.59314 0.04508 0.23612 0.0
C974 C 0.63684 0.98953 0.18095 0.0
C975 C 0.6582 0.99787 0.20654 0.0
H976 H 0.6259 0.81796 0.86936 0.0
H977 H 0.72895 0.86592 0.86303 0.0
H978 H 0.68937 0.90637 0.91665 0.0
H979 H 0.62283 0.93372 0.96127 0.0
H980 H 0.51809 0.89018 0.9637 0.0
H981 H 0.56083 0.84213 0.91675 0.0
C982 C 0.63984 0.83688 0.88003 0.0
C983 C 0.68024 0.83906 0.86185 0.0
C984 C 0.6165 0.86094 0.91049 0.0
C985 C 0.69774 0.86391 0.87609 0.0
C986 C 0.67515 0.88706 0.90691 0.0
C987 C 0.60987 0.91278 0.95234 0.0
C988 C 0.56759 0.91504 0.96627 0.0
C989 C 0.63418 0.88651 0.92386 0.0
C990 C 0.55073 0.88865 0.95361 0.0
C991 C 0.57506 0.8614 0.92651 0.0
H992 H 0.00435 0.94028 0.63456 0.0
H993 H 0.91672 0.02324 0.55873 0.0
H994 H 0.85816 0.01858 0.61353 0.0
H995 H 0.83301 0.97761 0.67602 0.0
H996 H 0.92124 0.88589 0.74687 0.0
H997 H 0.97841 0.90943 0.70305 0.0
C998 C 0.97236 0.95794 0.6307 0.0
C999 C 0.96399 0.98121 0.59318 0.0
C1000 C 0.9392 0.95381 0.66171 0.0
C1001 C 0.92307 0.00461 0.58768 0.0
C1002 C 0.88986 0.00205 0.6189 0.0
C1003 C 0.86464 0.96396 0.68255 0.0
C1004 C 0.87338 0.92913 0.71339 0.0
C1005 C 0.89755 0.97487 0.65519 0.0
C1006 C 0.91395 0.91239 0.7228 0.0
C1007 C 0.94676 0.92526 0.69728 0.0
H1008 H 0.20779 0.83535 0.8687 0.0
H1009 H 0.12168 0.76458 0.87798 0.0
H1010 H 0.06599 0.8174 0.91345 0.0
H1011 H 0.04131 0.88572 0.93893 0.0
H1012 H 0.12872 0.95605 0.92649 0.0
H1013 H 0.18419 0.90147 0.89449 0.0
C1014 C 0.17697 0.83106 0.87868 0.0
C1015 C 0.16896 0.79599 0.87058 0.0
C1016 C 0.14513 0.86187 0.89799 0.0
C1017 C 0.12878 0.79116 0.88393 0.0
C1018 C 0.09686 0.82153 0.90395 0.0
C1019 C 0.07246 0.88913 0.92908 0.0
C1020 C 0.08067 0.92515 0.93496 0.0
C1021 C 0.10454 0.85742 0.91056 0.0
C1022 C 0.12133 0.92889 0.92225 0.0
C1023 C 0.1532 0.89758 0.90404 0.0
H1024 H 0.89156 0.41024 0.55462 0.0
H1025 H 0.92291 0.44548 0.65271 0.0
H1026 H 0.87993 0.40537 0.70085 0.0
H1027 H 0.83174 0.35997 0.71657 0.0
H1028 H 0.80542 0.31953 0.6188 0.0
H1029 H 0.84715 0.36092 0.57054 0.0
C1030 C 0.88925 0.40919 0.58652 0.0
C1031 C 0.91116 0.43186 0.59921 0.0
C1032 C 0.86477 0.38464 0.61479 0.0
C1033 C 0.9072 0.42894 0.64118 0.0
C1034 C 0.88221 0.4058 0.66907 0.0
C1035 C 0.83504 0.36 0.68472 0.0
C1036 C 0.81436 0.33607 0.67212 0.0
C1037 C 0.86056 0.38347 0.65649 0.0
C1038 C 0.82026 0.33698 0.63025 0.0
C1039 C 0.84437 0.36101 0.60229 0.0
H1040 H 0.46685 0.14722 0.38988 0.0
H1041 H 0.38096 0.08066 0.46302 0.0
H1042 H 0.32673 0.12366 0.42439 0.0
H1043 H 0.30413 0.17696 0.36784 0.0
H1044 H 0.38646 0.24713 0.29503 0.0
H1045 H 0.4414 0.2061 0.33529 0.0
C1046 C 0.43608 0.1427 0.39762 0.0
C1047 C 0.42832 0.11035 0.42896 0.0
C1048 C 0.40444 0.16778 0.37505 0.0
C1049 C 0.38817 0.10489 0.43871 0.0
C1050 C 0.35695 0.12944 0.41661 0.0
C1051 C 0.33413 0.18325 0.36074 0.0
C1052 C 0.34156 0.21443 0.3283 0.0
C1053 C 0.36497 0.16028 0.38428 0.0
C1054 C 0.3802 0.22297 0.31989 0.0
C1055 C 0.41156 0.19956 0.34288 0.0
H1056 H 0.5341 0.62868 0.13947 0.0
H1057 H 0.60853 0.66381 0.02674 0.0
H1058 H 0.62783 0.71174 0.05676 0.0
H1059 H 0.63199 0.73482 0.1173 0.0
H1060 H 0.56347 0.69406 0.23161 0.0
H1061 H 0.53259 0.65777 0.19888 0.0
C1062 C 0.55367 0.64772 0.12138 0.0
C1063 C 0.57009 0.64284 0.08115 0.0
C1064 C 0.56586 0.67387 0.13926 0.0
C1065 C 0.59584 0.66708 0.05789 0.0
C1066 C 0.60689 0.69434 0.07504 0.0
C1067 C 0.60926 0.71911 0.13476 0.0
C1068 C 0.59981 0.71706 0.17664 0.0
C1069 C 0.59329 0.6968 0.11603 0.0
C1070 C 0.57103 0.69594 0.19925 0.0
C1071 C 0.55364 0.67504 0.1806 0.0
H1072 H 0.18646 0.11529 0.70135 0.0
H1073 H 0.08877 0.23463 0.69276 0.0
H1074 H 0.06533 0.21481 0.64026 0.0
H1075 H 0.07426 0.16383 0.59555 0.0
H1076 H 0.17076 0.04354 0.60825 0.0
H1077 H 0.19302 0.06384 0.66025 0.0
C1078 C 0.15933 0.13668 0.68886 0.0
C1079 C 0.13911 0.17618 0.70141 0.0
C1080 C 0.14624 0.12521 0.65885 0.0
C1081 C 0.10492 0.20399 0.68367 0.0
C1082 C 0.09155 0.19268 0.65364 0.0
C1083 C 0.1 0.14199 0.60983 0.0
C1084 C 0.12125 0.10253 0.59717 0.0
C1085 C 0.11227 0.15346 0.6407 0.0
C1086 C 0.15461 0.0747 0.61615 0.0
C1087 C 0.16711 0.086 0.6464 0.0
H1088 H 0.69884 0.32474 0.37302 0.0
H1089 H 0.61751 0.24542 0.40052 0.0
H1090 H 0.56337 0.29799 0.43755 0.0
H1091 H 0.53795 0.36885 0.45796 0.0
H1092 H 0.6201 0.4478 0.42649 0.0
H1093 H 0.67505 0.39288 0.39455 0.0
C1094 C 0.66945 0.31853 0.38732 0.0
C1095 C 0.66208 0.28135 0.38371 0.0
C1096 C 0.6384 0.34913 0.40731 0.0
C1097 C 0.62387 0.27392 0.40271 0.0
C1098 C 0.59288 0.30404 0.42368 0.0
C1099 C 0.56789 0.37396 0.4441 0.0
C1100 C 0.57476 0.41253 0.44434 0.0
C1101 C 0.59952 0.34222 0.4254 0.0
C1102 C 0.61379 0.41863 0.42646 0.0
C1103 C 0.64535 0.38717 0.4083 0.0
H1104 H 0.38574 0.91859 0.05877 0.0
H1105 H 0.42216 0.94984 0.15615 0.0
H1106 H 0.37928 0.90995 0.2048 0.0
H1107 H 0.3298 0.86558 0.22132 0.0
H1108 H 0.29894 0.82872 0.12391 0.0
H1109 H 0.34022 0.87025 0.07531 0.0
C1110 C 0.38457 0.91675 0.09062 0.0
C1111 C 0.40791 0.93831 0.10288 0.0
C1112 C 0.36019 0.89219 0.11921 0.0
C1113 C 0.40533 0.93426 0.14484 0.0
C1114 C 0.38039 0.91121 0.17307 0.0
C1115 C 0.33199 0.86641 0.18948 0.0
C1116 C 0.31011 0.84337 0.17718 0.0
C1117 C 0.3574 0.88994 0.1609 0.0
C1118 C 0.31469 0.8454 0.13524 0.0
C1119 C 0.33856 0.86954 0.10703 0.0
H1120 H 0.91349 0.56118 0.90971 0.0
H1121 H 0.9909 0.64134 0.89988 0.0
H1122 H 0.94424 0.69838 0.85916 0.0
H1123 H 0.87948 0.72593 0.82867 0.0
H1124 H 0.8023 0.64432 0.8427 0.0
H1125 H 0.85083 0.58753 0.88006 0.0
C1126 C 0.92059 0.59098 0.89861 0.0
C1127 C 0.95575 0.59692 0.90795 0.0
C1128 C 0.89331 0.62358 0.87633 0.0
C1129 C 0.96415 0.63585 0.89307 0.0
C1130 C 0.93733 0.66851 0.86999 0.0
C1131 C 0.8733 0.69574 0.84 0.0
C1132 C 0.8371 0.68958 0.83294 0.0
C1133 C 0.90144 0.66289 0.86188 0.0
C1134 C 0.82965 0.65019 0.84777 0.0
C1135 C 0.8575 0.61753 0.86906 0.0
H1136 H 0.41367 0.51163 0.09702 0.0
H1137 H 0.49596 0.38601 0.1274 0.0
H1138 H 0.44662 0.37321 0.18848 0.0
H1139 H 0.37677 0.39337 0.22639 0.0
H1140 H 0.28808 0.51253 0.18885 0.0
H1141 H 0.34355 0.53373 0.13841 0.0
C1142 C 0.42057 0.48169 0.11738 0.0
C1143 C 0.45754 0.44939 0.10805 0.0
C1144 C 0.39121 0.47397 0.15126 0.0
C1145 C 0.46696 0.41071 0.13409 0.0
C1146 C 0.43907 0.40363 0.169 0.0
C1147 C 0.37004 0.42476 0.20835 0.0
C1148 C 0.32887 0.45167 0.21136 0.0
C1149 C 0.40067 0.43454 0.17715 0.0
C1150 C 0.31993 0.49177 0.18723 0.0
C1151 C 0.35139 0.5034 0.15799 0.0
H1152 H 0.425 0.50884 0.93624 0.0
H1153 H 0.47844 0.60501 0.94293 0.0
H1154 H 0.42491 0.65911 0.90899 0.0
H1155 H 0.36435 0.67934 0.87619 0.0
H1156 H 0.30938 0.58496 0.86833 0.0
H1157 H 0.36153 0.53014 0.90471 0.0
C1158 C 0.42495 0.54162 0.93007 0.0
C1159 C 0.45589 0.55275 0.94191 0.0
C1160 C 0.39361 0.57297 0.91074 0.0
C1161 C 0.4551 0.59546 0.93415 0.0
C1162 C 0.42443 0.62653 0.91478 0.0
C1163 C 0.36345 0.64683 0.8826 0.0
C1164 C 0.3331 0.63627 0.86937 0.0
C1165 C 0.39367 0.61565 0.9029 0.0
C1166 C 0.33233 0.594 0.87829 0.0
C1167 C 0.36234 0.5626 0.89883 0.0
H1168 H 0.13661 0.50224 0.66836 0.0
H1169 H 0.01362 0.59133 0.68991 0.0
H1170 H 0.03713 0.62179 0.73418 0.0
H1171 H 0.09489 0.62924 0.75996 0.0
H1172 H 0.21856 0.5431 0.73565 0.0
H1173 H 0.19273 0.50515 0.69975 0.0
C1174 C 0.11491 0.52812 0.68298 0.0
C1175 C 0.07348 0.54455 0.67555 0.0
C1176 C 0.12883 0.54607 0.70798 0.0
C1177 C 0.04558 0.5777 0.69528 0.0
C1178 C 0.05906 0.59541 0.72045 0.0
C1179 C 0.1157 0.60129 0.74788 0.0
C1180 C 0.15829 0.58842 0.75074 0.0
C1181 C 0.10084 0.58058 0.72623 0.0
C1182 C 0.18547 0.55293 0.73422 0.0
C1183 C 0.17079 0.5316 0.71337 0.0
H1184 H 0.26053 0.32086 0.67487 0.0
H1185 H 0.38214 0.22843 0.66136 0.0
H1186 H 0.40351 0.26995 0.5973 0.0
H1187 H 0.39292 0.33887 0.55493 0.0
H1188 H 0.27686 0.43749 0.57632 0.0
H1189 H 0.24678 0.38718 0.62635 0.0
C1190 C 0.29125 0.30963 0.65716 0.0
C1191 C 0.32017 0.27248 0.67237 0.0
C1192 C 0.30401 0.33491 0.62185 0.0
C1193 C 0.35995 0.25759 0.64996 0.0
C1194 C 0.37201 0.28116 0.61348 0.0
C1195 C 0.36042 0.34869 0.56929 0.0
C1196 C 0.33692 0.39135 0.56241 0.0
C1197 C 0.34507 0.32084 0.60033 0.0
C1198 C 0.29515 0.40447 0.58138 0.0
C1199 C 0.27832 0.37593 0.61029 0.0
H1200 H 0.23893 0.59265 0.14122 0.0
H1201 H 0.2193 0.71263 0.06212 0.0
H1202 H 0.19136 0.68618 0.01751 0.0
H1203 H 0.16103 0.63304 1.00823 0.0
H1204 H 0.17878 0.51411 0.08948 0.0
H1205 H 0.21948 0.53544 0.1256 0.0
C1206 C 0.22994 0.61231 0.1134 0.0
C1207 C 0.23128 0.65426 0.10459 0.0
C1208 C 0.21283 0.59726 0.08871 0.0
C1209 C 0.21897 0.67998 0.06898 0.0
C1210 C 0.20257 0.66501 0.0438 0.0
C1211 C 0.17488 0.61143 0.03309 0.0
C1212 C 0.16629 0.57244 0.04667 0.0
C1213 C 0.19762 0.62431 0.05433 0.0
C1214 C 0.18437 0.54464 0.07897 0.0
C1215 C 0.2076 0.55681 0.09967 0.0
H1216 H 0.64353 0.40594 0.69959 0.0
H1217 H 0.60112 0.29641 0.71697 0.0
H1218 H 0.54988 0.33469 0.67254 0.0
H1219 H 0.52331 0.39632 0.62194 0.0
H1220 H 0.56975 0.50396 0.60081 0.0
H1221 H 0.61262 0.46991 0.65313 0.0
C1222 C 0.62212 0.39108 0.69455 0.0
C1223 C 0.6257 0.34867 0.71177 0.0
C1224 C 0.59387 0.41276 0.66752 0.0
C1225 C 0.59859 0.32924 0.70421 0.0
C1226 C 0.56952 0.35099 0.67856 0.0
C1227 C 0.54227 0.41257 0.62928 0.0
C1228 C 0.54352 0.45246 0.60714 0.0
C1229 C 0.5678 0.39232 0.65894 0.0
C1230 C 0.56848 0.473 0.617 0.0
C1231 C 0.59305 0.45357 0.64703 0.0
H1232 H 0.79777 0.64275 0.16607 0.0
H1233 H 0.89983 0.65124 0.21346 0.0
H1234 H 0.95005 0.60697 0.16712 0.0
H1235 H 0.96563 0.57081 0.10924 0.0
H1236 H 0.86459 0.55898 0.06319 0.0
H1237 H 0.81346 0.59962 0.11267 0.0
C1238 C 0.83094 0.63426 0.16679 0.0
C1239 C 0.84487 0.65082 0.19297 0.0
C1240 C 0.85996 0.60875 0.13979 0.0
C1241 C 0.88806 0.63927 0.19353 0.0
C1242 C 0.91696 0.61409 0.16683 0.0
C1243 C 0.93239 0.57712 0.11013 0.0
C1244 C 0.91879 0.56267 0.08226 0.0
C1245 C 0.90333 0.59967 0.1391 0.0
C1246 C 0.87573 0.57012 0.08424 0.0
C1247 C 0.84652 0.59331 0.11251 0.0
H1248 H 0.93783 0.6433 0.56808 0.0
H1249 H 0.83513 0.6035 0.55658 0.0
H1250 H 0.78756 0.65065 0.60299 0.0
H1251 H 0.77746 0.69713 0.65258 0.0
H1252 H 0.88083 0.7375 0.66196 0.0
H1253 H 0.92594 0.69613 0.61062 0.0
C1254 C 0.90479 0.64568 0.57506 0.0
C1255 C 0.88994 0.61992 0.55913 0.0
C1256 C 0.878 0.6724 0.60188 0.0
C1257 C 0.84715 0.62334 0.56819 0.0
C1258 C 0.82012 0.6499 0.59509 0.0
C1259 C 0.80977 0.69714 0.64309 0.0
C1260 C 0.82594 0.7199 0.66153 0.0
C1261 C 0.83552 0.67358 0.61309 0.0
C1262 C 0.86765 0.72016 0.64845 0.0
C1263 C 0.8935 0.69646 0.61911 0.0
H1264 H 0.44133 0.63281 0.39587 0.0
H1265 H 0.4099 0.51985 0.39695 0.0
H1266 H 0.36286 0.55878 0.34869 0.0
H1267 H 0.32471 0.62701 0.31158 0.0
H1268 H 0.3518 0.74075 0.31612 0.0
H1269 H 0.40644 0.69975 0.35602 0.0
C1270 C 0.42483 0.61655 0.38491 0.0
C1271 C 0.42915 0.57351 0.40001 0.0
C1272 C 0.39663 0.63951 0.35823 0.0
C1273 C 0.40705 0.55304 0.3859 0.0
C1274 C 0.38003 0.57531 0.35834 0.0
C1275 C 0.34327 0.64252 0.32063 0.0
C1276 C 0.33438 0.68676 0.31084 0.0
C1277 C 0.37369 0.61885 0.34504 0.0
C1278 C 0.3581 0.70668 0.32335 0.0
C1279 C 0.38929 0.68328 0.34627 0.0
H1280 H 0.16764 0.32432 0.81959 0.0
H1281 H 0.2742 0.32793 0.86278 0.0
H1282 H 0.22871 0.38383 0.90112 0.0
H1283 H 0.15701 0.42756 0.92692 0.0
H1284 H 0.05159 0.41921 0.88514 0.0
H1285 H 0.09827 0.36964 0.84167 0.0
C1286 C 0.18122 0.33748 0.83704 0.0
C1287 C 0.22436 0.3216 0.83841 0.0
C1288 C 0.15486 0.36879 0.85955 0.0
C1289 C 0.24113 0.33943 0.86113 0.0
C1290 C 0.21506 0.37133 0.88321 0.0
C1291 C 0.14447 0.41532 0.90779 0.0
C1292 C 0.10081 0.42695 0.90944 0.0
C1293 C 0.17165 0.3857 0.88332 0.0
C1294 C 0.08497 0.41056 0.88473 0.0
C1295 C 0.11165 0.38216 0.85982 0.0
H1296 H 0.20463 0.34229 0.38399 0.0
H1297 H 0.11142 0.29655 0.35958 0.0
H1298 H 0.0589 0.33468 0.40982 0.0
H1299 H 0.03791 0.38778 0.45455 0.0
H1300 H 0.13154 0.43094 0.4816 0.0
H1301 H 0.18578 0.38647 0.43699 0.0
C1302 C 0.17296 0.34013 0.39024 0.0
C1303 C 0.16167 0.31716 0.36783 0.0
C1304 C 0.14309 0.36177 0.41946 0.0
C1305 C 0.12078 0.31405 0.37648 0.0
C1306 C 0.09072 0.33604 0.40502 0.0
C1307 C 0.07037 0.38668 0.4513 0.0
C1308 C 0.08079 0.4128 0.47093 0.0
C1309 C 0.10127 0.36096 0.42581 0.0
C1310 C 0.12288 0.41094 0.46688 0.0
C1311 C 0.15379 0.38582 0.44111 0.0
loop_
_geom_bond_atom_site_label_1
_geom_bond_atom_site_label_2
_geom_bond_distance
_geom_bond_site_symmetry_2
_ccdc_geom_bond_type
C0 O16 1.251 . S
C0 O18 1.254 . S
N1 C2 1.333 . S
N1 C6 1.307 . S
N1 Zn7 2.020 . S
C2 N1 1.333 . S
C2 C3 1.379 . S
C2 H20 0.952 . S
C3 C2 1.379 . S
C3 C4 1.390 . S
C3 H30 0.949 . S
C4 C3 1.390 . S
C4 C5 1.357 . S
C5 C4 1.357 . S
C5 C6 1.370 . S
C5 H31 0.950 . S
C6 N1 1.307 . S
C6 C5 1.370 . S
C6 H24 0.956 . S
Zn7 N1 2.020 . S
Zn7 O16 2.039 1_565 S
Zn7 O22 2.034 1_655 S
Zn7 O26 2.025 1_654 S
Zn7 O28 2.024 1_564 S
C8 O27 1.246 . S
C8 O28 1.249 . S
N9 C10 1.307 . S
N9 C11 1.333 . S
N9 Zn15 2.020 . S
C10 N9 1.307 . S
C10 C14 1.370 . S
C10 H21 0.948 1_556 S
C11 N9 1.333 . S
C11 C12 1.379 . S
C11 H19 0.952 . S
C12 C11 1.379 . S
C12 C13 1.390 . S
C12 H32 0.949 . S
C13 C12 1.390 . S
C13 C14 1.357 . S
C14 C10 1.370 . S
C14 C13 1.357 . S
C14 H33 0.950 . S
Zn15 N9 2.020 . S
Zn15 O18 2.025 1_456 S
Zn15 O23 2.024 1_546 S
Zn15 O25 2.039 1_545 S
Zn15 O27 2.034 1_455 S
O16 C0 1.251 . S
O16 Zn7 2.039 1_545 S
C17 O22 1.246 . S
C17 O23 1.249 . S
O18 C0 1.254 . S
O18 Zn15 2.025 1_654 S
H19 C11 0.952 . S
H20 C2 0.952 . S
H21 C10 0.948 1_554 S
O22 Zn7 2.034 1_455 S
O22 C17 1.246 . S
O23 Zn15 2.024 1_564 S
O23 C17 1.249 . S
H24 C6 0.956 . S
O25 Zn15 2.039 1_565 S
O25 C29 1.251 . S
O26 Zn7 2.025 1_456 S
O26 C29 1.254 . S
O27 C8 1.246 . S
O27 Zn15 2.034 1_655 S
O28 Zn7 2.024 1_546 S
O28 C8 1.249 . S
C29 O25 1.251 . S
C29 O26 1.254 . S
H30 C3 0.949 . S
H31 C5 0.950 . S
H32 C12 0.949 . S
H33 C14 0.950 . S
C34 O50 1.251 . S
C34 O52 1.254 . S
N35 C36 1.333 . S
N35 C40 1.307 . S
N35 Zn41 2.020 . S
C36 N35 1.333 . S
C36 C37 1.379 . S
C36 H54 0.952 . S
C37 C36 1.379 . S
C37 C38 1.390 . S
C37 H64 0.949 . S
C38 C37 1.390 . S
C38 C39 1.357 . S
C39 C38 1.357 . S
C39 C40 1.370 . S
C39 H65 0.950 . S
C40 N35 1.307 . S
C40 C39 1.370 . S
C40 H58 0.948 . S
Zn41 N35 2.020 . S
Zn41 O50 2.039 . S
Zn41 O56 2.034 . S
Zn41 O60 2.025 . S
Zn41 O62 2.024 . S
C42 O61 1.246 . S
C42 O62 1.249 . S
N43 C44 1.307 . S
N43 C45 1.333 . S
N43 Zn49 2.020 . S
C44 N43 1.307 . S
C44 C48 1.370 . S
C44 H55 0.948 . S
C45 N43 1.333 . S
C45 C46 1.379 . S
C45 H53 0.952 . S
C46 C45 1.379 . S
C46 C47 1.390 . S
C46 H66 0.949 . S
C47 C46 1.390 . S
C47 C48 1.357 . S
C48 C44 1.370 . S
C48 C47 1.357 . S
C48 H67 0.950 . S
Zn49 N43 2.020 . S
Zn49 O52 2.025 . S
Zn49 O57 2.024 . S
Zn49 O59 2.039 . S
Zn49 O61 2.034 . S
O50 C34 1.251 . S
O50 Zn41 2.039 . S
C51 O56 1.246 . S
C51 O57 1.249 . S
O52 C34 1.254 . S
O52 Zn49 2.025 . S
H53 C45 0.952 . S
H54 C36 0.952 . S
H55 C44 0.948 . S
O56 Zn41 2.034 . S
O56 C51 1.246 . S
O57 Zn49 2.024 . S
O57 C51 1.249 . S
H58 C40 0.948 . S
O59 Zn49 2.039 . S
O59 C63 1.251 . S
O60 Zn41 2.025 . S
O60 C63 1.254 . S
O61 C42 1.246 . S
O61 Zn49 2.034 . S
O62 Zn41 2.024 . S
O62 C42 1.249 . S
C63 O59 1.251 . S
C63 O60 1.254 . S
H64 C37 0.949 . S
H65 C39 0.950 . S
H66 C46 0.949 . S
H67 C48 0.950 . S
C68 O84 1.251 . S
C68 O86 1.254 . S
N69 C70 1.333 . S
N69 C74 1.307 . S
N69 Zn75 2.020 . S
C70 N69 1.333 . S
C70 C71 1.379 . S
C70 H88 0.952 . S
C71 C70 1.379 . S
C71 C72 1.390 . S
C71 H98 0.949 . S
C72 C71 1.390 . S
C72 C73 1.357 . S
C73 C72 1.357 . S
C73 C74 1.370 . S
C73 H99 0.950 . S
C74 N69 1.307 . S
C74 C73 1.370 . S
C74 H92 0.948 . S
Zn75 N69 2.020 . S
Zn75 O84 2.039 1_545 S
Zn75 O90 2.034 . S
Zn75 O94 2.025 . S
Zn75 O96 2.024 1_545 S
C76 O95 1.246 . S
C76 O96 1.249 . S
N77 C78 1.307 . S
N77 C79 1.333 . S
N77 Zn83 2.020 . S
C78 N77 1.307 . S
C78 C82 1.370 . S
C78 H89 0.948 . S
C79 N77 1.333 . S
C79 C80 1.379 . S
C79 H87 0.952 . S
C80 C79 1.379 . S
C80 C81 1.390 . S
C80 H100 0.949 . S
C81 C80 1.390 . S
C81 C82 1.357 . S
C82 C78 1.370 . S
C82 C81 1.357 . S
C82 H101 0.950 . S
Zn83 N77 2.020 . S
Zn83 O86 2.025 . S
Zn83 O91 2.024 1_565 S
Zn83 O93 2.039 1_565 S
Zn83 O95 2.034 . S
O84 C68 1.251 . S
O84 Zn75 2.039 1_565 S
C85 O90 1.246 . S
C85 O91 1.249 . S
O86 C68 1.254 . S
O86 Zn83 2.025 . S
H87 C79 0.952 . S
H88 C70 0.952 . S
H89 C78 0.948 . S
O90 Zn75 2.034 . S
O90 C85 1.246 . S
O91 Zn83 2.024 1_545 S
O91 C85 1.249 . S
H92 C74 0.948 . S
O93 Zn83 2.039 1_545 S
O93 C97 1.251 . S
O94 Zn75 2.025 . S
O94 C97 1.254 . S
O95 C76 1.246 . S
O95 Zn83 2.034 . S
O96 Zn75 2.024 1_565 S
O96 C76 1.249 . S
C97 O93 1.251 . S
C97 O94 1.254 . S
H98 C71 0.949 . S
H99 C73 0.950 . S
H100 C80 0.949 . S
H101 C82 0.950 . S
C102 O118 1.251 . S
C102 O120 1.254 . S
N103 C104 1.333 . S
N103 C108 1.307 . S
N103 Zn109 2.020 . S
C104 N103 1.333 . S
C104 C105 1.379 . S
C104 H122 0.952 . S
C105 C104 1.379 . S
C105 C106 1.390 . S
C105 H132 0.949 . S
C106 C105 1.390 . S
C106 C107 1.357 . S
C107 C106 1.357 . S
C107 C108 1.370 . S
C107 H133 0.950 . S
C108 N103 1.307 . S
C108 C107 1.370 . S
C108 H126 0.948 . S
Zn109 N103 2.020 . S
Zn109 O118 2.039 . S
Zn109 O124 2.034 . S
Zn109 O128 2.025 . S
Zn109 O130 2.024 . S
C110 O129 1.246 . S
C110 O130 1.249 . S
N111 C112 1.307 . S
N111 C113 1.333 . S
N111 Zn117 2.020 . S
C112 N111 1.307 . S
C112 C116 1.370 . S
C112 H123 0.948 . S
C113 N111 1.333 . S
C113 C114 1.379 . S
C113 H121 0.952 . S
C114 C113 1.379 . S
C114 C115 1.390 . S
C114 H134 0.949 . S
C115 C114 1.390 . S
C115 C116 1.357 . S
C116 C112 1.370 . S
C116 C115 1.357 . S
C116 H135 0.950 . S
Zn117 N111 2.020 . S
Zn117 O120 2.025 . S
Zn117 O125 2.024 . S
Zn117 O127 2.039 . S
Zn117 O129 2.034 . S
O118 C102 1.251 . S
O118 Zn109 2.039 . S
C119 O124 1.246 . S
C119 O125 1.249 . S
O120 C102 1.254 . S
O120 Zn117 2.025 . S
H121 C113 0.952 . S
H122 C104 0.952 . S
H123 C112 0.948 . S
O124 Zn109 2.034 . S
O124 C119 1.246 . S
O125 Zn117 2.024 . S
O125 C119 1.249 . S
H126 C108 0.948 . S
O127 Zn117 2.039 . S
O127 C131 1.251 . S
O128 Zn109 2.025 . S
O128 C131 1.254 . S
O129 C110 1.246 . S
O129 Zn117 2.034 . S
O130 Zn109 2.024 . S
O130 C110 1.249 . S
C131 O127 1.251 . S
C131 O128 1.254 . S
H132 C105 0.949 . S
H133 C107 0.950 . S
H134 C114 0.949 . S
H135 C116 0.950 . S
C136 O152 1.251 . S
C136 O154 1.254 . S
N137 C138 1.333 . S
N137 C142 1.307 1_655 S
N137 Zn143 2.028 . S
C138 N137 1.333 . S
C138 C139 1.379 . S
C138 H156 0.952 . S
C139 C138 1.379 . S
C139 C140 1.390 . S
C139 H166 0.949 . S
C140 C139 1.390 . S
C140 C141 1.357 1_655 S
C141 C140 1.357 1_455 S
C141 C142 1.370 . S
C141 H167 0.950 . S
C142 N137 1.307 1_455 S
C142 C141 1.370 . S
C142 H160 0.948 . S
Zn143 N137 2.028 . S
Zn143 O152 2.048 1_565 S
Zn143 O158 2.044 . S
Zn143 O162 2.015 1_655 S
Zn143 O164 2.012 1_665 S
C144 O163 1.246 . S
C144 O164 1.249 . S
N145 C146 1.307 1_455 S
N145 C147 1.333 . S
N145 Zn151 2.031 . S
C146 N145 1.307 1_655 S
C146 C150 1.370 . S
C146 H157 0.948 . S
C147 N145 1.333 . S
C147 C148 1.379 . S
C147 H155 0.952 . S
C148 C147 1.379 . S
C148 C149 1.390 . S
C148 H168 0.949 . S
C149 C148 1.390 . S
C149 C150 1.357 1_455 S
C150 C146 1.370 . S
C150 C149 1.357 1_655 S
C150 H169 0.950 . S
Zn151 N145 2.031 . S
Zn151 O154 2.010 1_455 S
Zn151 O159 2.007 1_455 S
Zn151 O161 2.051 1_545 S
Zn151 O163 2.049 . S
O152 C136 1.251 . S
O152 Zn143 2.048 1_545 S
C153 O158 1.246 . S
C153 O159 1.249 1_565 S
O154 C136 1.254 . S
O154 Zn151 2.010 1_655 S
H155 C147 0.952 . S
H156 C138 0.952 . S
H157 C146 0.948 . S
O158 Zn143 2.044 . S
O158 C153 1.246 . S
O159 Zn151 2.007 1_655 S
O159 C153 1.249 1_545 S
H160 C142 0.948 . S
O161 Zn151 2.051 1_565 S
O161 C165 1.251 . S
O162 Zn143 2.015 1_455 S
O162 C165 1.254 . S
O163 C144 1.246 . S
O163 Zn151 2.049 . S
O164 Zn143 2.012 1_445 S
O164 C144 1.249 . S
C165 O161 1.251 . S
C165 O162 1.254 . S
H166 C139 0.949 . S
H167 C141 0.950 . S
H168 C148 0.949 . S
H169 C150 0.950 . S
C170 O186 1.251 . S
C170 O188 1.254 . S
N171 C172 1.333 . S
N171 C176 1.307 . S
N171 Zn177 2.020 . S
C172 N171 1.333 . S
C172 C173 1.379 . S
C172 H190 0.952 . S
C173 C172 1.379 . S
C173 C174 1.390 . S
C173 H200 0.949 . S
C174 C173 1.390 . S
C174 C175 1.357 . S
C175 C174 1.357 . S
C175 C176 1.370 . S
C175 H201 0.950 . S
C176 N171 1.307 . S
C176 C175 1.370 . S
C176 H194 0.948 . S
Zn177 N171 2.020 . S
Zn177 O186 2.039 . S
Zn177 O192 2.034 . S
Zn177 O196 2.025 . S
Zn177 O198 2.024 . S
C178 O197 1.246 . S
C178 O198 1.249 . S
N179 C180 1.307 . S
N179 C181 1.333 . S
N179 Zn185 2.020 . S
C180 N179 1.307 . S
C180 C184 1.370 . S
C180 H191 0.948 . S
C181 N179 1.333 . S
C181 C182 1.379 . S
C181 H189 0.952 . S
C182 C181 1.379 . S
C182 C183 1.390 . S
C182 H202 0.949 . S
C183 C182 1.390 . S
C183 C184 1.357 . S
C184 C180 1.370 . S
C184 C183 1.357 . S
C184 H203 0.950 . S
Zn185 N179 2.020 . S
Zn185 O188 2.025 . S
Zn185 O193 2.024 . S
Zn185 O195 2.039 . S
Zn185 O197 2.034 . S
O186 C170 1.251 . S
O186 Zn177 2.039 . S
C187 O192 1.246 . S
C187 O193 1.249 . S
O188 C170 1.254 . S
O188 Zn185 2.025 . S
H189 C181 0.952 . S
H190 C172 0.952 . S
H191 C180 0.948 . S
O192 Zn177 2.034 . S
O192 C187 1.246 . S
O193 Zn185 2.024 . S
O193 C187 1.249 . S
H194 C176 0.948 . S
O195 Zn185 2.039 . S
O195 C199 1.251 . S
O196 Zn177 2.025 . S
O196 C199 1.254 . S
O197 C178 1.246 . S
O197 Zn185 2.034 . S
O198 Zn177 2.024 . S
O198 C178 1.249 . S
C199 O195 1.251 . S
C199 O196 1.254 . S
H200 C173 0.949 . S
H201 C175 0.950 . S
H202 C182 0.949 . S
H203 C184 0.950 . S
C204 O220 1.251 . S
C204 O222 1.254 . S
N205 C206 1.333 . S
N205 C210 1.307 1_545 S
N205 Zn211 2.020 . S
C206 N205 1.333 . S
C206 C207 1.379 . S
C206 H224 0.952 . S
C207 C206 1.379 . S
C207 C208 1.390 . S
C207 H234 0.949 . S
C208 C207 1.390 . S
C208 C209 1.357 1_545 S
C209 C208 1.357 1_565 S
C209 C210 1.370 . S
C209 H235 0.950 . S
C210 N205 1.307 1_565 S
C210 C209 1.370 . S
C210 H228 0.948 . S
Zn211 N205 2.020 . S
Zn211 O220 2.039 . S
Zn211 O226 2.034 1_554 S
Zn211 O230 2.025 1_544 S
Zn211 O232 2.024 1_545 S
C212 O231 1.246 . S
C212 O232 1.249 . S
N213 C214 1.307 1_565 S
N213 C215 1.333 . S
N213 Zn219 2.020 1_565 S
C214 N213 1.307 1_545 S
C214 C218 1.370 . S
C214 H225 0.948 . S
C215 N213 1.333 . S
C215 C216 1.379 . S
C215 H223 0.952 . S
C216 C215 1.379 . S
C216 C217 1.390 . S
C216 H236 0.949 . S
C217 C216 1.390 . S
C217 C218 1.357 1_565 S
C218 C214 1.370 . S
C218 C217 1.357 1_545 S
C218 H237 0.950 . S
Zn219 N213 2.020 1_545 S
Zn219 O222 2.025 1_556 S
Zn219 O227 2.024 . S
Zn219 O229 2.039 1_545 S
Zn219 O231 2.034 1_546 S
O220 C204 1.251 . S
O220 Zn211 2.039 . S
C221 O226 1.246 . S
C221 O227 1.249 . S
O222 C204 1.254 . S
O222 Zn219 2.025 1_554 S
H223 C215 0.952 . S
H224 C206 0.952 . S
H225 C214 0.948 . S
O226 Zn211 2.034 1_556 S
O226 C221 1.246 . S
O227 Zn219 2.024 . S
O227 C221 1.249 . S
H228 C210 0.948 . S
O229 Zn219 2.039 1_565 S
O229 C233 1.251 . S
O230 Zn211 2.025 1_566 S
O230 C233 1.254 . S
O231 C212 1.246 . S
O231 Zn219 2.034 1_564 S
O232 Zn211 2.024 1_565 S
O232 C212 1.249 . S
C233 O229 1.251 . S
C233 O230 1.254 . S
H234 C207 0.949 . S
H235 C209 0.950 . S
H236 C216 0.949 . S
H237 C218 0.950 . S
C238 O254 1.251 . S
C238 O256 1.254 . S
N239 C240 1.333 . S
N239 C244 1.307 . S
N239 Zn245 2.020 . S
C240 N239 1.333 . S
C240 C241 1.379 . S
C240 H258 0.952 . S
C241 C240 1.379 . S
C241 C242 1.390 . S
C241 H268 0.949 . S
C242 C241 1.390 . S
C242 C243 1.357 . S
C243 C242 1.357 . S
C243 C244 1.370 . S
C243 H269 0.950 . S
C244 N239 1.307 . S
C244 C243 1.370 . S
C244 H262 0.948 . S
Zn245 N239 2.020 . S
Zn245 O254 2.039 . S
Zn245 O260 2.034 . S
Zn245 O264 2.025 . S
Zn245 O266 2.024 . S
C246 O265 1.246 . S
C246 O266 1.249 . S
N247 C248 1.307 . S
N247 C249 1.333 . S
N247 Zn253 2.020 . S
C248 N247 1.307 . S
C248 C252 1.370 . S
C248 H259 0.948 . S
C249 N247 1.333 . S
C249 C250 1.379 . S
C249 H257 0.952 . S
C250 C249 1.379 . S
C250 C251 1.390 . S
C250 H270 0.949 . S
C251 C250 1.390 . S
C251 C252 1.357 . S
C252 C248 1.370 . S
C252 C251 1.357 . S
C252 H271 0.950 . S
Zn253 N247 2.020 . S
Zn253 O256 2.025 . S
Zn253 O261 2.024 . S
Zn253 O263 2.039 . S
Zn253 O265 2.034 . S
O254 C238 1.251 . S
O254 Zn245 2.039 . S
C255 O260 1.246 . S
C255 O261 1.249 . S
O256 C238 1.254 . S
O256 Zn253 2.025 . S
H257 C249 0.952 . S
H258 C240 0.952 . S
H259 C248 0.948 . S
O260 Zn245 2.034 . S
O260 C255 1.246 . S
O261 Zn253 2.024 . S
O261 C255 1.249 . S
H262 C244 0.948 . S
O263 Zn253 2.039 . S
O263 C267 1.251 . S
O264 Zn245 2.025 . S
O264 C267 1.254 . S
O265 C246 1.246 . S
O265 Zn253 2.034 . S
O266 Zn245 2.024 . S
O266 C246 1.249 . S
C267 O263 1.251 . S
C267 O264 1.254 . S
H268 C241 0.949 . S
H269 C243 0.950 . S
H270 C250 0.949 . S
H271 C252 0.950 . S
C272 O288 1.251 . S
C272 O290 1.254 . S
N273 C274 1.333 . S
N273 C278 1.307 . S
N273 Zn279 2.020 . S
C274 N273 1.333 . S
C274 C275 1.379 . S
C274 H292 0.952 . S
C275 C274 1.379 . S
C275 C276 1.390 . S
C275 H302 0.949 . S
C276 C275 1.390 . S
C276 C277 1.357 . S
C277 C276 1.357 . S
C277 C278 1.370 . S
C277 H303 0.950 . S
C278 N273 1.307 . S
C278 C277 1.370 . S
C278 H296 0.948 . S
Zn279 N273 2.020 . S
Zn279 O288 2.039 . S
Zn279 O294 2.034 1_556 S
Zn279 O298 2.025 1_556 S
Zn279 O300 2.024 . S
C280 O299 1.246 . S
C280 O300 1.249 . S
N281 C282 1.307 . S
N281 C283 1.333 . S
N281 Zn287 2.020 . S
C282 N281 1.307 . S
C282 C286 1.370 . S
C282 H293 0.948 . S
C283 N281 1.333 . S
C283 C284 1.379 . S
C283 H291 0.952 . S
C284 C283 1.379 . S
C284 C285 1.390 . S
C284 H304 0.949 . S
C285 C284 1.390 . S
C285 C286 1.357 . S
C286 C282 1.370 . S
C286 C285 1.357 . S
C286 H305 0.950 . S
Zn287 N281 2.020 . S
Zn287 O290 2.025 1_554 S
Zn287 O295 2.024 . S
Zn287 O297 2.039 . S
Zn287 O299 2.034 1_554 S
O288 C272 1.251 . S
O288 Zn279 2.039 . S
C289 O294 1.246 . S
C289 O295 1.249 . S
O290 C272 1.254 . S
O290 Zn287 2.025 1_556 S
H291 C283 0.952 . S
H292 C274 0.952 . S
H293 C282 0.948 . S
O294 Zn279 2.034 1_554 S
O294 C289 1.246 . S
O295 Zn287 2.024 . S
O295 C289 1.249 . S
H296 C278 0.948 . S
O297 Zn287 2.039 . S
O297 C301 1.251 . S
O298 Zn279 2.025 1_554 S
O298 C301 1.254 . S
O299 C280 1.246 . S
O299 Zn287 2.034 1_556 S
O300 Zn279 2.024 . S
O300 C280 1.249 . S
C301 O297 1.251 . S
C301 O298 1.254 . S
H302 C275 0.949 . S
H303 C277 0.950 . S
H304 C284 0.949 . S
H305 C286 0.950 . S
C306 O322 1.251 . S
C306 O324 1.254 . S
N307 C308 1.333 . S
N307 C312 1.307 . S
N307 Zn313 2.020 . S
C308 N307 1.333 . S
C308 C309 1.379 . S
C308 H326 0.952 . S
C309 C308 1.379 . S
C309 C310 1.390 . S
C309 H336 0.949 . S
C310 C309 1.390 . S
C310 C311 1.357 . S
C311 C310 1.357 . S
C311 C312 1.370 . S
C311 H337 0.950 . S
C312 N307 1.307 . S
C312 C311 1.370 . S
C312 H330 0.948 . S
Zn313 N307 2.020 . S
Zn313 O322 2.039 . S
Zn313 O328 2.034 . S
Zn313 O332 2.025 . S
Zn313 O334 2.024 . S
C314 O333 1.246 . S
C314 O334 1.249 . S
N315 C316 1.307 . S
N315 C317 1.333 . S
N315 Zn321 2.020 . S
C316 N315 1.307 . S
C316 C320 1.370 . S
C316 H327 0.948 . S
C317 N315 1.333 . S
C317 C318 1.379 . S
C317 H325 0.952 . S
C318 C317 1.379 . S
C318 C319 1.390 . S
C318 H338 0.949 . S
C319 C318 1.390 . S
C319 C320 1.357 . S
C320 C316 1.370 . S
C320 C319 1.357 . S
C320 H339 0.950 . S
Zn321 N315 2.020 . S
Zn321 O324 2.025 . S
Zn321 O329 2.024 . S
Zn321 O331 2.039 . S
Zn321 O333 2.034 . S
O322 C306 1.251 . S
O322 Zn313 2.039 . S
C323 O328 1.246 . S
C323 O329 1.249 . S
O324 C306 1.254 . S
O324 Zn321 2.025 . S
H325 C317 0.952 . S
H326 C308 0.952 . S
H327 C316 0.948 . S
O328 Zn313 2.034 . S
O328 C323 1.246 . S
O329 Zn321 2.024 . S
O329 C323 1.249 . S
H330 C312 0.948 . S
O331 Zn321 2.039 . S
O331 C335 1.251 . S
O332 Zn313 2.025 . S
O332 C335 1.254 . S
O333 C314 1.246 . S
O333 Zn321 2.034 . S
O334 Zn313 2.024 . S
O334 C314 1.249 . S
C335 O331 1.251 . S
C335 O332 1.254 . S
H336 C309 0.949 . S
H337 C311 0.950 . S
H338 C318 0.949 . S
H339 C320 0.950 . S
C340 O356 1.251 . S
C340 O358 1.254 . S
N341 C342 1.333 . S
N341 C346 1.307 . S
N341 Zn347 2.020 . S
C342 N341 1.333 . S
C342 C343 1.379 . S
C342 H360 0.952 . S
C343 C342 1.379 . S
C343 C344 1.390 . S
C343 H370 0.949 . S
C344 C343 1.390 . S
C344 C345 1.357 . S
C345 C344 1.357 . S
C345 C346 1.370 . S
C345 H371 0.950 . S
C346 N341 1.307 . S
C346 C345 1.370 . S
C346 H364 0.948 . S
Zn347 N341 2.020 . S
Zn347 O356 2.039 1_455 S
Zn347 O362 2.034 . S
Zn347 O366 2.025 . S
Zn347 O368 2.024 . S
C348 O367 1.246 . S
C348 O368 1.249 1_655 S
N349 C350 1.307 . S
N349 C351 1.333 . S
N349 Zn355 2.020 . S
C350 N349 1.307 . S
C350 C354 1.370 . S
C350 H361 0.948 . S
C351 N349 1.333 . S
C351 C352 1.379 . S
C351 H359 0.952 . S
C352 C351 1.379 . S
C352 C353 1.390 . S
C352 H372 0.949 . S
C353 C352 1.390 . S
C353 C354 1.357 . S
C354 C350 1.370 . S
C354 C353 1.357 . S
C354 H373 0.950 . S
Zn355 N349 2.020 . S
Zn355 O358 2.025 . S
Zn355 O363 2.028 . S
Zn355 O365 2.039 1_655 S
Zn355 O367 2.034 . S
O356 C340 1.251 . S
O356 Zn347 2.039 1_655 S
C357 O362 1.246 . S
C357 O363 1.243 1_455 S
O358 C340 1.254 . S
O358 Zn355 2.025 . S
H359 C351 0.952 . S
H360 C342 0.952 . S
H361 C350 0.948 . S
O362 Zn347 2.034 . S
O362 C357 1.246 . S
O363 Zn355 2.028 . S
O363 C357 1.243 1_655 S
H364 C346 0.948 . S
O365 Zn355 2.039 1_455 S
O365 C369 1.251 . S
O366 Zn347 2.025 . S
O366 C369 1.254 . S
O367 C348 1.246 . S
O367 Zn355 2.034 . S
O368 Zn347 2.024 . S
O368 C348 1.249 1_455 S
C369 O365 1.251 . S
C369 O366 1.254 . S
H370 C343 0.949 . S
H371 C345 0.950 . S
H372 C352 0.949 . S
H373 C354 0.950 . S
C374 O390 1.251 . S
C374 O392 1.254 . S
N375 C376 1.333 . S
N375 C380 1.307 . S
N375 Zn381 2.020 . S
C376 N375 1.333 . S
C376 C377 1.379 . S
C376 H394 0.952 . S
C377 C376 1.379 . S
C377 C378 1.390 . S
C377 H404 0.949 . S
C378 C377 1.390 . S
C378 C379 1.357 . S
C379 C378 1.357 . S
C379 C380 1.370 . S
C379 H405 0.950 . S
C380 N375 1.307 . S
C380 C379 1.370 . S
C380 H398 0.948 . S
Zn381 N375 2.020 . S
Zn381 O390 2.039 . S
Zn381 O396 2.034 . S
Zn381 O400 2.025 . S
Zn381 O402 2.024 . S
C382 O401 1.246 . S
C382 O402 1.249 . S
N383 C384 1.307 . S
N383 C385 1.333 . S
N383 Zn389 2.020 . S
C384 N383 1.307 . S
C384 C388 1.370 . S
C384 H395 0.948 . S
C385 N383 1.333 . S
C385 C386 1.379 . S
C385 H393 0.952 . S
C386 C385 1.379 . S
C386 C387 1.390 . S
C386 H406 0.949 . S
C387 C386 1.390 . S
C387 C388 1.357 . S
C388 C384 1.370 . S
C388 C387 1.357 . S
C388 H407 0.950 . S
Zn389 N383 2.020 . S
Zn389 O392 2.025 . S
Zn389 O397 2.024 . S
Zn389 O399 2.039 . S
Zn389 O401 2.034 . S
O390 C374 1.251 . S
O390 Zn381 2.039 . S
C391 O396 1.246 . S
C391 O397 1.249 . S
O392 C374 1.254 . S
O392 Zn389 2.025 . S
H393 C385 0.952 . S
H394 C376 0.952 . S
H395 C384 0.948 . S
O396 Zn381 2.034 . S
O396 C391 1.246 . S
O397 Zn389 2.024 . S
O397 C391 1.249 . S
H398 C380 0.948 . S
O399 Zn389 2.039 . S
O399 C403 1.251 . S
O400 Zn381 2.025 . S
O400 C403 1.254 . S
O401 C382 1.246 . S
O401 Zn389 2.034 . S
O402 Zn381 2.024 . S
O402 C382 1.249 . S
C403 O399 1.251 . S
C403 O400 1.254 . S
H404 C377 0.949 . S
H405 C379 0.950 . S
H406 C386 0.949 . S
H407 C388 0.950 . S
C408 O424 1.251 . S
C408 O426 1.254 . S
N409 C410 1.333 . S
N409 C414 1.307 . S
N409 Zn415 2.020 . S
C410 N409 1.333 . S
C410 C411 1.379 . S
C410 H428 0.952 . S
C411 C410 1.379 . S
C411 C412 1.390 . S
C411 H438 0.949 . S
C412 C411 1.390 . S
C412 C413 1.357 . S
C413 C412 1.357 . S
C413 C414 1.370 . S
C413 H439 0.950 . S
C414 N409 1.307 . S
C414 C413 1.370 . S
C414 H432 0.948 . S
Zn415 N409 2.020 . S
Zn415 O424 2.039 . S
Zn415 O430 2.034 . S
Zn415 O434 2.025 . S
Zn415 O436 2.024 . S
C416 O435 1.246 . S
C416 O436 1.249 . S
N417 C418 1.307 . S
N417 C419 1.333 . S
N417 Zn423 2.020 . S
C418 N417 1.307 . S
C418 C422 1.370 . S
C418 H429 0.948 . S
C419 N417 1.333 . S
C419 C420 1.379 . S
C419 H427 0.952 . S
C420 C419 1.379 . S
C420 C421 1.390 . S
C420 H440 0.949 . S
C421 C420 1.390 . S
C421 C422 1.357 . S
C422 C418 1.370 . S
C422 C421 1.357 . S
C422 H441 0.950 . S
Zn423 N417 2.020 . S
Zn423 O426 2.025 . S
Zn423 O431 2.024 . S
Zn423 O433 2.039 . S
Zn423 O435 2.034 . S
O424 C408 1.251 . S
O424 Zn415 2.039 . S
C425 O430 1.246 . S
C425 O431 1.249 . S
O426 C408 1.254 . S
O426 Zn423 2.025 . S
H427 C419 0.952 . S
H428 C410 0.952 . S
H429 C418 0.948 . S
O430 Zn415 2.034 . S
O430 C425 1.246 . S
O431 Zn423 2.024 . S
O431 C425 1.249 . S
H432 C414 0.948 . S
O433 Zn423 2.039 . S
O433 C437 1.251 . S
O434 Zn415 2.025 . S
O434 C437 1.254 . S
O435 C416 1.246 . S
O435 Zn423 2.034 . S
O436 Zn415 2.024 . S
O436 C416 1.249 . S
C437 O433 1.251 . S
C437 O434 1.254 . S
H438 C411 0.949 . S
H439 C413 0.950 . S
H440 C420 0.949 . S
H441 C422 0.950 . S
C442 O458 1.251 . S
C442 O460 1.254 . S
N443 C444 1.333 . S
N443 C448 1.307 . S
N443 Zn449 2.020 . S
C444 N443 1.333 . S
C444 C445 1.379 . S
C444 H462 0.952 . S
C445 C444 1.379 . S
C445 C446 1.390 . S
C445 H472 0.949 . S
C446 C445 1.390 . S
C446 C447 1.357 . S
C447 C446 1.357 . S
C447 C448 1.370 . S
C447 H473 0.950 . S
C448 N443 1.307 . S
C448 C447 1.370 . S
C448 H466 0.948 . S
Zn449 N443 2.020 . S
Zn449 O458 2.039 . S
Zn449 O464 2.034 . S
Zn449 O468 2.025 . S
Zn449 O470 2.024 . S
C450 O469 1.246 . S
C450 O470 1.249 . S
N451 C452 1.307 . S
N451 C453 1.333 . S
N451 Zn457 2.020 . S
C452 N451 1.307 . S
C452 C456 1.370 . S
C452 H463 0.948 . S
C453 N451 1.333 . S
C453 C454 1.379 . S
C453 H461 0.952 . S
C454 C453 1.379 . S
C454 C455 1.390 . S
C454 H474 0.949 . S
C455 C454 1.390 . S
C455 C456 1.357 . S
C456 C452 1.370 . S
C456 C455 1.357 . S
C456 H475 0.950 . S
Zn457 N451 2.020 . S
Zn457 O460 2.025 . S
Zn457 O465 2.024 . S
Zn457 O467 2.039 . S
Zn457 O469 2.034 . S
O458 C442 1.251 . S
O458 Zn449 2.039 . S
C459 O464 1.246 . S
C459 O465 1.249 . S
O460 C442 1.254 . S
O460 Zn457 2.025 . S
H461 C453 0.952 . S
H462 C444 0.952 . S
H463 C452 0.948 . S
O464 Zn449 2.034 . S
O464 C459 1.246 . S
O465 Zn457 2.024 . S
O465 C459 1.249 . S
H466 C448 0.948 . S
O467 Zn457 2.039 . S
O467 C471 1.251 . S
O468 Zn449 2.025 . S
O468 C471 1.254 . S
O469 C450 1.246 . S
O469 Zn457 2.034 . S
O470 Zn449 2.024 . S
O470 C450 1.249 . S
C471 O467 1.251 . S
C471 O468 1.254 . S
H472 C445 0.949 . S
H473 C447 0.950 . S
H474 C454 0.949 . S
H475 C456 0.950 . S
C476 O492 1.251 . S
C476 O494 1.254 . S
N477 C478 1.333 . S
N477 C482 1.307 . S
N477 Zn483 2.020 . S
C478 N477 1.333 . S
C478 C479 1.379 . S
C478 H496 0.952 . S
C479 C478 1.379 . S
C479 C480 1.390 . S
C479 H506 0.949 . S
C480 C479 1.390 . S
C480 C481 1.357 . S
C481 C480 1.357 . S
C481 C482 1.370 . S
C481 H507 0.950 . S
C482 N477 1.307 . S
C482 C481 1.370 . S
C482 H500 0.948 . S
Zn483 N477 2.020 . S
Zn483 O492 2.039 . S
Zn483 O498 2.034 . S
Zn483 O502 2.025 . S
Zn483 O504 2.024 . S
C484 O503 1.246 . S
C484 O504 1.249 . S
N485 C486 1.307 . S
N485 C487 1.333 . S
N485 Zn491 2.020 . S
C486 N485 1.307 . S
C486 C490 1.370 . S
C486 H497 0.948 . S
C487 N485 1.333 . S
C487 C488 1.379 . S
C487 H495 0.952 . S
C488 C487 1.379 . S
C488 C489 1.390 . S
C488 H508 0.949 . S
C489 C488 1.390 . S
C489 C490 1.357 . S
C490 C486 1.370 . S
C490 C489 1.357 . S
C490 H509 0.950 . S
Zn491 N485 2.020 . S
Zn491 O494 2.025 . S
Zn491 O499 2.024 . S
Zn491 O501 2.039 . S
Zn491 O503 2.034 . S
O492 C476 1.251 . S
O492 Zn483 2.039 . S
C493 O498 1.246 . S
C493 O499 1.249 . S
O494 C476 1.254 . S
O494 Zn491 2.025 . S
H495 C487 0.952 . S
H496 C478 0.952 . S
H497 C486 0.948 . S
O498 Zn483 2.034 . S
O498 C493 1.246 . S
O499 Zn491 2.024 . S
O499 C493 1.249 . S
H500 C482 0.948 . S
O501 Zn491 2.039 . S
O501 C505 1.251 . S
O502 Zn483 2.025 . S
O502 C505 1.254 . S
O503 C484 1.246 . S
O503 Zn491 2.034 . S
O504 Zn483 2.024 . S
O504 C484 1.249 . S
C505 O501 1.251 . S
C505 O502 1.254 . S
H506 C479 0.949 . S
H507 C481 0.950 . S
H508 C488 0.949 . S
H509 C490 0.950 . S
C510 O526 1.251 . S
C510 O528 1.254 . S
N511 C512 1.333 . S
N511 C516 1.307 1_554 S
N511 Zn517 2.020 . S
C512 N511 1.333 . S
C512 C513 1.379 . S
C512 H530 0.952 . S
C513 C512 1.379 . S
C513 C514 1.390 . S
C513 H540 0.949 . S
C514 C513 1.390 . S
C514 C515 1.357 1_554 S
C515 C514 1.357 1_556 S
C515 C516 1.370 . S
C515 H541 0.950 . S
C516 N511 1.307 1_556 S
C516 C515 1.370 . S
C516 H534 0.948 . S
Zn517 N511 2.020 . S
Zn517 O526 2.039 . S
Zn517 O532 2.034 1_455 S
Zn517 O536 2.025 1_454 S
Zn517 O538 2.024 1_554 S
C518 O537 1.246 . S
C518 O538 1.249 . S
N519 C520 1.307 1_556 S
N519 C521 1.333 . S
N519 Zn525 2.009 1_556 S
C520 N519 1.307 1_554 S
C520 C524 1.370 . S
C520 H531 0.948 . S
C521 N519 1.333 . S
C521 C522 1.379 . S
C521 H529 0.952 . S
C522 C521 1.379 . S
C522 C523 1.390 . S
C522 H542 0.949 . S
C523 C522 1.390 . S
C523 C524 1.357 1_556 S
C524 C520 1.370 . S
C524 C523 1.357 1_554 S
C524 H543 0.950 . S
Zn525 N519 2.009 1_554 S
Zn525 O528 2.044 1_655 S
Zn525 O533 2.043 . S
Zn525 O535 2.024 1_554 S
Zn525 O537 2.018 1_654 S
O526 C510 1.251 . S
O526 Zn517 2.039 . S
C527 O532 1.246 . S
C527 O533 1.249 . S
O528 C510 1.254 . S
O528 Zn525 2.044 1_455 S
H529 C521 0.952 . S
H530 C512 0.952 . S
H531 C520 0.948 . S
O532 Zn517 2.034 1_655 S
O532 C527 1.246 . S
O533 Zn525 2.043 . S
O533 C527 1.249 . S
H534 C516 0.948 . S
O535 Zn525 2.024 1_556 S
O535 C539 1.251 . S
O536 Zn517 2.025 1_656 S
O536 C539 1.254 . S
O537 C518 1.246 . S
O537 Zn525 2.018 1_456 S
O538 Zn517 2.024 1_556 S
O538 C518 1.249 . S
C539 O535 1.251 . S
C539 O536 1.254 . S
H540 C513 0.949 . S
H541 C515 0.950 . S
H542 C522 0.949 . S
H543 C524 0.950 . S
H544 C550 0.930 . S
H545 C553 0.930 . S
H546 C554 0.930 . S
H547 C555 0.930 . S
H548 C558 0.930 . S
H549 C559 0.930 . S
C550 H544 0.930 . S
C550 C551 1.355 . S
C550 C552 1.415 . S
C551 C550 1.355 . S
C551 C553 1.419 . S
C552 C550 1.415 . S
C552 C557 1.425 . S
C552 C559 1.409 . S
C553 H545 0.930 . S
C553 C551 1.419 . S
C553 C554 1.362 . S
C554 H546 0.930 . S
C554 C553 1.362 . S
C554 C557 1.409 . S
C555 H547 0.930 . S
C555 C556 1.355 . S
C555 C557 1.415 . S
C556 C555 1.355 . S
C556 C558 1.419 . S
C557 C552 1.425 . S
C557 C554 1.409 . S
C557 C555 1.415 . S
C558 H548 0.930 . S
C558 C556 1.419 . S
C558 C559 1.362 . S
C559 H549 0.930 . S
C559 C552 1.409 . S
C559 C558 1.362 . S
H560 C566 0.930 . S
H561 C569 0.930 . S
H562 C570 0.930 . S
H563 C571 0.930 . S
H564 C574 0.930 . S
H565 C575 0.930 . S
C566 H560 0.930 . S
C566 C567 1.355 . S
C566 C568 1.415 . S
C567 C566 1.355 . S
C567 C569 1.419 . S
C568 C566 1.415 . S
C568 C573 1.425 . S
C568 C575 1.409 . S
C569 H561 0.930 . S
C569 C567 1.419 . S
C569 C570 1.362 . S
C570 H562 0.930 . S
C570 C569 1.362 . S
C570 C573 1.409 . S
C571 H563 0.930 . S
C571 C572 1.355 . S
C571 C573 1.415 . S
C572 C571 1.355 . S
C572 C574 1.419 . S
C573 C568 1.425 . S
C573 C570 1.409 . S
C573 C571 1.415 . S
C574 H564 0.930 . S
C574 C572 1.419 . S
C574 C575 1.362 . S
C575 H565 0.930 . S
C575 C568 1.409 . S
C575 C574 1.362 . S
H576 C582 0.930 . S
H577 C585 0.930 . S
H578 C586 0.930 . S
H579 C587 0.930 . S
H580 C590 0.930 . S
H581 C591 0.930 . S
C582 H576 0.930 . S
C582 C583 1.355 . S
C582 C584 1.415 . S
C583 C582 1.355 . S
C583 C585 1.419 . S
C584 C582 1.415 . S
C584 C589 1.425 . S
C584 C591 1.409 . S
C585 H577 0.930 . S
C585 C583 1.419 . S
C585 C586 1.362 . S
C586 H578 0.930 . S
C586 C585 1.362 . S
C586 C589 1.409 . S
C587 H579 0.930 . S
C587 C588 1.355 . S
C587 C589 1.415 . S
C588 C587 1.355 . S
C588 C590 1.419 . S
C589 C584 1.425 . S
C589 C586 1.409 . S
C589 C587 1.415 . S
C590 H580 0.930 . S
C590 C588 1.419 . S
C590 C591 1.362 . S
C591 H581 0.930 . S
C591 C584 1.409 . S
C591 C590 1.362 . S
H592 C598 0.930 . S
H593 C601 0.930 . S
H594 C602 0.930 . S
H595 C603 0.930 . S
H596 C606 0.930 . S
H597 C607 0.930 . S
C598 H592 0.930 . S
C598 C599 1.355 . S
C598 C600 1.415 . S
C599 C598 1.355 . S
C599 C601 1.419 . S
C600 C598 1.415 . S
C600 C605 1.425 . S
C600 C607 1.409 . S
C601 H593 0.930 . S
C601 C599 1.419 . S
C601 C602 1.362 . S
C602 H594 0.930 . S
C602 C601 1.362 . S
C602 C605 1.409 . S
C603 H595 0.930 . S
C603 C604 1.355 . S
C603 C605 1.415 . S
C604 C603 1.355 . S
C604 C606 1.419 . S
C605 C600 1.425 . S
C605 C602 1.409 . S
C605 C603 1.415 . S
C606 H596 0.930 . S
C606 C604 1.419 . S
C606 C607 1.362 . S
C607 H597 0.930 . S
C607 C600 1.409 . S
C607 C606 1.362 . S
H608 C614 0.930 . S
H609 C617 0.930 . S
H610 C618 0.930 . S
H611 C619 0.930 . S
H612 C622 0.930 . S
H613 C623 0.930 . S
C614 H608 0.930 . S
C614 C615 1.355 . S
C614 C616 1.415 . S
C615 C614 1.355 . S
C615 C617 1.419 . S
C616 C614 1.415 . S
C616 C621 1.425 . S
C616 C623 1.409 . S
C617 H609 0.930 . S
C617 C615 1.419 . S
C617 C618 1.362 . S
C618 H610 0.930 . S
C618 C617 1.362 . S
C618 C621 1.409 . S
C619 H611 0.930 . S
C619 C620 1.355 . S
C619 C621 1.415 . S
C620 C619 1.355 . S
C620 C622 1.419 . S
C621 C616 1.425 . S
C621 C618 1.409 . S
C621 C619 1.415 . S
C622 H612 0.930 . S
C622 C620 1.419 . S
C622 C623 1.362 . S
C623 H613 0.930 . S
C623 C616 1.409 . S
C623 C622 1.362 . S
H624 C630 0.930 . S
H625 C633 0.930 . S
H626 C634 0.930 . S
H627 C635 0.930 . S
H628 C638 0.930 1_545 S
H629 C639 0.930 . S
C630 H624 0.930 . S
C630 C631 1.355 . S
C630 C632 1.415 . S
C631 C630 1.355 . S
C631 C633 1.419 . S
C632 C630 1.415 . S
C632 C637 1.425 . S
C632 C639 1.409 . S
C633 H625 0.930 . S
C633 C631 1.419 . S
C633 C634 1.362 . S
C634 H626 0.930 . S
C634 C633 1.362 . S
C634 C637 1.409 . S
C635 H627 0.930 . S
C635 C636 1.355 . S
C635 C637 1.415 . S
C636 C635 1.355 . S
C636 C638 1.419 . S
C637 C632 1.425 . S
C637 C634 1.409 . S
C637 C635 1.415 . S
C638 H628 0.930 1_565 S
C638 C636 1.419 . S
C638 C639 1.362 . S
C639 H629 0.930 . S
C639 C632 1.409 . S
C639 C638 1.362 . S
H640 C646 0.930 . S
H641 C649 0.930 . S
H642 C650 0.930 . S
H643 C651 0.930 . S
H644 C654 0.930 . S
H645 C655 0.930 . S
C646 H640 0.930 . S
C646 C647 1.355 . S
C646 C648 1.415 . S
C647 C646 1.355 . S
C647 C649 1.419 . S
C648 C646 1.415 . S
C648 C653 1.425 . S
C648 C655 1.409 . S
C649 H641 0.930 . S
C649 C647 1.419 . S
C649 C650 1.362 . S
C650 H642 0.930 . S
C650 C649 1.362 . S
C650 C653 1.409 . S
C651 H643 0.930 . S
C651 C652 1.355 . S
C651 C653 1.415 . S
C652 C651 1.355 . S
C652 C654 1.419 . S
C653 C648 1.425 . S
C653 C650 1.409 . S
C653 C651 1.415 . S
C654 H644 0.930 . S
C654 C652 1.419 . S
C654 C655 1.362 . S
C655 H645 0.930 . S
C655 C648 1.409 . S
C655 C654 1.362 . S
H656 C662 0.930 . S
H657 C665 0.930 1_565 S
H658 C666 0.930 . S
H659 C667 0.930 . S
H660 C670 0.930 . S
H661 C671 0.930 . S
C662 H656 0.930 . S
C662 C663 1.355 . S
C662 C664 1.415 . S
C663 C662 1.355 . S
C663 C665 1.419 . S
C664 C662 1.415 . S
C664 C669 1.425 . S
C664 C671 1.409 . S
C665 H657 0.930 1_545 S
C665 C663 1.419 . S
C665 C666 1.362 . S
C666 H658 0.930 . S
C666 C665 1.362 . S
C666 C669 1.409 . S
C667 H659 0.930 . S
C667 C668 1.355 . S
C667 C669 1.415 . S
C668 C667 1.355 . S
C668 C670 1.419 . S
C669 C664 1.425 . S
C669 C666 1.409 . S
C669 C667 1.415 . S
C670 H660 0.930 . S
C670 C668 1.419 . S
C670 C671 1.362 . S
C671 H661 0.930 . S
C671 C664 1.409 . S
C671 C670 1.362 . S
H672 C678 0.930 . S
H673 C681 0.930 . S
H674 C682 0.930 . S
H675 C683 0.930 . S
H676 C686 0.930 . S
H677 C687 0.930 . S
C678 H672 0.930 . S
C678 C679 1.355 . S
C678 C680 1.415 . S
C679 C678 1.355 . S
C679 C681 1.419 . S
C680 C678 1.415 . S
C680 C685 1.425 . S
C680 C687 1.409 . S
C681 H673 0.930 . S
C681 C679 1.419 . S
C681 C682 1.362 . S
C682 H674 0.930 . S
C682 C681 1.362 . S
C682 C685 1.409 . S
C683 H675 0.930 . S
C683 C684 1.355 . S
C683 C685 1.415 . S
C684 C683 1.355 . S
C684 C686 1.419 . S
C685 C680 1.425 . S
C685 C682 1.409 . S
C685 C683 1.415 . S
C686 H676 0.930 . S
C686 C684 1.419 . S
C686 C687 1.362 . S
C687 H677 0.930 . S
C687 C680 1.409 . S
C687 C686 1.362 . S
H688 C694 0.930 . S
H689 C697 0.930 . S
H690 C698 0.930 . S
H691 C699 0.930 . S
H692 C702 0.930 . S
H693 C703 0.930 . S
C694 H688 0.930 . S
C694 C695 1.355 . S
C694 C696 1.415 . S
C695 C694 1.355 . S
C695 C697 1.419 . S
C696 C694 1.415 . S
C696 C701 1.425 . S
C696 C703 1.409 . S
C697 H689 0.930 . S
C697 C695 1.419 . S
C697 C698 1.362 . S
C698 H690 0.930 . S
C698 C697 1.362 . S
C698 C701 1.409 . S
C699 H691 0.930 . S
C699 C700 1.355 . S
C699 C701 1.415 . S
C700 C699 1.355 . S
C700 C702 1.419 . S
C701 C696 1.425 . S
C701 C698 1.409 . S
C701 C699 1.415 . S
C702 H692 0.930 . S
C702 C700 1.419 . S
C702 C703 1.362 . S
C703 H693 0.930 . S
C703 C696 1.409 . S
C703 C702 1.362 . S
H704 C710 0.930 . S
H705 C713 0.930 . S
H706 C714 0.930 . S
H707 C715 0.930 . S
H708 C718 0.930 . S
H709 C719 0.930 . S
C710 H704 0.930 . S
C710 C711 1.355 . S
C710 C712 1.415 . S
C711 C710 1.355 . S
C711 C713 1.419 . S
C712 C710 1.415 . S
C712 C717 1.425 . S
C712 C719 1.409 . S
C713 H705 0.930 . S
C713 C711 1.419 . S
C713 C714 1.362 . S
C714 H706 0.930 . S
C714 C713 1.362 . S
C714 C717 1.409 . S
C715 H707 0.930 . S
C715 C716 1.355 . S
C715 C717 1.415 . S
C716 C715 1.355 . S
C716 C718 1.419 . S
C717 C712 1.425 . S
C717 C714 1.409 . S
C717 C715 1.415 . S
C718 H708 0.930 . S
C718 C716 1.419 . S
C718 C719 1.362 . S
C719 H709 0.930 . S
C719 C712 1.409 . S
C719 C718 1.362 . S
H720 C726 0.930 . S
H721 C729 0.930 . S
H722 C730 0.930 . S
H723 C731 0.930 . S
H724 C734 0.930 . S
H725 C735 0.930 . S
C726 H720 0.930 . S
C726 C727 1.355 . S
C726 C728 1.415 . S
C727 C726 1.355 . S
C727 C729 1.419 . S
C728 C726 1.415 . S
C728 C733 1.425 . S
C728 C735 1.409 . S
C729 H721 0.930 . S
C729 C727 1.419 . S
C729 C730 1.362 . S
C730 H722 0.930 . S
C730 C729 1.362 . S
C730 C733 1.409 . S
C731 H723 0.930 . S
C731 C732 1.355 . S
C731 C733 1.415 . S
C732 C731 1.355 . S
C732 C734 1.419 . S
C733 C728 1.425 . S
C733 C730 1.409 . S
C733 C731 1.415 . S
C734 H724 0.930 . S
C734 C732 1.419 . S
C734 C735 1.362 . S
C735 H725 0.930 . S
C735 C728 1.409 . S
C735 C734 1.362 . S
H736 C742 0.930 . S
H737 C745 0.930 . S
H738 C746 0.930 . S
H739 C747 0.930 . S
H740 C750 0.937 . S
H741 C751 0.930 1_455 S
C742 H736 0.930 . S
C742 C743 1.355 . S
C742 C744 1.415 . S
C743 C742 1.355 . S
C743 C745 1.419 . S
C744 C742 1.415 . S
C744 C749 1.425 . S
C744 C751 1.409 . S
C745 H737 0.930 . S
C745 C743 1.419 . S
C745 C746 1.362 . S
C746 H738 0.930 . S
C746 C745 1.362 . S
C746 C749 1.409 . S
C747 H739 0.930 . S
C747 C748 1.355 . S
C747 C749 1.415 . S
C748 C747 1.355 . S
C748 C750 1.417 1_655 S
C749 C744 1.425 . S
C749 C746 1.409 . S
C749 C747 1.415 . S
C750 H740 0.937 . S
C750 C748 1.417 1_455 S
C750 C751 1.357 1_455 S
C751 H741 0.930 1_655 S
C751 C744 1.409 . S
C751 C750 1.357 1_655 S
H752 C758 0.930 . S
H753 C761 0.930 . S
H754 C762 0.930 . S
H755 C763 0.930 . S
H756 C766 0.930 . S
H757 C767 0.930 . S
C758 H752 0.930 . S
C758 C759 1.355 . S
C758 C760 1.415 . S
C759 C758 1.355 . S
C759 C761 1.419 . S
C760 C758 1.415 . S
C760 C765 1.425 . S
C760 C767 1.409 . S
C761 H753 0.930 . S
C761 C759 1.419 . S
C761 C762 1.362 . S
C762 H754 0.930 . S
C762 C761 1.362 . S
C762 C765 1.409 . S
C763 H755 0.930 . S
C763 C764 1.355 . S
C763 C765 1.415 . S
C764 C763 1.355 . S
C764 C766 1.419 . S
C765 C760 1.425 . S
C765 C762 1.409 . S
C765 C763 1.415 . S
C766 H756 0.930 . S
C766 C764 1.419 . S
C766 C767 1.362 . S
C767 H757 0.930 . S
C767 C760 1.409 . S
C767 C766 1.362 . S
H768 C774 0.930 . S
H769 C777 0.930 . S
H770 C778 0.930 . S
H771 C779 0.930 . S
H772 C782 0.930 . S
H773 C783 0.930 . S
C774 H768 0.930 . S
C774 C775 1.355 . S
C774 C776 1.415 . S
C775 C774 1.355 . S
C775 C777 1.419 . S
C776 C774 1.415 . S
C776 C781 1.425 . S
C776 C783 1.409 . S
C777 H769 0.930 . S
C777 C775 1.419 . S
C777 C778 1.362 . S
C778 H770 0.930 . S
C778 C777 1.362 . S
C778 C781 1.409 . S
C779 H771 0.930 . S
C779 C780 1.355 . S
C779 C781 1.415 . S
C780 C779 1.355 . S
C780 C782 1.419 . S
C781 C776 1.425 . S
C781 C778 1.409 . S
C781 C779 1.415 . S
C782 H772 0.930 . S
C782 C780 1.419 . S
C782 C783 1.362 . S
C783 H773 0.930 . S
C783 C776 1.409 . S
C783 C782 1.362 . S
H784 C790 0.930 . S
H785 C793 0.930 . S
H786 C794 0.930 . S
H787 C795 0.930 . S
H788 C798 0.930 . S
H789 C799 0.930 . S
C790 H784 0.930 . S
C790 C791 1.355 . S
C790 C792 1.415 . S
C791 C790 1.355 . S
C791 C793 1.419 . S
C792 C790 1.415 . S
C792 C797 1.425 . S
C792 C799 1.409 . S
C793 H785 0.930 . S
C793 C791 1.419 . S
C793 C794 1.362 . S
C794 H786 0.930 . S
C794 C793 1.362 . S
C794 C797 1.409 . S
C795 H787 0.930 . S
C795 C796 1.355 . S
C795 C797 1.415 . S
C796 C795 1.355 . S
C796 C798 1.419 . S
C797 C792 1.425 . S
C797 C794 1.409 . S
C797 C795 1.415 . S
C798 H788 0.930 . S
C798 C796 1.419 . S
C798 C799 1.362 . S
C799 H789 0.930 . S
C799 C792 1.409 . S
C799 C798 1.362 . S
H800 C806 0.930 . S
H801 C809 0.930 . S
H802 C810 0.930 . S
H803 C811 0.930 . S
H804 C814 0.930 . S
H805 C815 0.930 . S
C806 H800 0.930 . S
C806 C807 1.355 . S
C806 C808 1.415 . S
C807 C806 1.355 . S
C807 C809 1.419 . S
C808 C806 1.415 . S
C808 C813 1.425 . S
C808 C815 1.409 . S
C809 H801 0.930 . S
C809 C807 1.419 . S
C809 C810 1.362 . S
C810 H802 0.930 . S
C810 C809 1.362 . S
C810 C813 1.409 . S
C811 H803 0.930 . S
C811 C812 1.355 . S
C811 C813 1.415 . S
C812 C811 1.355 . S
C812 C814 1.419 . S
C813 C808 1.425 . S
C813 C810 1.409 . S
C813 C811 1.415 . S
C814 H804 0.930 . S
C814 C812 1.419 . S
C814 C815 1.362 . S
C815 H805 0.930 . S
C815 C808 1.409 . S
C815 C814 1.362 . S
H816 C822 0.930 . S
H817 C825 0.930 . S
H818 C826 0.930 . S
H819 C827 0.930 . S
H820 C830 0.930 . S
H821 C831 0.930 . S
C822 H816 0.930 . S
C822 C823 1.355 . S
C822 C824 1.415 . S
C823 C822 1.355 . S
C823 C825 1.419 . S
C824 C822 1.415 . S
C824 C829 1.425 . S
C824 C831 1.409 . S
C825 H817 0.930 . S
C825 C823 1.419 . S
C825 C826 1.362 . S
C826 H818 0.930 . S
C826 C825 1.362 . S
C826 C829 1.409 . S
C827 H819 0.930 . S
C827 C828 1.355 . S
C827 C829 1.415 . S
C828 C827 1.355 . S
C828 C830 1.419 . S
C829 C824 1.425 . S
C829 C826 1.409 . S
C829 C827 1.415 . S
C830 H820 0.930 . S
C830 C828 1.419 . S
C830 C831 1.362 . S
C831 H821 0.930 . S
C831 C824 1.409 . S
C831 C830 1.362 . S
H832 C838 0.930 . S
H833 C841 0.930 . S
H834 C842 0.930 . S
H835 C843 0.930 . S
H836 C846 0.930 . S
H837 C847 0.930 . S
C838 H832 0.930 . S
C838 C839 1.355 . S
C838 C840 1.415 . S
C839 C838 1.355 . S
C839 C841 1.419 . S
C840 C838 1.415 . S
C840 C845 1.425 . S
C840 C847 1.409 . S
C841 H833 0.930 . S
C841 C839 1.419 . S
C841 C842 1.362 . S
C842 H834 0.930 . S
C842 C841 1.362 . S
C842 C845 1.409 . S
C843 H835 0.930 . S
C843 C844 1.355 . S
C843 C845 1.415 . S
C844 C843 1.355 . S
C844 C846 1.419 . S
C845 C840 1.425 . S
C845 C842 1.409 . S
C845 C843 1.415 . S
C846 H836 0.930 . S
C846 C844 1.419 . S
C846 C847 1.362 . S
C847 H837 0.930 . S
C847 C840 1.409 . S
C847 C846 1.362 . S
H848 C854 0.930 . S
H849 C857 0.930 . S
H850 C858 0.930 . S
H851 C859 0.930 . S
H852 C862 0.930 . S
H853 C863 0.930 . S
C854 H848 0.930 . S
C854 C855 1.355 . S
C854 C856 1.415 . S
C855 C854 1.355 . S
C855 C857 1.419 . S
C856 C854 1.415 . S
C856 C861 1.425 . S
C856 C863 1.409 . S
C857 H849 0.930 . S
C857 C855 1.419 . S
C857 C858 1.362 . S
C858 H850 0.930 . S
C858 C857 1.362 . S
C858 C861 1.409 . S
C859 H851 0.930 . S
C859 C860 1.355 . S
C859 C861 1.415 . S
C860 C859 1.355 . S
C860 C862 1.419 . S
C861 C856 1.425 . S
C861 C858 1.409 . S
C861 C859 1.415 . S
C862 H852 0.930 . S
C862 C860 1.419 . S
C862 C863 1.362 . S
C863 H853 0.930 . S
C863 C856 1.409 . S
C863 C862 1.362 . S
H864 C870 0.930 . S
H865 C873 0.930 . S
H866 C874 0.930 . S
H867 C875 0.930 . S
H868 C878 0.930 . S
H869 C879 0.930 . S
C870 H864 0.930 . S
C870 C871 1.355 . S
C870 C872 1.415 . S
C871 C870 1.355 . S
C871 C873 1.419 . S
C872 C870 1.415 . S
C872 C877 1.425 . S
C872 C879 1.409 . S
C873 H865 0.930 . S
C873 C871 1.419 . S
C873 C874 1.362 . S
C874 H866 0.930 . S
C874 C873 1.362 . S
C874 C877 1.409 . S
C875 H867 0.930 . S
C875 C876 1.355 . S
C875 C877 1.415 . S
C876 C875 1.355 . S
C876 C878 1.419 . S
C877 C872 1.425 . S
C877 C874 1.409 . S
C877 C875 1.415 . S
C878 H868 0.930 . S
C878 C876 1.419 . S
C878 C879 1.362 . S
C879 H869 0.930 . S
C879 C872 1.409 . S
C879 C878 1.362 . S
H880 C886 0.930 . S
H881 C889 0.930 . S
H882 C890 0.930 . S
H883 C891 0.930 . S
H884 C894 0.930 . S
H885 C895 0.930 . S
C886 H880 0.930 . S
C886 C887 1.355 . S
C886 C888 1.415 . S
C887 C886 1.355 . S
C887 C889 1.419 . S
C888 C886 1.415 . S
C888 C893 1.425 . S
C888 C895 1.409 . S
C889 H881 0.930 . S
C889 C887 1.419 . S
C889 C890 1.362 . S
C890 H882 0.930 . S
C890 C889 1.362 . S
C890 C893 1.409 . S
C891 H883 0.930 . S
C891 C892 1.355 . S
C891 C893 1.415 . S
C892 C891 1.355 . S
C892 C894 1.419 . S
C893 C888 1.425 . S
C893 C890 1.409 . S
C893 C891 1.415 . S
C894 H884 0.930 . S
C894 C892 1.419 . S
C894 C895 1.362 . S
C895 H885 0.930 . S
C895 C888 1.409 . S
C895 C894 1.362 . S
H896 C902 0.930 . S
H897 C905 0.930 . S
H898 C906 0.930 . S
H899 C907 0.930 . S
H900 C910 0.930 . S
H901 C911 0.930 . S
C902 H896 0.930 . S
C902 C903 1.355 . S
C902 C904 1.415 . S
C903 C902 1.355 . S
C903 C905 1.419 . S
C904 C902 1.415 . S
C904 C909 1.425 . S
C904 C911 1.409 . S
C905 H897 0.930 . S
C905 C903 1.419 . S
C905 C906 1.362 . S
C906 H898 0.930 . S
C906 C905 1.362 . S
C906 C909 1.409 . S
C907 H899 0.930 . S
C907 C908 1.355 . S
C907 C909 1.415 . S
C908 C907 1.355 . S
C908 C910 1.419 . S
C909 C904 1.425 . S
C909 C906 1.409 . S
C909 C907 1.415 . S
C910 H900 0.930 . S
C910 C908 1.419 . S
C910 C911 1.362 . S
C911 H901 0.930 . S
C911 C904 1.409 . S
C911 C910 1.362 . S
H912 C918 0.930 . S
H913 C921 0.930 . S
H914 C922 0.930 . S
H915 C923 0.930 . S
H916 C926 0.930 . S
H917 C927 0.930 . S
C918 H912 0.930 . S
C918 C919 1.355 . S
C918 C920 1.415 . S
C919 C918 1.355 . S
C919 C921 1.419 . S
C920 C918 1.415 . S
C920 C925 1.425 . S
C920 C927 1.409 . S
C921 H913 0.930 . S
C921 C919 1.419 . S
C921 C922 1.362 . S
C922 H914 0.930 . S
C922 C921 1.362 . S
C922 C925 1.409 . S
C923 H915 0.930 . S
C923 C924 1.355 . S
C923 C925 1.415 . S
C924 C923 1.355 . S
C924 C926 1.419 . S
C925 C920 1.425 . S
C925 C922 1.409 . S
C925 C923 1.415 . S
C926 H916 0.930 . S
C926 C924 1.419 . S
C926 C927 1.362 . S
C927 H917 0.930 . S
C927 C920 1.409 . S
C927 C926 1.362 . S
H928 C934 0.930 . S
H929 C937 0.930 . S
H930 C938 0.930 . S
H931 C939 0.930 . S
H932 C942 0.930 . S
H933 C943 0.930 . S
C934 H928 0.930 . S
C934 C935 1.355 . S
C934 C936 1.415 . S
C935 C934 1.355 . S
C935 C937 1.419 . S
C936 C934 1.415 . S
C936 C941 1.425 . S
C936 C943 1.409 . S
C937 H929 0.930 . S
C937 C935 1.419 . S
C937 C938 1.362 . S
C938 H930 0.930 . S
C938 C937 1.362 . S
C938 C941 1.409 . S
C939 H931 0.930 . S
C939 C940 1.355 . S
C939 C941 1.415 . S
C940 C939 1.355 . S
C940 C942 1.419 . S
C941 C936 1.425 . S
C941 C938 1.409 . S
C941 C939 1.415 . S
C942 H932 0.930 . S
C942 C940 1.419 . S
C942 C943 1.362 . S
C943 H933 0.930 . S
C943 C936 1.409 . S
C943 C942 1.362 . S
H944 C950 0.930 . S
H945 C953 0.930 . S
H946 C954 0.930 . S
H947 C955 0.930 . S
H948 C958 0.930 . S
H949 C959 0.930 . S
C950 H944 0.930 . S
C950 C951 1.355 . S
C950 C952 1.415 . S
C951 C950 1.355 . S
C951 C953 1.419 . S
C952 C950 1.415 . S
C952 C957 1.425 . S
C952 C959 1.409 . S
C953 H945 0.930 . S
C953 C951 1.419 . S
C953 C954 1.362 . S
C954 H946 0.930 . S
C954 C953 1.362 . S
C954 C957 1.409 . S
C955 H947 0.930 . S
C955 C956 1.355 . S
C955 C957 1.415 . S
C956 C955 1.355 . S
C956 C958 1.419 . S
C957 C952 1.425 . S
C957 C954 1.409 . S
C957 C955 1.415 . S
C958 H948 0.930 . S
C958 C956 1.419 . S
C958 C959 1.362 . S
C959 H949 0.930 . S
C959 C952 1.409 . S
C959 C958 1.362 . S
H960 C966 0.930 . S
H961 C969 0.930 . S
H962 C970 0.930 . S
H963 C971 0.930 . S
H964 C974 0.930 . S
H965 C975 0.930 . S
C966 H960 0.930 . S
C966 C967 1.355 . S
C966 C968 1.415 . S
C967 C966 1.355 . S
C967 C969 1.419 . S
C968 C966 1.415 . S
C968 C973 1.425 . S
C968 C975 1.409 . S
C969 H961 0.930 . S
C969 C967 1.419 . S
C969 C970 1.362 . S
C970 H962 0.930 . S
C970 C969 1.362 . S
C970 C973 1.409 . S
C971 H963 0.930 . S
C971 C972 1.355 . S
C971 C973 1.415 . S
C972 C971 1.355 . S
C972 C974 1.419 . S
C973 C968 1.425 . S
C973 C970 1.409 . S
C973 C971 1.415 . S
C974 H964 0.930 . S
C974 C972 1.419 . S
C974 C975 1.362 . S
C975 H965 0.930 . S
C975 C968 1.409 . S
C975 C974 1.362 . S
H976 C982 0.930 . S
H977 C985 0.930 . S
H978 C986 0.930 . S
H979 C987 0.930 . S
H980 C990 0.930 . S
H981 C991 0.930 . S
C982 H976 0.930 . S
C982 C983 1.355 . S
C982 C984 1.415 . S
C983 C982 1.355 . S
C983 C985 1.419 . S
C984 C982 1.415 . S
C984 C989 1.425 . S
C984 C991 1.409 . S
C985 H977 0.930 . S
C985 C983 1.419 . S
C985 C986 1.362 . S
C986 H978 0.930 . S
C986 C985 1.362 . S
C986 C989 1.409 . S
C987 H979 0.930 . S
C987 C988 1.355 . S
C987 C989 1.415 . S
C988 C987 1.355 . S
C988 C990 1.419 . S
C989 C984 1.425 . S
C989 C986 1.409 . S
C989 C987 1.415 . S
C990 H980 0.930 . S
C990 C988 1.419 . S
C990 C991 1.362 . S
C991 H981 0.930 . S
C991 C984 1.409 . S
C991 C990 1.362 . S
H992 C998 0.930 . S
H993 C1001 0.915 1_545 S
H994 C1002 0.930 . S
H995 C1003 0.930 . S
H996 C1006 0.930 . S
H997 C1007 0.930 . S
C998 H992 0.930 . S
C998 C999 1.355 . S
C998 C1000 1.415 . S
C999 C998 1.355 . S
C999 C1001 1.426 . S
C1000 C998 1.415 . S
C1000 C1005 1.425 . S
C1000 C1007 1.409 . S
C1001 H993 0.915 1_565 S
C1001 C999 1.426 . S
C1001 C1002 1.371 . S
C1002 H994 0.930 . S
C1002 C1001 1.371 . S
C1002 C1005 1.409 . S
C1003 H995 0.930 . S
C1003 C1004 1.355 . S
C1003 C1005 1.415 . S
C1004 C1003 1.355 . S
C1004 C1006 1.419 . S
C1005 C1000 1.425 . S
C1005 C1002 1.409 . S
C1005 C1003 1.415 . S
C1006 H996 0.930 . S
C1006 C1004 1.419 . S
C1006 C1007 1.362 . S
C1007 H997 0.930 . S
C1007 C1000 1.409 . S
C1007 C1006 1.362 . S
H1008 C1014 0.930 . S
H1009 C1017 0.930 . S
H1010 C1018 0.930 . S
H1011 C1019 0.930 . S
H1012 C1022 0.930 . S
H1013 C1023 0.930 . S
C1014 H1008 0.930 . S
C1014 C1015 1.355 . S
C1014 C1016 1.415 . S
C1015 C1014 1.355 . S
C1015 C1017 1.419 . S
C1016 C1014 1.415 . S
C1016 C1021 1.425 . S
C1016 C1023 1.409 . S
C1017 H1009 0.930 . S
C1017 C1015 1.419 . S
C1017 C1018 1.362 . S
C1018 H1010 0.930 . S
C1018 C1017 1.362 . S
C1018 C1021 1.409 . S
C1019 H1011 0.930 . S
C1019 C1020 1.355 . S
C1019 C1021 1.415 . S
C1020 C1019 1.355 . S
C1020 C1022 1.419 . S
C1021 C1016 1.425 . S
C1021 C1018 1.409 . S
C1021 C1019 1.415 . S
C1022 H1012 0.930 . S
C1022 C1020 1.419 . S
C1022 C1023 1.362 . S
C1023 H1013 0.930 . S
C1023 C1016 1.409 . S
C1023 C1022 1.362 . S
H1024 C1030 0.930 . S
H1025 C1033 0.930 . S
H1026 C1034 0.930 . S
H1027 C1035 0.930 . S
H1028 C1038 0.930 . S
H1029 C1039 0.930 . S
C1030 H1024 0.930 . S
C1030 C1031 1.355 . S
C1030 C1032 1.415 . S
C1031 C1030 1.355 . S
C1031 C1033 1.419 . S
C1032 C1030 1.415 . S
C1032 C1037 1.425 . S
C1032 C1039 1.409 . S
C1033 H1025 0.930 . S
C1033 C1031 1.419 . S
C1033 C1034 1.362 . S
C1034 H1026 0.930 . S
C1034 C1033 1.362 . S
C1034 C1037 1.409 . S
C1035 H1027 0.930 . S
C1035 C1036 1.355 . S
C1035 C1037 1.415 . S
C1036 C1035 1.355 . S
C1036 C1038 1.419 . S
C1037 C1032 1.425 . S
C1037 C1034 1.409 . S
C1037 C1035 1.415 . S
C1038 H1028 0.930 . S
C1038 C1036 1.419 . S
C1038 C1039 1.362 . S
C1039 H1029 0.930 . S
C1039 C1032 1.409 . S
C1039 C1038 1.362 . S
H1040 C1046 0.930 . S
H1041 C1049 0.930 . S
H1042 C1050 0.930 . S
H1043 C1051 0.930 . S
H1044 C1054 0.930 . S
H1045 C1055 0.930 . S
C1046 H1040 0.930 . S
C1046 C1047 1.355 . S
C1046 C1048 1.415 . S
C1047 C1046 1.355 . S
C1047 C1049 1.419 . S
C1048 C1046 1.415 . S
C1048 C1053 1.425 . S
C1048 C1055 1.409 . S
C1049 H1041 0.930 . S
C1049 C1047 1.419 . S
C1049 C1050 1.362 . S
C1050 H1042 0.930 . S
C1050 C1049 1.362 . S
C1050 C1053 1.409 . S
C1051 H1043 0.930 . S
C1051 C1052 1.355 . S
C1051 C1053 1.415 . S
C1052 C1051 1.355 . S
C1052 C1054 1.419 . S
C1053 C1048 1.425 . S
C1053 C1050 1.409 . S
C1053 C1051 1.415 . S
C1054 H1044 0.930 . S
C1054 C1052 1.419 . S
C1054 C1055 1.362 . S
C1055 H1045 0.930 . S
C1055 C1048 1.409 . S
C1055 C1054 1.362 . S
H1056 C1062 0.930 . S
H1057 C1065 0.930 . S
H1058 C1066 0.930 . S
H1059 C1067 0.930 . S
H1060 C1070 0.930 . S
H1061 C1071 0.930 . S
C1062 H1056 0.930 . S
C1062 C1063 1.355 . S
C1062 C1064 1.415 . S
C1063 C1062 1.355 . S
C1063 C1065 1.419 . S
C1064 C1062 1.415 . S
C1064 C1069 1.425 . S
C1064 C1071 1.409 . S
C1065 H1057 0.930 . S
C1065 C1063 1.419 . S
C1065 C1066 1.362 . S
C1066 H1058 0.930 . S
C1066 C1065 1.362 . S
C1066 C1069 1.409 . S
C1067 H1059 0.930 . S
C1067 C1068 1.355 . S
C1067 C1069 1.415 . S
C1068 C1067 1.355 . S
C1068 C1070 1.419 . S
C1069 C1064 1.425 . S
C1069 C1066 1.409 . S
C1069 C1067 1.415 . S
C1070 H1060 0.930 . S
C1070 C1068 1.419 . S
C1070 C1071 1.362 . S
C1071 H1061 0.930 . S
C1071 C1064 1.409 . S
C1071 C1070 1.362 . S
H1072 C1078 0.930 . S
H1073 C1081 0.930 . S
H1074 C1082 0.930 . S
H1075 C1083 0.930 1_655 S
H1076 C1086 0.930 . S
H1077 C1087 0.930 . S
C1078 H1072 0.930 . S
C1078 C1079 1.355 . S
C1078 C1080 1.415 . S
C1079 C1078 1.355 . S
C1079 C1081 1.419 . S
C1080 C1078 1.415 . S
C1080 C1085 1.425 . S
C1080 C1087 1.409 . S
C1081 H1073 0.930 . S
C1081 C1079 1.419 . S
C1081 C1082 1.362 . S
C1082 H1074 0.930 . S
C1082 C1081 1.362 . S
C1082 C1085 1.409 . S
C1083 H1075 0.930 1_455 S
C1083 C1084 1.355 . S
C1083 C1085 1.415 . S
C1084 C1083 1.355 . S
C1084 C1086 1.419 . S
C1085 C1080 1.425 . S
C1085 C1082 1.409 . S
C1085 C1083 1.415 . S
C1086 H1076 0.930 . S
C1086 C1084 1.419 . S
C1086 C1087 1.362 . S
C1087 H1077 0.930 . S
C1087 C1080 1.409 . S
C1087 C1086 1.362 . S
H1088 C1094 0.930 . S
H1089 C1097 0.930 . S
H1090 C1098 0.930 . S
H1091 C1099 0.930 . S
H1092 C1102 0.930 . S
H1093 C1103 0.930 . S
C1094 H1088 0.930 . S
C1094 C1095 1.355 . S
C1094 C1096 1.415 . S
C1095 C1094 1.355 . S
C1095 C1097 1.419 . S
C1096 C1094 1.415 . S
C1096 C1101 1.425 . S
C1096 C1103 1.409 . S
C1097 H1089 0.930 . S
C1097 C1095 1.419 . S
C1097 C1098 1.362 . S
C1098 H1090 0.930 . S
C1098 C1097 1.362 . S
C1098 C1101 1.409 . S
C1099 H1091 0.930 . S
C1099 C1100 1.355 . S
C1099 C1101 1.415 . S
C1100 C1099 1.355 . S
C1100 C1102 1.419 . S
C1101 C1096 1.425 . S
C1101 C1098 1.409 . S
C1101 C1099 1.415 . S
C1102 H1092 0.930 . S
C1102 C1100 1.419 . S
C1102 C1103 1.362 . S
C1103 H1093 0.930 . S
C1103 C1096 1.409 . S
C1103 C1102 1.362 . S
H1104 C1110 0.930 . S
H1105 C1113 0.930 . S
H1106 C1114 0.930 . S
H1107 C1115 0.930 . S
H1108 C1118 0.930 . S
H1109 C1119 0.930 . S
C1110 H1104 0.930 . S
C1110 C1111 1.355 . S
C1110 C1112 1.415 . S
C1111 C1110 1.355 . S
C1111 C1113 1.419 . S
C1112 C1110 1.415 . S
C1112 C1117 1.425 . S
C1112 C1119 1.409 . S
C1113 H1105 0.930 . S
C1113 C1111 1.419 . S
C1113 C1114 1.362 . S
C1114 H1106 0.930 . S
C1114 C1113 1.362 . S
C1114 C1117 1.409 . S
C1115 H1107 0.930 . S
C1115 C1116 1.355 . S
C1115 C1117 1.415 . S
C1116 C1115 1.355 . S
C1116 C1118 1.419 . S
C1117 C1112 1.425 . S
C1117 C1114 1.409 . S
C1117 C1115 1.415 . S
C1118 H1108 0.930 . S
C1118 C1116 1.419 . S
C1118 C1119 1.362 . S
C1119 H1109 0.930 . S
C1119 C1112 1.409 . S
C1119 C1118 1.362 . S
H1120 C1126 0.930 . S
H1121 C1129 0.930 . S
H1122 C1130 0.930 . S
H1123 C1131 0.930 . S
H1124 C1134 0.930 . S
H1125 C1135 0.930 . S
C1126 H1120 0.930 . S
C1126 C1127 1.355 . S
C1126 C1128 1.415 . S
C1127 C1126 1.355 . S
C1127 C1129 1.419 . S
C1128 C1126 1.415 . S
C1128 C1133 1.425 . S
C1128 C1135 1.409 . S
C1129 H1121 0.930 . S
C1129 C1127 1.419 . S
C1129 C1130 1.362 . S
C1130 H1122 0.930 . S
C1130 C1129 1.362 . S
C1130 C1133 1.409 . S
C1131 H1123 0.930 . S
C1131 C1132 1.355 . S
C1131 C1133 1.415 . S
C1132 C1131 1.355 . S
C1132 C1134 1.419 . S
C1133 C1128 1.425 . S
C1133 C1130 1.409 . S
C1133 C1131 1.415 . S
C1134 H1124 0.930 . S
C1134 C1132 1.419 . S
C1134 C1135 1.362 . S
C1135 H1125 0.930 . S
C1135 C1128 1.409 . S
C1135 C1134 1.362 . S
H1136 C1142 0.930 . S
H1137 C1145 0.930 . S
H1138 C1146 0.930 . S
H1139 C1147 0.930 . S
H1140 C1150 0.930 . S
H1141 C1151 0.930 . S
C1142 H1136 0.930 . S
C1142 C1143 1.355 . S
C1142 C1144 1.415 . S
C1143 C1142 1.355 . S
C1143 C1145 1.419 . S
C1144 C1142 1.415 . S
C1144 C1149 1.425 . S
C1144 C1151 1.409 . S
C1145 H1137 0.930 . S
C1145 C1143 1.419 . S
C1145 C1146 1.362 . S
C1146 H1138 0.930 . S
C1146 C1145 1.362 . S
C1146 C1149 1.409 . S
C1147 H1139 0.930 . S
C1147 C1148 1.355 . S
C1147 C1149 1.415 . S
C1148 C1147 1.355 . S
C1148 C1150 1.419 . S
C1149 C1144 1.425 . S
C1149 C1146 1.409 . S
C1149 C1147 1.415 . S
C1150 H1140 0.930 . S
C1150 C1148 1.419 . S
C1150 C1151 1.362 . S
C1151 H1141 0.930 . S
C1151 C1144 1.409 . S
C1151 C1150 1.362 . S
H1152 C1158 0.930 . S
H1153 C1161 0.930 . S
H1154 C1162 0.930 . S
H1155 C1163 0.930 . S
H1156 C1166 0.930 . S
H1157 C1167 0.930 . S
C1158 H1152 0.930 . S
C1158 C1159 1.355 . S
C1158 C1160 1.415 . S
C1159 C1158 1.355 . S
C1159 C1161 1.419 . S
C1160 C1158 1.415 . S
C1160 C1165 1.425 . S
C1160 C1167 1.409 . S
C1161 H1153 0.930 . S
C1161 C1159 1.419 . S
C1161 C1162 1.362 . S
C1162 H1154 0.930 . S
C1162 C1161 1.362 . S
C1162 C1165 1.409 . S
C1163 H1155 0.930 . S
C1163 C1164 1.355 . S
C1163 C1165 1.415 . S
C1164 C1163 1.355 . S
C1164 C1166 1.419 . S
C1165 C1160 1.425 . S
C1165 C1162 1.409 . S
C1165 C1163 1.415 . S
C1166 H1156 0.930 . S
C1166 C1164 1.419 . S
C1166 C1167 1.362 . S
C1167 H1157 0.930 . S
C1167 C1160 1.409 . S
C1167 C1166 1.362 . S
H1168 C1174 0.930 . S
H1169 C1177 0.930 . S
H1170 C1178 0.930 . S
H1171 C1179 0.930 . S
H1172 C1182 0.930 . S
H1173 C1183 0.930 . S
C1174 H1168 0.930 . S
C1174 C1175 1.355 . S
C1174 C1176 1.415 . S
C1175 C1174 1.355 . S
C1175 C1177 1.419 . S
C1176 C1174 1.415 . S
C1176 C1181 1.425 . S
C1176 C1183 1.409 . S
C1177 H1169 0.930 . S
C1177 C1175 1.419 . S
C1177 C1178 1.362 . S
C1178 H1170 0.930 . S
C1178 C1177 1.362 . S
C1178 C1181 1.409 . S
C1179 H1171 0.930 . S
C1179 C1180 1.355 . S
C1179 C1181 1.415 . S
C1180 C1179 1.355 . S
C1180 C1182 1.419 . S
C1181 C1176 1.425 . S
C1181 C1178 1.409 . S
C1181 C1179 1.415 . S
C1182 H1172 0.930 . S
C1182 C1180 1.419 . S
C1182 C1183 1.362 . S
C1183 H1173 0.930 . S
C1183 C1176 1.409 . S
C1183 C1182 1.362 . S
H1184 C1190 0.930 . S
H1185 C1193 0.930 . S
H1186 C1194 0.930 . S
H1187 C1195 0.930 . S
H1188 C1198 0.930 . S
H1189 C1199 0.930 . S
C1190 H1184 0.930 . S
C1190 C1191 1.355 . S
C1190 C1192 1.415 . S
C1191 C1190 1.355 . S
C1191 C1193 1.419 . S
C1192 C1190 1.415 . S
C1192 C1197 1.425 . S
C1192 C1199 1.409 . S
C1193 H1185 0.930 . S
C1193 C1191 1.419 . S
C1193 C1194 1.362 . S
C1194 H1186 0.930 . S
C1194 C1193 1.362 . S
C1194 C1197 1.409 . S
C1195 H1187 0.930 . S
C1195 C1196 1.355 . S
C1195 C1197 1.415 . S
C1196 C1195 1.355 . S
C1196 C1198 1.419 . S
C1197 C1192 1.425 . S
C1197 C1194 1.409 . S
C1197 C1195 1.415 . S
C1198 H1188 0.930 . S
C1198 C1196 1.419 . S
C1198 C1199 1.362 . S
C1199 H1189 0.930 . S
C1199 C1192 1.409 . S
C1199 C1198 1.362 . S
H1200 C1206 0.930 . S
H1201 C1209 0.930 . S
H1202 C1210 0.930 . S
H1203 C1211 0.930 . S
H1204 C1214 0.930 . S
H1205 C1215 0.930 . S
C1206 H1200 0.930 . S
C1206 C1207 1.355 . S
C1206 C1208 1.415 . S
C1207 C1206 1.355 . S
C1207 C1209 1.419 . S
C1208 C1206 1.415 . S
C1208 C1213 1.425 . S
C1208 C1215 1.409 . S
C1209 H1201 0.930 . S
C1209 C1207 1.419 . S
C1209 C1210 1.362 . S
C1210 H1202 0.930 . S
C1210 C1209 1.362 . S
C1210 C1213 1.409 . S
C1211 H1203 0.930 . S
C1211 C1212 1.355 . S
C1211 C1213 1.415 . S
C1212 C1211 1.355 . S
C1212 C1214 1.419 . S
C1213 C1208 1.425 . S
C1213 C1210 1.409 . S
C1213 C1211 1.415 . S
C1214 H1204 0.930 . S
C1214 C1212 1.419 . S
C1214 C1215 1.362 . S
C1215 H1205 0.930 . S
C1215 C1208 1.409 . S
C1215 C1214 1.362 . S
H1216 C1222 0.930 . S
H1217 C1225 0.930 . S
H1218 C1226 0.930 . S
H1219 C1227 0.930 . S
H1220 C1230 0.930 . S
H1221 C1231 0.930 . S
C1222 H1216 0.930 . S
C1222 C1223 1.355 . S
C1222 C1224 1.415 . S
C1223 C1222 1.355 . S
C1223 C1225 1.419 . S
C1224 C1222 1.415 . S
C1224 C1229 1.425 . S
C1224 C1231 1.409 . S
C1225 H1217 0.930 . S
C1225 C1223 1.419 . S
C1225 C1226 1.362 . S
C1226 H1218 0.930 . S
C1226 C1225 1.362 . S
C1226 C1229 1.409 . S
C1227 H1219 0.930 . S
C1227 C1228 1.355 . S
C1227 C1229 1.415 . S
C1228 C1227 1.355 . S
C1228 C1230 1.419 . S
C1229 C1224 1.425 . S
C1229 C1226 1.409 . S
C1229 C1227 1.415 . S
C1230 H1220 0.930 . S
C1230 C1228 1.419 . S
C1230 C1231 1.362 . S
C1231 H1221 0.930 . S
C1231 C1224 1.409 . S
C1231 C1230 1.362 . S
H1232 C1238 0.930 . S
H1233 C1241 0.930 . S
H1234 C1242 0.930 . S
H1235 C1243 0.930 . S
H1236 C1246 0.930 . S
H1237 C1247 0.930 . S
C1238 H1232 0.930 . S
C1238 C1239 1.355 . S
C1238 C1240 1.415 . S
C1239 C1238 1.355 . S
C1239 C1241 1.419 . S
C1240 C1238 1.415 . S
C1240 C1245 1.425 . S
C1240 C1247 1.409 . S
C1241 H1233 0.930 . S
C1241 C1239 1.419 . S
C1241 C1242 1.362 . S
C1242 H1234 0.930 . S
C1242 C1241 1.362 . S
C1242 C1245 1.409 . S
C1243 H1235 0.930 . S
C1243 C1244 1.355 . S
C1243 C1245 1.415 . S
C1244 C1243 1.355 . S
C1244 C1246 1.419 . S
C1245 C1240 1.425 . S
C1245 C1242 1.409 . S
C1245 C1243 1.415 . S
C1246 H1236 0.930 . S
C1246 C1244 1.419 . S
C1246 C1247 1.362 . S
C1247 H1237 0.930 . S
C1247 C1240 1.409 . S
C1247 C1246 1.362 . S
H1248 C1254 0.930 . S
H1249 C1257 0.930 . S
H1250 C1258 0.930 . S
H1251 C1259 0.930 . S
H1252 C1262 0.930 . S
H1253 C1263 0.930 . S
C1254 H1248 0.930 . S
C1254 C1255 1.355 . S
C1254 C1256 1.415 . S
C1255 C1254 1.355 . S
C1255 C1257 1.419 . S
C1256 C1254 1.415 . S
C1256 C1261 1.425 . S
C1256 C1263 1.409 . S
C1257 H1249 0.930 . S
C1257 C1255 1.419 . S
C1257 C1258 1.362 . S
C1258 H1250 0.930 . S
C1258 C1257 1.362 . S
C1258 C1261 1.409 . S
C1259 H1251 0.930 . S
C1259 C1260 1.355 . S
C1259 C1261 1.415 . S
C1260 C1259 1.355 . S
C1260 C1262 1.419 . S
C1261 C1256 1.425 . S
C1261 C1258 1.409 . S
C1261 C1259 1.415 . S
C1262 H1252 0.930 . S
C1262 C1260 1.419 . S
C1262 C1263 1.362 . S
C1263 H1253 0.930 . S
C1263 C1256 1.409 . S
C1263 C1262 1.362 . S
H1264 C1270 0.930 . S
H1265 C1273 0.930 . S
H1266 C1274 0.930 . S
H1267 C1275 0.930 . S
H1268 C1278 0.930 . S
H1269 C1279 0.930 . S
C1270 H1264 0.930 . S
C1270 C1271 1.355 . S
C1270 C1272 1.415 . S
C1271 C1270 1.355 . S
C1271 C1273 1.419 . S
C1272 C1270 1.415 . S
C1272 C1277 1.425 . S
C1272 C1279 1.409 . S
C1273 H1265 0.930 . S
C1273 C1271 1.419 . S
C1273 C1274 1.362 . S
C1274 H1266 0.930 . S
C1274 C1273 1.362 . S
C1274 C1277 1.409 . S
C1275 H1267 0.930 . S
C1275 C1276 1.355 . S
C1275 C1277 1.415 . S
C1276 C1275 1.355 . S
C1276 C1278 1.419 . S
C1277 C1272 1.425 . S
C1277 C1274 1.409 . S
C1277 C1275 1.415 . S
C1278 H1268 0.930 . S
C1278 C1276 1.419 . S
C1278 C1279 1.362 . S
C1279 H1269 0.930 . S
C1279 C1272 1.409 . S
C1279 C1278 1.362 . S
H1280 C1286 0.930 . S
H1281 C1289 0.930 . S
H1282 C1290 0.930 . S
H1283 C1291 0.930 . S
H1284 C1294 0.930 . S
H1285 C1295 0.930 . S
C1286 H1280 0.930 . S
C1286 C1287 1.355 . S
C1286 C1288 1.415 . S
C1287 C1286 1.355 . S
C1287 C1289 1.419 . S
C1288 C1286 1.415 . S
C1288 C1293 1.425 . S
C1288 C1295 1.409 . S
C1289 H1281 0.930 . S
C1289 C1287 1.419 . S
C1289 C1290 1.362 . S
C1290 H1282 0.930 . S
C1290 C1289 1.362 . S
C1290 C1293 1.409 . S
C1291 H1283 0.930 . S
C1291 C1292 1.355 . S
C1291 C1293 1.415 . S
C1292 C1291 1.355 . S
C1292 C1294 1.419 . S
C1293 C1288 1.425 . S
C1293 C1290 1.409 . S
C1293 C1291 1.415 . S
C1294 H1284 0.930 . S
C1294 C1292 1.419 . S
C1294 C1295 1.362 . S
C1295 H1285 0.930 . S
C1295 C1288 1.409 . S
C1295 C1294 1.362 . S
H1296 C1302 0.930 . S
H1297 C1305 0.930 . S
H1298 C1306 0.930 . S
H1299 C1307 0.930 . S
H1300 C1310 0.930 . S
H1301 C1311 0.930 . S
C1302 H1296 0.930 . S
C1302 C1303 1.355 . S
C1302 C1304 1.415 . S
C1303 C1302 1.355 . S
C1303 C1305 1.419 . S
C1304 C1302 1.415 . S
C1304 C1309 1.425 . S
C1304 C1311 1.409 . S
C1305 H1297 0.930 . S
C1305 C1303 1.419 . S
C1305 C1306 1.362 . S
C1306 H1298 0.930 . S
C1306 C1305 1.362 . S
C1306 C1309 1.409 . S
C1307 H1299 0.930 . S
C1307 C1308 1.355 . S
C1307 C1309 1.415 . S
C1308 C1307 1.355 . S
C1308 C1310 1.419 . S
C1309 C1304 1.425 . S
C1309 C1306 1.409 . S
C1309 C1307 1.415 . S
C1310 H1300 0.930 . S
C1310 C1308 1.419 . S
C1310 C1311 1.362 . S
C1311 H1301 0.930 . S
C1311 C1304 1.409 . S
C1311 C1310 1.362 . S
C551 C110 0.668 . S
C556 C13 0.618 . S
C567 C17 1.546 . S
C572 C34 1.536 . S
C583 C81 1.027 . S
C588 C47 0.971 . S
C599 C131 1.584 . S
C604 C85 1.586 . S
C615 C165 1.627 . S
C620 C199 1.645 . S
C631 C174 1.033 . S
C636 C217 1.074 . S
C647 C204 1.494 . S
C652 C267 1.522 . S
C663 C144 0.660 . S
C668 C242 0.671 . S
C679 C314 1.515 . S
C684 C0 1.531 . S
C695 C357 2.503 . S
C700 C51 2.496 . S
C711 C68 1.532 . S
C716 C442 1.537 . S
C727 C276 1.141 . S
C732 C106 1.111 . S
C743 C378 1.117 . S
C748 C140 1.149 . S
C759 C476 1.508 . S
C764 C178 1.481 . S
C775 C221 2.473 . S
C780 C425 2.480 . S
C791 C510 1.525 . S
C796 C246 1.539 . S
C807 C280 0.652 . S
C812 C455 0.593 . S
C823 C335 1.583 . S
C828 C301 1.588 . S
C839 C353 1.051 . S
C844 C310 1.075 . S
C855 C489 0.641 . S
C860 C382 0.591 . S
C871 C421 1.042 . S
C876 C523 0.997 . S
C887 C391 0.590 . S
C892 C4 0.620 . S
C903 C437 1.564 . S
C908 C8 1.573 . S
C919 C412 1.063 . S
C924 C72 1.073 . S
C935 C76 1.559 . S
C940 C374 1.547 . S
C951 C306 1.596 . S
C956 C136 1.585 . S
C967 C319 1.076 . S
C972 C208 1.053 . S
C983 C450 1.563 . S
C988 C233 1.549 . S
C999 C153 0.654 . S
C1004 C446 0.607 . S
C1015 C187 1.511 . S
C1020 C29 1.510 . S
C1031 C348 2.481 . S
C1036 C416 2.487 . S
C1047 C97 1.501 . S
C1052 C255 1.531 . S
C1063 C285 1.122 . S
C1068 C387 1.086 . S
C1079 C115 1.140 . S
C1084 C149 1.101 . S
C1095 C323 1.511 . S
C1100 C505 1.531 . S
C1111 C212 2.502 . S
C1116 C42 2.495 . S
C1127 C539 1.539 . S
C1132 C471 1.536 . S
C1143 C289 0.631 . S
C1148 C251 0.596 . S
C1159 C272 1.614 . S
C1164 C170 1.631 . S
C1175 C344 0.975 . S
C1180 C183 0.997 . S
C1191 C119 0.587 . S
C1196 C480 0.631 . S
C1207 C38 1.030 . S
C1212 C514 0.992 . S
C1223 C408 1.546 . S
C1228 C493 1.571 . S
C1239 C403 1.596 . S
C1244 C527 1.600 . S
C1255 C340 1.559 . S
C1260 C459 1.563 . S
C1271 C484 1.567 . S
C1276 C63 1.551 . S
C1287 C102 1.616 . S
C1292 C518 1.609 . S
C1303 C238 1.535 . S
C1308 C369 1.532 . S
