# Generated by pormake.
# Topology sra, (4)-cn, num edge types: 1
# Building blocks:
#     Node 0, Type 0, BuildingBlock: ICAMEG_clean_sbu_1, # of connection points: 4
#     Node 1, Type 0, BuildingBlock: ICAMEG_clean_sbu_1, # of connection points: 4
#     Node 2, Type 0, BuildingBlock: ICAMEG_clean_sbu_1, # of connection points: 4
#     Node 3, Type 0, BuildingBlock: ICAMEG_clean_sbu_1, # of connection points: 4
#     Node 4, Type 0, BuildingBlock: ICAMEG_clean_sbu_1, # of connection points: 4
#     Node 5, Type 0, BuildingBlock: ICAMEG_clean_sbu_1, # of connection points: 4
#     Node 6, Type 0, BuildingBlock: ICAMEG_clean_sbu_1, # of connection points: 4
#     Node 7, Type 0, BuildingBlock: ICAMEG_clean_sbu_1, # of connection points: 4
#     Edge 8, Type (0, 0), BuildingBlock: XUDNAN_clean_linker_2, # of connection points: 2
#     Edge 9, Type (0, 0), BuildingBlock: XUDNAN_clean_linker_2, # of connection points: 2
#     Edge 10, Type (0, 0), BuildingBlock: XUDNAN_clean_linker_2, # of connection points: 2
#     Edge 11, Type (0, 0), BuildingBlock: XUDNAN_clean_linker_2, # of connection points: 2
#     Edge 12, Type (0, 0), BuildingBlock: XUDNAN_clean_linker_2, # of connection points: 2
#     Edge 13, Type (0, 0), BuildingBlock: XUDNAN_clean_linker_2, # of connection points: 2
#     Edge 14, Type (0, 0), BuildingBlock: XUDNAN_clean_linker_2, # of connection points: 2
#     Edge 15, Type (0, 0), BuildingBlock: XUDNAN_clean_linker_2, # of connection points: 2
#     Edge 16, Type (0, 0), BuildingBlock: XUDNAN_clean_linker_2, # of connection points: 2
#     Edge 17, Type (0, 0), BuildingBlock: XUDNAN_clean_linker_2, # of connection points: 2
#     Edge 18, Type (0, 0), BuildingBlock: XUDNAN_clean_linker_2, # of connection points: 2
#     Edge 19, Type (0, 0), BuildingBlock: XUDNAN_clean_linker_2, # of connection points: 2
#     Edge 20, Type (0, 0), BuildingBlock: XUDNAN_clean_linker_2, # of connection points: 2
#     Edge 21, Type (0, 0), BuildingBlock: XUDNAN_clean_linker_2, # of connection points: 2
#     Edge 22, Type (0, 0), BuildingBlock: XUDNAN_clean_linker_2, # of connection points: 2
#     Edge 23, Type (0, 0), BuildingBlock: XUDNAN_clean_linker_2, # of connection points: 2
# Relax obj value: 0.021
# Max RMSD: 0.061
# Mean RMSD: 0.061
data_MOF--net-sra--node1-ICAMEG_clean_sbu_1--edge1-XUDNAN_clean_linker_2
_symmetry_space_group_name_H-M    P1
_symmetry_Int_Tables_number       1
_symmetry_cell_setting            triclinic
loop_
_symmetry_equiv_pos_as_xyz
'x, y, z'
_cell_length_a     29.900759
_cell_length_b     55.78915
_cell_length_c     30.793041
_cell_angle_alpha  90.094354
_cell_angle_beta   90.006662
_cell_angle_gamma 90.202248
loop_
_atom_site_label
_atom_site_type_symbol
_atom_site_fract_x
_atom_site_fract_y
_atom_site_fract_z
_atom_type_partial_charge
Co0 Co 0.01956 0.12369 0.218 0.0
Co1 Co 0.963 0.13837 0.12327 0.0
O2 O 0.01173 0.12262 0.15482 0.0
C3 C 0.10947 0.14412 0.22932 0.0
O4 O 0.09017 0.15997 0.25466 0.0
C5 C 0.95683 0.08693 0.09495 0.0
O6 O 0.9643 0.08009 0.13506 0.0
O7 O 0.91711 0.1263 0.16549 0.0
O8 O 0.95448 0.11931 0.22739 0.0
H9 H 0.82479 0.18878 0.11053 0.0
H10 H 0.07477 0.09045 0.16571 0.0
O11 O 0.08578 0.12835 0.20975 0.0
H12 H 0.98823 0.03876 0.2649 0.0
H13 H 0.09431 0.10241 0.35959 0.0
H14 H 0.97231 0.14776 0.29045 0.0
H15 H 0.98046 0.08271 0.26788 0.0
H16 H 0.08396 0.10122 0.28013 0.0
O17 O 0.95425 0.10916 0.08585 0.0
H18 H 0.88713 0.16925 0.14901 0.0
H19 H 0.9353 0.14061 0.03006 0.0
H20 H 0.9814 0.1494 0.37001 0.0
H21 H 0.08392 0.04657 0.16191 0.0
H22 H 0.0428 0.12663 0.40507 0.0
H23 H 0.04031 0.02041 0.21163 0.0
O24 O 0.01123 0.1592 0.21843 0.0
H25 H 0.09673 0.13113 0.02529 0.0
H26 H 0.98057 0.18558 0.08095 0.0
H27 H 0.03747 0.20107 0.03023 0.0
H28 H 0.09602 0.17371 1.00186 0.0
H29 H 0.03958 0.11654 0.07669 0.0
H30 H 0.87332 0.15969 0.99033 0.0
H31 H 0.8176 0.18405 0.0306 0.0
O32 O 0.97164 0.16815 0.15854 0.0
C33 C 0.91842 0.12049 0.20559 0.0
C34 C 0.84893 0.17827 0.0926 0.0
C35 C 0.87611 0.1619 0.02515 0.0
N36 N 0.91493 0.15389 0.0918 0.0
C37 C 0.88436 0.16722 0.11419 0.0
C38 C 0.91105 0.15107 0.04785 0.0
C39 C 0.84488 0.17558 0.04776 0.0
C40 C 0.05605 0.07919 0.18779 0.0
N41 N 0.02723 0.08915 0.21709 0.0
C42 C 0.06122 0.05436 0.18535 0.0
C43 C 0.03668 0.03969 0.2132 0.0
C44 C 0.00741 0.04997 0.24305 0.0
C45 C 1.00303 0.07488 0.2445 0.0
C46 C 0.06739 0.11238 0.3447 0.0
C47 C 0.99902 0.13774 0.30548 0.0
C48 C 0.06133 0.11176 0.29974 0.0
N49 N 0.02748 0.12437 0.28067 0.0
C50 C 1.00403 0.13875 0.35054 0.0
C51 C 0.03849 0.12598 0.37019 0.0
C52 C 0.99157 0.17412 0.19362 0.0
C53 C 0.07145 0.14324 0.03748 0.0
C54 C 0.00631 0.17369 0.0693 0.0
C55 C 0.03826 0.1825 0.04031 0.0
C56 C 0.07105 0.16714 0.02437 0.0
N57 N 0.00698 0.15026 0.08214 0.0
C58 C 0.03897 0.13507 0.06656 0.0
Co59 Co 0.01829 0.40077 0.22604 0.0
Co60 Co 0.03919 0.38456 0.11926 0.0
O61 O 0.00789 0.40356 0.16332 0.0
C62 C 0.92146 0.39034 0.21991 0.0
O63 O 0.9309 0.37469 0.18938 0.0
C64 C 0.05324 0.43526 0.0895 0.0
O65 O 0.05832 0.44213 0.13 0.0
O66 O 0.09853 0.3919 0.14631 0.0
O67 O 0.08389 0.39865 0.21681 0.0
H68 H 0.14957 0.32312 0.06761 0.0
H69 H 0.96337 0.4408 0.19253 0.0
O70 O 0.95246 0.40284 0.23712 0.0
H71 H 0.09108 0.47918 0.26681 0.0
H72 H 0.99205 0.42185 0.38305 0.0
H73 H 0.0773 0.3711 0.28149 0.0
H74 H 0.08379 0.43515 0.26491 0.0
H75 H 0.9799 0.42495 0.30402 0.0
O76 O 0.04551 0.41333 0.08057 0.0
H77 H 0.10922 0.34718 0.12218 0.0
H78 H 0.03595 0.38187 0.02235 0.0
H79 H 0.09091 0.36763 0.3602 0.0
H80 H 0.96915 0.48493 0.19396 0.0
H81 H 0.04806 0.39311 0.41159 0.0
H82 H 0.03345 0.50438 0.23118 0.0
O83 O 0.01376 0.36506 0.2238 0.0
H84 H 0.8855 0.4052 0.06541 0.0
H85 H 0.99509 0.34033 0.08473 0.0
H86 H 0.92095 0.33095 0.05395 0.0
H87 H 0.86554 0.36356 0.04401 0.0
H88 H 0.95987 0.41365 0.09668 0.0
H89 H 0.07588 0.3584 0.9667 0.0
H90 H 0.133 0.32869 0.98923 0.0
O91 O 0.03305 0.35508 0.15562 0.0
C92 C 0.11102 0.39593 0.18535 0.0
C93 C 0.12467 0.33597 0.05739 0.0
C94 C 0.08337 0.3558 1.00075 0.0
N95 N 0.07009 0.36581 0.0755 0.0
C96 C 0.10163 0.34959 0.08814 0.0
C97 C 0.06098 0.3691 0.03241 0.0
C98 C 0.11539 0.33912 0.01342 0.0
C99 C 0.99121 0.44916 0.20914 0.0
N100 N 0.0231 0.43543 0.22873 0.0
C101 C 0.99441 0.47414 0.20969 0.0
C102 C 0.03053 0.48504 0.23053 0.0
C103 C 0.0629 0.47091 0.25049 0.0
C104 C 0.05865 0.44598 0.24921 0.0
C105 C 0.01097 0.41067 0.36098 0.0
C106 C 0.05872 0.38236 0.30361 0.0
C107 C 1.00415 0.41231 0.31621 0.0
N108 N 0.02809 0.39834 0.28815 0.0
C109 C 0.06648 0.38026 0.34816 0.0
C110 C 0.04241 0.39455 0.37697 0.0
C111 C 0.02204 0.34957 0.19438 0.0
C112 C 0.90931 0.39083 0.06964 0.0
C113 C 0.971 0.35452 0.08103 0.0
C114 C 0.92916 0.34915 0.0633 0.0
C115 C 0.89812 0.36746 0.05768 0.0
N116 N 0.98168 0.37745 0.09289 0.0
C117 C 0.9515 0.39551 0.08725 0.0
Co118 Co 1.00034 0.89071 0.78549 0.0
Co119 Co 0.9741 0.89638 0.89465 0.0
O120 O 0.0095 0.90472 0.84342 0.0
C121 C 0.09339 0.87892 0.80667 0.0
O122 O 0.0776 0.87175 0.84425 0.0
C123 C 0.96377 0.94955 0.89251 0.0
O124 O 0.95439 0.94793 0.85094 0.0
O125 O 0.91753 0.90141 0.86162 0.0
O126 O 0.93399 0.89365 0.79163 0.0
H127 H 0.85033 0.85405 0.97419 0.0
H128 H 0.06174 0.93211 0.79663 0.0
O129 O 0.06687 0.88749 0.77831 0.0
H130 H 0.94504 0.95976 0.69541 0.0
H131 H 0.03629 0.87947 0.62708 0.0
H132 H 0.93739 0.85524 0.74754 0.0
H133 H 0.94349 0.91851 0.72408 0.0
H134 H 0.04607 0.89688 0.7002 0.0
O135 O 0.97338 0.93078 0.91398 0.0
H136 H 0.89638 0.86452 0.91044 0.0
H137 H 0.97565 0.91126 0.98789 0.0
H138 H 0.92613 0.83756 0.67486 0.0
H139 H 0.06477 0.97346 0.76846 0.0
H140 H 0.97583 0.84966 0.61402 0.0
H141 H 0.00605 0.98753 0.71756 0.0
O142 O 0.99773 0.85743 0.80919 0.0
H143 H 0.1296 0.91842 0.94209 0.0
H144 H 0.00902 0.85831 0.95378 0.0
H145 H 0.08029 0.85156 0.99205 0.0
H146 H 0.14122 0.88178 0.98635 0.0
H147 H 0.05791 0.92427 0.90396 0.0
H148 H 0.93018 0.90152 0.05232 0.0
H149 H 0.86713 0.87263 0.04575 0.0
O150 O 0.97438 0.86176 0.87797 0.0
C151 C 0.90635 0.89876 0.82182 0.0
C152 C 0.8778 0.86661 0.97749 0.0
C153 C 0.92258 0.89327 0.02133 0.0
N154 N 0.93884 0.88834 0.94549 0.0
C155 C 0.90406 0.87255 0.94155 0.0
C156 C 0.94813 0.89877 0.98469 0.0
C157 C 0.88722 0.87706 0.01763 0.0
C158 C 0.03629 0.93805 0.7742 0.0
N159 N 1.00263 0.92289 0.76185 0.0
C160 C 0.03809 0.9615 0.75848 0.0
C161 C 1.00509 0.9694 0.72996 0.0
C162 C 0.97084 0.95383 0.71754 0.0
C163 C 0.97009 0.93051 0.73395 0.0
C164 C 0.01436 0.8741 0.6533 0.0
C165 C 0.95894 0.86072 0.72115 0.0
C166 C 0.0198 0.88385 0.69478 0.0
N167 N 0.99209 0.87722 0.72798 0.0
C168 C 0.9525 0.85059 0.6801 0.0
C169 C 0.98042 0.85737 0.646 0.0
C170 C 0.98534 0.84878 0.84556 0.0
C171 C 0.10331 0.90512 0.94484 0.0
C172 C 0.03545 0.87142 0.95087 0.0
C173 C 0.07568 0.86757 0.97278 0.0
C174 C 0.10983 0.88455 0.96962 0.0
N175 N 0.02935 0.8916 0.92652 0.0
C176 C 0.0626 0.90837 0.92344 0.0
Co177 Co 0.02277 0.63195 0.77955 0.0
Co178 Co 0.03503 0.62519 0.89076 0.0
O179 O 0.00777 0.61632 0.83493 0.0
C180 C 0.924 0.63633 0.78425 0.0
O181 O 0.92784 0.64138 0.82573 0.0
C182 C 0.05171 0.57245 0.88787 0.0
O183 O 0.06433 0.57455 0.8472 0.0
O184 O 0.0964 0.62283 0.86529 0.0
O185 O 0.08728 0.63259 0.79515 0.0
H186 H 0.14101 0.671 0.98677 0.0
H187 H 0.96962 0.58706 0.77977 0.0
O188 O 0.95848 0.63166 0.7616 0.0
H189 H 0.10532 0.56854 0.69529 0.0
H190 H 0.01155 0.64458 0.61798 0.0
H191 H 0.08286 0.67183 0.75386 0.0
H192 H 0.09373 0.60898 0.72549 0.0
H193 H 0.99356 0.62501 0.68764 0.0
O194 O 0.03829 0.59073 0.90882 0.0
H195 H 0.10517 0.6598 0.91743 0.0
H196 H 0.02329 0.60891 0.98252 0.0
H197 H 0.10214 0.69175 0.68488 0.0
H198 H 0.97966 0.54639 0.74979 0.0
H199 H 0.06635 0.67814 0.6163 0.0
H200 H 0.04799 0.53691 0.70732 0.0
O201 O 0.01435 0.6645 0.80515 0.0
H202 H 0.87819 0.59614 0.91686 0.0
H203 H 0.98723 0.66042 0.94736 0.0
H204 H 0.91073 0.66356 0.97662 0.0
H205 H 0.85558 0.63121 0.96142 0.0
H206 H 0.95495 0.59395 0.88779 0.0
H207 H 0.0586 0.61934 0.05243 0.0
H208 H 0.11777 0.65068 0.05489 0.0
O209 O 0.03182 0.65999 0.87555 0.0
C210 C 0.11189 0.62743 0.82754 0.0
C211 C 0.11517 0.65737 0.98614 0.0
C212 C 0.06897 0.62835 0.02298 0.0
N213 N 0.06201 0.63383 0.94595 0.0
C214 C 0.09468 0.651 0.947 0.0
C215 C 0.0492 0.62246 0.98326 0.0
C216 C 0.10215 0.64594 0.02434 0.0
C217 C 0.99925 0.58311 0.76101 0.0
N218 N 0.03096 0.60039 0.75429 0.0
C219 C 1.00483 0.56004 0.74424 0.0
C220 C 0.0432 0.55472 0.72046 0.0
C221 C 0.0754 0.57245 0.71373 0.0
C222 C 0.06871 0.59531 0.73102 0.0
C223 C 0.02742 0.65065 0.64764 0.0
C224 C 0.06734 0.66571 0.72411 0.0
C225 C 0.01729 0.63968 0.68719 0.0
N226 N 0.03737 0.64718 0.72473 0.0
C227 C 0.0783 0.6771 0.68517 0.0
C228 C 0.05818 0.66947 0.64671 0.0
C229 C 0.02151 0.67298 0.843 0.0
C230 C 0.90189 0.61036 0.92365 0.0
C231 C 0.96331 0.64647 0.94016 0.0
C232 C 0.9201 0.64824 0.95707 0.0
C233 C 0.8892 0.63006 0.9486 0.0
N234 N 0.97544 0.62718 0.91551 0.0
C235 C 0.94542 0.6092 0.90737 0.0
Co236 Co 0.52024 0.61994 0.72622 0.0
Co237 Co 0.4668 0.63565 0.63062 0.0
O238 O 0.51245 0.61797 0.66306 0.0
C239 C 0.60941 0.63334 0.69264 0.0
O240 O 0.58916 0.64622 0.66297 0.0
C241 C 0.45336 0.58467 0.60177 0.0
O242 O 0.45736 0.57754 0.64219 0.0
O243 O 0.41876 0.6251 0.67175 0.0
O244 O 0.45438 0.61921 0.73506 0.0
H245 H 0.33552 0.6909 0.6151 0.0
H246 H 0.56842 0.58277 0.67616 0.0
O247 O 0.58676 0.62097 0.71951 0.0
H248 H 0.47392 0.53831 0.77988 0.0
H249 H 0.59423 0.59985 0.86842 0.0
H250 H 0.47576 0.64684 0.79712 0.0
H251 H 0.47429 0.58251 0.77938 0.0
H252 H 0.58271 0.59711 0.78926 0.0
O253 O 0.45537 0.60692 0.59265 0.0
H254 H 0.394 0.66893 0.65492 0.0
H255 H 0.44229 0.63936 0.53678 0.0
H256 H 0.4858 0.64992 0.87645 0.0
H257 H 0.56936 0.53854 0.67571 0.0
H258 H 0.54543 0.62633 0.9126 0.0
H259 H 0.52173 0.51602 0.72777 0.0
O260 O 0.51919 0.65565 0.72487 0.0
H261 H 0.60132 0.62369 0.53528 0.0
H262 H 0.49247 0.68244 0.5905 0.0
H263 H 0.5529 0.69596 0.54184 0.0
H264 H 0.60784 0.66645 0.51377 0.0
H265 H 0.54072 0.61105 0.58461 0.0
H266 H 0.38415 0.66088 0.4957 0.0
H267 H 0.33034 0.68695 0.53489 0.0
O268 O 0.47789 0.66508 0.66642 0.0
C269 C 0.4188 0.62066 0.71246 0.0
C270 C 0.35885 0.67966 0.59764 0.0
C271 C 0.38609 0.66277 0.53064 0.0
N272 N 0.42166 0.65297 0.59819 0.0
C273 C 0.3921 0.66722 0.62 0.0
C274 C 0.41886 0.65057 0.55409 0.0
C275 C 0.35593 0.67741 0.55265 0.0
C276 C 0.54791 0.57308 0.69914 0.0
N277 N 0.5214 0.58519 0.72781 0.0
C278 C 0.54846 0.54805 0.69864 0.0
C279 C 0.52167 0.53542 0.72781 0.0
C280 C 0.49481 0.54791 0.75703 0.0
C281 C 0.49505 0.57295 0.75652 0.0
C282 C 0.56806 0.61017 0.85307 0.0
C283 C 0.50155 0.63637 0.81268 0.0
C284 C 0.56143 0.60873 0.80824 0.0
N285 N 0.52837 0.62167 0.78864 0.0
C286 C 0.50717 0.63825 0.85758 0.0
C287 C 0.54067 0.62503 0.87783 0.0
C288 C 0.49975 0.67087 0.70051 0.0
C289 C 0.5776 0.63672 0.5473 0.0
C290 C 0.5165 0.66957 0.57886 0.0
C291 C 0.55051 0.67729 0.55107 0.0
C292 C 0.58128 0.66072 0.53529 0.0
N293 N 0.5132 0.64603 0.59067 0.0
C294 C 0.54312 0.62966 0.57514 0.0
Co295 Co 0.50192 0.89691 0.72876 0.0
Co296 Co 0.54636 0.88216 0.62774 0.0
O297 O 0.50153 0.89812 0.66484 0.0
C298 C 0.40501 0.88502 0.70587 0.0
O299 O 0.41217 0.88406 0.66387 0.0
C300 C 0.55268 0.93374 0.60037 0.0
O301 O 0.54802 0.94052 0.64095 0.0
O302 O 0.59755 0.8933 0.66514 0.0
O303 O 0.56708 0.90293 0.72924 0.0
H304 H 0.6799 0.83007 0.59931 0.0
H305 H 0.44037 0.92954 0.68181 0.0
O306 O 0.4362 0.89043 0.73225 0.0
H307 H 0.53091 0.98202 0.77633 0.0
H308 H 0.44388 0.91423 0.8792 0.0
H309 H 0.5622 0.87486 0.79365 0.0
H310 H 0.54193 0.93827 0.77687 0.0
H311 H 0.44333 0.91624 0.79921 0.0
O312 O 0.55297 0.91153 0.59064 0.0
H313 H 0.62315 0.85013 0.64461 0.0
H314 H 0.56344 0.88022 0.53213 0.0
H315 H 0.56426 0.87262 0.8736 0.0
H316 H 0.42783 0.97315 0.68055 0.0
H317 H 0.50476 0.89238 0.91693 0.0
H318 H 0.47342 0.99975 0.72794 0.0
O319 O 0.51173 0.86149 0.72828 0.0
H320 H 0.4049 0.89235 0.54163 0.0
H321 H 0.52117 0.83532 0.58756 0.0
H322 H 0.45864 0.82108 0.54201 0.0
H323 H 0.40001 0.84973 0.51856 0.0
H324 H 0.46757 0.90568 0.58796 0.0
H325 H 0.61972 0.86064 0.48566 0.0
H326 H 0.67842 0.83529 0.51923 0.0
O327 O 0.53995 0.85226 0.66262 0.0
C328 C 0.6006 0.90077 0.70423 0.0
C329 C 0.65443 0.84103 0.58429 0.0
C330 C 0.62071 0.85822 0.52051 0.0
N331 N 0.58994 0.86627 0.59104 0.0
C332 C 0.62216 0.85238 0.60976 0.0
C333 C 0.58902 0.86933 0.54701 0.0
C334 C 0.65361 0.84399 0.53936 0.0
C335 C 0.45998 0.94091 0.7029 0.0
N336 N 0.49171 0.93128 0.72955 0.0
C337 C 0.45288 0.96563 0.70188 0.0
C338 C 0.47853 0.98055 0.72842 0.0
C339 C 0.51081 0.97062 0.75553 0.0
C340 C 0.51703 0.94582 0.7556 0.0
C341 C 0.47004 0.90559 0.86069 0.0
C342 C 0.53638 0.88367 0.81229 0.0
C343 C 0.46987 0.90662 0.81537 0.0
N344 N 0.50291 0.89583 0.79177 0.0
C345 C 0.53764 0.88227 0.85755 0.0
C346 C 0.50422 0.89334 0.88184 0.0
C347 C 0.52604 0.84646 0.70033 0.0
C348 C 0.4302 0.87968 0.55167 0.0
C349 C 0.49542 0.84779 0.57807 0.0
C350 C 0.46028 0.83967 0.55198 0.0
C351 C 0.42744 0.85576 0.53879 0.0
N352 N 0.49775 0.87124 0.59081 0.0
C353 C 0.46583 0.88714 0.57781 0.0
Co354 Co 0.51404 0.39137 0.30598 0.0
Co355 Co 0.45582 0.39379 0.4032 0.0
O356 O 0.50467 0.40387 0.36478 0.0
C357 C 0.60722 0.37464 0.30743 0.0
O358 O 0.59145 0.35395 0.29376 0.0
C359 C 0.44569 0.447 0.40009 0.0
O360 O 0.44839 0.44596 0.35756 0.0
O361 O 0.41051 0.39782 0.35565 0.0
O362 O 0.44885 0.39095 0.29434 0.0
H363 H 0.31795 0.34685 0.44204 0.0
H364 H 0.56295 0.43489 0.33454 0.0
O365 O 0.58038 0.39168 0.31649 0.0
H366 H 0.47289 0.46052 0.20887 0.0
H367 H 0.58935 0.3878 0.1595 0.0
H368 H 0.47226 0.35295 0.25312 0.0
H369 H 0.471 0.41852 0.23352 0.0
H370 H 0.57664 0.4036 0.23332 0.0
O371 O 0.44678 0.42783 0.42237 0.0
H372 H 0.38098 0.35922 0.39538 0.0
H373 H 0.42589 0.4079 0.49237 0.0
H374 H 0.48384 0.3366 0.17953 0.0
H375 H 0.56622 0.47703 0.31065 0.0
H376 H 0.54277 0.35404 0.13218 0.0
H377 H 0.52085 0.4901 0.24747 0.0
O378 O 0.51034 0.35777 0.32775 0.0
H379 H 0.5885 0.41846 0.4932 0.0
H380 H 0.47148 0.35711 0.47203 0.0
H381 H 0.5272 0.35187 0.53026 0.0
H382 H 0.58621 0.38275 0.54123 0.0
H383 H 0.53248 0.42277 0.43498 0.0
H384 H 0.36317 0.3962 0.53989 0.0
H385 H 0.30876 0.3654 0.51487 0.0
O386 O 0.46559 0.35938 0.38657 0.0
C387 C 0.41246 0.3947 0.31458 0.0
C388 C 0.34154 0.36022 0.45338 0.0
C389 C 0.36687 0.38796 0.50826 0.0
N390 N 0.40728 0.38411 0.44124 0.0
C391 C 0.37737 0.36723 0.42717 0.0
C392 C 0.40224 0.39456 0.48113 0.0
C393 C 0.33636 0.37066 0.49421 0.0
C394 C 0.54348 0.44038 0.30673 0.0
N395 N 0.51702 0.42421 0.28533 0.0
C396 C 0.54531 0.46429 0.29348 0.0
C397 C 0.51979 0.47162 0.25807 0.0
C398 C 0.49285 0.45504 0.23642 0.0
C399 C 0.4918 0.43128 0.25063 0.0
C400 C 0.56352 0.38007 0.1798 0.0
C401 C 0.49792 0.36066 0.23268 0.0
C402 C 0.55613 0.38896 0.2216 0.0
N403 N 0.52368 0.37923 0.2475 0.0
C404 C 0.50433 0.35133 0.19105 0.0
C405 C 0.53739 0.36112 0.1645 0.0
C406 C 0.48884 0.34783 0.35868 0.0
C407 C 0.56311 0.40482 0.48861 0.0
C408 C 0.49752 0.37037 0.4761 0.0
C409 C 0.52876 0.36743 0.50937 0.0
C410 C 0.5618 0.38478 0.51555 0.0
N411 N 0.49917 0.38998 0.44962 0.0
C412 C 0.53132 0.40714 0.45566 0.0
Co413 Co 0.52657 0.13093 0.29294 0.0
Co414 Co 0.54569 0.12509 0.40292 0.0
O415 O 0.51435 0.11615 0.34947 0.0
C416 C 0.42881 0.13781 0.30152 0.0
O417 O 0.4361 0.14774 0.33958 0.0
C418 C 0.55807 0.07216 0.4012 0.0
O419 O 0.57021 0.07398 0.36034 0.0
O420 O 0.60488 0.12072 0.37391 0.0
O421 O 0.59196 0.1318 0.30498 0.0
H422 H 0.66137 0.16928 0.49049 0.0
H423 H 0.4736 0.086 0.29788 0.0
O424 O 0.46132 0.13002 0.27897 0.0
H425 H 0.60436 0.06647 0.20703 0.0
H426 H 0.50556 0.14136 0.13181 0.0
H427 H 0.58513 0.17036 0.26207 0.0
H428 H 0.5944 0.10728 0.23617 0.0
H429 H 0.49172 0.12283 0.20327 0.0
O430 O 0.54655 0.09077 0.42229 0.0
H431 H 0.62044 0.1581 0.42385 0.0
H432 H 0.53828 0.1103 0.49586 0.0
H433 H 0.60029 0.18925 0.19121 0.0
H434 H 0.48205 0.04499 0.26903 0.0
H435 H 0.56033 0.17474 0.12543 0.0
H436 H 0.54788 0.03499 0.22336 0.0
O437 O 0.52 0.16382 0.31773 0.0
H438 H 0.38797 0.10123 0.4392 0.0
H439 H 0.50503 0.16258 0.46002 0.0
H440 H 0.43094 0.16841 0.49341 0.0
H441 H 0.37177 0.13756 0.48312 0.0
H442 H 0.46247 0.09629 0.40601 0.0
H443 H 0.57862 0.12075 0.56316 0.0
H444 H 0.64053 0.15053 0.56078 0.0
O445 O 0.54492 0.15972 0.38608 0.0
C446 C 0.61824 0.12568 0.33554 0.0
C447 C 0.63437 0.15634 0.49197 0.0
C448 C 0.58797 0.12907 0.53275 0.0
N449 N 0.57683 0.1337 0.456 0.0
C450 C 0.611 0.14999 0.45437 0.0
C451 C 0.56534 0.12317 0.4945 0.0
C452 C 0.62269 0.14579 0.53139 0.0
C453 C 0.50214 0.08183 0.27772 0.0
N454 N 0.53338 0.09904 0.26863 0.0
C455 C 0.50683 0.05856 0.2616 0.0
C456 C 0.54381 0.05296 0.23603 0.0
C457 C 0.57552 0.0706 0.22688 0.0
C458 C 0.56975 0.09367 0.24358 0.0
C459 C 0.52323 0.1478 0.16022 0.0
C460 C 0.56781 0.16386 0.23356 0.0
C461 C 0.51545 0.13742 0.20078 0.0
N462 N 0.53784 0.1454 0.23674 0.0
C463 C 0.57644 0.17467 0.19354 0.0
C464 C 0.55398 0.16653 0.15666 0.0
C465 C 0.53176 0.17258 0.35431 0.0
C466 C 0.41346 0.11481 0.4439 0.0
C467 C 0.47939 0.14921 0.45506 0.0
C468 C 0.43754 0.15254 0.47424 0.0
C469 C 0.40438 0.1352 0.4685 0.0
N470 N 0.48803 0.1292 0.43089 0.0
C471 C 0.45573 0.11209 0.42527 0.0
H472 H 0.00783 0.31263 0.13765 0.0
H473 H 0.02519 0.32788 0.27477 0.0
H474 H 0.01809 0.28446 0.29081 0.0
H475 H 0.92373 0.26699 0.15141 0.0
H476 H 0.94373 0.24943 0.10628 0.0
H477 H 0.95108 0.28149 0.10631 0.0
H478 H 0.03646 0.27611 0.09555 0.0
H479 H 0.02936 0.24405 0.09547 0.0
H480 H 0.06747 0.25795 0.13333 0.0
H481 H 0.01318 0.23831 0.29022 0.0
H482 H 0.00551 0.19495 0.27377 0.0
H483 H 0.98507 0.21197 0.13787 0.0
C484 C 0.01008 0.30701 0.1711 0.0
C485 C 0.01726 0.32373 0.20488 0.0
C486 C 0.01967 0.31541 0.2483 0.0
C487 C 0.01574 0.29079 0.25769 0.0
C488 C 0.00864 0.27482 0.22338 0.0
C489 C 1.00529 0.28275 0.18102 0.0
C490 C 0.99655 0.26231 0.14985 0.0
C491 C 0.95107 0.26523 0.12714 0.0
C492 C 0.03474 0.25997 0.1166 0.0
C493 C 0.99601 0.24147 0.18112 0.0
C494 C 1.00346 0.24888 0.22336 0.0
C495 C 0.00675 0.23241 0.25731 0.0
C496 C 1.00241 0.20783 0.24767 0.0
C497 C 0.99419 0.2 0.20456 0.0
C498 C 0.9906 0.21722 0.1712 0.0
H499 H 0.99723 0.8129 0.784 0.0
H500 H 0.9756 0.82456 0.92204 0.0
H501 H 0.98398 0.78153 0.93525 0.0
H502 H 0.93385 0.75656 0.7799 0.0
H503 H 0.97052 0.74294 0.74056 0.0
H504 H 0.96337 0.775 0.74127 0.0
H505 H 0.04904 0.78055 0.74877 0.0
H506 H 0.05642 0.74851 0.74844 0.0
H507 H 0.07807 0.76615 0.79287 0.0
H508 H 1.00084 0.73836 0.93531 0.0
H509 H 0.01436 0.69581 0.9212 0.0
H510 H 0.01732 0.70975 0.78241 0.0
C511 C 0.99407 0.80639 0.81697 0.0
C512 C 0.98662 0.82239 0.85207 0.0
C513 C 0.98206 0.81296 0.8946 0.0
C514 C 0.98671 0.78844 0.90254 0.0
C515 C 0.99495 0.77332 0.86755 0.0
C516 C 0.99766 0.78172 0.82548 0.0
C517 C 1.00529 0.76117 0.79384 0.0
C518 C 0.9659 0.75878 0.76201 0.0
C519 C 0.04986 0.76429 0.76955 0.0
C520 C 0.00703 0.74007 0.82496 0.0
C521 C 1.00154 0.74769 0.8673 0.0
C522 C 1.00421 0.73203 0.90224 0.0
C523 C 0.01187 0.70777 0.89378 0.0
C524 C 0.01581 0.69912 0.85063 0.0
C525 C 0.01363 0.71564 0.81574 0.0
H526 H 0.48308 0.70905 0.64712 0.0
H527 H 0.52698 0.69153 0.77757 0.0
H528 H 0.53668 0.73479 0.79332 0.0
H529 H 0.56274 0.75558 0.63001 0.0
H530 H 0.52512 0.77368 0.59829 0.0
H531 H 0.51879 0.74157 0.59883 0.0
H532 H 0.43644 0.74611 0.6238 0.0
H533 H 0.44255 0.77824 0.62321 0.0
H534 H 0.4241 0.76331 0.67192 0.0
H535 H 0.54044 0.78089 0.79433 0.0
H536 H 0.54331 0.82455 0.77852 0.0
H537 H 0.50265 0.81015 0.64594 0.0
C538 C 0.49463 0.71414 0.67909 0.0
C539 C 0.50421 0.69677 0.71106 0.0
C540 C 0.51939 0.70447 0.75246 0.0
C541 C 0.52493 0.72901 0.76174 0.0
C542 C 0.51569 0.74562 0.72912 0.0
C543 C 0.50123 0.73839 0.68851 0.0
C544 C 0.49572 0.75946 0.65817 0.0
C545 C 0.52749 0.75744 0.61902 0.0
C546 C 0.44679 0.76192 0.64343 0.0
C547 C 0.5093 0.77976 0.68799 0.0
C548 C 0.52014 0.77159 0.72899 0.0
C549 C 0.53238 0.7874 0.7622 0.0
C550 C 0.53386 0.81212 0.75302 0.0
C551 C 0.52403 0.82062 0.7108 0.0
C552 C 0.51147 0.80415 0.67817 0.0
H553 H 0.49329 0.31197 0.29651 0.0
H554 H 0.49788 0.32468 0.43543 0.0
H555 H 0.51102 0.2819 0.44819 0.0
H556 H 0.43367 0.25489 0.30457 0.0
H557 H 0.46312 0.24124 0.2599 0.0
H558 H 0.45495 0.27322 0.261 0.0
H559 H 0.5404 0.27971 0.25356 0.0
H560 H 0.54885 0.24774 0.25272 0.0
H561 H 0.57757 0.266 0.29229 0.0
H562 H 0.52857 0.23892 0.44648 0.0
H563 H 0.53963 0.19625 0.43163 0.0
H564 H 0.51693 0.2088 0.29406 0.0
C565 C 0.4969 0.30564 0.32955 0.0
C566 C 0.4943 0.32171 0.36512 0.0
C567 C 0.499 0.31278 0.40784 0.0
C568 C 0.5069 0.28847 0.41539 0.0
C569 C 0.50939 0.27313 0.37987 0.0
C570 C 0.50379 0.28113 0.33781 0.0
C571 C 0.50633 0.26033 0.30589 0.0
C572 C 0.46186 0.25724 0.2814 0.0
C573 C 0.54563 0.26365 0.27424 0.0
C574 C 0.51457 0.23956 0.33676 0.0
C575 C 0.51686 0.24758 0.37914 0.0
C576 C 0.52602 0.23228 0.41353 0.0
C577 C 0.53214 0.20794 0.40465 0.0
C578 C 0.52806 0.19885 0.36178 0.0
C579 C 0.51956 0.21504 0.32729 0.0
H580 H 0.35265 0.15987 0.33134 0.0
H581 H 0.40148 0.11181 0.23104 0.0
H582 H 0.32568 0.10936 0.19977 0.0
H583 H 0.24598 0.13143 0.34642 0.0
H584 H 0.21645 0.1592 0.35441 0.0
H585 H 0.27467 0.15711 0.36881 0.0
H586 H 0.29242 0.1934 0.31915 0.0
H587 H 0.23428 0.19547 0.30433 0.0
H588 H 0.2763 0.19241 0.26275 0.0
H589 H 0.24397 0.11117 0.18054 0.0
H590 H 0.16226 0.11734 0.17501 0.0
H591 H 0.16778 0.16536 0.286 0.0
C592 C 0.34738 0.14878 0.30288 0.0
C593 C 0.38299 0.13602 0.28369 0.0
C594 C 0.37474 0.12181 0.24629 0.0
C595 C 0.3318 0.12029 0.22823 0.0
C596 C 0.2975 0.13324 0.24772 0.0
C597 C 0.3048 0.14724 0.28416 0.0
C598 C 0.26216 0.15936 0.29879 0.0
C599 C 0.24905 0.15128 0.34483 0.0
C600 C 0.26657 0.18679 0.29607 0.0
C601 C 0.22975 0.14982 0.26511 0.0
C602 C 0.25072 0.13476 0.23596 0.0
C603 C 0.22721 0.12309 0.20296 0.0
C604 C 0.18087 0.12672 0.20002 0.0
C605 C 0.15872 0.142 0.22975 0.0
C606 C 0.18377 0.15387 0.26231 0.0
H607 H 0.66961 0.34895 0.26226 0.0
H608 H 0.65365 0.41248 0.34229 0.0
H609 H 0.73278 0.42327 0.32905 0.0
H610 H 0.78448 0.33523 0.29297 0.0
H611 H 0.79951 0.32589 0.23886 0.0
H612 H 0.74278 0.32237 0.25754 0.0
H613 H 0.71476 0.34671 0.19135 0.0
H614 H 0.77141 0.35057 0.17275 0.0
H615 H 0.73665 0.37641 0.18202 0.0
H616 H 0.81286 0.42771 0.3051 0.0
H617 H 0.88836 0.42535 0.27303 0.0
H618 H 0.85069 0.35972 0.20617 0.0
C619 C 0.68293 0.36488 0.27778 0.0
C620 C 0.65561 0.37976 0.30374 0.0
C621 C 0.6741 0.40074 0.32256 0.0
C622 C 0.71894 0.40703 0.31515 0.0
C623 C 0.74466 0.39222 0.28862 0.0
C624 C 0.72737 0.37156 0.27029 0.0
C625 C 0.7614 0.35932 0.24143 0.0
C626 C 0.77272 0.33422 0.25875 0.0
C627 C 0.74507 0.3582 0.19409 0.0
C628 C 0.8006 0.37635 0.24631 0.0
C629 C 0.79033 0.39514 0.27382 0.0
C630 C 0.82129 0.41306 0.28356 0.0
C631 C 0.86406 0.41157 0.26511 0.0
C632 C 0.87539 0.39239 0.23697 0.0
C633 C 0.84298 0.3747 0.22726 0.0
H634 H 0.13841 0.89057 0.7312 0.0
H635 H 0.15811 0.86263 0.86145 0.0
H636 H 0.23877 0.85902 0.84722 0.0
H637 H 0.22169 0.85301 0.67789 0.0
H638 H 0.24024 0.87637 0.64166 0.0
H639 H 0.18337 0.87609 0.66106 0.0
H640 H 0.19326 0.91925 0.6907 0.0
H641 H 0.25005 0.91971 0.67125 0.0
H642 H 0.23849 0.92573 0.72766 0.0
H643 H 0.31667 0.85998 0.8212 0.0
H644 H 0.38903 0.86592 0.78488 0.0
H645 H 0.32105 0.89253 0.67015 0.0
C646 C 0.15968 0.88358 0.75664 0.0
C647 C 0.14182 0.87681 0.79745 0.0
C648 C 0.17085 0.86786 0.82991 0.0
C649 C 0.21676 0.86569 0.82213 0.0
C650 C 0.23324 0.87246 0.78168 0.0
C651 C 0.20579 0.88124 0.74939 0.0
C652 C 0.23269 0.88785 0.70926 0.0
C653 C 0.21865 0.8724 0.67015 0.0
C654 C 0.22836 0.91473 0.69914 0.0
C655 C 0.2796 0.88167 0.72434 0.0
C656 C 0.27884 0.87276 0.76623 0.0
C657 C 0.31774 0.86674 0.7883 0.0
C658 C 0.35868 0.87024 0.76737 0.0
C659 C 0.36063 0.87957 0.72463 0.0
C660 C 0.32047 0.88501 0.70254 0.0
H661 H 0.65824 0.62545 0.76611 0.0
H662 H 0.67116 0.64408 0.62991 0.0
H663 H 0.75346 0.64629 0.63846 0.0
H664 H 0.74348 0.66564 0.80407 0.0
H665 H 0.76295 0.64571 0.84597 0.0
H666 H 0.70548 0.64446 0.82858 0.0
H667 H 0.71374 0.59923 0.81144 0.0
H668 H 0.77123 0.6003 0.82886 0.0
H669 H 0.7575 0.58943 0.77532 0.0
H670 H 0.83412 0.64541 0.66167 0.0
H671 H 0.90733 0.64442 0.69861 0.0
H672 H 0.84125 0.62912 0.82102 0.0
C673 C 0.67842 0.62978 0.73797 0.0
C674 C 0.65852 0.63435 0.69718 0.0
C675 C 0.68588 0.64045 0.66136 0.0
C676 C 0.73255 0.6417 0.66592 0.0
C677 C 0.7511 0.63715 0.70665 0.0
C678 C 0.72486 0.63155 0.74215 0.0
C679 C 0.7529 0.62846 0.78275 0.0
C680 C 0.74046 0.64719 0.81738 0.0
C681 C 0.74858 0.60283 0.80063 0.0
C682 C 0.79916 0.63306 0.76454 0.0
C683 C 0.79738 0.63778 0.72048 0.0
C684 C 0.83589 0.64189 0.69618 0.0
C685 C 0.8773 0.64123 0.71745 0.0
C686 C 0.87987 0.63683 0.7627 0.0
C687 C 0.84021 0.63279 0.7865 0.0
H688 H 0.685 0.88719 0.6754 0.0
H689 H 0.61688 0.92582 0.77853 0.0
H690 H 0.68762 0.93054 0.81749 0.0
H691 H 0.75751 0.85475 0.74309 0.0
H692 H 0.80576 0.85651 0.70813 0.0
H693 H 0.75041 0.8578 0.68521 0.0
H694 H 0.7696 0.89824 0.64838 0.0
H695 H 0.82521 0.89695 0.67086 0.0
H696 H 0.79054 0.92274 0.68089 0.0
H697 H 0.76304 0.92799 0.84944 0.0
H698 H 0.8416 0.92098 0.86972 0.0
H699 H 0.86357 0.88499 0.7463 0.0
C700 C 0.68521 0.89714 0.70562 0.0
C701 C 0.64505 0.90615 0.72366 0.0
C702 C 0.64684 0.9187 0.76377 0.0
C703 C 0.68702 0.92152 0.78636 0.0
C704 C 0.72558 0.91185 0.76849 0.0
C705 C 0.72539 0.90019 0.72883 0.0
C706 C 0.77174 0.89079 0.71814 0.0
C707 C 0.7713 0.86333 0.71337 0.0
C708 C 0.79037 0.90291 0.67713 0.0
C709 C 0.79738 0.89859 0.7584 0.0
C710 C 0.76996 0.91071 0.78693 0.0
C711 C 0.78513 0.91879 0.82717 0.0
C712 C 0.82977 0.91459 0.83851 0.0
C713 C 0.85891 0.90252 0.80964 0.0
C714 C 0.84231 0.89447 0.76898 0.0
H715 H 0.33362 0.63053 0.68259 0.0
H716 H 0.40619 0.6062 0.7965 0.0
H717 H 0.33618 0.60546 0.83823 0.0
H718 H 0.25978 0.66956 0.7389 0.0
H719 H 0.2119 0.66291 0.70534 0.0
H720 H 0.26746 0.6604 0.68322 0.0
H721 H 0.25148 0.61632 0.66136 0.0
H722 H 0.19576 0.61877 0.68314 0.0
H723 H 0.2324 0.5954 0.70197 0.0
H724 H 0.25845 0.60853 0.86888 0.0
H725 H 0.17799 0.61378 0.8847 0.0
H726 H 0.1566 0.63675 0.75152 0.0
C727 C 0.33474 0.62471 0.7161 0.0
C728 C 0.37562 0.6183 0.73599 0.0
C729 C 0.37548 0.61111 0.78022 0.0
C730 C 0.3358 0.61067 0.80439 0.0
C731 C 0.29633 0.61748 0.78407 0.0
C732 C 0.29538 0.62424 0.74088 0.0
C733 C 0.24854 0.6312 0.72718 0.0
C734 C 0.24684 0.65759 0.71282 0.0
C735 C 0.23102 0.61442 0.69129 0.0
C736 C 0.22354 0.62739 0.76944 0.0
C737 C 0.25163 0.61945 0.80187 0.0
C738 C 0.23603 0.61469 0.8437 0.0
C739 C 0.19029 0.6178 0.85244 0.0
C740 C 0.16072 0.62562 0.81947 0.0
C741 C 0.17801 0.63067 0.77759 0.0
H742 H 0.65903 0.13673 0.25825 0.0
H743 H 0.68639 0.10883 0.38722 0.0
H744 H 0.76535 0.10264 0.36636 0.0
H745 H 0.7296 0.09614 0.19976 0.0
H746 H 0.74753 0.1183 0.16088 0.0
H747 H 0.69329 0.1207 0.18596 0.0
H748 H 0.71272 0.16352 0.21276 0.0
H749 H 0.76687 0.16135 0.18748 0.0
H750 H 0.76264 0.16831 0.24451 0.0
H751 H 0.84091 0.09949 0.33146 0.0
H752 H 0.90898 0.10166 0.28703 0.0
H753 H 0.83212 0.13125 0.18012 0.0
C754 C 0.68147 0.12934 0.28232 0.0
C755 C 0.6663 0.1232 0.32448 0.0
C756 C 0.6971 0.1137 0.35481 0.0
C757 C 0.74197 0.11002 0.34317 0.0
C758 C 0.75547 0.11592 0.30114 0.0
C759 C 0.7262 0.12552 0.27128 0.0
C760 C 0.74923 0.13064 0.2284 0.0
C761 C 0.72869 0.11554 0.19158 0.0
C762 C 0.74778 0.15755 0.21768 0.0
C763 C 0.7963 0.12256 0.23885 0.0
C764 C 0.79903 0.11402 0.28091 0.0
C765 C 0.83914 0.10606 0.29846 0.0
C766 C 0.87769 0.10733 0.27276 0.0
C767 C 0.8761 0.11652 0.2298 0.0
C768 C 0.83452 0.12386 0.21253 0.0
H769 H 0.14993 0.40216 0.26545 0.0
H770 H 0.18209 0.39108 0.12923 0.0
H771 H 0.26246 0.39061 0.14781 0.0
H772 H 0.24391 0.44078 0.29128 0.0
H773 H 0.25159 0.42809 0.34455 0.0
H774 H 0.19675 0.42851 0.3203 0.0
H775 H 0.19029 0.38256 0.33047 0.0
H776 H 0.24515 0.38195 0.3546 0.0
H777 H 0.23289 0.36335 0.30815 0.0
H778 H 0.33855 0.39 0.18126 0.0
H779 H 0.40596 0.38956 0.22649 0.0
H780 H 0.32472 0.4009 0.3418 0.0
C781 C 0.17373 0.39983 0.23929 0.0
C782 C 0.15949 0.39674 0.1957 0.0
C783 C 0.19201 0.39358 0.16276 0.0
C784 C 0.23775 0.39326 0.17303 0.0
C785 C 0.25042 0.39614 0.21634 0.0
C786 C 0.2194 0.3994 0.24894 0.0
C787 C 0.24178 0.40149 0.29304 0.0
C788 C 0.23299 0.42619 0.31349 0.0
C789 C 0.22662 0.38112 0.32334 0.0
C790 C 0.29042 0.39875 0.28018 0.0
C791 C 0.2945 0.39575 0.23576 0.0
C792 C 0.3358 0.39247 0.21602 0.0
C793 C 0.374 0.39227 0.24223 0.0
C794 C 0.37097 0.39534 0.28797 0.0
C795 C 0.32838 0.39864 0.30705 0.0
H796 H 0.97217 0.03805 0.09798 0.0
H797 H 0.93531 0.0955 0.0101 0.0
H798 H 0.93353 0.06688 0.94922 0.0
H799 H 0.04444 1.0072 0.02379 0.0
H800 H 0.02805 0.97764 0.04135 0.0
H801 H 0.02542 1.00249 0.07869 0.0
H802 H 0.94165 0.99348 0.09289 0.0
H803 H 0.94408 0.96855 0.05572 0.0
H804 H 0.90341 0.9919 0.0477 0.0
H805 H 0.93679 0.03218 0.89708 0.0
H806 H 0.94334 0.99358 0.85814 0.0
H807 H 0.97833 0.95858 0.9793 0.0
C808 C 0.96336 0.04458 0.06602 0.0
C809 C 0.95379 0.06911 0.05904 0.0
C810 C 0.94279 0.07687 0.0165 0.0
C811 C 0.94169 0.06072 0.98156 0.0
C812 C 0.95169 0.03677 0.98943 0.0
C813 C 0.96217 0.02866 0.03059 0.0
C814 C 0.97198 1.00199 0.02998 0.0
C815 C 0.02035 0.99705 0.0443 0.0
C816 C 0.93826 0.98817 0.05825 0.0
C817 C 0.96538 0.99645 0.98211 0.0
C818 C 0.9537 0.01677 0.95929 0.0
C819 C 0.94586 0.01613 0.91463 0.0
C820 C 0.94972 0.99411 0.89275 0.0
C821 C 0.96134 0.97297 0.91549 0.0
C822 C 0.96943 0.97434 0.9608 0.0
H823 H 0.04365 0.56399 0.97529 0.0
H824 H 0.06505 0.52785 0.85209 0.0
H825 H 0.06859 0.48897 0.89052 0.0
H826 H 0.11862 0.52748 0.03808 0.0
H827 H 0.08383 0.52778 0.08588 0.0
H828 H 0.08253 0.55264 0.04864 0.0
H829 H 0.99685 0.54757 0.04029 0.0
H830 H 0.99782 0.52272 0.07754 0.0
H831 H 0.97425 0.51892 0.02408 0.0
H832 H 0.06786 0.45399 0.94233 0.0
H833 H 0.06528 0.42552 1.00339 0.0
H834 H 0.04678 0.48463 0.09344 0.0
C835 C 0.04897 0.54792 0.95625 0.0
C836 C 0.0539 0.54899 0.91052 0.0
C837 C 0.0612 0.52751 0.88706 0.0
C838 C 0.06321 0.50535 0.90863 0.0
C839 C 0.05822 0.50498 0.9537 0.0
C840 C 0.05146 0.52572 0.97726 0.0
C841 C 0.04756 0.52049 0.02547 0.0
C842 C 0.0854 0.53283 0.05102 0.0
C843 C 1.00137 0.52786 0.04285 0.0
C844 C 0.05294 0.49348 0.02543 0.0
C845 C 0.05887 0.48491 0.98365 0.0
C846 C 0.06346 0.46053 0.97515 0.0
C847 C 0.06185 0.44448 0.01014 0.0
C848 C 0.05599 0.4528 0.05333 0.0
C849 C 0.05174 0.4777 0.06092 0.0
H850 H 0.44963 0.45526 0.48805 0.0
H851 H 0.43784 0.49188 0.36426 0.0
H852 H 0.43635 0.53082 0.40272 0.0
H853 H 0.37753 0.49463 0.54978 0.0
H854 H 0.41149 0.49324 0.59807 0.0
H855 H 0.41024 0.46826 0.56092 0.0
H856 H 0.49649 0.47025 0.55388 0.0
H857 H 0.49803 0.49523 0.59098 0.0
H858 H 0.5228 0.49798 0.53785 0.0
H859 H 0.43746 0.56577 0.45457 0.0
H860 H 0.44234 0.59433 0.51538 0.0
H861 H 0.4543 0.53507 0.60594 0.0
C862 C 0.44636 0.47143 0.46893 0.0
C863 C 0.44354 0.47045 0.42299 0.0
C864 C 0.43985 0.49212 0.39938 0.0
C865 C 0.43896 0.51433 0.42097 0.0
C866 C 0.44193 0.51462 0.46621 0.0
C867 C 0.44563 0.49374 0.48992 0.0
C868 C 0.44946 0.49902 0.53818 0.0
C869 C 0.40981 0.48814 0.5632 0.0
C870 C 0.49437 0.49009 0.55627 0.0
C871 C 0.44742 0.52618 0.53797 0.0
C872 C 0.44294 0.53477 0.4961 0.0
C873 C 0.44086 0.55923 0.48746 0.0
C874 C 0.44367 0.57533 0.52239 0.0
C875 C 0.4486 0.56705 0.56568 0.0
C876 C 0.45029 0.54205 0.57338 0.0
H877 H 0.54118 0.98293 0.60454 0.0
H878 H 0.57258 0.92505 0.51521 0.0
H879 H 0.57718 0.95392 0.45507 0.0
H880 H 0.47198 0.01617 0.53067 0.0
H881 H 0.4911 0.04513 0.5491 0.0
H882 H 0.4911 0.02001 0.58579 0.0
H883 H 0.57553 0.02662 0.60065 0.0
H884 H 0.57574 0.05179 0.56408 0.0
H885 H 0.61414 0.02738 0.5557 0.0
H886 H 0.57823 0.98896 0.40399 0.0
H887 H 0.57555 0.02792 0.36598 0.0
H888 H 0.54266 0.0631 0.48772 0.0
C889 C 0.54928 0.97635 0.5724 0.0
C890 C 0.55656 0.95164 0.56481 0.0
C891 C 0.56676 0.94382 0.52207 0.0
C892 C 0.5695 0.9601 0.48755 0.0
C893 C 0.56189 0.98425 0.49603 0.0
C894 C 0.552 0.9924 0.53735 0.0
C895 C 0.5448 0.01931 0.53738 0.0
C896 C 0.49689 0.02551 0.55157 0.0
C897 C 0.57963 0.03202 0.56616 0.0
C898 C 0.5522 0.02493 0.48969 0.0
C899 C 0.5621 1.00446 0.46642 0.0
C900 C 0.5705 1.00514 0.42187 0.0
C901 C 0.56891 0.02736 0.40053 0.0
C902 C 0.55887 0.04862 0.4237 0.0
C903 C 0.5503 0.04723 0.46891 0.0
loop_
_geom_bond_atom_site_label_1
_geom_bond_atom_site_label_2
_geom_bond_distance
_geom_bond_site_symmetry_2
_ccdc_geom_bond_type
Co0 O2 2.143 . S
Co0 O8 2.074 1_455 S
Co0 O11 2.093 . S
Co0 O24 2.097 . S
Co0 N41 2.151 . S
Co0 N49 2.214 . S
Co1 O2 2.160 1_655 S
Co1 O7 2.058 . S
Co1 O17 2.057 . S
Co1 O32 2.037 . S
Co1 N36 2.145 . S
Co1 N57 2.257 1_655 S
O2 Co0 2.143 . S
O2 Co1 2.160 1_455 S
C3 O4 1.278 . S
C3 O11 1.224 . S
O4 C3 1.278 . S
C5 O6 1.245 1_655 S
C5 O17 1.232 . S
O6 C5 1.245 1_455 S
O7 Co1 2.058 . S
O7 C33 1.269 . S
O8 Co0 2.074 1_655 S
O8 C33 1.257 . S
H9 C34 0.930 . S
H10 C40 0.930 . S
O11 Co0 2.093 . S
O11 C3 1.224 . S
H12 C44 0.929 . S
H13 C46 0.930 . S
H14 C47 0.930 . S
H15 C45 0.929 . S
H16 C48 0.928 . S
O17 Co1 2.057 . S
O17 C5 1.232 . S
H18 C37 0.929 . S
H19 C38 0.929 . S
H20 C50 0.931 . S
H21 C42 0.929 . S
H22 C51 0.930 . S
H23 C43 0.931 . S
O24 Co0 2.097 . S
O24 C52 1.214 1_455 S
H25 C53 0.929 . S
H26 C54 0.929 . S
H27 C55 0.930 . S
H28 C56 0.929 . S
H29 C58 0.930 . S
H30 C35 0.930 . S
H31 C39 0.930 . S
O32 Co1 2.037 . S
O32 C52 1.234 . S
C33 O7 1.269 . S
C33 O8 1.257 . S
C34 H9 0.930 . S
C34 C37 1.388 . S
C34 C39 1.418 1_554 S
C35 H30 0.930 . S
C35 C38 1.404 1_556 S
C35 C39 1.353 . S
N36 Co1 2.145 . S
N36 C37 1.397 . S
N36 C38 1.334 . S
C37 H18 0.929 . S
C37 C34 1.388 . S
C37 N36 1.397 . S
C38 H19 0.929 . S
C38 C35 1.404 1_554 S
C38 N36 1.334 . S
C39 H31 0.930 . S
C39 C34 1.418 1_556 S
C39 C35 1.353 . S
C40 H10 0.930 . S
C40 N41 1.330 . S
C40 C42 1.446 . S
N41 Co0 2.151 . S
N41 C40 1.330 . S
N41 C45 1.418 1_455 S
C42 H21 0.929 . S
C42 C40 1.446 . S
C42 C43 1.332 . S
C43 H23 0.931 . S
C43 C42 1.332 . S
C43 C44 1.267 1_455 S
C44 H12 0.929 . S
C44 C43 1.267 1_655 S
C44 C45 1.251 . S
C45 H15 0.929 . S
C45 N41 1.418 1_655 S
C45 C44 1.251 . S
C46 H13 0.930 . S
C46 C48 1.406 . S
C46 C51 1.261 1_455 S
C47 H14 0.930 . S
C47 N49 1.325 1_655 S
C47 C50 1.357 . S
C48 H16 0.928 . S
C48 C46 1.406 . S
C48 N49 1.261 . S
N49 Co0 2.214 . S
N49 C47 1.325 1_455 S
N49 C48 1.261 . S
C50 H20 0.931 . S
C50 C47 1.357 . S
C50 C51 1.312 . S
C51 H22 0.930 . S
C51 C46 1.261 1_655 S
C51 C50 1.312 . S
C52 O24 1.214 1_655 S
C52 O32 1.234 . S
C53 H25 0.929 . S
C53 C56 1.391 . S
C53 C58 1.391 . S
C54 H26 0.929 . S
C54 C55 1.390 . S
C54 N57 1.391 . S
C55 H27 0.930 . S
C55 C54 1.390 . S
C55 C56 1.392 . S
C56 H28 0.929 . S
C56 C53 1.391 . S
C56 C55 1.392 . S
N57 Co1 2.257 1_455 S
N57 C54 1.391 . S
N57 C58 1.388 . S
C58 H29 0.930 . S
C58 C53 1.391 . S
C58 N57 1.388 . S
Co59 O61 2.143 . S
Co59 O67 2.074 1_655 S
Co59 O70 2.093 . S
Co59 O83 2.097 . S
Co59 N100 2.151 . S
Co59 N108 2.214 1_655 S
Co60 O61 2.160 1_455 S
Co60 O66 2.058 . S
Co60 O76 2.057 . S
Co60 O91 2.037 . S
Co60 N95 2.145 . S
Co60 N116 2.257 1_455 S
O61 Co59 2.143 . S
O61 Co60 2.160 1_655 S
C62 O63 1.278 . S
C62 O70 1.224 . S
O63 C62 1.278 . S
C64 O65 1.245 . S
C64 O76 1.232 . S
O65 C64 1.245 . S
O66 Co60 2.058 . S
O66 C92 1.269 . S
O67 Co59 2.074 1_455 S
O67 C92 1.257 . S
H68 C93 0.930 . S
H69 C99 0.930 . S
O70 Co59 2.093 . S
O70 C62 1.224 . S
H71 C103 0.929 . S
H72 C105 0.930 . S
H73 C106 0.930 . S
H74 C104 0.929 . S
H75 C107 0.928 . S
O76 Co60 2.057 . S
O76 C64 1.232 . S
H77 C96 0.929 . S
H78 C97 0.929 . S
H79 C109 0.931 . S
H80 C101 0.929 . S
H81 C110 0.930 . S
H82 C102 0.931 1_455 S
O83 Co59 2.097 . S
O83 C111 1.214 1_655 S
H84 C112 0.929 . S
H85 C113 0.929 . S
H86 C114 0.930 . S
H87 C115 0.929 . S
H88 C117 0.930 . S
H89 C94 0.930 . S
H90 C98 0.930 . S
O91 Co60 2.037 . S
O91 C111 1.234 . S
C92 O66 1.269 . S
C92 O67 1.257 . S
C93 H68 0.930 . S
C93 C96 1.388 . S
C93 C98 1.418 1_554 S
C94 H89 0.930 . S
C94 C97 1.404 1_556 S
C94 C98 1.353 . S
N95 Co60 2.145 . S
N95 C96 1.397 . S
N95 C97 1.334 . S
C96 H77 0.929 . S
C96 C93 1.388 . S
C96 N95 1.397 . S
C97 H78 0.929 . S
C97 C94 1.404 1_554 S
C97 N95 1.334 . S
C98 H90 0.930 . S
C98 C93 1.418 1_556 S
C98 C94 1.353 . S
C99 H69 0.930 . S
C99 N100 1.330 . S
C99 C101 1.446 . S
N100 Co59 2.151 . S
N100 C99 1.330 . S
N100 C104 1.418 1_655 S
C101 H80 0.929 . S
C101 C99 1.446 . S
C101 C102 1.330 . S
C102 H82 0.931 1_655 S
C102 C101 1.330 . S
C102 C103 1.268 1_655 S
C103 H71 0.929 . S
C103 C102 1.268 1_455 S
C103 C104 1.251 . S
C104 H74 0.929 . S
C104 N100 1.418 1_455 S
C104 C103 1.251 . S
C105 H72 0.930 . S
C105 C107 1.406 . S
C105 C110 1.261 1_655 S
C106 H73 0.930 . S
C106 N108 1.325 . S
C106 C109 1.357 . S
C107 H75 0.928 . S
C107 C105 1.406 . S
C107 N108 1.261 1_655 S
N108 Co59 2.214 1_455 S
N108 C106 1.325 . S
N108 C107 1.261 1_455 S
C109 H79 0.931 . S
C109 C106 1.357 . S
C109 C110 1.312 . S
C110 H81 0.930 . S
C110 C105 1.261 1_455 S
C110 C109 1.312 . S
C111 O83 1.214 1_455 S
C111 O91 1.234 . S
C112 H84 0.929 . S
C112 C115 1.391 . S
C112 C117 1.391 . S
C113 H85 0.929 . S
C113 C114 1.390 . S
C113 N116 1.391 . S
C114 H86 0.930 . S
C114 C113 1.390 . S
C114 C115 1.392 . S
C115 H87 0.929 . S
C115 C112 1.391 . S
C115 C114 1.392 . S
N116 Co60 2.257 1_655 S
N116 C113 1.391 . S
N116 C117 1.388 . S
C117 H88 0.930 . S
C117 C112 1.391 . S
C117 N116 1.388 . S
Co118 O120 2.143 . S
Co118 O126 2.074 1_455 S
Co118 O129 2.093 . S
Co118 O142 2.097 . S
Co118 N159 2.151 . S
Co118 N167 2.214 . S
Co119 O120 2.160 1_655 S
Co119 O125 2.058 . S
Co119 O135 2.057 . S
Co119 O150 2.037 . S
Co119 N154 2.145 . S
Co119 N175 2.257 1_655 S
O120 Co118 2.143 . S
O120 Co119 2.160 1_455 S
C121 O122 1.278 . S
C121 O129 1.224 . S
O122 C121 1.278 . S
C123 O124 1.245 1_655 S
C123 O135 1.232 . S
O124 C123 1.245 1_455 S
O125 Co119 2.058 . S
O125 C151 1.269 . S
O126 Co118 2.074 1_655 S
O126 C151 1.257 . S
H127 C152 0.930 . S
H128 C158 0.930 . S
O129 Co118 2.093 . S
O129 C121 1.224 . S
H130 C162 0.929 . S
H131 C164 0.930 . S
H132 C165 0.930 . S
H133 C163 0.929 . S
H134 C166 0.928 . S
O135 Co119 2.057 . S
O135 C123 1.232 . S
H136 C155 0.929 . S
H137 C156 0.929 . S
H138 C168 0.931 . S
H139 C160 0.929 . S
H140 C169 0.930 . S
H141 C161 0.931 . S
O142 Co118 2.097 . S
O142 C170 1.214 1_455 S
H143 C171 0.929 . S
H144 C172 0.929 . S
H145 C173 0.930 . S
H146 C174 0.929 . S
H147 C176 0.930 . S
H148 C153 0.930 . S
H149 C157 0.930 . S
O150 Co119 2.037 . S
O150 C170 1.234 . S
C151 O125 1.269 . S
C151 O126 1.257 . S
C152 H127 0.930 . S
C152 C155 1.388 . S
C152 C157 1.418 1_556 S
C153 H148 0.930 . S
C153 C156 1.404 1_554 S
C153 C157 1.353 . S
N154 Co119 2.145 . S
N154 C155 1.397 . S
N154 C156 1.334 . S
C155 H136 0.929 . S
C155 C152 1.388 . S
C155 N154 1.397 . S
C156 H137 0.929 . S
C156 C153 1.404 1_556 S
C156 N154 1.334 . S
C157 H149 0.930 . S
C157 C152 1.418 1_554 S
C157 C153 1.353 . S
C158 H128 0.930 . S
C158 N159 1.330 . S
C158 C160 1.446 . S
N159 Co118 2.151 . S
N159 C158 1.330 . S
N159 C163 1.418 1_455 S
C160 H139 0.929 . S
C160 C158 1.446 . S
C160 C161 1.332 . S
C161 H141 0.931 . S
C161 C160 1.332 . S
C161 C162 1.267 1_455 S
C162 H130 0.929 . S
C162 C161 1.267 1_655 S
C162 C163 1.251 . S
C163 H133 0.929 . S
C163 N159 1.418 1_655 S
C163 C162 1.251 . S
C164 H131 0.930 . S
C164 C166 1.406 . S
C164 C169 1.261 1_455 S
C165 H132 0.930 . S
C165 N167 1.325 1_655 S
C165 C168 1.357 . S
C166 H134 0.928 . S
C166 C164 1.406 . S
C166 N167 1.261 . S
N167 Co118 2.214 . S
N167 C165 1.325 1_455 S
N167 C166 1.261 . S
C168 H138 0.931 . S
C168 C165 1.357 . S
C168 C169 1.312 . S
C169 H140 0.930 . S
C169 C164 1.261 1_655 S
C169 C168 1.312 . S
C170 O142 1.214 1_655 S
C170 O150 1.234 . S
C171 H143 0.929 . S
C171 C174 1.391 . S
C171 C176 1.391 . S
C172 H144 0.929 . S
C172 C173 1.390 . S
C172 N175 1.391 . S
C173 H145 0.930 . S
C173 C172 1.390 . S
C173 C174 1.392 . S
C174 H146 0.929 . S
C174 C171 1.391 . S
C174 C173 1.392 . S
N175 Co119 2.257 1_455 S
N175 C172 1.391 . S
N175 C176 1.388 . S
C176 H147 0.930 . S
C176 C171 1.391 . S
C176 N175 1.388 . S
Co177 O179 2.143 . S
Co177 O185 2.074 1_655 S
Co177 O188 2.093 . S
Co177 O201 2.097 . S
Co177 N218 2.151 . S
Co177 N226 2.214 1_655 S
Co178 O179 2.160 1_455 S
Co178 O184 2.058 . S
Co178 O194 2.057 . S
Co178 O209 2.037 . S
Co178 N213 2.145 . S
Co178 N234 2.257 1_455 S
O179 Co177 2.143 . S
O179 Co178 2.160 1_655 S
C180 O181 1.278 . S
C180 O188 1.224 . S
O181 C180 1.278 . S
C182 O183 1.245 . S
C182 O194 1.232 . S
O183 C182 1.245 . S
O184 Co178 2.058 . S
O184 C210 1.269 . S
O185 Co177 2.074 1_455 S
O185 C210 1.257 . S
H186 C211 0.930 . S
H187 C217 0.930 . S
O188 Co177 2.093 . S
O188 C180 1.224 . S
H189 C221 0.929 . S
H190 C223 0.930 . S
H191 C224 0.930 . S
H192 C222 0.929 . S
H193 C225 0.928 . S
O194 Co178 2.057 . S
O194 C182 1.232 . S
H195 C214 0.929 . S
H196 C215 0.929 . S
H197 C227 0.931 . S
H198 C219 0.929 . S
H199 C228 0.930 . S
H200 C220 0.931 1_455 S
O201 Co177 2.097 . S
O201 C229 1.214 1_655 S
H202 C230 0.929 . S
H203 C231 0.929 . S
H204 C232 0.930 . S
H205 C233 0.929 . S
H206 C235 0.930 . S
H207 C212 0.930 . S
H208 C216 0.930 . S
O209 Co178 2.037 . S
O209 C229 1.234 . S
C210 O184 1.269 . S
C210 O185 1.257 . S
C211 H186 0.930 . S
C211 C214 1.388 . S
C211 C216 1.418 1_556 S
C212 H207 0.930 . S
C212 C215 1.404 1_554 S
C212 C216 1.353 . S
N213 Co178 2.145 . S
N213 C214 1.397 . S
N213 C215 1.334 . S
C214 H195 0.929 . S
C214 C211 1.388 . S
C214 N213 1.397 . S
C215 H196 0.929 . S
C215 C212 1.404 1_556 S
C215 N213 1.334 . S
C216 H208 0.930 . S
C216 C211 1.418 1_554 S
C216 C212 1.353 . S
C217 H187 0.930 . S
C217 N218 1.330 . S
C217 C219 1.446 . S
N218 Co177 2.151 . S
N218 C217 1.330 . S
N218 C222 1.418 1_655 S
C219 H198 0.929 . S
C219 C217 1.446 . S
C219 C220 1.330 . S
C220 H200 0.931 1_655 S
C220 C219 1.330 . S
C220 C221 1.268 1_655 S
C221 H189 0.929 . S
C221 C220 1.268 1_455 S
C221 C222 1.251 . S
C222 H192 0.929 . S
C222 N218 1.418 1_455 S
C222 C221 1.251 . S
C223 H190 0.930 . S
C223 C225 1.406 . S
C223 C228 1.261 1_655 S
C224 H191 0.930 . S
C224 N226 1.325 . S
C224 C227 1.357 . S
C225 H193 0.928 . S
C225 C223 1.406 . S
C225 N226 1.261 1_655 S
N226 Co177 2.214 1_455 S
N226 C224 1.325 . S
N226 C225 1.261 1_455 S
C227 H197 0.931 . S
C227 C224 1.357 . S
C227 C228 1.312 . S
C228 H199 0.930 . S
C228 C223 1.261 1_455 S
C228 C227 1.312 . S
C229 O201 1.214 1_455 S
C229 O209 1.234 . S
C230 H202 0.929 . S
C230 C233 1.391 . S
C230 C235 1.391 . S
C231 H203 0.929 . S
C231 C232 1.390 . S
C231 N234 1.391 . S
C232 H204 0.930 . S
C232 C231 1.390 . S
C232 C233 1.392 . S
C233 H205 0.929 . S
C233 C230 1.391 . S
C233 C232 1.392 . S
N234 Co178 2.257 1_655 S
N234 C231 1.391 . S
N234 C235 1.388 . S
C235 H206 0.930 . S
C235 C230 1.391 . S
C235 N234 1.388 . S
Co236 O238 2.143 . S
Co236 O244 2.074 . S
Co236 O247 2.093 . S
Co236 O260 2.097 . S
Co236 N277 2.151 . S
Co236 N285 2.214 . S
Co237 O238 2.160 . S
Co237 O243 2.058 . S
Co237 O253 2.057 . S
Co237 O268 2.037 . S
Co237 N272 2.145 . S
Co237 N293 2.257 . S
O238 Co236 2.143 . S
O238 Co237 2.160 . S
C239 O240 1.278 . S
C239 O247 1.224 . S
O240 C239 1.278 . S
C241 O242 1.245 . S
C241 O253 1.232 . S
O242 C241 1.245 . S
O243 Co237 2.058 . S
O243 C269 1.269 . S
O244 Co236 2.074 . S
O244 C269 1.257 . S
H245 C270 0.930 . S
H246 C276 0.930 . S
O247 Co236 2.093 . S
O247 C239 1.224 . S
H248 C280 0.929 . S
H249 C282 0.930 . S
H250 C283 0.930 . S
H251 C281 0.929 . S
H252 C284 0.928 . S
O253 Co237 2.057 . S
O253 C241 1.232 . S
H254 C273 0.929 . S
H255 C274 0.929 . S
H256 C286 0.931 . S
H257 C278 0.929 . S
H258 C287 0.930 . S
H259 C279 0.931 . S
O260 Co236 2.097 . S
O260 C288 1.214 . S
H261 C289 0.929 . S
H262 C290 0.929 . S
H263 C291 0.930 . S
H264 C292 0.929 . S
H265 C294 0.930 . S
H266 C271 0.930 . S
H267 C275 0.930 . S
O268 Co237 2.037 . S
O268 C288 1.234 . S
C269 O243 1.269 . S
C269 O244 1.257 . S
C270 H245 0.930 . S
C270 C273 1.388 . S
C270 C275 1.418 . S
C271 H266 0.930 . S
C271 C274 1.404 . S
C271 C275 1.353 . S
N272 Co237 2.145 . S
N272 C273 1.397 . S
N272 C274 1.334 . S
C273 H254 0.929 . S
C273 C270 1.388 . S
C273 N272 1.397 . S
C274 H255 0.929 . S
C274 C271 1.404 . S
C274 N272 1.334 . S
C275 H267 0.930 . S
C275 C270 1.418 . S
C275 C271 1.353 . S
C276 H246 0.930 . S
C276 N277 1.330 . S
C276 C278 1.446 . S
N277 Co236 2.151 . S
N277 C276 1.330 . S
N277 C281 1.418 . S
C278 H257 0.929 . S
C278 C276 1.446 . S
C278 C279 1.332 . S
C279 H259 0.931 . S
C279 C278 1.332 . S
C279 C280 1.267 . S
C280 H248 0.929 . S
C280 C279 1.267 . S
C280 C281 1.251 . S
C281 H251 0.929 . S
C281 N277 1.418 . S
C281 C280 1.251 . S
C282 H249 0.930 . S
C282 C284 1.406 . S
C282 C287 1.261 . S
C283 H250 0.930 . S
C283 N285 1.325 . S
C283 C286 1.357 . S
C284 H252 0.928 . S
C284 C282 1.406 . S
C284 N285 1.261 . S
N285 Co236 2.214 . S
N285 C283 1.325 . S
N285 C284 1.261 . S
C286 H256 0.931 . S
C286 C283 1.357 . S
C286 C287 1.312 . S
C287 H258 0.930 . S
C287 C282 1.261 . S
C287 C286 1.312 . S
C288 O260 1.214 . S
C288 O268 1.234 . S
C289 H261 0.929 . S
C289 C292 1.391 . S
C289 C294 1.391 . S
C290 H262 0.929 . S
C290 C291 1.390 . S
C290 N293 1.391 . S
C291 H263 0.930 . S
C291 C290 1.390 . S
C291 C292 1.392 . S
C292 H264 0.929 . S
C292 C289 1.391 . S
C292 C291 1.392 . S
N293 Co237 2.257 . S
N293 C290 1.391 . S
N293 C294 1.388 . S
C294 H265 0.930 . S
C294 C289 1.391 . S
C294 N293 1.388 . S
Co295 O297 2.143 . S
Co295 O303 2.074 . S
Co295 O306 2.093 . S
Co295 O319 2.097 . S
Co295 N336 2.151 . S
Co295 N344 2.214 . S
Co296 O297 2.160 . S
Co296 O302 2.058 . S
Co296 O312 2.057 . S
Co296 O327 2.037 . S
Co296 N331 2.145 . S
Co296 N352 2.257 . S
O297 Co295 2.143 . S
O297 Co296 2.160 . S
C298 O299 1.278 . S
C298 O306 1.224 . S
O299 C298 1.278 . S
C300 O301 1.245 . S
C300 O312 1.232 . S
O301 C300 1.245 . S
O302 Co296 2.058 . S
O302 C328 1.269 . S
O303 Co295 2.074 . S
O303 C328 1.257 . S
H304 C329 0.930 . S
H305 C335 0.930 . S
O306 Co295 2.093 . S
O306 C298 1.224 . S
H307 C339 0.929 . S
H308 C341 0.930 . S
H309 C342 0.930 . S
H310 C340 0.929 . S
H311 C343 0.928 . S
O312 Co296 2.057 . S
O312 C300 1.232 . S
H313 C332 0.929 . S
H314 C333 0.929 . S
H315 C345 0.931 . S
H316 C337 0.929 . S
H317 C346 0.930 . S
H318 C338 0.931 . S
O319 Co295 2.097 . S
O319 C347 1.214 . S
H320 C348 0.929 . S
H321 C349 0.929 . S
H322 C350 0.930 . S
H323 C351 0.929 . S
H324 C353 0.930 . S
H325 C330 0.930 . S
H326 C334 0.930 . S
O327 Co296 2.037 . S
O327 C347 1.234 . S
C328 O302 1.269 . S
C328 O303 1.257 . S
C329 H304 0.930 . S
C329 C332 1.388 . S
C329 C334 1.418 . S
C330 H325 0.930 . S
C330 C333 1.404 . S
C330 C334 1.353 . S
N331 Co296 2.145 . S
N331 C332 1.397 . S
N331 C333 1.334 . S
C332 H313 0.929 . S
C332 C329 1.388 . S
C332 N331 1.397 . S
C333 H314 0.929 . S
C333 C330 1.404 . S
C333 N331 1.334 . S
C334 H326 0.930 . S
C334 C329 1.418 . S
C334 C330 1.353 . S
C335 H305 0.930 . S
C335 N336 1.330 . S
C335 C337 1.446 . S
N336 Co295 2.151 . S
N336 C335 1.330 . S
N336 C340 1.418 . S
C337 H316 0.929 . S
C337 C335 1.446 . S
C337 C338 1.332 . S
C338 H318 0.931 . S
C338 C337 1.332 . S
C338 C339 1.267 . S
C339 H307 0.929 . S
C339 C338 1.267 . S
C339 C340 1.251 . S
C340 H310 0.929 . S
C340 N336 1.418 . S
C340 C339 1.251 . S
C341 H308 0.930 . S
C341 C343 1.406 . S
C341 C346 1.261 . S
C342 H309 0.930 . S
C342 N344 1.325 . S
C342 C345 1.357 . S
C343 H311 0.928 . S
C343 C341 1.406 . S
C343 N344 1.261 . S
N344 Co295 2.214 . S
N344 C342 1.325 . S
N344 C343 1.261 . S
C345 H315 0.931 . S
C345 C342 1.357 . S
C345 C346 1.312 . S
C346 H317 0.930 . S
C346 C341 1.261 . S
C346 C345 1.312 . S
C347 O319 1.214 . S
C347 O327 1.234 . S
C348 H320 0.929 . S
C348 C351 1.391 . S
C348 C353 1.391 . S
C349 H321 0.929 . S
C349 C350 1.390 . S
C349 N352 1.391 . S
C350 H322 0.930 . S
C350 C349 1.390 . S
C350 C351 1.392 . S
C351 H323 0.929 . S
C351 C348 1.391 . S
C351 C350 1.392 . S
N352 Co296 2.257 . S
N352 C349 1.391 . S
N352 C353 1.388 . S
C353 H324 0.930 . S
C353 C348 1.391 . S
C353 N352 1.388 . S
Co354 O356 2.143 . S
Co354 O362 2.074 . S
Co354 O365 2.093 . S
Co354 O378 2.097 . S
Co354 N395 2.151 . S
Co354 N403 2.214 . S
Co355 O356 2.160 . S
Co355 O361 2.058 . S
Co355 O371 2.057 . S
Co355 O386 2.037 . S
Co355 N390 2.145 . S
Co355 N411 2.257 . S
O356 Co354 2.143 . S
O356 Co355 2.160 . S
C357 O358 1.278 . S
C357 O365 1.224 . S
O358 C357 1.278 . S
C359 O360 1.245 . S
C359 O371 1.232 . S
O360 C359 1.245 . S
O361 Co355 2.058 . S
O361 C387 1.269 . S
O362 Co354 2.074 . S
O362 C387 1.257 . S
H363 C388 0.930 . S
H364 C394 0.930 . S
O365 Co354 2.093 . S
O365 C357 1.224 . S
H366 C398 0.929 . S
H367 C400 0.930 . S
H368 C401 0.930 . S
H369 C399 0.929 . S
H370 C402 0.928 . S
O371 Co355 2.057 . S
O371 C359 1.232 . S
H372 C391 0.929 . S
H373 C392 0.929 . S
H374 C404 0.931 . S
H375 C396 0.929 . S
H376 C405 0.930 . S
H377 C397 0.931 . S
O378 Co354 2.097 . S
O378 C406 1.214 . S
H379 C407 0.929 . S
H380 C408 0.929 . S
H381 C409 0.930 . S
H382 C410 0.929 . S
H383 C412 0.930 . S
H384 C389 0.930 . S
H385 C393 0.930 . S
O386 Co355 2.037 . S
O386 C406 1.234 . S
C387 O361 1.269 . S
C387 O362 1.257 . S
C388 H363 0.930 . S
C388 C391 1.388 . S
C388 C393 1.418 . S
C389 H384 0.930 . S
C389 C392 1.404 . S
C389 C393 1.353 . S
N390 Co355 2.145 . S
N390 C391 1.397 . S
N390 C392 1.334 . S
C391 H372 0.929 . S
C391 C388 1.388 . S
C391 N390 1.397 . S
C392 H373 0.929 . S
C392 C389 1.404 . S
C392 N390 1.334 . S
C393 H385 0.930 . S
C393 C388 1.418 . S
C393 C389 1.353 . S
C394 H364 0.930 . S
C394 N395 1.330 . S
C394 C396 1.446 . S
N395 Co354 2.151 . S
N395 C394 1.330 . S
N395 C399 1.418 . S
C396 H375 0.929 . S
C396 C394 1.446 . S
C396 C397 1.332 . S
C397 H377 0.931 . S
C397 C396 1.332 . S
C397 C398 1.267 . S
C398 H366 0.929 . S
C398 C397 1.267 . S
C398 C399 1.251 . S
C399 H369 0.929 . S
C399 N395 1.418 . S
C399 C398 1.251 . S
C400 H367 0.930 . S
C400 C402 1.406 . S
C400 C405 1.261 . S
C401 H368 0.930 . S
C401 N403 1.325 . S
C401 C404 1.357 . S
C402 H370 0.928 . S
C402 C400 1.406 . S
C402 N403 1.261 . S
N403 Co354 2.214 . S
N403 C401 1.325 . S
N403 C402 1.261 . S
C404 H374 0.931 . S
C404 C401 1.357 . S
C404 C405 1.312 . S
C405 H376 0.930 . S
C405 C400 1.261 . S
C405 C404 1.312 . S
C406 O378 1.214 . S
C406 O386 1.234 . S
C407 H379 0.929 . S
C407 C410 1.391 . S
C407 C412 1.391 . S
C408 H380 0.929 . S
C408 C409 1.390 . S
C408 N411 1.391 . S
C409 H381 0.930 . S
C409 C408 1.390 . S
C409 C410 1.392 . S
C410 H382 0.929 . S
C410 C407 1.391 . S
C410 C409 1.392 . S
N411 Co355 2.257 . S
N411 C408 1.391 . S
N411 C412 1.388 . S
C412 H383 0.930 . S
C412 C407 1.391 . S
C412 N411 1.388 . S
Co413 O415 2.143 . S
Co413 O421 2.074 . S
Co413 O424 2.093 . S
Co413 O437 2.097 . S
Co413 N454 2.151 . S
Co413 N462 2.214 . S
Co414 O415 2.160 . S
Co414 O420 2.058 . S
Co414 O430 2.057 . S
Co414 O445 2.037 . S
Co414 N449 2.145 . S
Co414 N470 2.257 . S
O415 Co413 2.143 . S
O415 Co414 2.160 . S
C416 O417 1.278 . S
C416 O424 1.224 . S
O417 C416 1.278 . S
C418 O419 1.245 . S
C418 O430 1.232 . S
O419 C418 1.245 . S
O420 Co414 2.058 . S
O420 C446 1.269 . S
O421 Co413 2.074 . S
O421 C446 1.257 . S
H422 C447 0.930 . S
H423 C453 0.930 . S
O424 Co413 2.093 . S
O424 C416 1.224 . S
H425 C457 0.929 . S
H426 C459 0.930 . S
H427 C460 0.930 . S
H428 C458 0.929 . S
H429 C461 0.928 . S
O430 Co414 2.057 . S
O430 C418 1.232 . S
H431 C450 0.929 . S
H432 C451 0.929 . S
H433 C463 0.931 . S
H434 C455 0.929 . S
H435 C464 0.930 . S
H436 C456 0.931 . S
O437 Co413 2.097 . S
O437 C465 1.214 . S
H438 C466 0.929 . S
H439 C467 0.929 . S
H440 C468 0.930 . S
H441 C469 0.929 . S
H442 C471 0.930 . S
H443 C448 0.930 . S
H444 C452 0.930 . S
O445 Co414 2.037 . S
O445 C465 1.234 . S
C446 O420 1.269 . S
C446 O421 1.257 . S
C447 H422 0.930 . S
C447 C450 1.388 . S
C447 C452 1.418 . S
C448 H443 0.930 . S
C448 C451 1.404 . S
C448 C452 1.353 . S
N449 Co414 2.145 . S
N449 C450 1.397 . S
N449 C451 1.334 . S
C450 H431 0.929 . S
C450 C447 1.388 . S
C450 N449 1.397 . S
C451 H432 0.929 . S
C451 C448 1.404 . S
C451 N449 1.334 . S
C452 H444 0.930 . S
C452 C447 1.418 . S
C452 C448 1.353 . S
C453 H423 0.930 . S
C453 N454 1.330 . S
C453 C455 1.446 . S
N454 Co413 2.151 . S
N454 C453 1.330 . S
N454 C458 1.418 . S
C455 H434 0.929 . S
C455 C453 1.446 . S
C455 C456 1.332 . S
C456 H436 0.931 . S
C456 C455 1.332 . S
C456 C457 1.267 . S
C457 H425 0.929 . S
C457 C456 1.267 . S
C457 C458 1.251 . S
C458 H428 0.929 . S
C458 N454 1.418 . S
C458 C457 1.251 . S
C459 H426 0.930 . S
C459 C461 1.406 . S
C459 C464 1.261 . S
C460 H427 0.930 . S
C460 N462 1.325 . S
C460 C463 1.357 . S
C461 H429 0.928 . S
C461 C459 1.406 . S
C461 N462 1.261 . S
N462 Co413 2.214 . S
N462 C460 1.325 . S
N462 C461 1.261 . S
C463 H433 0.931 . S
C463 C460 1.357 . S
C463 C464 1.312 . S
C464 H435 0.930 . S
C464 C459 1.261 . S
C464 C463 1.312 . S
C465 O437 1.214 . S
C465 O445 1.234 . S
C466 H438 0.929 . S
C466 C469 1.391 . S
C466 C471 1.391 . S
C467 H439 0.929 . S
C467 C468 1.390 . S
C467 N470 1.391 . S
C468 H440 0.930 . S
C468 C467 1.390 . S
C468 C469 1.392 . S
C469 H441 0.929 . S
C469 C466 1.391 . S
C469 C468 1.392 . S
N470 Co414 2.257 . S
N470 C467 1.391 . S
N470 C471 1.388 . S
C471 H442 0.930 . S
C471 C466 1.391 . S
C471 N470 1.388 . S
H472 C484 0.930 . S
H473 C486 0.930 . S
H474 C487 0.930 . S
H475 C491 0.959 . S
H476 C491 0.959 . S
H477 C491 0.961 . S
H478 C492 0.960 . S
H479 C492 0.961 . S
H480 C492 0.959 . S
H481 C495 0.929 . S
H482 C496 0.931 . S
H483 C498 0.930 . S
C484 H472 0.930 . S
C484 C485 1.399 . S
C484 C489 1.399 . S
C485 C484 1.399 . S
C485 C486 1.376 . S
C486 H473 0.930 . S
C486 C485 1.376 . S
C486 C487 1.388 . S
C487 H474 0.930 . S
C487 C486 1.388 . S
C487 C488 1.390 . S
C488 C487 1.390 . S
C488 C489 1.394 . S
C488 C494 1.465 . S
C489 C484 1.399 . S
C489 C488 1.394 . S
C489 C490 1.516 . S
C490 C489 1.516 . S
C490 C491 1.502 1_455 S
C490 C492 1.561 . S
C490 C493 1.526 . S
C491 H475 0.959 . S
C491 H476 0.959 . S
C491 H477 0.961 . S
C491 C490 1.502 1_655 S
C492 H478 0.960 . S
C492 H479 0.961 . S
C492 H480 0.959 . S
C492 C490 1.561 . S
C493 C490 1.526 . S
C493 C494 1.396 . S
C493 C498 1.390 1_455 S
C494 C488 1.465 . S
C494 C493 1.396 . S
C494 C495 1.399 . S
C495 H481 0.929 . S
C495 C494 1.399 . S
C495 C496 1.385 1_455 S
C496 H482 0.931 . S
C496 C495 1.385 1_655 S
C496 C497 1.389 . S
C497 C496 1.389 . S
C497 C498 1.387 . S
C498 H483 0.930 . S
C498 C493 1.390 1_655 S
C498 C497 1.387 . S
H499 C511 0.930 . S
H500 C513 0.930 . S
H501 C514 0.930 . S
H502 C518 0.959 . S
H503 C518 0.959 . S
H504 C518 0.961 . S
H505 C519 0.960 . S
H506 C519 0.961 . S
H507 C519 0.959 . S
H508 C522 0.929 . S
H509 C523 0.931 . S
H510 C525 0.930 . S
C511 H499 0.930 . S
C511 C512 1.399 . S
C511 C516 1.399 . S
C512 C511 1.399 . S
C512 C513 1.376 1_655 S
C513 H500 0.930 . S
C513 C512 1.376 1_455 S
C513 C514 1.388 . S
C514 H501 0.930 . S
C514 C513 1.388 . S
C514 C515 1.390 . S
C515 C514 1.390 . S
C515 C516 1.394 1_455 S
C515 C521 1.465 . S
C516 C511 1.399 . S
C516 C515 1.394 1_655 S
C516 C517 1.516 . S
C517 C516 1.516 . S
C517 C518 1.502 . S
C517 C519 1.561 1_655 S
C517 C520 1.526 1_655 S
C518 H502 0.959 . S
C518 H503 0.959 . S
C518 H504 0.961 . S
C518 C517 1.502 . S
C519 H505 0.960 . S
C519 H506 0.961 . S
C519 H507 0.959 . S
C519 C517 1.561 1_455 S
C520 C517 1.526 1_455 S
C520 C521 1.396 . S
C520 C525 1.390 1_455 S
C521 C515 1.465 . S
C521 C520 1.396 . S
C521 C522 1.399 . S
C522 H508 0.929 . S
C522 C521 1.399 . S
C522 C523 1.385 . S
C523 H509 0.931 . S
C523 C522 1.385 . S
C523 C524 1.389 . S
C524 C523 1.389 . S
C524 C525 1.387 1_455 S
C525 H510 0.930 . S
C525 C520 1.390 1_655 S
C525 C524 1.387 1_655 S
H526 C538 0.930 . S
H527 C540 0.930 . S
H528 C541 0.930 . S
H529 C545 0.959 . S
H530 C545 0.959 . S
H531 C545 0.961 . S
H532 C546 0.960 . S
H533 C546 0.961 . S
H534 C546 0.959 . S
H535 C549 0.929 . S
H536 C550 0.931 . S
H537 C552 0.930 . S
C538 H526 0.930 . S
C538 C539 1.399 . S
C538 C543 1.399 . S
C539 C538 1.399 . S
C539 C540 1.376 . S
C540 H527 0.930 . S
C540 C539 1.376 . S
C540 C541 1.388 . S
C541 H528 0.930 . S
C541 C540 1.388 . S
C541 C542 1.390 . S
C542 C541 1.390 . S
C542 C543 1.394 . S
C542 C548 1.465 . S
C543 C538 1.399 . S
C543 C542 1.394 . S
C543 C544 1.516 . S
C544 C543 1.516 . S
C544 C545 1.502 . S
C544 C546 1.561 . S
C544 C547 1.526 . S
C545 H529 0.959 . S
C545 H530 0.959 . S
C545 H531 0.961 . S
C545 C544 1.502 . S
C546 H532 0.960 . S
C546 H533 0.961 . S
C546 H534 0.959 . S
C546 C544 1.561 . S
C547 C544 1.526 . S
C547 C548 1.396 . S
C547 C552 1.390 . S
C548 C542 1.465 . S
C548 C547 1.396 . S
C548 C549 1.399 . S
C549 H535 0.929 . S
C549 C548 1.399 . S
C549 C550 1.385 . S
C550 H536 0.931 . S
C550 C549 1.385 . S
C550 C551 1.389 . S
C551 C550 1.389 . S
C551 C552 1.387 . S
C552 H537 0.930 . S
C552 C547 1.390 . S
C552 C551 1.387 . S
H553 C565 0.930 . S
H554 C567 0.930 . S
H555 C568 0.930 . S
H556 C572 0.959 . S
H557 C572 0.959 . S
H558 C572 0.961 . S
H559 C573 0.960 . S
H560 C573 0.961 . S
H561 C573 0.959 . S
H562 C576 0.929 . S
H563 C577 0.931 . S
H564 C579 0.930 . S
C565 H553 0.930 . S
C565 C566 1.399 . S
C565 C570 1.399 . S
C566 C565 1.399 . S
C566 C567 1.376 . S
C567 H554 0.930 . S
C567 C566 1.376 . S
C567 C568 1.388 . S
C568 H555 0.930 . S
C568 C567 1.388 . S
C568 C569 1.390 . S
C569 C568 1.390 . S
C569 C570 1.394 . S
C569 C575 1.465 . S
C570 C565 1.399 . S
C570 C569 1.394 . S
C570 C571 1.516 . S
C571 C570 1.516 . S
C571 C572 1.502 . S
C571 C573 1.561 . S
C571 C574 1.526 . S
C572 H556 0.959 . S
C572 H557 0.959 . S
C572 H558 0.961 . S
C572 C571 1.502 . S
C573 H559 0.960 . S
C573 H560 0.961 . S
C573 H561 0.959 . S
C573 C571 1.561 . S
C574 C571 1.526 . S
C574 C575 1.396 . S
C574 C579 1.390 . S
C575 C569 1.465 . S
C575 C574 1.396 . S
C575 C576 1.399 . S
C576 H562 0.929 . S
C576 C575 1.399 . S
C576 C577 1.385 . S
C577 H563 0.931 . S
C577 C576 1.385 . S
C577 C578 1.389 . S
C578 C577 1.389 . S
C578 C579 1.387 . S
C579 H564 0.930 . S
C579 C574 1.390 . S
C579 C578 1.387 . S
H580 C592 0.930 . S
H581 C594 0.930 . S
H582 C595 0.930 . S
H583 C599 0.959 . S
H584 C599 0.959 . S
H585 C599 0.961 . S
H586 C600 0.960 . S
H587 C600 0.961 . S
H588 C600 0.959 . S
H589 C603 0.929 . S
H590 C604 0.931 . S
H591 C606 0.930 . S
C592 H580 0.930 . S
C592 C593 1.399 . S
C592 C597 1.399 . S
C593 C592 1.399 . S
C593 C594 1.376 . S
C594 H581 0.930 . S
C594 C593 1.376 . S
C594 C595 1.388 . S
C595 H582 0.930 . S
C595 C594 1.388 . S
C595 C596 1.390 . S
C596 C595 1.390 . S
C596 C597 1.394 . S
C596 C602 1.465 . S
C597 C592 1.399 . S
C597 C596 1.394 . S
C597 C598 1.516 . S
C598 C597 1.516 . S
C598 C599 1.502 . S
C598 C600 1.561 . S
C598 C601 1.526 . S
C599 H583 0.959 . S
C599 H584 0.959 . S
C599 H585 0.961 . S
C599 C598 1.502 . S
C600 H586 0.960 . S
C600 H587 0.961 . S
C600 H588 0.959 . S
C600 C598 1.561 . S
C601 C598 1.526 . S
C601 C602 1.396 . S
C601 C606 1.390 . S
C602 C596 1.465 . S
C602 C601 1.396 . S
C602 C603 1.399 . S
C603 H589 0.929 . S
C603 C602 1.399 . S
C603 C604 1.385 . S
C604 H590 0.931 . S
C604 C603 1.385 . S
C604 C605 1.389 . S
C605 C604 1.389 . S
C605 C606 1.387 . S
C606 H591 0.930 . S
C606 C601 1.390 . S
C606 C605 1.387 . S
H607 C619 0.930 . S
H608 C621 0.930 . S
H609 C622 0.930 . S
H610 C626 0.959 . S
H611 C626 0.959 . S
H612 C626 0.961 . S
H613 C627 0.960 . S
H614 C627 0.961 . S
H615 C627 0.959 . S
H616 C630 0.929 . S
H617 C631 0.931 . S
H618 C633 0.930 . S
C619 H607 0.930 . S
C619 C620 1.399 . S
C619 C624 1.399 . S
C620 C619 1.399 . S
C620 C621 1.376 . S
C621 H608 0.930 . S
C621 C620 1.376 . S
C621 C622 1.388 . S
C622 H609 0.930 . S
C622 C621 1.388 . S
C622 C623 1.390 . S
C623 C622 1.390 . S
C623 C624 1.394 . S
C623 C629 1.465 . S
C624 C619 1.399 . S
C624 C623 1.394 . S
C624 C625 1.516 . S
C625 C624 1.516 . S
C625 C626 1.502 . S
C625 C627 1.561 . S
C625 C628 1.526 . S
C626 H610 0.959 . S
C626 H611 0.959 . S
C626 H612 0.961 . S
C626 C625 1.502 . S
C627 H613 0.960 . S
C627 H614 0.961 . S
C627 H615 0.959 . S
C627 C625 1.561 . S
C628 C625 1.526 . S
C628 C629 1.396 . S
C628 C633 1.390 . S
C629 C623 1.465 . S
C629 C628 1.396 . S
C629 C630 1.399 . S
C630 H616 0.929 . S
C630 C629 1.399 . S
C630 C631 1.385 . S
C631 H617 0.931 . S
C631 C630 1.385 . S
C631 C632 1.389 . S
C632 C631 1.389 . S
C632 C633 1.387 . S
C633 H618 0.930 . S
C633 C628 1.390 . S
C633 C632 1.387 . S
H634 C646 0.930 . S
H635 C648 0.930 . S
H636 C649 0.930 . S
H637 C653 0.959 . S
H638 C653 0.959 . S
H639 C653 0.961 . S
H640 C654 0.960 . S
H641 C654 0.961 . S
H642 C654 0.959 . S
H643 C657 0.929 . S
H644 C658 0.931 . S
H645 C660 0.930 . S
C646 H634 0.930 . S
C646 C647 1.399 . S
C646 C651 1.399 . S
C647 C646 1.399 . S
C647 C648 1.376 . S
C648 H635 0.930 . S
C648 C647 1.376 . S
C648 C649 1.388 . S
C649 H636 0.930 . S
C649 C648 1.388 . S
C649 C650 1.390 . S
C650 C649 1.390 . S
C650 C651 1.394 . S
C650 C656 1.465 . S
C651 C646 1.399 . S
C651 C650 1.394 . S
C651 C652 1.516 . S
C652 C651 1.516 . S
C652 C653 1.502 . S
C652 C654 1.561 . S
C652 C655 1.526 . S
C653 H637 0.959 . S
C653 H638 0.959 . S
C653 H639 0.961 . S
C653 C652 1.502 . S
C654 H640 0.960 . S
C654 H641 0.961 . S
C654 H642 0.959 . S
C654 C652 1.561 . S
C655 C652 1.526 . S
C655 C656 1.396 . S
C655 C660 1.390 . S
C656 C650 1.465 . S
C656 C655 1.396 . S
C656 C657 1.399 . S
C657 H643 0.929 . S
C657 C656 1.399 . S
C657 C658 1.385 . S
C658 H644 0.931 . S
C658 C657 1.385 . S
C658 C659 1.389 . S
C659 C658 1.389 . S
C659 C660 1.387 . S
C660 H645 0.930 . S
C660 C655 1.390 . S
C660 C659 1.387 . S
H661 C673 0.930 . S
H662 C675 0.930 . S
H663 C676 0.930 . S
H664 C680 0.959 . S
H665 C680 0.959 . S
H666 C680 0.961 . S
H667 C681 0.960 . S
H668 C681 0.961 . S
H669 C681 0.959 . S
H670 C684 0.929 . S
H671 C685 0.931 . S
H672 C687 0.930 . S
C673 H661 0.930 . S
C673 C674 1.399 . S
C673 C678 1.399 . S
C674 C673 1.399 . S
C674 C675 1.376 . S
C675 H662 0.930 . S
C675 C674 1.376 . S
C675 C676 1.388 . S
C676 H663 0.930 . S
C676 C675 1.388 . S
C676 C677 1.390 . S
C677 C676 1.390 . S
C677 C678 1.394 . S
C677 C683 1.465 . S
C678 C673 1.399 . S
C678 C677 1.394 . S
C678 C679 1.516 . S
C679 C678 1.516 . S
C679 C680 1.502 . S
C679 C681 1.561 . S
C679 C682 1.526 . S
C680 H664 0.959 . S
C680 H665 0.959 . S
C680 H666 0.961 . S
C680 C679 1.502 . S
C681 H667 0.960 . S
C681 H668 0.961 . S
C681 H669 0.959 . S
C681 C679 1.561 . S
C682 C679 1.526 . S
C682 C683 1.396 . S
C682 C687 1.390 . S
C683 C677 1.465 . S
C683 C682 1.396 . S
C683 C684 1.399 . S
C684 H670 0.929 . S
C684 C683 1.399 . S
C684 C685 1.385 . S
C685 H671 0.931 . S
C685 C684 1.385 . S
C685 C686 1.389 . S
C686 C685 1.389 . S
C686 C687 1.387 . S
C687 H672 0.930 . S
C687 C682 1.390 . S
C687 C686 1.387 . S
H688 C700 0.930 . S
H689 C702 0.930 . S
H690 C703 0.930 . S
H691 C707 0.959 . S
H692 C707 0.959 . S
H693 C707 0.961 . S
H694 C708 0.960 . S
H695 C708 0.961 . S
H696 C708 0.959 . S
H697 C711 0.929 . S
H698 C712 0.931 . S
H699 C714 0.930 . S
C700 H688 0.930 . S
C700 C701 1.399 . S
C700 C705 1.399 . S
C701 C700 1.399 . S
C701 C702 1.376 . S
C702 H689 0.930 . S
C702 C701 1.376 . S
C702 C703 1.388 . S
C703 H690 0.930 . S
C703 C702 1.388 . S
C703 C704 1.390 . S
C704 C703 1.390 . S
C704 C705 1.394 . S
C704 C710 1.465 . S
C705 C700 1.399 . S
C705 C704 1.394 . S
C705 C706 1.516 . S
C706 C705 1.516 . S
C706 C707 1.502 . S
C706 C708 1.561 . S
C706 C709 1.526 . S
C707 H691 0.959 . S
C707 H692 0.959 . S
C707 H693 0.961 . S
C707 C706 1.502 . S
C708 H694 0.960 . S
C708 H695 0.961 . S
C708 H696 0.959 . S
C708 C706 1.561 . S
C709 C706 1.526 . S
C709 C710 1.396 . S
C709 C714 1.390 . S
C710 C704 1.465 . S
C710 C709 1.396 . S
C710 C711 1.399 . S
C711 H697 0.929 . S
C711 C710 1.399 . S
C711 C712 1.385 . S
C712 H698 0.931 . S
C712 C711 1.385 . S
C712 C713 1.389 . S
C713 C712 1.389 . S
C713 C714 1.387 . S
C714 H699 0.930 . S
C714 C709 1.390 . S
C714 C713 1.387 . S
H715 C727 0.930 . S
H716 C729 0.930 . S
H717 C730 0.930 . S
H718 C734 0.959 . S
H719 C734 0.959 . S
H720 C734 0.961 . S
H721 C735 0.960 . S
H722 C735 0.961 . S
H723 C735 0.959 . S
H724 C738 0.929 . S
H725 C739 0.931 . S
H726 C741 0.930 . S
C727 H715 0.930 . S
C727 C728 1.399 . S
C727 C732 1.399 . S
C728 C727 1.399 . S
C728 C729 1.376 . S
C729 H716 0.930 . S
C729 C728 1.376 . S
C729 C730 1.388 . S
C730 H717 0.930 . S
C730 C729 1.388 . S
C730 C731 1.390 . S
C731 C730 1.390 . S
C731 C732 1.394 . S
C731 C737 1.465 . S
C732 C727 1.399 . S
C732 C731 1.394 . S
C732 C733 1.516 . S
C733 C732 1.516 . S
C733 C734 1.502 . S
C733 C735 1.561 . S
C733 C736 1.526 . S
C734 H718 0.959 . S
C734 H719 0.959 . S
C734 H720 0.961 . S
C734 C733 1.502 . S
C735 H721 0.960 . S
C735 H722 0.961 . S
C735 H723 0.959 . S
C735 C733 1.561 . S
C736 C733 1.526 . S
C736 C737 1.396 . S
C736 C741 1.390 . S
C737 C731 1.465 . S
C737 C736 1.396 . S
C737 C738 1.399 . S
C738 H724 0.929 . S
C738 C737 1.399 . S
C738 C739 1.385 . S
C739 H725 0.931 . S
C739 C738 1.385 . S
C739 C740 1.389 . S
C740 C739 1.389 . S
C740 C741 1.387 . S
C741 H726 0.930 . S
C741 C736 1.390 . S
C741 C740 1.387 . S
H742 C754 0.930 . S
H743 C756 0.930 . S
H744 C757 0.930 . S
H745 C761 0.959 . S
H746 C761 0.959 . S
H747 C761 0.961 . S
H748 C762 0.960 . S
H749 C762 0.961 . S
H750 C762 0.959 . S
H751 C765 0.929 . S
H752 C766 0.931 . S
H753 C768 0.930 . S
C754 H742 0.930 . S
C754 C755 1.399 . S
C754 C759 1.399 . S
C755 C754 1.399 . S
C755 C756 1.376 . S
C756 H743 0.930 . S
C756 C755 1.376 . S
C756 C757 1.388 . S
C757 H744 0.930 . S
C757 C756 1.388 . S
C757 C758 1.390 . S
C758 C757 1.390 . S
C758 C759 1.394 . S
C758 C764 1.465 . S
C759 C754 1.399 . S
C759 C758 1.394 . S
C759 C760 1.516 . S
C760 C759 1.516 . S
C760 C761 1.502 . S
C760 C762 1.561 . S
C760 C763 1.526 . S
C761 H745 0.959 . S
C761 H746 0.959 . S
C761 H747 0.961 . S
C761 C760 1.502 . S
C762 H748 0.960 . S
C762 H749 0.961 . S
C762 H750 0.959 . S
C762 C760 1.561 . S
C763 C760 1.526 . S
C763 C764 1.396 . S
C763 C768 1.390 . S
C764 C758 1.465 . S
C764 C763 1.396 . S
C764 C765 1.399 . S
C765 H751 0.929 . S
C765 C764 1.399 . S
C765 C766 1.385 . S
C766 H752 0.931 . S
C766 C765 1.385 . S
C766 C767 1.389 . S
C767 C766 1.389 . S
C767 C768 1.387 . S
C768 H753 0.930 . S
C768 C763 1.390 . S
C768 C767 1.387 . S
H769 C781 0.930 . S
H770 C783 0.930 . S
H771 C784 0.930 . S
H772 C788 0.959 . S
H773 C788 0.959 . S
H774 C788 0.961 . S
H775 C789 0.960 . S
H776 C789 0.961 . S
H777 C789 0.959 . S
H778 C792 0.929 . S
H779 C793 0.931 . S
H780 C795 0.930 . S
C781 H769 0.930 . S
C781 C782 1.399 . S
C781 C786 1.399 . S
C782 C781 1.399 . S
C782 C783 1.376 . S
C783 H770 0.930 . S
C783 C782 1.376 . S
C783 C784 1.388 . S
C784 H771 0.930 . S
C784 C783 1.388 . S
C784 C785 1.390 . S
C785 C784 1.390 . S
C785 C786 1.394 . S
C785 C791 1.465 . S
C786 C781 1.399 . S
C786 C785 1.394 . S
C786 C787 1.516 . S
C787 C786 1.516 . S
C787 C788 1.502 . S
C787 C789 1.561 . S
C787 C790 1.526 . S
C788 H772 0.959 . S
C788 H773 0.959 . S
C788 H774 0.961 . S
C788 C787 1.502 . S
C789 H775 0.960 . S
C789 H776 0.961 . S
C789 H777 0.959 . S
C789 C787 1.561 . S
C790 C787 1.526 . S
C790 C791 1.396 . S
C790 C795 1.390 . S
C791 C785 1.465 . S
C791 C790 1.396 . S
C791 C792 1.399 . S
C792 H778 0.929 . S
C792 C791 1.399 . S
C792 C793 1.385 . S
C793 H779 0.931 . S
C793 C792 1.385 . S
C793 C794 1.389 . S
C794 C793 1.389 . S
C794 C795 1.387 . S
C795 H780 0.930 . S
C795 C790 1.390 . S
C795 C794 1.387 . S
H796 C808 0.930 . S
H797 C810 0.930 . S
H798 C811 0.932 . S
H799 C815 0.959 . S
H800 C815 0.958 1_655 S
H801 C815 0.961 . S
H802 C816 0.960 . S
H803 C816 0.961 . S
H804 C816 0.959 . S
H805 C819 0.927 1_445 S
H806 C820 0.931 1_455 S
H807 C822 0.930 . S
C808 H796 0.930 . S
C808 C809 1.399 . S
C808 C813 1.399 . S
C809 C808 1.399 . S
C809 C810 1.376 . S
C810 H797 0.930 . S
C810 C809 1.376 . S
C810 C811 1.388 1_554 S
C811 H798 0.932 . S
C811 C810 1.388 1_556 S
C811 C812 1.390 . S
C812 C811 1.390 . S
C812 C813 1.394 1_556 S
C812 C818 1.465 1_545 S
C813 C808 1.399 . S
C813 C812 1.394 1_554 S
C813 C814 1.516 1_545 S
C814 C813 1.516 1_565 S
C814 C815 1.502 1_655 S
C814 C816 1.561 . S
C814 C817 1.526 1_554 S
C815 H799 0.959 . S
C815 H800 0.958 1_455 S
C815 H801 0.961 . S
C815 C814 1.502 1_455 S
C816 H802 0.960 . S
C816 H803 0.961 . S
C816 H804 0.959 . S
C816 C814 1.561 . S
C817 C814 1.526 1_556 S
C817 C818 1.396 . S
C817 C822 1.390 . S
C818 C812 1.465 1_565 S
C818 C817 1.396 . S
C818 C819 1.399 . S
C819 H805 0.927 1_665 S
C819 C818 1.399 . S
C819 C820 1.385 . S
C820 H806 0.931 1_655 S
C820 C819 1.385 . S
C820 C821 1.389 . S
C821 C820 1.389 . S
C821 C822 1.387 . S
C822 H807 0.930 . S
C822 C817 1.390 . S
C822 C821 1.387 . S
H823 C835 0.930 . S
H824 C837 0.930 . S
H825 C838 0.930 . S
H826 C842 0.959 . S
H827 C842 0.959 . S
H828 C842 0.961 . S
H829 C843 0.960 . S
H830 C843 0.961 . S
H831 C843 0.959 1_655 S
H832 C846 0.929 . S
H833 C847 0.931 . S
H834 C849 0.930 . S
C835 H823 0.930 . S
C835 C836 1.399 . S
C835 C840 1.399 . S
C836 C835 1.399 . S
C836 C837 1.376 1_455 S
C837 H824 0.930 . S
C837 C836 1.376 1_655 S
C837 C838 1.388 . S
C838 H825 0.930 . S
C838 C837 1.388 . S
C838 C839 1.384 1_655 S
C839 C838 1.384 1_455 S
C839 C840 1.402 . S
C839 C845 1.461 1_556 S
C840 C835 1.399 . S
C840 C839 1.402 . S
C840 C841 1.516 1_556 S
C841 C840 1.516 1_554 S
C841 C842 1.502 . S
C841 C843 1.561 . S
C841 C844 1.526 . S
C842 H826 0.959 . S
C842 H827 0.959 . S
C842 H828 0.961 . S
C842 C841 1.502 . S
C843 H829 0.960 . S
C843 H830 0.961 . S
C843 H831 0.959 1_455 S
C843 C841 1.561 . S
C844 C841 1.526 . S
C844 C845 1.402 . S
C844 C849 1.390 . S
C845 C839 1.461 1_554 S
C845 C844 1.402 . S
C845 C846 1.398 1_454 S
C846 H832 0.929 . S
C846 C845 1.398 1_656 S
C846 C847 1.385 1_556 S
C847 H833 0.931 . S
C847 C846 1.385 1_554 S
C847 C848 1.389 1_655 S
C848 C847 1.389 1_455 S
C848 C849 1.387 . S
C849 H834 0.930 . S
C849 C844 1.390 . S
C849 C848 1.387 . S
H850 C862 0.930 . S
H851 C864 0.930 . S
H852 C865 0.930 . S
H853 C869 0.959 . S
H854 C869 0.959 . S
H855 C869 0.961 . S
H856 C870 0.960 . S
H857 C870 0.961 . S
H858 C870 0.959 . S
H859 C873 0.929 . S
H860 C874 0.931 . S
H861 C876 0.930 . S
C862 H850 0.930 . S
C862 C863 1.399 . S
C862 C867 1.399 . S
C863 C862 1.399 . S
C863 C864 1.376 . S
C864 H851 0.930 . S
C864 C863 1.376 . S
C864 C865 1.388 . S
C865 H852 0.930 . S
C865 C864 1.388 . S
C865 C866 1.390 . S
C866 C865 1.390 . S
C866 C867 1.394 . S
C866 C872 1.465 . S
C867 C862 1.399 . S
C867 C866 1.394 . S
C867 C868 1.516 . S
C868 C867 1.516 . S
C868 C869 1.502 . S
C868 C870 1.561 . S
C868 C871 1.526 . S
C869 H853 0.959 . S
C869 H854 0.959 . S
C869 H855 0.961 . S
C869 C868 1.502 . S
C870 H856 0.960 . S
C870 H857 0.961 . S
C870 H858 0.959 . S
C870 C868 1.561 . S
C871 C868 1.526 . S
C871 C872 1.396 . S
C871 C876 1.390 . S
C872 C866 1.465 . S
C872 C871 1.396 . S
C872 C873 1.399 . S
C873 H859 0.929 . S
C873 C872 1.399 . S
C873 C874 1.385 . S
C874 H860 0.931 . S
C874 C873 1.385 . S
C874 C875 1.389 . S
C875 C874 1.389 . S
C875 C876 1.387 . S
C876 H861 0.930 . S
C876 C871 1.390 . S
C876 C875 1.387 . S
H877 C889 0.930 . S
H878 C891 0.930 . S
H879 C892 0.930 . S
H880 C896 0.959 . S
H881 C896 0.959 . S
H882 C896 0.961 . S
H883 C897 0.960 . S
H884 C897 0.961 . S
H885 C897 0.959 . S
H886 C900 0.929 1_565 S
H887 C901 0.931 . S
H888 C903 0.930 . S
C889 H877 0.930 . S
C889 C890 1.399 . S
C889 C894 1.399 . S
C890 C889 1.399 . S
C890 C891 1.376 . S
C891 H878 0.930 . S
C891 C890 1.376 . S
C891 C892 1.388 . S
C892 H879 0.930 . S
C892 C891 1.388 . S
C892 C893 1.390 . S
C893 C892 1.390 . S
C893 C894 1.394 . S
C893 C899 1.465 1_565 S
C894 C889 1.399 . S
C894 C893 1.394 . S
C894 C895 1.516 1_565 S
C895 C894 1.516 1_545 S
C895 C896 1.502 . S
C895 C897 1.561 . S
C895 C898 1.526 . S
C896 H880 0.959 . S
C896 H881 0.959 . S
C896 H882 0.961 . S
C896 C895 1.502 . S
C897 H883 0.960 . S
C897 H884 0.961 . S
C897 H885 0.959 . S
C897 C895 1.561 . S
C898 C895 1.526 . S
C898 C899 1.396 . S
C898 C903 1.390 . S
C899 C893 1.465 1_545 S
C899 C898 1.396 . S
C899 C900 1.399 . S
C900 H886 0.929 1_545 S
C900 C899 1.399 . S
C900 C901 1.385 . S
C901 H887 0.931 . S
C901 C900 1.385 . S
C901 C902 1.389 . S
C902 C901 1.389 . S
C902 C903 1.387 . S
C903 H888 0.930 . S
C903 C898 1.390 . S
C903 C902 1.387 . S
C485 C111 1.505 . S
C497 C52 1.494 . S
C512 C170 1.485 . S
C524 C229 1.510 . S
C539 C288 1.486 . S
C551 C347 1.508 . S
C566 C406 1.488 . S
C578 C465 1.506 . S
C593 C416 1.245 . S
C605 C3 1.249 . S
C620 C357 1.249 . S
C632 C62 1.251 . S
C647 C121 1.209 . S
C659 C298 1.206 . S
C674 C239 1.214 . S
C686 C180 1.211 . S
C701 C328 1.718 . S
C713 C151 1.716 . S
C728 C269 1.721 . S
C740 C210 1.717 . S
C755 C446 1.720 . S
C767 C33 1.723 . S
C782 C92 1.717 . S
C794 C387 1.716 . S
C809 C5 1.478 . S
C821 C123 1.474 . S
C836 C182 1.476 . S
C848 C64 1.480 . S
C863 C359 1.476 . S
C875 C241 1.480 . S
C890 C300 1.476 . S
C902 C418 1.474 . S
