# Generated by pormake.
# Topology lcs, (4)-cn, num edge types: 1
# Building blocks:
#     Node 0, Type 0, BuildingBlock: AZAVOO_clean_sbu_0, # of connection points: 4
#     Node 1, Type 0, BuildingBlock: AZAVOO_clean_sbu_0, # of connection points: 4
#     Node 2, Type 0, BuildingBlock: AZAVOO_clean_sbu_0, # of connection points: 4
#     Node 3, Type 0, BuildingBlock: AZAVOO_clean_sbu_0, # of connection points: 4
#     Node 4, Type 0, BuildingBlock: AZAVOO_clean_sbu_0, # of connection points: 4
#     Node 5, Type 0, BuildingBlock: AZAVOO_clean_sbu_0, # of connection points: 4
#     Node 6, Type 0, BuildingBlock: AZAVOO_clean_sbu_0, # of connection points: 4
#     Node 7, Type 0, BuildingBlock: AZAVOO_clean_sbu_0, # of connection points: 4
#     Node 8, Type 0, BuildingBlock: AZAVOO_clean_sbu_0, # of connection points: 4
#     Node 9, Type 0, BuildingBlock: AZAVOO_clean_sbu_0, # of connection points: 4
#     Node 10, Type 0, BuildingBlock: AZAVOO_clean_sbu_0, # of connection points: 4
#     Node 11, Type 0, BuildingBlock: AZAVOO_clean_sbu_0, # of connection points: 4
#     Node 12, Type 0, BuildingBlock: AZAVOO_clean_sbu_0, # of connection points: 4
#     Node 13, Type 0, BuildingBlock: AZAVOO_clean_sbu_0, # of connection points: 4
#     Node 14, Type 0, BuildingBlock: AZAVOO_clean_sbu_0, # of connection points: 4
#     Node 15, Type 0, BuildingBlock: AZAVOO_clean_sbu_0, # of connection points: 4
#     Node 16, Type 0, BuildingBlock: AZAVOO_clean_sbu_0, # of connection points: 4
#     Node 17, Type 0, BuildingBlock: AZAVOO_clean_sbu_0, # of connection points: 4
#     Node 18, Type 0, BuildingBlock: AZAVOO_clean_sbu_0, # of connection points: 4
#     Node 19, Type 0, BuildingBlock: AZAVOO_clean_sbu_0, # of connection points: 4
#     Node 20, Type 0, BuildingBlock: AZAVOO_clean_sbu_0, # of connection points: 4
#     Node 21, Type 0, BuildingBlock: AZAVOO_clean_sbu_0, # of connection points: 4
#     Node 22, Type 0, BuildingBlock: AZAVOO_clean_sbu_0, # of connection points: 4
#     Node 23, Type 0, BuildingBlock: AZAVOO_clean_sbu_0, # of connection points: 4
#     Edge 24, Type (0, 0), BuildingBlock: ZUJKAS_clean_linker_0, # of connection points: 2
#     Edge 25, Type (0, 0), BuildingBlock: ZUJKAS_clean_linker_0, # of connection points: 2
#     Edge 26, Type (0, 0), BuildingBlock: ZUJKAS_clean_linker_0, # of connection points: 2
#     Edge 27, Type (0, 0), BuildingBlock: ZUJKAS_clean_linker_0, # of connection points: 2
#     Edge 28, Type (0, 0), BuildingBlock: ZUJKAS_clean_linker_0, # of connection points: 2
#     Edge 29, Type (0, 0), BuildingBlock: ZUJKAS_clean_linker_0, # of connection points: 2
#     Edge 30, Type (0, 0), BuildingBlock: ZUJKAS_clean_linker_0, # of connection points: 2
#     Edge 31, Type (0, 0), BuildingBlock: ZUJKAS_clean_linker_0, # of connection points: 2
#     Edge 32, Type (0, 0), BuildingBlock: ZUJKAS_clean_linker_0, # of connection points: 2
#     Edge 33, Type (0, 0), BuildingBlock: ZUJKAS_clean_linker_0, # of connection points: 2
#     Edge 34, Type (0, 0), BuildingBlock: ZUJKAS_clean_linker_0, # of connection points: 2
#     Edge 35, Type (0, 0), BuildingBlock: ZUJKAS_clean_linker_0, # of connection points: 2
#     Edge 36, Type (0, 0), BuildingBlock: ZUJKAS_clean_linker_0, # of connection points: 2
#     Edge 37, Type (0, 0), BuildingBlock: ZUJKAS_clean_linker_0, # of connection points: 2
#     Edge 38, Type (0, 0), BuildingBlock: ZUJKAS_clean_linker_0, # of connection points: 2
#     Edge 39, Type (0, 0), BuildingBlock: ZUJKAS_clean_linker_0, # of connection points: 2
#     Edge 40, Type (0, 0), BuildingBlock: ZUJKAS_clean_linker_0, # of connection points: 2
#     Edge 41, Type (0, 0), BuildingBlock: ZUJKAS_clean_linker_0, # of connection points: 2
#     Edge 42, Type (0, 0), BuildingBlock: ZUJKAS_clean_linker_0, # of connection points: 2
#     Edge 43, Type (0, 0), BuildingBlock: ZUJKAS_clean_linker_0, # of connection points: 2
#     Edge 44, Type (0, 0), BuildingBlock: ZUJKAS_clean_linker_0, # of connection points: 2
#     Edge 45, Type (0, 0), BuildingBlock: ZUJKAS_clean_linker_0, # of connection points: 2
#     Edge 46, Type (0, 0), BuildingBlock: ZUJKAS_clean_linker_0, # of connection points: 2
#     Edge 47, Type (0, 0), BuildingBlock: ZUJKAS_clean_linker_0, # of connection points: 2
#     Edge 48, Type (0, 0), BuildingBlock: ZUJKAS_clean_linker_0, # of connection points: 2
#     Edge 49, Type (0, 0), BuildingBlock: ZUJKAS_clean_linker_0, # of connection points: 2
#     Edge 50, Type (0, 0), BuildingBlock: ZUJKAS_clean_linker_0, # of connection points: 2
#     Edge 51, Type (0, 0), BuildingBlock: ZUJKAS_clean_linker_0, # of connection points: 2
#     Edge 52, Type (0, 0), BuildingBlock: ZUJKAS_clean_linker_0, # of connection points: 2
#     Edge 53, Type (0, 0), BuildingBlock: ZUJKAS_clean_linker_0, # of connection points: 2
#     Edge 54, Type (0, 0), BuildingBlock: ZUJKAS_clean_linker_0, # of connection points: 2
#     Edge 55, Type (0, 0), BuildingBlock: ZUJKAS_clean_linker_0, # of connection points: 2
#     Edge 56, Type (0, 0), BuildingBlock: ZUJKAS_clean_linker_0, # of connection points: 2
#     Edge 57, Type (0, 0), BuildingBlock: ZUJKAS_clean_linker_0, # of connection points: 2
#     Edge 58, Type (0, 0), BuildingBlock: ZUJKAS_clean_linker_0, # of connection points: 2
#     Edge 59, Type (0, 0), BuildingBlock: ZUJKAS_clean_linker_0, # of connection points: 2
#     Edge 60, Type (0, 0), BuildingBlock: ZUJKAS_clean_linker_0, # of connection points: 2
#     Edge 61, Type (0, 0), BuildingBlock: ZUJKAS_clean_linker_0, # of connection points: 2
#     Edge 62, Type (0, 0), BuildingBlock: ZUJKAS_clean_linker_0, # of connection points: 2
#     Edge 63, Type (0, 0), BuildingBlock: ZUJKAS_clean_linker_0, # of connection points: 2
#     Edge 64, Type (0, 0), BuildingBlock: ZUJKAS_clean_linker_0, # of connection points: 2
#     Edge 65, Type (0, 0), BuildingBlock: ZUJKAS_clean_linker_0, # of connection points: 2
#     Edge 66, Type (0, 0), BuildingBlock: ZUJKAS_clean_linker_0, # of connection points: 2
#     Edge 67, Type (0, 0), BuildingBlock: ZUJKAS_clean_linker_0, # of connection points: 2
#     Edge 68, Type (0, 0), BuildingBlock: ZUJKAS_clean_linker_0, # of connection points: 2
#     Edge 69, Type (0, 0), BuildingBlock: ZUJKAS_clean_linker_0, # of connection points: 2
#     Edge 70, Type (0, 0), BuildingBlock: ZUJKAS_clean_linker_0, # of connection points: 2
#     Edge 71, Type (0, 0), BuildingBlock: ZUJKAS_clean_linker_0, # of connection points: 2
# Relax obj value: 0.138
# Max RMSD: 0.189
# Mean RMSD: 0.183
data_MOF--net-lcs--node1-AZAVOO_clean_sbu_0--edge1-ZUJKAS_clean_linker_0
_symmetry_space_group_name_H-M    P1
_symmetry_Int_Tables_number       1
_symmetry_cell_setting            triclinic
loop_
_symmetry_equiv_pos_as_xyz
'x, y, z'
_cell_length_a     63.219664
_cell_length_b     62.281107
_cell_length_c     62.278197
_cell_angle_alpha  93.555028
_cell_angle_beta   93.600714
_cell_angle_gamma 93.628442
loop_
_atom_site_label
_atom_site_type_symbol
_atom_site_fract_x
_atom_site_fract_y
_atom_site_fract_z
_atom_type_partial_charge
Mg0 Mg 0.0186 0.26728 0.43837 0.0
O1 O -0.0008 0.2416 0.41582 0.0
O2 O 0.96823 0.25493 0.40637 0.0
Mg3 Mg 0.96759 0.28856 0.4232 0.0
C4 C 0.98099 0.23985 0.4055 0.0
C5 C 0.04884 0.23071 0.44253 0.0
O6 O 0.03175 0.22224 0.45059 0.0
O7 O 0.02562 0.28742 0.41004 0.0
O8 O 0.99427 0.30106 0.40285 0.0
O9 O 0.00387 0.25385 0.46672 0.0
O10 O 0.99103 0.27986 0.44821 0.0
C11 C 0.01383 0.29946 0.39934 0.0
C12 C 0.98901 0.26686 0.46334 0.0
O13 O 0.0483 0.24917 0.43499 0.0
Mg14 Mg 0.98466 0.74742 0.57993 0.0
O15 O 0.99776 0.77182 0.60722 0.0
O16 O 0.97105 0.78297 0.62589 0.0
Mg17 Mg 0.9407 0.76425 0.61123 0.0
C18 C 0.99075 0.78352 0.62239 0.0
C19 C 0.03257 0.75368 0.57166 0.0
O20 O 0.02731 0.77378 0.57223 0.0
O21 O 0.98079 0.72145 0.60389 0.0
O22 O 0.9535 0.73253 0.62185 0.0
O23 O 0.9786 0.77478 0.55922 0.0
O24 O 0.95526 0.76048 0.58016 0.0
C25 C 0.96753 0.71905 0.61835 0.0
C26 C 0.96028 0.77518 0.5674 0.0
O27 O 0.01844 0.7388 0.57426 0.0
Mg28 Mg 0.50396 0.76874 0.93977 0.0
O29 O 0.49235 0.74384 0.91174 0.0
O30 O 0.4626 0.75571 0.89662 0.0
Mg31 Mg 0.4549 0.78671 0.91486 0.0
C32 C 0.47669 0.74193 0.89756 0.0
C33 C 0.54427 0.7529 0.9609 0.0
O34 O 0.53331 0.75808 0.97748 0.0
O35 O 0.51497 0.79306 0.91646 0.0
O36 O 0.48442 0.8041 0.90246 0.0
O37 O 0.48536 0.74984 0.96196 0.0
O38 O 0.4728 0.77603 0.94346 0.0
C39 C 0.50469 0.80485 0.90406 0.0
C40 C 0.46941 0.76066 0.95608 0.0
O41 O 0.53637 0.75531 0.94202 0.0
Mg42 Mg 0.48176 0.2519 0.07639 0.0
O43 O 0.49244 0.27401 0.10631 0.0
O44 O 0.46369 0.28442 0.12221 0.0
Mg45 Mg 0.43465 0.26672 0.10357 0.0
C46 C 0.48381 0.28484 0.12105 0.0
C47 C 0.52421 0.24536 0.05572 0.0
O48 O 0.51278 0.25239 0.03958 0.0
O49 O 0.47513 0.22428 0.09768 0.0
O50 O 0.44591 0.23387 0.11321 0.0
O51 O 0.47862 0.28102 0.05755 0.0
O52 O 0.45259 0.26549 0.07444 0.0
C53 C 0.46031 0.22067 0.11027 0.0
C54 C 0.45943 0.2812 0.06369 0.0
O55 O 0.51586 0.24316 0.07355 0.0
Mg56 Mg 0.98481 0.7755 0.15742 0.0
O57 O 0.95938 0.75814 0.13328 0.0
O58 O 0.94937 0.78209 0.11005 0.0
Mg59 Mg 0.96766 0.81449 0.1193 0.0
C60 C 0.94809 0.76314 0.11683 0.0
C61 C -0.00106 0.74298 0.18962 0.0
O62 O 0.99767 0.76059 0.2021 0.0
O63 O 0.00937 0.77474 0.13226 0.0
O64 O -0.001 0.80028 0.11096 0.0
O65 O 0.95993 0.78677 0.17878 0.0
O66 O 0.97242 0.80498 0.15252 0.0
C67 C 0.01202 0.78634 0.11631 0.0
C68 C 0.95961 0.80367 0.16767 0.0
O69 O 0.9942 0.74344 0.16952 0.0
Mg70 Mg 0.52404 0.72801 0.35387 0.0
O71 O 0.52448 0.75647 0.33229 0.0
O72 O 0.55777 0.76287 0.3229 0.0
Mg73 Mg 0.57877 0.73939 0.3394 0.0
C74 C 0.53822 0.76702 0.32214 0.0
C75 C 0.47852 0.70622 0.35322 0.0
O76 O 0.48992 0.68956 0.35598 0.0
O77 O 0.52695 0.70526 0.32443 0.0
O78 O 0.56122 0.71134 0.31832 0.0
O79 O 0.53067 0.75013 0.38324 0.0
O80 O 0.55558 0.73667 0.36401 0.0
C81 C 0.54311 0.70111 0.31401 0.0
C82 C 0.55056 0.74952 0.37961 0.0
O83 O 0.48798 0.72436 0.3505 0.0
Mg84 Mg 0.49673 0.28115 0.6587 0.0
O85 O 0.46887 0.26408 0.63746 0.0
O86 O 0.45517 0.28847 0.61676 0.0
Mg87 Mg 0.47379 0.32093 0.62479 0.0
C88 C 0.45538 0.26929 0.62288 0.0
C89 C 0.52441 0.24916 0.68098 0.0
O90 O 0.53425 0.26784 0.68759 0.0
O91 O 0.51718 0.28141 0.62998 0.0
O92 O 0.50342 0.30719 0.61107 0.0
O93 O 0.47493 0.29107 0.68387 0.0
O94 O 0.48331 0.31052 0.6568 0.0
C95 C 0.51717 0.29327 0.61397 0.0
C96 C 0.47266 0.30829 0.67353 0.0
O97 O 0.50792 0.24885 0.66817 0.0
Mg98 Mg 0.02759 0.23554 0.85376 0.0
O99 O 0.02545 0.25918 0.82716 0.0
O100 O 0.05689 0.26217 0.81265 0.0
Mg101 Mg 0.07896 0.24017 0.82985 0.0
C102 C 0.03767 0.26712 0.81367 0.0
C103 C 0.98636 0.23741 0.87513 0.0
O104 O 0.00141 0.2417 0.8906 0.0
O105 O 0.02546 0.20775 0.82839 0.0
O106 O 0.05755 0.2108 0.81531 0.0
O107 O 0.03889 0.26239 0.87738 0.0
O108 O 0.06029 0.24319 0.85842 0.0
C109 C 0.03909 0.20118 0.81569 0.0
C110 C 0.05792 0.25924 0.87197 0.0
O111 O 0.99169 0.23368 0.85598 0.0
Mg112 Mg 0.43229 0.98221 0.23857 0.0
O113 O 0.40651 0.96471 0.2147 0.0
O114 O 0.3956 0.93432 0.22931 0.0
Mg115 Mg 0.41328 0.93264 0.26222 0.0
C116 C 0.39492 0.94705 0.21401 0.0
C117 C 0.44841 0.02069 0.21399 0.0
O118 O 0.46579 0.01056 0.21744 0.0
O119 O 0.4072 0.9931 0.26082 0.0
O120 O 0.39764 0.96246 0.2756 0.0
O121 O 0.45763 0.96365 0.22371 0.0
O122 O 0.43911 0.95296 0.25051 0.0
C123 C 0.39644 0.9827 0.27395 0.0
C124 C 0.45301 0.949 0.23683 0.0
O125 O 0.43112 0.01289 0.22062 0.0
Mg126 Mg 0.26998 0.08821 0.48019 0.0
O127 O 0.29703 0.11157 0.49572 0.0
O128 O 0.30799 0.13271 0.47035 0.0
Mg129 Mg 0.28849 0.12286 0.43875 0.0
C130 C 0.30915 0.12693 0.48968 0.0
C131 C 0.24143 0.07249 0.51508 0.0
O132 O 0.22819 0.07114 0.49784 0.0
O133 O 0.24743 0.1152 0.48022 0.0
O134 O 0.25853 0.13459 0.45353 0.0
O135 O 0.29321 0.0646 0.46941 0.0
O136 O 0.28181 0.09059 0.45011 0.0
C137 C 0.24567 0.13089 0.46811 0.0
C138 C 0.29378 0.0748 0.45192 0.0
O139 O 0.26064 0.07914 0.51337 0.0
Mg140 Mg 0.14509 0.99505 0.75541 0.0
O141 O 0.12872 0.962 0.74366 0.0
O142 O 0.11025 0.95006 0.77048 0.0
Mg143 Mg 0.11442 0.97509 0.79893 0.0
C144 C 0.11645 0.94776 0.75141 0.0
C145 C 0.1717 0.01063 0.7193 0.0
O146 O 0.18445 0.01516 0.73671 0.0
O147 O 0.11352 0.01015 0.75095 0.0
O148 O 0.09603 0.99829 0.77851 0.0
O149 O 0.17302 0.97952 0.76966 0.0
O150 O 0.14482 0.98693 0.78726 0.0
C151 C 0.09713 0.00933 0.76192 0.0
C152 C 0.16291 0.97856 0.78708 0.0
O153 O 0.15337 0.00164 0.72124 0.0
Mg154 Mg 0.24262 0.82652 0.99333 0.0
O155 O 0.26513 0.84779 0.01762 0.0
O156 O 0.29622 0.85243 0.00268 0.0
Mg157 Mg 0.29323 0.83564 0.96886 0.0
C158 C 0.28442 0.85546 0.01834 0.0
C159 C 0.21435 0.82617 0.03178 0.0
O160 O 0.23132 0.81762 0.03986 0.0
O161 O 0.23745 0.8552 0.97315 0.0
O162 O 0.26837 0.85875 0.95773 0.0
O163 O 0.25505 0.79679 0.00638 0.0
O164 O 0.26814 0.81349 0.97935 0.0
C165 C 0.24955 0.86441 0.96031 0.0
C166 C 0.26935 0.79839 0.99248 0.0
O167 O 0.21447 0.83299 0.01298 0.0
Mg168 Mg 0.24368 0.40691 0.02993 0.0
O169 O 0.24446 0.43129 0.00382 0.0
O170 O 0.21125 0.43961 0.9951 0.0
Mg171 Mg 0.18934 0.42113 0.01611 0.0
C172 C 0.23119 0.44161 0.99288 0.0
C173 C 0.29056 0.4061 0.01999 0.0
O174 O 0.28064 0.40051 0.0011 0.0
O175 O 0.23868 0.43398 0.05477 0.0
O176 O 0.20542 0.44175 0.0453 0.0
O177 O 0.23896 0.37993 0.00484 0.0
O178 O 0.21265 0.39646 0.01894 0.0
C179 C 0.22261 0.44504 0.05731 0.0
C180 C 0.21883 0.38255 0.00486 0.0
O181 O 0.27968 0.41119 0.03578 0.0
Mg182 Mg 0.78374 0.18506 0.01746 0.0
O183 O 0.77202 0.15722 0.99307 0.0
O184 O 0.79992 0.13969 0.98304 0.0
Mg185 Mg 0.82948 0.15598 0.00188 0.0
C186 C 0.78 0.14226 0.98191 0.0
C187 C 0.74241 0.20771 0.02471 0.0
O188 O 0.75491 0.22386 0.01928 0.0
O189 O 0.78819 0.16142 0.04351 0.0
O190 O 0.81683 0.14505 0.03363 0.0
O191 O 0.78897 0.20603 0.99023 0.0
O192 O 0.81328 0.18621 0.0046 0.0
C193 C 0.80221 0.14785 0.0466 0.0
C194 C 0.80767 0.1987 0.98983 0.0
O195 O 0.74967 0.18922 0.02568 0.0
Mg196 Mg 0.10564 0.51021 0.26889 0.0
O197 O 0.12571 0.52077 0.30027 0.0
O198 O 0.1458 0.49366 0.30813 0.0
Mg199 Mg 0.13898 0.4662 0.28217 0.0
C200 C 0.13968 0.51251 0.31237 0.0
C201 C 0.07973 0.55155 0.27193 0.0
O202 O 0.06794 0.53896 0.28322 0.0
O203 O 0.13473 0.51585 0.24995 0.0
O204 O 0.15367 0.48783 0.25753 0.0
O205 O 0.08039 0.49465 0.28743 0.0
O206 O 0.10745 0.47801 0.27521 0.0
C207 C 0.151 0.50499 0.2477 0.0
C208 C 0.09082 0.47743 0.28607 0.0
O209 O 0.09657 0.54464 0.26468 0.0
Mg210 Mg 0.73745 0.8998 0.53721 0.0
O211 O 0.74101 0.92139 0.50896 0.0
O212 O 0.70945 0.93385 0.50006 0.0
Mg213 Mg 0.68557 0.91998 0.52224 0.0
C214 C 0.72922 0.93273 0.49744 0.0
C215 C 0.78327 0.89223 0.52707 0.0
O216 O 0.7724 0.88553 0.50897 0.0
O217 O 0.73593 0.92958 0.55979 0.0
O218 O 0.70378 0.94047 0.55033 0.0
O219 O 0.72914 0.87088 0.51491 0.0
O220 O 0.70562 0.89279 0.52685 0.0
C221 C 0.72129 0.94258 0.56193 0.0
C222 C 0.70976 0.87645 0.51446 0.0
O223 O 0.77347 0.90011 0.54261 0.0
Mg224 Mg 0.83904 0.01755 0.28146 0.0
O225 O 0.86595 0.04119 0.29693 0.0
O226 O 0.88258 0.02469 0.32334 0.0
Mg227 Mg 0.86573 0.99143 0.32563 0.0
C228 C 0.88048 0.041 0.31213 0.0
C229 C 0.81868 0.0346 0.24037 0.0
O230 O 0.80387 0.0204 0.24548 0.0
O231 O 0.86243 0.9968 0.26505 0.0
O232 O 0.87655 0.97992 0.2926 0.0
O233 O 0.81672 0.03035 0.30473 0.0
O234 O 0.83662 0.00306 0.31033 0.0
C235 C 0.8746 0.98304 0.27251 0.0
C236 C 0.82317 0.01601 0.31739 0.0
O237 O 0.83573 0.03764 0.2524 0.0
Mg238 Mg 0.2821 0.6786 0.50992 0.0
O239 O 0.26748 0.65136 0.48624 0.0
O240 O 0.2933 0.63121 0.47542 0.0
Mg241 Mg 0.32449 0.64527 0.49301 0.0
C242 C 0.27379 0.63551 0.47495 0.0
C243 C 0.24418 0.70515 0.52229 0.0
O244 O 0.25859 0.72078 0.51978 0.0
O245 O 0.28556 0.65508 0.53626 0.0
O246 O 0.31241 0.63624 0.52563 0.0
O247 O 0.28825 0.69865 0.48212 0.0
O248 O 0.31104 0.67698 0.49607 0.0
C249 C 0.29861 0.64053 0.53914 0.0
C250 C 0.30618 0.68974 0.48131 0.0
O251 O 0.24898 0.68573 0.51942 0.0
Mg252 Mg 0.33745 0.51889 0.77939 0.0
O253 O 0.36516 0.54275 0.79261 0.0
O254 O 0.38038 0.52916 0.82169 0.0
Mg255 Mg 0.36221 0.49743 0.82755 0.0
C256 C 0.37932 0.54383 0.8083 0.0
C257 C 0.31809 0.54336 0.74201 0.0
O258 O 0.30226 0.54233 0.75468 0.0
O259 O 0.36042 0.49543 0.76629 0.0
O260 O 0.3734 0.48181 0.79636 0.0
O261 O 0.31532 0.53564 0.80032 0.0
O262 O 0.33399 0.50866 0.81015 0.0
C263 C 0.37205 0.48245 0.77586 0.0
C264 C 0.32104 0.52305 0.81509 0.0
O265 O 0.33535 0.53525 0.74775 0.0
Mg266 Mg 0.61151 0.0132 0.77829 0.0
O267 O 0.63443 0.0235 0.8077 0.0
O268 O 0.65288 0.99511 0.81523 0.0
Mg269 Mg 0.64232 0.96723 0.79059 0.0
C270 C 0.64849 0.01465 0.81916 0.0
C271 C 0.58925 0.04954 0.75904 0.0
O272 O 0.57951 0.0318 0.7497 0.0
O273 O 0.63897 0.01577 0.75679 0.0
O274 O 0.65663 0.98683 0.76409 0.0
O275 O 0.5873 0.001 0.79983 0.0
O276 O 0.61153 0.98126 0.78577 0.0
C277 C 0.65427 0.00376 0.7538 0.0
C278 C 0.59618 0.98282 0.79828 0.0
O279 O 0.60431 0.0479 0.77322 0.0
Mg280 Mg 0.75086 0.59163 0.98039 0.0
O281 O 0.78042 0.61238 0.99441 0.0
O282 O 0.79225 0.63167 0.96798 0.0
Mg283 Mg 0.77081 0.62309 0.93727 0.0
C284 C 0.79362 0.62627 0.98745 0.0
C285 C 0.7527 0.57356 0.0266 0.0
O286 O 0.77073 0.56676 0.02036 0.0
O287 O 0.73184 0.62129 0.98111 0.0
O288 O 0.7431 0.63869 0.95316 0.0
O289 O 0.77103 0.56529 0.9696 0.0
O290 O 0.76188 0.59184 0.94979 0.0
C291 C 0.731 0.63684 0.96873 0.0
C292 C 0.7724 0.575 0.95188 0.0
O293 O 0.7416 0.58438 0.01405 0.0
Mg294 Mg 0.92899 0.48499 0.75106 0.0
O295 O 0.90416 0.47052 0.72464 0.0
O296 O 0.88987 0.4399 0.73611 0.0
Mg297 Mg 0.90584 0.43429 0.76899 0.0
C298 C 0.89118 0.45384 0.72198 0.0
C299 C 0.93935 0.51839 0.71771 0.0
O300 O 0.94687 0.50107 0.70873 0.0
O301 O 0.90289 0.49535 0.77236 0.0
O302 O 0.89097 0.46383 0.78392 0.0
O303 O 0.95404 0.46637 0.73616 0.0
O304 O 0.93381 0.45436 0.76108 0.0
C305 C 0.8908 0.48433 0.78386 0.0
C306 C 0.94821 0.45082 0.74781 0.0
O307 O 0.93036 0.51703 0.73531 0.0
Mg308 Mg 0.75514 0.32785 0.49922 0.0
O309 O 0.77272 0.35395 0.52281 0.0
O310 O 0.80275 0.36435 0.50807 0.0
Mg311 Mg 0.80461 0.34476 0.47606 0.0
C312 C 0.79014 0.36565 0.52326 0.0
C313 C 0.70794 0.32354 0.50474 0.0
O314 O 0.70953 0.31705 0.48446 0.0
O315 O 0.74573 0.35308 0.4763 0.0
O316 O 0.77619 0.36164 0.46153 0.0
O317 O 0.77205 0.30273 0.51589 0.0
O318 O 0.7836 0.31927 0.48797 0.0
C319 C 0.75632 0.36352 0.46308 0.0
C320 C 0.78682 0.30602 0.50273 0.0
O321 O 0.72469 0.33028 0.51613 0.0
Mg322 Mg 0.644 0.48933 0.25824 0.0
O323 O 0.62466 0.4578 0.24677 0.0
O324 O 0.60641 0.44746 0.27447 0.0
Mg325 Mg 0.61334 0.47239 0.30296 0.0
C326 C 0.61172 0.44462 0.2551 0.0
C327 C 0.66995 0.50709 0.22375 0.0
O328 O 0.68051 0.51339 0.24215 0.0
O329 O 0.61385 0.50703 0.25448 0.0
O330 O 0.59702 0.49777 0.28345 0.0
O331 O 0.67064 0.47118 0.27154 0.0
O332 O 0.64386 0.48119 0.29005 0.0
C333 C 0.59832 0.5083 0.26654 0.0
C334 C 0.66096 0.4711 0.28925 0.0
O335 O 0.65258 0.4957 0.22416 0.0
H336 H 0.10703 0.43791 0.28225 0.0
H337 H 0.09578 0.40537 0.29962 0.0
H338 H 0.04838 0.43997 0.33148 0.0
H339 H 0.05968 0.47276 0.31432 0.0
H340 H 0.07422 0.41467 0.35861 0.0
H341 H 0.03918 0.36821 0.28427 0.0
H342 H 0.06587 0.37971 0.28309 0.0
H343 H 0.04448 0.39712 0.2857 0.0
C344 C 0.0943 0.43867 0.29305 0.0
C345 C 0.08428 0.45793 0.29698 0.0
C346 C 0.08778 0.42001 0.3028 0.0
C347 C 0.07111 0.42026 0.31658 0.0
C348 C 0.06123 0.43949 0.32078 0.0
H349 H 0.99318 0.32341 0.37042 0.0
H350 H 0.00883 0.35097 0.34893 0.0
C351 C 0.06769 0.45817 0.31097 0.0
C352 C 0.06414 0.40054 0.32693 0.0
H353 H 0.04002 0.35003 0.31651 0.0
C354 C 0.06684 0.40048 0.34944 0.0
C355 C 0.05443 0.38217 0.31483 0.0
C356 C 0.05062 0.38172 0.29064 0.0
C357 C 0.05994 0.38251 0.36025 0.0
C358 C 0.0503 0.3641 0.34817 0.0
C359 C 0.04767 0.36411 0.32564 0.0
C360 C 0.0413 0.34543 0.3589 0.0
C361 C 0.06239 0.3836 0.38457 0.0
C362 C 0.05446 0.33268 0.37098 0.0
C363 C 0.04558 0.31685 0.38331 0.0
C364 C 0.02338 0.31361 0.38378 0.0
C365 C 0.01032 0.32561 0.37062 0.0
C366 C 0.01922 0.34133 0.35826 0.0
H367 H 0.06675 0.40025 0.39156 0.0
H368 H 0.04744 0.37759 0.3913 0.0
H369 H 0.0751 0.37316 0.38976 0.0
H370 H 0.07158 0.33546 0.37141 0.0
H371 H 0.05609 0.30783 0.39317 0.0
H372 H 0.96987 0.81484 0.55213 0.0
H373 H 0.9457 0.84379 0.54712 0.0
H374 H 0.8943 0.80307 0.56821 0.0
H375 H 0.91832 0.77468 0.57394 0.0
H376 H 0.91138 0.84623 0.52164 0.0
H377 H 0.88791 0.85652 0.60494 0.0
H378 H 0.91012 0.84122 0.59803 0.0
H379 H 0.88348 0.82865 0.59591 0.0
C380 C 0.95342 0.8122 0.55581 0.0
C381 C 0.94601 0.79262 0.56365 0.0
C382 C 0.93967 0.82874 0.553 0.0
C383 C 0.91832 0.82585 0.55791 0.0
C384 C 0.91087 0.80604 0.56514 0.0
H385 H 0.8049 0.86428 0.50305 0.0
H386 H 0.84079 0.85368 0.51046 0.0
C387 C 0.92459 0.78972 0.56822 0.0
C388 C 0.90325 0.84283 0.55442 0.0
H389 H 0.86147 0.86528 0.57702 0.0
C390 C 0.90076 0.85082 0.5339 0.0
C391 C 0.88987 0.84956 0.57058 0.0
C392 C 0.8932 0.84372 0.59365 0.0
C393 C 0.88401 0.86371 0.52856 0.0
C394 C 0.86893 0.86797 0.54391 0.0
C395 C 0.87264 0.86165 0.565 0.0
C396 C 0.84812 0.87662 0.53795 0.0
C397 C 0.88254 0.87223 0.50641 0.0
C398 C 0.83988 0.89276 0.55118 0.0
C399 C 0.81895 0.89838 0.54736 0.0
C400 C 0.80599 0.88812 0.53008 0.0
C401 C 0.81454 0.87265 0.51636 0.0
C402 C 0.83524 0.86673 0.52045 0.0
H403 H 0.89864 0.87592 0.50082 0.0
H404 H 0.87438 0.8597 0.49479 0.0
H405 H 0.87367 0.88705 0.5061 0.0
H406 H 0.84943 0.90055 0.56487 0.0
H407 H 0.81279 0.91041 0.55816 0.0
H408 H 0.37834 0.58154 0.78784 0.0
H409 H 0.4 0.61512 0.79738 0.0
H410 H 0.43498 0.58418 0.84704 0.0
H411 H 0.41357 0.55055 0.83762 0.0
H412 H 0.40041 0.6355 0.83923 0.0
H413 H 0.48197 0.61869 0.81798 0.0
H414 H 0.45863 0.60276 0.8065 0.0
H415 H 0.46921 0.59867 0.83328 0.0
C416 C 0.39092 0.58172 0.8005 0.0
C417 C 0.39409 0.56336 0.81207 0.0
C418 C 0.40329 0.60093 0.80591 0.0
C419 C 0.41923 0.60206 0.82276 0.0
C420 C 0.42304 0.58355 0.83371 0.0
H421 H 0.49033 0.70183 0.90414 0.0
H422 H 0.4781 0.66801 0.88355 0.0
C423 C 0.41063 0.56437 0.82841 0.0
C424 C 0.42998 0.62313 0.8307 0.0
H425 H 0.47856 0.65038 0.84081 0.0
C426 C 0.41746 0.63889 0.83931 0.0
C427 C 0.45225 0.62731 0.83105 0.0
C428 C 0.46633 0.61105 0.82155 0.0
C429 C 0.42663 0.65854 0.84884 0.0
C430 C 0.44893 0.66281 0.8492 0.0
C431 C 0.46148 0.64712 0.8404 0.0
C432 C 0.45931 0.68328 0.85934 0.0
C433 C 0.41237 0.67417 0.85918 0.0
C434 C 0.45366 0.70308 0.85193 0.0
C435 C 0.46038 0.72233 0.86377 0.0
C436 C 0.47323 0.72216 0.88302 0.0
C437 C 0.48043 0.70246 0.88938 0.0
C438 C 0.47343 0.68313 0.87766 0.0
H439 H 0.39679 0.66618 0.86244 0.0
H440 H 0.41995 0.68177 0.87461 0.0
H441 H 0.4093 0.68711 0.84815 0.0
H442 H 0.44322 0.70357 0.83753 0.0
H443 H 0.45483 0.73729 0.85828 0.0
H444 H 0.55197 0.22976 0.08553 0.0
H445 H 0.58906 0.22224 0.08137 0.0
H446 H 0.58416 0.24259 0.01641 0.0
H447 H 0.54701 0.24986 0.02026 0.0
H448 H 0.60395 0.20419 0.02 0.0
H449 H 0.63886 0.26763 0.08095 0.0
H450 H 0.61932 0.2491 0.09069 0.0
H451 H 0.61156 0.26683 0.07035 0.0
C452 C 0.55878 0.23265 0.07035 0.0
C453 C 0.54656 0.24051 0.05325 0.0
C454 C 0.58001 0.22845 0.06806 0.0
C455 C 0.58942 0.23217 0.0487 0.0
C456 C 0.57719 0.2397 0.03151 0.0
H457 H 0.72174 0.2448 0.02256 0.0
H458 H 0.68454 0.24986 0.02875 0.0
C459 C 0.55597 0.24387 0.03376 0.0
C460 C 0.61197 0.22809 0.0462 0.0
H461 H 0.66259 0.24404 0.06562 0.0
C462 C 0.61679 0.21286 0.02998 0.0
C463 C 0.62865 0.23962 0.05911 0.0
C464 C 0.62443 0.25685 0.07614 0.0
C465 C 0.63789 0.20881 0.02632 0.0
C466 C 0.65456 0.22007 0.03949 0.0
C467 C 0.64974 0.23532 0.05569 0.0
C468 C 0.67715 0.21685 0.03617 0.0
C469 C 0.64217 0.19295 0.00805 0.0
C470 C 0.68537 0.19668 0.0386 0.0
C471 C 0.70662 0.1937 0.03501 0.0
C472 C 0.72005 0.21091 0.02907 0.0
C473 C 0.71183 0.2312 0.02705 0.0
C474 C 0.69058 0.23414 0.03061 0.0
H475 H 0.62811 0.18966 0.99641 0.0
H476 H 0.65582 0.199 -0.00078 0.0
H477 H 0.64616 0.17747 0.01468 0.0
H478 H 0.67536 0.18325 0.04329 0.0
H479 H 0.7125 0.17791 0.03683 0.0
H480 H 0.09825 0.57966 0.24547 0.0
H481 H 0.08453 0.61293 0.23321 0.0
H482 H 0.03113 0.60455 0.2724 0.0
H483 H 0.04452 0.57102 0.28449 0.0
H484 H 0.01921 0.61305 0.23083 0.0
H485 H 0.08392 0.67207 0.26467 0.0
H486 H 0.0931 0.65015 0.24846 0.0
H487 H 0.08103 0.64491 0.27317 0.0
C488 C 0.08372 0.58501 0.25171 0.0
C489 C 0.07248 0.57267 0.26598 0.0
C490 C 0.07595 0.6041 0.24475 0.0
C491 C 0.05694 0.61135 0.25209 0.0
C492 C 0.04587 0.59927 0.26659 0.0
H493 H 0.00909 0.73675 0.23194 0.0
H494 H 0.0223 0.70454 0.24716 0.0
C495 C 0.05358 0.58013 0.27352 0.0
C496 C 0.048 0.63087 0.24372 0.0
H497 H 0.05891 0.68469 0.23894 0.0
C498 C 0.02783 0.62875 0.2327 0.0
C499 C 0.05918 0.65136 0.24637 0.0
C500 C 0.08042 0.65487 0.25899 0.0
C501 C 0.01869 0.64649 0.22392 0.0
C502 C 0.0302 0.66681 0.22589 0.0
C503 C 0.0502 0.66903 0.23726 0.0
C504 C 0.0217 0.68607 0.21652 0.0
C505 C 0.99666 0.64336 0.2129 0.0
C506 C 0.01707 0.68642 0.1942 0.0
C507 C 0.00942 0.70479 0.18543 0.0
C508 C 0.00644 0.72323 0.19883 0.0
C509 C 0.01116 0.72283 0.22117 0.0
C510 C 0.01875 0.70445 0.22991 0.0
H511 H 0.9879 0.62861 0.21779 0.0
H512 H 0.98727 0.65745 0.21659 0.0
H513 H 0.99789 0.64161 0.19519 0.0
H514 H 0.01964 0.67257 0.18352 0.0
H515 H 0.00608 0.70462 0.16815 0.0
H516 H 0.5528 0.75942 0.42266 0.0
H517 H 0.57988 0.7828 0.44402 0.0
H518 H 0.61072 0.79665 0.38601 0.0
H519 H 0.58436 0.77218 0.36489 0.0
H520 H 0.6391 0.79054 0.41496 0.0
H521 H 0.58548 0.84599 0.45267 0.0
H522 H 0.57855 0.81892 0.45906 0.0
H523 H 0.57614 0.82607 0.43141 0.0
C524 C 0.56537 0.76753 0.41454 0.0
C525 C 0.56664 0.76398 0.39222 0.0
C526 C 0.58071 0.78107 0.42669 0.0
C527 C 0.59709 0.79199 0.4166 0.0
C528 C 0.59823 0.78848 0.3942 0.0
H529 H 0.67776 0.89337 0.49083 0.0
H530 H 0.65113 0.87381 0.4654 0.0
C531 C 0.58324 0.77445 0.38213 0.0
C532 C 0.61358 0.8062 0.42952 0.0
H533 H 0.62069 0.84613 0.46987 0.0
C534 C 0.63504 0.80289 0.42675 0.0
C535 C 0.60842 0.82271 0.44459 0.0
C536 C 0.58589 0.82879 0.4469 0.0
C537 C 0.65141 0.81513 0.43905 0.0
C538 C 0.64618 0.83037 0.45537 0.0
C539 C 0.62475 0.83418 0.45766 0.0
C540 C 0.6626 0.84232 0.47045 0.0
C541 C 0.67407 0.81177 0.43404 0.0
C542 C 0.67778 0.83119 0.48195 0.0
C543 C 0.69326 0.84241 0.49604 0.0
C544 C 0.69334 0.86488 0.49955 0.0
C545 C 0.67785 0.87602 0.48858 0.0
C546 C 0.6627 0.86484 0.47401 0.0
H547 H 0.67505 0.80609 0.41689 0.0
H548 H 0.68445 0.82681 0.43735 0.0
H549 H 0.68028 0.79916 0.44409 0.0
H550 H 0.67759 0.81378 0.48018 0.0
H551 H 0.70494 0.83348 0.50455 0.0
H552 H 0.46727 0.34686 0.6562 0.0
H553 H 0.4484 0.3768 0.67083 0.0
H554 H 0.42918 0.33893 0.72278 0.0
H555 H 0.44787 0.30857 0.70806 0.0
H556 H 0.39658 0.36475 0.70297 0.0
H557 H 0.47331 0.4111 0.72758 0.0
H558 H 0.46996 0.40099 0.69982 0.0
H559 H 0.47152 0.38242 0.72071 0.0
C560 C 0.45873 0.34467 0.67051 0.0
C561 C 0.45913 0.32533 0.68102 0.0
C562 C 0.44807 0.36188 0.6789 0.0
C563 C 0.43771 0.36011 0.698 0.0
C564 C 0.43719 0.34055 0.70803 0.0
H565 H 0.40171 0.4559 0.79047 0.0
H566 H 0.41735 0.42695 0.77007 0.0
C567 C 0.44787 0.32326 0.69963 0.0
C568 C 0.4285 0.3791 0.70813 0.0
H569 H 0.44201 0.42881 0.73316 0.0
C570 C 0.40644 0.37881 0.70952 0.0
C571 C 0.44154 0.39727 0.71678 0.0
C572 C 0.46542 0.39802 0.71636 0.0
C573 C 0.39701 0.39635 0.71938 0.0
C574 C 0.41005 0.41459 0.72783 0.0
C575 C 0.4321 0.41485 0.72642 0.0
C576 C 0.40126 0.43296 0.73957 0.0
C577 C 0.37329 0.39502 0.72122 0.0
C578 C 0.38747 0.44626 0.72899 0.0
C579 C 0.37851 0.46294 0.7406 0.0
C580 C 0.38319 0.46649 0.76298 0.0
C581 C 0.39763 0.45354 0.7733 0.0
C582 C 0.40661 0.43699 0.76168 0.0
H583 H 0.36607 0.37839 0.71738 0.0
H584 H 0.36943 0.40049 0.73775 0.0
H585 H 0.36591 0.40579 0.7098 0.0
H586 H 0.38345 0.44356 0.71182 0.0
H587 H 0.36748 0.47263 0.73215 0.0
H588 H 0.971 0.24735 0.91396 0.0
H589 H 0.93456 0.2426 0.92408 0.0
H590 H 0.91402 0.22008 0.85875 0.0
H591 H 0.95086 0.22454 0.84841 0.0
H592 H 0.89656 0.25965 0.90843 0.0
H593 H 0.8949 0.17013 0.89534 0.0
H594 H 0.91937 0.18681 0.89624 0.0
H595 H 0.90088 0.18606 0.8731 0.0
C596 C 0.95879 0.24149 0.90164 0.0
C597 C 0.96387 0.23607 0.88043 0.0
C598 C 0.93792 0.23891 0.90745 0.0
C599 C 0.92165 0.23082 0.89222 0.0
C600 C 0.92643 0.22611 0.87079 0.0
H601 H 0.79845 0.21908 0.95285 0.0
H602 H 0.82243 0.22688 0.92435 0.0
C603 C 0.94744 0.22872 0.86492 0.0
C604 C 0.90016 0.22619 0.89964 0.0
H605 H 0.86772 0.18448 0.91429 0.0
C606 C 0.88988 0.24327 0.90927 0.0
C607 C 0.89162 0.20477 0.90072 0.0
C608 C 0.90222 0.1858 0.89092 0.0
C609 C 0.87216 0.23941 0.92132 0.0
C610 C 0.86444 0.2179 0.9235 0.0
C611 C 0.87375 0.20093 0.91253 0.0
C612 C 0.84921 0.2125 0.93974 0.0
C613 C 0.86287 0.2582 0.93298 0.0
C614 C 0.85626 0.20156 0.95757 0.0
C615 C 0.8427 0.19707 0.97373 0.0
C616 C 0.82174 0.20336 0.97239 0.0
C617 C 0.81457 0.21412 0.95438 0.0
C618 C 0.82821 0.21861 0.93812 0.0
H619 H 0.87235 0.27364 0.93162 0.0
H620 H 0.84651 0.25989 0.92606 0.0
H621 H 0.86192 0.25535 0.95033 0.0
H622 H 0.87246 0.19683 0.95918 0.0
H623 H 0.84881 0.18894 0.98745 0.0
H624 H 0.32147 0.0426 0.45047 0.0
H625 H 0.34008 0.02975 0.41924 0.0
H626 H 0.31412 0.07921 0.38206 0.0
H627 H 0.29533 0.09189 0.41281 0.0
H628 H 0.30727 0.03742 0.36231 0.0
H629 H 0.39194 0.05653 0.39036 0.0
H630 H 0.37635 0.042 0.40859 0.0
H631 H 0.3704 0.06899 0.40295 0.0
C632 C 0.32002 0.05094 0.43575 0.0
C633 C 0.30699 0.06833 0.43417 0.0
C634 C 0.33072 0.04365 0.41797 0.0
C635 C 0.32859 0.05368 0.39844 0.0
C636 C 0.31604 0.07134 0.39703 0.0
H637 H 0.39783 0.0263 0.28396 0.0
H638 H 0.38024 0.04496 0.31297 0.0
C639 C 0.30538 0.07862 0.41471 0.0
C640 C 0.33804 0.04486 0.37893 0.0
H641 H 0.38511 0.03456 0.35773 0.0
C642 C 0.3243 0.03689 0.36124 0.0
C643 C 0.36023 0.04446 0.37755 0.0
C644 C 0.37566 0.05361 0.39578 0.0
C645 C 0.33217 0.02802 0.34235 0.0
C646 C 0.35433 0.02695 0.34125 0.0
C647 C 0.36811 0.0354 0.35871 0.0
C648 C 0.36347 0.01612 0.32254 0.0
C649 C 0.31675 0.01987 0.32372 0.0
C650 C 0.35959 0.99382 0.31823 0.0
C651 C 0.36959 0.98313 0.30176 0.0
C652 C 0.3837 0.99454 0.28929 0.0
C653 C 0.38697 0.01705 0.29317 0.0
C654 C 0.37704 0.02772 0.30979 0.0
H655 H 0.30103 0.02671 0.32498 0.0
H656 H 0.32305 0.0239 0.30811 0.0
H657 H 0.31436 0.00206 0.32368 0.0
H658 H 0.34934 0.98457 0.32807 0.0
H659 H 0.3667 0.9658 0.29921 0.0
H660 H 0.14865 0.00588 0.68029 0.0
H661 H 0.1603 0.01581 0.64521 0.0
H662 H 0.22173 0.03837 0.67503 0.0
H663 H 0.21036 0.02843 0.71004 0.0
H664 H 0.1758 0.05761 0.63388 0.0
H665 H 0.23563 0.99675 0.62439 0.0
H666 H 0.21525 0.99463 0.64336 0.0
H667 H 0.23843 0.01269 0.64958 0.0
C668 C 0.16468 0.01285 0.67936 0.0
C669 C 0.17861 0.01628 0.69795 0.0
C670 C 0.17128 0.01854 0.65933 0.0
C671 C 0.19195 0.02755 0.65751 0.0
C672 C 0.20584 0.03108 0.67603 0.0
H673 H 0.2642 0.07442 0.55416 0.0
H674 H 0.25166 0.06404 0.58869 0.0
C675 C 0.19925 0.02547 0.69605 0.0
C676 C 0.19891 0.03381 0.63638 0.0
H677 H 0.23527 0.02393 0.59933 0.0
C678 C 0.1887 0.05018 0.62622 0.0
C679 C 0.21581 0.02412 0.62654 0.0
C680 C 0.22684 0.00594 0.63639 0.0
C681 C 0.19527 0.05747 0.60665 0.0
C682 C 0.2122 0.0478 0.59681 0.0
C683 C 0.22233 0.03135 0.60694 0.0
C684 C 0.21961 0.05441 0.57593 0.0
C685 C 0.18438 0.07584 0.59699 0.0
C686 C 0.20581 0.05222 0.55727 0.0
C687 C 0.21289 0.05819 0.53755 0.0
C688 C 0.23399 0.06629 0.53606 0.0
C689 C 0.24785 0.06828 0.55475 0.0
C690 C 0.24072 0.06234 0.57449 0.0
H691 H 0.17593 0.08517 0.60917 0.0
H692 H 0.19596 0.087 0.58983 0.0
H693 H 0.17247 0.06925 0.58402 0.0
H694 H 0.18959 0.04569 0.55792 0.0
H695 H 0.20183 0.05632 0.52345 0.0
H696 H 0.14593 0.97554 0.82615 0.0
H697 H 0.16051 0.95847 0.85752 0.0
H698 H 0.21443 0.94123 0.82262 0.0
H699 H 0.19966 0.95781 0.79088 0.0
H700 H 0.19681 0.90765 0.84379 0.0
H701 H 0.21035 0.98139 0.89902 0.0
H702 H 0.18362 0.97685 0.88733 0.0
H703 H 0.20497 0.9824 0.8703 0.0
C704 C 0.16082 0.96801 0.82506 0.0
C705 C 0.17159 0.96793 0.80596 0.0
C706 C 0.16926 0.95849 0.84312 0.0
C707 C 0.18872 0.94894 0.84251 0.0
C708 C 0.19943 0.94866 0.82344 0.0
H709 H 0.27082 0.88807 0.93194 0.0
H710 H 0.25558 0.91029 0.90478 0.0
C711 C 0.19097 0.95812 0.80532 0.0
C712 C 0.19756 0.93853 0.8615 0.0
H713 H 0.21502 0.94788 0.91454 0.0
C714 C 0.20084 0.91646 0.85922 0.0
C715 C 0.20281 0.95011 0.88163 0.0
C716 C 0.20046 0.97404 0.88474 0.0
C717 C 0.20908 0.90561 0.87659 0.0
C718 C 0.21417 0.91714 0.89667 0.0
C719 C 0.21091 0.93916 0.89907 0.0
C720 C 0.22362 0.90642 0.91504 0.0
C721 C 0.21238 0.88187 0.87346 0.0
C722 C 0.21068 0.89748 0.9301 0.0
C723 C 0.21929 0.88469 0.94567 0.0
C724 C 0.24098 0.88063 0.9463 0.0
C725 C 0.25404 0.8907 0.93185 0.0
C726 C 0.24541 0.90345 0.91634 0.0
H727 H 0.20616 0.87489 0.85727 0.0
H728 H 0.22961 0.87938 0.87544 0.0
H729 H 0.20441 0.87295 0.88594 0.0
H730 H 0.19379 0.89965 0.92922 0.0
H731 H 0.20878 0.87724 0.95656 0.0
H732 H 0.32619 0.86069 0.03235 0.0
H733 H 0.34179 0.87928 0.06575 0.0
H734 H 0.27974 0.89734 0.08226 0.0
H735 H 0.26386 0.87769 0.04925 0.0
H736 H 0.34449 0.91917 0.08066 0.0
H737 H 0.29837 0.8716 0.13639 0.0
H738 H 0.29767 0.86435 0.10789 0.0
H739 H 0.28199 0.88542 0.11799 0.0
C740 C 0.31583 0.86859 0.0431 0.0
C741 C 0.29377 0.86758 0.03824 0.0
C742 C 0.32478 0.87925 0.0622 0.0
C743 C 0.31194 0.88943 0.07679 0.0
C744 C 0.28994 0.88907 0.07164 0.0
H745 H 0.37821 0.97259 0.18371 0.0
H746 H 0.3561 0.96082 0.15082 0.0
C747 C 0.28089 0.87797 0.05269 0.0
C748 C 0.32183 0.90025 0.09729 0.0
H749 H 0.32109 0.90062 0.1521 0.0
C750 C 0.33935 0.91512 0.09629 0.0
C751 C 0.31524 0.89488 0.11773 0.0
C752 C 0.29743 0.87804 0.12014 0.0
C753 C 0.35086 0.92424 0.11503 0.0
C754 C 0.34412 0.91905 0.13546 0.0
C755 C 0.32619 0.9047 0.13646 0.0
C756 C 0.35641 0.92675 0.15596 0.0
C757 C 0.37072 0.93843 0.11263 0.0
C758 C 0.36313 0.91167 0.17034 0.0
C759 C 0.3752 0.91839 0.18937 0.0
C760 C 0.38109 0.94035 0.19436 0.0
C761 C 0.37412 0.95553 0.18016 0.0
C762 C 0.36162 0.9488 0.16128 0.0
H763 H 0.37673 0.93599 0.09633 0.0
H764 H 0.36711 0.95559 0.11497 0.0
H765 H 0.38357 0.93525 0.12478 0.0
H766 H 0.35935 0.89457 0.16666 0.0
H767 H 0.38038 0.90626 0.1999 0.0
H768 H 0.31801 0.42198 0.0539 0.0
H769 H 0.35413 0.41143 0.06225 0.0
H770 H 0.34969 0.37029 0.00352 0.0
H771 H 0.31442 0.38172 0.99458 0.0
H772 H 0.36375 0.37476 0.07184 0.0
H773 H 0.40922 0.39119 0.00191 0.0
H774 H 0.38408 0.40266 0.00557 0.0
H775 H 0.38512 0.37627 0.99201 0.0
C776 C 0.32506 0.4112 0.04249 0.0
C777 C 0.31338 0.40264 0.02362 0.0
C778 C 0.34569 0.40516 0.04727 0.0
C779 C 0.35489 0.39024 0.03341 0.0
C780 C 0.34344 0.38238 0.01416 0.0
H781 H 0.41678 0.28168 0.06588 0.0
H782 H 0.39457 0.31164 0.06042 0.0
C783 C 0.32306 0.38877 0.00916 0.0
C784 C 0.37474 0.38028 0.04038 0.0
H785 H 0.41835 0.35862 0.02047 0.0
C786 C 0.37598 0.37178 0.06077 0.0
C787 C 0.39117 0.37676 0.02637 0.0
C788 C 0.3924 0.38748 0.00538 0.0
C789 C 0.39201 0.35834 0.06667 0.0
C790 C 0.40669 0.35248 0.05146 0.0
C791 C 0.40671 0.36255 0.03191 0.0
C792 C 0.42059 0.33447 0.0547 0.0
C793 C 0.39268 0.35017 0.089 0.0
C794 C 0.44253 0.33696 0.05224 0.0
C795 C 0.45527 0.31958 0.05487 0.0
C796 C 0.44623 0.29952 0.0601 0.0
C797 C 0.42425 0.29703 0.06221 0.0
C798 C 0.41156 0.31423 0.05928 0.0
H799 H 0.38681 0.36218 0.10076 0.0
H800 H 0.38208 0.33526 0.08888 0.0
H801 H 0.409 0.34654 0.09464 0.0
H802 H 0.44981 0.35236 0.04844 0.0
H803 H 0.47218 0.32193 0.05313 0.0
H804 H 0.93292 0.80739 0.20048 0.0
H805 H 0.91581 0.83975 0.21263 0.0
H806 H 0.9394 0.87302 0.15939 0.0
H807 H 0.95681 0.84107 0.1474 0.0
H808 H 0.95047 0.89441 0.19877 0.0
H809 H 0.86416 0.87078 0.19083 0.0
H810 H 0.87956 0.85213 0.20489 0.0
H811 H 0.88337 0.85582 0.17695 0.0
C812 C 0.93404 0.82143 0.19108 0.0
C813 C 0.94625 0.82164 0.17299 0.0
C814 C 0.92417 0.83987 0.19798 0.0
C815 C 0.92622 0.85871 0.1868 0.0
C816 C 0.93756 0.85861 0.16818 0.0
H817 H 0.86585 0.97572 0.22889 0.0
H818 H 0.87929 0.94746 0.2053 0.0
C819 C 0.94745 0.84026 0.16132 0.0
C820 C 0.91874 0.87918 0.19587 0.0
H821 H 0.87511 0.90256 0.21356 0.0
C822 C 0.93394 0.8963 0.20174 0.0
C823 C 0.89717 0.88168 0.19949 0.0
C824 C 0.88007 0.8642 0.19252 0.0
C825 C 0.92827 0.91555 0.21201 0.0
C826 C 0.9069 0.91758 0.21673 0.0
C827 C 0.89153 0.90086 0.21 0.0
C828 C 0.90048 0.93615 0.23014 0.0
C829 C 0.94522 0.93343 0.21803 0.0
C830 C 0.90824 0.93929 0.25176 0.0
C831 C 0.90061 0.95532 0.26526 0.0
C832 C 0.88503 0.96851 0.25738 0.0
C833 C 0.87794 0.96592 0.23544 0.0
C834 C 0.88549 0.94973 0.22196 0.0
H835 H 0.95913 0.93192 0.20811 0.0
H836 H 0.9389 0.94948 0.21606 0.0
H837 H 0.95082 0.93262 0.23519 0.0
H838 H 0.91961 0.92877 0.25843 0.0
H839 H 0.90641 0.95687 0.28206 0.0
H840 H 0.21081 0.67664 0.52883 0.0
H841 H 0.17495 0.68494 0.53778 0.0
H842 H 0.19286 0.75293 0.53817 0.0
H843 H 0.22868 0.74484 0.52903 0.0
H844 H 0.16218 0.70988 0.57388 0.0
H845 H 0.13931 0.74478 0.4965 0.0
H846 H 0.16194 0.72873 0.49981 0.0
H847 H 0.16369 0.75648 0.50993 0.0
C848 C 0.20713 0.69337 0.53078 0.0
C849 C 0.22258 0.71009 0.52809 0.0
C850 C 0.18665 0.69806 0.53592 0.0
C851 C 0.18121 0.71952 0.53832 0.0
C852 C 0.19665 0.73625 0.53598 0.0
H853 H 0.06647 0.78179 0.56619 0.0
H854 H 0.10269 0.77319 0.5591 0.0
C855 C 0.21714 0.73159 0.53086 0.0
C856 C 0.1594 0.72442 0.54345 0.0
H857 H 0.11546 0.7481 0.5242 0.0
C858 C 0.1519 0.71815 0.56301 0.0
C859 C 0.14609 0.73522 0.5292 0.0
C860 C 0.15304 0.74155 0.50759 0.0
C861 C 0.13152 0.72279 0.56891 0.0
C862 C 0.11823 0.73363 0.55467 0.0
C863 C 0.12573 0.73984 0.53509 0.0
C864 C 0.09643 0.73869 0.55971 0.0
C865 C 0.12458 0.71647 0.59052 0.0
C866 C 0.08088 0.72211 0.56226 0.0
C867 C 0.06016 0.72696 0.56634 0.0
C868 C 0.05459 0.74849 0.56777 0.0
C869 C 0.07022 0.76504 0.56518 0.0
C870 C 0.09093 0.76017 0.56113 0.0
H871 H 0.13834 0.71344 0.60167 0.0
H872 H 0.11551 0.72921 0.59822 0.0
H873 H 0.1141 0.70143 0.58822 0.0
H874 H 0.0847 0.70539 0.56079 0.0
H875 H 0.04848 0.71382 0.56815 0.0
H876 H 0.94585 0.71119 0.65394 0.0
H877 H 0.94309 0.67788 0.6725 0.0
H878 H 0.98547 0.64904 0.62918 0.0
H879 H 0.9887 0.6825 0.61071 0.0
H880 H 0.92705 0.63897 0.65444 0.0
H881 H 0.00989 0.6328 0.68729 0.0
H882 H 0.00062 0.65738 0.67731 0.0
H883 H 0.00767 0.63607 0.65882 0.0
C884 C 0.95484 0.69788 0.64849 0.0
C885 C 0.96747 0.69951 0.63078 0.0
C886 C 0.95322 0.67885 0.65915 0.0
C887 C 0.96421 0.66105 0.65236 0.0
C888 C 0.9772 0.66273 0.63498 0.0
H889 H 0.96069 0.52717 0.68213 0.0
H890 H 0.9664 0.56201 0.66661 0.0
C891 C 0.97894 0.68184 0.62437 0.0
C892 C 0.96078 0.64031 0.66248 0.0
H893 H 0.9862 0.60161 0.68847 0.0
C894 C 0.93996 0.63088 0.66203 0.0
C895 C 0.97766 0.62978 0.67232 0.0
C896 C 0.00019 0.6396 0.67418 0.0
C897 C 0.93561 0.61101 0.67082 0.0
C898 C 0.95251 0.60042 0.68047 0.0
C899 C 0.97331 0.60982 0.68099 0.0
C900 C 0.94888 0.57943 0.68995 0.0
C901 C 0.91305 0.60127 0.66932 0.0
C902 C 0.93721 0.57778 0.70827 0.0
C903 C 0.93391 0.5579 0.71721 0.0
C904 C 0.94227 0.53935 0.70797 0.0
C905 C 0.95396 0.54111 0.6896 0.0
C906 C 0.95731 0.561 0.68074 0.0
H907 H 0.90271 0.60916 0.65752 0.0
H908 H 0.91254 0.58375 0.66457 0.0
H909 H 0.90641 0.60323 0.68534 0.0
H910 H 0.9308 0.59191 0.71574 0.0
H911 H 0.92491 0.55711 0.73141 0.0
H912 H 0.20967 0.12246 0.48929 0.0
H913 H 0.17668 0.14087 0.48618 0.0
H914 H 0.20633 0.18719 0.44688 0.0
H915 H 0.23924 0.16874 0.44953 0.0
H916 H 0.166 0.18345 0.49553 0.0
H917 H 0.15586 0.16025 0.40773 0.0
H918 H 0.17503 0.14867 0.42551 0.0
H919 H 0.18061 0.17503 0.41612 0.0
C920 C 0.2093 0.13675 0.48025 0.0
C921 C 0.22698 0.14393 0.46936 0.0
C922 C 0.19042 0.14722 0.47847 0.0
C923 C 0.18897 0.16502 0.46585 0.0
C924 C 0.20701 0.17312 0.45622 0.0
H925 H 0.08689 0.24365 0.42726 0.0
H926 H 0.12093 0.22756 0.43316 0.0
C927 C 0.22582 0.16261 0.45786 0.0
C928 C 0.16834 0.17447 0.46187 0.0
H929 H 0.13124 0.18362 0.42182 0.0
C930 C 0.15835 0.18345 0.47945 0.0
C931 C 0.15841 0.17431 0.44084 0.0
C932 C 0.16789 0.16388 0.42147 0.0
C933 C 0.13878 0.19267 0.4765 0.0
C934 C 0.12895 0.19262 0.45546 0.0
C935 C 0.13893 0.18364 0.4379 0.0
C936 C 0.10825 0.2018 0.45135 0.0
C937 C 0.12891 0.20272 0.4958 0.0
C938 C 0.08985 0.19222 0.45915 0.0
C939 C 0.07037 0.20127 0.45571 0.0
C940 C 0.06902 0.22005 0.44442 0.0
C941 C 0.08742 0.22922 0.43608 0.0
C942 C 0.10687 0.2201 0.43946 0.0
H943 H 0.1405 0.20552 0.51002 0.0
H944 H 0.12243 0.21831 0.49201 0.0
H945 H 0.11557 0.19177 0.50021 0.0
H946 H 0.09059 0.17784 0.46803 0.0
H947 H 0.05649 0.19377 0.46228 0.0
H948 H 0.59798 0.40559 0.26839 0.0
H949 H 0.57924 0.37544 0.24655 0.0
H950 H 0.5825 0.41206 0.19009 0.0
H951 H 0.60232 0.4417 0.21165 0.0
H952 H 0.54263 0.37307 0.2269 0.0
H953 H 0.59931 0.35649 0.16507 0.0
H954 H 0.60653 0.37415 0.18879 0.0
H955 H 0.59294 0.38411 0.16547 0.0
C956 C 0.595 0.40702 0.25123 0.0
C957 C 0.6017 0.4259 0.24167 0.0
C958 C 0.58427 0.3898 0.23877 0.0
C959 C 0.5797 0.39126 0.21655 0.0
C960 C 0.58642 0.41017 0.207 0.0
H961 H 0.47392 0.32198 0.14251 0.0
H962 H 0.49751 0.3467 0.16644 0.0
C963 C 0.59762 0.42719 0.21938 0.0
C964 C 0.56662 0.37368 0.20377 0.0
H965 H 0.56311 0.34292 0.15623 0.0
C966 C 0.54728 0.36628 0.21158 0.0
C967 C 0.57277 0.36444 0.18395 0.0
C968 C 0.59414 0.37005 0.17548 0.0
C969 C 0.5337 0.35041 0.19991 0.0
C970 C 0.53911 0.34238 0.17934 0.0
C971 C 0.55874 0.34929 0.17182 0.0
C972 C 0.52458 0.32708 0.1652 0.0
C973 C 0.51389 0.34225 0.21 0.0
C974 C 0.53207 0.30815 0.15585 0.0
C975 C 0.51877 0.29431 0.14164 0.0
C976 C 0.49762 0.29899 0.13675 0.0
C977 C 0.49005 0.31779 0.14628 0.0
C978 C 0.50349 0.33186 0.16009 0.0
H979 H 0.51599 0.34391 0.22788 0.0
H980 H 0.50054 0.352 0.20506 0.0
H981 H 0.5095 0.32506 0.20492 0.0
H982 H 0.54828 0.30413 0.15945 0.0
H983 H 0.52503 0.27993 0.13452 0.0
H984 H 0.28147 0.77045 0.02274 0.0
H985 H 0.31316 0.74948 0.02315 0.0
H986 H 0.32934 0.77443 0.96276 0.0
H987 H 0.29783 0.79479 0.96196 0.0
H988 H 0.33493 0.72972 0.96535 0.0
H989 H 0.37294 0.78 0.03649 0.0
H990 H 0.34746 0.76595 0.03858 0.0
H991 H 0.34966 0.78828 0.02181 0.0
C992 C 0.29172 0.77124 0.00948 0.0
C993 C 0.28741 0.78454 0.99249 0.0
C994 C 0.30979 0.75931 0.00977 0.0
C995 C 0.32364 0.76059 0.99308 0.0
C996 C 0.31882 0.7732 0.97578 0.0
H997 H 0.43191 0.77576 0.94145 0.0
H998 H 0.3967 0.76719 0.95339 0.0
C999 C 0.3009 0.78502 0.97546 0.0
C1000 C 0.34414 0.75047 0.99381 0.0
H1001 H 0.39526 0.76217 0.01389 0.0
C1002 C 0.34805 0.73614 0.97644 0.0
C1003 C 0.36117 0.75876 0.00842 0.0
C1004 C 0.35778 0.77414 0.0274 0.0
C1005 C 0.36885 0.73193 0.97184 0.0
C1006 C 0.38594 0.74228 0.98498 0.0
C1007 C 0.38198 0.75437 0.00386 0.0
C1008 C 0.40718 0.74518 0.97676 0.0
C1009 C 0.37251 0.71812 0.95186 0.0
C1010 C 0.4247 0.73566 0.98608 0.0
C1011 C 0.44497 0.74032 0.97902 0.0
C1012 C 0.44795 0.75492 0.9629 0.0
C1013 C 0.43025 0.76435 0.9537 0.0
C1014 C 0.41007 0.75941 0.96047 0.0
H1015 H 0.35856 0.70672 0.94698 0.0
H1016 H 0.37518 0.72865 0.93841 0.0
H1017 H 0.3868 0.70884 0.95444 0.0
H1018 H 0.42271 0.72486 -0.00111 0.0
H1019 H 0.45833 0.73288 0.98651 0.0
H1020 H 0.98053 0.43901 0.72315 0.0
H1021 H 0.99788 0.40481 0.72288 0.0
H1022 H 0.95456 0.38114 0.76813 0.0
H1023 H 0.9376 0.41502 0.7689 0.0
H1024 H 0.01669 0.38906 0.76192 0.0
H1025 H 0.95522 0.33037 0.7217 0.0
H1026 H 0.95574 0.35894 0.71784 0.0
H1027 H 0.94478 0.34844 0.74134 0.0
C1028 C 0.9745 0.42636 0.73276 0.0
C1029 C 0.95756 0.4297 0.74593 0.0
C1030 C 0.98439 0.40687 0.73253 0.0
C1031 C 0.97718 0.39037 0.74514 0.0
C1032 C 0.95998 0.3935 0.75785 0.0
H1033 H -0.00067 0.28501 0.81391 0.0
H1034 H 0.98697 0.31345 0.7921 0.0
C1035 C 0.95032 0.41296 0.7583 0.0
C1036 C 0.98887 0.37079 0.74739 0.0
H1037 H 0.98029 0.31621 0.74734 0.0
C1038 C 0.00911 0.37304 0.75818 0.0
C1039 C 0.97883 0.35002 0.74244 0.0
C1040 C 0.95751 0.34674 0.72999 0.0
C1041 C 0.01873 0.35513 0.766 0.0
C1042 C 0.00791 0.33449 0.76247 0.0
C1043 C 0.98846 0.33208 0.75013 0.0
C1044 C 0.01501 0.31588 0.77394 0.0
C1045 C 0.03951 0.3587 0.77946 0.0
C1046 C 0.03471 0.30753 0.77063 0.0
C1047 C 0.04196 0.29135 0.78325 0.0
C1048 C 0.02951 0.28316 0.79925 0.0
C1049 C 0.00939 0.29099 0.80184 0.0
C1050 C 0.00224 0.3072 0.78931 0.0
H1051 H 0.04403 0.37609 0.78345 0.0
H1052 H 0.03858 0.3505 0.79475 0.0
H1053 H 0.05232 0.35175 0.77044 0.0
H1054 H 0.04463 0.31377 0.75857 0.0
H1055 H 0.05744 0.28551 0.78067 0.0
H1056 H 0.34029 0.15747 0.48202 0.0
H1057 H 0.36541 0.17776 0.50823 0.0
H1058 H 0.33897 0.1437 0.55958 0.0
H1059 H 0.31357 0.12326 0.53344 0.0
H1060 H 0.34341 0.18926 0.56736 0.0
H1061 H 0.41792 0.15658 0.54133 0.0
H1062 H 0.40152 0.16571 0.51959 0.0
H1063 H 0.39204 0.14323 0.53395 0.0
C1064 C 0.33984 0.15413 0.49885 0.0
C1065 C 0.32489 0.13868 0.50559 0.0
C1066 C 0.35433 0.16567 0.5138 0.0
C1067 C 0.35424 0.162 0.53578 0.0
C1068 C 0.33938 0.14663 0.54264 0.0
H1069 H 0.45345 0.22563 0.62739 0.0
H1070 H 0.42823 0.1981 0.60877 0.0
C1071 C 0.32491 0.13496 0.52767 0.0
C1072 C 0.36901 0.17508 0.55158 0.0
H1073 H 0.4216 0.18957 0.56356 0.0
C1074 C 0.36051 0.18914 0.56675 0.0
C1075 C 0.3913 0.17466 0.55093 0.0
C1076 C 0.40128 0.15909 0.53572 0.0
C1077 C 0.37375 0.2036 0.58058 0.0
C1078 C 0.39599 0.20411 0.57899 0.0
C1079 C 0.40452 0.18928 0.56459 0.0
C1080 C 0.41058 0.22075 0.59115 0.0
C1081 C 0.36381 0.2184 0.59658 0.0
C1082 C 0.40906 0.24256 0.58728 0.0
C1083 C 0.42344 0.2583 0.59779 0.0
C1084 C 0.43971 0.25255 0.61237 0.0
C1085 C 0.44109 0.23065 0.61634 0.0
C1086 C 0.42672 0.21488 0.60571 0.0
H1087 H 0.34768 0.21195 0.60008 0.0
H1088 H 0.37381 0.22089 0.61195 0.0
H1089 H 0.36227 0.23431 0.58977 0.0
H1090 H 0.39697 0.24738 0.57579 0.0
H1091 H 0.42189 0.27497 0.59429 0.0
H1092 H 0.5755 0.67969 0.29833 0.0
H1093 H 0.57318 0.64644 0.27593 0.0
H1094 H 0.50484 0.64749 0.26945 0.0
H1095 H 0.50706 0.68055 0.29324 0.0
H1096 H 0.51274 0.61057 0.27862 0.0
H1097 H 0.56585 0.62664 0.21527 0.0
H1098 H 0.58097 0.63601 0.23962 0.0
H1099 H 0.55675 0.64847 0.23196 0.0
C1100 C 0.55996 0.67319 0.29179 0.0
C1101 C 0.54146 0.68274 0.29766 0.0
C1102 C 0.55865 0.6542 0.27864 0.0
C1103 C 0.53885 0.64458 0.2704 0.0
C1104 C 0.52032 0.65464 0.27542 0.0
H1105 H 0.58578 0.52317 0.22753 0.0
H1106 H 0.56265 0.5526 0.22123 0.0
C1107 C 0.5216 0.67351 0.28904 0.0
C1108 C 0.53785 0.62253 0.25963 0.0
H1109 H 0.5699 0.59078 0.23173 0.0
C1110 C 0.52475 0.60629 0.26773 0.0
C1111 C 0.55252 0.6166 0.24442 0.0
C1112 C 0.56455 0.633 0.23217 0.0
C1113 C 0.52825 0.58445 0.26364 0.0
C1114 C 0.54601 0.57888 0.25223 0.0
C1115 C 0.55686 0.59488 0.24136 0.0
C1116 C 0.55599 0.5581 0.25478 0.0
C1117 C 0.51346 0.56775 0.27251 0.0
C1118 C 0.55961 0.55091 0.27558 0.0
C1119 C 0.57228 0.53381 0.27906 0.0
C1120 C 0.58233 0.52396 0.26197 0.0
C1121 C 0.57829 0.53059 0.24102 0.0
C1122 C 0.56506 0.54738 0.23742 0.0
H1123 H 0.49677 0.57223 0.27026 0.0
H1124 H 0.51466 0.55145 0.26457 0.0
H1125 H 0.51719 0.56726 0.29012 0.0
H1126 H 0.55373 0.55933 0.28948 0.0
H1127 H 0.5753 0.52925 0.29543 0.0
H1128 H 0.02128 0.80455 0.07897 0.0
H1129 H 0.05611 0.80945 0.0645 0.0
H1130 H 0.08321 0.77274 0.11458 0.0
H1131 H 0.04834 0.76746 0.12904 0.0
H1132 H 0.09019 0.83117 0.08848 0.0
H1133 H 0.11006 0.74877 0.06089 0.0
H1134 H 0.0833 0.7553 0.06591 0.0
H1135 H 0.10198 0.75128 0.08803 0.0
C1136 C 0.03453 0.79709 0.08665 0.0
C1137 C 0.03205 0.78574 0.10527 0.0
C1138 C 0.05443 0.79995 0.07837 0.0
C1139 C 0.0722 0.79145 0.08846 0.0
C1140 C 0.06963 0.77916 0.10636 0.0
H1141 H 0.20718 0.80731 0.06936 0.0
H1142 H 0.17296 0.80025 0.08473 0.0
C1143 C 0.04967 0.77619 0.11463 0.0
C1144 C 0.09363 0.79729 0.08151 0.0
H1145 H 0.13773 0.77649 0.06188 0.0
C1146 C 0.10057 0.81923 0.08258 0.0
C1147 C 0.10715 0.78165 0.07403 0.0
C1148 C 0.10023 0.75794 0.07194 0.0
C1149 C 0.12073 0.82597 0.07639 0.0
C1150 C 0.13415 0.81035 0.0687 0.0
C1151 C 0.12735 0.78839 0.06787 0.0
C1152 C 0.15503 0.81647 0.06064 0.0
C1153 C 0.1276 0.84969 0.07836 0.0
C1154 C 0.15623 0.82821 0.04221 0.0
C1155 C 0.17572 0.8323 0.03338 0.0
C1156 C 0.19433 0.82458 0.04279 0.0
C1157 C 0.19316 0.81349 0.06173 0.0
C1158 C 0.17363 0.80937 0.0705 0.0
H1159 H 0.11798 0.85883 0.08963 0.0
H1160 H 0.14462 0.85237 0.08404 0.0
H1161 H 0.12551 0.85634 0.06229 0.0
H1162 H 0.14198 0.83356 0.0342 0.0
H1163 H 0.17607 0.84084 0.01877 0.0
H1164 H 0.74107 0.94001 0.60163 0.0
H1165 H 0.73678 0.96349 0.63374 0.0
H1166 H 0.70297 0.00676 0.59473 0.0
H1167 H 0.70611 0.98257 0.56272 0.0
H1168 H 0.74377 0.00491 0.65029 0.0
H1169 H 0.65722 0.98489 0.63101 0.0
H1170 H 0.67713 0.97246 0.61603 0.0
H1171 H 0.67039 -0.00052 0.6112 0.0
C1172 C 0.73316 0.95479 0.59984 0.0
C1173 C 0.72345 0.95927 0.57987 0.0
C1174 C 0.73077 0.96824 0.61818 0.0
C1175 C 0.71897 0.98651 0.6167 0.0
C1176 C 0.71153 0.99236 0.59631 0.0
H1177 H 0.65175 0.03537 0.72522 0.0
H1178 H 0.67138 0.03865 0.6929 0.0
C1179 C 0.71339 0.9786 0.57806 0.0
C1180 C 0.71181 0.99718 0.63663 0.0
H1181 H 0.66725 0.00333 0.66394 0.0
C1182 C 0.72702 0.00493 0.65318 0.0
C1183 C 0.68992 0.99711 0.64041 0.0
C1184 C 0.6727 0.98789 0.62384 0.0
C1185 C 0.72095 0.0117 0.6737 0.0
C1186 C 0.69916 0.01066 0.67765 0.0
C1187 C 0.68395 0.00425 0.66075 0.0
C1188 C 0.69158 0.01278 0.6996 0.0
C1189 C 0.73786 0.01925 0.69114 0.0
C1190 C 0.69687 0.99754 0.71436 0.0
C1191 C 0.68557 0.99547 0.73275 0.0
C1192 C 0.66869 0.00854 0.73662 0.0
C1193 C 0.66453 0.02491 0.72264 0.0
C1194 C 0.67582 0.02692 0.70422 0.0
H1195 H 0.75243 0.02596 0.68419 0.0
H1196 H 0.73211 0.03168 0.7025 0.0
H1197 H 0.74223 0.00532 0.70038 0.0
H1198 H 0.70866 0.98616 0.71089 0.0
H1199 H 0.68932 0.98282 0.74326 0.0
H1200 H 0.8349 0.98819 0.34739 0.0
H1201 H 0.81847 0.98148 0.38082 0.0
H1202 H 0.77576 0.03147 0.36946 0.0
H1203 H 0.79235 0.03856 0.33578 0.0
H1204 H 0.8103 0.0113 0.41874 0.0
H1205 H 0.73832 0.97275 0.3717 0.0
H1206 H 0.76337 0.977 0.35968 0.0
H1207 H 0.74775 -0.00058 0.36557 0.0
C1208 C 0.82234 0.99813 0.35211 0.0
C1209 C 0.81491 0.0139 0.33887 0.0
C1210 C 0.81297 0.99424 0.37126 0.0
C1211 C 0.79587 0.00588 0.37744 0.0
C1212 C 0.78891 0.02227 0.36481 0.0
H1213 H 0.71115 0.96356 0.47431 0.0
H1214 H 0.72707 0.98455 0.44691 0.0
C1215 C 0.79842 0.0263 0.34564 0.0
C1216 C 0.78443 -0.00061 0.39615 0.0
H1217 H 0.74034 0.96984 0.40905 0.0
C1218 C 0.79486 0.00251 0.41675 0.0
C1219 C 0.76432 0.98797 0.39337 0.0
C1220 C 0.75271 0.98391 0.37142 0.0
C1221 C 0.78586 0.994 0.43469 0.0
C1222 C 0.76623 0.9816 0.43172 0.0
C1223 C 0.75543 0.97928 0.41124 0.0
C1224 C 0.75715 0.96983 0.44928 0.0
C1225 C 0.79753 0.99825 0.45657 0.0
C1226 C 0.76872 0.95441 0.45952 0.0
C1227 C 0.75972 0.94243 0.47526 0.0
C1228 C 0.73884 0.94542 0.4808 0.0
C1229 C 0.72725 0.96079 0.47039 0.0
C1230 C 0.73633 0.97287 0.45478 0.0
H1231 H 0.808 0.01333 0.45735 0.0
H1232 H 0.78632 -0.00049 0.46955 0.0
H1233 H 0.80773 0.98477 0.45969 0.0
H1234 H 0.78459 0.95135 0.45506 0.0
H1235 H 0.76903 0.93062 0.48285 0.0
H1236 H 0.77363 0.14856 0.07805 0.0
H1237 H 0.77447 0.12891 0.1109 0.0
H1238 H 0.83114 0.09959 0.09236 0.0
H1239 H 0.83033 0.11881 0.05941 0.0
H1240 H 0.80123 0.07055 0.10743 0.0
H1241 H 0.81654 0.14374 0.16334 0.0
H1242 H 0.79339 0.14389 0.1451 0.0
H1243 H 0.81928 0.1442 0.1347 0.0
C1244 C 0.78627 0.13789 0.08092 0.0
C1245 C 0.80201 0.13539 0.06612 0.0
C1246 C 0.78676 0.12678 0.09976 0.0
C1247 C 0.80306 0.11309 0.1042 0.0
C1248 C 0.81848 0.11016 0.08926 0.0
H1249 H 0.8467 0.06388 0.22445 0.0
H1250 H 0.84208 0.08257 0.19125 0.0
C1251 C 0.818 0.1212 0.07042 0.0
C1252 C 0.80425 0.10186 0.12446 0.0
H1253 H 0.81118 0.11045 0.17919 0.0
C1254 C 0.80334 0.07924 0.12314 0.0
C1255 C 0.80729 0.1133 0.14487 0.0
C1256 C 0.80938 0.13762 0.1472 0.0
C1257 C 0.80538 0.06772 0.14173 0.0
C1258 C 0.80804 0.07915 0.16216 0.0
C1259 C 0.80897 0.10176 0.16349 0.0
C1260 C 0.81054 0.06795 0.18236 0.0
C1261 C 0.80523 0.04344 0.1393 0.0
C1262 C 0.7942 0.05378 0.18848 0.0
C1263 C 0.7968 0.04303 0.2074 0.0
C1264 C 0.81575 0.04639 0.22062 0.0
C1265 C 0.83194 0.0609 0.21461 0.0
C1266 C 0.82933 0.07161 0.19566 0.0
H1267 H 0.80824 0.0376 0.12262 0.0
H1268 H 0.81739 0.0374 0.15064 0.0
H1269 H 0.78943 0.03639 0.14304 0.0
H1270 H 0.77942 0.05107 0.17863 0.0
H1271 H 0.78397 0.03206 0.21163 0.0
H1272 H 0.64739 0.05789 0.83013 0.0
H1273 H 0.66874 0.07924 0.85898 0.0
H1274 H 0.69824 0.02215 0.87784 0.0
H1275 H 0.67698 0.00061 0.84919 0.0
H1276 H 0.68437 0.04965 0.91286 0.0
H1277 H 0.73401 0.09361 0.85691 0.0
H1278 H 0.70574 0.09401 0.85167 0.0
H1279 H 0.7182 0.06899 0.84857 0.0
C1280 C 0.65834 0.04982 0.84046 0.0
C1281 C 0.66056 0.02753 0.83723 0.0
C1282 C 0.67057 0.06208 0.85687 0.0
C1283 C 0.6852 0.05227 0.87031 0.0
C1284 C 0.68707 0.02999 0.86754 0.0
H1285 H 0.79115 0.11108 0.95255 0.0
H1286 H 0.76771 0.08861 0.92632 0.0
C1287 C 0.67493 0.01773 0.85111 0.0
C1288 C 0.69888 0.06526 0.88706 0.0
H1289 H 0.73955 0.10429 0.89403 0.0
C1290 C 0.69643 0.06163 0.9088 0.0
C1291 C 0.71473 0.08063 0.8816 0.0
C1292 C 0.71854 0.08451 0.85843 0.0
C1293 C 0.70931 0.07321 0.92531 0.0
C1294 C 0.72489 0.08887 0.91986 0.0
C1295 C 0.72748 0.09233 0.89811 0.0
C1296 C 0.73883 0.1018 0.93646 0.0
C1297 C 0.70643 0.06839 0.94843 0.0
C1298 C 0.7303 0.11665 0.9508 0.0
C1299 C 0.74364 0.12957 0.96579 0.0
C1300 C 0.76577 0.12789 0.96667 0.0
C1301 C 0.7742 0.11279 0.95238 0.0
C1302 C 0.76085 0.09994 0.93735 0.0
H1303 H 0.69716 0.05279 0.94962 0.0
H1304 H 0.72205 0.06791 0.95753 0.0
H1305 H 0.69773 0.08134 0.95625 0.0
H1306 H 0.71336 0.11853 0.95013 0.0
H1307 H 0.73658 0.14104 0.97651 0.0
H1308 H 0.5628 0.74031 0.99844 0.0
H1309 H 0.59689 0.72413 0.00358 0.0
H1310 H 0.60718 0.72919 0.93625 0.0
H1311 H 0.57307 0.74526 0.93085 0.0
H1312 H 0.60697 0.68454 0.97789 0.0
H1313 H 0.66371 0.75538 0.97117 0.0
H1314 H 0.63676 0.75798 0.97861 0.0
H1315 H 0.64188 0.75155 0.95102 0.0
C1316 C 0.57239 0.73815 0.98475 0.0
C1317 C 0.56523 0.744 0.96422 0.0
C1318 C 0.59184 0.72895 0.98774 0.0
C1319 C 0.60455 0.72575 0.97035 0.0
C1320 C 0.59766 0.73186 0.94992 0.0
H1321 H 0.71735 0.66544 0.94026 0.0
H1322 H 0.68744 0.6881 0.94316 0.0
C1323 C 0.57813 0.74089 0.94685 0.0
C1324 C 0.62428 0.71452 0.97312 0.0
H1325 H 0.67802 0.72104 0.97081 0.0
C1326 C 0.62256 0.6925 0.97661 0.0
C1327 C 0.64444 0.72506 0.97128 0.0
C1328 C 0.64697 0.74885 0.96796 0.0
C1329 C 0.64053 0.68042 0.97747 0.0
C1330 C 0.66078 0.69089 0.97544 0.0
C1331 C 0.6625 0.71309 0.97245 0.0
C1332 C 0.68015 0.67877 0.97491 0.0
C1333 C 0.63747 0.65641 0.97952 0.0
C1334 C 0.68639 0.66654 0.99211 0.0
C1335 C 0.70332 0.65331 0.9904 0.0
C1336 C 0.71454 0.65242 0.97159 0.0
C1337 C 0.70902 0.66568 0.95494 0.0
C1338 C 0.69193 0.67868 0.95657 0.0
H1339 H 0.62073 0.65025 0.97543 0.0
H1340 H 0.64783 0.64751 0.96885 0.0
H1341 H 0.64169 0.65279 0.99642 0.0
H1342 H 0.67786 0.66684 0.00666 0.0
H1343 H 0.70738 0.64352 0.00364 0.0
H1344 H 0.0563 0.00582 0.77407 0.0
H1345 H 0.03071 0.0336 0.77291 0.0
H1346 H 0.07401 0.07317 0.7387 0.0
H1347 H 0.09908 0.04521 0.73899 0.0
H1348 H 0.04028 0.0691 0.79473 0.0
H1349 H 0.01999 0.09127 0.71249 0.0
H1350 H 0.03111 0.06592 0.71767 0.0
H1351 H 0.0482 0.08997 0.71559 0.0
C1352 C 0.06001 0.02015 0.76564 0.0
C1353 C 0.07985 0.02351 0.75694 0.0
C1354 C 0.04532 0.03597 0.76489 0.0
C1355 C 0.05032 0.05551 0.75566 0.0
C1356 C 0.06942 0.05808 0.74543 0.0
H1357 H 0.06358 0.18274 0.78598 0.0
H1358 H 0.05815 0.14671 0.76819 0.0
C1359 C 0.08394 0.04212 0.74583 0.0
C1360 C 0.03839 0.07472 0.76087 0.0
H1361 H 0.02484 0.12195 0.74047 0.0
C1362 C 0.0361 0.08031 0.78276 0.0
C1363 C 0.03279 0.08936 0.74531 0.0
C1364 C 0.03296 0.08363 0.72145 0.0
C1365 C 0.03076 0.10095 0.78971 0.0
C1366 C 0.0274 0.11634 0.77429 0.0
C1367 C 0.02764 0.11015 0.75226 0.0
C1368 C 0.02772 0.1395 0.78111 0.0
C1369 C 0.03075 0.10673 0.81363 0.0
C1370 C 0.01197 0.14767 0.79357 0.0
C1371 C 0.0151 0.16827 0.80401 0.0
C1372 C 0.03405 0.18096 0.80205 0.0
C1373 C 0.04895 0.1733 0.78812 0.0
C1374 C 0.04581 0.15276 0.77776 0.0
H1375 H 0.03576 0.09343 0.82347 0.0
H1376 H 0.04158 0.12125 0.81824 0.0
H1377 H 0.01451 0.11051 0.81775 0.0
H1378 H 0.9978 0.1377 0.79615 0.0
H1379 H 0.00317 0.17378 0.81439 0.0
H1380 H 0.96079 0.29763 0.46648 0.0
H1381 H 0.9279 0.29628 0.48483 0.0
H1382 H 0.94046 0.23336 0.50586 0.0
H1383 H 0.97383 0.23465 0.48751 0.0
H1384 H 0.89955 0.23708 0.48328 0.0
H1385 H 0.91585 0.30011 0.54972 0.0
H1386 H 0.92516 0.30871 0.52479 0.0
H1387 H 0.93669 0.28638 0.5371 0.0
C1388 C 0.95671 0.28358 0.47518 0.0
C1389 C 0.96978 0.2662 0.4755 0.0
C1390 C 0.93804 0.28294 0.48586 0.0
C1391 C 0.93202 0.2649 0.49701 0.0
C1392 C 0.94508 0.24754 0.49759 0.0
H1393 H 0.80347 0.28661 0.53773 0.0
H1394 H 0.83811 0.27079 0.54137 0.0
C1395 C 0.96403 0.24829 0.48708 0.0
C1396 C 0.91086 0.26367 0.50571 0.0
H1397 H 0.87915 0.29531 0.5344 0.0
C1398 C 0.89511 0.24927 0.49507 0.0
C1399 C 0.90519 0.27938 0.52128 0.0
C1400 C 0.92168 0.29438 0.53405 0.0
C1401 C 0.87357 0.2519 0.49772 0.0
C1402 C 0.86786 0.26934 0.51125 0.0
C1403 C 0.88363 0.28209 0.52384 0.0
C1404 C 0.84641 0.27724 0.50912 0.0
C1405 C 0.85704 0.2371 0.48476 0.0
C1406 C 0.83994 0.28626 0.48992 0.0
C1407 C 0.82052 0.29551 0.48791 0.0
C1408 C 0.80714 0.29581 0.50505 0.0
C1409 C 0.81349 0.2865 0.52424 0.0
C1410 C 0.83317 0.27746 0.52635 0.0
H1411 H 0.86328 0.2212 0.48055 0.0
H1412 H 0.84255 0.23458 0.49374 0.0
H1413 H 0.8525 0.24448 0.46951 0.0
H1414 H 0.85018 0.28655 0.4766 0.0
H1415 H 0.81601 0.30247 0.47291 0.0
H1416 H 0.57548 0.98398 0.83546 0.0
H1417 H 0.56299 0.95324 0.85504 0.0
H1418 H 0.58726 0.9097 0.80731 0.0
H1419 H 0.60085 0.94037 0.78852 0.0
H1420 H 0.53455 0.92319 0.84374 0.0
H1421 H 0.60919 0.88366 0.85963 0.0
H1422 H 0.60887 0.91019 0.84961 0.0
H1423 H 0.60427 0.88648 0.83135 0.0
C1424 C 0.5784 0.96784 0.82938 0.0
C1425 C 0.58923 0.96451 0.8106 0.0
C1426 C 0.57126 0.95029 0.84054 0.0
C1427 C 0.57452 0.9291 0.83291 0.0
C1428 C 0.5852 0.92584 0.814 0.0
H1429 H 0.4929 0.82004 0.86533 0.0
H1430 H 0.51076 0.84929 0.84747 0.0
C1431 C 0.59279 0.94339 0.80315 0.0
C1432 C 0.56547 0.91046 0.84388 0.0
H1433 H 0.57691 0.86196 0.86288 0.0
C1434 C 0.54391 0.90993 0.84814 0.0
C1435 C 0.57769 0.89324 0.84993 0.0
C1436 C 0.60133 0.89354 0.8476 0.0
C1437 C 0.53415 0.8926 0.85795 0.0
C1438 C 0.54602 0.87475 0.86273 0.0
C1439 C 0.56769 0.87543 0.85885 0.0
C1440 C 0.53638 0.85551 0.87229 0.0
C1441 C 0.51135 0.89398 0.86356 0.0
C1442 C 0.54563 0.84823 0.89137 0.0
C1443 C 0.53583 0.83102 0.9012 0.0
C1444 C 0.51645 0.82102 0.89226 0.0
C1445 C 0.50767 0.82771 0.87271 0.0
C1446 C 0.51775 0.84455 0.86262 0.0
H1447 H 0.50707 0.911 0.86544 0.0
H1448 H 0.50068 0.88577 0.85032 0.0
H1449 H 0.50835 0.88619 0.87873 0.0
H1450 H 0.56009 0.85629 0.89905 0.0
H1451 H 0.54293 0.82618 0.91628 0.0
H1452 H -0.0009 0.20101 0.40628 0.0
H1453 H 0.98578 0.16671 0.38731 0.0
H1454 H 0.93381 0.19799 0.35727 0.0
H1455 H 0.94687 0.23229 0.37615 0.0
H1456 H 0.94268 0.1476 0.39173 0.0
H1457 H 0.9589 0.16174 0.30689 0.0
H1458 H 0.97303 0.17689 0.32966 0.0
H1459 H 0.94648 0.18292 0.32132 0.0
C1460 C 0.985 0.20068 0.39542 0.0
C1461 C 0.97402 0.21941 0.3928 0.0
C1462 C 0.97742 0.18107 0.38461 0.0
C1463 C 0.95896 0.17991 0.37074 0.0
C1464 C 0.94827 0.19864 0.36766 0.0
H1465 H 0.87471 0.08209 0.3006 0.0
H1466 H 0.89539 0.11522 0.31419 0.0
C1467 C 0.95569 0.2182 0.37859 0.0
C1468 C 0.94982 0.15885 0.36087 0.0
H1469 H 0.93666 0.13069 0.31258 0.0
C1470 C 0.94155 0.14375 0.37444 0.0
C1471 C 0.94821 0.15408 0.33832 0.0
C1472 C 0.95725 0.16966 0.32313 0.0
C1473 C 0.93111 0.1242 0.36605 0.0
C1474 C 0.92947 0.11935 0.34345 0.0
C1475 C 0.938 0.13438 0.32988 0.0
C1476 C 0.91826 0.09908 0.33365 0.0
C1477 C 0.9212 0.10935 0.38145 0.0
C1478 C 0.92468 0.07896 0.33946 0.0
C1479 C 0.91277 0.06002 0.33192 0.0
C1480 C 0.8944 0.0608 0.3181 0.0
C1481 C 0.88874 0.0809 0.31127 0.0
C1482 C 0.90054 0.09987 0.31902 0.0
H1483 H 0.91885 0.11796 0.3972 0.0
H1484 H 0.90559 0.10195 0.3746 0.0
H1485 H 0.93184 0.09623 0.38454 0.0
H1486 H 0.93866 0.07792 0.35023 0.0
H1487 H 0.91777 0.04479 0.33726 0.0
H1488 H 0.55685 0.0577 0.73039 0.0
H1489 H 0.5472 0.09257 0.71845 0.0
H1490 H 0.59778 0.12451 0.76069 0.0
H1491 H 0.60774 0.08954 0.77269 0.0
H1492 H 0.5352 0.12869 0.74386 0.0
H1493 H 0.60803 0.14755 0.70098 0.0
H1494 H 0.60061 0.12074 0.70861 0.0
H1495 H 0.61228 0.14084 0.72851 0.0
C1496 C 0.56597 0.0721 0.73717 0.0
C1497 C 0.58313 0.07083 0.75244 0.0
C1498 C 0.5604 0.09202 0.73033 0.0
C1499 C 0.57194 0.11105 0.73848 0.0
C1500 C 0.5889 0.10994 0.75395 0.0
H1501 H 0.55847 0.24462 0.70922 0.0
H1502 H 0.57006 0.21138 0.72374 0.0
C1503 C 0.59448 0.08997 0.76087 0.0
C1504 C 0.5659 0.132 0.73086 0.0
H1505 H 0.58295 0.17406 0.70225 0.0
C1506 C 0.54563 0.13865 0.73478 0.0
C1507 C 0.5796 0.14492 0.71907 0.0
C1508 C 0.6013 0.13816 0.71385 0.0
C1509 C 0.53866 0.15794 0.72727 0.0
C1510 C 0.55219 0.17067 0.71514 0.0
C1511 C 0.5726 0.1642 0.71149 0.0
C1512 C 0.54536 0.19068 0.70595 0.0
C1513 C 0.51697 0.16465 0.73261 0.0
C1514 C 0.52787 0.18998 0.69082 0.0
C1515 C 0.52117 0.20894 0.6825 0.0
C1516 C 0.53194 0.22894 0.68908 0.0
C1517 C 0.54976 0.22951 0.70387 0.0
C1518 C 0.55643 0.21053 0.71218 0.0
H1519 H 0.5111 0.15638 0.74661 0.0
H1520 H 0.51721 0.18235 0.73627 0.0
H1521 H 0.50553 0.16028 0.71854 0.0
H1522 H 0.51939 0.17475 0.68545 0.0
H1523 H 0.50748 0.20792 0.67103 0.0
H1524 H 0.17551 0.38323 0.00147 0.0
H1525 H 0.15064 0.36308 0.97473 0.0
H1526 H 0.20296 0.33505 0.94468 0.0
H1527 H 0.22799 0.35514 0.97132 0.0
H1528 H 0.14964 0.36317 0.92773 0.0
H1529 H 0.16289 0.28283 0.95884 0.0
H1530 H 0.17049 0.30775 0.97459 0.0
H1531 H 0.18618 0.299 0.95308 0.0
C1532 C 0.18176 0.37291 0.98911 0.0
C1533 C 0.20372 0.37079 0.98852 0.0
C1534 C 0.16753 0.3614 0.97386 0.0
C1535 C 0.17501 0.34748 0.95791 0.0
C1536 C 0.19691 0.34553 0.95707 0.0
H1537 H 0.10028 0.25534 0.86673 0.0
H1538 H 0.13026 0.27792 0.88458 0.0
C1539 C 0.21116 0.35706 0.97227 0.0
C1540 C 0.15979 0.33479 0.94236 0.0
H1541 H 0.13882 0.28362 0.92858 0.0
C1542 C 0.14732 0.34576 0.92779 0.0
C1543 C 0.157 0.3121 0.94244 0.0
C1544 C 0.16971 0.29964 0.95814 0.0
C1545 C 0.13185 0.33461 0.91342 0.0
C1546 C 0.12853 0.31199 0.91402 0.0
C1547 C 0.14145 0.30097 0.92815 0.0
C1548 C 0.11061 0.29964 0.90149 0.0
C1549 C 0.11918 0.34716 0.89779 0.0
C1550 C 0.0897 0.30442 0.90509 0.0
C1551 C 0.07262 0.29163 0.89494 0.0
C1552 C 0.07611 0.27369 0.88111 0.0
C1553 C 0.09708 0.26913 0.87719 0.0
C1554 C 0.1142 0.28197 0.88739 0.0
H1555 H 0.12801 0.36247 0.89447 0.0
H1556 H 0.11511 0.33757 0.88228 0.0
H1557 H 0.10418 0.35132 0.90489 0.0
H1558 H 0.08656 0.31765 0.91631 0.0
H1559 H 0.05667 0.29554 0.89837 0.0
H1560 H 0.45451 0.67122 0.36457 0.0
H1561 H 0.4192 0.67096 0.37821 0.0
H1562 H 0.41537 0.73781 0.36497 0.0
H1563 H 0.45093 0.73834 0.3516 0.0
H1564 H 0.40967 0.73105 0.40647 0.0
H1565 H 0.35803 0.67113 0.35501 0.0
H1566 H 0.38254 0.66028 0.36359 0.0
H1567 H 0.38288 0.68259 0.3465 0.0
C1568 C 0.44597 0.68573 0.36401 0.0
C1569 C 0.45566 0.70487 0.35724 0.0
C1570 C 0.42566 0.6855 0.37166 0.0
C1571 C 0.41455 0.70432 0.37245 0.0
C1572 C 0.42363 0.72309 0.36441 0.0
H1573 H 0.29758 0.70914 0.44359 0.0
H1574 H 0.32163 0.7147 0.41457 0.0
C1575 C 0.44397 0.72335 0.3568 0.0
C1576 C 0.39523 0.7052 0.38471 0.0
H1577 H 0.34789 0.67783 0.39179 0.0
C1578 C 0.39593 0.71977 0.40292 0.0
C1579 C 0.37725 0.69056 0.38007 0.0
C1580 C 0.37502 0.67542 0.36008 0.0
C1581 C 0.37983 0.7191 0.41736 0.0
C1582 C 0.36269 0.7034 0.41356 0.0
C1583 C 0.3612 0.68974 0.39468 0.0
C1584 C 0.34765 0.69947 0.43029 0.0
C1585 C 0.38168 0.73449 0.43717 0.0
C1586 C 0.35439 0.68897 0.44849 0.0
C1587 C 0.34082 0.68575 0.46494 0.0
C1588 C 0.32021 0.69302 0.46352 0.0
C1589 C 0.31339 0.70342 0.44515 0.0
C1590 C 0.32703 0.70653 0.42855 0.0
H1591 H 0.39339 0.7483 0.43563 0.0
H1592 H 0.36603 0.7408 0.44025 0.0
H1593 H 0.38693 0.72579 0.45137 0.0
H1594 H 0.37029 0.68343 0.45004 0.0
H1595 H 0.34662 0.67782 0.47891 0.0
H1596 H 0.89053 0.52779 0.79453 0.0
H1597 H 0.87029 0.54536 0.82213 0.0
H1598 H 0.84036 0.48372 0.83483 0.0
H1599 H 0.86022 0.46606 0.80729 0.0
H1600 H 0.81227 0.51719 0.83211 0.0
H1601 H 0.88365 0.54 0.88764 0.0
H1602 H 0.88478 0.54875 0.86073 0.0
H1603 H 0.88391 0.52047 0.865 0.0
C1604 C 0.87948 0.518 0.80303 0.0
C1605 C 0.87714 0.49548 0.79882 0.0
C1606 C 0.86806 0.52805 0.81889 0.0
C1607 C 0.85415 0.51575 0.83072 0.0
C1608 C 0.85114 0.49345 0.82594 0.0
H1609 H 0.79945 0.54234 0.95263 0.0
H1610 H 0.81967 0.52858 0.92298 0.0
C1611 C 0.86255 0.4834 0.8102 0.0
C1612 C 0.84293 0.52585 0.84842 0.0
H1613 H 0.85077 0.55097 0.89887 0.0
C1614 C 0.82066 0.52468 0.84667 0.0
C1615 C 0.85398 0.53528 0.86749 0.0
C1616 C 0.8779 0.53611 0.87053 0.0
C1617 C 0.80909 0.53276 0.86351 0.0
C1618 C 0.82014 0.54248 0.88244 0.0
C1619 C 0.84241 0.5436 0.88425 0.0
C1620 C 0.80877 0.5514 0.90062 0.0
C1621 C 0.78513 0.5304 0.86112 0.0
C1622 C 0.79634 0.56899 0.89791 0.0
C1623 C 0.78482 0.57684 0.91472 0.0
C1624 C 0.78561 0.56731 0.93463 0.0
C1625 C 0.79849 0.54999 0.93748 0.0
C1626 C 0.81006 0.54214 0.9206 0.0
H1627 H 0.77924 0.51828 0.8479 0.0
H1628 H 0.77851 0.52559 0.87634 0.0
H1629 H 0.77898 0.54612 0.85732 0.0
H1630 H 0.7954 0.57652 0.88268 0.0
H1631 H 0.77498 0.59013 0.91193 0.0
H1632 H 0.65171 0.49834 0.18269 0.0
H1633 H 0.66561 0.50967 0.14899 0.0
H1634 H 0.7207 0.54143 0.1847 0.0
H1635 H 0.70688 0.5305 0.21834 0.0
H1636 H 0.70246 0.56677 0.15457 0.0
H1637 H 0.71525 0.48529 0.11819 0.0
H1638 H 0.6888 0.48865 0.12626 0.0
H1639 H 0.71063 0.49018 0.14634 0.0
C1640 C 0.66682 0.50766 0.18334 0.0
C1641 C 0.67822 0.51346 0.20319 0.0
C1642 C 0.67478 0.51403 0.16407 0.0
C1643 C 0.69431 0.52615 0.16434 0.0
C1644 C 0.70563 0.53202 0.18413 0.0
H1645 H 0.7719 0.55009 0.0571 0.0
H1646 H 0.75789 0.53933 0.09088 0.0
C1647 C 0.6977 0.52572 0.20335 0.0
C1648 C 0.70287 0.5332 0.14412 0.0
H1649 H 0.72052 0.51462 0.09617 0.0
C1650 C 0.70642 0.55538 0.14179 0.0
C1651 C 0.70828 0.51828 0.12763 0.0
C1652 C 0.70575 0.49426 0.12972 0.0
C1653 C 0.71507 0.56309 0.1233 0.0
C1654 C 0.71998 0.54819 0.10657 0.0
C1655 C 0.71662 0.526 0.10899 0.0
C1656 C 0.72866 0.55529 0.08643 0.0
C1657 C 0.71925 0.58709 0.12204 0.0
C1658 C 0.71683 0.56777 0.07272 0.0
C1659 C 0.72481 0.57401 0.05348 0.0
C1660 C 0.74472 0.56772 0.04747 0.0
C1661 C 0.75655 0.55524 0.06126 0.0
C1662 C 0.74855 0.54903 0.08054 0.0
H1663 H 0.71997 0.59578 0.13823 0.0
H1664 H 0.73439 0.59084 0.1145 0.0
H1665 H 0.70618 0.59334 0.11201 0.0
H1666 H 0.70127 0.57242 0.07676 0.0
H1667 H 0.71523 0.58351 0.04318 0.0
H1668 H 0.77379 0.3918 0.43619 0.0
H1669 H 0.75524 0.41155 0.40893 0.0
H1670 H 0.69499 0.38583 0.42837 0.0
H1671 H 0.71336 0.3659 0.45574 0.0
H1672 H 0.70139 0.38004 0.38304 0.0
H1673 H 0.71906 0.46484 0.4154 0.0
H1674 H 0.74172 0.44883 0.41469 0.0
H1675 H 0.72096 0.44218 0.43204 0.0
C1676 C 0.75658 0.39052 0.4349 0.0
C1677 C 0.74507 0.37719 0.44811 0.0
C1678 C 0.74602 0.40193 0.41938 0.0
C1679 C 0.72378 0.40024 0.4168 0.0
C1680 C 0.71219 0.38738 0.43024 0.0
H1681 H 0.64714 0.47285 0.3299 0.0
H1682 H 0.66121 0.45497 0.36106 0.0
C1683 C 0.72272 0.37606 0.44588 0.0
C1684 C 0.71278 0.41064 0.39898 0.0
H1685 H 0.70501 0.45949 0.37891 0.0
C1686 C 0.70201 0.39741 0.38219 0.0
C1687 C 0.71356 0.43328 0.39806 0.0
C1688 C 0.72428 0.44818 0.41608 0.0
C1689 C 0.69247 0.40626 0.36413 0.0
C1690 C 0.69392 0.42886 0.36284 0.0
C1691 C 0.70414 0.44213 0.37992 0.0
C1692 C 0.68506 0.43905 0.34378 0.0
C1693 C 0.68093 0.3914 0.34655 0.0
C1694 C 0.6939 0.43602 0.3238 0.0
C1695 C 0.68592 0.44623 0.30594 0.0
C1696 C 0.66894 0.45959 0.30782 0.0
C1697 C 0.66008 0.46248 0.32787 0.0
C1698 C 0.66814 0.45237 0.34572 0.0
H1699 H 0.67728 0.37504 0.35207 0.0
H1700 H 0.66586 0.39807 0.34079 0.0
H1701 H 0.69104 0.38983 0.33268 0.0
H1702 H 0.70717 0.426 0.3221 0.0
H1703 H 0.69314 0.44377 0.29074 0.0
H1704 H 0.85809 0.42359 0.71266 0.0
H1705 H 0.83853 0.41455 0.67786 0.0
H1706 H 0.87454 0.46555 0.6499 0.0
H1707 H 0.8943 0.47483 0.68471 0.0
H1708 H 0.81458 0.44276 0.64806 0.0
H1709 H 0.88534 0.40667 0.61536 0.0
H1710 H 0.88268 0.41118 0.64395 0.0
H1711 H 0.88897 0.43351 0.62811 0.0
C1712 C 0.86177 0.43307 0.6992 0.0
C1713 C 0.87794 0.44982 0.70144 0.0
C1714 C 0.85048 0.42792 0.67935 0.0
C1715 C 0.85524 0.43929 0.66135 0.0
C1716 C 0.87077 0.45653 0.66364 0.0
H1717 H 0.82034 0.39927 0.5268 0.0
H1718 H 0.8343 0.42036 0.55955 0.0
C1719 C 0.882 0.46181 0.68354 0.0
C1720 C 0.84493 0.43199 0.63995 0.0
H1721 H 0.85411 0.40443 0.5928 0.0
C1722 C 0.82319 0.43454 0.63584 0.0
C1723 C 0.85629 0.42132 0.62413 0.0
C1724 C 0.87959 0.41782 0.628 0.0
C1725 C 0.81243 0.42656 0.61625 0.0
C1726 C 0.82364 0.41524 0.60067 0.0
C1727 C 0.84551 0.41313 0.60469 0.0
C1728 C 0.81306 0.40454 0.58048 0.0
C1729 C 0.78925 0.43051 0.61241 0.0
C1730 C 0.79619 0.38884 0.58122 0.0
C1731 C 0.78799 0.3769 0.56244 0.0
C1732 C 0.7968 0.38013 0.54261 0.0
C1733 C 0.81327 0.39628 0.54182 0.0
C1734 C 0.82127 0.40838 0.56054 0.0
H1735 H 0.7851 0.44511 0.622 0.0
H1736 H 0.78501 0.43249 0.5951 0.0
H1737 H 0.77945 0.41656 0.61751 0.0
H1738 H 0.78995 0.38515 0.59646 0.0
H1739 H 0.77543 0.36446 0.56365 0.0
H1740 H 0.48204 0.03957 0.19514 0.0
H1741 H 0.48369 0.07377 0.17783 0.0
H1742 H 0.41846 0.08232 0.1908 0.0
H1743 H 0.4166 0.04809 0.20818 0.0
H1744 H 0.45577 0.08562 0.14163 0.0
H1745 H 0.45286 0.13907 0.21622 0.0
H1746 H 0.46015 0.11152 0.21677 0.0
H1747 H 0.43281 0.11713 0.21207 0.0
C1748 C 0.46803 0.04871 0.19434 0.0
C1749 C 0.4492 0.04115 0.2031 0.0
C1750 C 0.46901 0.06822 0.18442 0.0
C1751 C 0.45128 0.08062 0.18328 0.0
C1752 C 0.43239 0.07308 0.19181 0.0
H1753 H 0.42856 0.2047 0.13394 0.0
H1754 H 0.42651 0.17058 0.15124 0.0
C1755 C 0.43134 0.05348 0.20163 0.0
C1756 C 0.45252 0.10132 0.17289 0.0
H1757 H 0.45216 0.15575 0.18317 0.0
C1758 C 0.45503 0.10098 0.15067 0.0
C1759 C 0.45147 0.12125 0.18479 0.0
C1760 C 0.44933 0.12244 0.20882 0.0
C1761 C 0.45621 0.12011 0.1399 0.0
C1762 C 0.45539 0.14011 0.15183 0.0
C1763 C 0.45283 0.14041 0.17408 0.0
C1764 C 0.45695 0.16091 0.1415 0.0
C1765 C 0.45778 0.11867 0.11577 0.0
C1766 C 0.47492 0.16698 0.13059 0.0
C1767 C 0.47611 0.18643 0.12054 0.0
C1768 C 0.45943 0.20032 0.12144 0.0
C1769 C 0.44168 0.19441 0.13287 0.0
C1770 C 0.44047 0.1749 0.14278 0.0
H1771 H 0.45226 0.1024 0.10845 0.0
H1772 H 0.44827 0.1308 0.108 0.0
H1773 H 0.47462 0.12181 0.11215 0.0
H1774 H 0.48807 0.15668 0.12987 0.0
H1775 H 0.4901 0.19057 0.11207 0.0
H1776 H 0.98179 0.81359 0.65392 0.0
H1777 H 0.00661 0.84002 0.67448 0.0
H1778 H 0.05868 0.81479 0.64165 0.0
H1779 H 0.03405 0.78817 0.62102 0.0
H1780 H 0.06629 0.82254 0.68769 0.0
H1781 H 0.03591 0.89297 0.64808 0.0
H1782 H 0.01579 0.8758 0.65879 0.0
H1783 H 0.03034 0.86558 0.63693 0.0
C1784 C -0.00148 0.81356 0.65109 0.0
C1785 C 0.00588 0.79881 0.6357 0.0
C1786 C 0.01266 0.82875 0.66279 0.0
C1787 C 0.03439 0.82952 0.65931 0.0
C1788 C 0.04192 0.8145 0.64444 0.0
H1789 H 0.12043 0.93958 0.70808 0.0
H1790 H 0.10328 0.90953 0.68477 0.0
C1791 C 0.02779 0.79933 0.63266 0.0
C1792 C 0.04919 0.84613 0.67116 0.0
H1793 H 0.05937 0.90056 0.6794 0.0
C1794 C 0.06493 0.8396 0.68579 0.0
C1795 C 0.04757 0.86833 0.66833 0.0
C1796 C 0.03163 0.87616 0.65204 0.0
C1797 C 0.07859 0.8548 0.69833 0.0
C1798 C 0.07624 0.87702 0.69627 0.0
C1799 C 0.06105 0.8835 0.68103 0.0
C1800 C 0.08847 0.89388 0.71059 0.0
C1801 C 0.09534 0.84695 0.71373 0.0
C1802 C 0.08591 0.89493 0.73282 0.0
C1803 C 0.09561 0.91206 0.74616 0.0
C1804 C 0.10801 0.92856 0.73752 0.0
C1805 C 0.11104 0.92714 0.71529 0.0
C1806 C 0.10124 0.91 0.70193 0.0
H1807 H 0.09916 0.83023 0.70895 0.0
H1808 H 0.11015 0.85764 0.71457 0.0
H1809 H 0.08934 0.847 0.7301 0.0
H1810 H 0.07578 0.88289 0.73976 0.0
H1811 H 0.09291 0.91261 0.76318 0.0
H1812 H 0.56193 0.79157 0.29617 0.0
H1813 H 0.5508 0.8222 0.27647 0.0
H1814 H 0.48809 0.81362 0.29937 0.0
H1815 H 0.49891 0.78303 0.31912 0.0
H1816 H 0.51274 0.82407 0.24416 0.0
H1817 H 0.51248 0.87741 0.31912 0.0
H1818 H 0.52701 0.85335 0.31772 0.0
H1819 H 0.49876 0.85129 0.31979 0.0
C1820 C 0.54573 0.79611 0.29697 0.0
C1821 C 0.53135 0.78493 0.30939 0.0
C1822 C 0.53942 0.81356 0.28563 0.0
C1823 C 0.51873 0.82016 0.28666 0.0
C1824 C 0.50419 0.80878 0.29856 0.0
H1825 H 0.43524 0.90917 0.24287 0.0
H1826 H 0.45403 0.87728 0.25108 0.0
C1827 C 0.51043 0.7913 0.30982 0.0
C1828 C 0.51237 0.83949 0.27606 0.0
H1829 H 0.49619 0.88991 0.28722 0.0
C1830 C 0.5094 0.83861 0.25348 0.0
C1831 C 0.50824 0.8584 0.28835 0.0
C1832 C 0.51193 0.86036 0.31259 0.0
C1833 C 0.50131 0.85595 0.24295 0.0
C1834 C 0.49628 0.87441 0.25537 0.0
C1835 C 0.50012 0.87562 0.27782 0.0
C1836 C 0.48506 0.89188 0.24584 0.0
C1837 C 0.49739 0.8543 0.21877 0.0
C1838 C 0.49634 0.9103 0.23954 0.0
C1839 C 0.48559 0.92859 0.23484 0.0
C1840 C 0.46359 0.92866 0.23684 0.0
C1841 C 0.45225 0.90968 0.24174 0.0
C1842 C 0.46292 0.89141 0.2462 0.0
H1843 H 0.50339 0.83942 0.21126 0.0
H1844 H 0.48008 0.85434 0.2145 0.0
H1845 H 0.50521 0.86856 0.21191 0.0
H1846 H 0.51349 0.91089 0.23938 0.0
H1847 H 0.49465 0.9431 0.23115 0.0
H1848 H 0.8271 0.65312 0.97775 0.0
H1849 H 0.85435 0.67212 0.00264 0.0
H1850 H 0.82651 0.64283 0.05609 0.0
H1851 H 0.79901 0.6237 0.03128 0.0
H1852 H 0.8341 0.68828 0.06155 0.0
H1853 H 0.90556 0.64887 0.03619 0.0
H1854 H 0.88952 0.65809 0.01421 0.0
H1855 H 0.8789 0.63705 0.02975 0.0
C1856 C 0.82682 0.65053 0.99476 0.0
C1857 C 0.81081 0.63688 0.00249 0.0
C1858 C 0.84252 0.6613 0.00895 0.0
C1859 C 0.8426 0.65865 0.03115 0.0
C1860 C 0.8268 0.64494 0.03897 0.0
H1861 H 0.94335 0.7198 0.1229 0.0
H1862 H 0.91757 0.69296 0.10391 0.0
C1863 C 0.81111 0.63403 0.02476 0.0
C1864 C 0.85837 0.67138 0.04621 0.0
H1865 H 0.91168 0.68249 0.05724 0.0
C1866 C 0.85106 0.68682 0.06083 0.0
C1867 C 0.88046 0.66929 0.04537 0.0
C1868 C 0.88912 0.65229 0.03068 0.0
C1869 C 0.8653 0.70094 0.07393 0.0
C1870 C 0.88738 0.69966 0.07221 0.0
C1871 C 0.89472 0.68355 0.05836 0.0
C1872 C 0.90301 0.71572 0.08374 0.0
C1873 C 0.85664 0.71737 0.08929 0.0
C1874 C 0.9035 0.73727 0.07841 0.0
C1875 C 0.91821 0.75259 0.08908 0.0
C1876 C 0.93275 0.74666 0.10535 0.0
C1877 C 0.93233 0.72495 0.11053 0.0
C1878 C 0.91765 0.70958 0.0997 0.0
H1879 H 0.83996 0.71279 0.09267 0.0
H1880 H 0.86649 0.71934 0.10477 0.0
H1881 H 0.85695 0.73319 0.082 0.0
H1882 H 0.89253 0.74224 0.06589 0.0
H1883 H 0.91807 0.76911 0.08461 0.0
H1884 H 0.55388 0.27242 0.61905 0.0
H1885 H 0.58516 0.27625 0.59804 0.0
H1886 H 0.55168 0.31613 0.55505 0.0
H1887 H 0.52045 0.31268 0.57603 0.0
H1888 H 0.59243 0.26801 0.55387 0.0
H1889 H 0.60359 0.35516 0.58006 0.0
H1890 H 0.58577 0.33668 0.59254 0.0
H1891 H 0.57797 0.34683 0.56704 0.0
C1892 C 0.55303 0.28174 0.60494 0.0
C1893 C 0.53477 0.29254 0.59943 0.0
C1894 C 0.57093 0.28392 0.59297 0.0
C1895 C 0.57082 0.29687 0.57533 0.0
C1896 C 0.55218 0.30646 0.56892 0.0
H1897 H 0.66947 0.30944 0.48472 0.0
H1898 H 0.63585 0.30306 0.50138 0.0
C1899 C 0.53433 0.30439 0.5809 0.0
C1900 C 0.59055 0.30136 0.56443 0.0
H1901 H 0.62678 0.342 0.55473 0.0
C1902 C 0.59996 0.28417 0.55399 0.0
C1903 C 0.60043 0.32243 0.56497 0.0
C1904 C 0.59157 0.34133 0.57691 0.0
C1905 C 0.61898 0.28754 0.54385 0.0
C1906 C 0.62857 0.3087 0.54395 0.0
C1907 C 0.61924 0.32584 0.55454 0.0
C1908 C 0.64865 0.31333 0.53368 0.0
C1909 C 0.6289 0.26839 0.53355 0.0
C1910 C 0.66675 0.32198 0.54623 0.0
C1911 C 0.68595 0.32583 0.53676 0.0
C1912 C 0.68732 0.32113 0.51454 0.0
C1913 C 0.66897 0.31308 0.50191 0.0
C1914 C 0.64978 0.30928 0.5114 0.0
H1915 H 0.62242 0.25295 0.53935 0.0
H1916 H 0.62549 0.26785 0.51582 0.0
H1917 H 0.64641 0.2697 0.5369 0.0
H1918 H 0.66611 0.32537 0.56345 0.0
H1919 H 0.69977 0.33208 0.54692 0.0
H1920 H 0.24182 0.44302 0.09742 0.0
H1921 H 0.23614 0.46607 0.12953 0.0
H1922 H 0.19982 0.5072 0.09028 0.0
H1923 H 0.20441 0.48344 0.05833 0.0
H1924 H 0.24149 0.50804 0.14536 0.0
H1925 H 0.15559 0.48368 0.1275 0.0
H1926 H 0.17592 0.47203 0.11249 0.0
H1927 H 0.16762 0.4984 0.1071 0.0
C1928 C 0.23297 0.45721 0.09562 0.0
C1929 C 0.22311 0.46124 0.07559 0.0
C1930 C 0.2298 0.47042 0.11394 0.0
C1931 C 0.21704 0.48799 0.11235 0.0
C1932 C 0.20915 0.49333 0.09194 0.0
H1933 H 0.14777 0.53648 0.21903 0.0
H1934 H 0.16784 0.54026 0.18709 0.0
C1935 C 0.21182 0.47981 0.07373 0.0
C1936 C 0.20967 0.49861 0.1322 0.0
H1937 H 0.16508 0.50397 0.15961 0.0
C1938 C 0.22476 0.50747 0.14839 0.0
C1939 C 0.18781 0.49777 0.13615 0.0
C1940 C 0.17079 0.48731 0.12001 0.0
C1941 C 0.2186 0.51477 0.16872 0.0
C1942 C 0.19686 0.5131 0.17285 0.0
C1943 C 0.18174 0.50543 0.15628 0.0
C1944 C 0.18936 0.51578 0.1948 0.0
C1945 C 0.2354 0.52361 0.18578 0.0
C1946 C 0.19536 0.50135 0.21013 0.0
C1947 C 0.18384 0.49901 0.22832 0.0
C1948 C 0.166 0.51097 0.2314 0.0
C1949 C 0.16127 0.52685 0.21705 0.0
C1950 C 0.1728 0.52914 0.19883 0.0
H1951 H 0.24961 0.53063 0.17844 0.0
H1952 H 0.22922 0.53612 0.19676 0.0
H1953 H 0.2405 0.51029 0.19552 0.0
H1954 H 0.20781 0.49058 0.20716 0.0
H1955 H 0.18807 0.4868 0.23916 0.0
H1956 H 0.28613 0.54339 0.82706 0.0
H1957 H 0.26863 0.54038 0.86093 0.0
H1958 H 0.3186 0.50247 0.88501 0.0
H1959 H 0.33591 0.50522 0.85155 0.0
H1960 H 0.25525 0.49912 0.87356 0.0
H1961 H 0.30869 0.54299 0.93756 0.0
H1962 H 0.30942 0.5485 0.90944 0.0
H1963 H 0.32271 0.52616 0.91968 0.0
C1964 C 0.29365 0.53489 0.83981 0.0
C1965 C 0.31236 0.52441 0.83656 0.0
C1966 C 0.28365 0.53322 0.85912 0.0
C1967 C 0.29249 0.52145 0.87553 0.0
C1968 C 0.31175 0.51202 0.87273 0.0
H1969 H 0.27103 0.44527 0.9782 0.0
H1970 H 0.28357 0.46855 0.95086 0.0
C1971 C 0.32156 0.51345 0.85343 0.0
C1972 C 0.28036 0.51595 0.89415 0.0
H1973 H 0.28609 0.51334 0.9487 0.0
C1974 C 0.2616 0.50268 0.89008 0.0
C1975 C 0.28882 0.5206 0.91558 0.0
C1976 C 0.30842 0.53553 0.92086 0.0
C1977 C 0.252 0.49245 0.90674 0.0
C1978 C 0.26122 0.49607 0.92807 0.0
C1979 C 0.27917 0.51051 0.93231 0.0
C1980 C 0.25376 0.48335 0.94572 0.0
C1981 C 0.23304 0.47667 0.90114 0.0
C1982 C 0.23295 0.48426 0.95211 0.0
C1983 C 0.22564 0.47077 0.96754 0.0
C1984 C 0.23913 0.45637 0.97705 0.0
C1985 C 0.26021 0.4561 0.97115 0.0
C1986 C 0.26743 0.46945 0.95559 0.0
H1987 H 0.23054 0.47263 0.8835 0.0
H1988 H 0.23494 0.4615 0.90932 0.0
H1989 H 0.21854 0.48383 0.90668 0.0
H1990 H 0.2223 0.49519 0.94497 0.0
H1991 H 0.2094 0.4716 0.97195 0.0
H1992 H 0.32657 0.61169 0.5528 0.0
H1993 H 0.32816 0.5946 0.58703 0.0
H1994 H 0.27263 0.62604 0.60548 0.0
H1995 H 0.27082 0.64333 0.57121 0.0
H1996 H 0.33146 0.61898 0.62911 0.0
H1997 H 0.26066 0.56063 0.61692 0.0
H1998 H 0.27352 0.57198 0.5947 0.0
H1999 H 0.25689 0.58799 0.61057 0.0
C2000 C 0.31452 0.61485 0.56399 0.0
C2001 C 0.29858 0.62895 0.55924 0.0
C2002 C 0.3155 0.60506 0.58355 0.0
C2003 C 0.30045 0.60898 0.59865 0.0
C2004 C 0.28424 0.62265 0.59388 0.0
H2005 H 0.28478 0.56526 0.72681 0.0
H2006 H 0.2807 0.58177 0.69232 0.0
C2007 C 0.2833 0.63256 0.57432 0.0
C2008 C 0.3025 0.59967 0.61988 0.0
H2009 H 0.27918 0.56317 0.65121 0.0
C2010 C 0.32007 0.60676 0.63398 0.0
C2011 C 0.28751 0.58387 0.62613 0.0
C2012 C 0.26862 0.57548 0.6113 0.0
C2013 C 0.32299 0.59855 0.65434 0.0
C2014 C 0.3082 0.58243 0.66049 0.0
C2015 C 0.29052 0.57548 0.64643 0.0
C2016 C 0.31085 0.57251 0.68142 0.0
C2017 C 0.34164 0.60756 0.66922 0.0
C2018 C 0.32907 0.56163 0.68664 0.0
C2019 C 0.33154 0.55232 0.7064 0.0
C2020 C 0.31568 0.55347 0.7212 0.0
C2021 C 0.29731 0.56412 0.7158 0.0
C2022 C 0.29493 0.57354 0.69608 0.0
H2023 H 0.34765 0.62373 0.66478 0.0
H2024 H 0.33733 0.60886 0.68624 0.0
H2025 H 0.35479 0.59664 0.66804 0.0
H2026 H 0.34133 0.56019 0.67534 0.0
H2027 H 0.34578 0.54405 0.70998 0.0
H2028 H 0.1664 0.49898 0.34425 0.0
H2029 H 0.18559 0.52084 0.37397 0.0
H2030 H 0.15573 0.57717 0.35351 0.0
H2031 H 0.13642 0.55544 0.32353 0.0
H2032 H 0.20067 0.58205 0.35945 0.0
H2033 H 0.16484 0.54835 0.43026 0.0
H2034 H 0.17333 0.52837 0.41119 0.0
H2035 H 0.15213 0.54478 0.40335 0.0
C2036 C 0.16368 0.51597 0.34615 0.0
C2037 C 0.14989 0.52546 0.33143 0.0
C2038 C 0.17457 0.5284 0.36327 0.0
C2039 C 0.17188 0.55054 0.36605 0.0
C2040 C 0.15788 0.56005 0.35168 0.0
H2041 H 0.23051 0.63728 0.47177 0.0
H2042 H 0.20497 0.61705 0.44571 0.0
C2043 C 0.14686 0.5476 0.33458 0.0
C2044 C 0.18501 0.56396 0.38295 0.0
H2045 H 0.19742 0.57003 0.43724 0.0
C2046 C 0.19982 0.57959 0.37647 0.0
C2047 C 0.18375 0.56077 0.40513 0.0
C2048 C 0.16753 0.5448 0.41298 0.0
C2049 C 0.21393 0.59164 0.39157 0.0
C2050 C 0.21328 0.58781 0.41366 0.0
C2051 C 0.19799 0.57272 0.42024 0.0
C2052 C 0.22859 0.59919 0.43008 0.0
C2053 C 0.22949 0.60835 0.38381 0.0
C2054 C 0.25023 0.59544 0.43014 0.0
C2055 C 0.26488 0.60688 0.44504 0.0
C2056 C 0.25812 0.62232 0.46012 0.0
C2057 C 0.23629 0.6256 0.46032 0.0
C2058 C 0.22166 0.61406 0.44548 0.0
H2059 H 0.22486 0.61267 0.3672 0.0
H2060 H 0.23077 0.62321 0.39475 0.0
H2061 H 0.24543 0.60185 0.38372 0.0
H2062 H 0.25581 0.5838 0.41852 0.0
H2063 H 0.28153 0.60388 0.44444 0.0
loop_
_geom_bond_atom_site_label_1
_geom_bond_atom_site_label_2
_geom_bond_distance
_geom_bond_site_symmetry_2
_ccdc_geom_bond_type
Mg0 O1 2.028 . S
Mg0 O7 1.986 . S
Mg0 O9 2.114 1_455 S
Mg0 O10 2.251 1_455 S
Mg0 O13 2.010 . S
O1 Mg0 2.028 . S
O1 C4 1.250 1_455 S
O2 Mg3 2.028 . S
O2 C4 1.248 . S
Mg3 O2 2.028 . S
Mg3 O8 1.994 1_655 S
Mg3 O10 2.079 . S
C4 O1 1.250 1_655 S
C4 O2 1.248 . S
C5 O6 1.264 . S
C5 O13 1.249 . S
O6 C5 1.264 . S
O7 Mg0 1.986 . S
O7 C11 1.246 . S
O8 Mg3 1.994 1_455 S
O8 C11 1.300 . S
O9 Mg0 2.114 1_655 S
O9 C12 1.252 . S
O10 Mg0 2.251 1_655 S
O10 Mg3 2.079 . S
O10 C12 1.273 . S
C11 O7 1.246 . S
C11 O8 1.300 . S
C12 O9 1.252 . S
C12 O10 1.273 . S
O13 Mg0 2.010 . S
O13 C5 1.249 . S
Mg14 O15 2.028 . S
Mg14 O21 1.986 . S
Mg14 O23 2.114 1_455 S
Mg14 O24 2.251 1_455 S
Mg14 O27 2.010 . S
O15 Mg14 2.028 . S
O15 C18 1.250 . S
O16 Mg17 2.028 1_455 S
O16 C18 1.248 . S
Mg17 O16 2.028 1_655 S
Mg17 O22 2.032 . S
Mg17 O24 2.079 . S
C18 O15 1.250 . S
C18 O16 1.248 . S
C19 O20 1.264 . S
C19 O27 1.249 . S
O20 C19 1.264 . S
O21 Mg14 1.986 . S
O21 C25 1.246 1_455 S
O22 Mg17 2.032 . S
O22 C25 1.259 . S
O23 Mg14 2.114 1_655 S
O23 C26 1.252 . S
O24 Mg14 2.251 1_655 S
O24 Mg17 2.079 . S
O24 C26 1.273 . S
C25 O21 1.246 1_655 S
C25 O22 1.259 . S
C26 O23 1.252 . S
C26 O24 1.273 . S
O27 Mg14 2.010 . S
O27 C19 1.249 . S
Mg28 O29 2.028 . S
Mg28 O35 1.986 . S
Mg28 O37 2.114 . S
Mg28 O38 2.251 . S
Mg28 O41 2.010 . S
O29 Mg28 2.028 . S
O29 C32 1.250 . S
O30 Mg31 2.028 . S
O30 C32 1.248 . S
Mg31 O30 2.028 . S
Mg31 O36 2.032 . S
Mg31 O38 2.079 . S
C32 O29 1.250 . S
C32 O30 1.248 . S
C33 O34 1.264 . S
C33 O41 1.249 . S
O34 C33 1.264 . S
O35 Mg28 1.986 . S
O35 C39 1.246 . S
O36 Mg31 2.032 . S
O36 C39 1.259 . S
O37 Mg28 2.114 . S
O37 C40 1.252 . S
O38 Mg28 2.251 . S
O38 Mg31 2.079 . S
O38 C40 1.273 . S
C39 O35 1.246 . S
C39 O36 1.259 . S
C40 O37 1.252 . S
C40 O38 1.273 . S
O41 Mg28 2.010 . S
O41 C33 1.249 . S
Mg42 O43 2.028 . S
Mg42 O49 1.986 . S
Mg42 O51 2.114 . S
Mg42 O52 2.251 . S
Mg42 O55 2.010 . S
O43 Mg42 2.028 . S
O43 C46 1.250 . S
O44 Mg45 2.028 . S
O44 C46 1.248 . S
Mg45 O44 2.028 . S
Mg45 O50 2.032 . S
Mg45 O52 2.079 . S
C46 O43 1.250 . S
C46 O44 1.248 . S
C47 O48 1.264 . S
C47 O55 1.249 . S
O48 C47 1.264 . S
O49 Mg42 1.986 . S
O49 C53 1.246 . S
O50 Mg45 2.032 . S
O50 C53 1.259 . S
O51 Mg42 2.114 . S
O51 C54 1.252 . S
O52 Mg42 2.251 . S
O52 Mg45 2.079 . S
O52 C54 1.273 . S
C53 O49 1.246 . S
C53 O50 1.259 . S
C54 O51 1.252 . S
C54 O52 1.273 . S
O55 Mg42 2.010 . S
O55 C47 1.249 . S
Mg56 O57 2.028 1_455 S
Mg56 O63 1.986 . S
Mg56 O65 2.114 1_455 S
Mg56 O66 2.251 1_455 S
Mg56 O69 2.010 . S
O57 Mg56 2.028 1_655 S
O57 C60 1.250 . S
O58 Mg59 2.028 . S
O58 C60 1.248 . S
Mg59 O58 2.028 . S
Mg59 O64 2.032 1_655 S
Mg59 O66 2.079 . S
C60 O57 1.250 . S
C60 O58 1.248 . S
C61 O62 1.264 . S
C61 O69 1.249 . S
O62 C61 1.264 . S
O63 Mg56 1.986 . S
O63 C67 1.246 . S
O64 Mg59 2.032 1_455 S
O64 C67 1.259 . S
O65 Mg56 2.114 1_655 S
O65 C68 1.252 . S
O66 Mg56 2.251 1_655 S
O66 Mg59 2.079 . S
O66 C68 1.273 . S
C67 O63 1.246 . S
C67 O64 1.259 . S
C68 O65 1.252 . S
C68 O66 1.273 . S
O69 Mg56 2.010 . S
O69 C61 1.249 . S
Mg70 O71 2.028 . S
Mg70 O77 1.986 . S
Mg70 O79 2.114 . S
Mg70 O80 2.251 . S
Mg70 O83 2.010 . S
O71 Mg70 2.028 . S
O71 C74 1.250 . S
O72 Mg73 2.028 . S
O72 C74 1.248 . S
Mg73 O72 2.028 . S
Mg73 O78 2.032 . S
Mg73 O80 2.079 . S
C74 O71 1.250 . S
C74 O72 1.248 . S
C75 O76 1.264 . S
C75 O83 1.249 . S
O76 C75 1.264 . S
O77 Mg70 1.986 . S
O77 C81 1.246 . S
O78 Mg73 2.032 . S
O78 C81 1.259 . S
O79 Mg70 2.114 . S
O79 C82 1.252 . S
O80 Mg70 2.251 . S
O80 Mg73 2.079 . S
O80 C82 1.273 . S
C81 O77 1.246 . S
C81 O78 1.259 . S
C82 O79 1.252 . S
C82 O80 1.273 . S
O83 Mg70 2.010 . S
O83 C75 1.249 . S
Mg84 O85 2.028 . S
Mg84 O91 1.986 . S
Mg84 O93 2.114 . S
Mg84 O94 2.251 . S
Mg84 O97 2.010 . S
O85 Mg84 2.028 . S
O85 C88 1.250 . S
O86 Mg87 2.028 . S
O86 C88 1.248 . S
Mg87 O86 2.028 . S
Mg87 O92 2.032 . S
Mg87 O94 2.079 . S
C88 O85 1.250 . S
C88 O86 1.248 . S
C89 O90 1.264 . S
C89 O97 1.249 . S
O90 C89 1.264 . S
O91 Mg84 1.986 . S
O91 C95 1.246 . S
O92 Mg87 2.032 . S
O92 C95 1.259 . S
O93 Mg84 2.114 . S
O93 C96 1.252 . S
O94 Mg84 2.251 . S
O94 Mg87 2.079 . S
O94 C96 1.273 . S
C95 O91 1.246 . S
C95 O92 1.259 . S
C96 O93 1.252 . S
C96 O94 1.273 . S
O97 Mg84 2.010 . S
O97 C89 1.249 . S
Mg98 O99 2.028 1_455 S
Mg98 O105 1.986 . S
Mg98 O107 2.114 . S
Mg98 O108 2.251 . S
Mg98 O111 2.010 1_455 S
O99 Mg98 2.028 1_655 S
O99 C102 1.250 . S
O100 Mg101 2.028 . S
O100 C102 1.248 1_455 S
Mg101 O100 2.028 . S
Mg101 O106 2.032 . S
Mg101 O108 2.079 . S
C102 O99 1.250 . S
C102 O100 1.248 1_655 S
C103 O104 1.264 . S
C103 O111 1.249 . S
O104 C103 1.264 . S
O105 Mg98 1.986 . S
O105 C109 1.246 . S
O106 Mg101 2.032 . S
O106 C109 1.259 . S
O107 Mg98 2.114 . S
O107 C110 1.252 . S
O108 Mg98 2.251 . S
O108 Mg101 2.079 . S
O108 C110 1.273 . S
C109 O105 1.246 . S
C109 O106 1.259 . S
C110 O107 1.252 . S
C110 O108 1.273 . S
O111 Mg98 2.010 1_655 S
O111 C103 1.249 . S
Mg112 O113 2.020 1_545 S
Mg112 O119 1.986 . S
Mg112 O121 2.114 1_545 S
Mg112 O122 2.251 1_545 S
Mg112 O125 2.010 . S
O113 Mg112 2.020 1_565 S
O113 C116 1.284 . S
O114 Mg115 2.028 . S
O114 C116 1.248 . S
Mg115 O114 2.028 . S
Mg115 O120 2.032 . S
Mg115 O122 2.079 . S
C116 O113 1.284 . S
C116 O114 1.248 . S
C117 O118 1.264 . S
C117 O125 1.249 . S
O118 C117 1.264 . S
O119 Mg112 1.986 . S
O119 C123 1.246 . S
O120 Mg115 2.032 . S
O120 C123 1.259 1_565 S
O121 Mg112 2.114 1_565 S
O121 C124 1.252 . S
O122 Mg112 2.251 1_565 S
O122 Mg115 2.079 . S
O122 C124 1.273 . S
C123 O119 1.246 . S
C123 O120 1.259 1_545 S
C124 O121 1.252 . S
C124 O122 1.273 . S
O125 Mg112 2.010 . S
O125 C117 1.249 . S
Mg126 O127 2.028 . S
Mg126 O133 1.986 . S
Mg126 O135 2.114 . S
Mg126 O136 2.251 . S
Mg126 O139 2.010 . S
O127 Mg126 2.028 . S
O127 C130 1.250 . S
O128 Mg129 2.028 . S
O128 C130 1.248 . S
Mg129 O128 2.028 . S
Mg129 O134 2.032 . S
Mg129 O136 2.079 . S
C130 O127 1.250 . S
C130 O128 1.248 . S
C131 O132 1.264 . S
C131 O139 1.249 . S
O132 C131 1.264 . S
O133 Mg126 1.986 . S
O133 C137 1.246 . S
O134 Mg129 2.032 . S
O134 C137 1.259 . S
O135 Mg126 2.114 . S
O135 C138 1.252 . S
O136 Mg126 2.251 . S
O136 Mg129 2.079 . S
O136 C138 1.273 . S
C137 O133 1.246 . S
C137 O134 1.259 . S
C138 O135 1.252 . S
C138 O136 1.273 . S
O139 Mg126 2.010 . S
O139 C131 1.249 . S
Mg140 O141 2.028 1_545 S
Mg140 O147 1.986 . S
Mg140 O149 2.114 1_545 S
Mg140 O150 2.251 1_545 S
Mg140 O153 2.010 . S
O141 Mg140 2.028 1_565 S
O141 C144 1.250 . S
O142 Mg143 2.028 . S
O142 C144 1.248 . S
Mg143 O142 2.028 . S
Mg143 O148 2.032 1_565 S
Mg143 O150 2.079 . S
C144 O141 1.250 . S
C144 O142 1.248 . S
C145 O146 1.264 . S
C145 O153 1.249 . S
O146 C145 1.264 . S
O147 Mg140 1.986 . S
O147 C151 1.246 . S
O148 Mg143 2.032 1_545 S
O148 C151 1.259 . S
O149 Mg140 2.114 1_565 S
O149 C152 1.252 . S
O150 Mg140 2.251 1_565 S
O150 Mg143 2.079 . S
O150 C152 1.273 . S
C151 O147 1.246 . S
C151 O148 1.259 . S
C152 O149 1.252 . S
C152 O150 1.273 . S
O153 Mg140 2.010 . S
O153 C145 1.249 . S
Mg154 O155 2.030 . S
Mg154 O161 1.985 1_554 S
Mg154 O163 2.114 . S
Mg154 O164 2.251 1_554 S
Mg154 O167 2.011 . S
O155 Mg154 2.030 . S
O155 C158 1.250 . S
O156 Mg157 2.028 1_554 S
O156 C158 1.248 . S
Mg157 O156 2.028 1_556 S
Mg157 O162 2.032 . S
Mg157 O164 2.079 . S
C158 O155 1.250 . S
C158 O156 1.248 . S
C159 O160 1.264 . S
C159 O167 1.249 . S
O160 C159 1.264 . S
O161 Mg154 1.985 1_556 S
O161 C165 1.246 . S
O162 Mg157 2.032 . S
O162 C165 1.259 . S
O163 Mg154 2.114 . S
O163 C166 1.252 1_554 S
O164 Mg154 2.251 1_556 S
O164 Mg157 2.079 . S
O164 C166 1.273 . S
C165 O161 1.246 . S
C165 O162 1.259 . S
C166 O163 1.252 1_556 S
C166 O164 1.273 . S
O167 Mg154 2.011 . S
O167 C159 1.249 . S
Mg168 O169 2.028 1_554 S
Mg168 O175 1.986 . S
Mg168 O177 2.114 1_554 S
Mg168 O178 2.251 1_554 S
Mg168 O181 2.010 . S
O169 Mg168 2.028 1_556 S
O169 C172 1.250 . S
O170 Mg171 2.028 . S
O170 C172 1.248 . S
Mg171 O170 2.028 . S
Mg171 O176 2.032 1_556 S
Mg171 O178 2.079 . S
C172 O169 1.250 . S
C172 O170 1.248 . S
C173 O174 1.264 . S
C173 O181 1.249 . S
O174 C173 1.264 . S
O175 Mg168 1.986 . S
O175 C179 1.246 . S
O176 Mg171 2.032 1_554 S
O176 C179 1.259 . S
O177 Mg168 2.114 1_556 S
O177 C180 1.252 . S
O178 Mg168 2.251 1_556 S
O178 Mg171 2.079 . S
O178 C180 1.273 . S
C179 O175 1.246 . S
C179 O176 1.259 . S
C180 O177 1.252 . S
C180 O178 1.273 . S
O181 Mg168 2.010 . S
O181 C173 1.249 . S
Mg182 O183 2.028 1_554 S
Mg182 O189 1.986 . S
Mg182 O191 2.114 1_554 S
Mg182 O192 2.251 1_554 S
Mg182 O195 2.010 . S
O183 Mg182 2.028 1_556 S
O183 C186 1.250 . S
O184 Mg185 2.028 . S
O184 C186 1.248 . S
Mg185 O184 2.028 . S
Mg185 O190 2.032 1_556 S
Mg185 O192 2.079 . S
C186 O183 1.250 . S
C186 O184 1.248 . S
C187 O188 1.264 . S
C187 O195 1.249 . S
O188 C187 1.264 . S
O189 Mg182 1.986 . S
O189 C193 1.246 . S
O190 Mg185 2.032 1_554 S
O190 C193 1.259 . S
O191 Mg182 2.114 1_556 S
O191 C194 1.252 . S
O192 Mg182 2.251 1_556 S
O192 Mg185 2.079 . S
O192 C194 1.273 . S
C193 O189 1.246 . S
C193 O190 1.259 . S
C194 O191 1.252 . S
C194 O192 1.273 . S
O195 Mg182 2.010 . S
O195 C187 1.249 . S
Mg196 O197 2.028 . S
Mg196 O203 1.986 . S
Mg196 O205 2.114 . S
Mg196 O206 2.251 . S
Mg196 O209 2.010 . S
O197 Mg196 2.028 . S
O197 C200 1.250 . S
O198 Mg199 2.028 . S
O198 C200 1.248 . S
Mg199 O198 2.028 . S
Mg199 O204 2.032 . S
Mg199 O206 2.079 . S
C200 O197 1.250 . S
C200 O198 1.248 . S
C201 O202 1.264 . S
C201 O209 1.249 . S
O202 C201 1.264 . S
O203 Mg196 1.986 . S
O203 C207 1.246 . S
O204 Mg199 2.032 . S
O204 C207 1.259 . S
O205 Mg196 2.114 . S
O205 C208 1.252 . S
O206 Mg196 2.251 . S
O206 Mg199 2.079 . S
O206 C208 1.273 . S
C207 O203 1.246 . S
C207 O204 1.259 . S
C208 O205 1.252 . S
C208 O206 1.273 . S
O209 Mg196 2.010 . S
O209 C201 1.249 . S
Mg210 O211 2.028 . S
Mg210 O217 1.986 . S
Mg210 O219 2.114 . S
Mg210 O220 2.251 . S
Mg210 O223 2.010 . S
O211 Mg210 2.028 . S
O211 C214 1.250 . S
O212 Mg213 2.028 . S
O212 C214 1.248 . S
Mg213 O212 2.028 . S
Mg213 O218 2.032 . S
Mg213 O220 2.079 . S
C214 O211 1.250 . S
C214 O212 1.248 . S
C215 O216 1.264 . S
C215 O223 1.249 . S
O216 C215 1.264 . S
O217 Mg210 1.986 . S
O217 C221 1.246 . S
O218 Mg213 2.032 . S
O218 C221 1.259 . S
O219 Mg210 2.114 . S
O219 C222 1.252 . S
O220 Mg210 2.251 . S
O220 Mg213 2.079 . S
O220 C222 1.273 . S
C221 O217 1.246 . S
C221 O218 1.259 . S
C222 O219 1.252 . S
C222 O220 1.273 . S
O223 Mg210 2.010 . S
O223 C215 1.249 . S
Mg224 O225 2.028 . S
Mg224 O231 1.986 1_545 S
Mg224 O233 2.114 . S
Mg224 O234 2.251 1_545 S
Mg224 O237 2.010 . S
O225 Mg224 2.028 . S
O225 C228 1.250 . S
O226 Mg227 2.028 1_545 S
O226 C228 1.248 . S
Mg227 O226 2.028 1_565 S
Mg227 O232 2.032 . S
Mg227 O234 2.079 . S
C228 O225 1.250 . S
C228 O226 1.248 . S
C229 O230 1.264 . S
C229 O237 1.249 . S
O230 C229 1.264 . S
O231 Mg224 1.986 1_565 S
O231 C235 1.246 . S
O232 Mg227 2.032 . S
O232 C235 1.259 . S
O233 Mg224 2.114 . S
O233 C236 1.252 1_545 S
O234 Mg224 2.251 1_565 S
O234 Mg227 2.079 . S
O234 C236 1.273 . S
C235 O231 1.246 . S
C235 O232 1.259 . S
C236 O233 1.252 1_565 S
C236 O234 1.273 . S
O237 Mg224 2.010 . S
O237 C229 1.249 . S
Mg238 O239 2.028 . S
Mg238 O245 1.986 . S
Mg238 O247 2.114 . S
Mg238 O248 2.251 . S
Mg238 O251 2.010 . S
O239 Mg238 2.028 . S
O239 C242 1.250 . S
O240 Mg241 2.028 . S
O240 C242 1.248 . S
Mg241 O240 2.028 . S
Mg241 O246 2.032 . S
Mg241 O248 2.079 . S
C242 O239 1.250 . S
C242 O240 1.248 . S
C243 O244 1.264 . S
C243 O251 1.249 . S
O244 C243 1.264 . S
O245 Mg238 1.986 . S
O245 C249 1.246 . S
O246 Mg241 2.032 . S
O246 C249 1.259 . S
O247 Mg238 2.114 . S
O247 C250 1.252 . S
O248 Mg238 2.251 . S
O248 Mg241 2.079 . S
O248 C250 1.273 . S
C249 O245 1.246 . S
C249 O246 1.259 . S
C250 O247 1.252 . S
C250 O248 1.273 . S
O251 Mg238 2.010 . S
O251 C243 1.249 . S
Mg252 O253 2.028 . S
Mg252 O259 1.986 . S
Mg252 O261 2.114 . S
Mg252 O262 2.251 . S
Mg252 O265 2.010 . S
O253 Mg252 2.028 . S
O253 C256 1.250 . S
O254 Mg255 2.028 . S
O254 C256 1.248 . S
Mg255 O254 2.028 . S
Mg255 O260 2.032 . S
Mg255 O262 2.079 . S
C256 O253 1.250 . S
C256 O254 1.248 . S
C257 O258 1.264 . S
C257 O265 1.249 . S
O258 C257 1.264 . S
O259 Mg252 1.986 . S
O259 C263 1.246 . S
O260 Mg255 2.032 . S
O260 C263 1.259 . S
O261 Mg252 2.114 . S
O261 C264 1.252 . S
O262 Mg252 2.251 . S
O262 Mg255 2.079 . S
O262 C264 1.273 . S
C263 O259 1.246 . S
C263 O260 1.259 . S
C264 O261 1.252 . S
C264 O262 1.273 . S
O265 Mg252 2.010 . S
O265 C257 1.249 . S
Mg266 O267 2.028 . S
Mg266 O273 1.986 . S
Mg266 O275 2.114 1_545 S
Mg266 O276 2.251 1_545 S
Mg266 O279 2.010 . S
O267 Mg266 2.028 . S
O267 C270 1.250 . S
O268 Mg269 2.028 1_545 S
O268 C270 1.248 . S
Mg269 O268 2.028 1_565 S
Mg269 O274 2.032 . S
Mg269 O276 2.079 . S
C270 O267 1.250 . S
C270 O268 1.248 . S
C271 O272 1.264 . S
C271 O279 1.249 . S
O272 C271 1.264 . S
O273 Mg266 1.986 . S
O273 C277 1.246 1_545 S
O274 Mg269 2.032 . S
O274 C277 1.259 . S
O275 Mg266 2.114 1_565 S
O275 C278 1.252 . S
O276 Mg266 2.251 1_565 S
O276 Mg269 2.079 . S
O276 C278 1.273 . S
C277 O273 1.246 1_565 S
C277 O274 1.259 . S
C278 O275 1.252 . S
C278 O276 1.273 . S
O279 Mg266 2.010 . S
O279 C271 1.249 . S
Mg280 O281 2.028 . S
Mg280 O287 1.986 1_554 S
Mg280 O289 2.114 1_554 S
Mg280 O290 2.251 1_554 S
Mg280 O293 2.010 . S
O281 Mg280 2.028 . S
O281 C284 1.250 . S
O282 Mg283 2.059 . S
O282 C284 1.216 1_556 S
Mg283 O282 2.059 . S
Mg283 O288 2.032 . S
Mg283 O290 2.079 . S
C284 O281 1.250 . S
C284 O282 1.216 1_554 S
C285 O286 1.264 . S
C285 O293 1.249 . S
O286 C285 1.264 . S
O287 Mg280 1.986 1_556 S
O287 C291 1.246 . S
O288 Mg283 2.032 . S
O288 C291 1.259 . S
O289 Mg280 2.114 1_556 S
O289 C292 1.252 . S
O290 Mg280 2.251 1_556 S
O290 Mg283 2.079 . S
O290 C292 1.273 . S
C291 O287 1.246 . S
C291 O288 1.259 . S
C292 O289 1.252 . S
C292 O290 1.273 . S
O293 Mg280 2.010 . S
O293 C285 1.249 . S
Mg294 O295 2.028 . S
Mg294 O301 1.986 . S
Mg294 O303 2.114 . S
Mg294 O304 2.251 . S
Mg294 O307 2.010 . S
O295 Mg294 2.028 . S
O295 C298 1.250 . S
O296 Mg297 2.028 . S
O296 C298 1.248 . S
Mg297 O296 2.028 . S
Mg297 O302 2.032 . S
Mg297 O304 2.079 . S
C298 O295 1.250 . S
C298 O296 1.248 . S
C299 O300 1.264 . S
C299 O307 1.249 . S
O300 C299 1.264 . S
O301 Mg294 1.986 . S
O301 C305 1.246 . S
O302 Mg297 2.032 . S
O302 C305 1.259 . S
O303 Mg294 2.114 . S
O303 C306 1.252 . S
O304 Mg294 2.251 . S
O304 Mg297 2.079 . S
O304 C306 1.273 . S
C305 O301 1.246 . S
C305 O302 1.259 . S
C306 O303 1.252 . S
C306 O304 1.273 . S
O307 Mg294 2.010 . S
O307 C299 1.249 . S
Mg308 O309 2.028 . S
Mg308 O315 1.986 . S
Mg308 O317 2.114 . S
Mg308 O318 2.251 . S
Mg308 O321 2.010 . S
O309 Mg308 2.028 . S
O309 C312 1.250 . S
O310 Mg311 2.028 . S
O310 C312 1.248 . S
Mg311 O310 2.028 . S
Mg311 O316 2.032 . S
Mg311 O318 2.079 . S
C312 O309 1.250 . S
C312 O310 1.248 . S
C313 O314 1.264 . S
C313 O321 1.249 . S
O314 C313 1.264 . S
O315 Mg308 1.986 . S
O315 C319 1.246 . S
O316 Mg311 2.032 . S
O316 C319 1.259 . S
O317 Mg308 2.114 . S
O317 C320 1.252 . S
O318 Mg308 2.251 . S
O318 Mg311 2.079 . S
O318 C320 1.273 . S
C319 O315 1.246 . S
C319 O316 1.259 . S
C320 O317 1.252 . S
C320 O318 1.273 . S
O321 Mg308 2.010 . S
O321 C313 1.249 . S
Mg322 O323 2.028 . S
Mg322 O329 1.986 . S
Mg322 O331 2.114 . S
Mg322 O332 2.251 . S
Mg322 O335 2.010 . S
O323 Mg322 2.028 . S
O323 C326 1.250 . S
O324 Mg325 2.028 . S
O324 C326 1.248 . S
Mg325 O324 2.028 . S
Mg325 O330 2.032 . S
Mg325 O332 2.079 . S
C326 O323 1.250 . S
C326 O324 1.248 . S
C327 O328 1.264 . S
C327 O335 1.249 . S
O328 C327 1.264 . S
O329 Mg322 1.986 . S
O329 C333 1.246 . S
O330 Mg325 2.032 . S
O330 C333 1.259 . S
O331 Mg322 2.114 . S
O331 C334 1.252 . S
O332 Mg322 2.251 . S
O332 Mg325 2.079 . S
O332 C334 1.273 . S
C333 O329 1.246 . S
C333 O330 1.259 . S
C334 O331 1.252 . S
C334 O332 1.273 . S
O335 Mg322 2.010 . S
O335 C327 1.249 . S
H336 C344 0.929 . S
H337 C346 0.930 . S
H338 C348 0.930 . S
H339 C351 0.929 . S
H340 C354 0.930 . S
H341 C356 0.960 . S
H342 C356 0.960 . S
H343 C356 0.960 . S
C344 H336 0.929 . S
C344 C345 1.377 . S
C344 C346 1.384 . S
C345 C344 1.377 . S
C345 C351 1.390 . S
C346 H337 0.930 . S
C346 C344 1.384 . S
C346 C347 1.372 . S
C347 C346 1.372 . S
C347 C348 1.400 . S
C347 C352 1.490 . S
C348 H338 0.930 . S
C348 C347 1.400 . S
C348 C351 1.386 . S
H349 C365 0.930 . S
H350 C366 0.931 . S
C351 H339 0.929 . S
C351 C345 1.390 . S
C351 C348 1.386 . S
C352 C347 1.490 . S
C352 C354 1.395 . S
C352 C355 1.403 . S
H353 C359 0.930 . S
C354 H340 0.930 . S
C354 C352 1.395 . S
C354 C357 1.403 . S
C355 C352 1.403 . S
C355 C356 1.524 . S
C355 C359 1.400 . S
C356 H341 0.960 . S
C356 H342 0.960 . S
C356 H343 0.960 . S
C356 C355 1.524 . S
C357 C354 1.403 . S
C357 C358 1.392 . S
C357 C361 1.495 . S
C358 C357 1.392 . S
C358 C359 1.385 . S
C358 C360 1.478 . S
C359 H353 0.930 . S
C359 C355 1.400 . S
C359 C358 1.385 . S
C360 C358 1.478 . S
C360 C362 1.381 . S
C360 C366 1.383 . S
C361 C357 1.495 . S
C361 H367 0.959 . S
C361 H368 0.961 . S
C361 H369 0.960 . S
C362 C360 1.381 . S
C362 C363 1.394 . S
C362 H370 0.930 . S
C363 C362 1.394 . S
C363 C364 1.383 . S
C363 H371 0.929 . S
C364 C363 1.383 . S
C364 C365 1.377 . S
C365 H349 0.930 . S
C365 C364 1.377 . S
C365 C366 1.379 . S
C366 H350 0.931 . S
C366 C360 1.383 . S
C366 C365 1.379 . S
H367 C361 0.959 . S
H368 C361 0.961 . S
H369 C361 0.960 . S
H370 C362 0.930 . S
H371 C363 0.929 . S
H372 C380 0.929 . S
H373 C382 0.930 . S
H374 C384 0.930 . S
H375 C387 0.929 . S
H376 C390 0.930 . S
H377 C392 0.960 . S
H378 C392 0.960 . S
H379 C392 0.960 . S
C380 H372 0.929 . S
C380 C381 1.377 . S
C380 C382 1.384 . S
C381 C380 1.377 . S
C381 C387 1.390 . S
C382 H373 0.930 . S
C382 C380 1.384 . S
C382 C383 1.372 . S
C383 C382 1.372 . S
C383 C384 1.400 . S
C383 C388 1.490 . S
C384 H374 0.930 . S
C384 C383 1.400 . S
C384 C387 1.386 . S
H385 C401 0.930 . S
H386 C402 0.931 . S
C387 H375 0.929 . S
C387 C381 1.390 . S
C387 C384 1.386 . S
C388 C383 1.490 . S
C388 C390 1.395 . S
C388 C391 1.403 . S
H389 C395 0.930 . S
C390 H376 0.930 . S
C390 C388 1.395 . S
C390 C393 1.403 . S
C391 C388 1.403 . S
C391 C392 1.524 . S
C391 C395 1.400 . S
C392 H377 0.960 . S
C392 H378 0.960 . S
C392 H379 0.960 . S
C392 C391 1.524 . S
C393 C390 1.403 . S
C393 C394 1.392 . S
C393 C397 1.495 . S
C394 C393 1.392 . S
C394 C395 1.385 . S
C394 C396 1.478 . S
C395 H389 0.930 . S
C395 C391 1.400 . S
C395 C394 1.385 . S
C396 C394 1.478 . S
C396 C398 1.381 . S
C396 C402 1.383 . S
C397 C393 1.495 . S
C397 H403 0.959 . S
C397 H404 0.961 . S
C397 H405 0.960 . S
C398 C396 1.381 . S
C398 C399 1.394 . S
C398 H406 0.930 . S
C399 C398 1.394 . S
C399 C400 1.383 . S
C399 H407 0.929 . S
C400 C399 1.383 . S
C400 C401 1.377 . S
C401 H385 0.930 . S
C401 C400 1.377 . S
C401 C402 1.379 . S
C402 H386 0.931 . S
C402 C396 1.383 . S
C402 C401 1.379 . S
H403 C397 0.959 . S
H404 C397 0.961 . S
H405 C397 0.960 . S
H406 C398 0.930 . S
H407 C399 0.929 . S
H408 C416 0.929 . S
H409 C418 0.930 . S
H410 C420 0.930 . S
H411 C423 0.929 . S
H412 C426 0.930 . S
H413 C428 0.960 . S
H414 C428 0.960 . S
H415 C428 0.960 . S
C416 H408 0.929 . S
C416 C417 1.377 . S
C416 C418 1.384 . S
C417 C416 1.377 . S
C417 C423 1.390 . S
C418 H409 0.930 . S
C418 C416 1.384 . S
C418 C419 1.372 . S
C419 C418 1.372 . S
C419 C420 1.400 . S
C419 C424 1.490 . S
C420 H410 0.930 . S
C420 C419 1.400 . S
C420 C423 1.386 . S
H421 C437 0.930 . S
H422 C438 0.931 . S
C423 H411 0.929 . S
C423 C417 1.390 . S
C423 C420 1.386 . S
C424 C419 1.490 . S
C424 C426 1.395 . S
C424 C427 1.403 . S
H425 C431 0.930 . S
C426 H412 0.930 . S
C426 C424 1.395 . S
C426 C429 1.403 . S
C427 C424 1.403 . S
C427 C428 1.524 . S
C427 C431 1.400 . S
C428 H413 0.960 . S
C428 H414 0.960 . S
C428 H415 0.960 . S
C428 C427 1.524 . S
C429 C426 1.403 . S
C429 C430 1.392 . S
C429 C433 1.495 . S
C430 C429 1.392 . S
C430 C431 1.385 . S
C430 C432 1.478 . S
C431 H425 0.930 . S
C431 C427 1.400 . S
C431 C430 1.385 . S
C432 C430 1.478 . S
C432 C434 1.381 . S
C432 C438 1.383 . S
C433 C429 1.495 . S
C433 H439 0.959 . S
C433 H440 0.961 . S
C433 H441 0.960 . S
C434 C432 1.381 . S
C434 C435 1.394 . S
C434 H442 0.930 . S
C435 C434 1.394 . S
C435 C436 1.383 . S
C435 H443 0.929 . S
C436 C435 1.383 . S
C436 C437 1.377 . S
C437 H421 0.930 . S
C437 C436 1.377 . S
C437 C438 1.379 . S
C438 H422 0.931 . S
C438 C432 1.383 . S
C438 C437 1.379 . S
H439 C433 0.959 . S
H440 C433 0.961 . S
H441 C433 0.960 . S
H442 C434 0.930 . S
H443 C435 0.929 . S
H444 C452 0.929 . S
H445 C454 0.930 . S
H446 C456 0.930 . S
H447 C459 0.929 . S
H448 C462 0.930 . S
H449 C464 0.960 . S
H450 C464 0.960 . S
H451 C464 0.960 . S
C452 H444 0.929 . S
C452 C453 1.377 . S
C452 C454 1.384 . S
C453 C452 1.377 . S
C453 C459 1.390 . S
C454 H445 0.930 . S
C454 C452 1.384 . S
C454 C455 1.372 . S
C455 C454 1.372 . S
C455 C456 1.400 . S
C455 C460 1.490 . S
C456 H446 0.930 . S
C456 C455 1.400 . S
C456 C459 1.386 . S
H457 C473 0.930 . S
H458 C474 0.931 . S
C459 H447 0.929 . S
C459 C453 1.390 . S
C459 C456 1.386 . S
C460 C455 1.490 . S
C460 C462 1.395 . S
C460 C463 1.403 . S
H461 C467 0.930 . S
C462 H448 0.930 . S
C462 C460 1.395 . S
C462 C465 1.403 . S
C463 C460 1.403 . S
C463 C464 1.524 . S
C463 C467 1.400 . S
C464 H449 0.960 . S
C464 H450 0.960 . S
C464 H451 0.960 . S
C464 C463 1.524 . S
C465 C462 1.403 . S
C465 C466 1.392 . S
C465 C469 1.495 . S
C466 C465 1.392 . S
C466 C467 1.385 . S
C466 C468 1.478 . S
C467 H461 0.930 . S
C467 C463 1.400 . S
C467 C466 1.385 . S
C468 C466 1.478 . S
C468 C470 1.381 . S
C468 C474 1.383 . S
C469 C465 1.495 . S
C469 H475 0.959 . S
C469 H476 0.961 . S
C469 H477 0.960 . S
C470 C468 1.381 . S
C470 C471 1.394 . S
C470 H478 0.930 . S
C471 C470 1.394 . S
C471 C472 1.383 . S
C471 H479 0.929 . S
C472 C471 1.383 . S
C472 C473 1.377 . S
C473 H457 0.930 . S
C473 C472 1.377 . S
C473 C474 1.379 . S
C474 H458 0.931 . S
C474 C468 1.383 . S
C474 C473 1.379 . S
H475 C469 0.959 . S
H476 C469 0.961 . S
H477 C469 0.960 . S
H478 C470 0.930 . S
H479 C471 0.929 . S
H480 C488 0.929 . S
H481 C490 0.930 . S
H482 C492 0.930 . S
H483 C495 0.929 . S
H484 C498 0.930 . S
H485 C500 0.960 . S
H486 C500 0.960 . S
H487 C500 0.960 . S
C488 H480 0.929 . S
C488 C489 1.377 . S
C488 C490 1.384 . S
C489 C488 1.377 . S
C489 C495 1.390 . S
C490 H481 0.930 . S
C490 C488 1.384 . S
C490 C491 1.372 . S
C491 C490 1.372 . S
C491 C492 1.400 . S
C491 C496 1.490 . S
C492 H482 0.930 . S
C492 C491 1.400 . S
C492 C495 1.386 . S
H493 C509 0.930 . S
H494 C510 0.931 . S
C495 H483 0.929 . S
C495 C489 1.390 . S
C495 C492 1.386 . S
C496 C491 1.490 . S
C496 C498 1.395 . S
C496 C499 1.403 . S
H497 C503 0.930 . S
C498 H484 0.930 . S
C498 C496 1.395 . S
C498 C501 1.403 . S
C499 C496 1.403 . S
C499 C500 1.524 . S
C499 C503 1.400 . S
C500 H485 0.960 . S
C500 H486 0.960 . S
C500 H487 0.960 . S
C500 C499 1.524 . S
C501 C498 1.403 . S
C501 C502 1.392 . S
C501 C505 1.495 . S
C502 C501 1.392 . S
C502 C503 1.385 . S
C502 C504 1.478 . S
C503 H497 0.930 . S
C503 C499 1.400 . S
C503 C502 1.385 . S
C504 C502 1.478 . S
C504 C506 1.381 . S
C504 C510 1.383 . S
C505 C501 1.495 . S
C505 H511 0.959 . S
C505 H512 0.961 . S
C505 H513 0.960 . S
C506 C504 1.381 . S
C506 C507 1.394 . S
C506 H514 0.930 . S
C507 C506 1.394 . S
C507 C508 1.383 . S
C507 H515 0.929 . S
C508 C507 1.383 . S
C508 C509 1.377 . S
C509 H493 0.930 . S
C509 C508 1.377 . S
C509 C510 1.379 . S
C510 H494 0.931 . S
C510 C504 1.383 . S
C510 C509 1.379 . S
H511 C505 0.959 . S
H512 C505 0.961 . S
H513 C505 0.960 . S
H514 C506 0.930 . S
H515 C507 0.929 . S
H516 C524 0.929 . S
H517 C526 0.930 . S
H518 C528 0.930 . S
H519 C531 0.929 . S
H520 C534 0.930 . S
H521 C536 0.960 . S
H522 C536 0.960 . S
H523 C536 0.960 . S
C524 H516 0.929 . S
C524 C525 1.377 . S
C524 C526 1.384 . S
C525 C524 1.377 . S
C525 C531 1.390 . S
C526 H517 0.930 . S
C526 C524 1.384 . S
C526 C527 1.372 . S
C527 C526 1.372 . S
C527 C528 1.400 . S
C527 C532 1.490 . S
C528 H518 0.930 . S
C528 C527 1.400 . S
C528 C531 1.386 . S
H529 C545 0.930 . S
H530 C546 0.931 . S
C531 H519 0.929 . S
C531 C525 1.390 . S
C531 C528 1.386 . S
C532 C527 1.490 . S
C532 C534 1.395 . S
C532 C535 1.403 . S
H533 C539 0.930 . S
C534 H520 0.930 . S
C534 C532 1.395 . S
C534 C537 1.403 . S
C535 C532 1.403 . S
C535 C536 1.524 . S
C535 C539 1.400 . S
C536 H521 0.960 . S
C536 H522 0.960 . S
C536 H523 0.960 . S
C536 C535 1.524 . S
C537 C534 1.403 . S
C537 C538 1.392 . S
C537 C541 1.495 . S
C538 C537 1.392 . S
C538 C539 1.385 . S
C538 C540 1.478 . S
C539 H533 0.930 . S
C539 C535 1.400 . S
C539 C538 1.385 . S
C540 C538 1.478 . S
C540 C542 1.381 . S
C540 C546 1.383 . S
C541 C537 1.495 . S
C541 H547 0.959 . S
C541 H548 0.961 . S
C541 H549 0.960 . S
C542 C540 1.381 . S
C542 C543 1.394 . S
C542 H550 0.930 . S
C543 C542 1.394 . S
C543 C544 1.383 . S
C543 H551 0.929 . S
C544 C543 1.383 . S
C544 C545 1.377 . S
C545 H529 0.930 . S
C545 C544 1.377 . S
C545 C546 1.379 . S
C546 H530 0.931 . S
C546 C540 1.383 . S
C546 C545 1.379 . S
H547 C541 0.959 . S
H548 C541 0.961 . S
H549 C541 0.960 . S
H550 C542 0.930 . S
H551 C543 0.929 . S
H552 C560 0.929 . S
H553 C562 0.930 . S
H554 C564 0.930 . S
H555 C567 0.929 . S
H556 C570 0.930 . S
H557 C572 0.960 . S
H558 C572 0.960 . S
H559 C572 0.960 . S
C560 H552 0.929 . S
C560 C561 1.377 . S
C560 C562 1.384 . S
C561 C560 1.377 . S
C561 C567 1.390 . S
C562 H553 0.930 . S
C562 C560 1.384 . S
C562 C563 1.372 . S
C563 C562 1.372 . S
C563 C564 1.400 . S
C563 C568 1.490 . S
C564 H554 0.930 . S
C564 C563 1.400 . S
C564 C567 1.386 . S
H565 C581 0.930 . S
H566 C582 0.931 . S
C567 H555 0.929 . S
C567 C561 1.390 . S
C567 C564 1.386 . S
C568 C563 1.490 . S
C568 C570 1.395 . S
C568 C571 1.403 . S
H569 C575 0.930 . S
C570 H556 0.930 . S
C570 C568 1.395 . S
C570 C573 1.403 . S
C571 C568 1.403 . S
C571 C572 1.524 . S
C571 C575 1.400 . S
C572 H557 0.960 . S
C572 H558 0.960 . S
C572 H559 0.960 . S
C572 C571 1.524 . S
C573 C570 1.403 . S
C573 C574 1.392 . S
C573 C577 1.495 . S
C574 C573 1.392 . S
C574 C575 1.385 . S
C574 C576 1.478 . S
C575 H569 0.930 . S
C575 C571 1.400 . S
C575 C574 1.385 . S
C576 C574 1.478 . S
C576 C578 1.381 . S
C576 C582 1.383 . S
C577 C573 1.495 . S
C577 H583 0.959 . S
C577 H584 0.961 . S
C577 H585 0.960 . S
C578 C576 1.381 . S
C578 C579 1.394 . S
C578 H586 0.930 . S
C579 C578 1.394 . S
C579 C580 1.383 . S
C579 H587 0.929 . S
C580 C579 1.383 . S
C580 C581 1.377 . S
C581 H565 0.930 . S
C581 C580 1.377 . S
C581 C582 1.379 . S
C582 H566 0.931 . S
C582 C576 1.383 . S
C582 C581 1.379 . S
H583 C577 0.959 . S
H584 C577 0.961 . S
H585 C577 0.960 . S
H586 C578 0.930 . S
H587 C579 0.929 . S
H588 C596 0.929 . S
H589 C598 0.930 . S
H590 C600 0.930 . S
H591 C603 0.929 . S
H592 C606 0.930 . S
H593 C608 0.960 . S
H594 C608 0.960 . S
H595 C608 0.960 . S
C596 H588 0.929 . S
C596 C597 1.377 . S
C596 C598 1.384 . S
C597 C596 1.377 . S
C597 C603 1.390 . S
C598 H589 0.930 . S
C598 C596 1.384 . S
C598 C599 1.372 . S
C599 C598 1.372 . S
C599 C600 1.400 . S
C599 C604 1.490 . S
C600 H590 0.930 . S
C600 C599 1.400 . S
C600 C603 1.386 . S
H601 C617 0.930 . S
H602 C618 0.931 . S
C603 H591 0.929 . S
C603 C597 1.390 . S
C603 C600 1.386 . S
C604 C599 1.490 . S
C604 C606 1.395 . S
C604 C607 1.403 . S
H605 C611 0.930 . S
C606 H592 0.930 . S
C606 C604 1.395 . S
C606 C609 1.403 . S
C607 C604 1.403 . S
C607 C608 1.524 . S
C607 C611 1.400 . S
C608 H593 0.960 . S
C608 H594 0.960 . S
C608 H595 0.960 . S
C608 C607 1.524 . S
C609 C606 1.403 . S
C609 C610 1.392 . S
C609 C613 1.495 . S
C610 C609 1.392 . S
C610 C611 1.385 . S
C610 C612 1.478 . S
C611 H605 0.930 . S
C611 C607 1.400 . S
C611 C610 1.385 . S
C612 C610 1.478 . S
C612 C614 1.381 . S
C612 C618 1.383 . S
C613 C609 1.495 . S
C613 H619 0.959 . S
C613 H620 0.961 . S
C613 H621 0.960 . S
C614 C612 1.381 . S
C614 C615 1.394 . S
C614 H622 0.930 . S
C615 C614 1.394 . S
C615 C616 1.383 . S
C615 H623 0.958 . S
C616 C615 1.383 . S
C616 C617 1.377 . S
C617 H601 0.930 . S
C617 C616 1.377 . S
C617 C618 1.379 . S
C618 H602 0.931 . S
C618 C612 1.383 . S
C618 C617 1.379 . S
H619 C613 0.959 . S
H620 C613 0.961 . S
H621 C613 0.960 . S
H622 C614 0.930 . S
H623 C615 0.958 . S
H624 C632 0.929 . S
H625 C634 0.930 . S
H626 C636 0.930 . S
H627 C639 0.929 . S
H628 C642 0.930 . S
H629 C644 0.960 . S
H630 C644 0.960 . S
H631 C644 0.960 . S
C632 H624 0.929 . S
C632 C633 1.377 . S
C632 C634 1.384 . S
C633 C632 1.377 . S
C633 C639 1.390 . S
C634 H625 0.930 . S
C634 C632 1.384 . S
C634 C635 1.372 . S
C635 C634 1.372 . S
C635 C636 1.400 . S
C635 C640 1.490 . S
C636 H626 0.930 . S
C636 C635 1.400 . S
C636 C639 1.386 . S
H637 C653 0.930 . S
H638 C654 0.931 . S
C639 H627 0.929 . S
C639 C633 1.390 . S
C639 C636 1.386 . S
C640 C635 1.490 . S
C640 C642 1.395 . S
C640 C643 1.403 . S
H641 C647 0.930 . S
C642 H628 0.930 . S
C642 C640 1.395 . S
C642 C645 1.403 . S
C643 C640 1.403 . S
C643 C644 1.524 . S
C643 C647 1.400 . S
C644 H629 0.960 . S
C644 H630 0.960 . S
C644 H631 0.960 . S
C644 C643 1.524 . S
C645 C642 1.403 . S
C645 C646 1.392 . S
C645 C649 1.495 . S
C646 C645 1.392 . S
C646 C647 1.385 . S
C646 C648 1.478 . S
C647 H641 0.930 . S
C647 C643 1.400 . S
C647 C646 1.385 . S
C648 C646 1.478 . S
C648 C650 1.381 . S
C648 C654 1.383 . S
C649 C645 1.495 . S
C649 H655 0.959 . S
C649 H656 0.961 . S
C649 H657 0.960 . S
C650 C648 1.381 . S
C650 C651 1.394 . S
C650 H658 0.930 . S
C651 C650 1.394 . S
C651 C652 1.383 . S
C651 H659 0.929 1_545 S
C652 C651 1.383 . S
C652 C653 1.377 . S
C653 H637 0.930 . S
C653 C652 1.377 . S
C653 C654 1.379 . S
C654 H638 0.931 . S
C654 C648 1.383 . S
C654 C653 1.379 . S
H655 C649 0.959 . S
H656 C649 0.961 . S
H657 C649 0.960 . S
H658 C650 0.930 . S
H659 C651 0.929 1_565 S
H660 C668 0.929 . S
H661 C670 0.930 . S
H662 C672 0.930 . S
H663 C675 0.929 . S
H664 C678 0.930 . S
H665 C680 0.960 . S
H666 C680 0.960 . S
H667 C680 0.960 . S
C668 H660 0.929 . S
C668 C669 1.377 . S
C668 C670 1.384 . S
C669 C668 1.377 . S
C669 C675 1.390 . S
C670 H661 0.930 . S
C670 C668 1.384 . S
C670 C671 1.372 . S
C671 C670 1.372 . S
C671 C672 1.400 . S
C671 C676 1.490 . S
C672 H662 0.930 . S
C672 C671 1.400 . S
C672 C675 1.386 . S
H673 C689 0.930 . S
H674 C690 0.931 . S
C675 H663 0.929 . S
C675 C669 1.390 . S
C675 C672 1.386 . S
C676 C671 1.490 . S
C676 C678 1.395 . S
C676 C679 1.403 . S
H677 C683 0.930 . S
C678 H664 0.930 . S
C678 C676 1.395 . S
C678 C681 1.403 . S
C679 C676 1.403 . S
C679 C680 1.524 . S
C679 C683 1.400 . S
C680 H665 0.960 . S
C680 H666 0.960 . S
C680 H667 0.960 . S
C680 C679 1.524 . S
C681 C678 1.403 . S
C681 C682 1.392 . S
C681 C685 1.495 . S
C682 C681 1.392 . S
C682 C683 1.385 . S
C682 C684 1.478 . S
C683 H677 0.930 . S
C683 C679 1.400 . S
C683 C682 1.385 . S
C684 C682 1.478 . S
C684 C686 1.381 . S
C684 C690 1.383 . S
C685 C681 1.495 . S
C685 H691 0.959 . S
C685 H692 0.961 . S
C685 H693 0.960 . S
C686 C684 1.381 . S
C686 C687 1.394 . S
C686 H694 0.930 . S
C687 C686 1.394 . S
C687 C688 1.383 . S
C687 H695 0.929 . S
C688 C687 1.383 . S
C688 C689 1.377 . S
C689 H673 0.930 . S
C689 C688 1.377 . S
C689 C690 1.379 . S
C690 H674 0.931 . S
C690 C684 1.383 . S
C690 C689 1.379 . S
H691 C685 0.959 . S
H692 C685 0.961 . S
H693 C685 0.960 . S
H694 C686 0.930 . S
H695 C687 0.929 . S
H696 C704 0.929 . S
H697 C706 0.930 . S
H698 C708 0.930 . S
H699 C711 0.929 1_545 S
H700 C714 0.930 . S
H701 C716 0.960 . S
H702 C716 0.960 . S
H703 C716 0.960 . S
C704 H696 0.929 . S
C704 C705 1.377 . S
C704 C706 1.384 . S
C705 C704 1.377 . S
C705 C711 1.390 . S
C706 H697 0.930 . S
C706 C704 1.384 . S
C706 C707 1.372 . S
C707 C706 1.372 . S
C707 C708 1.400 . S
C707 C712 1.490 . S
C708 H698 0.930 . S
C708 C707 1.400 . S
C708 C711 1.386 . S
H709 C725 0.930 . S
H710 C726 0.931 . S
C711 H699 0.929 1_565 S
C711 C705 1.390 . S
C711 C708 1.386 . S
C712 C707 1.490 . S
C712 C714 1.395 . S
C712 C715 1.403 . S
H713 C719 0.930 . S
C714 H700 0.930 . S
C714 C712 1.395 . S
C714 C717 1.403 . S
C715 C712 1.403 . S
C715 C716 1.524 . S
C715 C719 1.400 . S
C716 H701 0.960 . S
C716 H702 0.960 . S
C716 H703 0.960 . S
C716 C715 1.524 . S
C717 C714 1.403 . S
C717 C718 1.392 . S
C717 C721 1.495 . S
C718 C717 1.392 . S
C718 C719 1.385 . S
C718 C720 1.478 . S
C719 H713 0.930 . S
C719 C715 1.400 . S
C719 C718 1.385 . S
C720 C718 1.478 . S
C720 C722 1.381 . S
C720 C726 1.383 . S
C721 C717 1.495 . S
C721 H727 0.959 . S
C721 H728 0.961 . S
C721 H729 0.960 . S
C722 C720 1.381 . S
C722 C723 1.394 . S
C722 H730 0.930 . S
C723 C722 1.394 . S
C723 C724 1.383 . S
C723 H731 0.929 . S
C724 C723 1.383 . S
C724 C725 1.377 . S
C725 H709 0.930 . S
C725 C724 1.377 . S
C725 C726 1.379 . S
C726 H710 0.931 . S
C726 C720 1.383 . S
C726 C725 1.379 . S
H727 C721 0.959 . S
H728 C721 0.961 . S
H729 C721 0.960 . S
H730 C722 0.930 . S
H731 C723 0.929 . S
H732 C740 0.929 . S
H733 C742 0.930 . S
H734 C744 0.930 . S
H735 C747 0.929 . S
H736 C750 0.930 . S
H737 C752 0.960 . S
H738 C752 0.960 . S
H739 C752 0.960 . S
C740 H732 0.929 . S
C740 C741 1.377 . S
C740 C742 1.384 . S
C741 C740 1.377 . S
C741 C747 1.390 . S
C742 H733 0.930 . S
C742 C740 1.384 . S
C742 C743 1.372 . S
C743 C742 1.372 . S
C743 C744 1.400 . S
C743 C748 1.490 . S
C744 H734 0.930 . S
C744 C743 1.400 . S
C744 C747 1.386 . S
H745 C761 0.956 . S
H746 C762 0.931 . S
C747 H735 0.929 . S
C747 C741 1.390 . S
C747 C744 1.386 . S
C748 C743 1.490 . S
C748 C750 1.395 . S
C748 C751 1.403 . S
H749 C755 0.930 . S
C750 H736 0.930 . S
C750 C748 1.395 . S
C750 C753 1.403 . S
C751 C748 1.403 . S
C751 C752 1.524 . S
C751 C755 1.400 . S
C752 H737 0.960 . S
C752 H738 0.960 . S
C752 H739 0.960 . S
C752 C751 1.524 . S
C753 C750 1.403 . S
C753 C754 1.392 . S
C753 C757 1.495 . S
C754 C753 1.392 . S
C754 C755 1.385 . S
C754 C756 1.478 . S
C755 H749 0.930 . S
C755 C751 1.400 . S
C755 C754 1.385 . S
C756 C754 1.478 . S
C756 C758 1.381 . S
C756 C762 1.383 . S
C757 C753 1.495 . S
C757 H763 0.959 . S
C757 H764 0.961 . S
C757 H765 0.960 . S
C758 C756 1.381 . S
C758 C759 1.394 . S
C758 H766 0.930 . S
C759 C758 1.394 . S
C759 C760 1.383 . S
C759 H767 0.929 . S
C760 C759 1.383 . S
C760 C761 1.377 . S
C761 H745 0.956 . S
C761 C760 1.377 . S
C761 C762 1.379 . S
C762 H746 0.931 . S
C762 C756 1.383 . S
C762 C761 1.379 . S
H763 C757 0.959 . S
H764 C757 0.961 . S
H765 C757 0.960 . S
H766 C758 0.930 . S
H767 C759 0.929 . S
H768 C776 0.929 . S
H769 C778 0.930 . S
H770 C780 0.930 . S
H771 C783 0.929 . S
H772 C786 0.930 . S
H773 C788 0.960 . S
H774 C788 0.960 . S
H775 C788 0.960 . S
C776 H768 0.929 . S
C776 C777 1.377 . S
C776 C778 1.384 . S
C777 C776 1.377 . S
C777 C783 1.390 . S
C778 H769 0.930 . S
C778 C776 1.384 . S
C778 C779 1.372 . S
C779 C778 1.372 . S
C779 C780 1.400 . S
C779 C784 1.490 . S
C780 H770 0.930 . S
C780 C779 1.400 . S
C780 C783 1.386 . S
H781 C797 0.930 . S
H782 C798 0.931 . S
C783 H771 0.929 . S
C783 C777 1.390 . S
C783 C780 1.386 . S
C784 C779 1.490 . S
C784 C786 1.395 . S
C784 C787 1.403 . S
H785 C791 0.930 . S
C786 H772 0.930 . S
C786 C784 1.395 . S
C786 C789 1.403 . S
C787 C784 1.403 . S
C787 C788 1.524 . S
C787 C791 1.400 . S
C788 H773 0.960 . S
C788 H774 0.960 . S
C788 H775 0.960 . S
C788 C787 1.524 . S
C789 C786 1.403 . S
C789 C790 1.392 . S
C789 C793 1.495 . S
C790 C789 1.392 . S
C790 C791 1.385 . S
C790 C792 1.478 . S
C791 H785 0.930 . S
C791 C787 1.400 . S
C791 C790 1.385 . S
C792 C790 1.478 . S
C792 C794 1.381 . S
C792 C798 1.383 . S
C793 C789 1.495 . S
C793 H799 0.959 . S
C793 H800 0.961 . S
C793 H801 0.960 . S
C794 C792 1.381 . S
C794 C795 1.394 . S
C794 H802 0.930 . S
C795 C794 1.394 . S
C795 C796 1.383 . S
C795 H803 0.929 . S
C796 C795 1.383 . S
C796 C797 1.377 . S
C797 H781 0.930 . S
C797 C796 1.377 . S
C797 C798 1.379 . S
C798 H782 0.931 . S
C798 C792 1.383 . S
C798 C797 1.379 . S
H799 C793 0.959 . S
H800 C793 0.961 . S
H801 C793 0.960 . S
H802 C794 0.930 . S
H803 C795 0.929 . S
H804 C812 0.929 . S
H805 C814 0.930 . S
H806 C816 0.930 . S
H807 C819 0.929 . S
H808 C822 0.930 . S
H809 C824 0.960 . S
H810 C824 0.960 . S
H811 C824 0.960 . S
C812 H804 0.929 . S
C812 C813 1.377 . S
C812 C814 1.384 . S
C813 C812 1.377 . S
C813 C819 1.390 . S
C814 H805 0.930 . S
C814 C812 1.384 . S
C814 C815 1.372 . S
C815 C814 1.372 . S
C815 C816 1.400 . S
C815 C820 1.490 . S
C816 H806 0.930 . S
C816 C815 1.400 . S
C816 C819 1.386 . S
H817 C833 0.930 . S
H818 C834 0.931 . S
C819 H807 0.929 . S
C819 C813 1.390 . S
C819 C816 1.386 . S
C820 C815 1.490 . S
C820 C822 1.395 . S
C820 C823 1.403 . S
H821 C827 0.930 . S
C822 H808 0.930 . S
C822 C820 1.395 . S
C822 C825 1.403 . S
C823 C820 1.403 . S
C823 C824 1.524 . S
C823 C827 1.400 . S
C824 H809 0.960 . S
C824 H810 0.960 . S
C824 H811 0.960 . S
C824 C823 1.524 . S
C825 C822 1.403 . S
C825 C826 1.392 . S
C825 C829 1.495 . S
C826 C825 1.392 . S
C826 C827 1.385 . S
C826 C828 1.478 . S
C827 H821 0.930 . S
C827 C823 1.400 . S
C827 C826 1.385 . S
C828 C826 1.478 . S
C828 C830 1.381 . S
C828 C834 1.383 . S
C829 C825 1.495 . S
C829 H835 0.959 . S
C829 H836 0.961 . S
C829 H837 0.960 . S
C830 C828 1.381 . S
C830 C831 1.394 . S
C830 H838 0.930 . S
C831 C830 1.394 . S
C831 C832 1.383 . S
C831 H839 0.929 . S
C832 C831 1.383 . S
C832 C833 1.377 . S
C833 H817 0.930 . S
C833 C832 1.377 . S
C833 C834 1.379 . S
C834 H818 0.931 . S
C834 C828 1.383 . S
C834 C833 1.379 . S
H835 C829 0.959 . S
H836 C829 0.961 . S
H837 C829 0.960 . S
H838 C830 0.930 . S
H839 C831 0.929 . S
H840 C848 0.929 . S
H841 C850 0.930 . S
H842 C852 0.930 . S
H843 C855 0.929 . S
H844 C858 0.930 . S
H845 C860 0.960 . S
H846 C860 0.960 . S
H847 C860 0.960 . S
C848 H840 0.929 . S
C848 C849 1.377 . S
C848 C850 1.384 . S
C849 C848 1.377 . S
C849 C855 1.390 . S
C850 H841 0.930 . S
C850 C848 1.384 . S
C850 C851 1.372 . S
C851 C850 1.372 . S
C851 C852 1.400 . S
C851 C856 1.490 . S
C852 H842 0.930 . S
C852 C851 1.400 . S
C852 C855 1.386 . S
H853 C869 0.930 . S
H854 C870 0.931 . S
C855 H843 0.929 . S
C855 C849 1.390 . S
C855 C852 1.386 . S
C856 C851 1.490 . S
C856 C858 1.395 . S
C856 C859 1.403 . S
H857 C863 0.930 . S
C858 H844 0.930 . S
C858 C856 1.395 . S
C858 C861 1.403 . S
C859 C856 1.403 . S
C859 C860 1.524 . S
C859 C863 1.400 . S
C860 H845 0.960 . S
C860 H846 0.960 . S
C860 H847 0.960 . S
C860 C859 1.524 . S
C861 C858 1.403 . S
C861 C862 1.392 . S
C861 C865 1.495 . S
C862 C861 1.392 . S
C862 C863 1.385 . S
C862 C864 1.478 . S
C863 H857 0.930 . S
C863 C859 1.400 . S
C863 C862 1.385 . S
C864 C862 1.478 . S
C864 C866 1.381 . S
C864 C870 1.383 . S
C865 C861 1.495 . S
C865 H871 0.959 . S
C865 H872 0.961 . S
C865 H873 0.960 . S
C866 C864 1.381 . S
C866 C867 1.394 . S
C866 H874 0.930 . S
C867 C866 1.394 . S
C867 C868 1.383 . S
C867 H875 0.929 . S
C868 C867 1.383 . S
C868 C869 1.377 . S
C869 H853 0.930 . S
C869 C868 1.377 . S
C869 C870 1.379 . S
C870 H854 0.931 . S
C870 C864 1.383 . S
C870 C869 1.379 . S
H871 C865 0.959 . S
H872 C865 0.961 . S
H873 C865 0.960 . S
H874 C866 0.930 . S
H875 C867 0.929 . S
H876 C884 0.929 . S
H877 C886 0.930 . S
H878 C888 0.930 . S
H879 C891 0.929 . S
H880 C894 0.930 . S
H881 C896 0.964 . S
H882 C896 0.963 . S
H883 C896 0.963 . S
C884 H876 0.929 . S
C884 C885 1.377 . S
C884 C886 1.384 . S
C885 C884 1.377 . S
C885 C891 1.390 . S
C886 H877 0.930 . S
C886 C884 1.384 . S
C886 C887 1.372 . S
C887 C886 1.372 . S
C887 C888 1.400 . S
C887 C892 1.490 . S
C888 H878 0.930 . S
C888 C887 1.400 . S
C888 C891 1.386 . S
H889 C905 0.930 . S
H890 C906 0.931 . S
C891 H879 0.929 . S
C891 C885 1.390 . S
C891 C888 1.386 . S
C892 C887 1.490 . S
C892 C894 1.395 . S
C892 C895 1.403 . S
H893 C899 0.930 . S
C894 H880 0.930 . S
C894 C892 1.395 . S
C894 C897 1.403 . S
C895 C892 1.403 . S
C895 C896 1.514 1_655 S
C895 C899 1.400 . S
C896 H881 0.964 . S
C896 H882 0.963 . S
C896 H883 0.963 . S
C896 C895 1.514 1_455 S
C897 C894 1.403 . S
C897 C898 1.392 . S
C897 C901 1.495 . S
C898 C897 1.392 . S
C898 C899 1.385 . S
C898 C900 1.478 . S
C899 H893 0.930 . S
C899 C895 1.400 . S
C899 C898 1.385 . S
C900 C898 1.478 . S
C900 C902 1.381 . S
C900 C906 1.383 . S
C901 C897 1.495 . S
C901 H907 0.959 . S
C901 H908 0.961 . S
C901 H909 0.960 . S
C902 C900 1.381 . S
C902 C903 1.394 . S
C902 H910 0.930 . S
C903 C902 1.394 . S
C903 C904 1.383 . S
C903 H911 0.929 . S
C904 C903 1.383 . S
C904 C905 1.377 . S
C905 H889 0.930 . S
C905 C904 1.377 . S
C905 C906 1.379 . S
C906 H890 0.931 . S
C906 C900 1.383 . S
C906 C905 1.379 . S
H907 C901 0.959 . S
H908 C901 0.961 . S
H909 C901 0.960 . S
H910 C902 0.930 . S
H911 C903 0.929 . S
H912 C920 0.929 . S
H913 C922 0.930 . S
H914 C924 0.930 . S
H915 C927 0.929 . S
H916 C930 0.930 . S
H917 C932 0.960 . S
H918 C932 0.960 . S
H919 C932 0.960 . S
C920 H912 0.929 . S
C920 C921 1.377 . S
C920 C922 1.384 . S
C921 C920 1.377 . S
C921 C927 1.390 . S
C922 H913 0.930 . S
C922 C920 1.384 . S
C922 C923 1.372 . S
C923 C922 1.372 . S
C923 C924 1.400 . S
C923 C928 1.490 . S
C924 H914 0.930 . S
C924 C923 1.400 . S
C924 C927 1.386 . S
H925 C941 0.930 . S
H926 C942 0.931 . S
C927 H915 0.929 . S
C927 C921 1.390 . S
C927 C924 1.386 . S
C928 C923 1.490 . S
C928 C930 1.395 . S
C928 C931 1.403 . S
H929 C935 0.930 . S
C930 H916 0.930 . S
C930 C928 1.395 . S
C930 C933 1.403 . S
C931 C928 1.403 . S
C931 C932 1.524 . S
C931 C935 1.400 . S
C932 H917 0.960 . S
C932 H918 0.960 . S
C932 H919 0.960 . S
C932 C931 1.524 . S
C933 C930 1.403 . S
C933 C934 1.392 . S
C933 C937 1.495 . S
C934 C933 1.392 . S
C934 C935 1.385 . S
C934 C936 1.478 . S
C935 H929 0.930 . S
C935 C931 1.400 . S
C935 C934 1.385 . S
C936 C934 1.478 . S
C936 C938 1.381 . S
C936 C942 1.383 . S
C937 C933 1.495 . S
C937 H943 0.959 . S
C937 H944 0.961 . S
C937 H945 0.960 . S
C938 C936 1.381 . S
C938 C939 1.394 . S
C938 H946 0.930 . S
C939 C938 1.394 . S
C939 C940 1.383 . S
C939 H947 0.929 . S
C940 C939 1.383 . S
C940 C941 1.377 . S
C941 H925 0.930 . S
C941 C940 1.377 . S
C941 C942 1.379 . S
C942 H926 0.931 . S
C942 C936 1.383 . S
C942 C941 1.379 . S
H943 C937 0.959 . S
H944 C937 0.961 . S
H945 C937 0.960 . S
H946 C938 0.930 . S
H947 C939 0.929 . S
H948 C956 0.929 . S
H949 C958 0.930 . S
H950 C960 0.930 . S
H951 C963 0.929 . S
H952 C966 0.930 . S
H953 C968 0.960 . S
H954 C968 0.960 . S
H955 C968 0.960 . S
C956 H948 0.929 . S
C956 C957 1.377 . S
C956 C958 1.384 . S
C957 C956 1.377 . S
C957 C963 1.390 . S
C958 H949 0.930 . S
C958 C956 1.384 . S
C958 C959 1.372 . S
C959 C958 1.372 . S
C959 C960 1.400 . S
C959 C964 1.490 . S
C960 H950 0.930 . S
C960 C959 1.400 . S
C960 C963 1.386 . S
H961 C977 0.930 . S
H962 C978 0.931 . S
C963 H951 0.929 . S
C963 C957 1.390 . S
C963 C960 1.386 . S
C964 C959 1.490 . S
C964 C966 1.395 . S
C964 C967 1.403 . S
H965 C971 0.930 . S
C966 H952 0.930 . S
C966 C964 1.395 . S
C966 C969 1.403 . S
C967 C964 1.403 . S
C967 C968 1.524 . S
C967 C971 1.400 . S
C968 H953 0.960 . S
C968 H954 0.960 . S
C968 H955 0.960 . S
C968 C967 1.524 . S
C969 C966 1.403 . S
C969 C970 1.392 . S
C969 C973 1.495 . S
C970 C969 1.392 . S
C970 C971 1.385 . S
C970 C972 1.478 . S
C971 H965 0.930 . S
C971 C967 1.400 . S
C971 C970 1.385 . S
C972 C970 1.478 . S
C972 C974 1.381 . S
C972 C978 1.383 . S
C973 C969 1.495 . S
C973 H979 0.959 . S
C973 H980 0.961 . S
C973 H981 0.960 . S
C974 C972 1.381 . S
C974 C975 1.394 . S
C974 H982 0.930 . S
C975 C974 1.394 . S
C975 C976 1.383 . S
C975 H983 0.929 . S
C976 C975 1.383 . S
C976 C977 1.377 . S
C977 H961 0.930 . S
C977 C976 1.377 . S
C977 C978 1.379 . S
C978 H962 0.931 . S
C978 C972 1.383 . S
C978 C977 1.379 . S
H979 C973 0.959 . S
H980 C973 0.961 . S
H981 C973 0.960 . S
H982 C974 0.930 . S
H983 C975 0.929 . S
H984 C992 0.935 . S
H985 C994 0.930 1_554 S
H986 C996 0.930 . S
H987 C999 0.929 . S
H988 C1002 0.930 . S
H989 C1004 0.960 . S
H990 C1004 0.960 . S
H991 C1004 0.960 . S
C992 H984 0.935 . S
C992 C993 1.374 1_554 S
C992 C994 1.382 1_554 S
C993 C992 1.374 1_556 S
C993 C999 1.390 . S
C994 H985 0.930 1_556 S
C994 C992 1.382 1_556 S
C994 C995 1.372 . S
C995 C994 1.372 . S
C995 C996 1.400 . S
C995 C1000 1.490 . S
C996 H986 0.930 . S
C996 C995 1.400 . S
C996 C999 1.386 . S
H997 C1013 0.930 . S
H998 C1014 0.931 . S
C999 H987 0.929 . S
C999 C993 1.390 . S
C999 C996 1.386 . S
C1000 C995 1.490 . S
C1000 C1002 1.395 . S
C1000 C1003 1.403 . S
H1001 C1007 0.930 . S
C1002 H988 0.930 . S
C1002 C1000 1.395 . S
C1002 C1005 1.403 . S
C1003 C1000 1.403 . S
C1003 C1004 1.524 . S
C1003 C1007 1.400 . S
C1004 H989 0.960 . S
C1004 H990 0.960 . S
C1004 H991 0.960 . S
C1004 C1003 1.524 . S
C1005 C1002 1.403 . S
C1005 C1006 1.392 . S
C1005 C1009 1.495 . S
C1006 C1005 1.392 . S
C1006 C1007 1.385 . S
C1006 C1008 1.478 . S
C1007 H1001 0.930 . S
C1007 C1003 1.400 . S
C1007 C1006 1.385 . S
C1008 C1006 1.478 . S
C1008 C1010 1.381 . S
C1008 C1014 1.383 . S
C1009 C1005 1.495 . S
C1009 H1015 0.959 . S
C1009 H1016 0.961 . S
C1009 H1017 0.960 . S
C1010 C1008 1.381 . S
C1010 C1011 1.394 . S
C1010 H1018 0.930 . S
C1011 C1010 1.394 . S
C1011 C1012 1.383 . S
C1011 H1019 0.929 . S
C1012 C1011 1.383 . S
C1012 C1013 1.377 . S
C1013 H997 0.930 . S
C1013 C1012 1.377 . S
C1013 C1014 1.379 . S
C1014 H998 0.931 . S
C1014 C1008 1.383 . S
C1014 C1013 1.379 . S
H1015 C1009 0.959 . S
H1016 C1009 0.961 . S
H1017 C1009 0.960 . S
H1018 C1010 0.930 . S
H1019 C1011 0.929 . S
H1020 C1028 0.929 . S
H1021 C1030 0.930 . S
H1022 C1032 0.930 . S
H1023 C1035 0.929 . S
H1024 C1038 0.930 . S
H1025 C1040 0.960 . S
H1026 C1040 0.960 . S
H1027 C1040 0.960 . S
C1028 H1020 0.929 . S
C1028 C1029 1.377 . S
C1028 C1030 1.384 . S
C1029 C1028 1.377 . S
C1029 C1035 1.390 . S
C1030 H1021 0.930 . S
C1030 C1028 1.384 . S
C1030 C1031 1.372 . S
C1031 C1030 1.372 . S
C1031 C1032 1.400 . S
C1031 C1036 1.490 . S
C1032 H1022 0.930 . S
C1032 C1031 1.400 . S
C1032 C1035 1.386 . S
H1033 C1049 0.930 . S
H1034 C1050 0.931 . S
C1035 H1023 0.929 . S
C1035 C1029 1.390 . S
C1035 C1032 1.386 . S
C1036 C1031 1.490 . S
C1036 C1038 1.395 . S
C1036 C1039 1.403 . S
H1037 C1043 0.930 . S
C1038 H1024 0.930 . S
C1038 C1036 1.395 . S
C1038 C1041 1.403 . S
C1039 C1036 1.403 . S
C1039 C1040 1.524 . S
C1039 C1043 1.400 . S
C1040 H1025 0.960 . S
C1040 H1026 0.960 . S
C1040 H1027 0.960 . S
C1040 C1039 1.524 . S
C1041 C1038 1.403 . S
C1041 C1042 1.392 . S
C1041 C1045 1.495 1_655 S
C1042 C1041 1.392 . S
C1042 C1043 1.385 . S
C1042 C1044 1.478 . S
C1043 H1037 0.930 . S
C1043 C1039 1.400 . S
C1043 C1042 1.385 . S
C1044 C1042 1.478 . S
C1044 C1046 1.381 . S
C1044 C1050 1.383 . S
C1045 C1041 1.495 1_455 S
C1045 H1051 0.959 . S
C1045 H1052 0.961 . S
C1045 H1053 0.960 . S
C1046 C1044 1.381 . S
C1046 C1047 1.394 . S
C1046 H1054 0.930 . S
C1047 C1046 1.394 . S
C1047 C1048 1.383 . S
C1047 H1055 0.929 1_655 S
C1048 C1047 1.383 . S
C1048 C1049 1.377 . S
C1049 H1033 0.930 . S
C1049 C1048 1.377 . S
C1049 C1050 1.379 . S
C1050 H1034 0.931 . S
C1050 C1044 1.383 . S
C1050 C1049 1.379 . S
H1051 C1045 0.959 . S
H1052 C1045 0.961 . S
H1053 C1045 0.960 . S
H1054 C1046 0.930 . S
H1055 C1047 0.929 1_455 S
H1056 C1064 0.929 . S
H1057 C1066 0.930 . S
H1058 C1068 0.930 . S
H1059 C1071 0.929 . S
H1060 C1074 0.930 . S
H1061 C1076 0.960 . S
H1062 C1076 0.960 . S
H1063 C1076 0.960 . S
C1064 H1056 0.929 . S
C1064 C1065 1.377 . S
C1064 C1066 1.384 . S
C1065 C1064 1.377 . S
C1065 C1071 1.390 . S
C1066 H1057 0.930 . S
C1066 C1064 1.384 . S
C1066 C1067 1.372 . S
C1067 C1066 1.372 . S
C1067 C1068 1.400 . S
C1067 C1072 1.490 . S
C1068 H1058 0.930 . S
C1068 C1067 1.400 . S
C1068 C1071 1.386 . S
H1069 C1085 0.930 . S
H1070 C1086 0.931 . S
C1071 H1059 0.929 . S
C1071 C1065 1.390 . S
C1071 C1068 1.386 . S
C1072 C1067 1.490 . S
C1072 C1074 1.395 . S
C1072 C1075 1.403 . S
H1073 C1079 0.930 . S
C1074 H1060 0.930 . S
C1074 C1072 1.395 . S
C1074 C1077 1.403 . S
C1075 C1072 1.403 . S
C1075 C1076 1.524 . S
C1075 C1079 1.400 . S
C1076 H1061 0.960 . S
C1076 H1062 0.960 . S
C1076 H1063 0.960 . S
C1076 C1075 1.524 . S
C1077 C1074 1.403 . S
C1077 C1078 1.392 . S
C1077 C1081 1.495 . S
C1078 C1077 1.392 . S
C1078 C1079 1.385 . S
C1078 C1080 1.478 . S
C1079 H1073 0.930 . S
C1079 C1075 1.400 . S
C1079 C1078 1.385 . S
C1080 C1078 1.478 . S
C1080 C1082 1.381 . S
C1080 C1086 1.383 . S
C1081 C1077 1.495 . S
C1081 H1087 0.959 . S
C1081 H1088 0.961 . S
C1081 H1089 0.960 . S
C1082 C1080 1.381 . S
C1082 C1083 1.394 . S
C1082 H1090 0.930 . S
C1083 C1082 1.394 . S
C1083 C1084 1.383 . S
C1083 H1091 0.929 . S
C1084 C1083 1.383 . S
C1084 C1085 1.377 . S
C1085 H1069 0.930 . S
C1085 C1084 1.377 . S
C1085 C1086 1.379 . S
C1086 H1070 0.931 . S
C1086 C1080 1.383 . S
C1086 C1085 1.379 . S
H1087 C1081 0.959 . S
H1088 C1081 0.961 . S
H1089 C1081 0.960 . S
H1090 C1082 0.930 . S
H1091 C1083 0.929 . S
H1092 C1100 0.929 . S
H1093 C1102 0.930 . S
H1094 C1104 0.930 . S
H1095 C1107 0.929 . S
H1096 C1110 0.930 . S
H1097 C1112 0.960 . S
H1098 C1112 0.960 . S
H1099 C1112 0.960 . S
C1100 H1092 0.929 . S
C1100 C1101 1.377 . S
C1100 C1102 1.384 . S
C1101 C1100 1.377 . S
C1101 C1107 1.390 . S
C1102 H1093 0.930 . S
C1102 C1100 1.384 . S
C1102 C1103 1.372 . S
C1103 C1102 1.372 . S
C1103 C1104 1.400 . S
C1103 C1108 1.490 . S
C1104 H1094 0.930 . S
C1104 C1103 1.400 . S
C1104 C1107 1.386 . S
H1105 C1121 0.930 . S
H1106 C1122 0.931 . S
C1107 H1095 0.929 . S
C1107 C1101 1.390 . S
C1107 C1104 1.386 . S
C1108 C1103 1.490 . S
C1108 C1110 1.395 . S
C1108 C1111 1.403 . S
H1109 C1115 0.930 . S
C1110 H1096 0.930 . S
C1110 C1108 1.395 . S
C1110 C1113 1.403 . S
C1111 C1108 1.403 . S
C1111 C1112 1.524 . S
C1111 C1115 1.400 . S
C1112 H1097 0.960 . S
C1112 H1098 0.960 . S
C1112 H1099 0.960 . S
C1112 C1111 1.524 . S
C1113 C1110 1.403 . S
C1113 C1114 1.392 . S
C1113 C1117 1.495 . S
C1114 C1113 1.392 . S
C1114 C1115 1.385 . S
C1114 C1116 1.478 . S
C1115 H1109 0.930 . S
C1115 C1111 1.400 . S
C1115 C1114 1.385 . S
C1116 C1114 1.478 . S
C1116 C1118 1.381 . S
C1116 C1122 1.383 . S
C1117 C1113 1.495 . S
C1117 H1123 0.959 . S
C1117 H1124 0.961 . S
C1117 H1125 0.960 . S
C1118 C1116 1.381 . S
C1118 C1119 1.394 . S
C1118 H1126 0.930 . S
C1119 C1118 1.394 . S
C1119 C1120 1.383 . S
C1119 H1127 0.929 . S
C1120 C1119 1.383 . S
C1120 C1121 1.377 . S
C1121 H1105 0.930 . S
C1121 C1120 1.377 . S
C1121 C1122 1.379 . S
C1122 H1106 0.931 . S
C1122 C1116 1.383 . S
C1122 C1121 1.379 . S
H1123 C1117 0.959 . S
H1124 C1117 0.961 . S
H1125 C1117 0.960 . S
H1126 C1118 0.930 . S
H1127 C1119 0.929 . S
H1128 C1136 0.929 . S
H1129 C1138 0.930 . S
H1130 C1140 0.930 . S
H1131 C1143 0.929 . S
H1132 C1146 0.930 . S
H1133 C1148 0.960 . S
H1134 C1148 0.960 . S
H1135 C1148 0.960 . S
C1136 H1128 0.929 . S
C1136 C1137 1.377 . S
C1136 C1138 1.384 . S
C1137 C1136 1.377 . S
C1137 C1143 1.390 . S
C1138 H1129 0.930 . S
C1138 C1136 1.384 . S
C1138 C1139 1.372 . S
C1139 C1138 1.372 . S
C1139 C1140 1.400 . S
C1139 C1144 1.490 . S
C1140 H1130 0.930 . S
C1140 C1139 1.400 . S
C1140 C1143 1.386 . S
H1141 C1157 0.930 . S
H1142 C1158 0.931 . S
C1143 H1131 0.929 . S
C1143 C1137 1.390 . S
C1143 C1140 1.386 . S
C1144 C1139 1.490 . S
C1144 C1146 1.395 . S
C1144 C1147 1.403 . S
H1145 C1151 0.930 . S
C1146 H1132 0.930 . S
C1146 C1144 1.395 . S
C1146 C1149 1.403 . S
C1147 C1144 1.403 . S
C1147 C1148 1.524 . S
C1147 C1151 1.400 . S
C1148 H1133 0.960 . S
C1148 H1134 0.960 . S
C1148 H1135 0.960 . S
C1148 C1147 1.524 . S
C1149 C1146 1.403 . S
C1149 C1150 1.392 . S
C1149 C1153 1.495 . S
C1150 C1149 1.392 . S
C1150 C1151 1.385 . S
C1150 C1152 1.478 . S
C1151 H1145 0.930 . S
C1151 C1147 1.400 . S
C1151 C1150 1.385 . S
C1152 C1150 1.478 . S
C1152 C1154 1.381 . S
C1152 C1158 1.383 . S
C1153 C1149 1.495 . S
C1153 H1159 0.959 . S
C1153 H1160 0.961 . S
C1153 H1161 0.960 . S
C1154 C1152 1.381 . S
C1154 C1155 1.394 . S
C1154 H1162 0.930 . S
C1155 C1154 1.394 . S
C1155 C1156 1.383 . S
C1155 H1163 0.929 . S
C1156 C1155 1.383 . S
C1156 C1157 1.377 . S
C1157 H1141 0.930 . S
C1157 C1156 1.377 . S
C1157 C1158 1.379 . S
C1158 H1142 0.931 . S
C1158 C1152 1.383 . S
C1158 C1157 1.379 . S
H1159 C1153 0.959 . S
H1160 C1153 0.961 . S
H1161 C1153 0.960 . S
H1162 C1154 0.930 . S
H1163 C1155 0.929 . S
H1164 C1172 0.929 . S
H1165 C1174 0.930 . S
H1166 C1176 0.930 . S
H1167 C1179 0.929 . S
H1168 C1182 0.930 . S
H1169 C1184 0.960 . S
H1170 C1184 0.960 . S
H1171 C1184 0.960 . S
C1172 H1164 0.929 . S
C1172 C1173 1.377 . S
C1172 C1174 1.384 . S
C1173 C1172 1.377 . S
C1173 C1179 1.390 . S
C1174 H1165 0.930 . S
C1174 C1172 1.384 . S
C1174 C1175 1.372 . S
C1175 C1174 1.372 . S
C1175 C1176 1.400 . S
C1175 C1180 1.490 . S
C1176 H1166 0.930 . S
C1176 C1175 1.400 . S
C1176 C1179 1.386 . S
H1177 C1193 0.930 1_545 S
H1178 C1194 0.931 1_545 S
C1179 H1167 0.929 . S
C1179 C1173 1.390 . S
C1179 C1176 1.386 . S
C1180 C1175 1.490 . S
C1180 C1182 1.395 . S
C1180 C1183 1.403 . S
H1181 C1187 0.930 . S
C1182 H1168 0.930 . S
C1182 C1180 1.395 . S
C1182 C1185 1.403 . S
C1183 C1180 1.403 . S
C1183 C1184 1.524 . S
C1183 C1187 1.400 . S
C1184 H1169 0.960 . S
C1184 H1170 0.960 . S
C1184 H1171 0.960 . S
C1184 C1183 1.524 . S
C1185 C1182 1.403 . S
C1185 C1186 1.392 . S
C1185 C1189 1.495 . S
C1186 C1185 1.392 . S
C1186 C1187 1.385 . S
C1186 C1188 1.478 . S
C1187 H1181 0.930 . S
C1187 C1183 1.400 . S
C1187 C1186 1.385 . S
C1188 C1186 1.478 . S
C1188 C1190 1.381 . S
C1188 C1194 1.383 . S
C1189 C1185 1.495 . S
C1189 H1195 0.959 . S
C1189 H1196 0.961 . S
C1189 H1197 0.960 . S
C1190 C1188 1.381 . S
C1190 C1191 1.394 . S
C1190 H1198 0.930 . S
C1191 C1190 1.394 . S
C1191 C1192 1.383 . S
C1191 H1199 0.929 . S
C1192 C1191 1.383 . S
C1192 C1193 1.377 . S
C1193 H1177 0.930 1_565 S
C1193 C1192 1.377 . S
C1193 C1194 1.379 . S
C1194 H1178 0.931 1_565 S
C1194 C1188 1.383 . S
C1194 C1193 1.379 . S
H1195 C1189 0.959 . S
H1196 C1189 0.961 . S
H1197 C1189 0.960 . S
H1198 C1190 0.930 . S
H1199 C1191 0.929 . S
H1200 C1208 0.929 . S
H1201 C1210 0.930 . S
H1202 C1212 0.930 1_545 S
H1203 C1215 0.983 . S
H1204 C1218 0.930 . S
H1205 C1220 0.960 . S
H1206 C1220 0.960 . S
H1207 C1220 0.960 . S
C1208 H1200 0.929 . S
C1208 C1209 1.377 . S
C1208 C1210 1.384 . S
C1209 C1208 1.377 . S
C1209 C1215 1.359 1_565 S
C1210 H1201 0.930 . S
C1210 C1208 1.384 . S
C1210 C1211 1.372 . S
C1211 C1210 1.372 . S
C1211 C1212 1.400 . S
C1211 C1216 1.490 . S
C1212 H1202 0.930 1_565 S
C1212 C1211 1.400 . S
C1212 C1215 1.365 1_565 S
H1213 C1229 0.930 . S
H1214 C1230 0.931 . S
C1215 H1203 0.983 . S
C1215 C1209 1.359 1_545 S
C1215 C1212 1.365 1_545 S
C1216 C1211 1.490 . S
C1216 C1218 1.395 . S
C1216 C1219 1.403 . S
H1217 C1223 0.930 . S
C1218 H1204 0.930 . S
C1218 C1216 1.395 . S
C1218 C1221 1.403 . S
C1219 C1216 1.403 . S
C1219 C1220 1.524 . S
C1219 C1223 1.400 . S
C1220 H1205 0.960 . S
C1220 H1206 0.960 . S
C1220 H1207 0.960 . S
C1220 C1219 1.524 . S
C1221 C1218 1.403 . S
C1221 C1222 1.392 . S
C1221 C1225 1.495 . S
C1222 C1221 1.392 . S
C1222 C1223 1.385 . S
C1222 C1224 1.478 . S
C1223 H1217 0.930 . S
C1223 C1219 1.400 . S
C1223 C1222 1.385 . S
C1224 C1222 1.478 . S
C1224 C1226 1.381 . S
C1224 C1230 1.383 . S
C1225 C1221 1.495 . S
C1225 H1231 0.959 . S
C1225 H1232 0.961 . S
C1225 H1233 0.960 . S
C1226 C1224 1.381 . S
C1226 C1227 1.394 . S
C1226 H1234 0.930 . S
C1227 C1226 1.394 . S
C1227 C1228 1.383 . S
C1227 H1235 0.929 . S
C1228 C1227 1.383 . S
C1228 C1229 1.377 . S
C1229 H1213 0.930 . S
C1229 C1228 1.377 . S
C1229 C1230 1.379 . S
C1230 H1214 0.931 . S
C1230 C1224 1.383 . S
C1230 C1229 1.379 . S
H1231 C1225 0.959 . S
H1232 C1225 0.961 . S
H1233 C1225 0.960 . S
H1234 C1226 0.930 . S
H1235 C1227 0.929 . S
H1236 C1244 0.929 . S
H1237 C1246 0.930 . S
H1238 C1248 0.930 . S
H1239 C1251 0.929 . S
H1240 C1254 0.930 . S
H1241 C1256 0.960 . S
H1242 C1256 0.960 . S
H1243 C1256 0.960 . S
C1244 H1236 0.929 . S
C1244 C1245 1.377 . S
C1244 C1246 1.384 . S
C1245 C1244 1.377 . S
C1245 C1251 1.390 . S
C1246 H1237 0.930 . S
C1246 C1244 1.384 . S
C1246 C1247 1.372 . S
C1247 C1246 1.372 . S
C1247 C1248 1.400 . S
C1247 C1252 1.490 . S
C1248 H1238 0.930 . S
C1248 C1247 1.400 . S
C1248 C1251 1.386 . S
H1249 C1265 0.930 . S
H1250 C1266 0.931 . S
C1251 H1239 0.929 . S
C1251 C1245 1.390 . S
C1251 C1248 1.386 . S
C1252 C1247 1.490 . S
C1252 C1254 1.395 . S
C1252 C1255 1.403 . S
H1253 C1259 0.930 . S
C1254 H1240 0.930 . S
C1254 C1252 1.395 . S
C1254 C1257 1.403 . S
C1255 C1252 1.403 . S
C1255 C1256 1.524 . S
C1255 C1259 1.400 . S
C1256 H1241 0.960 . S
C1256 H1242 0.960 . S
C1256 H1243 0.960 . S
C1256 C1255 1.524 . S
C1257 C1254 1.403 . S
C1257 C1258 1.392 . S
C1257 C1261 1.495 . S
C1258 C1257 1.392 . S
C1258 C1259 1.385 . S
C1258 C1260 1.478 . S
C1259 H1253 0.930 . S
C1259 C1255 1.400 . S
C1259 C1258 1.385 . S
C1260 C1258 1.478 . S
C1260 C1262 1.381 . S
C1260 C1266 1.383 . S
C1261 C1257 1.495 . S
C1261 H1267 0.959 . S
C1261 H1268 0.961 . S
C1261 H1269 0.960 . S
C1262 C1260 1.381 . S
C1262 C1263 1.394 . S
C1262 H1270 0.930 . S
C1263 C1262 1.394 . S
C1263 C1264 1.383 . S
C1263 H1271 0.929 . S
C1264 C1263 1.383 . S
C1264 C1265 1.377 . S
C1265 H1249 0.930 . S
C1265 C1264 1.377 . S
C1265 C1266 1.379 . S
C1266 H1250 0.931 . S
C1266 C1260 1.383 . S
C1266 C1265 1.379 . S
H1267 C1261 0.959 . S
H1268 C1261 0.961 . S
H1269 C1261 0.960 . S
H1270 C1262 0.930 . S
H1271 C1263 0.929 . S
H1272 C1280 0.929 . S
H1273 C1282 0.930 . S
H1274 C1284 0.930 . S
H1275 C1287 0.929 . S
H1276 C1290 0.930 . S
H1277 C1292 0.960 . S
H1278 C1292 0.960 . S
H1279 C1292 0.960 . S
C1280 H1272 0.929 . S
C1280 C1281 1.377 . S
C1280 C1282 1.384 . S
C1281 C1280 1.377 . S
C1281 C1287 1.390 . S
C1282 H1273 0.930 . S
C1282 C1280 1.384 . S
C1282 C1283 1.372 . S
C1283 C1282 1.372 . S
C1283 C1284 1.400 . S
C1283 C1288 1.490 . S
C1284 H1274 0.930 . S
C1284 C1283 1.400 . S
C1284 C1287 1.386 . S
H1285 C1301 0.930 . S
H1286 C1302 0.931 . S
C1287 H1275 0.929 . S
C1287 C1281 1.390 . S
C1287 C1284 1.386 . S
C1288 C1283 1.490 . S
C1288 C1290 1.395 . S
C1288 C1291 1.403 . S
H1289 C1295 0.930 . S
C1290 H1276 0.930 . S
C1290 C1288 1.395 . S
C1290 C1293 1.403 . S
C1291 C1288 1.403 . S
C1291 C1292 1.524 . S
C1291 C1295 1.400 . S
C1292 H1277 0.960 . S
C1292 H1278 0.960 . S
C1292 H1279 0.960 . S
C1292 C1291 1.524 . S
C1293 C1290 1.403 . S
C1293 C1294 1.392 . S
C1293 C1297 1.495 . S
C1294 C1293 1.392 . S
C1294 C1295 1.385 . S
C1294 C1296 1.478 . S
C1295 H1289 0.930 . S
C1295 C1291 1.400 . S
C1295 C1294 1.385 . S
C1296 C1294 1.478 . S
C1296 C1298 1.381 . S
C1296 C1302 1.383 . S
C1297 C1293 1.495 . S
C1297 H1303 0.959 . S
C1297 H1304 0.961 . S
C1297 H1305 0.960 . S
C1298 C1296 1.381 . S
C1298 C1299 1.394 . S
C1298 H1306 0.930 . S
C1299 C1298 1.394 . S
C1299 C1300 1.383 . S
C1299 H1307 0.929 . S
C1300 C1299 1.383 . S
C1300 C1301 1.377 . S
C1301 H1285 0.930 . S
C1301 C1300 1.377 . S
C1301 C1302 1.379 . S
C1302 H1286 0.931 . S
C1302 C1296 1.383 . S
C1302 C1301 1.379 . S
H1303 C1297 0.959 . S
H1304 C1297 0.961 . S
H1305 C1297 0.960 . S
H1306 C1298 0.930 . S
H1307 C1299 0.929 . S
H1308 C1316 0.929 . S
H1309 C1318 0.930 . S
H1310 C1320 0.930 . S
H1311 C1323 0.929 . S
H1312 C1326 0.930 . S
H1313 C1328 0.960 . S
H1314 C1328 0.960 . S
H1315 C1328 0.960 . S
C1316 H1308 0.929 . S
C1316 C1317 1.377 . S
C1316 C1318 1.384 . S
C1317 C1316 1.377 . S
C1317 C1323 1.390 . S
C1318 H1309 0.930 . S
C1318 C1316 1.384 . S
C1318 C1319 1.372 . S
C1319 C1318 1.372 . S
C1319 C1320 1.400 . S
C1319 C1324 1.490 . S
C1320 H1310 0.930 . S
C1320 C1319 1.400 . S
C1320 C1323 1.386 . S
H1321 C1337 0.930 . S
H1322 C1338 0.931 . S
C1323 H1311 0.929 . S
C1323 C1317 1.390 . S
C1323 C1320 1.386 . S
C1324 C1319 1.490 . S
C1324 C1326 1.395 . S
C1324 C1327 1.403 . S
H1325 C1331 0.930 . S
C1326 H1312 0.930 . S
C1326 C1324 1.395 . S
C1326 C1329 1.403 . S
C1327 C1324 1.403 . S
C1327 C1328 1.524 . S
C1327 C1331 1.400 . S
C1328 H1313 0.960 . S
C1328 H1314 0.960 . S
C1328 H1315 0.960 . S
C1328 C1327 1.524 . S
C1329 C1326 1.403 . S
C1329 C1330 1.392 . S
C1329 C1333 1.495 . S
C1330 C1329 1.392 . S
C1330 C1331 1.385 . S
C1330 C1332 1.478 . S
C1331 H1325 0.930 . S
C1331 C1327 1.400 . S
C1331 C1330 1.385 . S
C1332 C1330 1.478 . S
C1332 C1334 1.381 . S
C1332 C1338 1.383 . S
C1333 C1329 1.495 . S
C1333 H1339 0.959 . S
C1333 H1340 0.961 . S
C1333 H1341 0.935 1_556 S
C1334 C1332 1.381 . S
C1334 C1335 1.394 . S
C1334 H1342 0.930 1_556 S
C1335 C1334 1.394 . S
C1335 C1336 1.383 . S
C1335 H1343 0.929 1_556 S
C1336 C1335 1.383 . S
C1336 C1337 1.377 . S
C1337 H1321 0.930 . S
C1337 C1336 1.377 . S
C1337 C1338 1.379 . S
C1338 H1322 0.931 . S
C1338 C1332 1.383 . S
C1338 C1337 1.379 . S
H1339 C1333 0.959 . S
H1340 C1333 0.961 . S
H1341 C1333 0.935 1_554 S
H1342 C1334 0.930 1_554 S
H1343 C1335 0.929 1_554 S
H1344 C1352 0.929 . S
H1345 C1354 0.930 . S
H1346 C1356 0.930 . S
H1347 C1359 0.929 . S
H1348 C1362 0.930 . S
H1349 C1364 0.960 . S
H1350 C1364 0.960 . S
H1351 C1364 0.960 . S
C1352 H1344 0.929 . S
C1352 C1353 1.377 . S
C1352 C1354 1.384 . S
C1353 C1352 1.377 . S
C1353 C1359 1.390 . S
C1354 H1345 0.930 . S
C1354 C1352 1.384 . S
C1354 C1355 1.372 . S
C1355 C1354 1.372 . S
C1355 C1356 1.400 . S
C1355 C1360 1.490 . S
C1356 H1346 0.930 . S
C1356 C1355 1.400 . S
C1356 C1359 1.386 . S
H1357 C1373 0.930 . S
H1358 C1374 0.931 . S
C1359 H1347 0.929 . S
C1359 C1353 1.390 . S
C1359 C1356 1.386 . S
C1360 C1355 1.490 . S
C1360 C1362 1.395 . S
C1360 C1363 1.403 . S
H1361 C1367 0.930 . S
C1362 H1348 0.930 . S
C1362 C1360 1.395 . S
C1362 C1365 1.403 . S
C1363 C1360 1.403 . S
C1363 C1364 1.524 . S
C1363 C1367 1.400 . S
C1364 H1349 0.960 . S
C1364 H1350 0.960 . S
C1364 H1351 0.960 . S
C1364 C1363 1.524 . S
C1365 C1362 1.403 . S
C1365 C1366 1.392 . S
C1365 C1369 1.495 . S
C1366 C1365 1.392 . S
C1366 C1367 1.385 . S
C1366 C1368 1.478 . S
C1367 H1361 0.930 . S
C1367 C1363 1.400 . S
C1367 C1366 1.385 . S
C1368 C1366 1.478 . S
C1368 C1370 1.381 . S
C1368 C1374 1.383 . S
C1369 C1365 1.495 . S
C1369 H1375 0.959 . S
C1369 H1376 0.961 . S
C1369 H1377 0.960 . S
C1370 C1368 1.381 . S
C1370 C1371 1.394 . S
C1370 H1378 0.930 . S
C1371 C1370 1.394 . S
C1371 C1372 1.383 . S
C1371 H1379 0.929 . S
C1372 C1371 1.383 . S
C1372 C1373 1.377 . S
C1373 H1357 0.930 . S
C1373 C1372 1.377 . S
C1373 C1374 1.379 . S
C1374 H1358 0.931 . S
C1374 C1368 1.383 . S
C1374 C1373 1.379 . S
H1375 C1369 0.959 . S
H1376 C1369 0.961 . S
H1377 C1369 0.960 . S
H1378 C1370 0.930 . S
H1379 C1371 0.929 . S
H1380 C1388 0.929 . S
H1381 C1390 0.930 . S
H1382 C1392 0.930 . S
H1383 C1395 0.929 . S
H1384 C1398 0.930 . S
H1385 C1400 0.960 . S
H1386 C1400 0.960 . S
H1387 C1400 0.960 . S
C1388 H1380 0.929 . S
C1388 C1389 1.377 . S
C1388 C1390 1.384 . S
C1389 C1388 1.377 . S
C1389 C1395 1.390 . S
C1390 H1381 0.930 . S
C1390 C1388 1.384 . S
C1390 C1391 1.372 . S
C1391 C1390 1.372 . S
C1391 C1392 1.400 . S
C1391 C1396 1.490 . S
C1392 H1382 0.930 . S
C1392 C1391 1.400 . S
C1392 C1395 1.386 . S
H1393 C1409 0.930 . S
H1394 C1410 0.931 . S
C1395 H1383 0.929 . S
C1395 C1389 1.390 . S
C1395 C1392 1.386 . S
C1396 C1391 1.490 . S
C1396 C1398 1.395 . S
C1396 C1399 1.403 . S
H1397 C1403 0.930 . S
C1398 H1384 0.930 . S
C1398 C1396 1.395 . S
C1398 C1401 1.403 . S
C1399 C1396 1.403 . S
C1399 C1400 1.524 . S
C1399 C1403 1.400 . S
C1400 H1385 0.960 . S
C1400 H1386 0.960 . S
C1400 H1387 0.960 . S
C1400 C1399 1.524 . S
C1401 C1398 1.403 . S
C1401 C1402 1.392 . S
C1401 C1405 1.495 . S
C1402 C1401 1.392 . S
C1402 C1403 1.385 . S
C1402 C1404 1.478 . S
C1403 H1397 0.930 . S
C1403 C1399 1.400 . S
C1403 C1402 1.385 . S
C1404 C1402 1.478 . S
C1404 C1406 1.381 . S
C1404 C1410 1.383 . S
C1405 C1401 1.495 . S
C1405 H1411 0.959 . S
C1405 H1412 0.961 . S
C1405 H1413 0.960 . S
C1406 C1404 1.381 . S
C1406 C1407 1.394 . S
C1406 H1414 0.930 . S
C1407 C1406 1.394 . S
C1407 C1408 1.383 . S
C1407 H1415 0.929 . S
C1408 C1407 1.383 . S
C1408 C1409 1.377 . S
C1409 H1393 0.930 . S
C1409 C1408 1.377 . S
C1409 C1410 1.379 . S
C1410 H1394 0.931 . S
C1410 C1404 1.383 . S
C1410 C1409 1.379 . S
H1411 C1405 0.959 . S
H1412 C1405 0.961 . S
H1413 C1405 0.960 . S
H1414 C1406 0.930 . S
H1415 C1407 0.929 . S
H1416 C1424 0.929 . S
H1417 C1426 0.930 . S
H1418 C1428 0.930 . S
H1419 C1431 0.929 . S
H1420 C1434 0.930 . S
H1421 C1436 0.960 . S
H1422 C1436 0.960 . S
H1423 C1436 0.960 . S
C1424 H1416 0.929 . S
C1424 C1425 1.377 . S
C1424 C1426 1.384 . S
C1425 C1424 1.377 . S
C1425 C1431 1.390 . S
C1426 H1417 0.930 . S
C1426 C1424 1.384 . S
C1426 C1427 1.372 . S
C1427 C1426 1.372 . S
C1427 C1428 1.400 . S
C1427 C1432 1.490 . S
C1428 H1418 0.930 . S
C1428 C1427 1.400 . S
C1428 C1431 1.386 . S
H1429 C1445 0.930 . S
H1430 C1446 0.931 . S
C1431 H1419 0.929 . S
C1431 C1425 1.390 . S
C1431 C1428 1.386 . S
C1432 C1427 1.490 . S
C1432 C1434 1.395 . S
C1432 C1435 1.403 . S
H1433 C1439 0.930 . S
C1434 H1420 0.930 . S
C1434 C1432 1.395 . S
C1434 C1437 1.403 . S
C1435 C1432 1.403 . S
C1435 C1436 1.524 . S
C1435 C1439 1.400 . S
C1436 H1421 0.960 . S
C1436 H1422 0.960 . S
C1436 H1423 0.960 . S
C1436 C1435 1.524 . S
C1437 C1434 1.403 . S
C1437 C1438 1.392 . S
C1437 C1441 1.495 . S
C1438 C1437 1.392 . S
C1438 C1439 1.385 . S
C1438 C1440 1.478 . S
C1439 H1433 0.930 . S
C1439 C1435 1.400 . S
C1439 C1438 1.385 . S
C1440 C1438 1.478 . S
C1440 C1442 1.381 . S
C1440 C1446 1.383 . S
C1441 C1437 1.495 . S
C1441 H1447 0.959 . S
C1441 H1448 0.961 . S
C1441 H1449 0.960 . S
C1442 C1440 1.381 . S
C1442 C1443 1.394 . S
C1442 H1450 0.930 . S
C1443 C1442 1.394 . S
C1443 C1444 1.383 . S
C1443 H1451 0.929 . S
C1444 C1443 1.383 . S
C1444 C1445 1.377 . S
C1445 H1429 0.930 . S
C1445 C1444 1.377 . S
C1445 C1446 1.379 . S
C1446 H1430 0.931 . S
C1446 C1440 1.383 . S
C1446 C1445 1.379 . S
H1447 C1441 0.959 . S
H1448 C1441 0.961 . S
H1449 C1441 0.960 . S
H1450 C1442 0.930 . S
H1451 C1443 0.929 . S
H1452 C1460 0.929 1_455 S
H1453 C1462 0.930 . S
H1454 C1464 0.930 . S
H1455 C1467 0.929 . S
H1456 C1470 0.930 . S
H1457 C1472 0.960 . S
H1458 C1472 0.960 . S
H1459 C1472 0.960 . S
C1460 H1452 0.929 1_655 S
C1460 C1461 1.377 . S
C1460 C1462 1.384 . S
C1461 C1460 1.377 . S
C1461 C1467 1.390 . S
C1462 H1453 0.930 . S
C1462 C1460 1.384 . S
C1462 C1463 1.372 . S
C1463 C1462 1.372 . S
C1463 C1464 1.400 . S
C1463 C1468 1.490 . S
C1464 H1454 0.930 . S
C1464 C1463 1.400 . S
C1464 C1467 1.386 . S
H1465 C1481 0.930 . S
H1466 C1482 0.931 . S
C1467 H1455 0.929 . S
C1467 C1461 1.390 . S
C1467 C1464 1.386 . S
C1468 C1463 1.490 . S
C1468 C1470 1.395 . S
C1468 C1471 1.403 . S
H1469 C1475 0.930 . S
C1470 H1456 0.930 . S
C1470 C1468 1.395 . S
C1470 C1473 1.403 . S
C1471 C1468 1.403 . S
C1471 C1472 1.524 . S
C1471 C1475 1.400 . S
C1472 H1457 0.960 . S
C1472 H1458 0.960 . S
C1472 H1459 0.960 . S
C1472 C1471 1.524 . S
C1473 C1470 1.403 . S
C1473 C1474 1.392 . S
C1473 C1477 1.495 . S
C1474 C1473 1.392 . S
C1474 C1475 1.385 . S
C1474 C1476 1.478 . S
C1475 H1469 0.930 . S
C1475 C1471 1.400 . S
C1475 C1474 1.385 . S
C1476 C1474 1.478 . S
C1476 C1478 1.381 . S
C1476 C1482 1.383 . S
C1477 C1473 1.495 . S
C1477 H1483 0.959 . S
C1477 H1484 0.961 . S
C1477 H1485 0.960 . S
C1478 C1476 1.381 . S
C1478 C1479 1.394 . S
C1478 H1486 0.930 . S
C1479 C1478 1.394 . S
C1479 C1480 1.383 . S
C1479 H1487 0.929 . S
C1480 C1479 1.383 . S
C1480 C1481 1.377 . S
C1481 H1465 0.930 . S
C1481 C1480 1.377 . S
C1481 C1482 1.379 . S
C1482 H1466 0.931 . S
C1482 C1476 1.383 . S
C1482 C1481 1.379 . S
H1483 C1477 0.959 . S
H1484 C1477 0.961 . S
H1485 C1477 0.960 . S
H1486 C1478 0.930 . S
H1487 C1479 0.929 . S
H1488 C1496 0.929 . S
H1489 C1498 0.930 . S
H1490 C1500 0.930 . S
H1491 C1503 0.929 . S
H1492 C1506 0.930 . S
H1493 C1508 0.960 . S
H1494 C1508 0.960 . S
H1495 C1508 0.960 . S
C1496 H1488 0.929 . S
C1496 C1497 1.377 . S
C1496 C1498 1.384 . S
C1497 C1496 1.377 . S
C1497 C1503 1.390 . S
C1498 H1489 0.930 . S
C1498 C1496 1.384 . S
C1498 C1499 1.372 . S
C1499 C1498 1.372 . S
C1499 C1500 1.400 . S
C1499 C1504 1.490 . S
C1500 H1490 0.930 . S
C1500 C1499 1.400 . S
C1500 C1503 1.386 . S
H1501 C1517 0.930 . S
H1502 C1518 0.931 . S
C1503 H1491 0.929 . S
C1503 C1497 1.390 . S
C1503 C1500 1.386 . S
C1504 C1499 1.490 . S
C1504 C1506 1.395 . S
C1504 C1507 1.403 . S
H1505 C1511 0.930 . S
C1506 H1492 0.930 . S
C1506 C1504 1.395 . S
C1506 C1509 1.403 . S
C1507 C1504 1.403 . S
C1507 C1508 1.524 . S
C1507 C1511 1.400 . S
C1508 H1493 0.960 . S
C1508 H1494 0.960 . S
C1508 H1495 0.960 . S
C1508 C1507 1.524 . S
C1509 C1506 1.403 . S
C1509 C1510 1.392 . S
C1509 C1513 1.495 . S
C1510 C1509 1.392 . S
C1510 C1511 1.385 . S
C1510 C1512 1.478 . S
C1511 H1505 0.930 . S
C1511 C1507 1.400 . S
C1511 C1510 1.385 . S
C1512 C1510 1.478 . S
C1512 C1514 1.381 . S
C1512 C1518 1.383 . S
C1513 C1509 1.495 . S
C1513 H1519 0.959 . S
C1513 H1520 0.961 . S
C1513 H1521 0.960 . S
C1514 C1512 1.381 . S
C1514 C1515 1.394 . S
C1514 H1522 0.930 . S
C1515 C1514 1.394 . S
C1515 C1516 1.383 . S
C1515 H1523 0.929 . S
C1516 C1515 1.383 . S
C1516 C1517 1.377 . S
C1517 H1501 0.930 . S
C1517 C1516 1.377 . S
C1517 C1518 1.379 . S
C1518 H1502 0.931 . S
C1518 C1512 1.383 . S
C1518 C1517 1.379 . S
H1519 C1513 0.959 . S
H1520 C1513 0.961 . S
H1521 C1513 0.960 . S
H1522 C1514 0.930 . S
H1523 C1515 0.929 . S
H1524 C1532 0.929 . S
H1525 C1534 0.930 . S
H1526 C1536 0.930 . S
H1527 C1539 0.929 . S
H1528 C1542 0.930 . S
H1529 C1544 0.960 . S
H1530 C1544 0.960 . S
H1531 C1544 0.960 . S
C1532 H1524 0.929 . S
C1532 C1533 1.377 . S
C1532 C1534 1.384 . S
C1533 C1532 1.377 . S
C1533 C1539 1.390 . S
C1534 H1525 0.930 . S
C1534 C1532 1.384 . S
C1534 C1535 1.372 . S
C1535 C1534 1.372 . S
C1535 C1536 1.400 . S
C1535 C1540 1.490 . S
C1536 H1526 0.930 . S
C1536 C1535 1.400 . S
C1536 C1539 1.386 . S
H1537 C1553 0.930 . S
H1538 C1554 0.931 . S
C1539 H1527 0.929 . S
C1539 C1533 1.390 . S
C1539 C1536 1.386 . S
C1540 C1535 1.490 . S
C1540 C1542 1.395 . S
C1540 C1543 1.403 . S
H1541 C1547 0.930 . S
C1542 H1528 0.930 . S
C1542 C1540 1.395 . S
C1542 C1545 1.403 . S
C1543 C1540 1.403 . S
C1543 C1544 1.524 . S
C1543 C1547 1.400 . S
C1544 H1529 0.960 . S
C1544 H1530 0.960 . S
C1544 H1531 0.960 . S
C1544 C1543 1.524 . S
C1545 C1542 1.403 . S
C1545 C1546 1.392 . S
C1545 C1549 1.495 . S
C1546 C1545 1.392 . S
C1546 C1547 1.385 . S
C1546 C1548 1.478 . S
C1547 H1541 0.930 . S
C1547 C1543 1.400 . S
C1547 C1546 1.385 . S
C1548 C1546 1.478 . S
C1548 C1550 1.381 . S
C1548 C1554 1.383 . S
C1549 C1545 1.495 . S
C1549 H1555 0.959 . S
C1549 H1556 0.961 . S
C1549 H1557 0.960 . S
C1550 C1548 1.381 . S
C1550 C1551 1.394 . S
C1550 H1558 0.930 . S
C1551 C1550 1.394 . S
C1551 C1552 1.383 . S
C1551 H1559 0.929 . S
C1552 C1551 1.383 . S
C1552 C1553 1.377 . S
C1553 H1537 0.930 . S
C1553 C1552 1.377 . S
C1553 C1554 1.379 . S
C1554 H1538 0.931 . S
C1554 C1548 1.383 . S
C1554 C1553 1.379 . S
H1555 C1549 0.959 . S
H1556 C1549 0.961 . S
H1557 C1549 0.960 . S
H1558 C1550 0.930 . S
H1559 C1551 0.929 . S
H1560 C1568 0.929 . S
H1561 C1570 0.930 . S
H1562 C1572 0.930 . S
H1563 C1575 0.929 . S
H1564 C1578 0.930 . S
H1565 C1580 0.960 . S
H1566 C1580 0.960 . S
H1567 C1580 0.960 . S
C1568 H1560 0.929 . S
C1568 C1569 1.377 . S
C1568 C1570 1.384 . S
C1569 C1568 1.377 . S
C1569 C1575 1.390 . S
C1570 H1561 0.930 . S
C1570 C1568 1.384 . S
C1570 C1571 1.372 . S
C1571 C1570 1.372 . S
C1571 C1572 1.400 . S
C1571 C1576 1.490 . S
C1572 H1562 0.930 . S
C1572 C1571 1.400 . S
C1572 C1575 1.386 . S
H1573 C1589 0.930 . S
H1574 C1590 0.931 . S
C1575 H1563 0.929 . S
C1575 C1569 1.390 . S
C1575 C1572 1.386 . S
C1576 C1571 1.490 . S
C1576 C1578 1.395 . S
C1576 C1579 1.403 . S
H1577 C1583 0.930 . S
C1578 H1564 0.930 . S
C1578 C1576 1.395 . S
C1578 C1581 1.403 . S
C1579 C1576 1.403 . S
C1579 C1580 1.524 . S
C1579 C1583 1.400 . S
C1580 H1565 0.960 . S
C1580 H1566 0.960 . S
C1580 H1567 0.960 . S
C1580 C1579 1.524 . S
C1581 C1578 1.403 . S
C1581 C1582 1.392 . S
C1581 C1585 1.495 . S
C1582 C1581 1.392 . S
C1582 C1583 1.385 . S
C1582 C1584 1.478 . S
C1583 H1577 0.930 . S
C1583 C1579 1.400 . S
C1583 C1582 1.385 . S
C1584 C1582 1.478 . S
C1584 C1586 1.381 . S
C1584 C1590 1.383 . S
C1585 C1581 1.495 . S
C1585 H1591 0.959 . S
C1585 H1592 0.961 . S
C1585 H1593 0.960 . S
C1586 C1584 1.381 . S
C1586 C1587 1.394 . S
C1586 H1594 0.930 . S
C1587 C1586 1.394 . S
C1587 C1588 1.383 . S
C1587 H1595 0.929 . S
C1588 C1587 1.383 . S
C1588 C1589 1.377 . S
C1589 H1573 0.930 . S
C1589 C1588 1.377 . S
C1589 C1590 1.379 . S
C1590 H1574 0.931 . S
C1590 C1584 1.383 . S
C1590 C1589 1.379 . S
H1591 C1585 0.959 . S
H1592 C1585 0.961 . S
H1593 C1585 0.960 . S
H1594 C1586 0.930 . S
H1595 C1587 0.929 . S
H1596 C1604 0.929 . S
H1597 C1606 0.930 . S
H1598 C1608 0.930 . S
H1599 C1611 0.929 . S
H1600 C1614 0.930 . S
H1601 C1616 0.960 . S
H1602 C1616 0.960 . S
H1603 C1616 0.960 . S
C1604 H1596 0.929 . S
C1604 C1605 1.377 . S
C1604 C1606 1.384 . S
C1605 C1604 1.377 . S
C1605 C1611 1.390 . S
C1606 H1597 0.930 . S
C1606 C1604 1.384 . S
C1606 C1607 1.372 . S
C1607 C1606 1.372 . S
C1607 C1608 1.400 . S
C1607 C1612 1.490 . S
C1608 H1598 0.930 . S
C1608 C1607 1.400 . S
C1608 C1611 1.386 . S
H1609 C1625 0.930 . S
H1610 C1626 0.931 . S
C1611 H1599 0.929 . S
C1611 C1605 1.390 . S
C1611 C1608 1.386 . S
C1612 C1607 1.490 . S
C1612 C1614 1.395 . S
C1612 C1615 1.403 . S
H1613 C1619 0.930 . S
C1614 H1600 0.930 . S
C1614 C1612 1.395 . S
C1614 C1617 1.403 . S
C1615 C1612 1.403 . S
C1615 C1616 1.524 . S
C1615 C1619 1.400 . S
C1616 H1601 0.960 . S
C1616 H1602 0.960 . S
C1616 H1603 0.960 . S
C1616 C1615 1.524 . S
C1617 C1614 1.403 . S
C1617 C1618 1.392 . S
C1617 C1621 1.495 . S
C1618 C1617 1.392 . S
C1618 C1619 1.385 . S
C1618 C1620 1.478 . S
C1619 H1613 0.930 . S
C1619 C1615 1.400 . S
C1619 C1618 1.385 . S
C1620 C1618 1.478 . S
C1620 C1622 1.381 . S
C1620 C1626 1.383 . S
C1621 C1617 1.495 . S
C1621 H1627 0.959 . S
C1621 H1628 0.961 . S
C1621 H1629 0.960 . S
C1622 C1620 1.381 . S
C1622 C1623 1.394 . S
C1622 H1630 0.930 . S
C1623 C1622 1.394 . S
C1623 C1624 1.383 . S
C1623 H1631 0.929 . S
C1624 C1623 1.383 . S
C1624 C1625 1.377 . S
C1625 H1609 0.930 . S
C1625 C1624 1.377 . S
C1625 C1626 1.379 . S
C1626 H1610 0.931 . S
C1626 C1620 1.383 . S
C1626 C1625 1.379 . S
H1627 C1621 0.959 . S
H1628 C1621 0.961 . S
H1629 C1621 0.960 . S
H1630 C1622 0.930 . S
H1631 C1623 0.929 . S
H1632 C1640 0.929 . S
H1633 C1642 0.930 . S
H1634 C1644 0.930 . S
H1635 C1647 0.929 . S
H1636 C1650 0.930 . S
H1637 C1652 0.960 . S
H1638 C1652 0.960 . S
H1639 C1652 0.960 . S
C1640 H1632 0.929 . S
C1640 C1641 1.377 . S
C1640 C1642 1.384 . S
C1641 C1640 1.377 . S
C1641 C1647 1.390 . S
C1642 H1633 0.930 . S
C1642 C1640 1.384 . S
C1642 C1643 1.372 . S
C1643 C1642 1.372 . S
C1643 C1644 1.400 . S
C1643 C1648 1.490 . S
C1644 H1634 0.930 . S
C1644 C1643 1.400 . S
C1644 C1647 1.386 . S
H1645 C1661 0.930 . S
H1646 C1662 0.931 . S
C1647 H1635 0.929 . S
C1647 C1641 1.390 . S
C1647 C1644 1.386 . S
C1648 C1643 1.490 . S
C1648 C1650 1.395 . S
C1648 C1651 1.403 . S
H1649 C1655 0.930 . S
C1650 H1636 0.930 . S
C1650 C1648 1.395 . S
C1650 C1653 1.403 . S
C1651 C1648 1.403 . S
C1651 C1652 1.524 . S
C1651 C1655 1.400 . S
C1652 H1637 0.960 . S
C1652 H1638 0.960 . S
C1652 H1639 0.960 . S
C1652 C1651 1.524 . S
C1653 C1650 1.403 . S
C1653 C1654 1.392 . S
C1653 C1657 1.495 . S
C1654 C1653 1.392 . S
C1654 C1655 1.385 . S
C1654 C1656 1.478 . S
C1655 H1649 0.930 . S
C1655 C1651 1.400 . S
C1655 C1654 1.385 . S
C1656 C1654 1.478 . S
C1656 C1658 1.381 . S
C1656 C1662 1.383 . S
C1657 C1653 1.495 . S
C1657 H1663 0.959 . S
C1657 H1664 0.961 . S
C1657 H1665 0.960 . S
C1658 C1656 1.381 . S
C1658 C1659 1.394 . S
C1658 H1666 0.930 . S
C1659 C1658 1.394 . S
C1659 C1660 1.383 . S
C1659 H1667 0.929 . S
C1660 C1659 1.383 . S
C1660 C1661 1.377 . S
C1661 H1645 0.930 . S
C1661 C1660 1.377 . S
C1661 C1662 1.379 . S
C1662 H1646 0.931 . S
C1662 C1656 1.383 . S
C1662 C1661 1.379 . S
H1663 C1657 0.959 . S
H1664 C1657 0.961 . S
H1665 C1657 0.960 . S
H1666 C1658 0.930 . S
H1667 C1659 0.929 . S
H1668 C1676 0.929 . S
H1669 C1678 0.930 . S
H1670 C1680 0.930 . S
H1671 C1683 0.929 . S
H1672 C1686 0.930 . S
H1673 C1688 0.960 . S
H1674 C1688 0.960 . S
H1675 C1688 0.960 . S
C1676 H1668 0.929 . S
C1676 C1677 1.377 . S
C1676 C1678 1.384 . S
C1677 C1676 1.377 . S
C1677 C1683 1.390 . S
C1678 H1669 0.930 . S
C1678 C1676 1.384 . S
C1678 C1679 1.372 . S
C1679 C1678 1.372 . S
C1679 C1680 1.400 . S
C1679 C1684 1.490 . S
C1680 H1670 0.930 . S
C1680 C1679 1.400 . S
C1680 C1683 1.386 . S
H1681 C1697 0.930 . S
H1682 C1698 0.931 . S
C1683 H1671 0.929 . S
C1683 C1677 1.390 . S
C1683 C1680 1.386 . S
C1684 C1679 1.490 . S
C1684 C1686 1.395 . S
C1684 C1687 1.403 . S
H1685 C1691 0.930 . S
C1686 H1672 0.930 . S
C1686 C1684 1.395 . S
C1686 C1689 1.403 . S
C1687 C1684 1.403 . S
C1687 C1688 1.524 . S
C1687 C1691 1.400 . S
C1688 H1673 0.960 . S
C1688 H1674 0.960 . S
C1688 H1675 0.960 . S
C1688 C1687 1.524 . S
C1689 C1686 1.403 . S
C1689 C1690 1.392 . S
C1689 C1693 1.495 . S
C1690 C1689 1.392 . S
C1690 C1691 1.385 . S
C1690 C1692 1.478 . S
C1691 H1685 0.930 . S
C1691 C1687 1.400 . S
C1691 C1690 1.385 . S
C1692 C1690 1.478 . S
C1692 C1694 1.381 . S
C1692 C1698 1.383 . S
C1693 C1689 1.495 . S
C1693 H1699 0.959 . S
C1693 H1700 0.961 . S
C1693 H1701 0.960 . S
C1694 C1692 1.381 . S
C1694 C1695 1.394 . S
C1694 H1702 0.930 . S
C1695 C1694 1.394 . S
C1695 C1696 1.383 . S
C1695 H1703 0.929 . S
C1696 C1695 1.383 . S
C1696 C1697 1.377 . S
C1697 H1681 0.930 . S
C1697 C1696 1.377 . S
C1697 C1698 1.379 . S
C1698 H1682 0.931 . S
C1698 C1692 1.383 . S
C1698 C1697 1.379 . S
H1699 C1693 0.959 . S
H1700 C1693 0.961 . S
H1701 C1693 0.960 . S
H1702 C1694 0.930 . S
H1703 C1695 0.929 . S
H1704 C1712 0.929 . S
H1705 C1714 0.930 . S
H1706 C1716 0.930 . S
H1707 C1719 0.929 . S
H1708 C1722 0.930 . S
H1709 C1724 0.960 . S
H1710 C1724 0.960 . S
H1711 C1724 0.960 . S
C1712 H1704 0.929 . S
C1712 C1713 1.377 . S
C1712 C1714 1.384 . S
C1713 C1712 1.377 . S
C1713 C1719 1.390 . S
C1714 H1705 0.930 . S
C1714 C1712 1.384 . S
C1714 C1715 1.372 . S
C1715 C1714 1.372 . S
C1715 C1716 1.400 . S
C1715 C1720 1.490 . S
C1716 H1706 0.930 . S
C1716 C1715 1.400 . S
C1716 C1719 1.386 . S
H1717 C1733 0.930 . S
H1718 C1734 0.931 . S
C1719 H1707 0.929 . S
C1719 C1713 1.390 . S
C1719 C1716 1.386 . S
C1720 C1715 1.490 . S
C1720 C1722 1.395 . S
C1720 C1723 1.403 . S
H1721 C1727 0.930 . S
C1722 H1708 0.930 . S
C1722 C1720 1.395 . S
C1722 C1725 1.403 . S
C1723 C1720 1.403 . S
C1723 C1724 1.524 . S
C1723 C1727 1.400 . S
C1724 H1709 0.960 . S
C1724 H1710 0.960 . S
C1724 H1711 0.960 . S
C1724 C1723 1.524 . S
C1725 C1722 1.403 . S
C1725 C1726 1.392 . S
C1725 C1729 1.495 . S
C1726 C1725 1.392 . S
C1726 C1727 1.385 . S
C1726 C1728 1.478 . S
C1727 H1721 0.930 . S
C1727 C1723 1.400 . S
C1727 C1726 1.385 . S
C1728 C1726 1.478 . S
C1728 C1730 1.381 . S
C1728 C1734 1.383 . S
C1729 C1725 1.495 . S
C1729 H1735 0.959 . S
C1729 H1736 0.961 . S
C1729 H1737 0.960 . S
C1730 C1728 1.381 . S
C1730 C1731 1.394 . S
C1730 H1738 0.930 . S
C1731 C1730 1.394 . S
C1731 C1732 1.383 . S
C1731 H1739 0.929 . S
C1732 C1731 1.383 . S
C1732 C1733 1.377 . S
C1733 H1717 0.930 . S
C1733 C1732 1.377 . S
C1733 C1734 1.379 . S
C1734 H1718 0.931 . S
C1734 C1728 1.383 . S
C1734 C1733 1.379 . S
H1735 C1729 0.959 . S
H1736 C1729 0.961 . S
H1737 C1729 0.960 . S
H1738 C1730 0.930 . S
H1739 C1731 0.929 . S
H1740 C1748 0.929 . S
H1741 C1750 0.930 . S
H1742 C1752 0.930 . S
H1743 C1755 0.929 . S
H1744 C1758 0.930 . S
H1745 C1760 0.960 . S
H1746 C1760 0.960 . S
H1747 C1760 0.960 . S
C1748 H1740 0.929 . S
C1748 C1749 1.377 . S
C1748 C1750 1.384 . S
C1749 C1748 1.377 . S
C1749 C1755 1.390 . S
C1750 H1741 0.930 . S
C1750 C1748 1.384 . S
C1750 C1751 1.372 . S
C1751 C1750 1.372 . S
C1751 C1752 1.400 . S
C1751 C1756 1.490 . S
C1752 H1742 0.930 . S
C1752 C1751 1.400 . S
C1752 C1755 1.386 . S
H1753 C1769 0.930 . S
H1754 C1770 0.931 . S
C1755 H1743 0.929 . S
C1755 C1749 1.390 . S
C1755 C1752 1.386 . S
C1756 C1751 1.490 . S
C1756 C1758 1.395 . S
C1756 C1759 1.403 . S
H1757 C1763 0.930 . S
C1758 H1744 0.930 . S
C1758 C1756 1.395 . S
C1758 C1761 1.403 . S
C1759 C1756 1.403 . S
C1759 C1760 1.524 . S
C1759 C1763 1.400 . S
C1760 H1745 0.960 . S
C1760 H1746 0.960 . S
C1760 H1747 0.960 . S
C1760 C1759 1.524 . S
C1761 C1758 1.403 . S
C1761 C1762 1.392 . S
C1761 C1765 1.495 . S
C1762 C1761 1.392 . S
C1762 C1763 1.385 . S
C1762 C1764 1.478 . S
C1763 H1757 0.930 . S
C1763 C1759 1.400 . S
C1763 C1762 1.385 . S
C1764 C1762 1.478 . S
C1764 C1766 1.381 . S
C1764 C1770 1.383 . S
C1765 C1761 1.495 . S
C1765 H1771 0.959 . S
C1765 H1772 0.961 . S
C1765 H1773 0.960 . S
C1766 C1764 1.381 . S
C1766 C1767 1.394 . S
C1766 H1774 0.930 . S
C1767 C1766 1.394 . S
C1767 C1768 1.383 . S
C1767 H1775 0.929 . S
C1768 C1767 1.383 . S
C1768 C1769 1.377 . S
C1769 H1753 0.930 . S
C1769 C1768 1.377 . S
C1769 C1770 1.379 . S
C1770 H1754 0.931 . S
C1770 C1764 1.383 . S
C1770 C1769 1.379 . S
H1771 C1765 0.959 . S
H1772 C1765 0.961 . S
H1773 C1765 0.960 . S
H1774 C1766 0.930 . S
H1775 C1767 0.929 . S
H1776 C1784 0.929 . S
H1777 C1786 0.930 . S
H1778 C1788 0.930 . S
H1779 C1791 0.929 . S
H1780 C1794 0.930 . S
H1781 C1796 0.960 . S
H1782 C1796 0.960 . S
H1783 C1796 0.960 . S
C1784 H1776 0.929 . S
C1784 C1785 1.377 . S
C1784 C1786 1.384 . S
C1785 C1784 1.377 . S
C1785 C1791 1.390 . S
C1786 H1777 0.930 . S
C1786 C1784 1.384 . S
C1786 C1787 1.372 . S
C1787 C1786 1.372 . S
C1787 C1788 1.400 . S
C1787 C1792 1.490 . S
C1788 H1778 0.930 . S
C1788 C1787 1.400 . S
C1788 C1791 1.386 . S
H1789 C1805 0.930 . S
H1790 C1806 0.931 . S
C1791 H1779 0.929 . S
C1791 C1785 1.390 . S
C1791 C1788 1.386 . S
C1792 C1787 1.490 . S
C1792 C1794 1.395 . S
C1792 C1795 1.403 . S
H1793 C1799 0.930 . S
C1794 H1780 0.930 . S
C1794 C1792 1.395 . S
C1794 C1797 1.403 . S
C1795 C1792 1.403 . S
C1795 C1796 1.524 . S
C1795 C1799 1.400 . S
C1796 H1781 0.960 . S
C1796 H1782 0.960 . S
C1796 H1783 0.960 . S
C1796 C1795 1.524 . S
C1797 C1794 1.403 . S
C1797 C1798 1.392 . S
C1797 C1801 1.495 . S
C1798 C1797 1.392 . S
C1798 C1799 1.385 . S
C1798 C1800 1.478 . S
C1799 H1793 0.930 . S
C1799 C1795 1.400 . S
C1799 C1798 1.385 . S
C1800 C1798 1.478 . S
C1800 C1802 1.381 . S
C1800 C1806 1.383 . S
C1801 C1797 1.495 . S
C1801 H1807 0.959 . S
C1801 H1808 0.961 . S
C1801 H1809 0.960 . S
C1802 C1800 1.381 . S
C1802 C1803 1.394 . S
C1802 H1810 0.930 . S
C1803 C1802 1.394 . S
C1803 C1804 1.383 . S
C1803 H1811 0.929 . S
C1804 C1803 1.383 . S
C1804 C1805 1.377 . S
C1805 H1789 0.930 . S
C1805 C1804 1.377 . S
C1805 C1806 1.379 . S
C1806 H1790 0.931 . S
C1806 C1800 1.383 . S
C1806 C1805 1.379 . S
H1807 C1801 0.959 . S
H1808 C1801 0.961 . S
H1809 C1801 0.960 . S
H1810 C1802 0.930 . S
H1811 C1803 0.929 . S
H1812 C1820 0.929 . S
H1813 C1822 0.930 . S
H1814 C1824 0.930 . S
H1815 C1827 0.929 . S
H1816 C1830 0.930 . S
H1817 C1832 0.960 . S
H1818 C1832 0.960 . S
H1819 C1832 0.960 . S
C1820 H1812 0.929 . S
C1820 C1821 1.377 . S
C1820 C1822 1.384 . S
C1821 C1820 1.377 . S
C1821 C1827 1.390 . S
C1822 H1813 0.930 . S
C1822 C1820 1.384 . S
C1822 C1823 1.372 . S
C1823 C1822 1.372 . S
C1823 C1824 1.400 . S
C1823 C1828 1.490 . S
C1824 H1814 0.930 . S
C1824 C1823 1.400 . S
C1824 C1827 1.386 . S
H1825 C1841 0.930 . S
H1826 C1842 0.931 . S
C1827 H1815 0.929 . S
C1827 C1821 1.390 . S
C1827 C1824 1.386 . S
C1828 C1823 1.490 . S
C1828 C1830 1.395 . S
C1828 C1831 1.403 . S
H1829 C1835 0.930 . S
C1830 H1816 0.930 . S
C1830 C1828 1.395 . S
C1830 C1833 1.403 . S
C1831 C1828 1.403 . S
C1831 C1832 1.524 . S
C1831 C1835 1.400 . S
C1832 H1817 0.960 . S
C1832 H1818 0.960 . S
C1832 H1819 0.960 . S
C1832 C1831 1.524 . S
C1833 C1830 1.403 . S
C1833 C1834 1.392 . S
C1833 C1837 1.495 . S
C1834 C1833 1.392 . S
C1834 C1835 1.385 . S
C1834 C1836 1.478 . S
C1835 H1829 0.930 . S
C1835 C1831 1.400 . S
C1835 C1834 1.385 . S
C1836 C1834 1.478 . S
C1836 C1838 1.381 . S
C1836 C1842 1.383 . S
C1837 C1833 1.495 . S
C1837 H1843 0.959 . S
C1837 H1844 0.961 . S
C1837 H1845 0.960 . S
C1838 C1836 1.381 . S
C1838 C1839 1.394 . S
C1838 H1846 0.930 . S
C1839 C1838 1.394 . S
C1839 C1840 1.383 . S
C1839 H1847 0.929 . S
C1840 C1839 1.383 . S
C1840 C1841 1.377 . S
C1841 H1825 0.930 . S
C1841 C1840 1.377 . S
C1841 C1842 1.379 . S
C1842 H1826 0.931 . S
C1842 C1836 1.383 . S
C1842 C1841 1.379 . S
H1843 C1837 0.959 . S
H1844 C1837 0.961 . S
H1845 C1837 0.960 . S
H1846 C1838 0.930 . S
H1847 C1839 0.929 . S
H1848 C1856 0.929 . S
H1849 C1858 0.930 . S
H1850 C1860 0.930 . S
H1851 C1863 0.929 . S
H1852 C1866 0.930 . S
H1853 C1868 0.960 . S
H1854 C1868 0.960 . S
H1855 C1868 0.960 . S
C1856 H1848 0.929 . S
C1856 C1857 1.377 . S
C1856 C1858 1.384 . S
C1857 C1856 1.377 . S
C1857 C1863 1.390 . S
C1858 H1849 0.930 . S
C1858 C1856 1.384 . S
C1858 C1859 1.372 . S
C1859 C1858 1.372 . S
C1859 C1860 1.400 . S
C1859 C1864 1.490 . S
C1860 H1850 0.930 . S
C1860 C1859 1.400 . S
C1860 C1863 1.386 . S
H1861 C1877 0.930 . S
H1862 C1878 0.931 . S
C1863 H1851 0.929 . S
C1863 C1857 1.390 . S
C1863 C1860 1.386 . S
C1864 C1859 1.490 . S
C1864 C1866 1.395 . S
C1864 C1867 1.403 . S
H1865 C1871 0.930 . S
C1866 H1852 0.930 . S
C1866 C1864 1.395 . S
C1866 C1869 1.403 . S
C1867 C1864 1.403 . S
C1867 C1868 1.524 . S
C1867 C1871 1.400 . S
C1868 H1853 0.960 . S
C1868 H1854 0.960 . S
C1868 H1855 0.960 . S
C1868 C1867 1.524 . S
C1869 C1866 1.403 . S
C1869 C1870 1.392 . S
C1869 C1873 1.495 . S
C1870 C1869 1.392 . S
C1870 C1871 1.385 . S
C1870 C1872 1.478 . S
C1871 H1865 0.930 . S
C1871 C1867 1.400 . S
C1871 C1870 1.385 . S
C1872 C1870 1.478 . S
C1872 C1874 1.381 . S
C1872 C1878 1.383 . S
C1873 C1869 1.495 . S
C1873 H1879 0.959 . S
C1873 H1880 0.961 . S
C1873 H1881 0.960 . S
C1874 C1872 1.381 . S
C1874 C1875 1.394 . S
C1874 H1882 0.930 . S
C1875 C1874 1.394 . S
C1875 C1876 1.383 . S
C1875 H1883 0.929 . S
C1876 C1875 1.383 . S
C1876 C1877 1.377 . S
C1877 H1861 0.930 . S
C1877 C1876 1.377 . S
C1877 C1878 1.379 . S
C1878 H1862 0.931 . S
C1878 C1872 1.383 . S
C1878 C1877 1.379 . S
H1879 C1873 0.959 . S
H1880 C1873 0.961 . S
H1881 C1873 0.960 . S
H1882 C1874 0.930 . S
H1883 C1875 0.929 . S
H1884 C1892 0.929 . S
H1885 C1894 0.930 . S
H1886 C1896 0.930 . S
H1887 C1899 0.929 . S
H1888 C1902 0.930 . S
H1889 C1904 0.960 . S
H1890 C1904 0.960 . S
H1891 C1904 0.960 . S
C1892 H1884 0.929 . S
C1892 C1893 1.377 . S
C1892 C1894 1.384 . S
C1893 C1892 1.377 . S
C1893 C1899 1.390 . S
C1894 H1885 0.930 . S
C1894 C1892 1.384 . S
C1894 C1895 1.372 . S
C1895 C1894 1.372 . S
C1895 C1896 1.400 . S
C1895 C1900 1.490 . S
C1896 H1886 0.930 . S
C1896 C1895 1.400 . S
C1896 C1899 1.386 . S
H1897 C1913 0.930 . S
H1898 C1914 0.931 . S
C1899 H1887 0.929 . S
C1899 C1893 1.390 . S
C1899 C1896 1.386 . S
C1900 C1895 1.490 . S
C1900 C1902 1.395 . S
C1900 C1903 1.403 . S
H1901 C1907 0.930 . S
C1902 H1888 0.930 . S
C1902 C1900 1.395 . S
C1902 C1905 1.403 . S
C1903 C1900 1.403 . S
C1903 C1904 1.524 . S
C1903 C1907 1.400 . S
C1904 H1889 0.960 . S
C1904 H1890 0.960 . S
C1904 H1891 0.960 . S
C1904 C1903 1.524 . S
C1905 C1902 1.403 . S
C1905 C1906 1.392 . S
C1905 C1909 1.495 . S
C1906 C1905 1.392 . S
C1906 C1907 1.385 . S
C1906 C1908 1.478 . S
C1907 H1901 0.930 . S
C1907 C1903 1.400 . S
C1907 C1906 1.385 . S
C1908 C1906 1.478 . S
C1908 C1910 1.381 . S
C1908 C1914 1.383 . S
C1909 C1905 1.495 . S
C1909 H1915 0.959 . S
C1909 H1916 0.961 . S
C1909 H1917 0.960 . S
C1910 C1908 1.381 . S
C1910 C1911 1.394 . S
C1910 H1918 0.930 . S
C1911 C1910 1.394 . S
C1911 C1912 1.383 . S
C1911 H1919 0.929 . S
C1912 C1911 1.383 . S
C1912 C1913 1.377 . S
C1913 H1897 0.930 . S
C1913 C1912 1.377 . S
C1913 C1914 1.379 . S
C1914 H1898 0.931 . S
C1914 C1908 1.383 . S
C1914 C1913 1.379 . S
H1915 C1909 0.959 . S
H1916 C1909 0.961 . S
H1917 C1909 0.960 . S
H1918 C1910 0.930 . S
H1919 C1911 0.929 . S
H1920 C1928 0.929 . S
H1921 C1930 0.930 . S
H1922 C1932 0.930 . S
H1923 C1935 0.929 . S
H1924 C1938 0.930 . S
H1925 C1940 0.960 . S
H1926 C1940 0.960 . S
H1927 C1940 0.960 . S
C1928 H1920 0.929 . S
C1928 C1929 1.377 . S
C1928 C1930 1.384 . S
C1929 C1928 1.377 . S
C1929 C1935 1.390 . S
C1930 H1921 0.930 . S
C1930 C1928 1.384 . S
C1930 C1931 1.372 . S
C1931 C1930 1.372 . S
C1931 C1932 1.400 . S
C1931 C1936 1.490 . S
C1932 H1922 0.930 . S
C1932 C1931 1.400 . S
C1932 C1935 1.386 . S
H1933 C1949 0.930 . S
H1934 C1950 0.931 . S
C1935 H1923 0.929 . S
C1935 C1929 1.390 . S
C1935 C1932 1.386 . S
C1936 C1931 1.490 . S
C1936 C1938 1.395 . S
C1936 C1939 1.403 . S
H1937 C1943 0.930 . S
C1938 H1924 0.930 . S
C1938 C1936 1.395 . S
C1938 C1941 1.403 . S
C1939 C1936 1.403 . S
C1939 C1940 1.524 . S
C1939 C1943 1.400 . S
C1940 H1925 0.960 . S
C1940 H1926 0.960 . S
C1940 H1927 0.960 . S
C1940 C1939 1.524 . S
C1941 C1938 1.403 . S
C1941 C1942 1.392 . S
C1941 C1945 1.495 . S
C1942 C1941 1.392 . S
C1942 C1943 1.385 . S
C1942 C1944 1.478 . S
C1943 H1937 0.930 . S
C1943 C1939 1.400 . S
C1943 C1942 1.385 . S
C1944 C1942 1.478 . S
C1944 C1946 1.381 . S
C1944 C1950 1.383 . S
C1945 C1941 1.495 . S
C1945 H1951 0.959 . S
C1945 H1952 0.961 . S
C1945 H1953 0.960 . S
C1946 C1944 1.381 . S
C1946 C1947 1.394 . S
C1946 H1954 0.930 . S
C1947 C1946 1.394 . S
C1947 C1948 1.383 . S
C1947 H1955 0.929 . S
C1948 C1947 1.383 . S
C1948 C1949 1.377 . S
C1949 H1933 0.930 . S
C1949 C1948 1.377 . S
C1949 C1950 1.379 . S
C1950 H1934 0.931 . S
C1950 C1944 1.383 . S
C1950 C1949 1.379 . S
H1951 C1945 0.959 . S
H1952 C1945 0.961 . S
H1953 C1945 0.960 . S
H1954 C1946 0.930 . S
H1955 C1947 0.929 . S
H1956 C1964 0.929 . S
H1957 C1966 0.930 . S
H1958 C1968 0.930 . S
H1959 C1971 0.929 . S
H1960 C1974 0.930 . S
H1961 C1976 0.960 . S
H1962 C1976 0.960 . S
H1963 C1976 0.960 . S
C1964 H1956 0.929 . S
C1964 C1965 1.377 . S
C1964 C1966 1.384 . S
C1965 C1964 1.377 . S
C1965 C1971 1.390 . S
C1966 H1957 0.930 . S
C1966 C1964 1.384 . S
C1966 C1967 1.372 . S
C1967 C1966 1.372 . S
C1967 C1968 1.400 . S
C1967 C1972 1.490 . S
C1968 H1958 0.930 . S
C1968 C1967 1.400 . S
C1968 C1971 1.386 . S
H1969 C1985 0.930 . S
H1970 C1986 0.931 . S
C1971 H1959 0.929 . S
C1971 C1965 1.390 . S
C1971 C1968 1.386 . S
C1972 C1967 1.490 . S
C1972 C1974 1.395 . S
C1972 C1975 1.403 . S
H1973 C1979 0.930 . S
C1974 H1960 0.930 . S
C1974 C1972 1.395 . S
C1974 C1977 1.403 . S
C1975 C1972 1.403 . S
C1975 C1976 1.524 . S
C1975 C1979 1.400 . S
C1976 H1961 0.960 . S
C1976 H1962 0.960 . S
C1976 H1963 0.960 . S
C1976 C1975 1.524 . S
C1977 C1974 1.403 . S
C1977 C1978 1.392 . S
C1977 C1981 1.495 . S
C1978 C1977 1.392 . S
C1978 C1979 1.385 . S
C1978 C1980 1.478 . S
C1979 H1973 0.930 . S
C1979 C1975 1.400 . S
C1979 C1978 1.385 . S
C1980 C1978 1.478 . S
C1980 C1982 1.381 . S
C1980 C1986 1.383 . S
C1981 C1977 1.495 . S
C1981 H1987 0.959 . S
C1981 H1988 0.961 . S
C1981 H1989 0.960 . S
C1982 C1980 1.381 . S
C1982 C1983 1.394 . S
C1982 H1990 0.930 . S
C1983 C1982 1.394 . S
C1983 C1984 1.383 . S
C1983 H1991 0.929 . S
C1984 C1983 1.383 . S
C1984 C1985 1.377 . S
C1985 H1969 0.930 . S
C1985 C1984 1.377 . S
C1985 C1986 1.379 . S
C1986 H1970 0.931 . S
C1986 C1980 1.383 . S
C1986 C1985 1.379 . S
H1987 C1981 0.959 . S
H1988 C1981 0.961 . S
H1989 C1981 0.960 . S
H1990 C1982 0.930 . S
H1991 C1983 0.929 . S
H1992 C2000 0.929 . S
H1993 C2002 0.930 . S
H1994 C2004 0.930 . S
H1995 C2007 0.929 . S
H1996 C2010 0.930 . S
H1997 C2012 0.960 . S
H1998 C2012 0.960 . S
H1999 C2012 0.960 . S
C2000 H1992 0.929 . S
C2000 C2001 1.377 . S
C2000 C2002 1.384 . S
C2001 C2000 1.377 . S
C2001 C2007 1.390 . S
C2002 H1993 0.930 . S
C2002 C2000 1.384 . S
C2002 C2003 1.372 . S
C2003 C2002 1.372 . S
C2003 C2004 1.400 . S
C2003 C2008 1.490 . S
C2004 H1994 0.930 . S
C2004 C2003 1.400 . S
C2004 C2007 1.386 . S
H2005 C2021 0.930 . S
H2006 C2022 0.931 . S
C2007 H1995 0.929 . S
C2007 C2001 1.390 . S
C2007 C2004 1.386 . S
C2008 C2003 1.490 . S
C2008 C2010 1.395 . S
C2008 C2011 1.403 . S
H2009 C2015 0.930 . S
C2010 H1996 0.930 . S
C2010 C2008 1.395 . S
C2010 C2013 1.403 . S
C2011 C2008 1.403 . S
C2011 C2012 1.524 . S
C2011 C2015 1.400 . S
C2012 H1997 0.960 . S
C2012 H1998 0.960 . S
C2012 H1999 0.960 . S
C2012 C2011 1.524 . S
C2013 C2010 1.403 . S
C2013 C2014 1.392 . S
C2013 C2017 1.495 . S
C2014 C2013 1.392 . S
C2014 C2015 1.385 . S
C2014 C2016 1.478 . S
C2015 H2009 0.930 . S
C2015 C2011 1.400 . S
C2015 C2014 1.385 . S
C2016 C2014 1.478 . S
C2016 C2018 1.381 . S
C2016 C2022 1.383 . S
C2017 C2013 1.495 . S
C2017 H2023 0.959 . S
C2017 H2024 0.961 . S
C2017 H2025 0.960 . S
C2018 C2016 1.381 . S
C2018 C2019 1.394 . S
C2018 H2026 0.930 . S
C2019 C2018 1.394 . S
C2019 C2020 1.383 . S
C2019 H2027 0.929 . S
C2020 C2019 1.383 . S
C2020 C2021 1.377 . S
C2021 H2005 0.930 . S
C2021 C2020 1.377 . S
C2021 C2022 1.379 . S
C2022 H2006 0.931 . S
C2022 C2016 1.383 . S
C2022 C2021 1.379 . S
H2023 C2017 0.959 . S
H2024 C2017 0.961 . S
H2025 C2017 0.960 . S
H2026 C2018 0.930 . S
H2027 C2019 0.929 . S
H2028 C2036 0.929 . S
H2029 C2038 0.930 . S
H2030 C2040 0.930 . S
H2031 C2043 0.929 . S
H2032 C2046 0.930 . S
H2033 C2048 0.960 . S
H2034 C2048 0.960 . S
H2035 C2048 0.960 . S
C2036 H2028 0.929 . S
C2036 C2037 1.377 . S
C2036 C2038 1.384 . S
C2037 C2036 1.377 . S
C2037 C2043 1.390 . S
C2038 H2029 0.930 . S
C2038 C2036 1.384 . S
C2038 C2039 1.372 . S
C2039 C2038 1.372 . S
C2039 C2040 1.400 . S
C2039 C2044 1.490 . S
C2040 H2030 0.930 . S
C2040 C2039 1.400 . S
C2040 C2043 1.386 . S
H2041 C2057 0.930 . S
H2042 C2058 0.931 . S
C2043 H2031 0.929 . S
C2043 C2037 1.390 . S
C2043 C2040 1.386 . S
C2044 C2039 1.490 . S
C2044 C2046 1.395 . S
C2044 C2047 1.403 . S
H2045 C2051 0.930 . S
C2046 H2032 0.930 . S
C2046 C2044 1.395 . S
C2046 C2049 1.403 . S
C2047 C2044 1.403 . S
C2047 C2048 1.524 . S
C2047 C2051 1.400 . S
C2048 H2033 0.960 . S
C2048 H2034 0.960 . S
C2048 H2035 0.960 . S
C2048 C2047 1.524 . S
C2049 C2046 1.403 . S
C2049 C2050 1.392 . S
C2049 C2053 1.495 . S
C2050 C2049 1.392 . S
C2050 C2051 1.385 . S
C2050 C2052 1.478 . S
C2051 H2045 0.930 . S
C2051 C2047 1.400 . S
C2051 C2050 1.385 . S
C2052 C2050 1.478 . S
C2052 C2054 1.381 . S
C2052 C2058 1.383 . S
C2053 C2049 1.495 . S
C2053 H2059 0.959 . S
C2053 H2060 0.961 . S
C2053 H2061 0.960 . S
C2054 C2052 1.381 . S
C2054 C2055 1.394 . S
C2054 H2062 0.930 . S
C2055 C2054 1.394 . S
C2055 C2056 1.383 . S
C2055 H2063 0.929 . S
C2056 C2055 1.383 . S
C2056 C2057 1.377 . S
C2057 H2041 0.930 . S
C2057 C2056 1.377 . S
C2057 C2058 1.379 . S
C2058 H2042 0.931 . S
C2058 C2052 1.383 . S
C2058 C2057 1.379 . S
H2059 C2053 0.959 . S
H2060 C2053 0.961 . S
H2061 C2053 0.960 . S
H2062 C2054 0.930 . S
H2063 C2055 0.929 . S
C345 C208 1.259 . S
C364 C11 1.223 . S
C381 C26 1.180 . S
C400 C215 1.066 . S
C417 C256 1.297 . S
C436 C32 1.275 . S
C453 C47 0.852 . S
C472 C187 0.924 . S
C489 C201 0.897 . S
C508 C61 0.957 . S
C525 C82 1.188 . S
C544 C222 1.194 . S
C561 C96 1.261 . S
C580 C263 1.257 . S
C597 C103 1.023 . S
C616 C194 1.182 . S
C633 C138 1.264 . S
C652 C123 1.252 . S
C669 C145 0.906 . S
C688 C131 0.887 . S
C705 C152 1.258 . S
C724 C165 1.227 . S
C741 C158 1.294 . S
C760 C116 1.306 . S
C777 C173 1.046 . S
C796 C54 1.165 . S
C813 C68 1.264 . S
C832 C235 1.252 . S
C849 C243 0.867 . S
C868 C19 0.865 . S
C885 C25 1.350 . S
C904 C299 1.186 . S
C921 C137 1.315 . S
C940 C5 1.102 . S
C957 C326 1.257 . S
C976 C46 1.243 . S
C993 C166 1.471 . S
C1012 C40 1.474 . S
C1029 C306 1.484 . S
C1048 C102 1.426 . S
C1065 C130 1.391 . S
C1084 C88 1.371 . S
C1101 C81 1.264 . S
C1120 C333 1.270 . S
C1137 C67 1.315 . S
C1156 C159 1.190 . S
C1173 C221 1.263 . S
C1192 C277 1.273 . S
C1209 C236 1.485 . S
C1228 C214 1.471 . S
C1245 C193 1.352 . S
C1264 C229 1.125 . S
C1281 C270 1.261 . S
C1300 C186 1.278 . S
C1317 C33 1.126 . S
C1336 C291 1.319 . S
C1353 C151 1.283 . S
C1372 C109 1.268 . S
C1389 C12 1.471 . S
C1408 C320 1.480 . S
C1425 C278 1.259 . S
C1444 C39 1.223 . S
C1461 C4 1.297 . S
C1480 C228 1.275 . S
C1497 C271 0.876 . S
C1516 C89 0.886 . S
C1533 C180 1.185 . S
C1552 C110 1.184 . S
C1569 C75 1.034 . S
C1588 C250 1.171 . S
C1605 C305 1.253 . S
C1624 C292 1.262 . S
C1641 C327 0.905 . S
C1660 C285 0.925 . S
C1677 C319 1.244 . S
C1696 C334 1.263 . S
C1713 C298 1.292 . S
C1732 C312 1.306 . S
C1749 C117 1.153 . S
C1768 C53 1.350 . S
C1785 C18 1.254 . S
C1804 C144 1.256 . S
C1821 C74 1.448 . S
C1840 C124 1.485 . S
C1857 C284 1.390 . S
C1876 C60 1.369 . S
C1893 C95 1.315 . S
C1912 C313 1.124 . S
C1929 C179 1.265 . S
C1948 C207 1.281 . S
C1965 C264 1.485 . S
C1984 C172 1.430 . S
C2001 C249 1.350 . S
C2020 C257 1.190 . S
C2037 C200 1.252 . S
C2056 C242 1.229 . S
