# Generated by pormake.
# Topology upb, (4)-cn, num edge types: 1
# Building blocks:
#     Node 0, Type 0, BuildingBlock: UXUYUI_clean_sbu_0, # of connection points: 4
#     Node 1, Type 0, BuildingBlock: UXUYUI_clean_sbu_0, # of connection points: 4
#     Node 2, Type 0, BuildingBlock: UXUYUI_clean_sbu_0, # of connection points: 4
#     Node 3, Type 0, BuildingBlock: UXUYUI_clean_sbu_0, # of connection points: 4
#     Node 4, Type 0, BuildingBlock: UXUYUI_clean_sbu_0, # of connection points: 4
#     Node 5, Type 0, BuildingBlock: UXUYUI_clean_sbu_0, # of connection points: 4
#     Node 6, Type 0, BuildingBlock: UXUYUI_clean_sbu_0, # of connection points: 4
#     Node 7, Type 0, BuildingBlock: UXUYUI_clean_sbu_0, # of connection points: 4
#     Node 8, Type 0, BuildingBlock: UXUYUI_clean_sbu_0, # of connection points: 4
#     Node 9, Type 0, BuildingBlock: UXUYUI_clean_sbu_0, # of connection points: 4
#     Node 10, Type 0, BuildingBlock: UXUYUI_clean_sbu_0, # of connection points: 4
#     Node 11, Type 0, BuildingBlock: UXUYUI_clean_sbu_0, # of connection points: 4
#     Node 12, Type 0, BuildingBlock: UXUYUI_clean_sbu_0, # of connection points: 4
#     Node 13, Type 0, BuildingBlock: UXUYUI_clean_sbu_0, # of connection points: 4
#     Node 14, Type 0, BuildingBlock: UXUYUI_clean_sbu_0, # of connection points: 4
#     Node 15, Type 0, BuildingBlock: UXUYUI_clean_sbu_0, # of connection points: 4
#     Edge 16, Type (0, 0), BuildingBlock: EZIPEK_clean_linker_0, # of connection points: 2
#     Edge 17, Type (0, 0), BuildingBlock: EZIPEK_clean_linker_0, # of connection points: 2
#     Edge 18, Type (0, 0), BuildingBlock: EZIPEK_clean_linker_0, # of connection points: 2
#     Edge 19, Type (0, 0), BuildingBlock: EZIPEK_clean_linker_0, # of connection points: 2
#     Edge 20, Type (0, 0), BuildingBlock: EZIPEK_clean_linker_0, # of connection points: 2
#     Edge 21, Type (0, 0), BuildingBlock: EZIPEK_clean_linker_0, # of connection points: 2
#     Edge 22, Type (0, 0), BuildingBlock: EZIPEK_clean_linker_0, # of connection points: 2
#     Edge 23, Type (0, 0), BuildingBlock: EZIPEK_clean_linker_0, # of connection points: 2
#     Edge 24, Type (0, 0), BuildingBlock: EZIPEK_clean_linker_0, # of connection points: 2
#     Edge 25, Type (0, 0), BuildingBlock: EZIPEK_clean_linker_0, # of connection points: 2
#     Edge 26, Type (0, 0), BuildingBlock: EZIPEK_clean_linker_0, # of connection points: 2
#     Edge 27, Type (0, 0), BuildingBlock: EZIPEK_clean_linker_0, # of connection points: 2
#     Edge 28, Type (0, 0), BuildingBlock: EZIPEK_clean_linker_0, # of connection points: 2
#     Edge 29, Type (0, 0), BuildingBlock: EZIPEK_clean_linker_0, # of connection points: 2
#     Edge 30, Type (0, 0), BuildingBlock: EZIPEK_clean_linker_0, # of connection points: 2
#     Edge 31, Type (0, 0), BuildingBlock: EZIPEK_clean_linker_0, # of connection points: 2
#     Edge 32, Type (0, 0), BuildingBlock: EZIPEK_clean_linker_0, # of connection points: 2
#     Edge 33, Type (0, 0), BuildingBlock: EZIPEK_clean_linker_0, # of connection points: 2
#     Edge 34, Type (0, 0), BuildingBlock: EZIPEK_clean_linker_0, # of connection points: 2
#     Edge 35, Type (0, 0), BuildingBlock: EZIPEK_clean_linker_0, # of connection points: 2
#     Edge 36, Type (0, 0), BuildingBlock: EZIPEK_clean_linker_0, # of connection points: 2
#     Edge 37, Type (0, 0), BuildingBlock: EZIPEK_clean_linker_0, # of connection points: 2
#     Edge 38, Type (0, 0), BuildingBlock: EZIPEK_clean_linker_0, # of connection points: 2
#     Edge 39, Type (0, 0), BuildingBlock: EZIPEK_clean_linker_0, # of connection points: 2
#     Edge 40, Type (0, 0), BuildingBlock: EZIPEK_clean_linker_0, # of connection points: 2
#     Edge 41, Type (0, 0), BuildingBlock: EZIPEK_clean_linker_0, # of connection points: 2
#     Edge 42, Type (0, 0), BuildingBlock: EZIPEK_clean_linker_0, # of connection points: 2
#     Edge 43, Type (0, 0), BuildingBlock: EZIPEK_clean_linker_0, # of connection points: 2
#     Edge 44, Type (0, 0), BuildingBlock: EZIPEK_clean_linker_0, # of connection points: 2
#     Edge 45, Type (0, 0), BuildingBlock: EZIPEK_clean_linker_0, # of connection points: 2
#     Edge 46, Type (0, 0), BuildingBlock: EZIPEK_clean_linker_0, # of connection points: 2
#     Edge 47, Type (0, 0), BuildingBlock: EZIPEK_clean_linker_0, # of connection points: 2
# Relax obj value: 0.322
# Max RMSD: 0.141
# Mean RMSD: 0.140
data_MOF--net-upb--node1-UXUYUI_clean_sbu_0--edge1-EZIPEK_clean_linker_0
_symmetry_space_group_name_H-M    P1
_symmetry_Int_Tables_number       1
_symmetry_cell_setting            triclinic
loop_
_symmetry_equiv_pos_as_xyz
'x, y, z'
_cell_length_a     42.341335
_cell_length_b     42.284835
_cell_length_c     59.611855
_cell_angle_alpha  89.99276
_cell_angle_beta   90.000839
_cell_angle_gamma 90.029035
loop_
_atom_site_label
_atom_site_type_symbol
_atom_site_fract_x
_atom_site_fract_y
_atom_site_fract_z
_atom_type_partial_charge
Li0 Li 0.02785 0.26858 0.34754 0.0
Li1 Li 0.99922 0.30544 0.37341 0.0
Li2 Li 0.97064 0.27555 0.34496 0.0
Li3 Li 0.00364 0.31867 0.33388 0.0
C4 C 0.97632 0.23823 0.38118 0.0
N5 N 0.93655 0.1963 0.40279 0.0
C6 C 0.95554 0.24901 0.39772 0.0
C7 C 0.97652 0.20619 0.37541 0.0
C8 C 0.9357 0.22743 0.40851 0.0
C9 C 0.95625 0.18536 0.38654 0.0
C10 C 0.06143 0.32672 0.36781 0.0
C11 C 0.08901 0.37336 0.3804 0.0
N12 N 0.1087 0.35485 0.39276 0.0
C13 C 0.08219 0.30813 0.38037 0.0
C14 C 0.06505 0.35957 0.36759 0.0
C15 C 0.10583 0.32281 0.39298 0.0
C16 C 0.08664 0.24835 0.33059 0.0
N17 N 0.06297 0.24108 0.34513 0.0
C18 C 0.09019 0.19465 0.35717 0.0
C19 C 0.0644 0.21506 0.35848 0.0
C20 C 0.11492 0.2015 0.34229 0.0
C21 C 0.11317 0.22882 0.32898 0.0
H22 H 0.08496 0.26946 0.3204 0.0
H23 H 0.04566 0.21033 0.37029 0.0
C24 C 0.97798 0.33929 0.41254 0.0
N25 N 0.99951 0.31868 0.40396 0.0
C26 C 0.977 0.34513 0.43561 0.0
C27 C 0.02021 0.30838 0.44051 0.0
C28 C 0.02036 0.30327 0.41742 0.0
C29 C 0.99812 0.32925 0.44976 0.0
H30 H 0.96067 0.35015 0.40173 0.0
H31 H 0.03624 0.28598 0.4103 0.0
C32 C 0.98736 0.27759 0.29965 0.0
N33 N 0.95857 0.28265 0.25822 0.0
C34 C 0.95934 0.29474 0.29735 0.0
C35 C 0.00075 0.26301 0.2809 0.0
C36 C 0.94515 0.29703 0.27626 0.0
C37 C 0.98582 0.26583 0.26009 0.0
C38 C 0.95353 0.35066 0.35293 0.0
C39 C 0.92331 0.35665 0.3445 0.0
C40 C 0.97215 0.37575 0.36053 0.0
C41 C 0.91222 0.38775 0.34384 0.0
C42 C 0.96022 0.40651 0.3596 0.0
N43 N 0.93075 0.41183 0.35133 0.0
C44 C 0.90528 0.26147 0.34872 0.0
C45 C 0.93601 0.22355 0.32911 0.0
C46 C 0.8787 0.24194 0.34746 0.0
N47 N 0.93323 0.25177 0.33985 0.0
C48 C 0.91019 0.20313 0.32774 0.0
C49 C 0.88133 0.21208 0.33735 0.0
H50 H 0.90397 0.28382 0.35748 0.0
H51 H 0.95868 0.21638 0.32247 0.0
C52 C 0.04305 0.35172 0.30612 0.0
N53 N 0.01236 0.35134 0.31276 0.0
C54 C 0.05345 0.37377 0.29043 0.0
C55 C 0.00051 0.39509 0.28872 0.0
C56 C 0.99096 0.37217 0.30425 0.0
C57 C 0.03208 0.39575 0.28156 0.0
H58 H 0.05943 0.33464 0.31299 0.0
H59 H 0.96652 0.37096 0.3093 0.0
O60 O 0.99639 0.25891 0.37073 0.0
O61 O 0.03825 0.31278 0.35526 0.0
O62 O 0.00197 0.2753 0.32005 0.0
O63 O 0.96497 0.32043 0.35332 0.0
H64 H 0.95462 0.27376 0.40217 0.0
H65 H 0.99197 0.1975 0.36233 0.0
H66 H 0.91961 0.23542 0.4214 0.0
H67 H 0.95616 0.16051 0.38224 0.0
H68 H 0.09203 0.39876 0.38046 0.0
H69 H 0.07994 0.28264 0.38052 0.0
H70 H 0.04972 0.37427 0.35749 0.0
H71 H 0.12191 0.30873 0.40293 0.0
H72 H 0.09105 0.17389 0.3678 0.0
H73 H 0.13205 0.23482 0.31748 0.0
H74 H 0.95929 0.3609 0.44243 0.0
H75 H 0.03639 0.29538 0.45115 0.0
H76 H 0.94865 0.30624 0.31164 0.0
H77 H 0.02249 0.24971 0.28242 0.0
H78 H 0.92348 0.31027 0.27423 0.0
H79 H 0.99592 0.25468 0.24542 0.0
H80 H 0.90868 0.33751 0.33839 0.0
H81 H 0.9955 0.37144 0.36716 0.0
H82 H 0.88891 0.39276 0.33732 0.0
H83 H 0.97439 0.42614 0.36544 0.0
H84 H 0.85672 0.2494 0.3551 0.0
H85 H 0.91292 0.18018 0.3199 0.0
H86 H 0.07797 0.37371 0.28522 0.0
H87 H 0.98349 0.41179 0.28213 0.0
Li88 Li 0.66288 0.00357 0.33445 0.0
Li89 Li 0.71442 0.03128 0.34779 0.0
Li90 Li 0.70803 0.97319 0.34711 0.0
Li91 Li 0.68035 0.00279 0.37367 0.0
C92 C 0.72195 0.98598 0.3055 0.0
N93 N 0.75429 0.94873 0.27518 0.0
C94 C 0.75489 0.98745 0.30435 0.0
C95 C 0.70542 0.96579 0.29113 0.0
C96 C 0.77081 0.96833 0.28895 0.0
C97 C 0.72221 0.94713 0.27591 0.0
C98 C 0.65152 0.05794 0.36955 0.0
C99 C 0.64521 0.10141 0.39533 0.0
N100 N 0.61524 0.09161 0.39973 0.0
C101 C 0.62063 0.04837 0.37423 0.0
C102 C 0.66393 0.08472 0.38009 0.0
C103 C 0.60268 0.06567 0.38959 0.0
C104 C 0.59846 0.00279 0.31948 0.0
N105 N 0.629 0.00934 0.31402 0.0
C106 C 0.61307 0.03263 0.27938 0.0
C107 C 0.63667 0.02342 0.29428 0.0
C108 C 0.58136 0.02745 0.28497 0.0
C109 C 0.57397 0.01169 0.305 0.0
H110 H 0.59308 0.99171 0.33538 0.0
H111 H 0.66112 0.02863 0.29054 0.0
C112 C 0.77377 0.06008 0.34678 0.0
N113 N 0.7425 0.06557 0.34345 0.0
C114 C 0.79552 0.08473 0.34488 0.0
C115 C 0.75249 0.12017 0.33584 0.0
C116 C 0.73154 0.09475 0.33783 0.0
C117 C 0.78482 0.11518 0.33954 0.0
H118 H 0.78172 0.0366 0.35125 0.0
H119 H 0.70651 0.09834 0.33525 0.0
C120 C 0.65612 0.93663 0.35209 0.0
N121 N 0.64272 0.87346 0.34501 0.0
C122 C 0.66428 0.91411 0.36824 0.0
C123 C 0.64085 0.92707 0.33243 0.0
C124 C 0.65744 0.88227 0.3643 0.0
C125 C 0.63431 0.89501 0.32915 0.0
C126 C 0.73864 0.99621 0.39127 0.0
C127 C 0.73545 0.96712 0.40216 0.0
C128 C 0.7544 0.02104 0.40195 0.0
C129 C 0.74785 0.96343 0.42371 0.0
C130 C 0.76633 0.01646 0.42357 0.0
N131 N 0.76283 0.98799 0.4339 0.0
C132 C 0.76338 0.93824 0.35111 0.0
C133 C 0.7248 0.91042 0.33012 0.0
C134 C 0.78463 0.91334 0.34884 0.0
N135 N 0.73386 0.93623 0.3422 0.0
C136 C 0.74545 0.88488 0.32736 0.0
C137 C 0.7756 0.88624 0.33703 0.0
H138 H 0.7707 0.95939 0.35979 0.0
H139 H 0.70185 0.90973 0.32232 0.0
C140 C 0.64747 0.98058 0.41223 0.0
N141 N 0.66671 0.00379 0.40427 0.0
C142 C 0.64116 0.97846 0.43521 0.0
C143 C 0.67351 0.02487 0.44113 0.0
C144 C 0.67891 0.02629 0.4181 0.0
C145 C 0.65508 0.00031 0.44987 0.0
H146 H 0.63801 0.96306 0.40087 0.0
H147 H 0.69405 0.04453 0.41136 0.0
O148 O 0.70602 0.00363 0.321 0.0
O149 O 0.66964 0.04095 0.35489 0.0
O150 O 0.66231 0.96794 0.35575 0.0
O151 O 0.7268 1.00022 0.3701 0.0
H152 H 0.768 0.00284 0.31547 0.0
H153 H 0.67992 0.96427 0.29192 0.0
H154 H 0.79632 0.96899 0.28801 0.0
H155 H 0.70976 0.93124 0.26477 0.0
H156 H 0.65455 0.12208 0.40371 0.0
H157 H 0.61079 0.02755 0.36633 0.0
H158 H 0.68789 0.09229 0.37678 0.0
H159 H 0.5788 0.05843 0.39349 0.0
H160 H 0.61939 0.04497 0.26409 0.0
H161 H 0.54962 0.00761 0.30977 0.0
H162 H 0.82035 0.08027 0.3479 0.0
H163 H 0.74362 0.1435 0.33178 0.0
H164 H 0.67577 0.92113 0.38366 0.0
H165 H 0.63437 0.94412 0.31974 0.0
H166 H 0.66377 0.86457 0.37661 0.0
H167 H 0.62265 0.88725 0.31397 0.0
H168 H 0.72357 0.9476 0.39403 0.0
H169 H 0.75707 0.04372 0.39375 0.0
H170 H 0.74553 0.94104 0.43234 0.0
H171 H 0.77836 0.03554 0.43212 0.0
H172 H 0.80798 0.91524 0.35616 0.0
H173 H 0.73809 0.86439 0.3178 0.0
H174 H 0.62688 0.95919 0.44158 0.0
H175 H 0.68459 0.04201 0.45211 0.0
Li176 Li 0.96408 0.72984 0.34679 0.0
Li177 Li 0.99613 0.6953 0.37508 0.0
Li178 Li 0.02139 0.7263 0.34504 0.0
Li179 Li 0.99264 0.68128 0.3357 0.0
C180 C 0.01044 0.76765 0.37885 0.0
N181 N 0.04316 0.81899 0.39565 0.0
C182 C 0.03678 0.76303 0.39258 0.0
C183 C 0.00066 0.79838 0.37371 0.0
C184 C 0.05299 0.78929 0.40093 0.0
C185 C 0.01756 0.82403 0.38233 0.0
C186 C 0.93801 0.66038 0.3547 0.0
C187 C 0.92206 0.60719 0.36384 0.0
N188 N 0.89824 0.60934 0.3486 0.0
C189 C 0.91348 0.66206 0.33908 0.0
C190 C 0.94237 0.63279 0.36723 0.0
C191 C 0.89357 0.63601 0.33627 0.0
C192 C 0.91129 0.75443 0.32367 0.0
N193 N 0.92732 0.75482 0.34345 0.0
C194 C 0.89147 0.79268 0.35873 0.0
C195 C 0.91777 0.77305 0.36095 0.0
C196 C 0.87487 0.7932 0.33838 0.0
C197 C 0.88469 0.77354 0.32077 0.0
H198 H 0.91943 0.73954 0.3101 0.0
H199 H 0.93083 0.77258 0.37654 0.0
C200 C 0.02498 0.6803 0.41655 0.0
N201 N 0.99693 0.68315 0.40562 0.0
C202 C 0.02555 0.67545 0.43972 0.0
C203 C 0.96839 0.67505 0.4397 0.0
C204 C 0.96892 0.68021 0.41657 0.0
C205 C 0.99697 0.67338 0.45151 0.0
H206 H 0.04686 0.68286 0.40737 0.0
H207 H 0.94701 0.68292 0.40744 0.0
C208 C 0.00349 0.74045 0.30367 0.0
N209 N 0.03071 0.77719 0.27059 0.0
C210 C 0.02932 0.72906 0.29154 0.0
C211 C 0.99119 0.77033 0.29878 0.0
C212 C 0.04286 0.74806 0.27495 0.0
C213 C 0.00536 0.78859 0.28203 0.0
C214 C 0.04513 0.65444 0.35082 0.0
C215 C 0.06256 0.65022 0.33115 0.0
C216 C 0.04235 0.62955 0.36612 0.0
C217 C 0.07653 0.6209 0.32691 0.0
C218 C 0.05675 0.60061 0.36131 0.0
N219 N 0.07335 0.59691 0.34195 0.0
C220 C 0.08709 0.73965 0.34365 0.0
C221 C 0.05429 0.78309 0.3342 0.0
C222 C 0.11395 0.75884 0.3425 0.0
N223 N 0.05797 0.7521 0.33977 0.0
C224 C 0.08042 0.80308 0.33286 0.0
C225 C 0.11053 0.79103 0.33739 0.0
H226 H 0.08937 0.71506 0.34836 0.0
H227 H 0.03093 0.79263 0.33162 0.0
C228 C 0.97837 0.65432 0.29424 0.0
N229 N 0.98687 0.64632 0.3155 0.0
C230 C 0.96901 0.63112 0.27903 0.0
C231 C 0.97855 0.59145 0.30743 0.0
C232 C 0.98749 0.61553 0.32222 0.0
C233 C 0.96833 0.59941 0.28578 0.0
H234 H 0.97745 0.67889 0.28936 0.0
H235 H 0.99342 0.60967 0.33932 0.0
O236 O 0.99438 0.74222 0.37041 0.0
O237 O 0.9573 0.68585 0.35805 0.0
O238 O 0.99005 0.72227 0.32007 0.0
O239 O 0.03135 0.68298 0.35528 0.0
H240 H 0.04484 0.73943 0.39653 0.0
H241 H 0.98051 0.80239 0.36291 0.0
H242 H 0.07348 0.78605 0.41152 0.0
H243 H 0.01039 0.84794 0.37838 0.0
H244 H 0.9252 0.58562 0.37335 0.0
H245 H 0.90983 0.68328 0.32927 0.0
H246 H 0.96134 0.63112 0.37934 0.0
H247 H 0.87447 0.63694 0.32424 0.0
H248 H 0.8843 0.80753 0.37263 0.0
H249 H 0.87221 0.77342 0.30491 0.0
H250 H 0.04795 0.67436 0.44846 0.0
H251 H 0.94599 0.67367 0.44843 0.0
H252 H 0.03886 0.70584 0.29496 0.0
H253 H 0.97123 0.77953 0.30803 0.0
H254 H 0.063 0.73963 0.26553 0.0
H255 H 0.99626 0.81187 0.27818 0.0
H256 H 0.06524 0.66937 0.31928 0.0
H257 H 0.02891 0.63239 0.38142 0.0
H258 H 0.08994 0.61723 0.31169 0.0
H259 H 0.05463 0.58107 0.37292 0.0
H260 H 0.13697 0.749 0.3462 0.0
H261 H 0.0771 0.8279 0.32905 0.0
H262 H 0.96107 0.63796 0.26245 0.0
H263 H 0.978 0.56714 0.31314 0.0
Li264 Li 0.31563 0.99519 0.37507 0.0
Li265 Li 0.28708 0.02615 0.34866 0.0
Li266 Li 0.28199 0.96695 0.3494 0.0
Li267 Li 0.33244 0.9937 0.33712 0.0
C268 C 0.25621 0.01581 0.38903 0.0
N269 N 0.22971 0.05141 0.42301 0.0
C270 C 0.27079 0.04376 0.39611 0.0
C271 C 0.22818 0.00596 0.39923 0.0
C272 C 0.25701 0.06143 0.41331 0.0
C273 C 0.21514 0.0243 0.41639 0.0
C274 C 0.34505 0.05707 0.34662 0.0
C275 C 0.35167 0.08812 0.31299 0.0
N276 N 0.36957 0.10916 0.32467 0.0
C277 C 0.36348 0.07901 0.35829 0.0
C278 C 0.33905 0.06167 0.3238 0.0
C279 C 0.37567 0.10519 0.34689 0.0
C280 C 0.35137 0.01234 0.41398 0.0
N281 N 0.32772 0.9939 0.40577 0.0
C282 C 0.31435 0.97619 0.44258 0.0
C283 C 0.30961 0.97568 0.41947 0.0
C284 C 0.33789 0.9957 0.45157 0.0
C285 C 0.35696 0.01358 0.43709 0.0
H286 H 0.36516 0.02679 0.40266 0.0
H287 H 0.29077 0.96152 0.41244 0.0
C288 C 0.23034 0.05481 0.33913 0.0
N289 N 0.26093 0.06208 0.34375 0.0
C290 C 0.20769 0.07864 0.33762 0.0
C291 C 0.24865 0.11724 0.34479 0.0
C292 C 0.27046 0.09257 0.34656 0.0
C293 C 0.21677 0.11022 0.3407 0.0
H294 H 0.22342 0.03031 0.33732 0.0
H295 H 0.29466 0.09781 0.35084 0.0
C296 C 0.3449 0.9416 0.37216 0.0
N297 N 0.38213 0.91266 0.40416 0.0
C298 C 0.37621 0.95117 0.37513 0.0
C299 C 0.33255 0.91717 0.38529 0.0
C300 C 0.39464 0.93628 0.39145 0.0
C301 C 0.35176 0.90287 0.40142 0.0
C302 C 0.28229 0.99208 0.30162 0.0
C303 C 0.28121 0.96178 0.29231 0.0
C304 C 0.27545 0.01833 0.28821 0.0
C305 C 0.27413 0.95827 0.26956 0.0
C306 C 0.26845 0.01384 0.26553 0.0
N307 N 0.26799 0.98416 0.25674 0.0
C308 C 0.22205 0.93978 0.34663 0.0
C309 C 0.2639 0.90328 0.34101 0.0
C310 C 0.19975 0.91564 0.34458 0.0
N311 N 0.25337 0.93315 0.34497 0.0
C312 C 0.24236 0.8784 0.33876 0.0
C313 C 0.20995 0.8846 0.34072 0.0
H314 H 0.21448 0.96379 0.34985 0.0
H315 H 0.28899 0.89879 0.33983 0.0
C316 C 0.39247 0.00673 0.31491 0.0
N317 N 0.36639 0.9879 0.31628 0.0
C318 C 0.41576 0.00064 0.2988 0.0
C319 C 0.38569 0.95511 0.2867 0.0
C320 C 0.36304 0.96213 0.30288 0.0
C321 C 0.41226 0.97457 0.28448 0.0
H322 H 0.39539 0.02637 0.32629 0.0
H323 H 0.34283 0.94685 0.30492 0.0
O324 O 0.26932 0.99794 0.37231 0.0
O325 O 0.33272 0.03159 0.35774 0.0
O326 O 0.32626 0.95653 0.35675 0.0
O327 O 0.28882 0.996 0.32393 0.0
H328 H 0.29256 0.05172 0.38848 0.0
H329 H 0.21666 0.98434 0.39396 0.0
H330 H 0.26805 0.08308 0.41897 0.0
H331 H 0.19345 0.01696 0.42445 0.0
H332 H 0.34729 0.09188 0.29532 0.0
H333 H 0.36823 0.07588 0.37599 0.0
H334 H 0.32514 0.04487 0.31448 0.0
H335 H 0.38996 0.12236 0.35572 0.0
H336 H 0.29915 0.96236 0.45342 0.0
H337 H 0.37513 0.02905 0.44367 0.0
H338 H 0.18323 0.0725 0.33453 0.0
H339 H 0.25628 0.14143 0.34735 0.0
H340 H 0.38601 0.97015 0.36512 0.0
H341 H 0.30829 0.90963 0.38323 0.0
H342 H 0.41886 0.94356 0.39406 0.0
H343 H 0.34249 0.88407 0.41183 0.0
H344 H 0.28586 0.94116 0.30252 0.0
H345 H 0.2754 0.04193 0.29524 0.0
H346 H 0.27343 0.93496 0.2621 0.0
H347 H 0.26328 0.03395 0.25493 0.0
H348 H 0.17485 0.92101 0.34624 0.0
H349 H 0.25083 0.85458 0.33587 0.0
H350 H 0.43624 0.0159 0.29755 0.0
H351 H 0.38255 0.93464 0.276 0.0
Li352 Li 0.00474 0.67267 0.66349 0.0
Li353 Li 0.97296 0.7191 0.65431 0.0
Li354 Li 0.00273 0.69027 0.62548 0.0
Li355 Li 0.03013 0.72284 0.65342 0.0
C356 C 0.95013 0.64993 0.65153 0.0
N357 N 0.91781 0.59892 0.66915 0.0
C358 C 0.92523 0.65481 0.66651 0.0
C359 C 0.95846 0.61916 0.64536 0.0
C360 C 0.90919 0.62869 0.67526 0.0
C361 C 0.94188 0.59367 0.65451 0.0
C362 C 0.01899 0.72774 0.69644 0.0
C363 C 0.03719 0.77461 0.71553 0.0
N364 N 0.05504 0.75628 0.72934 0.0
C365 C 0.03748 0.70936 0.71083 0.0
C366 C 0.01872 0.76062 0.69883 0.0
C367 C 0.05551 0.72423 0.72738 0.0
C368 C 0.03432 0.61838 0.68044 0.0
N369 N 0.00892 0.6376 0.68329 0.0
C370 C 0.99693 0.61327 0.71849 0.0
C371 C 0.9898 0.635 0.70155 0.0
C372 C 0.02422 0.59469 0.71656 0.0
C373 C 0.04244 0.59657 0.697 0.0
H374 H 0.04948 0.6214 0.66604 0.0
H375 H 0.97026 0.65118 0.70365 0.0
C376 C 0.91382 0.74463 0.64296 0.0
N377 N 0.93536 0.74246 0.65981 0.0
C378 C 0.88857 0.76567 0.64469 0.0
C379 C 0.90635 0.77945 0.682 0.0
C380 C 0.93168 0.75861 0.67935 0.0
C381 C 0.88517 0.78391 0.66417 0.0
H382 H 0.91713 0.73111 0.62775 0.0
H383 H 0.94896 0.75613 0.69257 0.0
C384 C 0.06025 0.66756 0.62725 0.0
N385 N 0.09789 0.64411 0.59326 0.0
C386 C 0.08536 0.68558 0.61897 0.0
C387 C 0.05444 0.63751 0.61838 0.0
C388 C 0.1041 0.67331 0.60176 0.0
C389 C 0.07368 0.62612 0.60114 0.0
C390 C 0.98341 0.7607 0.62121 0.0
C391 C 0.96744 0.75654 0.60088 0.0
C392 C 0.98123 0.78964 0.63246 0.0
C393 C 0.94958 0.78143 0.59215 0.0
C394 C 0.96323 0.81398 0.62312 0.0
N395 N 0.94788 0.80941 0.60334 0.0
C396 C 0.9826 0.65878 0.58554 0.0
C397 C 0.02359 0.69669 0.5815 0.0
C398 C 0.98135 0.65451 0.56229 0.0
N399 N 0.00329 0.67987 0.59454 0.0
C400 C 0.02332 0.69298 0.55829 0.0
C401 C 0.00164 0.67212 0.54849 0.0
H402 H 0.96641 0.64613 0.59632 0.0
H403 H 0.03922 0.71382 0.58913 0.0
C404 C 0.0902 0.74023 0.67122 0.0
N405 N 0.06581 0.7497 0.65793 0.0
C406 C 0.11663 0.75968 0.67402 0.0
C407 C 0.09258 0.79783 0.64908 0.0
C408 C 0.06668 0.77773 0.6468 0.0
C409 C 0.11783 0.78881 0.66282 0.0
H410 H 0.08924 0.71746 0.67943 0.0
H411 H 0.04749 0.7843 0.63584 0.0
O412 O 0.96647 0.67515 0.6431 0.0
O413 O 0.0016 0.71366 0.67987 0.0
O414 O 0.04127 0.67937 0.64381 0.0
O415 O 0.00102 0.73658 0.63007 0.0
H416 H 0.91854 0.6785 0.67147 0.0
H417 H 0.97772 0.61503 0.63379 0.0
H418 H 0.88995 0.63208 0.68695 0.0
H419 H 0.94819 0.56971 0.65001 0.0
H420 H 0.03742 0.80005 0.71746 0.0
H421 H 0.0382 0.68393 0.7091 0.0
H422 H 0.00475 0.77522 0.68771 0.0
H423 H 0.07001 0.7103 0.73859 0.0
H424 H 0.9828 0.61266 0.73363 0.0
H425 H 0.06388 0.58282 0.69526 0.0
H426 H 0.87247 0.76847 0.63071 0.0
H427 H 0.90414 0.79307 0.69731 0.0
H428 H 0.09017 0.7089 0.62558 0.0
H429 H 0.03502 0.62332 0.62455 0.0
H430 H 0.12352 0.68705 0.59511 0.0
H431 H 0.0693 0.60302 0.594 0.0
H432 H 0.9685 0.73428 0.59202 0.0
H433 H 0.99313 0.79319 0.64832 0.0
H434 H 0.93703 0.77849 0.57648 0.0
H435 H 0.96146 0.83653 0.63159 0.0
H436 H 0.96416 0.63847 0.5551 0.0
H437 H 0.03902 0.7071 0.548 0.0
H438 H 0.13602 0.75202 0.68454 0.0
H439 H 0.09311 0.82005 0.64004 0.0
Li440 Li 0.2772 0.02849 0.65049 0.0
Li441 Li 0.32522 0.00258 0.66409 0.0
Li442 Li 0.31096 1.00016 0.62436 0.0
Li443 Li 0.28126 0.97084 0.65302 0.0
C444 C 0.32223 0.06996 0.64289 0.0
N445 N 0.3208 0.13521 0.64535 0.0
C446 C 0.33624 0.08557 0.66101 0.0
C447 C 0.30759 0.08756 0.62598 0.0
C448 C 0.3353 0.11857 0.66194 0.0
C449 C 0.30704 0.12052 0.62756 0.0
C450 C 0.26235 0.98901 0.69247 0.0
C451 C 0.24969 0.94847 0.71948 0.0
N452 N 0.21962 0.95965 0.72064 0.0
C453 C 0.23136 1.0002 0.694 0.0
C454 C 0.27168 0.96306 0.7054 0.0
C455 C 0.21011 0.98501 0.70834 0.0
C456 C 0.22375 0.06603 0.64089 0.0
N457 N 0.24943 0.06349 0.65445 0.0
C458 C 0.23527 0.11096 0.6738 0.0
C459 C 0.25522 0.08495 0.67097 0.0
C460 C 0.20895 0.11428 0.65976 0.0
C461 C 0.20308 0.09147 0.64325 0.0
H462 H 0.21918 0.04819 0.62836 0.0
H463 H 0.27535 0.08187 0.68191 0.0
C464 C 0.38782 0.01816 0.67671 0.0
N465 N 0.35915 0.0087 0.68456 0.0
C466 C 0.41082 0.02928 0.69157 0.0
C467 C 0.37488 0.01917 0.7223 0.0
C468 C 0.35262 0.00825 0.70689 0.0
C469 C 0.40387 0.03079 0.71454 0.0
H470 H 0.39204 0.01903 0.65883 0.0
H471 H 0.32944 0.00127 0.71262 0.0
C472 C 0.25338 0.9911 0.60717 0.0
N473 N 0.23198 0.97893 0.56423 0.0
C474 C 0.24673 0.96009 0.60053 0.0
C475 C 0.24928 0.01589 0.59193 0.0
C476 C 0.23599 0.95443 0.57873 0.0
C477 C 0.23829 0.00926 0.57034 0.0
C478 C 0.35481 0.95337 0.6489 0.0
C479 C 0.3802 0.95912 0.63449 0.0
C480 C 0.35972 0.93684 0.6689 0.0
C481 C 0.41026 0.94837 0.64044 0.0
C482 C 0.39014 0.92655 0.67427 0.0
N483 N 0.41457 0.93248 0.66005 0.0
C484 C 0.3369 0.02599 0.58439 0.0
C485 C 0.32138 0.97219 0.58206 0.0
C486 C 0.34326 0.0267 0.5614 0.0
N487 N 0.32531 0.99926 0.59405 0.0
C488 C 0.32707 0.97194 0.559 0.0
C489 C 0.33738 0.99968 0.54841 0.0
H490 H 0.34027 0.04704 0.59436 0.0
H491 H 0.31257 0.95116 0.59028 0.0
C492 C 0.22427 0.9388 0.65659 0.0
N493 N 0.25599 0.93435 0.65817 0.0
C494 C 0.20364 0.91339 0.65913 0.0
C495 C 0.24864 0.87918 0.6652 0.0
C496 C 0.26851 0.90536 0.6625 0.0
C497 C 0.21586 0.88318 0.66325 0.0
H498 H 0.21507 0.96212 0.653 0.0
H499 H 0.29384 0.90253 0.66356 0.0
O500 O 0.32246 0.03763 0.64187 0.0
O501 O 0.28325 0.00295 0.67803 0.0
O502 O 0.26391 0.99717 0.62846 0.0
O503 O 0.32535 0.96419 0.64357 0.0
H504 H 0.34737 0.07238 0.67437 0.0
H505 H 0.29632 0.07586 0.61196 0.0
H506 H 0.34595 0.13093 0.67591 0.0
H507 H 0.29557 0.13441 0.61468 0.0
H508 H 0.25649 0.92819 0.72942 0.0
H509 H 0.22368 0.02016 0.68406 0.0
H510 H 0.2955 0.95395 0.70427 0.0
H511 H 0.18601 0.9933 0.70961 0.0
H512 H 0.24015 0.12815 0.68681 0.0
H513 H 0.18273 0.0934 0.63232 0.0
H514 H 0.4329 0.0385 0.68512 0.0
H515 H 0.36881 0.02042 0.73993 0.0
H516 H 0.25018 0.94053 0.61194 0.0
H517 H 0.25465 0.03999 0.59667 0.0
H518 H 0.23088 0.93054 0.57335 0.0
H519 H 0.23482 0.02824 0.55843 0.0
H520 H 0.37678 0.97195 0.61897 0.0
H521 H 0.34031 0.93236 0.68027 0.0
H522 H 0.43017 0.95274 0.6295 0.0
H523 H 0.39435 0.91391 0.68976 0.0
H524 H 0.35136 0.04841 0.55365 0.0
H525 H 0.32243 0.9507 0.54938 0.0
H526 H 0.17843 0.91711 0.6575 0.0
H527 H 0.25865 0.85604 0.66835 0.0
Li528 Li 0.99602 0.32264 0.66233 0.0
Li529 Li 0.02625 0.27753 0.65161 0.0
Li530 Li 0.99717 0.31037 0.62251 0.0
Li531 Li 0.96939 0.275 0.65032 0.0
C532 C 0.05108 0.3479 0.64718 0.0
N533 N 0.08686 0.40045 0.65775 0.0
C534 C 0.06632 0.34982 0.66792 0.0
C535 C 0.05419 0.37257 0.63172 0.0
C536 C 0.08422 0.37664 0.67298 0.0
C537 C 0.07238 0.39896 0.6374 0.0
C538 C 0.01328 0.26614 0.69357 0.0
C539 C 0.035 0.21879 0.71009 0.0
N540 N 0.04895 0.23662 0.72629 0.0
C541 C 0.02789 0.28399 0.71038 0.0
C542 C 0.01686 0.23326 0.69342 0.0
C543 C 0.04577 0.26862 0.72678 0.0
C544 C 0.97443 0.34956 0.70182 0.0
N545 N 0.99022 0.3573 0.68274 0.0
C546 C 0.98956 0.41211 0.6929 0.0
C547 C 0.99769 0.38793 0.67797 0.0
C548 C 0.97266 0.40461 0.71241 0.0
C549 C 0.96544 0.37294 0.71697 0.0
H550 H 0.96784 0.32524 0.70488 0.0
H551 H 0.00885 0.39385 0.66226 0.0
C552 C 0.06747 0.2284 0.64034 0.0
N553 N 0.06378 0.25268 0.65507 0.0
C554 C 0.09308 0.2079 0.64226 0.0
C555 C 0.11144 0.23823 0.67408 0.0
C556 C 0.08551 0.25837 0.67143 0.0
C557 C 0.1151 0.21257 0.65944 0.0
H558 H 0.05038 0.22475 0.62717 0.0
H559 H 0.08244 0.27808 0.68271 0.0
C560 C 0.93963 0.34196 0.64737 0.0
N561 N 0.89914 0.38924 0.66119 0.0
C562 C 0.91663 0.33566 0.66358 0.0
C563 C 0.9421 0.37226 0.63819 0.0
C564 C 0.89641 0.35992 0.67038 0.0
C565 C 0.92138 0.39586 0.6454 0.0
C566 C 0.98375 0.23886 0.61611 0.0
C567 C 0.96643 0.24408 0.59649 0.0
C568 C 0.98419 0.2087 0.62572 0.0
C569 C 0.94982 0.21901 0.58681 0.0
C570 C 0.96721 0.18426 0.61555 0.0
N571 N 0.95056 0.18987 0.59645 0.0
C572 C 0.02434 0.31919 0.58039 0.0
C573 C 0.97047 0.33448 0.58259 0.0
C574 C 0.02438 0.32388 0.55722 0.0
N575 N 0.9975 0.32398 0.5924 0.0
C576 C 0.96945 0.33945 0.55944 0.0
C577 C 0.99647 0.33339 0.54655 0.0
H578 H 0.04528 0.31038 0.5887 0.0
H579 H 0.94934 0.33743 0.59255 0.0
C580 C 0.93196 0.22539 0.66878 0.0
N581 N 0.93287 0.24892 0.65324 0.0
C582 C 0.90619 0.20483 0.66967 0.0
C583 C 0.88204 0.23407 0.63931 0.0
C584 C 0.90847 0.25383 0.63881 0.0
C585 C 0.88106 0.20892 0.65463 0.0
H586 H 0.95145 0.22221 0.6802 0.0
H587 H 0.90987 0.27277 0.62665 0.0
O588 O 0.0335 0.32188 0.64184 0.0
O589 O 0.99568 0.28077 0.67732 0.0
O590 O 0.9597 0.31856 0.64057 0.0
O591 O 0.9999 0.2632 0.626 0.0
H592 H 0.06395 0.33103 0.6801 0.0
H593 H 0.04258 0.37137 0.61557 0.0
H594 H 0.09597 0.37856 0.68904 0.0
H595 H 0.07493 0.41829 0.62565 0.0
H596 H 0.03813 0.19341 0.71007 0.0
H597 H 0.02578 0.30945 0.71067 0.0
H598 H 0.00634 0.21909 0.68032 0.0
H599 H 0.05726 0.28215 0.73984 0.0
H600 H 0.99521 0.43645 0.68889 0.0
H601 H 0.95222 0.36647 0.73185 0.0
H602 H 0.09548 0.18832 0.63066 0.0
H603 H 0.12823 0.24239 0.68746 0.0
H604 H 0.91458 0.31234 0.67092 0.0
H605 H 0.95996 0.37751 0.62574 0.0
H606 H 0.87855 0.35546 0.68296 0.0
H607 H 0.92304 0.41946 0.6385 0.0
H608 H 0.96569 0.26723 0.58885 0.0
H609 H 0.9973 0.20426 0.64097 0.0
H610 H 0.9363 0.22274 0.57164 0.0
H611 H 0.96722 0.16085 0.62286 0.0
H612 H 0.04548 0.31881 0.5476 0.0
H613 H 0.94753 0.34652 0.55153 0.0
H614 H 0.90603 0.18564 0.68171 0.0
H615 H 0.86295 0.23779 0.6275 0.0
Li616 Li 0.71778 0.02493 0.64999 0.0
Li617 Li 0.68758 0.9949 0.62196 0.0
Li618 Li 0.67393 0.99324 0.66173 0.0
Li619 Li 0.72179 0.96732 0.64802 0.0
C620 C 0.64421 0.04232 0.64634 0.0
N621 N 0.58477 0.06373 0.65783 0.0
C622 C 0.61827 0.03513 0.63277 0.0
C623 C 0.64001 0.06058 0.66564 0.0
C624 C 0.58838 0.04616 0.63889 0.0
C625 C 0.60974 0.07111 0.6712 0.0
C626 C 0.74458 0.00487 0.60409 0.0
C627 C 0.75769 0.98795 0.56657 0.0
N628 N 0.76525 0.01824 0.56112 0.0
C629 C 0.75242 0.03587 0.59808 0.0
C630 C 0.74697 0.98074 0.58814 0.0
C631 C 0.76277 0.04215 0.57628 0.0
C632 C 0.77483 0.05625 0.65522 0.0
N633 N 0.74319 0.0615 0.65433 0.0
C634 C 0.75131 0.11742 0.65556 0.0
C635 C 0.73106 0.09128 0.65466 0.0
C636 C 0.78409 0.11251 0.65622 0.0
C637 C 0.79582 0.08155 0.65637 0.0
H638 H 0.78378 0.03234 0.65434 0.0
H639 H 0.7058 0.09471 0.65355 0.0
C640 C 0.66012 0.96883 0.58257 0.0
N641 N 0.67232 0.9955 0.59193 0.0
C642 C 0.65276 0.96812 0.55973 0.0
C643 C 0.66933 0.02274 0.55689 0.0
C644 C 0.67602 0.0225 0.57981 0.0
C645 C 0.6583 0.99507 0.54659 0.0
H646 H 0.65701 0.94785 0.59267 0.0
H647 H 0.68541 0.04346 0.58779 0.0
C648 C 0.7359 0.00781 0.69026 0.0
N649 N 0.77641 0.03778 0.71974 0.0
C650 C 0.76652 0.99632 0.69343 0.0
C651 C 0.7258 0.0344 0.7022 0.0
C652 C 0.78665 0.01182 0.7084 0.0
C653 C 0.74667 0.04928 0.71697 0.0
C654 C 0.678 0.92548 0.64222 0.0
C655 C 0.66725 0.91104 0.66188 0.0
C656 C 0.69115 0.90697 0.62517 0.0
C657 C 0.66981 0.87827 0.66417 0.0
C658 C 0.69341 0.87428 0.62815 0.0
N659 N 0.68277 0.86072 0.64741 0.0
C660 C 0.61188 0.9766 0.67443 0.0
C661 C 0.64622 0.98886 0.70467 0.0
C662 C 0.58903 0.96523 0.6893 0.0
N663 N 0.64007 0.98735 0.68231 0.0
C664 C 0.62409 0.9777 0.72011 0.0
C665 C 0.59566 0.96476 0.71234 0.0
H666 H 0.608 0.97486 0.65654 0.0
H667 H 0.66907 0.99676 0.71044 0.0
C668 C 0.77172 0.92601 0.63643 0.0
N669 N 0.74968 0.93249 0.65234 0.0
C670 C 0.79269 0.90094 0.63935 0.0
C671 C 0.76835 0.88996 0.67523 0.0
C672 C 0.74763 0.91514 0.67152 0.0
C673 C 0.79114 0.88274 0.65896 0.0
H674 H 0.77333 0.94053 0.62161 0.0
H675 H 0.73012 0.92114 0.68402 0.0
O676 O 0.67352 0.03121 0.64089 0.0
O677 O 0.73473 0.99815 0.62546 0.0
O678 O 0.71602 0.99336 0.67534 0.0
O679 O 0.67648 0.95764 0.6399 0.0
H680 H 0.62114 0.02095 0.6178 0.0
H681 H 0.65988 0.06634 0.6763 0.0
H682 H 0.56805 0.04066 0.62861 0.0
H683 H 0.60609 0.08512 0.68616 0.0
H684 H 0.75997 0.96944 0.55416 0.0
H685 H 0.75032 0.055 0.60999 0.0
H686 H 0.74036 0.95673 0.59228 0.0
H687 H 0.76885 0.06603 0.57141 0.0
H688 H 0.74166 0.14113 0.65521 0.0
H689 H 0.82101 0.07709 0.65667 0.0
H690 H 0.64418 0.94645 0.55219 0.0
H691 H 0.67378 0.04389 0.54713 0.0
H692 H 0.77483 0.97591 0.68424 0.0
H693 H 0.70224 0.0437 0.69985 0.0
H694 H 0.81047 0.00329 0.71093 0.0
H695 H 0.73925 0.07002 0.72619 0.0
H696 H 0.65744 0.92499 0.67538 0.0
H697 H 0.70005 0.9178 0.60999 0.0
H698 H 0.66167 0.8668 0.67934 0.0
H699 H 0.70376 0.8597 0.61518 0.0
H700 H 0.56741 0.95497 0.68286 0.0
H701 H 0.62993 0.97725 0.7378 0.0
H702 H 0.81029 0.89608 0.62662 0.0
H703 H 0.76685 0.87647 0.69063 0.0
Li704 Li 0.53623 0.77152 0.85017 0.0
Li705 Li 0.50893 0.80698 0.87629 0.0
Li706 Li 0.47911 0.77482 0.84931 0.0
Li707 Li 0.511 0.82032 0.83731 0.0
C708 C 0.48927 0.73794 0.88493 0.0
N709 N 0.4543 0.69239 0.90705 0.0
C710 C 0.47225 0.74579 0.90425 0.0
C711 C 0.48801 0.70703 0.87665 0.0
C712 C 0.45477 0.72242 0.9152 0.0
C713 C 0.47036 0.68431 0.88814 0.0
C714 C 0.56631 0.82956 0.87322 0.0
C715 C 0.57992 0.87414 0.89653 0.0
N716 N 0.60389 0.85707 0.9057 0.0
C717 C 0.59117 0.8125 0.88278 0.0
C718 C 0.56072 0.86069 0.88003 0.0
C719 C 0.60988 0.82682 0.8992 0.0
C720 C 0.59634 0.75414 0.83323 0.0
N721 N 0.57216 0.74484 0.84676 0.0
C722 C 0.59904 0.6969 0.85581 0.0
C723 C 0.57324 0.71708 0.85822 0.0
C724 C 0.62401 0.70565 0.84169 0.0
C725 C 0.62273 0.73471 0.8304 0.0
H726 H 0.59507 0.77664 0.82465 0.0
H727 H 0.5542 0.71068 0.86934 0.0
C728 C 0.48887 0.84297 0.91432 0.0
N729 N 0.50951 0.82091 0.90654 0.0
C730 C 0.48733 0.84955 0.93729 0.0
C731 C 0.52902 0.81139 0.94349 0.0
C732 C 0.52957 0.80538 0.92052 0.0
C733 C 0.50729 0.83323 0.95207 0.0
H734 H 0.47282 0.85451 0.90283 0.0
H735 H 0.54513 0.7874 0.91389 0.0
C736 C 0.52541 0.76228 0.80746 0.0
N737 N 0.56235 0.73143 0.77612 0.0
C738 C 0.54239 0.7796 0.79153 0.0
C739 C 0.52711 0.72925 0.80738 0.0
C740 C 0.56091 0.76357 0.77582 0.0
C741 C 0.54599 0.71411 0.79144 0.0
C742 C 0.45625 0.84437 0.84834 0.0
C743 C 0.43095 0.83802 0.83398 0.0
C744 C 0.46472 0.87568 0.85286 0.0
C745 C 0.41463 0.86321 0.8242 0.0
C746 C 0.44787 0.9002 0.84269 0.0
N747 N 0.42339 0.89351 0.82869 0.0
C748 C 0.41734 0.75581 0.86068 0.0
C749 C 0.43969 0.72728 0.83033 0.0
C750 C 0.39077 0.73619 0.86061 0.0
N751 N 0.4413 0.75071 0.84591 0.0
C752 C 0.41366 0.70698 0.82975 0.0
C753 C 0.38913 0.71109 0.84528 0.0
H754 H 0.41938 0.77452 0.87297 0.0
H755 H 0.45901 0.72377 0.81878 0.0
C756 C 0.54307 0.87072 0.81744 0.0
N757 N 0.51605 0.85348 0.81593 0.0
C758 C 0.5515 0.89149 0.80031 0.0
C759 C 0.50334 0.87772 0.7808 0.0
C760 C 0.49596 0.85686 0.79825 0.0
C761 C 0.53191 0.89448 0.78153 0.0
H762 H 0.55898 0.8671 0.83135 0.0
H763 H 0.47511 0.84218 0.79713 0.0
O764 O 0.50729 0.76027 0.8743 0.0
O765 O 0.54733 0.81577 0.85743 0.0
O766 O 0.50756 0.77756 0.82324 0.0
O767 O 0.47275 0.82006 0.85785 0.0
H768 H 0.47243 0.76964 0.91074 0.0
H769 H 0.50039 0.70067 0.86143 0.0
H770 H 0.44159 0.72815 0.93021 0.0
H771 H 0.46927 0.66029 0.88196 0.0
H772 H 0.57572 0.89813 0.90208 0.0
H773 H 0.59578 0.78835 0.87778 0.0
H774 H 0.54153 0.87418 0.87282 0.0
H775 H 0.62909 0.81386 0.90683 0.0
H776 H 0.59962 0.67475 0.86493 0.0
H777 H 0.64187 0.74217 0.81958 0.0
H778 H 0.47008 0.86627 0.94354 0.0
H779 H 0.54443 0.7982 0.95457 0.0
H780 H 0.54153 0.80513 0.79135 0.0
H781 H 0.51458 0.71547 0.81981 0.0
H782 H 0.57424 0.77669 0.76344 0.0
H783 H 0.54778 0.68859 0.79134 0.0
H784 H 0.42415 0.8139 0.83028 0.0
H785 H 0.48427 0.88095 0.86393 0.0
H786 H 0.39508 0.85867 0.81297 0.0
H787 H 0.45428 0.92455 0.84592 0.0
H788 H 0.37218 0.73988 0.87281 0.0
H789 H 0.41301 0.68779 0.81773 0.0
H790 H 0.57384 0.90395 0.80119 0.0
H791 H 0.48798 0.87934 0.76631 0.0
Li792 Li 0.17201 0.50308 0.83532 0.0
Li793 Li 0.21869 0.53187 0.84844 0.0
Li794 Li 0.21768 0.47449 0.84479 0.0
Li795 Li 0.18597 0.50026 0.87452 0.0
C796 C 0.23132 0.49321 0.80386 0.0
N797 N 0.26761 0.4649 0.77093 0.0
C798 C 0.25827 0.50839 0.79563 0.0
C799 C 0.22241 0.464 0.79487 0.0
C800 C 0.2764 0.49362 0.77909 0.0
C801 C 0.24119 0.44995 0.77839 0.0
C802 C 0.1615 0.56578 0.8491 0.0
C803 C 0.12875 0.61214 0.85269 0.0
N804 N 0.13798 0.62169 0.83191 0.0
C805 C 0.17034 0.57583 0.82764 0.0
C806 C 0.14044 0.58398 0.8617 0.0
C807 C 0.15844 0.60433 0.81936 0.0
C808 C 0.1091 0.51881 0.8235 0.0
N809 N 0.13686 0.50731 0.81538 0.0
C810 C 0.11837 0.51239 0.7777 0.0
C811 C 0.14149 0.50307 0.79302 0.0
C812 C 0.09053 0.5264 0.78558 0.0
C813 C 0.08539 0.5286 0.80876 0.0
H814 H 0.10621 0.52234 0.84135 0.0
H815 H 0.16388 0.49437 0.78697 0.0
C816 C 0.27713 0.561 0.84241 0.0
N817 N 0.24648 0.56767 0.84731 0.0
C818 C 0.29967 0.58507 0.84181 0.0
C819 C 0.25903 0.62244 0.85219 0.0
C820 C 0.23725 0.59761 0.85262 0.0
C821 C 0.29055 0.61616 0.84664 0.0
H822 H 0.28413 0.53681 0.83928 0.0
H823 H 0.21324 0.60228 0.85765 0.0
C824 C 0.14499 0.45226 0.84936 0.0
N825 N 0.08582 0.42971 0.83801 0.0
C826 C 0.11881 0.45966 0.86263 0.0
C827 C 0.14112 0.43308 0.83045 0.0
C828 C 0.08908 0.44809 0.85659 0.0
C829 C 0.11101 0.42201 0.82495 0.0
C830 C 0.24929 0.51507 0.88693 0.0
C831 C 0.27947 0.50449 0.89269 0.0
C832 C 0.23648 0.54137 0.89784 0.0
C833 C 0.29632 0.52034 0.90942 0.0
C834 C 0.25408 0.55658 0.91447 0.0
N835 N 0.28338 0.54584 0.91987 0.0
C836 C 0.27669 0.44655 0.83902 0.0
C837 C 0.23443 0.40965 0.8383 0.0
C838 C 0.29873 0.42222 0.8371 0.0
N839 N 0.2453 0.43984 0.83979 0.0
C840 C 0.2557 0.38454 0.83624 0.0
C841 C 0.28824 0.39083 0.83599 0.0
H842 H 0.28454 0.47083 0.84034 0.0
H843 H 0.20935 0.40505 0.83916 0.0
C844 C 0.14676 0.51202 0.91265 0.0
N845 N 0.17333 0.49746 0.90506 0.0
C846 C 0.13956 0.5118 0.93556 0.0
C847 C 0.18737 0.48197 0.94225 0.0
C848 C 0.1931 0.48192 0.91923 0.0
C849 C 0.16057 0.4974 0.95067 0.0
H850 H 0.13148 0.52423 0.90098 0.0
H851 H 0.21392 0.47032 0.91271 0.0
O852 O 0.21353 0.50706 0.82036 0.0
O853 O 0.17346 0.53841 0.85791 0.0
O854 O 0.17413 0.46408 0.85471 0.0
O855 O 0.23278 0.50024 0.87024 0.0
H856 H 0.26496 0.53148 0.80173 0.0
H857 H 0.20146 0.45209 0.80081 0.0
H858 H 0.29741 0.50506 0.77269 0.0
H859 H 0.23476 0.42714 0.77155 0.0
H860 H 0.11244 0.62647 0.86226 0.0
H861 H 0.18656 0.56209 0.81761 0.0
H862 H 0.13332 0.57648 0.87831 0.0
H863 H 0.16535 0.61258 0.8029 0.0
H864 H 0.12315 0.51092 0.75988 0.0
H865 H 0.06432 0.53983 0.81528 0.0
H866 H 0.32402 0.57948 0.83791 0.0
H867 H 0.25154 0.64617 0.85647 0.0
H868 H 0.12133 0.47446 0.87728 0.0
H869 H 0.16108 0.42688 0.82007 0.0
H870 H 0.06859 0.45383 0.86663 0.0
H871 H 0.10766 0.40732 0.81029 0.0
H872 H 0.28977 0.48427 0.8843 0.0
H873 H 0.21327 0.5501 0.89343 0.0
H874 H 0.31971 0.51241 0.91407 0.0
H875 H 0.24447 0.57696 0.92304 0.0
H876 H 0.32372 0.42772 0.83699 0.0
H877 H 0.247 0.36047 0.83546 0.0
H878 H 0.11855 0.52371 0.94154 0.0
H879 H 0.20396 0.47049 0.95344 0.0
Li880 Li 0.47259 0.22805 0.84727 0.0
Li881 Li 0.49911 0.19352 0.87446 0.0
Li882 Li 0.52945 0.22171 0.84558 0.0
Li883 Li 0.49502 0.17697 0.83622 0.0
C884 C 0.5216 0.26302 0.87941 0.0
N885 N 0.55936 0.30983 0.89756 0.0
C886 C 0.53774 0.25772 0.89953 0.0
C887 C 0.52476 0.29213 0.8685 0.0
C888 C 0.55673 0.28167 0.90841 0.0
C889 C 0.54388 0.31551 0.87798 0.0
C890 C 0.44065 0.17362 0.87332 0.0
C891 C 0.42562 0.13178 0.89866 0.0
N892 N 0.4032 0.15096 0.9077 0.0
C893 C 0.41737 0.19288 0.88278 0.0
C894 C 0.44472 0.14276 0.88121 0.0
C895 C 0.39869 0.18099 0.90017 0.0
C896 C 0.41299 0.2474 0.83039 0.0
N897 N 0.43802 0.25633 0.84324 0.0
C898 C 0.41327 0.30563 0.85173 0.0
C899 C 0.43849 0.28468 0.85398 0.0
C900 C 0.38735 0.29712 0.83844 0.0
C901 C 0.38721 0.26767 0.82766 0.0
H902 H 0.41297 0.22441 0.82244 0.0
H903 H 0.45821 0.29085 0.86457 0.0
C904 C 0.51824 0.15873 0.91323 0.0
N905 N 0.49902 0.18191 0.90523 0.0
C906 C 0.52002 0.15306 0.9363 0.0
C907 C 0.48164 0.19463 0.94223 0.0
C908 C 0.48071 0.19958 0.91914 0.0
C909 C 0.50183 0.17148 0.95099 0.0
H910 H 0.53285 0.14538 0.90177 0.0
H911 H 0.46617 0.21826 0.9123 0.0
C912 C 0.48299 0.23346 0.8041 0.0
N913 N 0.44782 0.26458 0.7719 0.0
C914 C 0.46365 0.21635 0.78947 0.0
C915 C 0.48462 0.26638 0.80225 0.0
C916 C 0.44606 0.23252 0.7733 0.0
C917 C 0.46656 0.28169 0.78592 0.0
C918 C 0.54921 0.15148 0.84725 0.0
C919 C 0.57476 0.15571 0.83271 0.0
C920 C 0.5392 0.12093 0.85269 0.0
C921 C 0.58974 0.12918 0.82367 0.0
C922 C 0.55476 0.09502 0.84326 0.0
N923 N 0.57948 0.09964 0.82906 0.0
C924 C 0.58969 0.24518 0.85658 0.0
C925 C 0.5718 0.25982 0.82033 0.0
C926 C 0.61538 0.26572 0.85481 0.0
N927 N 0.5679 0.24366 0.83986 0.0
C928 C 0.5976 0.28008 0.81762 0.0
C929 C 0.61899 0.28407 0.83538 0.0
H930 H 0.58622 0.23165 0.87177 0.0
H931 H 0.55429 0.25788 0.80722 0.0
C932 C 0.46031 0.12672 0.81826 0.0
N933 N 0.48798 0.14274 0.81609 0.0
C934 C 0.45073 0.10552 0.8017 0.0
C935 C 0.49911 0.11633 0.78151 0.0
C936 C 0.50761 0.13769 0.79837 0.0
C937 C 0.46987 0.10085 0.78285 0.0
H938 H 0.44482 0.13171 0.83221 0.0
H939 H 0.529 0.15147 0.79672 0.0
O940 O 0.50285 0.23986 0.87044 0.0
O941 O 0.45961 0.18502 0.8566 0.0
O942 O 0.49993 0.21814 0.82033 0.0
O943 O 0.53402 0.17713 0.85606 0.0
H944 H 0.53596 0.23528 0.90811 0.0
H945 H 0.51279 0.29654 0.85278 0.0
H946 H 0.56942 0.27783 0.92393 0.0
H947 H 0.54642 0.33818 0.86977 0.0
H948 H 0.42867 0.10803 0.90505 0.0
H949 H 0.41396 0.21685 0.87693 0.0
H950 H 0.4627 0.12759 0.8741 0.0
H951 H 0.38069 0.19567 0.90773 0.0
H952 H 0.41377 0.3281 0.86045 0.0
H953 H 0.36729 0.26039 0.81749 0.0
H954 H 0.53602 0.13522 0.94269 0.0
H955 H 0.46758 0.20937 0.95323 0.0
H956 H 0.46197 0.19089 0.79069 0.0
H957 H 0.49933 0.28 0.81353 0.0
H958 H 0.4309 0.21959 0.76193 0.0
H959 H 0.46737 0.30717 0.78443 0.0
H960 H 0.58278 0.17922 0.82834 0.0
H961 H 0.51945 0.1173 0.86392 0.0
H962 H 0.60946 0.13207 0.81231 0.0
H963 H 0.54714 0.07123 0.84719 0.0
H964 H 0.63162 0.26812 0.86875 0.0
H965 H 0.59995 0.29377 0.80234 0.0
H966 H 0.42791 0.09407 0.80302 0.0
H967 H 0.51414 0.11342 0.76696 0.0
Li968 Li 0.78719 0.52396 0.84738 0.0
Li969 Li 0.81733 0.49499 0.87526 0.0
Li970 Li 0.83128 0.49123 0.83562 0.0
Li971 Li 0.78427 0.46634 0.85019 0.0
C972 C 0.86276 0.53793 0.86057 0.0
N973 N 0.92418 0.55386 0.87149 0.0
C974 C 0.88417 0.5145 0.86712 0.0
C975 C 0.87258 0.56946 0.85967 0.0
C976 C 0.91512 0.52304 0.87255 0.0
C977 C 0.90374 0.57703 0.86521 0.0
C978 C 0.76057 0.50766 0.8931 0.0
C979 C 0.7456 0.49603 0.93132 0.0
N980 N 0.74053 0.52735 0.93503 0.0
C981 C 0.75514 0.53975 0.89734 0.0
C982 C 0.75577 0.48562 0.91029 0.0
C983 C 0.74508 0.54921 0.91862 0.0
C984 C 0.73071 0.55479 0.83939 0.0
N985 N 0.76227 0.56003 0.84118 0.0
C986 C 0.75463 0.61584 0.83822 0.0
C987 C 0.77463 0.5897 0.8403 0.0
C988 C 0.72185 0.61106 0.83728 0.0
C989 C 0.7099 0.58016 0.83746 0.0
H990 H 0.7217 0.53088 0.84029 0.0
H991 H 0.79984 0.59306 0.84187 0.0
C992 C 0.84526 0.47094 0.91522 0.0
N993 N 0.83275 0.49706 0.90531 0.0
C994 C 0.85184 0.47098 0.93817 0.0
C995 C 0.83441 0.5254 0.93994 0.0
C996 C 0.82869 0.52445 0.9169 0.0
C997 C 0.84514 0.49809 0.95085 0.0
H998 H 0.8491 0.44974 0.90551 0.0
H999 H 0.81956 0.54512 0.90844 0.0
C1000 C 0.78876 0.50743 0.80249 0.0
N1001 N 0.7901 0.5375 0.76136 0.0
C1002 C 0.77141 0.49533 0.7845 0.0
C1003 C 0.80684 0.5348 0.79957 0.0
C1004 C 0.77238 0.51088 0.76383 0.0
C1005 C 0.80719 0.54966 0.77864 0.0
C1006 C 0.82622 0.42459 0.86087 0.0
C1007 C 0.84028 0.40385 0.84558 0.0
C1008 C 0.80877 0.41237 0.8788 0.0
C1009 C 0.83601 0.37129 0.84819 0.0
C1010 C 0.80499 0.37968 0.88082 0.0
N1011 N 0.81853 0.35998 0.86558 0.0
C1012 C 0.88837 0.50514 0.80989 0.0
C1013 C 0.85745 0.46064 0.79966 0.0
C1014 C 0.91028 0.49825 0.793 0.0
N1015 N 0.86293 0.48593 0.81316 0.0
C1016 C 0.87871 0.45281 0.78275 0.0
C1017 C 0.90565 0.47147 0.77952 0.0
H1018 H 0.89175 0.5258 0.82023 0.0
H1019 H 0.83647 0.44646 0.80215 0.0
C1020 C 0.73345 0.42628 0.86185 0.0
N1021 N 0.75616 0.43161 0.84619 0.0
C1022 C 0.71226 0.40131 0.85923 0.0
C1023 C 0.73778 0.38809 0.82415 0.0
C1024 C 0.75876 0.41318 0.82758 0.0
C1025 C 0.71424 0.38205 0.84015 0.0
H1026 H 0.73161 0.44157 0.87627 0.0
H1027 H 0.77697 0.41817 0.81535 0.0
O1028 O 0.8322 0.53037 0.85532 0.0
O1029 O 0.77037 0.49786 0.8723 0.0
O1030 O 0.78828 0.49216 0.82272 0.0
O1031 O 0.82933 0.45663 0.85826 0.0
H1032 H 0.87716 0.48998 0.86795 0.0
H1033 H 0.85631 0.5879 0.85471 0.0
H1034 H 0.93193 0.50515 0.87761 0.0
H1035 H 0.91167 0.60134 0.86454 0.0
H1036 H 0.74173 0.47921 0.94471 0.0
H1037 H 0.7591 0.55733 0.88454 0.0
H1038 H 0.75998 0.46074 0.90753 0.0
H1039 H 0.74096 0.57398 0.9221 0.0
H1040 H 0.76443 0.6395 0.83811 0.0
H1041 H 0.6847 0.57583 0.83678 0.0
H1042 H 0.86042 0.44965 0.94617 0.0
H1043 H 0.82929 0.54674 0.94929 0.0
H1044 H 0.75741 0.47408 0.7865 0.0
H1045 H 0.82058 0.54444 0.81324 0.0
H1046 H 0.75907 0.50178 0.74975 0.0
H1047 H 0.8211 0.57084 0.77614 0.0
H1048 H 0.85447 0.41271 0.83191 0.0
H1049 H 0.79784 0.42802 0.89082 0.0
H1050 H 0.84662 0.35501 0.83641 0.0
H1051 H 0.7912 0.36998 0.89446 0.0
H1052 H 0.93064 0.51337 0.79056 0.0
H1053 H 0.87428 0.43229 0.77233 0.0
H1054 H 0.69415 0.39734 0.87176 0.0
H1055 H 0.73968 0.37373 0.80917 0.0
Li1056 Li 0.47639 0.22438 0.1513 0.0
Li1057 Li 0.505 0.17746 0.16415 0.0
Li1058 Li 0.53346 0.22618 0.15159 0.0
Li1059 Li 0.50759 0.19122 0.12399 0.0
C1060 C 0.4878 0.23463 0.19429 0.0
N1061 N 0.45186 0.26313 0.22726 0.0
C1062 C 0.47252 0.2162 0.21045 0.0
C1063 C 0.48504 0.26756 0.195 0.0
C1064 C 0.45444 0.23106 0.22698 0.0
C1065 C 0.46665 0.28151 0.21175 0.0
C1066 C 0.45057 0.15369 0.14152 0.0
C1067 C 0.43876 0.10123 0.12803 0.0
N1068 N 0.41141 0.10144 0.14 0.0
C1069 C 0.42213 0.15358 0.15342 0.0
C1070 C 0.45878 0.12749 0.12848 0.0
C1071 C 0.40274 0.12686 0.15254 0.0
C1072 C 0.4365 0.27416 0.13917 0.0
N1073 N 0.43921 0.24981 0.15395 0.0
C1074 C 0.39074 0.26465 0.17172 0.0
C1075 C 0.41676 0.24444 0.16986 0.0
C1076 C 0.38805 0.29042 0.15704 0.0
C1077 C 0.41107 0.29496 0.1405 0.0
H1078 H 0.45417 0.27756 0.12636 0.0
H1079 H 0.41924 0.22478 0.18129 0.0
C1080 C 0.53747 0.14114 0.1944 0.0
N1081 N 0.50805 0.14395 0.18552 0.0
C1082 C 0.5436 0.11869 0.21092 0.0
C1083 C 0.48896 0.10223 0.2091 0.0
C1084 C 0.48387 0.12506 0.19246 0.0
C1085 C 0.51916 0.09909 0.21848 0.0
H1086 H 0.55612 0.15674 0.18881 0.0
H1087 H 0.46055 0.12806 0.18553 0.0
C1088 C 0.5197 0.26316 0.11696 0.0
N1089 N 0.55054 0.31392 0.09763 0.0
C1090 C 0.53544 0.2595 0.09651 0.0
C1091 C 0.51949 0.29269 0.1275 0.0
C1092 C 0.55096 0.28543 0.08704 0.0
C1093 C 0.53522 0.31805 0.11746 0.0
C1094 C 0.56109 0.15599 0.13846 0.0
C1095 C 0.59289 0.16009 0.13287 0.0
C1096 C 0.54792 0.1257 0.13816 0.0
C1097 C 0.61088 0.13379 0.12674 0.0
C1098 C 0.56669 0.09999 0.13198 0.0
N1099 N 0.59752 0.10454 0.12641 0.0
C1100 C 0.57169 0.27 0.1753 0.0
C1101 C 0.59114 0.2552 0.13949 0.0
C1102 C 0.59624 0.29177 0.17793 0.0
N1103 N 0.56931 0.2527 0.15614 0.0
C1104 C 0.61588 0.27688 0.14131 0.0
C1105 C 0.61825 0.29567 0.16059 0.0
H1106 H 0.55415 0.26738 0.18833 0.0
H1107 H 0.58874 0.24102 0.12449 0.0
C1108 C 0.48064 0.1799 0.08232 0.0
N1109 N 0.50832 0.17727 0.09373 0.0
C1110 C 0.47983 0.17516 0.05917 0.0
C1111 C 0.53583 0.16386 0.06004 0.0
C1112 C 0.53559 0.16897 0.08319 0.0
C1113 C 0.50782 0.16776 0.0478 0.0
H1114 H 0.45947 0.18705 0.09112 0.0
H1115 H 0.55745 0.16791 0.09247 0.0
O1116 O 0.50534 0.22049 0.17785 0.0
O1117 O 0.46965 0.1798 0.142 0.0
O1118 O 0.5045 0.23799 0.12657 0.0
O1119 O 0.54321 0.18155 0.1445 0.0
H1120 H 0.47445 0.1907 0.21017 0.0
H1121 H 0.49666 0.28216 0.1826 0.0
H1122 H 0.44239 0.2171 0.23955 0.0
H1123 H 0.46408 0.30695 0.21239 0.0
H1124 H 0.4449 0.08073 0.11809 0.0
H1125 H 0.41524 0.17377 0.16339 0.0
H1126 H 0.48023 0.12747 0.11864 0.0
H1127 H 0.3808 0.12634 0.16183 0.0
H1128 H 0.37314 0.26048 0.18457 0.0
H1129 H 0.40941 0.3145 0.1288 0.0
H1130 H 0.56708 0.117 0.21805 0.0
H1131 H 0.46956 0.08765 0.21489 0.0
H1132 H 0.53579 0.23689 0.08806 0.0
H1133 H 0.50744 0.29594 0.14333 0.0
H1134 H 0.56334 0.2829 0.07127 0.0
H1135 H 0.53525 0.34102 0.12545 0.0
H1136 H 0.60351 0.18337 0.13318 0.0
H1137 H 0.52358 0.122 0.14289 0.0
H1138 H 0.63548 0.13663 0.12227 0.0
H1139 H 0.55678 0.07641 0.13167 0.0
H1140 H 0.59756 0.30606 0.19298 0.0
H1141 H 0.63257 0.27948 0.12766 0.0
H1142 H 0.45793 0.17855 0.05008 0.0
H1143 H 0.55784 0.15846 0.05161 0.0
Li1144 Li 0.77778 0.53596 0.14895 0.0
Li1145 Li 0.82664 0.5096 0.16276 0.0
Li1146 Li 0.8127 0.50541 0.12297 0.0
Li1147 Li 0.78373 0.47784 0.15082 0.0
C1148 C 0.8451 0.55755 0.12729 0.0
N1149 N 0.89061 0.5807 0.0984 0.0
C1150 C 0.87644 0.54756 0.12926 0.0
C1151 C 0.83688 0.57922 0.11057 0.0
C1152 C 0.89911 0.55959 0.11453 0.0
C1153 C 0.86024 0.59065 0.09614 0.0
C1154 C 0.78793 0.51609 0.19752 0.0
C1155 C 0.80075 0.50085 0.23542 0.0
N1156 N 0.79995 0.53177 0.24169 0.0
C1157 C 0.78702 0.5477 0.20436 0.0
C1158 C 0.79468 0.49244 0.21317 0.0
C1159 C 0.79326 0.55515 0.22676 0.0
C1160 C 0.72034 0.56523 0.1598 0.0
N1161 N 0.75001 0.57082 0.15204 0.0
C1162 C 0.73871 0.62587 0.14775 0.0
C1163 C 0.75969 0.60045 0.14639 0.0
C1164 C 0.70772 0.6205 0.15508 0.0
C1165 C 0.69858 0.58991 0.16138 0.0
H1166 H 0.71355 0.54151 0.16458 0.0
H1167 H 0.7836 0.60428 0.14068 0.0
C1168 C 0.87684 0.49377 0.19383 0.0
N1169 N 0.85931 0.51699 0.18408 0.0
C1170 C 0.89849 0.50129 0.21077 0.0
C1171 C 0.88412 0.55637 0.20669 0.0
C1172 C 0.86297 0.54785 0.18987 0.0
C1173 C 0.90179 0.53291 0.21748 0.0
H1174 H 0.87361 0.46944 0.18883 0.0
H1175 H 0.84872 0.56577 0.18182 0.0
C1176 C 0.74468 0.48645 0.11509 0.0
N1177 N 0.69984 0.44998 0.0935 0.0
C1178 C 0.75372 0.46535 0.09822 0.0
C1179 C 0.71282 0.48908 0.12092 0.0
C1180 C 0.7307 0.44708 0.08753 0.0
C1181 C 0.69051 0.47045 0.1098 0.0
C1182 C 0.83282 0.4402 0.14502 0.0
C1183 C 0.83833 0.42157 0.12605 0.0
C1184 C 0.83052 0.42588 0.16609 0.0
C1185 C 0.84119 0.38883 0.12848 0.0
C1186 C 0.83344 0.39306 0.16781 0.0
N1187 N 0.83867 0.37537 0.14913 0.0
C1188 C 0.8535 0.49134 0.08583 0.0
C1189 C 0.80715 0.52093 0.07805 0.0
C1190 C 0.86082 0.48996 0.06296 0.0
N1191 N 0.82664 0.50602 0.09274 0.0
C1192 C 0.81359 0.52026 0.05516 0.0
C1193 C 0.84032 0.50411 0.04744 0.0
H1194 H 0.86874 0.48004 0.09798 0.0
H1195 H 0.78608 0.53257 0.08413 0.0
C1196 C 0.7381 0.44138 0.17381 0.0
N1197 N 0.75828 0.44092 0.15605 0.0
C1198 C 0.71615 0.41703 0.17676 0.0
C1199 C 0.73668 0.39175 0.14344 0.0
C1200 C 0.75813 0.41657 0.1411 0.0
C1201 C 0.71511 0.39218 0.16122 0.0
H1202 H 0.73828 0.46125 0.18523 0.0
H1203 H 0.77377 0.41696 0.12683 0.0
O1204 O 0.82237 0.54506 0.14099 0.0
O1205 O 0.78255 0.50837 0.17557 0.0
O1206 O 0.76685 0.50461 0.12574 0.0
O1207 O 0.82993 0.47229 0.14299 0.0
H1208 H 0.88313 0.53035 0.14182 0.0
H1209 H 0.81262 0.58668 0.10847 0.0
H1210 H 0.92344 0.55201 0.11583 0.0
H1211 H 0.85419 0.60729 0.08304 0.0
H1212 H 0.80615 0.48281 0.2477 0.0
H1213 H 0.782 0.56632 0.19245 0.0
H1214 H 0.79524 0.46785 0.20819 0.0
H1215 H 0.79288 0.57952 0.23225 0.0
H1216 H 0.74635 0.64932 0.14283 0.0
H1217 H 0.67479 0.58518 0.16715 0.0
H1218 H 0.91182 0.48273 0.21894 0.0
H1219 H 0.88615 0.58094 0.21162 0.0
H1220 H 0.77829 0.46264 0.09367 0.0
H1221 H 0.70539 0.50526 0.13391 0.0
H1222 H 0.7374 0.43051 0.07455 0.0
H1223 H 0.66577 0.47221 0.11417 0.0
H1224 H 0.83996 0.43219 0.10959 0.0
H1225 H 0.82608 0.43991 0.1809 0.0
H1226 H 0.84528 0.3741 0.11393 0.0
H1227 H 0.83148 0.38166 0.184 0.0
H1228 H 0.88159 0.47726 0.05739 0.0
H1229 H 0.79734 0.5313 0.0435 0.0
H1230 H 0.69951 0.41805 0.19054 0.0
H1231 H 0.73613 0.37301 0.13106 0.0
Li1232 Li 0.49481 0.82986 0.16457 0.0
Li1233 Li 0.52323 0.78408 0.15346 0.0
Li1234 Li 0.49803 0.81676 0.12496 0.0
Li1235 Li 0.46534 0.78266 0.15229 0.0
C1236 C 0.55848 0.84081 0.15641 0.0
N1237 N 0.60954 0.86536 0.17941 0.0
C1238 C 0.56609 0.82942 0.17773 0.0
C1239 C 0.57686 0.86463 0.14675 0.0
C1240 C 0.59199 0.84213 0.1891 0.0
C1241 C 0.60258 0.87677 0.15866 0.0
C1242 C 0.49453 0.76957 0.19729 0.0
C1243 C 0.48325 0.721 0.217 0.0
N1244 N 0.49721 0.73302 0.23569 0.0
C1245 C 0.50846 0.78155 0.21679 0.0
C1246 C 0.48154 0.73915 0.19745 0.0
C1247 C 0.50972 0.76265 0.23599 0.0
C1248 C 0.47145 0.85722 0.20314 0.0
N1249 N 0.49105 0.86345 0.18565 0.0
C1250 C 0.49884 0.91649 0.19856 0.0
C1251 C 0.50496 0.89228 0.18312 0.0
C1252 C 0.47805 0.91069 0.21642 0.0
C1253 C 0.46462 0.88062 0.21881 0.0
H1254 H 0.46039 0.83425 0.20451 0.0
H1255 H 0.52008 0.89673 0.16885 0.0
C1256 C 0.58448 0.76344 0.1431 0.0
N1257 N 0.55984 0.75779 0.1572 0.0
C1258 C 0.6107 0.74339 0.143 0.0
C1259 C 0.58602 0.71238 0.17222 0.0
C1260 C 0.56032 0.73302 0.17177 0.0
C1261 C 0.61131 0.7173 0.15749 0.0
H1262 H 0.58329 0.78298 0.13142 0.0
H1263 H 0.5404 0.72848 0.1825 0.0
C1264 C 0.44466 0.85574 0.14603 0.0
N1265 N 0.4165 0.91333 0.15469 0.0
C1266 C 0.41855 0.85743 0.16031 0.0
C1267 C 0.45643 0.88327 0.1361 0.0
C1268 C 0.40468 0.88681 0.16452 0.0
C1269 C 0.44187 0.91218 0.14071 0.0
C1270 C 0.50972 0.74336 0.12031 0.0
C1271 C 0.52777 0.74471 0.10071 0.0
C1272 C 0.50598 0.71451 0.13145 0.0
C1273 C 0.54161 0.71707 0.09247 0.0
C1274 C 0.52022 0.6874 0.12269 0.0
N1275 N 0.53748 0.68921 0.10349 0.0
C1276 C 0.52784 0.83248 0.08419 0.0
C1277 C 0.4718 0.83401 0.08361 0.0
C1278 C 0.52897 0.83691 0.06098 0.0
N1279 N 0.49951 0.83029 0.09481 0.0
C1280 C 0.47184 0.83879 0.06044 0.0
C1281 C 0.50067 0.83929 0.04888 0.0
H1282 H 0.54944 0.82906 0.09357 0.0
H1283 H 0.44966 0.83182 0.09254 0.0
C1284 C 0.40824 0.76205 0.17266 0.0
N1285 N 0.42855 0.75734 0.1553 0.0
C1286 C 0.38219 0.74209 0.1755 0.0
C1287 C 0.39869 0.7129 0.14263 0.0
C1288 C 0.42399 0.73372 0.14019 0.0
C1289 C 0.37761 0.71686 0.16054 0.0
H1290 H 0.41261 0.78095 0.18449 0.0
H1291 H 0.44028 0.73076 0.1264 0.0
O1292 O 0.53306 0.82899 0.145 0.0
O1293 O 0.49243 0.78803 0.17849 0.0
O1294 O 0.45905 0.82735 0.14209 0.0
O1295 O 0.49536 0.77004 0.12834 0.0
H1296 H 0.55228 0.81086 0.18535 0.0
H1297 H 0.57122 0.87371 0.13024 0.0
H1298 H 0.59815 0.8335 0.20561 0.0
H1299 H 0.61698 0.89527 0.1514 0.0
H1300 H 0.47347 0.69737 0.2173 0.0
H1301 H 0.51805 0.80527 0.21716 0.0
H1302 H 0.47054 0.72947 0.18262 0.0
H1303 H 0.52053 0.77159 0.25116 0.0
H1304 H 0.50941 0.93961 0.1963 0.0
H1305 H 0.44837 0.87556 0.23239 0.0
H1306 H 0.62983 0.74758 0.13131 0.0
H1307 H 0.58577 0.69223 0.18344 0.0
H1308 H 0.40928 0.83633 0.16819 0.0
H1309 H 0.47679 0.88232 0.12514 0.0
H1310 H 0.38455 0.88854 0.17563 0.0
H1311 H 0.45078 0.93372 0.13324 0.0
H1312 H 0.5309 0.76679 0.09186 0.0
H1313 H 0.49224 0.71306 0.1467 0.0
H1314 H 0.55556 0.71775 0.07727 0.0
H1315 H 0.51751 0.66492 0.13113 0.0
H1316 H 0.55155 0.83703 0.05243 0.0
H1317 H 0.44965 0.84041 0.05147 0.0
H1318 H 0.36619 0.74582 0.18943 0.0
H1319 H 0.39566 0.69376 0.13074 0.0
Li1320 Li 0.21685 0.53218 0.15523 0.0
Li1321 Li 0.18858 0.5034 0.12384 0.0
Li1322 Li 0.1747 0.49654 0.16223 0.0
Li1323 Li 0.22227 0.47221 0.15026 0.0
C1324 C 0.14132 0.54496 0.14652 0.0
N1325 N 0.0782 0.56033 0.15113 0.0
C1326 C 0.11796 0.52384 0.13944 0.0
C1327 C 0.13256 0.57398 0.15587 0.0
C1328 C 0.08619 0.532 0.14195 0.0
C1329 C 0.10053 0.5813 0.15806 0.0
C1330 C 0.25779 0.51809 0.11575 0.0
C1331 C 0.30308 0.50953 0.09194 0.0
N1332 N 0.30485 0.54117 0.08804 0.0
C1333 C 0.25994 0.55053 0.11133 0.0
C1334 C 0.27947 0.49741 0.10587 0.0
C1335 C 0.28394 0.56173 0.09736 0.0
C1336 C 0.27308 0.56299 0.16473 0.0
N1337 N 0.24156 0.56821 0.16255 0.0
C1338 C 0.24927 0.62405 0.16544 0.0
C1339 C 0.22928 0.5979 0.16325 0.0
C1340 C 0.28206 0.61934 0.1664 0.0
C1341 C 0.29393 0.5884 0.1665 0.0
H1342 H 0.28211 0.53909 0.16394 0.0
H1343 H 0.20419 0.60135 0.16124 0.0
C1344 C 0.14921 0.48999 0.08583 0.0
N1345 N 0.17578 0.50529 0.09283 0.0
C1346 C 0.1414 0.48903 0.06303 0.0
C1347 C 0.18843 0.51935 0.05505 0.0
C1348 C 0.19484 0.52041 0.07794 0.0
C1349 C 0.16167 0.50319 0.04734 0.0
H1350 H 0.13445 0.47782 0.09784 0.0
H1351 H 0.21538 0.53288 0.08364 0.0
C1352 C 0.20849 0.49548 0.19952 0.0
N1353 N 0.19161 0.49035 0.24409 0.0
C1354 C 0.20676 0.46574 0.20967 0.0
C1355 C 0.20179 0.52262 0.212 0.0
C1356 C 0.19807 0.46364 0.23223 0.0
C1357 C 0.19324 0.51952 0.23453 0.0
C1358 C 0.18007 0.4387 0.12404 0.0
C1359 C 0.15673 0.41533 0.12384 0.0
C1360 C 0.20452 0.43756 0.1083 0.0
C1361 C 0.15827 0.39113 0.10792 0.0
C1362 C 0.20523 0.413 0.09264 0.0
N1363 N 0.18229 0.39048 0.09277 0.0
C1364 C 0.12558 0.50901 0.19546 0.0
C1365 C 0.13541 0.45573 0.18518 0.0
C1366 C 0.10323 0.49929 0.21134 0.0
N1367 N 0.14108 0.48718 0.18277 0.0
C1368 C 0.1139 0.445 0.20111 0.0
C1369 C 0.09784 0.46685 0.21459 0.0
H1370 H 0.13117 0.53381 0.19377 0.0
H1371 H 0.14853 0.43887 0.17525 0.0
C1372 C 0.28213 0.44342 0.15236 0.0
N1373 N 0.25058 0.43776 0.15356 0.0
C1374 C 0.30357 0.41847 0.15404 0.0
C1375 C 0.25967 0.38256 0.15928 0.0
C1376 C 0.23905 0.40819 0.15732 0.0
C1377 C 0.29228 0.38764 0.15733 0.0
H1378 H 0.29061 0.46731 0.14995 0.0
H1379 H 0.21385 0.40451 0.15868 0.0
O1380 O 0.17254 0.53718 0.14431 0.0
O1381 O 0.23487 0.5067 0.12986 0.0
O1382 O 0.21681 0.49804 0.17746 0.0
O1383 O 0.17853 0.46266 0.13946 0.0
H1384 H 0.1243 0.50107 0.13258 0.0
H1385 H 0.15023 0.59061 0.16153 0.0
H1386 H 0.06789 0.51574 0.1367 0.0
H1387 H 0.09341 0.60363 0.16533 0.0
H1388 H 0.32002 0.49377 0.08422 0.0
H1389 H 0.24292 0.56687 0.11828 0.0
H1390 H 0.27808 0.47222 0.10884 0.0
H1391 H 0.28585 0.58676 0.09384 0.0
H1392 H 0.23946 0.6477 0.16536 0.0
H1393 H 0.31912 0.58404 0.16722 0.0
H1394 H 0.12041 0.47655 0.05761 0.0
H1395 H 0.20442 0.53078 0.0434 0.0
H1396 H 0.21187 0.44453 0.20017 0.0
H1397 H 0.20301 0.54579 0.20431 0.0
H1398 H 0.19645 0.44079 0.24031 0.0
H1399 H 0.18787 0.54029 0.2444 0.0
H1400 H 0.13754 0.41594 0.13583 0.0
H1401 H 0.22266 0.45545 0.10805 0.0
H1402 H 0.14035 0.3729 0.10758 0.0
H1403 H 0.224 0.41188 0.08035 0.0
H1404 H 0.09119 0.51671 0.22155 0.0
H1405 H 0.1103 0.41981 0.20326 0.0
H1406 H 0.32866 0.42308 0.15266 0.0
H1407 H 0.25034 0.35902 0.16201 0.0
C1408 C 0.16265 0.17689 0.36009 0.0
C1409 C 0.14276 0.18014 0.34108 0.0
C1410 C 0.17556 0.14217 0.32055 0.0
C1411 C 0.19248 0.13559 0.34056 0.0
N1412 N 0.19839 0.14289 0.38056 0.0
N1413 N 0.12727 0.16231 0.30419 0.0
C1414 C 0.18514 0.15202 0.36067 0.0
C1415 C 0.14846 0.16193 0.32149 0.0
N1416 N 0.16053 0.19798 0.3774 0.0
N1417 N 0.1858 0.13007 0.30057 0.0
H1418 H 0.10683 0.17604 0.30432 0.0
H1419 H 0.1285 0.14689 0.29059 0.0
H1420 H 0.20584 0.11585 0.29922 0.0
H1421 H 0.17626 0.1366 0.28515 0.0
H1422 H 0.17656 0.19861 0.39065 0.0
H1423 H 0.14469 0.21688 0.37738 0.0
H1424 H 0.19126 0.15186 0.39603 0.0
H1425 H 0.21438 0.12424 0.38192 0.0
C1426 C 0.84609 0.17488 0.35873 0.0
C1427 C 0.85465 0.18922 0.33806 0.0
C1428 C 0.81734 0.15487 0.31809 0.0
C1429 C 0.80751 0.14196 0.33892 0.0
N1430 N 0.80731 0.14436 0.37934 0.0
N1431 N 0.84429 0.19756 0.29875 0.0
C1432 C 0.82029 0.15345 0.35934 0.0
C1433 C 0.83899 0.18062 0.31791 0.0
N1434 N 0.86351 0.18055 0.37762 0.0
N1435 N 0.80694 0.14176 0.29847 0.0
H1436 H 0.85985 0.21669 0.29809 0.0
H1437 H 0.83128 0.19454 0.28408 0.0
H1438 H 0.7909 0.12304 0.29794 0.0
H1439 H 0.81598 0.14777 0.2828 0.0
H1440 H 0.86071 0.16793 0.39249 0.0
H1441 H 0.88263 0.19604 0.37795 0.0
H1442 H 0.8134 0.15452 0.39465 0.0
H1443 H 0.7883 0.12873 0.38046 0.0
C1444 C 0.82487 0.86371 0.32037 0.0
C1445 C 0.7984 0.85983 0.33466 0.0
C1446 C 0.81908 0.80869 0.34724 0.0
C1447 C 0.84761 0.81493 0.33558 0.0
N1448 N 0.87931 0.84987 0.31275 0.0
N1449 N 0.77099 0.83013 0.36322 0.0
C1450 C 0.85088 0.84271 0.32239 0.0
C1451 C 0.79549 0.83255 0.34838 0.0
N1452 N 0.82492 0.88736 0.30472 0.0
N1453 N 0.8144 0.77977 0.35693 0.0
H1454 H 0.75298 0.84687 0.36433 0.0
H1455 H 0.76963 0.81269 0.37552 0.0
H1456 H 0.8312 0.76174 0.35633 0.0
H1457 H 0.79291 0.77263 0.36376 0.0
H1458 H 0.8421 0.88956 0.29232 0.0
H1459 H 0.80612 0.90309 0.30281 0.0
H1460 H 0.88414 0.8715 0.30514 0.0
H1461 H 0.89904 0.8352 0.31387 0.0
C1462 C 0.15208 0.82333 0.31793 0.0
C1463 C 0.13804 0.81278 0.3382 0.0
C1464 C 0.17489 0.84538 0.35996 0.0
C1465 C 0.18653 0.85852 0.33969 0.0
N1466 N 0.18497 0.86246 0.29937 0.0
N1467 N 0.13328 0.81591 0.37848 0.0
C1468 C 0.17491 0.84804 0.31863 0.0
C1469 C 0.14882 0.82424 0.35924 0.0
N1470 N 0.14395 0.80927 0.2981 0.0
N1471 N 0.18915 0.85277 0.37987 0.0
H1472 H 0.11447 0.8 0.37873 0.0
H1473 H 0.13745 0.82642 0.39399 0.0
H1474 H 0.20803 0.86853 0.38108 0.0
H1475 H 0.18407 0.8414 0.39494 0.0
H1476 H 0.15552 0.81354 0.283 0.0
H1477 H 0.12713 0.79128 0.29704 0.0
H1478 H 0.17487 0.85851 0.28371 0.0
H1479 H 0.20223 0.88007 0.29923 0.0
C1480 C 0.16776 0.81073 0.64668 0.0
C1481 C 0.14586 0.80971 0.66465 0.0
C1482 C 0.17491 0.85187 0.68395 0.0
C1483 C 0.19397 0.85583 0.66458 0.0
N1484 N 0.20706 0.84124 0.62656 0.0
N1485 N 0.12678 0.83019 0.69988 0.0
C1486 C 0.19026 0.83563 0.64575 0.0
C1487 C 0.1491 0.83032 0.68329 0.0
N1488 N 0.16719 0.78763 0.63063 0.0
N1489 N 0.18178 0.8685 0.70301 0.0
H1490 H 0.10795 0.81428 0.70019 0.0
H1491 H 0.12571 0.84706 0.71256 0.0
H1492 H 0.20051 0.8845 0.70395 0.0
H1493 H 0.17077 0.86455 0.71837 0.0
H1494 H 0.18451 0.78516 0.61835 0.0
H1495 H 0.15088 0.76912 0.63077 0.0
H1496 H 0.20267 0.82977 0.61142 0.0
H1497 H 0.224 0.85905 0.62522 0.0
C1498 C 0.19211 0.16908 0.64908 0.0
C1499 C 0.18721 0.14152 0.66221 0.0
C1500 C 0.13647 0.16217 0.67549 0.0
C1501 C 0.1413 0.18969 0.66228 0.0
N1502 N 0.17548 0.22256 0.63995 0.0
N1503 N 0.15843 0.11384 0.69102 0.0
C1504 C 0.1698 0.19418 0.65019 0.0
C1505 C 0.16053 0.13877 0.67647 0.0
N1506 N 0.21758 0.17071 0.63499 0.0
N1507 N 0.10835 0.15797 0.6864 0.0
H1508 H 0.1753 0.09591 0.69179 0.0
H1509 H 0.14134 0.11199 0.7035 0.0
H1510 H 0.0907 0.17517 0.6868 0.0
H1511 H 0.10164 0.13692 0.69408 0.0
H1512 H 0.22071 0.18833 0.62302 0.0
H1513 H 0.23506 0.15335 0.63444 0.0
H1514 H 0.19698 0.22866 0.63268 0.0
H1515 H 0.15934 0.24119 0.64018 0.0
C1516 C 0.83335 0.18442 0.67288 0.0
C1517 C 0.85444 0.18596 0.65439 0.0
C1518 C 0.82478 0.14394 0.6355 0.0
C1519 C 0.80655 0.13946 0.6552 0.0
N1520 N 0.79574 0.15277 0.69379 0.0
N1521 N 0.87343 0.16378 0.61956 0.0
C1522 C 0.8113 0.1591 0.67421 0.0
C1523 C 0.85095 0.1649 0.63601 0.0
N1524 N 0.83394 0.20757 0.68887 0.0
N1525 N 0.8167 0.12857 0.61614 0.0
H1526 H 0.8933 0.17832 0.61946 0.0
H1527 H 0.8739 0.14648 0.60713 0.0
H1528 H 0.79742 0.11326 0.61506 0.0
H1529 H 0.82716 0.13335 0.60069 0.0
H1530 H 0.8171 0.20947 0.70153 0.0
H1531 H 0.84959 0.22661 0.6883 0.0
H1532 H 0.80088 0.16402 0.7089 0.0
H1533 H 0.77935 0.13449 0.6954 0.0
C1534 C 0.80526 0.82496 0.66143 0.0
C1535 C 0.81455 0.85716 0.6627 0.0
C1536 C 0.87008 0.84142 0.66494 0.0
C1537 C 0.86075 0.80914 0.66511 0.0
N1538 N 0.81937 0.77024 0.66839 0.0
N1539 N 0.85468 0.89583 0.6712 0.0
C1540 C 0.82825 0.80092 0.66486 0.0
C1541 C 0.84665 0.86531 0.66622 0.0
N1542 N 0.77483 0.81732 0.656 0.0
N1543 N 0.90117 0.8494 0.66239 0.0
H1544 H 0.83806 0.91395 0.67252 0.0
H1545 H 0.87729 0.90254 0.67618 0.0
H1546 H 0.91922 0.83277 0.66108 0.0
H1547 H 0.9088 0.87248 0.65955 0.0
H1548 H 0.76753 0.79436 0.65238 0.0
H1549 H 0.75731 0.83424 0.65334 0.0
H1550 H 0.79597 0.76328 0.6706 0.0
H1551 H 0.83562 0.75213 0.67122 0.0
C1552 C 0.65572 0.66626 0.81949 0.0
C1553 C 0.65168 0.6844 0.83931 0.0
C1554 C 0.6946 0.65538 0.85757 0.0
C1555 C 0.69961 0.63818 0.83743 0.0
N1556 N 0.68985 0.63166 0.79789 0.0
N1557 N 0.67168 0.70168 0.87512 0.0
C1558 C 0.6817 0.64507 0.81793 0.0
C1559 C 0.67259 0.68069 0.85769 0.0
N1560 N 0.63397 0.66818 0.80259 0.0
N1561 N 0.70962 0.64653 0.87689 0.0
H1562 H 0.6559 0.72062 0.87568 0.0
H1563 H 0.68842 0.70214 0.88792 0.0
H1564 H 0.72582 0.628 0.87764 0.0
H1565 H 0.7041 0.65583 0.89259 0.0
H1566 H 0.63365 0.65294 0.78887 0.0
H1567 H 0.61469 0.68351 0.80304 0.0
H1568 H 0.67971 0.6381 0.78264 0.0
H1569 H 0.70882 0.61609 0.79622 0.0
C1570 C 0.36135 0.66562 0.86398 0.0
C1571 C 0.36266 0.68799 0.84623 0.0
C1572 C 0.31684 0.66289 0.82838 0.0
C1573 C 0.31447 0.64182 0.84684 0.0
N1574 N 0.33027 0.62678 0.88419 0.0
N1575 N 0.33865 0.71178 0.81369 0.0
C1576 C 0.33547 0.64432 0.86526 0.0
C1577 C 0.33948 0.68776 0.82903 0.0
N1578 N 0.38555 0.6638 0.8791 0.0
N1579 N 0.29818 0.65847 0.80993 0.0
H1580 H 0.35486 0.73037 0.81372 0.0
H1581 H 0.32044 0.71479 0.80215 0.0
H1582 H 0.28102 0.6408 0.80899 0.0
H1583 H 0.3012 0.67073 0.79494 0.0
H1584 H 0.3878 0.6457 0.89083 0.0
H1585 H 0.4049 0.67898 0.87873 0.0
H1586 H 0.34269 0.63006 0.89909 0.0
H1587 H 0.31165 0.61074 0.88569 0.0
C1588 C 0.31671 0.34665 0.85555 0.0
C1589 C 0.31158 0.36465 0.83577 0.0
C1590 C 0.35582 0.33777 0.8173 0.0
C1591 C 0.35991 0.31877 0.83671 0.0
N1592 N 0.34033 0.30008 0.87229 0.0
N1593 N 0.32177 0.37344 0.79649 0.0
C1594 C 0.33906 0.32164 0.85521 0.0
C1595 C 0.32979 0.35898 0.8162 0.0
N1596 N 0.30136 0.35442 0.87497 0.0
N1597 N 0.37748 0.3364 0.80031 0.0
H1598 H 0.30282 0.3891 0.79514 0.0
H1599 H 0.33208 0.36794 0.78113 0.0
H1600 H 0.39658 0.32083 0.80039 0.0
H1601 H 0.37786 0.35217 0.7869 0.0
H1602 H 0.30685 0.34456 0.89049 0.0
H1603 H 0.28485 0.37264 0.87602 0.0
H1604 H 0.3236 0.2989 0.88507 0.0
H1605 H 0.35647 0.28145 0.8726 0.0
C1606 C 0.69938 0.32433 0.83844 0.0
C1607 C 0.69054 0.3566 0.83665 0.0
C1608 C 0.63484 0.3414 0.83431 0.0
C1609 C 0.64376 0.30901 0.83448 0.0
N1610 N 0.68477 0.26965 0.83183 0.0
N1611 N 0.65095 0.39542 0.8273 0.0
C1612 C 0.67617 0.30046 0.83504 0.0
C1613 C 0.65858 0.36498 0.83281 0.0
N1614 N 0.72957 0.31646 0.84433 0.0
N1615 N 0.60386 0.34982 0.83676 0.0
H1616 H 0.66779 0.41331 0.82574 0.0
H1617 H 0.62845 0.40218 0.8221 0.0
H1618 H 0.5856 0.33345 0.83835 0.0
H1619 H 0.59656 0.37306 0.83933 0.0
H1620 H 0.73647 0.29349 0.8483 0.0
H1621 H 0.74722 0.33324 0.84708 0.0
H1622 H 0.70813 0.26245 0.82987 0.0
H1623 H 0.66838 0.25166 0.82899 0.0
C1624 C 0.65985 0.37463 0.1528 0.0
C1625 C 0.68981 0.36794 0.16237 0.0
C1626 C 0.67311 0.31359 0.17059 0.0
C1627 C 0.6427 0.32076 0.16196 0.0
N1628 N 0.60519 0.35887 0.148 0.0
N1629 N 0.72406 0.33325 0.18318 0.0
C1630 C 0.63549 0.35156 0.15403 0.0
C1631 C 0.69618 0.33801 0.1721 0.0
N1632 N 0.65507 0.40265 0.14184 0.0
N1633 N 0.68006 0.28325 0.17682 0.0
H1634 H 0.7416 0.35053 0.1843 0.0
H1635 H 0.72902 0.31317 0.19264 0.0
H1636 H 0.66339 0.26507 0.17664 0.0
H1637 H 0.70268 0.27554 0.18087 0.0
H1638 H 0.63522 0.40748 0.13213 0.0
H1639 H 0.672 0.42053 0.14113 0.0
H1640 H 0.59754 0.38173 0.14449 0.0
H1641 H 0.58687 0.34238 0.14809 0.0
C1642 C 0.66095 0.69328 0.17307 0.0
C1643 C 0.63727 0.69378 0.15623 0.0
C1644 C 0.66259 0.64912 0.13715 0.0
C1645 C 0.68428 0.64656 0.15518 0.0
N1646 N 0.7027 0.66369 0.19146 0.0
N1647 N 0.61281 0.67005 0.12379 0.0
C1648 C 0.68317 0.66804 0.17345 0.0
C1649 C 0.63741 0.67119 0.13862 0.0
N1650 N 0.66256 0.71735 0.18834 0.0
N1651 N 0.66649 0.63088 0.11841 0.0
H1652 H 0.59415 0.68609 0.12412 0.0
H1653 H 0.60956 0.65186 0.11225 0.0
H1654 H 0.68446 0.61416 0.11682 0.0
H1655 H 0.65363 0.63408 0.10369 0.0
H1656 H 0.68112 0.7202 0.19961 0.0
H1657 H 0.64652 0.73607 0.18858 0.0
H1658 H 0.70072 0.6763 0.20638 0.0
H1659 H 0.71965 0.64581 0.19211 0.0
C1660 C 0.35025 0.67345 0.18217 0.0
C1661 C 0.35099 0.69424 0.16345 0.0
C1662 C 0.30665 0.66576 0.14649 0.0
C1663 C 0.3043 0.64657 0.16598 0.0
N1664 N 0.3191 0.63704 0.20445 0.0
N1665 N 0.32497 0.71518 0.13067 0.0
C1666 C 0.32461 0.652 0.18451 0.0
C1667 C 0.32757 0.69198 0.14652 0.0
N1668 N 0.37479 0.67291 0.19707 0.0
N1669 N 0.29028 0.65801 0.12749 0.0
H1670 H 0.33955 0.73509 0.13044 0.0
H1671 H 0.3064 0.71627 0.11922 0.0
H1672 H 0.27541 0.63841 0.1264 0.0
H1673 H 0.29383 0.66925 0.11215 0.0
H1674 H 0.37701 0.65587 0.20959 0.0
H1675 H 0.39445 0.68764 0.19573 0.0
H1676 H 0.33128 0.64241 0.21915 0.0
H1677 H 0.30026 0.62147 0.20681 0.0
C1678 C 0.33514 0.35764 0.17715 0.0
C1679 C 0.31476 0.36073 0.15838 0.0
C1680 C 0.33808 0.31333 0.14153 0.0
C1681 C 0.36127 0.31295 0.1587 0.0
N1682 N 0.38443 0.33686 0.19159 0.0
N1683 N 0.29926 0.3441 0.12122 0.0
C1684 C 0.3604 0.33555 0.17629 0.0
C1685 C 0.31671 0.33914 0.1402 0.0
N1686 N 0.32994 0.3754 0.19595 0.0
N1687 N 0.3362 0.28871 0.12673 0.0
H1688 H 0.28348 0.36286 0.11945 0.0
H1689 H 0.30235 0.3312 0.1065 0.0
H1690 H 0.3514 0.2693 0.12734 0.0
H1691 H 0.31783 0.28604 0.11527 0.0
H1692 H 0.34197 0.37193 0.21098 0.0
H1693 H 0.31152 0.39169 0.19718 0.0
H1694 H 0.38694 0.35508 0.2032 0.0
H1695 H 0.40335 0.32108 0.1916 0.0
C1696 C 0.03487 0.41686 0.24201 0.0
C1697 C 0.04353 0.41932 0.26495 0.0
C1698 C 0.08513 0.45723 0.25537 0.0
C1699 C 0.07636 0.45494 0.23243 0.0
N1700 N 0.0374 0.44029 0.20491 0.0
N1701 N 0.06994 0.44857 0.2941 0.0
C1702 C 0.04927 0.43735 0.22612 0.0
C1703 C 0.06632 0.44188 0.27182 0.0
N1704 N 0.01447 0.39375 0.23515 0.0
N1705 N 0.11243 0.47223 0.2614 0.0
H1706 H 0.05623 0.43785 0.30651 0.0
H1707 H 0.08412 0.4669 0.30002 0.0
H1708 H 0.12705 0.48373 0.24998 0.0
H1709 H 0.12185 0.47123 0.27753 0.0
H1710 H 0.0102 0.38859 0.21833 0.0
H1711 H 0.00357 0.37802 0.24616 0.0
H1712 H 0.01605 0.4303 0.19989 0.0
H1713 H 0.04739 0.45542 0.19302 0.0
C1714 C 0.54752 0.02682 0.25054 0.0
C1715 C 0.55652 0.04196 0.27075 0.0
C1716 C 0.52856 0.08993 0.25918 0.0
C1717 C 0.52556 0.07711 0.23734 0.0
N1718 N 0.53012 0.03305 0.21196 0.0
N1719 N 0.55508 0.08743 0.29516 0.0
C1720 C 0.53382 0.04517 0.23304 0.0
C1721 C 0.54626 0.07318 0.27554 0.0
N1722 N 0.55236 0.99506 0.24818 0.0
N1723 N 0.51466 0.11827 0.26407 0.0
H1724 H 0.56716 0.07559 0.30788 0.0
H1725 H 0.55185 0.11139 0.29844 0.0
H1726 H 0.5016 0.13097 0.25226 0.0
H1727 H 0.51352 0.12774 0.28016 0.0
H1728 H 0.54397 0.98187 0.23469 0.0
H1729 H 0.5624 0.98136 0.26089 0.0
H1730 H 0.53884 0.01113 0.20699 0.0
H1731 H 0.51932 0.04567 0.19902 0.0
C1732 C 0.90734 0.54625 0.25795 0.0
C1733 C 0.92189 0.542 0.23679 0.0
C1734 C 0.97057 0.56609 0.25104 0.0
C1735 C 0.95403 0.57548 0.27062 0.0
N1736 N 0.90615 0.57584 0.29266 0.0
N1737 N 0.96725 0.54685 0.2127 0.0
C1738 C 0.92243 0.56542 0.27429 0.0
C1739 C 0.95371 0.55118 0.23329 0.0
N1740 N 0.87895 0.53211 0.26228 0.0
N1741 N 0.00233 0.57144 0.24956 0.0
H1742 H 0.95586 0.53489 0.1997 0.0
H1743 H 0.98906 0.55624 0.20815 0.0
H1744 H 0.01511 0.58225 0.26243 0.0
H1745 H 0.01643 0.56284 0.23663 0.0
H1746 H 0.86841 0.53179 0.27805 0.0
H1747 H 0.86734 0.51801 0.25052 0.0
H1748 H 0.88196 0.57267 0.29481 0.0
H1749 H 0.91637 0.58961 0.30517 0.0
C1750 C 0.46301 0.94911 0.2721 0.0
C1751 C 0.43576 0.96713 0.26679 0.0
C1752 C 0.44275 0.95594 0.22683 0.0
C1753 C 0.46847 0.9359 0.23232 0.0
N1754 N 0.5092 0.92103 0.25829 0.0
N1755 N 0.40554 0.99589 0.23943 0.0
C1756 C 0.48077 0.93527 0.2544 0.0
C1757 C 0.42775 0.97343 0.24416 0.0
N1758 N 0.47068 0.94366 0.29402 0.0
N1759 N 0.43151 0.95668 0.20535 0.0
H1760 H 0.39429 0.00893 0.25197 0.0
H1761 H 0.40037 0.00361 0.22326 0.0
H1762 H 0.44272 0.94512 0.19212 0.0
H1763 H 0.41044 0.96756 0.20076 0.0
H1764 H 0.48801 0.92774 0.29909 0.0
H1765 H 0.45861 0.95411 0.30735 0.0
H1766 H 0.52094 0.92191 0.27362 0.0
H1767 H 0.52243 0.91081 0.24541 0.0
C1768 C 0.07712 0.57682 0.76597 0.0
C1769 C 0.07032 0.54437 0.76975 0.0
C1770 C 0.03053 0.54527 0.73982 0.0
C1771 C 0.0372 0.57779 0.7363 0.0
N1772 N 0.0614 0.62633 0.74894 0.0
N1773 N 0.03733 0.49887 0.7635 0.0
C1774 C 0.0587 0.59414 0.75039 0.0
C1775 C 0.0459 0.52894 0.75768 0.0
N1776 N 0.10223 0.59074 0.77653 0.0
N1777 N 0.01024 0.52994 0.72567 0.0
H1778 H 0.04852 0.48632 0.77631 0.0
H1779 H 0.01779 0.48724 0.75688 0.0
H1780 H 0.99786 0.54162 0.713 0.0
H1781 H 0.00672 0.50558 0.72571 0.0
H1782 H 0.11095 0.61301 0.77239 0.0
H1783 H 0.11602 0.57913 0.78842 0.0
H1784 H 0.07384 0.64001 0.76046 0.0
H1785 H 0.04901 0.63991 0.7373 0.0
C1786 C 0.45901 0.0494 0.76312 0.0
C1787 C 0.45716 0.08289 0.76347 0.0
C1788 C 0.42205 0.08226 0.73081 0.0
C1789 C 0.42452 0.04878 0.73009 0.0
N1790 N 0.44963 0.00078 0.74244 0.0
N1791 N 0.44197 0.13179 0.74558 0.0
C1792 C 0.4444 0.03242 0.7453 0.0
C1793 C 0.44043 0.09949 0.74654 0.0
N1794 N 0.47379 0.03383 0.78024 0.0
N1795 N 0.40081 0.09749 0.71728 0.0
H1796 H 0.45398 0.14547 0.75737 0.0
H1797 H 0.43342 0.14503 0.73217 0.0
H1798 H 0.38711 0.08593 0.70528 0.0
H1799 H 0.39496 0.12127 0.71895 0.0
H1800 H 0.47221 0.0095 0.78264 0.0
H1801 H 0.48609 0.04556 0.79293 0.0
H1802 H 0.46628 0.98801 0.75155 0.0
H1803 H 0.43907 0.98777 0.72959 0.0
C1804 C 0.93391 0.44753 0.72225 0.0
C1805 C 0.96099 0.42944 0.72795 0.0
C1806 C 0.95624 0.44562 0.76724 0.0
C1807 C 0.92834 0.46246 0.76169 0.0
N1808 N 0.89617 0.48764 0.73367 0.0
N1809 N 0.00328 0.41878 0.75378 0.0
C1810 C 0.91917 0.46626 0.73901 0.0
C1811 C 0.974 0.43115 0.74981 0.0
N1812 N 0.92106 0.44524 0.70128 0.0
N1813 N 0.96468 0.44186 0.78921 0.0
H1814 H 0.01672 0.40823 0.74115 0.0
H1815 H 0.01542 0.42165 0.76883 0.0
H1816 H 0.95259 0.45262 0.80239 0.0
H1817 H 0.98258 0.42673 0.7945 0.0
H1818 H 0.89913 0.4546 0.697 0.0
H1819 H 0.93147 0.43238 0.68836 0.0
H1820 H 0.89028 0.49367 0.71726 0.0
H1821 H 0.88507 0.50161 0.74576 0.0
C1822 C 0.57916 0.91314 0.72929 0.0
C1823 C 0.57545 0.94648 0.72802 0.0
C1824 C 0.54041 0.94556 0.76075 0.0
C1825 C 0.54362 0.91219 0.76172 0.0
N1826 N 0.56086 0.86337 0.74472 0.0
N1827 N 0.54822 0.99382 0.73933 0.0
C1828 C 0.56119 0.89572 0.74517 0.0
C1829 C 0.55465 0.96252 0.74277 0.0
N1830 N 0.60117 0.89832 0.71617 0.0
N1831 N 0.52471 0.96108 0.77748 0.0
H1832 H 0.5585 0.00682 0.72636 0.0
H1833 H 0.53091 0.00622 0.74807 0.0
H1834 H 0.51265 0.94928 0.79025 0.0
H1835 H 0.52526 0.98553 0.77945 0.0
H1836 H 0.60788 0.87483 0.71827 0.0
H1837 H 0.61461 0.91 0.70409 0.0
H1838 H 0.57014 0.85004 0.73161 0.0
H1839 H 0.54908 0.84964 0.7566 0.0
C1840 C 0.00991 0.35773 0.48582 0.0
C1841 C 0.99542 0.33206 0.47447 0.0
C1842 C 0.98164 0.30739 0.51032 0.0
C1843 C 0.99482 0.33376 0.52172 0.0
N1844 N 0.01674 0.38631 0.52084 0.0
N1845 N 0.96217 0.28575 0.47531 0.0
C1846 C 0.00752 0.35968 0.5096 0.0
C1847 C 0.97961 0.3079 0.48656 0.0
N1848 N 0.02681 0.3796 0.47393 0.0
N1849 N 0.97226 0.2813 0.52217 0.0
H1850 H 0.96036 0.28517 0.45785 0.0
H1851 H 0.94732 0.26961 0.48323 0.0
H1852 H 0.97301 0.28002 0.53964 0.0
H1853 H 0.966 0.25996 0.51469 0.0
H1854 H 0.04089 0.39687 0.48134 0.0
H1855 H 0.02845 0.37924 0.45647 0.0
H1856 H 0.02322 0.40726 0.51291 0.0
H1857 H 0.01556 0.3883 0.53827 0.0
C1858 C 0.63 0.00959 0.51097 0.0
C1859 C 0.65528 0.99369 0.52179 0.0
C1860 C 0.67627 0.97703 0.48532 0.0
C1861 C 0.6532 0.99598 0.47452 0.0
N1862 N 0.6092 0.03194 0.47645 0.0
N1863 N 0.70458 0.96517 0.51957 0.0
C1864 C 0.63023 0.01263 0.48718 0.0
C1865 C 0.67886 0.97794 0.50905 0.0
N1866 N 0.60551 0.02113 0.52347 0.0
N1867 N 0.69561 0.958 0.47286 0.0
H1868 H 0.70721 0.9648 0.53694 0.0
H1869 H 0.72449 0.95702 0.51111 0.0
H1870 H 0.69495 0.95721 0.4554 0.0
H1871 H 0.71051 0.94103 0.4798 0.0
H1872 H 0.58487 0.03027 0.51657 0.0
H1873 H 0.60472 0.01923 0.54091 0.0
H1874 H 0.59422 0.04756 0.48474 0.0
H1875 H 0.60793 0.03366 0.45901 0.0
C1876 C 0.9853 0.69741 0.51243 0.0
C1877 C 0.99855 0.67105 0.52372 0.0
C1878 C 0.00677 0.64429 0.4877 0.0
C1879 C 0.99698 0.67217 0.47641 0.0
N1880 N 0.98224 0.72731 0.47792 0.0
N1881 N 0.02554 0.62089 0.5224 0.0
C1882 C 0.9876 0.6993 0.48874 0.0
C1883 C 0.01021 0.64478 0.51145 0.0
N1884 N 0.96983 0.72031 0.52433 0.0
N1885 N 0.01202 0.61719 0.47578 0.0
H1886 H 0.02827 0.62036 0.53979 0.0
H1887 H 0.03761 0.60284 0.51417 0.0
H1888 H 0.00971 0.61604 0.45837 0.0
H1889 H 0.01604 0.59529 0.48323 0.0
H1890 H 0.95684 0.73833 0.5168 0.0
H1891 H 0.96741 0.71966 0.54174 0.0
H1892 H 0.97878 0.74865 0.48629 0.0
H1893 H 0.98413 0.72996 0.46058 0.0
C1894 C 0.31589 0.0173 0.51121 0.0
C1895 C 0.33952 0.001 0.52355 0.0
C1896 C 0.36314 0.98186 0.48849 0.0
C1897 C 0.34033 0.9993 0.47624 0.0
N1898 N 0.29923 0.03873 0.4754 0.0
N1899 N 0.3889 0.97274 0.52431 0.0
C1900 C 0.31805 0.01868 0.48747 0.0
C1901 C 0.36419 0.98476 0.51228 0.0
N1902 N 0.29054 0.03019 0.52208 0.0
N1903 N 0.38304 0.96173 0.47745 0.0
H1904 H 0.39035 0.97453 0.54174 0.0
H1905 H 0.40917 0.96338 0.51699 0.0
H1906 H 0.38338 0.9596 0.46001 0.0
H1907 H 0.39775 0.94565 0.48554 0.0
H1908 H 0.27069 0.03892 0.51384 0.0
H1909 H 0.28807 0.02997 0.53947 0.0
H1910 H 0.28493 0.05589 0.48272 0.0
H1911 H 0.29993 0.04018 0.45794 0.0
C1912 C 0.48971 0.81104 0.98884 0.0
C1913 C 0.50355 0.83635 0.97671 0.0
C1914 C 0.5115 0.86564 0.01177 0.0
C1915 C 0.50112 0.83875 0.02398 0.0
N1916 N 0.4857 0.78373 0.02436 0.0
N1917 N 0.53098 0.88632 0.97639 0.0
C1918 C 0.49159 0.81086 0.01258 0.0
C1919 C 0.51528 0.86339 0.98809 0.0
N1920 N 0.47414 0.78747 0.97766 0.0
N1921 N 0.51702 0.89346 0.02276 0.0
H1922 H 0.53389 0.88557 0.95902 0.0
H1923 H 0.54311 0.90485 0.98401 0.0
H1924 H 0.51455 0.89584 0.04009 0.0
H1925 H 0.52151 0.91475 0.01458 0.0
H1926 H 0.46076 0.7702 0.98572 0.0
H1927 H 0.47203 0.78686 0.96022 0.0
H1928 H 0.48212 0.76185 0.01674 0.0
H1929 H 0.48729 0.7823 0.04178 0.0
C1930 C 0.15286 0.47066 0.98788 0.0
C1931 C 0.15552 0.49908 0.97536 0.0
C1932 C 0.15214 0.52942 0.01026 0.0
C1933 C 0.15571 0.50112 0.02277 0.0
N1934 N 0.16416 0.44452 0.02303 0.0
N1935 N 0.16286 0.55586 0.97518 0.0
C1936 C 0.15701 0.47154 0.01151 0.0
C1937 C 0.15623 0.52866 0.98665 0.0
N1938 N 0.14612 0.44287 0.97721 0.0
N1939 N 0.1447 0.557 0.02096 0.0
H1940 H 0.16746 0.55645 0.95802 0.0
H1941 H 0.16689 0.57744 0.98312 0.0
H1942 H 0.14092 0.5582 0.03824 0.0
H1943 H 0.13905 0.57775 0.01242 0.0
H1944 H 0.14111 0.42196 0.98575 0.0
H1945 H 0.14228 0.44156 0.95994 0.0
H1946 H 0.1687 0.42302 0.01513 0.0
H1947 H 0.1685 0.44405 0.04023 0.0
C1948 C 0.52132 0.19331 0.01108 0.0
C1949 C 0.50827 0.16725 0.02291 0.0
C1950 C 0.49092 0.14347 0.98745 0.0
C1951 C 0.50563 0.16862 0.97564 0.0
N1952 N 0.54053 0.21371 0.97565 0.0
N1953 N 0.48562 0.11497 0.02261 0.0
C1954 C 0.52263 0.19238 0.98731 0.0
C1955 C 0.49456 0.1415 0.01115 0.0
N1956 N 0.53114 0.2196 0.0225 0.0
N1957 N 0.47255 0.12221 0.97612 0.0
H1958 H 0.48789 0.11287 0.03998 0.0
H1959 H 0.47843 0.09414 0.01482 0.0
H1960 H 0.46971 0.12271 0.95874 0.0
H1961 H 0.45836 0.10547 0.98403 0.0
H1962 H 0.53743 0.24068 0.01464 0.0
H1963 H 0.53047 0.22145 0.03994 0.0
H1964 H 0.55609 0.22946 0.9833 0.0
H1965 H 0.5421 0.21378 0.95818 0.0
C1966 C 0.86946 0.51515 0.9874 0.0
C1967 C 0.84642 0.49714 0.97573 0.0
C1968 C 0.82472 0.47849 0.01145 0.0
C1969 C 0.84481 0.4998 0.02298 0.0
N1970 N 0.88465 0.54051 0.02231 0.0
N1971 N 0.7991 0.46512 0.97649 0.0
C1972 C 0.86695 0.51858 0.01109 0.0
C1973 C 0.82335 0.47952 0.9877 0.0
N1974 N 0.89401 0.52841 0.97586 0.0
N1975 N 0.80721 0.45696 0.02324 0.0
H1976 H 0.79691 0.46535 0.95908 0.0
H1977 H 0.7796 0.45524 0.98451 0.0
H1978 H 0.80761 0.45551 0.04071 0.0
H1979 H 0.79466 0.43865 0.01568 0.0
H1980 H 0.91323 0.53923 0.98359 0.0
H1981 H 0.89653 0.52618 0.95851 0.0
H1982 H 0.89857 0.55739 0.01431 0.0
H1983 H 0.88378 0.54325 0.03969 0.0
loop_
_geom_bond_atom_site_label_1
_geom_bond_atom_site_label_2
_geom_bond_distance
_geom_bond_site_symmetry_2
_ccdc_geom_bond_type
Li0 N17 1.990 . S
Li0 O60 1.956 1_455 S
Li0 O61 1.970 . S
Li0 O62 1.961 . S
Li1 N25 1.990 . S
Li1 O60 1.970 1_455 S
Li1 O61 1.956 . S
Li1 O63 1.961 1_455 S
Li2 N47 1.990 . S
Li2 O60 1.961 . S
Li2 O62 1.956 1_655 S
Li2 O63 1.970 . S
Li3 N53 1.990 . S
Li3 O61 1.961 . S
Li3 O62 1.970 . S
Li3 O63 1.956 1_455 S
C4 C6 1.348 . S
C4 C7 1.356 . S
C4 O60 1.325 . S
N5 C8 1.314 . S
N5 C9 1.279 . S
C6 C4 1.348 . S
C6 C8 1.353 . S
C6 H64 0.929 1_655 S
C7 C4 1.356 . S
C7 C9 1.358 . S
C7 H65 0.930 . S
C8 N5 1.314 . S
C8 C6 1.353 . S
C8 H66 0.930 . S
C9 N5 1.279 . S
C9 C7 1.358 . S
C9 H67 0.930 . S
C10 C13 1.348 . S
C10 C14 1.356 . S
C10 O61 1.325 . S
C11 N12 1.279 . S
C11 C14 1.358 . S
C11 H68 0.930 . S
N12 C11 1.279 . S
N12 C15 1.314 . S
C13 C10 1.348 . S
C13 C15 1.353 . S
C13 H69 0.929 . S
C14 C10 1.356 . S
C14 C11 1.358 . S
C14 H70 0.930 . S
C15 N12 1.314 . S
C15 C13 1.353 . S
C15 H71 0.930 . S
C16 N17 1.314 . S
C16 C21 1.353 . S
C16 H22 0.930 . S
N17 Li0 1.990 . S
N17 C16 1.314 . S
N17 C19 1.279 . S
C18 C19 1.358 . S
C18 C20 1.356 . S
C18 H72 0.930 . S
C19 N17 1.279 . S
C19 C18 1.358 . S
C19 H23 0.930 . S
C20 C18 1.356 . S
C20 C21 1.348 . S
C21 C16 1.353 . S
C21 C20 1.348 . S
C21 H73 0.929 . S
H22 C16 0.930 . S
H23 C19 0.930 . S
C24 N25 1.314 1_655 S
C24 C26 1.353 . S
C24 H30 0.930 . S
N25 Li1 1.990 . S
N25 C24 1.314 1_455 S
N25 C28 1.279 . S
C26 C24 1.353 . S
C26 C29 1.348 . S
C26 H74 0.929 . S
C27 C28 1.358 . S
C27 C29 1.356 1_455 S
C27 H75 0.930 . S
C28 N25 1.279 . S
C28 C27 1.358 . S
C28 H31 0.930 . S
C29 C26 1.348 . S
C29 C27 1.356 1_655 S
H30 C24 0.930 . S
H31 C28 0.930 . S
C32 C34 1.348 . S
C32 C35 1.356 . S
C32 O62 1.325 . S
N33 C36 1.314 . S
N33 C37 1.279 . S
C34 C32 1.348 . S
C34 C36 1.353 . S
C34 H76 0.925 1_455 S
C35 C32 1.356 . S
C35 C37 1.358 . S
C35 H77 0.930 . S
C36 N33 1.314 . S
C36 C34 1.353 . S
C36 H78 0.930 . S
C37 N33 1.279 . S
C37 C35 1.358 . S
C37 H79 0.930 . S
C38 C39 1.348 . S
C38 C40 1.356 . S
C38 O63 1.325 . S
C39 C38 1.348 . S
C39 C41 1.353 . S
C39 H80 0.929 . S
C40 C38 1.356 . S
C40 C42 1.358 . S
C40 H81 0.930 . S
C41 C39 1.353 . S
C41 N43 1.314 . S
C41 H82 0.930 . S
C42 C40 1.358 . S
C42 N43 1.279 . S
C42 H83 0.930 . S
N43 C41 1.314 . S
N43 C42 1.279 . S
C44 C46 1.353 . S
C44 N47 1.314 . S
C44 H50 0.930 . S
C45 N47 1.279 . S
C45 C48 1.358 . S
C45 H51 0.930 . S
C46 C44 1.353 . S
C46 C49 1.348 . S
C46 H84 0.929 . S
N47 Li2 1.990 . S
N47 C44 1.314 . S
N47 C45 1.279 . S
C48 C45 1.358 . S
C48 C49 1.356 . S
C48 H85 0.930 . S
C49 C46 1.348 . S
C49 C48 1.356 . S
H50 C44 0.930 . S
H51 C45 0.930 . S
C52 N53 1.314 . S
C52 C54 1.353 . S
C52 H58 0.930 . S
N53 Li3 1.990 . S
N53 C52 1.314 . S
N53 C56 1.279 1_455 S
C54 C52 1.353 . S
C54 C57 1.348 . S
C54 H86 0.929 . S
C55 C56 1.355 1_455 S
C55 C57 1.381 . S
C55 H87 0.909 1_455 S
C56 N53 1.279 1_655 S
C56 C55 1.355 1_655 S
C56 H59 0.930 . S
C57 C54 1.348 . S
C57 C55 1.381 . S
H58 C52 0.930 . S
H59 C56 0.930 . S
O60 Li0 1.956 1_655 S
O60 Li1 1.970 1_655 S
O60 Li2 1.961 . S
O60 C4 1.325 . S
O61 Li0 1.970 . S
O61 Li1 1.956 . S
O61 Li3 1.961 . S
O61 C10 1.325 . S
O62 Li0 1.961 . S
O62 Li2 1.956 1_455 S
O62 Li3 1.970 . S
O62 C32 1.325 . S
O63 Li1 1.961 1_655 S
O63 Li2 1.970 . S
O63 Li3 1.956 1_655 S
O63 C38 1.325 . S
H64 C6 0.929 1_455 S
H65 C7 0.930 . S
H66 C8 0.930 . S
H67 C9 0.930 . S
H68 C11 0.930 . S
H69 C13 0.929 . S
H70 C14 0.930 . S
H71 C15 0.930 . S
H72 C18 0.930 . S
H73 C21 0.929 . S
H74 C26 0.929 . S
H75 C27 0.930 . S
H76 C34 0.925 1_655 S
H77 C35 0.930 . S
H78 C36 0.930 . S
H79 C37 0.930 . S
H80 C39 0.929 . S
H81 C40 0.930 . S
H82 C41 0.930 . S
H83 C42 0.930 . S
H84 C46 0.929 . S
H85 C48 0.930 . S
H86 C54 0.929 . S
H87 C55 0.909 1_655 S
Li88 N105 1.990 . S
Li88 O148 1.956 . S
Li88 O149 1.970 . S
Li88 O150 1.961 1_545 S
Li89 N113 1.990 . S
Li89 O148 1.970 . S
Li89 O149 1.956 . S
Li89 O151 1.961 1_545 S
Li90 N135 1.990 . S
Li90 O148 1.961 1_565 S
Li90 O150 1.956 . S
Li90 O151 1.970 . S
Li91 N141 1.990 . S
Li91 O149 1.961 . S
Li91 O150 1.970 1_545 S
Li91 O151 1.956 1_545 S
C92 C94 1.348 . S
C92 C95 1.356 1_545 S
C92 O148 1.325 . S
N93 C96 1.314 . S
N93 C97 1.279 1_545 S
C94 C92 1.348 . S
C94 C96 1.353 . S
C94 H152 0.929 . S
C95 C92 1.356 1_565 S
C95 C97 1.358 . S
C95 H153 0.930 . S
C96 N93 1.314 . S
C96 C94 1.353 . S
C96 H154 0.930 . S
C97 N93 1.279 1_565 S
C97 C95 1.358 . S
C97 H155 0.930 . S
C98 C101 1.348 . S
C98 C102 1.356 . S
C98 O149 1.325 . S
C99 N100 1.279 . S
C99 C102 1.358 . S
C99 H156 0.930 . S
N100 C99 1.279 . S
N100 C103 1.314 . S
C101 C98 1.348 . S
C101 C103 1.353 . S
C101 H157 0.929 . S
C102 C98 1.356 . S
C102 C99 1.358 . S
C102 H158 0.930 . S
C103 N100 1.314 . S
C103 C101 1.353 . S
C103 H159 0.930 . S
C104 N105 1.314 . S
C104 C109 1.353 . S
C104 H110 0.930 . S
N105 Li88 1.990 . S
N105 C104 1.314 . S
N105 C107 1.279 . S
C106 C107 1.358 . S
C106 C108 1.356 . S
C106 H160 0.930 . S
C107 N105 1.279 . S
C107 C106 1.358 . S
C107 H111 0.930 . S
C108 C106 1.356 . S
C108 C109 1.348 . S
C109 C104 1.353 . S
C109 C108 1.348 . S
C109 H161 0.929 . S
H110 C104 0.930 . S
H111 C107 0.930 . S
C112 N113 1.314 . S
C112 C114 1.353 . S
C112 H118 0.930 . S
N113 Li89 1.990 . S
N113 C112 1.314 . S
N113 C116 1.279 . S
C114 C112 1.353 . S
C114 C117 1.348 . S
C114 H162 0.929 . S
C115 C116 1.358 . S
C115 C117 1.356 . S
C115 H163 0.930 . S
C116 N113 1.279 . S
C116 C115 1.358 . S
C116 H119 0.930 . S
C117 C114 1.348 . S
C117 C115 1.356 . S
H118 C112 0.930 . S
H119 C116 0.930 . S
C120 C122 1.348 . S
C120 C123 1.356 . S
C120 O150 1.325 . S
N121 C124 1.314 . S
N121 C125 1.279 . S
C122 C120 1.348 . S
C122 C124 1.353 . S
C122 H164 0.929 . S
C123 C120 1.356 . S
C123 C125 1.358 . S
C123 H165 0.930 . S
C124 N121 1.314 . S
C124 C122 1.353 . S
C124 H166 0.930 . S
C125 N121 1.279 . S
C125 C123 1.358 . S
C125 H167 0.930 . S
C126 C127 1.348 . S
C126 C128 1.356 1_565 S
C126 O151 1.325 . S
C127 C126 1.348 . S
C127 C129 1.353 . S
C127 H168 0.929 . S
C128 C126 1.356 1_545 S
C128 C130 1.358 . S
C128 H169 0.930 . S
C129 C127 1.353 . S
C129 N131 1.314 . S
C129 H170 0.930 . S
C130 C128 1.358 . S
C130 N131 1.279 1_545 S
C130 H171 0.930 . S
N131 C129 1.314 . S
N131 C130 1.279 1_565 S
C132 C134 1.353 . S
C132 N135 1.314 . S
C132 H138 0.930 . S
C133 N135 1.279 . S
C133 C136 1.358 . S
C133 H139 0.930 . S
C134 C132 1.353 . S
C134 C137 1.348 . S
C134 H172 0.929 . S
N135 Li90 1.990 . S
N135 C132 1.314 . S
N135 C133 1.279 . S
C136 C133 1.358 . S
C136 C137 1.356 . S
C136 H173 0.930 . S
C137 C134 1.348 . S
C137 C136 1.356 . S
H138 C132 0.930 . S
H139 C133 0.930 . S
C140 N141 1.314 . S
C140 C142 1.353 . S
C140 H146 0.930 . S
N141 Li91 1.990 . S
N141 C140 1.314 . S
N141 C144 1.279 1_545 S
C142 C140 1.353 . S
C142 C145 1.348 1_545 S
C142 H174 0.929 . S
C143 C144 1.358 . S
C143 C145 1.356 . S
C143 H175 0.930 . S
C144 N141 1.279 1_565 S
C144 C143 1.358 . S
C144 H147 0.930 . S
C145 C142 1.348 1_565 S
C145 C143 1.356 . S
H146 C140 0.930 . S
H147 C144 0.930 . S
O148 Li88 1.956 . S
O148 Li89 1.970 . S
O148 Li90 1.961 1_545 S
O148 C92 1.325 . S
O149 Li88 1.970 . S
O149 Li89 1.956 . S
O149 Li91 1.961 . S
O149 C98 1.325 . S
O150 Li88 1.961 1_565 S
O150 Li90 1.956 . S
O150 Li91 1.970 1_565 S
O150 C120 1.325 . S
O151 Li89 1.961 1_565 S
O151 Li90 1.970 . S
O151 Li91 1.956 1_565 S
O151 C126 1.325 . S
H152 C94 0.929 . S
H153 C95 0.930 . S
H154 C96 0.930 . S
H155 C97 0.930 . S
H156 C99 0.930 . S
H157 C101 0.929 . S
H158 C102 0.930 . S
H159 C103 0.930 . S
H160 C106 0.930 . S
H161 C109 0.929 . S
H162 C114 0.929 . S
H163 C115 0.930 . S
H164 C122 0.929 . S
H165 C123 0.930 . S
H166 C124 0.930 . S
H167 C125 0.930 . S
H168 C127 0.929 . S
H169 C128 0.930 . S
H170 C129 0.930 . S
H171 C130 0.930 . S
H172 C134 0.929 . S
H173 C136 0.930 . S
H174 C142 0.929 . S
H175 C143 0.930 . S
Li176 N193 1.990 . S
Li176 O236 1.956 1_655 S
Li176 O237 1.970 . S
Li176 O238 1.961 . S
Li177 N201 1.990 . S
Li177 O236 1.970 1_655 S
Li177 O237 1.956 . S
Li177 O239 1.961 1_655 S
Li178 N223 1.990 . S
Li178 O236 1.961 . S
Li178 O238 1.956 1_455 S
Li178 O239 1.970 . S
Li179 N229 1.990 . S
Li179 O237 1.961 . S
Li179 O238 1.970 . S
Li179 O239 1.956 1_655 S
C180 C182 1.348 . S
C180 C183 1.356 . S
C180 O236 1.325 . S
N181 C184 1.314 . S
N181 C185 1.279 . S
C182 C180 1.348 . S
C182 C184 1.353 . S
C182 H240 0.929 1_455 S
C183 C180 1.356 . S
C183 C185 1.358 . S
C183 H241 0.930 . S
C184 N181 1.314 . S
C184 C182 1.353 . S
C184 H242 0.930 . S
C185 N181 1.279 . S
C185 C183 1.358 . S
C185 H243 0.930 . S
C186 C189 1.348 . S
C186 C190 1.356 . S
C186 O237 1.325 . S
C187 N188 1.279 . S
C187 C190 1.358 . S
C187 H244 0.930 . S
N188 C187 1.279 . S
N188 C191 1.314 . S
C189 C186 1.348 . S
C189 C191 1.353 . S
C189 H245 0.929 . S
C190 C186 1.356 . S
C190 C187 1.358 . S
C190 H246 0.930 . S
C191 N188 1.314 . S
C191 C189 1.353 . S
C191 H247 0.930 . S
C192 N193 1.314 . S
C192 C197 1.353 . S
C192 H198 0.930 . S
N193 Li176 1.990 . S
N193 C192 1.314 . S
N193 C195 1.279 . S
C194 C195 1.358 . S
C194 C196 1.356 . S
C194 H248 0.930 . S
C195 N193 1.279 . S
C195 C194 1.358 . S
C195 H199 0.930 . S
C196 C194 1.356 . S
C196 C197 1.348 . S
C197 C192 1.353 . S
C197 C196 1.348 . S
C197 H249 0.929 . S
H198 C192 0.930 . S
H199 C195 0.930 . S
C200 N201 1.314 1_455 S
C200 C202 1.353 . S
C200 H206 0.930 . S
N201 Li177 1.990 . S
N201 C200 1.314 1_655 S
N201 C204 1.279 . S
C202 C200 1.353 . S
C202 C205 1.348 . S
C202 H250 0.929 . S
C203 C204 1.358 . S
C203 C205 1.356 1_655 S
C203 H251 0.930 . S
C204 N201 1.279 . S
C204 C203 1.358 . S
C204 H207 0.930 . S
C205 C202 1.348 . S
C205 C203 1.356 1_455 S
H206 C200 0.930 . S
H207 C204 0.930 . S
C208 C210 1.348 . S
C208 C211 1.356 . S
C208 O238 1.325 . S
N209 C212 1.314 . S
N209 C213 1.279 . S
C210 C208 1.348 . S
C210 C212 1.353 . S
C210 H252 0.925 1_655 S
C211 C208 1.356 . S
C211 C213 1.358 . S
C211 H253 0.930 . S
C212 N209 1.314 . S
C212 C210 1.353 . S
C212 H254 0.930 . S
C213 N209 1.279 . S
C213 C211 1.358 . S
C213 H255 0.930 . S
C214 C215 1.348 . S
C214 C216 1.356 . S
C214 O239 1.325 . S
C215 C214 1.348 . S
C215 C217 1.353 . S
C215 H256 0.929 . S
C216 C214 1.356 . S
C216 C218 1.358 . S
C216 H257 0.930 . S
C217 C215 1.353 . S
C217 N219 1.314 . S
C217 H258 0.930 . S
C218 C216 1.358 . S
C218 N219 1.279 . S
C218 H259 0.930 . S
N219 C217 1.314 . S
N219 C218 1.279 . S
C220 C222 1.353 . S
C220 N223 1.314 . S
C220 H226 0.930 . S
C221 N223 1.279 . S
C221 C224 1.358 . S
C221 H227 0.930 . S
C222 C220 1.353 . S
C222 C225 1.348 . S
C222 H260 0.929 . S
N223 Li178 1.990 . S
N223 C220 1.314 . S
N223 C221 1.279 . S
C224 C221 1.358 . S
C224 C225 1.356 . S
C224 H261 0.930 . S
C225 C222 1.348 . S
C225 C224 1.356 . S
H226 C220 0.930 . S
H227 C221 0.930 . S
C228 N229 1.314 . S
C228 C230 1.353 . S
C228 H234 0.930 . S
N229 Li179 1.990 . S
N229 C228 1.314 . S
N229 C232 1.279 1_655 S
C230 C228 1.353 . S
C230 C233 1.348 . S
C230 H262 0.929 . S
C231 C232 1.355 1_655 S
C231 C233 1.381 . S
C231 H263 0.909 1_655 S
C232 N229 1.279 1_455 S
C232 C231 1.355 1_455 S
C232 H235 0.930 . S
C233 C230 1.348 . S
C233 C231 1.381 . S
H234 C228 0.930 . S
H235 C232 0.930 . S
O236 Li176 1.956 1_455 S
O236 Li177 1.970 1_455 S
O236 Li178 1.961 . S
O236 C180 1.325 . S
O237 Li176 1.970 . S
O237 Li177 1.956 . S
O237 Li179 1.961 . S
O237 C186 1.325 . S
O238 Li176 1.961 . S
O238 Li178 1.956 1_655 S
O238 Li179 1.970 . S
O238 C208 1.325 . S
O239 Li177 1.961 1_455 S
O239 Li178 1.970 . S
O239 Li179 1.956 1_455 S
O239 C214 1.325 . S
H240 C182 0.929 1_655 S
H241 C183 0.930 . S
H242 C184 0.930 . S
H243 C185 0.930 . S
H244 C187 0.930 . S
H245 C189 0.929 . S
H246 C190 0.930 . S
H247 C191 0.930 . S
H248 C194 0.930 . S
H249 C197 0.929 . S
H250 C202 0.929 . S
H251 C203 0.930 . S
H252 C210 0.925 1_455 S
H253 C211 0.930 . S
H254 C212 0.930 . S
H255 C213 0.930 . S
H256 C215 0.929 . S
H257 C216 0.930 . S
H258 C217 0.930 . S
H259 C218 0.930 . S
H260 C222 0.929 . S
H261 C224 0.930 . S
H262 C230 0.929 . S
H263 C231 0.909 1_455 S
Li264 N281 1.990 . S
Li264 O324 1.956 1_565 S
Li264 O325 1.970 1_565 S
Li264 O326 1.961 . S
Li265 N289 1.990 . S
Li265 O324 1.970 . S
Li265 O325 1.956 . S
Li265 O327 1.961 1_545 S
Li266 N311 1.990 . S
Li266 O324 1.961 1_565 S
Li266 O326 1.956 . S
Li266 O327 1.970 . S
Li267 N317 1.990 . S
Li267 O325 1.961 1_565 S
Li267 O326 1.970 . S
Li267 O327 1.956 . S
C268 C270 1.348 . S
C268 C271 1.356 1_545 S
C268 O324 1.325 . S
N269 C272 1.314 . S
N269 C273 1.279 1_545 S
C270 C268 1.348 . S
C270 C272 1.353 . S
C270 H328 0.929 . S
C271 C268 1.356 1_565 S
C271 C273 1.358 . S
C271 H329 0.930 . S
C272 N269 1.314 . S
C272 C270 1.353 . S
C272 H330 0.930 . S
C273 N269 1.279 1_565 S
C273 C271 1.358 . S
C273 H331 0.930 . S
C274 C277 1.348 . S
C274 C278 1.356 . S
C274 O325 1.325 . S
C275 N276 1.279 . S
C275 C278 1.358 . S
C275 H332 0.930 . S
N276 C275 1.279 . S
N276 C279 1.314 . S
C277 C274 1.348 . S
C277 C279 1.353 . S
C277 H333 0.929 . S
C278 C274 1.356 . S
C278 C275 1.358 . S
C278 H334 0.930 . S
C279 N276 1.314 . S
C279 C277 1.353 . S
C279 H335 0.930 . S
C280 N281 1.314 . S
C280 C285 1.353 . S
C280 H286 0.930 . S
N281 Li264 1.990 . S
N281 C280 1.314 . S
N281 C283 1.279 1_565 S
C282 C283 1.358 . S
C282 C284 1.356 . S
C282 H336 0.930 . S
C283 N281 1.279 1_545 S
C283 C282 1.358 . S
C283 H287 0.930 . S
C284 C282 1.356 . S
C284 C285 1.348 1_545 S
C285 C280 1.353 . S
C285 C284 1.348 1_565 S
C285 H337 0.929 . S
H286 C280 0.930 . S
H287 C283 0.930 . S
C288 N289 1.314 . S
C288 C290 1.353 . S
C288 H294 0.930 . S
N289 Li265 1.990 . S
N289 C288 1.314 . S
N289 C292 1.279 . S
C290 C288 1.353 . S
C290 C293 1.348 . S
C290 H338 0.929 . S
C291 C292 1.358 . S
C291 C293 1.356 . S
C291 H339 0.930 . S
C292 N289 1.279 . S
C292 C291 1.358 . S
C292 H295 0.930 . S
C293 C290 1.348 . S
C293 C291 1.356 . S
H294 C288 0.930 . S
H295 C292 0.930 . S
C296 C298 1.348 . S
C296 C299 1.356 . S
C296 O326 1.325 . S
N297 C300 1.314 . S
N297 C301 1.279 . S
C298 C296 1.348 . S
C298 C300 1.353 . S
C298 H340 0.929 . S
C299 C296 1.356 . S
C299 C301 1.358 . S
C299 H341 0.930 . S
C300 N297 1.314 . S
C300 C298 1.353 . S
C300 H342 0.930 . S
C301 N297 1.279 . S
C301 C299 1.358 . S
C301 H343 0.930 . S
C302 C303 1.348 . S
C302 C304 1.356 1_565 S
C302 O327 1.325 . S
C303 C302 1.348 . S
C303 C305 1.353 . S
C303 H344 0.929 . S
C304 C302 1.356 1_545 S
C304 C306 1.358 . S
C304 H345 0.930 . S
C305 C303 1.353 . S
C305 N307 1.314 . S
C305 H346 0.930 . S
C306 C304 1.358 . S
C306 N307 1.279 1_545 S
C306 H347 0.930 . S
N307 C305 1.314 . S
N307 C306 1.279 1_565 S
C308 C310 1.353 . S
C308 N311 1.314 . S
C308 H314 0.930 . S
C309 N311 1.279 . S
C309 C312 1.358 . S
C309 H315 0.930 . S
C310 C308 1.353 . S
C310 C313 1.348 . S
C310 H348 0.929 . S
N311 Li266 1.990 . S
N311 C308 1.314 . S
N311 C309 1.279 . S
C312 C309 1.358 . S
C312 C313 1.356 . S
C312 H349 0.930 . S
C313 C310 1.348 . S
C313 C312 1.356 . S
H314 C308 0.930 . S
H315 C309 0.930 . S
C316 N317 1.314 . S
C316 C318 1.353 . S
C316 H322 0.930 . S
N317 Li267 1.990 . S
N317 C316 1.314 . S
N317 C320 1.279 . S
C318 C316 1.353 . S
C318 C321 1.348 . S
C318 H350 0.929 . S
C319 C320 1.358 . S
C319 C321 1.356 . S
C319 H351 0.930 . S
C320 N317 1.279 . S
C320 C319 1.358 . S
C320 H323 0.930 . S
C321 C318 1.348 . S
C321 C319 1.356 . S
H322 C316 0.930 . S
H323 C320 0.930 . S
O324 Li264 1.956 1_545 S
O324 Li265 1.970 . S
O324 Li266 1.961 1_545 S
O324 C268 1.325 . S
O325 Li264 1.970 1_545 S
O325 Li265 1.956 . S
O325 Li267 1.961 1_545 S
O325 C274 1.325 . S
O326 Li264 1.961 . S
O326 Li266 1.956 . S
O326 Li267 1.970 . S
O326 C296 1.325 . S
O327 Li265 1.961 1_565 S
O327 Li266 1.970 . S
O327 Li267 1.956 . S
O327 C302 1.325 . S
H328 C270 0.929 . S
H329 C271 0.930 . S
H330 C272 0.930 . S
H331 C273 0.930 . S
H332 C275 0.930 . S
H333 C277 0.929 . S
H334 C278 0.930 . S
H335 C279 0.930 . S
H336 C282 0.930 . S
H337 C285 0.929 . S
H338 C290 0.929 . S
H339 C291 0.930 . S
H340 C298 0.929 . S
H341 C299 0.930 . S
H342 C300 0.930 . S
H343 C301 0.930 . S
H344 C303 0.929 . S
H345 C304 0.930 . S
H346 C305 0.930 . S
H347 C306 0.930 . S
H348 C310 0.929 . S
H349 C312 0.930 . S
H350 C318 0.929 . S
H351 C319 0.930 . S
Li352 N369 1.990 . S
Li352 O412 1.956 1_455 S
Li352 O413 1.970 . S
Li352 O414 1.961 . S
Li353 N377 1.990 . S
Li353 O412 1.970 . S
Li353 O413 1.956 1_655 S
Li353 O415 1.961 . S
Li354 N399 1.990 . S
Li354 O412 1.961 1_455 S
Li354 O414 1.956 . S
Li354 O415 1.970 1_455 S
Li355 N405 1.990 . S
Li355 O413 1.961 . S
Li355 O414 1.970 . S
Li355 O415 1.956 1_455 S
C356 C358 1.348 . S
C356 C359 1.356 . S
C356 O412 1.325 . S
N357 C360 1.314 . S
N357 C361 1.279 . S
C358 C356 1.348 . S
C358 C360 1.353 . S
C358 H416 0.929 . S
C359 C356 1.356 . S
C359 C361 1.358 . S
C359 H417 0.930 . S
C360 N357 1.314 . S
C360 C358 1.353 . S
C360 H418 0.930 . S
C361 N357 1.279 . S
C361 C359 1.358 . S
C361 H419 0.930 . S
C362 C365 1.348 . S
C362 C366 1.356 . S
C362 O413 1.325 . S
C363 N364 1.279 . S
C363 C366 1.358 . S
C363 H420 0.930 . S
N364 C363 1.279 . S
N364 C367 1.314 . S
C365 C362 1.348 . S
C365 C367 1.353 . S
C365 H421 0.925 1_455 S
C366 C362 1.356 . S
C366 C363 1.358 . S
C366 H422 0.930 . S
C367 N364 1.314 . S
C367 C365 1.353 . S
C367 H423 0.930 . S
C368 N369 1.314 . S
C368 C373 1.353 . S
C368 H374 0.930 . S
N369 Li352 1.990 . S
N369 C368 1.314 . S
N369 C371 1.279 1_455 S
C370 C371 1.355 1_455 S
C370 C372 1.381 . S
C370 H424 0.909 1_455 S
C371 N369 1.279 1_655 S
C371 C370 1.355 1_655 S
C371 H375 0.930 . S
C372 C370 1.381 . S
C372 C373 1.348 . S
C373 C368 1.353 . S
C373 C372 1.348 . S
C373 H425 0.929 . S
H374 C368 0.930 . S
H375 C371 0.930 . S
C376 N377 1.314 . S
C376 C378 1.353 . S
C376 H382 0.930 . S
N377 Li353 1.990 . S
N377 C376 1.314 . S
N377 C380 1.279 . S
C378 C376 1.353 . S
C378 C381 1.348 . S
C378 H426 0.929 . S
C379 C380 1.358 . S
C379 C381 1.356 . S
C379 H427 0.930 . S
C380 N377 1.279 . S
C380 C379 1.358 . S
C380 H383 0.930 . S
C381 C378 1.348 . S
C381 C379 1.356 . S
H382 C376 0.930 . S
H383 C380 0.930 . S
C384 C386 1.348 . S
C384 C387 1.356 . S
C384 O414 1.325 . S
N385 C388 1.314 . S
N385 C389 1.279 . S
C386 C384 1.348 . S
C386 C388 1.353 . S
C386 H428 0.929 . S
C387 C384 1.356 . S
C387 C389 1.358 . S
C387 H429 0.930 . S
C388 N385 1.314 . S
C388 C386 1.353 . S
C388 H430 0.930 . S
C389 N385 1.279 . S
C389 C387 1.358 . S
C389 H431 0.930 . S
C390 C391 1.348 . S
C390 C392 1.356 . S
C390 O415 1.325 . S
C391 C390 1.348 . S
C391 C393 1.353 . S
C391 H432 0.929 1_655 S
C392 C390 1.356 . S
C392 C394 1.358 . S
C392 H433 0.930 . S
C393 C391 1.353 . S
C393 N395 1.314 . S
C393 H434 0.930 . S
C394 C392 1.358 . S
C394 N395 1.279 . S
C394 H435 0.930 . S
N395 C393 1.314 . S
N395 C394 1.279 . S
C396 C398 1.353 . S
C396 N399 1.314 1_655 S
C396 H402 0.930 . S
C397 N399 1.279 . S
C397 C400 1.358 . S
C397 H403 0.930 . S
C398 C396 1.353 . S
C398 C401 1.348 . S
C398 H436 0.929 . S
N399 Li354 1.990 . S
N399 C396 1.314 1_455 S
N399 C397 1.279 . S
C400 C397 1.358 . S
C400 C401 1.356 1_455 S
C400 H437 0.930 . S
C401 C398 1.348 . S
C401 C400 1.356 1_655 S
H402 C396 0.930 . S
H403 C397 0.930 . S
C404 N405 1.314 . S
C404 C406 1.353 . S
C404 H410 0.930 . S
N405 Li355 1.990 . S
N405 C404 1.314 . S
N405 C408 1.279 . S
C406 C404 1.353 . S
C406 C409 1.348 . S
C406 H438 0.929 . S
C407 C408 1.358 . S
C407 C409 1.356 . S
C407 H439 0.930 . S
C408 N405 1.279 . S
C408 C407 1.358 . S
C408 H411 0.930 . S
C409 C406 1.348 . S
C409 C407 1.356 . S
H410 C404 0.930 . S
H411 C408 0.930 . S
O412 Li352 1.956 1_655 S
O412 Li353 1.970 . S
O412 Li354 1.961 1_655 S
O412 C356 1.325 . S
O413 Li352 1.970 . S
O413 Li353 1.956 1_455 S
O413 Li355 1.961 . S
O413 C362 1.325 . S
O414 Li352 1.961 . S
O414 Li354 1.956 . S
O414 Li355 1.970 . S
O414 C384 1.325 . S
O415 Li353 1.961 . S
O415 Li354 1.970 1_655 S
O415 Li355 1.956 1_655 S
O415 C390 1.325 . S
H416 C358 0.929 . S
H417 C359 0.930 . S
H418 C360 0.930 . S
H419 C361 0.930 . S
H420 C363 0.930 . S
H421 C365 0.925 1_655 S
H422 C366 0.930 . S
H423 C367 0.930 . S
H424 C370 0.909 1_655 S
H425 C373 0.929 . S
H426 C378 0.929 . S
H427 C379 0.930 . S
H428 C386 0.929 . S
H429 C387 0.930 . S
H430 C388 0.930 . S
H431 C389 0.930 . S
H432 C391 0.929 1_455 S
H433 C392 0.930 . S
H434 C393 0.930 . S
H435 C394 0.930 . S
H436 C398 0.929 . S
H437 C400 0.930 . S
H438 C406 0.929 . S
H439 C407 0.930 . S
Li440 N457 1.990 . S
Li440 O500 1.956 . S
Li440 O501 1.970 . S
Li440 O502 1.961 1_545 S
Li441 N465 1.990 . S
Li441 O500 1.970 . S
Li441 O501 1.956 . S
Li441 O503 1.961 1_545 S
Li442 N487 1.990 . S
Li442 O500 1.961 . S
Li442 O502 1.956 1_545 S
Li442 O503 1.970 1_545 S
Li443 N493 1.990 . S
Li443 O501 1.961 1_565 S
Li443 O502 1.970 . S
Li443 O503 1.956 . S
C444 C446 1.348 . S
C444 C447 1.356 . S
C444 O500 1.325 . S
N445 C448 1.314 . S
N445 C449 1.279 . S
C446 C444 1.348 . S
C446 C448 1.353 . S
C446 H504 0.929 . S
C447 C444 1.356 . S
C447 C449 1.358 . S
C447 H505 0.930 . S
C448 N445 1.314 . S
C448 C446 1.353 . S
C448 H506 0.930 . S
C449 N445 1.279 . S
C449 C447 1.358 . S
C449 H507 0.930 . S
C450 C453 1.348 . S
C450 C454 1.356 1_545 S
C450 O501 1.325 . S
C451 N452 1.279 1_565 S
C451 C454 1.358 . S
C451 H508 0.930 . S
N452 C451 1.279 1_545 S
N452 C455 1.314 . S
C453 C450 1.348 . S
C453 C455 1.353 . S
C453 H509 0.929 . S
C454 C450 1.356 1_565 S
C454 C451 1.358 . S
C454 H510 0.930 . S
C455 N452 1.314 . S
C455 C453 1.353 . S
C455 H511 0.930 . S
C456 N457 1.314 . S
C456 C461 1.353 . S
C456 H462 0.930 . S
N457 Li440 1.990 . S
N457 C456 1.314 . S
N457 C459 1.279 . S
C458 C459 1.358 . S
C458 C460 1.356 . S
C458 H512 0.930 . S
C459 N457 1.279 . S
C459 C458 1.358 . S
C459 H463 0.930 . S
C460 C458 1.356 . S
C460 C461 1.348 . S
C461 C456 1.353 . S
C461 C460 1.348 . S
C461 H513 0.929 . S
H462 C456 0.930 . S
H463 C459 0.930 . S
C464 N465 1.314 . S
C464 C466 1.353 . S
C464 H470 0.930 . S
N465 Li441 1.990 . S
N465 C464 1.314 . S
N465 C468 1.279 . S
C466 C464 1.353 . S
C466 C469 1.348 . S
C466 H514 0.929 . S
C467 C468 1.358 . S
C467 C469 1.356 . S
C467 H515 0.930 . S
C468 N465 1.279 . S
C468 C467 1.358 . S
C468 H471 0.930 . S
C469 C466 1.348 . S
C469 C467 1.356 . S
H470 C464 0.930 . S
H471 C468 0.930 . S
C472 C474 1.348 . S
C472 C475 1.356 1_565 S
C472 O502 1.325 . S
N473 C476 1.314 . S
N473 C477 1.279 1_565 S
C474 C472 1.348 . S
C474 C476 1.353 . S
C474 H516 0.929 . S
C475 C472 1.356 1_545 S
C475 C477 1.358 . S
C475 H517 0.930 . S
C476 N473 1.314 . S
C476 C474 1.353 . S
C476 H518 0.930 . S
C477 N473 1.279 1_545 S
C477 C475 1.358 . S
C477 H519 0.930 . S
C478 C479 1.348 . S
C478 C480 1.356 . S
C478 O503 1.325 . S
C479 C478 1.348 . S
C479 C481 1.353 . S
C479 H520 0.929 . S
C480 C478 1.356 . S
C480 C482 1.358 . S
C480 H521 0.930 . S
C481 C479 1.353 . S
C481 N483 1.314 . S
C481 H522 0.930 . S
C482 C480 1.358 . S
C482 N483 1.279 . S
C482 H523 0.930 . S
N483 C481 1.314 . S
N483 C482 1.279 . S
C484 C486 1.353 . S
C484 N487 1.314 . S
C484 H490 0.930 . S
C485 N487 1.279 1_565 S
C485 C488 1.358 . S
C485 H491 0.930 . S
C486 C484 1.353 . S
C486 C489 1.348 1_545 S
C486 H524 0.929 . S
N487 Li442 1.990 . S
N487 C484 1.314 . S
N487 C485 1.279 1_545 S
C488 C485 1.358 . S
C488 C489 1.356 . S
C488 H525 0.930 . S
C489 C486 1.348 1_565 S
C489 C488 1.356 . S
H490 C484 0.930 . S
H491 C485 0.930 . S
C492 N493 1.314 . S
C492 C494 1.353 . S
C492 H498 0.930 . S
N493 Li443 1.990 . S
N493 C492 1.314 . S
N493 C496 1.279 . S
C494 C492 1.353 . S
C494 C497 1.348 . S
C494 H526 0.929 . S
C495 C496 1.358 . S
C495 C497 1.356 . S
C495 H527 0.930 . S
C496 N493 1.279 . S
C496 C495 1.358 . S
C496 H499 0.930 . S
C497 C494 1.348 . S
C497 C495 1.356 . S
H498 C492 0.930 . S
H499 C496 0.930 . S
O500 Li440 1.956 . S
O500 Li441 1.970 . S
O500 Li442 1.961 . S
O500 C444 1.325 . S
O501 Li440 1.970 . S
O501 Li441 1.956 . S
O501 Li443 1.961 1_545 S
O501 C450 1.325 . S
O502 Li440 1.961 1_565 S
O502 Li442 1.956 1_565 S
O502 Li443 1.970 . S
O502 C472 1.325 . S
O503 Li441 1.961 1_565 S
O503 Li442 1.970 1_565 S
O503 Li443 1.956 . S
O503 C478 1.325 . S
H504 C446 0.929 . S
H505 C447 0.930 . S
H506 C448 0.930 . S
H507 C449 0.930 . S
H508 C451 0.930 . S
H509 C453 0.929 . S
H510 C454 0.930 . S
H511 C455 0.930 . S
H512 C458 0.930 . S
H513 C461 0.929 . S
H514 C466 0.929 . S
H515 C467 0.930 . S
H516 C474 0.929 . S
H517 C475 0.930 . S
H518 C476 0.930 . S
H519 C477 0.930 . S
H520 C479 0.929 . S
H521 C480 0.930 . S
H522 C481 0.930 . S
H523 C482 0.930 . S
H524 C486 0.929 . S
H525 C488 0.930 . S
H526 C494 0.929 . S
H527 C495 0.930 . S
Li528 N545 1.990 . S
Li528 O588 1.956 1_655 S
Li528 O589 1.970 . S
Li528 O590 1.961 . S
Li529 N553 1.990 . S
Li529 O588 1.970 . S
Li529 O589 1.956 1_455 S
Li529 O591 1.961 . S
Li530 N575 1.990 . S
Li530 O588 1.961 1_655 S
Li530 O590 1.956 . S
Li530 O591 1.970 1_655 S
Li531 N581 1.990 . S
Li531 O589 1.961 . S
Li531 O590 1.970 . S
Li531 O591 1.956 1_655 S
C532 C534 1.348 . S
C532 C535 1.356 . S
C532 O588 1.325 . S
N533 C536 1.314 . S
N533 C537 1.279 . S
C534 C532 1.348 . S
C534 C536 1.353 . S
C534 H592 0.929 . S
C535 C532 1.356 . S
C535 C537 1.358 . S
C535 H593 0.930 . S
C536 N533 1.314 . S
C536 C534 1.353 . S
C536 H594 0.930 . S
C537 N533 1.279 . S
C537 C535 1.358 . S
C537 H595 0.930 . S
C538 C541 1.348 . S
C538 C542 1.356 . S
C538 O589 1.325 . S
C539 N540 1.279 . S
C539 C542 1.358 . S
C539 H596 0.930 . S
N540 C539 1.279 . S
N540 C543 1.314 . S
C541 C538 1.348 . S
C541 C543 1.353 . S
C541 H597 0.925 1_655 S
C542 C538 1.356 . S
C542 C539 1.358 . S
C542 H598 0.930 . S
C543 N540 1.314 . S
C543 C541 1.353 . S
C543 H599 0.930 . S
C544 N545 1.314 . S
C544 C549 1.353 . S
C544 H550 0.930 . S
N545 Li528 1.990 . S
N545 C544 1.314 . S
N545 C547 1.279 1_655 S
C546 C547 1.355 1_655 S
C546 C548 1.381 . S
C546 H600 0.909 1_655 S
C547 N545 1.279 1_455 S
C547 C546 1.355 1_455 S
C547 H551 0.930 . S
C548 C546 1.381 . S
C548 C549 1.348 . S
C549 C544 1.353 . S
C549 C548 1.348 . S
C549 H601 0.929 . S
H550 C544 0.930 . S
H551 C547 0.930 . S
C552 N553 1.314 . S
C552 C554 1.353 . S
C552 H558 0.930 . S
N553 Li529 1.990 . S
N553 C552 1.314 . S
N553 C556 1.279 . S
C554 C552 1.353 . S
C554 C557 1.348 . S
C554 H602 0.929 . S
C555 C556 1.358 . S
C555 C557 1.356 . S
C555 H603 0.930 . S
C556 N553 1.279 . S
C556 C555 1.358 . S
C556 H559 0.930 . S
C557 C554 1.348 . S
C557 C555 1.356 . S
H558 C552 0.930 . S
H559 C556 0.930 . S
C560 C562 1.348 . S
C560 C563 1.356 . S
C560 O590 1.325 . S
N561 C564 1.314 . S
N561 C565 1.279 . S
C562 C560 1.348 . S
C562 C564 1.353 . S
C562 H604 0.929 . S
C563 C560 1.356 . S
C563 C565 1.358 . S
C563 H605 0.930 . S
C564 N561 1.314 . S
C564 C562 1.353 . S
C564 H606 0.930 . S
C565 N561 1.279 . S
C565 C563 1.358 . S
C565 H607 0.930 . S
C566 C567 1.348 . S
C566 C568 1.356 . S
C566 O591 1.325 . S
C567 C566 1.348 . S
C567 C569 1.353 . S
C567 H608 0.929 1_455 S
C568 C566 1.356 . S
C568 C570 1.358 . S
C568 H609 0.930 . S
C569 C567 1.353 . S
C569 N571 1.314 . S
C569 H610 0.930 . S
C570 C568 1.358 . S
C570 N571 1.279 . S
C570 H611 0.930 . S
N571 C569 1.314 . S
N571 C570 1.279 . S
C572 C574 1.353 . S
C572 N575 1.314 1_455 S
C572 H578 0.930 . S
C573 N575 1.279 . S
C573 C576 1.358 . S
C573 H579 0.930 . S
C574 C572 1.353 . S
C574 C577 1.348 . S
C574 H612 0.929 . S
N575 Li530 1.990 . S
N575 C572 1.314 1_655 S
N575 C573 1.279 . S
C576 C573 1.358 . S
C576 C577 1.356 1_655 S
C576 H613 0.930 . S
C577 C574 1.348 . S
C577 C576 1.356 1_455 S
H578 C572 0.930 . S
H579 C573 0.930 . S
C580 N581 1.314 . S
C580 C582 1.353 . S
C580 H586 0.930 . S
N581 Li531 1.990 . S
N581 C580 1.314 . S
N581 C584 1.279 . S
C582 C580 1.353 . S
C582 C585 1.348 . S
C582 H614 0.929 . S
C583 C584 1.358 . S
C583 C585 1.356 . S
C583 H615 0.930 . S
C584 N581 1.279 . S
C584 C583 1.358 . S
C584 H587 0.930 . S
C585 C582 1.348 . S
C585 C583 1.356 . S
H586 C580 0.930 . S
H587 C584 0.930 . S
O588 Li528 1.956 1_455 S
O588 Li529 1.970 . S
O588 Li530 1.961 1_455 S
O588 C532 1.325 . S
O589 Li528 1.970 . S
O589 Li529 1.956 1_655 S
O589 Li531 1.961 . S
O589 C538 1.325 . S
O590 Li528 1.961 . S
O590 Li530 1.956 . S
O590 Li531 1.970 . S
O590 C560 1.325 . S
O591 Li529 1.961 . S
O591 Li530 1.970 1_455 S
O591 Li531 1.956 1_455 S
O591 C566 1.325 . S
H592 C534 0.929 . S
H593 C535 0.930 . S
H594 C536 0.930 . S
H595 C537 0.930 . S
H596 C539 0.930 . S
H597 C541 0.925 1_455 S
H598 C542 0.930 . S
H599 C543 0.930 . S
H600 C546 0.909 1_455 S
H601 C549 0.929 . S
H602 C554 0.929 . S
H603 C555 0.930 . S
H604 C562 0.929 . S
H605 C563 0.930 . S
H606 C564 0.930 . S
H607 C565 0.930 . S
H608 C567 0.929 1_655 S
H609 C568 0.930 . S
H610 C569 0.930 . S
H611 C570 0.930 . S
H612 C574 0.929 . S
H613 C576 0.930 . S
H614 C582 0.929 . S
H615 C583 0.930 . S
Li616 N633 1.990 . S
Li616 O676 1.956 . S
Li616 O677 1.970 . S
Li616 O678 1.961 1_545 S
Li617 N641 1.990 . S
Li617 O676 1.970 1_565 S
Li617 O677 1.956 1_565 S
Li617 O679 1.961 . S
Li618 N663 1.990 . S
Li618 O676 1.961 1_565 S
Li618 O678 1.956 . S
Li618 O679 1.970 . S
Li619 N669 1.990 . S
Li619 O677 1.961 1_565 S
Li619 O678 1.970 . S
Li619 O679 1.956 . S
C620 C622 1.348 . S
C620 C623 1.356 . S
C620 O676 1.325 . S
N621 C624 1.314 . S
N621 C625 1.279 . S
C622 C620 1.348 . S
C622 C624 1.353 . S
C622 H680 0.929 . S
C623 C620 1.356 . S
C623 C625 1.358 . S
C623 H681 0.930 . S
C624 N621 1.314 . S
C624 C622 1.353 . S
C624 H682 0.930 . S
C625 N621 1.279 . S
C625 C623 1.358 . S
C625 H683 0.930 . S
C626 C629 1.348 . S
C626 C630 1.356 1_545 S
C626 O677 1.325 . S
C627 N628 1.279 1_565 S
C627 C630 1.358 . S
C627 H684 0.930 . S
N628 C627 1.279 1_545 S
N628 C631 1.314 . S
C629 C626 1.348 . S
C629 C631 1.353 . S
C629 H685 0.929 . S
C630 C626 1.356 1_565 S
C630 C627 1.358 . S
C630 H686 0.930 . S
C631 N628 1.314 . S
C631 C629 1.353 . S
C631 H687 0.930 . S
C632 N633 1.314 . S
C632 C637 1.353 . S
C632 H638 0.930 . S
N633 Li616 1.990 . S
N633 C632 1.314 . S
N633 C635 1.279 . S
C634 C635 1.358 . S
C634 C636 1.356 . S
C634 H688 0.930 . S
C635 N633 1.279 . S
C635 C634 1.358 . S
C635 H639 0.930 . S
C636 C634 1.356 . S
C636 C637 1.348 . S
C637 C632 1.353 . S
C637 C636 1.348 . S
C637 H689 0.929 . S
H638 C632 0.930 . S
H639 C635 0.930 . S
C640 N641 1.314 . S
C640 C642 1.353 . S
C640 H646 0.930 . S
N641 Li617 1.990 . S
N641 C640 1.314 . S
N641 C644 1.279 1_565 S
C642 C640 1.353 . S
C642 C645 1.348 1_565 S
C642 H690 0.929 . S
C643 C644 1.358 . S
C643 C645 1.356 . S
C643 H691 0.930 . S
C644 N641 1.279 1_545 S
C644 C643 1.358 . S
C644 H647 0.930 . S
C645 C642 1.348 1_545 S
C645 C643 1.356 . S
H646 C640 0.930 . S
H647 C644 0.930 . S
C648 C650 1.348 . S
C648 C651 1.356 1_565 S
C648 O678 1.325 . S
N649 C652 1.314 . S
N649 C653 1.279 1_565 S
C650 C648 1.348 . S
C650 C652 1.353 . S
C650 H692 0.929 . S
C651 C648 1.356 1_545 S
C651 C653 1.358 . S
C651 H693 0.930 . S
C652 N649 1.314 . S
C652 C650 1.353 . S
C652 H694 0.930 . S
C653 N649 1.279 1_545 S
C653 C651 1.358 . S
C653 H695 0.930 . S
C654 C655 1.348 . S
C654 C656 1.356 . S
C654 O679 1.325 . S
C655 C654 1.348 . S
C655 C657 1.353 . S
C655 H696 0.929 . S
C656 C654 1.356 . S
C656 C658 1.358 . S
C656 H697 0.930 . S
C657 C655 1.353 . S
C657 N659 1.314 . S
C657 H698 0.930 . S
C658 C656 1.358 . S
C658 N659 1.279 . S
C658 H699 0.930 . S
N659 C657 1.314 . S
N659 C658 1.279 . S
C660 C662 1.353 . S
C660 N663 1.314 . S
C660 H666 0.930 . S
C661 N663 1.279 . S
C661 C664 1.358 . S
C661 H667 0.930 . S
C662 C660 1.353 . S
C662 C665 1.348 . S
C662 H700 0.929 . S
N663 Li618 1.990 . S
N663 C660 1.314 . S
N663 C661 1.279 . S
C664 C661 1.358 . S
C664 C665 1.356 . S
C664 H701 0.930 . S
C665 C662 1.348 . S
C665 C664 1.356 . S
H666 C660 0.930 . S
H667 C661 0.930 . S
C668 N669 1.314 . S
C668 C670 1.353 . S
C668 H674 0.930 . S
N669 Li619 1.990 . S
N669 C668 1.314 . S
N669 C672 1.279 . S
C670 C668 1.353 . S
C670 C673 1.348 . S
C670 H702 0.929 . S
C671 C672 1.358 . S
C671 C673 1.356 . S
C671 H703 0.930 . S
C672 N669 1.279 . S
C672 C671 1.358 . S
C672 H675 0.930 . S
C673 C670 1.348 . S
C673 C671 1.356 . S
H674 C668 0.930 . S
H675 C672 0.930 . S
O676 Li616 1.956 . S
O676 Li617 1.970 1_545 S
O676 Li618 1.961 1_545 S
O676 C620 1.325 . S
O677 Li616 1.970 . S
O677 Li617 1.956 1_545 S
O677 Li619 1.961 1_545 S
O677 C626 1.325 . S
O678 Li616 1.961 1_565 S
O678 Li618 1.956 . S
O678 Li619 1.970 . S
O678 C648 1.325 . S
O679 Li617 1.961 . S
O679 Li618 1.970 . S
O679 Li619 1.956 . S
O679 C654 1.325 . S
H680 C622 0.929 . S
H681 C623 0.930 . S
H682 C624 0.930 . S
H683 C625 0.930 . S
H684 C627 0.930 . S
H685 C629 0.929 . S
H686 C630 0.930 . S
H687 C631 0.930 . S
H688 C634 0.930 . S
H689 C637 0.929 . S
H690 C642 0.929 . S
H691 C643 0.930 . S
H692 C650 0.929 . S
H693 C651 0.930 . S
H694 C652 0.930 . S
H695 C653 0.930 . S
H696 C655 0.929 . S
H697 C656 0.930 . S
H698 C657 0.930 . S
H699 C658 0.930 . S
H700 C662 0.929 . S
H701 C664 0.930 . S
H702 C670 0.929 . S
H703 C671 0.930 . S
Li704 N721 1.990 . S
Li704 O764 1.956 . S
Li704 O765 1.970 . S
Li704 O766 1.961 . S
Li705 N729 1.990 . S
Li705 O764 1.970 . S
Li705 O765 1.956 . S
Li705 O767 1.961 . S
Li706 N751 1.990 . S
Li706 O764 1.961 . S
Li706 O766 1.956 . S
Li706 O767 1.970 . S
Li707 N757 1.990 . S
Li707 O765 1.961 . S
Li707 O766 1.970 . S
Li707 O767 1.956 . S
C708 C710 1.348 . S
C708 C711 1.356 . S
C708 O764 1.325 . S
N709 C712 1.314 . S
N709 C713 1.279 . S
C710 C708 1.348 . S
C710 C712 1.353 . S
C710 H768 0.929 . S
C711 C708 1.356 . S
C711 C713 1.358 . S
C711 H769 0.930 . S
C712 N709 1.314 . S
C712 C710 1.353 . S
C712 H770 0.930 . S
C713 N709 1.279 . S
C713 C711 1.358 . S
C713 H771 0.930 . S
C714 C717 1.348 . S
C714 C718 1.356 . S
C714 O765 1.325 . S
C715 N716 1.279 . S
C715 C718 1.358 . S
C715 H772 0.930 . S
N716 C715 1.279 . S
N716 C719 1.314 . S
C717 C714 1.348 . S
C717 C719 1.353 . S
C717 H773 0.929 . S
C718 C714 1.356 . S
C718 C715 1.358 . S
C718 H774 0.930 . S
C719 N716 1.314 . S
C719 C717 1.353 . S
C719 H775 0.930 . S
C720 N721 1.314 . S
C720 C725 1.353 . S
C720 H726 0.930 . S
N721 Li704 1.990 . S
N721 C720 1.314 . S
N721 C723 1.279 . S
C722 C723 1.358 . S
C722 C724 1.356 . S
C722 H776 0.930 . S
C723 N721 1.279 . S
C723 C722 1.358 . S
C723 H727 0.930 . S
C724 C722 1.356 . S
C724 C725 1.348 . S
C725 C720 1.353 . S
C725 C724 1.348 . S
C725 H777 0.929 . S
H726 C720 0.930 . S
H727 C723 0.930 . S
C728 N729 1.314 . S
C728 C730 1.353 . S
C728 H734 0.930 . S
N729 Li705 1.990 . S
N729 C728 1.314 . S
N729 C732 1.279 . S
C730 C728 1.353 . S
C730 C733 1.348 . S
C730 H778 0.929 . S
C731 C732 1.358 . S
C731 C733 1.356 . S
C731 H779 0.930 . S
C732 N729 1.279 . S
C732 C731 1.358 . S
C732 H735 0.930 . S
C733 C730 1.348 . S
C733 C731 1.356 . S
H734 C728 0.930 . S
H735 C732 0.930 . S
C736 C738 1.348 . S
C736 C739 1.356 . S
C736 O766 1.325 . S
N737 C740 1.314 . S
N737 C741 1.279 . S
C738 C736 1.348 . S
C738 C740 1.353 . S
C738 H780 0.929 . S
C739 C736 1.356 . S
C739 C741 1.358 . S
C739 H781 0.930 . S
C740 N737 1.314 . S
C740 C738 1.353 . S
C740 H782 0.930 . S
C741 N737 1.279 . S
C741 C739 1.358 . S
C741 H783 0.930 . S
C742 C743 1.348 . S
C742 C744 1.356 . S
C742 O767 1.325 . S
C743 C742 1.348 . S
C743 C745 1.353 . S
C743 H784 0.929 . S
C744 C742 1.356 . S
C744 C746 1.358 . S
C744 H785 0.930 . S
C745 C743 1.353 . S
C745 N747 1.314 . S
C745 H786 0.930 . S
C746 C744 1.358 . S
C746 N747 1.279 . S
C746 H787 0.930 . S
N747 C745 1.314 . S
N747 C746 1.279 . S
C748 C750 1.353 . S
C748 N751 1.314 . S
C748 H754 0.930 . S
C749 N751 1.279 . S
C749 C752 1.358 . S
C749 H755 0.930 . S
C750 C748 1.353 . S
C750 C753 1.348 . S
C750 H788 0.929 . S
N751 Li706 1.990 . S
N751 C748 1.314 . S
N751 C749 1.279 . S
C752 C749 1.358 . S
C752 C753 1.356 . S
C752 H789 0.930 . S
C753 C750 1.348 . S
C753 C752 1.356 . S
H754 C748 0.930 . S
H755 C749 0.930 . S
C756 N757 1.314 . S
C756 C758 1.353 . S
C756 H762 0.930 . S
N757 Li707 1.990 . S
N757 C756 1.314 . S
N757 C760 1.279 . S
C758 C756 1.353 . S
C758 C761 1.348 . S
C758 H790 0.929 . S
C759 C760 1.358 . S
C759 C761 1.356 . S
C759 H791 0.930 . S
C760 N757 1.279 . S
C760 C759 1.358 . S
C760 H763 0.930 . S
C761 C758 1.348 . S
C761 C759 1.356 . S
H762 C756 0.930 . S
H763 C760 0.930 . S
O764 Li704 1.956 . S
O764 Li705 1.970 . S
O764 Li706 1.961 . S
O764 C708 1.325 . S
O765 Li704 1.970 . S
O765 Li705 1.956 . S
O765 Li707 1.961 . S
O765 C714 1.325 . S
O766 Li704 1.961 . S
O766 Li706 1.956 . S
O766 Li707 1.970 . S
O766 C736 1.325 . S
O767 Li705 1.961 . S
O767 Li706 1.970 . S
O767 Li707 1.956 . S
O767 C742 1.325 . S
H768 C710 0.929 . S
H769 C711 0.930 . S
H770 C712 0.930 . S
H771 C713 0.930 . S
H772 C715 0.930 . S
H773 C717 0.929 . S
H774 C718 0.930 . S
H775 C719 0.930 . S
H776 C722 0.930 . S
H777 C725 0.929 . S
H778 C730 0.929 . S
H779 C731 0.930 . S
H780 C738 0.929 . S
H781 C739 0.930 . S
H782 C740 0.930 . S
H783 C741 0.930 . S
H784 C743 0.929 . S
H785 C744 0.930 . S
H786 C745 0.930 . S
H787 C746 0.930 . S
H788 C750 0.929 . S
H789 C752 0.930 . S
H790 C758 0.929 . S
H791 C759 0.930 . S
Li792 N809 1.990 . S
Li792 O852 1.956 . S
Li792 O853 1.970 . S
Li792 O854 1.961 . S
Li793 N817 1.990 . S
Li793 O852 1.970 . S
Li793 O853 1.956 . S
Li793 O855 1.961 . S
Li794 N839 1.990 . S
Li794 O852 1.961 . S
Li794 O854 1.956 . S
Li794 O855 1.970 . S
Li795 N845 1.990 . S
Li795 O853 1.961 . S
Li795 O854 1.970 . S
Li795 O855 1.956 . S
C796 C798 1.348 . S
C796 C799 1.356 . S
C796 O852 1.325 . S
N797 C800 1.314 . S
N797 C801 1.279 . S
C798 C796 1.348 . S
C798 C800 1.353 . S
C798 H856 0.929 . S
C799 C796 1.356 . S
C799 C801 1.358 . S
C799 H857 0.930 . S
C800 N797 1.314 . S
C800 C798 1.353 . S
C800 H858 0.930 . S
C801 N797 1.279 . S
C801 C799 1.358 . S
C801 H859 0.930 . S
C802 C805 1.348 . S
C802 C806 1.356 . S
C802 O853 1.325 . S
C803 N804 1.279 . S
C803 C806 1.358 . S
C803 H860 0.930 . S
N804 C803 1.279 . S
N804 C807 1.314 . S
C805 C802 1.348 . S
C805 C807 1.353 . S
C805 H861 0.929 . S
C806 C802 1.356 . S
C806 C803 1.358 . S
C806 H862 0.930 . S
C807 N804 1.314 . S
C807 C805 1.353 . S
C807 H863 0.930 . S
C808 N809 1.314 . S
C808 C813 1.353 . S
C808 H814 0.930 . S
N809 Li792 1.990 . S
N809 C808 1.314 . S
N809 C811 1.279 . S
C810 C811 1.358 . S
C810 C812 1.356 . S
C810 H864 0.930 . S
C811 N809 1.279 . S
C811 C810 1.358 . S
C811 H815 0.930 . S
C812 C810 1.356 . S
C812 C813 1.348 . S
C813 C808 1.353 . S
C813 C812 1.348 . S
C813 H865 0.929 . S
H814 C808 0.930 . S
H815 C811 0.930 . S
C816 N817 1.314 . S
C816 C818 1.353 . S
C816 H822 0.930 . S
N817 Li793 1.990 . S
N817 C816 1.314 . S
N817 C820 1.279 . S
C818 C816 1.353 . S
C818 C821 1.348 . S
C818 H866 0.929 . S
C819 C820 1.358 . S
C819 C821 1.356 . S
C819 H867 0.930 . S
C820 N817 1.279 . S
C820 C819 1.358 . S
C820 H823 0.930 . S
C821 C818 1.348 . S
C821 C819 1.356 . S
H822 C816 0.930 . S
H823 C820 0.930 . S
C824 C826 1.348 . S
C824 C827 1.356 . S
C824 O854 1.325 . S
N825 C828 1.314 . S
N825 C829 1.279 . S
C826 C824 1.348 . S
C826 C828 1.353 . S
C826 H868 0.929 . S
C827 C824 1.356 . S
C827 C829 1.358 . S
C827 H869 0.930 . S
C828 N825 1.314 . S
C828 C826 1.353 . S
C828 H870 0.930 . S
C829 N825 1.279 . S
C829 C827 1.358 . S
C829 H871 0.930 . S
C830 C831 1.348 . S
C830 C832 1.356 . S
C830 O855 1.325 . S
C831 C830 1.348 . S
C831 C833 1.353 . S
C831 H872 0.929 . S
C832 C830 1.356 . S
C832 C834 1.358 . S
C832 H873 0.930 . S
C833 C831 1.353 . S
C833 N835 1.314 . S
C833 H874 0.930 . S
C834 C832 1.358 . S
C834 N835 1.279 . S
C834 H875 0.930 . S
N835 C833 1.314 . S
N835 C834 1.279 . S
C836 C838 1.353 . S
C836 N839 1.314 . S
C836 H842 0.930 . S
C837 N839 1.279 . S
C837 C840 1.358 . S
C837 H843 0.930 . S
C838 C836 1.353 . S
C838 C841 1.348 . S
C838 H876 0.929 . S
N839 Li794 1.990 . S
N839 C836 1.314 . S
N839 C837 1.279 . S
C840 C837 1.358 . S
C840 C841 1.356 . S
C840 H877 0.930 . S
C841 C838 1.348 . S
C841 C840 1.356 . S
H842 C836 0.930 . S
H843 C837 0.930 . S
C844 N845 1.314 . S
C844 C846 1.353 . S
C844 H850 0.930 . S
N845 Li795 1.990 . S
N845 C844 1.314 . S
N845 C848 1.279 . S
C846 C844 1.353 . S
C846 C849 1.348 . S
C846 H878 0.929 . S
C847 C848 1.358 . S
C847 C849 1.356 . S
C847 H879 0.930 . S
C848 N845 1.279 . S
C848 C847 1.358 . S
C848 H851 0.930 . S
C849 C846 1.348 . S
C849 C847 1.356 . S
H850 C844 0.930 . S
H851 C848 0.930 . S
O852 Li792 1.956 . S
O852 Li793 1.970 . S
O852 Li794 1.961 . S
O852 C796 1.325 . S
O853 Li792 1.970 . S
O853 Li793 1.956 . S
O853 Li795 1.961 . S
O853 C802 1.325 . S
O854 Li792 1.961 . S
O854 Li794 1.956 . S
O854 Li795 1.970 . S
O854 C824 1.325 . S
O855 Li793 1.961 . S
O855 Li794 1.970 . S
O855 Li795 1.956 . S
O855 C830 1.325 . S
H856 C798 0.929 . S
H857 C799 0.930 . S
H858 C800 0.930 . S
H859 C801 0.930 . S
H860 C803 0.930 . S
H861 C805 0.929 . S
H862 C806 0.930 . S
H863 C807 0.930 . S
H864 C810 0.930 . S
H865 C813 0.929 . S
H866 C818 0.929 . S
H867 C819 0.930 . S
H868 C826 0.929 . S
H869 C827 0.930 . S
H870 C828 0.930 . S
H871 C829 0.930 . S
H872 C831 0.929 . S
H873 C832 0.930 . S
H874 C833 0.930 . S
H875 C834 0.930 . S
H876 C838 0.929 . S
H877 C840 0.930 . S
H878 C846 0.929 . S
H879 C847 0.930 . S
Li880 N897 1.990 . S
Li880 O940 1.956 . S
Li880 O941 1.970 . S
Li880 O942 1.961 . S
Li881 N905 1.990 . S
Li881 O940 1.970 . S
Li881 O941 1.956 . S
Li881 O943 1.961 . S
Li882 N927 1.990 . S
Li882 O940 1.961 . S
Li882 O942 1.956 . S
Li882 O943 1.970 . S
Li883 N933 1.990 . S
Li883 O941 1.961 . S
Li883 O942 1.970 . S
Li883 O943 1.956 . S
C884 C886 1.348 . S
C884 C887 1.356 . S
C884 O940 1.325 . S
N885 C888 1.314 . S
N885 C889 1.279 . S
C886 C884 1.348 . S
C886 C888 1.353 . S
C886 H944 0.929 . S
C887 C884 1.356 . S
C887 C889 1.358 . S
C887 H945 0.930 . S
C888 N885 1.314 . S
C888 C886 1.353 . S
C888 H946 0.930 . S
C889 N885 1.279 . S
C889 C887 1.358 . S
C889 H947 0.930 . S
C890 C893 1.348 . S
C890 C894 1.356 . S
C890 O941 1.325 . S
C891 N892 1.279 . S
C891 C894 1.358 . S
C891 H948 0.930 . S
N892 C891 1.279 . S
N892 C895 1.314 . S
C893 C890 1.348 . S
C893 C895 1.353 . S
C893 H949 0.929 . S
C894 C890 1.356 . S
C894 C891 1.358 . S
C894 H950 0.930 . S
C895 N892 1.314 . S
C895 C893 1.353 . S
C895 H951 0.930 . S
C896 N897 1.314 . S
C896 C901 1.353 . S
C896 H902 0.930 . S
N897 Li880 1.990 . S
N897 C896 1.314 . S
N897 C899 1.279 . S
C898 C899 1.358 . S
C898 C900 1.356 . S
C898 H952 0.930 . S
C899 N897 1.279 . S
C899 C898 1.358 . S
C899 H903 0.930 . S
C900 C898 1.356 . S
C900 C901 1.348 . S
C901 C896 1.353 . S
C901 C900 1.348 . S
C901 H953 0.929 . S
H902 C896 0.930 . S
H903 C899 0.930 . S
C904 N905 1.314 . S
C904 C906 1.353 . S
C904 H910 0.930 . S
N905 Li881 1.990 . S
N905 C904 1.314 . S
N905 C908 1.279 . S
C906 C904 1.353 . S
C906 C909 1.348 . S
C906 H954 0.929 . S
C907 C908 1.358 . S
C907 C909 1.356 . S
C907 H955 0.930 . S
C908 N905 1.279 . S
C908 C907 1.358 . S
C908 H911 0.930 . S
C909 C906 1.348 . S
C909 C907 1.356 . S
H910 C904 0.930 . S
H911 C908 0.930 . S
C912 C914 1.348 . S
C912 C915 1.356 . S
C912 O942 1.325 . S
N913 C916 1.314 . S
N913 C917 1.279 . S
C914 C912 1.348 . S
C914 C916 1.353 . S
C914 H956 0.929 . S
C915 C912 1.356 . S
C915 C917 1.358 . S
C915 H957 0.930 . S
C916 N913 1.314 . S
C916 C914 1.353 . S
C916 H958 0.930 . S
C917 N913 1.279 . S
C917 C915 1.358 . S
C917 H959 0.930 . S
C918 C919 1.348 . S
C918 C920 1.356 . S
C918 O943 1.325 . S
C919 C918 1.348 . S
C919 C921 1.353 . S
C919 H960 0.929 . S
C920 C918 1.356 . S
C920 C922 1.358 . S
C920 H961 0.930 . S
C921 C919 1.353 . S
C921 N923 1.314 . S
C921 H962 0.930 . S
C922 C920 1.358 . S
C922 N923 1.279 . S
C922 H963 0.930 . S
N923 C921 1.314 . S
N923 C922 1.279 . S
C924 C926 1.353 . S
C924 N927 1.314 . S
C924 H930 0.930 . S
C925 N927 1.279 . S
C925 C928 1.358 . S
C925 H931 0.930 . S
C926 C924 1.353 . S
C926 C929 1.348 . S
C926 H964 0.929 . S
N927 Li882 1.990 . S
N927 C924 1.314 . S
N927 C925 1.279 . S
C928 C925 1.358 . S
C928 C929 1.356 . S
C928 H965 0.930 . S
C929 C926 1.348 . S
C929 C928 1.356 . S
H930 C924 0.930 . S
H931 C925 0.930 . S
C932 N933 1.314 . S
C932 C934 1.353 . S
C932 H938 0.930 . S
N933 Li883 1.990 . S
N933 C932 1.314 . S
N933 C936 1.279 . S
C934 C932 1.353 . S
C934 C937 1.348 . S
C934 H966 0.929 . S
C935 C936 1.358 . S
C935 C937 1.356 . S
C935 H967 0.930 . S
C936 N933 1.279 . S
C936 C935 1.358 . S
C936 H939 0.930 . S
C937 C934 1.348 . S
C937 C935 1.356 . S
H938 C932 0.930 . S
H939 C936 0.930 . S
O940 Li880 1.956 . S
O940 Li881 1.970 . S
O940 Li882 1.961 . S
O940 C884 1.325 . S
O941 Li880 1.970 . S
O941 Li881 1.956 . S
O941 Li883 1.961 . S
O941 C890 1.325 . S
O942 Li880 1.961 . S
O942 Li882 1.956 . S
O942 Li883 1.970 . S
O942 C912 1.325 . S
O943 Li881 1.961 . S
O943 Li882 1.970 . S
O943 Li883 1.956 . S
O943 C918 1.325 . S
H944 C886 0.929 . S
H945 C887 0.930 . S
H946 C888 0.930 . S
H947 C889 0.930 . S
H948 C891 0.930 . S
H949 C893 0.929 . S
H950 C894 0.930 . S
H951 C895 0.930 . S
H952 C898 0.930 . S
H953 C901 0.929 . S
H954 C906 0.929 . S
H955 C907 0.930 . S
H956 C914 0.929 . S
H957 C915 0.930 . S
H958 C916 0.930 . S
H959 C917 0.930 . S
H960 C919 0.929 . S
H961 C920 0.930 . S
H962 C921 0.930 . S
H963 C922 0.930 . S
H964 C926 0.929 . S
H965 C928 0.930 . S
H966 C934 0.929 . S
H967 C935 0.930 . S
Li968 N985 1.990 . S
Li968 O1028 1.956 . S
Li968 O1029 1.970 . S
Li968 O1030 1.961 . S
Li969 N993 1.990 . S
Li969 O1028 1.970 . S
Li969 O1029 1.956 . S
Li969 O1031 1.961 . S
Li970 N1015 1.990 . S
Li970 O1028 1.961 . S
Li970 O1030 1.956 . S
Li970 O1031 1.970 . S
Li971 N1021 1.990 . S
Li971 O1029 1.961 . S
Li971 O1030 1.970 . S
Li971 O1031 1.956 . S
C972 C974 1.348 . S
C972 C975 1.356 . S
C972 O1028 1.325 . S
N973 C976 1.314 . S
N973 C977 1.279 . S
C974 C972 1.348 . S
C974 C976 1.353 . S
C974 H1032 0.929 . S
C975 C972 1.356 . S
C975 C977 1.358 . S
C975 H1033 0.930 . S
C976 N973 1.314 . S
C976 C974 1.353 . S
C976 H1034 0.930 . S
C977 N973 1.279 . S
C977 C975 1.358 . S
C977 H1035 0.930 . S
C978 C981 1.348 . S
C978 C982 1.356 . S
C978 O1029 1.325 . S
C979 N980 1.279 . S
C979 C982 1.358 . S
C979 H1036 0.930 . S
N980 C979 1.279 . S
N980 C983 1.314 . S
C981 C978 1.348 . S
C981 C983 1.353 . S
C981 H1037 0.929 . S
C982 C978 1.356 . S
C982 C979 1.358 . S
C982 H1038 0.930 . S
C983 N980 1.314 . S
C983 C981 1.353 . S
C983 H1039 0.930 . S
C984 N985 1.314 . S
C984 C989 1.353 . S
C984 H990 0.930 . S
N985 Li968 1.990 . S
N985 C984 1.314 . S
N985 C987 1.279 . S
C986 C987 1.358 . S
C986 C988 1.356 . S
C986 H1040 0.930 . S
C987 N985 1.279 . S
C987 C986 1.358 . S
C987 H991 0.930 . S
C988 C986 1.356 . S
C988 C989 1.348 . S
C989 C984 1.353 . S
C989 C988 1.348 . S
C989 H1041 0.929 . S
H990 C984 0.930 . S
H991 C987 0.930 . S
C992 N993 1.314 . S
C992 C994 1.353 . S
C992 H998 0.930 . S
N993 Li969 1.990 . S
N993 C992 1.314 . S
N993 C996 1.279 . S
C994 C992 1.353 . S
C994 C997 1.348 . S
C994 H1042 0.929 . S
C995 C996 1.358 . S
C995 C997 1.356 . S
C995 H1043 0.930 . S
C996 N993 1.279 . S
C996 C995 1.358 . S
C996 H999 0.930 . S
C997 C994 1.348 . S
C997 C995 1.356 . S
H998 C992 0.930 . S
H999 C996 0.930 . S
C1000 C1002 1.348 . S
C1000 C1003 1.356 . S
C1000 O1030 1.325 . S
N1001 C1004 1.314 . S
N1001 C1005 1.279 . S
C1002 C1000 1.348 . S
C1002 C1004 1.353 . S
C1002 H1044 0.929 . S
C1003 C1000 1.356 . S
C1003 C1005 1.358 . S
C1003 H1045 0.930 . S
C1004 N1001 1.314 . S
C1004 C1002 1.353 . S
C1004 H1046 0.930 . S
C1005 N1001 1.279 . S
C1005 C1003 1.358 . S
C1005 H1047 0.930 . S
C1006 C1007 1.348 . S
C1006 C1008 1.356 . S
C1006 O1031 1.325 . S
C1007 C1006 1.348 . S
C1007 C1009 1.353 . S
C1007 H1048 0.929 . S
C1008 C1006 1.356 . S
C1008 C1010 1.358 . S
C1008 H1049 0.930 . S
C1009 C1007 1.353 . S
C1009 N1011 1.314 . S
C1009 H1050 0.930 . S
C1010 C1008 1.358 . S
C1010 N1011 1.279 . S
C1010 H1051 0.930 . S
N1011 C1009 1.314 . S
N1011 C1010 1.279 . S
C1012 C1014 1.353 . S
C1012 N1015 1.314 . S
C1012 H1018 0.930 . S
C1013 N1015 1.279 . S
C1013 C1016 1.358 . S
C1013 H1019 0.930 . S
C1014 C1012 1.353 . S
C1014 C1017 1.348 . S
C1014 H1052 0.929 . S
N1015 Li970 1.990 . S
N1015 C1012 1.314 . S
N1015 C1013 1.279 . S
C1016 C1013 1.358 . S
C1016 C1017 1.356 . S
C1016 H1053 0.930 . S
C1017 C1014 1.348 . S
C1017 C1016 1.356 . S
H1018 C1012 0.930 . S
H1019 C1013 0.930 . S
C1020 N1021 1.314 . S
C1020 C1022 1.353 . S
C1020 H1026 0.930 . S
N1021 Li971 1.990 . S
N1021 C1020 1.314 . S
N1021 C1024 1.279 . S
C1022 C1020 1.353 . S
C1022 C1025 1.348 . S
C1022 H1054 0.929 . S
C1023 C1024 1.358 . S
C1023 C1025 1.356 . S
C1023 H1055 0.930 . S
C1024 N1021 1.279 . S
C1024 C1023 1.358 . S
C1024 H1027 0.930 . S
C1025 C1022 1.348 . S
C1025 C1023 1.356 . S
H1026 C1020 0.930 . S
H1027 C1024 0.930 . S
O1028 Li968 1.956 . S
O1028 Li969 1.970 . S
O1028 Li970 1.961 . S
O1028 C972 1.325 . S
O1029 Li968 1.970 . S
O1029 Li969 1.956 . S
O1029 Li971 1.961 . S
O1029 C978 1.325 . S
O1030 Li968 1.961 . S
O1030 Li970 1.956 . S
O1030 Li971 1.970 . S
O1030 C1000 1.325 . S
O1031 Li969 1.961 . S
O1031 Li970 1.970 . S
O1031 Li971 1.956 . S
O1031 C1006 1.325 . S
H1032 C974 0.929 . S
H1033 C975 0.930 . S
H1034 C976 0.930 . S
H1035 C977 0.930 . S
H1036 C979 0.930 . S
H1037 C981 0.929 . S
H1038 C982 0.930 . S
H1039 C983 0.930 . S
H1040 C986 0.930 . S
H1041 C989 0.929 . S
H1042 C994 0.929 . S
H1043 C995 0.930 . S
H1044 C1002 0.929 . S
H1045 C1003 0.930 . S
H1046 C1004 0.930 . S
H1047 C1005 0.930 . S
H1048 C1007 0.929 . S
H1049 C1008 0.930 . S
H1050 C1009 0.930 . S
H1051 C1010 0.930 . S
H1052 C1014 0.929 . S
H1053 C1016 0.930 . S
H1054 C1022 0.929 . S
H1055 C1023 0.930 . S
Li1056 N1073 1.990 . S
Li1056 O1116 1.956 . S
Li1056 O1117 1.970 . S
Li1056 O1118 1.961 . S
Li1057 N1081 1.990 . S
Li1057 O1116 1.970 . S
Li1057 O1117 1.956 . S
Li1057 O1119 1.961 . S
Li1058 N1103 1.990 . S
Li1058 O1116 1.961 . S
Li1058 O1118 1.956 . S
Li1058 O1119 1.970 . S
Li1059 N1109 1.990 . S
Li1059 O1117 1.961 . S
Li1059 O1118 1.970 . S
Li1059 O1119 1.956 . S
C1060 C1062 1.348 . S
C1060 C1063 1.356 . S
C1060 O1116 1.325 . S
N1061 C1064 1.314 . S
N1061 C1065 1.279 . S
C1062 C1060 1.348 . S
C1062 C1064 1.353 . S
C1062 H1120 0.929 . S
C1063 C1060 1.356 . S
C1063 C1065 1.358 . S
C1063 H1121 0.930 . S
C1064 N1061 1.314 . S
C1064 C1062 1.353 . S
C1064 H1122 0.930 . S
C1065 N1061 1.279 . S
C1065 C1063 1.358 . S
C1065 H1123 0.930 . S
C1066 C1069 1.348 . S
C1066 C1070 1.356 . S
C1066 O1117 1.325 . S
C1067 N1068 1.279 . S
C1067 C1070 1.358 . S
C1067 H1124 0.930 . S
N1068 C1067 1.279 . S
N1068 C1071 1.314 . S
C1069 C1066 1.348 . S
C1069 C1071 1.353 . S
C1069 H1125 0.929 . S
C1070 C1066 1.356 . S
C1070 C1067 1.358 . S
C1070 H1126 0.930 . S
C1071 N1068 1.314 . S
C1071 C1069 1.353 . S
C1071 H1127 0.930 . S
C1072 N1073 1.314 . S
C1072 C1077 1.353 . S
C1072 H1078 0.930 . S
N1073 Li1056 1.990 . S
N1073 C1072 1.314 . S
N1073 C1075 1.279 . S
C1074 C1075 1.358 . S
C1074 C1076 1.356 . S
C1074 H1128 0.930 . S
C1075 N1073 1.279 . S
C1075 C1074 1.358 . S
C1075 H1079 0.930 . S
C1076 C1074 1.356 . S
C1076 C1077 1.348 . S
C1077 C1072 1.353 . S
C1077 C1076 1.348 . S
C1077 H1129 0.929 . S
H1078 C1072 0.930 . S
H1079 C1075 0.930 . S
C1080 N1081 1.314 . S
C1080 C1082 1.353 . S
C1080 H1086 0.930 . S
N1081 Li1057 1.990 . S
N1081 C1080 1.314 . S
N1081 C1084 1.279 . S
C1082 C1080 1.353 . S
C1082 C1085 1.348 . S
C1082 H1130 0.929 . S
C1083 C1084 1.358 . S
C1083 C1085 1.356 . S
C1083 H1131 0.930 . S
C1084 N1081 1.279 . S
C1084 C1083 1.358 . S
C1084 H1087 0.930 . S
C1085 C1082 1.348 . S
C1085 C1083 1.356 . S
H1086 C1080 0.930 . S
H1087 C1084 0.930 . S
C1088 C1090 1.348 . S
C1088 C1091 1.356 . S
C1088 O1118 1.325 . S
N1089 C1092 1.314 . S
N1089 C1093 1.279 . S
C1090 C1088 1.348 . S
C1090 C1092 1.353 . S
C1090 H1132 0.929 . S
C1091 C1088 1.356 . S
C1091 C1093 1.358 . S
C1091 H1133 0.930 . S
C1092 N1089 1.314 . S
C1092 C1090 1.353 . S
C1092 H1134 0.930 . S
C1093 N1089 1.279 . S
C1093 C1091 1.358 . S
C1093 H1135 0.930 . S
C1094 C1095 1.348 . S
C1094 C1096 1.356 . S
C1094 O1119 1.325 . S
C1095 C1094 1.348 . S
C1095 C1097 1.353 . S
C1095 H1136 0.929 . S
C1096 C1094 1.356 . S
C1096 C1098 1.358 . S
C1096 H1137 0.930 . S
C1097 C1095 1.353 . S
C1097 N1099 1.314 . S
C1097 H1138 0.930 . S
C1098 C1096 1.358 . S
C1098 N1099 1.279 . S
C1098 H1139 0.930 . S
N1099 C1097 1.314 . S
N1099 C1098 1.279 . S
C1100 C1102 1.353 . S
C1100 N1103 1.314 . S
C1100 H1106 0.930 . S
C1101 N1103 1.279 . S
C1101 C1104 1.358 . S
C1101 H1107 0.930 . S
C1102 C1100 1.353 . S
C1102 C1105 1.348 . S
C1102 H1140 0.929 . S
N1103 Li1058 1.990 . S
N1103 C1100 1.314 . S
N1103 C1101 1.279 . S
C1104 C1101 1.358 . S
C1104 C1105 1.356 . S
C1104 H1141 0.930 . S
C1105 C1102 1.348 . S
C1105 C1104 1.356 . S
H1106 C1100 0.930 . S
H1107 C1101 0.930 . S
C1108 N1109 1.314 . S
C1108 C1110 1.353 . S
C1108 H1114 0.930 . S
N1109 Li1059 1.990 . S
N1109 C1108 1.314 . S
N1109 C1112 1.279 . S
C1110 C1108 1.353 . S
C1110 C1113 1.348 . S
C1110 H1142 0.929 . S
C1111 C1112 1.358 . S
C1111 C1113 1.356 . S
C1111 H1143 0.930 . S
C1112 N1109 1.279 . S
C1112 C1111 1.358 . S
C1112 H1115 0.930 . S
C1113 C1110 1.348 . S
C1113 C1111 1.356 . S
H1114 C1108 0.930 . S
H1115 C1112 0.930 . S
O1116 Li1056 1.956 . S
O1116 Li1057 1.970 . S
O1116 Li1058 1.961 . S
O1116 C1060 1.325 . S
O1117 Li1056 1.970 . S
O1117 Li1057 1.956 . S
O1117 Li1059 1.961 . S
O1117 C1066 1.325 . S
O1118 Li1056 1.961 . S
O1118 Li1058 1.956 . S
O1118 Li1059 1.970 . S
O1118 C1088 1.325 . S
O1119 Li1057 1.961 . S
O1119 Li1058 1.970 . S
O1119 Li1059 1.956 . S
O1119 C1094 1.325 . S
H1120 C1062 0.929 . S
H1121 C1063 0.930 . S
H1122 C1064 0.930 . S
H1123 C1065 0.930 . S
H1124 C1067 0.930 . S
H1125 C1069 0.929 . S
H1126 C1070 0.930 . S
H1127 C1071 0.930 . S
H1128 C1074 0.930 . S
H1129 C1077 0.929 . S
H1130 C1082 0.929 . S
H1131 C1083 0.930 . S
H1132 C1090 0.929 . S
H1133 C1091 0.930 . S
H1134 C1092 0.930 . S
H1135 C1093 0.930 . S
H1136 C1095 0.929 . S
H1137 C1096 0.930 . S
H1138 C1097 0.930 . S
H1139 C1098 0.930 . S
H1140 C1102 0.929 . S
H1141 C1104 0.930 . S
H1142 C1110 0.929 . S
H1143 C1111 0.930 . S
Li1144 N1161 1.990 . S
Li1144 O1204 1.956 . S
Li1144 O1205 1.970 . S
Li1144 O1206 1.961 . S
Li1145 N1169 1.990 . S
Li1145 O1204 1.970 . S
Li1145 O1205 1.956 . S
Li1145 O1207 1.961 . S
Li1146 N1191 1.990 . S
Li1146 O1204 1.961 . S
Li1146 O1206 1.956 . S
Li1146 O1207 1.970 . S
Li1147 N1197 1.990 . S
Li1147 O1205 1.961 . S
Li1147 O1206 1.970 . S
Li1147 O1207 1.956 . S
C1148 C1150 1.348 . S
C1148 C1151 1.356 . S
C1148 O1204 1.325 . S
N1149 C1152 1.314 . S
N1149 C1153 1.279 . S
C1150 C1148 1.348 . S
C1150 C1152 1.353 . S
C1150 H1208 0.929 . S
C1151 C1148 1.356 . S
C1151 C1153 1.358 . S
C1151 H1209 0.930 . S
C1152 N1149 1.314 . S
C1152 C1150 1.353 . S
C1152 H1210 0.930 . S
C1153 N1149 1.279 . S
C1153 C1151 1.358 . S
C1153 H1211 0.930 . S
C1154 C1157 1.348 . S
C1154 C1158 1.356 . S
C1154 O1205 1.325 . S
C1155 N1156 1.279 . S
C1155 C1158 1.358 . S
C1155 H1212 0.930 . S
N1156 C1155 1.279 . S
N1156 C1159 1.314 . S
C1157 C1154 1.348 . S
C1157 C1159 1.353 . S
C1157 H1213 0.929 . S
C1158 C1154 1.356 . S
C1158 C1155 1.358 . S
C1158 H1214 0.930 . S
C1159 N1156 1.314 . S
C1159 C1157 1.353 . S
C1159 H1215 0.930 . S
C1160 N1161 1.314 . S
C1160 C1165 1.353 . S
C1160 H1166 0.930 . S
N1161 Li1144 1.990 . S
N1161 C1160 1.314 . S
N1161 C1163 1.279 . S
C1162 C1163 1.358 . S
C1162 C1164 1.356 . S
C1162 H1216 0.930 . S
C1163 N1161 1.279 . S
C1163 C1162 1.358 . S
C1163 H1167 0.930 . S
C1164 C1162 1.356 . S
C1164 C1165 1.348 . S
C1165 C1160 1.353 . S
C1165 C1164 1.348 . S
C1165 H1217 0.929 . S
H1166 C1160 0.930 . S
H1167 C1163 0.930 . S
C1168 N1169 1.314 . S
C1168 C1170 1.353 . S
C1168 H1174 0.930 . S
N1169 Li1145 1.990 . S
N1169 C1168 1.314 . S
N1169 C1172 1.279 . S
C1170 C1168 1.353 . S
C1170 C1173 1.348 . S
C1170 H1218 0.929 . S
C1171 C1172 1.358 . S
C1171 C1173 1.356 . S
C1171 H1219 0.930 . S
C1172 N1169 1.279 . S
C1172 C1171 1.358 . S
C1172 H1175 0.930 . S
C1173 C1170 1.348 . S
C1173 C1171 1.356 . S
H1174 C1168 0.930 . S
H1175 C1172 0.930 . S
C1176 C1178 1.348 . S
C1176 C1179 1.356 . S
C1176 O1206 1.325 . S
N1177 C1180 1.314 . S
N1177 C1181 1.279 . S
C1178 C1176 1.348 . S
C1178 C1180 1.353 . S
C1178 H1220 0.929 . S
C1179 C1176 1.356 . S
C1179 C1181 1.358 . S
C1179 H1221 0.930 . S
C1180 N1177 1.314 . S
C1180 C1178 1.353 . S
C1180 H1222 0.930 . S
C1181 N1177 1.279 . S
C1181 C1179 1.358 . S
C1181 H1223 0.930 . S
C1182 C1183 1.348 . S
C1182 C1184 1.356 . S
C1182 O1207 1.325 . S
C1183 C1182 1.348 . S
C1183 C1185 1.353 . S
C1183 H1224 0.929 . S
C1184 C1182 1.356 . S
C1184 C1186 1.358 . S
C1184 H1225 0.930 . S
C1185 C1183 1.353 . S
C1185 N1187 1.314 . S
C1185 H1226 0.930 . S
C1186 C1184 1.358 . S
C1186 N1187 1.279 . S
C1186 H1227 0.930 . S
N1187 C1185 1.314 . S
N1187 C1186 1.279 . S
C1188 C1190 1.353 . S
C1188 N1191 1.314 . S
C1188 H1194 0.930 . S
C1189 N1191 1.279 . S
C1189 C1192 1.358 . S
C1189 H1195 0.930 . S
C1190 C1188 1.353 . S
C1190 C1193 1.348 . S
C1190 H1228 0.929 . S
N1191 Li1146 1.990 . S
N1191 C1188 1.314 . S
N1191 C1189 1.279 . S
C1192 C1189 1.358 . S
C1192 C1193 1.356 . S
C1192 H1229 0.930 . S
C1193 C1190 1.348 . S
C1193 C1192 1.356 . S
H1194 C1188 0.930 . S
H1195 C1189 0.930 . S
C1196 N1197 1.314 . S
C1196 C1198 1.353 . S
C1196 H1202 0.930 . S
N1197 Li1147 1.990 . S
N1197 C1196 1.314 . S
N1197 C1200 1.279 . S
C1198 C1196 1.353 . S
C1198 C1201 1.348 . S
C1198 H1230 0.929 . S
C1199 C1200 1.358 . S
C1199 C1201 1.356 . S
C1199 H1231 0.930 . S
C1200 N1197 1.279 . S
C1200 C1199 1.358 . S
C1200 H1203 0.930 . S
C1201 C1198 1.348 . S
C1201 C1199 1.356 . S
H1202 C1196 0.930 . S
H1203 C1200 0.930 . S
O1204 Li1144 1.956 . S
O1204 Li1145 1.970 . S
O1204 Li1146 1.961 . S
O1204 C1148 1.325 . S
O1205 Li1144 1.970 . S
O1205 Li1145 1.956 . S
O1205 Li1147 1.961 . S
O1205 C1154 1.325 . S
O1206 Li1144 1.961 . S
O1206 Li1146 1.956 . S
O1206 Li1147 1.970 . S
O1206 C1176 1.325 . S
O1207 Li1145 1.961 . S
O1207 Li1146 1.970 . S
O1207 Li1147 1.956 . S
O1207 C1182 1.325 . S
H1208 C1150 0.929 . S
H1209 C1151 0.930 . S
H1210 C1152 0.930 . S
H1211 C1153 0.930 . S
H1212 C1155 0.930 . S
H1213 C1157 0.929 . S
H1214 C1158 0.930 . S
H1215 C1159 0.930 . S
H1216 C1162 0.930 . S
H1217 C1165 0.929 . S
H1218 C1170 0.929 . S
H1219 C1171 0.930 . S
H1220 C1178 0.929 . S
H1221 C1179 0.930 . S
H1222 C1180 0.930 . S
H1223 C1181 0.930 . S
H1224 C1183 0.929 . S
H1225 C1184 0.930 . S
H1226 C1185 0.930 . S
H1227 C1186 0.930 . S
H1228 C1190 0.929 . S
H1229 C1192 0.930 . S
H1230 C1198 0.929 . S
H1231 C1199 0.930 . S
Li1232 N1249 1.990 . S
Li1232 O1292 1.956 . S
Li1232 O1293 1.970 . S
Li1232 O1294 1.961 . S
Li1233 N1257 1.990 . S
Li1233 O1292 1.970 . S
Li1233 O1293 1.956 . S
Li1233 O1295 1.961 . S
Li1234 N1279 1.990 . S
Li1234 O1292 1.961 . S
Li1234 O1294 1.956 . S
Li1234 O1295 1.970 . S
Li1235 N1285 1.990 . S
Li1235 O1293 1.961 . S
Li1235 O1294 1.970 . S
Li1235 O1295 1.956 . S
C1236 C1238 1.348 . S
C1236 C1239 1.356 . S
C1236 O1292 1.325 . S
N1237 C1240 1.314 . S
N1237 C1241 1.279 . S
C1238 C1236 1.348 . S
C1238 C1240 1.353 . S
C1238 H1296 0.929 . S
C1239 C1236 1.356 . S
C1239 C1241 1.358 . S
C1239 H1297 0.930 . S
C1240 N1237 1.314 . S
C1240 C1238 1.353 . S
C1240 H1298 0.930 . S
C1241 N1237 1.279 . S
C1241 C1239 1.358 . S
C1241 H1299 0.930 . S
C1242 C1245 1.348 . S
C1242 C1246 1.356 . S
C1242 O1293 1.325 . S
C1243 N1244 1.279 . S
C1243 C1246 1.358 . S
C1243 H1300 0.930 . S
N1244 C1243 1.279 . S
N1244 C1247 1.314 . S
C1245 C1242 1.348 . S
C1245 C1247 1.353 . S
C1245 H1301 0.929 . S
C1246 C1242 1.356 . S
C1246 C1243 1.358 . S
C1246 H1302 0.930 . S
C1247 N1244 1.314 . S
C1247 C1245 1.353 . S
C1247 H1303 0.930 . S
C1248 N1249 1.314 . S
C1248 C1253 1.353 . S
C1248 H1254 0.930 . S
N1249 Li1232 1.990 . S
N1249 C1248 1.314 . S
N1249 C1251 1.279 . S
C1250 C1251 1.358 . S
C1250 C1252 1.356 . S
C1250 H1304 0.930 . S
C1251 N1249 1.279 . S
C1251 C1250 1.358 . S
C1251 H1255 0.930 . S
C1252 C1250 1.356 . S
C1252 C1253 1.348 . S
C1253 C1248 1.353 . S
C1253 C1252 1.348 . S
C1253 H1305 0.929 . S
H1254 C1248 0.930 . S
H1255 C1251 0.930 . S
C1256 N1257 1.314 . S
C1256 C1258 1.353 . S
C1256 H1262 0.930 . S
N1257 Li1233 1.990 . S
N1257 C1256 1.314 . S
N1257 C1260 1.279 . S
C1258 C1256 1.353 . S
C1258 C1261 1.348 . S
C1258 H1306 0.929 . S
C1259 C1260 1.358 . S
C1259 C1261 1.356 . S
C1259 H1307 0.930 . S
C1260 N1257 1.279 . S
C1260 C1259 1.358 . S
C1260 H1263 0.930 . S
C1261 C1258 1.348 . S
C1261 C1259 1.356 . S
H1262 C1256 0.930 . S
H1263 C1260 0.930 . S
C1264 C1266 1.348 . S
C1264 C1267 1.356 . S
C1264 O1294 1.325 . S
N1265 C1268 1.314 . S
N1265 C1269 1.279 . S
C1266 C1264 1.348 . S
C1266 C1268 1.353 . S
C1266 H1308 0.929 . S
C1267 C1264 1.356 . S
C1267 C1269 1.358 . S
C1267 H1309 0.930 . S
C1268 N1265 1.314 . S
C1268 C1266 1.353 . S
C1268 H1310 0.930 . S
C1269 N1265 1.279 . S
C1269 C1267 1.358 . S
C1269 H1311 0.930 . S
C1270 C1271 1.348 . S
C1270 C1272 1.356 . S
C1270 O1295 1.325 . S
C1271 C1270 1.348 . S
C1271 C1273 1.353 . S
C1271 H1312 0.929 . S
C1272 C1270 1.356 . S
C1272 C1274 1.358 . S
C1272 H1313 0.930 . S
C1273 C1271 1.353 . S
C1273 N1275 1.314 . S
C1273 H1314 0.930 . S
C1274 C1272 1.358 . S
C1274 N1275 1.279 . S
C1274 H1315 0.930 . S
N1275 C1273 1.314 . S
N1275 C1274 1.279 . S
C1276 C1278 1.353 . S
C1276 N1279 1.314 . S
C1276 H1282 0.930 . S
C1277 N1279 1.279 . S
C1277 C1280 1.358 . S
C1277 H1283 0.930 . S
C1278 C1276 1.353 . S
C1278 C1281 1.348 . S
C1278 H1316 0.929 . S
N1279 Li1234 1.990 . S
N1279 C1276 1.314 . S
N1279 C1277 1.279 . S
C1280 C1277 1.358 . S
C1280 C1281 1.356 . S
C1280 H1317 0.930 . S
C1281 C1278 1.348 . S
C1281 C1280 1.356 . S
H1282 C1276 0.930 . S
H1283 C1277 0.930 . S
C1284 N1285 1.314 . S
C1284 C1286 1.353 . S
C1284 H1290 0.930 . S
N1285 Li1235 1.990 . S
N1285 C1284 1.314 . S
N1285 C1288 1.279 . S
C1286 C1284 1.353 . S
C1286 C1289 1.348 . S
C1286 H1318 0.929 . S
C1287 C1288 1.358 . S
C1287 C1289 1.356 . S
C1287 H1319 0.930 . S
C1288 N1285 1.279 . S
C1288 C1287 1.358 . S
C1288 H1291 0.930 . S
C1289 C1286 1.348 . S
C1289 C1287 1.356 . S
H1290 C1284 0.930 . S
H1291 C1288 0.930 . S
O1292 Li1232 1.956 . S
O1292 Li1233 1.970 . S
O1292 Li1234 1.961 . S
O1292 C1236 1.325 . S
O1293 Li1232 1.970 . S
O1293 Li1233 1.956 . S
O1293 Li1235 1.961 . S
O1293 C1242 1.325 . S
O1294 Li1232 1.961 . S
O1294 Li1234 1.956 . S
O1294 Li1235 1.970 . S
O1294 C1264 1.325 . S
O1295 Li1233 1.961 . S
O1295 Li1234 1.970 . S
O1295 Li1235 1.956 . S
O1295 C1270 1.325 . S
H1296 C1238 0.929 . S
H1297 C1239 0.930 . S
H1298 C1240 0.930 . S
H1299 C1241 0.930 . S
H1300 C1243 0.930 . S
H1301 C1245 0.929 . S
H1302 C1246 0.930 . S
H1303 C1247 0.930 . S
H1304 C1250 0.930 . S
H1305 C1253 0.929 . S
H1306 C1258 0.929 . S
H1307 C1259 0.930 . S
H1308 C1266 0.929 . S
H1309 C1267 0.930 . S
H1310 C1268 0.930 . S
H1311 C1269 0.930 . S
H1312 C1271 0.929 . S
H1313 C1272 0.930 . S
H1314 C1273 0.930 . S
H1315 C1274 0.930 . S
H1316 C1278 0.929 . S
H1317 C1280 0.930 . S
H1318 C1286 0.929 . S
H1319 C1287 0.930 . S
Li1320 N1337 1.990 . S
Li1320 O1380 1.956 . S
Li1320 O1381 1.970 . S
Li1320 O1382 1.961 . S
Li1321 N1345 1.990 . S
Li1321 O1380 1.970 . S
Li1321 O1381 1.956 . S
Li1321 O1383 1.961 . S
Li1322 N1367 1.990 . S
Li1322 O1380 1.961 . S
Li1322 O1382 1.956 . S
Li1322 O1383 1.970 . S
Li1323 N1373 1.990 . S
Li1323 O1381 1.961 . S
Li1323 O1382 1.970 . S
Li1323 O1383 1.956 . S
C1324 C1326 1.348 . S
C1324 C1327 1.356 . S
C1324 O1380 1.325 . S
N1325 C1328 1.314 . S
N1325 C1329 1.279 . S
C1326 C1324 1.348 . S
C1326 C1328 1.353 . S
C1326 H1384 0.929 . S
C1327 C1324 1.356 . S
C1327 C1329 1.358 . S
C1327 H1385 0.930 . S
C1328 N1325 1.314 . S
C1328 C1326 1.353 . S
C1328 H1386 0.930 . S
C1329 N1325 1.279 . S
C1329 C1327 1.358 . S
C1329 H1387 0.930 . S
C1330 C1333 1.348 . S
C1330 C1334 1.356 . S
C1330 O1381 1.325 . S
C1331 N1332 1.279 . S
C1331 C1334 1.358 . S
C1331 H1388 0.930 . S
N1332 C1331 1.279 . S
N1332 C1335 1.314 . S
C1333 C1330 1.348 . S
C1333 C1335 1.353 . S
C1333 H1389 0.929 . S
C1334 C1330 1.356 . S
C1334 C1331 1.358 . S
C1334 H1390 0.930 . S
C1335 N1332 1.314 . S
C1335 C1333 1.353 . S
C1335 H1391 0.930 . S
C1336 N1337 1.314 . S
C1336 C1341 1.353 . S
C1336 H1342 0.930 . S
N1337 Li1320 1.990 . S
N1337 C1336 1.314 . S
N1337 C1339 1.279 . S
C1338 C1339 1.358 . S
C1338 C1340 1.356 . S
C1338 H1392 0.930 . S
C1339 N1337 1.279 . S
C1339 C1338 1.358 . S
C1339 H1343 0.930 . S
C1340 C1338 1.356 . S
C1340 C1341 1.348 . S
C1341 C1336 1.353 . S
C1341 C1340 1.348 . S
C1341 H1393 0.929 . S
H1342 C1336 0.930 . S
H1343 C1339 0.930 . S
C1344 N1345 1.314 . S
C1344 C1346 1.353 . S
C1344 H1350 0.930 . S
N1345 Li1321 1.990 . S
N1345 C1344 1.314 . S
N1345 C1348 1.279 . S
C1346 C1344 1.353 . S
C1346 C1349 1.348 . S
C1346 H1394 0.929 . S
C1347 C1348 1.358 . S
C1347 C1349 1.356 . S
C1347 H1395 0.930 . S
C1348 N1345 1.279 . S
C1348 C1347 1.358 . S
C1348 H1351 0.930 . S
C1349 C1346 1.348 . S
C1349 C1347 1.356 . S
H1350 C1344 0.930 . S
H1351 C1348 0.930 . S
C1352 C1354 1.348 . S
C1352 C1355 1.356 . S
C1352 O1382 1.325 . S
N1353 C1356 1.314 . S
N1353 C1357 1.279 . S
C1354 C1352 1.348 . S
C1354 C1356 1.353 . S
C1354 H1396 0.929 . S
C1355 C1352 1.356 . S
C1355 C1357 1.358 . S
C1355 H1397 0.930 . S
C1356 N1353 1.314 . S
C1356 C1354 1.353 . S
C1356 H1398 0.930 . S
C1357 N1353 1.279 . S
C1357 C1355 1.358 . S
C1357 H1399 0.930 . S
C1358 C1359 1.348 . S
C1358 C1360 1.356 . S
C1358 O1383 1.325 . S
C1359 C1358 1.348 . S
C1359 C1361 1.353 . S
C1359 H1400 0.929 . S
C1360 C1358 1.356 . S
C1360 C1362 1.358 . S
C1360 H1401 0.930 . S
C1361 C1359 1.353 . S
C1361 N1363 1.314 . S
C1361 H1402 0.930 . S
C1362 C1360 1.358 . S
C1362 N1363 1.279 . S
C1362 H1403 0.930 . S
N1363 C1361 1.314 . S
N1363 C1362 1.279 . S
C1364 C1366 1.353 . S
C1364 N1367 1.314 . S
C1364 H1370 0.930 . S
C1365 N1367 1.279 . S
C1365 C1368 1.358 . S
C1365 H1371 0.930 . S
C1366 C1364 1.353 . S
C1366 C1369 1.348 . S
C1366 H1404 0.929 . S
N1367 Li1322 1.990 . S
N1367 C1364 1.314 . S
N1367 C1365 1.279 . S
C1368 C1365 1.358 . S
C1368 C1369 1.356 . S
C1368 H1405 0.930 . S
C1369 C1366 1.348 . S
C1369 C1368 1.356 . S
H1370 C1364 0.930 . S
H1371 C1365 0.930 . S
C1372 N1373 1.314 . S
C1372 C1374 1.353 . S
C1372 H1378 0.930 . S
N1373 Li1323 1.990 . S
N1373 C1372 1.314 . S
N1373 C1376 1.279 . S
C1374 C1372 1.353 . S
C1374 C1377 1.348 . S
C1374 H1406 0.929 . S
C1375 C1376 1.358 . S
C1375 C1377 1.356 . S
C1375 H1407 0.930 . S
C1376 N1373 1.279 . S
C1376 C1375 1.358 . S
C1376 H1379 0.930 . S
C1377 C1374 1.348 . S
C1377 C1375 1.356 . S
H1378 C1372 0.930 . S
H1379 C1376 0.930 . S
O1380 Li1320 1.956 . S
O1380 Li1321 1.970 . S
O1380 Li1322 1.961 . S
O1380 C1324 1.325 . S
O1381 Li1320 1.970 . S
O1381 Li1321 1.956 . S
O1381 Li1323 1.961 . S
O1381 C1330 1.325 . S
O1382 Li1320 1.961 . S
O1382 Li1322 1.956 . S
O1382 Li1323 1.970 . S
O1382 C1352 1.325 . S
O1383 Li1321 1.961 . S
O1383 Li1322 1.970 . S
O1383 Li1323 1.956 . S
O1383 C1358 1.325 . S
H1384 C1326 0.929 . S
H1385 C1327 0.930 . S
H1386 C1328 0.930 . S
H1387 C1329 0.930 . S
H1388 C1331 0.930 . S
H1389 C1333 0.929 . S
H1390 C1334 0.930 . S
H1391 C1335 0.930 . S
H1392 C1338 0.930 . S
H1393 C1341 0.929 . S
H1394 C1346 0.929 . S
H1395 C1347 0.930 . S
H1396 C1354 0.929 . S
H1397 C1355 0.930 . S
H1398 C1356 0.930 . S
H1399 C1357 0.930 . S
H1400 C1359 0.929 . S
H1401 C1360 0.930 . S
H1402 C1361 0.930 . S
H1403 C1362 0.930 . S
H1404 C1366 0.929 . S
H1405 C1368 0.930 . S
H1406 C1374 0.929 . S
H1407 C1375 0.930 . S
C1408 C1409 1.363 . S
C1408 C1414 1.379 . S
C1408 N1416 1.356 . S
C1409 C1408 1.363 . S
C1409 C1415 1.363 . S
C1410 C1411 1.363 . S
C1410 C1415 1.379 . S
C1410 N1417 1.356 . S
C1411 C1410 1.363 . S
C1411 C1414 1.363 . S
N1412 C1414 1.356 . S
N1412 H1424 0.984 . S
N1412 H1425 0.985 . S
N1413 C1415 1.356 . S
N1413 H1418 0.984 . S
N1413 H1419 0.985 . S
C1414 C1408 1.379 . S
C1414 C1411 1.363 . S
C1414 N1412 1.356 . S
C1415 C1409 1.363 . S
C1415 C1410 1.379 . S
C1415 N1413 1.356 . S
N1416 C1408 1.356 . S
N1416 H1422 0.984 . S
N1416 H1423 0.984 . S
N1417 C1410 1.356 . S
N1417 H1420 0.984 . S
N1417 H1421 0.985 . S
H1418 N1413 0.984 . S
H1419 N1413 0.985 . S
H1420 N1417 0.984 . S
H1421 N1417 0.985 . S
H1422 N1416 0.984 . S
H1423 N1416 0.984 . S
H1424 N1412 0.984 . S
H1425 N1412 0.985 . S
C1426 C1427 1.363 . S
C1426 C1432 1.379 . S
C1426 N1434 1.356 . S
C1427 C1426 1.363 . S
C1427 C1433 1.363 . S
C1428 C1429 1.363 . S
C1428 C1433 1.379 . S
C1428 N1435 1.356 . S
C1429 C1428 1.363 . S
C1429 C1432 1.363 . S
N1430 C1432 1.356 . S
N1430 H1442 0.984 . S
N1430 H1443 0.985 . S
N1431 C1433 1.356 . S
N1431 H1436 0.984 . S
N1431 H1437 0.985 . S
C1432 C1426 1.379 . S
C1432 C1429 1.363 . S
C1432 N1430 1.356 . S
C1433 C1427 1.363 . S
C1433 C1428 1.379 . S
C1433 N1431 1.356 . S
N1434 C1426 1.356 . S
N1434 H1440 0.984 . S
N1434 H1441 0.984 . S
N1435 C1428 1.356 . S
N1435 H1438 0.984 . S
N1435 H1439 0.985 . S
H1436 N1431 0.984 . S
H1437 N1431 0.985 . S
H1438 N1435 0.984 . S
H1439 N1435 0.985 . S
H1440 N1434 0.984 . S
H1441 N1434 0.984 . S
H1442 N1430 0.984 . S
H1443 N1430 0.985 . S
C1444 C1445 1.363 . S
C1444 C1450 1.379 . S
C1444 N1452 1.356 . S
C1445 C1444 1.363 . S
C1445 C1451 1.363 . S
C1446 C1447 1.363 . S
C1446 C1451 1.379 . S
C1446 N1453 1.356 . S
C1447 C1446 1.363 . S
C1447 C1450 1.363 . S
N1448 C1450 1.356 . S
N1448 H1460 0.984 . S
N1448 H1461 0.985 . S
N1449 C1451 1.356 . S
N1449 H1454 0.984 . S
N1449 H1455 0.985 . S
C1450 C1444 1.379 . S
C1450 C1447 1.363 . S
C1450 N1448 1.356 . S
C1451 C1445 1.363 . S
C1451 C1446 1.379 . S
C1451 N1449 1.356 . S
N1452 C1444 1.356 . S
N1452 H1458 0.984 . S
N1452 H1459 0.984 . S
N1453 C1446 1.356 . S
N1453 H1456 0.984 . S
N1453 H1457 0.985 . S
H1454 N1449 0.984 . S
H1455 N1449 0.985 . S
H1456 N1453 0.984 . S
H1457 N1453 0.985 . S
H1458 N1452 0.984 . S
H1459 N1452 0.984 . S
H1460 N1448 0.984 . S
H1461 N1448 0.985 . S
C1462 C1463 1.363 . S
C1462 C1468 1.379 . S
C1462 N1470 1.356 . S
C1463 C1462 1.363 . S
C1463 C1469 1.363 . S
C1464 C1465 1.363 . S
C1464 C1469 1.379 . S
C1464 N1471 1.356 . S
C1465 C1464 1.363 . S
C1465 C1468 1.363 . S
N1466 C1468 1.356 . S
N1466 H1478 0.984 . S
N1466 H1479 0.985 . S
N1467 C1469 1.356 . S
N1467 H1472 0.984 . S
N1467 H1473 0.985 . S
C1468 C1462 1.379 . S
C1468 C1465 1.363 . S
C1468 N1466 1.356 . S
C1469 C1463 1.363 . S
C1469 C1464 1.379 . S
C1469 N1467 1.356 . S
N1470 C1462 1.356 . S
N1470 H1476 0.984 . S
N1470 H1477 0.984 . S
N1471 C1464 1.356 . S
N1471 H1474 0.984 . S
N1471 H1475 0.985 . S
H1472 N1467 0.984 . S
H1473 N1467 0.985 . S
H1474 N1471 0.984 . S
H1475 N1471 0.985 . S
H1476 N1470 0.984 . S
H1477 N1470 0.984 . S
H1478 N1466 0.984 . S
H1479 N1466 0.985 . S
C1480 C1481 1.363 . S
C1480 C1486 1.379 . S
C1480 N1488 1.356 . S
C1481 C1480 1.363 . S
C1481 C1487 1.363 . S
C1482 C1483 1.363 . S
C1482 C1487 1.379 . S
C1482 N1489 1.356 . S
C1483 C1482 1.363 . S
C1483 C1486 1.363 . S
N1484 C1486 1.356 . S
N1484 H1496 0.984 . S
N1484 H1497 0.985 . S
N1485 C1487 1.356 . S
N1485 H1490 0.984 . S
N1485 H1491 0.985 . S
C1486 C1480 1.379 . S
C1486 C1483 1.363 . S
C1486 N1484 1.356 . S
C1487 C1481 1.363 . S
C1487 C1482 1.379 . S
C1487 N1485 1.356 . S
N1488 C1480 1.356 . S
N1488 H1494 0.984 . S
N1488 H1495 0.984 . S
N1489 C1482 1.356 . S
N1489 H1492 0.984 . S
N1489 H1493 0.985 . S
H1490 N1485 0.984 . S
H1491 N1485 0.985 . S
H1492 N1489 0.984 . S
H1493 N1489 0.985 . S
H1494 N1488 0.984 . S
H1495 N1488 0.984 . S
H1496 N1484 0.984 . S
H1497 N1484 0.985 . S
C1498 C1499 1.363 . S
C1498 C1504 1.379 . S
C1498 N1506 1.356 . S
C1499 C1498 1.363 . S
C1499 C1505 1.363 . S
C1500 C1501 1.363 . S
C1500 C1505 1.379 . S
C1500 N1507 1.356 . S
C1501 C1500 1.363 . S
C1501 C1504 1.363 . S
N1502 C1504 1.356 . S
N1502 H1514 0.984 . S
N1502 H1515 0.985 . S
N1503 C1505 1.356 . S
N1503 H1508 0.984 . S
N1503 H1509 0.985 . S
C1504 C1498 1.379 . S
C1504 C1501 1.363 . S
C1504 N1502 1.356 . S
C1505 C1499 1.363 . S
C1505 C1500 1.379 . S
C1505 N1503 1.356 . S
N1506 C1498 1.356 . S
N1506 H1512 0.984 . S
N1506 H1513 0.984 . S
N1507 C1500 1.356 . S
N1507 H1510 0.984 . S
N1507 H1511 0.985 . S
H1508 N1503 0.984 . S
H1509 N1503 0.985 . S
H1510 N1507 0.984 . S
H1511 N1507 0.985 . S
H1512 N1506 0.984 . S
H1513 N1506 0.984 . S
H1514 N1502 0.984 . S
H1515 N1502 0.985 . S
C1516 C1517 1.363 . S
C1516 C1522 1.379 . S
C1516 N1524 1.356 . S
C1517 C1516 1.363 . S
C1517 C1523 1.363 . S
C1518 C1519 1.363 . S
C1518 C1523 1.379 . S
C1518 N1525 1.356 . S
C1519 C1518 1.363 . S
C1519 C1522 1.363 . S
N1520 C1522 1.356 . S
N1520 H1532 0.984 . S
N1520 H1533 0.985 . S
N1521 C1523 1.356 . S
N1521 H1526 0.984 . S
N1521 H1527 0.985 . S
C1522 C1516 1.379 . S
C1522 C1519 1.363 . S
C1522 N1520 1.356 . S
C1523 C1517 1.363 . S
C1523 C1518 1.379 . S
C1523 N1521 1.356 . S
N1524 C1516 1.356 . S
N1524 H1530 0.984 . S
N1524 H1531 0.984 . S
N1525 C1518 1.356 . S
N1525 H1528 0.984 . S
N1525 H1529 0.985 . S
H1526 N1521 0.984 . S
H1527 N1521 0.985 . S
H1528 N1525 0.984 . S
H1529 N1525 0.985 . S
H1530 N1524 0.984 . S
H1531 N1524 0.984 . S
H1532 N1520 0.984 . S
H1533 N1520 0.985 . S
C1534 C1535 1.363 . S
C1534 C1540 1.379 . S
C1534 N1542 1.356 . S
C1535 C1534 1.363 . S
C1535 C1541 1.363 . S
C1536 C1537 1.363 . S
C1536 C1541 1.379 . S
C1536 N1543 1.356 . S
C1537 C1536 1.363 . S
C1537 C1540 1.363 . S
N1538 C1540 1.356 . S
N1538 H1550 0.984 . S
N1538 H1551 0.985 . S
N1539 C1541 1.356 . S
N1539 H1544 0.984 . S
N1539 H1545 0.985 . S
C1540 C1534 1.379 . S
C1540 C1537 1.363 . S
C1540 N1538 1.356 . S
C1541 C1535 1.363 . S
C1541 C1536 1.379 . S
C1541 N1539 1.356 . S
N1542 C1534 1.356 . S
N1542 H1548 0.984 . S
N1542 H1549 0.984 . S
N1543 C1536 1.356 . S
N1543 H1546 0.984 . S
N1543 H1547 0.985 . S
H1544 N1539 0.984 . S
H1545 N1539 0.985 . S
H1546 N1543 0.984 . S
H1547 N1543 0.985 . S
H1548 N1542 0.984 . S
H1549 N1542 0.984 . S
H1550 N1538 0.984 . S
H1551 N1538 0.985 . S
C1552 C1553 1.363 . S
C1552 C1558 1.379 . S
C1552 N1560 1.356 . S
C1553 C1552 1.363 . S
C1553 C1559 1.363 . S
C1554 C1555 1.363 . S
C1554 C1559 1.379 . S
C1554 N1561 1.356 . S
C1555 C1554 1.363 . S
C1555 C1558 1.363 . S
N1556 C1558 1.356 . S
N1556 H1568 0.984 . S
N1556 H1569 0.985 . S
N1557 C1559 1.356 . S
N1557 H1562 0.984 . S
N1557 H1563 0.985 . S
C1558 C1552 1.379 . S
C1558 C1555 1.363 . S
C1558 N1556 1.356 . S
C1559 C1553 1.363 . S
C1559 C1554 1.379 . S
C1559 N1557 1.356 . S
N1560 C1552 1.356 . S
N1560 H1566 0.984 . S
N1560 H1567 0.984 . S
N1561 C1554 1.356 . S
N1561 H1564 0.984 . S
N1561 H1565 0.985 . S
H1562 N1557 0.984 . S
H1563 N1557 0.985 . S
H1564 N1561 0.984 . S
H1565 N1561 0.985 . S
H1566 N1560 0.984 . S
H1567 N1560 0.984 . S
H1568 N1556 0.984 . S
H1569 N1556 0.985 . S
C1570 C1571 1.363 . S
C1570 C1576 1.379 . S
C1570 N1578 1.356 . S
C1571 C1570 1.363 . S
C1571 C1577 1.363 . S
C1572 C1573 1.363 . S
C1572 C1577 1.379 . S
C1572 N1579 1.356 . S
C1573 C1572 1.363 . S
C1573 C1576 1.363 . S
N1574 C1576 1.356 . S
N1574 H1586 0.984 . S
N1574 H1587 0.985 . S
N1575 C1577 1.356 . S
N1575 H1580 0.984 . S
N1575 H1581 0.985 . S
C1576 C1570 1.379 . S
C1576 C1573 1.363 . S
C1576 N1574 1.356 . S
C1577 C1571 1.363 . S
C1577 C1572 1.379 . S
C1577 N1575 1.356 . S
N1578 C1570 1.356 . S
N1578 H1584 0.984 . S
N1578 H1585 0.984 . S
N1579 C1572 1.356 . S
N1579 H1582 0.984 . S
N1579 H1583 0.985 . S
H1580 N1575 0.984 . S
H1581 N1575 0.985 . S
H1582 N1579 0.984 . S
H1583 N1579 0.985 . S
H1584 N1578 0.984 . S
H1585 N1578 0.984 . S
H1586 N1574 0.984 . S
H1587 N1574 0.985 . S
C1588 C1589 1.363 . S
C1588 C1594 1.379 . S
C1588 N1596 1.356 . S
C1589 C1588 1.363 . S
C1589 C1595 1.363 . S
C1590 C1591 1.363 . S
C1590 C1595 1.379 . S
C1590 N1597 1.356 . S
C1591 C1590 1.363 . S
C1591 C1594 1.363 . S
N1592 C1594 1.356 . S
N1592 H1604 0.984 . S
N1592 H1605 0.985 . S
N1593 C1595 1.356 . S
N1593 H1598 0.984 . S
N1593 H1599 0.985 . S
C1594 C1588 1.379 . S
C1594 C1591 1.363 . S
C1594 N1592 1.356 . S
C1595 C1589 1.363 . S
C1595 C1590 1.379 . S
C1595 N1593 1.356 . S
N1596 C1588 1.356 . S
N1596 H1602 0.984 . S
N1596 H1603 0.984 . S
N1597 C1590 1.356 . S
N1597 H1600 0.984 . S
N1597 H1601 0.985 . S
H1598 N1593 0.984 . S
H1599 N1593 0.985 . S
H1600 N1597 0.984 . S
H1601 N1597 0.985 . S
H1602 N1596 0.984 . S
H1603 N1596 0.984 . S
H1604 N1592 0.984 . S
H1605 N1592 0.985 . S
C1606 C1607 1.363 . S
C1606 C1612 1.379 . S
C1606 N1614 1.356 . S
C1607 C1606 1.363 . S
C1607 C1613 1.363 . S
C1608 C1609 1.363 . S
C1608 C1613 1.379 . S
C1608 N1615 1.356 . S
C1609 C1608 1.363 . S
C1609 C1612 1.363 . S
N1610 C1612 1.356 . S
N1610 H1622 0.984 . S
N1610 H1623 0.985 . S
N1611 C1613 1.356 . S
N1611 H1616 0.984 . S
N1611 H1617 0.985 . S
C1612 C1606 1.379 . S
C1612 C1609 1.363 . S
C1612 N1610 1.356 . S
C1613 C1607 1.363 . S
C1613 C1608 1.379 . S
C1613 N1611 1.356 . S
N1614 C1606 1.356 . S
N1614 H1620 0.984 . S
N1614 H1621 0.984 . S
N1615 C1608 1.356 . S
N1615 H1618 0.984 . S
N1615 H1619 0.985 . S
H1616 N1611 0.984 . S
H1617 N1611 0.985 . S
H1618 N1615 0.984 . S
H1619 N1615 0.985 . S
H1620 N1614 0.984 . S
H1621 N1614 0.984 . S
H1622 N1610 0.984 . S
H1623 N1610 0.985 . S
C1624 C1625 1.363 . S
C1624 C1630 1.379 . S
C1624 N1632 1.356 . S
C1625 C1624 1.363 . S
C1625 C1631 1.363 . S
C1626 C1627 1.363 . S
C1626 C1631 1.379 . S
C1626 N1633 1.356 . S
C1627 C1626 1.363 . S
C1627 C1630 1.363 . S
N1628 C1630 1.356 . S
N1628 H1640 0.984 . S
N1628 H1641 0.985 . S
N1629 C1631 1.356 . S
N1629 H1634 0.984 . S
N1629 H1635 0.985 . S
C1630 C1624 1.379 . S
C1630 C1627 1.363 . S
C1630 N1628 1.356 . S
C1631 C1625 1.363 . S
C1631 C1626 1.379 . S
C1631 N1629 1.356 . S
N1632 C1624 1.356 . S
N1632 H1638 0.984 . S
N1632 H1639 0.984 . S
N1633 C1626 1.356 . S
N1633 H1636 0.984 . S
N1633 H1637 0.985 . S
H1634 N1629 0.984 . S
H1635 N1629 0.985 . S
H1636 N1633 0.984 . S
H1637 N1633 0.985 . S
H1638 N1632 0.984 . S
H1639 N1632 0.984 . S
H1640 N1628 0.984 . S
H1641 N1628 0.985 . S
C1642 C1643 1.363 . S
C1642 C1648 1.379 . S
C1642 N1650 1.356 . S
C1643 C1642 1.363 . S
C1643 C1649 1.363 . S
C1644 C1645 1.363 . S
C1644 C1649 1.379 . S
C1644 N1651 1.356 . S
C1645 C1644 1.363 . S
C1645 C1648 1.363 . S
N1646 C1648 1.356 . S
N1646 H1658 0.984 . S
N1646 H1659 0.985 . S
N1647 C1649 1.356 . S
N1647 H1652 0.984 . S
N1647 H1653 0.985 . S
C1648 C1642 1.379 . S
C1648 C1645 1.363 . S
C1648 N1646 1.356 . S
C1649 C1643 1.363 . S
C1649 C1644 1.379 . S
C1649 N1647 1.356 . S
N1650 C1642 1.356 . S
N1650 H1656 0.984 . S
N1650 H1657 0.984 . S
N1651 C1644 1.356 . S
N1651 H1654 0.984 . S
N1651 H1655 0.985 . S
H1652 N1647 0.984 . S
H1653 N1647 0.985 . S
H1654 N1651 0.984 . S
H1655 N1651 0.985 . S
H1656 N1650 0.984 . S
H1657 N1650 0.984 . S
H1658 N1646 0.984 . S
H1659 N1646 0.985 . S
C1660 C1661 1.363 . S
C1660 C1666 1.379 . S
C1660 N1668 1.356 . S
C1661 C1660 1.363 . S
C1661 C1667 1.363 . S
C1662 C1663 1.363 . S
C1662 C1667 1.379 . S
C1662 N1669 1.356 . S
C1663 C1662 1.363 . S
C1663 C1666 1.363 . S
N1664 C1666 1.356 . S
N1664 H1676 0.984 . S
N1664 H1677 0.985 . S
N1665 C1667 1.356 . S
N1665 H1670 0.984 . S
N1665 H1671 0.985 . S
C1666 C1660 1.379 . S
C1666 C1663 1.363 . S
C1666 N1664 1.356 . S
C1667 C1661 1.363 . S
C1667 C1662 1.379 . S
C1667 N1665 1.356 . S
N1668 C1660 1.356 . S
N1668 H1674 0.984 . S
N1668 H1675 0.984 . S
N1669 C1662 1.356 . S
N1669 H1672 0.984 . S
N1669 H1673 0.985 . S
H1670 N1665 0.984 . S
H1671 N1665 0.985 . S
H1672 N1669 0.984 . S
H1673 N1669 0.985 . S
H1674 N1668 0.984 . S
H1675 N1668 0.984 . S
H1676 N1664 0.984 . S
H1677 N1664 0.985 . S
C1678 C1679 1.363 . S
C1678 C1684 1.379 . S
C1678 N1686 1.356 . S
C1679 C1678 1.363 . S
C1679 C1685 1.363 . S
C1680 C1681 1.363 . S
C1680 C1685 1.379 . S
C1680 N1687 1.356 . S
C1681 C1680 1.363 . S
C1681 C1684 1.363 . S
N1682 C1684 1.356 . S
N1682 H1694 0.984 . S
N1682 H1695 0.985 . S
N1683 C1685 1.356 . S
N1683 H1688 0.984 . S
N1683 H1689 0.985 . S
C1684 C1678 1.379 . S
C1684 C1681 1.363 . S
C1684 N1682 1.356 . S
C1685 C1679 1.363 . S
C1685 C1680 1.379 . S
C1685 N1683 1.356 . S
N1686 C1678 1.356 . S
N1686 H1692 0.984 . S
N1686 H1693 0.984 . S
N1687 C1680 1.356 . S
N1687 H1690 0.984 . S
N1687 H1691 0.985 . S
H1688 N1683 0.984 . S
H1689 N1683 0.985 . S
H1690 N1687 0.984 . S
H1691 N1687 0.985 . S
H1692 N1686 0.984 . S
H1693 N1686 0.984 . S
H1694 N1682 0.984 . S
H1695 N1682 0.985 . S
C1696 C1697 1.363 . S
C1696 C1702 1.379 . S
C1696 N1704 1.356 1_455 S
C1697 C1696 1.363 . S
C1697 C1703 1.363 . S
C1698 C1699 1.363 . S
C1698 C1703 1.379 . S
C1698 N1705 1.356 . S
C1699 C1698 1.363 . S
C1699 C1702 1.363 . S
N1700 C1702 1.356 . S
N1700 H1712 0.984 . S
N1700 H1713 0.985 . S
N1701 C1703 1.356 . S
N1701 H1706 0.984 . S
N1701 H1707 0.985 . S
C1702 C1696 1.379 . S
C1702 C1699 1.363 . S
C1702 N1700 1.356 . S
C1703 C1697 1.363 . S
C1703 C1698 1.379 . S
C1703 N1701 1.356 . S
N1704 C1696 1.356 1_655 S
N1704 H1710 0.984 . S
N1704 H1711 0.984 . S
N1705 C1698 1.356 . S
N1705 H1708 0.984 . S
N1705 H1709 0.985 . S
H1706 N1701 0.984 . S
H1707 N1701 0.985 . S
H1708 N1705 0.984 . S
H1709 N1705 0.985 . S
H1710 N1704 0.984 . S
H1711 N1704 0.984 . S
H1712 N1700 0.984 . S
H1713 N1700 0.985 . S
C1714 C1715 1.363 . S
C1714 C1720 1.379 . S
C1714 N1722 1.356 1_545 S
C1715 C1714 1.363 . S
C1715 C1721 1.363 . S
C1716 C1717 1.363 . S
C1716 C1721 1.379 . S
C1716 N1723 1.356 . S
C1717 C1716 1.363 . S
C1717 C1720 1.363 . S
N1718 C1720 1.356 . S
N1718 H1730 0.984 . S
N1718 H1731 0.985 . S
N1719 C1721 1.356 . S
N1719 H1724 0.984 . S
N1719 H1725 0.985 . S
C1720 C1714 1.379 . S
C1720 C1717 1.363 . S
C1720 N1718 1.356 . S
C1721 C1715 1.363 . S
C1721 C1716 1.379 . S
C1721 N1719 1.356 . S
N1722 C1714 1.356 1_565 S
N1722 H1728 0.984 . S
N1722 H1729 0.984 . S
N1723 C1716 1.356 . S
N1723 H1726 0.984 . S
N1723 H1727 0.985 . S
H1724 N1719 0.984 . S
H1725 N1719 0.985 . S
H1726 N1723 0.984 . S
H1727 N1723 0.985 . S
H1728 N1722 0.984 . S
H1729 N1722 0.984 . S
H1730 N1718 0.984 . S
H1731 N1718 0.985 . S
C1732 C1733 1.363 . S
C1732 C1738 1.379 . S
C1732 N1740 1.356 . S
C1733 C1732 1.363 . S
C1733 C1739 1.363 . S
C1734 C1735 1.363 . S
C1734 C1739 1.379 . S
C1734 N1741 1.356 1_655 S
C1735 C1734 1.363 . S
C1735 C1738 1.363 . S
N1736 C1738 1.356 . S
N1736 H1748 0.984 . S
N1736 H1749 0.985 . S
N1737 C1739 1.356 . S
N1737 H1742 0.984 . S
N1737 H1743 0.985 . S
C1738 C1732 1.379 . S
C1738 C1735 1.363 . S
C1738 N1736 1.356 . S
C1739 C1733 1.363 . S
C1739 C1734 1.379 . S
C1739 N1737 1.356 . S
N1740 C1732 1.356 . S
N1740 H1746 0.984 . S
N1740 H1747 0.984 . S
N1741 C1734 1.356 1_455 S
N1741 H1744 0.984 . S
N1741 H1745 0.985 . S
H1742 N1737 0.984 . S
H1743 N1737 0.985 . S
H1744 N1741 0.984 . S
H1745 N1741 0.985 . S
H1746 N1740 0.984 . S
H1747 N1740 0.984 . S
H1748 N1736 0.984 . S
H1749 N1736 0.985 . S
C1750 C1751 1.363 . S
C1750 C1756 1.379 . S
C1750 N1758 1.356 . S
C1751 C1750 1.363 . S
C1751 C1757 1.363 . S
C1752 C1753 1.363 . S
C1752 C1757 1.379 . S
C1752 N1759 1.356 . S
C1753 C1752 1.363 . S
C1753 C1756 1.363 . S
N1754 C1756 1.356 . S
N1754 H1766 0.984 . S
N1754 H1767 0.985 . S
N1755 C1757 1.356 . S
N1755 H1760 0.984 . S
N1755 H1761 0.985 . S
C1756 C1750 1.379 . S
C1756 C1753 1.363 . S
C1756 N1754 1.356 . S
C1757 C1751 1.363 . S
C1757 C1752 1.379 . S
C1757 N1755 1.356 . S
N1758 C1750 1.356 . S
N1758 H1764 0.984 . S
N1758 H1765 0.984 . S
N1759 C1752 1.356 . S
N1759 H1762 0.984 . S
N1759 H1763 0.985 . S
H1760 N1755 0.984 . S
H1761 N1755 0.985 . S
H1762 N1759 0.984 . S
H1763 N1759 0.985 . S
H1764 N1758 0.984 . S
H1765 N1758 0.984 . S
H1766 N1754 0.984 . S
H1767 N1754 0.985 . S
C1768 C1769 1.363 . S
C1768 C1774 1.379 . S
C1768 N1776 1.356 . S
C1769 C1768 1.363 . S
C1769 C1775 1.363 . S
C1770 C1771 1.363 . S
C1770 C1775 1.379 . S
C1770 N1777 1.356 . S
C1771 C1770 1.363 . S
C1771 C1774 1.363 . S
N1772 C1774 1.356 . S
N1772 H1784 0.984 . S
N1772 H1785 0.985 . S
N1773 C1775 1.356 . S
N1773 H1778 0.984 . S
N1773 H1779 0.985 . S
C1774 C1768 1.379 . S
C1774 C1771 1.363 . S
C1774 N1772 1.356 . S
C1775 C1769 1.363 . S
C1775 C1770 1.379 . S
C1775 N1773 1.356 . S
N1776 C1768 1.356 . S
N1776 H1782 0.984 . S
N1776 H1783 0.984 . S
N1777 C1770 1.356 . S
N1777 H1780 0.984 . S
N1777 H1781 0.985 . S
H1778 N1773 0.984 . S
H1779 N1773 0.985 . S
H1780 N1777 0.984 . S
H1781 N1777 0.985 . S
H1782 N1776 0.984 . S
H1783 N1776 0.984 . S
H1784 N1772 0.984 . S
H1785 N1772 0.985 . S
C1786 C1787 1.363 . S
C1786 C1792 1.379 . S
C1786 N1794 1.356 . S
C1787 C1786 1.363 . S
C1787 C1793 1.363 . S
C1788 C1789 1.363 . S
C1788 C1793 1.379 . S
C1788 N1795 1.356 . S
C1789 C1788 1.363 . S
C1789 C1792 1.363 . S
N1790 C1792 1.356 1_565 S
N1790 H1802 0.984 . S
N1790 H1803 0.985 . S
N1791 C1793 1.356 . S
N1791 H1796 0.984 . S
N1791 H1797 0.985 . S
C1792 C1786 1.379 . S
C1792 C1789 1.363 . S
C1792 N1790 1.356 1_545 S
C1793 C1787 1.363 . S
C1793 C1788 1.379 . S
C1793 N1791 1.356 . S
N1794 C1786 1.356 . S
N1794 H1800 0.984 . S
N1794 H1801 0.984 . S
N1795 C1788 1.356 . S
N1795 H1798 0.984 . S
N1795 H1799 0.985 . S
H1796 N1791 0.984 . S
H1797 N1791 0.985 . S
H1798 N1795 0.984 . S
H1799 N1795 0.985 . S
H1800 N1794 0.984 . S
H1801 N1794 0.984 . S
H1802 N1790 0.984 . S
H1803 N1790 0.985 . S
C1804 C1805 1.363 . S
C1804 C1810 1.379 . S
C1804 N1812 1.356 . S
C1805 C1804 1.363 . S
C1805 C1811 1.363 . S
C1806 C1807 1.363 . S
C1806 C1811 1.379 . S
C1806 N1813 1.356 . S
C1807 C1806 1.363 . S
C1807 C1810 1.363 . S
N1808 C1810 1.356 . S
N1808 H1820 0.984 . S
N1808 H1821 0.985 . S
N1809 C1811 1.356 1_455 S
N1809 H1814 0.984 . S
N1809 H1815 0.985 . S
C1810 C1804 1.379 . S
C1810 C1807 1.363 . S
C1810 N1808 1.356 . S
C1811 C1805 1.363 . S
C1811 C1806 1.379 . S
C1811 N1809 1.356 1_655 S
N1812 C1804 1.356 . S
N1812 H1818 0.984 . S
N1812 H1819 0.984 . S
N1813 C1806 1.356 . S
N1813 H1816 0.984 . S
N1813 H1817 0.985 . S
H1814 N1809 0.984 . S
H1815 N1809 0.985 . S
H1816 N1813 0.984 . S
H1817 N1813 0.985 . S
H1818 N1812 0.984 . S
H1819 N1812 0.984 . S
H1820 N1808 0.984 . S
H1821 N1808 0.985 . S
C1822 C1823 1.363 . S
C1822 C1828 1.379 . S
C1822 N1830 1.356 . S
C1823 C1822 1.363 . S
C1823 C1829 1.363 . S
C1824 C1825 1.363 . S
C1824 C1829 1.379 . S
C1824 N1831 1.356 . S
C1825 C1824 1.363 . S
C1825 C1828 1.363 . S
N1826 C1828 1.356 . S
N1826 H1838 0.984 . S
N1826 H1839 0.985 . S
N1827 C1829 1.356 1_545 S
N1827 H1832 0.984 . S
N1827 H1833 0.985 . S
C1828 C1822 1.379 . S
C1828 C1825 1.363 . S
C1828 N1826 1.356 . S
C1829 C1823 1.363 . S
C1829 C1824 1.379 . S
C1829 N1827 1.356 1_565 S
N1830 C1822 1.356 . S
N1830 H1836 0.984 . S
N1830 H1837 0.984 . S
N1831 C1824 1.356 . S
N1831 H1834 0.984 . S
N1831 H1835 0.985 . S
H1832 N1827 0.984 . S
H1833 N1827 0.985 . S
H1834 N1831 0.984 . S
H1835 N1831 0.985 . S
H1836 N1830 0.984 . S
H1837 N1830 0.984 . S
H1838 N1826 0.984 . S
H1839 N1826 0.985 . S
C1840 C1841 1.363 1_455 S
C1840 C1846 1.379 . S
C1840 N1848 1.356 . S
C1841 C1840 1.363 1_655 S
C1841 C1847 1.363 . S
C1842 C1843 1.363 1_655 S
C1842 C1847 1.379 . S
C1842 N1849 1.356 . S
C1843 C1842 1.363 1_455 S
C1843 C1846 1.363 . S
N1844 C1846 1.356 . S
N1844 H1856 0.984 . S
N1844 H1857 0.985 . S
N1845 C1847 1.356 . S
N1845 H1850 0.984 . S
N1845 H1851 0.985 . S
C1846 C1840 1.379 . S
C1846 C1843 1.363 . S
C1846 N1844 1.356 . S
C1847 C1841 1.363 . S
C1847 C1842 1.379 . S
C1847 N1845 1.356 . S
N1848 C1840 1.356 . S
N1848 H1854 0.984 . S
N1848 H1855 0.984 . S
N1849 C1842 1.356 . S
N1849 H1852 0.984 . S
N1849 H1853 0.985 . S
H1850 N1845 0.984 . S
H1851 N1845 0.985 . S
H1852 N1849 0.984 . S
H1853 N1849 0.985 . S
H1854 N1848 0.984 . S
H1855 N1848 0.984 . S
H1856 N1844 0.984 . S
H1857 N1844 0.985 . S
C1858 C1859 1.363 . S
C1858 C1864 1.379 . S
C1858 N1866 1.356 . S
C1859 C1858 1.363 . S
C1859 C1865 1.363 1_545 S
C1860 C1861 1.363 . S
C1860 C1865 1.379 . S
C1860 N1867 1.356 . S
C1861 C1860 1.363 . S
C1861 C1864 1.363 1_565 S
N1862 C1864 1.356 . S
N1862 H1874 0.984 . S
N1862 H1875 0.985 . S
N1863 C1865 1.356 . S
N1863 H1868 0.984 . S
N1863 H1869 0.985 . S
C1864 C1858 1.379 . S
C1864 C1861 1.363 1_545 S
C1864 N1862 1.356 . S
C1865 C1859 1.363 1_565 S
C1865 C1860 1.379 . S
C1865 N1863 1.356 . S
N1866 C1858 1.356 . S
N1866 H1872 0.984 . S
N1866 H1873 0.984 . S
N1867 C1860 1.356 . S
N1867 H1870 0.984 . S
N1867 H1871 0.985 . S
H1868 N1863 0.984 . S
H1869 N1863 0.985 . S
H1870 N1867 0.984 . S
H1871 N1867 0.985 . S
H1872 N1866 0.984 . S
H1873 N1866 0.984 . S
H1874 N1862 0.984 . S
H1875 N1862 0.985 . S
C1876 C1877 1.363 . S
C1876 C1882 1.379 . S
C1876 N1884 1.356 . S
C1877 C1876 1.363 . S
C1877 C1883 1.363 1_655 S
C1878 C1879 1.363 . S
C1878 C1883 1.379 . S
C1878 N1885 1.356 . S
C1879 C1878 1.363 . S
C1879 C1882 1.363 1_455 S
N1880 C1882 1.356 . S
N1880 H1892 0.984 . S
N1880 H1893 0.985 . S
N1881 C1883 1.356 . S
N1881 H1886 0.984 . S
N1881 H1887 0.985 . S
C1882 C1876 1.379 . S
C1882 C1879 1.363 1_655 S
C1882 N1880 1.356 . S
C1883 C1877 1.363 1_455 S
C1883 C1878 1.379 . S
C1883 N1881 1.356 . S
N1884 C1876 1.356 . S
N1884 H1890 0.984 . S
N1884 H1891 0.984 . S
N1885 C1878 1.356 . S
N1885 H1888 0.984 . S
N1885 H1889 0.985 . S
H1886 N1881 0.984 . S
H1887 N1881 0.985 . S
H1888 N1885 0.984 . S
H1889 N1885 0.985 . S
H1890 N1884 0.984 . S
H1891 N1884 0.984 . S
H1892 N1880 0.984 . S
H1893 N1880 0.985 . S
C1894 C1895 1.363 1_545 S
C1894 C1900 1.379 . S
C1894 N1902 1.356 . S
C1895 C1894 1.363 1_565 S
C1895 C1901 1.363 . S
C1896 C1897 1.363 1_565 S
C1896 C1901 1.379 . S
C1896 N1903 1.356 . S
C1897 C1896 1.363 1_545 S
C1897 C1900 1.363 . S
N1898 C1900 1.356 . S
N1898 H1910 0.984 . S
N1898 H1911 0.985 . S
N1899 C1901 1.356 . S
N1899 H1904 0.984 . S
N1899 H1905 0.985 . S
C1900 C1894 1.379 . S
C1900 C1897 1.363 . S
C1900 N1898 1.356 . S
C1901 C1895 1.363 . S
C1901 C1896 1.379 . S
C1901 N1899 1.356 . S
N1902 C1894 1.356 . S
N1902 H1908 0.984 . S
N1902 H1909 0.984 . S
N1903 C1896 1.356 . S
N1903 H1906 0.984 . S
N1903 H1907 0.985 . S
H1904 N1899 0.984 . S
H1905 N1899 0.985 . S
H1906 N1903 0.984 . S
H1907 N1903 0.985 . S
H1908 N1902 0.984 . S
H1909 N1902 0.984 . S
H1910 N1898 0.984 . S
H1911 N1898 0.985 . S
C1912 C1913 1.363 . S
C1912 C1918 1.379 1_556 S
C1912 N1920 1.356 . S
C1913 C1912 1.363 . S
C1913 C1919 1.363 . S
C1914 C1915 1.363 . S
C1914 C1919 1.379 1_554 S
C1914 N1921 1.356 . S
C1915 C1914 1.363 . S
C1915 C1918 1.363 . S
N1916 C1918 1.356 . S
N1916 H1928 0.984 . S
N1916 H1929 0.985 . S
N1917 C1919 1.356 . S
N1917 H1922 0.984 . S
N1917 H1923 0.985 . S
C1918 C1912 1.379 1_554 S
C1918 C1915 1.363 . S
C1918 N1916 1.356 . S
C1919 C1913 1.363 . S
C1919 C1914 1.379 1_556 S
C1919 N1917 1.356 . S
N1920 C1912 1.356 . S
N1920 H1926 0.984 . S
N1920 H1927 0.984 . S
N1921 C1914 1.356 . S
N1921 H1924 0.984 . S
N1921 H1925 0.985 . S
H1922 N1917 0.984 . S
H1923 N1917 0.985 . S
H1924 N1921 0.984 . S
H1925 N1921 0.985 . S
H1926 N1920 0.984 . S
H1927 N1920 0.984 . S
H1928 N1916 0.984 . S
H1929 N1916 0.985 . S
C1930 C1931 1.363 . S
C1930 C1936 1.379 1_556 S
C1930 N1938 1.356 . S
C1931 C1930 1.363 . S
C1931 C1937 1.363 . S
C1932 C1933 1.363 . S
C1932 C1937 1.379 1_554 S
C1932 N1939 1.356 . S
C1933 C1932 1.363 . S
C1933 C1936 1.363 . S
N1934 C1936 1.356 . S
N1934 H1946 0.984 . S
N1934 H1947 0.985 . S
N1935 C1937 1.356 . S
N1935 H1940 0.984 . S
N1935 H1941 0.985 . S
C1936 C1930 1.379 1_554 S
C1936 C1933 1.363 . S
C1936 N1934 1.356 . S
C1937 C1931 1.363 . S
C1937 C1932 1.379 1_556 S
C1937 N1935 1.356 . S
N1938 C1930 1.356 . S
N1938 H1944 0.984 . S
N1938 H1945 0.984 . S
N1939 C1932 1.356 . S
N1939 H1942 0.984 . S
N1939 H1943 0.985 . S
H1940 N1935 0.984 . S
H1941 N1935 0.985 . S
H1942 N1939 0.984 . S
H1943 N1939 0.985 . S
H1944 N1938 0.984 . S
H1945 N1938 0.984 . S
H1946 N1934 0.984 . S
H1947 N1934 0.985 . S
C1948 C1949 1.363 . S
C1948 C1954 1.379 1_554 S
C1948 N1956 1.356 . S
C1949 C1948 1.363 . S
C1949 C1955 1.363 . S
C1950 C1951 1.363 . S
C1950 C1955 1.379 1_556 S
C1950 N1957 1.356 . S
C1951 C1950 1.363 . S
C1951 C1954 1.363 . S
N1952 C1954 1.356 . S
N1952 H1964 0.984 . S
N1952 H1965 0.985 . S
N1953 C1955 1.356 . S
N1953 H1958 0.984 . S
N1953 H1959 0.985 . S
C1954 C1948 1.379 1_556 S
C1954 C1951 1.363 . S
C1954 N1952 1.356 . S
C1955 C1949 1.363 . S
C1955 C1950 1.379 1_554 S
C1955 N1953 1.356 . S
N1956 C1948 1.356 . S
N1956 H1962 0.984 . S
N1956 H1963 0.984 . S
N1957 C1950 1.356 . S
N1957 H1960 0.984 . S
N1957 H1961 0.985 . S
H1958 N1953 0.984 . S
H1959 N1953 0.985 . S
H1960 N1957 0.984 . S
H1961 N1957 0.985 . S
H1962 N1956 0.984 . S
H1963 N1956 0.984 . S
H1964 N1952 0.984 . S
H1965 N1952 0.985 . S
C1966 C1967 1.363 . S
C1966 C1972 1.379 1_556 S
C1966 N1974 1.356 . S
C1967 C1966 1.363 . S
C1967 C1973 1.363 . S
C1968 C1969 1.363 . S
C1968 C1973 1.379 1_554 S
C1968 N1975 1.356 . S
C1969 C1968 1.363 . S
C1969 C1972 1.363 . S
N1970 C1972 1.356 . S
N1970 H1982 0.984 . S
N1970 H1983 0.985 . S
N1971 C1973 1.356 . S
N1971 H1976 0.984 . S
N1971 H1977 0.985 . S
C1972 C1966 1.379 1_554 S
C1972 C1969 1.363 . S
C1972 N1970 1.356 . S
C1973 C1967 1.363 . S
C1973 C1968 1.379 1_556 S
C1973 N1971 1.356 . S
N1974 C1966 1.356 . S
N1974 H1980 0.984 . S
N1974 H1981 0.984 . S
N1975 C1968 1.356 . S
N1975 H1978 0.984 . S
N1975 H1979 0.985 . S
H1976 N1971 0.984 . S
H1977 N1971 0.985 . S
H1978 N1975 0.984 . S
H1979 N1975 0.985 . S
H1980 N1974 0.984 . S
H1981 N1974 0.984 . S
H1982 N1970 0.984 . S
H1983 N1970 0.985 . S
C1409 C20 1.754 . S
C1411 C293 1.653 . S
C1427 C49 1.630 . S
C1429 C117 1.743 . S
C1445 C137 1.653 . S
C1447 C196 1.754 . S
C1463 C225 1.630 . S
C1465 C313 1.743 . S
C1481 C409 1.754 . S
C1483 C497 1.653 . S
C1499 C460 1.743 . S
C1501 C557 1.630 . S
C1517 C585 1.754 . S
C1519 C636 1.653 . S
C1535 C673 1.743 . S
C1537 C381 1.630 . S
C1553 C724 1.754 . S
C1555 C988 1.653 . S
C1571 C753 1.630 . S
C1573 C821 1.743 . S
C1589 C841 1.653 . S
C1591 C900 1.754 . S
C1607 C1025 1.743 . S
C1609 C929 1.630 . S
C1625 C1201 1.653 . S
C1627 C1105 1.754 . S
C1643 C1261 1.630 . S
C1645 C1164 1.743 . S
C1661 C1289 1.754 . S
C1663 C1340 1.653 . S
C1679 C1377 1.743 . S
C1681 C1076 1.630 . S
C1697 C57 1.046 . S
C1699 C1369 1.041 . S
C1715 C108 1.041 . S
C1717 C1085 1.046 . S
C1733 C1173 1.041 . S
C1735 C233 1.046 . S
C1751 C321 1.041 . S
C1753 C1252 1.046 . S
C1769 C812 1.041 . S
C1771 C372 1.046 . S
C1787 C937 1.046 . S
C1789 C469 1.041 . S
C1805 C548 1.046 . S
C1807 C1017 1.041 . S
C1823 C665 1.041 . S
C1825 C761 1.046 . S
C1841 C29 1.557 . S
C1843 C577 1.557 . S
C1859 C645 1.556 . S
C1861 C145 1.556 . S
C1877 C401 1.557 . S
C1879 C205 1.557 . S
C1895 C489 1.556 . S
C1897 C284 1.556 . S
C1913 C733 1.557 . S
C1915 C1281 1.557 . S
C1931 C849 1.556 . S
C1933 C1349 1.556 . S
C1949 C1113 1.557 . S
C1951 C909 1.557 . S
C1967 C997 1.556 . S
C1969 C1193 1.556 . S
