# Generated by pormake.
# Topology sxf, (6)-cn, num edge types: 1
# Building blocks:
#     Node 0, Type 0, BuildingBlock: IZENUY_clean_sbu_0, # of connection points: 6
#     Node 1, Type 0, BuildingBlock: IZENUY_clean_sbu_0, # of connection points: 6
#     Node 2, Type 0, BuildingBlock: IZENUY_clean_sbu_0, # of connection points: 6
#     Node 3, Type 0, BuildingBlock: IZENUY_clean_sbu_0, # of connection points: 6
#     Node 4, Type 0, BuildingBlock: IZENUY_clean_sbu_0, # of connection points: 6
#     Node 5, Type 0, BuildingBlock: IZENUY_clean_sbu_0, # of connection points: 6
#     Node 6, Type 0, BuildingBlock: IZENUY_clean_sbu_0, # of connection points: 6
#     Node 7, Type 0, BuildingBlock: IZENUY_clean_sbu_0, # of connection points: 6
#     Node 8, Type 0, BuildingBlock: IZENUY_clean_sbu_0, # of connection points: 6
#     Node 9, Type 0, BuildingBlock: IZENUY_clean_sbu_0, # of connection points: 6
#     Node 10, Type 0, BuildingBlock: IZENUY_clean_sbu_0, # of connection points: 6
#     Node 11, Type 0, BuildingBlock: IZENUY_clean_sbu_0, # of connection points: 6
#     Node 12, Type 0, BuildingBlock: IZENUY_clean_sbu_0, # of connection points: 6
#     Node 13, Type 0, BuildingBlock: IZENUY_clean_sbu_0, # of connection points: 6
#     Node 14, Type 0, BuildingBlock: IZENUY_clean_sbu_0, # of connection points: 6
#     Node 15, Type 0, BuildingBlock: IZENUY_clean_sbu_0, # of connection points: 6
#     Node 16, Type 0, BuildingBlock: IZENUY_clean_sbu_0, # of connection points: 6
#     Node 17, Type 0, BuildingBlock: IZENUY_clean_sbu_0, # of connection points: 6
#     Node 18, Type 0, BuildingBlock: IZENUY_clean_sbu_0, # of connection points: 6
#     Node 19, Type 0, BuildingBlock: IZENUY_clean_sbu_0, # of connection points: 6
#     Node 20, Type 0, BuildingBlock: IZENUY_clean_sbu_0, # of connection points: 6
#     Node 21, Type 0, BuildingBlock: IZENUY_clean_sbu_0, # of connection points: 6
#     Node 22, Type 0, BuildingBlock: IZENUY_clean_sbu_0, # of connection points: 6
#     Node 23, Type 0, BuildingBlock: IZENUY_clean_sbu_0, # of connection points: 6
#     Edge 24, Type (0, 0), BuildingBlock: KIFKEQ_clean_linker_1, # of connection points: 2
#     Edge 25, Type (0, 0), BuildingBlock: KIFKEQ_clean_linker_1, # of connection points: 2
#     Edge 26, Type (0, 0), BuildingBlock: KIFKEQ_clean_linker_1, # of connection points: 2
#     Edge 27, Type (0, 0), BuildingBlock: KIFKEQ_clean_linker_1, # of connection points: 2
#     Edge 28, Type (0, 0), BuildingBlock: KIFKEQ_clean_linker_1, # of connection points: 2
#     Edge 29, Type (0, 0), BuildingBlock: KIFKEQ_clean_linker_1, # of connection points: 2
#     Edge 30, Type (0, 0), BuildingBlock: KIFKEQ_clean_linker_1, # of connection points: 2
#     Edge 31, Type (0, 0), BuildingBlock: KIFKEQ_clean_linker_1, # of connection points: 2
#     Edge 32, Type (0, 0), BuildingBlock: KIFKEQ_clean_linker_1, # of connection points: 2
#     Edge 33, Type (0, 0), BuildingBlock: KIFKEQ_clean_linker_1, # of connection points: 2
#     Edge 34, Type (0, 0), BuildingBlock: KIFKEQ_clean_linker_1, # of connection points: 2
#     Edge 35, Type (0, 0), BuildingBlock: KIFKEQ_clean_linker_1, # of connection points: 2
#     Edge 36, Type (0, 0), BuildingBlock: KIFKEQ_clean_linker_1, # of connection points: 2
#     Edge 37, Type (0, 0), BuildingBlock: KIFKEQ_clean_linker_1, # of connection points: 2
#     Edge 38, Type (0, 0), BuildingBlock: KIFKEQ_clean_linker_1, # of connection points: 2
#     Edge 39, Type (0, 0), BuildingBlock: KIFKEQ_clean_linker_1, # of connection points: 2
#     Edge 40, Type (0, 0), BuildingBlock: KIFKEQ_clean_linker_1, # of connection points: 2
#     Edge 41, Type (0, 0), BuildingBlock: KIFKEQ_clean_linker_1, # of connection points: 2
#     Edge 42, Type (0, 0), BuildingBlock: KIFKEQ_clean_linker_1, # of connection points: 2
#     Edge 43, Type (0, 0), BuildingBlock: KIFKEQ_clean_linker_1, # of connection points: 2
#     Edge 44, Type (0, 0), BuildingBlock: KIFKEQ_clean_linker_1, # of connection points: 2
#     Edge 45, Type (0, 0), BuildingBlock: KIFKEQ_clean_linker_1, # of connection points: 2
#     Edge 46, Type (0, 0), BuildingBlock: KIFKEQ_clean_linker_1, # of connection points: 2
#     Edge 47, Type (0, 0), BuildingBlock: KIFKEQ_clean_linker_1, # of connection points: 2
#     Edge 48, Type (0, 0), BuildingBlock: KIFKEQ_clean_linker_1, # of connection points: 2
#     Edge 49, Type (0, 0), BuildingBlock: KIFKEQ_clean_linker_1, # of connection points: 2
#     Edge 50, Type (0, 0), BuildingBlock: KIFKEQ_clean_linker_1, # of connection points: 2
#     Edge 51, Type (0, 0), BuildingBlock: KIFKEQ_clean_linker_1, # of connection points: 2
#     Edge 52, Type (0, 0), BuildingBlock: KIFKEQ_clean_linker_1, # of connection points: 2
#     Edge 53, Type (0, 0), BuildingBlock: KIFKEQ_clean_linker_1, # of connection points: 2
#     Edge 54, Type (0, 0), BuildingBlock: KIFKEQ_clean_linker_1, # of connection points: 2
#     Edge 55, Type (0, 0), BuildingBlock: KIFKEQ_clean_linker_1, # of connection points: 2
#     Edge 56, Type (0, 0), BuildingBlock: KIFKEQ_clean_linker_1, # of connection points: 2
#     Edge 57, Type (0, 0), BuildingBlock: KIFKEQ_clean_linker_1, # of connection points: 2
#     Edge 58, Type (0, 0), BuildingBlock: KIFKEQ_clean_linker_1, # of connection points: 2
#     Edge 59, Type (0, 0), BuildingBlock: KIFKEQ_clean_linker_1, # of connection points: 2
#     Edge 60, Type (0, 0), BuildingBlock: KIFKEQ_clean_linker_1, # of connection points: 2
#     Edge 61, Type (0, 0), BuildingBlock: KIFKEQ_clean_linker_1, # of connection points: 2
#     Edge 62, Type (0, 0), BuildingBlock: KIFKEQ_clean_linker_1, # of connection points: 2
#     Edge 63, Type (0, 0), BuildingBlock: KIFKEQ_clean_linker_1, # of connection points: 2
#     Edge 64, Type (0, 0), BuildingBlock: KIFKEQ_clean_linker_1, # of connection points: 2
#     Edge 65, Type (0, 0), BuildingBlock: KIFKEQ_clean_linker_1, # of connection points: 2
#     Edge 66, Type (0, 0), BuildingBlock: KIFKEQ_clean_linker_1, # of connection points: 2
#     Edge 67, Type (0, 0), BuildingBlock: KIFKEQ_clean_linker_1, # of connection points: 2
#     Edge 68, Type (0, 0), BuildingBlock: KIFKEQ_clean_linker_1, # of connection points: 2
#     Edge 69, Type (0, 0), BuildingBlock: KIFKEQ_clean_linker_1, # of connection points: 2
#     Edge 70, Type (0, 0), BuildingBlock: KIFKEQ_clean_linker_1, # of connection points: 2
#     Edge 71, Type (0, 0), BuildingBlock: KIFKEQ_clean_linker_1, # of connection points: 2
#     Edge 72, Type (0, 0), BuildingBlock: KIFKEQ_clean_linker_1, # of connection points: 2
#     Edge 73, Type (0, 0), BuildingBlock: KIFKEQ_clean_linker_1, # of connection points: 2
#     Edge 74, Type (0, 0), BuildingBlock: KIFKEQ_clean_linker_1, # of connection points: 2
#     Edge 75, Type (0, 0), BuildingBlock: KIFKEQ_clean_linker_1, # of connection points: 2
#     Edge 76, Type (0, 0), BuildingBlock: KIFKEQ_clean_linker_1, # of connection points: 2
#     Edge 77, Type (0, 0), BuildingBlock: KIFKEQ_clean_linker_1, # of connection points: 2
#     Edge 78, Type (0, 0), BuildingBlock: KIFKEQ_clean_linker_1, # of connection points: 2
#     Edge 79, Type (0, 0), BuildingBlock: KIFKEQ_clean_linker_1, # of connection points: 2
#     Edge 80, Type (0, 0), BuildingBlock: KIFKEQ_clean_linker_1, # of connection points: 2
#     Edge 81, Type (0, 0), BuildingBlock: KIFKEQ_clean_linker_1, # of connection points: 2
#     Edge 82, Type (0, 0), BuildingBlock: KIFKEQ_clean_linker_1, # of connection points: 2
#     Edge 83, Type (0, 0), BuildingBlock: KIFKEQ_clean_linker_1, # of connection points: 2
#     Edge 84, Type (0, 0), BuildingBlock: KIFKEQ_clean_linker_1, # of connection points: 2
#     Edge 85, Type (0, 0), BuildingBlock: KIFKEQ_clean_linker_1, # of connection points: 2
#     Edge 86, Type (0, 0), BuildingBlock: KIFKEQ_clean_linker_1, # of connection points: 2
#     Edge 87, Type (0, 0), BuildingBlock: KIFKEQ_clean_linker_1, # of connection points: 2
#     Edge 88, Type (0, 0), BuildingBlock: KIFKEQ_clean_linker_1, # of connection points: 2
#     Edge 89, Type (0, 0), BuildingBlock: KIFKEQ_clean_linker_1, # of connection points: 2
#     Edge 90, Type (0, 0), BuildingBlock: KIFKEQ_clean_linker_1, # of connection points: 2
#     Edge 91, Type (0, 0), BuildingBlock: KIFKEQ_clean_linker_1, # of connection points: 2
#     Edge 92, Type (0, 0), BuildingBlock: KIFKEQ_clean_linker_1, # of connection points: 2
#     Edge 93, Type (0, 0), BuildingBlock: KIFKEQ_clean_linker_1, # of connection points: 2
#     Edge 94, Type (0, 0), BuildingBlock: KIFKEQ_clean_linker_1, # of connection points: 2
#     Edge 95, Type (0, 0), BuildingBlock: KIFKEQ_clean_linker_1, # of connection points: 2
# Relax obj value: 0.435
# Max RMSD: 0.176
# Mean RMSD: 0.176
data_MOF--net-sxf--node1-IZENUY_clean_sbu_0--edge1-KIFKEQ_clean_linker_1
_symmetry_space_group_name_H-M    P1
_symmetry_Int_Tables_number       1
_symmetry_cell_setting            triclinic
loop_
_symmetry_equiv_pos_as_xyz
'x, y, z'
_cell_length_a     46.495598
_cell_length_b     46.481129
_cell_length_c     46.471277
_cell_angle_alpha  89.955912
_cell_angle_beta   89.972219
_cell_angle_gamma 89.963462
loop_
_atom_site_label
_atom_site_type_symbol
_atom_site_fract_x
_atom_site_fract_y
_atom_site_fract_z
_atom_type_partial_charge
Fe0 Fe 0.03513 0.46217 0.24193 0.0
Fe1 Fe 0.06902 0.40934 0.22003 0.0
O2 O 0.04901 0.44109 0.21334 0.0
Fe3 Fe 0.04242 0.45192 0.17762 0.0
O4 O 0.06242 0.48487 0.18305 0.0
O5 O 0.03907 0.49665 0.22253 0.0
O6 O 0.07056 0.46815 0.256 0.0
C7 C 0.08816 0.44875 0.26295 0.0
C8 C 0.99014 0.46378 0.2048 0.0
O9 O 0.0863 0.42344 0.25285 0.0
C10 C 0.03161 0.39453 0.17421 0.0
O11 O 0.02915 0.43165 0.26633 0.0
O12 O 0.03976 0.39368 0.24024 0.0
O13 O 0.00821 0.46956 0.18538 0.0
O14 O -0.00165 0.45728 0.22975 0.0
C15 C 0.09878 0.42928 0.17391 0.0
O16 O 0.05456 0.38983 0.18834 0.0
O17 O 0.02206 0.41969 0.171 0.0
C18 C 0.02731 0.40492 0.26151 0.0
O19 O 0.1001 0.42253 0.20011 0.0
O20 O 0.07502 0.4359 0.16256 0.0
C21 C 0.05538 0.50342 0.20163 0.0
Fe22 Fe 0.46089 0.53676 0.75503 0.0
Fe23 Fe 0.42696 0.58756 0.72964 0.0
O24 O 0.44865 0.55653 0.72473 0.0
Fe25 Fe 0.45806 0.5454 0.68979 0.0
O26 O 0.45687 0.50696 0.69831 0.0
O27 O 0.44224 0.50449 0.74342 0.0
O28 O 0.42917 0.5451 0.77714 0.0
C29 C 0.40381 0.55171 0.7696 0.0
C30 C 0.50864 0.53421 0.71717 0.0
O31 O 0.39933 0.56628 0.74712 0.0
C32 C 0.46411 0.60587 0.68804 0.0
O33 O 0.48032 0.56795 0.76825 0.0
O34 O 0.44342 0.59724 0.76402 0.0
O35 O 0.49608 0.54807 0.69761 0.0
O36 O 0.49463 0.52443 0.73836 0.0
C37 C 0.40254 0.5619 0.68034 0.0
O38 O 0.45335 0.61063 0.71247 0.0
O39 O 0.4608 0.58196 0.67542 0.0
C40 C 0.4683 0.59172 0.7736 0.0
O41 O 0.40673 0.58373 0.69598 0.0
O42 O 0.42074 0.5419 0.6794 0.0
C43 C 0.44486 0.49351 0.71874 0.0
Fe44 Fe 0.56521 0.08214 0.76934 0.0
Fe45 Fe 0.54556 0.0347 0.81065 0.0
O46 O 0.54753 0.04888 0.77554 0.0
Fe47 Fe 0.53144 0.02924 0.74694 0.0
O48 O 0.56552 0.02574 0.72896 0.0
O49 O 0.58039 0.07067 0.7343 0.0
O50 O 0.59878 0.06993 0.78529 0.0
C51 C 0.60095 0.05903 0.80996 0.0
C52 C 0.51972 0.08727 0.73206 0.0
O53 O 0.57912 0.05023 0.82332 0.0
C54 C 0.49078 0.02306 0.7885 0.0
O55 O 0.55271 0.09871 0.80355 0.0
O56 O 0.52526 0.0652 0.82293 0.0
O57 O 0.52208 0.061 0.72538 0.0
O58 O 0.53347 0.09754 0.75296 0.0
C59 C 0.55728 0.98593 0.78129 0.0
O60 O 0.51121 0.01646 0.80517 0.0
O61 O 0.49595 0.03187 0.76337 0.0
C62 C 0.53292 0.09113 0.82096 0.0
O63 O 0.566 0.00353 0.79991 0.0
O64 O 0.53829 0.99346 0.76313 0.0
C65 C 0.58246 0.04597 0.7226 0.0
Fe66 Fe 0.9663 0.96107 0.30582 0.0
Fe67 Fe 0.97158 0.96806 0.24082 0.0
O68 O 0.95869 0.94843 0.27091 0.0
Fe69 Fe 0.93852 0.91635 0.26636 0.0
O70 O 0.90791 0.9305 0.28628 0.0
O71 O 0.93362 0.94679 0.32233 0.0
O72 O 0.9464 0.99367 0.29909 0.0
C73 C 0.95213 0.01106 0.2791 0.0
C74 C 0.97632 0.90377 0.31256 0.0
O75 O 0.96821 0.0036 0.25832 0.0
C76 C 0.9794 0.90997 0.22429 0.0
O77 O 0.00056 0.978 0.29627 0.0
O78 O 0.00877 0.96386 0.25204 0.0
O79 O 0.95335 0.89864 0.2987 0.0
O80 O 0.98644 0.92889 0.31399 0.0
C81 C 0.91771 0.95372 0.22242 0.0
O82 O 0.9768 0.93634 0.218 0.0
O83 O 0.96751 0.89965 0.24637 0.0
C84 C 0.01781 0.97208 0.27616 0.0
O85 O 0.93563 0.97335 0.22763 0.0
O86 O 0.92038 0.92876 0.23326 0.0
C87 C 0.9096 0.94039 0.31146 0.0
Fe88 Fe 0.22214 0.07322 0.40871 0.0
Fe89 Fe 0.18196 0.04329 0.4514 0.0
O90 O 0.21705 0.05144 0.43963 0.0
Fe91 Fe 0.24718 0.03779 0.45865 0.0
O92 O 0.27027 0.06885 0.45057 0.0
O93 O 0.24127 0.09991 0.42967 0.0
O94 O 0.18948 0.09485 0.41389 0.0
C95 C 0.17466 0.09955 0.43624 0.0
C96 C 0.26504 0.03053 0.40331 0.0
O97 O 0.17333 0.08104 0.45602 0.0
C98 C 0.20763 0.99139 0.46061 0.0
O99 O 0.2033 0.04776 0.38589 0.0
O100 O 0.16652 0.04225 0.4152 0.0
O101 O 0.25945 0.01847 0.427 0.0
O102 O 0.25565 0.05551 0.39781 0.0
C103 C 0.21228 0.05365 0.50311 0.0
O104 O 0.18818 0.00503 0.44759 0.0
O105 O 0.22946 0.00438 0.4704 0.0
C106 C 0.17835 0.03839 0.39096 0.0
O107 O 0.1913 0.04278 0.48966 0.0
O108 O 0.23669 0.0562 0.49155 0.0
C109 C 0.26374 0.09449 0.4439 0.0
Fe110 Fe 0.31369 0.96129 0.95315 0.0
Fe111 Fe 0.24865 0.96809 0.9609 0.0
O112 O 0.27837 0.9537 0.94174 0.0
Fe113 Fe 0.27261 0.93172 0.91104 0.0
O114 O 0.30505 0.90948 0.91603 0.0
O115 O 0.32176 0.92346 0.95785 0.0
O116 O 0.30473 0.96188 0.99147 0.0
C117 C 0.28362 0.95136 0.00504 0.0
C118 C 0.31676 0.96579 0.89265 0.0
O119 O 0.25899 0.9496 0.9938 0.0
C120 C 0.23068 0.9754 0.90557 0.0
O121 O 0.30816 -0.00032 0.94931 0.0
O122 O 0.26709 0.0012 0.97241 0.0
O123 O 0.29175 0.95659 0.88772 0.0
O124 O 0.32874 0.96207 0.91681 0.0
C125 C 0.23081 0.91156 0.94688 0.0
O126 O 0.23659 0.98753 0.92914 0.0
O127 O 0.23935 0.95008 0.90036 0.0
C128 C 0.28915 0.01373 0.96252 0.0
O129 O 0.22491 0.93743 0.95325 0.0
O130 O 0.25304 0.90556 0.93245 0.0
C131 C 0.32024 0.90492 0.93818 0.0
Fe132 Fe 0.71904 0.42171 0.59472 0.0
Fe133 Fe 0.67328 0.44227 0.55236 0.0
O134 O 0.70962 0.44115 0.56324 0.0
Fe135 Fe 0.7364 0.45929 0.54294 0.0
O136 O 0.76418 0.43219 0.55015 0.0
O137 O 0.74192 0.39781 0.57415 0.0
O138 O 0.69025 0.3947 0.5913 0.0
C139 C 0.67625 0.3865 0.56943 0.0
C140 C 0.75495 0.47057 0.59754 0.0
O141 O 0.67204 0.40353 0.54879 0.0
C142 C 0.68909 0.49803 0.542 0.0
O143 O 0.69672 0.44488 0.61696 0.0
O144 O 0.6587 0.44116 0.5891 0.0
O145 O 0.74703 0.48081 0.57371 0.0
O146 O 0.7494 0.44481 0.6042 0.0
C147 C 0.70325 0.43716 0.4996 0.0
O148 O 0.6723 0.4811 0.55499 0.0
O149 O 0.71299 0.4893 0.53219 0.0
C150 C 0.67015 0.44826 0.61276 0.0
O151 O 0.68103 0.4436 0.51386 0.0
O152 O 0.72801 0.43937 0.51037 0.0
C153 C 0.76213 0.40611 0.55797 0.0
Fe154 Fe 0.77347 0.56158 0.08941 0.0
Fe155 Fe 0.81659 0.53372 0.04832 0.0
O156 O 0.78077 0.54148 0.05772 0.0
Fe157 Fe 0.75234 0.5292 0.03557 0.0
O158 O 0.74043 0.56565 0.02968 0.0
O159 O 0.7407 0.57869 0.07514 0.0
O160 O 0.79344 0.59248 0.07616 0.0
C161 C 0.81915 0.59109 0.06761 0.0
C162 C 0.73235 0.51984 0.09233 0.0
O163 O 0.83121 0.56707 0.06324 0.0
C164 C 0.7874 0.48226 0.03458 0.0
O165 O 0.80478 0.54795 0.10956 0.0
O166 O 0.82178 0.51411 0.08141 0.0
O167 O 0.72722 0.52374 0.06578 0.0
O168 O 0.7534 0.53191 0.10436 0.0
C169 C 0.79474 0.54716 0.99557 0.0
O170 O 0.80857 0.49905 0.03161 0.0
O171 O 0.76258 0.49178 0.03978 0.0
C172 C 0.81821 0.5245 0.10616 0.0
O173 O 0.81316 0.5528 0.01462 0.0
O174 O 0.77258 0.53243 0.00157 0.0
C175 C 0.73339 0.58298 0.04925 0.0
Fe176 Fe 0.41377 0.22506 0.0717 0.0
Fe177 Fe 0.4552 0.18164 0.04527 0.0
O178 O 0.44424 0.21758 0.05009 0.0
Fe179 Fe 0.46359 0.24585 0.03335 0.0
O180 O 0.45718 0.27167 0.06278 0.0
O181 O 0.43528 0.24622 0.09627 0.0
O182 O 0.41905 0.19428 0.09628 0.0
C183 C 0.44183 0.18049 0.10217 0.0
C184 C 0.40841 0.2645 0.02569 0.0
O185 O 0.46122 0.17741 0.08348 0.0
C186 C 0.46267 0.20195 0.99079 0.0
O187 O 0.39048 0.20429 0.04803 0.0
O188 O 0.41884 0.16648 0.04766 0.0
O189 O 0.43178 0.25748 0.01381 0.0
O190 O 0.40305 0.2571 0.05135 0.0
C191 C 0.50772 0.21136 0.05087 0.0
O192 O 0.44989 0.18408 0.00674 0.0
O193 O 0.47357 0.2247 0.00121 0.0
C194 C 0.39475 0.17806 0.04258 0.0
O195 O 0.49348 0.18999 0.04206 0.0
O196 O 0.49678 0.23615 0.05168 0.0
C197 C 0.45053 0.26749 0.08897 0.0
Fe198 Fe 0.95387 0.25183 0.96178 0.0
Fe199 Fe 0.90452 0.27183 0.92268 0.0
O200 O 0.93457 0.27992 0.94464 0.0
Fe201 Fe 0.94495 0.31607 0.94928 0.0
O202 O 0.9834 0.30827 0.95172 0.0
O203 O 0.98725 0.26165 0.94412 0.0
O204 O 0.94819 0.22611 0.93223 0.0
C205 C 0.94242 0.23052 0.90587 0.0
C206 C 0.95295 0.296 0.00401 0.0
O207 O 0.92699 0.25156 0.89825 0.0
C208 C 0.88431 0.31785 0.95241 0.0
O209 O 0.92184 0.24002 0.98088 0.0
O210 O 0.8945 0.23932 0.94245 0.0
O211 O 0.94036 0.31384 0.98788 0.0
O212 O 0.96321 0.27286 0.99392 0.0
C213 C 0.93102 0.31749 0.89253 0.0
O214 O 0.88063 0.29168 0.94635 0.0
O215 O 0.90807 0.33027 0.94758 0.0
C216 C 0.89915 0.23224 0.9683 0.0
O217 O 0.90881 0.30292 0.89844 0.0
O218 O 0.95051 0.32064 0.91102 0.0
C219 C -0.00208 0.28656 0.9441 0.0
Fe220 Fe 0.53022 0.74875 0.47475 0.0
Fe221 Fe 0.58037 0.72468 0.43791 0.0
O222 O 0.54851 0.71948 0.45828 0.0
Fe223 Fe 0.53442 0.68456 0.46244 0.0
O224 O 0.50228 0.69477 0.44339 0.0
O225 O 0.49383 0.7328 0.47021 0.0
O226 O 0.52482 0.76568 0.44047 0.0
C227 C 0.54374 0.7712 0.42182 0.0
C228 C 0.52604 0.70856 0.51693 0.0
O229 O 0.56842 0.7594 0.42256 0.0
C230 C 0.59138 0.67504 0.47198 0.0
O231 O 0.56293 0.77007 0.48157 0.0
O232 O 0.59824 0.74184 0.46774 0.0
O233 O 0.51804 0.69143 0.49746 0.0
O234 O 0.53473 0.7334 0.51052 0.0
C235 C 0.55486 0.68298 0.40545 0.0
O236 O 0.59731 0.69067 0.45025 0.0
O237 O 0.56607 0.67324 0.48152 0.0
C238 C 0.58936 0.76339 0.48149 0.0
O239 O 0.56542 0.70786 0.40593 0.0
O240 O 0.54801 0.6704 0.42847 0.0
C241 C 0.4856 0.71445 0.45167 0.0
Fe242 Fe 0.04675 0.81895 0.54414 0.0
Fe243 Fe 0.03959 0.75532 0.52764 0.0
O244 O 0.05847 0.7829 0.5461 0.0
Fe245 Fe 0.08939 0.77469 0.56671 0.0
O246 O 0.084 0.80356 0.59315 0.0
O247 O 0.04128 0.82037 0.58268 0.0
O248 O 0.00861 0.81029 0.54089 0.0
C249 C 0.99469 0.78799 0.54761 0.0
C250 C 0.10703 0.82378 0.54039 0.0
O251 O 0.00603 0.76338 0.54631 0.0
C252 C 0.09527 0.73834 0.51859 0.0
O253 O 0.05144 0.81943 0.50562 0.0
O254 O 0.02974 0.77824 0.4968 0.0
O255 O 0.11186 0.79733 0.544 0.0
O256 O 0.0829 0.83456 0.54692 0.0
C257 C 0.05346 0.7308 0.58181 0.0
O258 O 0.07148 0.745 0.50738 0.0
O259 O 0.10051 0.74433 0.54455 0.0
C260 C 0.03989 0.80211 0.48824 0.0
O261 O 0.04635 0.72798 0.55557 0.0
O262 O 0.06858 0.75174 0.59013 0.0
C263 C 0.06123 0.81651 0.6006 0.0
Fe264 Fe 0.92929 0.58691 0.76634 0.0
Fe265 Fe 0.95843 0.54588 0.8086 0.0
O266 O 0.95075 0.55602 0.77292 0.0
Fe267 Fe 0.96444 0.53531 0.74383 0.0
O268 O 0.93343 0.54245 0.72018 0.0
O269 O 0.90265 0.56536 0.74797 0.0
O270 O 0.90722 0.58336 0.79913 0.0
C271 C 0.90233 0.56156 0.81476 0.0
C272 C 0.97249 0.58981 0.72367 0.0
O273 O 0.9207 0.5418 0.81691 0.0
C274 C 0.01052 0.53511 0.78409 0.0
O275 O 0.95473 0.61038 0.78428 0.0
O276 O 0.95957 0.58274 0.82244 0.0
O277 O 0.98399 0.56602 0.72993 0.0
O278 O 0.94754 0.59615 0.73261 0.0
C279 C 0.94772 0.49295 0.78086 0.0
O280 O 0.9966 0.54925 0.80251 0.0
O281 O -0.00216 0.52428 0.76249 0.0
C282 C 0.9637 0.60633 0.8095 0.0
O283 O 0.95871 0.50724 0.80121 0.0
O284 O 0.94572 0.5032 0.75583 0.0
C285 C 0.90788 0.54991 0.7263 0.0
Fe286 Fe 0.53318 0.46544 0.25382 0.0
Fe287 Fe 0.56698 0.41356 0.27818 0.0
O288 O 0.54759 0.44606 0.28345 0.0
Fe289 Fe 0.54217 0.45949 0.31848 0.0
O290 O 0.5615 0.49214 0.30998 0.0
O291 O 0.53683 0.50125 0.27083 0.0
O292 O 0.56849 0.47057 0.239 0.0
C293 C 0.5859 0.45065 0.23296 0.0
C294 C 0.48891 0.46897 0.29168 0.0
O295 O 0.58365 0.42576 0.24416 0.0
C296 C 0.5317 0.40229 0.32687 0.0
O297 O 0.52706 0.43358 0.23126 0.0
O298 O 0.53692 0.39713 0.25964 0.0
O299 O 0.50726 0.47578 0.31054 0.0
O300 O 0.49669 0.46116 0.26694 0.0
C301 C 0.59884 0.43761 0.32131 0.0
O302 O 0.55343 0.39613 0.31143 0.0
O303 O 0.52257 0.42772 0.32869 0.0
C304 C 0.52482 0.40718 0.23757 0.0
O305 O 0.59879 0.42708 0.29637 0.0
O306 O 0.57578 0.44553 0.33325 0.0
C307 C 0.55343 0.50955 0.29085 0.0
Fe308 Fe 0.42547 0.90712 0.22599 0.0
Fe309 Fe 0.45455 0.94394 0.18014 0.0
O310 O 0.44854 0.93599 0.21674 0.0
Fe311 Fe 0.46584 0.95646 0.24372 0.0
O312 O 0.43567 0.95386 0.26909 0.0
O313 O 0.40154 0.93095 0.24532 0.0
O314 O 0.40171 0.91158 0.19442 0.0
C315 C 0.39716 0.93362 0.17889 0.0
C316 C 0.47042 0.90234 0.2665 0.0
O317 O 0.41682 0.95186 0.17487 0.0
C318 C 0.509 0.9493 0.20095 0.0
O319 O 0.44869 0.8816 0.20753 0.0
O320 O 0.4502 0.90686 0.16772 0.0
O321 O 0.48331 0.92475 0.25836 0.0
O322 O 0.4447 0.89765 0.25901 0.0
C323 C 0.45318 -0.00085 0.20567 0.0
O324 O 0.49251 0.93649 0.18364 0.0
O325 O 0.49893 0.96243 0.22268 0.0
C326 C 0.45533 0.88398 0.18139 0.0
O327 O 0.46039 0.98235 0.18559 0.0
O328 O 0.44979 0.98992 0.23095 0.0
C329 C 0.40937 0.94759 0.26532 0.0
Fe330 Fe 0.06568 0.08688 0.71885 0.0
Fe331 Fe 0.04032 0.03908 0.68128 0.0
O332 O 0.04708 0.05371 0.71553 0.0
Fe333 Fe 0.03508 0.03483 0.74635 0.0
O334 O 0.07154 0.03127 0.759 0.0
O335 O 0.08422 0.07661 0.75252 0.0
O336 O 0.097 0.07334 0.69972 0.0
C337 C 0.09607 0.06207 0.6751 0.0
C338 C 0.02495 0.09305 0.76076 0.0
O339 O 0.07247 0.05402 0.66435 0.0
C340 C 0.98907 0.02725 0.71136 0.0
O341 O 0.05011 0.10253 0.68575 0.0
O342 O 0.01884 0.06988 0.67151 0.0
O343 O 0.02901 0.06714 0.76808 0.0
O344 O 0.03593 0.10296 0.73806 0.0
C345 C 0.05543 0.99065 0.70994 0.0
O346 O 0.00673 0.02122 0.69158 0.0
O347 O -0.00237 0.03736 0.73503 0.0
C348 C 0.02748 0.09558 0.67211 0.0
O349 O 0.0615 0.00756 0.68962 0.0
O350 O 0.03927 -0.00119 0.73033 0.0
C351 C 0.08883 0.05176 0.7629 0.0
Fe352 Fe 0.77558 0.93196 0.58376 0.0
Fe353 Fe 0.81886 0.9603 0.54297 0.0
O354 O 0.78294 0.9524 0.55227 0.0
Fe355 Fe 0.75441 0.96485 0.53016 0.0
O356 O 0.74231 0.92841 0.52384 0.0
O357 O 0.74295 0.91481 0.56916 0.0
O358 O 0.79591 0.90119 0.57047 0.0
C359 C 0.82168 0.90263 0.56199 0.0
C360 C 0.73381 0.9733 0.58703 0.0
O361 O 0.83355 0.92664 0.55717 0.0
C362 C 0.78938 0.01196 0.5297 0.0
O363 O 0.80674 0.94541 0.60422 0.0
O364 O 0.82456 0.9792 0.57649 0.0
O365 O 0.72914 0.96995 0.56032 0.0
O366 O 0.75507 0.96141 0.599 0.0
C367 C 0.79718 0.94811 0.48979 0.0
O368 O 0.81076 0.99537 0.52699 0.0
O369 O 0.76459 0.00225 0.53473 0.0
C370 C 0.8214 0.96818 0.60105 0.0
O371 O 0.81544 0.94194 0.50883 0.0
O372 O 0.7747 0.96222 0.4961 0.0
C373 C 0.73496 0.91106 0.54335 0.0
Fe374 Fe 0.74601 0.03035 0.02952 0.0
Fe375 Fe 0.72212 0.06101 0.08322 0.0
O376 O 0.71645 0.0417 0.05075 0.0
Fe377 Fe 0.68126 0.0337 0.03942 0.0
O378 O 0.6861 0.05368 0.00634 0.0
O379 O 0.72706 0.0333 0.99482 0.0
O380 O 0.757 0.0672 0.02448 0.0
C381 C 0.76247 0.08455 0.04455 0.0
C382 C 0.71189 0.98288 0.02718 0.0
O383 O 0.75475 0.07948 0.07022 0.0
C384 C 0.67702 0.02277 0.09692 0.0
O385 O 0.77032 0.02538 0.06032 0.0
O386 O 0.74264 0.03149 0.09816 0.0
O387 O 0.69087 -0.00049 0.02249 0.0
O388 O 0.7364 0.99268 0.03332 0.0
C389 C 0.67641 0.09033 0.06081 0.0
O390 O 0.6905 0.04593 0.10186 0.0
O391 O 0.67457 0.01322 0.07171 0.0
C392 C 0.7647 0.02075 0.08662 0.0
O393 O 0.70173 0.09181 0.0704 0.0
O394 O 0.66523 0.06637 0.0544 0.0
C395 C 0.70531 0.04826 0.98801 0.0
Fe396 Fe 0.25094 0.53364 0.46022 0.0
Fe397 Fe 0.27146 0.56639 0.40626 0.0
O398 O 0.27901 0.54595 0.4376 0.0
Fe399 Fe 0.31499 0.53783 0.44609 0.0
O400 O 0.31248 0.55743 0.47956 0.0
O401 O 0.27192 0.53733 0.49363 0.0
O402 O 0.23862 0.56995 0.46624 0.0
C403 C 0.23141 0.58756 0.44696 0.0
C404 C 0.28609 0.48673 0.46145 0.0
O405 O 0.23922 0.58397 0.4211 0.0
C406 C 0.31512 0.52828 0.38848 0.0
O407 O 0.22545 0.52791 0.43049 0.0
O408 O 0.25072 0.53723 0.39147 0.0
O409 O 0.30721 0.50361 0.46382 0.0
O410 O 0.26127 0.49616 0.45616 0.0
C411 C 0.31852 0.59488 0.42558 0.0
O412 O 0.30215 0.55211 0.38541 0.0
O413 O 0.31886 0.51772 0.41316 0.0
C414 C 0.2302 0.52456 0.40381 0.0
O415 O 0.29219 0.59692 0.41946 0.0
O416 O 0.3299 0.57053 0.42986 0.0
C417 C 0.29435 0.55193 0.49903 0.0
Fe418 Fe 0.22126 0.41912 0.90668 0.0
Fe419 Fe 0.17872 0.43963 0.95238 0.0
O420 O 0.21407 0.43863 0.93873 0.0
Fe421 Fe 0.24206 0.45709 0.95687 0.0
O422 O 0.26956 0.43034 0.94753 0.0
O423 O 0.24596 0.39552 0.92565 0.0
O424 O 0.19304 0.39196 0.91258 0.0
C425 C 0.18057 0.38384 0.93544 0.0
C426 C 0.25603 0.46856 0.90094 0.0
O427 O 0.178 0.40089 0.95634 0.0
C428 C 0.19476 0.49553 0.96076 0.0
O429 O 0.19697 0.44195 0.88599 0.0
O430 O 0.1615 0.43824 0.91697 0.0
O431 O 0.24981 0.47865 0.92532 0.0
O432 O 0.25056 0.44262 0.8948 0.0
C433 C 0.21258 0.43494 0.00262 0.0
O434 O 0.1773 0.4783 0.94927 0.0
O435 O 0.2192 0.48699 0.96937 0.0
C436 C 0.17097 0.44616 0.89269 0.0
O437 O 0.18938 0.44151 0.99015 0.0
O438 O 0.23645 0.43695 0.98997 0.0
C439 C 0.26717 0.40413 0.94032 0.0
Fe440 Fe 0.59077 0.77015 0.93235 0.0
Fe441 Fe 0.5554 0.81726 0.96203 0.0
O442 O 0.56191 0.78048 0.95516 0.0
Fe443 Fe 0.53966 0.75393 0.97107 0.0
O444 O 0.5428 0.72877 0.94098 0.0
O445 O 0.56638 0.75265 0.90756 0.0
O446 O 0.58887 0.80215 0.90913 0.0
C447 C 0.56816 0.81925 0.90464 0.0
C448 C 0.59229 0.72888 0.97684 0.0
O449 O 0.5501 0.82446 0.92415 0.0
C450 C 0.54553 0.795 0.01556 0.0
O451 O 0.61706 0.78684 0.95586 0.0
O452 O 0.59338 0.82763 0.9605 0.0
O453 O 0.57023 0.73811 0.98965 0.0
O454 O 0.59785 0.73635 0.95126 0.0
C455 C 0.49969 0.7941 0.95513 0.0
O456 O 0.55997 0.81247 0.0006 0.0
O457 O 0.53238 0.77433 0.00382 0.0
C458 C 0.61598 0.81279 0.96355 0.0
O459 O 0.51634 0.81345 0.96451 0.0
O460 O 0.50762 0.76816 0.95365 0.0
C461 C 0.54924 0.73292 0.91483 0.0
Fe462 Fe 0.03208 0.74546 0.02425 0.0
Fe463 Fe 0.08394 0.72274 0.05933 0.0
O464 O 0.05172 0.71659 0.0398 0.0
Fe465 Fe 0.03887 0.68122 0.03547 0.0
O466 O 0.00636 0.68987 0.05487 0.0
O467 O 0.99648 0.72824 0.02909 0.0
O468 O 0.02688 0.76177 0.05897 0.0
C469 C 0.04646 0.76806 0.07664 0.0
C470 C 0.0285 0.70588 0.98139 0.0
O471 O 0.07143 0.75707 0.07484 0.0
C472 C 0.09606 0.67348 0.02537 0.0
O473 O 0.06387 0.76787 0.01705 0.0
O474 O 0.10048 0.74039 0.02886 0.0
O475 O 0.02202 0.68777 0.00058 0.0
O476 O 0.03626 0.73093 0.98816 0.0
C477 C 0.06017 0.68035 0.09218 0.0
O478 O 0.10167 0.68929 0.04695 0.0
O479 O 0.07077 0.67113 0.01595 0.0
C480 C 0.09037 0.76171 0.01554 0.0
O481 O 0.07018 0.70547 0.0916 0.0
O482 O 0.05327 0.66755 0.06931 0.0
C483 C 0.98881 0.70891 0.04684 0.0
Fe484 Fe 0.44468 0.31925 0.55669 0.0
Fe485 Fe 0.45252 0.25586 0.53996 0.0
O486 O 0.43283 0.28325 0.55785 0.0
Fe487 Fe 0.40101 0.27471 0.57705 0.0
O488 O 0.40493 0.3035 0.60406 0.0
O489 O 0.44794 0.32054 0.59543 0.0
O490 O 0.4829 0.31026 0.55589 0.0
C491 C 0.49626 0.28765 0.56297 0.0
C492 C 0.38447 0.32396 0.55004 0.0
O493 O 0.48488 0.26318 0.56053 0.0
C494 C 0.39749 0.23946 0.52786 0.0
O495 O 0.44248 0.32015 0.51784 0.0
O496 O 0.46459 0.27902 0.51012 0.0
O497 O 0.37956 0.29753 0.55364 0.0
O498 O 0.40833 0.33487 0.55733 0.0
C499 C 0.43625 0.23049 0.59301 0.0
O500 O 0.42172 0.2465 0.51796 0.0
O501 O 0.39098 0.24461 0.55377 0.0
C502 C 0.45552 0.30316 0.50116 0.0
O503 O 0.444 0.22811 0.56691 0.0
O504 O 0.42086 0.25136 0.60117 0.0
C505 C 0.42716 0.31686 0.61237 0.0
Fe506 Fe 0.90318 0.2271 0.42129 0.0
Fe507 Fe 0.9427 0.1809 0.44584 0.0
O508 O 0.93299 0.21744 0.44296 0.0
Fe509 Fe 0.95279 0.24414 0.46158 0.0
O510 O 0.94811 0.27154 0.43325 0.0
O511 O 0.92587 0.24857 0.39821 0.0
O512 O 0.90777 0.19749 0.39528 0.0
C513 C 0.93029 0.18356 0.38883 0.0
C514 C 0.89822 0.2644 0.46889 0.0
O515 O 0.94918 0.17873 0.4076 0.0
C516 C 0.94976 0.19782 0.50157 0.0
O517 O 0.87888 0.2061 0.44364 0.0
O518 O 0.90581 0.16725 0.44228 0.0
O519 O 0.92096 0.25586 0.48089 0.0
O520 O 0.89321 0.25847 0.44283 0.0
C521 C 0.99629 0.20918 0.44316 0.0
O522 O 0.9371 0.18114 0.48432 0.0
O523 O 0.96097 0.22112 0.4928 0.0
C524 C 0.88219 0.17953 0.44794 0.0
O525 O 0.98114 0.18767 0.44987 0.0
O526 O 0.98621 0.23433 0.44383 0.0
C527 C 0.94179 0.26881 0.40678 0.0
H528 H 0.13884 0.42102 0.27521 0.0
H529 H 0.08433 0.49127 0.3026 0.0
H530 H 0.17386 0.43404 0.31256 0.0
H531 H 0.11888 0.50393 0.33955 0.0
H532 H 0.1754 0.50776 0.41721 0.0
H533 H 0.14102 0.4838 0.38545 0.0
H534 H 0.20557 0.47913 0.31878 0.0
H535 H 0.23992 0.50295 0.35033 0.0
C536 C 0.13425 0.439 0.28931 0.0
C537 C 0.10906 0.45531 0.28582 0.0
C538 C 0.1542 0.44641 0.3106 0.0
C539 C 0.14887 0.46983 0.32897 0.0
C540 C 0.1233 0.48552 0.32595 0.0
C541 C 0.1037 0.47845 0.30453 0.0
C542 C 0.18234 0.50126 0.39593 0.0
C543 C 0.21013 0.50769 0.38603 0.0
C544 C 0.16271 0.48757 0.37781 0.0
C545 C 0.1707 0.47979 0.3497 0.0
C546 C 0.19896 0.48472 0.34043 0.0
C547 C 0.21847 0.49866 0.35838 0.0
H548 H 0.28731 0.51706 0.91243 0.0
H549 H 0.26411 0.45887 0.84374 0.0
H550 H 0.32048 0.54186 0.88 0.0
H551 H 0.29715 0.48376 0.81144 0.0
H552 H 0.34669 0.54829 0.75598 0.0
H553 H 0.30732 0.53266 0.7874 0.0
H554 H 0.36724 0.52306 0.85772 0.0
H555 H 0.40644 0.53838 0.82653 0.0
C556 C 0.28894 0.50986 0.89033 0.0
C557 C 0.27343 0.48578 0.88071 0.0
C558 C 0.30795 0.524 0.87183 0.0
C559 C 0.31141 0.51459 0.84333 0.0
C560 C 0.29472 0.49156 0.83327 0.0
C561 C 0.27601 0.47719 0.85183 0.0
C562 C 0.35133 0.54314 0.77824 0.0
C563 C 0.37962 0.54435 0.78878 0.0
C564 C 0.32887 0.53416 0.79613 0.0
C565 C 0.33431 0.52677 0.82494 0.0
C566 C 0.36242 0.52897 0.83569 0.0
C567 C 0.38488 0.53748 0.81775 0.0
H568 H 0.6351 0.07185 0.71527 0.0
H569 H 0.57908 0.00715 0.67919 0.0
H570 H 0.67263 0.05835 0.68053 0.0
H571 H 0.61615 0.99394 0.64476 0.0
H572 H 0.67982 0.99122 0.57175 0.0
H573 H 0.64353 0.01355 0.60243 0.0
H574 H 0.70305 0.01284 0.67369 0.0
H575 H 0.73946 0.99051 0.64308 0.0
C576 C 0.63066 0.05513 0.69967 0.0
C577 C 0.60423 0.04047 0.70003 0.0
C578 C 0.65214 0.04729 0.67995 0.0
C579 C 0.64728 0.02509 0.65995 0.0
C580 C 0.62044 0.01131 0.65968 0.0
C581 C 0.59927 0.01877 0.67957 0.0
C582 C 0.68531 0.99604 0.59387 0.0
C583 C 0.71244 0.98872 0.60504 0.0
C584 C 0.66449 0.00881 0.61144 0.0
C585 C 0.67044 0.01484 0.64047 0.0
C586 C 0.69794 0.00866 0.65134 0.0
C587 C 0.71869 0.99562 0.63385 0.0
H588 H 0.9174 0.99602 0.18218 0.0
H589 H 0.8666 0.92515 0.21457 0.0
H590 H 0.87974 0.00766 0.14795 0.0
H591 H 0.82845 0.93715 0.17999 0.0
H592 H 0.75785 0.0019 0.14199 0.0
H593 H 0.79454 0.98128 0.17349 0.0
H594 H 0.85619 0.98502 0.10409 0.0
H595 H 0.8197 0.00562 0.07254 0.0
C596 C 0.89818 0.98285 0.18195 0.0
C597 C 0.8949 0.95971 0.20116 0.0
C598 C 0.87673 0.9894 0.16214 0.0
C599 C 0.85132 0.9732 0.16125 0.0
C600 C 0.84791 0.94995 0.18032 0.0
C601 C 0.8697 0.94306 0.19997 0.0
C602 C 0.77916 -0.00193 0.13336 0.0
C603 C 0.786 0.00581 0.1049 0.0
C604 C 0.80004 0.98603 0.15133 0.0
C605 C 0.82816 0.98177 0.14122 0.0
C606 C 0.83468 0.98836 0.11245 0.0
C607 C 0.81378 0.00012 0.09441 0.0
H608 H 0.34 0.23307 0.53564 0.0
H609 H 0.41018 0.20628 0.48083 0.0
H610 H 0.30774 0.20042 0.51039 0.0
H611 H 0.37773 0.17338 0.4556 0.0
H612 H 0.32024 0.08962 0.4586 0.0
H613 H 0.35269 0.12777 0.4739 0.0
H614 H 0.28536 0.19049 0.46112 0.0
H615 H 0.2527 0.15225 0.4456 0.0
C616 C 0.34844 0.2204 0.51799 0.0
C617 C 0.37766 0.22194 0.51041 0.0
C618 C 0.32992 0.20192 0.50339 0.0
C619 C 0.34031 0.18436 0.48115 0.0
C620 C 0.36928 0.18662 0.47282 0.0
C621 C 0.38778 0.20547 0.48717 0.0
C622 C 0.31239 0.11157 0.45878 0.0
C623 C 0.28385 0.11794 0.45112 0.0
C624 C 0.33108 0.13342 0.46728 0.0
C625 C 0.3215 0.16202 0.46864 0.0
C626 C 0.29319 0.16855 0.46031 0.0
C627 C 0.27457 0.14671 0.4514 0.0
H628 H 0.17979 0.91758 0.97524 0.0
H629 H 0.23447 0.8537 0.93542 0.0
H630 H 0.1457 0.8803 0.98842 0.0
H631 H 0.19984 0.8163 0.94826 0.0
H632 H 0.07752 0.81197 0.98755 0.0
H633 H 0.11109 0.84707 0.9678 0.0
H634 H 0.18235 0.79235 0.99164 0.0
H635 H 0.14887 0.75698 0.01081 0.0
C636 C 0.18447 0.8956 0.96908 0.0
C637 C 0.20993 0.88866 0.95428 0.0
C638 C 0.16475 0.87423 0.97646 0.0
C639 C 0.16995 0.84534 0.96925 0.0
C640 C 0.19532 0.83834 0.9543 0.0
C641 C 0.2151 0.85979 0.94687 0.0
C642 C 0.10032 0.80726 0.98831 0.0
C643 C 0.11048 0.78178 0.00106 0.0
C644 C 0.11957 0.82746 0.97713 0.0
C645 C 0.14941 0.82264 0.97843 0.0
C646 C 0.15951 0.79664 0.9901 0.0
C647 C 0.14027 0.77643 0.00127 0.0
H648 H 0.85768 0.29905 0.44501 0.0
H649 H 0.89472 0.27487 0.5269 0.0
H650 H 0.82624 0.3331 0.46921 0.0
H651 H 0.86268 0.30915 0.55121 0.0
H652 H 0.77099 0.35068 0.5765 0.0
H653 H 0.80544 0.31578 0.55706 0.0
H654 H 0.83707 0.38001 0.4979 0.0
H655 H 0.8031 0.41483 0.51715 0.0
C656 C 0.85904 0.3009 0.4682 0.0
C657 C 0.87879 0.28438 0.48405 0.0
C658 C 0.84112 0.3205 0.482 0.0
C659 C 0.84229 0.32379 0.51196 0.0
C660 C 0.86148 0.30689 0.52804 0.0
C661 C 0.87982 0.28746 0.51414 0.0
C662 C 0.78551 0.3574 0.55956 0.0
C663 C 0.7842 0.38545 0.54824 0.0
C664 C 0.80526 0.33751 0.5486 0.0
C665 C 0.82364 0.3453 0.52593 0.0
C666 C 0.8229 0.3735 0.51523 0.0
C667 C 0.8035 0.39341 0.52635 0.0
H668 H 0.73312 0.61344 -9e-05 0.0
H669 H 0.68996 0.6058 0.08181 0.0
H670 H 0.69867 0.6497 0.98488 0.0
H671 H 0.65413 0.64118 0.0662 0.0
H672 H 0.60827 0.72405 0.03332 0.0
H673 H 0.64345 0.69012 0.05331 0.0
H674 H 0.65062 0.64928 0.96998 0.0
H675 H 0.61705 0.68385 0.95007 0.0
C676 C 0.71611 0.61956 0.01465 0.0
C677 C 0.71391 0.60671 0.04183 0.0
C678 C 0.6962 0.64014 0.00599 0.0
C679 C 0.67314 0.64782 0.02403 0.0
C680 C 0.67163 0.63579 0.05179 0.0
C681 C 0.69204 0.61552 0.06072 0.0
C682 C 0.61734 0.7076 0.01952 0.0
C683 C 0.61039 0.70668 0.99016 0.0
C684 C 0.6374 0.68818 0.0309 0.0
C685 C 0.65037 0.66738 0.01309 0.0
C686 C 0.64193 0.66565 0.9841 0.0
C687 C 0.62248 0.68528 0.97271 0.0
H688 H 0.43936 0.26626 0.14685 0.0
H689 H 0.48178 0.31678 0.08123 0.0
H690 H 0.45477 0.30064 0.18328 0.0
H691 H 0.4976 0.3508 0.11775 0.0
H692 H 0.49953 0.42039 0.18604 0.0
H693 H 0.47952 0.38728 0.15071 0.0
H694 H 0.4991 0.31567 0.20669 0.0
H695 H 0.51861 0.34876 0.24229 0.0
C696 C 0.45193 0.2847 0.14016 0.0
C697 C 0.4593 0.28874 0.11107 0.0
C698 C 0.4609 0.30433 0.16109 0.0
C699 C 0.47743 0.32847 0.15344 0.0
C700 C 0.48455 0.33265 0.12433 0.0
C701 C 0.47561 0.31303 0.1034 0.0
C702 C 0.49938 0.39761 0.19095 0.0
C703 C 0.51086 0.38725 0.21697 0.0
C704 C 0.48807 0.37862 0.17059 0.0
C705 C 0.4879 0.34881 0.17578 0.0
C706 C 0.49865 0.33852 0.20212 0.0
C707 C 0.50999 0.35751 0.22248 0.0
H708 H 0.93208 0.23125 0.84788 0.0
H709 H 0.97522 0.1826 0.9145 0.0
H710 H 0.94943 0.19722 0.81192 0.0
H711 H 0.99296 0.14907 0.87852 0.0
H712 H 0.01721 0.15116 0.75524 0.0
H713 H 0.99531 0.18382 0.78988 0.0
H714 H 0.97611 0.11193 0.84566 0.0
H715 H -0.00148 0.07931 0.8114 0.0
C716 C 0.9452 0.2133 0.85487 0.0
C717 C 0.95223 0.20961 0.88407 0.0
C718 C 0.95525 0.19391 0.83425 0.0
C719 C 0.97251 0.17047 0.84241 0.0
C720 C 0.97932 0.16667 0.87162 0.0
C721 C 0.96928 0.18601 0.89222 0.0
C722 C 0.00818 0.14229 0.77482 0.0
C723 C 0.00989 0.11267 0.7807 0.0
C724 C 0.99548 0.16099 0.79458 0.0
C725 C 0.98416 0.15045 0.82056 0.0
C726 C 0.98509 0.12074 0.82604 0.0
C727 C -0.00217 0.10205 0.80633 0.0
H728 H 0.44748 0.85387 0.28991 0.0
H729 H 0.52468 0.90579 0.28997 0.0
H730 H 0.46826 0.82281 0.32635 0.0
H731 H 0.54547 0.87432 0.32693 0.0
H732 H 0.57617 0.78809 0.37497 0.0
H733 H 0.56101 0.82022 0.33576 0.0
H734 H 0.47968 0.83369 0.37852 0.0
H735 H 0.49436 0.80208 0.41716 0.0
C736 C 0.46894 0.85865 0.2976 0.0
C737 C 0.48422 0.88262 0.28734 0.0
C738 C 0.48081 0.84083 0.31852 0.0
C739 C 0.50829 0.84643 0.32966 0.0
C740 C 0.52423 0.86959 0.31862 0.0
C741 C 0.51224 0.88764 0.29765 0.0
C742 C 0.55518 0.79814 0.37605 0.0
C743 C 0.5364 0.79224 0.39906 0.0
C744 C 0.54658 0.81653 0.35369 0.0
C745 C 0.51903 0.829 0.354 0.0
C746 C 0.50081 0.8239 0.37749 0.0
C747 C 0.50936 0.80581 0.3997 0.0
H748 H 0.05365 0.73542 0.64021 0.0
H749 H 0.03366 0.67639 0.57118 0.0
H750 H 0.03664 0.70021 0.67523 0.0
H751 H 0.01682 0.6411 0.60645 0.0
H752 H 0.01466 0.57744 0.68434 0.0
H753 H 0.03695 0.61077 0.65002 0.0
H754 H 0.98541 0.68017 0.68402 0.0
H755 H 0.96297 0.64707 0.71795 0.0
C756 C 0.04593 0.71482 0.63253 0.0
C757 C 0.04484 0.70871 0.60293 0.0
C758 C 0.03613 0.69476 0.65257 0.0
C759 C 0.02543 0.66808 0.64344 0.0
C760 C 0.02519 0.66151 0.61397 0.0
C761 C 0.03462 0.68175 0.59384 0.0
C762 C 0.00825 0.59984 0.68453 0.0
C763 C 0.98701 0.60968 0.70368 0.0
C764 C 0.02088 0.61881 0.66487 0.0
C765 C 0.01287 0.64794 0.66453 0.0
C766 C 0.9921 0.65783 0.68406 0.0
C767 C 0.97915 0.63886 0.70332 0.0
H768 H 0.91175 0.53066 0.67086 0.0
H769 H 0.85027 0.55161 0.73747 0.0
H770 H 0.87245 0.51597 0.63929 0.0
H771 H 0.81106 0.53671 0.70584 0.0
H772 H 0.76194 0.464 0.65507 0.0
H773 H 0.79755 0.4871 0.68583 0.0
H774 H 0.82765 0.53719 0.61357 0.0
H775 H 0.79168 0.51419 0.58264 0.0
C776 C 0.88987 0.53227 0.6787 0.0
C777 C 0.88411 0.54215 0.70671 0.0
C778 C 0.86739 0.52411 0.66054 0.0
C779 C 0.83879 0.52529 0.67017 0.0
C780 C 0.83297 0.53555 0.69797 0.0
C781 C 0.8554 0.5441 0.71601 0.0
C782 C 0.77591 0.48022 0.64582 0.0
C783 C 0.77421 0.48719 0.61645 0.0
C784 C 0.79615 0.49354 0.66347 0.0
C785 C 0.81536 0.5138 0.652 0.0
C786 C 0.81314 0.52148 0.62283 0.0
C787 C 0.7925 0.50847 0.60523 0.0
H788 H 0.63655 0.42203 0.22275 0.0
H789 H 0.58332 0.49165 0.19152 0.0
H790 H 0.67268 0.43357 0.18594 0.0
H791 H 0.619 0.50288 0.1551 0.0
H792 H 0.67747 0.5036 0.07869 0.0
H793 H 0.64205 0.48145 0.11061 0.0
H794 H 0.70526 0.47765 0.17854 0.0
H795 H 0.74072 0.49968 0.14677 0.0
C796 C 0.63246 0.43953 0.2079 0.0
C797 C 0.60728 0.45609 0.21015 0.0
C798 C 0.65308 0.44613 0.18694 0.0
C799 C 0.64848 0.469 0.16764 0.0
C800 C 0.62291 0.4849 0.16943 0.0
C801 C 0.60263 0.47863 0.19052 0.0
C802 C 0.68392 0.49768 0.1003 0.0
C803 C 0.71171 0.50383 0.11039 0.0
C804 C 0.66366 0.48504 0.11853 0.0
C805 C 0.67095 0.47802 0.14703 0.0
C806 C 0.69917 0.48267 0.15661 0.0
C807 C 0.71933 0.49556 0.13849 0.0
H808 H 0.35534 0.92663 0.27596 0.0
H809 H 0.41497 0.9933 0.30129 0.0
H810 H 0.31993 0.9455 0.31016 0.0
H811 H 0.37954 0.01212 0.33509 0.0
H812 H 0.29481 0.05697 0.36045 0.0
H813 H 0.32939 0.03563 0.32744 0.0
H814 H 0.31628 0.95257 0.36689 0.0
H815 H 0.28159 0.97399 0.40045 0.0
C816 C 0.36086 0.94527 0.28879 0.0
C817 C 0.38789 0.95853 0.28595 0.0
C818 C 0.34071 0.95589 0.30843 0.0
C819 C 0.34711 0.98022 0.32511 0.0
C820 C 0.3741 0.99342 0.32231 0.0
C821 C 0.39437 0.98257 0.30306 0.0
C822 C 0.29919 0.03414 0.36213 0.0
C823 C 0.28558 0.01715 0.38314 0.0
C824 C 0.31908 0.022 0.3433 0.0
C825 C 0.32548 0.99256 0.34479 0.0
C826 C 0.31155 0.97535 0.36536 0.0
C827 C 0.2919 0.98761 0.38458 0.0
H828 H 0.19763 0.94905 0.86551 0.0
H829 H 0.21914 0.03301 0.89892 0.0
H830 H 0.16591 0.97086 0.83055 0.0
H831 H 0.18805 0.05532 0.86263 0.0
H832 H 0.10303 0.07852 0.81318 0.0
H833 H 0.13916 0.06224 0.84803 0.0
H834 H 0.1671 0.99698 0.7878 0.0
H835 H 0.12991 0.01219 0.75423 0.0
C836 C 0.1958 0.97229 0.86515 0.0
C837 C 0.21099 0.98932 0.88488 0.0
C838 C 0.17776 0.98489 0.84485 0.0
C839 C 0.17479 0.01496 0.84327 0.0
C840 C 0.18974 0.0321 0.86327 0.0
C841 C 0.20757 0.01936 0.88401 0.0
C842 C 0.11736 0.06106 0.80743 0.0
C843 C 0.11381 0.04638 0.78133 0.0
C844 C 0.13805 0.05172 0.82728 0.0
C845 C 0.15566 0.02784 0.82103 0.0
C846 C 0.15331 0.01478 0.79381 0.0
C847 C 0.13229 0.02364 0.7744 0.0
H848 H 0.69802 0.88305 0.57982 0.0
H849 H 0.72502 0.88701 0.49092 0.0
H850 H 0.66252 0.84612 0.56731 0.0
H851 H 0.68994 0.84997 0.47865 0.0
H852 H 0.64764 0.76158 0.47489 0.0
H853 H 0.68299 0.79619 0.49182 0.0
H854 H 0.61599 0.84439 0.53429 0.0
H855 H 0.58012 0.8098 0.51704 0.0
C856 C 0.69654 0.87588 0.5577 0.0
C857 C 0.7143 0.88791 0.53633 0.0
C858 C 0.67613 0.85493 0.55056 0.0
C859 C 0.67358 0.84522 0.52206 0.0
C860 C 0.69163 0.85694 0.50083 0.0
C861 C 0.71161 0.87821 0.50784 0.0
C862 C 0.64031 0.77936 0.48806 0.0
C863 C 0.61093 0.78302 0.49441 0.0
C864 C 0.66062 0.79923 0.49763 0.0
C865 C 0.65216 0.82302 0.51414 0.0
C866 C 0.62303 0.82614 0.52163 0.0
C867 C 0.60254 0.80642 0.51168 0.0
H868 H 0.8656 0.19316 0.94156 0.0
H869 H 0.88852 0.22456 0.02593 0.0
H870 H 0.83207 0.15966 0.96287 0.0
H871 H 0.85344 0.19162 0.04761 0.0
H872 H 0.80932 0.10468 0.07373 0.0
H873 H 0.84265 0.14214 0.05737 0.0
H874 H 0.78703 0.15927 0.9847 0.0
H875 H 0.7552 0.12076 0.0001 0.0
C876 C 0.86316 0.19311 0.96475 0.0
C877 C 0.87947 0.2116 0.98209 0.0
C878 C 0.8437 0.17404 0.97702 0.0
C879 C 0.83949 0.17334 0.00697 0.0
C880 C 0.85618 0.19155 0.02448 0.0
C881 C 0.87619 0.21043 0.01212 0.0
C882 C 0.80428 0.11682 0.05447 0.0
C883 C 0.78013 0.10977 0.03783 0.0
C884 C 0.82322 0.1383 0.04514 0.0
C885 C 0.81789 0.15329 0.01933 0.0
C886 C 0.79241 0.14748 0.00408 0.0
C887 C 0.77401 0.12563 0.01297 0.0
H888 H 0.15171 0.73189 0.53104 0.0
H889 H 0.08649 0.70425 0.47088 0.0
H890 H 0.18539 0.69764 0.51054 0.0
H891 H 0.12053 0.66942 0.4504 0.0
H892 H 0.20172 0.62381 0.41076 0.0
H893 H 0.16925 0.66311 0.42449 0.0
H894 H 0.18478 0.64424 0.51415 0.0
H895 H 0.21704 0.60549 0.50071 0.0
C896 C 0.14461 0.7186 0.51326 0.0
C897 C 0.11626 0.72033 0.50295 0.0
C898 C 0.16393 0.69898 0.50155 0.0
C899 C 0.15538 0.68051 0.47929 0.0
C900 C 0.12763 0.68343 0.46759 0.0
C901 C 0.10817 0.70327 0.47934 0.0
C902 C 0.19823 0.62818 0.43338 0.0
C903 C 0.21198 0.61156 0.45465 0.0
C904 C 0.17957 0.65054 0.44118 0.0
C905 C 0.17471 0.65683 0.47034 0.0
C906 C 0.18847 0.64018 0.49149 0.0
C907 C 0.20683 0.61782 0.48376 0.0
H908 H 0.40369 0.27547 0.96779 0.0
H909 H 0.36767 0.29828 0.05048 0.0
H910 H 0.37022 0.309 0.94423 0.0
H911 H 0.3349 0.33171 0.02705 0.0
H912 H 0.30972 0.41351 0.97928 0.0
H913 H 0.34476 0.37922 0.99755 0.0
H914 H 0.31163 0.31414 0.94035 0.0
H915 H 0.27595 0.3485 0.92198 0.0
C916 C 0.38873 0.28764 0.98088 0.0
C917 C 0.38837 0.28433 0.01097 0.0
C918 C 0.36956 0.30662 0.96741 0.0
C919 C 0.35021 0.32294 0.98392 0.0
C920 C 0.34981 0.31951 0.0139 0.0
C921 C 0.36851 0.30029 0.02726 0.0
C922 C 0.30998 0.39202 0.97027 0.0
C923 C 0.2899 0.3837 0.94925 0.0
C924 C 0.33002 0.3724 0.98084 0.0
C925 C 0.33071 0.34411 0.97042 0.0
C926 C 0.31152 0.33594 0.94859 0.0
C927 C 0.29108 0.35553 0.93823 0.0
H928 H 0.5247 0.59463 0.7906 0.0
H929 H 0.44176 0.63537 0.80178 0.0
H930 H 0.54596 0.62949 0.8241 0.0
H931 H 0.46293 0.66965 0.83498 0.0
H932 H 0.50365 0.69714 0.9203 0.0
H933 H 0.48578 0.66246 0.88548 0.0
H934 H 0.55268 0.68709 0.82593 0.0
H935 H 0.57077 0.72223 0.8609 0.0
C936 C 0.51107 0.6109 0.80022 0.0
C937 C 0.48158 0.61219 0.79374 0.0
C938 C 0.52325 0.63089 0.81912 0.0
C939 C 0.50595 0.65203 0.83202 0.0
C940 C 0.47659 0.65336 0.8254 0.0
C941 C 0.46455 0.63376 0.80635 0.0
C942 C 0.51463 0.69518 0.89982 0.0
C943 C 0.53855 0.71242 0.89325 0.0
C944 C 0.50435 0.6754 0.87993 0.0
C945 C 0.51793 0.67224 0.85318 0.0
C946 C 0.54206 0.68913 0.84658 0.0
C947 C 0.55219 0.70931 0.86643 0.0
H948 H 0.99527 0.85386 0.23284 0.0
H949 H 0.99634 0.92192 0.16933 0.0
H950 H 0.01557 0.82068 0.1974 0.0
H951 H 0.01649 0.88871 0.13413 0.0
H952 H 0.00515 0.80927 0.07431 0.0
H953 H 0.99299 0.84471 0.1108 0.0
H954 H 0.06111 0.81256 0.16515 0.0
H955 H 0.07364 0.77688 0.12824 0.0
C956 C 5e-05 0.8618 0.21144 0.0
C957 C 0.99386 0.89043 0.20378 0.0
C958 C 0.01188 0.84287 0.19128 0.0
C959 C 0.01741 0.85217 0.16307 0.0
C960 C 0.01218 0.881 0.15571 0.0
C961 C 0.00068 0.89998 0.1759 0.0
C962 C 0.01769 0.80979 0.09395 0.0
C963 C 0.04032 0.79026 0.09848 0.0
C964 C 0.01084 0.83023 0.11473 0.0
C965 C 0.02619 0.83138 0.14068 0.0
C966 C 0.04895 0.81201 0.14528 0.0
C967 C 0.05617 0.79176 0.12418 0.0
H968 H 0.51074 0.14496 0.73935 0.0
H969 H 0.4912 0.0743 0.68215 0.0
H970 H 0.48734 0.17818 0.70634 0.0
H971 H 0.46727 0.10759 0.64938 0.0
H972 H 0.46657 0.18127 0.58236 0.0
H973 H 0.4832 0.1457 0.61694 0.0
H974 H 0.44127 0.19244 0.68547 0.0
H975 H 0.42498 0.22847 0.6509 0.0
C976 C 0.50116 0.13643 0.7199 0.0
C977 C 0.50314 0.10698 0.71327 0.0
C978 C 0.48755 0.15549 0.70107 0.0
C979 C 0.47558 0.14555 0.67516 0.0
C980 C 0.47667 0.11596 0.66898 0.0
C981 C 0.49026 0.09687 0.68784 0.0
C982 C 0.46066 0.18391 0.60476 0.0
C983 C 0.44452 0.20782 0.61385 0.0
C984 C 0.47005 0.16336 0.62457 0.0
C985 C 0.46357 0.16624 0.65396 0.0
C986 C 0.44688 0.18979 0.663 0.0
C987 C 0.43742 0.21035 0.64316 0.0
H988 H 0.93082 0.2707 0.34907 0.0
H989 H 0.97598 0.31571 0.41677 0.0
H990 H 0.94926 0.3049 0.31399 0.0
H991 H 0.99483 0.34964 0.38144 0.0
H992 H 0.00288 0.42003 0.31301 0.0
H993 H 0.98012 0.38832 0.34817 0.0
H994 H 0.9961 0.31548 0.29273 0.0
H995 H 0.01833 0.34704 0.25744 0.0
C996 C 0.94462 0.28793 0.35652 0.0
C997 C 0.952 0.29041 0.38575 0.0
C998 C 0.95529 0.30744 0.33636 0.0
C999 C 0.97361 0.32986 0.34494 0.0
C1000 C 0.98052 0.33275 0.37423 0.0
C1001 C 0.96984 0.31321 0.39444 0.0
C1002 C 0.00138 0.39728 0.30825 0.0
C1003 C 0.01252 0.38606 0.28245 0.0
C1004 C 0.98849 0.37912 0.32847 0.0
C1005 C 0.98636 0.34943 0.32322 0.0
C1006 C 0.9971 0.33831 0.29724 0.0
C1007 C 0.01002 0.35641 0.27709 0.0
H1008 H 0.21771 0.47239 0.04678 0.0
H1009 H 0.2012 0.38344 0.02673 0.0
H1010 H 0.19758 0.46541 0.09492 0.0
H1011 H 0.18161 0.37606 0.07502 0.0
H1012 H 0.09685 0.40116 0.12357 0.0
H1013 H 0.13441 0.39699 0.08761 0.0
H1014 H 0.19362 0.44115 0.14398 0.0
H1015 H 0.1554 0.44506 0.1806 0.0
C1016 C 0.2112 0.45098 0.05334 0.0
C1017 C 0.21108 0.42836 0.03339 0.0
C1018 C 0.19967 0.44694 0.08086 0.0
C1019 C 0.18764 0.42028 0.08859 0.0
C1020 C 0.19045 0.39692 0.06954 0.0
C1021 C 0.20185 0.40102 0.04203 0.0
C1022 C 0.11805 0.40951 0.12853 0.0
C1023 C 0.12326 0.42367 0.15463 0.0
C1024 C 0.1397 0.40683 0.10806 0.0
C1025 C 0.16707 0.41862 0.11299 0.0
C1026 C 0.17273 0.43182 0.13967 0.0
C1027 C 0.15099 0.43402 0.16056 0.0
H1028 H 0.3317 0.59259 0.51833 0.0
H1029 H 0.27522 0.52474 0.54752 0.0
H1030 H 0.35096 0.59733 0.56688 0.0
H1031 H 0.29472 0.52944 0.59615 0.0
H1032 H 0.37952 0.51581 0.65253 0.0
H1033 H 0.34603 0.51664 0.61221 0.0
H1034 H 0.33903 0.60898 0.61957 0.0
H1035 H 0.37246 0.60822 0.66016 0.0
C1036 C 0.32302 0.57909 0.53526 0.0
C1037 C 0.30225 0.55806 0.52911 0.0
C1038 C 0.33388 0.58197 0.56308 0.0
C1039 C 0.32439 0.56364 0.58515 0.0
C1040 C 0.30244 0.54372 0.57941 0.0
C1041 C 0.29126 0.54112 0.55164 0.0
C1042 C 0.37039 0.53622 0.64593 0.0
C1043 C 0.37887 0.56197 0.65923 0.0
C1044 C 0.35105 0.53667 0.62301 0.0
C1045 C 0.34009 0.56291 0.61277 0.0
C1046 C 0.34731 0.58851 0.62705 0.0
C1047 C 0.36636 0.58802 0.65028 0.0
H1048 H 0.62966 0.01382 0.83171 0.0
H1049 H 0.63126 0.10637 0.82596 0.0
H1050 H 0.66461 0.01535 0.87075 0.0
H1051 H 0.66613 0.10813 0.86559 0.0
H1052 H 0.72916 0.02351 0.94015 0.0
H1053 H 0.71358 0.02967 0.89025 0.0
H1054 H 0.65318 0.09491 0.91722 0.0
H1055 H 0.66856 0.08875 0.96693 0.0
C1056 C 0.63856 0.03441 0.83805 0.0
C1057 C 0.62811 0.05995 0.82588 0.0
C1058 C 0.65856 0.03533 0.86038 0.0
C1059 C 0.66792 0.06189 0.87135 0.0
C1060 C 0.65919 0.0874 0.85755 0.0
C1061 C 0.6395 0.08642 0.83478 0.0
C1062 C 0.71304 0.03964 0.93531 0.0
C1063 C 0.69969 0.05529 0.95749 0.0
C1064 C 0.70416 0.04315 0.90677 0.0
C1065 C 0.68213 0.06269 0.89988 0.0
C1066 C 0.67041 0.0799 0.9218 0.0
C1067 C 0.679 0.07614 0.95033 0.0
H1068 H 0.83127 0.90569 0.46812 0.0
H1069 H 0.78139 0.97995 0.4429 0.0
H1070 H 0.85089 0.90234 0.41945 0.0
H1071 H 0.80153 0.97686 0.39426 0.0
H1072 H 0.87242 0.89676 0.32427 0.0
H1073 H 0.83766 0.89607 0.36422 0.0
H1074 H 0.85613 0.98541 0.38155 0.0
H1075 H 0.89124 0.98575 0.34242 0.0
C1076 C 0.82407 0.92093 0.452 0.0
C1077 C 0.80498 0.9432 0.45933 0.0
C1078 C 0.83514 0.91888 0.42411 0.0
C1079 C 0.82774 0.93937 0.40316 0.0
C1080 C 0.80753 0.96079 0.41006 0.0
C1081 C 0.79598 0.96249 0.43783 0.0
C1082 C 0.86827 0.9164 0.33612 0.0
C1083 C 0.88425 0.94135 0.33036 0.0
C1084 C 0.8486 0.91597 0.35899 0.0
C1085 C 0.84422 0.94071 0.37588 0.0
C1086 C 0.85881 0.96616 0.36868 0.0
C1087 C 0.87891 0.96636 0.34638 0.0
H1088 H 0.15943 0.13474 0.3916 0.0
H1089 H 0.14467 0.12045 0.48236 0.0
H1090 H 0.12071 0.1702 0.39093 0.0
H1091 H 0.10605 0.15601 0.48156 0.0
H1092 H 0.04207 0.22806 0.47436 0.0
H1093 H 0.09128 0.20879 0.47182 0.0
H1094 H 0.0674 0.15842 0.3975 0.0
H1095 H 0.01849 0.17719 0.40053 0.0
C1096 C 0.14839 0.1396 0.41154 0.0
C1097 C 0.15475 0.12439 0.43694 0.0
C1098 C 0.12624 0.15992 0.41111 0.0
C1099 C 0.11033 0.16571 0.43613 0.0
C1100 C 0.11813 0.15214 0.462 0.0
C1101 C 0.14006 0.13157 0.46238 0.0
C1102 C 0.04782 0.21369 0.45694 0.0
C1103 C 0.02686 0.20415 0.43748 0.0
C1104 C 0.07578 0.20253 0.45561 0.0
C1105 C 0.08309 0.18213 0.43448 0.0
C1106 C 0.0625 0.17438 0.41377 0.0
C1107 C 0.03454 0.18505 0.41548 0.0
H1108 H 0.3439 0.87901 0.98524 0.0
H1109 H 0.34339 0.87639 0.89232 0.0
H1110 H 0.38384 0.84474 0.98596 0.0
H1111 H 0.38379 0.84261 0.89316 0.0
H1112 H 0.48407 0.83744 0.92018 0.0
H1113 H 0.43596 0.85728 0.91319 0.0
H1114 H 0.40072 0.7913 0.96827 0.0
H1115 H 0.44919 0.77068 0.97441 0.0
C1116 C 0.35192 0.87064 0.96502 0.0
C1117 C 0.3407 0.88054 0.93873 0.0
C1118 C 0.37462 0.8509 0.96545 0.0
C1119 C 0.38683 0.84114 0.93961 0.0
C1120 C 0.37464 0.84982 0.91335 0.0
C1121 C 0.35153 0.8691 0.91291 0.0
C1122 C 0.46592 0.82671 0.93009 0.0
C1123 C 0.47014 0.80254 0.94768 0.0
C1124 C 0.43843 0.83797 0.92604 0.0
C1125 C 0.4147 0.82574 0.94014 0.0
C1126 C 0.41873 0.80097 0.95708 0.0
C1127 C 0.44629 0.78916 0.96049 0.0
H1128 H 0.51842 0.32391 0.60213 0.0
H1129 H 0.54221 0.25893 0.54031 0.0
H1130 H 0.56872 0.33748 0.6075 0.0
H1131 H 0.59296 0.273 0.54513 0.0
H1132 H 0.65205 0.35707 0.52489 0.0
H1133 H 0.61297 0.32229 0.52813 0.0
H1134 H 0.62021 0.32242 0.62073 0.0
H1135 H 0.65951 0.35713 0.61758 0.0
C1136 C 0.53465 0.31197 0.59038 0.0
C1137 C 0.52668 0.29049 0.57081 0.0
C1138 C 0.56344 0.31958 0.59355 0.0
C1139 C 0.58472 0.3063 0.57668 0.0
C1140 C 0.57693 0.28349 0.55841 0.0
C1141 C 0.54803 0.27539 0.55573 0.0
C1142 C 0.64594 0.34896 0.54589 0.0
C1143 C 0.65843 0.36024 0.57099 0.0
C1144 C 0.62372 0.32886 0.54773 0.0
C1145 C 0.61341 0.31993 0.57471 0.0
C1146 C 0.62771 0.32911 0.59969 0.0
C1147 C 0.65022 0.34895 0.59784 0.0
H1148 H 0.82484 0.63653 0.10478 0.0
H1149 H 0.85325 0.60371 0.02275 0.0
H1150 H 0.86085 0.67528 0.10148 0.0
H1151 H 0.88813 0.6426 0.01891 0.0
H1152 H 0.94272 0.71937 0.01194 0.0
H1153 H 0.89442 0.69908 0.01754 0.0
H1154 H 0.91773 0.6664 0.10129 0.0
H1155 H 0.96605 0.68611 0.09551 0.0
C1156 C 0.83812 0.63822 0.0857 0.0
C1157 C 0.83653 0.61724 0.06404 0.0
C1158 C 0.85863 0.66026 0.08381 0.0
C1159 C 0.87705 0.66199 0.05984 0.0
C1160 C 0.87392 0.64207 0.03739 0.0
C1161 C 0.85412 0.61972 0.03966 0.0
C1162 C 0.93717 0.70877 0.03195 0.0
C1163 C 0.95813 0.70395 0.05316 0.0
C1164 C 0.90959 0.69714 0.03512 0.0
C1165 C 0.90248 0.6811 0.05978 0.0
C1166 C 0.92258 0.67888 0.0822 0.0
C1167 C 0.95026 0.68998 0.0788 0.0
H1168 H 0.48851 0.02644 0.16899 0.0
H1169 H 0.41854 0.04174 0.22816 0.0
H1170 H 0.48634 0.07585 0.15302 0.0
H1171 H 0.41631 0.09224 0.21201 0.0
H1172 H 0.39742 0.15491 0.13101 0.0
H1173 H 0.40147 0.11514 0.16519 0.0
H1174 H 0.49377 0.12572 0.16634 0.0
H1175 H 0.48975 0.16465 0.13139 0.0
C1176 C 0.47287 0.04062 0.1789 0.0
C1177 C 0.45347 0.03025 0.19956 0.0
C1178 C 0.47185 0.06912 0.16999 0.0
C1179 C 0.45125 0.08808 0.18135 0.0
C1180 C 0.43241 0.07807 0.20289 0.0
C1181 C 0.43372 0.04933 0.21219 0.0
C1182 C 0.41846 0.14929 0.13929 0.0
C1183 C 0.44335 0.16233 0.12814 0.0
C1184 C 0.42078 0.12659 0.15898 0.0
C1185 C 0.448 0.1169 0.16796 0.0
C1186 C 0.47255 0.13229 0.15928 0.0
C1187 C 0.47028 0.15458 0.13932 0.0
H1188 H 0.90636 0.47536 0.81707 0.0
H1189 H 0.97187 0.44409 0.75934 0.0
H1190 H 0.89932 0.42683 0.83581 0.0
H1191 H 0.96535 0.39519 0.77855 0.0
H1192 H 0.88532 0.3361 0.86054 0.0
H1193 H 0.88564 0.37441 0.82445 0.0
H1194 H 0.97816 0.37927 0.83045 0.0
H1195 H 0.9779 0.34124 0.86664 0.0
C1196 C 0.91856 0.45779 0.80781 0.0
C1197 C 0.93945 0.46314 0.78676 0.0
C1198 C 0.91451 0.43004 0.81841 0.0
C1199 C 0.9318 0.40727 0.8086 0.0
C1200 C 0.95171 0.41239 0.78638 0.0
C1201 C 0.95534 0.4402 0.77532 0.0
C1202 C 0.90578 0.34479 0.85356 0.0
C1203 C 0.93157 0.33602 0.8667 0.0
C1204 C 0.90593 0.36671 0.83296 0.0
C1205 C 0.9319 0.37985 0.82481 0.0
C1206 C 0.95786 0.36936 0.83615 0.0
C1207 C 0.95769 0.34776 0.85705 0.0
H1208 H 0.51848 0.55419 0.27506 0.0
H1209 H 0.59744 0.53472 0.31999 0.0
H1210 H 0.51967 0.60318 0.29431 0.0
H1211 H 0.59878 0.58368 0.33882 0.0
H1212 H 0.59771 0.67616 0.3658 0.0
H1213 H 0.59982 0.63884 0.32839 0.0
H1214 H 0.51255 0.61422 0.34849 0.0
H1215 H 0.5108 0.65082 0.38605 0.0
C1216 C 0.5366 0.56066 0.28819 0.0
C1217 C 0.55769 0.54057 0.29635 0.0
C1218 C 0.53721 0.58865 0.29925 0.0
C1219 C 0.55922 0.59714 0.31815 0.0
C1220 C 0.58169 0.57782 0.32411 0.0
C1221 C 0.58082 0.54973 0.31349 0.0
C1222 C 0.57875 0.66336 0.36144 0.0
C1223 C 0.55411 0.66616 0.37868 0.0
C1224 C 0.57999 0.64198 0.34022 0.0
C1225 C 0.55635 0.62368 0.33558 0.0
C1226 C 0.53096 0.62822 0.35132 0.0
C1227 C 0.52997 0.64904 0.37289 0.0
H1228 H 0.02475 0.94507 0.73073 0.0
H1229 H 0.09902 0.96688 0.67925 0.0
H1230 H 0.02798 0.89524 0.71417 0.0
H1231 H 0.10229 0.91729 0.66288 0.0
H1232 H 0.10642 0.82778 0.63645 0.0
H1233 H 0.10811 0.86444 0.67392 0.0
H1234 H 0.01715 0.87981 0.66302 0.0
H1235 H 0.01534 0.84321 0.62567 0.0
C1236 C 0.04232 0.939 0.71667 0.0
C1237 C 0.06138 0.95983 0.70584 0.0
C1238 C 0.0441 0.91055 0.70716 0.0
C1239 C 0.06522 0.9025 0.68711 0.0
C1240 C 0.08592 0.92279 0.67853 0.0
C1241 C 0.08392 0.95125 0.6877 0.0
C1242 C 0.0866 0.83837 0.64262 0.0
C1243 C 0.06087 0.83318 0.62761 0.0
C1244 C 0.08762 0.85934 0.66408 0.0
C1245 C 0.06287 0.87517 0.67106 0.0
C1246 C 0.03655 0.86784 0.65817 0.0
C1247 C 0.03557 0.84706 0.63656 0.0
H1248 H 0.87209 0.60768 0.83545 0.0
H1249 H 0.87752 0.51501 0.84 0.0
H1250 H 0.83802 0.60751 0.87563 0.0
H1251 H 0.84363 0.51486 0.87992 0.0
H1252 H 0.7754 0.52022 0.94691 0.0
H1253 H 0.79383 0.52637 0.89794 0.0
H1254 H 0.84878 0.59521 0.92733 0.0
H1255 H 0.83044 0.58913 0.97602 0.0
C1256 C 0.86543 0.58726 0.8445 0.0
C1257 C 0.87775 0.56137 0.83489 0.0
C1258 C 0.84605 0.58718 0.86754 0.0
C1259 C 0.83835 0.5612 0.88101 0.0
C1260 C 0.84896 0.5352 0.86985 0.0
C1261 C 0.86857 0.5353 0.84713 0.0
C1262 C 0.7909 0.5371 0.94273 0.0
C1263 C 0.80185 0.55391 0.96534 0.0
C1264 C 0.80149 0.54055 0.91475 0.0
C1265 C 0.82284 0.56115 0.90888 0.0
C1266 C 0.83217 0.57932 0.93112 0.0
C1267 C 0.82188 0.57564 0.95908 0.0
H1268 H 0.62114 0.48128 0.35227 0.0
H1269 H 0.63393 0.39176 0.33149 0.0
H1270 H 0.65692 0.4776 0.39061 0.0
H1271 H 0.66922 0.38774 0.37066 0.0
H1272 H 0.66886 0.39694 0.47598 0.0
H1273 H 0.65312 0.39458 0.42587 0.0
H1274 H 0.71139 0.46352 0.40417 0.0
H1275 H 0.72788 0.46517 0.4544 0.0
C1276 C 0.63237 0.46107 0.35538 0.0
C1277 C 0.625 0.43683 0.33903 0.0
C1278 C 0.65289 0.45897 0.37719 0.0
C1279 C 0.6658 0.43239 0.38352 0.0
C1280 C 0.65967 0.4085 0.36602 0.0
C1281 C 0.63963 0.41081 0.34363 0.0
C1282 C 0.67912 0.41074 0.46021 0.0
C1283 C 0.69959 0.43113 0.4688 0.0
C1284 C 0.67021 0.40934 0.43157 0.0
C1285 C 0.68108 0.42887 0.41123 0.0
C1286 C 0.70287 0.44813 0.41947 0.0
C1287 C 0.71235 0.44901 0.44807 0.0
H1288 H 0.31266 0.90541 0.02468 0.0
H1289 H 0.26695 0.98115 0.05245 0.0
H1290 H 0.3321 0.89908 0.07303 0.0
H1291 H 0.28651 0.97507 0.10117 0.0
H1292 H 0.37502 0.98097 0.15243 0.0
H1293 H 0.3382 0.98224 0.11523 0.0
H1294 H 0.32407 0.89105 0.126 0.0
H1295 H 0.36106 0.88973 0.1634 0.0
C1296 C 0.30592 0.92001 0.04157 0.0
C1297 C 0.28819 0.94353 0.0352 0.0
C1298 C 0.31697 0.91641 0.06924 0.0
C1299 C 0.31091 0.93666 0.09087 0.0
C1300 C 0.29158 0.9592 0.08488 0.0
C1301 C 0.28022 0.96257 0.05718 0.0
C1302 C 0.36362 0.9613 0.14733 0.0
C1303 C 0.37124 0.93518 0.16052 0.0
C1304 C 0.34232 0.96208 0.12619 0.0
C1305 C 0.32836 0.9367 0.11759 0.0
C1306 C 0.33462 0.91089 0.13211 0.0
C1307 C 0.35573 0.91018 0.15356 0.0
H1308 H 0.22273 0.01629 0.5463 0.0
H1309 H 0.1909 0.1015 0.52823 0.0
H1310 H 0.20255 0.01895 0.59494 0.0
H1311 H 0.17073 0.10438 0.57683 0.0
H1312 H 0.13909 0.10204 0.6692 0.0
H1313 H 0.17712 0.10205 0.63235 0.0
H1314 H 0.1486 0.01854 0.60337 0.0
H1315 H 0.1107 0.01883 0.63949 0.0
C1316 C 0.21255 0.03607 0.5533 0.0
C1317 C 0.20856 0.05885 0.53394 0.0
C1318 C 0.20085 0.03754 0.58097 0.0
C1319 C 0.18495 0.0618 0.58958 0.0
C1320 C 0.18318 0.08558 0.57092 0.0
C1321 C 0.19469 0.08398 0.54316 0.0
C1322 C 0.14154 0.08347 0.65534 0.0
C1323 C 0.12196 0.06052 0.65692 0.0
C1324 C 0.16315 0.08351 0.63427 0.0
C1325 C 0.16585 0.06026 0.61508 0.0
C1326 C 0.14734 0.03657 0.61807 0.0
C1327 C 0.12549 0.03682 0.63858 0.0
H1328 H 0.95018 0.77637 0.51177 0.0
H1329 H 0.97072 0.81007 0.59563 0.0
H1330 H 0.90146 0.79634 0.51571 0.0
H1331 H 0.92205 0.82965 0.59991 0.0
H1332 H 0.82894 0.85904 0.60119 0.0
H1333 H 0.86629 0.82145 0.59969 0.0
H1334 H 0.89217 0.85098 0.51546 0.0
H1335 H 0.85571 0.88862 0.51737 0.0
C1336 C 0.94376 0.78686 0.53157 0.0
C1337 C 0.96386 0.79146 0.55356 0.0
C1338 C 0.91603 0.79845 0.53377 0.0
C1339 C 0.908 0.8146 0.55809 0.0
C1340 C 0.92746 0.81699 0.5811 0.0
C1341 C 0.95529 0.80581 0.57869 0.0
C1342 C 0.84217 0.85685 0.58212 0.0
C1343 C 0.8396 0.87661 0.55939 0.0
C1344 C 0.86353 0.83549 0.58129 0.0
C1345 C 0.88204 0.83322 0.5574 0.0
C1346 C 0.87801 0.85189 0.53396 0.0
C1347 C 0.85726 0.87353 0.5351 0.0
H1348 H 0.67309 0.13572 0.09843 0.0
H1349 H 0.63856 0.10279 0.01882 0.0
H1350 H 0.63734 0.17483 0.09757 0.0
H1351 H 0.60363 0.14179 0.01758 0.0
H1352 H 0.55027 0.21849 0.01203 0.0
H1353 H 0.59815 0.19659 0.01465 0.0
H1354 H 0.58122 0.17036 0.10219 0.0
H1355 H 0.53335 0.19217 0.09935 0.0
C1356 C 0.65836 0.13732 0.08045 0.0
C1357 C 0.6583 0.11625 0.0588 0.0
C1358 C 0.63796 0.15956 0.07998 0.0
C1359 C 0.61787 0.1614 0.05743 0.0
C1360 C 0.61909 0.14119 0.03501 0.0
C1361 C 0.6389 0.11873 0.03583 0.0
C1362 C 0.55743 0.20922 0.0322 0.0
C1363 C 0.53855 0.20721 0.05562 0.0
C1364 C 0.58465 0.19654 0.03366 0.0
C1365 C 0.59328 0.18166 0.05857 0.0
C1366 C 0.57527 0.18198 0.08287 0.0
C1367 C 0.54794 0.19444 0.08129 0.0
H1368 H 0.46433 0.70489 0.39869 0.0
H1369 H 0.43882 0.71516 0.48733 0.0
H1370 H 0.41758 0.684 0.38748 0.0
H1371 H 0.39211 0.6933 0.47637 0.0
H1372 H 0.30886 0.64975 0.44539 0.0
H1373 H 0.3445 0.68894 0.44818 0.0
H1374 H 0.40646 0.63488 0.40479 0.0
H1375 H 0.37146 0.59636 0.40234 0.0
C1376 C 0.44824 0.70361 0.41553 0.0
C1377 C 0.45511 0.7113 0.44388 0.0
C1378 C 0.42156 0.69154 0.40917 0.0
C1379 C 0.40148 0.68639 0.43119 0.0
C1380 C 0.40714 0.69706 0.45896 0.0
C1381 C 0.43384 0.70957 0.46526 0.0
C1382 C 0.32995 0.64671 0.43595 0.0
C1383 C 0.33758 0.62012 0.42377 0.0
C1384 C 0.3503 0.66898 0.43765 0.0
C1385 C 0.37819 0.66506 0.42653 0.0
C1386 C 0.38506 0.63885 0.41311 0.0
C1387 C 0.36509 0.61664 0.41192 0.0
H1388 H 0.02007 0.32592 0.90799 0.0
H1389 H 0.0441 0.25765 0.96617 0.0
H1390 H 0.07045 0.3395 0.90278 0.0
H1391 H 0.09492 0.27187 0.96168 0.0
H1392 H 0.15675 0.35563 0.98121 0.0
H1393 H 0.1164 0.32211 0.97945 0.0
H1394 H 0.12139 0.32084 0.88675 0.0
H1395 H 0.16195 0.35408 0.88834 0.0
C1396 C 0.03633 0.31344 0.91912 0.0
C1397 C 0.02846 0.29083 0.93745 0.0
C1398 C 0.06513 0.32106 0.91603 0.0
C1399 C 0.08652 0.30663 0.93177 0.0
C1400 C 0.07878 0.28315 0.94921 0.0
C1401 C 0.04987 0.27502 0.95172 0.0
C1402 C 0.14988 0.34743 0.9605 0.0
C1403 C 0.16211 0.35796 0.9349 0.0
C1404 C 0.12692 0.32809 0.95952 0.0
C1405 C 0.11567 0.31923 0.93294 0.0
C1406 C 0.12966 0.32752 0.90748 0.0
C1407 C 0.15289 0.34654 0.90846 0.0
H1408 H 0.52252 0.84891 0.88314 0.0
H1409 H 0.61149 0.82842 0.86569 0.0
H1410 H 0.52241 0.88277 0.8433 0.0
H1411 H 0.61132 0.86242 0.82548 0.0
H1412 H 0.6048 0.96332 0.80646 0.0
H1413 H 0.60883 0.91587 0.82814 0.0
H1414 H 0.52734 0.89178 0.79064 0.0
H1415 H 0.52323 0.93957 0.76897 0.0
C1416 C 0.54192 0.85127 0.87045 0.0
C1417 C 0.56715 0.83642 0.87789 0.0
C1418 C 0.54176 0.87042 0.84735 0.0
C1419 C 0.5669 0.87531 0.83129 0.0
C1420 C 0.59168 0.85916 0.8376 0.0
C1421 C 0.59176 0.83972 0.8606 0.0
C1422 C 0.58822 0.94756 0.80204 0.0
C1423 C 0.56346 0.95526 0.78652 0.0
C1424 C 0.5906 0.92029 0.81432 0.0
C1425 C 0.56815 0.90029 0.81148 0.0
C1426 C 0.54477 0.90697 0.79346 0.0
C1427 C 0.54252 0.93424 0.78091 0.0
H1428 H 0.10613 0.66811 0.12631 0.0
H1429 H 0.01522 0.65293 0.11611 0.0
H1430 H 0.10862 0.62901 0.16186 0.0
H1431 H 0.01742 0.61455 0.15189 0.0
H1432 H 0.09695 0.52568 0.16671 0.0
H1433 H 0.10053 0.57506 0.14925 0.0
H1434 H 0.02977 0.59976 0.2041 0.0
H1435 H 0.02629 0.55038 0.22188 0.0
C1436 C 0.08652 0.65724 0.13268 0.0
C1437 C 0.06045 0.66341 0.11879 0.0
C1438 C 0.08796 0.63482 0.15278 0.0
C1439 C 0.06322 0.61879 0.15956 0.0
C1440 C 0.03674 0.62676 0.14737 0.0
C1441 C 0.03545 0.64865 0.12688 0.0
C1442 C 0.08262 0.54179 0.17558 0.0
C1443 C 0.06106 0.53407 0.19532 0.0
C1444 C 0.08485 0.57011 0.16578 0.0
C1445 C 0.06533 0.59115 0.17526 0.0
C1446 C 0.04502 0.58389 0.19643 0.0
C1447 C 0.04307 0.55564 0.20658 0.0
H1448 H 0.40732 0.47642 0.67845 0.0
H1449 H 0.46257 0.44441 0.74575 0.0
H1450 H 0.39851 0.42741 0.66206 0.0
H1451 H 0.45439 0.39489 0.72883 0.0
H1452 H 0.4726 0.33632 0.64367 0.0
H1453 H 0.47186 0.37496 0.67914 0.0
H1454 H 0.37912 0.37689 0.67536 0.0
H1455 H 0.37977 0.33794 0.64003 0.0
C1456 C 0.4169 0.45868 0.69018 0.0
C1457 C 0.4355 0.46391 0.71329 0.0
C1458 C 0.41176 0.43065 0.68095 0.0
C1459 C 0.42572 0.40737 0.69425 0.0
C1460 C 0.44328 0.41251 0.71835 0.0
C1461 C 0.44789 0.44067 0.72805 0.0
C1462 C 0.45202 0.34434 0.65113 0.0
C1463 C 0.42628 0.33446 0.63879 0.0
C1464 C 0.45159 0.36631 0.6716 0.0
C1465 C 0.42543 0.37903 0.67976 0.0
C1466 C 0.39956 0.36745 0.66931 0.0
C1467 C 0.39996 0.34514 0.64915 0.0
H1468 H 0.98019 0.05905 0.25954 0.0
H1469 H 0.90616 0.0314 0.30842 0.0
H1470 H 0.97218 0.10858 0.2757 0.0
H1471 H 0.89825 0.08044 0.32455 0.0
H1472 H 0.97827 0.16199 0.36339 0.0
H1473 H 0.9802 0.12578 0.32579 0.0
H1474 H 0.88811 0.132 0.31498 0.0
H1475 H 0.88614 0.16827 0.35301 0.0
C1476 C 0.96174 0.06371 0.273 0.0
C1477 C 0.9441 0.04143 0.28323 0.0
C1478 C 0.9572 0.09199 0.28228 0.0
C1479 C 0.93475 0.09833 0.30157 0.0
C1480 C 0.91558 0.07637 0.3095 0.0
C1481 C 0.9203 0.04818 0.30053 0.0
C1482 C 0.95852 0.1562 0.35247 0.0
C1483 C 0.93198 0.16738 0.36159 0.0
C1484 C 0.95966 0.13566 0.33067 0.0
C1485 C 0.93424 0.12579 0.3177 0.0
C1486 C 0.908 0.13904 0.32487 0.0
C1487 C 0.90688 0.15981 0.34658 0.0
H1488 H 0.05769 0.35154 0.14365 0.0
H1489 H 0.97478 0.38717 0.16541 0.0
H1490 H 0.03522 0.32219 0.10623 0.0
H1491 H 0.95206 0.35709 0.12908 0.0
H1492 H 0.93545 0.34431 0.03237 0.0
H1493 H 0.95236 0.36205 0.0783 0.0
H1494 H 0.00286 0.28481 0.08999 0.0
H1495 H 0.98646 0.26727 0.04328 0.0
C1496 C 0.03453 0.35222 0.14112 0.0
C1497 C 0.01795 0.37176 0.15704 0.0
C1498 C 0.0216 0.33542 0.11973 0.0
C1499 C 0.99187 0.33773 0.11425 0.0
C1500 C 0.97509 0.35536 0.13218 0.0
C1501 C 0.98803 0.37242 0.15313 0.0
C1502 C 0.94985 0.33086 0.04483 0.0
C1503 C 0.95985 0.30453 0.03392 0.0
C1504 C 0.9594 0.34094 0.0714 0.0
C1505 C 0.97908 0.32489 0.08789 0.0
C1506 C 0.98801 0.29786 0.07766 0.0
C1507 C 0.97845 0.28775 0.05097 0.0
H1508 H 0.51297 0.74061 0.56521 0.0
H1509 H 0.53318 0.65471 0.53619 0.0
H1510 H 0.50337 0.72162 0.61383 0.0
H1511 H 0.52371 0.636 0.58377 0.0
H1512 H 0.51857 0.60408 0.66911 0.0
H1513 H 0.54042 0.63558 0.63328 0.0
H1514 H 0.46439 0.6891 0.63403 0.0
H1515 H 0.44314 0.65802 0.67109 0.0
C1516 C 0.51584 0.71786 0.56939 0.0
C1517 C 0.52347 0.69902 0.54702 0.0
C1518 C 0.51028 0.70701 0.59705 0.0
C1519 C 0.51295 0.67736 0.60267 0.0
C1520 C 0.52193 0.65899 0.58042 0.0
C1521 C 0.52704 0.66967 0.553 0.0
C1522 C 0.50706 0.6232 0.66233 0.0
C1523 C 0.47923 0.62868 0.67244 0.0
C1524 C 0.51946 0.64116 0.6418 0.0
C1525 C 0.50384 0.66442 0.63038 0.0
C1526 C 0.47698 0.67141 0.6425 0.0
C1527 C 0.46476 0.65363 0.66357 0.0
H1528 H 0.42917 0.17131 0.95412 0.0
H1529 H 0.51225 0.21203 0.96092 0.0
H1530 H 0.44338 0.14976 0.90852 0.0
H1531 H 0.52732 0.18908 0.91613 0.0
H1532 H 0.49158 0.08003 0.86075 0.0
H1533 H 0.47303 0.11117 0.89763 0.0
H1534 H 0.52535 0.18104 0.86546 0.0
H1535 H 0.54524 0.14889 0.82865 0.0
C1536 C 0.45042 0.17583 0.94564 0.0
C1537 C 0.46969 0.19309 0.9611 0.0
C1538 C 0.45872 0.1633 0.91963 0.0
C1539 C 0.48682 0.167 0.90889 0.0
C1540 C 0.50549 0.1858 0.92355 0.0
C1541 C 0.4969 0.19891 0.9493 0.0
C1542 C 0.49918 0.10205 0.86125 0.0
C1543 C 0.52019 0.11181 0.84175 0.0
C1544 C 0.48816 0.12016 0.88237 0.0
C1545 C 0.49741 0.14886 0.88457 0.0
C1546 C 0.51789 0.159 0.86461 0.0
C1547 C 0.52919 0.14064 0.8434 0.0
H1548 H 0.05828 0.85189 0.46347 0.0
H1549 H 0.01028 0.77436 0.44525 0.0
H1550 H 0.04571 0.87087 0.41674 0.0
H1551 H -0.00157 0.79315 0.39756 0.0
H1552 H 0.03213 0.89851 0.32853 0.0
H1553 H 0.05153 0.86796 0.36642 0.0
H1554 H 0.96749 0.83004 0.37871 0.0
H1555 H 0.94854 0.8597 0.33975 0.0
C1556 C 0.04541 0.83863 0.44928 0.0
C1557 C 0.03495 0.81176 0.4583 0.0
C1558 C 0.03844 0.84943 0.42222 0.0
C1559 C 0.02103 0.83355 0.40329 0.0
C1560 C 0.01159 0.80607 0.41177 0.0
C1561 C 0.0185 0.79526 0.43903 0.0
C1562 C 0.01801 0.88315 0.33893 0.0
C1563 C 0.98879 0.88171 0.33158 0.0
C1564 C 0.02905 0.86576 0.36074 0.0
C1565 C 0.01092 0.84703 0.37611 0.0
C1566 C 0.98212 0.84411 0.36727 0.0
C1567 C 0.97119 0.86118 0.34502 0.0
H1568 H 0.13914 0.99626 0.39777 0.0
H1569 H 0.17928 0.04928 0.33286 0.0
H1570 H 0.10678 0.97645 0.36181 0.0
H1571 H 0.14625 0.02958 0.29654 0.0
H1572 H 0.04462 0.02338 0.27121 0.0
H1573 H 0.09081 0.03612 0.29301 0.0
H1574 H 0.10449 0.94704 0.31576 0.0
H1575 H 0.05829 0.93447 0.29378 0.0
C1576 C 0.14123 0.00339 0.37566 0.0
C1577 C 0.16142 0.02449 0.36809 0.0
C1578 C 0.12292 0.99182 0.355 0.0
C1579 C 0.1241 0.0014 0.32636 0.0
C1580 C 0.145 0.02181 0.31849 0.0
C1581 C 0.16383 0.03302 0.33918 0.0
C1582 C 0.05823 0.00645 0.27972 0.0
C1583 C 0.04833 0.97799 0.28074 0.0
C1584 C 0.0846 0.01368 0.29216 0.0
C1585 C 0.10108 0.99257 0.30623 0.0
C1586 C 0.09212 0.9637 0.30512 0.0
C1587 C 0.06587 0.95647 0.29246 0.0
H1588 H 0.44108 0.01325 0.75729 0.0
H1589 H 0.47367 0.02372 0.84372 0.0
H1590 H 0.39274 0.00384 0.77707 0.0
H1591 H 0.42635 0.01448 0.86307 0.0
H1592 H 0.34063 0.01812 0.89549 0.0
H1593 H 0.37824 0.03732 0.86442 0.0
H1594 H 0.37035 0.96323 0.80893 0.0
H1595 H 0.33163 0.94453 0.83979 0.0
C1596 C 0.43786 0.01382 0.78037 0.0
C1597 C 0.46112 0.01897 0.799 0.0
C1598 C 0.41034 0.00838 0.79164 0.0
C1599 C 0.40576 0.00874 0.82157 0.0
C1600 C 0.42901 0.01457 0.8399 0.0
C1601 C 0.45626 0.01956 0.82879 0.0
C1602 C 0.34627 0.0065 0.87608 0.0
C1603 C 0.33361 0.97986 0.87 0.0
C1604 C 0.3678 0.01739 0.85836 0.0
C1605 C 0.3776 0.00146 0.83463 0.0
C1606 C 0.36313 0.97599 0.82704 0.0
C1607 C 0.34109 0.96526 0.84466 0.0
H1608 H 0.61735 0.42836 0.62686 0.0
H1609 H 0.68055 0.49215 0.6503 0.0
H1610 H 0.58312 0.44971 0.66051 0.0
H1611 H 0.64572 0.51424 0.68353 0.0
H1612 H 0.5503 0.56058 0.68543 0.0
H1613 H 0.59475 0.53885 0.66753 0.0
H1614 H 0.57725 0.46216 0.71687 0.0
H1615 H 0.53309 0.48404 0.73534 0.0
C1616 C 0.62401 0.44669 0.63962 0.0
C1617 C 0.65145 0.45872 0.63606 0.0
C1618 C 0.60454 0.45877 0.65897 0.0
C1619 C 0.6119 0.48353 0.67459 0.0
C1620 C 0.63969 0.49506 0.67177 0.0
C1621 C 0.65953 0.48244 0.65291 0.0
C1622 C 0.55641 0.53944 0.69313 0.0
C1623 C 0.53815 0.5239 0.71156 0.0
C1624 C 0.58189 0.5271 0.68303 0.0
C1625 C 0.58924 0.49885 0.69079 0.0
C1626 C 0.57198 0.48401 0.71066 0.0
C1627 C 0.5468 0.49658 0.72125 0.0
H1628 H 0.94635 0.48532 0.23824 0.0
H1629 H 0.96537 0.44821 0.15525 0.0
H1630 H 0.89693 0.49562 0.22212 0.0
H1631 H 0.91682 0.45814 0.13933 0.0
H1632 H 0.83005 0.46804 0.11355 0.0
H1633 H 0.86558 0.44739 0.14611 0.0
H1634 H 0.87889 0.53097 0.18446 0.0
H1635 H 0.8425 0.55145 0.15243 0.0
C1636 C 0.93971 0.47881 0.21688 0.0
C1637 C 0.95951 0.46634 0.19778 0.0
C1638 C 0.91161 0.48473 0.20766 0.0
C1639 C 0.90301 0.47758 0.17954 0.0
C1640 C 0.92255 0.4635 0.16127 0.0
C1641 C 0.95049 0.45809 0.17025 0.0
C1642 C 0.83998 0.48179 0.12953 0.0
C1643 C 0.8342 0.51141 0.1301 0.0
C1644 C 0.86022 0.46999 0.14818 0.0
C1645 C 0.87543 0.48772 0.16732 0.0
C1646 C 0.86744 0.51678 0.16997 0.0
C1647 C 0.84678 0.52855 0.15152 0.0
H1648 H 0.37772 0.12792 0.06634 0.0
H1649 H 0.35983 0.18602 0.99616 0.0
H1650 H 0.34446 0.09273 0.04593 0.0
H1651 H 0.32704 0.15021 0.97503 0.0
H1652 H 0.32404 0.05248 0.93557 0.0
H1653 H 0.34249 0.09758 0.95536 0.0
H1654 H 0.2894 0.08635 0.0307 0.0
H1655 H 0.27044 0.04152 0.01074 0.0
C1656 C 0.36611 0.13332 0.04684 0.0
C1657 C 0.37109 0.15957 0.0328 0.0
C1658 C 0.34706 0.11329 0.03523 0.0
C1659 C 0.3332 0.11884 0.00897 0.0
C1660 C 0.33741 0.14556 0.99538 0.0
C1661 C 0.35597 0.166 0.00747 0.0
C1662 C 0.31574 0.06005 0.95599 0.0
C1663 C 0.29598 0.04339 0.9717 0.0
C1664 C 0.32615 0.08592 0.96721 0.0
C1665 C 0.31738 0.09531 0.99455 0.0
C1666 C 0.29643 0.07952 0.00955 0.0
C1667 C 0.28557 0.05394 -0.00193 0.0
H1668 H 0.86164 0.36537 0.92791 0.0
H1669 H 0.85451 0.30981 0.00195 0.0
H1670 H 0.82852 0.39966 0.9503 0.0
H1671 H 0.82212 0.34478 0.02499 0.0
H1672 H 0.82686 0.44635 0.05725 0.0
H1673 H 0.84166 0.39965 0.03806 0.0
H1674 H 0.77414 0.40437 0.97452 0.0
H1675 H 0.75862 0.45081 0.99454 0.0
C1676 C 0.85228 0.36024 0.94866 0.0
C1677 C 0.86032 0.33513 0.96329 0.0
C1678 C 0.8333 0.37969 0.96137 0.0
C1679 C 0.82276 0.37467 0.98924 0.0
C1680 C 0.82979 0.34887 0.00336 0.0
C1681 C 0.8482 0.32897 0.99024 0.0
C1682 C 0.81453 0.43681 0.03992 0.0
C1683 C 0.79163 0.45187 0.02734 0.0
C1684 C 0.82288 0.41013 0.02904 0.0
C1685 C 0.80893 0.39854 0.00492 0.0
C1686 C 0.78499 0.41287 0.99331 0.0
C1687 C 0.77611 0.43927 0.00474 0.0
H1688 H 0.59578 0.65917 0.52763 0.0
H1689 H 0.6345 0.64586 0.44426 0.0
H1690 H 0.62413 0.61985 0.54738 0.0
H1691 H 0.66226 0.60551 0.46373 0.0
H1692 H 0.71718 0.53966 0.51091 0.0
H1693 H 0.69866 0.58661 0.49623 0.0
H1694 H 0.61942 0.56919 0.54165 0.0
H1695 H 0.63806 0.52295 0.55689 0.0
C1696 C 0.61073 0.648 0.51364 0.0
C1697 C 0.61279 0.65526 0.48438 0.0
C1698 C 0.62681 0.62535 0.52488 0.0
C1699 C 0.64495 0.60907 0.507 0.0
C1700 C 0.64855 0.61766 0.47813 0.0
C1701 C 0.63267 0.64072 0.46693 0.0
C1702 C 0.69594 0.54604 0.51806 0.0
C1703 C 0.67905 0.52745 0.53498 0.0
C1704 C 0.68529 0.57289 0.50949 0.0
C1705 C 0.65758 0.58171 0.51775 0.0
C1706 C 0.64106 0.56338 0.53529 0.0
C1707 C 0.65168 0.53667 0.54387 0.0
H1708 H 0.12156 0.87496 0.56362 0.0
H1709 H 0.14298 0.81672 0.49458 0.0
H1710 H 0.15376 0.91115 0.54324 0.0
H1711 H 0.17467 0.85356 0.47347 0.0
H1712 H 0.22721 0.96397 0.50867 0.0
H1713 H 0.20957 0.91853 0.52855 0.0
H1714 H 0.15664 0.90614 0.45335 0.0
H1715 H 0.1737 0.9519 0.43365 0.0
C1716 C 0.13366 0.86978 0.54437 0.0
C1717 C 0.12997 0.84318 0.53062 0.0
C1718 C 0.15213 0.89038 0.53279 0.0
C1719 C 0.16666 0.88503 0.50686 0.0
C1720 C 0.16375 0.85804 0.49357 0.0
C1721 C 0.14581 0.83703 0.50565 0.0
C1722 C 0.21242 0.95118 0.49601 0.0
C1723 C 0.20162 0.96154 0.46972 0.0
C1724 C 0.20233 0.92525 0.50743 0.0
C1725 C 0.18181 0.90897 0.49243 0.0
C1726 C 0.17268 0.91822 0.46517 0.0
C1727 C 0.18229 0.94444 0.45401 0.0
H1728 H 0.93942 0.65485 0.83153 0.0
H1729 H 0.01944 0.60861 0.82409 0.0
H1730 H 0.96063 0.68564 0.86878 0.0
H1731 H 0.04102 0.63966 0.86052 0.0
H1732 H 0.03866 0.65352 0.95943 0.0
H1733 H 0.02762 0.63606 0.9116 0.0
H1734 H -0.00121 0.72095 0.88682 0.0
H1735 H 0.01015 0.73865 0.93548 0.0
C1736 C 0.9619 0.65218 0.83707 0.0
C1737 C 0.97792 0.62949 0.82532 0.0
C1738 C 0.97407 0.66978 0.85826 0.0
C1739 C 0.00235 0.66475 0.86782 0.0
C1740 C 0.01906 0.64374 0.85387 0.0
C1741 C 0.00682 0.62606 0.83301 0.0
C1742 C 0.03036 0.6686 0.94367 0.0
C1743 C 0.02498 0.69732 0.95112 0.0
C1744 C 0.02431 0.65868 0.91614 0.0
C1745 C 0.01245 0.67717 0.89538 0.0
C1746 C 0.00793 0.70627 0.90245 0.0
C1747 C 0.0145 0.71639 0.93013 0.0
H1748 H 0.47565 0.39823 0.3414 0.0
H1749 H 0.55828 0.35872 0.35655 0.0
H1750 H 0.45466 0.36966 0.37992 0.0
H1751 H 0.53757 0.33075 0.39616 0.0
H1752 H 0.48827 0.27544 0.46042 0.0
H1753 H 0.50468 0.29444 0.41418 0.0
H1754 H 0.45844 0.37344 0.43059 0.0
H1755 H 0.4415 0.35432 0.476 0.0
C1756 C 0.48923 0.38309 0.35282 0.0
C1757 C 0.51862 0.38085 0.34626 0.0
C1758 C 0.47727 0.36687 0.37504 0.0
C1759 C 0.49455 0.3484 0.39165 0.0
C1760 C 0.5236 0.3447 0.38378 0.0
C1761 C 0.53551 0.3607 0.36112 0.0
C1762 C 0.48131 0.29672 0.45393 0.0
C1763 C 0.46363 0.31338 0.47202 0.0
C1764 C 0.49088 0.30766 0.4275 0.0
C1765 C 0.4829 0.33546 0.41857 0.0
C1766 C 0.46464 0.35174 0.43641 0.0
C1767 C 0.45506 0.34083 0.46268 0.0
H1768 H 0.56244 0.84191 0.04725 0.0
H1769 H 0.51391 0.76275 0.05299 0.0
H1770 H 0.5438 0.85641 0.09418 0.0
H1771 H 0.4954 0.77737 0.09972 0.0
H1772 H 0.43288 0.84603 0.14362 0.0
H1773 H 0.46006 0.81805 0.10833 0.0
H1774 H 0.53958 0.84538 0.14785 0.0
H1775 H 0.5121 0.87306 0.1834 0.0
C1776 C 0.54837 0.82732 0.05876 0.0
C1777 C 0.53915 0.8015 0.04607 0.0
C1778 C 0.53784 0.83554 0.08572 0.0
C1779 C 0.5179 0.81811 0.10036 0.0
C1780 C 0.51046 0.79133 0.08869 0.0
C1781 C 0.52109 0.78304 0.0619 0.0
C1782 C 0.45609 0.84489 0.14544 0.0
C1783 C 0.47054 0.86104 0.16629 0.0
C1784 C 0.47168 0.82901 0.12528 0.0
C1785 C 0.50194 0.82965 0.12536 0.0
C1786 C 0.5163 0.84457 0.14734 0.0
C1787 C 0.50065 0.86009 0.16778 0.0
H1788 H 0.97931 0.22558 0.54447 0.0
H1789 H 0.9343 0.14648 0.52547 0.0
H1790 H 0.99463 0.20563 0.59058 0.0
H1791 H 0.9504 0.1263 0.57065 0.0
H1792 H 0.0511 0.14153 0.64394 0.0
H1793 H 0.02849 0.1704 0.60633 0.0
H1794 H 0.94799 0.12618 0.6211 0.0
H1795 H 0.97107 0.0965 0.65758 0.0
C1796 C 0.97244 0.20407 0.55022 0.0
C1797 C 0.95584 0.18752 0.53111 0.0
C1798 C 0.98139 0.19257 0.57657 0.0
C1799 C 0.974 0.16426 0.58431 0.0
C1800 C 0.95623 0.14831 0.56573 0.0
C1801 C 0.94715 0.15984 0.53958 0.0
C1802 C 0.02846 0.13841 0.63942 0.0
C1803 C 0.01294 0.1165 0.65322 0.0
C1804 C 0.01541 0.15503 0.61797 0.0
C1805 C 0.98648 0.1503 0.61029 0.0
C1806 C 0.97049 0.12986 0.62584 0.0
C1807 C 0.98365 0.11295 0.64685 0.0
H1808 H 0.83439 0.94138 0.65196 0.0
H1809 H 0.84824 0.02023 0.6046 0.0
H1810 H 0.86955 0.95682 0.68783 0.0
H1811 H 0.88331 0.03551 0.64035 0.0
H1812 H 0.94151 0.06144 0.71173 0.0
H1813 H 0.89414 0.04871 0.69202 0.0
H1814 H 0.92292 0.96105 0.68056 0.0
H1815 H 0.96991 0.97394 0.69982 0.0
C1816 C 0.84445 0.96225 0.64951 0.0
C1817 C 0.83893 0.97935 0.62516 0.0
C1818 C 0.86459 0.97106 0.67004 0.0
C1819 C 0.87929 0.99729 0.66681 0.0
C1820 C 0.87216 0.01531 0.6436 0.0
C1821 C 0.85228 0.0064 0.62294 0.0
C1822 C 0.93715 0.03929 0.70598 0.0
C1823 C 0.95904 0.01857 0.70731 0.0
C1824 C 0.91024 0.03204 0.69451 0.0
C1825 C 0.90488 0.00391 0.68467 0.0
C1826 C 0.92622 0.98279 0.68826 0.0
C1827 C 0.95313 0.99014 0.69921 0.0
H1828 H 0.6485 0.04842 0.14134 0.0
H1829 H 0.66713 0.96578 0.1034 0.0
H1830 H 0.6126 0.02613 0.17241 0.0
H1831 H 0.63248 0.94303 0.13547 0.0
H1832 H 0.53634 0.92781 0.15372 0.0
H1833 H 0.58229 0.94254 0.13449 0.0
H1834 H 0.59724 0.99504 0.20982 0.0
H1835 H 0.55024 0.98116 0.22861 0.0
C1836 C 0.64554 0.02532 0.14038 0.0
C1837 C 0.66004 0.00884 0.11969 0.0
C1838 C 0.62508 0.01244 0.15828 0.0
C1839 C 0.6192 0.98279 0.1561 0.0
C1840 C 0.6358 0.96602 0.13715 0.0
C1841 C 0.65575 0.97898 0.11888 0.0
C1842 C 0.54953 0.94218 0.16646 0.0
C1843 C 0.5393 0.95381 0.1924 0.0
C1844 C 0.57617 0.95045 0.15553 0.0
C1845 C 0.59347 0.97029 0.17044 0.0
C1846 C 0.5842 0.98021 0.19749 0.0
C1847 C 0.55734 0.97209 0.20835 0.0
H1848 H 0.4647 0.45671 0.34253 0.0
H1849 H 0.44468 0.48815 0.25741 0.0
H1850 H 0.4158 0.46631 0.3579 0.0
H1851 H 0.39505 0.49834 0.27308 0.0
H1852 H 0.33908 0.5555 0.34207 0.0
H1853 H 0.37634 0.53559 0.31063 0.0
H1854 H 0.36437 0.45202 0.34948 0.0
H1855 H 0.32771 0.47197 0.38122 0.0
C1856 C 0.44958 0.46534 0.32701 0.0
C1857 C 0.45835 0.47194 0.29893 0.0
C1858 C 0.4215 0.47057 0.33569 0.0
C1859 C 0.40159 0.4829 0.31659 0.0
C1860 C 0.41003 0.48872 0.28812 0.0
C1861 C 0.43825 0.48288 0.27919 0.0
C1862 C 0.34373 0.53268 0.34313 0.0
C1863 C 0.33118 0.51537 0.36448 0.0
C1864 C 0.36493 0.52126 0.32505 0.0
C1865 C 0.37353 0.49242 0.32809 0.0
C1866 C 0.35841 0.47444 0.34708 0.0
C1867 C 0.33754 0.48586 0.36526 0.0
H1868 H 0.17546 0.45243 0.83363 0.0
H1869 H 0.12077 0.47203 0.90628 0.0
H1870 H 0.14085 0.47661 0.80148 0.0
H1871 H 0.08703 0.49605 0.87463 0.0
H1872 H 0.04689 0.56205 0.82094 0.0
H1873 H 0.08996 0.54209 0.84294 0.0
H1874 H 0.08435 0.46787 0.78754 0.0
H1875 H 0.04091 0.48793 0.76522 0.0
C1876 C 0.15619 0.46188 0.8427 0.0
C1877 C 0.15076 0.46018 0.87245 0.0
C1878 C 0.13646 0.47562 0.82435 0.0
C1879 C 0.1115 0.48843 0.83568 0.0
C1880 C 0.10629 0.48673 0.86536 0.0
C1881 C 0.12555 0.4727 0.88346 0.0
C1882 C 0.05517 0.54183 0.81287 0.0
C1883 C 0.04017 0.52632 0.79171 0.0
C1884 C 0.07985 0.53042 0.82549 0.0
C1885 C 0.09013 0.50325 0.81725 0.0
C1886 C 0.07683 0.48889 0.79422 0.0
C1887 C 0.05198 0.50038 0.78149 0.0
H1888 H 0.65254 0.84577 0.93273 0.0
H1889 H 0.63535 0.81412 0.01821 0.0
H1890 H 0.68579 0.88145 0.95246 0.0
H1891 H 0.66854 0.84985 0.03817 0.0
H1892 H 0.66821 0.95198 0.04867 0.0
H1893 H 0.65471 0.903 0.03632 0.0
H1894 H 0.73066 0.89523 0.98328 0.0
H1895 H 0.74462 0.94461 0.99648 0.0
C1896 C 0.65699 0.84569 0.95562 0.0
C1897 C 0.64176 0.82734 0.97407 0.0
C1898 C 0.67603 0.86598 0.96692 0.0
C1899 C 0.67958 0.86847 0.99685 0.0
C1900 C 0.66614 0.84835 0.01503 0.0
C1901 C 0.6473 0.8279 0.00368 0.0
C1902 C 0.68244 0.93949 0.03506 0.0
C1903 C 0.70732 0.95188 0.0234 0.0
C1904 C 0.67487 0.91139 0.02816 0.0
C1905 C 0.6917 0.8953 0.00891 0.0
C1906 C 0.71742 0.9072 -0.00172 0.0
C1907 C 0.72541 0.93529 0.00582 0.0
H1908 H 0.14416 0.52035 0.94491 0.0
H1909 H 0.22293 0.53773 0.99115 0.0
H1910 H 0.12568 0.56701 0.95855 0.0
H1911 H 0.20456 0.5853 0.0042 0.0
H1912 H 0.10115 0.65656 0.97002 0.0
H1913 H 0.13037 0.61732 0.9514 0.0
H1914 H 0.16791 0.60534 0.03567 0.0
H1915 H 0.13941 0.64568 0.05393 0.0
C1916 C 0.15775 0.53431 0.95769 0.0
C1917 C 0.18496 0.52515 0.96713 0.0
C1918 C 0.14723 0.5613 0.96529 0.0
C1919 C 0.16368 0.58005 0.98238 0.0
C1920 C 0.19126 0.57128 0.99122 0.0
C1921 C 0.20183 0.54409 0.98362 0.0
C1922 C 0.11618 0.64595 0.98436 0.0
C1923 C 0.11785 0.65383 0.01345 0.0
C1924 C 0.13277 0.62335 0.97378 0.0
C1925 C 0.15095 0.6077 0.9922 0.0
C1926 C 0.15419 0.61698 0.02087 0.0
C1927 C 0.13786 0.64003 0.03137 0.0
H1928 H 0.34846 0.31376 0.50494 0.0
H1929 H 0.37049 0.37724 0.56899 0.0
H1930 H 0.31657 0.34886 0.48133 0.0
H1931 H 0.3379 0.41171 0.54616 0.0
H1932 H 0.26177 0.45984 0.50719 0.0
H1933 H 0.27898 0.41515 0.52966 0.0
H1934 H 0.33799 0.40252 0.45911 0.0
H1935 H 0.32159 0.44765 0.4373 0.0
C1936 C 0.34577 0.3349 0.5144 0.0
C1937 C 0.36189 0.34298 0.53863 0.0
C1938 C 0.32763 0.35486 0.50093 0.0
C1939 C 0.32472 0.38275 0.51216 0.0
C1940 C 0.33955 0.39018 0.53737 0.0
C1941 C 0.35827 0.37058 0.55029 0.0
C1942 C 0.27761 0.44687 0.49604 0.0
C1943 C 0.29026 0.4568 0.47049 0.0
C1944 C 0.2875 0.42149 0.5089 0.0
C1945 C 0.30961 0.40548 0.49594 0.0
C1946 C 0.32062 0.41432 0.46923 0.0
C1947 C 0.31129 0.44005 0.4568 0.0
H1948 H 0.85226 0.1863 0.49762 0.0
H1949 H 0.86011 0.1321 0.42274 0.0
H1950 H 0.82118 0.15009 0.52053 0.0
H1951 H 0.82827 0.09657 0.44502 0.0
H1952 H 0.75963 0.04337 0.49022 0.0
H1953 H 0.77407 0.09019 0.47023 0.0
H1954 H 0.84284 0.09525 0.53234 0.0
H1955 H 0.82914 0.04814 0.55148 0.0
C1956 C 0.8463 0.16721 0.48567 0.0
C1957 C 0.85832 0.16182 0.4585 0.0
C1958 C 0.82868 0.14656 0.49874 0.0
C1959 C 0.82229 0.12076 0.48438 0.0
C1960 C 0.83257 0.1165 0.4563 0.0
C1961 C 0.8508 0.1367 0.44362 0.0
C1962 C 0.77721 0.05502 0.50011 0.0
C1963 C 0.79333 0.04242 0.52233 0.0
C1964 C 0.78547 0.08164 0.48868 0.0
C1965 C 0.80939 0.09624 0.49993 0.0
C1966 C 0.82407 0.08456 0.52361 0.0
C1967 C 0.81634 0.05765 0.53445 0.0
loop_
_geom_bond_atom_site_label_1
_geom_bond_atom_site_label_2
_geom_bond_distance
_geom_bond_site_symmetry_2
_ccdc_geom_bond_type
Fe0 O2 1.918 . S
Fe0 O5 1.997 . S
Fe0 O6 2.002 . S
Fe0 O11 1.976 . S
Fe0 O14 1.996 1_455 S
Fe1 O2 1.918 . S
Fe1 O9 1.997 . S
Fe1 O12 1.996 . S
Fe1 O16 1.976 . S
Fe1 O19 2.002 . S
O2 Fe0 1.918 . S
O2 Fe1 1.918 . S
O2 Fe3 1.918 . S
Fe3 O2 1.918 . S
Fe3 O4 2.002 . S
Fe3 O13 1.976 1_455 S
Fe3 O17 1.996 . S
Fe3 O20 1.997 . S
O4 Fe3 2.002 . S
O4 C21 1.295 . S
O5 Fe0 1.997 . S
O5 C21 1.235 . S
O6 Fe0 2.002 . S
O6 C7 1.295 . S
C7 O6 1.295 . S
C7 O9 1.235 . S
C8 O13 1.287 . S
C8 O14 1.255 . S
O9 Fe1 1.997 . S
O9 C7 1.235 . S
C10 O16 1.287 . S
C10 O17 1.255 . S
O11 Fe0 1.976 . S
O11 C18 1.287 . S
O12 Fe1 1.996 . S
O12 C18 1.255 . S
O13 Fe3 1.976 1_655 S
O13 C8 1.287 . S
O14 Fe0 1.996 1_655 S
O14 C8 1.255 . S
C15 O19 1.295 . S
C15 O20 1.235 . S
O16 Fe1 1.976 . S
O16 C10 1.287 . S
O17 Fe3 1.996 . S
O17 C10 1.255 . S
C18 O11 1.287 . S
C18 O12 1.255 . S
O19 Fe1 2.002 . S
O19 C15 1.295 . S
O20 Fe3 1.997 . S
O20 C15 1.235 . S
C21 O4 1.295 . S
C21 O5 1.235 . S
Fe22 O24 1.918 . S
Fe22 O27 1.997 . S
Fe22 O28 2.002 . S
Fe22 O33 1.976 . S
Fe22 O36 1.996 . S
Fe23 O24 1.918 . S
Fe23 O31 1.997 . S
Fe23 O34 1.996 . S
Fe23 O38 1.976 . S
Fe23 O41 2.002 . S
O24 Fe22 1.918 . S
O24 Fe23 1.918 . S
O24 Fe25 1.918 . S
Fe25 O24 1.918 . S
Fe25 O26 2.002 . S
Fe25 O35 1.976 . S
Fe25 O39 1.996 . S
Fe25 O42 1.997 . S
O26 Fe25 2.002 . S
O26 C43 1.295 . S
O27 Fe22 1.997 . S
O27 C43 1.235 . S
O28 Fe22 2.002 . S
O28 C29 1.295 . S
C29 O28 1.295 . S
C29 O31 1.235 . S
C30 O35 1.287 . S
C30 O36 1.255 . S
O31 Fe23 1.997 . S
O31 C29 1.235 . S
C32 O38 1.287 . S
C32 O39 1.255 . S
O33 Fe22 1.976 . S
O33 C40 1.287 . S
O34 Fe23 1.996 . S
O34 C40 1.255 . S
O35 Fe25 1.976 . S
O35 C30 1.287 . S
O36 Fe22 1.996 . S
O36 C30 1.255 . S
C37 O41 1.295 . S
C37 O42 1.235 . S
O38 Fe23 1.976 . S
O38 C32 1.287 . S
O39 Fe25 1.996 . S
O39 C32 1.255 . S
C40 O33 1.287 . S
C40 O34 1.255 . S
O41 Fe23 2.002 . S
O41 C37 1.295 . S
O42 Fe25 1.997 . S
O42 C37 1.235 . S
C43 O26 1.295 . S
C43 O27 1.235 . S
Fe44 O46 1.918 . S
Fe44 O49 1.997 . S
Fe44 O50 2.002 . S
Fe44 O55 1.976 . S
Fe44 O58 1.996 . S
Fe45 O46 1.918 . S
Fe45 O53 1.997 . S
Fe45 O56 1.996 . S
Fe45 O60 1.976 . S
Fe45 O63 2.002 . S
O46 Fe44 1.918 . S
O46 Fe45 1.918 . S
O46 Fe47 1.918 . S
Fe47 O46 1.918 . S
Fe47 O48 2.002 . S
Fe47 O57 1.976 . S
Fe47 O61 1.996 . S
Fe47 O64 2.011 . S
O48 Fe47 2.002 . S
O48 C65 1.295 . S
O49 Fe44 1.997 . S
O49 C65 1.235 . S
O50 Fe44 2.002 . S
O50 C51 1.295 . S
C51 O50 1.295 . S
C51 O53 1.235 . S
C52 O57 1.287 . S
C52 O58 1.255 . S
O53 Fe45 1.997 . S
O53 C51 1.235 . S
C54 O60 1.287 . S
C54 O61 1.255 . S
O55 Fe44 1.976 . S
O55 C62 1.287 . S
O56 Fe45 1.996 . S
O56 C62 1.255 . S
O57 Fe47 1.976 . S
O57 C52 1.287 . S
O58 Fe44 1.996 . S
O58 C52 1.255 . S
C59 O63 1.295 1_565 S
C59 O64 1.230 1_565 S
O60 Fe45 1.976 . S
O60 C54 1.287 . S
O61 Fe47 1.996 . S
O61 C54 1.255 . S
C62 O55 1.287 . S
C62 O56 1.255 . S
O63 Fe45 2.002 . S
O63 C59 1.295 1_545 S
O64 Fe47 2.011 . S
O64 C59 1.230 1_545 S
C65 O48 1.295 . S
C65 O49 1.235 . S
Fe66 O68 1.918 . S
Fe66 O71 1.997 . S
Fe66 O72 2.002 . S
Fe66 O77 1.976 1_655 S
Fe66 O80 1.996 . S
Fe67 O68 1.918 . S
Fe67 O75 2.011 . S
Fe67 O78 1.996 1_655 S
Fe67 O82 1.976 . S
Fe67 O85 2.002 . S
O68 Fe66 1.918 . S
O68 Fe67 1.918 . S
O68 Fe69 1.918 . S
Fe69 O68 1.918 . S
Fe69 O70 2.002 . S
Fe69 O79 1.976 . S
Fe69 O83 1.996 . S
Fe69 O86 1.997 . S
O70 Fe69 2.002 . S
O70 C87 1.295 . S
O71 Fe66 1.997 . S
O71 C87 1.235 . S
O72 Fe66 2.002 . S
O72 C73 1.295 1_565 S
C73 O72 1.295 1_545 S
C73 O75 1.230 1_545 S
C74 O79 1.287 . S
C74 O80 1.255 . S
O75 Fe67 2.011 . S
O75 C73 1.230 1_565 S
C76 O82 1.287 . S
C76 O83 1.255 . S
O77 Fe66 1.976 1_455 S
O77 C84 1.287 . S
O78 Fe67 1.996 1_455 S
O78 C84 1.255 . S
O79 Fe69 1.976 . S
O79 C74 1.287 . S
O80 Fe66 1.996 . S
O80 C74 1.255 . S
C81 O85 1.295 . S
C81 O86 1.235 . S
O82 Fe67 1.976 . S
O82 C76 1.287 . S
O83 Fe69 1.996 . S
O83 C76 1.255 . S
C84 O77 1.287 . S
C84 O78 1.255 . S
O85 Fe67 2.002 . S
O85 C81 1.295 . S
O86 Fe69 1.997 . S
O86 C81 1.235 . S
C87 O70 1.295 . S
C87 O71 1.235 . S
Fe88 O90 1.918 . S
Fe88 O93 1.997 . S
Fe88 O94 2.002 . S
Fe88 O99 1.976 . S
Fe88 O102 1.996 . S
Fe89 O90 1.918 . S
Fe89 O97 1.997 . S
Fe89 O100 1.996 . S
Fe89 O104 1.976 1_545 S
Fe89 O107 2.002 . S
O90 Fe88 1.918 . S
O90 Fe89 1.918 . S
O90 Fe91 1.918 . S
Fe91 O90 1.918 . S
Fe91 O92 2.002 . S
Fe91 O101 1.976 . S
Fe91 O105 1.996 1_545 S
Fe91 O108 1.997 . S
O92 Fe91 2.002 . S
O92 C109 1.295 . S
O93 Fe88 1.997 . S
O93 C109 1.235 . S
O94 Fe88 2.002 . S
O94 C95 1.295 . S
C95 O94 1.295 . S
C95 O97 1.235 . S
C96 O101 1.287 . S
C96 O102 1.255 . S
O97 Fe89 1.997 . S
O97 C95 1.235 . S
C98 O104 1.287 . S
C98 O105 1.255 . S
O99 Fe88 1.976 . S
O99 C106 1.287 . S
O100 Fe89 1.996 . S
O100 C106 1.255 . S
O101 Fe91 1.976 . S
O101 C96 1.287 . S
O102 Fe88 1.996 . S
O102 C96 1.255 . S
C103 O107 1.295 . S
C103 O108 1.235 . S
O104 Fe89 1.976 1_565 S
O104 C98 1.287 . S
O105 Fe91 1.996 1_565 S
O105 C98 1.255 . S
C106 O99 1.287 . S
C106 O100 1.255 . S
O107 Fe89 2.002 . S
O107 C103 1.295 . S
O108 Fe91 1.997 . S
O108 C103 1.235 . S
C109 O92 1.295 . S
C109 O93 1.235 . S
Fe110 O112 1.918 . S
Fe110 O115 1.997 . S
Fe110 O116 2.002 . S
Fe110 O121 1.976 1_565 S
Fe110 O124 1.996 . S
Fe111 O112 1.918 . S
Fe111 O119 2.011 . S
Fe111 O122 1.996 1_565 S
Fe111 O126 1.976 . S
Fe111 O129 2.002 . S
O112 Fe110 1.918 . S
O112 Fe111 1.918 . S
O112 Fe113 1.918 . S
Fe113 O112 1.918 . S
Fe113 O114 2.002 . S
Fe113 O123 1.976 . S
Fe113 O127 1.996 . S
Fe113 O130 1.997 . S
O114 Fe113 2.002 . S
O114 C131 1.295 . S
O115 Fe110 1.997 . S
O115 C131 1.235 . S
O116 Fe110 2.002 . S
O116 C117 1.295 1_556 S
C117 O116 1.295 1_554 S
C117 O119 1.230 1_554 S
C118 O123 1.287 . S
C118 O124 1.255 . S
O119 Fe111 2.011 . S
O119 C117 1.230 1_556 S
C120 O126 1.287 . S
C120 O127 1.255 . S
O121 Fe110 1.976 1_545 S
O121 C128 1.287 . S
O122 Fe111 1.996 1_545 S
O122 C128 1.255 . S
O123 Fe113 1.976 . S
O123 C118 1.287 . S
O124 Fe110 1.996 . S
O124 C118 1.255 . S
C125 O129 1.295 . S
C125 O130 1.235 . S
O126 Fe111 1.976 . S
O126 C120 1.287 . S
O127 Fe113 1.996 . S
O127 C120 1.255 . S
C128 O121 1.287 . S
C128 O122 1.255 . S
O129 Fe111 2.002 . S
O129 C125 1.295 . S
O130 Fe113 1.997 . S
O130 C125 1.235 . S
C131 O114 1.295 . S
C131 O115 1.235 . S
Fe132 O134 1.918 . S
Fe132 O137 1.997 . S
Fe132 O138 2.002 . S
Fe132 O143 1.976 . S
Fe132 O146 1.996 . S
Fe133 O134 1.918 . S
Fe133 O141 1.997 . S
Fe133 O144 1.996 . S
Fe133 O148 1.976 . S
Fe133 O151 2.002 . S
O134 Fe132 1.918 . S
O134 Fe133 1.918 . S
O134 Fe135 1.918 . S
Fe135 O134 1.918 . S
Fe135 O136 2.002 . S
Fe135 O145 1.976 . S
Fe135 O149 1.996 . S
Fe135 O152 1.997 . S
O136 Fe135 2.002 . S
O136 C153 1.295 . S
O137 Fe132 1.997 . S
O137 C153 1.235 . S
O138 Fe132 2.002 . S
O138 C139 1.295 . S
C139 O138 1.295 . S
C139 O141 1.235 . S
C140 O145 1.287 . S
C140 O146 1.255 . S
O141 Fe133 1.997 . S
O141 C139 1.235 . S
C142 O148 1.287 . S
C142 O149 1.255 . S
O143 Fe132 1.976 . S
O143 C150 1.287 . S
O144 Fe133 1.996 . S
O144 C150 1.255 . S
O145 Fe135 1.976 . S
O145 C140 1.287 . S
O146 Fe132 1.996 . S
O146 C140 1.255 . S
C147 O151 1.295 . S
C147 O152 1.235 . S
O148 Fe133 1.976 . S
O148 C142 1.287 . S
O149 Fe135 1.996 . S
O149 C142 1.255 . S
C150 O143 1.287 . S
C150 O144 1.255 . S
O151 Fe133 2.002 . S
O151 C147 1.295 . S
O152 Fe135 1.997 . S
O152 C147 1.235 . S
C153 O136 1.295 . S
C153 O137 1.235 . S
Fe154 O156 1.918 . S
Fe154 O159 1.997 . S
Fe154 O160 2.002 . S
Fe154 O165 1.976 . S
Fe154 O168 1.996 . S
Fe155 O156 1.918 . S
Fe155 O163 1.997 . S
Fe155 O166 1.996 . S
Fe155 O170 1.976 . S
Fe155 O173 2.002 . S
O156 Fe154 1.918 . S
O156 Fe155 1.918 . S
O156 Fe157 1.918 . S
Fe157 O156 1.918 . S
Fe157 O158 2.002 . S
Fe157 O167 1.976 . S
Fe157 O171 1.996 . S
Fe157 O174 2.011 . S
O158 Fe157 2.002 . S
O158 C175 1.295 . S
O159 Fe154 1.997 . S
O159 C175 1.235 . S
O160 Fe154 2.002 . S
O160 C161 1.295 . S
C161 O160 1.295 . S
C161 O163 1.235 . S
C162 O167 1.287 . S
C162 O168 1.255 . S
O163 Fe155 1.997 . S
O163 C161 1.235 . S
C164 O170 1.287 . S
C164 O171 1.255 . S
O165 Fe154 1.976 . S
O165 C172 1.287 . S
O166 Fe155 1.996 . S
O166 C172 1.255 . S
O167 Fe157 1.976 . S
O167 C162 1.287 . S
O168 Fe154 1.996 . S
O168 C162 1.255 . S
C169 O173 1.295 1_556 S
C169 O174 1.230 1_556 S
O170 Fe155 1.976 . S
O170 C164 1.287 . S
O171 Fe157 1.996 . S
O171 C164 1.255 . S
C172 O165 1.287 . S
C172 O166 1.255 . S
O173 Fe155 2.002 . S
O173 C169 1.295 1_554 S
O174 Fe157 2.011 . S
O174 C169 1.230 1_554 S
C175 O158 1.295 . S
C175 O159 1.235 . S
Fe176 O178 1.918 . S
Fe176 O181 1.997 . S
Fe176 O182 2.002 . S
Fe176 O187 1.976 . S
Fe176 O190 1.996 . S
Fe177 O178 1.918 . S
Fe177 O185 1.997 . S
Fe177 O188 1.996 . S
Fe177 O192 1.976 1_554 S
Fe177 O195 2.002 . S
O178 Fe176 1.918 . S
O178 Fe177 1.918 . S
O178 Fe179 1.918 . S
Fe179 O178 1.918 . S
Fe179 O180 2.002 . S
Fe179 O189 1.976 . S
Fe179 O193 1.996 1_554 S
Fe179 O196 1.997 . S
O180 Fe179 2.002 . S
O180 C197 1.295 . S
O181 Fe176 1.997 . S
O181 C197 1.235 . S
O182 Fe176 2.002 . S
O182 C183 1.295 . S
C183 O182 1.295 . S
C183 O185 1.235 . S
C184 O189 1.287 . S
C184 O190 1.255 . S
O185 Fe177 1.997 . S
O185 C183 1.235 . S
C186 O192 1.287 . S
C186 O193 1.255 . S
O187 Fe176 1.976 . S
O187 C194 1.287 . S
O188 Fe177 1.996 . S
O188 C194 1.255 . S
O189 Fe179 1.976 . S
O189 C184 1.287 . S
O190 Fe176 1.996 . S
O190 C184 1.255 . S
C191 O195 1.295 . S
C191 O196 1.235 . S
O192 Fe177 1.976 1_556 S
O192 C186 1.287 . S
O193 Fe179 1.996 1_556 S
O193 C186 1.255 . S
C194 O187 1.287 . S
C194 O188 1.255 . S
O195 Fe177 2.002 . S
O195 C191 1.295 . S
O196 Fe179 1.997 . S
O196 C191 1.235 . S
C197 O180 1.295 . S
C197 O181 1.235 . S
Fe198 O200 1.918 . S
Fe198 O203 2.011 . S
Fe198 O204 2.002 . S
Fe198 O209 1.976 . S
Fe198 O212 1.996 1_556 S
Fe199 O200 1.918 . S
Fe199 O207 1.997 . S
Fe199 O210 1.996 . S
Fe199 O214 1.976 . S
Fe199 O217 2.002 . S
O200 Fe198 1.918 . S
O200 Fe199 1.918 . S
O200 Fe201 1.918 . S
Fe201 O200 1.918 . S
Fe201 O202 2.002 . S
Fe201 O211 1.976 1_556 S
Fe201 O215 1.996 . S
Fe201 O218 1.997 . S
O202 Fe201 2.002 . S
O202 C219 1.295 1_655 S
O203 Fe198 2.011 . S
O203 C219 1.230 1_655 S
O204 Fe198 2.002 . S
O204 C205 1.295 . S
C205 O204 1.295 . S
C205 O207 1.235 . S
C206 O211 1.287 . S
C206 O212 1.255 . S
O207 Fe199 1.997 . S
O207 C205 1.235 . S
C208 O214 1.287 . S
C208 O215 1.255 . S
O209 Fe198 1.976 . S
O209 C216 1.287 . S
O210 Fe199 1.996 . S
O210 C216 1.255 . S
O211 Fe201 1.976 1_554 S
O211 C206 1.287 . S
O212 Fe198 1.996 1_554 S
O212 C206 1.255 . S
C213 O217 1.295 . S
C213 O218 1.235 . S
O214 Fe199 1.976 . S
O214 C208 1.287 . S
O215 Fe201 1.996 . S
O215 C208 1.255 . S
C216 O209 1.287 . S
C216 O210 1.255 . S
O217 Fe199 2.002 . S
O217 C213 1.295 . S
O218 Fe201 1.997 . S
O218 C213 1.235 . S
C219 O202 1.295 1_455 S
C219 O203 1.230 1_455 S
Fe220 O222 1.918 . S
Fe220 O225 1.997 . S
Fe220 O226 2.002 . S
Fe220 O231 1.976 . S
Fe220 O234 1.996 . S
Fe221 O222 1.918 . S
Fe221 O229 1.997 . S
Fe221 O232 1.996 . S
Fe221 O236 1.976 . S
Fe221 O239 2.002 . S
O222 Fe220 1.918 . S
O222 Fe221 1.918 . S
O222 Fe223 1.918 . S
Fe223 O222 1.918 . S
Fe223 O224 2.002 . S
Fe223 O233 1.976 . S
Fe223 O237 1.996 . S
Fe223 O240 1.997 . S
O224 Fe223 2.002 . S
O224 C241 1.295 . S
O225 Fe220 1.997 . S
O225 C241 1.235 . S
O226 Fe220 2.002 . S
O226 C227 1.295 . S
C227 O226 1.295 . S
C227 O229 1.235 . S
C228 O233 1.287 . S
C228 O234 1.255 . S
O229 Fe221 1.997 . S
O229 C227 1.235 . S
C230 O236 1.287 . S
C230 O237 1.255 . S
O231 Fe220 1.976 . S
O231 C238 1.287 . S
O232 Fe221 1.996 . S
O232 C238 1.255 . S
O233 Fe223 1.976 . S
O233 C228 1.287 . S
O234 Fe220 1.996 . S
O234 C228 1.255 . S
C235 O239 1.295 . S
C235 O240 1.235 . S
O236 Fe221 1.976 . S
O236 C230 1.287 . S
O237 Fe223 1.996 . S
O237 C230 1.255 . S
C238 O231 1.287 . S
C238 O232 1.255 . S
O239 Fe221 2.002 . S
O239 C235 1.295 . S
O240 Fe223 1.997 . S
O240 C235 1.235 . S
C241 O224 1.295 . S
C241 O225 1.235 . S
Fe242 O244 1.918 . S
Fe242 O247 1.997 . S
Fe242 O248 2.002 . S
Fe242 O253 1.976 . S
Fe242 O256 1.996 . S
Fe243 O244 1.918 . S
Fe243 O251 2.011 . S
Fe243 O254 1.996 . S
Fe243 O258 1.976 . S
Fe243 O261 2.002 . S
O244 Fe242 1.918 . S
O244 Fe243 1.918 . S
O244 Fe245 1.918 . S
Fe245 O244 1.918 . S
Fe245 O246 2.002 . S
Fe245 O255 1.976 . S
Fe245 O259 1.996 . S
Fe245 O262 1.997 . S
O246 Fe245 2.002 . S
O246 C263 1.295 . S
O247 Fe242 1.997 . S
O247 C263 1.235 . S
O248 Fe242 2.002 . S
O248 C249 1.295 1_455 S
C249 O248 1.295 1_655 S
C249 O251 1.230 1_655 S
C250 O255 1.287 . S
C250 O256 1.255 . S
O251 Fe243 2.011 . S
O251 C249 1.230 1_455 S
C252 O258 1.287 . S
C252 O259 1.255 . S
O253 Fe242 1.976 . S
O253 C260 1.287 . S
O254 Fe243 1.996 . S
O254 C260 1.255 . S
O255 Fe245 1.976 . S
O255 C250 1.287 . S
O256 Fe242 1.996 . S
O256 C250 1.255 . S
C257 O261 1.295 . S
C257 O262 1.235 . S
O258 Fe243 1.976 . S
O258 C252 1.287 . S
O259 Fe245 1.996 . S
O259 C252 1.255 . S
C260 O253 1.287 . S
C260 O254 1.255 . S
O261 Fe243 2.002 . S
O261 C257 1.295 . S
O262 Fe245 1.997 . S
O262 C257 1.235 . S
C263 O246 1.295 . S
C263 O247 1.235 . S
Fe264 O266 1.918 . S
Fe264 O269 1.997 . S
Fe264 O270 2.002 . S
Fe264 O275 1.976 . S
Fe264 O278 1.996 . S
Fe265 O266 1.918 . S
Fe265 O273 1.997 . S
Fe265 O276 1.996 . S
Fe265 O280 1.976 1_655 S
Fe265 O283 2.002 . S
O266 Fe264 1.918 . S
O266 Fe265 1.918 . S
O266 Fe267 1.918 . S
Fe267 O266 1.918 . S
Fe267 O268 2.002 . S
Fe267 O277 1.976 . S
Fe267 O281 1.996 1_655 S
Fe267 O284 1.997 . S
O268 Fe267 2.002 . S
O268 C285 1.295 . S
O269 Fe264 1.997 . S
O269 C285 1.235 . S
O270 Fe264 2.002 . S
O270 C271 1.295 . S
C271 O270 1.295 . S
C271 O273 1.235 . S
C272 O277 1.287 . S
C272 O278 1.255 . S
O273 Fe265 1.997 . S
O273 C271 1.235 . S
C274 O280 1.287 . S
C274 O281 1.255 . S
O275 Fe264 1.976 . S
O275 C282 1.287 . S
O276 Fe265 1.996 . S
O276 C282 1.255 . S
O277 Fe267 1.976 . S
O277 C272 1.287 . S
O278 Fe264 1.996 . S
O278 C272 1.255 . S
C279 O283 1.295 . S
C279 O284 1.235 . S
O280 Fe265 1.976 1_455 S
O280 C274 1.287 . S
O281 Fe267 1.996 1_455 S
O281 C274 1.255 . S
C282 O275 1.287 . S
C282 O276 1.255 . S
O283 Fe265 2.002 . S
O283 C279 1.295 . S
O284 Fe267 1.997 . S
O284 C279 1.235 . S
C285 O268 1.295 . S
C285 O269 1.235 . S
Fe286 O288 1.918 . S
Fe286 O291 1.997 . S
Fe286 O292 2.002 . S
Fe286 O297 1.976 . S
Fe286 O300 1.996 . S
Fe287 O288 1.918 . S
Fe287 O295 1.997 . S
Fe287 O298 1.996 . S
Fe287 O302 1.976 . S
Fe287 O305 2.002 . S
O288 Fe286 1.918 . S
O288 Fe287 1.918 . S
O288 Fe289 1.918 . S
Fe289 O288 1.918 . S
Fe289 O290 2.002 . S
Fe289 O299 1.976 . S
Fe289 O303 1.996 . S
Fe289 O306 1.997 . S
O290 Fe289 2.002 . S
O290 C307 1.295 . S
O291 Fe286 1.997 . S
O291 C307 1.235 . S
O292 Fe286 2.002 . S
O292 C293 1.295 . S
C293 O292 1.295 . S
C293 O295 1.235 . S
C294 O299 1.287 . S
C294 O300 1.255 . S
O295 Fe287 1.997 . S
O295 C293 1.235 . S
C296 O302 1.287 . S
C296 O303 1.255 . S
O297 Fe286 1.976 . S
O297 C304 1.287 . S
O298 Fe287 1.996 . S
O298 C304 1.255 . S
O299 Fe289 1.976 . S
O299 C294 1.287 . S
O300 Fe286 1.996 . S
O300 C294 1.255 . S
C301 O305 1.295 . S
C301 O306 1.235 . S
O302 Fe287 1.976 . S
O302 C296 1.287 . S
O303 Fe289 1.996 . S
O303 C296 1.255 . S
C304 O297 1.287 . S
C304 O298 1.255 . S
O305 Fe287 2.002 . S
O305 C301 1.295 . S
O306 Fe289 1.997 . S
O306 C301 1.235 . S
C307 O290 1.295 . S
C307 O291 1.235 . S
Fe308 O310 1.918 . S
Fe308 O313 1.997 . S
Fe308 O314 2.002 . S
Fe308 O319 1.976 . S
Fe308 O322 1.996 . S
Fe309 O310 1.918 . S
Fe309 O317 1.997 . S
Fe309 O320 1.996 . S
Fe309 O324 1.976 . S
Fe309 O327 2.002 . S
O310 Fe308 1.918 . S
O310 Fe309 1.918 . S
O310 Fe311 1.918 . S
Fe311 O310 1.918 . S
Fe311 O312 2.002 . S
Fe311 O321 1.976 . S
Fe311 O325 1.996 . S
Fe311 O328 2.011 . S
O312 Fe311 2.002 . S
O312 C329 1.295 . S
O313 Fe308 1.997 . S
O313 C329 1.235 . S
O314 Fe308 2.002 . S
O314 C315 1.295 . S
C315 O314 1.295 . S
C315 O317 1.235 . S
C316 O321 1.287 . S
C316 O322 1.255 . S
O317 Fe309 1.997 . S
O317 C315 1.235 . S
C318 O324 1.287 . S
C318 O325 1.255 . S
O319 Fe308 1.976 . S
O319 C326 1.287 . S
O320 Fe309 1.996 . S
O320 C326 1.255 . S
O321 Fe311 1.976 . S
O321 C316 1.287 . S
O322 Fe308 1.996 . S
O322 C316 1.255 . S
C323 O327 1.295 1_545 S
C323 O328 1.230 1_545 S
O324 Fe309 1.976 . S
O324 C318 1.287 . S
O325 Fe311 1.996 . S
O325 C318 1.255 . S
C326 O319 1.287 . S
C326 O320 1.255 . S
O327 Fe309 2.002 . S
O327 C323 1.295 1_565 S
O328 Fe311 2.011 . S
O328 C323 1.230 1_565 S
C329 O312 1.295 . S
C329 O313 1.235 . S
Fe330 O332 1.918 . S
Fe330 O335 1.997 . S
Fe330 O336 2.002 . S
Fe330 O341 1.976 . S
Fe330 O344 1.996 . S
Fe331 O332 1.918 . S
Fe331 O339 1.997 . S
Fe331 O342 1.996 . S
Fe331 O346 1.976 1_455 S
Fe331 O349 2.002 . S
O332 Fe330 1.918 . S
O332 Fe331 1.918 . S
O332 Fe333 1.918 . S
Fe333 O332 1.918 . S
Fe333 O334 2.002 . S
Fe333 O343 1.976 . S
Fe333 O347 1.996 1_455 S
Fe333 O350 2.011 . S
O334 Fe333 2.002 . S
O334 C351 1.295 . S
O335 Fe330 1.997 . S
O335 C351 1.235 . S
O336 Fe330 2.002 . S
O336 C337 1.295 . S
C337 O336 1.295 . S
C337 O339 1.235 . S
C338 O343 1.287 . S
C338 O344 1.255 . S
O339 Fe331 1.997 . S
O339 C337 1.235 . S
C340 O346 1.287 . S
C340 O347 1.255 . S
O341 Fe330 1.976 . S
O341 C348 1.287 . S
O342 Fe331 1.996 . S
O342 C348 1.255 . S
O343 Fe333 1.976 . S
O343 C338 1.287 . S
O344 Fe330 1.996 . S
O344 C338 1.255 . S
C345 O349 1.295 1_565 S
C345 O350 1.230 1_565 S
O346 Fe331 1.976 1_655 S
O346 C340 1.287 . S
O347 Fe333 1.996 1_655 S
O347 C340 1.255 . S
C348 O341 1.287 . S
C348 O342 1.255 . S
O349 Fe331 2.002 . S
O349 C345 1.295 1_545 S
O350 Fe333 2.011 . S
O350 C345 1.230 1_545 S
C351 O334 1.295 . S
C351 O335 1.235 . S
Fe352 O354 1.918 . S
Fe352 O357 1.997 . S
Fe352 O358 2.002 . S
Fe352 O363 1.976 . S
Fe352 O366 1.996 . S
Fe353 O354 1.918 . S
Fe353 O361 1.997 . S
Fe353 O364 1.996 . S
Fe353 O368 1.976 1_565 S
Fe353 O371 2.002 . S
O354 Fe352 1.918 . S
O354 Fe353 1.918 . S
O354 Fe355 1.918 . S
Fe355 O354 1.918 . S
Fe355 O356 2.002 . S
Fe355 O365 1.976 . S
Fe355 O369 1.996 1_565 S
Fe355 O372 1.997 . S
O356 Fe355 2.002 . S
O356 C373 1.295 . S
O357 Fe352 1.997 . S
O357 C373 1.235 . S
O358 Fe352 2.002 . S
O358 C359 1.295 . S
C359 O358 1.295 . S
C359 O361 1.235 . S
C360 O365 1.287 . S
C360 O366 1.255 . S
O361 Fe353 1.997 . S
O361 C359 1.235 . S
C362 O368 1.287 . S
C362 O369 1.255 . S
O363 Fe352 1.976 . S
O363 C370 1.287 . S
O364 Fe353 1.996 . S
O364 C370 1.255 . S
O365 Fe355 1.976 . S
O365 C360 1.287 . S
O366 Fe352 1.996 . S
O366 C360 1.255 . S
C367 O371 1.295 . S
C367 O372 1.235 . S
O368 Fe353 1.976 1_545 S
O368 C362 1.287 . S
O369 Fe355 1.996 1_545 S
O369 C362 1.255 . S
C370 O363 1.287 . S
C370 O364 1.255 . S
O371 Fe353 2.002 . S
O371 C367 1.295 . S
O372 Fe355 1.997 . S
O372 C367 1.235 . S
C373 O356 1.295 . S
C373 O357 1.235 . S
Fe374 O376 1.918 . S
Fe374 O379 2.011 . S
Fe374 O380 2.002 . S
Fe374 O385 1.976 . S
Fe374 O388 1.996 1_545 S
Fe375 O376 1.918 . S
Fe375 O383 1.997 . S
Fe375 O386 1.996 . S
Fe375 O390 1.976 . S
Fe375 O393 2.002 . S
O376 Fe374 1.918 . S
O376 Fe375 1.918 . S
O376 Fe377 1.918 . S
Fe377 O376 1.918 . S
Fe377 O378 2.002 . S
Fe377 O387 1.976 1_545 S
Fe377 O391 1.996 . S
Fe377 O394 1.997 . S
O378 Fe377 2.002 . S
O378 C395 1.295 1_554 S
O379 Fe374 2.011 . S
O379 C395 1.230 1_554 S
O380 Fe374 2.002 . S
O380 C381 1.295 . S
C381 O380 1.295 . S
C381 O383 1.235 . S
C382 O387 1.287 . S
C382 O388 1.255 . S
O383 Fe375 1.997 . S
O383 C381 1.235 . S
C384 O390 1.287 . S
C384 O391 1.255 . S
O385 Fe374 1.976 . S
O385 C392 1.287 . S
O386 Fe375 1.996 . S
O386 C392 1.255 . S
O387 Fe377 1.976 1_565 S
O387 C382 1.287 . S
O388 Fe374 1.996 1_565 S
O388 C382 1.255 . S
C389 O393 1.295 . S
C389 O394 1.235 . S
O390 Fe375 1.976 . S
O390 C384 1.287 . S
O391 Fe377 1.996 . S
O391 C384 1.255 . S
C392 O385 1.287 . S
C392 O386 1.255 . S
O393 Fe375 2.002 . S
O393 C389 1.295 . S
O394 Fe377 1.997 . S
O394 C389 1.235 . S
C395 O378 1.295 1_556 S
C395 O379 1.230 1_556 S
Fe396 O398 1.918 . S
Fe396 O401 1.997 . S
Fe396 O402 2.002 . S
Fe396 O407 1.976 . S
Fe396 O410 1.996 . S
Fe397 O398 1.918 . S
Fe397 O405 1.997 . S
Fe397 O408 1.996 . S
Fe397 O412 1.976 . S
Fe397 O415 2.002 . S
O398 Fe396 1.918 . S
O398 Fe397 1.918 . S
O398 Fe399 1.918 . S
Fe399 O398 1.918 . S
Fe399 O400 2.002 . S
Fe399 O409 1.976 . S
Fe399 O413 1.996 . S
Fe399 O416 1.997 . S
O400 Fe399 2.002 . S
O400 C417 1.295 . S
O401 Fe396 1.997 . S
O401 C417 1.235 . S
O402 Fe396 2.002 . S
O402 C403 1.295 . S
C403 O402 1.295 . S
C403 O405 1.235 . S
C404 O409 1.287 . S
C404 O410 1.255 . S
O405 Fe397 1.997 . S
O405 C403 1.235 . S
C406 O412 1.287 . S
C406 O413 1.255 . S
O407 Fe396 1.976 . S
O407 C414 1.287 . S
O408 Fe397 1.996 . S
O408 C414 1.255 . S
O409 Fe399 1.976 . S
O409 C404 1.287 . S
O410 Fe396 1.996 . S
O410 C404 1.255 . S
C411 O415 1.295 . S
C411 O416 1.235 . S
O412 Fe397 1.976 . S
O412 C406 1.287 . S
O413 Fe399 1.996 . S
O413 C406 1.255 . S
C414 O407 1.287 . S
C414 O408 1.255 . S
O415 Fe397 2.002 . S
O415 C411 1.295 . S
O416 Fe399 1.997 . S
O416 C411 1.235 . S
C417 O400 1.295 . S
C417 O401 1.235 . S
Fe418 O420 1.918 . S
Fe418 O423 1.997 . S
Fe418 O424 2.002 . S
Fe418 O429 1.976 . S
Fe418 O432 1.996 . S
Fe419 O420 1.918 . S
Fe419 O427 1.997 . S
Fe419 O430 1.996 . S
Fe419 O434 1.976 . S
Fe419 O437 2.002 . S
O420 Fe418 1.918 . S
O420 Fe419 1.918 . S
O420 Fe421 1.918 . S
Fe421 O420 1.918 . S
Fe421 O422 2.002 . S
Fe421 O431 1.976 . S
Fe421 O435 1.996 . S
Fe421 O438 2.011 . S
O422 Fe421 2.002 . S
O422 C439 1.295 . S
O423 Fe418 1.997 . S
O423 C439 1.235 . S
O424 Fe418 2.002 . S
O424 C425 1.295 . S
C425 O424 1.295 . S
C425 O427 1.235 . S
C426 O431 1.287 . S
C426 O432 1.255 . S
O427 Fe419 1.997 . S
O427 C425 1.235 . S
C428 O434 1.287 . S
C428 O435 1.255 . S
O429 Fe418 1.976 . S
O429 C436 1.287 . S
O430 Fe419 1.996 . S
O430 C436 1.255 . S
O431 Fe421 1.976 . S
O431 C426 1.287 . S
O432 Fe418 1.996 . S
O432 C426 1.255 . S
C433 O437 1.295 1_554 S
C433 O438 1.230 1_554 S
O434 Fe419 1.976 . S
O434 C428 1.287 . S
O435 Fe421 1.996 . S
O435 C428 1.255 . S
C436 O429 1.287 . S
C436 O430 1.255 . S
O437 Fe419 2.002 . S
O437 C433 1.295 1_556 S
O438 Fe421 2.011 . S
O438 C433 1.230 1_556 S
C439 O422 1.295 . S
C439 O423 1.235 . S
Fe440 O442 1.918 . S
Fe440 O445 1.997 . S
Fe440 O446 2.002 . S
Fe440 O451 1.976 . S
Fe440 O454 1.996 . S
Fe441 O442 1.918 . S
Fe441 O449 1.997 . S
Fe441 O452 1.996 . S
Fe441 O456 1.976 1_556 S
Fe441 O459 2.002 . S
O442 Fe440 1.918 . S
O442 Fe441 1.918 . S
O442 Fe443 1.918 . S
Fe443 O442 1.918 . S
Fe443 O444 2.002 . S
Fe443 O453 1.976 . S
Fe443 O457 1.996 1_556 S
Fe443 O460 1.997 . S
O444 Fe443 2.002 . S
O444 C461 1.295 . S
O445 Fe440 1.997 . S
O445 C461 1.235 . S
O446 Fe440 2.002 . S
O446 C447 1.295 . S
C447 O446 1.295 . S
C447 O449 1.235 . S
C448 O453 1.287 . S
C448 O454 1.255 . S
O449 Fe441 1.997 . S
O449 C447 1.235 . S
C450 O456 1.287 . S
C450 O457 1.255 . S
O451 Fe440 1.976 . S
O451 C458 1.287 . S
O452 Fe441 1.996 . S
O452 C458 1.255 . S
O453 Fe443 1.976 . S
O453 C448 1.287 . S
O454 Fe440 1.996 . S
O454 C448 1.255 . S
C455 O459 1.295 . S
C455 O460 1.235 . S
O456 Fe441 1.976 1_554 S
O456 C450 1.287 . S
O457 Fe443 1.996 1_554 S
O457 C450 1.255 . S
C458 O451 1.287 . S
C458 O452 1.255 . S
O459 Fe441 2.002 . S
O459 C455 1.295 . S
O460 Fe443 1.997 . S
O460 C455 1.235 . S
C461 O444 1.295 . S
C461 O445 1.235 . S
Fe462 O464 1.918 . S
Fe462 O467 2.011 . S
Fe462 O468 2.002 . S
Fe462 O473 1.976 . S
Fe462 O476 1.996 1_554 S
Fe463 O464 1.918 . S
Fe463 O471 1.997 . S
Fe463 O474 1.996 . S
Fe463 O478 1.976 . S
Fe463 O481 2.002 . S
O464 Fe462 1.918 . S
O464 Fe463 1.918 . S
O464 Fe465 1.918 . S
Fe465 O464 1.918 . S
Fe465 O466 2.002 . S
Fe465 O475 1.976 1_554 S
Fe465 O479 1.996 . S
Fe465 O482 1.997 . S
O466 Fe465 2.002 . S
O466 C483 1.295 1_455 S
O467 Fe462 2.011 . S
O467 C483 1.230 1_455 S
O468 Fe462 2.002 . S
O468 C469 1.295 . S
C469 O468 1.295 . S
C469 O471 1.235 . S
C470 O475 1.287 . S
C470 O476 1.255 . S
O471 Fe463 1.997 . S
O471 C469 1.235 . S
C472 O478 1.287 . S
C472 O479 1.255 . S
O473 Fe462 1.976 . S
O473 C480 1.287 . S
O474 Fe463 1.996 . S
O474 C480 1.255 . S
O475 Fe465 1.976 1_556 S
O475 C470 1.287 . S
O476 Fe462 1.996 1_556 S
O476 C470 1.255 . S
C477 O481 1.295 . S
C477 O482 1.235 . S
O478 Fe463 1.976 . S
O478 C472 1.287 . S
O479 Fe465 1.996 . S
O479 C472 1.255 . S
C480 O473 1.287 . S
C480 O474 1.255 . S
O481 Fe463 2.002 . S
O481 C477 1.295 . S
O482 Fe465 1.997 . S
O482 C477 1.235 . S
C483 O466 1.295 1_655 S
C483 O467 1.230 1_655 S
Fe484 O486 1.918 . S
Fe484 O489 1.997 . S
Fe484 O490 2.002 . S
Fe484 O495 1.976 . S
Fe484 O498 1.996 . S
Fe485 O486 1.918 . S
Fe485 O493 1.997 . S
Fe485 O496 1.996 . S
Fe485 O500 1.976 . S
Fe485 O503 2.002 . S
O486 Fe484 1.918 . S
O486 Fe485 1.918 . S
O486 Fe487 1.918 . S
Fe487 O486 1.918 . S
Fe487 O488 2.002 . S
Fe487 O497 1.976 . S
Fe487 O501 1.996 . S
Fe487 O504 1.997 . S
O488 Fe487 2.002 . S
O488 C505 1.295 . S
O489 Fe484 1.997 . S
O489 C505 1.235 . S
O490 Fe484 2.002 . S
O490 C491 1.295 . S
C491 O490 1.295 . S
C491 O493 1.235 . S
C492 O497 1.287 . S
C492 O498 1.255 . S
O493 Fe485 1.997 . S
O493 C491 1.235 . S
C494 O500 1.287 . S
C494 O501 1.255 . S
O495 Fe484 1.976 . S
O495 C502 1.287 . S
O496 Fe485 1.996 . S
O496 C502 1.255 . S
O497 Fe487 1.976 . S
O497 C492 1.287 . S
O498 Fe484 1.996 . S
O498 C492 1.255 . S
C499 O503 1.295 . S
C499 O504 1.235 . S
O500 Fe485 1.976 . S
O500 C494 1.287 . S
O501 Fe487 1.996 . S
O501 C494 1.255 . S
C502 O495 1.287 . S
C502 O496 1.255 . S
O503 Fe485 2.002 . S
O503 C499 1.295 . S
O504 Fe487 1.997 . S
O504 C499 1.235 . S
C505 O488 1.295 . S
C505 O489 1.235 . S
Fe506 O508 1.918 . S
Fe506 O511 1.997 . S
Fe506 O512 2.002 . S
Fe506 O517 1.976 . S
Fe506 O520 1.996 . S
Fe507 O508 1.918 . S
Fe507 O515 1.997 . S
Fe507 O518 1.996 . S
Fe507 O522 1.976 . S
Fe507 O525 2.002 . S
O508 Fe506 1.918 . S
O508 Fe507 1.918 . S
O508 Fe509 1.918 . S
Fe509 O508 1.918 . S
Fe509 O510 2.002 . S
Fe509 O519 1.976 . S
Fe509 O523 1.996 . S
Fe509 O526 2.011 . S
O510 Fe509 2.002 . S
O510 C527 1.295 . S
O511 Fe506 1.997 . S
O511 C527 1.235 . S
O512 Fe506 2.002 . S
O512 C513 1.295 . S
C513 O512 1.295 . S
C513 O515 1.235 . S
C514 O519 1.287 . S
C514 O520 1.255 . S
O515 Fe507 1.997 . S
O515 C513 1.235 . S
C516 O522 1.287 . S
C516 O523 1.255 . S
O517 Fe506 1.976 . S
O517 C524 1.287 . S
O518 Fe507 1.996 . S
O518 C524 1.255 . S
O519 Fe509 1.976 . S
O519 C514 1.287 . S
O520 Fe506 1.996 . S
O520 C514 1.255 . S
C521 O525 1.295 1_455 S
C521 O526 1.230 1_455 S
O522 Fe507 1.976 . S
O522 C516 1.287 . S
O523 Fe509 1.996 . S
O523 C516 1.255 . S
C524 O517 1.287 . S
C524 O518 1.255 . S
O525 Fe507 2.002 . S
O525 C521 1.295 1_655 S
O526 Fe509 2.011 . S
O526 C521 1.230 1_655 S
C527 O510 1.295 . S
C527 O511 1.235 . S
H528 C536 0.950 . S
H529 C541 0.950 . S
H530 C538 0.950 . S
H531 C540 0.950 . S
H532 C542 0.950 . S
H533 C544 0.950 . S
H534 C546 0.950 . S
H535 C547 0.950 . S
C536 H528 0.950 . S
C536 C537 1.386 . S
C536 C538 1.391 . S
C537 C536 1.386 . S
C537 C541 1.393 . S
C538 H530 0.950 . S
C538 C536 1.391 . S
C538 C539 1.400 . S
C539 C538 1.400 . S
C539 C540 1.398 . S
C539 C545 1.491 . S
C540 H531 0.950 . S
C540 C539 1.398 . S
C540 C541 1.391 . S
C541 H529 0.950 . S
C541 C537 1.393 . S
C541 C540 1.391 . S
C542 H532 0.950 . S
C542 C543 1.386 . S
C542 C544 1.391 . S
C543 C542 1.386 . S
C543 C547 1.393 . S
C544 H533 0.950 . S
C544 C542 1.391 . S
C544 C545 1.400 . S
C545 C539 1.491 . S
C545 C544 1.400 . S
C545 C546 1.398 . S
C546 H534 0.950 . S
C546 C545 1.398 . S
C546 C547 1.391 . S
C547 H535 0.950 . S
C547 C543 1.393 . S
C547 C546 1.391 . S
H548 C556 0.950 . S
H549 C561 0.950 . S
H550 C558 0.950 . S
H551 C560 0.950 . S
H552 C562 0.950 . S
H553 C564 0.950 . S
H554 C566 0.950 . S
H555 C567 0.950 . S
C556 H548 0.950 . S
C556 C557 1.386 . S
C556 C558 1.391 . S
C557 C556 1.386 . S
C557 C561 1.393 . S
C558 H550 0.950 . S
C558 C556 1.391 . S
C558 C559 1.400 . S
C559 C558 1.400 . S
C559 C560 1.398 . S
C559 C565 1.491 . S
C560 H551 0.950 . S
C560 C559 1.398 . S
C560 C561 1.391 . S
C561 H549 0.950 . S
C561 C557 1.393 . S
C561 C560 1.391 . S
C562 H552 0.950 . S
C562 C563 1.386 . S
C562 C564 1.391 . S
C563 C562 1.386 . S
C563 C567 1.393 . S
C564 H553 0.950 . S
C564 C562 1.391 . S
C564 C565 1.400 . S
C565 C559 1.491 . S
C565 C564 1.400 . S
C565 C566 1.398 . S
C566 H554 0.950 . S
C566 C565 1.398 . S
C566 C567 1.391 . S
C567 H555 0.950 . S
C567 C563 1.393 . S
C567 C566 1.391 . S
H568 C576 0.950 . S
H569 C581 0.950 . S
H570 C578 0.950 . S
H571 C580 0.950 1_565 S
H572 C582 0.950 . S
H573 C584 0.950 . S
H574 C586 0.950 . S
H575 C587 0.950 . S
C576 H568 0.950 . S
C576 C577 1.386 . S
C576 C578 1.391 . S
C577 C576 1.386 . S
C577 C581 1.393 . S
C578 H570 0.950 . S
C578 C576 1.391 . S
C578 C579 1.400 . S
C579 C578 1.400 . S
C579 C580 1.398 . S
C579 C585 1.491 . S
C580 H571 0.950 1_545 S
C580 C579 1.398 . S
C580 C581 1.391 . S
C581 H569 0.950 . S
C581 C577 1.393 . S
C581 C580 1.391 . S
C582 H572 0.950 . S
C582 C583 1.386 . S
C582 C584 1.391 . S
C583 C582 1.386 . S
C583 C587 1.393 1_565 S
C584 H573 0.950 . S
C584 C582 1.391 . S
C584 C585 1.400 1_565 S
C585 C579 1.491 . S
C585 C584 1.400 1_545 S
C585 C586 1.398 . S
C586 H574 0.950 . S
C586 C585 1.398 . S
C586 C587 1.391 . S
C587 H575 0.950 . S
C587 C583 1.393 1_545 S
C587 C586 1.391 . S
H588 C596 0.950 . S
H589 C601 0.950 . S
H590 C598 0.950 . S
H591 C600 0.950 . S
H592 C602 0.950 . S
H593 C604 0.950 . S
H594 C606 0.950 . S
H595 C607 0.950 . S
C596 H588 0.950 . S
C596 C597 1.386 . S
C596 C598 1.391 . S
C597 C596 1.386 . S
C597 C601 1.393 . S
C598 H590 0.950 . S
C598 C596 1.391 . S
C598 C599 1.400 . S
C599 C598 1.400 . S
C599 C600 1.398 . S
C599 C605 1.491 . S
C600 H591 0.950 . S
C600 C599 1.398 . S
C600 C601 1.391 . S
C601 H589 0.950 . S
C601 C597 1.393 . S
C601 C600 1.391 . S
C602 H592 0.950 . S
C602 C603 1.386 . S
C602 C604 1.391 1_545 S
C603 C602 1.386 . S
C603 C607 1.393 . S
C604 H593 0.950 . S
C604 C602 1.391 1_565 S
C604 C605 1.400 . S
C605 C599 1.491 . S
C605 C604 1.400 . S
C605 C606 1.398 1_565 S
C606 H594 0.950 . S
C606 C605 1.398 1_545 S
C606 C607 1.391 . S
C607 H595 0.950 . S
C607 C603 1.393 . S
C607 C606 1.391 . S
H608 C616 0.950 . S
H609 C621 0.950 . S
H610 C618 0.950 . S
H611 C620 0.950 . S
H612 C622 0.950 . S
H613 C624 0.950 . S
H614 C626 0.950 . S
H615 C627 0.950 . S
C616 H608 0.950 . S
C616 C617 1.386 . S
C616 C618 1.391 . S
C617 C616 1.386 . S
C617 C621 1.393 . S
C618 H610 0.950 . S
C618 C616 1.391 . S
C618 C619 1.400 . S
C619 C618 1.400 . S
C619 C620 1.398 . S
C619 C625 1.491 . S
C620 H611 0.950 . S
C620 C619 1.398 . S
C620 C621 1.391 . S
C621 H609 0.950 . S
C621 C617 1.393 . S
C621 C620 1.391 . S
C622 H612 0.950 . S
C622 C623 1.386 . S
C622 C624 1.391 . S
C623 C622 1.386 . S
C623 C627 1.393 . S
C624 H613 0.950 . S
C624 C622 1.391 . S
C624 C625 1.400 . S
C625 C619 1.491 . S
C625 C624 1.400 . S
C625 C626 1.398 . S
C626 H614 0.950 . S
C626 C625 1.398 . S
C626 C627 1.391 . S
C627 H615 0.950 . S
C627 C623 1.393 . S
C627 C626 1.391 . S
H628 C636 0.950 . S
H629 C641 0.950 . S
H630 C638 0.950 1_554 S
H631 C640 0.950 . S
H632 C642 0.950 . S
H633 C644 0.950 . S
H634 C646 0.950 . S
H635 C647 0.950 . S
C636 H628 0.950 . S
C636 C637 1.386 . S
C636 C638 1.391 . S
C637 C636 1.386 . S
C637 C641 1.393 . S
C638 H630 0.950 1_556 S
C638 C636 1.391 . S
C638 C639 1.400 . S
C639 C638 1.400 . S
C639 C640 1.398 . S
C639 C645 1.491 . S
C640 H631 0.950 . S
C640 C639 1.398 . S
C640 C641 1.391 . S
C641 H629 0.950 . S
C641 C637 1.393 . S
C641 C640 1.391 . S
C642 H632 0.950 . S
C642 C643 1.386 1_556 S
C642 C644 1.391 . S
C643 C642 1.386 1_554 S
C643 C647 1.393 . S
C644 H633 0.950 . S
C644 C642 1.391 . S
C644 C645 1.400 . S
C645 C639 1.491 . S
C645 C644 1.400 . S
C645 C646 1.398 1_556 S
C646 H634 0.950 . S
C646 C645 1.398 1_554 S
C646 C647 1.391 . S
C647 H635 0.950 . S
C647 C643 1.393 . S
C647 C646 1.391 . S
H648 C656 0.950 . S
H649 C661 0.950 . S
H650 C658 0.950 . S
H651 C660 0.950 . S
H652 C662 0.950 . S
H653 C664 0.950 . S
H654 C666 0.950 . S
H655 C667 0.950 . S
C656 H648 0.950 . S
C656 C657 1.386 . S
C656 C658 1.391 . S
C657 C656 1.386 . S
C657 C661 1.393 . S
C658 H650 0.950 . S
C658 C656 1.391 . S
C658 C659 1.400 . S
C659 C658 1.400 . S
C659 C660 1.398 . S
C659 C665 1.491 . S
C660 H651 0.950 . S
C660 C659 1.398 . S
C660 C661 1.391 . S
C661 H649 0.950 . S
C661 C657 1.393 . S
C661 C660 1.391 . S
C662 H652 0.950 . S
C662 C663 1.386 . S
C662 C664 1.391 . S
C663 C662 1.386 . S
C663 C667 1.393 . S
C664 H653 0.950 . S
C664 C662 1.391 . S
C664 C665 1.400 . S
C665 C659 1.491 . S
C665 C664 1.400 . S
C665 C666 1.398 . S
C666 H654 0.950 . S
C666 C665 1.398 . S
C666 C667 1.391 . S
C667 H655 0.950 . S
C667 C663 1.393 . S
C667 C666 1.391 . S
H668 C676 0.950 . S
H669 C681 0.950 . S
H670 C678 0.950 1_556 S
H671 C680 0.950 . S
H672 C682 0.950 . S
H673 C684 0.950 . S
H674 C686 0.950 . S
H675 C687 0.950 . S
C676 H668 0.950 . S
C676 C677 1.386 . S
C676 C678 1.391 . S
C677 C676 1.386 . S
C677 C681 1.393 . S
C678 H670 0.950 1_554 S
C678 C676 1.391 . S
C678 C679 1.400 . S
C679 C678 1.400 . S
C679 C680 1.398 . S
C679 C685 1.491 . S
C680 H671 0.950 . S
C680 C679 1.398 . S
C680 C681 1.391 . S
C681 H669 0.950 . S
C681 C677 1.393 . S
C681 C680 1.391 . S
C682 H672 0.950 . S
C682 C683 1.386 1_554 S
C682 C684 1.391 . S
C683 C682 1.386 1_556 S
C683 C687 1.393 . S
C684 H673 0.950 . S
C684 C682 1.391 . S
C684 C685 1.400 . S
C685 C679 1.491 . S
C685 C684 1.400 . S
C685 C686 1.398 1_554 S
C686 H674 0.950 . S
C686 C685 1.398 1_556 S
C686 C687 1.391 . S
C687 H675 0.950 . S
C687 C683 1.393 . S
C687 C686 1.391 . S
H688 C696 0.950 . S
H689 C701 0.950 . S
H690 C698 0.950 . S
H691 C700 0.950 . S
H692 C702 0.950 . S
H693 C704 0.950 . S
H694 C706 0.950 . S
H695 C707 0.950 . S
C696 H688 0.950 . S
C696 C697 1.386 . S
C696 C698 1.391 . S
C697 C696 1.386 . S
C697 C701 1.393 . S
C698 H690 0.950 . S
C698 C696 1.391 . S
C698 C699 1.400 . S
C699 C698 1.400 . S
C699 C700 1.398 . S
C699 C705 1.491 . S
C700 H691 0.950 . S
C700 C699 1.398 . S
C700 C701 1.391 . S
C701 H689 0.950 . S
C701 C697 1.393 . S
C701 C700 1.391 . S
C702 H692 0.950 . S
C702 C703 1.386 . S
C702 C704 1.391 . S
C703 C702 1.386 . S
C703 C707 1.393 . S
C704 H693 0.950 . S
C704 C702 1.391 . S
C704 C705 1.400 . S
C705 C699 1.491 . S
C705 C704 1.400 . S
C705 C706 1.398 . S
C706 H694 0.950 . S
C706 C705 1.398 . S
C706 C707 1.391 . S
C707 H695 0.950 . S
C707 C703 1.393 . S
C707 C706 1.391 . S
H708 C716 0.950 . S
H709 C721 0.965 . S
H710 C718 0.950 . S
H711 C720 0.950 1_455 S
H712 C722 0.950 . S
H713 C724 0.950 . S
H714 C726 0.950 . S
H715 C727 0.950 . S
C716 H708 0.950 . S
C716 C717 1.386 . S
C716 C718 1.391 . S
C717 C716 1.386 . S
C717 C721 1.393 . S
C718 H710 0.950 . S
C718 C716 1.391 . S
C718 C719 1.400 . S
C719 C718 1.400 . S
C719 C720 1.398 . S
C719 C725 1.491 . S
C720 H711 0.950 1_655 S
C720 C719 1.398 . S
C720 C721 1.391 . S
C721 H709 0.965 . S
C721 C717 1.393 . S
C721 C720 1.391 . S
C722 H712 0.950 . S
C722 C723 1.386 . S
C722 C724 1.391 . S
C723 C722 1.386 . S
C723 C727 1.393 1_455 S
C724 H713 0.950 . S
C724 C722 1.391 . S
C724 C725 1.400 1_455 S
C725 C719 1.491 . S
C725 C724 1.400 1_655 S
C725 C726 1.398 . S
C726 H714 0.950 . S
C726 C725 1.398 . S
C726 C727 1.391 . S
C727 H715 0.950 . S
C727 C723 1.393 1_655 S
C727 C726 1.391 . S
H728 C736 0.950 . S
H729 C741 0.950 . S
H730 C738 0.950 . S
H731 C740 0.950 . S
H732 C742 0.950 . S
H733 C744 0.950 . S
H734 C746 0.950 . S
H735 C747 0.950 . S
C736 H728 0.950 . S
C736 C737 1.386 . S
C736 C738 1.391 . S
C737 C736 1.386 . S
C737 C741 1.393 . S
C738 H730 0.950 . S
C738 C736 1.391 . S
C738 C739 1.400 . S
C739 C738 1.400 . S
C739 C740 1.398 . S
C739 C745 1.491 . S
C740 H731 0.950 . S
C740 C739 1.398 . S
C740 C741 1.391 . S
C741 H729 0.950 . S
C741 C737 1.393 . S
C741 C740 1.391 . S
C742 H732 0.950 . S
C742 C743 1.386 . S
C742 C744 1.391 . S
C743 C742 1.386 . S
C743 C747 1.393 . S
C744 H733 0.950 . S
C744 C742 1.391 . S
C744 C745 1.400 . S
C745 C739 1.491 . S
C745 C744 1.400 . S
C745 C746 1.398 . S
C746 H734 0.950 . S
C746 C745 1.398 . S
C746 C747 1.391 . S
C747 H735 0.950 . S
C747 C743 1.393 . S
C747 C746 1.391 . S
H748 C756 0.950 . S
H749 C761 0.950 . S
H750 C758 0.950 . S
H751 C760 0.950 1_655 S
H752 C762 0.950 . S
H753 C764 0.950 . S
H754 C766 0.950 . S
H755 C767 0.950 . S
C756 H748 0.950 . S
C756 C757 1.386 . S
C756 C758 1.391 . S
C757 C756 1.386 . S
C757 C761 1.393 . S
C758 H750 0.950 . S
C758 C756 1.391 . S
C758 C759 1.400 . S
C759 C758 1.400 . S
C759 C760 1.398 . S
C759 C765 1.491 . S
C760 H751 0.950 1_455 S
C760 C759 1.398 . S
C760 C761 1.391 . S
C761 H749 0.950 . S
C761 C757 1.393 . S
C761 C760 1.391 . S
C762 H752 0.950 . S
C762 C763 1.386 . S
C762 C764 1.391 . S
C763 C762 1.386 . S
C763 C767 1.393 1_655 S
C764 H753 0.950 . S
C764 C762 1.391 . S
C764 C765 1.400 1_655 S
C765 C759 1.491 . S
C765 C764 1.400 1_455 S
C765 C766 1.398 . S
C766 H754 0.950 . S
C766 C765 1.398 . S
C766 C767 1.391 . S
C767 H755 0.950 . S
C767 C763 1.393 1_455 S
C767 C766 1.391 . S
H768 C776 0.950 . S
H769 C781 0.950 . S
H770 C778 0.950 . S
H771 C780 0.950 . S
H772 C782 0.950 . S
H773 C784 0.950 . S
H774 C786 0.950 . S
H775 C787 0.950 . S
C776 H768 0.950 . S
C776 C777 1.386 . S
C776 C778 1.391 . S
C777 C776 1.386 . S
C777 C781 1.393 . S
C778 H770 0.950 . S
C778 C776 1.391 . S
C778 C779 1.400 . S
C779 C778 1.400 . S
C779 C780 1.398 . S
C779 C785 1.491 . S
C780 H771 0.950 . S
C780 C779 1.398 . S
C780 C781 1.391 . S
C781 H769 0.950 . S
C781 C777 1.393 . S
C781 C780 1.391 . S
C782 H772 0.950 . S
C782 C783 1.386 . S
C782 C784 1.391 . S
C783 C782 1.386 . S
C783 C787 1.393 . S
C784 H773 0.950 . S
C784 C782 1.391 . S
C784 C785 1.400 . S
C785 C779 1.491 . S
C785 C784 1.400 . S
C785 C786 1.398 . S
C786 H774 0.950 . S
C786 C785 1.398 . S
C786 C787 1.391 . S
C787 H775 0.950 . S
C787 C783 1.393 . S
C787 C786 1.391 . S
H788 C796 0.950 . S
H789 C801 0.950 . S
H790 C798 0.950 . S
H791 C800 0.950 . S
H792 C802 0.950 . S
H793 C804 0.950 . S
H794 C806 0.950 . S
H795 C807 0.950 . S
C796 H788 0.950 . S
C796 C797 1.386 . S
C796 C798 1.391 . S
C797 C796 1.386 . S
C797 C801 1.393 . S
C798 H790 0.950 . S
C798 C796 1.391 . S
C798 C799 1.400 . S
C799 C798 1.400 . S
C799 C800 1.398 . S
C799 C805 1.491 . S
C800 H791 0.950 . S
C800 C799 1.398 . S
C800 C801 1.391 . S
C801 H789 0.950 . S
C801 C797 1.393 . S
C801 C800 1.391 . S
C802 H792 0.950 . S
C802 C803 1.386 . S
C802 C804 1.391 . S
C803 C802 1.386 . S
C803 C807 1.393 . S
C804 H793 0.950 . S
C804 C802 1.391 . S
C804 C805 1.400 . S
C805 C799 1.491 . S
C805 C804 1.400 . S
C805 C806 1.398 . S
C806 H794 0.950 . S
C806 C805 1.398 . S
C806 C807 1.391 . S
C807 H795 0.950 . S
C807 C803 1.393 . S
C807 C806 1.391 . S
H808 C816 0.950 . S
H809 C821 0.950 . S
H810 C818 0.950 . S
H811 C820 0.950 1_545 S
H812 C822 0.950 . S
H813 C824 0.950 . S
H814 C826 0.950 . S
H815 C827 0.950 . S
C816 H808 0.950 . S
C816 C817 1.386 . S
C816 C818 1.391 . S
C817 C816 1.386 . S
C817 C821 1.393 . S
C818 H810 0.950 . S
C818 C816 1.391 . S
C818 C819 1.400 . S
C819 C818 1.400 . S
C819 C820 1.398 . S
C819 C825 1.491 . S
C820 H811 0.950 1_565 S
C820 C819 1.398 . S
C820 C821 1.391 . S
C821 H809 0.950 . S
C821 C817 1.393 . S
C821 C820 1.391 . S
C822 H812 0.950 . S
C822 C823 1.386 . S
C822 C824 1.391 . S
C823 C822 1.386 . S
C823 C827 1.393 1_545 S
C824 H813 0.950 . S
C824 C822 1.391 . S
C824 C825 1.400 1_545 S
C825 C819 1.491 . S
C825 C824 1.400 1_565 S
C825 C826 1.398 . S
C826 H814 0.950 . S
C826 C825 1.398 . S
C826 C827 1.391 . S
C827 H815 0.950 . S
C827 C823 1.393 1_565 S
C827 C826 1.391 . S
H828 C836 0.950 . S
H829 C841 0.950 . S
H830 C838 0.950 . S
H831 C840 0.950 . S
H832 C842 0.950 . S
H833 C844 0.950 . S
H834 C846 0.950 1_565 S
H835 C847 0.950 . S
C836 H828 0.950 . S
C836 C837 1.386 . S
C836 C838 1.391 . S
C837 C836 1.386 . S
C837 C841 1.393 1_565 S
C838 H830 0.950 . S
C838 C836 1.391 . S
C838 C839 1.400 1_565 S
C839 C838 1.400 1_545 S
C839 C840 1.398 . S
C839 C845 1.491 . S
C840 H831 0.950 . S
C840 C839 1.398 . S
C840 C841 1.391 . S
C841 H829 0.950 . S
C841 C837 1.393 1_545 S
C841 C840 1.391 . S
C842 H832 0.950 . S
C842 C843 1.386 . S
C842 C844 1.391 . S
C843 C842 1.386 . S
C843 C847 1.393 . S
C844 H833 0.950 . S
C844 C842 1.391 . S
C844 C845 1.400 . S
C845 C839 1.491 . S
C845 C844 1.400 . S
C845 C846 1.398 . S
C846 H834 0.950 1_545 S
C846 C845 1.398 . S
C846 C847 1.391 . S
C847 H835 0.950 . S
C847 C843 1.393 . S
C847 C846 1.391 . S
H848 C856 0.950 . S
H849 C861 0.950 . S
H850 C858 0.950 . S
H851 C860 0.950 . S
H852 C862 0.950 . S
H853 C864 0.950 . S
H854 C866 0.950 . S
H855 C867 0.950 . S
C856 H848 0.950 . S
C856 C857 1.386 . S
C856 C858 1.391 . S
C857 C856 1.386 . S
C857 C861 1.393 . S
C858 H850 0.950 . S
C858 C856 1.391 . S
C858 C859 1.400 . S
C859 C858 1.400 . S
C859 C860 1.398 . S
C859 C865 1.491 . S
C860 H851 0.950 . S
C860 C859 1.398 . S
C860 C861 1.391 . S
C861 H849 0.950 . S
C861 C857 1.393 . S
C861 C860 1.391 . S
C862 H852 0.950 . S
C862 C863 1.386 . S
C862 C864 1.391 . S
C863 C862 1.386 . S
C863 C867 1.393 . S
C864 H853 0.950 . S
C864 C862 1.391 . S
C864 C865 1.400 . S
C865 C859 1.491 . S
C865 C864 1.400 . S
C865 C866 1.398 . S
C866 H854 0.950 . S
C866 C865 1.398 . S
C866 C867 1.391 . S
C867 H855 0.950 . S
C867 C863 1.393 . S
C867 C866 1.391 . S
H868 C876 0.950 . S
H869 C881 0.950 . S
H870 C878 0.950 . S
H871 C880 0.950 . S
H872 C882 0.950 . S
H873 C884 0.950 . S
H874 C886 0.950 1_556 S
H875 C887 0.950 . S
C876 H868 0.950 . S
C876 C877 1.386 . S
C876 C878 1.391 . S
C877 C876 1.386 . S
C877 C881 1.393 1_556 S
C878 H870 0.950 . S
C878 C876 1.391 . S
C878 C879 1.400 1_556 S
C879 C878 1.400 1_554 S
C879 C880 1.398 . S
C879 C885 1.491 . S
C880 H871 0.950 . S
C880 C879 1.398 . S
C880 C881 1.391 . S
C881 H869 0.950 . S
C881 C877 1.393 1_554 S
C881 C880 1.391 . S
C882 H872 0.950 . S
C882 C883 1.386 . S
C882 C884 1.391 . S
C883 C882 1.386 . S
C883 C887 1.393 . S
C884 H873 0.950 . S
C884 C882 1.391 . S
C884 C885 1.400 . S
C885 C879 1.491 . S
C885 C884 1.400 . S
C885 C886 1.398 . S
C886 H874 0.950 1_554 S
C886 C885 1.398 . S
C886 C887 1.391 . S
C887 H875 0.950 . S
C887 C883 1.393 . S
C887 C886 1.391 . S
H888 C896 0.950 . S
H889 C901 0.950 . S
H890 C898 0.950 . S
H891 C900 0.950 . S
H892 C902 0.950 . S
H893 C904 0.950 . S
H894 C906 0.950 . S
H895 C907 0.950 . S
C896 H888 0.950 . S
C896 C897 1.386 . S
C896 C898 1.391 . S
C897 C896 1.386 . S
C897 C901 1.393 . S
C898 H890 0.950 . S
C898 C896 1.391 . S
C898 C899 1.400 . S
C899 C898 1.400 . S
C899 C900 1.398 . S
C899 C905 1.491 . S
C900 H891 0.950 . S
C900 C899 1.398 . S
C900 C901 1.391 . S
C901 H889 0.950 . S
C901 C897 1.393 . S
C901 C900 1.391 . S
C902 H892 0.950 . S
C902 C903 1.386 . S
C902 C904 1.391 . S
C903 C902 1.386 . S
C903 C907 1.393 . S
C904 H893 0.950 . S
C904 C902 1.391 . S
C904 C905 1.400 . S
C905 C899 1.491 . S
C905 C904 1.400 . S
C905 C906 1.398 . S
C906 H894 0.950 . S
C906 C905 1.398 . S
C906 C907 1.391 . S
C907 H895 0.950 . S
C907 C903 1.393 . S
C907 C906 1.391 . S
H908 C916 0.950 . S
H909 C921 0.950 . S
H910 C918 0.950 . S
H911 C920 0.950 . S
H912 C922 0.950 . S
H913 C924 0.950 1_554 S
H914 C926 0.950 . S
H915 C927 0.950 . S
C916 H908 0.950 . S
C916 C917 1.386 1_556 S
C916 C918 1.391 . S
C917 C916 1.386 1_554 S
C917 C921 1.393 . S
C918 H910 0.950 . S
C918 C916 1.391 . S
C918 C919 1.400 . S
C919 C918 1.400 . S
C919 C920 1.398 1_556 S
C919 C925 1.491 . S
C920 H911 0.950 . S
C920 C919 1.398 1_554 S
C920 C921 1.391 . S
C921 H909 0.950 . S
C921 C917 1.393 . S
C921 C920 1.391 . S
C922 H912 0.950 . S
C922 C923 1.386 . S
C922 C924 1.391 . S
C923 C922 1.386 . S
C923 C927 1.393 . S
C924 H913 0.950 1_556 S
C924 C922 1.391 . S
C924 C925 1.400 . S
C925 C919 1.491 . S
C925 C924 1.400 . S
C925 C926 1.398 . S
C926 H914 0.950 . S
C926 C925 1.398 . S
C926 C927 1.391 . S
C927 H915 0.950 . S
C927 C923 1.393 . S
C927 C926 1.391 . S
H928 C936 0.950 . S
H929 C941 0.950 . S
H930 C938 0.950 . S
H931 C940 0.950 . S
H932 C942 0.950 . S
H933 C944 0.950 . S
H934 C946 0.950 . S
H935 C947 0.950 . S
C936 H928 0.950 . S
C936 C937 1.386 . S
C936 C938 1.391 . S
C937 C936 1.386 . S
C937 C941 1.393 . S
C938 H930 0.950 . S
C938 C936 1.391 . S
C938 C939 1.400 . S
C939 C938 1.400 . S
C939 C940 1.398 . S
C939 C945 1.491 . S
C940 H931 0.950 . S
C940 C939 1.398 . S
C940 C941 1.391 . S
C941 H929 0.950 . S
C941 C937 1.393 . S
C941 C940 1.391 . S
C942 H932 0.950 . S
C942 C943 1.386 . S
C942 C944 1.391 . S
C943 C942 1.386 . S
C943 C947 1.393 . S
C944 H933 0.950 . S
C944 C942 1.391 . S
C944 C945 1.400 . S
C945 C939 1.491 . S
C945 C944 1.400 . S
C945 C946 1.398 . S
C946 H934 0.950 . S
C946 C945 1.398 . S
C946 C947 1.391 . S
C947 H935 0.950 . S
C947 C943 1.393 . S
C947 C946 1.391 . S
H948 C956 0.950 . S
H949 C961 0.950 . S
H950 C958 0.950 . S
H951 C960 0.950 . S
H952 C962 0.950 . S
H953 C964 0.950 . S
H954 C966 0.950 . S
H955 C967 0.950 . S
C956 H948 0.950 . S
C956 C957 1.386 . S
C956 C958 1.391 1_655 S
C957 C956 1.386 . S
C957 C961 1.393 . S
C958 H950 0.950 . S
C958 C956 1.391 1_455 S
C958 C959 1.400 . S
C959 C958 1.400 . S
C959 C960 1.398 1_455 S
C959 C965 1.491 . S
C960 H951 0.950 . S
C960 C959 1.398 1_655 S
C960 C961 1.391 . S
C961 H949 0.950 . S
C961 C957 1.393 . S
C961 C960 1.391 . S
C962 H952 0.950 . S
C962 C963 1.386 . S
C962 C964 1.391 . S
C963 C962 1.386 . S
C963 C967 1.393 . S
C964 H953 0.950 . S
C964 C962 1.391 . S
C964 C965 1.400 . S
C965 C959 1.491 . S
C965 C964 1.400 . S
C965 C966 1.398 . S
C966 H954 0.950 . S
C966 C965 1.398 . S
C966 C967 1.391 . S
C967 H955 0.950 . S
C967 C963 1.393 . S
C967 C966 1.391 . S
H968 C976 0.950 . S
H969 C981 0.950 . S
H970 C978 0.950 . S
H971 C980 0.950 . S
H972 C982 0.950 . S
H973 C984 0.950 . S
H974 C986 0.950 . S
H975 C987 0.950 . S
C976 H968 0.950 . S
C976 C977 1.386 . S
C976 C978 1.391 . S
C977 C976 1.386 . S
C977 C981 1.393 . S
C978 H970 0.950 . S
C978 C976 1.391 . S
C978 C979 1.400 . S
C979 C978 1.400 . S
C979 C980 1.398 . S
C979 C985 1.491 . S
C980 H971 0.950 . S
C980 C979 1.398 . S
C980 C981 1.391 . S
C981 H969 0.950 . S
C981 C977 1.393 . S
C981 C980 1.391 . S
C982 H972 0.950 . S
C982 C983 1.386 . S
C982 C984 1.391 . S
C983 C982 1.386 . S
C983 C987 1.393 . S
C984 H973 0.950 . S
C984 C982 1.391 . S
C984 C985 1.400 . S
C985 C979 1.491 . S
C985 C984 1.400 . S
C985 C986 1.398 . S
C986 H974 0.950 . S
C986 C985 1.398 . S
C986 C987 1.391 . S
C987 H975 0.950 . S
C987 C983 1.393 . S
C987 C986 1.391 . S
H988 C996 0.950 . S
H989 C1001 0.950 . S
H990 C998 0.950 1_455 S
H991 C1000 0.950 . S
H992 C1002 0.950 . S
H993 C1004 0.950 . S
H994 C1006 0.950 . S
H995 C1007 0.950 . S
C996 H988 0.950 . S
C996 C997 1.386 . S
C996 C998 1.391 . S
C997 C996 1.386 . S
C997 C1001 1.393 . S
C998 H990 0.950 1_655 S
C998 C996 1.391 . S
C998 C999 1.400 . S
C999 C998 1.400 . S
C999 C1000 1.398 . S
C999 C1005 1.491 . S
C1000 H991 0.950 . S
C1000 C999 1.398 . S
C1000 C1001 1.391 . S
C1001 H989 0.950 . S
C1001 C997 1.393 . S
C1001 C1000 1.391 . S
C1002 H992 0.950 . S
C1002 C1003 1.386 1_655 S
C1002 C1004 1.391 . S
C1003 C1002 1.386 1_455 S
C1003 C1007 1.393 . S
C1004 H993 0.950 . S
C1004 C1002 1.391 . S
C1004 C1005 1.400 . S
C1005 C999 1.491 . S
C1005 C1004 1.400 . S
C1005 C1006 1.398 1_655 S
C1006 H994 0.950 . S
C1006 C1005 1.398 1_455 S
C1006 C1007 1.391 . S
C1007 H995 0.950 . S
C1007 C1003 1.393 . S
C1007 C1006 1.391 . S
H1008 C1016 0.950 . S
H1009 C1021 0.950 . S
H1010 C1018 0.950 . S
H1011 C1020 0.950 . S
H1012 C1022 0.950 . S
H1013 C1024 0.950 . S
H1014 C1026 0.950 . S
H1015 C1027 0.950 . S
C1016 H1008 0.950 . S
C1016 C1017 1.386 . S
C1016 C1018 1.391 . S
C1017 C1016 1.386 . S
C1017 C1021 1.393 . S
C1018 H1010 0.950 . S
C1018 C1016 1.391 . S
C1018 C1019 1.400 . S
C1019 C1018 1.400 . S
C1019 C1020 1.398 . S
C1019 C1025 1.491 . S
C1020 H1011 0.950 . S
C1020 C1019 1.398 . S
C1020 C1021 1.391 . S
C1021 H1009 0.950 . S
C1021 C1017 1.393 . S
C1021 C1020 1.391 . S
C1022 H1012 0.950 . S
C1022 C1023 1.386 . S
C1022 C1024 1.391 . S
C1023 C1022 1.386 . S
C1023 C1027 1.393 . S
C1024 H1013 0.950 . S
C1024 C1022 1.391 . S
C1024 C1025 1.400 . S
C1025 C1019 1.491 . S
C1025 C1024 1.400 . S
C1025 C1026 1.398 . S
C1026 H1014 0.950 . S
C1026 C1025 1.398 . S
C1026 C1027 1.391 . S
C1027 H1015 0.950 . S
C1027 C1023 1.393 . S
C1027 C1026 1.391 . S
H1028 C1036 0.950 . S
H1029 C1041 0.950 . S
H1030 C1038 0.950 . S
H1031 C1040 0.950 . S
H1032 C1042 0.950 . S
H1033 C1044 0.950 . S
H1034 C1046 0.950 . S
H1035 C1047 0.950 . S
C1036 H1028 0.950 . S
C1036 C1037 1.386 . S
C1036 C1038 1.391 . S
C1037 C1036 1.386 . S
C1037 C1041 1.393 . S
C1038 H1030 0.950 . S
C1038 C1036 1.391 . S
C1038 C1039 1.400 . S
C1039 C1038 1.400 . S
C1039 C1040 1.398 . S
C1039 C1045 1.491 . S
C1040 H1031 0.950 . S
C1040 C1039 1.398 . S
C1040 C1041 1.391 . S
C1041 H1029 0.950 . S
C1041 C1037 1.393 . S
C1041 C1040 1.391 . S
C1042 H1032 0.950 . S
C1042 C1043 1.386 . S
C1042 C1044 1.391 . S
C1043 C1042 1.386 . S
C1043 C1047 1.393 . S
C1044 H1033 0.950 . S
C1044 C1042 1.391 . S
C1044 C1045 1.400 . S
C1045 C1039 1.491 . S
C1045 C1044 1.400 . S
C1045 C1046 1.398 . S
C1046 H1034 0.950 . S
C1046 C1045 1.398 . S
C1046 C1047 1.391 . S
C1047 H1035 0.950 . S
C1047 C1043 1.393 . S
C1047 C1046 1.391 . S
H1048 C1056 0.950 . S
H1049 C1061 0.950 . S
H1050 C1058 0.950 . S
H1051 C1060 0.950 . S
H1052 C1062 0.950 . S
H1053 C1064 0.950 . S
H1054 C1066 0.950 . S
H1055 C1067 0.950 . S
C1056 H1048 0.950 . S
C1056 C1057 1.386 . S
C1056 C1058 1.391 . S
C1057 C1056 1.386 . S
C1057 C1061 1.393 . S
C1058 H1050 0.950 . S
C1058 C1056 1.391 . S
C1058 C1059 1.400 . S
C1059 C1058 1.400 . S
C1059 C1060 1.398 . S
C1059 C1065 1.491 . S
C1060 H1051 0.950 . S
C1060 C1059 1.398 . S
C1060 C1061 1.391 . S
C1061 H1049 0.950 . S
C1061 C1057 1.393 . S
C1061 C1060 1.391 . S
C1062 H1052 0.950 . S
C1062 C1063 1.386 . S
C1062 C1064 1.391 . S
C1063 C1062 1.386 . S
C1063 C1067 1.393 . S
C1064 H1053 0.950 . S
C1064 C1062 1.391 . S
C1064 C1065 1.400 . S
C1065 C1059 1.491 . S
C1065 C1064 1.400 . S
C1065 C1066 1.398 . S
C1066 H1054 0.950 . S
C1066 C1065 1.398 . S
C1066 C1067 1.391 . S
C1067 H1055 0.950 . S
C1067 C1063 1.393 . S
C1067 C1066 1.391 . S
H1068 C1076 0.950 . S
H1069 C1081 0.950 . S
H1070 C1078 0.950 . S
H1071 C1080 0.950 . S
H1072 C1082 0.950 . S
H1073 C1084 0.950 . S
H1074 C1086 0.950 . S
H1075 C1087 0.950 . S
C1076 H1068 0.950 . S
C1076 C1077 1.386 . S
C1076 C1078 1.391 . S
C1077 C1076 1.386 . S
C1077 C1081 1.393 . S
C1078 H1070 0.950 . S
C1078 C1076 1.391 . S
C1078 C1079 1.400 . S
C1079 C1078 1.400 . S
C1079 C1080 1.398 . S
C1079 C1085 1.491 . S
C1080 H1071 0.950 . S
C1080 C1079 1.398 . S
C1080 C1081 1.391 . S
C1081 H1069 0.950 . S
C1081 C1077 1.393 . S
C1081 C1080 1.391 . S
C1082 H1072 0.950 . S
C1082 C1083 1.386 . S
C1082 C1084 1.391 . S
C1083 C1082 1.386 . S
C1083 C1087 1.393 . S
C1084 H1073 0.950 . S
C1084 C1082 1.391 . S
C1084 C1085 1.400 . S
C1085 C1079 1.491 . S
C1085 C1084 1.400 . S
C1085 C1086 1.398 . S
C1086 H1074 0.950 . S
C1086 C1085 1.398 . S
C1086 C1087 1.391 . S
C1087 H1075 0.950 . S
C1087 C1083 1.393 . S
C1087 C1086 1.391 . S
H1088 C1096 0.950 . S
H1089 C1101 0.950 . S
H1090 C1098 0.950 . S
H1091 C1100 0.950 . S
H1092 C1102 0.950 . S
H1093 C1104 0.950 . S
H1094 C1106 0.950 . S
H1095 C1107 0.950 . S
C1096 H1088 0.950 . S
C1096 C1097 1.386 . S
C1096 C1098 1.391 . S
C1097 C1096 1.386 . S
C1097 C1101 1.393 . S
C1098 H1090 0.950 . S
C1098 C1096 1.391 . S
C1098 C1099 1.400 . S
C1099 C1098 1.400 . S
C1099 C1100 1.398 . S
C1099 C1105 1.491 . S
C1100 H1091 0.950 . S
C1100 C1099 1.398 . S
C1100 C1101 1.391 . S
C1101 H1089 0.950 . S
C1101 C1097 1.393 . S
C1101 C1100 1.391 . S
C1102 H1092 0.950 . S
C1102 C1103 1.386 . S
C1102 C1104 1.391 . S
C1103 C1102 1.386 . S
C1103 C1107 1.393 . S
C1104 H1093 0.950 . S
C1104 C1102 1.391 . S
C1104 C1105 1.400 . S
C1105 C1099 1.491 . S
C1105 C1104 1.400 . S
C1105 C1106 1.398 . S
C1106 H1094 0.950 . S
C1106 C1105 1.398 . S
C1106 C1107 1.391 . S
C1107 H1095 0.950 . S
C1107 C1103 1.393 . S
C1107 C1106 1.391 . S
H1108 C1116 0.950 . S
H1109 C1121 0.950 . S
H1110 C1118 0.950 . S
H1111 C1120 0.950 . S
H1112 C1122 0.950 . S
H1113 C1124 0.950 . S
H1114 C1126 0.950 . S
H1115 C1127 0.950 . S
C1116 H1108 0.950 . S
C1116 C1117 1.386 . S
C1116 C1118 1.391 . S
C1117 C1116 1.386 . S
C1117 C1121 1.393 . S
C1118 H1110 0.950 . S
C1118 C1116 1.391 . S
C1118 C1119 1.400 . S
C1119 C1118 1.400 . S
C1119 C1120 1.398 . S
C1119 C1125 1.491 . S
C1120 H1111 0.950 . S
C1120 C1119 1.398 . S
C1120 C1121 1.391 . S
C1121 H1109 0.950 . S
C1121 C1117 1.393 . S
C1121 C1120 1.391 . S
C1122 H1112 0.950 . S
C1122 C1123 1.386 . S
C1122 C1124 1.391 . S
C1123 C1122 1.386 . S
C1123 C1127 1.393 . S
C1124 H1113 0.950 . S
C1124 C1122 1.391 . S
C1124 C1125 1.400 . S
C1125 C1119 1.491 . S
C1125 C1124 1.400 . S
C1125 C1126 1.398 . S
C1126 H1114 0.950 . S
C1126 C1125 1.398 . S
C1126 C1127 1.391 . S
C1127 H1115 0.950 . S
C1127 C1123 1.393 . S
C1127 C1126 1.391 . S
H1128 C1136 0.950 . S
H1129 C1141 0.950 . S
H1130 C1138 0.950 . S
H1131 C1140 0.950 . S
H1132 C1142 0.950 . S
H1133 C1144 0.950 . S
H1134 C1146 0.950 . S
H1135 C1147 0.950 . S
C1136 H1128 0.950 . S
C1136 C1137 1.386 . S
C1136 C1138 1.391 . S
C1137 C1136 1.386 . S
C1137 C1141 1.393 . S
C1138 H1130 0.950 . S
C1138 C1136 1.391 . S
C1138 C1139 1.400 . S
C1139 C1138 1.400 . S
C1139 C1140 1.398 . S
C1139 C1145 1.491 . S
C1140 H1131 0.950 . S
C1140 C1139 1.398 . S
C1140 C1141 1.391 . S
C1141 H1129 0.950 . S
C1141 C1137 1.393 . S
C1141 C1140 1.391 . S
C1142 H1132 0.950 . S
C1142 C1143 1.386 . S
C1142 C1144 1.391 . S
C1143 C1142 1.386 . S
C1143 C1147 1.393 . S
C1144 H1133 0.950 . S
C1144 C1142 1.391 . S
C1144 C1145 1.400 . S
C1145 C1139 1.491 . S
C1145 C1144 1.400 . S
C1145 C1146 1.398 . S
C1146 H1134 0.950 . S
C1146 C1145 1.398 . S
C1146 C1147 1.391 . S
C1147 H1135 0.950 . S
C1147 C1143 1.393 . S
C1147 C1146 1.391 . S
H1148 C1156 0.950 . S
H1149 C1161 0.950 . S
H1150 C1158 0.950 . S
H1151 C1160 0.950 . S
H1152 C1162 0.950 . S
H1153 C1164 0.950 . S
H1154 C1166 0.950 . S
H1155 C1167 0.950 . S
C1156 H1148 0.950 . S
C1156 C1157 1.386 . S
C1156 C1158 1.391 . S
C1157 C1156 1.386 . S
C1157 C1161 1.393 . S
C1158 H1150 0.950 . S
C1158 C1156 1.391 . S
C1158 C1159 1.400 . S
C1159 C1158 1.400 . S
C1159 C1160 1.398 . S
C1159 C1165 1.491 . S
C1160 H1151 0.950 . S
C1160 C1159 1.398 . S
C1160 C1161 1.391 . S
C1161 H1149 0.950 . S
C1161 C1157 1.393 . S
C1161 C1160 1.391 . S
C1162 H1152 0.950 . S
C1162 C1163 1.386 . S
C1162 C1164 1.391 . S
C1163 C1162 1.386 . S
C1163 C1167 1.393 . S
C1164 H1153 0.950 . S
C1164 C1162 1.391 . S
C1164 C1165 1.400 . S
C1165 C1159 1.491 . S
C1165 C1164 1.400 . S
C1165 C1166 1.398 . S
C1166 H1154 0.950 . S
C1166 C1165 1.398 . S
C1166 C1167 1.391 . S
C1167 H1155 0.950 . S
C1167 C1163 1.393 . S
C1167 C1166 1.391 . S
H1168 C1176 0.950 . S
H1169 C1181 0.950 . S
H1170 C1178 0.950 . S
H1171 C1180 0.950 . S
H1172 C1182 0.950 . S
H1173 C1184 0.950 . S
H1174 C1186 0.950 . S
H1175 C1187 0.950 . S
C1176 H1168 0.950 . S
C1176 C1177 1.386 . S
C1176 C1178 1.391 . S
C1177 C1176 1.386 . S
C1177 C1181 1.393 . S
C1178 H1170 0.950 . S
C1178 C1176 1.391 . S
C1178 C1179 1.400 . S
C1179 C1178 1.400 . S
C1179 C1180 1.398 . S
C1179 C1185 1.491 . S
C1180 H1171 0.950 . S
C1180 C1179 1.398 . S
C1180 C1181 1.391 . S
C1181 H1169 0.950 . S
C1181 C1177 1.393 . S
C1181 C1180 1.391 . S
C1182 H1172 0.950 . S
C1182 C1183 1.386 . S
C1182 C1184 1.391 . S
C1183 C1182 1.386 . S
C1183 C1187 1.393 . S
C1184 H1173 0.950 . S
C1184 C1182 1.391 . S
C1184 C1185 1.400 . S
C1185 C1179 1.491 . S
C1185 C1184 1.400 . S
C1185 C1186 1.398 . S
C1186 H1174 0.950 . S
C1186 C1185 1.398 . S
C1186 C1187 1.391 . S
C1187 H1175 0.950 . S
C1187 C1183 1.393 . S
C1187 C1186 1.391 . S
H1188 C1196 0.950 . S
H1189 C1201 0.950 . S
H1190 C1198 0.950 . S
H1191 C1200 0.950 . S
H1192 C1202 0.950 . S
H1193 C1204 0.950 . S
H1194 C1206 0.950 . S
H1195 C1207 0.950 . S
C1196 H1188 0.950 . S
C1196 C1197 1.386 . S
C1196 C1198 1.391 . S
C1197 C1196 1.386 . S
C1197 C1201 1.393 . S
C1198 H1190 0.950 . S
C1198 C1196 1.391 . S
C1198 C1199 1.400 . S
C1199 C1198 1.400 . S
C1199 C1200 1.398 . S
C1199 C1205 1.491 . S
C1200 H1191 0.950 . S
C1200 C1199 1.398 . S
C1200 C1201 1.391 . S
C1201 H1189 0.950 . S
C1201 C1197 1.393 . S
C1201 C1200 1.391 . S
C1202 H1192 0.950 . S
C1202 C1203 1.386 . S
C1202 C1204 1.391 . S
C1203 C1202 1.386 . S
C1203 C1207 1.393 . S
C1204 H1193 0.950 . S
C1204 C1202 1.391 . S
C1204 C1205 1.400 . S
C1205 C1199 1.491 . S
C1205 C1204 1.400 . S
C1205 C1206 1.398 . S
C1206 H1194 0.950 . S
C1206 C1205 1.398 . S
C1206 C1207 1.391 . S
C1207 H1195 0.950 . S
C1207 C1203 1.393 . S
C1207 C1206 1.391 . S
H1208 C1216 0.950 . S
H1209 C1221 0.950 . S
H1210 C1218 0.950 . S
H1211 C1220 0.950 . S
H1212 C1222 0.950 . S
H1213 C1224 0.950 . S
H1214 C1226 0.950 . S
H1215 C1227 0.950 . S
C1216 H1208 0.950 . S
C1216 C1217 1.386 . S
C1216 C1218 1.391 . S
C1217 C1216 1.386 . S
C1217 C1221 1.393 . S
C1218 H1210 0.950 . S
C1218 C1216 1.391 . S
C1218 C1219 1.400 . S
C1219 C1218 1.400 . S
C1219 C1220 1.398 . S
C1219 C1225 1.491 . S
C1220 H1211 0.950 . S
C1220 C1219 1.398 . S
C1220 C1221 1.391 . S
C1221 H1209 0.950 . S
C1221 C1217 1.393 . S
C1221 C1220 1.391 . S
C1222 H1212 0.950 . S
C1222 C1223 1.386 . S
C1222 C1224 1.391 . S
C1223 C1222 1.386 . S
C1223 C1227 1.393 . S
C1224 H1213 0.950 . S
C1224 C1222 1.391 . S
C1224 C1225 1.400 . S
C1225 C1219 1.491 . S
C1225 C1224 1.400 . S
C1225 C1226 1.398 . S
C1226 H1214 0.950 . S
C1226 C1225 1.398 . S
C1226 C1227 1.391 . S
C1227 H1215 0.950 . S
C1227 C1223 1.393 . S
C1227 C1226 1.391 . S
H1228 C1236 0.950 . S
H1229 C1241 0.950 . S
H1230 C1238 0.950 . S
H1231 C1240 0.950 . S
H1232 C1242 0.950 . S
H1233 C1244 0.950 . S
H1234 C1246 0.950 . S
H1235 C1247 0.950 . S
C1236 H1228 0.950 . S
C1236 C1237 1.386 . S
C1236 C1238 1.391 . S
C1237 C1236 1.386 . S
C1237 C1241 1.393 . S
C1238 H1230 0.950 . S
C1238 C1236 1.391 . S
C1238 C1239 1.400 . S
C1239 C1238 1.400 . S
C1239 C1240 1.398 . S
C1239 C1245 1.491 . S
C1240 H1231 0.950 . S
C1240 C1239 1.398 . S
C1240 C1241 1.391 . S
C1241 H1229 0.950 . S
C1241 C1237 1.393 . S
C1241 C1240 1.391 . S
C1242 H1232 0.950 . S
C1242 C1243 1.386 . S
C1242 C1244 1.391 . S
C1243 C1242 1.386 . S
C1243 C1247 1.393 . S
C1244 H1233 0.950 . S
C1244 C1242 1.391 . S
C1244 C1245 1.400 . S
C1245 C1239 1.491 . S
C1245 C1244 1.400 . S
C1245 C1246 1.398 . S
C1246 H1234 0.950 . S
C1246 C1245 1.398 . S
C1246 C1247 1.391 . S
C1247 H1235 0.950 . S
C1247 C1243 1.393 . S
C1247 C1246 1.391 . S
H1248 C1256 0.950 . S
H1249 C1261 0.950 . S
H1250 C1258 0.950 . S
H1251 C1260 0.950 . S
H1252 C1262 0.950 . S
H1253 C1264 0.950 . S
H1254 C1266 0.950 . S
H1255 C1267 0.950 . S
C1256 H1248 0.950 . S
C1256 C1257 1.386 . S
C1256 C1258 1.391 . S
C1257 C1256 1.386 . S
C1257 C1261 1.393 . S
C1258 H1250 0.950 . S
C1258 C1256 1.391 . S
C1258 C1259 1.400 . S
C1259 C1258 1.400 . S
C1259 C1260 1.398 . S
C1259 C1265 1.491 . S
C1260 H1251 0.950 . S
C1260 C1259 1.398 . S
C1260 C1261 1.391 . S
C1261 H1249 0.950 . S
C1261 C1257 1.393 . S
C1261 C1260 1.391 . S
C1262 H1252 0.950 . S
C1262 C1263 1.386 . S
C1262 C1264 1.391 . S
C1263 C1262 1.386 . S
C1263 C1267 1.393 . S
C1264 H1253 0.950 . S
C1264 C1262 1.391 . S
C1264 C1265 1.400 . S
C1265 C1259 1.491 . S
C1265 C1264 1.400 . S
C1265 C1266 1.398 . S
C1266 H1254 0.950 . S
C1266 C1265 1.398 . S
C1266 C1267 1.391 . S
C1267 H1255 0.950 . S
C1267 C1263 1.393 . S
C1267 C1266 1.391 . S
H1268 C1276 0.950 . S
H1269 C1281 0.950 . S
H1270 C1278 0.950 . S
H1271 C1280 0.950 . S
H1272 C1282 0.950 . S
H1273 C1284 0.950 . S
H1274 C1286 0.950 . S
H1275 C1287 0.950 . S
C1276 H1268 0.950 . S
C1276 C1277 1.386 . S
C1276 C1278 1.391 . S
C1277 C1276 1.386 . S
C1277 C1281 1.393 . S
C1278 H1270 0.950 . S
C1278 C1276 1.391 . S
C1278 C1279 1.400 . S
C1279 C1278 1.400 . S
C1279 C1280 1.398 . S
C1279 C1285 1.491 . S
C1280 H1271 0.950 . S
C1280 C1279 1.398 . S
C1280 C1281 1.391 . S
C1281 H1269 0.950 . S
C1281 C1277 1.393 . S
C1281 C1280 1.391 . S
C1282 H1272 0.950 . S
C1282 C1283 1.386 . S
C1282 C1284 1.391 . S
C1283 C1282 1.386 . S
C1283 C1287 1.393 . S
C1284 H1273 0.950 . S
C1284 C1282 1.391 . S
C1284 C1285 1.400 . S
C1285 C1279 1.491 . S
C1285 C1284 1.400 . S
C1285 C1286 1.398 . S
C1286 H1274 0.950 . S
C1286 C1285 1.398 . S
C1286 C1287 1.391 . S
C1287 H1275 0.950 . S
C1287 C1283 1.393 . S
C1287 C1286 1.391 . S
H1288 C1296 0.950 . S
H1289 C1301 0.950 . S
H1290 C1298 0.950 . S
H1291 C1300 0.950 . S
H1292 C1302 0.950 . S
H1293 C1304 0.950 . S
H1294 C1306 0.950 . S
H1295 C1307 0.950 . S
C1296 H1288 0.950 . S
C1296 C1297 1.386 . S
C1296 C1298 1.391 . S
C1297 C1296 1.386 . S
C1297 C1301 1.393 . S
C1298 H1290 0.950 . S
C1298 C1296 1.391 . S
C1298 C1299 1.400 . S
C1299 C1298 1.400 . S
C1299 C1300 1.398 . S
C1299 C1305 1.491 . S
C1300 H1291 0.950 . S
C1300 C1299 1.398 . S
C1300 C1301 1.391 . S
C1301 H1289 0.950 . S
C1301 C1297 1.393 . S
C1301 C1300 1.391 . S
C1302 H1292 0.950 . S
C1302 C1303 1.386 . S
C1302 C1304 1.391 . S
C1303 C1302 1.386 . S
C1303 C1307 1.393 . S
C1304 H1293 0.950 . S
C1304 C1302 1.391 . S
C1304 C1305 1.400 . S
C1305 C1299 1.491 . S
C1305 C1304 1.400 . S
C1305 C1306 1.398 . S
C1306 H1294 0.950 . S
C1306 C1305 1.398 . S
C1306 C1307 1.391 . S
C1307 H1295 0.950 . S
C1307 C1303 1.393 . S
C1307 C1306 1.391 . S
H1308 C1316 0.950 . S
H1309 C1321 0.950 . S
H1310 C1318 0.950 . S
H1311 C1320 0.950 . S
H1312 C1322 0.950 . S
H1313 C1324 0.950 . S
H1314 C1326 0.950 . S
H1315 C1327 0.950 . S
C1316 H1308 0.950 . S
C1316 C1317 1.386 . S
C1316 C1318 1.391 . S
C1317 C1316 1.386 . S
C1317 C1321 1.393 . S
C1318 H1310 0.950 . S
C1318 C1316 1.391 . S
C1318 C1319 1.400 . S
C1319 C1318 1.400 . S
C1319 C1320 1.398 . S
C1319 C1325 1.491 . S
C1320 H1311 0.950 . S
C1320 C1319 1.398 . S
C1320 C1321 1.391 . S
C1321 H1309 0.950 . S
C1321 C1317 1.393 . S
C1321 C1320 1.391 . S
C1322 H1312 0.950 . S
C1322 C1323 1.386 . S
C1322 C1324 1.391 . S
C1323 C1322 1.386 . S
C1323 C1327 1.393 . S
C1324 H1313 0.950 . S
C1324 C1322 1.391 . S
C1324 C1325 1.400 . S
C1325 C1319 1.491 . S
C1325 C1324 1.400 . S
C1325 C1326 1.398 . S
C1326 H1314 0.950 . S
C1326 C1325 1.398 . S
C1326 C1327 1.391 . S
C1327 H1315 0.950 . S
C1327 C1323 1.393 . S
C1327 C1326 1.391 . S
H1328 C1336 0.950 . S
H1329 C1341 0.950 . S
H1330 C1338 0.950 . S
H1331 C1340 0.950 . S
H1332 C1342 0.950 . S
H1333 C1344 0.950 . S
H1334 C1346 0.950 . S
H1335 C1347 0.950 . S
C1336 H1328 0.950 . S
C1336 C1337 1.386 . S
C1336 C1338 1.391 . S
C1337 C1336 1.386 . S
C1337 C1341 1.393 . S
C1338 H1330 0.950 . S
C1338 C1336 1.391 . S
C1338 C1339 1.400 . S
C1339 C1338 1.400 . S
C1339 C1340 1.398 . S
C1339 C1345 1.491 . S
C1340 H1331 0.950 . S
C1340 C1339 1.398 . S
C1340 C1341 1.391 . S
C1341 H1329 0.950 . S
C1341 C1337 1.393 . S
C1341 C1340 1.391 . S
C1342 H1332 0.950 . S
C1342 C1343 1.386 . S
C1342 C1344 1.391 . S
C1343 C1342 1.386 . S
C1343 C1347 1.393 . S
C1344 H1333 0.950 . S
C1344 C1342 1.391 . S
C1344 C1345 1.400 . S
C1345 C1339 1.491 . S
C1345 C1344 1.400 . S
C1345 C1346 1.398 . S
C1346 H1334 0.950 . S
C1346 C1345 1.398 . S
C1346 C1347 1.391 . S
C1347 H1335 0.950 . S
C1347 C1343 1.393 . S
C1347 C1346 1.391 . S
H1348 C1356 0.950 . S
H1349 C1361 0.950 . S
H1350 C1358 0.950 . S
H1351 C1360 0.950 . S
H1352 C1362 0.950 . S
H1353 C1364 0.950 . S
H1354 C1366 0.950 . S
H1355 C1367 0.950 . S
C1356 H1348 0.950 . S
C1356 C1357 1.386 . S
C1356 C1358 1.391 . S
C1357 C1356 1.386 . S
C1357 C1361 1.393 . S
C1358 H1350 0.950 . S
C1358 C1356 1.391 . S
C1358 C1359 1.400 . S
C1359 C1358 1.400 . S
C1359 C1360 1.398 . S
C1359 C1365 1.491 . S
C1360 H1351 0.950 . S
C1360 C1359 1.398 . S
C1360 C1361 1.391 . S
C1361 H1349 0.950 . S
C1361 C1357 1.393 . S
C1361 C1360 1.391 . S
C1362 H1352 0.950 . S
C1362 C1363 1.386 . S
C1362 C1364 1.391 . S
C1363 C1362 1.386 . S
C1363 C1367 1.393 . S
C1364 H1353 0.950 . S
C1364 C1362 1.391 . S
C1364 C1365 1.400 . S
C1365 C1359 1.491 . S
C1365 C1364 1.400 . S
C1365 C1366 1.398 . S
C1366 H1354 0.950 . S
C1366 C1365 1.398 . S
C1366 C1367 1.391 . S
C1367 H1355 0.950 . S
C1367 C1363 1.393 . S
C1367 C1366 1.391 . S
H1368 C1376 0.950 . S
H1369 C1381 0.950 . S
H1370 C1378 0.950 . S
H1371 C1380 0.950 . S
H1372 C1382 0.950 . S
H1373 C1384 0.950 . S
H1374 C1386 0.950 . S
H1375 C1387 0.950 . S
C1376 H1368 0.950 . S
C1376 C1377 1.386 . S
C1376 C1378 1.391 . S
C1377 C1376 1.386 . S
C1377 C1381 1.393 . S
C1378 H1370 0.950 . S
C1378 C1376 1.391 . S
C1378 C1379 1.400 . S
C1379 C1378 1.400 . S
C1379 C1380 1.398 . S
C1379 C1385 1.491 . S
C1380 H1371 0.950 . S
C1380 C1379 1.398 . S
C1380 C1381 1.391 . S
C1381 H1369 0.950 . S
C1381 C1377 1.393 . S
C1381 C1380 1.391 . S
C1382 H1372 0.950 . S
C1382 C1383 1.386 . S
C1382 C1384 1.391 . S
C1383 C1382 1.386 . S
C1383 C1387 1.393 . S
C1384 H1373 0.950 . S
C1384 C1382 1.391 . S
C1384 C1385 1.400 . S
C1385 C1379 1.491 . S
C1385 C1384 1.400 . S
C1385 C1386 1.398 . S
C1386 H1374 0.950 . S
C1386 C1385 1.398 . S
C1386 C1387 1.391 . S
C1387 H1375 0.950 . S
C1387 C1383 1.393 . S
C1387 C1386 1.391 . S
H1388 C1396 0.950 . S
H1389 C1401 0.950 . S
H1390 C1398 0.950 . S
H1391 C1400 0.950 . S
H1392 C1402 0.950 . S
H1393 C1404 0.950 . S
H1394 C1406 0.950 . S
H1395 C1407 0.950 . S
C1396 H1388 0.950 . S
C1396 C1397 1.386 . S
C1396 C1398 1.391 . S
C1397 C1396 1.386 . S
C1397 C1401 1.393 . S
C1398 H1390 0.950 . S
C1398 C1396 1.391 . S
C1398 C1399 1.400 . S
C1399 C1398 1.400 . S
C1399 C1400 1.398 . S
C1399 C1405 1.491 . S
C1400 H1391 0.950 . S
C1400 C1399 1.398 . S
C1400 C1401 1.391 . S
C1401 H1389 0.950 . S
C1401 C1397 1.393 . S
C1401 C1400 1.391 . S
C1402 H1392 0.950 . S
C1402 C1403 1.386 . S
C1402 C1404 1.391 . S
C1403 C1402 1.386 . S
C1403 C1407 1.393 . S
C1404 H1393 0.950 . S
C1404 C1402 1.391 . S
C1404 C1405 1.400 . S
C1405 C1399 1.491 . S
C1405 C1404 1.400 . S
C1405 C1406 1.398 . S
C1406 H1394 0.950 . S
C1406 C1405 1.398 . S
C1406 C1407 1.391 . S
C1407 H1395 0.950 . S
C1407 C1403 1.393 . S
C1407 C1406 1.391 . S
H1408 C1416 0.950 . S
H1409 C1421 0.950 . S
H1410 C1418 0.950 . S
H1411 C1420 0.950 . S
H1412 C1422 0.950 . S
H1413 C1424 0.950 . S
H1414 C1426 0.950 . S
H1415 C1427 0.950 . S
C1416 H1408 0.950 . S
C1416 C1417 1.386 . S
C1416 C1418 1.391 . S
C1417 C1416 1.386 . S
C1417 C1421 1.393 . S
C1418 H1410 0.950 . S
C1418 C1416 1.391 . S
C1418 C1419 1.400 . S
C1419 C1418 1.400 . S
C1419 C1420 1.398 . S
C1419 C1425 1.491 . S
C1420 H1411 0.950 . S
C1420 C1419 1.398 . S
C1420 C1421 1.391 . S
C1421 H1409 0.950 . S
C1421 C1417 1.393 . S
C1421 C1420 1.391 . S
C1422 H1412 0.950 . S
C1422 C1423 1.386 . S
C1422 C1424 1.391 . S
C1423 C1422 1.386 . S
C1423 C1427 1.393 . S
C1424 H1413 0.950 . S
C1424 C1422 1.391 . S
C1424 C1425 1.400 . S
C1425 C1419 1.491 . S
C1425 C1424 1.400 . S
C1425 C1426 1.398 . S
C1426 H1414 0.950 . S
C1426 C1425 1.398 . S
C1426 C1427 1.391 . S
C1427 H1415 0.950 . S
C1427 C1423 1.393 . S
C1427 C1426 1.391 . S
H1428 C1436 0.950 . S
H1429 C1441 0.950 . S
H1430 C1438 0.950 . S
H1431 C1440 0.950 . S
H1432 C1442 0.950 . S
H1433 C1444 0.950 . S
H1434 C1446 0.950 . S
H1435 C1447 0.950 . S
C1436 H1428 0.950 . S
C1436 C1437 1.386 . S
C1436 C1438 1.391 . S
C1437 C1436 1.386 . S
C1437 C1441 1.393 . S
C1438 H1430 0.950 . S
C1438 C1436 1.391 . S
C1438 C1439 1.400 . S
C1439 C1438 1.400 . S
C1439 C1440 1.398 . S
C1439 C1445 1.491 . S
C1440 H1431 0.950 . S
C1440 C1439 1.398 . S
C1440 C1441 1.391 . S
C1441 H1429 0.950 . S
C1441 C1437 1.393 . S
C1441 C1440 1.391 . S
C1442 H1432 0.950 . S
C1442 C1443 1.386 . S
C1442 C1444 1.391 . S
C1443 C1442 1.386 . S
C1443 C1447 1.393 . S
C1444 H1433 0.950 . S
C1444 C1442 1.391 . S
C1444 C1445 1.400 . S
C1445 C1439 1.491 . S
C1445 C1444 1.400 . S
C1445 C1446 1.398 . S
C1446 H1434 0.950 . S
C1446 C1445 1.398 . S
C1446 C1447 1.391 . S
C1447 H1435 0.950 . S
C1447 C1443 1.393 . S
C1447 C1446 1.391 . S
H1448 C1456 0.950 . S
H1449 C1461 0.950 . S
H1450 C1458 0.950 . S
H1451 C1460 0.950 . S
H1452 C1462 0.950 . S
H1453 C1464 0.950 . S
H1454 C1466 0.950 . S
H1455 C1467 0.950 . S
C1456 H1448 0.950 . S
C1456 C1457 1.386 . S
C1456 C1458 1.391 . S
C1457 C1456 1.386 . S
C1457 C1461 1.393 . S
C1458 H1450 0.950 . S
C1458 C1456 1.391 . S
C1458 C1459 1.400 . S
C1459 C1458 1.400 . S
C1459 C1460 1.398 . S
C1459 C1465 1.491 . S
C1460 H1451 0.950 . S
C1460 C1459 1.398 . S
C1460 C1461 1.391 . S
C1461 H1449 0.950 . S
C1461 C1457 1.393 . S
C1461 C1460 1.391 . S
C1462 H1452 0.950 . S
C1462 C1463 1.386 . S
C1462 C1464 1.391 . S
C1463 C1462 1.386 . S
C1463 C1467 1.393 . S
C1464 H1453 0.950 . S
C1464 C1462 1.391 . S
C1464 C1465 1.400 . S
C1465 C1459 1.491 . S
C1465 C1464 1.400 . S
C1465 C1466 1.398 . S
C1466 H1454 0.950 . S
C1466 C1465 1.398 . S
C1466 C1467 1.391 . S
C1467 H1455 0.950 . S
C1467 C1463 1.393 . S
C1467 C1466 1.391 . S
H1468 C1476 0.950 . S
H1469 C1481 0.950 . S
H1470 C1478 0.950 . S
H1471 C1480 0.950 . S
H1472 C1482 0.950 . S
H1473 C1484 0.950 . S
H1474 C1486 0.950 . S
H1475 C1487 0.950 . S
C1476 H1468 0.950 . S
C1476 C1477 1.386 . S
C1476 C1478 1.391 . S
C1477 C1476 1.386 . S
C1477 C1481 1.393 . S
C1478 H1470 0.950 . S
C1478 C1476 1.391 . S
C1478 C1479 1.400 . S
C1479 C1478 1.400 . S
C1479 C1480 1.398 . S
C1479 C1485 1.491 . S
C1480 H1471 0.950 . S
C1480 C1479 1.398 . S
C1480 C1481 1.391 . S
C1481 H1469 0.950 . S
C1481 C1477 1.393 . S
C1481 C1480 1.391 . S
C1482 H1472 0.950 . S
C1482 C1483 1.386 . S
C1482 C1484 1.391 . S
C1483 C1482 1.386 . S
C1483 C1487 1.393 . S
C1484 H1473 0.950 . S
C1484 C1482 1.391 . S
C1484 C1485 1.400 . S
C1485 C1479 1.491 . S
C1485 C1484 1.400 . S
C1485 C1486 1.398 . S
C1486 H1474 0.950 . S
C1486 C1485 1.398 . S
C1486 C1487 1.391 . S
C1487 H1475 0.950 . S
C1487 C1483 1.393 . S
C1487 C1486 1.391 . S
H1488 C1496 0.950 . S
H1489 C1501 0.950 . S
H1490 C1498 0.950 . S
H1491 C1500 0.950 . S
H1492 C1502 0.950 . S
H1493 C1504 0.950 . S
H1494 C1506 0.950 . S
H1495 C1507 0.950 1_455 S
C1496 H1488 0.950 . S
C1496 C1497 1.386 . S
C1496 C1498 1.391 . S
C1497 C1496 1.386 . S
C1497 C1501 1.393 1_455 S
C1498 H1490 0.950 . S
C1498 C1496 1.391 . S
C1498 C1499 1.400 . S
C1499 C1498 1.400 . S
C1499 C1500 1.398 1_455 S
C1499 C1505 1.491 1_455 S
C1500 H1491 0.950 . S
C1500 C1499 1.398 1_655 S
C1500 C1501 1.391 . S
C1501 H1489 0.950 . S
C1501 C1497 1.393 1_655 S
C1501 C1500 1.391 . S
C1502 H1492 0.950 . S
C1502 C1503 1.386 . S
C1502 C1504 1.391 . S
C1503 C1502 1.386 . S
C1503 C1507 1.393 . S
C1504 H1493 0.950 . S
C1504 C1502 1.391 . S
C1504 C1505 1.400 . S
C1505 C1499 1.491 1_655 S
C1505 C1504 1.400 . S
C1505 C1506 1.398 1_655 S
C1506 H1494 0.950 . S
C1506 C1505 1.398 1_455 S
C1506 C1507 1.391 1_455 S
C1507 H1495 0.950 1_655 S
C1507 C1503 1.393 . S
C1507 C1506 1.391 1_655 S
H1508 C1516 0.950 . S
H1509 C1521 0.950 . S
H1510 C1518 0.950 . S
H1511 C1520 0.950 . S
H1512 C1522 0.950 . S
H1513 C1524 0.950 . S
H1514 C1526 0.950 . S
H1515 C1527 0.950 . S
C1516 H1508 0.950 . S
C1516 C1517 1.386 . S
C1516 C1518 1.391 . S
C1517 C1516 1.386 . S
C1517 C1521 1.393 . S
C1518 H1510 0.950 . S
C1518 C1516 1.391 . S
C1518 C1519 1.400 . S
C1519 C1518 1.400 . S
C1519 C1520 1.398 . S
C1519 C1525 1.491 . S
C1520 H1511 0.950 . S
C1520 C1519 1.398 . S
C1520 C1521 1.391 . S
C1521 H1509 0.950 . S
C1521 C1517 1.393 . S
C1521 C1520 1.391 . S
C1522 H1512 0.950 . S
C1522 C1523 1.386 . S
C1522 C1524 1.391 . S
C1523 C1522 1.386 . S
C1523 C1527 1.393 . S
C1524 H1513 0.950 . S
C1524 C1522 1.391 . S
C1524 C1525 1.400 . S
C1525 C1519 1.491 . S
C1525 C1524 1.400 . S
C1525 C1526 1.398 . S
C1526 H1514 0.950 . S
C1526 C1525 1.398 . S
C1526 C1527 1.391 . S
C1527 H1515 0.950 . S
C1527 C1523 1.393 . S
C1527 C1526 1.391 . S
H1528 C1536 0.950 . S
H1529 C1541 0.950 . S
H1530 C1538 0.950 . S
H1531 C1540 0.950 . S
H1532 C1542 0.950 . S
H1533 C1544 0.950 . S
H1534 C1546 0.950 . S
H1535 C1547 0.950 . S
C1536 H1528 0.950 . S
C1536 C1537 1.386 . S
C1536 C1538 1.391 . S
C1537 C1536 1.386 . S
C1537 C1541 1.393 . S
C1538 H1530 0.950 . S
C1538 C1536 1.391 . S
C1538 C1539 1.400 . S
C1539 C1538 1.400 . S
C1539 C1540 1.398 . S
C1539 C1545 1.491 . S
C1540 H1531 0.950 . S
C1540 C1539 1.398 . S
C1540 C1541 1.391 . S
C1541 H1529 0.950 . S
C1541 C1537 1.393 . S
C1541 C1540 1.391 . S
C1542 H1532 0.950 . S
C1542 C1543 1.386 . S
C1542 C1544 1.391 . S
C1543 C1542 1.386 . S
C1543 C1547 1.393 . S
C1544 H1533 0.950 . S
C1544 C1542 1.391 . S
C1544 C1545 1.400 . S
C1545 C1539 1.491 . S
C1545 C1544 1.400 . S
C1545 C1546 1.398 . S
C1546 H1534 0.950 . S
C1546 C1545 1.398 . S
C1546 C1547 1.391 . S
C1547 H1535 0.950 . S
C1547 C1543 1.393 . S
C1547 C1546 1.391 . S
H1548 C1556 0.950 . S
H1549 C1561 0.950 . S
H1550 C1558 0.950 1_655 S
H1551 C1560 0.950 . S
H1552 C1562 0.950 . S
H1553 C1564 0.950 . S
H1554 C1566 0.950 . S
H1555 C1567 0.950 . S
C1556 H1548 0.950 . S
C1556 C1557 1.386 . S
C1556 C1558 1.391 . S
C1557 C1556 1.386 . S
C1557 C1561 1.393 . S
C1558 H1550 0.950 1_455 S
C1558 C1556 1.391 . S
C1558 C1559 1.400 . S
C1559 C1558 1.400 . S
C1559 C1560 1.398 . S
C1559 C1565 1.491 1_455 S
C1560 H1551 0.950 . S
C1560 C1559 1.398 . S
C1560 C1561 1.391 . S
C1561 H1549 0.950 . S
C1561 C1557 1.393 . S
C1561 C1560 1.391 . S
C1562 H1552 0.950 . S
C1562 C1563 1.386 . S
C1562 C1564 1.391 1_655 S
C1563 C1562 1.386 . S
C1563 C1567 1.393 . S
C1564 H1553 0.950 . S
C1564 C1562 1.391 1_455 S
C1564 C1565 1.400 1_455 S
C1565 C1559 1.491 1_655 S
C1565 C1564 1.400 1_655 S
C1565 C1566 1.398 . S
C1566 H1554 0.950 . S
C1566 C1565 1.398 . S
C1566 C1567 1.391 . S
C1567 H1555 0.950 . S
C1567 C1563 1.393 . S
C1567 C1566 1.391 . S
H1568 C1576 0.950 1_565 S
H1569 C1581 0.950 . S
H1570 C1578 0.950 . S
H1571 C1580 0.950 . S
H1572 C1582 0.950 1_545 S
H1573 C1584 0.950 . S
H1574 C1586 0.950 . S
H1575 C1587 0.950 . S
C1576 H1568 0.950 1_545 S
C1576 C1577 1.386 . S
C1576 C1578 1.391 1_545 S
C1577 C1576 1.386 . S
C1577 C1581 1.393 . S
C1578 H1570 0.950 . S
C1578 C1576 1.391 1_565 S
C1578 C1579 1.400 1_565 S
C1579 C1578 1.400 1_545 S
C1579 C1580 1.398 . S
C1579 C1585 1.491 1_545 S
C1580 H1571 0.950 . S
C1580 C1579 1.398 . S
C1580 C1581 1.391 . S
C1581 H1569 0.950 . S
C1581 C1577 1.393 . S
C1581 C1580 1.391 . S
C1582 H1572 0.950 1_565 S
C1582 C1583 1.386 . S
C1582 C1584 1.391 1_565 S
C1583 C1582 1.386 . S
C1583 C1587 1.393 . S
C1584 H1573 0.950 . S
C1584 C1582 1.391 1_545 S
C1584 C1585 1.400 1_545 S
C1585 C1579 1.491 1_565 S
C1585 C1584 1.400 1_565 S
C1585 C1586 1.398 . S
C1586 H1574 0.950 . S
C1586 C1585 1.398 . S
C1586 C1587 1.391 . S
C1587 H1575 0.950 . S
C1587 C1583 1.393 . S
C1587 C1586 1.391 . S
H1588 C1596 0.950 . S
H1589 C1601 0.950 . S
H1590 C1598 0.950 . S
H1591 C1600 0.950 . S
H1592 C1602 0.950 . S
H1593 C1604 0.950 1_545 S
H1594 C1606 0.950 . S
H1595 C1607 0.950 . S
C1596 H1588 0.950 . S
C1596 C1597 1.386 . S
C1596 C1598 1.391 . S
C1597 C1596 1.386 . S
C1597 C1601 1.393 . S
C1598 H1590 0.950 . S
C1598 C1596 1.391 . S
C1598 C1599 1.400 . S
C1599 C1598 1.400 . S
C1599 C1600 1.398 . S
C1599 C1605 1.491 1_545 S
C1600 H1591 0.950 . S
C1600 C1599 1.398 . S
C1600 C1601 1.391 . S
C1601 H1589 0.950 . S
C1601 C1597 1.393 . S
C1601 C1600 1.391 . S
C1602 H1592 0.950 . S
C1602 C1603 1.386 . S
C1602 C1604 1.391 . S
C1603 C1602 1.386 . S
C1603 C1607 1.393 . S
C1604 H1593 0.950 1_565 S
C1604 C1602 1.391 . S
C1604 C1605 1.400 . S
C1605 C1599 1.491 1_565 S
C1605 C1604 1.400 . S
C1605 C1606 1.398 . S
C1606 H1594 0.950 . S
C1606 C1605 1.398 . S
C1606 C1607 1.391 . S
C1607 H1595 0.950 . S
C1607 C1603 1.393 . S
C1607 C1606 1.391 . S
H1608 C1616 0.950 . S
H1609 C1621 0.950 . S
H1610 C1618 0.950 . S
H1611 C1620 0.950 . S
H1612 C1622 0.950 . S
H1613 C1624 0.950 . S
H1614 C1626 0.950 . S
H1615 C1627 0.950 . S
C1616 H1608 0.950 . S
C1616 C1617 1.386 . S
C1616 C1618 1.391 . S
C1617 C1616 1.386 . S
C1617 C1621 1.393 . S
C1618 H1610 0.950 . S
C1618 C1616 1.391 . S
C1618 C1619 1.400 . S
C1619 C1618 1.400 . S
C1619 C1620 1.398 . S
C1619 C1625 1.491 . S
C1620 H1611 0.950 . S
C1620 C1619 1.398 . S
C1620 C1621 1.391 . S
C1621 H1609 0.950 . S
C1621 C1617 1.393 . S
C1621 C1620 1.391 . S
C1622 H1612 0.950 . S
C1622 C1623 1.386 . S
C1622 C1624 1.391 . S
C1623 C1622 1.386 . S
C1623 C1627 1.393 . S
C1624 H1613 0.950 . S
C1624 C1622 1.391 . S
C1624 C1625 1.400 . S
C1625 C1619 1.491 . S
C1625 C1624 1.400 . S
C1625 C1626 1.398 . S
C1626 H1614 0.950 . S
C1626 C1625 1.398 . S
C1626 C1627 1.391 . S
C1627 H1615 0.950 . S
C1627 C1623 1.393 . S
C1627 C1626 1.391 . S
H1628 C1636 0.950 . S
H1629 C1641 0.950 . S
H1630 C1638 0.950 . S
H1631 C1640 0.950 . S
H1632 C1642 0.950 . S
H1633 C1644 0.950 . S
H1634 C1646 0.950 . S
H1635 C1647 0.950 . S
C1636 H1628 0.950 . S
C1636 C1637 1.386 . S
C1636 C1638 1.391 . S
C1637 C1636 1.386 . S
C1637 C1641 1.393 . S
C1638 H1630 0.950 . S
C1638 C1636 1.391 . S
C1638 C1639 1.400 . S
C1639 C1638 1.400 . S
C1639 C1640 1.398 . S
C1639 C1645 1.491 . S
C1640 H1631 0.950 . S
C1640 C1639 1.398 . S
C1640 C1641 1.391 . S
C1641 H1629 0.950 . S
C1641 C1637 1.393 . S
C1641 C1640 1.391 . S
C1642 H1632 0.950 . S
C1642 C1643 1.386 . S
C1642 C1644 1.391 . S
C1643 C1642 1.386 . S
C1643 C1647 1.393 . S
C1644 H1633 0.950 . S
C1644 C1642 1.391 . S
C1644 C1645 1.400 . S
C1645 C1639 1.491 . S
C1645 C1644 1.400 . S
C1645 C1646 1.398 . S
C1646 H1634 0.950 . S
C1646 C1645 1.398 . S
C1646 C1647 1.391 . S
C1647 H1635 0.950 . S
C1647 C1643 1.393 . S
C1647 C1646 1.391 . S
H1648 C1656 0.950 . S
H1649 C1661 0.950 . S
H1650 C1658 0.950 . S
H1651 C1660 0.950 . S
H1652 C1662 0.950 . S
H1653 C1664 0.950 . S
H1654 C1666 0.950 . S
H1655 C1667 0.950 1_554 S
C1656 H1648 0.950 . S
C1656 C1657 1.386 . S
C1656 C1658 1.391 . S
C1657 C1656 1.386 . S
C1657 C1661 1.393 1_554 S
C1658 H1650 0.950 . S
C1658 C1656 1.391 . S
C1658 C1659 1.400 . S
C1659 C1658 1.400 . S
C1659 C1660 1.398 1_554 S
C1659 C1665 1.491 1_554 S
C1660 H1651 0.950 . S
C1660 C1659 1.398 1_556 S
C1660 C1661 1.391 . S
C1661 H1649 0.950 . S
C1661 C1657 1.393 1_556 S
C1661 C1660 1.391 . S
C1662 H1652 0.950 . S
C1662 C1663 1.386 . S
C1662 C1664 1.391 . S
C1663 C1662 1.386 . S
C1663 C1667 1.393 . S
C1664 H1653 0.950 . S
C1664 C1662 1.391 . S
C1664 C1665 1.400 . S
C1665 C1659 1.491 1_556 S
C1665 C1664 1.400 . S
C1665 C1666 1.398 1_556 S
C1666 H1654 0.950 . S
C1666 C1665 1.398 1_554 S
C1666 C1667 1.391 1_554 S
C1667 H1655 0.950 1_556 S
C1667 C1663 1.393 . S
C1667 C1666 1.391 1_556 S
H1668 C1676 0.950 . S
H1669 C1681 0.965 . S
H1670 C1678 0.950 . S
H1671 C1680 0.950 . S
H1672 C1682 0.950 . S
H1673 C1684 0.950 . S
H1674 C1686 0.950 . S
H1675 C1687 0.950 1_556 S
C1676 H1668 0.950 . S
C1676 C1677 1.386 . S
C1676 C1678 1.391 . S
C1677 C1676 1.386 . S
C1677 C1681 1.366 1_556 S
C1678 H1670 0.950 . S
C1678 C1676 1.391 . S
C1678 C1679 1.400 . S
C1679 C1678 1.400 . S
C1679 C1680 1.398 1_556 S
C1679 C1685 1.491 1_556 S
C1680 H1671 0.950 . S
C1680 C1679 1.398 1_554 S
C1680 C1681 1.402 . S
C1681 H1669 0.965 . S
C1681 C1677 1.366 1_554 S
C1681 C1680 1.402 . S
C1682 H1672 0.950 . S
C1682 C1683 1.386 . S
C1682 C1684 1.391 . S
C1683 C1682 1.386 . S
C1683 C1687 1.393 . S
C1684 H1673 0.950 . S
C1684 C1682 1.391 . S
C1684 C1685 1.400 . S
C1685 C1679 1.491 1_554 S
C1685 C1684 1.400 . S
C1685 C1686 1.398 1_554 S
C1686 H1674 0.950 . S
C1686 C1685 1.398 1_556 S
C1686 C1687 1.391 1_556 S
C1687 H1675 0.950 1_554 S
C1687 C1683 1.393 . S
C1687 C1686 1.391 1_554 S
H1688 C1696 0.950 . S
H1689 C1701 0.950 . S
H1690 C1698 0.950 . S
H1691 C1700 0.950 . S
H1692 C1702 0.950 . S
H1693 C1704 0.950 . S
H1694 C1706 0.950 . S
H1695 C1707 0.950 . S
C1696 H1688 0.950 . S
C1696 C1697 1.386 . S
C1696 C1698 1.391 . S
C1697 C1696 1.386 . S
C1697 C1701 1.393 . S
C1698 H1690 0.950 . S
C1698 C1696 1.391 . S
C1698 C1699 1.400 . S
C1699 C1698 1.400 . S
C1699 C1700 1.398 . S
C1699 C1705 1.491 . S
C1700 H1691 0.950 . S
C1700 C1699 1.398 . S
C1700 C1701 1.391 . S
C1701 H1689 0.950 . S
C1701 C1697 1.393 . S
C1701 C1700 1.391 . S
C1702 H1692 0.950 . S
C1702 C1703 1.386 . S
C1702 C1704 1.391 . S
C1703 C1702 1.386 . S
C1703 C1707 1.393 . S
C1704 H1693 0.950 . S
C1704 C1702 1.391 . S
C1704 C1705 1.400 . S
C1705 C1699 1.491 . S
C1705 C1704 1.400 . S
C1705 C1706 1.398 . S
C1706 H1694 0.950 . S
C1706 C1705 1.398 . S
C1706 C1707 1.391 . S
C1707 H1695 0.950 . S
C1707 C1703 1.393 . S
C1707 C1706 1.391 . S
H1708 C1716 0.950 . S
H1709 C1721 0.950 . S
H1710 C1718 0.950 . S
H1711 C1720 0.950 . S
H1712 C1722 0.950 . S
H1713 C1724 0.950 . S
H1714 C1726 0.950 . S
H1715 C1727 0.950 . S
C1716 H1708 0.950 . S
C1716 C1717 1.386 . S
C1716 C1718 1.391 . S
C1717 C1716 1.386 . S
C1717 C1721 1.393 . S
C1718 H1710 0.950 . S
C1718 C1716 1.391 . S
C1718 C1719 1.400 . S
C1719 C1718 1.400 . S
C1719 C1720 1.398 . S
C1719 C1725 1.491 . S
C1720 H1711 0.950 . S
C1720 C1719 1.398 . S
C1720 C1721 1.391 . S
C1721 H1709 0.950 . S
C1721 C1717 1.393 . S
C1721 C1720 1.391 . S
C1722 H1712 0.950 . S
C1722 C1723 1.386 . S
C1722 C1724 1.391 . S
C1723 C1722 1.386 . S
C1723 C1727 1.393 . S
C1724 H1713 0.950 . S
C1724 C1722 1.391 . S
C1724 C1725 1.400 . S
C1725 C1719 1.491 . S
C1725 C1724 1.400 . S
C1725 C1726 1.398 . S
C1726 H1714 0.950 . S
C1726 C1725 1.398 . S
C1726 C1727 1.391 . S
C1727 H1715 0.950 . S
C1727 C1723 1.393 . S
C1727 C1726 1.391 . S
H1728 C1736 0.950 . S
H1729 C1741 0.950 . S
H1730 C1738 0.950 . S
H1731 C1740 0.950 . S
H1732 C1742 0.950 . S
H1733 C1744 0.950 . S
H1734 C1746 0.950 . S
H1735 C1747 0.950 1_655 S
C1736 H1728 0.950 . S
C1736 C1737 1.386 . S
C1736 C1738 1.391 . S
C1737 C1736 1.386 . S
C1737 C1741 1.393 1_655 S
C1738 H1730 0.950 . S
C1738 C1736 1.391 . S
C1738 C1739 1.400 . S
C1739 C1738 1.400 . S
C1739 C1740 1.398 1_655 S
C1739 C1745 1.491 1_655 S
C1740 H1731 0.950 . S
C1740 C1739 1.398 1_455 S
C1740 C1741 1.391 . S
C1741 H1729 0.950 . S
C1741 C1737 1.393 1_455 S
C1741 C1740 1.391 . S
C1742 H1732 0.950 . S
C1742 C1743 1.386 . S
C1742 C1744 1.391 . S
C1743 C1742 1.386 . S
C1743 C1747 1.393 . S
C1744 H1733 0.950 . S
C1744 C1742 1.391 . S
C1744 C1745 1.400 . S
C1745 C1739 1.491 1_455 S
C1745 C1744 1.400 . S
C1745 C1746 1.398 1_455 S
C1746 H1734 0.950 . S
C1746 C1745 1.398 1_655 S
C1746 C1747 1.391 1_655 S
C1747 H1735 0.950 1_455 S
C1747 C1743 1.393 . S
C1747 C1746 1.391 1_455 S
H1748 C1756 0.950 . S
H1749 C1761 0.950 . S
H1750 C1758 0.950 . S
H1751 C1760 0.950 . S
H1752 C1762 0.950 . S
H1753 C1764 0.950 . S
H1754 C1766 0.950 . S
H1755 C1767 0.950 . S
C1756 H1748 0.950 . S
C1756 C1757 1.386 . S
C1756 C1758 1.391 . S
C1757 C1756 1.386 . S
C1757 C1761 1.393 . S
C1758 H1750 0.950 . S
C1758 C1756 1.391 . S
C1758 C1759 1.400 . S
C1759 C1758 1.400 . S
C1759 C1760 1.398 . S
C1759 C1765 1.491 . S
C1760 H1751 0.950 . S
C1760 C1759 1.398 . S
C1760 C1761 1.391 . S
C1761 H1749 0.950 . S
C1761 C1757 1.393 . S
C1761 C1760 1.391 . S
C1762 H1752 0.950 . S
C1762 C1763 1.386 . S
C1762 C1764 1.391 . S
C1763 C1762 1.386 . S
C1763 C1767 1.393 . S
C1764 H1753 0.950 . S
C1764 C1762 1.391 . S
C1764 C1765 1.400 . S
C1765 C1759 1.491 . S
C1765 C1764 1.400 . S
C1765 C1766 1.398 . S
C1766 H1754 0.950 . S
C1766 C1765 1.398 . S
C1766 C1767 1.391 . S
C1767 H1755 0.950 . S
C1767 C1763 1.393 . S
C1767 C1766 1.391 . S
H1768 C1776 0.950 . S
H1769 C1781 0.950 . S
H1770 C1778 0.950 . S
H1771 C1780 0.950 . S
H1772 C1782 0.950 . S
H1773 C1784 0.950 . S
H1774 C1786 0.950 . S
H1775 C1787 0.950 . S
C1776 H1768 0.950 . S
C1776 C1777 1.386 . S
C1776 C1778 1.391 . S
C1777 C1776 1.386 . S
C1777 C1781 1.393 . S
C1778 H1770 0.950 . S
C1778 C1776 1.391 . S
C1778 C1779 1.400 . S
C1779 C1778 1.400 . S
C1779 C1780 1.398 . S
C1779 C1785 1.491 . S
C1780 H1771 0.950 . S
C1780 C1779 1.398 . S
C1780 C1781 1.391 . S
C1781 H1769 0.950 . S
C1781 C1777 1.393 . S
C1781 C1780 1.391 . S
C1782 H1772 0.950 . S
C1782 C1783 1.386 . S
C1782 C1784 1.391 . S
C1783 C1782 1.386 . S
C1783 C1787 1.393 . S
C1784 H1773 0.950 . S
C1784 C1782 1.391 . S
C1784 C1785 1.400 . S
C1785 C1779 1.491 . S
C1785 C1784 1.400 . S
C1785 C1786 1.398 . S
C1786 H1774 0.950 . S
C1786 C1785 1.398 . S
C1786 C1787 1.391 . S
C1787 H1775 0.950 . S
C1787 C1783 1.393 . S
C1787 C1786 1.391 . S
H1788 C1796 0.950 . S
H1789 C1801 0.950 . S
H1790 C1798 0.950 . S
H1791 C1800 0.950 . S
H1792 C1802 0.950 . S
H1793 C1804 0.950 . S
H1794 C1806 0.950 . S
H1795 C1807 0.950 1_655 S
C1796 H1788 0.950 . S
C1796 C1797 1.386 . S
C1796 C1798 1.391 . S
C1797 C1796 1.386 . S
C1797 C1801 1.393 . S
C1798 H1790 0.950 . S
C1798 C1796 1.391 . S
C1798 C1799 1.400 . S
C1799 C1798 1.400 . S
C1799 C1800 1.398 1_655 S
C1799 C1805 1.491 1_655 S
C1800 H1791 0.950 . S
C1800 C1799 1.398 1_455 S
C1800 C1801 1.391 1_455 S
C1801 H1789 0.950 . S
C1801 C1797 1.393 . S
C1801 C1800 1.391 1_655 S
C1802 H1792 0.950 . S
C1802 C1803 1.386 . S
C1802 C1804 1.391 . S
C1803 C1802 1.386 . S
C1803 C1807 1.393 . S
C1804 H1793 0.950 . S
C1804 C1802 1.391 . S
C1804 C1805 1.400 . S
C1805 C1799 1.491 1_455 S
C1805 C1804 1.400 . S
C1805 C1806 1.398 1_455 S
C1806 H1794 0.950 . S
C1806 C1805 1.398 1_655 S
C1806 C1807 1.391 1_655 S
C1807 H1795 0.950 1_455 S
C1807 C1803 1.393 . S
C1807 C1806 1.391 1_455 S
H1808 C1816 0.950 . S
H1809 C1821 0.950 . S
H1810 C1818 0.950 . S
H1811 C1820 0.950 . S
H1812 C1822 0.950 . S
H1813 C1824 0.950 . S
H1814 C1826 0.950 . S
H1815 C1827 0.950 . S
C1816 H1808 0.950 . S
C1816 C1817 1.386 . S
C1816 C1818 1.391 . S
C1817 C1816 1.386 . S
C1817 C1821 1.393 . S
C1818 H1810 0.950 . S
C1818 C1816 1.391 . S
C1818 C1819 1.400 . S
C1819 C1818 1.400 . S
C1819 C1820 1.398 . S
C1819 C1825 1.491 1_565 S
C1820 H1811 0.950 . S
C1820 C1819 1.398 . S
C1820 C1821 1.391 . S
C1821 H1809 0.950 . S
C1821 C1817 1.393 . S
C1821 C1820 1.391 . S
C1822 H1812 0.950 . S
C1822 C1823 1.386 . S
C1822 C1824 1.391 . S
C1823 C1822 1.386 . S
C1823 C1827 1.393 . S
C1824 H1813 0.950 . S
C1824 C1822 1.391 . S
C1824 C1825 1.400 . S
C1825 C1819 1.491 1_545 S
C1825 C1824 1.400 . S
C1825 C1826 1.398 . S
C1826 H1814 0.950 . S
C1826 C1825 1.398 . S
C1826 C1827 1.391 . S
C1827 H1815 0.950 . S
C1827 C1823 1.393 . S
C1827 C1826 1.391 . S
H1828 C1836 0.950 . S
H1829 C1841 0.946 1_565 S
H1830 C1838 0.950 . S
H1831 C1840 0.950 . S
H1832 C1842 0.950 . S
H1833 C1844 0.950 . S
H1834 C1846 0.950 . S
H1835 C1847 0.950 1_545 S
C1836 H1828 0.950 . S
C1836 C1837 1.386 . S
C1836 C1838 1.391 . S
C1837 C1836 1.386 . S
C1837 C1841 1.400 . S
C1838 H1830 0.950 . S
C1838 C1836 1.391 . S
C1838 C1839 1.400 . S
C1839 C1838 1.400 . S
C1839 C1840 1.398 1_545 S
C1839 C1845 1.491 1_545 S
C1840 H1831 0.950 . S
C1840 C1839 1.398 1_565 S
C1840 C1841 1.388 1_565 S
C1841 H1829 0.946 1_545 S
C1841 C1837 1.400 . S
C1841 C1840 1.388 1_545 S
C1842 H1832 0.950 . S
C1842 C1843 1.386 . S
C1842 C1844 1.391 . S
C1843 C1842 1.386 . S
C1843 C1847 1.393 . S
C1844 H1833 0.950 . S
C1844 C1842 1.391 . S
C1844 C1845 1.400 . S
C1845 C1839 1.491 1_565 S
C1845 C1844 1.400 . S
C1845 C1846 1.398 1_565 S
C1846 H1834 0.950 . S
C1846 C1845 1.398 1_545 S
C1846 C1847 1.391 1_545 S
C1847 H1835 0.950 1_565 S
C1847 C1843 1.393 . S
C1847 C1846 1.391 1_565 S
H1848 C1856 0.950 . S
H1849 C1861 0.950 . S
H1850 C1858 0.950 . S
H1851 C1860 0.950 . S
H1852 C1862 0.950 . S
H1853 C1864 0.950 . S
H1854 C1866 0.950 . S
H1855 C1867 0.950 . S
C1856 H1848 0.950 . S
C1856 C1857 1.386 . S
C1856 C1858 1.391 . S
C1857 C1856 1.386 . S
C1857 C1861 1.393 . S
C1858 H1850 0.950 . S
C1858 C1856 1.391 . S
C1858 C1859 1.400 . S
C1859 C1858 1.400 . S
C1859 C1860 1.398 . S
C1859 C1865 1.491 . S
C1860 H1851 0.950 . S
C1860 C1859 1.398 . S
C1860 C1861 1.391 . S
C1861 H1849 0.950 . S
C1861 C1857 1.393 . S
C1861 C1860 1.391 . S
C1862 H1852 0.950 . S
C1862 C1863 1.386 . S
C1862 C1864 1.391 . S
C1863 C1862 1.386 . S
C1863 C1867 1.393 . S
C1864 H1853 0.950 . S
C1864 C1862 1.391 . S
C1864 C1865 1.400 . S
C1865 C1859 1.491 . S
C1865 C1864 1.400 . S
C1865 C1866 1.398 . S
C1866 H1854 0.950 . S
C1866 C1865 1.398 . S
C1866 C1867 1.391 . S
C1867 H1855 0.950 . S
C1867 C1863 1.393 . S
C1867 C1866 1.391 . S
H1868 C1876 0.950 . S
H1869 C1881 0.950 . S
H1870 C1878 0.950 . S
H1871 C1880 0.950 . S
H1872 C1882 0.950 . S
H1873 C1884 0.950 . S
H1874 C1886 0.950 . S
H1875 C1887 0.950 . S
C1876 H1868 0.950 . S
C1876 C1877 1.386 . S
C1876 C1878 1.391 . S
C1877 C1876 1.386 . S
C1877 C1881 1.393 . S
C1878 H1870 0.950 . S
C1878 C1876 1.391 . S
C1878 C1879 1.400 . S
C1879 C1878 1.400 . S
C1879 C1880 1.398 . S
C1879 C1885 1.491 . S
C1880 H1871 0.950 . S
C1880 C1879 1.398 . S
C1880 C1881 1.391 . S
C1881 H1869 0.950 . S
C1881 C1877 1.393 . S
C1881 C1880 1.391 . S
C1882 H1872 0.950 . S
C1882 C1883 1.386 . S
C1882 C1884 1.391 . S
C1883 C1882 1.386 . S
C1883 C1887 1.393 . S
C1884 H1873 0.950 . S
C1884 C1882 1.391 . S
C1884 C1885 1.400 . S
C1885 C1879 1.491 . S
C1885 C1884 1.400 . S
C1885 C1886 1.398 . S
C1886 H1874 0.950 . S
C1886 C1885 1.398 . S
C1886 C1887 1.391 . S
C1887 H1875 0.950 . S
C1887 C1883 1.393 . S
C1887 C1886 1.391 . S
H1888 C1896 0.950 . S
H1889 C1901 0.950 . S
H1890 C1898 0.950 . S
H1891 C1900 0.950 . S
H1892 C1902 0.950 . S
H1893 C1904 0.950 . S
H1894 C1906 0.950 . S
H1895 C1907 0.950 1_556 S
C1896 H1888 0.950 . S
C1896 C1897 1.386 . S
C1896 C1898 1.391 . S
C1897 C1896 1.386 . S
C1897 C1901 1.393 1_556 S
C1898 H1890 0.950 . S
C1898 C1896 1.391 . S
C1898 C1899 1.400 . S
C1899 C1898 1.400 . S
C1899 C1900 1.398 1_556 S
C1899 C1905 1.491 1_556 S
C1900 H1891 0.950 . S
C1900 C1899 1.398 1_554 S
C1900 C1901 1.391 . S
C1901 H1889 0.950 . S
C1901 C1897 1.393 1_554 S
C1901 C1900 1.391 . S
C1902 H1892 0.950 . S
C1902 C1903 1.386 . S
C1902 C1904 1.391 . S
C1903 C1902 1.386 . S
C1903 C1907 1.393 . S
C1904 H1893 0.950 . S
C1904 C1902 1.391 . S
C1904 C1905 1.400 . S
C1905 C1899 1.491 1_554 S
C1905 C1904 1.400 . S
C1905 C1906 1.398 1_554 S
C1906 H1894 0.950 . S
C1906 C1905 1.398 1_556 S
C1906 C1907 1.391 1_556 S
C1907 H1895 0.950 1_554 S
C1907 C1903 1.393 . S
C1907 C1906 1.391 1_554 S
H1908 C1916 0.950 . S
H1909 C1921 0.950 . S
H1910 C1918 0.950 1_554 S
H1911 C1920 0.950 . S
H1912 C1922 0.950 . S
H1913 C1924 0.950 1_556 S
H1914 C1926 0.950 . S
H1915 C1927 0.950 . S
C1916 H1908 0.950 . S
C1916 C1917 1.386 . S
C1916 C1918 1.391 . S
C1917 C1916 1.386 . S
C1917 C1921 1.393 . S
C1918 H1910 0.950 1_556 S
C1918 C1916 1.391 . S
C1918 C1919 1.400 . S
C1919 C1918 1.400 . S
C1919 C1920 1.398 . S
C1919 C1925 1.491 1_556 S
C1920 H1911 0.950 . S
C1920 C1919 1.398 . S
C1920 C1921 1.391 . S
C1921 H1909 0.950 . S
C1921 C1917 1.393 . S
C1921 C1920 1.391 . S
C1922 H1912 0.950 . S
C1922 C1923 1.386 . S
C1922 C1924 1.391 . S
C1923 C1922 1.386 . S
C1923 C1927 1.393 . S
C1924 H1913 0.950 1_554 S
C1924 C1922 1.391 . S
C1924 C1925 1.400 . S
C1925 C1919 1.491 1_554 S
C1925 C1924 1.400 . S
C1925 C1926 1.398 . S
C1926 H1914 0.950 . S
C1926 C1925 1.398 . S
C1926 C1927 1.391 . S
C1927 H1915 0.950 . S
C1927 C1923 1.393 . S
C1927 C1926 1.391 . S
H1928 C1936 0.950 . S
H1929 C1941 0.950 . S
H1930 C1938 0.950 . S
H1931 C1940 0.950 . S
H1932 C1942 0.950 . S
H1933 C1944 0.950 . S
H1934 C1946 0.950 . S
H1935 C1947 0.950 . S
C1936 H1928 0.950 . S
C1936 C1937 1.386 . S
C1936 C1938 1.391 . S
C1937 C1936 1.386 . S
C1937 C1941 1.393 . S
C1938 H1930 0.950 . S
C1938 C1936 1.391 . S
C1938 C1939 1.400 . S
C1939 C1938 1.400 . S
C1939 C1940 1.398 . S
C1939 C1945 1.491 . S
C1940 H1931 0.950 . S
C1940 C1939 1.398 . S
C1940 C1941 1.391 . S
C1941 H1929 0.950 . S
C1941 C1937 1.393 . S
C1941 C1940 1.391 . S
C1942 H1932 0.950 . S
C1942 C1943 1.386 . S
C1942 C1944 1.391 . S
C1943 C1942 1.386 . S
C1943 C1947 1.393 . S
C1944 H1933 0.950 . S
C1944 C1942 1.391 . S
C1944 C1945 1.400 . S
C1945 C1939 1.491 . S
C1945 C1944 1.400 . S
C1945 C1946 1.398 . S
C1946 H1934 0.950 . S
C1946 C1945 1.398 . S
C1946 C1947 1.391 . S
C1947 H1935 0.950 . S
C1947 C1943 1.393 . S
C1947 C1946 1.391 . S
H1948 C1956 0.950 . S
H1949 C1961 0.950 . S
H1950 C1958 0.950 . S
H1951 C1960 0.950 . S
H1952 C1962 0.950 . S
H1953 C1964 0.950 . S
H1954 C1966 0.950 . S
H1955 C1967 0.950 . S
C1956 H1948 0.950 . S
C1956 C1957 1.386 . S
C1956 C1958 1.391 . S
C1957 C1956 1.386 . S
C1957 C1961 1.393 . S
C1958 H1950 0.950 . S
C1958 C1956 1.391 . S
C1958 C1959 1.400 . S
C1959 C1958 1.400 . S
C1959 C1960 1.398 . S
C1959 C1965 1.491 . S
C1960 H1951 0.950 . S
C1960 C1959 1.398 . S
C1960 C1961 1.391 . S
C1961 H1949 0.950 . S
C1961 C1957 1.393 . S
C1961 C1960 1.391 . S
C1962 H1952 0.950 . S
C1962 C1963 1.386 . S
C1962 C1964 1.391 . S
C1963 C1962 1.386 . S
C1963 C1967 1.393 . S
C1964 H1953 0.950 . S
C1964 C1962 1.391 . S
C1964 C1965 1.400 . S
C1965 C1959 1.491 . S
C1965 C1964 1.400 . S
C1965 C1966 1.398 . S
C1966 H1954 0.950 . S
C1966 C1965 1.398 . S
C1966 C1967 1.391 . S
C1967 H1955 0.950 . S
C1967 C1963 1.393 . S
C1967 C1966 1.391 . S
C537 C7 1.182 . S
C543 C414 1.186 . S
C557 C426 1.186 . S
C563 C29 1.183 . S
C577 C65 1.180 . S
C583 C360 1.186 . S
C597 C81 1.178 . S
C603 C392 1.179 . S
C617 C494 1.186 . S
C623 C109 1.181 . S
C637 C125 1.167 . S
C643 C480 1.176 . S
C657 C514 1.179 . S
C663 C153 1.177 . S
C677 C175 1.168 . S
C683 C448 1.175 . S
C697 C197 1.167 . S
C703 C304 1.177 . S
C717 C205 1.181 . S
C723 C338 1.186 . S
C737 C316 1.175 . S
C743 C227 1.170 . S
C757 C257 1.178 . S
C763 C272 1.185 . S
C777 C285 1.180 . S
C783 C140 1.186 . S
C797 C293 1.174 . S
C803 C162 1.177 . S
C817 C329 1.173 . S
C823 C96 1.176 . S
C837 C120 1.185 . S
C843 C351 1.183 . S
C857 C373 1.168 . S
C863 C238 1.178 . S
C877 C216 1.185 . S
C883 C381 1.183 . S
C897 C252 1.183 . S
C903 C403 1.182 . S
C917 C184 1.175 . S
C923 C439 1.168 . S
C937 C40 1.180 . S
C943 C461 1.179 . S
C957 C76 1.179 . S
C963 C469 1.178 . S
C977 C52 1.185 . S
C983 C499 1.183 . S
C997 C527 1.182 . S
C1003 C18 1.182 . S
C1017 C433 1.043 . S
C1023 C15 1.064 . S
C1037 C417 1.053 . S
C1043 C37 1.040 . S
C1057 C51 1.063 . S
C1063 C395 1.045 . S
C1077 C367 1.056 . S
C1083 C87 1.054 . S
C1097 C95 1.043 . S
C1103 C521 1.048 . S
C1117 C131 1.048 . S
C1123 C455 1.043 . S
C1137 C491 1.065 . S
C1143 C139 1.041 . S
C1157 C161 1.038 . S
C1163 C483 1.058 . S
C1177 C323 1.038 . S
C1183 C183 1.067 . S
C1197 C279 1.054 . S
C1203 C213 1.056 . S
C1217 C307 1.035 . S
C1223 C235 1.067 . S
C1237 C345 1.042 . S
C1243 C263 1.049 . S
C1257 C271 1.055 . S
C1263 C169 1.037 . S
C1277 C301 1.039 . S
C1283 C147 1.065 . S
C1297 C117 1.042 . S
C1303 C315 1.048 . S
C1317 C103 1.065 . S
C1323 C337 1.040 . S
C1337 C249 1.051 . S
C1343 C359 1.041 . S
C1357 C389 1.061 . S
C1363 C191 1.033 . S
C1377 C241 1.036 . S
C1383 C411 1.067 . S
C1397 C219 1.034 . S
C1403 C425 1.059 . S
C1417 C447 1.039 . S
C1423 C59 1.065 . S
C1437 C477 1.065 . S
C1443 C21 1.041 . S
C1457 C43 1.041 . S
C1463 C505 1.050 . S
C1477 C73 1.049 . S
C1483 C513 1.061 . S
C1497 C10 1.047 . S
C1503 C206 1.020 . S
C1517 C228 1.020 . S
C1523 C32 1.046 . S
C1537 C186 1.031 . S
C1543 C62 1.029 . S
C1557 C260 1.033 . S
C1563 C74 1.039 . S
C1577 C106 1.022 . S
C1583 C84 1.047 . S
C1597 C54 1.025 . S
C1603 C118 1.036 . S
C1617 C150 1.048 . S
C1623 C30 1.021 . S
C1637 C8 1.023 . S
C1643 C172 1.047 . S
C1657 C194 1.048 . S
C1663 C128 1.021 . S
C1677 C208 1.043 . S
C1683 C164 1.021 . S
C1697 C230 1.023 . S
C1703 C142 1.038 . S
C1717 C250 1.035 . S
C1723 C98 1.037 . S
C1737 C282 1.016 . S
C1743 C470 1.048 . S
C1757 C296 1.035 . S
C1763 C502 1.026 . S
C1777 C450 1.028 . S
C1783 C326 1.033 . S
C1797 C516 1.027 . S
C1803 C348 1.045 . S
C1817 C370 1.029 . S
C1823 C340 1.043 . S
C1837 C384 1.018 . S
C1843 C318 1.049 . S
C1857 C294 1.022 . S
C1863 C406 1.047 . S
C1877 C436 1.028 . S
C1883 C274 1.044 . S
C1897 C458 1.016 . S
C1903 C382 1.048 . S
C1917 C428 1.035 . S
C1923 C472 1.025 . S
C1937 C492 1.036 . S
C1943 C404 1.025 . S
C1957 C524 1.043 . S
C1963 C362 1.021 . S
