# Generated by pormake.
# Topology qtz-e, (6)-cn, num edge types: 1
# Building blocks:
#     Node 0, Type 0, BuildingBlock: BETDEL_clean_sbu_0, # of connection points: 6
#     Node 1, Type 0, BuildingBlock: BETDEL_clean_sbu_0, # of connection points: 6
#     Node 2, Type 0, BuildingBlock: BETDEL_clean_sbu_0, # of connection points: 6
#     Node 3, Type 0, BuildingBlock: BETDEL_clean_sbu_0, # of connection points: 6
#     Node 4, Type 0, BuildingBlock: BETDEL_clean_sbu_0, # of connection points: 6
#     Node 5, Type 0, BuildingBlock: BETDEL_clean_sbu_0, # of connection points: 6
#     Edge 6, Type (0, 0), BuildingBlock: XIVTED_clean_linker_0, # of connection points: 2
#     Edge 7, Type (0, 0), BuildingBlock: XIVTED_clean_linker_0, # of connection points: 2
#     Edge 8, Type (0, 0), BuildingBlock: XIVTED_clean_linker_0, # of connection points: 2
#     Edge 9, Type (0, 0), BuildingBlock: XIVTED_clean_linker_0, # of connection points: 2
#     Edge 10, Type (0, 0), BuildingBlock: XIVTED_clean_linker_0, # of connection points: 2
#     Edge 11, Type (0, 0), BuildingBlock: XIVTED_clean_linker_0, # of connection points: 2
#     Edge 12, Type (0, 0), BuildingBlock: XIVTED_clean_linker_0, # of connection points: 2
#     Edge 13, Type (0, 0), BuildingBlock: XIVTED_clean_linker_0, # of connection points: 2
#     Edge 14, Type (0, 0), BuildingBlock: XIVTED_clean_linker_0, # of connection points: 2
#     Edge 15, Type (0, 0), BuildingBlock: XIVTED_clean_linker_0, # of connection points: 2
#     Edge 16, Type (0, 0), BuildingBlock: XIVTED_clean_linker_0, # of connection points: 2
#     Edge 17, Type (0, 0), BuildingBlock: XIVTED_clean_linker_0, # of connection points: 2
#     Edge 18, Type (0, 0), BuildingBlock: XIVTED_clean_linker_0, # of connection points: 2
#     Edge 19, Type (0, 0), BuildingBlock: XIVTED_clean_linker_0, # of connection points: 2
#     Edge 20, Type (0, 0), BuildingBlock: XIVTED_clean_linker_0, # of connection points: 2
#     Edge 21, Type (0, 0), BuildingBlock: XIVTED_clean_linker_0, # of connection points: 2
#     Edge 22, Type (0, 0), BuildingBlock: XIVTED_clean_linker_0, # of connection points: 2
#     Edge 23, Type (0, 0), BuildingBlock: XIVTED_clean_linker_0, # of connection points: 2
# Relax obj value: 0.209
# Max RMSD: 0.208
# Mean RMSD: 0.208
data_MOF--net-qtz-e--node1-BETDEL_clean_sbu_0--edge1-XIVTED_clean_linker_0
_symmetry_space_group_name_H-M    P1
_symmetry_Int_Tables_number       1
_symmetry_cell_setting            triclinic
loop_
_symmetry_equiv_pos_as_xyz
'x, y, z'
_cell_length_a     25.087824
_cell_length_b     25.35776
_cell_length_c     38.903899
_cell_angle_alpha  89.681012
_cell_angle_beta   90.315153
_cell_angle_gamma 119.29298
loop_
_atom_site_label
_atom_site_type_symbol
_atom_site_fract_x
_atom_site_fract_y
_atom_site_fract_z
_atom_type_partial_charge
Dy0 Dy 0.21658 0.41026 0.103 0.0
C1 C 0.19753 0.25314 0.98699 0.0
C2 C 0.19711 0.47218 0.15405 0.0
Dy3 Dy 0.19035 0.31293 0.04383 0.0
O4 O 0.25044 0.48474 0.14224 0.0
O5 O 0.15433 0.42704 0.13717 0.0
O6 O 0.30842 0.4244 0.11612 0.0
O7 O 0.24573 0.34485 0.09076 0.0
C8 C 0.30099 0.37643 0.10006 0.0
C9 C 0.11173 0.35447 0.05215 0.0
O10 O 0.14607 0.24806 0.0873 0.0
O11 O 0.15186 0.32036 0.12688 0.0
O12 O 0.15791 0.2713 0.99157 0.0
O13 O 0.23169 0.26518 1.01428 0.0
O14 O 0.09429 0.30025 0.04075 0.0
O15 O 0.16839 0.38288 0.05525 0.0
O16 O 0.25692 0.47196 0.05668 0.0
O17 O 0.26308 0.4006 1.02174 0.0
C18 C 0.13344 0.26356 0.11753 0.0
C19 C 0.27732 0.45716 0.02873 0.0
Dy20 Dy 0.67535 0.15383 0.35685 0.0
C21 C 0.83492 0.07983 0.29581 0.0
C22 C 0.60329 0.1818 0.39691 0.0
Dy23 Dy 0.75047 0.09777 0.33018 0.0
O24 O 0.65994 0.21817 0.38914 0.0
O25 O 0.58452 0.13074 0.38089 0.0
O26 O 0.74717 0.24259 0.3395 0.0
O27 O 0.77283 0.18051 0.35905 0.0
C28 C 0.79229 0.23252 0.34571 0.0
C29 C 0.63051 0.02359 0.33665 0.0
O30 O 0.75968 0.08103 0.38567 0.0
O31 O 0.68706 0.10648 0.40348 0.0
O32 O 0.77667 0.05215 0.28933 0.0
O33 O 0.84659 0.11602 0.32171 0.0
O34 O 0.67008 0.00538 0.34247 0.0
O35 O 0.65689 0.07695 0.32618 0.0
O36 O 0.66197 0.16391 0.30067 0.0
O37 O 0.74519 0.15245 0.28529 0.0
C38 C 0.72491 0.08497 0.40988 0.0
C39 C 0.70317 0.16839 0.2777 0.0
Dy40 Dy 0.53585 0.76995 0.76286 0.0
C41 C 0.68613 0.91407 0.64783 0.0
C42 C 0.46302 0.69096 0.81249 0.0
Dy43 Dy 0.6325 0.84426 0.70495 0.0
O44 O 0.45372 0.73234 0.79818 0.0
O45 O 0.51015 0.69143 0.79853 0.0
O46 O 0.55303 0.85769 0.78553 0.0
O47 O 0.56105 0.85127 0.73288 0.0
C48 C 0.56596 0.88694 0.75655 0.0
C49 C 0.6249 0.73865 0.72391 0.0
O50 O 0.6895 0.8834 0.75235 0.0
O51 O 0.62645 0.80305 0.78838 0.0
O52 O 0.67249 0.85794 0.65177 0.0
O53 O 0.67263 0.93299 0.67581 0.0
O54 O 0.67406 0.78323 0.71074 0.0
O55 O 0.58254 0.75146 0.72223 0.0
O56 O 0.47283 0.73755 0.71685 0.0
O57 O 0.54457 0.79916 0.67569 0.0
C58 C 0.67835 0.85313 0.7818 0.0
C59 C 0.48829 0.75812 0.68478 0.0
Dy60 Dy 0.78476 0.51363 0.02633 0.0
C61 C 0.85289 0.74709 0.96849 0.0
C62 C 0.75591 0.41099 0.06358 0.0
Dy63 Dy 0.83855 0.64569 1.00176 0.0
O64 O 0.71855 0.43074 0.05553 0.0
O65 O 0.80903 0.44594 0.04972 0.0
O66 O 0.69564 0.49542 1.00606 0.0
O67 O 0.75373 0.58085 0.0276 0.0
C68 C 0.70308 0.54879 1.01248 0.0
C69 C 0.91628 0.60327 1.00985 0.0
O70 O 0.84881 0.66593 0.05795 0.0
O71 O 0.82639 0.56895 0.07443 0.0
O72 O 0.88673 0.72203 0.96386 0.0
O73 O 0.81247 0.71768 0.99206 0.0
O74 O 0.93233 0.65933 1.01673 0.0
O75 O 0.86337 0.57659 0.99805 0.0
O76 O 0.78324 0.49599 0.96996 0.0
O77 O 0.79134 0.58863 0.95475 0.0
C78 C 0.84468 0.62648 0.08174 0.0
C79 C 0.77929 0.53276 0.94677 0.0
Dy80 Dy 0.13502 0.71056 0.4377 0.0
C81 C -0.00419 0.73806 0.32403 0.0
C82 C 0.20879 0.71045 0.48952 0.0
Dy83 Dy 0.06627 0.74389 0.3799 0.0
O84 O 0.14971 0.68504 0.49093 0.0
O85 O 0.22789 0.73615 0.4597 0.0
O86 O 0.0603 0.61694 0.44193 0.0
O87 O 0.04026 0.68536 0.42545 0.0
C88 C 0.01916 0.62891 0.4296 0.0
C89 C 0.18651 0.8177 0.38751 0.0
O90 O 0.05063 0.79019 0.42454 0.0
O91 O 0.1236 0.78549 0.46042 0.0
O92 O 0.05228 0.77904 0.32911 0.0
O93 O -0.02326 0.70193 0.35047 0.0
O94 O 0.1499 0.83693 0.37654 0.0
O95 O 0.15765 0.76151 0.39067 0.0
O96 O 0.1522 0.66573 0.3926 0.0
O97 O 0.08255 0.67287 0.35538 0.0
C98 C 0.08408 0.80466 0.45317 0.0
C99 C 0.12028 0.6519 0.36342 0.0
Dy100 Dy 0.44489 0.26657 0.70143 0.0
C101 C 0.2181 0.11027 0.63202 0.0
C102 C 0.55346 0.34968 0.72976 0.0
Dy103 Dy 0.31716 0.19132 0.66914 0.0
O104 O 0.54014 0.29538 0.72028 0.0
O105 O 0.50867 0.35959 0.72169 0.0
O106 O 0.4199 0.19385 0.74031 0.0
O107 O 0.38554 0.17001 0.69073 0.0
C108 C 0.38598 0.14927 0.72021 0.0
C109 C 0.36563 0.31195 0.6689 0.0
O110 O 0.29219 0.18767 0.72467 0.0
O111 O 0.38148 0.27499 0.73883 0.0
O112 O 0.25278 0.16685 0.62413 0.0
O113 O 0.2363 0.09849 0.66102 0.0
O114 O 0.30803 0.27594 0.67519 0.0
O115 O 0.39167 0.28184 0.66337 0.0
O116 O 0.47465 0.25651 0.6485 0.0
O117 O 0.37758 0.18806 0.62779 0.0
C118 C 0.32544 0.23173 0.74655 0.0
C119 C 0.43788 0.21984 0.62414 0.0
H120 H 0.03682 0.57659 0.3172 0.0
H121 H 0.28267 0.55278 0.19847 0.0
H122 H 0.22514 0.64806 0.34774 0.0
H123 H 0.08823 0.45169 0.18059 0.0
H124 H 0.26387 0.59112 0.2522 0.0
H125 H 0.05536 0.53099 0.26698 0.0
C126 C 0.082 0.58197 0.31354 0.0
C127 C 0.12959 0.6162 0.33663 0.0
C128 C 0.22535 0.56055 0.23652 0.0
C129 C 0.15157 0.5651 0.27859 0.0
C130 C 0.23605 0.53907 0.20575 0.0
C131 C 0.18688 0.49927 0.18505 0.0
C132 C 0.16504 0.54237 0.24649 0.0
C133 C 0.12742 0.48248 0.19576 0.0
C134 C 0.09261 0.55604 0.28476 0.0
C135 C 0.18715 0.62162 0.33067 0.0
N136 N 0.11818 0.50423 0.22568 0.0
N137 N 0.19679 0.59696 0.30193 0.0
H138 H 0.55332 0.29265 0.59801 0.0
H139 H 0.4903 0.10419 0.42347 0.0
H140 H 0.38018 0.13625 0.57352 0.0
H141 H 0.64831 0.27937 0.43937 0.0
H142 H 0.44931 0.1141 0.4787 0.0
H143 H 0.5909 0.28624 0.54097 0.0
C144 C 0.52336 0.25678 0.58081 0.0
C145 C 0.46348 0.21503 0.59068 0.0
C146 C 0.49266 0.1507 0.46992 0.0
C147 C 0.50601 0.2076 0.52524 0.0
C148 C 0.51577 0.14518 0.43828 0.0
C149 C 0.57262 0.19108 0.42679 0.0
C150 C 0.527 0.20215 0.49037 0.0
C151 C 0.60413 0.24296 0.44721 0.0
C152 C 0.54465 0.25337 0.54813 0.0
C153 C 0.42662 0.16969 0.5671 0.0
N154 N 0.58123 0.24686 0.47811 0.0
N155 N 0.44845 0.16714 0.53563 0.0
H156 H 0.26822 0.55678 1.00714 0.0
H157 H 0.47839 0.60239 0.84223 0.0
H158 H 0.36336 0.45734 0.9873 0.0
H159 H 0.38054 0.70122 0.8547 0.0
H160 H 0.43799 0.55186 0.89695 0.0
H161 H 0.31287 0.61596 0.95417 0.0
C162 C 0.29961 0.54846 0.99217 0.0
C163 C 0.31221 0.50216 1.00166 0.0
C164 C 0.42492 0.58437 0.88784 0.0
C165 C 0.36218 0.56835 0.94098 0.0
C166 C 0.4478 0.61302 0.8564 0.0
C167 C 0.43259 0.65584 0.84382 0.0
C168 C 0.38649 0.5986 0.9072 0.0
C169 C 0.393 0.66808 0.86341 0.0
C170 C 0.32445 0.58164 0.96175 0.0
C171 C 0.35229 0.49249 0.98099 0.0
N172 N 0.37139 0.63971 0.89423 0.0
N173 N 0.37541 0.52489 0.95173 0.0
H174 H 0.78952 0.19637 0.22773 0.0
H175 H 0.65053 0.34693 0.09971 0.0
H176 H 0.6253 0.20496 0.24927 0.0
H177 H 0.83255 0.37178 0.08991 0.0
H178 H 0.63394 0.28218 0.14986 0.0
H179 H 0.79921 0.24821 0.17323 0.0
C180 C 0.75509 0.20867 0.22097 0.0
C181 C 0.70649 0.19626 0.24341 0.0
C182 C 0.67732 0.30128 0.1366 0.0
C183 C 0.71763 0.25603 0.18055 0.0
C184 C 0.68674 0.33797 0.1078 0.0
C185 C 0.74307 0.36484 0.09059 0.0
C186 C 0.72449 0.291 0.14834 0.0
C187 C 0.78839 0.35188 0.10236 0.0
C188 C 0.76088 0.23853 0.18977 0.0
C189 C 0.66357 0.2136 0.23297 0.0
N190 N 0.77821 0.3161 0.13058 0.0
N191 N 0.67021 0.24264 0.20237 0.0
H192 H 0.36264 0.70779 0.68964 0.0
H193 H 0.33172 0.75338 0.48829 0.0
H194 H 0.50895 0.76222 0.61626 0.0
H195 H 0.17507 0.66815 0.55505 0.0
H196 H 0.39674 0.75563 0.53584 0.0
H197 H 0.29131 0.68922 0.64158 0.0
C198 C 0.37954 0.7149 0.66352 0.0
C199 C 0.44193 0.73739 0.65701 0.0
C200 C 0.34808 0.73608 0.54016 0.0
C201 C 0.36131 0.71711 0.60223 0.0
C202 C 0.31108 0.73501 0.513 0.0
C203 C 0.24816 0.71073 0.51785 0.0
C204 C 0.32209 0.71321 0.57255 0.0
C205 C 0.22357 0.68736 0.55035 0.0
C206 C 0.339 0.70464 0.63613 0.0
C207 C 0.46144 0.74595 0.62264 0.0
N208 N 0.26065 0.6895 0.5766 0.0
N209 N 0.42153 0.73636 0.59671 0.0
H210 H 0.75807 0.42566 0.91726 0.0
H211 H 0.58441 0.46189 0.75442 0.0
H212 H 0.74896 0.58827 0.89569 0.0
H213 H 0.62979 0.31891 0.76393 0.0
H214 H 0.64863 0.51141 0.80463 0.0
H215 H 0.71407 0.38708 0.86046 0.0
C216 C 0.74729 0.45347 0.90056 0.0
C217 C 0.75704 0.51022 0.91148 0.0
C218 C 0.64539 0.4697 0.79543 0.0
C219 C 0.70619 0.46608 0.84638 0.0
C220 C 0.60898 0.44161 0.76665 0.0
C221 C 0.60172 0.38619 0.75505 0.0
C222 C 0.67403 0.44171 0.81308 0.0
C223 C 0.63424 0.36169 0.77199 0.0
C224 C 0.72228 0.43147 0.86805 0.0
C225 C 0.74224 0.54423 0.88854 0.0
N226 N 0.66824 0.38911 0.80043 0.0
N227 N 0.71709 0.52143 0.85732 0.0
H228 H 0.32412 0.35213 0.03453 0.0
H229 H 0.67412 0.58276 0.07231 0.0
H230 H 0.40254 0.40399 0.13555 0.0
H231 H 0.60553 0.51429 0.97105 0.0
H232 H 0.57011 0.52851 0.09436 0.0
H233 H 0.42562 0.40963 1.00961 0.0
C234 C 0.3627 0.37371 0.0515 0.0
C235 C 0.35484 0.37554 0.08691 0.0
C236 C 0.57757 0.52637 0.06713 0.0
C237 C 0.47025 0.44304 0.05901 0.0
C238 C 0.63669 0.55892 0.05439 0.0
C239 C 0.64785 0.55143 1.02009 0.0
C240 C 0.53021 0.48706 0.04515 0.0
C241 C 0.59814 0.52011 0.99785 0.0
C242 C 0.42065 0.40775 0.03729 0.0
C243 C 0.40687 0.40279 0.1079 0.0
N244 N 0.5412 0.48731 1.01096 0.0
N245 N 0.46246 0.43719 0.09362 0.0
H246 H 0.93713 0.53744 0.46765 0.0
H247 H 0.86568 0.32515 0.30473 0.0
H248 H -0.02622 0.60428 0.36376 0.0
H249 H 0.84116 0.26178 0.40945 0.0
H250 H 0.91165 0.429 0.32541 0.0
H251 H 0.89143 0.4345 0.44597 0.0
C252 C 0.93278 0.53031 0.44009 0.0
C253 C 0.96134 0.57943 0.41745 0.0
C254 C 0.89761 0.39256 0.34391 0.0
C255 C 0.91244 0.46264 0.39257 0.0
C256 C 0.87325 0.33355 0.33209 0.0
C257 C 0.84915 0.28537 0.35553 0.0
C258 C 0.89757 0.40266 0.37932 0.0
C259 C 0.8592 0.29803 0.39065 0.0
C260 C 0.90859 0.47166 0.42779 0.0
C261 C 0.95434 0.56793 0.38214 0.0
N262 N 0.88108 0.35565 0.40163 0.0
N263 N 0.93226 0.51056 0.37065 0.0
H264 H 0.3838 0.09482 0.78052 0.0
H265 H 0.54993 0.92909 0.69502 0.0
H266 H 0.3976 0.07927 0.67096 0.0
H267 H 0.53472 0.94488 0.80454 0.0
H268 H 0.49157 -0.01837 0.68543 0.0
H269 H 0.42794 0.02887 0.78965 0.0
C270 C 0.39422 0.0757 0.7584 0.0
C271 C 0.38819 0.09311 0.72503 0.0
C272 C 0.50132 -0.02607 0.71156 0.0
C273 C 0.44071 0.01999 0.73513 0.0
C274 C 0.53544 0.94483 0.71704 0.0
C275 C 0.54663 0.93228 0.75063 0.0
C276 C 0.47858 -0.0093 0.73988 0.0
C277 C 0.52681 0.95348 0.77823 0.0
C278 C 0.42032 0.03892 0.76359 0.0
C279 C 0.40207 0.06722 0.69715 0.0
N280 N 0.4932 -0.01876 0.77223 0.0
N281 N 0.42906 0.03286 0.70284 0.0
H282 H 0.64379 0.6841 0.66932 0.0
H283 H 0.35077 0.37615 0.72103 0.0
H284 H 0.56848 0.64971 0.7713 0.0
H285 H 0.46448 0.39185 0.63458 0.0
H286 H 0.42697 0.47914 0.73863 0.0
H287 H 0.58105 0.57666 0.65615 0.0
C288 C 0.61561 0.6534 0.68936 0.0
C289 C 0.60981 0.67543 0.72119 0.0
C290 C 0.43488 0.46002 0.71568 0.0
C291 C 0.53595 0.55384 0.70593 0.0
C292 C 0.39091 0.40204 0.70533 0.0
C293 C 0.40135 0.37656 0.67611 0.0
C294 C 0.48876 0.4922 0.69634 0.0
C295 C 0.45478 0.4107 0.65707 0.0
C296 C 0.57896 0.59232 0.68168 0.0
C297 C 0.57208 0.6343 0.7461 0.0
N298 N 0.49651 0.46685 0.66747 0.0
N299 N 0.5353 0.57542 0.73777 0.0
H300 H -0.00803 0.31135 0.03345 0.0
H301 H 0.01036 0.63372 0.05629 0.0
H302 H 0.14943 0.46721 0.07559 0.0
H303 H 0.89134 0.49545 0.98517 0.0
H304 H 0.05148 0.5673 0.07464 0.0
H305 H 0.93995 0.37171 0.02874 0.0
C306 C 0.01494 0.35771 0.04233 0.0
C307 C 0.07498 0.38466 0.05456 0.0
C308 C 0.01619 0.55183 0.05508 0.0
C309 C 0.01696 0.45356 0.04904 0.0
C310 C -0.00649 0.58984 0.04442 0.0
C311 C 0.94781 0.56981 1.01925 0.0
C312 C -0.00771 0.49388 0.0405 0.0
C313 C 0.92652 0.51239 1.0048 0.0
C314 C -0.01438 0.39219 0.03953 0.0
C315 C 0.10305 0.44484 0.0659 0.0
N316 N 0.94875 0.47634 1.01572 0.0
N317 N 0.07403 0.47759 0.06254 0.0
H318 H 0.26349 0.77307 0.39835 0.0
H319 H 0.54824 0.0582 0.3194 0.0
H320 H 0.2612 0.93738 0.37181 0.0
H321 H 0.56562 0.91867 0.37393 0.0
H322 H 0.44213 0.01251 0.33699 0.0
H323 H 0.37332 0.82443 0.3899 0.0
C324 C 0.28638 0.82051 0.39156 0.0
C325 C 0.25342 0.85133 0.38608 0.0
C326 C 0.46901 -0.00813 0.34528 0.0
C327 C 0.37891 0.9097 0.37511 0.0
C328 C 0.52949 0.01765 0.33508 0.0
C329 C 0.56552 -0.00792 0.34541 0.0
C330 C 0.44393 0.93943 0.36548 0.0
C331 C 0.53903 0.93946 0.36541 0.0
C332 C 0.3491 0.84964 0.38647 0.0
C333 C 0.28512 0.91217 0.3763 0.0
N334 N 0.47939 0.91455 0.37478 0.0
N335 N 0.34631 0.93935 0.37074 0.0
H336 H 0.20645 0.17261 0.76987 0.0
H337 H 0.30217 0.25409 0.96711 0.0
H338 H 0.39222 0.28711 0.8038 0.0
H339 H 0.12536 0.21733 0.92942 0.0
H340 H 0.33112 0.24425 0.90838 0.0
H341 H 0.17161 0.16945 0.82928 0.0
C342 C 0.23983 0.19711 0.78972 0.0
C343 C 0.3023 0.23063 0.78174 0.0
C344 C 0.28572 0.23762 0.91305 0.0
C345 C 0.26297 0.22583 0.84966 0.0
C346 C 0.26898 0.24262 0.94659 0.0
C347 C 0.21132 0.23655 0.95308 0.0
C348 C 0.24423 0.22566 0.88587 0.0
C349 C 0.17031 0.22238 0.92544 0.0
C350 C 0.21994 0.19522 0.82356 0.0
C351 C 0.34357 0.26127 0.80858 0.0
N352 N 0.18755 0.2175 0.89299 0.0
N353 N 0.32325 0.2578 0.84127 0.0
H354 H 0.81838 0.03054 0.23163 0.0
H355 H 0.16005 0.26616 0.18491 0.0
H356 H 0.95808 0.13767 0.30555 0.0
H357 H 0.0264 0.15671 0.10891 0.0
H358 H 0.09216 0.20209 0.23012 0.0
H359 H 0.89752 0.058 0.1878 0.0
C360 C 0.86588 0.05849 0.23885 0.0
C361 C 0.88183 0.0828 0.27204 0.0
C362 C 0.07777 0.19109 0.2036 0.0
C363 C -0.02776 0.11492 0.22211 0.0
C364 C 0.11663 0.22767 0.1778 0.0
C365 C 0.09828 0.21686 0.14332 0.0
C366 C 0.01926 0.14424 0.19496 0.0
C367 C 0.04195 0.16636 0.13531 0.0
C368 C 0.911 0.07435 0.21379 0.0
C369 C 0.94385 0.11864 0.28011 0.0
N370 N 0.00365 0.13253 0.16106 0.0
N371 N -0.01331 0.13439 0.25518 0.0
H372 H 0.68728 0.01953 0.63048 0.0
H373 H 0.77168 0.01234 0.43224 0.0
H374 H 0.72211 0.88209 0.58892 0.0
H375 H 0.68294 0.11009 0.46903 0.0
H376 H 0.77005 -0.0244 0.49097 0.0
H377 H 0.70284 0.06535 0.57308 0.0
C378 C 0.69917 -0.00043 0.60939 0.0
C379 C 0.70335 0.94689 0.61447 0.0
C380 C 0.75119 0.0053 0.48615 0.0
C381 C 0.72093 -0.00112 0.54864 0.0
C382 C 0.75225 0.02645 0.45263 0.0
C383 C 0.72709 0.06415 0.44551 0.0
C384 C 0.72557 0.02259 0.51293 0.0
C385 C 0.70244 0.08075 0.47311 0.0
C386 C 0.70762 0.02547 0.57658 0.0
C387 C 0.71841 0.92267 0.58613 0.0
N388 N 0.70239 0.06 0.50547 0.0
N389 N 0.72653 0.94873 0.55447 0.0
H390 H 0.66744 0.88028 0.84727 0.0
H391 H 0.91452 0.79122 0.90805 0.0
H392 H 0.79227 0.86441 0.77816 0.0
H393 H 0.78259 0.80119 0.97433 0.0
H394 H 0.88975 0.84376 0.86299 0.0
H395 H 0.72871 0.87941 0.89597 0.0
C396 C 0.70916 0.87873 0.84242 0.0
C397 C 0.72514 0.87254 0.80886 0.0
C398 C 0.86722 0.8357 0.88765 0.0
C399 C 0.794 0.86854 0.86441 0.0
C400 C 0.88152 0.80592 0.91343 0.0
C401 C 0.84977 0.79105 0.94471 0.0
C402 C 0.82078 0.85045 0.89329 0.0
C403 C 0.80756 0.81115 0.9504 0.0
C404 C 0.74388 0.87768 0.87021 0.0
C405 C 0.77897 0.86982 0.80376 0.0
N406 N 0.79363 0.83897 0.92475 0.0
N407 N 0.81088 0.86646 0.83136 0.0
H408 H 0.89194 0.63646 0.30355 0.0
H409 H 0.91178 0.74258 0.10681 0.0
H410 H 0.02931 0.8114 0.26718 0.0
H411 H 0.81631 0.55607 0.13969 0.0
H412 H 0.94264 0.77302 0.16668 0.0
H413 H 0.85015 0.61132 0.24508 0.0
C414 C 0.91258 0.67003 0.28339 0.0
C415 C 0.9642 0.72611 0.29025 0.0
C416 C 0.91469 0.72547 0.16074 0.0
C417 C 0.91693 0.69746 0.22312 0.0
C418 C 0.8969 0.70805 0.12657 0.0
C419 C 0.86166 0.64658 0.11803 0.0
C420 C 0.89643 0.68124 0.18672 0.0
C421 C 0.8439 0.60394 0.14486 0.0
C422 C 0.88903 0.65547 0.24995 0.0
C423 C -0.01055 0.76764 0.26302 0.0
N424 N 0.86137 0.62203 0.17786 0.0
N425 N -0.03425 0.75245 0.23067 0.0
H426 H 0.18919 0.12714 0.56648 0.0
H427 H 0.06969 0.78295 0.52123 0.0
H428 H 0.15252 -0.0119 0.64174 0.0
H429 H 0.08869 0.91477 0.44494 0.0
H430 H 0.0831 0.85455 0.56643 0.0
H431 H 0.13695 0.04886 0.52287 0.0
C432 C 0.16888 0.08005 0.574 0.0
C433 C 0.17575 0.064 0.60767 0.0
C434 C 0.08328 0.86782 0.5399 0.0
C435 C 0.11668 -0.02567 0.55785 0.0
C436 C 0.07542 0.8268 0.51409 0.0
C437 C 0.07831 0.84322 0.47942 0.0
C438 C 0.09573 0.92651 0.53106 0.0
C439 C 0.08589 0.90045 0.47145 0.0
C440 C 0.13922 0.03539 0.54905 0.0
C441 C 0.14864 0.00245 0.61603 0.0
N442 N 0.09557 0.94064 0.49713 0.0
N443 N 0.1211 0.95994 0.5912 0.0
loop_
_geom_bond_atom_site_label_1
_geom_bond_atom_site_label_2
_geom_bond_distance
_geom_bond_site_symmetry_2
_ccdc_geom_bond_type
Dy0 O4 2.398 . S
Dy0 O5 2.491 . S
Dy0 O6 2.403 . S
Dy0 O7 2.664 . S
Dy0 O11 2.326 . S
Dy0 O15 2.310 . S
Dy0 O16 2.351 1_554 S
C1 O12 1.185 . S
C1 O13 1.355 . S
C2 O4 1.185 . S
C2 O5 1.355 . S
Dy3 O7 2.310 1_556 S
Dy3 O10 2.351 1_556 S
Dy3 O12 2.398 . S
Dy3 O13 2.491 . S
Dy3 O14 2.403 . S
Dy3 O15 2.664 1_556 S
Dy3 O17 2.326 . S
O4 Dy0 2.398 . S
O4 C2 1.185 . S
O5 Dy0 2.491 . S
O5 C2 1.355 . S
O6 Dy0 2.403 . S
O6 C8 1.254 . S
O7 Dy0 2.664 . S
O7 Dy3 2.310 1_554 S
O7 C8 1.268 . S
C8 O6 1.254 . S
C8 O7 1.268 . S
C9 O14 1.254 1_554 S
C9 O15 1.268 . S
O10 Dy3 2.351 1_554 S
O10 C18 1.249 . S
O11 Dy0 2.326 . S
O11 C18 1.267 . S
O12 C1 1.185 . S
O12 Dy3 2.398 . S
O13 C1 1.355 . S
O13 Dy3 2.491 . S
O14 Dy3 2.403 . S
O14 C9 1.254 1_556 S
O15 Dy0 2.310 . S
O15 Dy3 2.664 1_554 S
O15 C9 1.268 . S
O16 Dy0 2.351 1_556 S
O16 C19 1.249 . S
O17 Dy3 2.326 . S
O17 C19 1.267 . S
C18 O10 1.249 . S
C18 O11 1.267 . S
C19 O16 1.249 . S
C19 O17 1.267 . S
Dy20 O24 2.398 . S
Dy20 O25 2.491 . S
Dy20 O26 2.403 . S
Dy20 O27 2.664 . S
Dy20 O31 2.326 . S
Dy20 O35 2.310 . S
Dy20 O36 2.351 . S
C21 O32 1.185 . S
C21 O33 1.355 . S
C22 O24 1.185 . S
C22 O25 1.355 . S
Dy23 O27 2.310 . S
Dy23 O30 2.351 . S
Dy23 O32 2.398 . S
Dy23 O33 2.491 . S
Dy23 O34 2.403 . S
Dy23 O35 2.664 . S
Dy23 O37 2.326 . S
O24 Dy20 2.398 . S
O24 C22 1.185 . S
O25 Dy20 2.491 . S
O25 C22 1.355 . S
O26 Dy20 2.403 . S
O26 C28 1.254 . S
O27 Dy20 2.664 . S
O27 Dy23 2.310 . S
O27 C28 1.268 . S
C28 O26 1.254 . S
C28 O27 1.268 . S
C29 O34 1.254 . S
C29 O35 1.268 . S
O30 Dy23 2.351 . S
O30 C38 1.249 . S
O31 Dy20 2.326 . S
O31 C38 1.267 . S
O32 C21 1.185 . S
O32 Dy23 2.398 . S
O33 C21 1.355 . S
O33 Dy23 2.491 . S
O34 Dy23 2.403 . S
O34 C29 1.254 . S
O35 Dy20 2.310 . S
O35 Dy23 2.664 . S
O35 C29 1.268 . S
O36 Dy20 2.351 . S
O36 C39 1.249 . S
O37 Dy23 2.326 . S
O37 C39 1.267 . S
C38 O30 1.249 . S
C38 O31 1.267 . S
C39 O36 1.249 . S
C39 O37 1.267 . S
Dy40 O44 2.398 . S
Dy40 O45 2.491 . S
Dy40 O46 2.403 . S
Dy40 O47 2.664 . S
Dy40 O51 2.326 . S
Dy40 O55 2.310 . S
Dy40 O56 2.351 . S
C41 O52 1.185 . S
C41 O53 1.355 . S
C42 O44 1.185 . S
C42 O45 1.355 . S
Dy43 O47 2.310 . S
Dy43 O50 2.351 . S
Dy43 O52 2.398 . S
Dy43 O53 2.491 . S
Dy43 O54 2.403 . S
Dy43 O55 2.664 . S
Dy43 O57 2.326 . S
O44 Dy40 2.398 . S
O44 C42 1.185 . S
O45 Dy40 2.491 . S
O45 C42 1.355 . S
O46 Dy40 2.403 . S
O46 C48 1.254 . S
O47 Dy40 2.664 . S
O47 Dy43 2.310 . S
O47 C48 1.268 . S
C48 O46 1.254 . S
C48 O47 1.268 . S
C49 O54 1.254 . S
C49 O55 1.268 . S
O50 Dy43 2.351 . S
O50 C58 1.249 . S
O51 Dy40 2.326 . S
O51 C58 1.267 . S
O52 C41 1.185 . S
O52 Dy43 2.398 . S
O53 C41 1.355 . S
O53 Dy43 2.491 . S
O54 Dy43 2.403 . S
O54 C49 1.254 . S
O55 Dy40 2.310 . S
O55 Dy43 2.664 . S
O55 C49 1.268 . S
O56 Dy40 2.351 . S
O56 C59 1.249 . S
O57 Dy43 2.326 . S
O57 C59 1.267 . S
C58 O50 1.249 . S
C58 O51 1.267 . S
C59 O56 1.249 . S
C59 O57 1.267 . S
Dy60 O64 2.398 . S
Dy60 O65 2.491 . S
Dy60 O66 2.403 . S
Dy60 O67 2.664 . S
Dy60 O71 2.326 . S
Dy60 O75 2.310 . S
Dy60 O76 2.351 1_554 S
C61 O72 1.185 . S
C61 O73 1.355 . S
C62 O64 1.185 . S
C62 O65 1.355 . S
Dy63 O67 2.310 1_556 S
Dy63 O70 2.351 1_556 S
Dy63 O72 2.398 . S
Dy63 O73 2.491 . S
Dy63 O74 2.403 . S
Dy63 O75 2.664 1_556 S
Dy63 O77 2.326 . S
O64 Dy60 2.398 . S
O64 C62 1.185 . S
O65 Dy60 2.491 . S
O65 C62 1.355 . S
O66 Dy60 2.403 . S
O66 C68 1.254 . S
O67 Dy60 2.664 . S
O67 Dy63 2.310 1_554 S
O67 C68 1.268 . S
C68 O66 1.254 . S
C68 O67 1.268 . S
C69 O74 1.254 1_554 S
C69 O75 1.268 . S
O70 Dy63 2.351 1_554 S
O70 C78 1.249 . S
O71 Dy60 2.326 . S
O71 C78 1.267 . S
O72 C61 1.185 . S
O72 Dy63 2.398 . S
O73 C61 1.355 . S
O73 Dy63 2.491 . S
O74 Dy63 2.403 . S
O74 C69 1.254 1_556 S
O75 Dy60 2.310 . S
O75 Dy63 2.664 1_554 S
O75 C69 1.268 . S
O76 Dy60 2.351 1_556 S
O76 C79 1.249 . S
O77 Dy63 2.326 . S
O77 C79 1.267 . S
C78 O70 1.249 . S
C78 O71 1.267 . S
C79 O76 1.249 . S
C79 O77 1.267 . S
Dy80 O84 2.398 . S
Dy80 O85 2.491 . S
Dy80 O86 2.403 . S
Dy80 O87 2.664 . S
Dy80 O91 2.326 . S
Dy80 O95 2.310 . S
Dy80 O96 2.351 . S
C81 O92 1.185 . S
C81 O93 1.355 . S
C82 O84 1.185 . S
C82 O85 1.355 . S
Dy83 O87 2.310 . S
Dy83 O90 2.351 . S
Dy83 O92 2.398 . S
Dy83 O93 2.491 . S
Dy83 O94 2.403 . S
Dy83 O95 2.664 . S
Dy83 O97 2.326 . S
O84 Dy80 2.398 . S
O84 C82 1.185 . S
O85 Dy80 2.491 . S
O85 C82 1.355 . S
O86 Dy80 2.403 . S
O86 C88 1.254 . S
O87 Dy80 2.664 . S
O87 Dy83 2.310 . S
O87 C88 1.268 . S
C88 O86 1.254 . S
C88 O87 1.268 . S
C89 O94 1.254 . S
C89 O95 1.268 . S
O90 Dy83 2.351 . S
O90 C98 1.249 . S
O91 Dy80 2.326 . S
O91 C98 1.267 . S
O92 C81 1.185 . S
O92 Dy83 2.398 . S
O93 C81 1.355 . S
O93 Dy83 2.491 . S
O94 Dy83 2.403 . S
O94 C89 1.254 . S
O95 Dy80 2.310 . S
O95 Dy83 2.664 . S
O95 C89 1.268 . S
O96 Dy80 2.351 . S
O96 C99 1.249 . S
O97 Dy83 2.326 . S
O97 C99 1.267 . S
C98 O90 1.249 . S
C98 O91 1.267 . S
C99 O96 1.249 . S
C99 O97 1.267 . S
Dy100 O104 2.398 . S
Dy100 O105 2.491 . S
Dy100 O106 2.403 . S
Dy100 O107 2.664 . S
Dy100 O111 2.326 . S
Dy100 O115 2.310 . S
Dy100 O116 2.351 . S
C101 O112 1.185 . S
C101 O113 1.355 . S
C102 O104 1.185 . S
C102 O105 1.355 . S
Dy103 O107 2.310 . S
Dy103 O110 2.351 . S
Dy103 O112 2.398 . S
Dy103 O113 2.491 . S
Dy103 O114 2.403 . S
Dy103 O115 2.664 . S
Dy103 O117 2.326 . S
O104 Dy100 2.398 . S
O104 C102 1.185 . S
O105 Dy100 2.491 . S
O105 C102 1.355 . S
O106 Dy100 2.403 . S
O106 C108 1.254 . S
O107 Dy100 2.664 . S
O107 Dy103 2.310 . S
O107 C108 1.268 . S
C108 O106 1.254 . S
C108 O107 1.268 . S
C109 O114 1.254 . S
C109 O115 1.268 . S
O110 Dy103 2.351 . S
O110 C118 1.249 . S
O111 Dy100 2.326 . S
O111 C118 1.267 . S
O112 C101 1.185 . S
O112 Dy103 2.398 . S
O113 C101 1.355 . S
O113 Dy103 2.491 . S
O114 Dy103 2.403 . S
O114 C109 1.254 . S
O115 Dy100 2.310 . S
O115 Dy103 2.664 . S
O115 C109 1.268 . S
O116 Dy100 2.351 . S
O116 C119 1.249 . S
O117 Dy103 2.326 . S
O117 C119 1.267 . S
C118 O110 1.249 . S
C118 O111 1.267 . S
C119 O116 1.249 . S
C119 O117 1.267 . S
H120 C126 0.930 . S
H121 C130 0.930 . S
H122 C135 0.929 . S
H123 C133 0.929 . S
H124 C128 0.929 . S
H125 C134 0.929 . S
C126 H120 0.930 . S
C126 C127 1.367 . S
C126 C134 1.378 . S
C127 C126 1.367 . S
C127 C135 1.433 . S
C128 H124 0.929 . S
C128 C130 1.378 . S
C128 C132 1.350 . S
C129 C132 1.463 . S
C129 C134 1.350 . S
C129 N137 1.427 . S
C130 H121 0.930 . S
C130 C128 1.378 . S
C130 C131 1.367 . S
C131 C130 1.367 . S
C131 C133 1.433 . S
C132 C128 1.350 . S
C132 C129 1.463 . S
C132 N136 1.427 . S
C133 H123 0.929 . S
C133 C131 1.433 . S
C133 N136 1.384 . S
C134 H125 0.929 . S
C134 C126 1.378 . S
C134 C129 1.350 . S
C135 H122 0.929 . S
C135 C127 1.433 . S
C135 N137 1.384 . S
N136 C132 1.427 . S
N136 C133 1.384 . S
N137 C129 1.427 . S
N137 C135 1.384 . S
H138 C144 0.930 . S
H139 C148 0.930 . S
H140 C153 0.929 . S
H141 C151 0.929 . S
H142 C146 0.929 . S
H143 C152 0.929 . S
C144 H138 0.930 . S
C144 C145 1.367 . S
C144 C152 1.378 . S
C145 C144 1.367 . S
C145 C153 1.433 . S
C146 H142 0.929 . S
C146 C148 1.378 . S
C146 C150 1.350 . S
C147 C150 1.463 . S
C147 C152 1.350 . S
C147 N155 1.427 . S
C148 H139 0.930 . S
C148 C146 1.378 . S
C148 C149 1.367 . S
C149 C148 1.367 . S
C149 C151 1.433 . S
C150 C146 1.350 . S
C150 C147 1.463 . S
C150 N154 1.427 . S
C151 H141 0.929 . S
C151 C149 1.433 . S
C151 N154 1.384 . S
C152 H143 0.929 . S
C152 C144 1.378 . S
C152 C147 1.350 . S
C153 H140 0.929 . S
C153 C145 1.433 . S
C153 N155 1.384 . S
N154 C150 1.427 . S
N154 C151 1.384 . S
N155 C147 1.427 . S
N155 C153 1.384 . S
H156 C162 0.930 . S
H157 C166 0.930 . S
H158 C171 0.929 . S
H159 C169 0.929 . S
H160 C164 0.929 . S
H161 C170 0.929 . S
C162 H156 0.930 . S
C162 C163 1.367 . S
C162 C170 1.378 . S
C163 C162 1.367 . S
C163 C171 1.433 . S
C164 H160 0.929 . S
C164 C166 1.378 . S
C164 C168 1.350 . S
C165 C168 1.463 . S
C165 C170 1.350 . S
C165 N173 1.427 . S
C166 H157 0.930 . S
C166 C164 1.378 . S
C166 C167 1.367 . S
C167 C166 1.367 . S
C167 C169 1.433 . S
C168 C164 1.350 . S
C168 C165 1.463 . S
C168 N172 1.427 . S
C169 H159 0.929 . S
C169 C167 1.433 . S
C169 N172 1.384 . S
C170 H161 0.929 . S
C170 C162 1.378 . S
C170 C165 1.350 . S
C171 H158 0.929 . S
C171 C163 1.433 . S
C171 N173 1.384 . S
N172 C168 1.427 . S
N172 C169 1.384 . S
N173 C165 1.427 . S
N173 C171 1.384 . S
H174 C180 0.930 . S
H175 C184 0.930 . S
H176 C189 0.929 . S
H177 C187 0.929 . S
H178 C182 0.929 . S
H179 C188 0.929 . S
C180 H174 0.930 . S
C180 C181 1.367 . S
C180 C188 1.378 . S
C181 C180 1.367 . S
C181 C189 1.433 . S
C182 H178 0.929 . S
C182 C184 1.378 . S
C182 C186 1.350 . S
C183 C186 1.463 . S
C183 C188 1.350 . S
C183 N191 1.427 . S
C184 H175 0.930 . S
C184 C182 1.378 . S
C184 C185 1.367 . S
C185 C184 1.367 . S
C185 C187 1.433 . S
C186 C182 1.350 . S
C186 C183 1.463 . S
C186 N190 1.427 . S
C187 H177 0.929 . S
C187 C185 1.433 . S
C187 N190 1.384 . S
C188 H179 0.929 . S
C188 C180 1.378 . S
C188 C183 1.350 . S
C189 H176 0.929 . S
C189 C181 1.433 . S
C189 N191 1.384 . S
N190 C186 1.427 . S
N190 C187 1.384 . S
N191 C183 1.427 . S
N191 C189 1.384 . S
H192 C198 0.930 . S
H193 C202 0.930 . S
H194 C207 0.929 . S
H195 C205 0.929 . S
H196 C200 0.929 . S
H197 C206 0.929 . S
C198 H192 0.930 . S
C198 C199 1.367 . S
C198 C206 1.378 . S
C199 C198 1.367 . S
C199 C207 1.433 . S
C200 H196 0.929 . S
C200 C202 1.378 . S
C200 C204 1.350 . S
C201 C204 1.463 . S
C201 C206 1.350 . S
C201 N209 1.427 . S
C202 H193 0.930 . S
C202 C200 1.378 . S
C202 C203 1.367 . S
C203 C202 1.367 . S
C203 C205 1.433 . S
C204 C200 1.350 . S
C204 C201 1.463 . S
C204 N208 1.427 . S
C205 H195 0.929 . S
C205 C203 1.433 . S
C205 N208 1.384 . S
C206 H197 0.929 . S
C206 C198 1.378 . S
C206 C201 1.350 . S
C207 H194 0.929 . S
C207 C199 1.433 . S
C207 N209 1.384 . S
N208 C204 1.427 . S
N208 C205 1.384 . S
N209 C201 1.427 . S
N209 C207 1.384 . S
H210 C216 0.930 . S
H211 C220 0.930 . S
H212 C225 0.929 . S
H213 C223 0.929 . S
H214 C218 0.929 . S
H215 C224 0.929 . S
C216 H210 0.930 . S
C216 C217 1.367 . S
C216 C224 1.378 . S
C217 C216 1.367 . S
C217 C225 1.433 . S
C218 H214 0.929 . S
C218 C220 1.378 . S
C218 C222 1.350 . S
C219 C222 1.463 . S
C219 C224 1.350 . S
C219 N227 1.427 . S
C220 H211 0.930 . S
C220 C218 1.378 . S
C220 C221 1.367 . S
C221 C220 1.367 . S
C221 C223 1.433 . S
C222 C218 1.350 . S
C222 C219 1.463 . S
C222 N226 1.427 . S
C223 H213 0.929 . S
C223 C221 1.433 . S
C223 N226 1.384 . S
C224 H215 0.929 . S
C224 C216 1.378 . S
C224 C219 1.350 . S
C225 H212 0.929 . S
C225 C217 1.433 . S
C225 N227 1.384 . S
N226 C222 1.427 . S
N226 C223 1.384 . S
N227 C219 1.427 . S
N227 C225 1.384 . S
H228 C234 0.930 1_556 S
H229 C238 0.930 . S
H230 C243 0.929 . S
H231 C241 0.929 1_556 S
H232 C236 0.929 . S
H233 C242 0.929 1_556 S
C234 H228 0.930 1_554 S
C234 C235 1.367 . S
C234 C242 1.378 . S
C235 C234 1.367 . S
C235 C243 1.433 . S
C236 H232 0.929 . S
C236 C238 1.378 . S
C236 C240 1.350 . S
C237 C240 1.463 . S
C237 C242 1.350 . S
C237 N245 1.427 . S
C238 H229 0.930 . S
C238 C236 1.378 . S
C238 C239 1.367 . S
C239 C238 1.367 . S
C239 C241 1.433 . S
C240 C236 1.350 . S
C240 C237 1.463 . S
C240 N244 1.427 . S
C241 H231 0.929 1_554 S
C241 C239 1.433 . S
C241 N244 1.384 . S
C242 H233 0.929 1_554 S
C242 C234 1.378 . S
C242 C237 1.350 . S
C243 H230 0.929 . S
C243 C235 1.433 . S
C243 N245 1.384 . S
N244 C240 1.427 . S
N244 C241 1.384 . S
N245 C237 1.427 . S
N245 C243 1.384 . S
H246 C252 0.930 . S
H247 C256 0.930 . S
H248 C261 0.929 . S
H249 C259 0.929 . S
H250 C254 0.929 . S
H251 C260 0.929 . S
C252 H246 0.930 . S
C252 C253 1.367 . S
C252 C260 1.378 . S
C253 C252 1.367 . S
C253 C261 1.433 . S
C254 H250 0.929 . S
C254 C256 1.378 . S
C254 C258 1.350 . S
C255 C258 1.463 1_455 S
C255 C260 1.350 . S
C255 N263 1.427 . S
C256 H247 0.930 . S
C256 C254 1.378 . S
C256 C257 1.367 . S
C257 C256 1.367 . S
C257 C259 1.433 . S
C258 C254 1.350 . S
C258 C255 1.463 1_655 S
C258 N262 1.427 . S
C259 H249 0.929 . S
C259 C257 1.433 . S
C259 N262 1.384 . S
C260 H251 0.929 . S
C260 C252 1.378 . S
C260 C255 1.350 . S
C261 H248 0.929 . S
C261 C253 1.433 . S
C261 N263 1.384 . S
N262 C258 1.427 . S
N262 C259 1.384 . S
N263 C255 1.427 . S
N263 C261 1.384 . S
H264 C270 0.930 . S
H265 C274 0.930 . S
H266 C279 0.929 1_565 S
H267 C277 0.929 1_545 S
H268 C272 0.929 . S
H269 C278 0.929 . S
C270 H264 0.930 . S
C270 C271 1.367 . S
C270 C278 1.378 . S
C271 C270 1.367 . S
C271 C279 1.433 . S
C272 H268 0.929 . S
C272 C274 1.378 . S
C272 C276 1.350 . S
C273 C276 1.463 1_545 S
C273 C278 1.350 . S
C273 N281 1.427 1_545 S
C274 H265 0.930 . S
C274 C272 1.378 . S
C274 C275 1.367 . S
C275 C274 1.367 . S
C275 C277 1.433 . S
C276 C272 1.350 . S
C276 C273 1.463 1_565 S
C276 N280 1.427 1_565 S
C277 H267 0.929 1_565 S
C277 C275 1.433 . S
C277 N280 1.384 1_565 S
C278 H269 0.929 . S
C278 C270 1.378 . S
C278 C273 1.350 . S
C279 H266 0.929 1_545 S
C279 C271 1.433 . S
C279 N281 1.384 1_545 S
N280 C276 1.427 1_545 S
N280 C277 1.384 1_545 S
N281 C273 1.427 1_565 S
N281 C279 1.384 1_565 S
H282 C288 0.930 . S
H283 C292 0.930 . S
H284 C297 0.929 . S
H285 C295 0.929 . S
H286 C290 0.929 . S
H287 C296 0.929 . S
C288 H282 0.930 . S
C288 C289 1.367 . S
C288 C296 1.378 . S
C289 C288 1.367 . S
C289 C297 1.433 . S
C290 H286 0.929 . S
C290 C292 1.378 . S
C290 C294 1.350 . S
C291 C294 1.463 . S
C291 C296 1.350 . S
C291 N299 1.427 . S
C292 H283 0.930 . S
C292 C290 1.378 . S
C292 C293 1.367 . S
C293 C292 1.367 . S
C293 C295 1.433 . S
C294 C290 1.350 . S
C294 C291 1.463 . S
C294 N298 1.427 . S
C295 H285 0.929 . S
C295 C293 1.433 . S
C295 N298 1.384 . S
C296 H287 0.929 . S
C296 C288 1.378 . S
C296 C291 1.350 . S
C297 H284 0.929 . S
C297 C289 1.433 . S
C297 N299 1.384 . S
N298 C294 1.427 . S
N298 C295 1.384 . S
N299 C291 1.427 . S
N299 C297 1.384 . S
H300 C306 0.930 . S
H301 C310 0.930 . S
H302 C315 0.929 . S
H303 C313 0.929 . S
H304 C308 0.929 . S
H305 C314 0.929 . S
C306 H300 0.930 . S
C306 C307 1.367 1_556 S
C306 C314 1.378 1_455 S
C307 C306 1.367 1_554 S
C307 C315 1.433 . S
C308 H304 0.929 . S
C308 C310 1.378 1_455 S
C308 C312 1.350 1_455 S
C309 C312 1.463 1_455 S
C309 C314 1.350 1_454 S
C309 N317 1.427 . S
C310 H301 0.930 . S
C310 C308 1.378 1_655 S
C310 C311 1.367 . S
C311 C310 1.367 . S
C311 C313 1.433 1_554 S
C312 C308 1.350 1_655 S
C312 C309 1.463 1_655 S
C312 N316 1.427 1_554 S
C313 H303 0.929 . S
C313 C311 1.433 1_556 S
C313 N316 1.384 . S
C314 H305 0.929 . S
C314 C306 1.378 1_655 S
C314 C309 1.350 1_656 S
C315 H302 0.929 . S
C315 C307 1.433 . S
C315 N317 1.384 . S
N316 C312 1.427 1_556 S
N316 C313 1.384 . S
N317 C309 1.427 . S
N317 C315 1.384 . S
H318 C324 0.930 . S
H319 C328 0.930 . S
H320 C333 0.929 1_545 S
H321 C331 0.929 1_565 S
H322 C326 0.929 . S
H323 C332 0.929 . S
C324 H318 0.930 . S
C324 C325 1.367 . S
C324 C332 1.378 . S
C325 C324 1.367 . S
C325 C333 1.433 . S
C326 H322 0.929 . S
C326 C328 1.378 . S
C326 C330 1.350 . S
C327 C330 1.463 1_565 S
C327 C332 1.350 . S
C327 N335 1.427 1_565 S
C328 H319 0.930 . S
C328 C326 1.378 . S
C328 C329 1.367 . S
C329 C328 1.367 . S
C329 C331 1.433 . S
C330 C326 1.350 . S
C330 C327 1.463 1_545 S
C330 N334 1.427 1_545 S
C331 H321 0.929 1_545 S
C331 C329 1.433 . S
C331 N334 1.384 1_545 S
C332 H323 0.929 . S
C332 C324 1.378 . S
C332 C327 1.350 . S
C333 H320 0.929 1_565 S
C333 C325 1.433 . S
C333 N335 1.384 1_565 S
N334 C330 1.427 1_565 S
N334 C331 1.384 1_565 S
N335 C327 1.427 1_545 S
N335 C333 1.384 1_545 S
H336 C342 0.930 . S
H337 C346 0.930 . S
H338 C351 0.929 . S
H339 C349 0.929 . S
H340 C344 0.929 . S
H341 C350 0.929 . S
C342 H336 0.930 . S
C342 C343 1.367 . S
C342 C350 1.378 . S
C343 C342 1.367 . S
C343 C351 1.433 . S
C344 H340 0.929 . S
C344 C346 1.378 . S
C344 C348 1.350 . S
C345 C348 1.463 . S
C345 C350 1.350 . S
C345 N353 1.427 . S
C346 H337 0.930 . S
C346 C344 1.378 . S
C346 C347 1.367 . S
C347 C346 1.367 . S
C347 C349 1.433 . S
C348 C344 1.350 . S
C348 C345 1.463 . S
C348 N352 1.427 . S
C349 H339 0.929 . S
C349 C347 1.433 . S
C349 N352 1.384 . S
C350 H341 0.929 . S
C350 C342 1.378 . S
C350 C345 1.350 . S
C351 H338 0.929 . S
C351 C343 1.433 . S
C351 N353 1.384 . S
N352 C348 1.427 . S
N352 C349 1.384 . S
N353 C345 1.427 . S
N353 C351 1.384 . S
H354 C360 0.930 . S
H355 C364 0.930 . S
H356 C369 0.929 1_455 S
H357 C367 0.929 . S
H358 C362 0.929 . S
H359 C368 0.929 . S
C360 H354 0.930 . S
C360 C361 1.367 . S
C360 C368 1.378 . S
C361 C360 1.367 . S
C361 C369 1.433 . S
C362 H358 0.929 . S
C362 C364 1.378 . S
C362 C366 1.350 . S
C363 C366 1.461 1_655 S
C363 C368 1.353 . S
C363 N371 1.426 1_655 S
C364 H355 0.930 . S
C364 C362 1.378 . S
C364 C365 1.367 . S
C365 C364 1.367 . S
C365 C367 1.433 . S
C366 C362 1.350 . S
C366 C363 1.461 1_455 S
C366 N370 1.427 . S
C367 H357 0.929 . S
C367 C365 1.433 . S
C367 N370 1.384 . S
C368 H359 0.929 . S
C368 C360 1.378 . S
C368 C363 1.353 . S
C369 H356 0.929 1_655 S
C369 C361 1.433 . S
C369 N371 1.384 1_655 S
N370 C366 1.427 . S
N370 C367 1.384 . S
N371 C363 1.426 1_455 S
N371 C369 1.384 1_455 S
H372 C378 0.930 1_545 S
H373 C382 0.930 . S
H374 C387 0.929 . S
H375 C385 0.929 . S
H376 C380 0.929 1_565 S
H377 C386 0.929 . S
C378 H372 0.930 1_565 S
C378 C379 1.367 . S
C378 C386 1.378 1_565 S
C379 C378 1.367 . S
C379 C387 1.433 . S
C380 H376 0.929 1_545 S
C380 C382 1.378 . S
C380 C384 1.350 . S
C381 C384 1.463 . S
C381 C386 1.350 . S
C381 N389 1.427 1_545 S
C382 H373 0.930 . S
C382 C380 1.378 . S
C382 C383 1.367 . S
C383 C382 1.367 . S
C383 C385 1.433 . S
C384 C380 1.350 . S
C384 C381 1.463 . S
C384 N388 1.427 . S
C385 H375 0.929 . S
C385 C383 1.433 . S
C385 N388 1.384 . S
C386 H377 0.929 . S
C386 C378 1.378 1_545 S
C386 C381 1.350 . S
C387 H374 0.929 . S
C387 C379 1.433 . S
C387 N389 1.384 . S
N388 C384 1.427 . S
N388 C385 1.384 . S
N389 C381 1.427 1_565 S
N389 C387 1.384 . S
H390 C396 0.930 . S
H391 C400 0.930 . S
H392 C405 0.929 . S
H393 C403 0.929 . S
H394 C398 0.929 . S
H395 C404 0.929 . S
C396 H390 0.930 . S
C396 C397 1.367 . S
C396 C404 1.378 . S
C397 C396 1.367 . S
C397 C405 1.433 . S
C398 H394 0.929 . S
C398 C400 1.378 . S
C398 C402 1.350 . S
C399 C402 1.463 . S
C399 C404 1.350 . S
C399 N407 1.427 . S
C400 H391 0.930 . S
C400 C398 1.378 . S
C400 C401 1.367 . S
C401 C400 1.367 . S
C401 C403 1.433 . S
C402 C398 1.350 . S
C402 C399 1.463 . S
C402 N406 1.427 . S
C403 H393 0.929 . S
C403 C401 1.433 . S
C403 N406 1.384 . S
C404 H395 0.929 . S
C404 C396 1.378 . S
C404 C399 1.350 . S
C405 H392 0.929 . S
C405 C397 1.433 . S
C405 N407 1.384 . S
N406 C402 1.427 . S
N406 C403 1.384 . S
N407 C399 1.427 . S
N407 C405 1.384 . S
H408 C414 0.930 . S
H409 C418 0.930 . S
H410 C423 0.929 . S
H411 C421 0.929 . S
H412 C416 0.929 1_455 S
H413 C422 0.929 . S
C414 H408 0.930 . S
C414 C415 1.367 . S
C414 C422 1.378 1_455 S
C415 C414 1.367 . S
C415 C423 1.433 . S
C416 H412 0.929 1_655 S
C416 C418 1.378 . S
C416 C420 1.350 . S
C417 C420 1.463 . S
C417 C422 1.350 . S
C417 N425 1.427 1_655 S
C418 H409 0.930 . S
C418 C416 1.378 . S
C418 C419 1.367 . S
C419 C418 1.367 . S
C419 C421 1.433 . S
C420 C416 1.350 . S
C420 C417 1.463 . S
C420 N424 1.427 . S
C421 H411 0.929 . S
C421 C419 1.433 . S
C421 N424 1.384 . S
C422 H413 0.929 . S
C422 C414 1.378 1_655 S
C422 C417 1.350 . S
C423 H410 0.929 . S
C423 C415 1.433 . S
C423 N425 1.384 . S
N424 C420 1.427 . S
N424 C421 1.384 . S
N425 C417 1.427 1_455 S
N425 C423 1.384 . S
H426 C432 0.930 . S
H427 C436 0.930 . S
H428 C441 0.929 . S
H429 C439 0.929 . S
H430 C434 0.929 . S
H431 C440 0.929 . S
C432 H426 0.930 . S
C432 C433 1.367 . S
C432 C440 1.378 . S
C433 C432 1.367 . S
C433 C441 1.433 . S
C434 H430 0.929 . S
C434 C436 1.378 . S
C434 C438 1.350 . S
C435 C438 1.463 1_545 S
C435 C440 1.349 . S
C435 N443 1.427 1_545 S
C436 H427 0.930 . S
C436 C434 1.378 . S
C436 C437 1.367 . S
C437 C436 1.367 . S
C437 C439 1.433 . S
C438 C434 1.350 . S
C438 C435 1.463 1_565 S
C438 N442 1.427 . S
C439 H429 0.929 . S
C439 C437 1.433 . S
C439 N442 1.384 . S
C440 H431 0.929 . S
C440 C432 1.378 . S
C440 C435 1.349 . S
C441 H428 0.929 . S
C441 C433 1.433 . S
C441 N443 1.384 1_545 S
N442 C438 1.427 . S
N442 C439 1.384 . S
N443 C435 1.427 1_565 S
N443 C441 1.384 1_565 S
C127 C99 1.242 . S
C131 C2 1.235 . S
C145 C119 1.238 . S
C149 C22 1.235 . S
C163 C19 1.240 . S
C167 C42 1.238 . S
C181 C39 1.244 . S
C185 C62 1.229 . S
C199 C59 1.240 . S
C203 C82 1.231 . S
C217 C79 1.239 . S
C221 C102 1.233 . S
C235 C8 0.755 . S
C239 C68 0.754 . S
C253 C88 0.736 . S
C257 C28 0.737 . S
C271 C108 0.719 . S
C275 C48 0.719 . S
C289 C49 0.740 . S
C293 C109 0.741 . S
C307 C9 0.742 . S
C311 C69 0.742 . S
C325 C89 0.736 . S
C329 C29 0.736 . S
C343 C118 1.293 . S
C347 C1 1.286 . S
C361 C21 1.291 . S
C365 C18 1.294 . S
C379 C41 1.286 . S
C383 C38 1.293 . S
C397 C58 1.294 . S
C401 C61 1.291 . S
C415 C81 1.285 . S
C419 C78 1.295 . S
C433 C101 1.290 . S
C437 C98 1.294 . S
