# Generated by pormake.
# Topology atn, (4)-cn, num edge types: 1
# Building blocks:
#     Node 0, Type 0, BuildingBlock: TATPOV_clean_sbu_0, # of connection points: 4
#     Node 1, Type 0, BuildingBlock: TATPOV_clean_sbu_0, # of connection points: 4
#     Node 2, Type 0, BuildingBlock: TATPOV_clean_sbu_0, # of connection points: 4
#     Node 3, Type 0, BuildingBlock: TATPOV_clean_sbu_0, # of connection points: 4
#     Node 4, Type 0, BuildingBlock: TATPOV_clean_sbu_0, # of connection points: 4
#     Node 5, Type 0, BuildingBlock: TATPOV_clean_sbu_0, # of connection points: 4
#     Node 6, Type 0, BuildingBlock: TATPOV_clean_sbu_0, # of connection points: 4
#     Node 7, Type 0, BuildingBlock: TATPOV_clean_sbu_0, # of connection points: 4
#     Node 8, Type 0, BuildingBlock: TATPOV_clean_sbu_0, # of connection points: 4
#     Node 9, Type 0, BuildingBlock: TATPOV_clean_sbu_0, # of connection points: 4
#     Node 10, Type 0, BuildingBlock: TATPOV_clean_sbu_0, # of connection points: 4
#     Node 11, Type 0, BuildingBlock: TATPOV_clean_sbu_0, # of connection points: 4
#     Node 12, Type 0, BuildingBlock: TATPOV_clean_sbu_0, # of connection points: 4
#     Node 13, Type 0, BuildingBlock: TATPOV_clean_sbu_0, # of connection points: 4
#     Node 14, Type 0, BuildingBlock: TATPOV_clean_sbu_0, # of connection points: 4
#     Node 15, Type 0, BuildingBlock: TATPOV_clean_sbu_0, # of connection points: 4
#     Edge 16, Type (0, 0), BuildingBlock: EZIPEK_clean_linker_0, # of connection points: 2
#     Edge 17, Type (0, 0), BuildingBlock: EZIPEK_clean_linker_0, # of connection points: 2
#     Edge 18, Type (0, 0), BuildingBlock: EZIPEK_clean_linker_0, # of connection points: 2
#     Edge 19, Type (0, 0), BuildingBlock: EZIPEK_clean_linker_0, # of connection points: 2
#     Edge 20, Type (0, 0), BuildingBlock: EZIPEK_clean_linker_0, # of connection points: 2
#     Edge 21, Type (0, 0), BuildingBlock: EZIPEK_clean_linker_0, # of connection points: 2
#     Edge 22, Type (0, 0), BuildingBlock: EZIPEK_clean_linker_0, # of connection points: 2
#     Edge 23, Type (0, 0), BuildingBlock: EZIPEK_clean_linker_0, # of connection points: 2
#     Edge 24, Type (0, 0), BuildingBlock: EZIPEK_clean_linker_0, # of connection points: 2
#     Edge 25, Type (0, 0), BuildingBlock: EZIPEK_clean_linker_0, # of connection points: 2
#     Edge 26, Type (0, 0), BuildingBlock: EZIPEK_clean_linker_0, # of connection points: 2
#     Edge 27, Type (0, 0), BuildingBlock: EZIPEK_clean_linker_0, # of connection points: 2
#     Edge 28, Type (0, 0), BuildingBlock: EZIPEK_clean_linker_0, # of connection points: 2
#     Edge 29, Type (0, 0), BuildingBlock: EZIPEK_clean_linker_0, # of connection points: 2
#     Edge 30, Type (0, 0), BuildingBlock: EZIPEK_clean_linker_0, # of connection points: 2
#     Edge 31, Type (0, 0), BuildingBlock: EZIPEK_clean_linker_0, # of connection points: 2
#     Edge 32, Type (0, 0), BuildingBlock: EZIPEK_clean_linker_0, # of connection points: 2
#     Edge 33, Type (0, 0), BuildingBlock: EZIPEK_clean_linker_0, # of connection points: 2
#     Edge 34, Type (0, 0), BuildingBlock: EZIPEK_clean_linker_0, # of connection points: 2
#     Edge 35, Type (0, 0), BuildingBlock: EZIPEK_clean_linker_0, # of connection points: 2
#     Edge 36, Type (0, 0), BuildingBlock: EZIPEK_clean_linker_0, # of connection points: 2
#     Edge 37, Type (0, 0), BuildingBlock: EZIPEK_clean_linker_0, # of connection points: 2
#     Edge 38, Type (0, 0), BuildingBlock: EZIPEK_clean_linker_0, # of connection points: 2
#     Edge 39, Type (0, 0), BuildingBlock: EZIPEK_clean_linker_0, # of connection points: 2
#     Edge 40, Type (0, 0), BuildingBlock: EZIPEK_clean_linker_0, # of connection points: 2
#     Edge 41, Type (0, 0), BuildingBlock: EZIPEK_clean_linker_0, # of connection points: 2
#     Edge 42, Type (0, 0), BuildingBlock: EZIPEK_clean_linker_0, # of connection points: 2
#     Edge 43, Type (0, 0), BuildingBlock: EZIPEK_clean_linker_0, # of connection points: 2
#     Edge 44, Type (0, 0), BuildingBlock: EZIPEK_clean_linker_0, # of connection points: 2
#     Edge 45, Type (0, 0), BuildingBlock: EZIPEK_clean_linker_0, # of connection points: 2
#     Edge 46, Type (0, 0), BuildingBlock: EZIPEK_clean_linker_0, # of connection points: 2
#     Edge 47, Type (0, 0), BuildingBlock: EZIPEK_clean_linker_0, # of connection points: 2
# Relax obj value: 0.073
# Max RMSD: 0.104
# Mean RMSD: 0.104
data_MOF--net-atn--node1-TATPOV_clean_sbu_0--edge1-EZIPEK_clean_linker_0
_symmetry_space_group_name_H-M    P1
_symmetry_Int_Tables_number       1
_symmetry_cell_setting            triclinic
loop_
_symmetry_equiv_pos_as_xyz
'x, y, z'
_cell_length_a     45.336346
_cell_length_b     45.376407
_cell_length_c     19.41283
_cell_angle_alpha  89.878801
_cell_angle_beta   90.196542
_cell_angle_gamma 89.932162
loop_
_atom_site_label
_atom_site_type_symbol
_atom_site_fract_x
_atom_site_fract_y
_atom_site_fract_z
_atom_type_partial_charge
Zn0 Zn 0.17989 0.32354 0.89839 0.0
Zn1 Zn 0.20068 0.37591 0.94272 0.0
O2 O 0.17923 0.38554 0.85166 0.0
O3 O 0.16426 0.34256 0.81259 0.0
O4 O 0.20981 0.41655 0.97853 0.0
O5 O 0.15406 0.3187 0.98186 0.0
O6 O 0.17606 0.35861 0.02114 0.0
C7 C 0.16663 0.37017 0.80541 0.0
C8 C 0.24403 0.32641 0.92029 0.0
O9 O 0.24003 0.35364 0.93354 0.0
O10 O 0.22244 0.30999 0.90454 0.0
C11 C 0.22945 0.43373 0.95486 0.0
O12 O 0.24695 0.42472 0.9054 0.0
C13 C 0.15887 0.33677 0.03012 0.0
Zn14 Zn 0.6708 0.2159 0.97404 0.0
Zn15 Zn 0.61311 0.2186 0.00068 0.0
O16 O 0.6152 0.19614 0.908 0.0
O17 O 0.66298 0.19423 0.88755 0.0
O18 O 0.56978 0.21877 0.02216 0.0
O19 O 0.67803 0.19328 0.06083 0.0
O20 O 0.63026 0.19547 0.0822 0.0
C21 C 0.63677 0.18818 0.87041 0.0
C22 C 0.64985 0.27502 -0.00912 0.0
O23 O 0.62508 0.26269 0.00217 0.0
O24 O 0.67227 0.25978 0.97577 0.0
C25 C 0.55078 0.22938 0.98075 0.0
O26 O 0.55943 0.24147 0.92271 0.0
C27 C 0.65622 0.18725 0.09862 0.0
Zn28 Zn 0.79246 0.67704 0.94984 0.0
Zn29 Zn 0.79233 0.61942 0.97957 0.0
O30 O 0.81798 0.62171 0.89202 0.0
O31 O 0.81629 0.66899 0.86585 0.0
O32 O 0.79349 0.57695 0.00528 0.0
O33 O 0.81311 0.68574 0.03909 0.0
O34 O 0.80946 0.63859 0.06539 0.0
C35 C 0.82501 0.64312 0.85284 0.0
C36 C 0.73409 0.65156 0.95977 0.0
O37 O 0.74793 0.62758 0.97035 0.0
O38 O 0.74798 0.67529 0.94875 0.0
C39 C 0.78001 0.55796 0.96921 0.0
O40 O 0.76569 0.56622 0.91348 0.0
C41 C 0.81669 0.66477 0.08136 0.0
Zn42 Zn 0.31002 0.82524 0.01636 0.0
Zn43 Zn 0.3661 0.8047 0.00949 0.0
O44 O 0.35811 0.81711 0.91003 0.0
O45 O 0.31224 0.83352 0.91454 0.0
O46 O 0.40843 0.79242 0.01028 0.0
O47 O 0.32266 0.85659 0.08398 0.0
O48 O 0.36724 0.83824 0.07904 0.0
C49 C 0.33548 0.82815 0.88083 0.0
C50 C 0.3164 0.76315 0.05051 0.0
O51 O 0.34359 0.76757 0.03806 0.0
O52 O 0.298 0.78417 0.04739 0.0
C53 C 0.42033 0.77469 0.96821 0.0
O54 O 0.40444 0.76247 0.91933 0.0
C55 C 0.34949 0.85748 0.10217 0.0
Zn56 Zn 0.17664 0.66898 0.02848 0.0
Zn57 Zn 0.20303 0.61621 0.01285 0.0
O58 O 0.1722 0.60985 0.08876 0.0
O59 O 0.14856 0.65183 0.09729 0.0
O60 O 0.217 0.57489 -0.00653 0.0
O61 O 0.16586 0.67133 0.92871 0.0
O62 O 0.18832 0.62849 0.91701 0.0
C63 C 0.15174 0.62522 0.11553 0.0
C64 C 0.24011 0.66799 0.05832 0.0
O65 O 0.23885 0.64066 0.04354 0.0
O66 O 0.21696 0.6837 0.05709 0.0
C67 C 0.22447 0.55598 0.03866 0.0
O68 O 0.22567 0.56354 0.10386 0.0
C69 C 0.17431 0.65022 0.8913 0.0
Zn70 Zn 0.31199 0.17539 0.00765 0.0
Zn71 Zn 0.36905 0.18897 0.00489 0.0
O72 O 0.3639 0.17481 0.10491 0.0
O73 O 0.31587 0.16792 0.10915 0.0
O74 O 0.41232 0.19771 -0.00304 0.0
O75 O 0.31824 0.14203 0.94078 0.0
O76 O 0.36436 0.1558 0.93427 0.0
C77 C 0.34082 0.16801 0.13863 0.0
C78 C 0.32204 0.23534 0.96848 0.0
O79 O 0.34894 0.22866 0.9799 0.0
O80 O 0.30199 0.21613 0.97411 0.0
C81 C 0.4259 0.21655 0.03344 0.0
O82 O 0.41155 0.23167 0.08026 0.0
C83 C 0.34382 0.13827 0.91644 0.0
Zn84 Zn 0.7918 0.31665 0.04373 0.0
Zn85 Zn 0.79485 0.37509 0.03079 0.0
O86 O 0.81822 0.36823 0.12028 0.0
O87 O 0.81624 0.31988 0.12961 0.0
O88 O 0.79619 0.41848 0.0162 0.0
O89 O 0.81107 0.31218 0.95113 0.0
O90 O 0.8159 0.36039 0.94499 0.0
C91 C 0.82471 0.34459 0.15238 0.0
C92 C 0.73493 0.34361 0.03951 0.0
O93 O 0.74991 0.3671 0.03179 0.0
O94 O 0.74773 0.3191 0.04817 0.0
C95 C 0.78113 0.43593 0.05297 0.0
O96 O 0.76536 0.42557 0.10424 0.0
C97 C 0.81972 0.33493 0.91929 0.0
Zn98 Zn 0.66376 0.783 0.00511 0.0
Zn99 Zn 0.60706 0.77499 0.98135 0.0
O100 O 0.60894 0.80132 0.06874 0.0
O101 O 0.65646 0.80692 0.08816 0.0
O102 O 0.5637 0.77282 0.96281 0.0
O103 O 0.66927 0.8024 0.91398 0.0
O104 O 0.62259 0.79264 0.89155 0.0
C105 C 0.63 0.81183 0.10472 0.0
C106 C 0.64655 0.7218 0.00083 0.0
O107 O 0.62067 0.7318 -0.0097 0.0
O108 O 0.66803 0.73912 0.01033 0.0
C109 C 0.54598 0.7602 0.00383 0.0
O110 O 0.55618 0.7469 0.05917 0.0
C111 C 0.64758 0.80249 0.87289 0.0
Zn112 Zn 0.6973 0.81193 0.4582 0.0
Zn113 Zn 0.69826 0.86971 0.48109 0.0
O114 O 0.67142 0.86524 0.39555 0.0
O115 O 0.67263 0.81763 0.37418 0.0
O116 O 0.69767 0.91299 0.49753 0.0
O117 O 0.67791 0.8057 0.54966 0.0
O118 O 0.68195 0.85327 0.5708 0.0
C119 C 0.66381 0.84326 0.3589 0.0
C120 C 0.75598 0.83627 0.46321 0.0
O121 O 0.74258 0.86062 0.47204 0.0
O122 O 0.74166 0.81263 0.4547 0.0
C123 C 0.70996 0.93025 0.45496 0.0
O124 O 0.72289 0.91953 0.39996 0.0
C125 C 0.67483 0.82742 0.58979 0.0
Zn126 Zn 0.18307 0.6731 0.46063 0.0
Zn127 Zn 0.12726 0.69296 0.47974 0.0
O128 O 0.12283 0.66159 0.40494 0.0
O129 O 0.1675 0.64428 0.39021 0.0
O130 O 0.08542 0.70485 0.49733 0.0
O131 O 0.18555 0.66123 0.56034 0.0
O132 O 0.1403 0.67816 0.57439 0.0
C133 C 0.14023 0.64353 0.37587 0.0
C134 C 0.17498 0.73615 0.43662 0.0
O135 O 0.14805 0.73105 0.45057 0.0
O136 O 0.19363 0.71532 0.43583 0.0
C137 C 0.06913 0.71574 0.45043 0.0
O138 O 0.08 0.72054 0.3888 0.0
C139 C 0.16357 0.66628 0.59852 0.0
Zn140 Zn 0.31577 0.16209 0.56513 0.0
Zn141 Zn 0.28698 0.11859 0.53375 0.0
O142 O 0.31541 0.12081 0.45264 0.0
O143 O 0.32402 0.16805 0.46304 0.0
O144 O 0.26353 0.08173 0.51385 0.0
O145 O 0.34358 0.13957 0.62627 0.0
O146 O 0.30655 0.10896 0.62735 0.0
C147 C 0.32442 0.14491 0.42675 0.0
C148 C 0.25766 0.17666 0.56723 0.0
O149 O 0.25775 0.15378 0.52925 0.0
O150 O 0.27942 0.18109 0.60669 0.0
C151 C 0.27896 0.05833 0.51244 0.0
O152 O 0.3075 0.05993 0.52348 0.0
C153 C 0.33121 0.11722 0.65225 0.0
Zn154 Zn 0.82739 0.28232 0.5214 0.0
Zn155 Zn 0.88477 0.27152 0.53011 0.0
O156 O 0.88076 0.2973 0.44232 0.0
O157 O 0.83308 0.30638 0.43683 0.0
O158 O 0.92862 0.26633 0.54047 0.0
O159 O 0.82691 0.30069 0.61423 0.0
O160 O 0.87474 0.29258 0.62071 0.0
C161 C 0.85869 0.30911 0.41209 0.0
C162 C 0.84101 0.22077 0.51592 0.0
O163 O 0.86773 0.22913 0.52241 0.0
O164 O 0.82021 0.23931 0.51341 0.0
C165 C 0.94534 0.25934 0.49076 0.0
O166 O 0.9338 0.25318 0.43036 0.0
C167 C 0.85095 0.30219 0.64716 0.0
Zn168 Zn 0.69145 0.16542 0.48955 0.0
Zn169 Zn 0.69465 0.11511 0.49765 0.0
O170 O 0.67097 0.12104 0.58597 0.0
O171 O 0.66938 0.16924 0.57913 0.0
O172 O 0.69302 0.07215 0.47692 0.0
O173 O 0.67377 0.13682 0.40816 0.0
O174 O 0.67486 0.13663 0.40961 0.0
C175 C 0.6633 0.14571 0.6112 0.0
C176 C 0.75112 0.14916 0.50242 0.0
O177 O 0.73905 0.12402 0.50879 0.0
O178 O 0.73541 0.17175 0.49154 0.0
C179 C 0.70763 0.05462 0.51492 0.0
O180 O 0.72273 0.06494 0.56744 0.0
C181 C 0.68986 0.13354 0.35518 0.0
Zn182 Zn 0.8269 0.70369 0.4977 0.0
Zn183 Zn 0.88378 0.71237 0.47989 0.0
O184 O 0.88048 0.68472 0.56497 0.0
O185 O 0.83287 0.67812 0.57923 0.0
O186 O 0.92748 0.71451 0.46634 0.0
O187 O 0.82277 0.68648 0.40389 0.0
O188 O 0.8698 0.69638 0.38698 0.0
C189 C 0.85913 0.67332 0.59815 0.0
C190 C 0.84367 0.76502 0.50006 0.0
O191 O 0.86975 0.75539 0.49057 0.0
O192 O 0.82227 0.74738 0.50683 0.0
C193 C 0.94455 0.73165 0.49921 0.0
O194 O 0.93373 0.75005 0.54474 0.0
C195 C 0.84506 0.68709 0.36495 0.0
Zn196 Zn 0.31915 0.82944 0.45033 0.0
Zn197 Zn 0.29212 0.8814 0.4744 0.0
O198 O 0.30951 0.86866 0.5676 0.0
O199 O 0.33255 0.8266 0.54836 0.0
O200 O 0.27857 0.92295 0.49269 0.0
O201 O 0.34505 0.84764 0.37846 0.0
O202 O 0.32048 0.88864 0.39421 0.0
C203 C 0.32465 0.84682 0.58903 0.0
C204 C 0.25487 0.82927 0.43267 0.0
O205 O 0.25592 0.85641 0.44942 0.0
O206 O 0.27829 0.81416 0.42744 0.0
C207 C 0.25849 0.93678 0.46016 0.0
O208 O 0.2422 0.92295 0.41445 0.0
C209 C 0.3405 0.87436 0.36296 0.0
Zn210 Zn 0.17537 0.33124 0.43801 0.0
Zn211 Zn 0.12342 0.30703 0.4635 0.0
O212 O 0.12543 0.34301 0.5274 0.0
O213 O 0.16813 0.36359 0.50644 0.0
O214 O 0.08154 0.2936 0.47502 0.0
O215 O 0.1665 0.33717 0.33853 0.0
O216 O 0.1247 0.31394 0.35836 0.0
C217 C 0.14403 0.36345 0.53916 0.0
C218 C 0.17813 0.27156 0.49541 0.0
O219 O 0.15014 0.27351 0.49897 0.0
O220 O 0.19297 0.29251 0.4696 0.0
C221 C 0.07204 0.27083 0.50594 0.0
O222 O 0.09054 0.25276 0.53666 0.0
C223 C 0.14257 0.32634 0.31698 0.0
C224 C 0.25292 0.50851 0.02652 0.0
C225 C 0.22618 0.5245 0.01884 0.0
C226 C 0.20335 0.48215 0.96175 0.0
C227 C 0.22904 0.46519 0.97519 0.0
N228 N 0.27703 0.46066 0.02801 0.0
N229 N 0.17399 0.5245 -0.00675 0.0
C230 C 0.25357 0.47795 0.00956 0.0
C231 C 0.20083 0.51075 -0.00962 0.0
N232 N 0.27787 0.52274 0.04788 0.0
N233 N 0.18178 0.47141 0.91925 0.0
H234 H 0.17092 0.54518 0.01547 0.0
H235 H 0.15427 0.51416 0.98001 0.0
H236 H 0.18305 0.45083 0.8956 0.0
H237 H 0.16408 0.48409 0.9018 0.0
H238 H 0.29875 0.51316 0.04746 0.0
H239 H 0.27808 0.545 0.0612 0.0
H240 H 0.29415 0.46786 0.05962 0.0
H241 H 0.2783 0.43831 0.01594 0.0
C242 C 0.47698 0.19568 0.02962 0.0
C243 C 0.45808 0.22051 0.02409 0.0
C244 C 0.50074 0.25191 -0.00091 0.0
C245 C 0.51892 0.22646 -0.00387 0.0
N246 N 0.52308 0.17336 -0.00463 0.0
N247 N 0.45112 0.27159 -0.0073 0.0
C248 C 0.50674 0.1981 0.00796 0.0
C249 C 0.46971 0.24853 0.00615 0.0
N250 N 0.46679 0.17 0.05773 0.0
N251 N 0.51318 0.27933 -0.00248 0.0
H252 H 0.42824 0.26998 -0.00378 0.0
H253 H 0.45821 0.29156 0.97207 0.0
H254 H 0.53585 0.28272 -0.00661 0.0
H255 H 0.50134 0.29859 0.00683 0.0
H256 H 0.48043 0.15217 0.06946 0.0
H257 H 0.44532 0.16756 0.07606 0.0
H258 H 0.51423 0.15218 -0.00387 0.0
H259 H 0.5447 0.17401 0.97729 0.0
C260 C 0.80736 0.48338 0.03094 0.0
C261 C 0.78047 0.46758 0.03528 0.0
C262 C 0.75303 0.51209 0.00358 0.0
C263 C 0.7801 0.52678 -0.00891 0.0
N264 N 0.83314 0.52475 0.98059 0.0
N265 N 0.72803 0.46522 0.01279 0.0
C266 C 0.80735 0.512 0.0015 0.0
C267 C 0.75332 0.48145 0.01826 0.0
N268 N 0.83277 0.47141 0.05692 0.0
N269 N 0.72712 0.52755 0.00412 0.0
H270 H 0.72729 0.44255 0.02142 0.0
H271 H 0.70836 0.47374 -0.00676 0.0
H272 H 0.72597 0.55019 -0.00482 0.0
H273 H 0.70719 0.51846 0.02013 0.0
H274 H 0.8524 0.48317 0.06144 0.0
H275 H 0.83353 0.45072 0.0804 0.0
H276 H 0.85327 0.51365 0.98042 0.0
H277 H 0.83404 0.54539 0.95696 0.0
C278 C 0.50139 0.79202 0.98825 0.0
C279 C 0.51384 0.76338 -0.0071 0.0
C280 C 0.46458 0.74157 0.98217 0.0
C281 C 0.45261 0.77015 0.97159 0.0
N282 N 0.46063 0.82172 0.94735 0.0
N283 N 0.5083 0.71074 0.98154 0.0
C284 C 0.47134 0.79513 0.96945 0.0
C285 C 0.49573 0.73805 0.9862 0.0
N286 N 0.51781 0.81624 0.0051 0.0
N287 N 0.44625 0.71801 -0.00853 0.0
H288 H 0.53104 0.70733 0.98382 0.0
H289 H 0.49643 0.69181 0.96932 0.0
H290 H 0.42333 0.71968 0.98928 0.0
H291 H 0.45366 0.69729 0.00696 0.0
H292 H 0.50884 0.8373 0.00954 0.0
H293 H 0.53966 0.81498 0.02176 0.0
H294 H 0.47405 0.83994 0.93829 0.0
H295 H 0.4389 0.82473 0.93092 0.0
C296 C 0.73559 0.0089 0.48449 0.0
C297 C 0.70828 0.02287 0.49877 0.0
C298 C 0.68203 0.97701 0.47393 0.0
C299 C 0.7095 0.96229 0.46761 0.0
N300 N 0.76258 0.96294 0.47852 0.0
N301 N 0.65588 0.01928 0.51889 0.0
C302 C 0.73638 0.97787 0.4759 0.0
C303 C 0.68155 0.0067 0.49661 0.0
N304 N 0.76059 0.02537 0.47642 0.0
N305 N 0.65648 0.96296 0.45595 0.0
H306 H 0.65466 0.04084 0.53718 0.0
H307 H 0.63637 0.0075 0.52538 0.0
H308 H 0.65598 0.94136 0.43772 0.0
H309 H 0.63615 0.97361 0.45268 0.0
H310 H 0.78043 0.01665 0.45874 0.0
H311 H 0.76088 0.04826 0.48094 0.0
H312 H 0.78248 0.97284 0.49209 0.0
H313 H 0.76413 0.94012 0.47335 0.0
C314 C 0.99374 0.75234 0.46444 0.0
C315 C 0.97678 0.72856 0.49044 0.0
C316 C 0.01976 0.69602 0.4843 0.0
C317 C 0.03736 0.72032 0.46376 0.0
N318 N 0.04253 0.77268 0.44585 0.0
N319 N 0.975 0.67979 0.54014 0.0
C320 C 0.02476 0.74884 0.45701 0.0
C321 C 0.9902 0.70097 0.50479 0.0
N322 N 0.9801 0.77784 0.44428 0.0
N323 N 0.03082 0.66799 0.48125 0.0
H324 H 0.95348 0.68282 0.55762 0.0
H325 H 0.98472 0.66045 0.55828 0.0
H326 H 0.05216 0.6632 0.46486 0.0
H327 H 0.01791 0.64926 0.48843 0.0
H328 H 0.99082 0.79467 0.41781 0.0
H329 H 0.95745 0.78125 0.44905 0.0
H330 H 0.03502 0.79436 0.4478 0.0
H331 H 0.06535 0.77099 0.44055 0.0
C332 C 0.25734 0.01036 0.55107 0.0
C333 C 0.26569 0.02938 0.49659 0.0
C334 C 0.26356 0.98854 0.41456 0.0
C335 C 0.25616 0.96914 0.46952 0.0
N336 N 0.23863 0.96237 0.58532 0.0
N337 N 0.26898 0.03909 0.37512 0.0
C338 C 0.25063 0.98039 0.53638 0.0
C339 C 0.26603 0.01925 0.42773 0.0
N340 N 0.25686 0.02079 0.61706 0.0
N341 N 0.27034 0.9775 0.35106 0.0
H342 H 0.27109 0.06168 0.38367 0.0
H343 H 0.26657 0.03363 0.32334 0.0
H344 H 0.26872 0.95526 0.33862 0.0
H345 H 0.27953 0.99006 0.31169 0.0
H346 H 0.25459 0.00742 0.66034 0.0
H347 H 0.25993 0.04302 0.62867 0.0
H348 H 0.2317 0.96964 0.63344 0.0
H349 H 0.23313 0.94045 0.57537 0.0
C350 C 0.02159 0.2888 0.53496 0.0
C351 C 0.03979 0.26593 0.50928 0.0
C352 C 0.99581 0.23659 0.48271 0.0
C353 C 0.9778 0.26119 0.49907 0.0
N354 N 0.97415 0.31289 0.52824 0.0
N355 N 0.04439 0.21941 0.45002 0.0
C356 C 0.9908 0.28787 0.52224 0.0
C357 C 0.027 0.24003 0.48121 0.0
N358 N 0.03366 0.31113 0.57288 0.0
N359 N 0.9832 0.20976 0.47048 0.0
H360 H 0.06728 0.22115 0.44724 0.0
H361 H 0.03594 0.2018 0.42186 0.0
H362 H 0.96046 0.20632 0.4721 0.0
H363 H 0.99535 0.1904 0.46523 0.0
H364 H 0.02104 0.32683 0.59856 0.0
H365 H 0.0561 0.31215 0.58481 0.0
H366 H 0.98323 0.33356 0.5379 0.0
H367 H 0.95172 0.31375 0.51646 0.0
C368 C 0.28641 0.30862 -0.00663 0.0
C369 C 0.27342 0.3123 0.92712 0.0
C370 C 0.30273 0.27133 0.88216 0.0
C371 C 0.31309 0.26568 0.94979 0.0
N372 N 0.32331 0.28363 0.06366 0.0
N373 N 0.27593 0.30426 0.80512 0.0
C374 C 0.30804 0.28622 0.00317 0.0
C375 C 0.28415 0.29608 0.87018 0.0
N376 N 0.27634 0.3247 0.04793 0.0
N377 N 0.30955 0.2521 0.83053 0.0
H378 H 0.26253 0.3226 0.79601 0.0
H379 H 0.28425 0.2947 0.76053 0.0
H380 H 0.32434 0.23469 0.83777 0.0
H381 H 0.30012 0.2528 0.7816 0.0
H382 H 0.28203 0.32034 0.09893 0.0
H383 H 0.26119 0.34183 0.04278 0.0
H384 H 0.32257 0.29922 0.10287 0.0
H385 H 0.33897 0.26711 0.07183 0.0
C386 C 0.69068 0.34296 0.96448 0.0
C387 C 0.70249 0.34333 0.03202 0.0
C388 C 0.66062 0.31458 0.07329 0.0
C389 C 0.65488 0.30662 0.00425 0.0
N390 N 0.65736 0.31827 0.88437 0.0
N391 N 0.6956 0.33683 0.15329 0.0
C392 C 0.667 0.32338 0.94991 0.0
C393 C 0.68579 0.33222 0.08766 0.0
N394 N 0.70337 0.35985 0.91451 0.0
N395 N 0.64319 0.3035 0.12425 0.0
H396 H 0.7137 0.35042 0.16334 0.0
H397 H 0.68623 0.32739 0.19689 0.0
H398 H 0.62475 0.29061 0.11303 0.0
H399 H 0.64552 0.30873 0.17612 0.0
H400 H 0.69563 0.36125 0.86411 0.0
H401 H 0.72063 0.3743 0.92549 0.0
H402 H 0.66659 0.32763 0.84051 0.0
H403 H 0.63967 0.30409 0.87477 0.0
C404 C 0.69044 0.65564 0.0357 0.0
C405 C 0.70177 0.6535 0.96798 0.0
C406 C 0.65938 0.68091 0.92371 0.0
C407 C 0.65374 0.69035 -0.00825 0.0
N408 N 0.65791 0.68251 0.11316 0.0
N409 N 0.6945 0.65772 0.84609 0.0
C410 C 0.66678 0.6755 0.04812 0.0
C411 C 0.68482 0.66341 0.91123 0.0
N412 N 0.70341 0.63998 0.08774 0.0
N413 N 0.64143 0.69032 0.87156 0.0
H414 H 0.71265 0.64406 0.83718 0.0
H415 H 0.68505 0.66654 0.80169 0.0
H416 H 0.62277 0.70314 0.88107 0.0
H417 H 0.64352 0.68366 0.82056 0.0
H418 H 0.69572 0.63966 0.13816 0.0
H419 H 0.72068 0.6253 0.07881 0.0
H420 H 0.66809 0.67492 0.1579 0.0
H421 H 0.64003 0.69661 0.12152 0.0
C422 C 0.28957 0.68511 0.0183 0.0
C423 C 0.26851 0.68325 0.07183 0.0
C424 C 0.28975 0.72731 0.12551 0.0
C425 C 0.30522 0.73301 0.06359 0.0
N426 N 0.32024 0.71739 0.94989 0.0
N427 N 0.25151 0.69891 0.1829 0.0
C428 C 0.30597 0.71156 0.01036 0.0
C429 C 0.27 0.70299 0.12827 0.0
N430 N 0.29354 0.66196 0.97447 0.0
N431 N 0.29389 0.74539 0.18093 0.0
H432 H 0.23837 0.68012 0.18744 0.0
H433 H 0.24874 0.71402 0.22258 0.0
H434 H 0.3086 0.76307 0.1798 0.0
H435 H 0.28475 0.74169 0.22926 0.0
H436 H 0.3103 0.6612 0.93795 0.0
H437 H 0.28252 0.642 0.98006 0.0
H438 H 0.31817 0.70433 0.9061 0.0
H439 H 0.3326 0.73638 0.94137 0.0
C440 C 0.82341 0.81064 0.55004 0.0
C441 C 0.83626 0.79652 0.49277 0.0
C442 C 0.80499 0.8246 0.4139 0.0
C443 C 0.78829 0.83388 0.47126 0.0
N444 N 0.7867 0.84543 0.59191 0.0
N445 N 0.84799 0.79778 0.37249 0.0
C446 C 0.79971 0.83066 0.53886 0.0
C447 C 0.83035 0.80677 0.42528 0.0
N448 N 0.83253 0.80282 0.61462 0.0
N449 N 0.79514 0.8312 0.34915 0.0
H450 H 0.86656 0.78467 0.38118 0.0
H451 H 0.8457 0.80497 0.32183 0.0
H452 H 0.77704 0.84507 0.34112 0.0
H453 H 0.80441 0.82296 0.30419 0.0
H454 H 0.82259 0.80993 0.65985 0.0
H455 H 0.85042 0.78861 0.62208 0.0
H456 H 0.79432 0.84492 0.64249 0.0
H457 H 0.76931 0.86012 0.58381 0.0
C458 C 0.22067 0.79819 0.36365 0.0
C459 C 0.2264 0.81357 0.42568 0.0
C460 C 0.18665 0.78633 0.48264 0.0
C461 C 0.18589 0.76663 0.42597 0.0
N462 N 0.19895 0.75516 0.30911 0.0
N463 N 0.21503 0.82267 0.54531 0.0
C464 C 0.20159 0.77333 0.36485 0.0
C465 C 0.20884 0.80842 0.48495 0.0
N466 N 0.23387 0.80737 0.30418 0.0
N467 N 0.16683 0.78347 0.5351 0.0
H468 H 0.23065 0.83937 0.54956 0.0
H469 H 0.20597 0.81673 0.59255 0.0
H470 H 0.1506 0.76729 0.53622 0.0
H471 H 0.1645 0.79896 0.57421 0.0
H472 H 0.22939 0.79851 0.25588 0.0
H473 H 0.24763 0.82579 0.3027 0.0
H474 H 0.21219 0.75653 0.26554 0.0
H475 H 0.18367 0.73798 0.30747 0.0
C476 C 0.24346 0.23055 0.56273 0.0
C477 C 0.23513 0.20037 0.55718 0.0
C478 C 0.18672 0.21631 0.51328 0.0
C479 C 0.19461 0.24618 0.52556 0.0
N480 N 0.22595 0.27921 0.59014 0.0
N481 N 0.19501 0.16551 0.54692 0.0
C482 C 0.22136 0.25237 0.56026 0.0
C483 C 0.20551 0.19347 0.53874 0.0
N484 N 0.27238 0.23905 0.56364 0.0
N485 N 0.16245 0.20949 0.4747 0.0
H486 H 0.20748 0.14868 0.5693 0.0
H487 H 0.17292 0.16005 0.53919 0.0
H488 H 0.14847 0.22529 0.45333 0.0
H489 H 0.15775 0.18806 0.45888 0.0
H490 H 0.27864 0.26117 0.56332 0.0
H491 H 0.2899 0.22485 0.5538 0.0
H492 H 0.24462 0.28373 0.61985 0.0
H493 H 0.20956 0.29537 0.59222 0.0
C494 C 0.82356 0.17841 0.4483 0.0
C495 C 0.83264 0.18946 0.51292 0.0
C496 C 0.79631 0.15889 0.57179 0.0
C497 C 0.78338 0.15296 0.50684 0.0
N498 N 0.7886 0.14801 0.38457 0.0
N499 N 0.83589 0.18336 0.63504 0.0
C500 C 0.79879 0.15928 0.44532 0.0
C501 C 0.82209 0.1767 0.57447 0.0
N502 N 0.83736 0.18833 0.39034 0.0
N503 N 0.7826 0.14928 0.63018 0.0
H504 H 0.8547 0.19664 0.63615 0.0
H505 H 0.83017 0.17451 0.68259 0.0
H506 H 0.76411 0.13561 0.62828 0.0
H507 H 0.78925 0.15467 0.67989 0.0
H508 H 0.83088 0.1832 0.34035 0.0
H509 H 0.85589 0.20195 0.39334 0.0
H510 H 0.7988 0.15108 0.33722 0.0
H511 H 0.77045 0.13386 0.38282 0.0
C512 C 0.12871 0.35181 0.20747 0.0
C513 C 0.13738 0.32573 0.24214 0.0
C514 C 0.15553 0.30452 0.13501 0.0
C515 C 0.14742 0.33091 0.09996 0.0
N516 N 0.11945 0.37607 0.09787 0.0
N517 N 0.15029 0.27433 0.23736 0.0
C518 C 0.13166 0.35341 0.13471 0.0
C519 C 0.1475 0.30098 0.20502 0.0
N520 N 0.11872 0.37533 0.24456 0.0
N521 N 0.17318 0.28404 0.10389 0.0
H522 H 0.14508 0.27125 0.28918 0.0
H523 H 0.15486 0.2548 0.21134 0.0
H524 H 0.1808 0.28591 0.05357 0.0
H525 H 0.18259 0.26629 0.13006 0.0
H526 H 0.11534 0.39621 0.22364 0.0
H527 H 0.11494 0.3741 0.29752 0.0
H528 H 0.10568 0.39194 0.11929 0.0
H529 H 0.12097 0.37741 0.04431 0.0
C530 C 0.67558 0.12878 0.23131 0.0
C531 C 0.6804 0.14696 0.28953 0.0
C532 C 0.66424 0.19039 0.22474 0.0
C533 C 0.6617 0.1727 0.16507 0.0
N534 N 0.66721 0.12595 0.10785 0.0
N535 N 0.68675 0.19577 0.33685 0.0
C536 C 0.668 0.14209 0.16725 0.0
C537 C 0.67656 0.17798 0.28524 0.0
N538 N 0.67752 0.09883 0.23788 0.0
N539 N 0.65521 0.21917 0.22341 0.0
H540 H 0.69787 0.18771 0.37997 0.0
H541 H 0.68728 0.21867 0.33343 0.0
H542 H 0.64709 0.22952 0.17921 0.0
H543 H 0.65348 0.23211 0.26748 0.0
H544 H 0.67125 0.08412 0.19947 0.0
H545 H 0.68366 0.08847 0.28379 0.0
H546 H 0.67482 0.10436 0.10423 0.0
H547 H 0.66026 0.13473 0.06077 0.0
C548 C 0.81964 0.70071 0.25652 0.0
C549 C 0.84049 0.68254 0.29074 0.0
C550 C 0.84982 0.65612 0.18336 0.0
C551 C 0.82573 0.67133 0.15261 0.0
N552 N 0.78332 0.70335 0.16602 0.0
N553 N 0.87388 0.64117 0.28971 0.0
C554 C 0.80947 0.69245 0.19064 0.0
C555 C 0.85536 0.6598 0.25497 0.0
N556 N 0.81006 0.72629 0.28621 0.0
N557 N 0.86781 0.63892 0.14387 0.0
H558 H 0.87854 0.64344 0.34209 0.0
H559 H 0.88287 0.62224 0.26788 0.0
H560 H 0.86466 0.6362 0.091 0.0
H561 H 0.88731 0.62955 0.16214 0.0
H562 H 0.79703 0.74166 0.26016 0.0
H563 H 0.81777 0.73376 0.33378 0.0
H564 H 0.76936 0.71652 0.19542 0.0
H565 H 0.77385 0.69671 0.11959 0.0
C566 C 0.38008 0.8723 0.2738 0.0
C567 C 0.35465 0.88647 0.29995 0.0
C568 C 0.33886 0.89914 0.18385 0.0
C569 C 0.35863 0.87732 0.15957 0.0
N570 N 0.40859 0.85995 0.17194 0.0
N571 N 0.3226 0.92811 0.28211 0.0
C572 C 0.38305 0.86949 0.20142 0.0
C573 C 0.33818 0.90507 0.25564 0.0
N574 N 0.40027 0.86065 0.31843 0.0
N575 N 0.32065 0.9133 0.13853 0.0
H576 H 0.32441 0.93402 0.33387 0.0
H577 H 0.31093 0.94318 0.2521 0.0
H578 H 0.32323 0.91101 0.08536 0.0
H579 H 0.30346 0.92711 0.15327 0.0
H580 H 0.41772 0.84723 0.30333 0.0
H581 H 0.39895 0.8645 0.37137 0.0
H582 H 0.42759 0.8549 0.19981 0.0
H583 H 0.41162 0.86059 0.11869 0.0
C584 C 0.18557 0.67985 0.71153 0.0
C585 C 0.1663 0.66149 0.67322 0.0
C586 C 0.15112 0.63613 0.7788 0.0
C587 C 0.17192 0.65315 0.81606 0.0
N588 N 0.21305 0.6869 0.81723 0.0
N589 N 0.13358 0.61976 0.66691 0.0
C590 C 0.19035 0.67378 0.78222 0.0
C591 C 0.14979 0.63893 0.70586 0.0
N592 N 0.19835 0.70385 0.68101 0.0
N593 N 0.13216 0.618 0.81337 0.0
H594 H 0.13198 0.62141 0.6134 0.0
H595 H 0.12348 0.60099 0.68671 0.0
H596 H 0.133 0.61509 0.86668 0.0
H597 H 0.1144 0.60737 0.79016 0.0
H598 H 0.20988 0.7199 0.70828 0.0
H599 H 0.19529 0.70927 0.62922 0.0
H600 H 0.22922 0.69958 0.79339 0.0
H601 H 0.21738 0.68302 0.86929 0.0
C602 C 0.37015 0.11487 0.74461 0.0
C603 C 0.34232 0.10552 0.71943 0.0
C604 C 0.32489 0.09848 0.83675 0.0
C605 C 0.34837 0.11688 0.85889 0.0
N606 N 0.40056 0.12452 0.84564 0.0
N607 N 0.30285 0.07148 0.74118 0.0
C608 C 0.37366 0.11918 0.81661 0.0
C609 C 0.32264 0.09157 0.76552 0.0
N610 N 0.39256 0.12002 0.69946 0.0
N611 N 0.30518 0.08795 0.88366 0.0
H612 H 0.30367 0.06407 0.69038 0.0
H613 H 0.28813 0.0599 0.772 0.0
H614 H 0.30897 0.08976 0.93657 0.0
H615 H 0.28579 0.07704 0.87063 0.0
H616 H 0.41245 0.1299 0.71296 0.0
H617 H 0.39087 0.11399 0.6477 0.0
H618 H 0.42015 0.12558 0.81796 0.0
H619 H 0.40355 0.12446 0.89898 0.0
C620 C 0.82265 0.34746 0.79289 0.0
C621 C 0.8334 0.33147 0.85079 0.0
C622 C 0.86091 0.29855 0.77488 0.0
C623 C 0.85044 0.31483 0.7172 0.0
N624 N 0.8307 0.36053 0.67353 0.0
N625 N 0.87059 0.29899 0.89758 0.0
C626 C 0.83458 0.34136 0.72718 0.0
C627 C 0.85525 0.30943 0.84194 0.0
N628 N 0.79951 0.36663 0.79894 0.0
N629 N 0.87423 0.27176 0.76659 0.0
H630 H 0.86747 0.30721 0.94722 0.0
H631 H 0.88852 0.28473 0.89319 0.0
H632 H 0.87836 0.26228 0.71883 0.0
H633 H 0.87901 0.25773 0.80773 0.0
H634 H 0.78909 0.3762 0.7565 0.0
H635 H 0.78867 0.37086 0.84504 0.0
H636 H 0.8214 0.38138 0.67943 0.0
H637 H 0.8398 0.35678 0.62498 0.0
C638 C 0.67496 0.79214 0.76545 0.0
C639 C 0.65307 0.80884 0.79976 0.0
C640 C 0.64282 0.83606 0.69339 0.0
C641 C 0.66724 0.82179 0.66224 0.0
N642 N 0.71129 0.79206 0.67529 0.0
N643 N 0.61842 0.84921 0.80011 0.0
C644 C 0.68469 0.80146 0.70011 0.0
C645 C 0.6375 0.83151 0.76479 0.0
N646 N 0.6857 0.76667 0.79396 0.0
N647 N 0.62427 0.85308 0.65445 0.0
H648 H 0.61405 0.84641 0.85244 0.0
H649 H 0.60876 0.86801 0.77895 0.0
H650 H 0.6274 0.85663 0.60188 0.0
H651 H 0.60448 0.86162 0.67287 0.0
H652 H 0.69958 0.75233 0.7675 0.0
H653 H 0.67821 0.75813 0.84067 0.0
H654 H 0.72601 0.77948 0.70446 0.0
H655 H 0.72021 0.79949 0.62895 0.0
C656 C 0.87781 0.66733 0.71968 0.0
C657 C 0.86361 0.65524 0.66103 0.0
C658 C 0.83351 0.62328 0.73389 0.0
C659 C 0.84399 0.63901 0.79189 0.0
N660 N 0.88355 0.666 0.84433 0.0
N661 N 0.8389 0.61366 0.6114 0.0
C662 C 0.86899 0.65749 0.78599 0.0
C663 C 0.84543 0.63008 0.66826 0.0
N664 N 0.89789 0.68952 0.71249 0.0
N665 N 0.8107 0.60386 0.74053 0.0
H666 H 0.84773 0.61877 0.56318 0.0
H667 H 0.82735 0.59386 0.61319 0.0
H668 H 0.8021 0.59774 0.78813 0.0
H669 H 0.79969 0.59453 0.69881 0.0
H670 H 0.90579 0.70202 0.75346 0.0
H671 H 0.9066 0.6957 0.66511 0.0
H672 H 0.90322 0.67781 0.84415 0.0
H673 H 0.87712 0.65865 0.89306 0.0
C674 C 0.34921 0.85889 0.70138 0.0
C675 C 0.3284 0.84213 0.66353 0.0
C676 C 0.31635 0.81336 0.76619 0.0
C677 C 0.33488 0.83201 0.80558 0.0
N678 N 0.36703 0.87413 0.81391 0.0
N679 N 0.28848 0.80688 0.66092 0.0
C680 C 0.35097 0.85516 0.77407 0.0
C681 C 0.31098 0.82025 0.69614 0.0
N682 N 0.36764 0.87781 0.66756 0.0
N683 N 0.30459 0.78855 0.79532 0.0
H684 H 0.28359 0.81138 0.60941 0.0
H685 H 0.27295 0.79328 0.68431 0.0
H686 H 0.30828 0.78257 0.84658 0.0
H687 H 0.29352 0.77243 0.76722 0.0
H688 H 0.38534 0.88844 0.691 0.0
H689 H 0.36647 0.88132 0.61447 0.0
H690 H 0.37667 0.89333 0.79515 0.0
H691 H 0.36918 0.87166 0.86714 0.0
C692 C 0.16555 0.39894 0.62371 0.0
C693 C 0.14102 0.38223 0.60186 0.0
C694 C 0.12562 0.37617 0.72108 0.0
C695 C 0.15477 0.38368 0.74155 0.0
N696 N 0.20108 0.4076 0.71468 0.0
N697 N 0.09059 0.37065 0.62624 0.0
C698 C 0.174 0.39777 0.69412 0.0
C699 C 0.11843 0.37617 0.64972 0.0
N700 N 0.18046 0.41563 0.57686 0.0
N701 N 0.10571 0.3677 0.76988 0.0
H702 H 0.08525 0.37285 0.57409 0.0
H703 H 0.07256 0.36651 0.65778 0.0
H704 H 0.11045 0.36911 0.82247 0.0
H705 H 0.08483 0.35946 0.75893 0.0
H706 H 0.19749 0.42997 0.58995 0.0
H707 H 0.17321 0.41736 0.52586 0.0
H708 H 0.21734 0.41441 0.68042 0.0
H709 H 0.20774 0.40821 0.766 0.0
C710 C 0.61875 0.1818 0.74875 0.0
C711 C 0.63257 0.17005 0.80816 0.0
C712 C 0.65993 0.13458 0.73877 0.0
C713 C 0.64805 0.14797 0.67842 0.0
N714 N 0.60801 0.17533 0.62722 0.0
N715 N 0.65568 0.12841 0.86253 0.0
C716 C 0.6245 0.16849 0.68405 0.0
C717 C 0.6493 0.14382 0.80381 0.0
N718 N 0.60194 0.2067 0.75324 0.0
N719 N 0.68298 0.11521 0.73516 0.0
H720 H 0.64793 0.13509 0.91067 0.0
H721 H 0.66575 0.10776 0.86244 0.0
H722 H 0.69197 0.10758 0.68939 0.0
H723 H 0.69466 0.10804 0.77838 0.0
H724 H 0.59438 0.21833 0.71033 0.0
H725 H 0.59666 0.21653 0.80007 0.0
H726 H 0.58916 0.18845 0.62897 0.0
H727 H 0.61154 0.16522 0.57967 0.0
C728 C 0.84564 0.35235 0.34044 0.0
C729 C 0.86161 0.3256 0.34651 0.0
C730 C 0.86584 0.3239 0.22128 0.0
C731 C 0.8427 0.34479 0.2162 0.0
N732 N 0.81146 0.38092 0.27154 0.0
N733 N 0.88884 0.28628 0.29133 0.0
C734 C 0.83343 0.36035 0.27563 0.0
C735 C 0.87314 0.31191 0.28668 0.0
N736 N 0.84162 0.36948 0.39738 0.0
N737 N 0.88025 0.3152 0.16309 0.0
H738 H 0.89532 0.27685 0.3378 0.0
H739 H 0.89422 0.27348 0.24868 0.0
H740 H 0.87526 0.32411 0.11477 0.0
H741 H 0.89892 0.30178 0.16384 0.0
H742 H 0.83213 0.39039 0.39561 0.0
H743 H 0.8507 0.36382 0.44515 0.0
H744 H 0.80139 0.39002 0.3147 0.0
H745 H 0.80212 0.3879 0.22529 0.0
C746 C 0.61188 0.81636 0.22621 0.0
C747 C 0.62488 0.8295 0.16748 0.0
C748 C 0.65357 0.86293 0.23982 0.0
C749 C 0.64434 0.8465 0.29804 0.0
N750 N 0.60644 0.81735 0.35075 0.0
N751 N 0.64693 0.8724 0.11737 0.0
C752 C 0.62033 0.82669 0.29236 0.0
C753 C 0.64164 0.8556 0.17439 0.0
N754 N 0.59352 0.79274 0.2191 0.0
N755 N 0.67529 0.8836 0.24588 0.0
H756 H 0.63819 0.86682 0.06926 0.0
H757 H 0.6573 0.89285 0.11892 0.0
H758 H 0.68379 0.89036 0.29313 0.0
H759 H 0.68554 0.89348 0.20386 0.0
H760 H 0.58653 0.77977 0.26023 0.0
H761 H 0.58565 0.78567 0.17148 0.0
H762 H 0.58746 0.80447 0.35052 0.0
H763 H 0.61255 0.82507 0.39941 0.0
C764 C 0.10728 0.63478 0.27327 0.0
C765 C 0.13011 0.62474 0.31744 0.0
C766 C 0.14959 0.59492 0.22349 0.0
C767 C 0.13552 0.61465 0.17748 0.0
N768 N 0.09241 0.64387 0.15448 0.0
N769 N 0.16479 0.58597 0.34201 0.0
C770 C 0.11101 0.63111 0.20118 0.0
C771 C 0.14833 0.60124 0.29503 0.0
N772 N 0.08245 0.64718 0.30017 0.0
N773 N 0.16361 0.57057 0.19869 0.0
H774 H 0.16199 0.58904 0.39491 0.0
H775 H 0.18091 0.57064 0.3289 0.0
H776 H 0.16209 0.56466 0.14687 0.0
H777 H 0.17364 0.55474 0.22978 0.0
H778 H 0.06462 0.65429 0.27059 0.0
H779 H 0.0783 0.64697 0.35297 0.0
H780 H 0.07586 0.65877 0.16738 0.0
H781 H 0.09404 0.63927 0.10191 0.0
C782 C 0.31605 0.13184 0.30168 0.0
C783 C 0.33278 0.14679 0.35292 0.0
C784 C 0.35793 0.17484 0.26243 0.0
C785 C 0.34241 0.15845 0.2117 0.0
N786 N 0.31619 0.11357 0.1851 0.0
N787 N 0.37653 0.17502 0.37945 0.0
C788 C 0.32477 0.13423 0.23213 0.0
C789 C 0.35603 0.16586 0.33247 0.0
N790 N 0.29043 0.11751 0.3174 0.0
N791 N 0.37293 0.19987 0.24526 0.0
H792 H 0.37667 0.16765 0.43039 0.0
H793 H 0.3952 0.18704 0.36575 0.0
H794 H 0.37416 0.20806 0.19524 0.0
H795 H 0.3819 0.21401 0.28201 0.0
H796 H 0.27665 0.10857 0.27975 0.0
H797 H 0.28076 0.11772 0.36592 0.0
H798 H 0.30512 0.09434 0.19908 0.0
H799 H 0.32327 0.114 0.13399 0.0
loop_
_geom_bond_atom_site_label_1
_geom_bond_atom_site_label_2
_geom_bond_distance
_geom_bond_site_symmetry_2
_ccdc_geom_bond_type
Zn0 O3 2.031 1_554 S
Zn0 O5 2.049 . S
Zn0 O10 2.067 . S
Zn1 O2 1.962 . S
Zn1 O4 1.986 1_556 S
Zn1 O6 1.996 1_556 S
Zn1 O9 1.943 1_556 S
O2 Zn1 1.962 . S
O2 C7 1.254 . S
O3 Zn0 2.031 1_556 S
O3 C7 1.269 . S
O4 Zn1 1.986 1_554 S
O4 C11 1.262 1_554 S
O5 Zn0 2.049 . S
O5 C13 1.260 . S
O6 Zn1 1.996 1_554 S
O6 C13 1.257 . S
C7 O2 1.254 . S
C7 O3 1.269 . S
C8 O9 1.249 . S
C8 O10 1.270 . S
O9 Zn1 1.943 1_554 S
O9 C8 1.249 . S
O10 Zn0 2.067 . S
O10 C8 1.270 . S
C11 O4 1.262 1_556 S
C11 O12 1.232 . S
O12 C11 1.232 . S
C13 O5 1.260 . S
C13 O6 1.257 . S
Zn14 O17 2.031 1_554 S
Zn14 O19 2.049 . S
Zn14 O24 2.067 . S
Zn15 O16 1.962 . S
Zn15 O18 1.986 1_556 S
Zn15 O20 1.996 1_556 S
Zn15 O23 1.943 1_556 S
O16 Zn15 1.962 . S
O16 C21 1.254 . S
O17 Zn14 2.031 1_556 S
O17 C21 1.269 . S
O18 Zn15 1.986 1_554 S
O18 C25 1.262 1_554 S
O19 Zn14 2.049 . S
O19 C27 1.260 . S
O20 Zn15 1.996 1_554 S
O20 C27 1.257 . S
C21 O16 1.254 . S
C21 O17 1.269 . S
C22 O23 1.249 . S
C22 O24 1.270 . S
O23 Zn15 1.943 1_554 S
O23 C22 1.249 . S
O24 Zn14 2.067 . S
O24 C22 1.270 . S
C25 O18 1.262 1_556 S
C25 O26 1.232 . S
O26 C25 1.232 . S
C27 O19 1.260 . S
C27 O20 1.257 . S
Zn28 O31 2.031 1_554 S
Zn28 O33 2.049 . S
Zn28 O38 2.067 . S
Zn29 O30 1.962 . S
Zn29 O32 1.986 1_556 S
Zn29 O34 1.996 1_556 S
Zn29 O37 1.943 1_556 S
O30 Zn29 1.962 . S
O30 C35 1.254 . S
O31 Zn28 2.031 1_556 S
O31 C35 1.269 . S
O32 Zn29 1.986 1_554 S
O32 C39 1.262 1_554 S
O33 Zn28 2.049 . S
O33 C41 1.260 . S
O34 Zn29 1.996 1_554 S
O34 C41 1.257 . S
C35 O30 1.254 . S
C35 O31 1.269 . S
C36 O37 1.249 . S
C36 O38 1.270 . S
O37 Zn29 1.943 1_554 S
O37 C36 1.249 . S
O38 Zn28 2.067 . S
O38 C36 1.270 . S
C39 O32 1.262 1_556 S
C39 O40 1.232 . S
O40 C39 1.232 . S
C41 O33 1.260 . S
C41 O34 1.257 . S
Zn42 O45 2.031 1_554 S
Zn42 O47 2.049 . S
Zn42 O52 2.067 . S
Zn43 O44 1.962 . S
Zn43 O46 1.986 1_556 S
Zn43 O48 1.996 1_556 S
Zn43 O51 1.943 1_556 S
O44 Zn43 1.962 . S
O44 C49 1.254 . S
O45 Zn42 2.031 1_556 S
O45 C49 1.269 . S
O46 Zn43 1.986 1_554 S
O46 C53 1.262 1_554 S
O47 Zn42 2.049 . S
O47 C55 1.260 . S
O48 Zn43 1.996 1_554 S
O48 C55 1.257 . S
C49 O44 1.254 . S
C49 O45 1.269 . S
C50 O51 1.249 . S
C50 O52 1.270 . S
O51 Zn43 1.943 1_554 S
O51 C50 1.249 . S
O52 Zn42 2.067 . S
O52 C50 1.270 . S
C53 O46 1.262 1_556 S
C53 O54 1.232 . S
O54 C53 1.232 . S
C55 O47 1.260 . S
C55 O48 1.257 . S
Zn56 O59 2.031 1_556 S
Zn56 O61 2.049 . S
Zn56 O66 2.067 . S
Zn57 O58 1.962 . S
Zn57 O60 1.986 1_554 S
Zn57 O62 1.996 1_554 S
Zn57 O65 1.943 . S
O58 Zn57 1.962 . S
O58 C63 1.254 . S
O59 Zn56 2.031 1_554 S
O59 C63 1.269 . S
O60 Zn57 1.986 1_556 S
O60 C67 1.262 1_556 S
O61 Zn56 2.049 . S
O61 C69 1.260 . S
O62 Zn57 1.996 1_556 S
O62 C69 1.257 . S
C63 O58 1.254 . S
C63 O59 1.269 . S
C64 O65 1.249 1_556 S
C64 O66 1.270 . S
O65 Zn57 1.943 . S
O65 C64 1.249 1_554 S
O66 Zn56 2.067 . S
O66 C64 1.270 . S
C67 O60 1.262 1_554 S
C67 O68 1.232 . S
O68 C67 1.232 . S
C69 O61 1.260 . S
C69 O62 1.257 . S
Zn70 O73 2.031 1_556 S
Zn70 O75 2.049 . S
Zn70 O80 2.067 . S
Zn71 O72 1.962 . S
Zn71 O74 1.986 1_554 S
Zn71 O76 1.996 1_554 S
Zn71 O79 1.943 . S
O72 Zn71 1.962 . S
O72 C77 1.254 . S
O73 Zn70 2.031 1_554 S
O73 C77 1.269 . S
O74 Zn71 1.986 1_556 S
O74 C81 1.262 1_556 S
O75 Zn70 2.049 . S
O75 C83 1.260 . S
O76 Zn71 1.996 1_556 S
O76 C83 1.257 . S
C77 O72 1.254 . S
C77 O73 1.269 . S
C78 O79 1.249 1_556 S
C78 O80 1.270 . S
O79 Zn71 1.943 . S
O79 C78 1.249 1_554 S
O80 Zn70 2.067 . S
O80 C78 1.270 . S
C81 O74 1.262 1_554 S
C81 O82 1.232 . S
O82 C81 1.232 . S
C83 O75 1.260 . S
C83 O76 1.257 . S
Zn84 O87 2.031 1_556 S
Zn84 O89 2.049 . S
Zn84 O94 2.067 . S
Zn85 O86 1.962 . S
Zn85 O88 1.986 1_554 S
Zn85 O90 1.996 1_554 S
Zn85 O93 1.943 . S
O86 Zn85 1.962 . S
O86 C91 1.254 . S
O87 Zn84 2.031 1_554 S
O87 C91 1.269 . S
O88 Zn85 1.986 1_556 S
O88 C95 1.262 1_556 S
O89 Zn84 2.049 . S
O89 C97 1.260 . S
O90 Zn85 1.996 1_556 S
O90 C97 1.257 . S
C91 O86 1.254 . S
C91 O87 1.269 . S
C92 O93 1.249 1_556 S
C92 O94 1.270 . S
O93 Zn85 1.943 . S
O93 C92 1.249 1_554 S
O94 Zn84 2.067 . S
O94 C92 1.270 . S
C95 O88 1.262 1_554 S
C95 O96 1.232 . S
O96 C95 1.232 . S
C97 O89 1.260 . S
C97 O90 1.257 . S
Zn98 O101 2.031 1_556 S
Zn98 O103 2.049 . S
Zn98 O108 2.067 . S
Zn99 O100 1.962 . S
Zn99 O102 1.986 1_554 S
Zn99 O104 1.996 1_554 S
Zn99 O107 1.943 . S
O100 Zn99 1.962 . S
O100 C105 1.254 . S
O101 Zn98 2.031 1_554 S
O101 C105 1.269 . S
O102 Zn99 1.986 1_556 S
O102 C109 1.262 1_556 S
O103 Zn98 2.049 . S
O103 C111 1.260 . S
O104 Zn99 1.996 1_556 S
O104 C111 1.257 . S
C105 O100 1.254 . S
C105 O101 1.269 . S
C106 O107 1.249 1_556 S
C106 O108 1.270 . S
O107 Zn99 1.943 . S
O107 C106 1.249 1_554 S
O108 Zn98 2.067 . S
O108 C106 1.270 . S
C109 O102 1.262 1_554 S
C109 O110 1.232 . S
O110 C109 1.232 . S
C111 O103 1.260 . S
C111 O104 1.257 . S
Zn112 O115 2.031 . S
Zn112 O117 2.049 . S
Zn112 O122 2.067 . S
Zn113 O114 1.962 . S
Zn113 O116 1.986 . S
Zn113 O118 1.996 . S
Zn113 O121 1.943 . S
O114 Zn113 1.962 . S
O114 C119 1.254 . S
O115 Zn112 2.031 . S
O115 C119 1.269 . S
O116 Zn113 1.986 . S
O116 C123 1.262 . S
O117 Zn112 2.049 . S
O117 C125 1.260 . S
O118 Zn113 1.996 . S
O118 C125 1.257 . S
C119 O114 1.254 . S
C119 O115 1.269 . S
C120 O121 1.249 . S
C120 O122 1.270 . S
O121 Zn113 1.943 . S
O121 C120 1.249 . S
O122 Zn112 2.067 . S
O122 C120 1.270 . S
C123 O116 1.262 . S
C123 O124 1.232 . S
O124 C123 1.232 . S
C125 O117 1.260 . S
C125 O118 1.257 . S
Zn126 O129 2.031 . S
Zn126 O131 2.049 . S
Zn126 O136 2.067 . S
Zn127 O128 1.962 . S
Zn127 O130 1.986 . S
Zn127 O132 1.996 . S
Zn127 O135 1.943 . S
O128 Zn127 1.962 . S
O128 C133 1.254 . S
O129 Zn126 2.031 . S
O129 C133 1.269 . S
O130 Zn127 1.986 . S
O130 C137 1.262 . S
O131 Zn126 2.049 . S
O131 C139 1.260 . S
O132 Zn127 1.996 . S
O132 C139 1.257 . S
C133 O128 1.254 . S
C133 O129 1.269 . S
C134 O135 1.249 . S
C134 O136 1.270 . S
O135 Zn127 1.943 . S
O135 C134 1.249 . S
O136 Zn126 2.067 . S
O136 C134 1.270 . S
C137 O130 1.262 . S
C137 O138 1.232 . S
O138 C137 1.232 . S
C139 O131 1.260 . S
C139 O132 1.257 . S
Zn140 O143 2.031 . S
Zn140 O145 2.049 . S
Zn140 O150 2.067 . S
Zn141 O142 1.962 . S
Zn141 O144 1.986 . S
Zn141 O146 1.996 . S
Zn141 O149 1.943 . S
O142 Zn141 1.962 . S
O142 C147 1.254 . S
O143 Zn140 2.031 . S
O143 C147 1.269 . S
O144 Zn141 1.986 . S
O144 C151 1.262 . S
O145 Zn140 2.049 . S
O145 C153 1.260 . S
O146 Zn141 1.996 . S
O146 C153 1.257 . S
C147 O142 1.254 . S
C147 O143 1.269 . S
C148 O149 1.249 . S
C148 O150 1.270 . S
O149 Zn141 1.943 . S
O149 C148 1.249 . S
O150 Zn140 2.067 . S
O150 C148 1.270 . S
C151 O144 1.262 . S
C151 O152 1.232 . S
O152 C151 1.232 . S
C153 O145 1.260 . S
C153 O146 1.257 . S
Zn154 O157 2.031 . S
Zn154 O159 2.049 . S
Zn154 O164 2.067 . S
Zn155 O156 1.962 . S
Zn155 O158 1.986 . S
Zn155 O160 1.996 . S
Zn155 O163 1.943 . S
O156 Zn155 1.962 . S
O156 C161 1.254 . S
O157 Zn154 2.031 . S
O157 C161 1.269 . S
O158 Zn155 1.986 . S
O158 C165 1.262 . S
O159 Zn154 2.049 . S
O159 C167 1.260 . S
O160 Zn155 1.996 . S
O160 C167 1.257 . S
C161 O156 1.254 . S
C161 O157 1.269 . S
C162 O163 1.249 . S
C162 O164 1.270 . S
O163 Zn155 1.943 . S
O163 C162 1.249 . S
O164 Zn154 2.067 . S
O164 C162 1.270 . S
C165 O158 1.262 . S
C165 O166 1.232 . S
O166 C165 1.232 . S
C167 O159 1.260 . S
C167 O160 1.257 . S
Zn168 O171 2.031 . S
Zn168 O173 2.049 . S
Zn168 O178 2.067 . S
Zn169 O170 1.962 . S
Zn169 O172 1.986 . S
Zn169 O174 1.996 . S
Zn169 O177 1.943 . S
O170 Zn169 1.962 . S
O170 C175 1.254 . S
O171 Zn168 2.031 . S
O171 C175 1.269 . S
O172 Zn169 1.986 . S
O172 C179 1.262 . S
O173 Zn168 2.049 . S
O173 C181 1.260 . S
O174 Zn169 1.996 . S
O174 C181 1.257 . S
C175 O170 1.254 . S
C175 O171 1.269 . S
C176 O177 1.249 . S
C176 O178 1.270 . S
O177 Zn169 1.943 . S
O177 C176 1.249 . S
O178 Zn168 2.067 . S
O178 C176 1.270 . S
C179 O172 1.262 . S
C179 O180 1.232 . S
O180 C179 1.232 . S
C181 O173 1.260 . S
C181 O174 1.257 . S
Zn182 O185 2.031 . S
Zn182 O187 2.049 . S
Zn182 O192 2.067 . S
Zn183 O184 1.962 . S
Zn183 O186 1.986 . S
Zn183 O188 1.996 . S
Zn183 O191 1.943 . S
O184 Zn183 1.962 . S
O184 C189 1.254 . S
O185 Zn182 2.031 . S
O185 C189 1.269 . S
O186 Zn183 1.986 . S
O186 C193 1.262 . S
O187 Zn182 2.049 . S
O187 C195 1.260 . S
O188 Zn183 1.996 . S
O188 C195 1.257 . S
C189 O184 1.254 . S
C189 O185 1.269 . S
C190 O191 1.249 . S
C190 O192 1.270 . S
O191 Zn183 1.943 . S
O191 C190 1.249 . S
O192 Zn182 2.067 . S
O192 C190 1.270 . S
C193 O186 1.262 . S
C193 O194 1.232 . S
O194 C193 1.232 . S
C195 O187 1.260 . S
C195 O188 1.257 . S
Zn196 O199 2.031 . S
Zn196 O201 2.049 . S
Zn196 O206 2.067 . S
Zn197 O198 1.962 . S
Zn197 O200 1.986 . S
Zn197 O202 1.996 . S
Zn197 O205 1.943 . S
O198 Zn197 1.962 . S
O198 C203 1.254 . S
O199 Zn196 2.031 . S
O199 C203 1.269 . S
O200 Zn197 1.986 . S
O200 C207 1.262 . S
O201 Zn196 2.049 . S
O201 C209 1.260 . S
O202 Zn197 1.996 . S
O202 C209 1.257 . S
C203 O198 1.254 . S
C203 O199 1.269 . S
C204 O205 1.249 . S
C204 O206 1.270 . S
O205 Zn197 1.943 . S
O205 C204 1.249 . S
O206 Zn196 2.067 . S
O206 C204 1.270 . S
C207 O200 1.262 . S
C207 O208 1.232 . S
O208 C207 1.232 . S
C209 O201 1.260 . S
C209 O202 1.257 . S
Zn210 O213 2.031 . S
Zn210 O215 2.049 . S
Zn210 O220 2.067 . S
Zn211 O212 1.962 . S
Zn211 O214 1.986 . S
Zn211 O216 1.996 . S
Zn211 O219 1.943 . S
O212 Zn211 1.962 . S
O212 C217 1.254 . S
O213 Zn210 2.031 . S
O213 C217 1.269 . S
O214 Zn211 1.986 . S
O214 C221 1.262 . S
O215 Zn210 2.049 . S
O215 C223 1.260 . S
O216 Zn211 1.996 . S
O216 C223 1.257 . S
C217 O212 1.254 . S
C217 O213 1.269 . S
C218 O219 1.249 . S
C218 O220 1.270 . S
O219 Zn211 1.943 . S
O219 C218 1.249 . S
O220 Zn210 2.067 . S
O220 C218 1.270 . S
C221 O214 1.262 . S
C221 O222 1.232 . S
O222 C221 1.232 . S
C223 O215 1.260 . S
C223 O216 1.257 . S
C224 C225 1.363 1_554 S
C224 C230 1.379 . S
C224 N232 1.356 . S
C225 C224 1.363 1_556 S
C225 C231 1.363 . S
C226 C227 1.363 1_556 S
C226 C231 1.379 . S
C226 N233 1.356 . S
C227 C226 1.363 1_554 S
C227 C230 1.363 . S
N228 C230 1.356 . S
N228 H240 0.984 . S
N228 H241 0.985 . S
N229 C231 1.356 . S
N229 H234 0.984 . S
N229 H235 0.985 . S
C230 C224 1.379 . S
C230 C227 1.363 . S
C230 N228 1.356 . S
C231 C225 1.363 . S
C231 C226 1.379 . S
C231 N229 1.356 . S
N232 C224 1.356 . S
N232 H238 0.984 . S
N232 H239 0.984 . S
N233 C226 1.356 . S
N233 H236 0.984 . S
N233 H237 0.985 . S
H234 N229 0.984 . S
H235 N229 0.985 . S
H236 N233 0.984 . S
H237 N233 0.985 . S
H238 N232 0.984 . S
H239 N232 0.984 . S
H240 N228 0.984 . S
H241 N228 0.985 . S
C242 C243 1.363 1_554 S
C242 C248 1.379 . S
C242 N250 1.356 . S
C243 C242 1.363 1_556 S
C243 C249 1.363 . S
C244 C245 1.363 1_556 S
C244 C249 1.379 . S
C244 N251 1.356 . S
C245 C244 1.363 1_554 S
C245 C248 1.363 . S
N246 C248 1.356 . S
N246 H258 0.984 . S
N246 H259 0.985 . S
N247 C249 1.356 . S
N247 H252 0.984 . S
N247 H253 0.985 . S
C248 C242 1.379 . S
C248 C245 1.363 . S
C248 N246 1.356 . S
C249 C243 1.363 . S
C249 C244 1.379 . S
C249 N247 1.356 . S
N250 C242 1.356 . S
N250 H256 0.984 . S
N250 H257 0.984 . S
N251 C244 1.356 . S
N251 H254 0.984 . S
N251 H255 0.985 . S
H252 N247 0.984 . S
H253 N247 0.985 . S
H254 N251 0.984 . S
H255 N251 0.985 . S
H256 N250 0.984 . S
H257 N250 0.984 . S
H258 N246 0.984 . S
H259 N246 0.985 . S
C260 C261 1.363 . S
C260 C266 1.379 . S
C260 N268 1.356 . S
C261 C260 1.363 . S
C261 C267 1.363 1_556 S
C262 C263 1.363 . S
C262 C267 1.379 . S
C262 N269 1.356 . S
C263 C262 1.363 . S
C263 C266 1.363 1_554 S
N264 C266 1.356 . S
N264 H276 0.984 . S
N264 H277 0.985 . S
N265 C267 1.356 . S
N265 H270 0.984 . S
N265 H271 0.985 . S
C266 C260 1.379 . S
C266 C263 1.363 1_556 S
C266 N264 1.356 . S
C267 C261 1.363 1_554 S
C267 C262 1.379 . S
C267 N265 1.356 . S
N268 C260 1.356 . S
N268 H274 0.984 . S
N268 H275 0.984 . S
N269 C262 1.356 . S
N269 H272 0.984 . S
N269 H273 0.985 . S
H270 N265 0.984 . S
H271 N265 0.985 . S
H272 N269 0.984 . S
H273 N269 0.985 . S
H274 N268 0.984 . S
H275 N268 0.984 . S
H276 N264 0.984 . S
H277 N264 0.985 . S
C278 C279 1.363 1_554 S
C278 C284 1.379 . S
C278 N286 1.356 . S
C279 C278 1.363 1_556 S
C279 C285 1.363 . S
C280 C281 1.363 1_556 S
C280 C285 1.379 . S
C280 N287 1.356 . S
C281 C280 1.363 1_554 S
C281 C284 1.363 . S
N282 C284 1.356 . S
N282 H294 0.984 . S
N282 H295 0.985 . S
N283 C285 1.356 . S
N283 H288 0.984 . S
N283 H289 0.985 . S
C284 C278 1.379 . S
C284 C281 1.363 . S
C284 N282 1.356 . S
C285 C279 1.363 . S
C285 C280 1.379 . S
C285 N283 1.356 . S
N286 C278 1.356 . S
N286 H292 0.984 . S
N286 H293 0.984 . S
N287 C280 1.356 . S
N287 H290 0.984 . S
N287 H291 0.985 . S
H288 N283 0.984 . S
H289 N283 0.985 . S
H290 N287 0.984 . S
H291 N287 0.985 . S
H292 N286 0.984 . S
H293 N286 0.984 . S
H294 N282 0.984 . S
H295 N282 0.985 . S
C296 C297 1.363 . S
C296 C302 1.379 1_545 S
C296 N304 1.356 . S
C297 C296 1.363 . S
C297 C303 1.363 . S
C298 C299 1.363 . S
C298 C303 1.379 1_565 S
C298 N305 1.356 . S
C299 C298 1.363 . S
C299 C302 1.363 . S
N300 C302 1.356 . S
N300 H312 0.984 . S
N300 H313 0.985 . S
N301 C303 1.356 . S
N301 H306 0.984 . S
N301 H307 0.985 . S
C302 C296 1.379 1_565 S
C302 C299 1.363 . S
C302 N300 1.356 . S
C303 C297 1.363 . S
C303 C298 1.379 1_545 S
C303 N301 1.356 . S
N304 C296 1.356 . S
N304 H310 0.984 . S
N304 H311 0.984 . S
N305 C298 1.356 . S
N305 H308 0.984 . S
N305 H309 0.985 . S
H306 N301 0.984 . S
H307 N301 0.985 . S
H308 N305 0.984 . S
H309 N305 0.985 . S
H310 N304 0.984 . S
H311 N304 0.984 . S
H312 N300 0.984 . S
H313 N300 0.985 . S
C314 C315 1.363 . S
C314 C320 1.379 1_655 S
C314 N322 1.356 . S
C315 C314 1.363 . S
C315 C321 1.363 . S
C316 C317 1.363 . S
C316 C321 1.379 1_455 S
C316 N323 1.356 . S
C317 C316 1.363 . S
C317 C320 1.363 . S
N318 C320 1.356 . S
N318 H330 0.984 . S
N318 H331 0.985 . S
N319 C321 1.356 . S
N319 H324 0.984 . S
N319 H325 0.985 . S
C320 C314 1.379 1_455 S
C320 C317 1.363 . S
C320 N318 1.356 . S
C321 C315 1.363 . S
C321 C316 1.379 1_655 S
C321 N319 1.356 . S
N322 C314 1.356 . S
N322 H328 0.984 . S
N322 H329 0.984 . S
N323 C316 1.356 . S
N323 H326 0.984 . S
N323 H327 0.985 . S
H324 N319 0.984 . S
H325 N319 0.985 . S
H326 N323 0.984 . S
H327 N323 0.985 . S
H328 N322 0.984 . S
H329 N322 0.984 . S
H330 N318 0.984 . S
H331 N318 0.985 . S
C332 C333 1.363 . S
C332 C338 1.379 1_545 S
C332 N340 1.356 . S
C333 C332 1.363 . S
C333 C339 1.363 . S
C334 C335 1.363 . S
C334 C339 1.379 1_565 S
C334 N341 1.356 . S
C335 C334 1.363 . S
C335 C338 1.363 . S
N336 C338 1.356 . S
N336 H348 0.984 . S
N336 H349 0.985 . S
N337 C339 1.356 . S
N337 H342 0.984 . S
N337 H343 0.985 . S
C338 C332 1.379 1_565 S
C338 C335 1.363 . S
C338 N336 1.356 . S
C339 C333 1.363 . S
C339 C334 1.379 1_545 S
C339 N337 1.356 . S
N340 C332 1.356 . S
N340 H346 0.984 . S
N340 H347 0.984 . S
N341 C334 1.356 . S
N341 H344 0.984 . S
N341 H345 0.985 . S
H342 N337 0.984 . S
H343 N337 0.985 . S
H344 N341 0.984 . S
H345 N341 0.985 . S
H346 N340 0.984 . S
H347 N340 0.984 . S
H348 N336 0.984 . S
H349 N336 0.985 . S
C350 C351 1.363 . S
C350 C356 1.379 1_455 S
C350 N358 1.356 . S
C351 C350 1.363 . S
C351 C357 1.363 . S
C352 C353 1.363 . S
C352 C357 1.379 1_655 S
C352 N359 1.356 . S
C353 C352 1.363 . S
C353 C356 1.363 . S
N354 C356 1.356 . S
N354 H366 0.984 . S
N354 H367 0.985 . S
N355 C357 1.356 . S
N355 H360 0.984 . S
N355 H361 0.985 . S
C356 C350 1.379 1_655 S
C356 C353 1.363 . S
C356 N354 1.356 . S
C357 C351 1.363 . S
C357 C352 1.379 1_455 S
C357 N355 1.356 . S
N358 C350 1.356 . S
N358 H364 0.984 . S
N358 H365 0.984 . S
N359 C352 1.356 . S
N359 H362 0.984 . S
N359 H363 0.985 . S
H360 N355 0.984 . S
H361 N355 0.985 . S
H362 N359 0.984 . S
H363 N359 0.985 . S
H364 N358 0.984 . S
H365 N358 0.984 . S
H366 N354 0.984 . S
H367 N354 0.985 . S
C368 C369 1.363 1_554 S
C368 C374 1.379 . S
C368 N376 1.356 . S
C369 C368 1.363 1_556 S
C369 C375 1.363 . S
C370 C371 1.363 1_556 S
C370 C375 1.379 . S
C370 N377 1.356 . S
C371 C370 1.363 1_554 S
C371 C374 1.363 . S
N372 C374 1.356 . S
N372 H384 0.984 . S
N372 H385 0.985 . S
N373 C375 1.356 . S
N373 H378 0.984 . S
N373 H379 0.985 . S
C374 C368 1.379 . S
C374 C371 1.363 . S
C374 N372 1.356 . S
C375 C369 1.363 . S
C375 C370 1.379 . S
C375 N373 1.356 . S
N376 C368 1.356 . S
N376 H382 0.984 . S
N376 H383 0.984 . S
N377 C370 1.356 . S
N377 H380 0.984 . S
N377 H381 0.985 . S
H378 N373 0.984 . S
H379 N373 0.985 . S
H380 N377 0.984 . S
H381 N377 0.985 . S
H382 N376 0.984 . S
H383 N376 0.984 . S
H384 N372 0.984 . S
H385 N372 0.985 . S
C386 C387 1.363 1_556 S
C386 C392 1.379 . S
C386 N394 1.356 . S
C387 C386 1.363 1_554 S
C387 C393 1.363 . S
C388 C389 1.363 1_554 S
C388 C393 1.379 . S
C388 N395 1.356 . S
C389 C388 1.363 1_556 S
C389 C392 1.363 . S
N390 C392 1.356 . S
N390 H402 0.984 . S
N390 H403 0.985 . S
N391 C393 1.356 . S
N391 H396 0.984 . S
N391 H397 0.985 . S
C392 C386 1.379 . S
C392 C389 1.363 . S
C392 N390 1.356 . S
C393 C387 1.363 . S
C393 C388 1.379 . S
C393 N391 1.356 . S
N394 C386 1.356 . S
N394 H400 0.984 . S
N394 H401 0.984 . S
N395 C388 1.356 . S
N395 H398 0.984 . S
N395 H399 0.985 . S
H396 N391 0.984 . S
H397 N391 0.985 . S
H398 N395 0.984 . S
H399 N395 0.985 . S
H400 N394 0.984 . S
H401 N394 0.984 . S
H402 N390 0.984 . S
H403 N390 0.985 . S
C404 C405 1.363 1_554 S
C404 C410 1.379 . S
C404 N412 1.356 . S
C405 C404 1.363 1_556 S
C405 C411 1.363 . S
C406 C407 1.363 1_556 S
C406 C411 1.379 . S
C406 N413 1.356 . S
C407 C406 1.363 1_554 S
C407 C410 1.363 . S
N408 C410 1.356 . S
N408 H420 0.984 . S
N408 H421 0.985 . S
N409 C411 1.356 . S
N409 H414 0.984 . S
N409 H415 0.985 . S
C410 C404 1.379 . S
C410 C407 1.363 . S
C410 N408 1.356 . S
C411 C405 1.363 . S
C411 C406 1.379 . S
C411 N409 1.356 . S
N412 C404 1.356 . S
N412 H418 0.984 . S
N412 H419 0.984 . S
N413 C406 1.356 . S
N413 H416 0.984 . S
N413 H417 0.985 . S
H414 N409 0.984 . S
H415 N409 0.985 . S
H416 N413 0.984 . S
H417 N413 0.985 . S
H418 N412 0.984 . S
H419 N412 0.984 . S
H420 N408 0.984 . S
H421 N408 0.985 . S
C422 C423 1.363 1_556 S
C422 C428 1.379 . S
C422 N430 1.356 . S
C423 C422 1.363 1_554 S
C423 C429 1.363 . S
C424 C425 1.363 1_554 S
C424 C429 1.379 . S
C424 N431 1.356 . S
C425 C424 1.363 1_556 S
C425 C428 1.363 . S
N426 C428 1.356 . S
N426 H438 0.984 . S
N426 H439 0.985 . S
N427 C429 1.356 . S
N427 H432 0.984 . S
N427 H433 0.985 . S
C428 C422 1.379 . S
C428 C425 1.363 . S
C428 N426 1.356 . S
C429 C423 1.363 . S
C429 C424 1.379 . S
C429 N427 1.356 . S
N430 C422 1.356 . S
N430 H436 0.984 . S
N430 H437 0.984 . S
N431 C424 1.356 . S
N431 H434 0.984 . S
N431 H435 0.985 . S
H432 N427 0.984 . S
H433 N427 0.985 . S
H434 N431 0.984 . S
H435 N431 0.985 . S
H436 N430 0.984 . S
H437 N430 0.984 . S
H438 N426 0.984 . S
H439 N426 0.985 . S
C440 C441 1.363 . S
C440 C446 1.379 . S
C440 N448 1.356 . S
C441 C440 1.363 . S
C441 C447 1.363 . S
C442 C443 1.363 . S
C442 C447 1.379 . S
C442 N449 1.356 . S
C443 C442 1.363 . S
C443 C446 1.363 . S
N444 C446 1.356 . S
N444 H456 0.984 . S
N444 H457 0.985 . S
N445 C447 1.356 . S
N445 H450 0.984 . S
N445 H451 0.985 . S
C446 C440 1.379 . S
C446 C443 1.363 . S
C446 N444 1.356 . S
C447 C441 1.363 . S
C447 C442 1.379 . S
C447 N445 1.356 . S
N448 C440 1.356 . S
N448 H454 0.984 . S
N448 H455 0.984 . S
N449 C442 1.356 . S
N449 H452 0.984 . S
N449 H453 0.985 . S
H450 N445 0.984 . S
H451 N445 0.985 . S
H452 N449 0.984 . S
H453 N449 0.985 . S
H454 N448 0.984 . S
H455 N448 0.984 . S
H456 N444 0.984 . S
H457 N444 0.985 . S
C458 C459 1.363 . S
C458 C464 1.379 . S
C458 N466 1.356 . S
C459 C458 1.363 . S
C459 C465 1.363 . S
C460 C461 1.363 . S
C460 C465 1.379 . S
C460 N467 1.356 . S
C461 C460 1.363 . S
C461 C464 1.363 . S
N462 C464 1.356 . S
N462 H474 0.984 . S
N462 H475 0.985 . S
N463 C465 1.356 . S
N463 H468 0.984 . S
N463 H469 0.985 . S
C464 C458 1.379 . S
C464 C461 1.363 . S
C464 N462 1.356 . S
C465 C459 1.363 . S
C465 C460 1.379 . S
C465 N463 1.356 . S
N466 C458 1.356 . S
N466 H472 0.984 . S
N466 H473 0.984 . S
N467 C460 1.356 . S
N467 H470 0.984 . S
N467 H471 0.985 . S
H468 N463 0.984 . S
H469 N463 0.985 . S
H470 N467 0.984 . S
H471 N467 0.985 . S
H472 N466 0.984 . S
H473 N466 0.984 . S
H474 N462 0.984 . S
H475 N462 0.985 . S
C476 C477 1.363 . S
C476 C482 1.379 . S
C476 N484 1.356 . S
C477 C476 1.363 . S
C477 C483 1.363 . S
C478 C479 1.363 . S
C478 C483 1.379 . S
C478 N485 1.356 . S
C479 C478 1.363 . S
C479 C482 1.363 . S
N480 C482 1.356 . S
N480 H492 0.984 . S
N480 H493 0.985 . S
N481 C483 1.356 . S
N481 H486 0.984 . S
N481 H487 0.985 . S
C482 C476 1.379 . S
C482 C479 1.363 . S
C482 N480 1.356 . S
C483 C477 1.363 . S
C483 C478 1.379 . S
C483 N481 1.356 . S
N484 C476 1.356 . S
N484 H490 0.984 . S
N484 H491 0.984 . S
N485 C478 1.356 . S
N485 H488 0.984 . S
N485 H489 0.985 . S
H486 N481 0.984 . S
H487 N481 0.985 . S
H488 N485 0.984 . S
H489 N485 0.985 . S
H490 N484 0.984 . S
H491 N484 0.984 . S
H492 N480 0.984 . S
H493 N480 0.985 . S
C494 C495 1.363 . S
C494 C500 1.379 . S
C494 N502 1.356 . S
C495 C494 1.363 . S
C495 C501 1.363 . S
C496 C497 1.363 . S
C496 C501 1.379 . S
C496 N503 1.356 . S
C497 C496 1.363 . S
C497 C500 1.363 . S
N498 C500 1.356 . S
N498 H510 0.984 . S
N498 H511 0.985 . S
N499 C501 1.356 . S
N499 H504 0.984 . S
N499 H505 0.985 . S
C500 C494 1.379 . S
C500 C497 1.363 . S
C500 N498 1.356 . S
C501 C495 1.363 . S
C501 C496 1.379 . S
C501 N499 1.356 . S
N502 C494 1.356 . S
N502 H508 0.984 . S
N502 H509 0.984 . S
N503 C496 1.356 . S
N503 H506 0.984 . S
N503 H507 0.985 . S
H504 N499 0.984 . S
H505 N499 0.985 . S
H506 N503 0.984 . S
H507 N503 0.985 . S
H508 N502 0.984 . S
H509 N502 0.984 . S
H510 N498 0.984 . S
H511 N498 0.985 . S
C512 C513 1.363 . S
C512 C518 1.379 . S
C512 N520 1.356 . S
C513 C512 1.363 . S
C513 C519 1.363 . S
C514 C515 1.363 . S
C514 C519 1.379 . S
C514 N521 1.356 . S
C515 C514 1.363 . S
C515 C518 1.363 . S
N516 C518 1.356 . S
N516 H528 0.984 . S
N516 H529 0.985 . S
N517 C519 1.356 . S
N517 H522 0.984 . S
N517 H523 0.985 . S
C518 C512 1.379 . S
C518 C515 1.363 . S
C518 N516 1.356 . S
C519 C513 1.363 . S
C519 C514 1.379 . S
C519 N517 1.356 . S
N520 C512 1.356 . S
N520 H526 0.984 . S
N520 H527 0.984 . S
N521 C514 1.356 . S
N521 H524 0.984 . S
N521 H525 0.985 . S
H522 N517 0.984 . S
H523 N517 0.985 . S
H524 N521 0.984 . S
H525 N521 0.985 . S
H526 N520 0.984 . S
H527 N520 0.984 . S
H528 N516 0.984 . S
H529 N516 0.985 . S
C530 C531 1.363 . S
C530 C536 1.379 . S
C530 N538 1.356 . S
C531 C530 1.363 . S
C531 C537 1.363 . S
C532 C533 1.363 . S
C532 C537 1.379 . S
C532 N539 1.356 . S
C533 C532 1.363 . S
C533 C536 1.363 . S
N534 C536 1.356 . S
N534 H546 0.984 . S
N534 H547 0.985 . S
N535 C537 1.356 . S
N535 H540 0.984 . S
N535 H541 0.985 . S
C536 C530 1.379 . S
C536 C533 1.363 . S
C536 N534 1.356 . S
C537 C531 1.363 . S
C537 C532 1.379 . S
C537 N535 1.356 . S
N538 C530 1.356 . S
N538 H544 0.984 . S
N538 H545 0.984 . S
N539 C532 1.356 . S
N539 H542 0.984 . S
N539 H543 0.985 . S
H540 N535 0.984 . S
H541 N535 0.985 . S
H542 N539 0.984 . S
H543 N539 0.985 . S
H544 N538 0.984 . S
H545 N538 0.984 . S
H546 N534 0.984 . S
H547 N534 0.985 . S
C548 C549 1.363 . S
C548 C554 1.379 . S
C548 N556 1.356 . S
C549 C548 1.363 . S
C549 C555 1.363 . S
C550 C551 1.363 . S
C550 C555 1.379 . S
C550 N557 1.356 . S
C551 C550 1.363 . S
C551 C554 1.363 . S
N552 C554 1.356 . S
N552 H564 0.984 . S
N552 H565 0.985 . S
N553 C555 1.356 . S
N553 H558 0.984 . S
N553 H559 0.985 . S
C554 C548 1.379 . S
C554 C551 1.363 . S
C554 N552 1.356 . S
C555 C549 1.363 . S
C555 C550 1.379 . S
C555 N553 1.356 . S
N556 C548 1.356 . S
N556 H562 0.984 . S
N556 H563 0.984 . S
N557 C550 1.356 . S
N557 H560 0.984 . S
N557 H561 0.985 . S
H558 N553 0.984 . S
H559 N553 0.985 . S
H560 N557 0.984 . S
H561 N557 0.985 . S
H562 N556 0.984 . S
H563 N556 0.984 . S
H564 N552 0.984 . S
H565 N552 0.985 . S
C566 C567 1.363 . S
C566 C572 1.379 . S
C566 N574 1.356 . S
C567 C566 1.363 . S
C567 C573 1.363 . S
C568 C569 1.363 . S
C568 C573 1.379 . S
C568 N575 1.356 . S
C569 C568 1.363 . S
C569 C572 1.363 . S
N570 C572 1.356 . S
N570 H582 0.984 . S
N570 H583 0.985 . S
N571 C573 1.356 . S
N571 H576 0.984 . S
N571 H577 0.985 . S
C572 C566 1.379 . S
C572 C569 1.363 . S
C572 N570 1.356 . S
C573 C567 1.363 . S
C573 C568 1.379 . S
C573 N571 1.356 . S
N574 C566 1.356 . S
N574 H580 0.984 . S
N574 H581 0.984 . S
N575 C568 1.356 . S
N575 H578 0.984 . S
N575 H579 0.985 . S
H576 N571 0.984 . S
H577 N571 0.985 . S
H578 N575 0.984 . S
H579 N575 0.985 . S
H580 N574 0.984 . S
H581 N574 0.984 . S
H582 N570 0.984 . S
H583 N570 0.985 . S
C584 C585 1.363 . S
C584 C590 1.379 . S
C584 N592 1.356 . S
C585 C584 1.363 . S
C585 C591 1.363 . S
C586 C587 1.363 . S
C586 C591 1.379 . S
C586 N593 1.356 . S
C587 C586 1.363 . S
C587 C590 1.363 . S
N588 C590 1.356 . S
N588 H600 0.984 . S
N588 H601 0.985 . S
N589 C591 1.356 . S
N589 H594 0.984 . S
N589 H595 0.985 . S
C590 C584 1.379 . S
C590 C587 1.363 . S
C590 N588 1.356 . S
C591 C585 1.363 . S
C591 C586 1.379 . S
C591 N589 1.356 . S
N592 C584 1.356 . S
N592 H598 0.984 . S
N592 H599 0.984 . S
N593 C586 1.356 . S
N593 H596 0.984 . S
N593 H597 0.985 . S
H594 N589 0.984 . S
H595 N589 0.985 . S
H596 N593 0.984 . S
H597 N593 0.985 . S
H598 N592 0.984 . S
H599 N592 0.984 . S
H600 N588 0.984 . S
H601 N588 0.985 . S
C602 C603 1.363 . S
C602 C608 1.379 . S
C602 N610 1.356 . S
C603 C602 1.363 . S
C603 C609 1.363 . S
C604 C605 1.363 . S
C604 C609 1.379 . S
C604 N611 1.356 . S
C605 C604 1.363 . S
C605 C608 1.363 . S
N606 C608 1.356 . S
N606 H618 0.984 . S
N606 H619 0.985 . S
N607 C609 1.356 . S
N607 H612 0.984 . S
N607 H613 0.985 . S
C608 C602 1.379 . S
C608 C605 1.363 . S
C608 N606 1.356 . S
C609 C603 1.363 . S
C609 C604 1.379 . S
C609 N607 1.356 . S
N610 C602 1.356 . S
N610 H616 0.984 . S
N610 H617 0.984 . S
N611 C604 1.356 . S
N611 H614 0.984 . S
N611 H615 0.985 . S
H612 N607 0.984 . S
H613 N607 0.985 . S
H614 N611 0.984 . S
H615 N611 0.985 . S
H616 N610 0.984 . S
H617 N610 0.984 . S
H618 N606 0.984 . S
H619 N606 0.985 . S
C620 C621 1.363 . S
C620 C626 1.379 . S
C620 N628 1.356 . S
C621 C620 1.363 . S
C621 C627 1.363 . S
C622 C623 1.363 . S
C622 C627 1.379 . S
C622 N629 1.356 . S
C623 C622 1.363 . S
C623 C626 1.363 . S
N624 C626 1.356 . S
N624 H636 0.984 . S
N624 H637 0.985 . S
N625 C627 1.356 . S
N625 H630 0.984 . S
N625 H631 0.985 . S
C626 C620 1.379 . S
C626 C623 1.363 . S
C626 N624 1.356 . S
C627 C621 1.363 . S
C627 C622 1.379 . S
C627 N625 1.356 . S
N628 C620 1.356 . S
N628 H634 0.984 . S
N628 H635 0.984 . S
N629 C622 1.356 . S
N629 H632 0.984 . S
N629 H633 0.985 . S
H630 N625 0.984 . S
H631 N625 0.985 . S
H632 N629 0.984 . S
H633 N629 0.985 . S
H634 N628 0.984 . S
H635 N628 0.984 . S
H636 N624 0.984 . S
H637 N624 0.985 . S
C638 C639 1.363 . S
C638 C644 1.379 . S
C638 N646 1.356 . S
C639 C638 1.363 . S
C639 C645 1.363 . S
C640 C641 1.363 . S
C640 C645 1.379 . S
C640 N647 1.356 . S
C641 C640 1.363 . S
C641 C644 1.363 . S
N642 C644 1.356 . S
N642 H654 0.984 . S
N642 H655 0.985 . S
N643 C645 1.356 . S
N643 H648 0.984 . S
N643 H649 0.985 . S
C644 C638 1.379 . S
C644 C641 1.363 . S
C644 N642 1.356 . S
C645 C639 1.363 . S
C645 C640 1.379 . S
C645 N643 1.356 . S
N646 C638 1.356 . S
N646 H652 0.984 . S
N646 H653 0.984 . S
N647 C640 1.356 . S
N647 H650 0.984 . S
N647 H651 0.985 . S
H648 N643 0.984 . S
H649 N643 0.985 . S
H650 N647 0.984 . S
H651 N647 0.985 . S
H652 N646 0.984 . S
H653 N646 0.984 . S
H654 N642 0.984 . S
H655 N642 0.985 . S
C656 C657 1.363 . S
C656 C662 1.379 . S
C656 N664 1.356 . S
C657 C656 1.363 . S
C657 C663 1.363 . S
C658 C659 1.363 . S
C658 C663 1.379 . S
C658 N665 1.356 . S
C659 C658 1.363 . S
C659 C662 1.363 . S
N660 C662 1.356 . S
N660 H672 0.984 . S
N660 H673 0.985 . S
N661 C663 1.356 . S
N661 H666 0.984 . S
N661 H667 0.985 . S
C662 C656 1.379 . S
C662 C659 1.363 . S
C662 N660 1.356 . S
C663 C657 1.363 . S
C663 C658 1.379 . S
C663 N661 1.356 . S
N664 C656 1.356 . S
N664 H670 0.984 . S
N664 H671 0.984 . S
N665 C658 1.356 . S
N665 H668 0.984 . S
N665 H669 0.985 . S
H666 N661 0.984 . S
H667 N661 0.985 . S
H668 N665 0.984 . S
H669 N665 0.985 . S
H670 N664 0.984 . S
H671 N664 0.984 . S
H672 N660 0.984 . S
H673 N660 0.985 . S
C674 C675 1.363 . S
C674 C680 1.379 . S
C674 N682 1.356 . S
C675 C674 1.363 . S
C675 C681 1.363 . S
C676 C677 1.363 . S
C676 C681 1.379 . S
C676 N683 1.356 . S
C677 C676 1.363 . S
C677 C680 1.363 . S
N678 C680 1.356 . S
N678 H690 0.984 . S
N678 H691 0.985 . S
N679 C681 1.356 . S
N679 H684 0.984 . S
N679 H685 0.985 . S
C680 C674 1.379 . S
C680 C677 1.363 . S
C680 N678 1.356 . S
C681 C675 1.363 . S
C681 C676 1.379 . S
C681 N679 1.356 . S
N682 C674 1.356 . S
N682 H688 0.984 . S
N682 H689 0.984 . S
N683 C676 1.356 . S
N683 H686 0.984 . S
N683 H687 0.985 . S
H684 N679 0.984 . S
H685 N679 0.985 . S
H686 N683 0.984 . S
H687 N683 0.985 . S
H688 N682 0.984 . S
H689 N682 0.984 . S
H690 N678 0.984 . S
H691 N678 0.985 . S
C692 C693 1.363 . S
C692 C698 1.379 . S
C692 N700 1.356 . S
C693 C692 1.363 . S
C693 C699 1.363 . S
C694 C695 1.363 . S
C694 C699 1.379 . S
C694 N701 1.356 . S
C695 C694 1.363 . S
C695 C698 1.363 . S
N696 C698 1.356 . S
N696 H708 0.984 . S
N696 H709 0.985 . S
N697 C699 1.356 . S
N697 H702 0.984 . S
N697 H703 0.985 . S
C698 C692 1.379 . S
C698 C695 1.363 . S
C698 N696 1.356 . S
C699 C693 1.363 . S
C699 C694 1.379 . S
C699 N697 1.356 . S
N700 C692 1.356 . S
N700 H706 0.984 . S
N700 H707 0.984 . S
N701 C694 1.356 . S
N701 H704 0.984 . S
N701 H705 0.985 . S
H702 N697 0.984 . S
H703 N697 0.985 . S
H704 N701 0.984 . S
H705 N701 0.985 . S
H706 N700 0.984 . S
H707 N700 0.984 . S
H708 N696 0.984 . S
H709 N696 0.985 . S
C710 C711 1.363 . S
C710 C716 1.379 . S
C710 N718 1.356 . S
C711 C710 1.363 . S
C711 C717 1.363 . S
C712 C713 1.363 . S
C712 C717 1.379 . S
C712 N719 1.356 . S
C713 C712 1.363 . S
C713 C716 1.363 . S
N714 C716 1.356 . S
N714 H726 0.984 . S
N714 H727 0.985 . S
N715 C717 1.356 . S
N715 H720 0.984 . S
N715 H721 0.985 . S
C716 C710 1.379 . S
C716 C713 1.363 . S
C716 N714 1.356 . S
C717 C711 1.363 . S
C717 C712 1.379 . S
C717 N715 1.356 . S
N718 C710 1.356 . S
N718 H724 0.984 . S
N718 H725 0.984 . S
N719 C712 1.356 . S
N719 H722 0.984 . S
N719 H723 0.985 . S
H720 N715 0.984 . S
H721 N715 0.985 . S
H722 N719 0.984 . S
H723 N719 0.985 . S
H724 N718 0.984 . S
H725 N718 0.984 . S
H726 N714 0.984 . S
H727 N714 0.985 . S
C728 C729 1.363 . S
C728 C734 1.379 . S
C728 N736 1.356 . S
C729 C728 1.363 . S
C729 C735 1.363 . S
C730 C731 1.363 . S
C730 C735 1.379 . S
C730 N737 1.356 . S
C731 C730 1.363 . S
C731 C734 1.363 . S
N732 C734 1.356 . S
N732 H744 0.984 . S
N732 H745 0.985 . S
N733 C735 1.356 . S
N733 H738 0.984 . S
N733 H739 0.985 . S
C734 C728 1.379 . S
C734 C731 1.363 . S
C734 N732 1.356 . S
C735 C729 1.363 . S
C735 C730 1.379 . S
C735 N733 1.356 . S
N736 C728 1.356 . S
N736 H742 0.984 . S
N736 H743 0.984 . S
N737 C730 1.356 . S
N737 H740 0.984 . S
N737 H741 0.985 . S
H738 N733 0.984 . S
H739 N733 0.985 . S
H740 N737 0.984 . S
H741 N737 0.985 . S
H742 N736 0.984 . S
H743 N736 0.984 . S
H744 N732 0.984 . S
H745 N732 0.985 . S
C746 C747 1.363 . S
C746 C752 1.379 . S
C746 N754 1.356 . S
C747 C746 1.363 . S
C747 C753 1.363 . S
C748 C749 1.363 . S
C748 C753 1.379 . S
C748 N755 1.356 . S
C749 C748 1.363 . S
C749 C752 1.363 . S
N750 C752 1.356 . S
N750 H762 0.984 . S
N750 H763 0.985 . S
N751 C753 1.356 . S
N751 H756 0.984 . S
N751 H757 0.985 . S
C752 C746 1.379 . S
C752 C749 1.363 . S
C752 N750 1.356 . S
C753 C747 1.363 . S
C753 C748 1.379 . S
C753 N751 1.356 . S
N754 C746 1.356 . S
N754 H760 0.984 . S
N754 H761 0.984 . S
N755 C748 1.356 . S
N755 H758 0.984 . S
N755 H759 0.985 . S
H756 N751 0.984 . S
H757 N751 0.985 . S
H758 N755 0.984 . S
H759 N755 0.985 . S
H760 N754 0.984 . S
H761 N754 0.984 . S
H762 N750 0.984 . S
H763 N750 0.985 . S
C764 C765 1.363 . S
C764 C770 1.379 . S
C764 N772 1.356 . S
C765 C764 1.363 . S
C765 C771 1.363 . S
C766 C767 1.363 . S
C766 C771 1.379 . S
C766 N773 1.356 . S
C767 C766 1.363 . S
C767 C770 1.363 . S
N768 C770 1.356 . S
N768 H780 0.984 . S
N768 H781 0.985 . S
N769 C771 1.356 . S
N769 H774 0.984 . S
N769 H775 0.985 . S
C770 C764 1.379 . S
C770 C767 1.363 . S
C770 N768 1.356 . S
C771 C765 1.363 . S
C771 C766 1.379 . S
C771 N769 1.356 . S
N772 C764 1.356 . S
N772 H778 0.984 . S
N772 H779 0.984 . S
N773 C766 1.356 . S
N773 H776 0.984 . S
N773 H777 0.985 . S
H774 N769 0.984 . S
H775 N769 0.985 . S
H776 N773 0.984 . S
H777 N773 0.985 . S
H778 N772 0.984 . S
H779 N772 0.984 . S
H780 N768 0.984 . S
H781 N768 0.985 . S
C782 C783 1.363 . S
C782 C788 1.379 . S
C782 N790 1.356 . S
C783 C782 1.363 . S
C783 C789 1.363 . S
C784 C785 1.363 . S
C784 C789 1.379 . S
C784 N791 1.356 . S
C785 C784 1.363 . S
C785 C788 1.363 . S
N786 C788 1.356 . S
N786 H798 0.984 . S
N786 H799 0.985 . S
N787 C789 1.356 . S
N787 H792 0.984 . S
N787 H793 0.985 . S
C788 C782 1.379 . S
C788 C785 1.363 . S
C788 N786 1.356 . S
C789 C783 1.363 . S
C789 C784 1.379 . S
C789 N787 1.356 . S
N790 C782 1.356 . S
N790 H796 0.984 . S
N790 H797 0.984 . S
N791 C784 1.356 . S
N791 H794 0.984 . S
N791 H795 0.985 . S
H792 N787 0.984 . S
H793 N787 0.985 . S
H794 N791 0.984 . S
H795 N791 0.985 . S
H796 N790 0.984 . S
H797 N790 0.984 . S
H798 N786 0.984 . S
H799 N786 0.985 . S
C225 C67 1.325 1_556 S
C227 C11 1.325 1_554 S
C243 C81 1.325 1_556 S
C245 C25 1.325 1_554 S
C261 C95 1.325 1_556 S
C263 C39 1.325 1_554 S
C279 C109 1.325 1_556 S
C281 C53 1.325 1_554 S
C297 C179 1.325 . S
C299 C123 1.325 . S
C315 C193 1.325 . S
C317 C137 1.325 . S
C333 C151 1.325 . S
C335 C207 1.325 . S
C351 C221 1.325 . S
C353 C165 1.325 . S
C369 C8 1.247 1_556 S
C371 C78 1.247 1_554 S
C387 C92 1.247 1_554 S
C389 C22 1.247 1_556 S
C405 C36 1.247 1_556 S
C407 C106 1.247 1_554 S
C423 C64 1.247 1_554 S
C425 C50 1.247 1_556 S
C441 C190 1.247 . S
C443 C120 1.247 . S
C459 C204 1.247 . S
C461 C134 1.247 . S
C477 C148 1.247 . S
C479 C218 1.247 . S
C495 C162 1.247 . S
C497 C176 1.247 . S
C513 C223 1.351 . S
C515 C13 1.351 . S
C531 C181 1.351 . S
C533 C27 1.351 . S
C549 C195 1.351 . S
C551 C41 1.351 . S
C567 C209 1.351 . S
C569 C55 1.351 . S
C585 C139 1.351 . S
C587 C69 1.351 . S
C603 C153 1.351 . S
C605 C83 1.351 . S
C621 C97 1.351 . S
C623 C167 1.351 . S
C639 C111 1.351 . S
C641 C125 1.351 . S
C657 C189 1.531 . S
C659 C35 1.531 . S
C675 C203 1.531 . S
C677 C49 1.531 . S
C693 C217 1.531 . S
C695 C7 1.531 . S
C711 C21 1.531 . S
C713 C175 1.531 . S
C729 C161 1.531 . S
C731 C91 1.531 . S
C747 C105 1.531 . S
C749 C119 1.531 . S
C765 C133 1.531 . S
C767 C63 1.531 . S
C783 C147 1.531 . S
C785 C77 1.531 . S
