# Generated by pormake.
# Topology wkj, (6)-cn, num edge types: 1
# Building blocks:
#     Node 0, Type 0, BuildingBlock: BETDEL_clean_sbu_0, # of connection points: 6
#     Node 1, Type 0, BuildingBlock: BETDEL_clean_sbu_0, # of connection points: 6
#     Node 2, Type 0, BuildingBlock: BETDEL_clean_sbu_0, # of connection points: 6
#     Node 3, Type 0, BuildingBlock: BETDEL_clean_sbu_0, # of connection points: 6
#     Node 4, Type 0, BuildingBlock: BETDEL_clean_sbu_0, # of connection points: 6
#     Node 5, Type 0, BuildingBlock: BETDEL_clean_sbu_0, # of connection points: 6
#     Node 6, Type 0, BuildingBlock: BETDEL_clean_sbu_0, # of connection points: 6
#     Node 7, Type 0, BuildingBlock: BETDEL_clean_sbu_0, # of connection points: 6
#     Node 8, Type 0, BuildingBlock: BETDEL_clean_sbu_0, # of connection points: 6
#     Node 9, Type 0, BuildingBlock: BETDEL_clean_sbu_0, # of connection points: 6
#     Node 10, Type 0, BuildingBlock: BETDEL_clean_sbu_0, # of connection points: 6
#     Node 11, Type 0, BuildingBlock: BETDEL_clean_sbu_0, # of connection points: 6
#     Edge 12, Type (0, 0), BuildingBlock: OJICUG_clean_linker_0, # of connection points: 2
#     Edge 13, Type (0, 0), BuildingBlock: OJICUG_clean_linker_0, # of connection points: 2
#     Edge 14, Type (0, 0), BuildingBlock: OJICUG_clean_linker_0, # of connection points: 2
#     Edge 15, Type (0, 0), BuildingBlock: OJICUG_clean_linker_0, # of connection points: 2
#     Edge 16, Type (0, 0), BuildingBlock: OJICUG_clean_linker_0, # of connection points: 2
#     Edge 17, Type (0, 0), BuildingBlock: OJICUG_clean_linker_0, # of connection points: 2
#     Edge 18, Type (0, 0), BuildingBlock: OJICUG_clean_linker_0, # of connection points: 2
#     Edge 19, Type (0, 0), BuildingBlock: OJICUG_clean_linker_0, # of connection points: 2
#     Edge 20, Type (0, 0), BuildingBlock: OJICUG_clean_linker_0, # of connection points: 2
#     Edge 21, Type (0, 0), BuildingBlock: OJICUG_clean_linker_0, # of connection points: 2
#     Edge 22, Type (0, 0), BuildingBlock: OJICUG_clean_linker_0, # of connection points: 2
#     Edge 23, Type (0, 0), BuildingBlock: OJICUG_clean_linker_0, # of connection points: 2
#     Edge 24, Type (0, 0), BuildingBlock: OJICUG_clean_linker_0, # of connection points: 2
#     Edge 25, Type (0, 0), BuildingBlock: OJICUG_clean_linker_0, # of connection points: 2
#     Edge 26, Type (0, 0), BuildingBlock: OJICUG_clean_linker_0, # of connection points: 2
#     Edge 27, Type (0, 0), BuildingBlock: OJICUG_clean_linker_0, # of connection points: 2
#     Edge 28, Type (0, 0), BuildingBlock: OJICUG_clean_linker_0, # of connection points: 2
#     Edge 29, Type (0, 0), BuildingBlock: OJICUG_clean_linker_0, # of connection points: 2
#     Edge 30, Type (0, 0), BuildingBlock: OJICUG_clean_linker_0, # of connection points: 2
#     Edge 31, Type (0, 0), BuildingBlock: OJICUG_clean_linker_0, # of connection points: 2
#     Edge 32, Type (0, 0), BuildingBlock: OJICUG_clean_linker_0, # of connection points: 2
#     Edge 33, Type (0, 0), BuildingBlock: OJICUG_clean_linker_0, # of connection points: 2
#     Edge 34, Type (0, 0), BuildingBlock: OJICUG_clean_linker_0, # of connection points: 2
#     Edge 35, Type (0, 0), BuildingBlock: OJICUG_clean_linker_0, # of connection points: 2
#     Edge 36, Type (0, 0), BuildingBlock: OJICUG_clean_linker_0, # of connection points: 2
#     Edge 37, Type (0, 0), BuildingBlock: OJICUG_clean_linker_0, # of connection points: 2
#     Edge 38, Type (0, 0), BuildingBlock: OJICUG_clean_linker_0, # of connection points: 2
#     Edge 39, Type (0, 0), BuildingBlock: OJICUG_clean_linker_0, # of connection points: 2
#     Edge 40, Type (0, 0), BuildingBlock: OJICUG_clean_linker_0, # of connection points: 2
#     Edge 41, Type (0, 0), BuildingBlock: OJICUG_clean_linker_0, # of connection points: 2
#     Edge 42, Type (0, 0), BuildingBlock: OJICUG_clean_linker_0, # of connection points: 2
#     Edge 43, Type (0, 0), BuildingBlock: OJICUG_clean_linker_0, # of connection points: 2
#     Edge 44, Type (0, 0), BuildingBlock: OJICUG_clean_linker_0, # of connection points: 2
#     Edge 45, Type (0, 0), BuildingBlock: OJICUG_clean_linker_0, # of connection points: 2
#     Edge 46, Type (0, 0), BuildingBlock: OJICUG_clean_linker_0, # of connection points: 2
#     Edge 47, Type (0, 0), BuildingBlock: OJICUG_clean_linker_0, # of connection points: 2
# Relax obj value: 0.420
# Max RMSD: 0.193
# Mean RMSD: 0.193
data_MOF--net-wkj--node1-BETDEL_clean_sbu_0--edge1-OJICUG_clean_linker_0
_symmetry_space_group_name_H-M    P1
_symmetry_Int_Tables_number       1
_symmetry_cell_setting            triclinic
loop_
_symmetry_equiv_pos_as_xyz
'x, y, z'
_cell_length_a     35.982965
_cell_length_b     35.743837
_cell_length_c     19.399083
_cell_angle_alpha  89.980247
_cell_angle_beta   89.898623
_cell_angle_gamma 120.28074
loop_
_atom_site_label
_atom_site_type_symbol
_atom_site_fract_x
_atom_site_fract_y
_atom_site_fract_z
_atom_type_partial_charge
Dy0 Dy 0.39482 0.06888 0.36225 0.0
C1 C 0.53293 0.19692 0.19873 0.0
C2 C 0.33312 0.02793 0.45996 0.0
Dy3 Dy 0.48123 0.13219 0.28738 0.0
O4 O 0.36202 0.06866 0.45976 0.0
O5 O 0.33764 0.00893 0.40591 0.0
O6 O 0.36444 0.10052 0.30514 0.0
O7 O 0.42946 0.13703 0.33576 0.0
C8 C 0.39963 0.13778 0.30353 0.0
C9 C 0.47788 0.06416 0.34249 0.0
O10 O 0.50166 0.15396 0.39811 0.0
O11 O 0.44542 0.09123 0.44693 0.0
O12 O 0.5445 0.17358 0.23422 0.0
O13 O 0.49321 0.18507 0.21305 0.0
O14 O 0.51515 0.09833 0.32898 0.0
O15 O 0.44778 0.06701 0.31618 0.0
O16 O 0.38192 0.02969 0.2636 0.0
O17 O 0.4398 0.08354 0.2007 0.0
C18 C 0.48396 0.12714 0.45175 0.0
C19 C 0.40352 0.04436 0.20414 0.0
Dy20 Dy 0.33309 0.42921 0.67359 0.0
C21 C 0.36033 0.58197 0.53426 0.0
C22 C 0.30451 0.3625 0.76468 0.0
Dy23 Dy 0.36331 0.51892 0.60808 0.0
O24 O 0.29146 0.39017 0.76094 0.0
O25 O 0.33312 0.37058 0.7168 0.0
O26 O 0.27692 0.39999 0.60406 0.0
O27 O 0.30143 0.46392 0.63855 0.0
C28 C 0.27444 0.43477 0.59934 0.0
C29 C 0.4215 0.51296 0.68084 0.0
O30 O 0.35623 0.53578 0.71749 0.0
O31 O 0.35084 0.47399 0.76732 0.0
O32 O 0.39491 0.57998 0.54586 0.0
O33 O 0.32749 0.54923 0.56306 0.0
O34 O 0.42481 0.55052 0.66983 0.0
O35 O 0.39288 0.4842 0.64378 0.0
O36 O 0.36384 0.42072 0.57655 0.0
O37 O 0.36886 0.48008 0.51741 0.0
C38 C 0.35679 0.51387 0.77259 0.0
C39 C 0.37163 0.44396 0.51861 0.0
Dy40 Dy 0.8789 0.32204 1.03417 0.0
C41 C 0.75302 0.33455 0.87365 0.0
C42 C 0.91968 0.29946 0.12893 0.0
Dy43 Dy 0.81865 0.34839 0.95856 0.0
O44 O 0.87908 0.28684 0.12879 0.0
O45 O 0.93866 0.32488 0.0765 0.0
O46 O 0.84785 0.26068 0.97322 0.0
O47 O 0.81251 0.2902 1.00376 0.0
C48 C 0.81143 0.25975 0.97023 0.0
C49 C 0.88259 0.41032 1.02667 0.0
O50 O 0.79282 0.34283 1.06599 0.0
O51 O 0.85067 0.34333 0.12153 0.0
O52 O 0.78061 0.37187 0.90027 0.0
O53 O 0.76167 0.30515 0.89381 0.0
O54 O 0.849 0.4135 1.01077 0.0
O55 O 0.8826 0.37976 0.99501 0.0
O56 O 0.91867 0.35034 0.93618 0.0
O57 O 0.86621 0.35542 0.87256 0.0
C58 C 0.81545 0.34697 0.12261 0.0
C59 C 0.9047 0.35798 0.87676 0.0
Dy60 Dy 0.52071 0.90019 0.3533 0.0
C61 C 0.36832 0.76977 0.21791 0.0
C62 C 0.58606 0.9385 0.44531 0.0
Dy63 Dy 0.43061 0.83692 0.29164 0.0
O64 O 0.55864 0.89742 0.44129 0.0
O65 O 0.57852 0.95928 0.39706 0.0
O66 O 0.54983 0.87167 0.28662 0.0
O67 O 0.48622 0.8324 0.32293 0.0
C68 C 0.51494 0.83429 0.2833 0.0
C69 C 0.43724 0.90465 0.35395 0.0
O70 O 0.41567 0.81714 0.40467 0.0
O71 O 0.47614 0.87846 0.44698 0.0
O72 O 0.36819 0.80494 0.23447 0.0
O73 O 0.40267 0.77144 0.24229 0.0
O74 O 0.39966 0.86977 0.34691 0.0
O75 O 0.46549 0.90252 0.31946 0.0
O76 O 0.52832 0.93806 0.2549 0.0
O77 O 0.46849 0.88203 0.19896 0.0
C78 C 0.4373 0.84369 0.45675 0.0
C79 C 0.50436 0.92162 0.19806 0.0
Dy80 Dy 0.61661 0.54674 0.67663 0.0
C81 C 0.59995 0.40617 0.51585 0.0
C82 C 0.64065 0.60983 0.77341 0.0
Dy83 Dy 0.58704 0.45891 0.6009 0.0
O84 O 0.64838 0.57822 0.77541 0.0
O85 O 0.61944 0.60734 0.71761 0.0
O86 O 0.67851 0.57489 0.61874 0.0
O87 O 0.64583 0.50919 0.64783 0.0
C88 C 0.67752 0.5382 0.61552 0.0
C89 C 0.52633 0.46559 0.66389 0.0
O90 O 0.58798 0.43658 0.7091 0.0
O91 O 0.59054 0.4962 0.76341 0.0
O92 O 0.56288 0.39697 0.542 0.0
O93 O 0.62957 0.44412 0.53668 0.0
O94 O 0.52093 0.42738 0.64974 0.0
O95 O 0.55886 0.49493 0.6341 0.0
O96 O 0.59069 0.56039 0.57817 0.0
O97 O 0.58323 0.50144 0.51444 0.0
C98 C 0.5843 0.45602 0.76515 0.0
C99 C 0.58267 0.53871 0.51853 0.0
Dy100 Dy 0.04334 0.61011 1.01967 0.0
C101 C 0.16905 0.58425 0.88091 0.0
C102 C 0.00553 0.63729 0.11294 0.0
Dy103 Dy 0.10239 0.57992 0.95383 0.0
O104 O 0.04581 0.64864 0.11128 0.0
O105 O -0.01463 0.61143 1.06153 0.0
O106 O 0.072 0.66808 0.95301 0.0
O107 O 0.11015 0.64211 0.98576 0.0
C108 C 0.10877 0.67 0.94756 0.0
C109 C 0.03547 0.5202 1.02151 0.0
O110 O 0.12343 0.58319 1.0644 0.0
O111 O 0.0675 0.58927 0.11305 0.0
O112 O 0.13183 0.54938 0.89013 0.0
O113 O 0.16949 0.61665 0.91172 0.0
O114 O 0.06928 0.51633 1.01193 0.0
O115 O 0.03776 0.55063 0.98645 0.0
O116 O 0.00441 0.57959 0.9222 0.0
O117 O 0.05868 0.57515 0.86282 0.0
C118 C 0.10047 0.58231 0.11895 0.0
C119 C 0.01985 0.57211 0.8641 0.0
Dy120 Dy 0.8824 0.52407 0.46037 0.0
C121 C 0.75893 0.37443 0.61147 0.0
C122 C 0.92304 0.58881 0.36669 0.0
Dy123 Dy 0.8226 0.43678 0.53295 0.0
O124 O 0.88184 0.5633 0.37155 0.0
O125 O 0.94264 0.57927 0.41401 0.0
O126 O 0.85972 0.55749 0.52986 0.0
O127 O 0.8174 0.49266 0.50218 0.0
C128 C 0.82226 0.52358 0.53983 0.0
C129 C 0.88194 0.43768 0.45256 0.0
O130 O 0.79375 0.41845 0.42684 0.0
O131 O 0.84956 0.47763 0.3704 0.0
O132 O 0.79601 0.37764 0.59944 0.0
O133 O 0.75708 0.40577 0.58115 0.0
O134 O 0.84728 0.40144 0.46833 0.0
O135 O 0.88558 0.46812 0.4896 0.0
O136 O 0.92361 0.53347 0.55496 0.0
O137 O 0.86938 0.47727 0.61955 0.0
C138 C 0.81445 0.43837 0.36933 0.0
C139 C 0.90888 0.51229 0.61474 0.0
Dy140 Dy 0.31418 0.90101 0.80467 0.0
C141 C 0.32988 0.77431 0.95822 0.0
C142 C 0.28926 0.93969 0.70938 0.0
Dy143 Dy 0.34292 0.84139 0.87578 0.0
O144 O 0.27961 0.89959 0.70878 0.0
O145 O 0.31262 0.95922 0.76322 0.0
O146 O 0.25271 0.86571 0.8636 0.0
O147 O 0.28443 0.83301 0.82986 0.0
C148 C 0.25319 0.82972 0.86375 0.0
C149 C 0.40476 0.91158 0.81942 0.0
O150 O 0.34181 0.8207 0.76426 0.0
O151 O 0.34285 0.88111 0.71676 0.0
O152 O 0.36637 0.80138 0.92892 0.0
O153 O 0.30099 0.78438 0.94239 0.0
O154 O 0.40967 0.87818 0.82994 0.0
O155 O 0.37148 0.90669 0.84808 0.0
O156 O 0.33911 0.93977 0.90366 0.0
O157 O 0.34762 0.88801 0.96446 0.0
C158 C 0.34801 0.84676 0.71065 0.0
C159 C 0.34769 0.92586 0.96228 0.0
Dy160 Dy 0.40996 0.34902 0.11168 0.0
C161 C 0.56029 0.37342 0.25438 0.0
C162 C 0.34463 0.32349 1.02014 0.0
Dy163 Dy 0.49814 0.37641 0.17952 0.0
O164 O 0.36977 0.30753 1.02527 0.0
O165 O 0.35467 0.35353 1.06652 0.0
O166 O 0.37708 0.29323 0.18281 0.0
O167 O 0.44116 0.31523 0.15263 0.0
C168 C 0.41101 0.29016 0.19239 0.0
C169 C 0.4963 0.43523 0.10048 0.0
O170 O 0.51398 0.36517 1.07183 0.0
O171 O 0.45454 0.36224 1.01915 0.0
O172 O 0.55772 0.40801 0.24379 0.0
O173 O 0.52848 0.34039 0.22439 0.0
O174 O 0.53247 0.43667 0.11392 0.0
O175 O 0.46664 0.40832 0.13864 0.0
O176 O 0.40312 0.38231 0.20712 0.0
O177 O 0.46001 0.38434 0.26834 0.0
C178 C 0.49336 0.3661 1.0156 0.0
C179 C 0.42537 0.38919 0.26566 0.0
Dy180 Dy 0.04284 0.40667 0.47192 0.0
C181 C 0.1679 0.55222 0.62007 0.0
C182 C 0.00603 0.34147 0.37802 0.0
Dy183 Dy 0.09968 0.49676 0.54198 0.0
O184 O 0.04546 0.37303 0.37715 0.0
O185 O -0.01389 0.34497 0.43161 0.0
O186 O 0.07843 0.3819 0.53248 0.0
O187 O 0.10971 0.44668 0.49838 0.0
C188 C 0.11362 0.4192 0.53302 0.0
C189 C 0.03003 0.48565 0.48097 0.0
O190 O 0.12021 0.51739 0.43201 0.0
O191 O 0.06464 0.45477 0.3816 0.0
O192 O 0.13699 0.55889 0.60069 0.0
O193 O 0.16099 0.5153 0.59666 0.0
O194 O 0.06246 0.52478 0.4914 0.0
O195 O 0.03515 0.45798 0.51218 0.0
O196 O 0.00453 0.39357 0.57177 0.0
O197 O 0.0555 0.45499 0.63168 0.0
C198 C 0.09717 0.4957 0.37715 0.0
C199 C 0.0184 0.4167 0.63009 0.0
Dy200 Dy 0.59595 0.05779 0.79302 0.0
C201 C 0.57299 0.18486 0.93825 0.0
C202 C 0.62068 0.01734 0.7012 0.0
Dy203 Dy 0.57136 0.12093 0.86 0.0
O204 O 0.63777 0.05883 0.70762 0.0
O205 O 0.58979 -0.00273 0.74617 0.0
O206 O 0.65102 0.07989 0.86406 0.0
O207 O 0.6313 0.12366 0.83225 0.0
C208 C 0.65571 0.11797 0.87202 0.0
C209 C 0.51162 0.06062 0.78271 0.0
O210 O 0.58279 0.14791 0.75065 0.0
O211 O 0.58285 0.08885 0.70088 0.0
O212 O 0.53862 0.1487 0.92211 0.0
O213 O 0.60668 0.18588 0.91196 0.0
O214 O 0.51181 0.09651 0.79522 0.0
O215 O 0.53777 0.0568 0.82068 0.0
O216 O 0.56257 0.01715 0.88764 0.0
O217 O 0.56161 0.073 0.94863 0.0
C218 C 0.58006 0.12453 0.69524 0.0
C219 C 0.556 0.0328 0.94612 0.0
Dy220 Dy 0.53467 0.63156 0.11694 0.0
C221 C 0.39346 0.61541 0.27256 0.0
C222 C 0.59828 0.65633 1.02135 0.0
Dy223 Dy 0.44673 0.60156 0.19111 0.0
O224 O 0.56766 0.66529 1.0198 0.0
O225 O 0.59464 0.63378 0.07632 0.0
O226 O 0.56277 0.69259 0.17802 0.0
O227 O 0.49782 0.66124 0.14694 0.0
C228 C 0.5265 0.69194 0.18126 0.0
C229 C 0.45346 0.5407 0.12728 0.0
O230 O 0.42546 0.60293 0.08244 0.0
O231 O 0.48557 0.60693 1.02879 0.0
O232 O 0.38567 0.57746 0.25154 0.0
O233 O 0.43037 0.64529 0.24899 0.0
O234 O 0.41552 0.53569 0.14035 0.0
O235 O 0.48246 0.57305 0.1579 0.0
O236 O 0.54693 0.60431 0.21514 0.0
O237 O 0.4883 0.59734 0.27839 0.0
C238 C 0.44555 0.60032 1.02648 0.0
C239 C 0.52515 0.59636 0.27461 0.0
C240 C 0.43701 0.21756 0.29395 0.0
C241 C 0.40275 0.17682 0.27512 0.0
H242 H 0.46464 0.28608 0.28491 0.0
C243 C 0.37075 0.17359 0.23045 0.0
H244 H 0.46151 0.22059 0.32967 0.0
C245 C 0.37341 0.21092 0.2038 0.0
C246 C 0.40802 0.25154 0.22183 0.0
H247 H 0.34396 0.14233 0.21575 0.0
H248 H 0.3488 0.20806 0.16848 0.0
C249 C 0.43933 0.25485 0.26779 0.0
C250 C 0.19574 0.39736 0.61049 0.0
C251 C 0.23373 0.43164 0.58294 0.0
H252 H 0.12726 0.36705 0.61671 0.0
C253 C 0.23235 0.46245 0.54054 0.0
H254 H 0.19649 0.37336 0.6437 0.0
C255 C 0.19307 0.45917 0.52572 0.0
C256 C 0.15497 0.42474 0.55297 0.0
H257 H 0.26124 0.488 0.51711 0.0
H258 H 0.19241 0.4828 0.4915 0.0
C259 C 0.15643 0.39391 0.59553 0.0
C260 C 0.73224 0.21776 0.9676 0.0
C261 C 0.77179 0.22337 0.94494 0.0
H262 H 0.66391 0.17786 0.96423 0.0
C263 C 0.773 0.19342 0.89997 0.0
H264 H 0.73077 0.24011 1.00371 0.0
C265 C 0.73473 0.15847 0.87665 0.0
C266 C 0.69533 0.15349 0.89839 0.0
H267 H 0.80335 0.19725 0.88249 0.0
H268 H 0.73587 0.13575 0.84094 0.0
C269 C 0.69411 0.18271 0.94461 0.0
C270 C 0.54956 0.7527 0.26235 0.0
C271 C 0.52178 0.72674 0.21007 0.0
H272 H 0.56824 0.80753 0.32773 0.0
C273 C 0.49091 0.73558 0.183 0.0
H274 H 0.57365 0.74625 0.28345 0.0
C275 C 0.48841 0.77078 0.20736 0.0
C276 C 0.51586 0.79638 0.25998 0.0
H277 H 0.46984 0.71629 0.14147 0.0
H278 H 0.46655 0.7791 0.18311 0.0
C279 C 0.54648 0.78742 0.28747 0.0
C280 C 0.71711 0.49843 0.61759 0.0
C281 C 0.71425 0.53423 0.59536 0.0
H282 H 0.75553 0.4686 0.62041 0.0
C283 C 0.74775 0.56724 0.55711 0.0
H284 H 0.69194 0.47308 0.64866 0.0
C285 C 0.78362 0.56412 0.54029 0.0
C286 C 0.78611 0.52798 0.5617 0.0
H287 H 0.74614 0.59526 0.54004 0.0
H288 H 0.80898 0.58948 0.50952 0.0
C289 C 0.7531 0.49553 0.60109 0.0
C290 C 0.18717 0.7886 0.93316 0.0
C291 C 0.21778 0.78877 0.88838 0.0
H292 H 0.12824 0.74979 0.98774 0.0
C293 C 0.21305 0.74959 0.86434 0.0
H294 H 0.19036 0.8186 0.95208 0.0
C295 C 0.17744 0.71053 0.88405 0.0
C296 C 0.14688 0.7104 0.92857 0.0
H297 H 0.23608 0.74919 0.8287 0.0
H298 H 0.17282 0.68079 0.86225 0.0
C299 C 0.15183 0.7495 0.95326 0.0
C300 C 0.60458 0.2204 1.04888 0.0
C301 C 0.57394 0.21092 0.99705 0.0
H302 H 0.61516 0.22391 0.1578 0.0
C303 C 0.53719 0.21354 1.0117 0.0
H304 H 0.63343 0.21897 1.03839 0.0
C305 C 0.52738 0.21773 0.07976 0.0
C306 C 0.55355 0.21755 0.13323 0.0
H307 H 0.51347 0.20686 0.97202 0.0
H308 H 0.49623 0.21423 0.09072 0.0
C309 C 0.59414 0.22324 0.11729 0.0
C310 C 0.40145 0.65199 0.38313 0.0
C311 C 0.374 0.62119 0.33483 0.0
H312 H 0.41823 0.6629 0.4899 0.0
C313 C 0.33351 0.58776 0.35597 0.0
H314 H 0.43256 0.67868 0.36767 0.0
C315 C 0.32446 0.58007 0.42613 0.0
C316 C 0.3568 0.60464 0.47428 0.0
H317 H 0.31156 0.56418 0.31919 0.0
H318 H 0.2956 0.5506 0.44149 0.0
C319 C 0.39325 0.64317 0.45323 0.0
C320 C 0.72769 0.30133 0.75989 0.0
C321 C 0.72976 0.33074 0.80987 0.0
H322 H 0.73612 0.2932 0.65284 0.0
C323 C 0.72364 0.36497 0.79009 0.0
H324 H 0.73143 0.27409 0.77412 0.0
C325 C 0.72446 0.37477 0.72035 0.0
C326 C 0.73286 0.35113 0.67127 0.0
H327 H 0.72437 0.38755 0.82808 0.0
H328 H 0.72581 0.40479 0.70637 0.0
C329 C 0.73027 0.31211 0.69036 0.0
C330 C 0.29658 0.7433 1.07056 0.0
C331 C 0.32664 0.74882 1.01944 0.0
H332 H 0.28685 0.7453 0.17895 0.0
C333 C 0.36087 0.74237 1.03621 0.0
H334 H 0.26925 0.74707 1.05853 0.0
C335 C 0.36982 0.7394 0.10527 0.0
C336 C 0.3455 0.74472 0.15694 0.0
H337 H 0.38386 0.7455 0.99721 0.0
H338 H 0.39969 0.74049 0.11759 0.0
C339 C 0.30642 0.74197 0.13962 0.0
C340 C 0.56025 0.33733 0.36194 0.0
C341 C 0.58367 0.36992 0.31311 0.0
H342 H 0.54731 0.32395 0.46962 0.0
C343 C 0.62245 0.40651 0.33236 0.0
H344 H 0.53061 0.30837 0.34781 0.0
C345 C 0.63307 0.41448 0.40191 0.0
C346 C 0.60374 0.38675 0.45178 0.0
H347 H 0.64125 0.43167 0.29506 0.0
H348 H 0.66011 0.44568 0.41627 0.0
C349 C 0.5698 0.34616 0.43175 0.0
C350 C 0.2029 0.62164 0.77319 0.0
C351 C 0.19577 0.58915 0.821 0.0
H352 H 0.19852 0.63452 0.66667 0.0
C353 C 0.19825 0.55315 0.79921 0.0
H354 H 0.2022 0.65027 0.78911 0.0
C355 C 0.19839 0.54522 0.72896 0.0
C356 C 0.19399 0.57237 0.68134 0.0
H357 H 0.19353 0.5281 0.83559 0.0
H358 H 0.19421 0.51425 0.71316 0.0
C359 C 0.20085 0.61272 0.70292 0.0
C360 C 0.35517 0.94007 0.093 0.0
C361 C 0.36195 0.95586 1.02473 0.0
H362 H 0.36156 0.95473 0.20172 0.0
C363 C 0.383 0.00141 1.01645 0.0
H364 H 0.33934 0.9055 0.10223 0.0
C365 C 0.39692 0.02991 0.07377 0.0
C366 C 0.38915 0.0141 0.14203 0.0
H367 H 0.3894 0.01527 0.96515 0.0
H368 H 0.41328 0.0645 1.06449 0.0
C369 C 0.36786 0.96854 0.15039 0.0
C370 C 0.38985 0.427 0.32667 0.0
C371 C 0.41158 0.40334 0.33033 0.0
H372 H 0.36139 0.45904 0.38135 0.0
C373 C 0.42011 0.39353 0.39696 0.0
H374 H 0.38281 0.43565 0.27686 0.0
C375 C 0.4067 0.40599 0.45721 0.0
C376 C 0.38533 0.42999 0.45362 0.0
H377 H 0.4367 0.37549 0.40269 0.0
H378 H 0.41374 0.39729 0.50698 0.0
C379 C 0.3776 0.44062 0.38701 0.0
C380 C 0.94433 0.37629 0.68759 0.0
C381 C -0.0104 0.40115 0.69369 0.0
H382 H 0.8826 0.34438 0.73874 0.0
C383 C 0.00651 0.41151 0.76114 0.0
H384 H 0.92971 0.36787 0.637 0.0
C385 C -0.0207 0.39682 0.81999 0.0
C386 C 0.934 0.37241 0.81376 0.0
H387 H 0.04099 0.43066 0.76858 0.0
H388 H -0.00616 0.40541 0.87063 0.0
C389 C 0.91711 0.36284 0.7463 0.0
C390 C 0.54028 -0.00445 0.13729 0.0
C391 C 0.5168 0.94976 0.1331 0.0
H392 H 0.56977 0.05699 0.08393 0.0
C393 C 0.50566 0.93181 1.06625 0.0
H394 H 0.54936 0.01108 0.18724 0.0
C395 C 0.51846 0.95844 1.00635 0.0
C396 C 0.5418 0.00423 1.01065 0.0
H397 H 0.48762 0.89696 1.05999 0.0
H398 H 0.50961 0.94297 0.95632 0.0
C399 C 0.55192 0.02214 0.07757 0.0
C400 C 0.54654 0.5773 0.46328 0.0
C401 C 0.56889 0.55441 0.45602 0.0
H402 H 0.51452 0.60731 0.41341 0.0
C403 C 0.57666 0.54571 0.38819 0.0
H404 H 0.53934 0.58433 0.51425 0.0
C405 C 0.56341 0.56005 0.33007 0.0
C406 C 0.54057 0.58243 0.3373 0.0
H407 H 0.59347 0.52809 0.37989 0.0
H408 H 0.57036 0.55274 0.27912 0.0
C409 C 0.53206 0.59041 0.40513 0.0
C410 C 0.94633 0.53537 0.80477 0.0
C411 C -0.0083 0.55723 0.79984 0.0
H412 H 0.88524 0.5035 0.75222 0.0
C413 C 0.00943 0.5639 0.73281 0.0
H414 H 0.93107 0.52906 0.85494 0.0
C415 C -0.01708 0.55009 0.67328 0.0
C416 C 0.93752 0.52783 0.67837 0.0
H417 H 0.04402 0.58037 0.72616 0.0
H418 H -0.00191 0.55629 0.62305 0.0
C419 C 0.91984 0.52043 0.74544 0.0
C420 C 0.42688 -0.00399 0.39787 0.0
C421 C 0.46984 0.02708 0.38302 0.0
H422 H 0.38136 0.92837 0.4017 0.0
C423 C 0.50239 0.01749 0.39288 0.0
H424 H 0.40171 0.00383 0.39413 0.0
C425 C 0.49062 0.97444 0.40017 0.0
C426 C 0.44707 0.94242 0.39401 0.0
H427 H 0.53588 0.04163 0.38484 0.0
H428 H 0.51547 0.96614 0.39723 0.0
C429 C 0.41513 0.95291 0.40321 0.0
C430 C 0.43151 0.4595 0.74204 0.0
C431 C 0.44559 0.5035 0.73082 0.0
H432 H 0.44776 0.4105 0.72234 0.0
C433 C 0.489 0.53386 0.73742 0.0
H434 H 0.39772 0.43619 0.7443 0.0
C435 C 0.51784 0.51941 0.7285 0.0
C436 C 0.5023 0.47552 0.71333 0.0
H437 H 0.50055 0.56826 0.73356 0.0
H438 H 0.55105 0.54318 0.72054 0.0
C439 C 0.46001 0.44481 0.72972 0.0
C440 C 0.92753 0.47999 0.08183 0.0
C441 C 0.9157 0.43665 0.07615 0.0
H442 H -0.01965 0.54347 1.07126 0.0
C443 C 0.94563 0.42376 0.09252 0.0
H444 H 0.90444 0.49053 0.0735 0.0
C445 C -0.01082 0.45385 0.08699 0.0
C446 C 0.00073 0.49615 1.07001 0.0
H447 H 0.9359 0.39 0.09446 0.0
H448 H 0.01212 0.44273 0.08376 0.0
C449 C -0.02897 0.51025 0.07963 0.0
C450 C -0.01469 0.50258 0.40418 0.0
C451 C -0.00424 0.47288 0.43111 0.0
H452 H 0.93286 0.5099 0.37184 0.0
C453 C -0.03214 0.42831 0.42016 0.0
H454 H 0.00731 0.53718 0.4078 0.0
C455 C 0.92583 0.4134 0.40017 0.0
C456 C 0.91249 0.44364 0.39843 0.0
H457 H -0.02396 0.40496 0.4377 0.0
H458 H 0.9027 0.37913 0.40558 0.0
C459 C 0.94306 0.48694 0.38306 0.0
C460 C 0.46773 0.95466 0.74362 0.0
C461 C 0.42836 0.9463 0.77077 0.0
H462 H 0.52842 0.00497 0.70792 0.0
C463 C 0.4137 0.97548 0.75842 0.0
H464 H 0.47858 0.93148 0.7484 0.0
C465 C 0.4421 0.01675 0.7349 0.0
C466 C 0.48512 0.02844 0.7319 0.0
H467 H 0.38272 0.96888 0.7763 0.0
H468 H 0.43268 0.04112 0.7383 0.0
C469 C 0.4957 -0.00379 0.71946 0.0
C470 C 0.43255 0.47627 1.05422 0.0
C471 C 0.46359 0.51742 0.07644 0.0
H472 H 0.42259 0.41417 1.0278 0.0
C473 C 0.50723 0.53273 1.06194 0.0
H474 H 0.3985 0.46452 1.06072 0.0
C475 C 0.52048 0.50363 1.0453 0.0
C476 C 0.48947 0.45999 1.04762 0.0
H477 H 0.53142 0.56515 0.07491 0.0
H478 H 0.55443 0.51416 1.04891 0.0
C479 C 0.44635 0.44774 1.03517 0.0
C480 C 0.30618 0.00689 0.6466 0.0
C481 C 0.28642 0.96169 0.64768 0.0
H482 H 0.33559 0.06382 0.58408 0.0
C483 C 0.27238 0.93838 0.58562 0.0
H484 H 0.3169 0.02546 0.69391 0.0
C485 C 0.28374 0.96025 0.52276 0.0
C486 C 0.30854 0.00551 0.52174 0.0
H487 H 0.25655 0.90335 0.5853 0.0
H488 H 0.27651 0.94173 0.47548 0.0
C489 C 0.31693 0.02876 0.58373 0.0
C490 C 0.29587 0.33958 0.95264 0.0
C491 C 0.32028 0.31921 0.95736 0.0
H492 H 0.26965 0.36764 0.88558 0.0
C493 C 0.32917 0.30294 0.89741 0.0
H494 H 0.28836 0.35201 0.99831 0.0
C495 C 0.31961 0.31292 0.83278 0.0
C496 C 0.3001 0.33818 0.82791 0.0
H497 H 0.34768 0.28671 0.89987 0.0
H498 H 0.33102 0.30436 0.78702 0.0
C499 C 0.28522 0.34847 0.88807 0.0
C500 C 0.91839 0.28001 0.25163 0.0
C501 C 0.94174 0.2962 0.18997 0.0
H502 H 0.92115 0.28177 0.36187 0.0
C503 C -0.0133 0.31706 0.19112 0.0
H504 H 0.88355 0.26325 0.25182 0.0
C505 C 0.00814 0.3268 0.25407 0.0
C506 C -0.01531 0.31648 0.3161 0.0
H507 H 0.00529 0.32934 0.14407 0.0
H508 H 0.04292 0.34646 0.25399 0.0
C509 C 0.93983 0.29043 0.31464 0.0
C510 C 0.60569 0.95231 0.63381 0.0
C511 C 0.6257 -0.00262 0.63874 0.0
H512 H 0.57927 0.89787 0.56639 0.0
C513 C 0.64285 0.02299 0.5792 0.0
H514 H 0.59265 0.93205 0.67923 0.0
C515 C 0.63414 0.00352 0.51444 0.0
C516 C 0.60929 0.95842 0.50914 0.0
H517 H 0.65884 0.05796 0.5819 0.0
H518 H 0.64335 0.0238 0.46877 0.0
C519 C 0.59812 0.93286 0.56919 0.0
C520 C 0.64747 0.63822 0.9594 0.0
C521 C 0.62303 0.65871 0.95984 0.0
H522 H 0.67356 0.60748 0.89775 0.0
C523 C 0.61447 0.67287 0.89738 0.0
H524 H 0.65476 0.62738 1.00697 0.0
C525 C 0.6246 0.66095 0.83483 0.0
C526 C 0.64384 0.63532 0.83453 0.0
H527 H 0.59605 0.68925 0.89656 0.0
H528 H 0.61375 0.66827 0.78732 0.0
C529 C 0.65808 0.62678 0.89685 0.0
C530 C 0.00902 0.65288 0.23757 0.0
C531 C -0.01536 0.63936 0.17656 0.0
H532 H 0.00809 0.64666 0.34746 0.0
C533 C 0.93972 0.61859 0.1804 0.0
H534 H 0.04383 0.66938 0.23594 0.0
C535 C 0.91934 0.60651 0.24444 0.0
C536 C 0.94382 0.61437 0.30477 0.0
H537 H 0.92032 0.6081 0.13403 0.0
H538 H 0.88456 0.58716 0.2459 0.0
C539 C -0.01134 0.63987 0.30144 0.0
C540 C 0.50974 0.09189 0.53506 0.0
C541 C 0.51121 0.13003 0.51287 0.0
H542 H 0.53186 0.0611 0.60388 0.0
C543 C 0.53838 0.16853 0.54943 0.0
H544 H 0.48909 0.06146 0.50968 0.0
C545 C 0.56173 0.16791 0.60828 0.0
C546 C 0.56027 0.12928 0.6294 0.0
H547 H 0.54041 0.19864 0.53411 0.0
H548 H 0.5807 0.19748 0.63721 0.0
C549 C 0.53458 0.09175 0.59023 0.0
C550 C 0.36147 0.51771 0.90325 0.0
C551 C 0.37517 0.53817 0.83868 0.0
H552 H 0.37182 0.52205 1.01291 0.0
C553 C 0.41102 0.58065 0.83717 0.0
H554 H 0.33461 0.48483 0.90645 0.0
C555 C 0.43349 0.60131 0.89792 0.0
C556 C 0.41971 0.58084 0.96235 0.0
H557 H 0.42321 0.59715 0.78839 0.0
H558 H 0.46201 0.63311 0.8944 0.0
C559 C 0.38289 0.5391 0.9643 0.0
C560 C 0.81033 0.40723 0.18013 0.0
C561 C 0.80764 0.36657 0.18506 0.0
H562 H 0.81538 0.46226 0.23414 0.0
C563 C 0.80276 0.34813 0.25074 0.0
H564 H 0.81479 0.4227 0.13039 0.0
C565 C 0.80103 0.36998 0.30999 0.0
C566 C 0.80617 0.41177 0.30546 0.0
H567 H 0.80121 0.31722 0.25641 0.0
H568 H 0.79841 0.35521 0.35984 0.0
C569 C 0.81056 0.42995 0.23958 0.0
C570 C 0.38339 0.80307 0.55558 0.0
C571 C 0.4142 0.84191 0.52308 0.0
H572 H 0.33928 0.77355 0.6414 0.0
C573 C 0.42196 0.88112 0.55299 0.0
H574 H 0.37624 0.77218 0.53417 0.0
C575 C 0.39938 0.88183 0.61155 0.0
C576 C 0.36937 0.84345 0.64543 0.0
H577 H 0.44506 0.91183 0.53009 0.0
H578 H 0.40617 0.91303 0.63096 0.0
C579 C 0.36206 0.80387 0.61701 0.0
C580 C 0.58392 0.44031 0.8926 0.0
C581 C 0.56358 0.4291 0.82803 0.0
H582 H 0.5785 0.42777 1.00154 0.0
C583 C 0.52088 0.39419 0.82496 0.0
H584 H 0.61649 0.46735 0.89693 0.0
C585 C 0.49845 0.37235 0.88522 0.0
C586 C 0.51864 0.38368 0.95006 0.0
H587 H 0.50401 0.38512 0.77619 0.0
H588 H 0.46495 0.34727 0.88128 0.0
C589 C 0.56206 0.41735 0.95253 0.0
C590 C 0.10448 0.50286 0.2469 0.0
C591 C 0.10285 0.52014 0.31122 0.0
H592 H 0.10708 0.50991 0.13655 0.0
C593 C 0.10287 0.55963 0.31175 0.0
H594 H 0.10387 0.47228 0.24439 0.0
C595 C 0.10306 0.58045 0.24976 0.0
C596 C 0.10515 0.56341 0.18541 0.0
H597 H 0.10073 0.57346 0.36023 0.0
H598 H 0.10112 0.60969 0.25214 0.0
C599 C 0.10652 0.52463 0.18503 0.0
loop_
_geom_bond_atom_site_label_1
_geom_bond_atom_site_label_2
_geom_bond_distance
_geom_bond_site_symmetry_2
_ccdc_geom_bond_type
Dy0 O4 2.398 . S
Dy0 O5 2.491 . S
Dy0 O6 2.403 . S
Dy0 O7 2.664 . S
Dy0 O11 2.326 . S
Dy0 O15 2.310 . S
Dy0 O16 2.351 . S
C1 O12 1.185 . S
C1 O13 1.355 . S
C2 O4 1.185 . S
C2 O5 1.355 . S
Dy3 O7 2.310 . S
Dy3 O10 2.351 . S
Dy3 O12 2.398 . S
Dy3 O13 2.491 . S
Dy3 O14 2.403 . S
Dy3 O15 2.664 . S
Dy3 O17 2.326 . S
O4 Dy0 2.398 . S
O4 C2 1.185 . S
O5 Dy0 2.491 . S
O5 C2 1.355 . S
O6 Dy0 2.403 . S
O6 C8 1.254 . S
O7 Dy0 2.664 . S
O7 Dy3 2.310 . S
O7 C8 1.268 . S
C8 O6 1.254 . S
C8 O7 1.268 . S
C9 O14 1.254 . S
C9 O15 1.268 . S
O10 Dy3 2.351 . S
O10 C18 1.249 . S
O11 Dy0 2.326 . S
O11 C18 1.267 . S
O12 C1 1.185 . S
O12 Dy3 2.398 . S
O13 C1 1.355 . S
O13 Dy3 2.491 . S
O14 Dy3 2.403 . S
O14 C9 1.254 . S
O15 Dy0 2.310 . S
O15 Dy3 2.664 . S
O15 C9 1.268 . S
O16 Dy0 2.351 . S
O16 C19 1.249 . S
O17 Dy3 2.326 . S
O17 C19 1.267 . S
C18 O10 1.249 . S
C18 O11 1.267 . S
C19 O16 1.249 . S
C19 O17 1.267 . S
Dy20 O24 2.398 . S
Dy20 O25 2.491 . S
Dy20 O26 2.403 . S
Dy20 O27 2.664 . S
Dy20 O31 2.326 . S
Dy20 O35 2.310 . S
Dy20 O36 2.351 . S
C21 O32 1.185 . S
C21 O33 1.355 . S
C22 O24 1.185 . S
C22 O25 1.355 . S
Dy23 O27 2.310 . S
Dy23 O30 2.351 . S
Dy23 O32 2.398 . S
Dy23 O33 2.491 . S
Dy23 O34 2.403 . S
Dy23 O35 2.664 . S
Dy23 O37 2.326 . S
O24 Dy20 2.398 . S
O24 C22 1.185 . S
O25 Dy20 2.491 . S
O25 C22 1.355 . S
O26 Dy20 2.403 . S
O26 C28 1.254 . S
O27 Dy20 2.664 . S
O27 Dy23 2.310 . S
O27 C28 1.268 . S
C28 O26 1.254 . S
C28 O27 1.268 . S
C29 O34 1.254 . S
C29 O35 1.268 . S
O30 Dy23 2.351 . S
O30 C38 1.249 . S
O31 Dy20 2.326 . S
O31 C38 1.267 . S
O32 C21 1.185 . S
O32 Dy23 2.398 . S
O33 C21 1.355 . S
O33 Dy23 2.491 . S
O34 Dy23 2.403 . S
O34 C29 1.254 . S
O35 Dy20 2.310 . S
O35 Dy23 2.664 . S
O35 C29 1.268 . S
O36 Dy20 2.351 . S
O36 C39 1.249 . S
O37 Dy23 2.326 . S
O37 C39 1.267 . S
C38 O30 1.249 . S
C38 O31 1.267 . S
C39 O36 1.249 . S
C39 O37 1.267 . S
Dy40 O44 2.398 1_556 S
Dy40 O45 2.491 1_556 S
Dy40 O46 2.403 . S
Dy40 O47 2.664 . S
Dy40 O51 2.326 1_556 S
Dy40 O55 2.310 . S
Dy40 O56 2.351 . S
C41 O52 1.185 . S
C41 O53 1.355 . S
C42 O44 1.185 . S
C42 O45 1.355 . S
Dy43 O47 2.310 . S
Dy43 O50 2.351 . S
Dy43 O52 2.398 . S
Dy43 O53 2.491 . S
Dy43 O54 2.403 . S
Dy43 O55 2.664 . S
Dy43 O57 2.326 . S
O44 Dy40 2.398 1_554 S
O44 C42 1.185 . S
O45 Dy40 2.491 1_554 S
O45 C42 1.355 . S
O46 Dy40 2.403 . S
O46 C48 1.254 . S
O47 Dy40 2.664 . S
O47 Dy43 2.310 . S
O47 C48 1.268 . S
C48 O46 1.254 . S
C48 O47 1.268 . S
C49 O54 1.254 . S
C49 O55 1.268 . S
O50 Dy43 2.351 . S
O50 C58 1.249 1_556 S
O51 Dy40 2.326 1_554 S
O51 C58 1.267 . S
O52 C41 1.185 . S
O52 Dy43 2.398 . S
O53 C41 1.355 . S
O53 Dy43 2.491 . S
O54 Dy43 2.403 . S
O54 C49 1.254 . S
O55 Dy40 2.310 . S
O55 Dy43 2.664 . S
O55 C49 1.268 . S
O56 Dy40 2.351 . S
O56 C59 1.249 . S
O57 Dy43 2.326 . S
O57 C59 1.267 . S
C58 O50 1.249 1_554 S
C58 O51 1.267 . S
C59 O56 1.249 . S
C59 O57 1.267 . S
Dy60 O64 2.398 . S
Dy60 O65 2.491 . S
Dy60 O66 2.403 . S
Dy60 O67 2.664 . S
Dy60 O71 2.326 . S
Dy60 O75 2.310 . S
Dy60 O76 2.351 . S
C61 O72 1.185 . S
C61 O73 1.355 . S
C62 O64 1.185 . S
C62 O65 1.355 . S
Dy63 O67 2.310 . S
Dy63 O70 2.351 . S
Dy63 O72 2.398 . S
Dy63 O73 2.491 . S
Dy63 O74 2.403 . S
Dy63 O75 2.664 . S
Dy63 O77 2.326 . S
O64 Dy60 2.398 . S
O64 C62 1.185 . S
O65 Dy60 2.491 . S
O65 C62 1.355 . S
O66 Dy60 2.403 . S
O66 C68 1.254 . S
O67 Dy60 2.664 . S
O67 Dy63 2.310 . S
O67 C68 1.268 . S
C68 O66 1.254 . S
C68 O67 1.268 . S
C69 O74 1.254 . S
C69 O75 1.268 . S
O70 Dy63 2.351 . S
O70 C78 1.249 . S
O71 Dy60 2.326 . S
O71 C78 1.267 . S
O72 C61 1.185 . S
O72 Dy63 2.398 . S
O73 C61 1.355 . S
O73 Dy63 2.491 . S
O74 Dy63 2.403 . S
O74 C69 1.254 . S
O75 Dy60 2.310 . S
O75 Dy63 2.664 . S
O75 C69 1.268 . S
O76 Dy60 2.351 . S
O76 C79 1.249 . S
O77 Dy63 2.326 . S
O77 C79 1.267 . S
C78 O70 1.249 . S
C78 O71 1.267 . S
C79 O76 1.249 . S
C79 O77 1.267 . S
Dy80 O84 2.398 . S
Dy80 O85 2.491 . S
Dy80 O86 2.403 . S
Dy80 O87 2.664 . S
Dy80 O91 2.326 . S
Dy80 O95 2.310 . S
Dy80 O96 2.351 . S
C81 O92 1.185 . S
C81 O93 1.355 . S
C82 O84 1.185 . S
C82 O85 1.355 . S
Dy83 O87 2.310 . S
Dy83 O90 2.351 . S
Dy83 O92 2.398 . S
Dy83 O93 2.491 . S
Dy83 O94 2.403 . S
Dy83 O95 2.664 . S
Dy83 O97 2.326 . S
O84 Dy80 2.398 . S
O84 C82 1.185 . S
O85 Dy80 2.491 . S
O85 C82 1.355 . S
O86 Dy80 2.403 . S
O86 C88 1.254 . S
O87 Dy80 2.664 . S
O87 Dy83 2.310 . S
O87 C88 1.268 . S
C88 O86 1.254 . S
C88 O87 1.268 . S
C89 O94 1.254 . S
C89 O95 1.268 . S
O90 Dy83 2.351 . S
O90 C98 1.249 . S
O91 Dy80 2.326 . S
O91 C98 1.267 . S
O92 C81 1.185 . S
O92 Dy83 2.398 . S
O93 C81 1.355 . S
O93 Dy83 2.491 . S
O94 Dy83 2.403 . S
O94 C89 1.254 . S
O95 Dy80 2.310 . S
O95 Dy83 2.664 . S
O95 C89 1.268 . S
O96 Dy80 2.351 . S
O96 C99 1.249 . S
O97 Dy83 2.326 . S
O97 C99 1.267 . S
C98 O90 1.249 . S
C98 O91 1.267 . S
C99 O96 1.249 . S
C99 O97 1.267 . S
Dy100 O104 2.398 1_556 S
Dy100 O105 2.491 1_556 S
Dy100 O106 2.403 . S
Dy100 O107 2.664 . S
Dy100 O111 2.326 1_556 S
Dy100 O115 2.310 . S
Dy100 O116 2.351 . S
C101 O112 1.185 . S
C101 O113 1.355 . S
C102 O104 1.185 . S
C102 O105 1.355 . S
Dy103 O107 2.310 . S
Dy103 O110 2.351 . S
Dy103 O112 2.398 . S
Dy103 O113 2.491 . S
Dy103 O114 2.403 . S
Dy103 O115 2.664 . S
Dy103 O117 2.326 . S
O104 Dy100 2.398 1_554 S
O104 C102 1.185 . S
O105 Dy100 2.491 1_554 S
O105 C102 1.355 . S
O106 Dy100 2.403 . S
O106 C108 1.254 . S
O107 Dy100 2.664 . S
O107 Dy103 2.310 . S
O107 C108 1.268 . S
C108 O106 1.254 . S
C108 O107 1.268 . S
C109 O114 1.254 . S
C109 O115 1.268 . S
O110 Dy103 2.351 . S
O110 C118 1.249 1_556 S
O111 Dy100 2.326 1_554 S
O111 C118 1.267 . S
O112 C101 1.185 . S
O112 Dy103 2.398 . S
O113 C101 1.355 . S
O113 Dy103 2.491 . S
O114 Dy103 2.403 . S
O114 C109 1.254 . S
O115 Dy100 2.310 . S
O115 Dy103 2.664 . S
O115 C109 1.268 . S
O116 Dy100 2.351 . S
O116 C119 1.249 . S
O117 Dy103 2.326 . S
O117 C119 1.267 . S
C118 O110 1.249 1_554 S
C118 O111 1.267 . S
C119 O116 1.249 . S
C119 O117 1.267 . S
Dy120 O124 2.398 . S
Dy120 O125 2.491 . S
Dy120 O126 2.403 . S
Dy120 O127 2.664 . S
Dy120 O131 2.326 . S
Dy120 O135 2.310 . S
Dy120 O136 2.351 . S
C121 O132 1.185 . S
C121 O133 1.355 . S
C122 O124 1.185 . S
C122 O125 1.355 . S
Dy123 O127 2.310 . S
Dy123 O130 2.351 . S
Dy123 O132 2.398 . S
Dy123 O133 2.491 . S
Dy123 O134 2.403 . S
Dy123 O135 2.664 . S
Dy123 O137 2.326 . S
O124 Dy120 2.398 . S
O124 C122 1.185 . S
O125 Dy120 2.491 . S
O125 C122 1.355 . S
O126 Dy120 2.403 . S
O126 C128 1.254 . S
O127 Dy120 2.664 . S
O127 Dy123 2.310 . S
O127 C128 1.268 . S
C128 O126 1.254 . S
C128 O127 1.268 . S
C129 O134 1.254 . S
C129 O135 1.268 . S
O130 Dy123 2.351 . S
O130 C138 1.249 . S
O131 Dy120 2.326 . S
O131 C138 1.267 . S
O132 C121 1.185 . S
O132 Dy123 2.398 . S
O133 C121 1.355 . S
O133 Dy123 2.491 . S
O134 Dy123 2.403 . S
O134 C129 1.254 . S
O135 Dy120 2.310 . S
O135 Dy123 2.664 . S
O135 C129 1.268 . S
O136 Dy120 2.351 . S
O136 C139 1.249 . S
O137 Dy123 2.326 . S
O137 C139 1.267 . S
C138 O130 1.249 . S
C138 O131 1.267 . S
C139 O136 1.249 . S
C139 O137 1.267 . S
Dy140 O144 2.398 . S
Dy140 O145 2.491 . S
Dy140 O146 2.403 . S
Dy140 O147 2.664 . S
Dy140 O151 2.326 . S
Dy140 O155 2.310 . S
Dy140 O156 2.351 . S
C141 O152 1.185 . S
C141 O153 1.355 . S
C142 O144 1.185 . S
C142 O145 1.355 . S
Dy143 O147 2.310 . S
Dy143 O150 2.351 . S
Dy143 O152 2.398 . S
Dy143 O153 2.491 . S
Dy143 O154 2.403 . S
Dy143 O155 2.664 . S
Dy143 O157 2.326 . S
O144 Dy140 2.398 . S
O144 C142 1.185 . S
O145 Dy140 2.491 . S
O145 C142 1.355 . S
O146 Dy140 2.403 . S
O146 C148 1.254 . S
O147 Dy140 2.664 . S
O147 Dy143 2.310 . S
O147 C148 1.268 . S
C148 O146 1.254 . S
C148 O147 1.268 . S
C149 O154 1.254 . S
C149 O155 1.268 . S
O150 Dy143 2.351 . S
O150 C158 1.249 . S
O151 Dy140 2.326 . S
O151 C158 1.267 . S
O152 C141 1.185 . S
O152 Dy143 2.398 . S
O153 C141 1.355 . S
O153 Dy143 2.491 . S
O154 Dy143 2.403 . S
O154 C149 1.254 . S
O155 Dy140 2.310 . S
O155 Dy143 2.664 . S
O155 C149 1.268 . S
O156 Dy140 2.351 . S
O156 C159 1.249 . S
O157 Dy143 2.326 . S
O157 C159 1.267 . S
C158 O150 1.249 . S
C158 O151 1.267 . S
C159 O156 1.249 . S
C159 O157 1.267 . S
Dy160 O164 2.398 1_554 S
Dy160 O165 2.491 1_554 S
Dy160 O166 2.403 . S
Dy160 O167 2.664 . S
Dy160 O171 2.326 1_554 S
Dy160 O175 2.310 . S
Dy160 O176 2.351 . S
C161 O172 1.185 . S
C161 O173 1.355 . S
C162 O164 1.185 . S
C162 O165 1.355 . S
Dy163 O167 2.310 . S
Dy163 O170 2.351 . S
Dy163 O172 2.398 . S
Dy163 O173 2.491 . S
Dy163 O174 2.403 . S
Dy163 O175 2.664 . S
Dy163 O177 2.326 . S
O164 Dy160 2.398 1_556 S
O164 C162 1.185 . S
O165 Dy160 2.491 1_556 S
O165 C162 1.355 . S
O166 Dy160 2.403 . S
O166 C168 1.254 . S
O167 Dy160 2.664 . S
O167 Dy163 2.310 . S
O167 C168 1.268 . S
C168 O166 1.254 . S
C168 O167 1.268 . S
C169 O174 1.254 . S
C169 O175 1.268 . S
O170 Dy163 2.351 . S
O170 C178 1.249 1_554 S
O171 Dy160 2.326 1_556 S
O171 C178 1.267 . S
O172 C161 1.185 . S
O172 Dy163 2.398 . S
O173 C161 1.355 . S
O173 Dy163 2.491 . S
O174 Dy163 2.403 . S
O174 C169 1.254 . S
O175 Dy160 2.310 . S
O175 Dy163 2.664 . S
O175 C169 1.268 . S
O176 Dy160 2.351 . S
O176 C179 1.249 . S
O177 Dy163 2.326 . S
O177 C179 1.267 . S
C178 O170 1.249 1_556 S
C178 O171 1.267 . S
C179 O176 1.249 . S
C179 O177 1.267 . S
Dy180 O184 2.398 . S
Dy180 O185 2.491 . S
Dy180 O186 2.403 . S
Dy180 O187 2.664 . S
Dy180 O191 2.326 . S
Dy180 O195 2.310 . S
Dy180 O196 2.351 . S
C181 O192 1.185 . S
C181 O193 1.355 . S
C182 O184 1.185 . S
C182 O185 1.355 . S
Dy183 O187 2.310 . S
Dy183 O190 2.351 . S
Dy183 O192 2.398 . S
Dy183 O193 2.491 . S
Dy183 O194 2.403 . S
Dy183 O195 2.664 . S
Dy183 O197 2.326 . S
O184 Dy180 2.398 . S
O184 C182 1.185 . S
O185 Dy180 2.491 . S
O185 C182 1.355 . S
O186 Dy180 2.403 . S
O186 C188 1.254 . S
O187 Dy180 2.664 . S
O187 Dy183 2.310 . S
O187 C188 1.268 . S
C188 O186 1.254 . S
C188 O187 1.268 . S
C189 O194 1.254 . S
C189 O195 1.268 . S
O190 Dy183 2.351 . S
O190 C198 1.249 . S
O191 Dy180 2.326 . S
O191 C198 1.267 . S
O192 C181 1.185 . S
O192 Dy183 2.398 . S
O193 C181 1.355 . S
O193 Dy183 2.491 . S
O194 Dy183 2.403 . S
O194 C189 1.254 . S
O195 Dy180 2.310 . S
O195 Dy183 2.664 . S
O195 C189 1.268 . S
O196 Dy180 2.351 . S
O196 C199 1.249 . S
O197 Dy183 2.326 . S
O197 C199 1.267 . S
C198 O190 1.249 . S
C198 O191 1.267 . S
C199 O196 1.249 . S
C199 O197 1.267 . S
Dy200 O204 2.398 . S
Dy200 O205 2.491 . S
Dy200 O206 2.403 . S
Dy200 O207 2.664 . S
Dy200 O211 2.326 . S
Dy200 O215 2.310 . S
Dy200 O216 2.351 . S
C201 O212 1.185 . S
C201 O213 1.355 . S
C202 O204 1.185 . S
C202 O205 1.355 . S
Dy203 O207 2.310 . S
Dy203 O210 2.351 . S
Dy203 O212 2.398 . S
Dy203 O213 2.491 . S
Dy203 O214 2.403 . S
Dy203 O215 2.664 . S
Dy203 O217 2.326 . S
O204 Dy200 2.398 . S
O204 C202 1.185 . S
O205 Dy200 2.491 . S
O205 C202 1.355 . S
O206 Dy200 2.403 . S
O206 C208 1.254 . S
O207 Dy200 2.664 . S
O207 Dy203 2.310 . S
O207 C208 1.268 . S
C208 O206 1.254 . S
C208 O207 1.268 . S
C209 O214 1.254 . S
C209 O215 1.268 . S
O210 Dy203 2.351 . S
O210 C218 1.249 . S
O211 Dy200 2.326 . S
O211 C218 1.267 . S
O212 C201 1.185 . S
O212 Dy203 2.398 . S
O213 C201 1.355 . S
O213 Dy203 2.491 . S
O214 Dy203 2.403 . S
O214 C209 1.254 . S
O215 Dy200 2.310 . S
O215 Dy203 2.664 . S
O215 C209 1.268 . S
O216 Dy200 2.351 . S
O216 C219 1.249 . S
O217 Dy203 2.326 . S
O217 C219 1.267 . S
C218 O210 1.249 . S
C218 O211 1.267 . S
C219 O216 1.249 . S
C219 O217 1.267 . S
Dy220 O224 2.398 1_554 S
Dy220 O225 2.491 1_554 S
Dy220 O226 2.403 . S
Dy220 O227 2.664 . S
Dy220 O231 2.326 1_554 S
Dy220 O235 2.310 . S
Dy220 O236 2.351 . S
C221 O232 1.185 . S
C221 O233 1.355 . S
C222 O224 1.185 . S
C222 O225 1.355 . S
Dy223 O227 2.310 . S
Dy223 O230 2.351 . S
Dy223 O232 2.398 . S
Dy223 O233 2.491 . S
Dy223 O234 2.403 . S
Dy223 O235 2.664 . S
Dy223 O237 2.326 . S
O224 Dy220 2.398 1_556 S
O224 C222 1.185 . S
O225 Dy220 2.491 1_556 S
O225 C222 1.355 . S
O226 Dy220 2.403 . S
O226 C228 1.254 . S
O227 Dy220 2.664 . S
O227 Dy223 2.310 . S
O227 C228 1.268 . S
C228 O226 1.254 . S
C228 O227 1.268 . S
C229 O234 1.254 . S
C229 O235 1.268 . S
O230 Dy223 2.351 . S
O230 C238 1.249 1_554 S
O231 Dy220 2.326 1_556 S
O231 C238 1.267 . S
O232 C221 1.185 . S
O232 Dy223 2.398 . S
O233 C221 1.355 . S
O233 Dy223 2.491 . S
O234 Dy223 2.403 . S
O234 C229 1.254 . S
O235 Dy220 2.310 . S
O235 Dy223 2.664 . S
O235 C229 1.268 . S
O236 Dy220 2.351 . S
O236 C239 1.249 . S
O237 Dy223 2.326 . S
O237 C239 1.267 . S
C238 O230 1.249 1_556 S
C238 O231 1.267 . S
C239 O236 1.249 . S
C239 O237 1.267 . S
C240 C241 1.387 . S
C240 H244 0.950 . S
C240 C249 1.390 . S
C241 C240 1.387 . S
C241 C243 1.387 . S
H242 C249 0.950 . S
C243 C241 1.387 . S
C243 C245 1.390 . S
C243 H247 0.950 . S
H244 C240 0.950 . S
C245 C243 1.390 . S
C245 C246 1.387 . S
C245 H248 0.950 . S
C246 C245 1.387 . S
C246 C249 1.387 . S
H247 C243 0.950 . S
H248 C245 0.950 . S
C249 C240 1.390 . S
C249 H242 0.950 . S
C249 C246 1.387 . S
C250 C251 1.387 . S
C250 H254 0.950 . S
C250 C259 1.390 . S
C251 C250 1.387 . S
C251 C253 1.387 . S
H252 C259 0.950 . S
C253 C251 1.387 . S
C253 C255 1.390 . S
C253 H257 0.950 . S
H254 C250 0.950 . S
C255 C253 1.390 . S
C255 C256 1.387 . S
C255 H258 0.950 . S
C256 C255 1.387 . S
C256 C259 1.387 . S
H257 C253 0.950 . S
H258 C255 0.950 . S
C259 C250 1.390 . S
C259 H252 0.950 . S
C259 C256 1.387 . S
C260 C261 1.387 . S
C260 H264 0.950 . S
C260 C269 1.390 . S
C261 C260 1.387 . S
C261 C263 1.387 . S
H262 C269 0.950 . S
C263 C261 1.387 . S
C263 C265 1.390 . S
C263 H267 0.950 . S
H264 C260 0.950 . S
C265 C263 1.390 . S
C265 C266 1.387 . S
C265 H268 0.950 . S
C266 C265 1.387 . S
C266 C269 1.387 . S
H267 C263 0.950 . S
H268 C265 0.950 . S
C269 C260 1.390 . S
C269 H262 0.950 . S
C269 C266 1.387 . S
C270 C271 1.387 . S
C270 H274 0.950 . S
C270 C279 1.390 . S
C271 C270 1.387 . S
C271 C273 1.387 . S
H272 C279 0.950 . S
C273 C271 1.387 . S
C273 C275 1.390 . S
C273 H277 0.950 . S
H274 C270 0.950 . S
C275 C273 1.390 . S
C275 C276 1.387 . S
C275 H278 0.950 . S
C276 C275 1.387 . S
C276 C279 1.387 . S
H277 C273 0.950 . S
H278 C275 0.950 . S
C279 C270 1.390 . S
C279 H272 0.950 . S
C279 C276 1.387 . S
C280 C281 1.387 . S
C280 H284 0.950 . S
C280 C289 1.390 . S
C281 C280 1.387 . S
C281 C283 1.387 . S
H282 C289 0.950 . S
C283 C281 1.387 . S
C283 C285 1.390 . S
C283 H287 0.950 . S
H284 C280 0.950 . S
C285 C283 1.390 . S
C285 C286 1.387 . S
C285 H288 0.950 . S
C286 C285 1.387 . S
C286 C289 1.387 . S
H287 C283 0.950 . S
H288 C285 0.950 . S
C289 C280 1.390 . S
C289 H282 0.950 . S
C289 C286 1.387 . S
C290 C291 1.387 . S
C290 H294 0.950 . S
C290 C299 1.390 . S
C291 C290 1.387 . S
C291 C293 1.387 . S
H292 C299 0.950 . S
C293 C291 1.387 . S
C293 C295 1.390 . S
C293 H297 0.950 . S
H294 C290 0.950 . S
C295 C293 1.390 . S
C295 C296 1.387 . S
C295 H298 0.950 . S
C296 C295 1.387 . S
C296 C299 1.387 . S
H297 C293 0.950 . S
H298 C295 0.950 . S
C299 C290 1.390 . S
C299 H292 0.950 . S
C299 C296 1.387 . S
C300 C301 1.387 . S
C300 H304 0.950 . S
C300 C309 1.390 1_556 S
C301 C300 1.387 . S
C301 C303 1.387 . S
H302 C309 0.950 . S
C303 C301 1.387 . S
C303 C305 1.390 1_556 S
C303 H307 0.950 . S
H304 C300 0.950 . S
C305 C303 1.390 1_554 S
C305 C306 1.387 . S
C305 H308 0.950 . S
C306 C305 1.387 . S
C306 C309 1.387 . S
H307 C303 0.950 . S
H308 C305 0.950 . S
C309 C300 1.390 1_554 S
C309 H302 0.950 . S
C309 C306 1.387 . S
C310 C311 1.387 . S
C310 H314 0.950 . S
C310 C319 1.390 . S
C311 C310 1.387 . S
C311 C313 1.387 . S
H312 C319 0.950 . S
C313 C311 1.387 . S
C313 C315 1.390 . S
C313 H317 0.950 . S
H314 C310 0.950 . S
C315 C313 1.390 . S
C315 C316 1.387 . S
C315 H318 0.950 . S
C316 C315 1.387 . S
C316 C319 1.387 . S
H317 C313 0.950 . S
H318 C315 0.950 . S
C319 C310 1.390 . S
C319 H312 0.950 . S
C319 C316 1.387 . S
C320 C321 1.387 . S
C320 H324 0.950 . S
C320 C329 1.390 . S
C321 C320 1.387 . S
C321 C323 1.387 . S
H322 C329 0.950 . S
C323 C321 1.387 . S
C323 C325 1.390 . S
C323 H327 0.950 . S
H324 C320 0.950 . S
C325 C323 1.390 . S
C325 C326 1.387 . S
C325 H328 0.950 . S
C326 C325 1.387 . S
C326 C329 1.387 . S
H327 C323 0.950 . S
H328 C325 0.950 . S
C329 C320 1.390 . S
C329 H322 0.950 . S
C329 C326 1.387 . S
C330 C331 1.387 . S
C330 H334 0.950 . S
C330 C339 1.390 1_556 S
C331 C330 1.387 . S
C331 C333 1.387 . S
H332 C339 0.950 . S
C333 C331 1.387 . S
C333 C335 1.390 1_556 S
C333 H337 0.950 . S
H334 C330 0.950 . S
C335 C333 1.390 1_554 S
C335 C336 1.387 . S
C335 H338 0.950 . S
C336 C335 1.387 . S
C336 C339 1.387 . S
H337 C333 0.950 . S
H338 C335 0.950 . S
C339 C330 1.390 1_554 S
C339 H332 0.950 . S
C339 C336 1.387 . S
C340 C341 1.387 . S
C340 H344 0.950 . S
C340 C349 1.390 . S
C341 C340 1.387 . S
C341 C343 1.387 . S
H342 C349 0.950 . S
C343 C341 1.387 . S
C343 C345 1.390 . S
C343 H347 0.950 . S
H344 C340 0.950 . S
C345 C343 1.390 . S
C345 C346 1.387 . S
C345 H348 0.950 . S
C346 C345 1.387 . S
C346 C349 1.387 . S
H347 C343 0.950 . S
H348 C345 0.950 . S
C349 C340 1.390 . S
C349 H342 0.950 . S
C349 C346 1.387 . S
C350 C351 1.387 . S
C350 H354 0.950 . S
C350 C359 1.390 . S
C351 C350 1.387 . S
C351 C353 1.387 . S
H352 C359 0.950 . S
C353 C351 1.387 . S
C353 C355 1.390 . S
C353 H357 0.950 . S
H354 C350 0.950 . S
C355 C353 1.390 . S
C355 C356 1.387 . S
C355 H358 0.950 . S
C356 C355 1.387 . S
C356 C359 1.387 . S
H357 C353 0.950 . S
H358 C355 0.950 . S
C359 C350 1.390 . S
C359 H352 0.950 . S
C359 C356 1.387 . S
C360 C361 1.387 . S
C360 H364 0.950 . S
C360 C369 1.390 1_566 S
C361 C360 1.387 . S
C361 C363 1.387 . S
H362 C369 0.950 . S
C363 C361 1.387 . S
C363 C365 1.390 1_566 S
C363 H367 0.950 . S
H364 C360 0.950 . S
C365 C363 1.390 1_544 S
C365 C366 1.387 . S
C365 H368 0.950 . S
C366 C365 1.387 . S
C366 C369 1.387 . S
H367 C363 0.950 . S
H368 C365 0.950 . S
C369 C360 1.390 1_544 S
C369 H362 0.950 . S
C369 C366 1.387 . S
C370 C371 1.387 . S
C370 H374 0.950 . S
C370 C379 1.390 . S
C371 C370 1.387 . S
C371 C373 1.387 . S
H372 C379 0.950 . S
C373 C371 1.387 . S
C373 C375 1.390 . S
C373 H377 0.950 . S
H374 C370 0.950 . S
C375 C373 1.390 . S
C375 C376 1.387 . S
C375 H378 0.950 . S
C376 C375 1.387 . S
C376 C379 1.387 . S
H377 C373 0.950 . S
H378 C375 0.950 . S
C379 C370 1.390 . S
C379 H372 0.950 . S
C379 C376 1.387 . S
C380 C381 1.387 1_655 S
C380 H384 0.950 . S
C380 C389 1.390 . S
C381 C380 1.387 1_455 S
C381 C383 1.387 . S
H382 C389 0.950 . S
C383 C381 1.387 . S
C383 C385 1.390 . S
C383 H387 0.950 . S
H384 C380 0.950 . S
C385 C383 1.390 . S
C385 C386 1.387 1_455 S
C385 H388 0.950 . S
C386 C385 1.387 1_655 S
C386 C389 1.387 . S
H387 C383 0.950 . S
H388 C385 0.950 . S
C389 C380 1.390 . S
C389 H382 0.950 . S
C389 C386 1.387 . S
C390 C391 1.387 . S
C390 H394 0.950 . S
C390 C399 1.390 1_564 S
C391 C390 1.387 . S
C391 C393 1.387 . S
H392 C399 0.950 . S
C393 C391 1.387 . S
C393 C395 1.390 1_564 S
C393 H397 0.950 . S
H394 C390 0.950 . S
C395 C393 1.390 1_546 S
C395 C396 1.387 . S
C395 H398 0.950 . S
C396 C395 1.387 . S
C396 C399 1.387 . S
H397 C393 0.950 . S
H398 C395 0.950 . S
C399 C390 1.390 1_546 S
C399 H392 0.950 . S
C399 C396 1.387 . S
C400 C401 1.387 . S
C400 H404 0.950 . S
C400 C409 1.390 . S
C401 C400 1.387 . S
C401 C403 1.387 . S
H402 C409 0.950 . S
C403 C401 1.387 . S
C403 C405 1.390 . S
C403 H407 0.950 . S
H404 C400 0.950 . S
C405 C403 1.390 . S
C405 C406 1.387 . S
C405 H408 0.950 . S
C406 C405 1.387 . S
C406 C409 1.387 . S
H407 C403 0.950 . S
H408 C405 0.950 . S
C409 C400 1.390 . S
C409 H402 0.950 . S
C409 C406 1.387 . S
C410 C411 1.387 1_655 S
C410 H414 0.950 . S
C410 C419 1.390 . S
C411 C410 1.387 1_455 S
C411 C413 1.387 . S
H412 C419 0.950 . S
C413 C411 1.387 . S
C413 C415 1.390 . S
C413 H417 0.950 . S
H414 C410 0.950 . S
C415 C413 1.390 . S
C415 C416 1.387 1_455 S
C415 H418 0.950 . S
C416 C415 1.387 1_655 S
C416 C419 1.387 . S
H417 C413 0.950 . S
H418 C415 0.950 . S
C419 C410 1.390 . S
C419 H412 0.950 . S
C419 C416 1.387 . S
C420 C421 1.387 . S
C420 H424 0.950 . S
C420 C429 1.390 1_545 S
C421 C420 1.387 . S
C421 C423 1.387 . S
H422 C429 0.950 . S
C423 C421 1.387 . S
C423 C425 1.390 1_545 S
C423 H427 0.950 . S
H424 C420 0.950 . S
C425 C423 1.390 1_565 S
C425 C426 1.387 . S
C425 H428 0.950 . S
C426 C425 1.387 . S
C426 C429 1.387 . S
H427 C423 0.950 . S
H428 C425 0.950 . S
C429 C420 1.390 1_565 S
C429 H422 0.950 . S
C429 C426 1.387 . S
C430 C431 1.387 . S
C430 H434 0.950 . S
C430 C439 1.390 . S
C431 C430 1.387 . S
C431 C433 1.387 . S
H432 C439 0.950 . S
C433 C431 1.387 . S
C433 C435 1.390 . S
C433 H437 0.950 . S
H434 C430 0.950 . S
C435 C433 1.390 . S
C435 C436 1.387 . S
C435 H438 0.950 . S
C436 C435 1.387 . S
C436 C439 1.387 . S
H437 C433 0.950 . S
H438 C435 0.950 . S
C439 C430 1.390 . S
C439 H432 0.950 . S
C439 C436 1.387 . S
C440 C441 1.387 . S
C440 H444 0.950 . S
C440 C449 1.390 1_655 S
C441 C440 1.387 . S
C441 C443 1.387 . S
H442 C449 0.950 . S
C443 C441 1.387 . S
C443 C445 1.390 1_655 S
C443 H447 0.950 1_556 S
H444 C440 0.950 . S
C445 C443 1.390 1_455 S
C445 C446 1.387 . S
C445 H448 0.950 1_556 S
C446 C445 1.387 . S
C446 C449 1.387 . S
H447 C443 0.950 1_554 S
H448 C445 0.950 1_554 S
C449 C440 1.390 1_455 S
C449 H442 0.950 . S
C449 C446 1.387 . S
C450 C451 1.387 . S
C450 H454 0.950 . S
C450 C459 1.390 1_455 S
C451 C450 1.387 . S
C451 C453 1.387 . S
H452 C459 0.950 . S
C453 C451 1.387 . S
C453 C455 1.390 1_455 S
C453 H457 0.950 . S
H454 C450 0.950 . S
C455 C453 1.390 1_655 S
C455 C456 1.387 . S
C455 H458 0.950 . S
C456 C455 1.387 . S
C456 C459 1.387 . S
H457 C453 0.950 . S
H458 C455 0.950 . S
C459 C450 1.390 1_655 S
C459 H452 0.950 . S
C459 C456 1.387 . S
C460 C461 1.387 . S
C460 H464 0.950 . S
C460 C469 1.390 1_565 S
C461 C460 1.387 . S
C461 C463 1.387 . S
H462 C469 0.950 . S
C463 C461 1.387 . S
C463 C465 1.390 1_565 S
C463 H467 0.950 . S
H464 C460 0.950 . S
C465 C463 1.390 1_545 S
C465 C466 1.387 . S
C465 H468 0.950 . S
C466 C465 1.387 . S
C466 C469 1.387 . S
H467 C463 0.950 . S
H468 C465 0.950 . S
C469 C460 1.390 1_545 S
C469 H462 0.950 . S
C469 C466 1.387 . S
C470 C471 1.387 . S
C470 H474 0.950 1_554 S
C470 C479 1.390 . S
C471 C470 1.387 . S
C471 C473 1.387 . S
H472 C479 0.950 1_556 S
C473 C471 1.387 . S
C473 C475 1.390 . S
C473 H477 0.950 . S
H474 C470 0.950 1_556 S
C475 C473 1.390 . S
C475 C476 1.387 . S
C475 H478 0.950 . S
C476 C475 1.387 . S
C476 C479 1.387 . S
H477 C473 0.950 . S
H478 C475 0.950 . S
C479 C470 1.390 . S
C479 H472 0.950 1_554 S
C479 C476 1.387 . S
C480 C481 1.387 . S
C480 H484 0.950 . S
C480 C489 1.390 1_565 S
C481 C480 1.387 . S
C481 C483 1.387 . S
H482 C489 0.950 . S
C483 C481 1.387 . S
C483 C485 1.390 1_565 S
C483 H487 0.950 . S
H484 C480 0.950 . S
C485 C483 1.390 1_545 S
C485 C486 1.387 . S
C485 H488 0.950 . S
C486 C485 1.387 . S
C486 C489 1.387 . S
H487 C483 0.950 . S
H488 C485 0.950 . S
C489 C480 1.390 1_545 S
C489 H482 0.950 . S
C489 C486 1.387 . S
C490 C491 1.387 . S
C490 H494 0.950 . S
C490 C499 1.390 . S
C491 C490 1.387 . S
C491 C493 1.387 . S
H492 C499 0.950 . S
C493 C491 1.387 . S
C493 C495 1.390 . S
C493 H497 0.950 . S
H494 C490 0.950 . S
C495 C493 1.390 . S
C495 C496 1.387 . S
C495 H498 0.950 . S
C496 C495 1.387 . S
C496 C499 1.387 . S
H497 C493 0.950 . S
H498 C495 0.950 . S
C499 C490 1.390 . S
C499 H492 0.950 . S
C499 C496 1.387 . S
C500 C501 1.387 . S
C500 H504 0.950 . S
C500 C509 1.390 . S
C501 C500 1.387 . S
C501 C503 1.387 1_655 S
H502 C509 0.950 . S
C503 C501 1.387 1_455 S
C503 C505 1.390 . S
C503 H507 0.950 . S
H504 C500 0.950 . S
C505 C503 1.390 . S
C505 C506 1.387 . S
C505 H508 0.950 . S
C506 C505 1.387 . S
C506 C509 1.387 1_455 S
H507 C503 0.950 . S
H508 C505 0.950 . S
C509 C500 1.390 . S
C509 H502 0.950 . S
C509 C506 1.387 1_655 S
C510 C511 1.387 . S
C510 H514 0.950 . S
C510 C519 1.390 1_545 S
C511 C510 1.387 . S
C511 C513 1.387 . S
H512 C519 0.950 . S
C513 C511 1.387 . S
C513 C515 1.390 1_545 S
C513 H517 0.950 . S
H514 C510 0.950 . S
C515 C513 1.390 1_565 S
C515 C516 1.387 . S
C515 H518 0.950 . S
C516 C515 1.387 . S
C516 C519 1.387 . S
H517 C513 0.950 . S
H518 C515 0.950 . S
C519 C510 1.390 1_565 S
C519 H512 0.950 . S
C519 C516 1.387 . S
C520 C521 1.387 . S
C520 H524 0.950 . S
C520 C529 1.390 . S
C521 C520 1.387 . S
C521 C523 1.387 . S
H522 C529 0.950 . S
C523 C521 1.387 . S
C523 C525 1.390 . S
C523 H527 0.950 . S
H524 C520 0.950 . S
C525 C523 1.390 . S
C525 C526 1.387 . S
C525 H528 0.950 . S
C526 C525 1.387 . S
C526 C529 1.387 . S
H527 C523 0.950 . S
H528 C525 0.950 . S
C529 C520 1.390 . S
C529 H522 0.950 . S
C529 C526 1.387 . S
C530 C531 1.387 . S
C530 H534 0.950 . S
C530 C539 1.390 . S
C531 C530 1.387 . S
C531 C533 1.387 1_455 S
H532 C539 0.950 . S
C533 C531 1.387 1_655 S
C533 C535 1.390 . S
C533 H537 0.950 . S
H534 C530 0.950 . S
C535 C533 1.390 . S
C535 C536 1.387 . S
C535 H538 0.950 . S
C536 C535 1.387 . S
C536 C539 1.387 1_655 S
H537 C533 0.950 . S
H538 C535 0.950 . S
C539 C530 1.390 . S
C539 H532 0.950 . S
C539 C536 1.387 1_455 S
C540 C541 1.387 . S
C540 H544 0.950 . S
C540 C549 1.390 . S
C541 C540 1.387 . S
C541 C543 1.387 . S
H542 C549 0.950 . S
C543 C541 1.387 . S
C543 C545 1.390 . S
C543 H547 0.950 . S
H544 C540 0.950 . S
C545 C543 1.390 . S
C545 C546 1.387 . S
C545 H548 0.950 . S
C546 C545 1.387 . S
C546 C549 1.387 . S
H547 C543 0.950 . S
H548 C545 0.950 . S
C549 C540 1.390 . S
C549 H542 0.950 . S
C549 C546 1.387 . S
C550 C551 1.387 . S
C550 H554 0.950 . S
C550 C559 1.390 . S
C551 C550 1.387 . S
C551 C553 1.387 . S
H552 C559 0.950 . S
C553 C551 1.387 . S
C553 C555 1.390 . S
C553 H557 0.950 . S
H554 C550 0.950 . S
C555 C553 1.390 . S
C555 C556 1.387 . S
C555 H558 0.950 . S
C556 C555 1.387 . S
C556 C559 1.387 . S
H557 C553 0.950 . S
H558 C555 0.950 . S
C559 C550 1.390 . S
C559 H552 0.950 . S
C559 C556 1.387 . S
C560 C561 1.387 . S
C560 H564 0.950 . S
C560 C569 1.390 . S
C561 C560 1.387 . S
C561 C563 1.387 . S
H562 C569 0.950 . S
C563 C561 1.387 . S
C563 C565 1.390 . S
C563 H567 0.950 . S
H564 C560 0.950 . S
C565 C563 1.390 . S
C565 C566 1.387 . S
C565 H568 0.950 . S
C566 C565 1.387 . S
C566 C569 1.387 . S
H567 C563 0.950 . S
H568 C565 0.950 . S
C569 C560 1.390 . S
C569 H562 0.950 . S
C569 C566 1.387 . S
C570 C571 1.387 . S
C570 H574 0.950 . S
C570 C579 1.390 . S
C571 C570 1.387 . S
C571 C573 1.387 . S
H572 C579 0.950 . S
C573 C571 1.387 . S
C573 C575 1.390 . S
C573 H577 0.950 . S
H574 C570 0.950 . S
C575 C573 1.390 . S
C575 C576 1.387 . S
C575 H578 0.950 . S
C576 C575 1.387 . S
C576 C579 1.387 . S
H577 C573 0.950 . S
H578 C575 0.950 . S
C579 C570 1.390 . S
C579 H572 0.950 . S
C579 C576 1.387 . S
C580 C581 1.387 . S
C580 H584 0.950 . S
C580 C589 1.390 . S
C581 C580 1.387 . S
C581 C583 1.387 . S
H582 C589 0.950 . S
C583 C581 1.387 . S
C583 C585 1.390 . S
C583 H587 0.950 . S
H584 C580 0.950 . S
C585 C583 1.390 . S
C585 C586 1.387 . S
C585 H588 0.950 . S
C586 C585 1.387 . S
C586 C589 1.387 . S
H587 C583 0.950 . S
H588 C585 0.950 . S
C589 C580 1.390 . S
C589 H582 0.950 . S
C589 C586 1.387 . S
C590 C591 1.387 . S
C590 H594 0.950 . S
C590 C599 1.390 . S
C591 C590 1.387 . S
C591 C593 1.387 . S
H592 C599 0.950 . S
C593 C591 1.387 . S
C593 C595 1.390 . S
C593 H597 0.950 . S
H594 C590 0.950 . S
C595 C593 1.390 . S
C595 C596 1.387 . S
C595 H598 0.950 . S
C596 C595 1.387 . S
C596 C599 1.387 . S
H597 C593 0.950 . S
H598 C595 0.950 . S
C599 C590 1.390 . S
C599 H592 0.950 . S
C599 C596 1.387 . S
C241 C8 1.383 . S
C246 C168 1.385 . S
C251 C28 1.382 . S
C256 C188 1.382 . S
C261 C48 1.383 . S
C266 C208 1.385 . S
C271 C228 1.385 . S
C276 C68 1.383 . S
C281 C88 1.385 . S
C286 C128 1.385 . S
C291 C148 1.384 . S
C296 C108 1.383 . S
C301 C201 0.650 . S
C306 C1 0.650 . S
C311 C221 0.649 . S
C316 C21 0.650 . S
C321 C41 0.647 . S
C326 C121 0.649 . S
C331 C141 0.643 . S
C336 C61 0.643 . S
C341 C161 0.650 . S
C346 C81 0.651 . S
C351 C101 0.650 . S
C356 C181 0.651 . S
C361 C159 2.232 . S
C366 C19 2.232 . S
C371 C179 2.230 . S
C376 C39 2.231 . S
C381 C199 2.230 . S
C386 C59 2.232 . S
C391 C79 2.231 . S
C396 C219 2.231 . S
C401 C99 2.230 . S
C406 C239 2.231 . S
C411 C119 2.231 . S
C416 C139 2.232 . S
C421 C9 0.625 . S
C426 C69 0.625 . S
C431 C29 0.637 . S
C436 C89 0.637 . S
C441 C49 0.636 . S
C446 C109 0.636 . S
C451 C189 0.625 . S
C456 C129 0.625 . S
C461 C149 0.636 . S
C466 C209 0.636 . S
C471 C229 0.625 . S
C476 C169 0.625 . S
C481 C142 1.020 . S
C486 C2 1.020 . S
C491 C162 1.016 . S
C496 C22 1.015 . S
C501 C42 1.019 . S
C506 C182 1.020 . S
C511 C202 1.020 . S
C516 C62 1.020 . S
C521 C222 1.015 . S
C526 C82 1.015 . S
C531 C102 1.018 . S
C536 C122 1.019 . S
C541 C18 2.563 . S
C546 C218 2.563 . S
C551 C38 2.563 . S
C556 C238 2.563 . S
C561 C58 2.563 . S
C566 C138 2.563 . S
C571 C78 2.563 . S
C576 C158 2.563 . S
C581 C98 2.563 . S
C586 C178 2.563 . S
C591 C198 2.563 . S
C596 C118 2.563 . S
