# Generated by pormake.
# Topology upa, (4)-cn, num edge types: 1
# Building blocks:
#     Node 0, Type 0, BuildingBlock: NAHDIM_clean_sbu_0, # of connection points: 4
#     Node 1, Type 0, BuildingBlock: NAHDIM_clean_sbu_0, # of connection points: 4
#     Node 2, Type 0, BuildingBlock: NAHDIM_clean_sbu_0, # of connection points: 4
#     Node 3, Type 0, BuildingBlock: NAHDIM_clean_sbu_0, # of connection points: 4
#     Node 4, Type 0, BuildingBlock: NAHDIM_clean_sbu_0, # of connection points: 4
#     Node 5, Type 0, BuildingBlock: NAHDIM_clean_sbu_0, # of connection points: 4
#     Node 6, Type 0, BuildingBlock: NAHDIM_clean_sbu_0, # of connection points: 4
#     Node 7, Type 0, BuildingBlock: NAHDIM_clean_sbu_0, # of connection points: 4
#     Edge 8, Type (0, 0), BuildingBlock: XIVTED_clean_linker_0, # of connection points: 2
#     Edge 9, Type (0, 0), BuildingBlock: XIVTED_clean_linker_0, # of connection points: 2
#     Edge 10, Type (0, 0), BuildingBlock: XIVTED_clean_linker_0, # of connection points: 2
#     Edge 11, Type (0, 0), BuildingBlock: XIVTED_clean_linker_0, # of connection points: 2
#     Edge 12, Type (0, 0), BuildingBlock: XIVTED_clean_linker_0, # of connection points: 2
#     Edge 13, Type (0, 0), BuildingBlock: XIVTED_clean_linker_0, # of connection points: 2
#     Edge 14, Type (0, 0), BuildingBlock: XIVTED_clean_linker_0, # of connection points: 2
#     Edge 15, Type (0, 0), BuildingBlock: XIVTED_clean_linker_0, # of connection points: 2
#     Edge 16, Type (0, 0), BuildingBlock: XIVTED_clean_linker_0, # of connection points: 2
#     Edge 17, Type (0, 0), BuildingBlock: XIVTED_clean_linker_0, # of connection points: 2
#     Edge 18, Type (0, 0), BuildingBlock: XIVTED_clean_linker_0, # of connection points: 2
#     Edge 19, Type (0, 0), BuildingBlock: XIVTED_clean_linker_0, # of connection points: 2
#     Edge 20, Type (0, 0), BuildingBlock: XIVTED_clean_linker_0, # of connection points: 2
#     Edge 21, Type (0, 0), BuildingBlock: XIVTED_clean_linker_0, # of connection points: 2
#     Edge 22, Type (0, 0), BuildingBlock: XIVTED_clean_linker_0, # of connection points: 2
#     Edge 23, Type (0, 0), BuildingBlock: XIVTED_clean_linker_0, # of connection points: 2
# Relax obj value: 0.273
# Max RMSD: 0.206
# Mean RMSD: 0.206
data_MOF--net-upa--node1-NAHDIM_clean_sbu_0--edge1-XIVTED_clean_linker_0
_symmetry_space_group_name_H-M    P1
_symmetry_Int_Tables_number       1
_symmetry_cell_setting            triclinic
loop_
_symmetry_equiv_pos_as_xyz
'x, y, z'
_cell_length_a     26.724939
_cell_length_b     26.690084
_cell_length_c     41.822336
_cell_angle_alpha  89.913568
_cell_angle_beta   90.020438
_cell_angle_gamma 89.991944
loop_
_atom_site_label
_atom_site_type_symbol
_atom_site_fract_x
_atom_site_fract_y
_atom_site_fract_z
_atom_type_partial_charge
C0 C 0.30531 0.16692 0.3035 0.0
O1 O 0.30168 0.15867 0.33439 0.0
O2 O 0.15518 0.23745 0.28795 0.0
Zn3 Zn 0.20082 0.18895 0.31097 0.0
O4 O 0.21264 0.20783 0.35691 0.0
C5 C 0.13106 0.11365 0.29072 0.0
O6 O 0.12683 0.14346 0.26584 0.0
O7 O 0.26656 0.1802 0.28798 0.0
C8 C 0.17576 0.2111 0.37594 0.0
O9 O 0.13011 0.20574 0.36478 0.0
C10 C 0.13514 0.2774 0.2984 0.0
O11 O 0.14873 0.29514 0.32635 0.0
O12 O 0.16296 0.12392 0.31229 0.0
C13 C 0.34816 0.80993 0.76752 0.0
O14 O 0.38411 0.78148 0.75619 0.0
O15 O 0.26841 0.67556 0.77932 0.0
Zn16 Zn 0.31667 0.7201 0.80314 0.0
O17 O 0.30131 0.71951 0.85023 0.0
C18 C 0.39415 0.66286 0.77275 0.0
O19 O 0.36454 0.66727 0.74782 0.0
O20 O 0.31638 0.79134 0.78681 0.0
C21 C 0.30568 0.67816 0.86509 0.0
O22 O 0.31815 0.63778 0.849 0.0
C23 C 0.22942 0.65517 0.7909 0.0
O24 O 0.21397 0.66827 0.8195 0.0
O25 O 0.38337 0.68613 0.79833 0.0
C26 C 0.69328 0.80351 0.30584 0.0
O27 O 0.69213 0.82181 0.33498 0.0
O28 O 0.84558 0.73259 0.30345 0.0
Zn29 Zn 0.79658 0.78215 0.32175 0.0
O30 O 0.78163 0.7685 0.3682 0.0
C31 C 0.87405 0.84915 0.33456 0.0
O32 O 0.88603 0.81089 0.35282 0.0
O33 O 0.7337 0.78459 0.29533 0.0
C34 C 0.8045 0.73515 0.38427 0.0
O35 O 0.83723 0.70625 0.36985 0.0
C36 C 0.86046 0.74318 0.27539 0.0
O37 O 0.83847 0.78007 0.25999 0.0
O38 O 0.83336 0.84759 0.31884 0.0
C39 C 0.67259 0.22921 0.77394 0.0
O40 O 0.6417 0.26185 0.76115 0.0
O41 O 0.75582 0.35559 0.80289 0.0
Zn42 Zn 0.70052 0.31027 0.81836 0.0
O43 O 0.70572 0.29971 0.86587 0.0
C44 C 0.63466 0.37609 0.78445 0.0
O45 O 0.66971 0.37208 0.76258 0.0
O46 O 0.70051 0.24243 0.79706 0.0
C47 C 0.66635 0.28765 0.88107 0.0
O48 O 0.62438 0.28151 0.86517 0.0
C49 C 0.76561 0.39325 0.82042 0.0
O50 O 0.74532 0.39581 0.84898 0.0
O51 O 0.63783 0.34987 0.80979 0.0
C52 C 0.78818 0.33277 0.21958 0.0
O53 O 0.75802 0.36729 0.23092 0.0
O54 O 0.65858 0.24582 0.20801 0.0
Zn55 Zn 0.70016 0.29692 0.18408 0.0
O56 O 0.70131 0.28291 0.13673 0.0
C57 C 0.63793 0.37119 0.21436 0.0
O58 O 0.64106 0.34043 0.23884 0.0
O59 O 0.77119 0.30004 0.20036 0.0
C60 C 0.66227 0.29228 0.12038 0.0
O61 O 0.62199 0.30863 0.13504 0.0
C62 C 0.63156 0.21278 0.19456 0.0
O63 O 0.63567 0.20569 0.16361 0.0
O64 O 0.66342 0.3622 0.18936 0.0
C65 C 0.15436 0.31007 0.71395 0.0
O66 O 0.11381 0.28465 0.72115 0.0
O67 O 0.23665 0.17366 0.69994 0.0
Zn68 Zn 0.18717 0.22001 0.67858 0.0
O69 O 0.19867 0.22658 0.63128 0.0
C70 C 0.11122 0.16326 0.71026 0.0
O71 O 0.14121 0.1698 0.7348 0.0
O72 O 0.18865 0.2894 0.69753 0.0
C73 C 0.20477 0.1891 0.61302 0.0
O74 O 0.20603 0.14379 0.62531 0.0
C75 C 0.27732 0.15544 0.68935 0.0
O76 O 0.29508 0.171 0.6618 0.0
O77 O 0.12114 0.18508 0.68398 0.0
C78 C 0.20847 0.66313 0.20544 0.0
O79 O 0.23382 0.62458 0.21638 0.0
O80 O 0.34593 0.74038 0.18834 0.0
Zn81 Zn 0.29949 0.6894 0.16894 0.0
O82 O 0.29609 0.69887 0.12125 0.0
C83 C 0.35453 0.61591 0.20435 0.0
O84 O 0.34827 0.64862 0.22746 0.0
O85 O 0.22948 0.69393 0.18651 0.0
C86 C 0.28414 0.66148 0.1041 0.0
O87 O 0.2737 0.61864 0.11811 0.0
C88 C 0.3887 0.74233 0.17508 0.0
O89 O 0.39598 0.7167 0.14868 0.0
O90 O 0.33318 0.62337 0.17759 0.0
C91 C 0.82732 0.73237 0.73139 0.0
O92 O 0.8513 0.76834 0.74632 0.0
O93 O 0.74642 0.85421 0.7008 0.0
Zn94 Zn 0.79995 0.80891 0.683 0.0
O95 O 0.78778 0.79549 0.63633 0.0
C96 C 0.86895 0.87714 0.71136 0.0
O97 O 0.836 0.87472 0.73462 0.0
O98 O 0.8037 0.74214 0.70574 0.0
C99 C 0.81333 0.76175 0.62247 0.0
O100 O 0.84646 0.73635 0.63913 0.0
C101 C 0.73162 0.89012 0.68315 0.0
O102 O 0.74563 0.89117 0.65305 0.0
O103 O 0.86341 0.84921 0.68699 0.0
H104 H 0.05052 0.08915 0.25344 0.0
H105 H 0.95967 0.86716 0.36818 0.0
H106 H 0.12821 0.04532 0.33961 0.0
H107 H 0.87159 0.92394 0.28951 0.0
H108 H 0.02306 0.93054 0.35707 0.0
H109 H 0.98681 0.02589 0.26457 0.0
C110 C 0.05445 0.06595 0.27456 0.0
C111 C 0.09478 0.07258 0.29564 0.0
C112 C 0.98979 0.92933 0.34231 0.0
C113 C 0.02172 0.0004 0.30865 0.0
C114 C 0.95349 0.89319 0.34867 0.0
C115 C 0.91028 0.89022 0.32971 0.0
C116 C 0.98306 0.9626 0.31664 0.0
C117 C 0.90427 0.92498 0.30479 0.0
C118 C 0.01787 0.03004 0.281 0.0
C119 C 0.09778 0.04155 0.3227 0.0
N120 N 0.94043 0.95958 0.29886 0.0
N121 N 0.06169 0.00687 0.32844 0.0
H122 H 0.43432 0.61272 0.7217 0.0
H123 H 0.57284 0.41158 0.83131 0.0
H124 H 0.4431 0.62402 0.82452 0.0
H125 H 0.61031 0.43199 0.73172 0.0
H126 H 0.51627 0.48325 0.82787 0.0
H127 H 0.49241 0.54169 0.72365 0.0
C128 C 0.44887 0.60063 0.74463 0.0
C129 C 0.43386 0.62434 0.77299 0.0
C130 C 0.5368 0.47195 0.80676 0.0
C131 C 0.49925 0.54267 0.77539 0.0
C132 C 0.56876 0.43076 0.80861 0.0
C133 C 0.59642 0.41584 0.78176 0.0
C134 C 0.53196 0.49807 0.77776 0.0
C135 C 0.5898 0.44233 0.75302 0.0
C136 C 0.48188 0.56008 0.74571 0.0
C137 C 0.45378 0.60705 0.80204 0.0
N138 N 0.55816 0.48218 0.75175 0.0
N139 N 0.48504 0.56695 0.80252 0.0
H140 H 0.60501 0.4251 0.16288 0.0
H141 H 0.40198 0.58381 0.25876 0.0
H142 H 0.58152 0.4062 0.26433 0.0
H143 H 0.39553 0.55889 0.15686 0.0
H144 H 0.47243 0.52525 0.26214 0.0
H145 H 0.53448 0.4831 0.16114 0.0
C146 C 0.58542 0.43359 0.18488 0.0
C147 C 0.59915 0.41067 0.21381 0.0
C148 C 0.45525 0.53238 0.23912 0.0
C149 C 0.51806 0.47679 0.21187 0.0
C150 C 0.41501 0.56566 0.23717 0.0
C151 C 0.39283 0.57625 0.20748 0.0
C152 C 0.47386 0.51022 0.21112 0.0
C153 C 0.41132 0.55174 0.18027 0.0
C154 C 0.54486 0.46637 0.1838 0.0
C155 C 0.57213 0.42294 0.24151 0.0
N156 N 0.45105 0.52025 0.18271 0.0
N157 N 0.53283 0.45522 0.23987 0.0
H158 H 0.07318 0.11609 0.76312 0.0
H159 H 0.92668 0.91018 0.66152 0.0
H160 H 0.06073 0.12089 0.66023 0.0
H161 H 0.89834 0.93504 0.76188 0.0
H162 H 0.98411 0.98151 0.66157 0.0
H163 H 0.01507 0.04517 0.76401 0.0
C164 C 0.05786 0.10257 0.74076 0.0
C165 C 0.0718 0.12447 0.71156 0.0
C166 C 0.96539 0.97123 0.68359 0.0
C167 C 0.00623 0.04285 0.71239 0.0
C168 C 0.93295 0.93027 0.68365 0.0
C169 C 0.90763 0.91669 0.71174 0.0
C170 C 0.97299 0.99847 0.71188 0.0
C171 C 0.91698 0.94431 0.73966 0.0
C172 C 0.02482 0.06205 0.74129 0.0
C173 C 0.05088 0.10534 0.6833 0.0
N174 N 0.94896 0.98388 0.73905 0.0
N175 N 0.0195 0.06534 0.68441 0.0
H176 H 0.11283 0.25027 0.42077 0.0
H177 H 0.24718 0.12786 0.56823 0.0
H178 H 0.25725 0.18002 0.40998 0.0
H179 H 0.16533 0.26631 0.57844 0.0
H180 H 0.24473 0.13846 0.50991 0.0
H181 H 0.12438 0.24947 0.47898 0.0
C182 C 0.14709 0.23506 0.43068 0.0
C183 C 0.18416 0.21521 0.41066 0.0
C184 C 0.22776 0.16665 0.52503 0.0
C185 C 0.19698 0.21314 0.47685 0.0
C186 C 0.22892 0.16054 0.55818 0.0
C187 C 0.20639 0.19625 0.57807 0.0
C188 C 0.20272 0.208 0.5118 0.0
C189 C 0.18333 0.23802 0.56391 0.0
C190 C 0.15369 0.23475 0.46377 0.0
C191 C 0.2279 0.19594 0.42463 0.0
N192 N 0.18142 0.2424 0.53156 0.0
N193 N 0.23281 0.19464 0.45697 0.0
H194 H 0.30105 0.59444 0.90264 0.0
H195 H 0.29588 0.74573 0.06722 0.0
H196 H 0.29413 0.75588 0.90728 0.0
H197 H 0.27177 0.58612 0.06062 0.0
H198 H 0.29782 0.75045 0.00881 0.0
H199 H 0.29276 0.59076 0.96071 0.0
C200 C 0.29764 0.62914 0.91586 0.0
C201 C 0.29843 0.67556 0.90008 0.0
C202 C 0.29186 0.71445 0.02016 0.0
C203 C 0.28918 0.6716 0.96665 0.0
C204 C 0.29085 0.71171 0.0535 0.0
C205 C 0.28376 0.66543 0.06883 0.0
C206 C 0.28619 0.67056 0.00204 0.0
C207 C 0.27734 0.6226 0.04984 0.0
C208 C 0.2928 0.627 0.94903 0.0
C209 C 0.29368 0.71928 0.91846 0.0
N210 N 0.27898 0.62617 0.01746 0.0
N211 N 0.28957 0.71625 0.95081 0.0
H212 H 0.86278 0.69327 0.58546 0.0
H213 H 0.74193 0.79105 0.42188 0.0
H214 H 0.75055 0.80941 0.58043 0.0
H215 H 0.85461 0.67534 0.42687 0.0
H216 H 0.73947 0.79335 0.48021 0.0
H217 H 0.85564 0.68168 0.52775 0.0
C218 C 0.83645 0.71619 0.57226 0.0
C219 C 0.80746 0.75262 0.5878 0.0
C220 C 0.76448 0.76719 0.46856 0.0
C221 C 0.79914 0.73955 0.52164 0.0
C222 C 0.76585 0.76579 0.43522 0.0
C223 C 0.79884 0.73322 0.41943 0.0
C224 C 0.79644 0.73593 0.48629 0.0
C225 C 0.82878 0.70122 0.438 0.0
C226 C 0.83237 0.70952 0.53928 0.0
C227 C 0.77383 0.78106 0.56945 0.0
N228 N 0.82713 0.70366 0.47044 0.0
N229 N 0.77079 0.77409 0.53732 0.0
H230 H 0.74754 0.2899 0.92115 0.0
H231 H 0.58221 0.29571 0.07983 0.0
H232 H 0.58662 0.27552 0.92126 0.0
H233 H 0.74249 0.27554 0.08094 0.0
H234 H 0.58335 0.29021 0.0216 0.0
H235 H 0.74693 0.28649 0.97961 0.0
C236 C 0.71211 0.28582 0.93345 0.0
C237 C 0.66703 0.28319 0.91629 0.0
C238 C 0.61826 0.28668 0.03457 0.0
C239 C 0.66608 0.27956 0.98313 0.0
C240 C 0.61766 0.28993 0.06783 0.0
C241 C 0.66236 0.28628 0.08527 0.0
C242 C 0.66396 0.28026 0.01854 0.0
C243 C 0.70714 0.27857 0.06843 0.0
C244 C 0.71181 0.28376 0.96681 0.0
C245 C 0.62226 0.27775 0.93348 0.0
N246 N 0.70686 0.2762 0.03597 0.0
N247 N 0.6229 0.27647 0.96594 0.0
H248 H 0.61498 0.21273 0.2592 0.0
H249 H 0.32468 0.1651 0.2392 0.0
H250 H 0.54898 0.16625 0.16981 0.0
H251 H 0.39789 0.16105 0.33118 0.0
H252 H 0.40669 0.16495 0.21328 0.0
H253 H 0.53666 0.19217 0.28641 0.0
C254 C 0.58433 0.19737 0.24538 0.0
C255 C 0.58841 0.19163 0.21213 0.0
C256 C 0.4048 0.16355 0.23913 0.0
C257 C 0.49841 0.169 0.24301 0.0
C258 C 0.35799 0.1639 0.25394 0.0
C259 C 0.35445 0.1635 0.28741 0.0
C260 C 0.44838 0.16362 0.25792 0.0
C261 C 0.39887 0.16156 0.30531 0.0
C262 C 0.5396 0.1857 0.26093 0.0
C263 C 0.54751 0.17146 0.19545 0.0
N264 N 0.44401 0.16232 0.29036 0.0
N265 N 0.50393 0.16166 0.21098 0.0
H266 H 0.40194 0.86011 0.72152 0.0
H267 H 0.25125 0.11604 0.74728 0.0
H268 H 0.28597 0.8815 0.79203 0.0
H269 H 0.34967 0.09098 0.66703 0.0
H270 H 0.27449 0.03444 0.76871 0.0
H271 H 0.39264 0.94796 0.70538 0.0
C272 C 0.3747 0.88328 0.73371 0.0
C273 C 0.34439 0.86326 0.758 0.0
C274 C 0.29141 0.04689 0.74655 0.0
C275 C 0.33387 0.96376 0.73981 0.0
C276 C 0.27832 0.09367 0.73434 0.0
C277 C 0.29808 0.11022 0.70507 0.0
C278 C 0.32444 0.01611 0.7294 0.0
C279 C 0.33331 0.07965 0.68958 0.0
C280 C 0.36946 0.9334 0.72448 0.0
C281 C 0.30986 0.8951 0.77301 0.0
N282 N 0.34497 0.03378 0.70176 0.0
N283 N 0.3055 0.94362 0.76363 0.0
H284 H 0.59742 0.82887 0.32297 0.0
H285 H 0.48394 0.75316 0.15272 0.0
H286 H 0.68543 0.77825 0.24272 0.0
H287 H 0.39265 0.78083 0.23599 0.0
H288 H 0.55794 0.77635 0.18333 0.0
H289 H 0.52218 0.82407 0.28965 0.0
C290 C 0.601 0.81706 0.29831 0.0
C291 C 0.64775 0.80347 0.2857 0.0
C292 C 0.5217 0.77784 0.19487 0.0
C293 C 0.56193 0.79817 0.24748 0.0
C294 C 0.47933 0.76478 0.17735 0.0
C295 C 0.43204 0.76448 0.19191 0.0
C296 C 0.51693 0.7906 0.22728 0.0
C297 C 0.42841 0.78028 0.22384 0.0
C298 C 0.55803 0.81433 0.27933 0.0
C299 C 0.65016 0.78863 0.25356 0.0
N300 N 0.4704 0.7922 0.24059 0.0
N301 N 0.60787 0.78621 0.23564 0.0
H302 H 0.71591 0.14797 0.8026 0.0
H303 H 0.68708 0.96908 0.65262 0.0
H304 H 0.6334 0.19156 0.71828 0.0
H305 H 0.72738 0.91537 0.74656 0.0
H306 H 0.66542 0.05024 0.67592 0.0
H307 H 0.7206 0.06252 0.78214 0.0
C308 C 0.69872 0.13957 0.77977 0.0
C309 C 0.67453 0.17708 0.762 0.0
C310 C 0.67826 0.02044 0.69149 0.0
C311 C 0.67983 0.07917 0.73841 0.0
C312 C 0.69055 0.97407 0.67823 0.0
C313 C 0.70943 0.9355 0.69763 0.0
C314 C 0.68568 0.02854 0.72432 0.0
C315 C 0.71304 0.94402 0.73067 0.0
C316 C 0.70113 0.09065 0.7682 0.0
C317 C 0.65254 0.16385 0.73272 0.0
N318 N 0.70205 0.98987 0.74289 0.0
N319 N 0.65615 0.11606 0.72167 0.0
H320 H 0.09794 0.24989 0.24015 0.0
H321 H 0.83578 0.38934 0.26525 0.0
H322 H 0.06797 0.34769 0.32003 0.0
H323 H 0.86256 0.27398 0.19505 0.0
H324 H 0.92389 0.38438 0.28124 0.0
H325 H 0.0158 0.26978 0.21833 0.0
C326 C 0.07439 0.27616 0.25291 0.0
C327 C 0.0897 0.29664 0.28222 0.0
C328 C 0.91045 0.36038 0.26223 0.0
C329 C 0.99503 0.31913 0.25745 0.0
C330 C 0.86018 0.36315 0.2531 0.0
C331 C 0.84161 0.3317 0.22896 0.0
C332 C 0.94241 0.32614 0.24697 0.0
C333 C 0.87502 0.29864 0.21397 0.0
C334 C 0.0273 0.28732 0.24047 0.0
C335 C 0.05763 0.33078 0.29747 0.0
N336 N 0.92365 0.29666 0.22328 0.0
N337 N 0.01152 0.34052 0.28509 0.0
H338 H 0.09667 0.36358 0.75631 0.0
H339 H 0.25755 0.61414 0.73381 0.0
H340 H 0.22411 0.37757 0.69351 0.0
H341 H 0.15517 0.59235 0.81248 0.0
H342 H 0.234 0.53237 0.71287 0.0
H343 H 0.10771 0.4514 0.77212 0.0
C344 C 0.12683 0.38509 0.74578 0.0
C345 C 0.15975 0.36306 0.72373 0.0
C346 C 0.21633 0.54562 0.73457 0.0
C347 C 0.17214 0.46344 0.7414 0.0
C348 C 0.22955 0.59252 0.74647 0.0
C349 C 0.20877 0.60998 0.7752 0.0
C350 C 0.18201 0.51579 0.75142 0.0
C351 C 0.17242 0.58027 0.79038 0.0
C352 C 0.13307 0.43516 0.7548 0.0
C353 C 0.19809 0.39277 0.7108 0.0
N354 N 0.16052 0.53436 0.77847 0.0
N355 N 0.20319 0.44132 0.71982 0.0
H356 H 0.14156 0.72788 0.17856 0.0
H357 H 0.92344 0.67481 0.3039 0.0
H358 H 0.15408 0.61465 0.25196 0.0
H359 H 0.90497 0.76308 0.2181 0.0
H360 H 0.00684 0.65008 0.28536 0.0
H361 H 0.05438 0.74053 0.19325 0.0
C362 C 0.12598 0.70563 0.19782 0.0
C363 C 0.15531 0.67033 0.21418 0.0
C364 C 0.98422 0.67437 0.27046 0.0
C365 C 0.05507 0.68468 0.23118 0.0
C366 C 0.93655 0.68838 0.28096 0.0
C367 C 0.90731 0.72144 0.26265 0.0
C368 C 0.00281 0.6939 0.2416 0.0
C369 C 0.92625 0.73785 0.23315 0.0
C370 C 0.07601 0.7127 0.20609 0.0
C371 C 0.13285 0.64234 0.23876 0.0
N372 N 0.97292 0.72435 0.22374 0.0
N373 N 0.0841 0.65038 0.2467 0.0
H374 H 0.78352 0.41425 0.75725 0.0
H375 H 0.85688 0.70028 0.79084 0.0
H376 H 0.80018 0.47583 0.85204 0.0
H377 H 0.79841 0.64652 0.70098 0.0
H378 H 0.85292 0.6147 0.812 0.0
H379 H 0.80731 0.49543 0.73472 0.0
C380 C 0.7932 0.44449 0.77335 0.0
C381 C 0.78936 0.4384 0.8066 0.0
C382 C 0.84127 0.62169 0.7876 0.0
C383 C 0.8161 0.53145 0.78095 0.0
C384 C 0.84352 0.67048 0.7755 0.0
C385 C 0.82742 0.68066 0.74421 0.0
C386 C 0.8233 0.58277 0.76815 0.0
C387 C 0.81064 0.64052 0.72537 0.0
C388 C 0.80638 0.49094 0.76046 0.0
C389 C 0.8022 0.47902 0.82626 0.0
N390 N 0.80892 0.59341 0.73765 0.0
N391 N 0.8146 0.52395 0.81315 0.0
loop_
_geom_bond_atom_site_label_1
_geom_bond_atom_site_label_2
_geom_bond_distance
_geom_bond_site_symmetry_2
_ccdc_geom_bond_type
C0 O1 1.160 . S
C0 O7 1.185 . S
O1 C0 1.160 . S
O2 Zn3 1.899 . S
O2 C10 1.284 . S
Zn3 O2 1.899 . S
Zn3 O4 2.032 . S
Zn3 O7 2.086 . S
Zn3 O12 1.977 . S
O4 Zn3 2.032 . S
O4 C8 1.278 . S
C5 O6 1.203 . S
C5 O12 1.267 . S
O6 C5 1.203 . S
O7 C0 1.185 . S
O7 Zn3 2.086 . S
C8 O4 1.278 . S
C8 O9 1.211 . S
O9 C8 1.211 . S
C10 O2 1.284 . S
C10 O11 1.273 . S
O11 C10 1.273 . S
O12 Zn3 1.977 . S
O12 C5 1.267 . S
C13 O14 1.160 . S
C13 O20 1.185 . S
O14 C13 1.160 . S
O15 Zn16 1.899 . S
O15 C23 1.284 . S
Zn16 O15 1.899 . S
Zn16 O17 2.032 . S
Zn16 O20 2.086 . S
Zn16 O25 1.977 . S
O17 Zn16 2.032 . S
O17 C21 1.278 . S
C18 O19 1.203 . S
C18 O25 1.267 . S
O19 C18 1.203 . S
O20 C13 1.185 . S
O20 Zn16 2.086 . S
C21 O17 1.278 . S
C21 O22 1.211 . S
O22 C21 1.211 . S
C23 O15 1.284 . S
C23 O24 1.273 . S
O24 C23 1.273 . S
O25 Zn16 1.977 . S
O25 C18 1.267 . S
C26 O27 1.160 . S
C26 O33 1.185 . S
O27 C26 1.160 . S
O28 Zn29 1.899 . S
O28 C36 1.284 . S
Zn29 O28 1.899 . S
Zn29 O30 2.032 . S
Zn29 O33 2.086 . S
Zn29 O38 1.977 . S
O30 Zn29 2.032 . S
O30 C34 1.278 . S
C31 O32 1.203 . S
C31 O38 1.267 . S
O32 C31 1.203 . S
O33 C26 1.185 . S
O33 Zn29 2.086 . S
C34 O30 1.278 . S
C34 O35 1.211 . S
O35 C34 1.211 . S
C36 O28 1.284 . S
C36 O37 1.273 . S
O37 C36 1.273 . S
O38 Zn29 1.977 . S
O38 C31 1.267 . S
C39 O40 1.160 . S
C39 O46 1.185 . S
O40 C39 1.160 . S
O41 Zn42 1.899 . S
O41 C49 1.284 . S
Zn42 O41 1.899 . S
Zn42 O43 2.032 . S
Zn42 O46 2.086 . S
Zn42 O51 1.977 . S
O43 Zn42 2.032 . S
O43 C47 1.278 . S
C44 O45 1.203 . S
C44 O51 1.267 . S
O45 C44 1.203 . S
O46 C39 1.185 . S
O46 Zn42 2.086 . S
C47 O43 1.278 . S
C47 O48 1.211 . S
O48 C47 1.211 . S
C49 O41 1.284 . S
C49 O50 1.273 . S
O50 C49 1.273 . S
O51 Zn42 1.977 . S
O51 C44 1.267 . S
C52 O53 1.160 . S
C52 O59 1.185 . S
O53 C52 1.160 . S
O54 Zn55 1.899 . S
O54 C62 1.284 . S
Zn55 O54 1.899 . S
Zn55 O56 2.032 . S
Zn55 O59 2.086 . S
Zn55 O64 1.977 . S
O56 Zn55 2.032 . S
O56 C60 1.278 . S
C57 O58 1.203 . S
C57 O64 1.267 . S
O58 C57 1.203 . S
O59 C52 1.185 . S
O59 Zn55 2.086 . S
C60 O56 1.278 . S
C60 O61 1.211 . S
O61 C60 1.211 . S
C62 O54 1.284 . S
C62 O63 1.273 . S
O63 C62 1.273 . S
O64 Zn55 1.977 . S
O64 C57 1.267 . S
C65 O66 1.160 . S
C65 O72 1.185 . S
O66 C65 1.160 . S
O67 Zn68 1.899 . S
O67 C75 1.284 . S
Zn68 O67 1.899 . S
Zn68 O69 2.032 . S
Zn68 O72 2.086 . S
Zn68 O77 1.977 . S
O69 Zn68 2.032 . S
O69 C73 1.278 . S
C70 O71 1.203 . S
C70 O77 1.267 . S
O71 C70 1.203 . S
O72 C65 1.185 . S
O72 Zn68 2.086 . S
C73 O69 1.278 . S
C73 O74 1.211 . S
O74 C73 1.211 . S
C75 O67 1.284 . S
C75 O76 1.273 . S
O76 C75 1.273 . S
O77 Zn68 1.977 . S
O77 C70 1.267 . S
C78 O79 1.160 . S
C78 O85 1.185 . S
O79 C78 1.160 . S
O80 Zn81 1.899 . S
O80 C88 1.284 . S
Zn81 O80 1.899 . S
Zn81 O82 2.032 . S
Zn81 O85 2.086 . S
Zn81 O90 1.977 . S
O82 Zn81 2.032 . S
O82 C86 1.278 . S
C83 O84 1.203 . S
C83 O90 1.267 . S
O84 C83 1.203 . S
O85 C78 1.185 . S
O85 Zn81 2.086 . S
C86 O82 1.278 . S
C86 O87 1.211 . S
O87 C86 1.211 . S
C88 O80 1.284 . S
C88 O89 1.273 . S
O89 C88 1.273 . S
O90 Zn81 1.977 . S
O90 C83 1.267 . S
C91 O92 1.160 . S
C91 O98 1.185 . S
O92 C91 1.160 . S
O93 Zn94 1.899 . S
O93 C101 1.284 . S
Zn94 O93 1.899 . S
Zn94 O95 2.032 . S
Zn94 O98 2.086 . S
Zn94 O103 1.977 . S
O95 Zn94 2.032 . S
O95 C99 1.278 . S
C96 O97 1.203 . S
C96 O103 1.267 . S
O97 C96 1.203 . S
O98 C91 1.185 . S
O98 Zn94 2.086 . S
C99 O95 1.278 . S
C99 O100 1.211 . S
O100 C99 1.211 . S
C101 O93 1.284 . S
C101 O102 1.273 . S
O102 C101 1.273 . S
O103 Zn94 1.977 . S
O103 C96 1.267 . S
H104 C110 0.930 . S
H105 C114 0.930 . S
H106 C119 0.929 . S
H107 C117 0.929 . S
H108 C112 0.929 1_545 S
H109 C118 0.929 1_565 S
C110 H104 0.930 . S
C110 C111 1.367 . S
C110 C118 1.378 . S
C111 C110 1.367 . S
C111 C119 1.433 . S
C112 H108 0.929 1_565 S
C112 C114 1.378 . S
C112 C116 1.350 . S
C113 C116 1.463 1_445 S
C113 C118 1.350 . S
C113 N121 1.427 . S
C114 H105 0.930 . S
C114 C112 1.378 . S
C114 C115 1.367 . S
C115 C114 1.367 . S
C115 C117 1.433 . S
C116 C112 1.350 . S
C116 C113 1.463 1_665 S
C116 N120 1.427 . S
C117 H107 0.929 . S
C117 C115 1.433 . S
C117 N120 1.384 . S
C118 H109 0.929 1_545 S
C118 C110 1.378 . S
C118 C113 1.350 . S
C119 H106 0.929 . S
C119 C111 1.433 . S
C119 N121 1.384 . S
N120 C116 1.427 . S
N120 C117 1.384 . S
N121 C113 1.427 . S
N121 C119 1.384 . S
H122 C128 0.930 . S
H123 C132 0.930 . S
H124 C137 0.929 . S
H125 C135 0.929 . S
H126 C130 0.929 . S
H127 C136 0.929 . S
C128 H122 0.930 . S
C128 C129 1.367 . S
C128 C136 1.378 . S
C129 C128 1.367 . S
C129 C137 1.433 . S
C130 H126 0.929 . S
C130 C132 1.378 . S
C130 C134 1.350 . S
C131 C134 1.463 . S
C131 C136 1.350 . S
C131 N139 1.427 . S
C132 H123 0.930 . S
C132 C130 1.378 . S
C132 C133 1.367 . S
C133 C132 1.367 . S
C133 C135 1.433 . S
C134 C130 1.350 . S
C134 C131 1.463 . S
C134 N138 1.427 . S
C135 H125 0.929 . S
C135 C133 1.433 . S
C135 N138 1.384 . S
C136 H127 0.929 . S
C136 C128 1.378 . S
C136 C131 1.350 . S
C137 H124 0.929 . S
C137 C129 1.433 . S
C137 N139 1.384 . S
N138 C134 1.427 . S
N138 C135 1.384 . S
N139 C131 1.427 . S
N139 C137 1.384 . S
H140 C146 0.930 . S
H141 C150 0.930 . S
H142 C155 0.929 . S
H143 C153 0.929 . S
H144 C148 0.929 . S
H145 C154 0.929 . S
C146 H140 0.930 . S
C146 C147 1.367 . S
C146 C154 1.378 . S
C147 C146 1.367 . S
C147 C155 1.433 . S
C148 H144 0.929 . S
C148 C150 1.378 . S
C148 C152 1.350 . S
C149 C152 1.463 . S
C149 C154 1.350 . S
C149 N157 1.427 . S
C150 H141 0.930 . S
C150 C148 1.378 . S
C150 C151 1.367 . S
C151 C150 1.367 . S
C151 C153 1.433 . S
C152 C148 1.350 . S
C152 C149 1.463 . S
C152 N156 1.427 . S
C153 H143 0.929 . S
C153 C151 1.433 . S
C153 N156 1.384 . S
C154 H145 0.929 . S
C154 C146 1.378 . S
C154 C149 1.350 . S
C155 H142 0.929 . S
C155 C147 1.433 . S
C155 N157 1.384 . S
N156 C152 1.427 . S
N156 C153 1.384 . S
N157 C149 1.427 . S
N157 C155 1.384 . S
H158 C164 0.930 . S
H159 C168 0.930 . S
H160 C173 0.929 . S
H161 C171 0.929 . S
H162 C166 0.929 . S
H163 C172 0.929 . S
C164 H158 0.930 . S
C164 C165 1.367 . S
C164 C172 1.378 . S
C165 C164 1.367 . S
C165 C173 1.433 . S
C166 H162 0.929 . S
C166 C168 1.378 . S
C166 C170 1.350 . S
C167 C170 1.463 1_445 S
C167 C172 1.350 . S
C167 N175 1.427 . S
C168 H159 0.930 . S
C168 C166 1.378 . S
C168 C169 1.367 . S
C169 C168 1.367 . S
C169 C171 1.433 . S
C170 C166 1.350 . S
C170 C167 1.463 1_665 S
C170 N174 1.427 . S
C171 H161 0.929 . S
C171 C169 1.433 . S
C171 N174 1.384 . S
C172 H163 0.929 . S
C172 C164 1.378 . S
C172 C167 1.350 . S
C173 H160 0.929 . S
C173 C165 1.433 . S
C173 N175 1.384 . S
N174 C170 1.427 . S
N174 C171 1.384 . S
N175 C167 1.427 . S
N175 C173 1.384 . S
H176 C182 0.930 . S
H177 C186 0.930 . S
H178 C191 0.929 . S
H179 C189 0.929 . S
H180 C184 0.929 . S
H181 C190 0.929 . S
C182 H176 0.930 . S
C182 C183 1.367 . S
C182 C190 1.378 . S
C183 C182 1.367 . S
C183 C191 1.433 . S
C184 H180 0.929 . S
C184 C186 1.378 . S
C184 C188 1.350 . S
C185 C188 1.463 . S
C185 C190 1.350 . S
C185 N193 1.427 . S
C186 H177 0.930 . S
C186 C184 1.378 . S
C186 C187 1.367 . S
C187 C186 1.367 . S
C187 C189 1.433 . S
C188 C184 1.350 . S
C188 C185 1.463 . S
C188 N192 1.427 . S
C189 H179 0.929 . S
C189 C187 1.433 . S
C189 N192 1.384 . S
C190 H181 0.929 . S
C190 C182 1.378 . S
C190 C185 1.350 . S
C191 H178 0.929 . S
C191 C183 1.433 . S
C191 N193 1.384 . S
N192 C188 1.427 . S
N192 C189 1.384 . S
N193 C185 1.427 . S
N193 C191 1.384 . S
H194 C200 0.930 . S
H195 C204 0.930 . S
H196 C209 0.929 . S
H197 C207 0.929 . S
H198 C202 0.929 . S
H199 C208 0.929 . S
C200 H194 0.930 . S
C200 C201 1.367 . S
C200 C208 1.378 . S
C201 C200 1.367 . S
C201 C209 1.433 . S
C202 H198 0.929 . S
C202 C204 1.378 . S
C202 C206 1.350 . S
C203 C206 1.463 1_556 S
C203 C208 1.350 . S
C203 N211 1.427 . S
C204 H195 0.930 . S
C204 C202 1.378 . S
C204 C205 1.367 . S
C205 C204 1.367 . S
C205 C207 1.433 . S
C206 C202 1.350 . S
C206 C203 1.463 1_554 S
C206 N210 1.427 . S
C207 H197 0.929 . S
C207 C205 1.433 . S
C207 N210 1.384 . S
C208 H199 0.929 . S
C208 C200 1.378 . S
C208 C203 1.350 . S
C209 H196 0.929 . S
C209 C201 1.433 . S
C209 N211 1.384 . S
N210 C206 1.427 . S
N210 C207 1.384 . S
N211 C203 1.427 . S
N211 C209 1.384 . S
H212 C218 0.930 . S
H213 C222 0.930 . S
H214 C227 0.929 . S
H215 C225 0.929 . S
H216 C220 0.929 . S
H217 C226 0.929 . S
C218 H212 0.930 . S
C218 C219 1.367 . S
C218 C226 1.378 . S
C219 C218 1.367 . S
C219 C227 1.433 . S
C220 H216 0.929 . S
C220 C222 1.378 . S
C220 C224 1.350 . S
C221 C224 1.463 . S
C221 C226 1.350 . S
C221 N229 1.427 . S
C222 H213 0.930 . S
C222 C220 1.378 . S
C222 C223 1.367 . S
C223 C222 1.367 . S
C223 C225 1.433 . S
C224 C220 1.350 . S
C224 C221 1.463 . S
C224 N228 1.427 . S
C225 H215 0.929 . S
C225 C223 1.433 . S
C225 N228 1.384 . S
C226 H217 0.929 . S
C226 C218 1.378 . S
C226 C221 1.350 . S
C227 H214 0.929 . S
C227 C219 1.433 . S
C227 N229 1.384 . S
N228 C224 1.427 . S
N228 C225 1.384 . S
N229 C221 1.427 . S
N229 C227 1.384 . S
H230 C236 0.930 . S
H231 C240 0.930 . S
H232 C245 0.929 . S
H233 C243 0.929 . S
H234 C238 0.929 . S
H235 C244 0.929 . S
C236 H230 0.930 . S
C236 C237 1.367 . S
C236 C244 1.378 . S
C237 C236 1.367 . S
C237 C245 1.433 . S
C238 H234 0.929 . S
C238 C240 1.378 . S
C238 C242 1.350 . S
C239 C242 1.463 1_556 S
C239 C244 1.350 . S
C239 N247 1.427 . S
C240 H231 0.930 . S
C240 C238 1.378 . S
C240 C241 1.367 . S
C241 C240 1.367 . S
C241 C243 1.433 . S
C242 C238 1.350 . S
C242 C239 1.463 1_554 S
C242 N246 1.427 . S
C243 H233 0.929 . S
C243 C241 1.433 . S
C243 N246 1.384 . S
C244 H235 0.929 . S
C244 C236 1.378 . S
C244 C239 1.350 . S
C245 H232 0.929 . S
C245 C237 1.433 . S
C245 N247 1.384 . S
N246 C242 1.427 . S
N246 C243 1.384 . S
N247 C239 1.427 . S
N247 C245 1.384 . S
H248 C254 0.930 . S
H249 C258 0.930 . S
H250 C263 0.929 . S
H251 C261 0.929 . S
H252 C256 0.929 . S
H253 C262 0.929 . S
C254 H248 0.930 . S
C254 C255 1.367 . S
C254 C262 1.378 . S
C255 C254 1.367 . S
C255 C263 1.433 . S
C256 H252 0.929 . S
C256 C258 1.378 . S
C256 C260 1.350 . S
C257 C260 1.463 . S
C257 C262 1.350 . S
C257 N265 1.427 . S
C258 H249 0.930 . S
C258 C256 1.378 . S
C258 C259 1.367 . S
C259 C258 1.367 . S
C259 C261 1.433 . S
C260 C256 1.350 . S
C260 C257 1.463 . S
C260 N264 1.427 . S
C261 H251 0.929 . S
C261 C259 1.433 . S
C261 N264 1.384 . S
C262 H253 0.929 . S
C262 C254 1.378 . S
C262 C257 1.350 . S
C263 H250 0.929 . S
C263 C255 1.433 . S
C263 N265 1.384 . S
N264 C260 1.427 . S
N264 C261 1.384 . S
N265 C257 1.427 . S
N265 C263 1.384 . S
H266 C272 0.930 . S
H267 C276 0.930 . S
H268 C281 0.929 . S
H269 C279 0.929 . S
H270 C274 0.929 . S
H271 C280 0.929 . S
C272 H266 0.930 . S
C272 C273 1.367 . S
C272 C280 1.378 . S
C273 C272 1.367 . S
C273 C281 1.433 . S
C274 H270 0.929 . S
C274 C276 1.378 1_565 S
C274 C278 1.350 . S
C275 C278 1.463 . S
C275 C280 1.350 . S
C275 N283 1.427 . S
C276 H267 0.930 . S
C276 C274 1.378 1_545 S
C276 C277 1.367 . S
C277 C276 1.367 . S
C277 C279 1.433 1_545 S
C278 C274 1.350 . S
C278 C275 1.463 . S
C278 N282 1.427 . S
C279 H269 0.929 . S
C279 C277 1.433 1_565 S
C279 N282 1.384 . S
C280 H271 0.929 . S
C280 C272 1.378 . S
C280 C275 1.350 . S
C281 H268 0.929 . S
C281 C273 1.433 . S
C281 N283 1.384 . S
N282 C278 1.427 . S
N282 C279 1.384 . S
N283 C275 1.427 . S
N283 C281 1.384 . S
H284 C290 0.930 . S
H285 C294 0.930 . S
H286 C299 0.929 . S
H287 C297 0.929 . S
H288 C292 0.929 . S
H289 C298 0.929 . S
C290 H284 0.930 . S
C290 C291 1.367 . S
C290 C298 1.378 . S
C291 C290 1.367 . S
C291 C299 1.433 . S
C292 H288 0.929 . S
C292 C294 1.378 . S
C292 C296 1.350 . S
C293 C296 1.463 . S
C293 C298 1.350 . S
C293 N301 1.427 . S
C294 H285 0.930 . S
C294 C292 1.378 . S
C294 C295 1.367 . S
C295 C294 1.367 . S
C295 C297 1.433 . S
C296 C292 1.350 . S
C296 C293 1.463 . S
C296 N300 1.427 . S
C297 H287 0.929 . S
C297 C295 1.433 . S
C297 N300 1.384 . S
C298 H289 0.929 . S
C298 C290 1.378 . S
C298 C293 1.350 . S
C299 H286 0.929 . S
C299 C291 1.433 . S
C299 N301 1.384 . S
N300 C296 1.427 . S
N300 C297 1.384 . S
N301 C293 1.427 . S
N301 C299 1.384 . S
H302 C308 0.930 . S
H303 C312 0.930 . S
H304 C317 0.929 . S
H305 C315 0.929 . S
H306 C310 0.929 . S
H307 C316 0.929 . S
C308 H302 0.930 . S
C308 C309 1.367 . S
C308 C316 1.378 . S
C309 C308 1.367 . S
C309 C317 1.433 . S
C310 H306 0.929 . S
C310 C312 1.378 . S
C310 C314 1.350 . S
C311 C314 1.463 . S
C311 C316 1.350 . S
C311 N319 1.427 . S
C312 H303 0.930 . S
C312 C310 1.378 . S
C312 C313 1.367 1_545 S
C313 C312 1.367 1_565 S
C313 C315 1.433 . S
C314 C310 1.350 . S
C314 C311 1.463 . S
C314 N318 1.427 . S
C315 H305 0.929 . S
C315 C313 1.433 . S
C315 N318 1.384 1_565 S
C316 H307 0.929 . S
C316 C308 1.378 . S
C316 C311 1.350 . S
C317 H304 0.929 . S
C317 C309 1.433 . S
C317 N319 1.384 . S
N318 C314 1.427 . S
N318 C315 1.384 1_545 S
N319 C311 1.427 . S
N319 C317 1.384 . S
H320 C326 0.930 . S
H321 C330 0.930 . S
H322 C335 0.929 . S
H323 C333 0.929 . S
H324 C328 0.929 . S
H325 C334 0.929 . S
C326 H320 0.930 . S
C326 C327 1.367 . S
C326 C334 1.378 1_455 S
C327 C326 1.367 . S
C327 C335 1.433 1_455 S
C328 H324 0.929 . S
C328 C330 1.378 . S
C328 C332 1.350 . S
C329 C332 1.463 . S
C329 C334 1.350 . S
C329 N337 1.427 . S
C330 H321 0.930 . S
C330 C328 1.378 . S
C330 C331 1.367 . S
C331 C330 1.367 . S
C331 C333 1.433 . S
C332 C328 1.350 . S
C332 C329 1.463 . S
C332 N336 1.427 . S
C333 H323 0.929 . S
C333 C331 1.433 . S
C333 N336 1.384 . S
C334 H325 0.929 . S
C334 C326 1.378 1_655 S
C334 C329 1.350 . S
C335 H322 0.929 . S
C335 C327 1.433 1_655 S
C335 N337 1.384 . S
N336 C332 1.427 . S
N336 C333 1.384 . S
N337 C329 1.427 . S
N337 C335 1.384 . S
H338 C344 0.930 . S
H339 C348 0.930 . S
H340 C353 0.929 . S
H341 C351 0.929 . S
H342 C346 0.929 . S
H343 C352 0.929 . S
C344 H338 0.930 . S
C344 C345 1.367 . S
C344 C352 1.378 . S
C345 C344 1.367 . S
C345 C353 1.433 . S
C346 H342 0.929 . S
C346 C348 1.378 . S
C346 C350 1.350 . S
C347 C350 1.463 . S
C347 C352 1.350 . S
C347 N355 1.427 . S
C348 H339 0.930 . S
C348 C346 1.378 . S
C348 C349 1.367 . S
C349 C348 1.367 . S
C349 C351 1.433 . S
C350 C346 1.350 . S
C350 C347 1.463 . S
C350 N354 1.427 . S
C351 H341 0.929 . S
C351 C349 1.433 . S
C351 N354 1.384 . S
C352 H343 0.929 . S
C352 C344 1.378 . S
C352 C347 1.350 . S
C353 H340 0.929 . S
C353 C345 1.433 . S
C353 N355 1.384 . S
N354 C350 1.427 . S
N354 C351 1.384 . S
N355 C347 1.427 . S
N355 C353 1.384 . S
H356 C362 0.930 . S
H357 C366 0.930 . S
H358 C371 0.929 . S
H359 C369 0.929 1_655 S
H360 C364 0.929 . S
H361 C370 0.929 . S
C362 H356 0.930 . S
C362 C363 1.367 . S
C362 C370 1.378 . S
C363 C362 1.367 . S
C363 C371 1.433 . S
C364 H360 0.929 . S
C364 C366 1.378 . S
C364 C368 1.350 . S
C365 C368 1.463 . S
C365 C370 1.350 . S
C365 N373 1.427 . S
C366 H357 0.930 . S
C366 C364 1.378 . S
C366 C367 1.367 1_455 S
C367 C366 1.367 1_655 S
C367 C369 1.433 1_655 S
C368 C364 1.350 . S
C368 C365 1.463 . S
C368 N372 1.427 . S
C369 H359 0.929 1_455 S
C369 C367 1.433 1_455 S
C369 N372 1.384 . S
C370 H361 0.929 . S
C370 C362 1.378 . S
C370 C365 1.350 . S
C371 H358 0.929 . S
C371 C363 1.433 . S
C371 N373 1.384 . S
N372 C368 1.427 . S
N372 C369 1.384 . S
N373 C365 1.427 . S
N373 C371 1.384 . S
H374 C380 0.930 . S
H375 C384 0.930 . S
H376 C389 0.929 . S
H377 C387 0.929 . S
H378 C382 0.929 . S
H379 C388 0.929 . S
C380 H374 0.930 . S
C380 C381 1.367 . S
C380 C388 1.378 . S
C381 C380 1.367 . S
C381 C389 1.433 . S
C382 H378 0.929 . S
C382 C384 1.378 . S
C382 C386 1.350 . S
C383 C386 1.463 . S
C383 C388 1.350 . S
C383 N391 1.427 . S
C384 H375 0.930 . S
C384 C382 1.378 . S
C384 C385 1.367 . S
C385 C384 1.367 . S
C385 C387 1.433 . S
C386 C382 1.350 . S
C386 C383 1.463 . S
C386 N390 1.427 . S
C387 H377 0.929 . S
C387 C385 1.433 . S
C387 N390 1.384 . S
C388 H379 0.929 . S
C388 C380 1.378 . S
C388 C383 1.350 . S
C389 H376 0.929 . S
C389 C381 1.433 . S
C389 N391 1.384 . S
N390 C386 1.427 . S
N390 C387 1.384 . S
N391 C383 1.427 . S
N391 C389 1.384 . S
C111 C5 0.585 . S
C115 C31 0.581 . S
C129 C18 0.576 . S
C133 C44 0.569 . S
C147 C57 0.544 . S
C151 C83 0.553 . S
C165 C70 0.557 . S
C169 C96 0.548 . S
C183 C8 1.389 . S
C187 C73 1.390 . S
C201 C21 1.377 . S
C205 C86 1.394 . S
C219 C99 1.379 . S
C223 C34 1.394 . S
C237 C47 1.390 . S
C241 C60 1.373 . S
C255 C62 1.500 . S
C259 C0 1.550 . S
C273 C13 1.545 . S
C277 C75 1.512 . S
C291 C26 1.551 . S
C295 C88 1.509 . S
C309 C39 1.552 . S
C313 C101 1.502 . S
C327 C10 1.510 . S
C331 C52 1.545 . S
C345 C65 1.546 . S
C349 C23 1.514 . S
C363 C78 1.550 . S
C367 C36 1.500 . S
C381 C49 1.514 . S
C385 C91 1.546 . S
