# Generated by pormake.
# Topology wke, (5)-cn, num edge types: 1
# Building blocks:
#     Node 0, Type 0, BuildingBlock: XOMCOT_clean_sbu_0, # of connection points: 5
#     Node 1, Type 0, BuildingBlock: XOMCOT_clean_sbu_0, # of connection points: 5
#     Node 2, Type 0, BuildingBlock: XOMCOT_clean_sbu_0, # of connection points: 5
#     Node 3, Type 0, BuildingBlock: XOMCOT_clean_sbu_0, # of connection points: 5
#     Node 4, Type 0, BuildingBlock: XOMCOT_clean_sbu_0, # of connection points: 5
#     Node 5, Type 0, BuildingBlock: XOMCOT_clean_sbu_0, # of connection points: 5
#     Node 6, Type 0, BuildingBlock: XOMCOT_clean_sbu_0, # of connection points: 5
#     Node 7, Type 0, BuildingBlock: XOMCOT_clean_sbu_0, # of connection points: 5
#     Node 8, Type 0, BuildingBlock: XOMCOT_clean_sbu_0, # of connection points: 5
#     Node 9, Type 0, BuildingBlock: XOMCOT_clean_sbu_0, # of connection points: 5
#     Node 10, Type 0, BuildingBlock: XOMCOT_clean_sbu_0, # of connection points: 5
#     Node 11, Type 0, BuildingBlock: XOMCOT_clean_sbu_0, # of connection points: 5
#     Edge 12, Type (0, 0), BuildingBlock: EZIPEK_clean_linker_0, # of connection points: 2
#     Edge 13, Type (0, 0), BuildingBlock: EZIPEK_clean_linker_0, # of connection points: 2
#     Edge 14, Type (0, 0), BuildingBlock: EZIPEK_clean_linker_0, # of connection points: 2
#     Edge 15, Type (0, 0), BuildingBlock: EZIPEK_clean_linker_0, # of connection points: 2
#     Edge 16, Type (0, 0), BuildingBlock: EZIPEK_clean_linker_0, # of connection points: 2
#     Edge 17, Type (0, 0), BuildingBlock: EZIPEK_clean_linker_0, # of connection points: 2
#     Edge 18, Type (0, 0), BuildingBlock: EZIPEK_clean_linker_0, # of connection points: 2
#     Edge 19, Type (0, 0), BuildingBlock: EZIPEK_clean_linker_0, # of connection points: 2
#     Edge 20, Type (0, 0), BuildingBlock: EZIPEK_clean_linker_0, # of connection points: 2
#     Edge 21, Type (0, 0), BuildingBlock: EZIPEK_clean_linker_0, # of connection points: 2
#     Edge 22, Type (0, 0), BuildingBlock: EZIPEK_clean_linker_0, # of connection points: 2
#     Edge 23, Type (0, 0), BuildingBlock: EZIPEK_clean_linker_0, # of connection points: 2
#     Edge 24, Type (0, 0), BuildingBlock: EZIPEK_clean_linker_0, # of connection points: 2
#     Edge 25, Type (0, 0), BuildingBlock: EZIPEK_clean_linker_0, # of connection points: 2
#     Edge 26, Type (0, 0), BuildingBlock: EZIPEK_clean_linker_0, # of connection points: 2
#     Edge 27, Type (0, 0), BuildingBlock: EZIPEK_clean_linker_0, # of connection points: 2
#     Edge 28, Type (0, 0), BuildingBlock: EZIPEK_clean_linker_0, # of connection points: 2
#     Edge 29, Type (0, 0), BuildingBlock: EZIPEK_clean_linker_0, # of connection points: 2
#     Edge 30, Type (0, 0), BuildingBlock: EZIPEK_clean_linker_0, # of connection points: 2
#     Edge 31, Type (0, 0), BuildingBlock: EZIPEK_clean_linker_0, # of connection points: 2
#     Edge 32, Type (0, 0), BuildingBlock: EZIPEK_clean_linker_0, # of connection points: 2
#     Edge 33, Type (0, 0), BuildingBlock: EZIPEK_clean_linker_0, # of connection points: 2
#     Edge 34, Type (0, 0), BuildingBlock: EZIPEK_clean_linker_0, # of connection points: 2
#     Edge 35, Type (0, 0), BuildingBlock: EZIPEK_clean_linker_0, # of connection points: 2
#     Edge 36, Type (0, 0), BuildingBlock: EZIPEK_clean_linker_0, # of connection points: 2
#     Edge 37, Type (0, 0), BuildingBlock: EZIPEK_clean_linker_0, # of connection points: 2
#     Edge 38, Type (0, 0), BuildingBlock: EZIPEK_clean_linker_0, # of connection points: 2
#     Edge 39, Type (0, 0), BuildingBlock: EZIPEK_clean_linker_0, # of connection points: 2
#     Edge 40, Type (0, 0), BuildingBlock: EZIPEK_clean_linker_0, # of connection points: 2
#     Edge 41, Type (0, 0), BuildingBlock: EZIPEK_clean_linker_0, # of connection points: 2
# Relax obj value: 0.147
# Max RMSD: 0.149
# Mean RMSD: 0.149
data_MOF--net-wke--node1-XOMCOT_clean_sbu_0--edge1-EZIPEK_clean_linker_0
_symmetry_space_group_name_H-M    P1
_symmetry_Int_Tables_number       1
_symmetry_cell_setting            triclinic
loop_
_symmetry_equiv_pos_as_xyz
'x, y, z'
_cell_length_a     53.388602
_cell_length_b     53.453203
_cell_length_c     13.614194
_cell_angle_alpha  90.075278
_cell_angle_beta   89.838119
_cell_angle_gamma 120.07031
loop_
_atom_site_label
_atom_site_type_symbol
_atom_site_fract_x
_atom_site_fract_y
_atom_site_fract_z
_atom_type_partial_charge
Co0 Co 0.11658 0.4193 0.33894 0.0
C1 C 0.12007 0.40977 0.12106 0.0
C2 C 0.07679 0.3933 0.17201 0.0
C3 C 0.07612 0.38759 0.07385 0.0
N4 N 0.10438 0.40733 0.20288 0.0
N5 N 0.10329 0.39666 0.04081 0.0
H6 H 0.1432 0.42186 0.12005 0.0
H7 H 0.05804 0.38779 0.21664 0.0
C8 C 0.05969 0.39401 0.44866 0.0
O9 O 0.06916 0.41943 0.48957 0.0
N10 N 0.12804 0.43029 0.47673 0.0
C11 C 0.14016 0.45676 0.51889 0.0
C12 C 0.14111 0.45408 0.6192 0.0
C13 C 0.12264 0.41201 0.55335 0.0
N14 N 0.13003 0.42597 0.64102 0.0
C15 C 0.13345 0.47877 0.30706 0.0
C16 C 0.07907 0.47253 0.29471 0.0
C17 C 0.10336 0.50024 0.29036 0.0
C18 C 0.13079 0.50319 0.29407 0.0
C19 C 0.08284 0.44858 0.30608 0.0
N20 N 0.10968 0.45187 0.3195 0.0
H21 H 0.15504 0.48204 0.31086 0.0
H22 H 0.06417 0.42762 0.30363 0.0
H23 H 0.14736 0.47696 0.48185 0.0
H24 H 0.11268 0.38888 0.54565 0.0
O25 O 0.15678 0.43942 0.30144 0.0
O26 O 0.13291 0.39363 0.34189 0.0
O27 O 0.07533 0.39049 0.38482 0.0
C28 C 0.15722 0.41567 0.31168 0.0
H29 H 0.05666 0.37854 0.03021 0.0
H30 H 0.14862 0.47139 0.67254 0.0
H31 H 0.05748 0.46943 0.2884 0.0
H32 H 0.15006 0.52431 0.2886 0.0
Co33 Co 0.6955 0.11223 0.82126 0.0
C34 C 0.68735 0.1065 0.60437 0.0
C35 C 0.70732 0.08313 0.65919 0.0
C36 C 0.70715 0.08191 0.55816 0.0
N37 N 0.69423 0.09787 0.68863 0.0
N38 N 0.69522 0.09718 0.52366 0.0
H39 H 0.67892 0.12116 0.60206 0.0
H40 H 0.71765 0.07507 0.7079 0.0
C41 C 0.66642 0.0458 0.85475 0.0
O42 O 0.66258 0.03876 0.76146 0.0
N43 N 0.69782 0.12693 0.95531 0.0
C44 C 0.70929 0.1548 0.98393 0.0
C45 C 0.70915 0.15609 0.08511 0.0
C46 C 0.69115 0.11179 0.04072 0.0
N47 N 0.69776 0.12904 0.1203 0.0
C48 C 0.65281 0.12968 0.82788 0.0
C49 C 0.60686 0.07887 0.75754 0.0
C50 C 0.60237 0.10167 0.78304 0.0
C51 C 0.62571 0.12739 0.81791 0.0
C52 C 0.63438 0.08216 0.76811 0.0
N53 N 0.65681 0.10698 0.80592 0.0
H54 H 0.67074 0.15 0.85174 0.0
H55 H 0.63754 0.06486 0.74405 0.0
H56 H 0.71798 0.17323 0.93519 0.0
H57 H 0.68265 0.08877 0.04624 0.0
O58 O 0.71753 0.15118 0.77036 0.0
O59 O 0.73686 0.1257 0.82504 0.0
O60 O 0.67914 0.07224 0.88249 0.0
C61 C 0.74077 0.14978 0.78656 0.0
H62 H 0.71714 0.07257 0.51323 0.0
H63 H 0.7178 0.17545 0.12961 0.0
H64 H 0.58935 0.0589 0.72827 0.0
H65 H 0.62305 0.14566 0.83625 0.0
Co66 Co 0.58554 0.69935 0.34521 0.0
C67 C 0.58245 0.69237 0.12799 0.0
C68 C 0.62495 0.70579 0.18351 0.0
C69 C 0.62603 0.70588 0.08226 0.0
N70 N 0.59769 0.69753 0.21208 0.0
N71 N 0.5994 0.6978 0.04778 0.0
H72 H 0.55988 0.68646 0.12541 0.0
H73 H 0.64312 0.71283 0.23275 0.0
C74 C 0.6059 0.66313 0.45038 0.0
O75 O 0.57926 0.64676 0.4822 0.0
N76 N 0.57409 0.70242 0.48078 0.0
C77 C 0.55399 0.70947 0.50842 0.0
C78 C 0.55293 0.71043 0.60951 0.0
C79 C 0.58591 0.70078 0.56698 0.0
N80 N 0.57292 0.70475 0.64563 0.0
C81 C 0.52574 0.65422 0.35543 0.0
C82 C 0.53349 0.61074 0.27771 0.0
C83 C 0.50581 0.60431 0.30783 0.0
C84 C 0.50196 0.62643 0.34595 0.0
C85 C 0.55673 0.63894 0.28838 0.0
N86 N 0.55296 0.66002 0.33106 0.0
H87 H 0.52195 0.67113 0.38008 0.0
H88 H 0.57787 0.64389 0.26275 0.0
H89 H 0.54108 0.71415 0.45895 0.0
H90 H 0.60407 0.69754 0.5741 0.0
O91 O 0.56695 0.72012 0.29702 0.0
O92 O 0.61258 0.7408 0.34518 0.0
O93 O 0.61219 0.68499 0.3954 0.0
C94 C 0.59159 0.74378 0.30913 0.0
H95 H 0.64518 0.71298 0.0373 0.0
H96 H 0.53887 0.71524 0.65312 0.0
H97 H 0.53702 0.59421 0.24559 0.0
H98 H 0.48063 0.62231 0.36693 0.0
Co99 Co 0.8882 0.58453 0.82378 0.0
C100 C 0.89124 0.58215 0.60586 0.0
C101 C 0.92511 0.62225 0.66403 0.0
C102 C 0.92665 0.62362 0.56278 0.0
N103 N 0.90279 0.59635 0.69095 0.0
N104 N 0.90503 0.59861 0.52654 0.0
H105 H 0.87206 0.56096 0.60192 0.0
H106 H 0.93857 0.63943 0.71439 0.0
C107 C 0.94134 0.59719 0.93697 0.0
O108 O 0.92568 0.57108 0.97392 0.0
N109 N 0.87334 0.57358 0.95896 0.0
C110 C 0.8469 0.55235 0.98832 0.0
C111 C 0.84526 0.5522 0.08954 0.0
C112 C 0.88643 0.5873 0.04368 0.0
N113 N 0.87033 0.57398 0.12381 0.0
C114 C 0.86667 0.52305 0.81515 0.0
C115 C 0.91808 0.52699 0.75571 0.0
C116 C 0.89409 0.49976 0.77412 0.0
C117 C 0.86797 0.49781 0.80202 0.0
C118 C 0.91577 0.55169 0.76937 0.0
N119 N 0.89076 0.54965 0.80445 0.0
H120 H 0.84605 0.52102 0.83136 0.0
H121 H 0.93428 0.57256 0.75268 0.0
H122 H 0.82938 0.53831 0.94036 0.0
H123 H 0.90728 0.60672 0.04784 0.0
O124 O 0.84915 0.56997 0.77629 0.0
O125 O 0.87774 0.61468 0.8288 0.0
O126 O 0.9298 0.6066 0.87531 0.0
C127 C 0.85265 0.59543 0.79336 0.0
H128 H 0.94148 0.64208 0.51899 0.0
H129 H 0.82714 0.5373 0.13456 0.0
H130 H 0.93837 0.52912 0.73109 0.0
H131 H 0.84874 0.47694 0.81321 0.0
Co132 Co 0.30142 0.88828 0.31879 0.0
C133 C 0.31029 0.89385 0.10368 0.0
C134 C 0.2881 0.91565 0.15378 0.0
C135 C 0.28822 0.91567 0.05239 0.0
N136 N 0.30221 0.90224 0.18617 0.0
N137 N 0.30208 0.90189 0.02129 0.0
H138 H 0.31992 0.88022 0.10368 0.0
H139 H 0.27682 0.92319 0.20053 0.0
C140 C 0.33066 0.95455 0.3532 0.0
O141 O 0.33177 0.9612 0.25998 0.0
N142 N 0.30036 0.87394 0.45174 0.0
C143 C 0.29936 0.84919 0.47946 0.0
C144 C 0.30021 0.84828 0.58059 0.0
C145 C 0.30095 0.88727 0.53727 0.0
N146 N 0.30121 0.87223 0.61659 0.0
C147 C 0.34083 0.86686 0.28963 0.0
C148 C 0.39066 0.91998 0.27056 0.0
C149 C 0.39285 0.89503 0.27277 0.0
C150 C 0.36753 0.86814 0.27976 0.0
C151 C 0.3635 0.91766 0.27934 0.0
N152 N 0.33914 0.8915 0.29517 0.0
H153 H 0.3215 0.84596 0.29192 0.0
H154 H 0.3624 0.93705 0.27293 0.0
H155 H 0.29727 0.83235 0.43066 0.0
H156 H 0.30107 0.90752 0.54231 0.0
O157 O 0.27619 0.84925 0.27083 0.0
O158 O 0.26086 0.87757 0.33243 0.0
O159 O 0.32001 0.9283 0.38058 0.0
C160 C 0.25451 0.85278 0.29389 0.0
H161 H 0.27746 0.92361 1.00511 0.0
H162 H 0.29958 0.83111 0.62457 0.0
H163 H 0.40979 0.94106 0.26161 0.0
H164 H 0.36844 0.84835 0.27822 0.0
Co165 Co 0.41595 0.3036 0.82168 0.0
C166 C 0.41895 0.31195 0.60616 0.0
C167 C 0.37503 0.2904 0.65766 0.0
C168 C 0.37483 0.29034 0.55631 0.0
N169 N 0.40269 0.30429 0.68917 0.0
N170 N 0.40242 0.30387 0.52433 0.0
H171 H 0.44221 0.32127 0.60541 0.0
H172 H 0.35628 0.27944 0.70502 0.0
C173 C 0.37975 0.33371 0.8564 0.0
O174 O 0.3736 0.33442 0.7636 0.0
N175 N 0.42915 0.30247 0.95481 0.0
C176 C 0.4517 0.29933 0.98276 0.0
C177 C 0.4533 0.29994 0.08393 0.0
C178 C 0.4169 0.30406 0.04033 0.0
N179 N 0.4314 0.30291 0.11974 0.0
C180 C 0.477 0.34215 0.79622 0.0
C181 C 0.47455 0.39198 0.76609 0.0
C182 C 0.50153 0.39381 0.77285 0.0
C183 C 0.50269 0.36849 0.78544 0.0
C184 C 0.44939 0.36511 0.77637 0.0
N185 N 0.45078 0.34085 0.7975 0.0
H186 H 0.47829 0.32277 0.80255 0.0
H187 H 0.42893 0.36407 0.76721 0.0
H188 H 0.46548 0.29561 0.93411 0.0
H189 H 0.39751 0.30561 0.04544 0.0
O190 O 0.42947 0.27834 0.77399 0.0
O191 O 0.38573 0.26327 0.83567 0.0
O192 O 0.3952 0.32288 0.88307 0.0
C193 C 0.40418 0.25686 0.79725 0.0
H194 H 0.35594 0.27968 0.50965 0.0
H195 H 0.46882 0.29757 0.12805 0.0
H196 H 0.47299 0.41114 0.75294 0.0
H197 H 0.52328 0.36912 0.78754 0.0
Co198 Co 0.58488 0.88747 0.19678 0.0
C199 C 0.58472 0.88721 0.41456 0.0
C200 C 0.62116 0.92576 0.35743 0.0
C201 C 0.6223 0.92696 0.4587 0.0
N202 N 0.59751 0.9009 0.32984 0.0
N203 N 0.59954 0.90262 0.49406 0.0
H204 H 0.56504 0.86642 0.41823 0.0
H205 H 0.63666 0.94187 0.30775 0.0
C206 C 0.6017 0.94221 0.08377 0.0
O207 O 0.57515 0.92964 0.04952 0.0
N208 N 0.5725 0.87357 0.06199 0.0
C209 C 0.54868 0.84894 0.03264 0.0
C210 C 0.54816 0.84745 0.93153 0.0
C211 C 0.58691 0.88568 0.97725 0.0
N212 N 0.5721 0.87072 0.89729 0.0
C213 C 0.5241 0.86734 0.21941 0.0
C214 C 0.52944 0.92038 0.26136 0.0
C215 C 0.50179 0.89622 0.25018 0.0
C216 C 0.49922 0.86931 0.23207 0.0
C217 C 0.5538 0.91726 0.24927 0.0
N218 N 0.55095 0.89145 0.22052 0.0
H219 H 0.52162 0.84624 0.21112 0.0
H220 H 0.57499 0.93559 0.26271 0.0
H221 H 0.53308 0.83232 0.08017 0.0
H222 H 0.60779 0.90503 0.97305 0.0
O223 O 0.56913 0.84807 0.24098 0.0
O224 O 0.614 0.87584 0.18659 0.0
O225 O 0.60883 0.92894 0.14622 0.0
C226 C 0.59429 0.85101 0.22196 0.0
H227 H 0.63874 0.94411 0.50312 0.0
H228 H 0.53163 0.83058 0.88652 0.0
H229 H 0.53212 0.94131 0.27959 0.0
H230 H 0.47811 0.85 0.22752 0.0
Co231 Co 0.70075 0.58735 0.7028 0.0
C232 C 0.69283 0.58475 0.91864 0.0
C233 C 0.71502 0.62856 0.86684 0.0
C234 C 0.71518 0.62889 0.9682 0.0
N235 N 0.70071 0.60089 0.83554 0.0
N236 N 0.70127 0.60136 1.00034 0.0
H237 H 0.68302 0.56147 0.91957 0.0
H238 H 0.72608 0.64719 0.81926 0.0
C239 C 0.67131 0.62421 0.67174 0.0
O240 O 0.66965 0.62877 0.76561 0.0
N241 N 0.70105 0.5738 0.56953 0.0
C242 C 0.70026 0.54919 0.5409 0.0
C243 C 0.69966 0.54779 0.43967 0.0
C244 C 0.70151 0.58724 0.48453 0.0
N245 N 0.70041 0.57169 0.40465 0.0
C246 C 0.66207 0.52688 0.73792 0.0
C247 C 0.61147 0.52889 0.74995 0.0
C248 C 0.61003 0.50208 0.75205 0.0
C249 C 0.63571 0.50118 0.74868 0.0
C250 C 0.63835 0.55408 0.7403 0.0
N251 N 0.66314 0.55285 0.72812 0.0
H252 H 0.68165 0.52575 0.73764 0.0
H253 H 0.6388 0.5743 0.74301 0.0
H254 H 0.70095 0.53357 0.5891 0.0
H255 H 0.70272 0.60802 0.48043 0.0
O256 O 0.72583 0.57331 0.74881 0.0
O257 O 0.74139 0.61699 0.68748 0.0
O258 O 0.68229 0.60905 0.6426 0.0
C259 C 0.74758 0.59839 0.72539 0.0
H260 H 0.72604 0.64779 0.01474 0.0
H261 H 0.69917 0.53078 0.395 0.0
H262 H 0.59198 0.53032 0.75586 0.0
H263 H 0.63534 0.48077 0.75329 0.0
Co264 Co 0.11243 0.69978 0.1986 0.0
C265 C 0.11072 0.69674 0.41642 0.0
C266 C 0.07426 0.69857 0.35875 0.0
C267 C 0.07273 0.69822 0.46011 0.0
N268 N 0.09813 0.69774 0.33151 0.0
N269 N 0.09591 0.69755 0.49595 0.0
H270 H 0.1309 0.69659 0.42011 0.0
H271 H 0.05937 0.70002 0.30863 0.0
C272 C 0.05999 0.65867 0.08416 0.0
O273 O 0.07641 0.649 0.04801 0.0
N274 N 0.12716 0.70295 0.06364 0.0
C275 C 0.15275 0.70602 0.03369 0.0
C276 C 0.15423 0.70733 0.93245 0.0
C277 C 0.11459 0.70474 0.97935 0.0
N278 N 0.13005 0.70619 0.89879 0.0
C279 C 0.13378 0.65969 0.21468 0.0
C280 C 0.08166 0.61269 0.27171 0.0
C281 C 0.10547 0.60903 0.25591 0.0
C282 C 0.13199 0.63299 0.22966 0.0
C283 C 0.08444 0.63978 0.25601 0.0
N284 N 0.10976 0.66244 0.22139 0.0
H285 H 0.15465 0.67818 0.2004 0.0
H286 H 0.06597 0.64238 0.27055 0.0
H287 H 0.16987 0.70821 0.08102 0.0
H288 H 0.09433 0.70462 0.97608 0.0
O289 O 0.15148 0.72468 0.24525 0.0
O290 O 0.12272 0.74031 0.19042 0.0
O291 O 0.07081 0.6796 0.14641 0.0
C292 C 0.14783 0.74643 0.22628 0.0
H293 H 0.0565 0.69948 0.50426 0.0
H294 H 0.17167 0.709 0.88697 0.0
H295 H 0.06108 0.59474 0.29533 0.0
H296 H 0.15112 0.63103 0.22097 0.0
Co297 Co 0.41366 0.11413 0.68779 0.0
C298 C 0.4165 0.11056 0.90501 0.0
C299 C 0.37417 0.08097 0.84915 0.0
C300 C 0.37304 0.07997 0.95043 0.0
N301 N 0.40134 0.10028 0.82081 0.0
N302 N 0.39957 0.09881 0.98508 0.0
H303 H 0.43898 0.12747 0.90776 0.0
H304 H 0.35608 0.06953 0.79974 0.0
C305 C 0.39474 0.05801 0.58135 0.0
O306 O 0.4215 0.06904 0.54971 0.0
N307 N 0.42537 0.12852 0.55237 0.0
C308 C 0.44581 0.15553 0.52465 0.0
C309 C 0.4468 0.15749 0.42356 0.0
C310 C 0.41323 0.11514 0.46628 0.0
N311 N 0.4264 0.13195 0.38754 0.0
C312 C 0.47394 0.13074 0.68603 0.0
C313 C 0.46693 0.07943 0.75979 0.0
C314 C 0.49475 0.10178 0.73589 0.0
C315 C 0.49818 0.12776 0.69977 0.0
C316 C 0.44322 0.08343 0.74544 0.0
N317 N 0.44672 0.10836 0.70459 0.0
H318 H 0.47731 0.15141 0.66321 0.0
H319 H 0.42195 0.0665 0.7673 0.0
H320 H 0.45884 0.17315 0.57398 0.0
H321 H 0.39469 0.09392 0.45944 0.0
O322 O 0.43134 0.15352 0.73515 0.0
O323 O 0.38593 0.1276 0.68536 0.0
O324 O 0.3879 0.07293 0.63761 0.0
C325 C 0.40649 0.1519 0.72127 0.0
H326 H 0.35394 0.06761 0.99529 0.0
H327 H 0.46103 0.17624 0.37988 0.0
H328 H 0.46364 0.05927 0.79009 0.0
H329 H 0.51953 0.14575 0.68335 0.0
Co330 Co 0.30562 0.41662 0.20301 0.0
C331 C 0.29482 0.40946 0.42113 0.0
C332 C 0.30983 0.38203 0.36393 0.0
C333 C 0.30576 0.37771 0.46317 0.0
N334 N 0.30301 0.40199 0.3366 0.0
N335 N 0.29477 0.39378 0.50042 0.0
H336 H 0.29028 0.42699 0.42455 0.0
H337 H 0.31839 0.37192 0.31638 0.0
C338 C 0.34214 0.39844 0.09098 0.0
O339 O 0.35713 0.42524 0.05966 0.0
N340 N 0.30759 0.43032 0.06686 0.0
C341 C 0.32289 0.45721 0.02793 0.0
C342 C 0.32025 0.45564 0.9271 0.0
C343 C 0.29533 0.413 0.98749 0.0
N344 N 0.30293 0.42787 0.90159 0.0
C345 C 0.3474 0.47592 0.24401 0.0
C346 C 0.39377 0.46789 0.28037 0.0
C347 C 0.39835 0.49604 0.27581 0.0
C348 C 0.37464 0.49993 0.26097 0.0
C349 C 0.36599 0.44448 0.26313 0.0
N350 N 0.34387 0.44887 0.23594 0.0
H351 H 0.32934 0.47936 0.23258 0.0
H352 H 0.3623 0.42285 0.27103 0.0
H353 H 0.33607 0.47697 0.06705 0.0
H354 H 0.28184 0.38979 0.99203 0.0
O355 O 0.28313 0.43401 0.24206 0.0
O356 O 0.26451 0.38931 0.1851 0.0
O357 O 0.32166 0.39143 0.15331 0.0
C358 C 0.26031 0.40964 0.22003 0.0
H359 H 0.31246 0.36478 0.50372 0.0
H360 H 0.33088 0.47348 0.87601 0.0
H361 H 0.41147 0.46411 0.29617 0.0
H362 H 0.37729 0.52139 0.26061 0.0
Co363 Co 0.88731 0.30056 0.68582 0.0
C364 C 0.89179 0.30678 0.90253 0.0
C365 C 0.913 0.28444 0.84811 0.0
C366 C 0.91319 0.28383 0.94941 0.0
N367 N 0.8999 0.29913 0.81854 0.0
N368 N 0.89986 0.29785 0.98314 0.0
H369 H 0.87878 0.31708 0.90491 0.0
H370 H 0.92062 0.27368 0.79928 0.0
C371 C 0.95372 0.32846 0.65961 0.0
O372 O 0.9591 0.33208 0.75416 0.0
N373 N 0.87451 0.30172 0.55261 0.0
C374 C 0.85283 0.30614 0.5239 0.0
C375 C 0.85196 0.30631 0.42262 0.0
C376 C 0.88637 0.29906 0.46787 0.0
N377 N 0.87308 0.30194 0.38791 0.0
C378 C 0.86752 0.34025 0.73114 0.0
C379 C 0.92035 0.39075 0.72655 0.0
C380 C 0.89523 0.39231 0.73974 0.0
C381 C 0.86862 0.3667 0.7442 0.0
C382 C 0.9183 0.36379 0.71502 0.0
N383 N 0.892 0.33886 0.71257 0.0
H384 H 0.84665 0.32088 0.735 0.0
H385 H 0.93811 0.3636 0.70827 0.0
H386 H 0.83809 0.30845 0.57228 0.0
H387 H 0.90437 0.29516 0.46429 0.0
O388 O 0.84758 0.27677 0.72963 0.0
O389 O 0.87427 0.25945 0.66907 0.0
O390 O 0.92778 0.31716 0.6277 0.0
C391 C 0.84961 0.25435 0.70596 0.0
H392 H 0.92126 0.27281 0.99484 0.0
H393 H 0.83695 0.30928 0.37775 0.0
H394 H 0.94138 0.41024 0.72521 0.0
H395 H 0.84879 0.36718 0.75622 0.0
C396 C 0.02701 0.3486 0.54525 0.0
C397 C 0.03023 0.36999 0.4769 0.0
C398 C 0.98117 0.36011 0.51343 0.0
C399 C 0.97853 0.34037 0.58863 0.0
N400 N 0.99542 0.30988 0.65688 0.0
N401 N 0.00582 0.38486 0.36447 0.0
C402 C 0.00045 0.33276 0.59859 0.0
C403 C 0.00591 0.37235 0.45153 0.0
N404 N 0.04951 0.34374 0.55949 0.0
N405 N 0.96101 0.36852 0.50308 0.0
H406 H 0.02218 0.39043 0.31301 0.0
H407 H 0.98784 0.38528 0.33706 0.0
H408 H 0.94157 0.35945 0.5411 0.0
H409 H 0.96446 0.38603 0.45975 0.0
H410 H 0.05058 0.33139 0.61654 0.0
H411 H 0.0675 0.35262 0.51329 0.0
H412 H 0.00945 0.30178 0.66295 0.0
H413 H 0.97586 0.2973 0.69374 0.0
C414 C 0.63034 0.01862 0.98946 0.0
C415 C 0.65385 0.02227 0.92972 0.0
C416 C 0.64851 0.97677 0.99467 0.0
C417 C 0.62305 0.97167 0.04583 0.0
N418 N 0.59542 0.99143 0.11708 0.0
N419 N 0.68652 0.00621 0.87716 0.0
C420 C 0.61572 0.99376 0.05058 0.0
C421 C 0.66348 0.00186 0.93391 0.0
N422 N 0.62067 0.03791 0.98311 0.0
N423 N 0.6588 0.95811 1.00579 0.0
H424 H 0.69927 0.02531 0.83828 0.0
H425 H 0.69268 0.99082 0.86532 0.0
H426 H 0.64916 0.94002 0.05097 0.0
H427 H 0.67835 0.96154 0.97724 0.0
H428 H 0.60113 0.03433 0.01244 0.0
H429 H 0.63138 0.05714 0.94395 0.0
H430 H 0.59116 0.00797 0.13319 0.0
H431 H 0.58472 0.97382 0.16405 0.0
C432 C 0.63663 0.61671 0.53238 0.0
C433 C 0.65869 0.63562 0.59851 0.0
C434 C 0.6517 0.67578 0.54558 0.0
C435 C 0.62838 0.65631 0.48476 0.0
N436 N 0.60589 0.61174 0.39437 0.0
N437 N 0.693 0.68449 0.64548 0.0
C438 C 0.62319 0.62787 0.47018 0.0
C439 C 0.66797 0.66561 0.5982 0.0
N440 N 0.62725 0.58778 0.53192 0.0
N441 N 0.65782 0.7037 0.5558 0.0
H442 H 0.70576 0.67782 0.68236 0.0
H443 H 0.70266 0.70687 0.64057 0.0
H444 H 0.64898 0.713 0.51085 0.0
H445 H 0.67122 0.71756 0.61037 0.0
H446 H 0.60838 0.57252 0.49701 0.0
H447 H 0.63734 0.57849 0.56987 0.0
H448 H 0.60354 0.59201 0.37246 0.0
H449 H 0.59645 0.6197 0.34615 0.0
C450 C 0.01401 0.61367 0.03786 0.0
C451 C 0.02891 0.64408 0.05245 0.0
C452 C 0.98525 0.64447 0.99566 0.0
C453 C 0.97235 0.6148 0.96827 0.0
N454 N 0.97992 0.5745 0.93693 0.0
N455 N 0.0299 0.68935 0.02508 0.0
C456 C 0.9884 0.60045 0.98137 0.0
C457 C 0.0149 0.65983 0.02592 0.0
N458 N 0.02351 0.59691 0.08104 0.0
N459 N 0.96922 0.65791 0.99712 0.0
H460 H 0.05156 0.70167 0.04479 0.0
H461 H 0.02149 0.7016 0.99577 0.0
H462 H 0.94754 0.64783 0.97693 0.0
H463 H 0.97681 0.67839 0.02719 0.0
H464 H 0.01176 0.57437 0.07926 0.0
H465 H 0.041 0.60517 0.12883 0.0
H466 H 0.99248 0.56458 0.9376 0.0
H467 H 0.9624 0.56477 0.88928 0.0
C468 C 0.3789 0.00593 0.55572 0.0
C469 C 0.37276 0.02867 0.5452 0.0
C470 C 0.33299 0.99822 0.43239 0.0
C471 C 0.34311 0.97822 0.42795 0.0
N472 N 0.37584 0.96272 0.48825 0.0
N473 N 0.34189 0.04569 0.48007 0.0
C474 C 0.36574 0.98167 0.49173 0.0
C475 C 0.34889 0.02443 0.4867 0.0
N476 N 0.39686 0.00725 0.62937 0.0
N477 N 0.3075 0.99156 0.38748 0.0
H478 H 0.35044 0.06359 0.52626 0.0
H479 H 0.32804 0.04599 0.42704 0.0
H480 H 0.29502 0.97227 0.34933 0.0
H481 H 0.29725 0.00365 0.39563 0.0
H482 H 0.39998 0.99014 0.64836 0.0
H483 H 0.40617 0.02439 0.67882 0.0
H484 H 0.395 0.9666 0.52146 0.0
H485 H 0.36598 0.9436 0.44858 0.0
C486 C 0.33922 0.33626 0.9418 0.0
C487 C 0.36935 0.34673 0.9319 0.0
C488 C 0.3791 0.38378 0.05666 0.0
C489 C 0.34979 0.37691 0.05229 0.0
N490 N 0.30104 0.34515 0.99533 0.0
N491 N 0.4184 0.3803 0.98306 0.0
C492 C 0.32944 0.35233 0.99787 0.0
C493 C 0.38936 0.3701 0.99151 0.0
N494 N 0.31993 0.31041 0.89984 0.0
N495 N 0.39701 0.40289 0.12574 0.0
H496 H 0.42711 0.36991 0.94329 0.0
H497 H 0.43417 0.39995 0.01219 0.0
H498 H 0.39008 0.41297 0.17531 0.0
H499 H 0.41762 0.40643 0.14114 0.0
H500 H 0.2977 0.29996 0.91202 0.0
H501 H 0.32639 0.29794 0.85981 0.0
H502 H 0.28612 0.33056 0.94542 0.0
H503 H 0.29243 0.35467 0.04047 0.0
C504 C 0.0984 0.56309 0.18062 0.0
C505 C 0.10261 0.58006 0.26601 0.0
C506 C 0.10475 0.54344 0.36842 0.0
C507 C 0.10058 0.52647 0.28303 0.0
N508 N 0.08964 0.51753 0.11063 0.0
N509 N 0.10582 0.58543 0.44203 0.0
C510 C 0.09615 0.5355 0.18989 0.0
C511 C 0.10452 0.56988 0.36032 0.0
N512 N 0.09728 0.5738 0.09048 0.0
N513 N 0.10968 0.53452 0.4568 0.0
H514 H 0.10695 0.60546 0.43862 0.0
H515 H 0.10411 0.57796 0.51362 0.0
H516 H 0.10827 0.5145 0.46671 0.0
H517 H 0.11639 0.54725 0.51974 0.0
H518 H 0.09759 0.56434 0.02405 0.0
H519 H 0.09736 0.59321 0.08126 0.0
H520 H 0.0832 0.5212 0.04273 0.0
H521 H 0.08896 0.49771 0.11394 0.0
C522 C 0.5317 0.0995 0.84449 0.0
C523 C 0.5206 0.09851 0.74904 0.0
C524 C 0.56313 0.09963 0.67546 0.0
C525 C 0.57349 0.09906 0.77089 0.0
N526 N 0.56492 0.09224 0.94535 0.0
N527 N 0.52221 0.09121 0.57491 0.0
C528 C 0.5569 0.09707 0.85524 0.0
C529 C 0.53525 0.09655 0.66484 0.0
N530 N 0.51895 0.10404 0.92451 0.0
N531 N 0.58044 0.1044 0.59525 0.0
H532 H 0.5017 0.08866 0.5646 0.0
H533 H 0.53046 0.08662 0.51239 0.0
H534 H 0.60107 0.10688 0.59977 0.0
H535 H 0.57539 0.10828 0.52517 0.0
H536 H 0.52798 0.10827 0.99452 0.0
H537 H 0.50043 0.10584 0.91988 0.0
H538 H 0.55212 0.08761 1.00805 0.0
H539 H 0.5832 0.09025 0.95585 0.0
C540 C 0.46694 0.56507 0.2046 0.0
C541 C 0.48042 0.57472 0.29745 0.0
C542 C 0.44094 0.53169 0.37652 0.0
C543 C 0.42787 0.5217 0.28331 0.0
N544 N 0.4312 0.52522 0.10676 0.0
N545 N 0.48395 0.56489 0.46793 0.0
C546 C 0.44181 0.53727 0.19667 0.0
C547 C 0.46855 0.55723 0.38229 0.0
N548 N 0.47736 0.583 0.12489 0.0
N549 N 0.42643 0.51744 0.4597 0.0
H550 H 0.50421 0.58349 0.47448 0.0
H551 H 0.47791 0.55169 0.5298 0.0
H552 H 0.40642 0.49839 0.45816 0.0
H553 H 0.4332 0.52543 0.53031 0.0
H554 H 0.46653 0.57863 0.05806 0.0
H555 H 0.49593 0.60337 0.12729 0.0
H556 H 0.44197 0.53409 0.04093 0.0
H557 H 0.41278 0.50492 0.09828 0.0
C558 C 0.89229 0.45996 0.6706 0.0
C559 C 0.89614 0.47315 0.7641 0.0
C560 C 0.9027 0.43509 0.83959 0.0
C561 C 0.8966 0.42072 0.74757 0.0
N562 N 0.88403 0.41787 0.57635 0.0
N563 N 0.90351 0.47334 0.93874 0.0
C564 C 0.89108 0.43279 0.66314 0.0
C565 C 0.90107 0.46078 0.84893 0.0
N566 N 0.89022 0.47369 0.58888 0.0
N567 N 0.91038 0.42428 0.91761 0.0
H568 H 0.90385 0.49289 0.94783 0.0
H569 H 0.90375 0.46386 1.00515 0.0
H570 H 0.91064 0.40491 0.91455 0.0
H571 H 0.9182 0.43515 0.9838 0.0
H572 H 0.89058 0.46705 0.5173 0.0
H573 H 0.88994 0.49304 0.59199 0.0
H574 H 0.8764 0.42353 0.51496 0.0
H575 H 0.88434 0.39866 0.56671 0.0
C576 C 0.46288 0.89773 0.34995 0.0
C577 C 0.47529 0.89865 0.25674 0.0
C578 C 0.43518 0.90027 0.17458 0.0
C579 C 0.42164 0.89704 0.26729 0.0
N580 N 0.42121 0.8915 0.44308 0.0
N581 N 0.47353 0.89965 0.07997 0.0
C582 C 0.4352 0.89558 0.35508 0.0
C583 C 0.46158 0.89979 0.1689 0.0
N584 N 0.4778 0.89919 0.43339 0.0
N585 N 0.42285 0.9041 0.09218 0.0
H586 H 0.49362 0.90096 0.07289 0.0
H587 H 0.46316 0.8969 0.01295 0.0
H588 H 0.40287 0.90317 0.09277 0.0
H589 H 0.43297 0.90983 0.0239 0.0
H590 H 0.47166 0.90165 0.50368 0.0
H591 H 0.4976 0.89975 0.43232 0.0
H592 H 0.42806 0.88694 0.50863 0.0
H593 H 0.40162 0.89123 0.45031 0.0
C594 C 0.54114 0.43375 0.67411 0.0
C595 C 0.52866 0.42221 0.76712 0.0
C596 C 0.56808 0.46442 0.84976 0.0
C597 C 0.58164 0.47489 0.75725 0.0
N598 N 0.58285 0.46932 0.58181 0.0
N599 N 0.53046 0.42473 0.94397 0.0
C600 C 0.5686 0.45952 0.66942 0.0
C601 C 0.54216 0.43711 0.85517 0.0
N602 N 0.5264 0.42025 0.5904 0.0
N603 N 0.57985 0.48086 0.93212 0.0
H604 H 0.51086 0.40539 0.95088 0.0
H605 H 0.54078 0.43261 1.01097 0.0
H606 H 0.59942 0.50038 0.93154 0.0
H607 H 0.56955 0.47623 1.00012 0.0
H608 H 0.53255 0.42902 0.52035 0.0
H609 H 0.50673 0.40084 0.59108 0.0
H610 H 0.57638 0.45758 0.51669 0.0
H611 H 0.60233 0.48878 0.57475 0.0
C612 C 0.09535 0.3952 0.77052 0.0
C613 C 0.1242 0.41374 0.73919 0.0
C614 C 0.14086 0.41065 0.90546 0.0
C615 C 0.11161 0.39609 0.93812 0.0
N616 N 0.06573 0.35708 0.88319 0.0
N617 N 0.17515 0.4372 0.77421 0.0
C618 C 0.09006 0.38291 0.86519 0.0
C619 C 0.14727 0.42079 0.80599 0.0
N620 N 0.07269 0.39101 0.71366 0.0
N621 N 0.16157 0.41067 0.96378 0.0
H622 H 0.18031 0.44281 0.70052 0.0
H623 H 0.19295 0.44603 0.82097 0.0
H624 H 0.15602 0.39766 0.02625 0.0
H625 H 0.18314 0.41943 0.94316 0.0
H626 H 0.0513 0.3796 0.73835 0.0
H627 H 0.07565 0.40165 0.64733 0.0
H628 H 0.05031 0.3457 0.82914 0.0
H629 H 0.06339 0.34551 0.94763 0.0
C630 C 0.72263 0.122 0.37242 0.0
C631 C 0.69574 0.10585 0.42244 0.0
C632 C 0.6702 0.10661 0.27318 0.0
C633 C 0.6969 0.1208 0.22188 0.0
N634 N 0.74781 0.13745 0.21613 0.0
N635 N 0.64376 0.0792 0.41747 0.0
C636 C 0.72293 0.12724 0.26985 0.0
C637 C 0.66943 0.09727 0.37199 0.0
N638 N 0.74795 0.13326 0.4237 0.0
N639 N 0.64574 0.10267 0.22756 0.0
H640 H 0.64264 0.07173 0.489 0.0
H641 H 0.6238 0.06984 0.38232 0.0
H642 H 0.64585 0.10907 0.15508 0.0
H643 H 0.62593 0.09501 0.26304 0.0
H644 H 0.76804 0.14785 0.39386 0.0
H645 H 0.74874 0.13023 0.49887 0.0
H646 H 0.76698 0.13973 0.24411 0.0
H647 H 0.74859 0.14118 0.14071 0.0
C648 C 0.56744 0.67564 0.79368 0.0
C649 C 0.57914 0.70303 0.7477 0.0
C650 C 0.60216 0.72699 0.90248 0.0
C651 C 0.59199 0.69953 0.94698 0.0
N652 N 0.56757 0.64784 0.93506 0.0
N653 N 0.60989 0.75453 0.75211 0.0
C654 C 0.5752 0.67384 0.89255 0.0
C655 C 0.59709 0.72867 0.80063 0.0
N656 N 0.54846 0.65149 0.7427 0.0
N657 N 0.61601 0.75136 0.95873 0.0
H658 H 0.60621 0.75621 0.67781 0.0
H659 H 0.62551 0.77394 0.783 0.0
H660 H 0.62023 0.7508 0.03314 0.0
H661 H 0.62141 0.77189 0.93418 0.0
H662 H 0.53696 0.63095 0.77351 0.0
H663 H 0.54279 0.65235 0.67001 0.0
H664 H 0.5576 0.62823 0.89767 0.0
H665 H 0.57294 0.64612 1.00742 0.0
C666 C 0.89994 0.57141 0.37336 0.0
C667 C 0.89623 0.59241 0.42473 0.0
C668 C 0.87679 0.60229 0.27498 0.0
C669 C 0.87914 0.58029 0.22535 0.0
N670 N 0.89128 0.54271 0.225 0.0
N671 N 0.87912 0.62637 0.42907 0.0
C672 C 0.89022 0.56446 0.27418 0.0
C673 C 0.88423 0.60759 0.37651 0.0
N674 N 0.91383 0.55903 0.41896 0.0
N675 N 0.86769 0.61825 0.22386 0.0
H676 H 0.88454 0.63094 0.50292 0.0
H677 H 0.86788 0.63613 0.40216 0.0
H678 H 0.86109 0.61392 0.15072 0.0
H679 H 0.86801 0.63657 0.25131 0.0
H680 H 0.91958 0.54525 0.38456 0.0
H681 H 0.92132 0.56403 0.49103 0.0
H682 H 0.89647 0.5283 0.25753 0.0
H683 H 0.88562 0.53819 0.15116 0.0
C684 C 0.32608 0.90485 0.75786 0.0
C685 C 0.30181 0.87975 0.71913 0.0
C686 C 0.2807 0.86689 0.8845 0.0
C687 C 0.30323 0.89352 0.92105 0.0
N688 N 0.34611 0.93923 0.89267 0.0
N689 N 0.25358 0.83968 0.7419 0.0
C690 C 0.32557 0.91295 0.85749 0.0
C691 C 0.27845 0.86146 0.78164 0.0
N692 N 0.35006 0.92017 0.70051 0.0
N693 N 0.26177 0.84659 0.94861 0.0
H694 H 0.25087 0.83593 0.66645 0.0
H695 H 0.23473 0.82726 0.78235 0.0
H696 H 0.26362 0.84976 0.02429 0.0
H697 H 0.24628 0.82571 0.92781 0.0
H698 H 0.36946 0.93721 0.7265 0.0
H699 H 0.35136 0.91414 0.62865 0.0
H700 H 0.36131 0.95575 0.84825 0.0
H701 H 0.34674 0.94504 0.96625 0.0
C702 C 0.41731 0.32832 0.3627 0.0
C703 C 0.41166 0.30466 0.4239 0.0
C704 C 0.41652 0.27895 0.28224 0.0
C705 C 0.42431 0.30344 0.22216 0.0
N706 N 0.43649 0.35313 0.20736 0.0
N707 N 0.41112 0.25991 0.44747 0.0
C708 C 0.42584 0.32864 0.263 0.0
C709 C 0.41289 0.28071 0.38514 0.0
N710 N 0.41405 0.35024 0.40009 0.0
N711 N 0.41126 0.2536 0.23995 0.0
H712 H 0.40911 0.2612 0.52317 0.0
H713 H 0.41439 0.24308 0.42565 0.0
H714 H 0.41264 0.25137 0.16435 0.0
H715 H 0.40288 0.23416 0.27815 0.0
H716 H 0.41485 0.36679 0.35751 0.0
H717 H 0.40875 0.35079 0.47362 0.0
H718 H 0.44054 0.373 0.23468 0.0
H719 H 0.44353 0.35413 0.13518 0.0
C720 C 0.57047 0.89753 0.64237 0.0
C721 C 0.59273 0.89469 0.59611 0.0
C722 C 0.60051 0.87486 0.74836 0.0
C723 C 0.57928 0.87903 0.7958 0.0
N724 N 0.54674 0.89775 0.79493 0.0
N725 N 0.63168 0.88449 0.60638 0.0
C726 C 0.5649 0.89125 0.74449 0.0
C727 C 0.60859 0.88449 0.64972 0.0
N728 N 0.55473 0.90625 0.58808 0.0
N729 N 0.61219 0.86084 0.79727 0.0
H730 H 0.63771 0.8909 0.53385 0.0
H731 H 0.64599 0.88001 0.64356 0.0
H732 H 0.60665 0.85381 0.86969 0.0
H733 H 0.62569 0.85438 0.76469 0.0
H734 H 0.5362 0.90595 0.61369 0.0
H735 H 0.55943 0.91249 0.51469 0.0
H736 H 0.53746 0.9091 0.76507 0.0
H737 H 0.54251 0.89351 0.86976 0.0
C738 C 0.72447 0.58512 0.24195 0.0
C739 C 0.70043 0.57908 0.30242 0.0
C740 C 0.67689 0.58803 0.16252 0.0
C741 C 0.70008 0.59216 0.10091 0.0
N742 N 0.74343 0.58989 0.07645 0.0
N743 N 0.6518 0.57022 0.31838 0.0
C744 C 0.72313 0.58923 0.13916 0.0
C745 C 0.67607 0.57936 0.26217 0.0
N746 N 0.74902 0.58807 0.28387 0.0
N747 N 0.65592 0.59281 0.12551 0.0
H748 H 0.65048 0.56317 0.39059 0.0
H749 H 0.63232 0.56741 0.29157 0.0
H750 H 0.65565 0.59817 0.05197 0.0
H751 H 0.63991 0.59316 0.16834 0.0
H752 H 0.76835 0.59514 0.2458 0.0
H753 H 0.75079 0.58588 0.35924 0.0
H754 H 0.75948 0.58538 0.09759 0.0
H755 H 0.74256 0.59245 1.00094 0.0
C756 C 0.11541 0.72651 0.64853 0.0
C757 C 0.10437 0.69974 0.59798 0.0
C758 C 0.10862 0.67691 0.74892 0.0
C759 C 0.12122 0.70402 0.7974 0.0
N760 N 0.1397 0.75511 0.79353 0.0
N761 N 0.09196 0.64992 0.59589 0.0
C762 C 0.12537 0.72896 0.74716 0.0
C763 C 0.1015 0.67507 0.64716 0.0
N764 N 0.11603 0.74947 0.60228 0.0
N765 N 0.10274 0.65284 0.80168 0.0
H766 H 0.08506 0.64758 0.52313 0.0
H767 H 0.09208 0.63182 0.62323 0.0
H768 H 0.10806 0.65375 0.87576 0.0
H769 H 0.09113 0.63185 0.77457 0.0
H770 H 0.12094 0.76871 0.63727 0.0
H771 H 0.11006 0.74881 0.52915 0.0
H772 H 0.14626 0.77481 0.75911 0.0
H773 H 0.14679 0.75721 0.86602 0.0
C774 C 0.39681 0.12501 0.13132 0.0
C775 C 0.40696 0.10778 0.08609 0.0
C776 C 0.43158 0.10826 0.23887 0.0
C777 C 0.41999 0.12399 0.2855 0.0
N778 N 0.38945 0.14494 0.28231 0.0
N779 N 0.43141 0.08054 0.09651 0.0
C780 C 0.40205 0.13177 0.23319 0.0
C781 C 0.42377 0.09882 0.13986 0.0
N782 N 0.38284 0.13547 0.07572 0.0
N783 N 0.45049 0.10294 0.28943 0.0
H784 H 0.42602 0.07355 0.02402 0.0
H785 H 0.44144 0.07089 0.13325 0.0
H786 H 0.45615 0.10935 0.36226 0.0
H787 H 0.4619 0.09385 0.25826 0.0
H788 H 0.37743 0.15057 0.10072 0.0
H789 H 0.3784 0.13058 1.00141 0.0
H790 H 0.37387 0.14885 0.25195 0.0
H791 H 0.39329 0.15035 0.35657 0.0
C792 C 0.30538 0.39661 0.77149 0.0
C793 C 0.29677 0.41644 0.80223 0.0
C794 C 0.27702 0.41393 0.63602 0.0
C795 C 0.28889 0.39657 0.60456 0.0
N796 N 0.29091 0.35547 0.66795 0.0
N797 N 0.27165 0.44221 0.76704 0.0
C798 C 0.29642 0.38309 0.67918 0.0
C799 C 0.28165 0.42456 0.73526 0.0
N800 N 0.3234 0.39158 0.82773 0.0
N801 N 0.25806 0.4166 0.5761 0.0
H802 H 0.27247 0.44799 0.84066 0.0
H803 H 0.26329 0.45171 0.72088 0.0
H804 H 0.24994 0.40405 0.513 0.0
H805 H 0.24741 0.42778 0.59429 0.0
H806 H 0.33175 0.37869 0.80334 0.0
H807 H 0.33249 0.40299 0.89214 0.0
H808 H 0.29464 0.34438 0.72384 0.0
H809 H 0.27814 0.34249 0.6103 0.0
C810 C 0.90409 0.3251 0.24223 0.0
C811 C 0.88001 0.3009 0.28581 0.0
C812 C 0.86725 0.27615 0.12615 0.0
C813 C 0.89255 0.29943 0.08436 0.0
N814 N 0.93667 0.34469 0.10208 0.0
N815 N 0.84044 0.25218 0.27447 0.0
C816 C 0.91144 0.32356 0.14246 0.0
C817 C 0.86201 0.27607 0.22896 0.0
N818 N 0.91919 0.34986 0.29574 0.0
N819 N 0.84807 0.25446 0.06654 0.0
H820 H 0.83634 0.25168 0.34964 0.0
H821 H 0.82801 0.23232 0.23992 0.0
H822 H 0.85155 0.25423 0.99125 0.0
H823 H 0.8279 0.23797 0.0896 0.0
H824 H 0.93539 0.36929 0.2666 0.0
H825 H 0.91393 0.3515 0.36841 0.0
H826 H 0.95298 0.36152 0.14225 0.0
H827 H 0.94201 0.3443 0.02849 0.0
C828 C 0.19068 0.39567 0.34353 0.0
C829 C 0.18366 0.41365 0.28594 0.0
C830 C 0.2241 0.42355 0.17367 0.0
C831 C 0.23124 0.40642 0.23258 0.0
N832 N 0.21819 0.37081 0.35921 0.0
N833 N 0.20027 0.45122 0.15856 0.0
C834 C 0.21346 0.39073 0.3129 0.0
C835 C 0.20202 0.42934 0.20423 0.0
N836 N 0.17784 0.38595 0.43326 0.0
N837 N 0.23785 0.43343 0.08529 0.0
H838 H 0.18532 0.45765 0.17285 0.0
H839 H 0.21605 0.46567 0.11031 0.0
H840 H 0.25378 0.42912 0.06026 0.0
H841 H 0.23133 0.44292 0.03196 0.0
H842 H 0.18396 0.37528 0.48314 0.0
H843 H 0.16349 0.39162 0.4641 0.0
H844 H 0.20419 0.35621 0.41122 0.0
H845 H 0.23495 0.36713 0.33931 0.0
C846 C 0.82124 0.20801 0.80119 0.0
C847 C 0.82412 0.22468 0.71668 0.0
C848 C 0.77444 0.18901 0.6687 0.0
C849 C 0.77008 0.17465 0.76081 0.0
N850 N 0.78865 0.17417 0.92232 0.0
N851 N 0.80388 0.23131 0.56834 0.0
C852 C 0.7934 0.18489 0.82877 0.0
C853 C 0.80079 0.21518 0.65002 0.0
N854 N 0.84518 0.21411 0.85482 0.0
N855 N 0.7539 0.17706 0.59704 0.0
H856 H 0.82386 0.24829 0.54604 0.0
H857 H 0.7867 0.22849 0.52453 0.0
H858 H 0.73487 0.15749 0.60547 0.0
H859 H 0.75679 0.18489 0.52551 0.0
H860 H 0.84502 0.20113 0.91211 0.0
H861 H 0.86579 0.23053 0.8351 0.0
H862 H 0.80409 0.18309 0.97774 0.0
H863 H 0.76844 0.15839 0.948 0.0
C864 C 0.60874 0.82245 0.33071 0.0
C865 C 0.59933 0.82641 0.23797 0.0
C866 C 0.58747 0.77767 0.1881 0.0
C867 C 0.59535 0.77273 0.28336 0.0
N868 N 0.60965 0.78925 0.4501 0.0
N869 N 0.58794 0.81192 0.06984 0.0
C870 C 0.60548 0.79502 0.35555 0.0
C871 C 0.59104 0.80517 0.16423 0.0
N872 N 0.62163 0.84533 0.39377 0.0
N873 N 0.5755 0.75579 0.12105 0.0
H874 H 0.59154 0.83229 0.0501 0.0
H875 H 0.58498 0.79875 1.00951 0.0
H876 H 0.57437 0.73608 0.1312 0.0
H877 H 0.5653 0.75652 0.05697 0.0
H878 H 0.63192 0.84515 0.45833 0.0
H879 H 0.62465 0.86565 0.37613 0.0
H880 H 0.61371 0.80329 0.50865 0.0
H881 H 0.6066 0.76931 0.47279 0.0
C882 C 0.817 0.61118 0.84647 0.0
C883 C 0.82884 0.60166 0.77141 0.0
C884 C 0.78969 0.59502 0.65975 0.0
C885 C 0.77781 0.60417 0.73511 0.0
N886 N 0.78501 0.62971 0.88709 0.0
N887 N 0.83058 0.5918 0.59959 0.0
C888 C 0.79305 0.61505 0.82442 0.0
C889 C 0.81631 0.59566 0.67595 0.0
N890 N 0.82732 0.61479 0.94025 0.0
N891 N 0.7754 0.5856 0.5725 0.0
H892 H 0.85079 0.5939 0.60839 0.0
H893 H 0.82413 0.5897 0.52655 0.0
H894 H 0.75804 0.58837 0.55395 0.0
H895 H 0.7802 0.57449 0.51976 0.0
H896 H 0.8173 0.61838 1.00003 0.0
H897 H 0.84453 0.61189 0.96006 0.0
H898 H 0.79677 0.6405 0.94938 0.0
H899 H 0.76813 0.63345 0.87083 0.0
C900 C 0.21019 0.82388 0.18921 0.0
C901 C 0.22407 0.8288 0.28168 0.0
C902 C 0.18236 0.78434 0.34355 0.0
C903 C 0.17158 0.77657 0.24634 0.0
N904 N 0.17622 0.78867 0.07406 0.0
N905 N 0.22282 0.81443 0.44992 0.0
C906 C 0.18553 0.79643 0.16845 0.0
C907 C 0.20989 0.80928 0.35997 0.0
N908 N 0.21996 0.8458 0.12257 0.0
N909 N 0.16552 0.76857 0.42058 0.0
H910 H 0.24149 0.83376 0.46698 0.0
H911 H 0.21563 0.79922 0.50628 0.0
H912 H 0.14439 0.75197 0.41007 0.0
H913 H 0.17091 0.77406 0.49398 0.0
H914 H 0.20924 0.84449 0.05729 0.0
H915 H 0.23724 0.86629 0.13789 0.0
H916 H 0.18769 0.80096 0.0133 0.0
H917 H 0.15809 0.76897 0.0559 0.0
C918 C 0.4071 0.21466 0.86105 0.0
C919 C 0.39808 0.22665 0.78642 0.0
C920 C 0.39087 0.18778 0.67342 0.0
C921 C 0.40205 0.17674 0.74564 0.0
N922 N 0.42213 0.18069 0.90809 0.0
N923 N 0.37176 0.2195 0.63697 0.0
C924 C 0.41033 0.19036 0.83973 0.0
C925 C 0.38702 0.21162 0.69714 0.0
N926 N 0.41092 0.22565 0.95407 0.0
N927 N 0.38626 0.17723 0.57958 0.0
H928 H 0.36795 0.23624 0.65505 0.0
H929 H 0.3605 0.20778 0.57524 0.0
H930 H 0.38991 0.16069 0.5571 0.0
H931 H 0.38145 0.18669 0.52125 0.0
H932 H 0.41489 0.21656 0.01534 0.0
H933 H 0.40682 0.24221 0.9721 0.0
H934 H 0.43262 0.19203 0.97129 0.0
H935 H 0.42247 0.16161 0.90034 0.0
loop_
_geom_bond_atom_site_label_1
_geom_bond_atom_site_label_2
_geom_bond_distance
_geom_bond_site_symmetry_2
_ccdc_geom_bond_type
Co0 N4 2.148 . S
Co0 N10 2.128 . S
Co0 N20 2.194 . S
Co0 O25 2.351 . S
Co0 O26 2.155 . S
Co0 O27 2.096 . S
C1 N4 1.301 . S
C1 N5 1.328 . S
C1 H6 0.930 . S
C2 C3 1.333 . S
C2 N4 1.317 . S
C2 H7 0.930 . S
C3 C2 1.333 . S
C3 N5 1.350 . S
C3 H29 0.931 . S
N4 Co0 2.148 . S
N4 C1 1.301 . S
N4 C2 1.317 . S
N5 C1 1.328 . S
N5 C3 1.350 . S
H6 C1 0.930 . S
H7 C2 0.930 . S
C8 O9 1.224 . S
C8 O27 1.247 . S
O9 C8 1.224 . S
N10 Co0 2.128 . S
N10 C11 1.355 . S
N10 C13 1.311 . S
C11 N10 1.355 . S
C11 C12 1.363 . S
C11 H23 0.929 . S
C12 C11 1.363 . S
C12 N14 1.375 . S
C12 H30 0.931 . S
C13 N10 1.311 . S
C13 N14 1.347 . S
C13 H24 0.929 . S
N14 C12 1.375 . S
N14 C13 1.347 . S
C15 C18 1.365 . S
C15 N20 1.328 . S
C15 H21 0.929 . S
C16 C17 1.362 . S
C16 C19 1.378 . S
C16 H31 0.929 . S
C17 C16 1.362 . S
C17 C18 1.366 . S
C18 C15 1.365 . S
C18 C17 1.366 . S
C18 H32 0.930 . S
C19 C16 1.378 . S
C19 N20 1.315 . S
C19 H22 0.930 . S
N20 Co0 2.194 . S
N20 C15 1.328 . S
N20 C19 1.315 . S
H21 C15 0.929 . S
H22 C19 0.930 . S
H23 C11 0.929 . S
H24 C13 0.929 . S
O25 Co0 2.351 . S
O25 C28 1.244 . S
O26 Co0 2.155 . S
O26 C28 1.240 . S
O27 Co0 2.096 . S
O27 C8 1.247 . S
C28 O25 1.244 . S
C28 O26 1.240 . S
H29 C3 0.931 . S
H30 C12 0.931 . S
H31 C16 0.929 . S
H32 C18 0.930 . S
Co33 N37 2.148 . S
Co33 N43 2.128 . S
Co33 N53 2.194 . S
Co33 O58 2.351 . S
Co33 O59 2.155 . S
Co33 O60 2.096 . S
C34 N37 1.301 . S
C34 N38 1.328 . S
C34 H39 0.930 . S
C35 C36 1.333 . S
C35 N37 1.317 . S
C35 H40 0.930 . S
C36 C35 1.333 . S
C36 N38 1.350 . S
C36 H62 0.931 . S
N37 Co33 2.148 . S
N37 C34 1.301 . S
N37 C35 1.317 . S
N38 C34 1.328 . S
N38 C36 1.350 . S
H39 C34 0.930 . S
H40 C35 0.930 . S
C41 O42 1.224 . S
C41 O60 1.247 . S
O42 C41 1.224 . S
N43 Co33 2.128 . S
N43 C44 1.355 1_556 S
N43 C46 1.311 1_556 S
C44 N43 1.355 1_554 S
C44 C45 1.363 . S
C44 H56 0.929 1_554 S
C45 C44 1.363 . S
C45 N47 1.375 . S
C45 H63 0.931 . S
C46 N43 1.311 1_554 S
C46 N47 1.347 . S
C46 H57 0.929 . S
N47 C45 1.375 . S
N47 C46 1.347 . S
C48 C51 1.365 . S
C48 N53 1.328 . S
C48 H54 0.929 . S
C49 C50 1.362 . S
C49 C52 1.378 . S
C49 H64 0.929 . S
C50 C49 1.362 . S
C50 C51 1.366 . S
C51 C48 1.365 . S
C51 C50 1.366 . S
C51 H65 0.930 . S
C52 C49 1.378 . S
C52 N53 1.315 . S
C52 H55 0.930 . S
N53 Co33 2.194 . S
N53 C48 1.328 . S
N53 C52 1.315 . S
H54 C48 0.929 . S
H55 C52 0.930 . S
H56 C44 0.929 1_556 S
H57 C46 0.929 . S
O58 Co33 2.351 . S
O58 C61 1.244 . S
O59 Co33 2.155 . S
O59 C61 1.240 . S
O60 Co33 2.096 . S
O60 C41 1.247 . S
C61 O58 1.244 . S
C61 O59 1.240 . S
H62 C36 0.931 . S
H63 C45 0.931 . S
H64 C49 0.929 . S
H65 C51 0.930 . S
Co66 N70 2.148 . S
Co66 N76 2.128 . S
Co66 N86 2.194 . S
Co66 O91 2.351 . S
Co66 O92 2.155 . S
Co66 O93 2.096 . S
C67 N70 1.301 . S
C67 N71 1.328 . S
C67 H72 0.930 . S
C68 C69 1.333 . S
C68 N70 1.317 . S
C68 H73 0.930 . S
C69 C68 1.333 . S
C69 N71 1.350 . S
C69 H95 0.931 . S
N70 Co66 2.148 . S
N70 C67 1.301 . S
N70 C68 1.317 . S
N71 C67 1.328 . S
N71 C69 1.350 . S
H72 C67 0.930 . S
H73 C68 0.930 . S
C74 O75 1.224 . S
C74 O93 1.247 . S
O75 C74 1.224 . S
N76 Co66 2.128 . S
N76 C77 1.355 . S
N76 C79 1.311 . S
C77 N76 1.355 . S
C77 C78 1.363 . S
C77 H89 0.929 . S
C78 C77 1.363 . S
C78 N80 1.375 . S
C78 H96 0.931 . S
C79 N76 1.311 . S
C79 N80 1.347 . S
C79 H90 0.929 . S
N80 C78 1.375 . S
N80 C79 1.347 . S
C81 C84 1.365 . S
C81 N86 1.328 . S
C81 H87 0.929 . S
C82 C83 1.362 . S
C82 C85 1.378 . S
C82 H97 0.929 . S
C83 C82 1.362 . S
C83 C84 1.366 . S
C84 C81 1.365 . S
C84 C83 1.366 . S
C84 H98 0.930 . S
C85 C82 1.378 . S
C85 N86 1.315 . S
C85 H88 0.930 . S
N86 Co66 2.194 . S
N86 C81 1.328 . S
N86 C85 1.315 . S
H87 C81 0.929 . S
H88 C85 0.930 . S
H89 C77 0.929 . S
H90 C79 0.929 . S
O91 Co66 2.351 . S
O91 C94 1.244 . S
O92 Co66 2.155 . S
O92 C94 1.240 . S
O93 Co66 2.096 . S
O93 C74 1.247 . S
C94 O91 1.244 . S
C94 O92 1.240 . S
H95 C69 0.931 . S
H96 C78 0.931 . S
H97 C82 0.929 . S
H98 C84 0.930 . S
Co99 N103 2.148 . S
Co99 N109 2.128 . S
Co99 N119 2.194 . S
Co99 O124 2.351 . S
Co99 O125 2.155 . S
Co99 O126 2.096 . S
C100 N103 1.301 . S
C100 N104 1.328 . S
C100 H105 0.930 . S
C101 C102 1.333 . S
C101 N103 1.317 . S
C101 H106 0.930 . S
C102 C101 1.333 . S
C102 N104 1.350 . S
C102 H128 0.931 . S
N103 Co99 2.148 . S
N103 C100 1.301 . S
N103 C101 1.317 . S
N104 C100 1.328 . S
N104 C102 1.350 . S
H105 C100 0.930 . S
H106 C101 0.930 . S
C107 O108 1.224 . S
C107 O126 1.247 . S
O108 C107 1.224 . S
N109 Co99 2.128 . S
N109 C110 1.355 1_556 S
N109 C112 1.311 1_556 S
C110 N109 1.355 1_554 S
C110 C111 1.363 . S
C110 H122 0.929 1_554 S
C111 C110 1.363 . S
C111 N113 1.375 . S
C111 H129 0.931 . S
C112 N109 1.311 1_554 S
C112 N113 1.347 . S
C112 H123 0.929 . S
N113 C111 1.375 . S
N113 C112 1.347 . S
C114 C117 1.365 . S
C114 N119 1.328 . S
C114 H120 0.929 . S
C115 C116 1.362 . S
C115 C118 1.378 . S
C115 H130 0.929 . S
C116 C115 1.362 . S
C116 C117 1.366 . S
C117 C114 1.365 . S
C117 C116 1.366 . S
C117 H131 0.930 . S
C118 C115 1.378 . S
C118 N119 1.315 . S
C118 H121 0.930 . S
N119 Co99 2.194 . S
N119 C114 1.328 . S
N119 C118 1.315 . S
H120 C114 0.929 . S
H121 C118 0.930 . S
H122 C110 0.929 1_556 S
H123 C112 0.929 . S
O124 Co99 2.351 . S
O124 C127 1.244 . S
O125 Co99 2.155 . S
O125 C127 1.240 . S
O126 Co99 2.096 . S
O126 C107 1.247 . S
C127 O124 1.244 . S
C127 O125 1.240 . S
H128 C102 0.931 . S
H129 C111 0.931 . S
H130 C115 0.929 . S
H131 C117 0.930 . S
Co132 N136 2.148 . S
Co132 N142 2.128 . S
Co132 N152 2.194 . S
Co132 O157 2.351 . S
Co132 O158 2.155 . S
Co132 O159 2.096 . S
C133 N136 1.301 . S
C133 N137 1.328 . S
C133 H138 0.930 . S
C134 C135 1.333 . S
C134 N136 1.317 . S
C134 H139 0.930 . S
C135 C134 1.333 . S
C135 N137 1.350 . S
C135 H161 0.931 . S
N136 Co132 2.148 . S
N136 C133 1.301 . S
N136 C134 1.317 . S
N137 C133 1.328 . S
N137 C135 1.350 . S
H138 C133 0.930 . S
H139 C134 0.930 . S
C140 O141 1.224 . S
C140 O159 1.247 . S
O141 C140 1.224 . S
N142 Co132 2.128 . S
N142 C143 1.355 . S
N142 C145 1.311 . S
C143 N142 1.355 . S
C143 C144 1.363 . S
C143 H155 0.929 . S
C144 C143 1.363 . S
C144 N146 1.375 . S
C144 H162 0.931 . S
C145 N142 1.311 . S
C145 N146 1.347 . S
C145 H156 0.929 . S
N146 C144 1.375 . S
N146 C145 1.347 . S
C147 C150 1.365 . S
C147 N152 1.328 . S
C147 H153 0.929 . S
C148 C149 1.362 . S
C148 C151 1.378 . S
C148 H163 0.929 . S
C149 C148 1.362 . S
C149 C150 1.366 . S
C150 C147 1.365 . S
C150 C149 1.366 . S
C150 H164 0.930 . S
C151 C148 1.378 . S
C151 N152 1.315 . S
C151 H154 0.930 . S
N152 Co132 2.194 . S
N152 C147 1.328 . S
N152 C151 1.315 . S
H153 C147 0.929 . S
H154 C151 0.930 . S
H155 C143 0.929 . S
H156 C145 0.929 . S
O157 Co132 2.351 . S
O157 C160 1.244 . S
O158 Co132 2.155 . S
O158 C160 1.240 . S
O159 Co132 2.096 . S
O159 C140 1.247 . S
C160 O157 1.244 . S
C160 O158 1.240 . S
H161 C135 0.931 . S
H162 C144 0.931 . S
H163 C148 0.929 . S
H164 C150 0.930 . S
Co165 N169 2.148 . S
Co165 N175 2.128 . S
Co165 N185 2.194 . S
Co165 O190 2.351 . S
Co165 O191 2.155 . S
Co165 O192 2.096 . S
C166 N169 1.301 . S
C166 N170 1.328 . S
C166 H171 0.930 . S
C167 C168 1.333 . S
C167 N169 1.317 . S
C167 H172 0.930 . S
C168 C167 1.333 . S
C168 N170 1.350 . S
C168 H194 0.931 . S
N169 Co165 2.148 . S
N169 C166 1.301 . S
N169 C167 1.317 . S
N170 C166 1.328 . S
N170 C168 1.350 . S
H171 C166 0.930 . S
H172 C167 0.930 . S
C173 O174 1.224 . S
C173 O192 1.247 . S
O174 C173 1.224 . S
N175 Co165 2.128 . S
N175 C176 1.355 1_556 S
N175 C178 1.311 1_556 S
C176 N175 1.355 1_554 S
C176 C177 1.363 . S
C176 H188 0.929 1_554 S
C177 C176 1.363 . S
C177 N179 1.375 . S
C177 H195 0.931 . S
C178 N175 1.311 1_554 S
C178 N179 1.347 . S
C178 H189 0.929 . S
N179 C177 1.375 . S
N179 C178 1.347 . S
C180 C183 1.365 . S
C180 N185 1.328 . S
C180 H186 0.929 . S
C181 C182 1.362 . S
C181 C184 1.378 . S
C181 H196 0.929 . S
C182 C181 1.362 . S
C182 C183 1.366 . S
C183 C180 1.365 . S
C183 C182 1.366 . S
C183 H197 0.930 . S
C184 C181 1.378 . S
C184 N185 1.315 . S
C184 H187 0.930 . S
N185 Co165 2.194 . S
N185 C180 1.328 . S
N185 C184 1.315 . S
H186 C180 0.929 . S
H187 C184 0.930 . S
H188 C176 0.929 1_556 S
H189 C178 0.929 . S
O190 Co165 2.351 . S
O190 C193 1.244 . S
O191 Co165 2.155 . S
O191 C193 1.240 . S
O192 Co165 2.096 . S
O192 C173 1.247 . S
C193 O190 1.244 . S
C193 O191 1.240 . S
H194 C168 0.931 . S
H195 C177 0.931 . S
H196 C181 0.929 . S
H197 C183 0.930 . S
Co198 N202 2.148 . S
Co198 N208 2.128 . S
Co198 N218 2.194 . S
Co198 O223 2.351 . S
Co198 O224 2.155 . S
Co198 O225 2.096 . S
C199 N202 1.301 . S
C199 N203 1.328 . S
C199 H204 0.930 . S
C200 C201 1.333 . S
C200 N202 1.317 . S
C200 H205 0.930 . S
C201 C200 1.333 . S
C201 N203 1.350 . S
C201 H227 0.931 . S
N202 Co198 2.148 . S
N202 C199 1.301 . S
N202 C200 1.317 . S
N203 C199 1.328 . S
N203 C201 1.350 . S
H204 C199 0.930 . S
H205 C200 0.930 . S
C206 O207 1.224 . S
C206 O225 1.247 . S
O207 C206 1.224 . S
N208 Co198 2.128 . S
N208 C209 1.355 1_554 S
N208 C211 1.311 1_554 S
C209 N208 1.355 1_556 S
C209 C210 1.363 . S
C209 H221 0.929 1_556 S
C210 C209 1.363 . S
C210 N212 1.375 . S
C210 H228 0.931 . S
C211 N208 1.311 1_556 S
C211 N212 1.347 . S
C211 H222 0.929 . S
N212 C210 1.375 . S
N212 C211 1.347 . S
C213 C216 1.365 . S
C213 N218 1.328 . S
C213 H219 0.929 . S
C214 C215 1.362 . S
C214 C217 1.378 . S
C214 H229 0.929 . S
C215 C214 1.362 . S
C215 C216 1.366 . S
C216 C213 1.365 . S
C216 C215 1.366 . S
C216 H230 0.930 . S
C217 C214 1.378 . S
C217 N218 1.315 . S
C217 H220 0.930 . S
N218 Co198 2.194 . S
N218 C213 1.328 . S
N218 C217 1.315 . S
H219 C213 0.929 . S
H220 C217 0.930 . S
H221 C209 0.929 1_554 S
H222 C211 0.929 . S
O223 Co198 2.351 . S
O223 C226 1.244 . S
O224 Co198 2.155 . S
O224 C226 1.240 . S
O225 Co198 2.096 . S
O225 C206 1.247 . S
C226 O223 1.244 . S
C226 O224 1.240 . S
H227 C201 0.931 . S
H228 C210 0.931 . S
H229 C214 0.929 . S
H230 C216 0.930 . S
Co231 N235 2.148 . S
Co231 N241 2.128 . S
Co231 N251 2.194 . S
Co231 O256 2.351 . S
Co231 O257 2.155 . S
Co231 O258 2.096 . S
C232 N235 1.301 . S
C232 N236 1.328 . S
C232 H237 0.930 . S
C233 C234 1.333 . S
C233 N235 1.317 . S
C233 H238 0.930 . S
C234 C233 1.333 . S
C234 N236 1.350 . S
C234 H260 0.931 . S
N235 Co231 2.148 . S
N235 C232 1.301 . S
N235 C233 1.317 . S
N236 C232 1.328 . S
N236 C234 1.350 . S
H237 C232 0.930 . S
H238 C233 0.930 . S
C239 O240 1.224 . S
C239 O258 1.247 . S
O240 C239 1.224 . S
N241 Co231 2.128 . S
N241 C242 1.355 . S
N241 C244 1.311 . S
C242 N241 1.355 . S
C242 C243 1.363 . S
C242 H254 0.929 . S
C243 C242 1.363 . S
C243 N245 1.375 . S
C243 H261 0.931 . S
C244 N241 1.311 . S
C244 N245 1.347 . S
C244 H255 0.929 . S
N245 C243 1.375 . S
N245 C244 1.347 . S
C246 C249 1.365 . S
C246 N251 1.328 . S
C246 H252 0.929 . S
C247 C248 1.362 . S
C247 C250 1.378 . S
C247 H262 0.929 . S
C248 C247 1.362 . S
C248 C249 1.366 . S
C249 C246 1.365 . S
C249 C248 1.366 . S
C249 H263 0.930 . S
C250 C247 1.378 . S
C250 N251 1.315 . S
C250 H253 0.930 . S
N251 Co231 2.194 . S
N251 C246 1.328 . S
N251 C250 1.315 . S
H252 C246 0.929 . S
H253 C250 0.930 . S
H254 C242 0.929 . S
H255 C244 0.929 . S
O256 Co231 2.351 . S
O256 C259 1.244 . S
O257 Co231 2.155 . S
O257 C259 1.240 . S
O258 Co231 2.096 . S
O258 C239 1.247 . S
C259 O256 1.244 . S
C259 O257 1.240 . S
H260 C234 0.931 . S
H261 C243 0.931 . S
H262 C247 0.929 . S
H263 C249 0.930 . S
Co264 N268 2.148 . S
Co264 N274 2.128 . S
Co264 N284 2.194 . S
Co264 O289 2.351 . S
Co264 O290 2.155 . S
Co264 O291 2.096 . S
C265 N268 1.301 . S
C265 N269 1.328 . S
C265 H270 0.930 . S
C266 C267 1.333 . S
C266 N268 1.317 . S
C266 H271 0.930 . S
C267 C266 1.333 . S
C267 N269 1.350 . S
C267 H293 0.931 . S
N268 Co264 2.148 . S
N268 C265 1.301 . S
N268 C266 1.317 . S
N269 C265 1.328 . S
N269 C267 1.350 . S
H270 C265 0.930 . S
H271 C266 0.930 . S
C272 O273 1.224 . S
C272 O291 1.247 . S
O273 C272 1.224 . S
N274 Co264 2.128 . S
N274 C275 1.355 1_554 S
N274 C277 1.311 1_554 S
C275 N274 1.355 1_556 S
C275 C276 1.363 . S
C275 H287 0.929 1_556 S
C276 C275 1.363 . S
C276 N278 1.375 . S
C276 H294 0.931 . S
C277 N274 1.311 1_556 S
C277 N278 1.347 . S
C277 H288 0.929 . S
N278 C276 1.375 . S
N278 C277 1.347 . S
C279 C282 1.365 . S
C279 N284 1.328 . S
C279 H285 0.929 . S
C280 C281 1.362 . S
C280 C283 1.378 . S
C280 H295 0.929 . S
C281 C280 1.362 . S
C281 C282 1.366 . S
C282 C279 1.365 . S
C282 C281 1.366 . S
C282 H296 0.930 . S
C283 C280 1.378 . S
C283 N284 1.315 . S
C283 H286 0.930 . S
N284 Co264 2.194 . S
N284 C279 1.328 . S
N284 C283 1.315 . S
H285 C279 0.929 . S
H286 C283 0.930 . S
H287 C275 0.929 1_554 S
H288 C277 0.929 . S
O289 Co264 2.351 . S
O289 C292 1.244 . S
O290 Co264 2.155 . S
O290 C292 1.240 . S
O291 Co264 2.096 . S
O291 C272 1.247 . S
C292 O289 1.244 . S
C292 O290 1.240 . S
H293 C267 0.931 . S
H294 C276 0.931 . S
H295 C280 0.929 . S
H296 C282 0.930 . S
Co297 N301 2.148 . S
Co297 N307 2.128 . S
Co297 N317 2.194 . S
Co297 O322 2.351 . S
Co297 O323 2.155 . S
Co297 O324 2.096 . S
C298 N301 1.301 . S
C298 N302 1.328 . S
C298 H303 0.930 . S
C299 C300 1.333 . S
C299 N301 1.317 . S
C299 H304 0.930 . S
C300 C299 1.333 . S
C300 N302 1.350 . S
C300 H326 0.931 . S
N301 Co297 2.148 . S
N301 C298 1.301 . S
N301 C299 1.317 . S
N302 C298 1.328 . S
N302 C300 1.350 . S
H303 C298 0.930 . S
H304 C299 0.930 . S
C305 O306 1.224 . S
C305 O324 1.247 . S
O306 C305 1.224 . S
N307 Co297 2.128 . S
N307 C308 1.355 . S
N307 C310 1.311 . S
C308 N307 1.355 . S
C308 C309 1.363 . S
C308 H320 0.929 . S
C309 C308 1.363 . S
C309 N311 1.375 . S
C309 H327 0.931 . S
C310 N307 1.311 . S
C310 N311 1.347 . S
C310 H321 0.929 . S
N311 C309 1.375 . S
N311 C310 1.347 . S
C312 C315 1.365 . S
C312 N317 1.328 . S
C312 H318 0.929 . S
C313 C314 1.362 . S
C313 C316 1.378 . S
C313 H328 0.929 . S
C314 C313 1.362 . S
C314 C315 1.366 . S
C315 C312 1.365 . S
C315 C314 1.366 . S
C315 H329 0.930 . S
C316 C313 1.378 . S
C316 N317 1.315 . S
C316 H319 0.930 . S
N317 Co297 2.194 . S
N317 C312 1.328 . S
N317 C316 1.315 . S
H318 C312 0.929 . S
H319 C316 0.930 . S
H320 C308 0.929 . S
H321 C310 0.929 . S
O322 Co297 2.351 . S
O322 C325 1.244 . S
O323 Co297 2.155 . S
O323 C325 1.240 . S
O324 Co297 2.096 . S
O324 C305 1.247 . S
C325 O322 1.244 . S
C325 O323 1.240 . S
H326 C300 0.931 . S
H327 C309 0.931 . S
H328 C313 0.929 . S
H329 C315 0.930 . S
Co330 N334 2.148 . S
Co330 N340 2.128 . S
Co330 N350 2.194 . S
Co330 O355 2.351 . S
Co330 O356 2.155 . S
Co330 O357 2.096 . S
C331 N334 1.301 . S
C331 N335 1.328 . S
C331 H336 0.930 . S
C332 C333 1.333 . S
C332 N334 1.317 . S
C332 H337 0.930 . S
C333 C332 1.333 . S
C333 N335 1.350 . S
C333 H359 0.931 . S
N334 Co330 2.148 . S
N334 C331 1.301 . S
N334 C332 1.317 . S
N335 C331 1.328 . S
N335 C333 1.350 . S
H336 C331 0.930 . S
H337 C332 0.930 . S
C338 O339 1.224 . S
C338 O357 1.247 . S
O339 C338 1.224 . S
N340 Co330 2.128 . S
N340 C341 1.355 1_554 S
N340 C343 1.311 1_554 S
C341 N340 1.355 1_556 S
C341 C342 1.363 . S
C341 H353 0.929 1_556 S
C342 C341 1.363 . S
C342 N344 1.375 . S
C342 H360 0.931 . S
C343 N340 1.311 1_556 S
C343 N344 1.347 . S
C343 H354 0.929 . S
N344 C342 1.375 . S
N344 C343 1.347 . S
C345 C348 1.365 . S
C345 N350 1.328 . S
C345 H351 0.929 . S
C346 C347 1.362 . S
C346 C349 1.378 . S
C346 H361 0.929 . S
C347 C346 1.362 . S
C347 C348 1.366 . S
C348 C345 1.365 . S
C348 C347 1.366 . S
C348 H362 0.930 . S
C349 C346 1.378 . S
C349 N350 1.315 . S
C349 H352 0.930 . S
N350 Co330 2.194 . S
N350 C345 1.328 . S
N350 C349 1.315 . S
H351 C345 0.929 . S
H352 C349 0.930 . S
H353 C341 0.929 1_554 S
H354 C343 0.929 . S
O355 Co330 2.351 . S
O355 C358 1.244 . S
O356 Co330 2.155 . S
O356 C358 1.240 . S
O357 Co330 2.096 . S
O357 C338 1.247 . S
C358 O355 1.244 . S
C358 O356 1.240 . S
H359 C333 0.931 . S
H360 C342 0.931 . S
H361 C346 0.929 . S
H362 C348 0.930 . S
Co363 N367 2.148 . S
Co363 N373 2.128 . S
Co363 N383 2.194 . S
Co363 O388 2.351 . S
Co363 O389 2.155 . S
Co363 O390 2.096 . S
C364 N367 1.301 . S
C364 N368 1.328 . S
C364 H369 0.930 . S
C365 C366 1.333 . S
C365 N367 1.317 . S
C365 H370 0.930 . S
C366 C365 1.333 . S
C366 N368 1.350 . S
C366 H392 0.931 . S
N367 Co363 2.148 . S
N367 C364 1.301 . S
N367 C365 1.317 . S
N368 C364 1.328 . S
N368 C366 1.350 . S
H369 C364 0.930 . S
H370 C365 0.930 . S
C371 O372 1.224 . S
C371 O390 1.247 . S
O372 C371 1.224 . S
N373 Co363 2.128 . S
N373 C374 1.355 . S
N373 C376 1.311 . S
C374 N373 1.355 . S
C374 C375 1.363 . S
C374 H386 0.929 . S
C375 C374 1.363 . S
C375 N377 1.375 . S
C375 H393 0.931 . S
C376 N373 1.311 . S
C376 N377 1.347 . S
C376 H387 0.929 . S
N377 C375 1.375 . S
N377 C376 1.347 . S
C378 C381 1.365 . S
C378 N383 1.328 . S
C378 H384 0.929 . S
C379 C380 1.362 . S
C379 C382 1.378 . S
C379 H394 0.929 . S
C380 C379 1.362 . S
C380 C381 1.366 . S
C381 C378 1.365 . S
C381 C380 1.366 . S
C381 H395 0.930 . S
C382 C379 1.378 . S
C382 N383 1.315 . S
C382 H385 0.930 . S
N383 Co363 2.194 . S
N383 C378 1.328 . S
N383 C382 1.315 . S
H384 C378 0.929 . S
H385 C382 0.930 . S
H386 C374 0.929 . S
H387 C376 0.929 . S
O388 Co363 2.351 . S
O388 C391 1.244 . S
O389 Co363 2.155 . S
O389 C391 1.240 . S
O390 Co363 2.096 . S
O390 C371 1.247 . S
C391 O388 1.244 . S
C391 O389 1.240 . S
H392 C366 0.931 . S
H393 C375 0.931 . S
H394 C379 0.929 . S
H395 C381 0.930 . S
C396 C397 1.363 . S
C396 C402 1.379 . S
C396 N404 1.356 . S
C397 C396 1.363 . S
C397 C403 1.363 1_455 S
C398 C399 1.363 . S
C398 C403 1.379 . S
C398 N405 1.356 . S
C399 C398 1.363 . S
C399 C402 1.363 1_655 S
N400 C402 1.356 1_655 S
N400 H412 0.984 1_655 S
N400 H413 0.985 . S
N401 C403 1.356 1_455 S
N401 H406 0.984 . S
N401 H407 0.985 1_455 S
C402 C396 1.379 . S
C402 C399 1.363 1_455 S
C402 N400 1.356 1_455 S
C403 C397 1.363 1_655 S
C403 C398 1.379 . S
C403 N401 1.356 1_655 S
N404 C396 1.356 . S
N404 H410 0.984 . S
N404 H411 0.984 . S
N405 C398 1.356 . S
N405 H408 0.984 . S
N405 H409 0.985 . S
H406 N401 0.984 . S
H407 N401 0.985 1_655 S
H408 N405 0.984 . S
H409 N405 0.985 . S
H410 N404 0.984 . S
H411 N404 0.984 . S
H412 N400 0.984 1_455 S
H413 N400 0.985 . S
C414 C415 1.363 1_554 S
C414 C420 1.370 1_545 S
C414 N422 1.356 . S
C415 C414 1.363 1_556 S
C415 C421 1.376 . S
C416 C417 1.363 1_556 S
C416 C421 1.370 1_565 S
C416 N423 1.356 . S
C417 C416 1.363 1_554 S
C417 C420 1.376 . S
N418 C420 1.356 . S
N418 H430 0.984 1_565 S
N418 H431 0.985 . S
N419 C421 1.356 . S
N419 H424 0.984 . S
N419 H425 0.985 1_545 S
C420 C414 1.370 1_565 S
C420 C417 1.376 . S
C420 N418 1.356 . S
C421 C415 1.376 . S
C421 C416 1.370 1_545 S
C421 N419 1.356 . S
N422 C414 1.356 . S
N422 H428 0.984 . S
N422 H429 0.984 1_554 S
N423 C416 1.356 . S
N423 H426 0.984 1_556 S
N423 H427 0.985 . S
H424 N419 0.984 . S
H425 N419 0.985 1_565 S
H426 N423 0.984 1_554 S
H427 N423 0.985 . S
H428 N422 0.984 . S
H429 N422 0.984 1_556 S
H430 N418 0.984 1_545 S
H431 N418 0.985 . S
C432 C433 1.363 . S
C432 C438 1.379 . S
C432 N440 1.356 . S
C433 C432 1.363 . S
C433 C439 1.363 . S
C434 C435 1.363 . S
C434 C439 1.379 . S
C434 N441 1.356 . S
C435 C434 1.363 . S
C435 C438 1.363 . S
N436 C438 1.356 . S
N436 H448 0.984 . S
N436 H449 0.985 . S
N437 C439 1.356 . S
N437 H442 0.984 . S
N437 H443 0.985 . S
C438 C432 1.379 . S
C438 C435 1.363 . S
C438 N436 1.356 . S
C439 C433 1.363 . S
C439 C434 1.379 . S
C439 N437 1.356 . S
N440 C432 1.356 . S
N440 H446 0.984 . S
N440 H447 0.984 . S
N441 C434 1.356 . S
N441 H444 0.984 . S
N441 H445 0.985 . S
H442 N437 0.984 . S
H443 N437 0.985 . S
H444 N441 0.984 . S
H445 N441 0.985 . S
H446 N440 0.984 . S
H447 N440 0.984 . S
H448 N436 0.984 . S
H449 N436 0.985 . S
C450 C451 1.363 . S
C450 C456 1.379 1_454 S
C450 N458 1.356 . S
C451 C450 1.363 . S
C451 C457 1.363 . S
C452 C453 1.363 . S
C452 C457 1.379 1_656 S
C452 N459 1.356 . S
C453 C452 1.363 . S
C453 C456 1.363 . S
N454 C456 1.356 . S
N454 H466 0.984 . S
N454 H467 0.985 . S
N455 C457 1.356 . S
N455 H460 0.984 . S
N455 H461 0.985 . S
C456 C450 1.379 1_656 S
C456 C453 1.363 . S
C456 N454 1.356 . S
C457 C451 1.363 . S
C457 C452 1.379 1_454 S
C457 N455 1.356 . S
N458 C450 1.356 . S
N458 H464 0.984 . S
N458 H465 0.984 . S
N459 C452 1.356 . S
N459 H462 0.984 . S
N459 H463 0.985 . S
H460 N455 0.984 . S
H461 N455 0.985 . S
H462 N459 0.984 . S
H463 N459 0.985 . S
H464 N458 0.984 . S
H465 N458 0.984 . S
H466 N454 0.984 . S
H467 N454 0.985 . S
C468 C469 1.363 . S
C468 C474 1.379 1_545 S
C468 N476 1.356 . S
C469 C468 1.363 . S
C469 C475 1.363 . S
C470 C471 1.363 . S
C470 C475 1.379 1_565 S
C470 N477 1.356 . S
C471 C470 1.363 . S
C471 C474 1.363 . S
N472 C474 1.356 . S
N472 H484 0.984 . S
N472 H485 0.985 . S
N473 C475 1.356 . S
N473 H478 0.984 . S
N473 H479 0.985 . S
C474 C468 1.379 1_565 S
C474 C471 1.363 . S
C474 N472 1.356 . S
C475 C469 1.363 . S
C475 C470 1.379 1_545 S
C475 N473 1.356 . S
N476 C468 1.356 . S
N476 H482 0.984 . S
N476 H483 0.984 . S
N477 C470 1.356 . S
N477 H480 0.984 . S
N477 H481 0.985 . S
H478 N473 0.984 . S
H479 N473 0.985 . S
H480 N477 0.984 . S
H481 N477 0.985 . S
H482 N476 0.984 . S
H483 N476 0.984 . S
H484 N472 0.984 . S
H485 N472 0.985 . S
C486 C487 1.363 . S
C486 C492 1.379 1_556 S
C486 N494 1.356 . S
C487 C486 1.363 . S
C487 C493 1.363 . S
C488 C489 1.363 . S
C488 C493 1.379 1_554 S
C488 N495 1.356 . S
C489 C488 1.363 . S
C489 C492 1.363 . S
N490 C492 1.356 . S
N490 H502 0.984 1_554 S
N490 H503 0.985 . S
N491 C493 1.356 . S
N491 H496 0.984 . S
N491 H497 0.985 1_556 S
C492 C486 1.379 1_554 S
C492 C489 1.363 . S
C492 N490 1.356 . S
C493 C487 1.363 . S
C493 C488 1.379 1_556 S
C493 N491 1.356 . S
N494 C486 1.356 . S
N494 H500 0.984 . S
N494 H501 0.984 . S
N495 C488 1.356 . S
N495 H498 0.984 . S
N495 H499 0.985 . S
H496 N491 0.984 . S
H497 N491 0.985 1_554 S
H498 N495 0.984 . S
H499 N495 0.985 . S
H500 N494 0.984 . S
H501 N494 0.984 . S
H502 N490 0.984 1_556 S
H503 N490 0.985 . S
C504 C505 1.363 . S
C504 C510 1.379 . S
C504 N512 1.356 . S
C505 C504 1.363 . S
C505 C511 1.363 . S
C506 C507 1.363 . S
C506 C511 1.379 . S
C506 N513 1.356 . S
C507 C506 1.363 . S
C507 C510 1.363 . S
N508 C510 1.356 . S
N508 H520 0.984 . S
N508 H521 0.985 . S
N509 C511 1.356 . S
N509 H514 0.984 . S
N509 H515 0.985 . S
C510 C504 1.379 . S
C510 C507 1.363 . S
C510 N508 1.356 . S
C511 C505 1.363 . S
C511 C506 1.379 . S
C511 N509 1.356 . S
N512 C504 1.356 . S
N512 H518 0.984 . S
N512 H519 0.984 . S
N513 C506 1.356 . S
N513 H516 0.984 . S
N513 H517 0.985 . S
H514 N509 0.984 . S
H515 N509 0.985 . S
H516 N513 0.984 . S
H517 N513 0.985 . S
H518 N512 0.984 . S
H519 N512 0.984 . S
H520 N508 0.984 . S
H521 N508 0.985 . S
C522 C523 1.363 . S
C522 C528 1.379 . S
C522 N530 1.356 . S
C523 C522 1.363 . S
C523 C529 1.363 . S
C524 C525 1.363 . S
C524 C529 1.379 . S
C524 N531 1.356 . S
C525 C524 1.363 . S
C525 C528 1.363 . S
N526 C528 1.356 . S
N526 H538 0.984 . S
N526 H539 0.985 . S
N527 C529 1.356 . S
N527 H532 0.984 . S
N527 H533 0.985 . S
C528 C522 1.379 . S
C528 C525 1.363 . S
C528 N526 1.356 . S
C529 C523 1.363 . S
C529 C524 1.379 . S
C529 N527 1.356 . S
N530 C522 1.356 . S
N530 H536 0.984 . S
N530 H537 0.984 . S
N531 C524 1.356 . S
N531 H534 0.984 . S
N531 H535 0.985 . S
H532 N527 0.984 . S
H533 N527 0.985 . S
H534 N531 0.984 . S
H535 N531 0.985 . S
H536 N530 0.984 . S
H537 N530 0.984 . S
H538 N526 0.984 . S
H539 N526 0.985 . S
C540 C541 1.363 . S
C540 C546 1.379 . S
C540 N548 1.356 . S
C541 C540 1.363 . S
C541 C547 1.363 . S
C542 C543 1.363 . S
C542 C547 1.379 . S
C542 N549 1.356 . S
C543 C542 1.363 . S
C543 C546 1.363 . S
N544 C546 1.356 . S
N544 H556 0.984 . S
N544 H557 0.985 . S
N545 C547 1.356 . S
N545 H550 0.984 . S
N545 H551 0.985 . S
C546 C540 1.379 . S
C546 C543 1.363 . S
C546 N544 1.356 . S
C547 C541 1.363 . S
C547 C542 1.379 . S
C547 N545 1.356 . S
N548 C540 1.356 . S
N548 H554 0.984 . S
N548 H555 0.984 . S
N549 C542 1.356 . S
N549 H552 0.984 . S
N549 H553 0.985 . S
H550 N545 0.984 . S
H551 N545 0.985 . S
H552 N549 0.984 . S
H553 N549 0.985 . S
H554 N548 0.984 . S
H555 N548 0.984 . S
H556 N544 0.984 . S
H557 N544 0.985 . S
C558 C559 1.363 . S
C558 C564 1.379 . S
C558 N566 1.356 . S
C559 C558 1.363 . S
C559 C565 1.363 . S
C560 C561 1.363 . S
C560 C565 1.379 . S
C560 N567 1.356 . S
C561 C560 1.363 . S
C561 C564 1.363 . S
N562 C564 1.356 . S
N562 H574 0.984 . S
N562 H575 0.985 . S
N563 C565 1.356 . S
N563 H568 0.984 . S
N563 H569 0.985 . S
C564 C558 1.379 . S
C564 C561 1.363 . S
C564 N562 1.356 . S
C565 C559 1.363 . S
C565 C560 1.379 . S
C565 N563 1.356 . S
N566 C558 1.356 . S
N566 H572 0.984 . S
N566 H573 0.984 . S
N567 C560 1.356 . S
N567 H570 0.984 . S
N567 H571 0.985 . S
H568 N563 0.984 . S
H569 N563 0.985 . S
H570 N567 0.984 . S
H571 N567 0.985 . S
H572 N566 0.984 . S
H573 N566 0.984 . S
H574 N562 0.984 . S
H575 N562 0.985 . S
C576 C577 1.363 . S
C576 C582 1.379 . S
C576 N584 1.356 . S
C577 C576 1.363 . S
C577 C583 1.363 . S
C578 C579 1.363 . S
C578 C583 1.379 . S
C578 N585 1.356 . S
C579 C578 1.363 . S
C579 C582 1.363 . S
N580 C582 1.356 . S
N580 H592 0.984 . S
N580 H593 0.985 . S
N581 C583 1.356 . S
N581 H586 0.984 . S
N581 H587 0.985 . S
C582 C576 1.379 . S
C582 C579 1.363 . S
C582 N580 1.356 . S
C583 C577 1.363 . S
C583 C578 1.379 . S
C583 N581 1.356 . S
N584 C576 1.356 . S
N584 H590 0.984 . S
N584 H591 0.984 . S
N585 C578 1.356 . S
N585 H588 0.984 . S
N585 H589 0.985 . S
H586 N581 0.984 . S
H587 N581 0.985 . S
H588 N585 0.984 . S
H589 N585 0.985 . S
H590 N584 0.984 . S
H591 N584 0.984 . S
H592 N580 0.984 . S
H593 N580 0.985 . S
C594 C595 1.363 . S
C594 C600 1.379 . S
C594 N602 1.356 . S
C595 C594 1.363 . S
C595 C601 1.363 . S
C596 C597 1.363 . S
C596 C601 1.379 . S
C596 N603 1.356 . S
C597 C596 1.363 . S
C597 C600 1.363 . S
N598 C600 1.356 . S
N598 H610 0.984 . S
N598 H611 0.985 . S
N599 C601 1.356 . S
N599 H604 0.984 . S
N599 H605 0.985 . S
C600 C594 1.379 . S
C600 C597 1.363 . S
C600 N598 1.356 . S
C601 C595 1.363 . S
C601 C596 1.379 . S
C601 N599 1.356 . S
N602 C594 1.356 . S
N602 H608 0.984 . S
N602 H609 0.984 . S
N603 C596 1.356 . S
N603 H606 0.984 . S
N603 H607 0.985 . S
H604 N599 0.984 . S
H605 N599 0.985 . S
H606 N603 0.984 . S
H607 N603 0.985 . S
H608 N602 0.984 . S
H609 N602 0.984 . S
H610 N598 0.984 . S
H611 N598 0.985 . S
C612 C613 1.363 . S
C612 C618 1.379 . S
C612 N620 1.356 . S
C613 C612 1.363 . S
C613 C619 1.363 . S
C614 C615 1.363 . S
C614 C619 1.379 . S
C614 N621 1.356 . S
C615 C614 1.363 . S
C615 C618 1.363 . S
N616 C618 1.356 . S
N616 H628 0.984 . S
N616 H629 0.985 . S
N617 C619 1.356 . S
N617 H622 0.984 . S
N617 H623 0.985 . S
C618 C612 1.379 . S
C618 C615 1.363 . S
C618 N616 1.356 . S
C619 C613 1.363 . S
C619 C614 1.379 . S
C619 N617 1.356 . S
N620 C612 1.356 . S
N620 H626 0.984 . S
N620 H627 0.984 . S
N621 C614 1.356 . S
N621 H624 0.984 1_556 S
N621 H625 0.985 . S
H622 N617 0.984 . S
H623 N617 0.985 . S
H624 N621 0.984 1_554 S
H625 N621 0.985 . S
H626 N620 0.984 . S
H627 N620 0.984 . S
H628 N616 0.984 . S
H629 N616 0.985 . S
C630 C631 1.363 . S
C630 C636 1.379 . S
C630 N638 1.356 . S
C631 C630 1.363 . S
C631 C637 1.363 . S
C632 C633 1.363 . S
C632 C637 1.379 . S
C632 N639 1.356 . S
C633 C632 1.363 . S
C633 C636 1.363 . S
N634 C636 1.356 . S
N634 H646 0.984 . S
N634 H647 0.985 . S
N635 C637 1.356 . S
N635 H640 0.984 . S
N635 H641 0.985 . S
C636 C630 1.379 . S
C636 C633 1.363 . S
C636 N634 1.356 . S
C637 C631 1.363 . S
C637 C632 1.379 . S
C637 N635 1.356 . S
N638 C630 1.356 . S
N638 H644 0.984 . S
N638 H645 0.984 . S
N639 C632 1.356 . S
N639 H642 0.984 . S
N639 H643 0.985 . S
H640 N635 0.984 . S
H641 N635 0.985 . S
H642 N639 0.984 . S
H643 N639 0.985 . S
H644 N638 0.984 . S
H645 N638 0.984 . S
H646 N634 0.984 . S
H647 N634 0.985 . S
C648 C649 1.363 . S
C648 C654 1.379 . S
C648 N656 1.356 . S
C649 C648 1.363 . S
C649 C655 1.363 . S
C650 C651 1.363 . S
C650 C655 1.379 . S
C650 N657 1.356 . S
C651 C650 1.363 . S
C651 C654 1.363 . S
N652 C654 1.356 . S
N652 H664 0.984 . S
N652 H665 0.985 1_556 S
N653 C655 1.356 . S
N653 H658 0.984 . S
N653 H659 0.985 . S
C654 C648 1.379 . S
C654 C651 1.363 . S
C654 N652 1.356 . S
C655 C649 1.363 . S
C655 C650 1.379 . S
C655 N653 1.356 . S
N656 C648 1.356 . S
N656 H662 0.984 . S
N656 H663 0.984 . S
N657 C650 1.356 . S
N657 H660 0.984 1_556 S
N657 H661 0.985 . S
H658 N653 0.984 . S
H659 N653 0.985 . S
H660 N657 0.984 1_554 S
H661 N657 0.985 . S
H662 N656 0.984 . S
H663 N656 0.984 . S
H664 N652 0.984 . S
H665 N652 0.985 1_554 S
C666 C667 1.363 . S
C666 C672 1.379 . S
C666 N674 1.356 . S
C667 C666 1.363 . S
C667 C673 1.363 . S
C668 C669 1.363 . S
C668 C673 1.379 . S
C668 N675 1.356 . S
C669 C668 1.363 . S
C669 C672 1.363 . S
N670 C672 1.356 . S
N670 H682 0.984 . S
N670 H683 0.985 . S
N671 C673 1.356 . S
N671 H676 0.984 . S
N671 H677 0.985 . S
C672 C666 1.379 . S
C672 C669 1.363 . S
C672 N670 1.356 . S
C673 C667 1.363 . S
C673 C668 1.379 . S
C673 N671 1.356 . S
N674 C666 1.356 . S
N674 H680 0.984 . S
N674 H681 0.984 . S
N675 C668 1.356 . S
N675 H678 0.984 . S
N675 H679 0.985 . S
H676 N671 0.984 . S
H677 N671 0.985 . S
H678 N675 0.984 . S
H679 N675 0.985 . S
H680 N674 0.984 . S
H681 N674 0.984 . S
H682 N670 0.984 . S
H683 N670 0.985 . S
C684 C685 1.363 . S
C684 C690 1.379 . S
C684 N692 1.356 . S
C685 C684 1.363 . S
C685 C691 1.363 . S
C686 C687 1.363 . S
C686 C691 1.379 . S
C686 N693 1.356 . S
C687 C686 1.363 . S
C687 C690 1.363 . S
N688 C690 1.356 . S
N688 H700 0.984 . S
N688 H701 0.985 1_556 S
N689 C691 1.356 . S
N689 H694 0.984 . S
N689 H695 0.985 . S
C690 C684 1.379 . S
C690 C687 1.363 . S
C690 N688 1.356 . S
C691 C685 1.363 . S
C691 C686 1.379 . S
C691 N689 1.356 . S
N692 C684 1.356 . S
N692 H698 0.984 . S
N692 H699 0.984 . S
N693 C686 1.356 . S
N693 H696 0.984 1_556 S
N693 H697 0.985 . S
H694 N689 0.984 . S
H695 N689 0.985 . S
H696 N693 0.984 1_554 S
H697 N693 0.985 . S
H698 N692 0.984 . S
H699 N692 0.984 . S
H700 N688 0.984 . S
H701 N688 0.985 1_554 S
C702 C703 1.363 . S
C702 C708 1.379 . S
C702 N710 1.356 . S
C703 C702 1.363 . S
C703 C709 1.363 . S
C704 C705 1.363 . S
C704 C709 1.379 . S
C704 N711 1.356 . S
C705 C704 1.363 . S
C705 C708 1.363 . S
N706 C708 1.356 . S
N706 H718 0.984 . S
N706 H719 0.985 . S
N707 C709 1.356 . S
N707 H712 0.984 . S
N707 H713 0.985 . S
C708 C702 1.379 . S
C708 C705 1.363 . S
C708 N706 1.356 . S
C709 C703 1.363 . S
C709 C704 1.379 . S
C709 N707 1.356 . S
N710 C702 1.356 . S
N710 H716 0.984 . S
N710 H717 0.984 . S
N711 C704 1.356 . S
N711 H714 0.984 . S
N711 H715 0.985 . S
H712 N707 0.984 . S
H713 N707 0.985 . S
H714 N711 0.984 . S
H715 N711 0.985 . S
H716 N710 0.984 . S
H717 N710 0.984 . S
H718 N706 0.984 . S
H719 N706 0.985 . S
C720 C721 1.363 . S
C720 C726 1.379 . S
C720 N728 1.356 . S
C721 C720 1.363 . S
C721 C727 1.363 . S
C722 C723 1.363 . S
C722 C727 1.379 . S
C722 N729 1.356 . S
C723 C722 1.363 . S
C723 C726 1.363 . S
N724 C726 1.356 . S
N724 H736 0.984 . S
N724 H737 0.985 . S
N725 C727 1.356 . S
N725 H730 0.984 . S
N725 H731 0.985 . S
C726 C720 1.379 . S
C726 C723 1.363 . S
C726 N724 1.356 . S
C727 C721 1.363 . S
C727 C722 1.379 . S
C727 N725 1.356 . S
N728 C720 1.356 . S
N728 H734 0.984 . S
N728 H735 0.984 . S
N729 C722 1.356 . S
N729 H732 0.984 . S
N729 H733 0.985 . S
H730 N725 0.984 . S
H731 N725 0.985 . S
H732 N729 0.984 . S
H733 N729 0.985 . S
H734 N728 0.984 . S
H735 N728 0.984 . S
H736 N724 0.984 . S
H737 N724 0.985 . S
C738 C739 1.363 . S
C738 C744 1.379 . S
C738 N746 1.356 . S
C739 C738 1.363 . S
C739 C745 1.363 . S
C740 C741 1.363 . S
C740 C745 1.379 . S
C740 N747 1.356 . S
C741 C740 1.363 . S
C741 C744 1.363 . S
N742 C744 1.356 . S
N742 H754 0.984 . S
N742 H755 0.985 1_554 S
N743 C745 1.356 . S
N743 H748 0.984 . S
N743 H749 0.985 . S
C744 C738 1.379 . S
C744 C741 1.363 . S
C744 N742 1.356 . S
C745 C739 1.363 . S
C745 C740 1.379 . S
C745 N743 1.356 . S
N746 C738 1.356 . S
N746 H752 0.984 . S
N746 H753 0.984 . S
N747 C740 1.356 . S
N747 H750 0.984 . S
N747 H751 0.985 . S
H748 N743 0.984 . S
H749 N743 0.985 . S
H750 N747 0.984 . S
H751 N747 0.985 . S
H752 N746 0.984 . S
H753 N746 0.984 . S
H754 N742 0.984 . S
H755 N742 0.985 1_556 S
C756 C757 1.363 . S
C756 C762 1.379 . S
C756 N764 1.356 . S
C757 C756 1.363 . S
C757 C763 1.363 . S
C758 C759 1.363 . S
C758 C763 1.379 . S
C758 N765 1.356 . S
C759 C758 1.363 . S
C759 C762 1.363 . S
N760 C762 1.356 . S
N760 H772 0.984 . S
N760 H773 0.985 . S
N761 C763 1.356 . S
N761 H766 0.984 . S
N761 H767 0.985 . S
C762 C756 1.379 . S
C762 C759 1.363 . S
C762 N760 1.356 . S
C763 C757 1.363 . S
C763 C758 1.379 . S
C763 N761 1.356 . S
N764 C756 1.356 . S
N764 H770 0.984 . S
N764 H771 0.984 . S
N765 C758 1.356 . S
N765 H768 0.984 . S
N765 H769 0.985 . S
H766 N761 0.984 . S
H767 N761 0.985 . S
H768 N765 0.984 . S
H769 N765 0.985 . S
H770 N764 0.984 . S
H771 N764 0.984 . S
H772 N760 0.984 . S
H773 N760 0.985 . S
C774 C775 1.363 . S
C774 C780 1.379 . S
C774 N782 1.356 . S
C775 C774 1.363 . S
C775 C781 1.363 . S
C776 C777 1.363 . S
C776 C781 1.379 . S
C776 N783 1.356 . S
C777 C776 1.363 . S
C777 C780 1.363 . S
N778 C780 1.356 . S
N778 H790 0.984 . S
N778 H791 0.985 . S
N779 C781 1.356 . S
N779 H784 0.984 . S
N779 H785 0.985 . S
C780 C774 1.379 . S
C780 C777 1.363 . S
C780 N778 1.356 . S
C781 C775 1.363 . S
C781 C776 1.379 . S
C781 N779 1.356 . S
N782 C774 1.356 . S
N782 H788 0.984 . S
N782 H789 0.984 1_554 S
N783 C776 1.356 . S
N783 H786 0.984 . S
N783 H787 0.985 . S
H784 N779 0.984 . S
H785 N779 0.985 . S
H786 N783 0.984 . S
H787 N783 0.985 . S
H788 N782 0.984 . S
H789 N782 0.984 1_556 S
H790 N778 0.984 . S
H791 N778 0.985 . S
C792 C793 1.363 . S
C792 C798 1.379 . S
C792 N800 1.356 . S
C793 C792 1.363 . S
C793 C799 1.363 . S
C794 C795 1.363 . S
C794 C799 1.379 . S
C794 N801 1.356 . S
C795 C794 1.363 . S
C795 C798 1.363 . S
N796 C798 1.356 . S
N796 H808 0.984 . S
N796 H809 0.985 . S
N797 C799 1.356 . S
N797 H802 0.984 . S
N797 H803 0.985 . S
C798 C792 1.379 . S
C798 C795 1.363 . S
C798 N796 1.356 . S
C799 C793 1.363 . S
C799 C794 1.379 . S
C799 N797 1.356 . S
N800 C792 1.356 . S
N800 H806 0.984 . S
N800 H807 0.984 . S
N801 C794 1.356 . S
N801 H804 0.984 . S
N801 H805 0.985 . S
H802 N797 0.984 . S
H803 N797 0.985 . S
H804 N801 0.984 . S
H805 N801 0.985 . S
H806 N800 0.984 . S
H807 N800 0.984 . S
H808 N796 0.984 . S
H809 N796 0.985 . S
C810 C811 1.363 . S
C810 C816 1.379 . S
C810 N818 1.356 . S
C811 C810 1.363 . S
C811 C817 1.363 . S
C812 C813 1.363 . S
C812 C817 1.379 . S
C812 N819 1.356 . S
C813 C812 1.363 . S
C813 C816 1.363 . S
N814 C816 1.356 . S
N814 H826 0.984 . S
N814 H827 0.985 . S
N815 C817 1.356 . S
N815 H820 0.984 . S
N815 H821 0.985 . S
C816 C810 1.379 . S
C816 C813 1.363 . S
C816 N814 1.356 . S
C817 C811 1.363 . S
C817 C812 1.379 . S
C817 N815 1.356 . S
N818 C810 1.356 . S
N818 H824 0.984 . S
N818 H825 0.984 . S
N819 C812 1.356 . S
N819 H822 0.984 1_554 S
N819 H823 0.985 . S
H820 N815 0.984 . S
H821 N815 0.985 . S
H822 N819 0.984 1_556 S
H823 N819 0.985 . S
H824 N818 0.984 . S
H825 N818 0.984 . S
H826 N814 0.984 . S
H827 N814 0.985 . S
C828 C829 1.363 . S
C828 C834 1.379 . S
C828 N836 1.356 . S
C829 C828 1.363 . S
C829 C835 1.363 . S
C830 C831 1.363 . S
C830 C835 1.379 . S
C830 N837 1.356 . S
C831 C830 1.363 . S
C831 C834 1.363 . S
N832 C834 1.356 . S
N832 H844 0.984 . S
N832 H845 0.985 . S
N833 C835 1.356 . S
N833 H838 0.984 . S
N833 H839 0.985 . S
C834 C828 1.379 . S
C834 C831 1.363 . S
C834 N832 1.356 . S
C835 C829 1.363 . S
C835 C830 1.379 . S
C835 N833 1.356 . S
N836 C828 1.356 . S
N836 H842 0.984 . S
N836 H843 0.984 . S
N837 C830 1.356 . S
N837 H840 0.984 . S
N837 H841 0.985 . S
H838 N833 0.984 . S
H839 N833 0.985 . S
H840 N837 0.984 . S
H841 N837 0.985 . S
H842 N836 0.984 . S
H843 N836 0.984 . S
H844 N832 0.984 . S
H845 N832 0.985 . S
C846 C847 1.363 . S
C846 C852 1.379 . S
C846 N854 1.356 . S
C847 C846 1.363 . S
C847 C853 1.363 . S
C848 C849 1.363 . S
C848 C853 1.379 . S
C848 N855 1.356 . S
C849 C848 1.363 . S
C849 C852 1.363 . S
N850 C852 1.356 . S
N850 H862 0.984 . S
N850 H863 0.985 . S
N851 C853 1.356 . S
N851 H856 0.984 . S
N851 H857 0.985 . S
C852 C846 1.379 . S
C852 C849 1.363 . S
C852 N850 1.356 . S
C853 C847 1.363 . S
C853 C848 1.379 . S
C853 N851 1.356 . S
N854 C846 1.356 . S
N854 H860 0.984 . S
N854 H861 0.984 . S
N855 C848 1.356 . S
N855 H858 0.984 . S
N855 H859 0.985 . S
H856 N851 0.984 . S
H857 N851 0.985 . S
H858 N855 0.984 . S
H859 N855 0.985 . S
H860 N854 0.984 . S
H861 N854 0.984 . S
H862 N850 0.984 . S
H863 N850 0.985 . S
C864 C865 1.363 . S
C864 C870 1.379 . S
C864 N872 1.356 . S
C865 C864 1.363 . S
C865 C871 1.363 . S
C866 C867 1.363 . S
C866 C871 1.379 . S
C866 N873 1.356 . S
C867 C866 1.363 . S
C867 C870 1.363 . S
N868 C870 1.356 . S
N868 H880 0.984 . S
N868 H881 0.985 . S
N869 C871 1.356 . S
N869 H874 0.984 . S
N869 H875 0.985 . S
C870 C864 1.379 . S
C870 C867 1.363 . S
C870 N868 1.356 . S
C871 C865 1.363 . S
C871 C866 1.379 . S
C871 N869 1.356 . S
N872 C864 1.356 . S
N872 H878 0.984 . S
N872 H879 0.984 . S
N873 C866 1.356 . S
N873 H876 0.984 . S
N873 H877 0.985 . S
H874 N869 0.984 . S
H875 N869 0.985 . S
H876 N873 0.984 . S
H877 N873 0.985 . S
H878 N872 0.984 . S
H879 N872 0.984 . S
H880 N868 0.984 . S
H881 N868 0.985 . S
C882 C883 1.363 . S
C882 C888 1.379 . S
C882 N890 1.356 . S
C883 C882 1.363 . S
C883 C889 1.363 . S
C884 C885 1.363 . S
C884 C889 1.379 . S
C884 N891 1.356 . S
C885 C884 1.363 . S
C885 C888 1.363 . S
N886 C888 1.356 . S
N886 H898 0.984 . S
N886 H899 0.985 . S
N887 C889 1.356 . S
N887 H892 0.984 . S
N887 H893 0.985 . S
C888 C882 1.379 . S
C888 C885 1.363 . S
C888 N886 1.356 . S
C889 C883 1.363 . S
C889 C884 1.379 . S
C889 N887 1.356 . S
N890 C882 1.356 . S
N890 H896 0.984 . S
N890 H897 0.984 . S
N891 C884 1.356 . S
N891 H894 0.984 . S
N891 H895 0.985 . S
H892 N887 0.984 . S
H893 N887 0.985 . S
H894 N891 0.984 . S
H895 N891 0.985 . S
H896 N890 0.984 . S
H897 N890 0.984 . S
H898 N886 0.984 . S
H899 N886 0.985 . S
C900 C901 1.363 . S
C900 C906 1.379 . S
C900 N908 1.356 . S
C901 C900 1.363 . S
C901 C907 1.363 . S
C902 C903 1.363 . S
C902 C907 1.379 . S
C902 N909 1.356 . S
C903 C902 1.363 . S
C903 C906 1.363 . S
N904 C906 1.356 . S
N904 H916 0.984 . S
N904 H917 0.985 . S
N905 C907 1.356 . S
N905 H910 0.984 . S
N905 H911 0.985 . S
C906 C900 1.379 . S
C906 C903 1.363 . S
C906 N904 1.356 . S
C907 C901 1.363 . S
C907 C902 1.379 . S
C907 N905 1.356 . S
N908 C900 1.356 . S
N908 H914 0.984 . S
N908 H915 0.984 . S
N909 C902 1.356 . S
N909 H912 0.984 . S
N909 H913 0.985 . S
H910 N905 0.984 . S
H911 N905 0.985 . S
H912 N909 0.984 . S
H913 N909 0.985 . S
H914 N908 0.984 . S
H915 N908 0.984 . S
H916 N904 0.984 . S
H917 N904 0.985 . S
C918 C919 1.363 . S
C918 C924 1.379 . S
C918 N926 1.356 . S
C919 C918 1.363 . S
C919 C925 1.363 . S
C920 C921 1.363 . S
C920 C925 1.379 . S
C920 N927 1.356 . S
C921 C920 1.363 . S
C921 C924 1.363 . S
N922 C924 1.356 . S
N922 H934 0.984 . S
N922 H935 0.985 . S
N923 C925 1.356 . S
N923 H928 0.984 . S
N923 H929 0.985 . S
C924 C918 1.379 . S
C924 C921 1.363 . S
C924 N922 1.356 . S
C925 C919 1.363 . S
C925 C920 1.379 . S
C925 N923 1.356 . S
N926 C918 1.356 . S
N926 H932 0.984 . S
N926 H933 0.984 . S
N927 C920 1.356 . S
N927 H930 0.984 . S
N927 H931 0.985 . S
H928 N923 0.984 . S
H929 N923 0.985 . S
H930 N927 0.984 . S
H931 N927 0.985 . S
H932 N926 0.984 . S
H933 N926 0.984 . S
H934 N922 0.984 . S
H935 N922 0.985 . S
C397 C8 1.332 . S
C399 C371 1.332 . S
C415 C41 1.332 . S
C417 C206 1.332 . S
C433 C239 1.332 . S
C435 C74 1.332 . S
C451 C272 1.332 . S
C453 C107 1.332 . S
C469 C305 1.332 . S
C471 C140 1.332 . S
C487 C173 1.332 . S
C489 C338 1.332 . S
C505 C281 1.587 . S
C507 C17 1.587 . S
C523 C314 1.587 . S
C525 C50 1.587 . S
C541 C83 1.587 . S
C543 C347 1.587 . S
C559 C116 1.587 . S
C561 C380 1.587 . S
C577 C215 1.588 . S
C579 C149 1.588 . S
C595 C182 1.587 . S
C597 C248 1.587 . S
C613 N14 1.435 . S
C615 N5 1.434 1_556 S
C631 N38 1.434 . S
C633 N47 1.435 . S
C649 N80 1.435 . S
C651 N71 1.434 1_556 S
C667 N104 1.434 . S
C669 N113 1.435 . S
C685 N146 1.435 . S
C687 N137 1.434 1_556 S
C703 N170 1.434 . S
C705 N179 1.435 . S
C721 N203 1.434 . S
C723 N212 1.435 . S
C739 N245 1.435 . S
C741 N236 1.434 1_554 S
C757 N269 1.434 . S
C759 N278 1.435 . S
C775 N302 1.434 1_554 S
C777 N311 1.435 . S
C793 N344 1.435 . S
C795 N335 1.434 . S
C811 N377 1.435 . S
C813 N368 1.434 1_554 S
C829 C28 1.350 . S
C831 C358 1.350 . S
C847 C391 1.350 . S
C849 C61 1.350 . S
C865 C226 1.350 . S
C867 C94 1.350 . S
C883 C127 1.350 . S
C885 C259 1.350 . S
C901 C160 1.350 . S
C903 C292 1.350 . S
C919 C193 1.350 . S
C921 C325 1.350 . S
