# Generated by pormake.
# Topology ukh, (4)-cn, num edge types: 1
# Building blocks:
#     Node 0, Type 0, BuildingBlock: GALJAG_clean_sbu_0, # of connection points: 4
#     Node 1, Type 0, BuildingBlock: GALJAG_clean_sbu_0, # of connection points: 4
#     Node 2, Type 0, BuildingBlock: GALJAG_clean_sbu_0, # of connection points: 4
#     Node 3, Type 0, BuildingBlock: GALJAG_clean_sbu_0, # of connection points: 4
#     Node 4, Type 0, BuildingBlock: GALJAG_clean_sbu_0, # of connection points: 4
#     Node 5, Type 0, BuildingBlock: GALJAG_clean_sbu_0, # of connection points: 4
#     Node 6, Type 0, BuildingBlock: GALJAG_clean_sbu_0, # of connection points: 4
#     Node 7, Type 0, BuildingBlock: GALJAG_clean_sbu_0, # of connection points: 4
#     Node 8, Type 0, BuildingBlock: GALJAG_clean_sbu_0, # of connection points: 4
#     Node 9, Type 0, BuildingBlock: GALJAG_clean_sbu_0, # of connection points: 4
#     Node 10, Type 0, BuildingBlock: GALJAG_clean_sbu_0, # of connection points: 4
#     Node 11, Type 0, BuildingBlock: GALJAG_clean_sbu_0, # of connection points: 4
#     Edge 12, Type (0, 0), BuildingBlock: KIFKEQ_clean_linker_1, # of connection points: 2
#     Edge 13, Type (0, 0), BuildingBlock: KIFKEQ_clean_linker_1, # of connection points: 2
#     Edge 14, Type (0, 0), BuildingBlock: KIFKEQ_clean_linker_1, # of connection points: 2
#     Edge 15, Type (0, 0), BuildingBlock: KIFKEQ_clean_linker_1, # of connection points: 2
#     Edge 16, Type (0, 0), BuildingBlock: KIFKEQ_clean_linker_1, # of connection points: 2
#     Edge 17, Type (0, 0), BuildingBlock: KIFKEQ_clean_linker_1, # of connection points: 2
#     Edge 18, Type (0, 0), BuildingBlock: KIFKEQ_clean_linker_1, # of connection points: 2
#     Edge 19, Type (0, 0), BuildingBlock: KIFKEQ_clean_linker_1, # of connection points: 2
#     Edge 20, Type (0, 0), BuildingBlock: KIFKEQ_clean_linker_1, # of connection points: 2
#     Edge 21, Type (0, 0), BuildingBlock: KIFKEQ_clean_linker_1, # of connection points: 2
#     Edge 22, Type (0, 0), BuildingBlock: KIFKEQ_clean_linker_1, # of connection points: 2
#     Edge 23, Type (0, 0), BuildingBlock: KIFKEQ_clean_linker_1, # of connection points: 2
#     Edge 24, Type (0, 0), BuildingBlock: KIFKEQ_clean_linker_1, # of connection points: 2
#     Edge 25, Type (0, 0), BuildingBlock: KIFKEQ_clean_linker_1, # of connection points: 2
#     Edge 26, Type (0, 0), BuildingBlock: KIFKEQ_clean_linker_1, # of connection points: 2
#     Edge 27, Type (0, 0), BuildingBlock: KIFKEQ_clean_linker_1, # of connection points: 2
#     Edge 28, Type (0, 0), BuildingBlock: KIFKEQ_clean_linker_1, # of connection points: 2
#     Edge 29, Type (0, 0), BuildingBlock: KIFKEQ_clean_linker_1, # of connection points: 2
#     Edge 30, Type (0, 0), BuildingBlock: KIFKEQ_clean_linker_1, # of connection points: 2
#     Edge 31, Type (0, 0), BuildingBlock: KIFKEQ_clean_linker_1, # of connection points: 2
#     Edge 32, Type (0, 0), BuildingBlock: KIFKEQ_clean_linker_1, # of connection points: 2
#     Edge 33, Type (0, 0), BuildingBlock: KIFKEQ_clean_linker_1, # of connection points: 2
#     Edge 34, Type (0, 0), BuildingBlock: KIFKEQ_clean_linker_1, # of connection points: 2
#     Edge 35, Type (0, 0), BuildingBlock: KIFKEQ_clean_linker_1, # of connection points: 2
# Relax obj value: 0.072
# Max RMSD: 0.081
# Mean RMSD: 0.081
data_MOF--net-ukh--node1-GALJAG_clean_sbu_0--edge1-KIFKEQ_clean_linker_1
_symmetry_space_group_name_H-M    P1
_symmetry_Int_Tables_number       1
_symmetry_cell_setting            triclinic
loop_
_symmetry_equiv_pos_as_xyz
'x, y, z'
_cell_length_a     31.866177
_cell_length_b     31.881132
_cell_length_c     68.841117
_cell_angle_alpha  89.994018
_cell_angle_beta   90.00614
_cell_angle_gamma 119.97615
loop_
_atom_site_label
_atom_site_type_symbol
_atom_site_fract_x
_atom_site_fract_y
_atom_site_fract_z
_atom_type_partial_charge
In0 In 0.32007 0.22447 0.05884 0.0
O1 O 0.39179 0.29011 0.04892 0.0
O2 O 0.34754 0.30156 0.06889 0.0
C3 C 0.31732 0.14716 0.0414 0.0
C4 C 0.32348 0.20364 0.09647 0.0
C5 C 0.24688 0.22494 0.03932 0.0
O6 O 0.35026 0.19 0.03768 0.0
O7 O 0.28733 0.14381 0.05409 0.0
O8 O 0.24328 0.21294 0.05699 0.0
O9 O 0.28727 0.23693 0.0317 0.0
C10 C 0.38581 0.32003 0.05891 0.0
O11 O 0.28712 0.2033 0.08896 0.0
O12 O 0.35842 0.21467 0.08496 0.0
In13 In 0.09641 0.31884 0.3921 0.0
O14 O 0.07852 0.29109 0.42317 0.0
O15 O 0.14931 0.35023 0.41739 0.0
C16 C 0.0211 0.24693 0.37279 0.0
C17 C 0.07136 0.38816 0.39298 0.0
C18 C 0.16945 0.31461 0.37401 0.0
O19 O 0.03716 0.23947 0.38839 0.0
O20 O 0.04256 0.29029 0.36717 0.0
O21 O 0.16142 0.34917 0.37103 0.0
O22 O 0.14137 0.28355 0.38609 0.0
C23 C 0.11985 0.32113 0.42978 0.0
O24 O 0.10409 0.39101 0.3817 0.0
O25 O 0.0528 0.35147 0.40388 0.0
In26 In 0.77582 0.09518 0.72537 0.0
O27 O 0.70996 0.1009 0.71528 0.0
O28 O 0.69878 0.04584 0.73552 0.0
C29 C 0.85427 0.16996 0.70864 0.0
C30 C 0.79678 0.11903 0.76301 0.0
C31 C 0.77528 0.02217 0.70538 0.0
O32 O 0.81177 0.16149 0.70505 0.0
O33 O 0.85664 0.14166 0.72079 0.0
O34 O 0.78599 0.02919 0.72319 0.0
O35 O 0.76458 0.05161 0.69782 0.0
C36 C 0.68013 0.06526 0.72541 0.0
O37 O 0.79642 0.08267 0.7555 0.0
O38 O 0.78626 0.14335 0.75151 0.0
In39 In 0.68239 0.77544 0.05834 0.0
O40 O 0.71016 0.78654 0.0894 0.0
O41 O 0.64979 0.79618 0.08348 0.0
C42 C 0.7553 0.77379 0.03907 0.0
C43 C 0.61308 0.68094 0.05857 0.0
C44 C 0.68784 0.85376 0.04083 0.0
O45 O 0.75982 0.78868 0.05635 0.0
O46 O 0.7141 0.75933 0.03174 0.0
O47 O 0.65276 0.81151 0.0378 0.0
O48 O 0.71885 0.85605 0.05281 0.0
C49 C 0.67928 0.79676 0.09592 0.0
O50 O 0.61049 0.71123 0.0475 0.0
O51 O 0.6497 0.69855 0.06948 0.0
In52 In 0.90899 0.68216 0.39173 0.0
O53 O 0.92541 0.70848 0.42298 0.0
O54 O 0.85494 0.64949 0.41659 0.0
C55 C 0.98496 0.75569 0.37336 0.0
C56 C 0.93418 0.61294 0.39259 0.0
C57 C 0.83665 0.68663 0.37312 0.0
O58 O 0.96746 0.76203 0.38878 0.0
O59 O 0.96463 0.7126 0.36745 0.0
O60 O 0.84621 0.6533 0.3696 0.0
O61 O 0.86279 0.71625 0.386 0.0
C62 C 0.88381 0.67809 0.42924 0.0
O63 O 0.90163 0.61018 0.38122 0.0
O64 O 0.95254 0.64951 0.40355 0.0
In65 In 0.2245 0.90611 0.72506 0.0
O66 O 0.28837 0.89796 0.71416 0.0
O67 O 0.30096 0.94855 0.73675 0.0
C68 C 0.14795 0.83375 0.70637 0.0
C69 C 0.20412 0.88183 0.7627 0.0
C70 C 0.2264 0.98203 0.7068 0.0
O71 O 0.19091 0.84362 0.70283 0.0
O72 O 0.14422 0.85948 0.71938 0.0
O73 O 0.20205 0.96386 0.72205 0.0
O74 O 0.25009 0.96253 0.70104 0.0
C75 C 0.31857 0.92997 0.72558 0.0
O76 O 0.21599 0.92351 0.75635 0.0
O77 O 0.20273 0.85237 0.75007 0.0
In78 In 0.77556 0.68254 0.60715 0.0
O79 O 0.7865 0.71068 0.57604 0.0
O80 O 0.79207 0.64787 0.58157 0.0
C81 C 0.77744 0.75582 0.62726 0.0
C82 C 0.68001 0.61657 0.60808 0.0
C83 C 0.85372 0.68752 0.62463 0.0
O84 O 0.78998 0.76017 0.60962 0.0
O85 O 0.76413 0.71478 0.63457 0.0
O86 O 0.81105 0.65462 0.62875 0.0
O87 O 0.85644 0.71651 0.61157 0.0
C88 C 0.79412 0.67825 0.56927 0.0
O89 O 0.71153 0.60692 0.61442 0.0
O90 O 0.69697 0.65857 0.60119 0.0
In91 In 0.09753 0.77707 0.94133 0.0
O92 O 0.10967 0.71323 0.94836 0.0
O93 O 0.04302 0.69843 0.93548 0.0
C94 C 0.17088 0.85456 0.95902 0.0
C95 C 0.11953 0.79586 0.90339 0.0
C96 C 0.02621 0.77903 0.96155 0.0
O97 O 0.16063 0.81173 0.96306 0.0
O98 O 0.14505 0.85783 0.94589 0.0
O99 O 0.03405 0.79116 0.94386 0.0
O100 O 0.05424 0.76608 0.96886 0.0
C101 C 0.0684 0.68162 0.94217 0.0
O102 O 0.07964 0.78819 0.91036 0.0
O103 O 0.14821 0.79386 0.91552 0.0
In104 In 0.32212 0.09619 0.27539 0.0
O105 O 0.39447 0.10286 0.28472 0.0
O106 O 0.34982 0.04736 0.26468 0.0
C107 C 0.32065 0.17127 0.29309 0.0
C108 C 0.32491 0.11797 0.23749 0.0
C109 C 0.24964 0.02231 0.29507 0.0
O110 O 0.35222 0.1597 0.29721 0.0
O111 O 0.29147 0.14598 0.27995 0.0
O112 O 0.24261 0.0373 0.27911 0.0
O113 O 0.29285 0.04422 0.30091 0.0
C114 C 0.3884 0.06718 0.27451 0.0
O115 O 0.28971 0.08098 0.24506 0.0
O116 O 0.35894 0.14398 0.24908 0.0
In117 In 0.22357 0.31905 0.60857 0.0
O118 O 0.21389 0.29025 0.57758 0.0
O119 O 0.20554 0.3516 0.58267 0.0
C120 C 0.2226 0.24596 0.62855 0.0
C121 C 0.31877 0.38572 0.6084 0.0
C122 C 0.14803 0.31718 0.62718 0.0
O123 O 0.2009 0.23909 0.61249 0.0
O124 O 0.24447 0.28922 0.63434 0.0
O125 O 0.19141 0.34813 0.6313 0.0
O126 O 0.14338 0.28869 0.6136 0.0
C127 C 0.20486 0.32152 0.57056 0.0
O128 O 0.28738 0.39517 0.61512 0.0
O129 O 0.30178 0.3436 0.60161 0.0
In130 In 0.90556 0.22448 0.94193 0.0
O131 O 0.91934 0.20437 0.91183 0.0
O132 O 0.86075 0.218 0.91511 0.0
C133 C 0.97658 0.22187 0.96211 0.0
C134 C 0.93711 0.32039 0.94288 0.0
C135 C 0.83024 0.14767 0.95927 0.0
O136 O 0.97012 0.21208 0.94419 0.0
O137 O 0.94731 0.23282 0.96969 0.0
O138 O 0.84306 0.19075 0.96402 0.0
O139 O 0.85426 0.14387 0.94553 0.0
C140 C 0.88475 0.20654 0.90386 0.0
O141 O 0.89508 0.28934 0.94857 0.0
O142 O 0.96226 0.30285 0.93662 0.0
In143 In 0.68464 0.90794 0.27411 0.0
O144 O 0.71085 0.92565 0.24285 0.0
O145 O 0.65265 0.8546 0.24903 0.0
C146 C 0.7571 0.98416 0.29283 0.0
C147 C 0.61404 0.93121 0.27365 0.0
C148 C 0.69027 0.83564 0.29217 0.0
O149 O 0.76412 0.96743 0.27733 0.0
O150 O 0.71387 0.96299 0.29862 0.0
O151 O 0.65575 0.84358 0.29544 0.0
O152 O 0.72058 0.8634 0.27981 0.0
C153 C 0.68085 0.8841 0.23644 0.0
O154 O 0.61277 0.8997 0.28523 0.0
O155 O 0.64989 0.94956 0.26231 0.0
H156 H 0.59733 0.61637 0.08724 0.0
H157 H 0.54945 0.62721 0.02973 0.0
H158 H 0.5421 0.52896 0.08696 0.0
H159 H 0.49464 0.53907 0.02932 0.0
H160 H 0.45434 0.37348 0.03153 0.0
H161 H 0.50782 0.46179 0.03092 0.0
H162 H 0.44722 0.47339 0.08534 0.0
H163 H 0.39329 0.38572 0.08579 0.0
C164 C 0.57486 0.60003 0.07456 0.0
C165 C 0.57751 0.62854 0.05853 0.0
C166 C 0.54328 0.55007 0.07442 0.0
C167 C 0.51434 0.52739 0.0581 0.0
C168 C 0.51688 0.55577 0.04202 0.0
C169 C 0.54786 0.60609 0.04232 0.0
C170 C 0.45263 0.39498 0.04336 0.0
C171 C 0.41981 0.37281 0.05873 0.0
C172 C 0.48287 0.44539 0.04293 0.0
C173 C 0.48144 0.47423 0.05807 0.0
C174 C 0.44908 0.45193 0.07353 0.0
C175 C 0.41826 0.40181 0.07376 0.0
H176 H 0.08227 0.45328 0.3646 0.0
H177 H 0.01927 0.40083 0.42119 0.0
H178 H 0.04716 0.50656 0.36407 0.0
H179 H 0.985 0.45424 0.42075 0.0
H180 H 0.98543 0.59986 0.42104 0.0
H181 H 0.0196 0.54636 0.4208 0.0
H182 H 0.95896 0.49471 0.36387 0.0
H183 H 0.92395 0.54808 0.36419 0.0
C184 C 0.06139 0.45352 0.37697 0.0
C185 C 0.05364 0.42308 0.39296 0.0
C186 C 0.04097 0.4836 0.37659 0.0
C187 C 0.01327 0.48436 0.39235 0.0
C188 C 0.00635 0.45454 0.40845 0.0
C189 C 0.02597 0.42398 0.40868 0.0
C190 C 0.97905 0.57685 0.40852 0.0
C191 C 0.95185 0.57797 0.39266 0.0
C192 C 0.99859 0.54622 0.4084 0.0
C193 C 0.99208 0.51657 0.39229 0.0
C194 C 0.96483 0.51754 0.3764 0.0
C195 C 0.94447 0.54768 0.37666 0.0
H196 H 0.3832 0.97784 0.75437 0.0
H197 H 0.37243 0.92108 0.6965 0.0
H198 H 0.47071 0.01057 0.75393 0.0
H199 H 0.46067 0.95485 0.69595 0.0
H200 H 0.62608 0.07968 0.69802 0.0
H201 H 0.53766 0.04443 0.69754 0.0
H202 H 0.52705 0.97304 0.75209 0.0
H203 H 0.61479 0.00728 0.75242 0.0
C204 C 0.39956 0.9722 0.74158 0.0
C205 C 0.37102 0.94674 0.7255 0.0
C206 C 0.44961 0.99091 0.74134 0.0
C207 C 0.47238 0.98537 0.72488 0.0
C208 C 0.44394 0.95988 0.70876 0.0
C209 C 0.39355 0.94025 0.70914 0.0
C210 C 0.60478 0.05658 0.70991 0.0
C211 C 0.62726 0.04631 0.72528 0.0
C212 C 0.55429 0.03615 0.70955 0.0
C213 C 0.52565 0.00597 0.72476 0.0
C214 C 0.5483 0.9963 0.74022 0.0
C215 C 0.59848 0.01588 0.74039 0.0
H216 H 0.60802 0.63408 0.59745 0.0
H217 H 0.6326 0.52209 0.62045 0.0
H218 H 0.52095 0.57871 0.59832 0.0
H219 H 0.54495 0.46651 0.6215 0.0
H220 H 0.39073 0.3685 0.59743 0.0
H221 H 0.4778 0.42394 0.59823 0.0
H222 H 0.4538 0.53598 0.62156 0.0
H223 H 0.36617 0.48034 0.6206 0.0
C224 C 0.5948 0.5976 0.60276 0.0
C225 C 0.6272 0.58236 0.60883 0.0
C226 C 0.54482 0.56599 0.60339 0.0
C227 C 0.52598 0.51826 0.61002 0.0
C228 C 0.55838 0.50298 0.61615 0.0
C229 C 0.60852 0.53478 0.61561 0.0
C230 C 0.40396 0.40498 0.60273 0.0
C231 C 0.37156 0.42014 0.60889 0.0
C232 C 0.45393 0.43662 0.60333 0.0
C233 C 0.47277 0.48431 0.61001 0.0
C234 C 0.44037 0.49955 0.61618 0.0
C235 C 0.39024 0.46771 0.61569 0.0
H236 H 0.8901 0.36843 0.95439 0.0
H237 H 0.02761 0.39185 0.93301 0.0
H238 H 0.92256 0.45603 0.95528 0.0
H239 H 0.05975 0.47904 0.93365 0.0
H240 H 0.11539 0.63444 0.955 0.0
H241 H 0.08347 0.54686 0.95625 0.0
H242 H 0.94802 0.5226 0.93206 0.0
H243 H 0.97953 0.60956 0.93105 0.0
C244 C 0.92718 0.39226 0.94987 0.0
C245 C 0.95622 0.37326 0.94358 0.0
C246 C 0.94575 0.4424 0.95031 0.0
C247 C 0.99378 0.47453 0.94453 0.0
C248 C 0.02286 0.45538 0.93843 0.0
C249 C 0.00427 0.40536 0.93793 0.0
C250 C 0.07883 0.61031 0.94998 0.0
C251 C 0.05004 0.62888 0.9429 0.0
C252 C 0.06058 0.56021 0.95063 0.0
C253 C 0.01311 0.52774 0.94431 0.0
C254 C 0.98442 0.5465 0.93731 0.0
C255 C 0.00267 0.59642 0.9366 0.0
H256 H 0.3947 0.0086 0.24748 0.0
H257 H 0.45797 0.08229 0.30144 0.0
H258 H 0.44791 0.974 0.24761 0.0
H259 H 0.51088 0.04674 0.30171 0.0
H260 H 0.55247 0.9235 0.30303 0.0
H261 H 0.49814 0.95744 0.30367 0.0
H262 H 0.54131 0.01053 0.24521 0.0
H263 H 0.59594 0.97762 0.24467 0.0
C264 C 0.42006 0.01744 0.25936 0.0
C265 C 0.42238 0.04831 0.27441 0.0
C266 C 0.45049 0.99765 0.25942 0.0
C267 C 0.4833 0.00757 0.2747 0.0
C268 C 0.48557 0.03825 0.28984 0.0
C269 C 0.45567 0.05887 0.2896 0.0
C270 C 0.54996 0.9421 0.29029 0.0
C271 C 0.57827 0.94783 0.27378 0.0
C272 C 0.51929 0.96183 0.29072 0.0
C273 C 0.51572 0.98668 0.2745 0.0
C274 C 0.54324 0.99139 0.25787 0.0
C275 C 0.57449 0.97257 0.25758 0.0
H276 H 0.25416 0.06987 0.21051 0.0
H277 H 0.39759 0.1935 0.21758 0.0
H278 H 0.25474 0.09047 0.17636 0.0
H279 H 0.39795 0.21447 0.18341 0.0
H280 H 0.39847 0.20524 0.11644 0.0
H281 H 0.39956 0.18411 0.1505 0.0
H282 H 0.25232 0.15417 0.15716 0.0
H283 H 0.25104 0.17471 0.12314 0.0
C284 C 0.28581 0.10147 0.20476 0.0
C285 C 0.32579 0.13013 0.21672 0.0
C286 C 0.28604 0.11342 0.18522 0.0
C287 C 0.32632 0.15421 0.17719 0.0
C288 C 0.36656 0.18257 0.18912 0.0
C289 C 0.36625 0.17071 0.2087 0.0
C290 C 0.36638 0.19416 0.1252 0.0
C291 C 0.32465 0.19155 0.11712 0.0
C292 C 0.36709 0.18229 0.14472 0.0
C293 C 0.32598 0.16735 0.15651 0.0
C294 C 0.28434 0.16491 0.1484 0.0
C295 C 0.28371 0.17696 0.12893 0.0
H296 H 0.21026 0.35859 0.44529 0.0
H297 H 0.05861 0.28532 0.4607 0.0
H298 H 0.23157 0.35855 0.47952 0.0
H299 H 0.08017 0.28668 0.49497 0.0
H300 H 0.15621 0.36281 0.55444 0.0
H301 H 0.13547 0.36263 0.52015 0.0
H302 H 0.20801 0.28317 0.50565 0.0
H303 H 0.22761 0.28199 0.54004 0.0
C304 C 0.18158 0.34278 0.45601 0.0
C305 C 0.13281 0.32193 0.4504 0.0
C306 C 0.19376 0.34261 0.47551 0.0
C307 C 0.15743 0.32265 0.48975 0.0
C308 C 0.10873 0.3024 0.4842 0.0
C309 C 0.09647 0.30151 0.46465 0.0
C310 C 0.16773 0.34534 0.54392 0.0
C311 C 0.19344 0.32236 0.54985 0.0
C312 C 0.15573 0.34511 0.52438 0.0
C313 C 0.17024 0.32292 0.51039 0.0
C314 C 0.19663 0.30064 0.51623 0.0
C315 C 0.20765 0.29984 0.53585 0.0
H316 H 0.82242 0.07324 0.78994 0.0
H317 H 0.79944 0.19486 0.78264 0.0
H318 H 0.84376 0.09527 0.82389 0.0
H319 H 0.82156 0.2174 0.81659 0.0
H320 H 0.81242 0.20901 0.88353 0.0
H321 H 0.79096 0.18823 0.84943 0.0
H322 H 0.90877 0.15888 0.84315 0.0
H323 H 0.9297 0.1789 0.87729 0.0
C324 C 0.82203 0.10476 0.79559 0.0
C325 C 0.80926 0.13233 0.78363 0.0
C326 C 0.83456 0.11756 0.81501 0.0
C327 C 0.83453 0.1582 0.82293 0.0
C328 C 0.82147 0.18562 0.81098 0.0
C329 C 0.80903 0.17286 0.79152 0.0
C330 C 0.83377 0.19822 0.87484 0.0
C331 C 0.87265 0.19545 0.88308 0.0
C332 C 0.82164 0.18656 0.85529 0.0
C333 C 0.84808 0.17177 0.84359 0.0
C334 C 0.88726 0.16947 0.85183 0.0
C335 C 0.89943 0.18122 0.87136 0.0
H336 H 0.71712 0.77366 0.12682 0.0
H337 H 0.63873 0.84695 0.11142 0.0
H338 H 0.71556 0.79396 0.16104 0.0
H339 H 0.63845 0.86836 0.14563 0.0
H340 H 0.71512 0.94493 0.20532 0.0
H341 H 0.71273 0.92293 0.17106 0.0
H342 H 0.64166 0.77183 0.18685 0.0
H343 H 0.64275 0.79357 0.22107 0.0
C344 C 0.6997 0.79419 0.13076 0.0
C345 C 0.67801 0.80874 0.11653 0.0
C346 C 0.69867 0.8056 0.15029 0.0
C347 C 0.67693 0.83268 0.15584 0.0
C348 C 0.65554 0.84756 0.14162 0.0
C349 C 0.65557 0.83518 0.12213 0.0
C350 C 0.69884 0.90703 0.20145 0.0
C351 C 0.67911 0.87091 0.2158 0.0
C352 C 0.69731 0.89452 0.18189 0.0
C353 C 0.67705 0.84578 0.17644 0.0
C354 C 0.65758 0.80967 0.19077 0.0
C355 C 0.65808 0.8221 0.21028 0.0
H356 H 0.77371 0.71859 0.53838 0.0
H357 H 0.84091 0.63437 0.55374 0.0
H358 H 0.79412 0.71657 0.50416 0.0
H359 H 0.86253 0.63374 0.51962 0.0
H360 H 0.94358 0.71243 0.46063 0.0
H361 H 0.92048 0.71053 0.49472 0.0
H362 H 0.76989 0.64004 0.47812 0.0
H363 H 0.79272 0.64051 0.44405 0.0
C364 C 0.79288 0.69976 0.53443 0.0
C365 C 0.80572 0.67659 0.54865 0.0
C366 C 0.80436 0.6985 0.51492 0.0
C367 C 0.82986 0.67506 0.5094 0.0
C368 C 0.84293 0.65211 0.5236 0.0
C369 C 0.83044 0.65236 0.54305 0.0
C370 C 0.90556 0.69637 0.46429 0.0
C371 C 0.86989 0.67655 0.44977 0.0
C372 C 0.89242 0.69517 0.48374 0.0
C373 C 0.84351 0.6752 0.4889 0.0
C374 C 0.80784 0.65572 0.4744 0.0
C375 C 0.82088 0.65585 0.455 0.0
H376 H 0.20963 0.84208 0.88729 0.0
H377 H 0.0577 0.77527 0.87288 0.0
H378 H 0.23058 0.86286 0.85301 0.0
H379 H 0.0788 0.79485 0.83852 0.0
H380 H 0.14999 0.79131 0.77794 0.0
H381 H 0.12899 0.76955 0.81217 0.0
H382 H 0.21186 0.92036 0.82813 0.0
H383 H 0.23173 0.94241 0.79388 0.0
C384 C 0.18077 0.83154 0.87677 0.0
C385 C 0.13206 0.80715 0.88269 0.0
C386 C 0.19277 0.84355 0.85724 0.0
C387 C 0.15623 0.83033 0.84326 0.0
C388 C 0.10751 0.8052 0.84909 0.0
C389 C 0.09553 0.7942 0.86869 0.0
C390 C 0.16371 0.81975 0.78878 0.0
C391 C 0.19241 0.86852 0.78332 0.0
C392 C 0.15156 0.80732 0.80828 0.0
C393 C 0.16893 0.84335 0.82265 0.0
C394 C 0.19825 0.89201 0.81725 0.0
C395 C 0.20943 0.90456 0.79771 0.0
H396 H 0.20779 0.94906 0.94912 0.0
H397 H 0.21361 0.85723 0.99389 0.0
H398 H 0.25539 0.01995 0.96937 0.0
H399 H 0.26163 0.92856 0.01426 0.0
H400 H 0.35738 0.14469 0.00649 0.0
H401 H 0.33381 0.07338 0.98605 0.0
H402 H 0.23693 0.9819 0.03109 0.0
H403 H 0.26044 0.05273 0.05139 0.0
C404 C 0.22016 0.94416 0.96315 0.0
C405 C 0.2066 0.89757 0.97 0.0
C406 C 0.24777 0.98486 0.9747 0.0
C407 C 0.26209 0.97987 0.99347 0.0
C408 C 0.25077 0.93348 0.99992 0.0
C409 C 0.2235 0.8927 0.98824 0.0
C410 C 0.33197 0.10919 0.01216 0.0
C411 C 0.31042 0.10427 0.03045 0.0
C412 C 0.31828 0.06843 0.00044 0.0
C413 C 0.28329 0.02203 0.00691 0.0
C414 C 0.2643 0.01699 0.02573 0.0
C415 C 0.27755 0.05766 0.03732 0.0
H416 H 0.20459 0.25563 0.38381 0.0
H417 H 0.2159 0.3576 0.33996 0.0
H418 H 0.254 0.23368 0.36411 0.0
H419 H 0.26586 0.33559 0.32008 0.0
H420 H 0.26731 0.21219 0.28224 0.0
H421 H 0.24311 0.25934 0.30228 0.0
H422 H 0.33365 0.25885 0.34888 0.0
H423 H 0.35784 0.21118 0.32869 0.0
C424 C 0.21852 0.27409 0.3701 0.0
C425 C 0.20599 0.30798 0.36333 0.0
C426 C 0.24722 0.26178 0.35886 0.0
C427 C 0.26375 0.28273 0.34048 0.0
C428 C 0.25336 0.31858 0.33413 0.0
C429 C 0.22498 0.33134 0.34553 0.0
C430 C 0.28294 0.22306 0.2966 0.0
C431 C 0.31407 0.20757 0.30398 0.0
C432 C 0.26932 0.25042 0.30806 0.0
C433 C 0.28617 0.26257 0.32723 0.0
C434 C 0.31972 0.24964 0.33421 0.0
C435 C 0.33378 0.2226 0.32263 0.0
H436 H 0.94813 0.20358 0.71862 0.0
H437 H 0.85892 0.2178 0.67488 0.0
H438 H 0.01981 0.25193 0.69892 0.0
H439 H 0.93115 0.26674 0.65504 0.0
H440 H 0.05337 0.26508 0.61675 0.0
H441 H 0.98276 0.2421 0.6371 0.0
H442 H 0.07578 0.33082 0.68361 0.0
H443 H 0.14691 0.35376 0.66311 0.0
C444 C 0.94401 0.218 0.70496 0.0
C445 C 0.89787 0.2065 0.69819 0.0
C446 C 0.9852 0.24606 0.69371 0.0
C447 C 0.98119 0.26297 0.67535 0.0
C448 C 0.93532 0.25385 0.66907 0.0
C449 C 0.89403 0.22607 0.68045 0.0
C450 C 0.05875 0.28052 0.63118 0.0
C451 C 0.10568 0.31083 0.63842 0.0
C452 C 0.0182 0.26762 0.64281 0.0
C453 C 0.02362 0.2844 0.66202 0.0
C454 C 0.07048 0.31699 0.6689 0.0
C455 C 0.11116 0.33031 0.65716 0.0
H456 H 0.74901 0.94777 0.05021 0.0
H457 H 0.64402 0.85762 0.00713 0.0
H458 H 0.77126 0.01903 0.03037 0.0
H459 H 0.66639 0.9294 0.98712 0.0
H460 H 0.79198 0.14517 0.99515 0.0
H461 H 0.74527 0.07364 0.01556 0.0
H462 H 0.74253 0.9821 0.96875 0.0
H463 H 0.78885 0.05324 0.94845 0.0
C464 C 0.72999 0.94334 0.03665 0.0
C465 C 0.69507 0.8971 0.03014 0.0
C466 C 0.74249 0.98427 0.02533 0.0
C467 C 0.72071 0.97987 0.00713 0.0
C468 C 0.68401 0.93385 0.00103 0.0
C469 C 0.67105 0.89284 0.01251 0.0
C470 C 0.78031 0.10966 0.9891 0.0
C471 C 0.79444 0.10479 0.97029 0.0
C472 C 0.75381 0.06875 0.0008 0.0
C473 C 0.74053 0.02225 0.99382 0.0
C474 C 0.75179 0.0173 0.97452 0.0
C475 C 0.77862 0.05814 0.96292 0.0
H476 H 0.74944 0.80086 0.28209 0.0
H477 H 0.64898 0.79012 0.32655 0.0
H478 H 0.77274 0.75244 0.30179 0.0
H479 H 0.6724 0.74125 0.34642 0.0
H480 H 0.79603 0.64892 0.33765 0.0
H481 H 0.74813 0.67295 0.31746 0.0
H482 H 0.75012 0.7657 0.36361 0.0
H483 H 0.79759 0.74179 0.38362 0.0
C484 C 0.7316 0.78727 0.29594 0.0
C485 C 0.69773 0.79966 0.30288 0.0
C486 C 0.7447 0.75916 0.30717 0.0
C487 C 0.72459 0.74315 0.32571 0.0
C488 C 0.68876 0.75338 0.33224 0.0
C489 C 0.6752 0.78114 0.32085 0.0
C490 C 0.78518 0.67352 0.34359 0.0
C491 C 0.8009 0.69385 0.36211 0.0
C492 C 0.758 0.68746 0.33203 0.0
C493 C 0.74555 0.72143 0.3389 0.0
C494 C 0.75863 0.73913 0.35793 0.0
C495 C 0.78618 0.72569 0.36935 0.0
H496 H 0.14574 0.7935 0.67089 0.0
H497 H 0.05353 0.79493 0.71652 0.0
H498 H 0.07426 0.74592 0.65046 0.0
H499 H 0.98261 0.74785 0.69626 0.0
H500 H 0.94788 0.74624 0.6145 0.0
H501 H 0.01943 0.76983 0.63438 0.0
H502 H 0.92979 0.6705 0.67917 0.0
H503 H 0.85777 0.64695 0.65918 0.0
C504 C 0.11018 0.78271 0.67671 0.0
C505 C 0.1052 0.79825 0.69521 0.0
C506 C 0.06932 0.75573 0.665 0.0
C507 C 0.02277 0.74332 0.67171 0.0
C508 C 0.01778 0.75631 0.69071 0.0
C509 C 0.05851 0.78363 0.70228 0.0
C510 C 0.9435 0.72869 0.62843 0.0
C511 C 0.89717 0.69511 0.63538 0.0
C512 C 0.9846 0.74196 0.63977 0.0
C513 C 0.9803 0.72225 0.65841 0.0
C514 C 0.93419 0.68662 0.66493 0.0
C515 C 0.89301 0.67298 0.65347 0.0
H516 H 0.99888 0.2459 1.00015 0.0
H517 H 0.04224 0.19644 0.94964 0.0
H518 H 0.06405 0.24654 0.01886 0.0
H519 H 0.10685 0.19589 0.96852 0.0
H520 H 0.24913 0.25355 0.00192 0.0
H521 H 0.18348 0.25229 0.98333 0.0
H522 H 0.08841 0.19244 0.03289 0.0
H523 H 0.15464 0.19488 0.05165 0.0
C524 C 0.02219 0.23486 0.99308 0.0
C525 C 0.01557 0.2212 0.97342 0.0
C526 C 0.05935 0.23494 0.00384 0.0
C527 C 0.09064 0.22124 0.9952 0.0
C528 C 0.08377 0.20727 0.97554 0.0
C529 C 0.04663 0.20732 0.96475 0.0
C530 C 0.21422 0.2402 0.00885 0.0
C531 C 0.20698 0.22437 0.02824 0.0
C532 C 0.1765 0.23914 0.99816 0.0
C533 C 0.13064 0.2221 0.0066 0.0
C534 C 0.12346 0.20632 0.02603 0.0
C535 C 0.16129 0.20751 0.03676 0.0
H536 H 0.74857 0.04381 0.31866 0.0
H537 H 0.85359 0.01388 0.29205 0.0
H538 H 0.81287 0.10803 0.33815 0.0
H539 H 0.91769 0.07732 0.31205 0.0
H540 H 0.99096 0.15037 0.37326 0.0
H541 H 0.92741 0.08684 0.35309 0.0
H542 H 0.89791 0.19264 0.32718 0.0
H543 H 0.96225 0.25637 0.34682 0.0
C544 C 0.78541 0.05103 0.31699 0.0
C545 C 0.79629 0.02411 0.30385 0.0
C546 C 0.82202 0.08766 0.3281 0.0
C547 C 0.86986 0.09714 0.32658 0.0
C548 C 0.88086 0.07028 0.31348 0.0
C549 C 0.84439 0.03436 0.30201 0.0
C550 C 0.97076 0.15991 0.36329 0.0
C551 C 0.98135 0.20812 0.36155 0.0
C552 C 0.93478 0.12376 0.35172 0.0
C553 C 0.90819 0.1352 0.33864 0.0
C554 C 0.91808 0.18316 0.3372 0.0
C555 C 0.95478 0.21945 0.3484 0.0
H556 H 0.80738 0.84847 0.61548 0.0
H557 H 0.74852 0.75219 0.66469 0.0
H558 H 0.80809 0.91348 0.63453 0.0
H559 H 0.74813 0.8166 0.68355 0.0
H560 H 0.75086 0.99963 0.66737 0.0
H561 H 0.75183 0.93551 0.64848 0.0
H562 H 0.80316 0.89324 0.69877 0.0
H563 H 0.80108 0.95681 0.7178 0.0
C564 C 0.79446 0.8412 0.63034 0.0
C565 C 0.77794 0.79533 0.63861 0.0
C566 C 0.79461 0.87831 0.64122 0.0
C567 C 0.77817 0.87021 0.66056 0.0
C568 C 0.76171 0.82426 0.66879 0.0
C569 C 0.76164 0.78726 0.65794 0.0
C570 C 0.76228 0.97659 0.67439 0.0
C571 C 0.77581 0.98312 0.69407 0.0
C572 C 0.76317 0.94007 0.66353 0.0
C573 C 0.77769 0.90933 0.6721 0.0
C574 C 0.79123 0.91594 0.6918 0.0
C575 C 0.79026 0.95245 0.70268 0.0
H576 H 0.84811 0.80562 0.05115 0.0
H577 H 0.75259 0.74355 0.00188 0.0
H578 H 0.91445 0.80846 0.03231 0.0
H579 H 0.8185 0.74555 0.9832 0.0
H580 H 0.96021 0.80422 0.94924 0.0
H581 H 0.89527 0.80396 0.9682 0.0
H582 H 0.93874 0.75343 0.01838 0.0
H583 H 0.00402 0.75455 0.99955 0.0
C584 C 0.84126 0.79235 0.03634 0.0
C585 C 0.79523 0.77437 0.02799 0.0
C586 C 0.87916 0.7938 0.02558 0.0
C587 C 0.87175 0.77733 0.00624 0.0
C588 C 0.82558 0.75918 0.99795 0.0
C589 C 0.78774 0.75771 0.00871 0.0
C590 C 0.9559 0.7932 0.96433 0.0
C591 C 0.98712 0.7794 0.97291 0.0
C592 C 0.91859 0.79279 0.97516 0.0
C593 C 0.91185 0.77862 0.99479 0.0
C594 C 0.94335 0.76511 0.00337 0.0
C595 C 0.98056 0.76548 0.99254 0.0
H596 H 0.01308 0.85175 0.3743 0.0
H597 H 0.04644 0.74887 0.34796 0.0
H598 H 0.07705 0.91687 0.35483 0.0
H599 H 0.11116 0.81419 0.32903 0.0
H600 H 0.25889 0.96521 0.32198 0.0
H601 H 0.1946 0.90042 0.34126 0.0
H602 H 0.08863 0.92675 0.31343 0.0
H603 H 0.15277 0.99075 0.29362 0.0
C604 C 0.0344 0.84324 0.36452 0.0
C605 C 0.02499 0.79545 0.3626 0.0
C606 C 0.07062 0.88029 0.35335 0.0
C607 C 0.09861 0.87017 0.3405 0.0
C608 C 0.08991 0.82264 0.33889 0.0
C609 C 0.05299 0.78545 0.34968 0.0
C610 C 0.22184 0.95702 0.31993 0.0
C611 C 0.21062 0.98277 0.30631 0.0
C612 C 0.18524 0.92005 0.33091 0.0
C613 C 0.13705 0.90908 0.32879 0.0
C614 C 0.12573 0.93497 0.31531 0.0
C615 C 0.16223 0.97121 0.30396 0.0
H616 H 0.15747 0.00895 0.70764 0.0
H617 H 0.2943 0.04396 0.68139 0.0
H618 H 0.15542 0.07244 0.68815 0.0
H619 H 0.29277 0.10815 0.66243 0.0
H620 H 0.28901 0.25491 0.65532 0.0
H621 H 0.28962 0.19062 0.67452 0.0
H622 H 0.15664 0.08495 0.64707 0.0
H623 H 0.15664 0.14917 0.62732 0.0
C624 C 0.18723 0.03051 0.69787 0.0
C625 C 0.22608 0.02174 0.696 0.0
C626 C 0.18587 0.06644 0.68668 0.0
C627 C 0.22389 0.09477 0.67385 0.0
C628 C 0.26313 0.08663 0.67227 0.0
C629 C 0.26395 0.05003 0.68309 0.0
C630 C 0.25998 0.21794 0.65334 0.0
C631 C 0.22281 0.20684 0.63984 0.0
C632 C 0.26042 0.18132 0.66429 0.0
C633 C 0.2231 0.1332 0.66224 0.0
C634 C 0.18562 0.122 0.6489 0.0
C635 C 0.18579 0.15854 0.63758 0.0
loop_
_geom_bond_atom_site_label_1
_geom_bond_atom_site_label_2
_geom_bond_distance
_geom_bond_site_symmetry_2
_ccdc_geom_bond_type
In0 O1 2.294 . S
In0 O2 2.326 . S
In0 O6 2.266 . S
In0 O7 2.326 . S
In0 O8 2.266 . S
In0 O9 2.326 . S
In0 O11 2.294 . S
In0 O12 2.326 . S
O1 In0 2.294 . S
O1 C10 1.240 . S
O2 In0 2.326 . S
O2 C10 1.252 . S
C3 O6 1.252 . S
C3 O7 1.260 . S
C4 O11 1.240 . S
C4 O12 1.252 . S
C5 O8 1.252 . S
C5 O9 1.260 . S
O6 In0 2.266 . S
O6 C3 1.252 . S
O7 In0 2.326 . S
O7 C3 1.260 . S
O8 In0 2.266 . S
O8 C5 1.252 . S
O9 In0 2.326 . S
O9 C5 1.260 . S
C10 O1 1.240 . S
C10 O2 1.252 . S
O11 In0 2.294 . S
O11 C4 1.240 . S
O12 In0 2.326 . S
O12 C4 1.252 . S
In13 O14 2.294 . S
In13 O15 2.326 . S
In13 O19 2.266 . S
In13 O20 2.326 . S
In13 O21 2.266 . S
In13 O22 2.326 . S
In13 O24 2.294 . S
In13 O25 2.326 . S
O14 In13 2.294 . S
O14 C23 1.240 . S
O15 In13 2.326 . S
O15 C23 1.252 . S
C16 O19 1.252 . S
C16 O20 1.260 . S
C17 O24 1.240 . S
C17 O25 1.252 . S
C18 O21 1.252 . S
C18 O22 1.260 . S
O19 In13 2.266 . S
O19 C16 1.252 . S
O20 In13 2.326 . S
O20 C16 1.260 . S
O21 In13 2.266 . S
O21 C18 1.252 . S
O22 In13 2.326 . S
O22 C18 1.260 . S
C23 O14 1.240 . S
C23 O15 1.252 . S
O24 In13 2.294 . S
O24 C17 1.240 . S
O25 In13 2.326 . S
O25 C17 1.252 . S
In26 O27 2.294 . S
In26 O28 2.326 . S
In26 O32 2.266 . S
In26 O33 2.326 . S
In26 O34 2.266 . S
In26 O35 2.326 . S
In26 O37 2.294 . S
In26 O38 2.326 . S
O27 In26 2.294 . S
O27 C36 1.240 . S
O28 In26 2.326 . S
O28 C36 1.252 . S
C29 O32 1.252 . S
C29 O33 1.260 . S
C30 O37 1.240 . S
C30 O38 1.252 . S
C31 O34 1.252 . S
C31 O35 1.260 . S
O32 In26 2.266 . S
O32 C29 1.252 . S
O33 In26 2.326 . S
O33 C29 1.260 . S
O34 In26 2.266 . S
O34 C31 1.252 . S
O35 In26 2.326 . S
O35 C31 1.260 . S
C36 O27 1.240 . S
C36 O28 1.252 . S
O37 In26 2.294 . S
O37 C30 1.240 . S
O38 In26 2.326 . S
O38 C30 1.252 . S
In39 O40 2.294 . S
In39 O41 2.326 . S
In39 O45 2.266 . S
In39 O46 2.326 . S
In39 O47 2.266 . S
In39 O48 2.326 . S
In39 O50 2.294 . S
In39 O51 2.326 . S
O40 In39 2.294 . S
O40 C49 1.240 . S
O41 In39 2.326 . S
O41 C49 1.252 . S
C42 O45 1.252 . S
C42 O46 1.260 . S
C43 O50 1.240 . S
C43 O51 1.252 . S
C44 O47 1.252 . S
C44 O48 1.260 . S
O45 In39 2.266 . S
O45 C42 1.252 . S
O46 In39 2.326 . S
O46 C42 1.260 . S
O47 In39 2.266 . S
O47 C44 1.252 . S
O48 In39 2.326 . S
O48 C44 1.260 . S
C49 O40 1.240 . S
C49 O41 1.252 . S
O50 In39 2.294 . S
O50 C43 1.240 . S
O51 In39 2.326 . S
O51 C43 1.252 . S
In52 O53 2.294 . S
In52 O54 2.326 . S
In52 O58 2.266 . S
In52 O59 2.326 . S
In52 O60 2.266 . S
In52 O61 2.326 . S
In52 O63 2.294 . S
In52 O64 2.326 . S
O53 In52 2.294 . S
O53 C62 1.240 . S
O54 In52 2.326 . S
O54 C62 1.252 . S
C55 O58 1.252 . S
C55 O59 1.260 . S
C56 O63 1.240 . S
C56 O64 1.252 . S
C57 O60 1.252 . S
C57 O61 1.260 . S
O58 In52 2.266 . S
O58 C55 1.252 . S
O59 In52 2.326 . S
O59 C55 1.260 . S
O60 In52 2.266 . S
O60 C57 1.252 . S
O61 In52 2.326 . S
O61 C57 1.260 . S
C62 O53 1.240 . S
C62 O54 1.252 . S
O63 In52 2.294 . S
O63 C56 1.240 . S
O64 In52 2.326 . S
O64 C56 1.252 . S
In65 O66 2.294 . S
In65 O67 2.326 . S
In65 O71 2.266 . S
In65 O72 2.326 . S
In65 O73 2.266 . S
In65 O74 2.326 . S
In65 O76 2.294 . S
In65 O77 2.326 . S
O66 In65 2.294 . S
O66 C75 1.240 . S
O67 In65 2.326 . S
O67 C75 1.252 . S
C68 O71 1.252 . S
C68 O72 1.260 . S
C69 O76 1.240 . S
C69 O77 1.252 . S
C70 O73 1.252 . S
C70 O74 1.260 . S
O71 In65 2.266 . S
O71 C68 1.252 . S
O72 In65 2.326 . S
O72 C68 1.260 . S
O73 In65 2.266 . S
O73 C70 1.252 . S
O74 In65 2.326 . S
O74 C70 1.260 . S
C75 O66 1.240 . S
C75 O67 1.252 . S
O76 In65 2.294 . S
O76 C69 1.240 . S
O77 In65 2.326 . S
O77 C69 1.252 . S
In78 O79 2.294 . S
In78 O80 2.326 . S
In78 O84 2.266 . S
In78 O85 2.326 . S
In78 O86 2.266 . S
In78 O87 2.326 . S
In78 O89 2.294 . S
In78 O90 2.326 . S
O79 In78 2.294 . S
O79 C88 1.240 . S
O80 In78 2.326 . S
O80 C88 1.252 . S
C81 O84 1.252 . S
C81 O85 1.260 . S
C82 O89 1.240 . S
C82 O90 1.252 . S
C83 O86 1.252 . S
C83 O87 1.260 . S
O84 In78 2.266 . S
O84 C81 1.252 . S
O85 In78 2.326 . S
O85 C81 1.260 . S
O86 In78 2.266 . S
O86 C83 1.252 . S
O87 In78 2.326 . S
O87 C83 1.260 . S
C88 O79 1.240 . S
C88 O80 1.252 . S
O89 In78 2.294 . S
O89 C82 1.240 . S
O90 In78 2.326 . S
O90 C82 1.252 . S
In91 O92 2.294 . S
In91 O93 2.326 . S
In91 O97 2.266 . S
In91 O98 2.326 . S
In91 O99 2.266 . S
In91 O100 2.326 . S
In91 O102 2.294 . S
In91 O103 2.326 . S
O92 In91 2.294 . S
O92 C101 1.240 . S
O93 In91 2.326 . S
O93 C101 1.252 . S
C94 O97 1.252 . S
C94 O98 1.260 . S
C95 O102 1.240 . S
C95 O103 1.252 . S
C96 O99 1.252 . S
C96 O100 1.260 . S
O97 In91 2.266 . S
O97 C94 1.252 . S
O98 In91 2.326 . S
O98 C94 1.260 . S
O99 In91 2.266 . S
O99 C96 1.252 . S
O100 In91 2.326 . S
O100 C96 1.260 . S
C101 O92 1.240 . S
C101 O93 1.252 . S
O102 In91 2.294 . S
O102 C95 1.240 . S
O103 In91 2.326 . S
O103 C95 1.252 . S
In104 O105 2.294 . S
In104 O106 2.326 . S
In104 O110 2.266 . S
In104 O111 2.326 . S
In104 O112 2.266 . S
In104 O113 2.326 . S
In104 O115 2.294 . S
In104 O116 2.326 . S
O105 In104 2.294 . S
O105 C114 1.240 . S
O106 In104 2.326 . S
O106 C114 1.252 . S
C107 O110 1.252 . S
C107 O111 1.260 . S
C108 O115 1.240 . S
C108 O116 1.252 . S
C109 O112 1.252 . S
C109 O113 1.260 . S
O110 In104 2.266 . S
O110 C107 1.252 . S
O111 In104 2.326 . S
O111 C107 1.260 . S
O112 In104 2.266 . S
O112 C109 1.252 . S
O113 In104 2.326 . S
O113 C109 1.260 . S
C114 O105 1.240 . S
C114 O106 1.252 . S
O115 In104 2.294 . S
O115 C108 1.240 . S
O116 In104 2.326 . S
O116 C108 1.252 . S
In117 O118 2.294 . S
In117 O119 2.326 . S
In117 O123 2.266 . S
In117 O124 2.326 . S
In117 O125 2.266 . S
In117 O126 2.326 . S
In117 O128 2.294 . S
In117 O129 2.326 . S
O118 In117 2.294 . S
O118 C127 1.240 . S
O119 In117 2.326 . S
O119 C127 1.252 . S
C120 O123 1.252 . S
C120 O124 1.260 . S
C121 O128 1.240 . S
C121 O129 1.252 . S
C122 O125 1.252 . S
C122 O126 1.260 . S
O123 In117 2.266 . S
O123 C120 1.252 . S
O124 In117 2.326 . S
O124 C120 1.260 . S
O125 In117 2.266 . S
O125 C122 1.252 . S
O126 In117 2.326 . S
O126 C122 1.260 . S
C127 O118 1.240 . S
C127 O119 1.252 . S
O128 In117 2.294 . S
O128 C121 1.240 . S
O129 In117 2.326 . S
O129 C121 1.252 . S
In130 O131 2.294 . S
In130 O132 2.326 . S
In130 O136 2.266 . S
In130 O137 2.326 . S
In130 O138 2.266 . S
In130 O139 2.326 . S
In130 O141 2.294 . S
In130 O142 2.326 . S
O131 In130 2.294 . S
O131 C140 1.240 . S
O132 In130 2.326 . S
O132 C140 1.252 . S
C133 O136 1.252 . S
C133 O137 1.260 . S
C134 O141 1.240 . S
C134 O142 1.252 . S
C135 O138 1.252 . S
C135 O139 1.260 . S
O136 In130 2.266 . S
O136 C133 1.252 . S
O137 In130 2.326 . S
O137 C133 1.260 . S
O138 In130 2.266 . S
O138 C135 1.252 . S
O139 In130 2.326 . S
O139 C135 1.260 . S
C140 O131 1.240 . S
C140 O132 1.252 . S
O141 In130 2.294 . S
O141 C134 1.240 . S
O142 In130 2.326 . S
O142 C134 1.252 . S
In143 O144 2.294 . S
In143 O145 2.326 . S
In143 O149 2.266 . S
In143 O150 2.326 . S
In143 O151 2.266 . S
In143 O152 2.326 . S
In143 O154 2.294 . S
In143 O155 2.326 . S
O144 In143 2.294 . S
O144 C153 1.240 . S
O145 In143 2.326 . S
O145 C153 1.252 . S
C146 O149 1.252 . S
C146 O150 1.260 . S
C147 O154 1.240 . S
C147 O155 1.252 . S
C148 O151 1.252 . S
C148 O152 1.260 . S
O149 In143 2.266 . S
O149 C146 1.252 . S
O150 In143 2.326 . S
O150 C146 1.260 . S
O151 In143 2.266 . S
O151 C148 1.252 . S
O152 In143 2.326 . S
O152 C148 1.260 . S
C153 O144 1.240 . S
C153 O145 1.252 . S
O154 In143 2.294 . S
O154 C147 1.240 . S
O155 In143 2.326 . S
O155 C147 1.252 . S
H156 C164 0.950 . S
H157 C169 0.950 . S
H158 C166 0.950 . S
H159 C168 0.950 . S
H160 C170 0.950 . S
H161 C172 0.950 . S
H162 C174 0.950 . S
H163 C175 0.950 . S
C164 H156 0.950 . S
C164 C165 1.386 . S
C164 C166 1.391 . S
C165 C164 1.386 . S
C165 C169 1.393 . S
C166 H158 0.950 . S
C166 C164 1.391 . S
C166 C167 1.400 . S
C167 C166 1.400 . S
C167 C168 1.398 . S
C167 C173 1.491 . S
C168 H159 0.950 . S
C168 C167 1.398 . S
C168 C169 1.391 . S
C169 H157 0.950 . S
C169 C165 1.393 . S
C169 C168 1.391 . S
C170 H160 0.950 . S
C170 C171 1.386 . S
C170 C172 1.391 . S
C171 C170 1.386 . S
C171 C175 1.393 . S
C172 H161 0.950 . S
C172 C170 1.391 . S
C172 C173 1.400 . S
C173 C167 1.491 . S
C173 C172 1.400 . S
C173 C174 1.398 . S
C174 H162 0.950 . S
C174 C173 1.398 . S
C174 C175 1.391 . S
C175 H163 0.950 . S
C175 C171 1.393 . S
C175 C174 1.391 . S
H176 C184 0.950 . S
H177 C189 0.950 . S
H178 C186 0.950 . S
H179 C188 0.956 . S
H180 C190 0.950 . S
H181 C192 0.950 . S
H182 C194 0.956 . S
H183 C195 0.950 . S
C184 H176 0.950 . S
C184 C185 1.386 . S
C184 C186 1.391 . S
C185 C184 1.386 . S
C185 C189 1.393 . S
C186 H178 0.950 . S
C186 C184 1.391 . S
C186 C187 1.400 . S
C187 C186 1.400 . S
C187 C188 1.398 . S
C187 C193 1.491 1_455 S
C188 H179 0.956 . S
C188 C187 1.398 . S
C188 C189 1.391 . S
C189 H177 0.950 . S
C189 C185 1.393 . S
C189 C188 1.391 . S
C190 H180 0.950 . S
C190 C191 1.386 . S
C190 C192 1.391 . S
C191 C190 1.386 . S
C191 C195 1.393 . S
C192 H181 0.950 . S
C192 C190 1.391 . S
C192 C193 1.400 . S
C193 C187 1.491 1_655 S
C193 C192 1.400 . S
C193 C194 1.398 . S
C194 H182 0.956 . S
C194 C193 1.398 . S
C194 C195 1.391 . S
C195 H183 0.950 . S
C195 C191 1.393 . S
C195 C194 1.391 . S
H196 C204 0.950 . S
H197 C209 0.950 . S
H198 C206 0.950 . S
H199 C208 0.950 . S
H200 C210 0.950 . S
H201 C212 0.950 . S
H202 C214 0.950 . S
H203 C215 0.950 . S
C204 H196 0.950 . S
C204 C205 1.386 . S
C204 C206 1.391 . S
C205 C204 1.386 . S
C205 C209 1.393 . S
C206 H198 0.950 . S
C206 C204 1.391 . S
C206 C207 1.400 . S
C207 C206 1.400 . S
C207 C208 1.398 . S
C207 C213 1.491 1_565 S
C208 H199 0.950 . S
C208 C207 1.398 . S
C208 C209 1.391 . S
C209 H197 0.950 . S
C209 C205 1.393 . S
C209 C208 1.391 . S
C210 H200 0.950 . S
C210 C211 1.386 . S
C210 C212 1.391 . S
C211 C210 1.386 . S
C211 C215 1.393 . S
C212 H201 0.950 . S
C212 C210 1.391 . S
C212 C213 1.400 . S
C213 C207 1.491 1_545 S
C213 C212 1.400 . S
C213 C214 1.398 . S
C214 H202 0.950 . S
C214 C213 1.398 . S
C214 C215 1.391 . S
C215 H203 0.950 . S
C215 C211 1.393 . S
C215 C214 1.391 . S
H216 C224 0.950 . S
H217 C229 0.950 . S
H218 C226 0.950 . S
H219 C228 0.950 . S
H220 C230 0.950 . S
H221 C232 0.950 . S
H222 C234 0.950 . S
H223 C235 0.950 . S
C224 H216 0.950 . S
C224 C225 1.386 . S
C224 C226 1.391 . S
C225 C224 1.386 . S
C225 C229 1.393 . S
C226 H218 0.950 . S
C226 C224 1.391 . S
C226 C227 1.400 . S
C227 C226 1.400 . S
C227 C228 1.398 . S
C227 C233 1.491 . S
C228 H219 0.950 . S
C228 C227 1.398 . S
C228 C229 1.391 . S
C229 H217 0.950 . S
C229 C225 1.393 . S
C229 C228 1.391 . S
C230 H220 0.950 . S
C230 C231 1.386 . S
C230 C232 1.391 . S
C231 C230 1.386 . S
C231 C235 1.393 . S
C232 H221 0.950 . S
C232 C230 1.391 . S
C232 C233 1.400 . S
C233 C227 1.491 . S
C233 C232 1.400 . S
C233 C234 1.398 . S
C234 H222 0.950 . S
C234 C233 1.398 . S
C234 C235 1.391 . S
C235 H223 0.950 . S
C235 C231 1.393 . S
C235 C234 1.391 . S
H236 C244 0.950 . S
H237 C249 0.950 . S
H238 C246 0.950 . S
H239 C248 0.950 . S
H240 C250 0.950 . S
H241 C252 0.950 . S
H242 C254 0.950 . S
H243 C255 0.950 . S
C244 H236 0.950 . S
C244 C245 1.386 . S
C244 C246 1.391 . S
C245 C244 1.386 . S
C245 C249 1.393 . S
C246 H238 0.950 . S
C246 C244 1.391 . S
C246 C247 1.400 . S
C247 C246 1.400 . S
C247 C248 1.398 1_655 S
C247 C253 1.491 1_655 S
C248 H239 0.950 . S
C248 C247 1.398 1_455 S
C248 C249 1.391 1_455 S
C249 H237 0.950 . S
C249 C245 1.393 . S
C249 C248 1.391 1_655 S
C250 H240 0.950 . S
C250 C251 1.386 . S
C250 C252 1.391 . S
C251 C250 1.386 . S
C251 C255 1.393 . S
C252 H241 0.950 . S
C252 C250 1.391 . S
C252 C253 1.400 . S
C253 C247 1.491 1_455 S
C253 C252 1.400 . S
C253 C254 1.398 1_455 S
C254 H242 0.950 . S
C254 C253 1.398 1_655 S
C254 C255 1.391 1_655 S
C255 H243 0.950 . S
C255 C251 1.393 . S
C255 C254 1.391 1_455 S
H256 C264 0.950 . S
H257 C269 0.950 . S
H258 C266 0.950 . S
H259 C268 0.950 1_565 S
H260 C270 0.950 . S
H261 C272 0.950 . S
H262 C274 0.950 1_545 S
H263 C275 0.950 . S
C264 H256 0.950 . S
C264 C265 1.386 . S
C264 C266 1.391 . S
C265 C264 1.386 . S
C265 C269 1.393 . S
C266 H258 0.950 . S
C266 C264 1.391 . S
C266 C267 1.400 . S
C267 C266 1.400 . S
C267 C268 1.398 . S
C267 C273 1.491 1_545 S
C268 H259 0.950 1_545 S
C268 C267 1.398 . S
C268 C269 1.391 . S
C269 H257 0.950 . S
C269 C265 1.393 . S
C269 C268 1.391 . S
C270 H260 0.950 . S
C270 C271 1.386 . S
C270 C272 1.391 . S
C271 C270 1.386 . S
C271 C275 1.393 . S
C272 H261 0.950 . S
C272 C270 1.391 . S
C272 C273 1.400 . S
C273 C267 1.491 1_565 S
C273 C272 1.400 . S
C273 C274 1.398 . S
C274 H262 0.950 1_565 S
C274 C273 1.398 . S
C274 C275 1.391 . S
C275 H263 0.950 . S
C275 C271 1.393 . S
C275 C274 1.391 . S
H276 C284 0.950 . S
H277 C289 0.950 . S
H278 C286 0.950 . S
H279 C288 0.950 . S
H280 C290 0.950 . S
H281 C292 0.950 . S
H282 C294 0.950 . S
H283 C295 0.950 . S
C284 H276 0.950 . S
C284 C285 1.386 . S
C284 C286 1.391 . S
C285 C284 1.386 . S
C285 C289 1.393 . S
C286 H278 0.950 . S
C286 C284 1.391 . S
C286 C287 1.400 . S
C287 C286 1.400 . S
C287 C288 1.398 . S
C287 C293 1.491 . S
C288 H279 0.950 . S
C288 C287 1.398 . S
C288 C289 1.391 . S
C289 H277 0.950 . S
C289 C285 1.393 . S
C289 C288 1.391 . S
C290 H280 0.950 . S
C290 C291 1.386 . S
C290 C292 1.391 . S
C291 C290 1.386 . S
C291 C295 1.393 . S
C292 H281 0.950 . S
C292 C290 1.391 . S
C292 C293 1.400 . S
C293 C287 1.491 . S
C293 C292 1.400 . S
C293 C294 1.398 . S
C294 H282 0.950 . S
C294 C293 1.398 . S
C294 C295 1.391 . S
C295 H283 0.950 . S
C295 C291 1.393 . S
C295 C294 1.391 . S
H296 C304 0.950 . S
H297 C309 0.950 . S
H298 C306 0.950 . S
H299 C308 0.950 . S
H300 C310 0.950 . S
H301 C312 0.950 . S
H302 C314 0.950 . S
H303 C315 0.950 . S
C304 H296 0.950 . S
C304 C305 1.386 . S
C304 C306 1.391 . S
C305 C304 1.386 . S
C305 C309 1.393 . S
C306 H298 0.950 . S
C306 C304 1.391 . S
C306 C307 1.400 . S
C307 C306 1.400 . S
C307 C308 1.398 . S
C307 C313 1.491 . S
C308 H299 0.950 . S
C308 C307 1.398 . S
C308 C309 1.391 . S
C309 H297 0.950 . S
C309 C305 1.393 . S
C309 C308 1.391 . S
C310 H300 0.950 . S
C310 C311 1.386 . S
C310 C312 1.391 . S
C311 C310 1.386 . S
C311 C315 1.393 . S
C312 H301 0.950 . S
C312 C310 1.391 . S
C312 C313 1.400 . S
C313 C307 1.491 . S
C313 C312 1.400 . S
C313 C314 1.398 . S
C314 H302 0.950 . S
C314 C313 1.398 . S
C314 C315 1.391 . S
C315 H303 0.950 . S
C315 C311 1.393 . S
C315 C314 1.391 . S
H316 C324 0.950 . S
H317 C329 0.950 . S
H318 C326 0.950 . S
H319 C328 0.950 . S
H320 C330 0.950 . S
H321 C332 0.950 . S
H322 C334 0.950 . S
H323 C335 0.950 . S
C324 H316 0.950 . S
C324 C325 1.386 . S
C324 C326 1.391 . S
C325 C324 1.386 . S
C325 C329 1.393 . S
C326 H318 0.950 . S
C326 C324 1.391 . S
C326 C327 1.400 . S
C327 C326 1.400 . S
C327 C328 1.398 . S
C327 C333 1.491 . S
C328 H319 0.950 . S
C328 C327 1.398 . S
C328 C329 1.391 . S
C329 H317 0.950 . S
C329 C325 1.393 . S
C329 C328 1.391 . S
C330 H320 0.950 . S
C330 C331 1.386 . S
C330 C332 1.391 . S
C331 C330 1.386 . S
C331 C335 1.393 . S
C332 H321 0.950 . S
C332 C330 1.391 . S
C332 C333 1.400 . S
C333 C327 1.491 . S
C333 C332 1.400 . S
C333 C334 1.398 . S
C334 H322 0.950 . S
C334 C333 1.398 . S
C334 C335 1.391 . S
C335 H323 0.950 . S
C335 C331 1.393 . S
C335 C334 1.391 . S
H336 C344 0.950 . S
H337 C349 0.950 . S
H338 C346 0.950 . S
H339 C348 0.950 . S
H340 C350 0.950 . S
H341 C352 0.950 . S
H342 C354 0.950 . S
H343 C355 0.950 . S
C344 H336 0.950 . S
C344 C345 1.386 . S
C344 C346 1.391 . S
C345 C344 1.386 . S
C345 C349 1.393 . S
C346 H338 0.950 . S
C346 C344 1.391 . S
C346 C347 1.400 . S
C347 C346 1.400 . S
C347 C348 1.398 . S
C347 C353 1.491 . S
C348 H339 0.950 . S
C348 C347 1.398 . S
C348 C349 1.391 . S
C349 H337 0.950 . S
C349 C345 1.393 . S
C349 C348 1.391 . S
C350 H340 0.950 . S
C350 C351 1.386 . S
C350 C352 1.391 . S
C351 C350 1.386 . S
C351 C355 1.393 . S
C352 H341 0.950 . S
C352 C350 1.391 . S
C352 C353 1.400 . S
C353 C347 1.491 . S
C353 C352 1.400 . S
C353 C354 1.398 . S
C354 H342 0.950 . S
C354 C353 1.398 . S
C354 C355 1.391 . S
C355 H343 0.950 . S
C355 C351 1.393 . S
C355 C354 1.391 . S
H356 C364 0.950 . S
H357 C369 0.950 . S
H358 C366 0.950 . S
H359 C368 0.950 . S
H360 C370 0.950 . S
H361 C372 0.950 . S
H362 C374 0.950 . S
H363 C375 0.950 . S
C364 H356 0.950 . S
C364 C365 1.386 . S
C364 C366 1.391 . S
C365 C364 1.386 . S
C365 C369 1.393 . S
C366 H358 0.950 . S
C366 C364 1.391 . S
C366 C367 1.400 . S
C367 C366 1.400 . S
C367 C368 1.398 . S
C367 C373 1.491 . S
C368 H359 0.950 . S
C368 C367 1.398 . S
C368 C369 1.391 . S
C369 H357 0.950 . S
C369 C365 1.393 . S
C369 C368 1.391 . S
C370 H360 0.950 . S
C370 C371 1.386 . S
C370 C372 1.391 . S
C371 C370 1.386 . S
C371 C375 1.393 . S
C372 H361 0.950 . S
C372 C370 1.391 . S
C372 C373 1.400 . S
C373 C367 1.491 . S
C373 C372 1.400 . S
C373 C374 1.398 . S
C374 H362 0.950 . S
C374 C373 1.398 . S
C374 C375 1.391 . S
C375 H363 0.950 . S
C375 C371 1.393 . S
C375 C374 1.391 . S
H376 C384 0.950 . S
H377 C389 0.950 . S
H378 C386 0.950 . S
H379 C388 0.950 . S
H380 C390 0.950 . S
H381 C392 0.950 . S
H382 C394 0.950 . S
H383 C395 0.950 . S
C384 H376 0.950 . S
C384 C385 1.386 . S
C384 C386 1.391 . S
C385 C384 1.386 . S
C385 C389 1.393 . S
C386 H378 0.950 . S
C386 C384 1.391 . S
C386 C387 1.400 . S
C387 C386 1.400 . S
C387 C388 1.398 . S
C387 C393 1.491 . S
C388 H379 0.950 . S
C388 C387 1.398 . S
C388 C389 1.391 . S
C389 H377 0.950 . S
C389 C385 1.393 . S
C389 C388 1.391 . S
C390 H380 0.950 . S
C390 C391 1.386 . S
C390 C392 1.391 . S
C391 C390 1.386 . S
C391 C395 1.393 . S
C392 H381 0.950 . S
C392 C390 1.391 . S
C392 C393 1.400 . S
C393 C387 1.491 . S
C393 C392 1.400 . S
C393 C394 1.398 . S
C394 H382 0.950 . S
C394 C393 1.398 . S
C394 C395 1.391 . S
C395 H383 0.950 . S
C395 C391 1.393 . S
C395 C394 1.391 . S
H396 C404 0.950 . S
H397 C409 0.950 . S
H398 C406 0.950 . S
H399 C408 0.950 . S
H400 C410 0.950 . S
H401 C412 0.950 . S
H402 C414 0.950 . S
H403 C415 0.950 . S
C404 H396 0.950 . S
C404 C405 1.386 . S
C404 C406 1.391 . S
C405 C404 1.386 . S
C405 C409 1.393 . S
C406 H398 0.950 . S
C406 C404 1.391 . S
C406 C407 1.400 . S
C407 C406 1.400 . S
C407 C408 1.398 . S
C407 C413 1.491 1_566 S
C408 H399 0.950 . S
C408 C407 1.398 . S
C408 C409 1.391 . S
C409 H397 0.950 . S
C409 C405 1.393 . S
C409 C408 1.391 . S
C410 H400 0.950 . S
C410 C411 1.386 . S
C410 C412 1.391 . S
C411 C410 1.386 . S
C411 C415 1.393 . S
C412 H401 0.950 . S
C412 C410 1.391 . S
C412 C413 1.400 . S
C413 C407 1.491 1_544 S
C413 C412 1.400 . S
C413 C414 1.398 . S
C414 H402 0.950 . S
C414 C413 1.398 . S
C414 C415 1.391 . S
C415 H403 0.950 . S
C415 C411 1.393 . S
C415 C414 1.391 . S
H416 C424 0.950 . S
H417 C429 0.950 . S
H418 C426 0.950 . S
H419 C428 0.950 . S
H420 C430 0.950 . S
H421 C432 0.950 . S
H422 C434 0.950 . S
H423 C435 0.950 . S
C424 H416 0.950 . S
C424 C425 1.386 . S
C424 C426 1.391 . S
C425 C424 1.386 . S
C425 C429 1.393 . S
C426 H418 0.950 . S
C426 C424 1.391 . S
C426 C427 1.400 . S
C427 C426 1.400 . S
C427 C428 1.398 . S
C427 C433 1.491 . S
C428 H419 0.950 . S
C428 C427 1.398 . S
C428 C429 1.391 . S
C429 H417 0.950 . S
C429 C425 1.393 . S
C429 C428 1.391 . S
C430 H420 0.950 . S
C430 C431 1.386 . S
C430 C432 1.391 . S
C431 C430 1.386 . S
C431 C435 1.393 . S
C432 H421 0.950 . S
C432 C430 1.391 . S
C432 C433 1.400 . S
C433 C427 1.491 . S
C433 C432 1.400 . S
C433 C434 1.398 . S
C434 H422 0.950 . S
C434 C433 1.398 . S
C434 C435 1.391 . S
C435 H423 0.950 . S
C435 C431 1.393 . S
C435 C434 1.391 . S
H436 C444 0.950 . S
H437 C449 0.950 . S
H438 C446 0.950 . S
H439 C448 0.950 . S
H440 C450 0.950 . S
H441 C452 0.950 . S
H442 C454 0.950 . S
H443 C455 0.950 . S
C444 H436 0.950 . S
C444 C445 1.386 . S
C444 C446 1.391 . S
C445 C444 1.386 . S
C445 C449 1.393 . S
C446 H438 0.950 . S
C446 C444 1.391 . S
C446 C447 1.400 . S
C447 C446 1.400 . S
C447 C448 1.398 . S
C447 C453 1.491 1_655 S
C448 H439 0.950 . S
C448 C447 1.398 . S
C448 C449 1.391 . S
C449 H437 0.950 . S
C449 C445 1.393 . S
C449 C448 1.391 . S
C450 H440 0.950 . S
C450 C451 1.386 . S
C450 C452 1.391 . S
C451 C450 1.386 . S
C451 C455 1.393 . S
C452 H441 0.950 . S
C452 C450 1.391 . S
C452 C453 1.400 . S
C453 C447 1.491 1_455 S
C453 C452 1.400 . S
C453 C454 1.398 . S
C454 H442 0.950 . S
C454 C453 1.398 . S
C454 C455 1.391 . S
C455 H443 0.950 . S
C455 C451 1.393 . S
C455 C454 1.391 . S
H456 C464 0.950 . S
H457 C469 0.950 . S
H458 C466 0.950 . S
H459 C468 0.950 1_556 S
H460 C470 0.950 . S
H461 C472 0.950 . S
H462 C474 0.950 1_554 S
H463 C475 0.950 . S
C464 H456 0.950 . S
C464 C465 1.386 . S
C464 C466 1.391 . S
C465 C464 1.386 . S
C465 C469 1.393 . S
C466 H458 0.950 . S
C466 C464 1.391 . S
C466 C467 1.400 . S
C467 C466 1.400 . S
C467 C468 1.398 . S
C467 C473 1.491 1_564 S
C468 H459 0.950 1_554 S
C468 C467 1.398 . S
C468 C469 1.391 . S
C469 H457 0.950 . S
C469 C465 1.393 . S
C469 C468 1.391 . S
C470 H460 0.950 . S
C470 C471 1.386 . S
C470 C472 1.391 . S
C471 C470 1.386 . S
C471 C475 1.393 . S
C472 H461 0.950 . S
C472 C470 1.391 . S
C472 C473 1.400 . S
C473 C467 1.491 1_546 S
C473 C472 1.400 . S
C473 C474 1.398 . S
C474 H462 0.950 1_556 S
C474 C473 1.398 . S
C474 C475 1.391 . S
C475 H463 0.950 . S
C475 C471 1.393 . S
C475 C474 1.391 . S
H476 C484 0.950 . S
H477 C489 0.950 . S
H478 C486 0.950 . S
H479 C488 0.950 . S
H480 C490 0.950 . S
H481 C492 0.950 . S
H482 C494 0.950 . S
H483 C495 0.950 . S
C484 H476 0.950 . S
C484 C485 1.386 . S
C484 C486 1.391 . S
C485 C484 1.386 . S
C485 C489 1.393 . S
C486 H478 0.950 . S
C486 C484 1.391 . S
C486 C487 1.400 . S
C487 C486 1.400 . S
C487 C488 1.398 . S
C487 C493 1.491 . S
C488 H479 0.950 . S
C488 C487 1.398 . S
C488 C489 1.391 . S
C489 H477 0.950 . S
C489 C485 1.393 . S
C489 C488 1.391 . S
C490 H480 0.950 . S
C490 C491 1.386 . S
C490 C492 1.391 . S
C491 C490 1.386 . S
C491 C495 1.393 . S
C492 H481 0.950 . S
C492 C490 1.391 . S
C492 C493 1.400 . S
C493 C487 1.491 . S
C493 C492 1.400 . S
C493 C494 1.398 . S
C494 H482 0.950 . S
C494 C493 1.398 . S
C494 C495 1.391 . S
C495 H483 0.950 . S
C495 C491 1.393 . S
C495 C494 1.391 . S
H496 C504 0.950 . S
H497 C509 0.950 . S
H498 C506 0.950 . S
H499 C508 0.950 . S
H500 C510 0.950 . S
H501 C512 0.950 . S
H502 C514 0.950 . S
H503 C515 0.950 . S
C504 H496 0.950 . S
C504 C505 1.386 . S
C504 C506 1.391 . S
C505 C504 1.386 . S
C505 C509 1.393 . S
C506 H498 0.950 . S
C506 C504 1.391 . S
C506 C507 1.400 . S
C507 C506 1.400 . S
C507 C508 1.398 . S
C507 C513 1.491 1_455 S
C508 H499 0.950 . S
C508 C507 1.398 . S
C508 C509 1.391 . S
C509 H497 0.950 . S
C509 C505 1.393 . S
C509 C508 1.391 . S
C510 H500 0.950 . S
C510 C511 1.386 . S
C510 C512 1.391 . S
C511 C510 1.386 . S
C511 C515 1.393 . S
C512 H501 0.950 . S
C512 C510 1.391 . S
C512 C513 1.400 . S
C513 C507 1.491 1_655 S
C513 C512 1.400 . S
C513 C514 1.398 . S
C514 H502 0.950 . S
C514 C513 1.398 . S
C514 C515 1.391 . S
C515 H503 0.950 . S
C515 C511 1.393 . S
C515 C514 1.391 . S
H516 C524 0.950 1_655 S
H517 C529 0.950 . S
H518 C526 0.950 . S
H519 C528 0.950 . S
H520 C530 0.950 . S
H521 C532 0.950 . S
H522 C534 0.950 . S
H523 C535 0.950 . S
C524 H516 0.950 1_455 S
C524 C525 1.386 . S
C524 C526 1.391 1_556 S
C525 C524 1.386 . S
C525 C529 1.393 . S
C526 H518 0.950 . S
C526 C524 1.391 1_554 S
C526 C527 1.400 1_554 S
C527 C526 1.400 1_556 S
C527 C528 1.398 . S
C527 C533 1.491 1_556 S
C528 H519 0.950 . S
C528 C527 1.398 . S
C528 C529 1.391 . S
C529 H517 0.950 . S
C529 C525 1.393 . S
C529 C528 1.391 . S
C530 H520 0.950 . S
C530 C531 1.386 . S
C530 C532 1.391 1_554 S
C531 C530 1.386 . S
C531 C535 1.393 . S
C532 H521 0.950 . S
C532 C530 1.391 1_556 S
C532 C533 1.400 1_556 S
C533 C527 1.491 1_554 S
C533 C532 1.400 1_554 S
C533 C534 1.398 . S
C534 H522 0.950 . S
C534 C533 1.398 . S
C534 C535 1.391 . S
C535 H523 0.950 . S
C535 C531 1.393 . S
C535 C534 1.391 . S
H536 C544 0.950 . S
H537 C549 0.950 1_565 S
H538 C546 0.950 . S
H539 C548 0.950 . S
H540 C550 0.950 1_455 S
H541 C552 0.950 . S
H542 C554 0.950 . S
H543 C555 0.950 . S
C544 H536 0.950 . S
C544 C545 1.386 . S
C544 C546 1.391 . S
C545 C544 1.386 . S
C545 C549 1.393 . S
C546 H538 0.950 . S
C546 C544 1.391 . S
C546 C547 1.400 . S
C547 C546 1.400 . S
C547 C548 1.398 . S
C547 C553 1.491 . S
C548 H539 0.950 . S
C548 C547 1.398 . S
C548 C549 1.391 . S
C549 H537 0.950 1_545 S
C549 C545 1.393 . S
C549 C548 1.391 . S
C550 H540 0.950 1_655 S
C550 C551 1.386 . S
C550 C552 1.391 . S
C551 C550 1.386 . S
C551 C555 1.393 . S
C552 H541 0.950 . S
C552 C550 1.391 . S
C552 C553 1.400 . S
C553 C547 1.491 . S
C553 C552 1.400 . S
C553 C554 1.398 . S
C554 H542 0.950 . S
C554 C553 1.398 . S
C554 C555 1.391 . S
C555 H543 0.950 . S
C555 C551 1.393 . S
C555 C554 1.391 . S
H556 C564 0.950 . S
H557 C569 0.950 . S
H558 C566 0.950 . S
H559 C568 0.950 . S
H560 C570 0.950 . S
H561 C572 0.950 . S
H562 C574 0.950 . S
H563 C575 0.950 1_545 S
C564 H556 0.950 . S
C564 C565 1.386 . S
C564 C566 1.391 . S
C565 C564 1.386 . S
C565 C569 1.393 . S
C566 H558 0.950 . S
C566 C564 1.391 . S
C566 C567 1.400 . S
C567 C566 1.400 . S
C567 C568 1.398 . S
C567 C573 1.491 . S
C568 H559 0.950 . S
C568 C567 1.398 . S
C568 C569 1.391 . S
C569 H557 0.950 . S
C569 C565 1.393 . S
C569 C568 1.391 . S
C570 H560 0.950 . S
C570 C571 1.386 . S
C570 C572 1.391 . S
C571 C570 1.386 . S
C571 C575 1.393 . S
C572 H561 0.950 . S
C572 C570 1.391 . S
C572 C573 1.400 . S
C573 C567 1.491 . S
C573 C572 1.400 . S
C573 C574 1.398 . S
C574 H562 0.950 . S
C574 C573 1.398 . S
C574 C575 1.391 . S
C575 H563 0.950 1_565 S
C575 C571 1.393 . S
C575 C574 1.391 . S
H576 C584 0.950 . S
H577 C589 0.950 . S
H578 C586 0.950 . S
H579 C588 0.950 1_556 S
H580 C590 0.950 . S
H581 C592 0.950 . S
H582 C594 0.950 1_554 S
H583 C595 0.950 1_455 S
C584 H576 0.950 . S
C584 C585 1.386 . S
C584 C586 1.391 . S
C585 C584 1.386 . S
C585 C589 1.393 . S
C586 H578 0.950 . S
C586 C584 1.391 . S
C586 C587 1.400 . S
C587 C586 1.400 . S
C587 C588 1.398 . S
C587 C593 1.491 1_554 S
C588 H579 0.950 1_554 S
C588 C587 1.398 . S
C588 C589 1.391 . S
C589 H577 0.950 . S
C589 C585 1.393 . S
C589 C588 1.391 . S
C590 H580 0.950 . S
C590 C591 1.386 . S
C590 C592 1.391 . S
C591 C590 1.386 . S
C591 C595 1.393 . S
C592 H581 0.950 . S
C592 C590 1.391 . S
C592 C593 1.400 . S
C593 C587 1.491 1_556 S
C593 C592 1.400 . S
C593 C594 1.398 . S
C594 H582 0.950 1_556 S
C594 C593 1.398 . S
C594 C595 1.391 . S
C595 H583 0.950 1_655 S
C595 C591 1.393 . S
C595 C594 1.391 . S
H596 C604 0.950 1_655 S
H597 C609 0.950 . S
H598 C606 0.950 . S
H599 C608 0.950 . S
H600 C610 0.950 . S
H601 C612 0.950 . S
H602 C614 0.950 . S
H603 C615 0.950 1_545 S
C604 H596 0.950 1_455 S
C604 C605 1.386 . S
C604 C606 1.391 . S
C605 C604 1.386 . S
C605 C609 1.393 . S
C606 H598 0.950 . S
C606 C604 1.391 . S
C606 C607 1.400 . S
C607 C606 1.400 . S
C607 C608 1.398 . S
C607 C613 1.491 . S
C608 H599 0.950 . S
C608 C607 1.398 . S
C608 C609 1.391 . S
C609 H597 0.950 . S
C609 C605 1.393 . S
C609 C608 1.391 . S
C610 H600 0.950 . S
C610 C611 1.386 . S
C610 C612 1.391 . S
C611 C610 1.386 . S
C611 C615 1.393 . S
C612 H601 0.950 . S
C612 C610 1.391 . S
C612 C613 1.400 . S
C613 C607 1.491 . S
C613 C612 1.400 . S
C613 C614 1.398 . S
C614 H602 0.950 . S
C614 C613 1.398 . S
C614 C615 1.391 . S
C615 H603 0.950 1_565 S
C615 C611 1.393 . S
C615 C614 1.391 . S
H616 C624 0.950 . S
H617 C629 0.950 . S
H618 C626 0.950 . S
H619 C628 0.950 . S
H620 C630 0.950 . S
H621 C632 0.950 . S
H622 C634 0.950 . S
H623 C635 0.950 . S
C624 H616 0.950 . S
C624 C625 1.386 . S
C624 C626 1.391 . S
C625 C624 1.386 . S
C625 C629 1.393 . S
C626 H618 0.950 . S
C626 C624 1.391 . S
C626 C627 1.400 . S
C627 C626 1.400 . S
C627 C628 1.398 . S
C627 C633 1.491 . S
C628 H619 0.950 . S
C628 C627 1.398 . S
C628 C629 1.391 . S
C629 H617 0.950 . S
C629 C625 1.393 . S
C629 C628 1.391 . S
C630 H620 0.950 . S
C630 C631 1.386 . S
C630 C632 1.391 . S
C631 C630 1.386 . S
C631 C635 1.393 . S
C632 H621 0.950 . S
C632 C630 1.391 . S
C632 C633 1.400 . S
C633 C627 1.491 . S
C633 C632 1.400 . S
C633 C634 1.398 . S
C634 H622 0.950 . S
C634 C633 1.398 . S
C634 C635 1.391 . S
C635 H623 0.950 . S
C635 C631 1.393 . S
C635 C634 1.391 . S
C165 C43 1.562 . S
C171 C10 1.563 . S
C185 C17 1.548 . S
C191 C56 1.548 . S
C205 C75 1.563 . S
C211 C36 1.563 . S
C225 C82 1.561 . S
C231 C121 1.561 . S
C245 C134 1.559 . S
C251 C101 1.560 . S
C265 C114 1.561 . S
C271 C147 1.561 . S
C285 C108 1.659 . S
C291 C4 1.658 . S
C305 C23 1.661 . S
C311 C127 1.656 . S
C325 C30 1.660 . S
C331 C140 1.657 . S
C345 C49 1.657 . S
C351 C153 1.660 . S
C365 C88 1.657 . S
C371 C62 1.660 . S
C385 C95 1.660 . S
C391 C69 1.656 . S
C405 C94 1.270 . S
C411 C3 1.271 . S
C425 C18 1.263 . S
C431 C107 1.278 . S
C445 C29 1.266 . S
C451 C122 1.275 . S
C465 C44 1.268 . S
C471 C135 1.274 . S
C485 C148 1.274 . S
C491 C57 1.266 . S
C505 C68 1.272 . S
C511 C83 1.269 . S
C525 C133 1.405 1_455 S
C531 C5 1.407 . S
C545 C146 1.404 1_545 S
C551 C16 1.405 1_655 S
C565 C81 1.407 . S
C571 C31 1.407 1_565 S
C585 C42 1.407 . S
C591 C96 1.405 1_655 S
C605 C55 1.407 1_455 S
C611 C109 1.406 1_565 S
C625 C70 1.407 1_545 S
C631 C120 1.406 . S
