# Generated by pormake.
# Topology uop, (4)-cn, num edge types: 1
# Building blocks:
#     Node 0, Type 0, BuildingBlock: QUQFOY_clean_sbu_3, # of connection points: 4
#     Node 1, Type 0, BuildingBlock: QUQFOY_clean_sbu_3, # of connection points: 4
#     Node 2, Type 0, BuildingBlock: QUQFOY_clean_sbu_3, # of connection points: 4
#     Node 3, Type 0, BuildingBlock: QUQFOY_clean_sbu_3, # of connection points: 4
#     Node 4, Type 0, BuildingBlock: QUQFOY_clean_sbu_3, # of connection points: 4
#     Node 5, Type 0, BuildingBlock: QUQFOY_clean_sbu_3, # of connection points: 4
#     Node 6, Type 0, BuildingBlock: QUQFOY_clean_sbu_3, # of connection points: 4
#     Node 7, Type 0, BuildingBlock: QUQFOY_clean_sbu_3, # of connection points: 4
#     Node 8, Type 0, BuildingBlock: QUQFOY_clean_sbu_3, # of connection points: 4
#     Node 9, Type 0, BuildingBlock: QUQFOY_clean_sbu_3, # of connection points: 4
#     Node 10, Type 0, BuildingBlock: QUQFOY_clean_sbu_3, # of connection points: 4
#     Node 11, Type 0, BuildingBlock: QUQFOY_clean_sbu_3, # of connection points: 4
#     Edge 12, Type (0, 0), BuildingBlock: ZUJKAS_clean_linker_0, # of connection points: 2
#     Edge 13, Type (0, 0), BuildingBlock: ZUJKAS_clean_linker_0, # of connection points: 2
#     Edge 14, Type (0, 0), BuildingBlock: ZUJKAS_clean_linker_0, # of connection points: 2
#     Edge 15, Type (0, 0), BuildingBlock: ZUJKAS_clean_linker_0, # of connection points: 2
#     Edge 16, Type (0, 0), BuildingBlock: ZUJKAS_clean_linker_0, # of connection points: 2
#     Edge 17, Type (0, 0), BuildingBlock: ZUJKAS_clean_linker_0, # of connection points: 2
#     Edge 18, Type (0, 0), BuildingBlock: ZUJKAS_clean_linker_0, # of connection points: 2
#     Edge 19, Type (0, 0), BuildingBlock: ZUJKAS_clean_linker_0, # of connection points: 2
#     Edge 20, Type (0, 0), BuildingBlock: ZUJKAS_clean_linker_0, # of connection points: 2
#     Edge 21, Type (0, 0), BuildingBlock: ZUJKAS_clean_linker_0, # of connection points: 2
#     Edge 22, Type (0, 0), BuildingBlock: ZUJKAS_clean_linker_0, # of connection points: 2
#     Edge 23, Type (0, 0), BuildingBlock: ZUJKAS_clean_linker_0, # of connection points: 2
#     Edge 24, Type (0, 0), BuildingBlock: ZUJKAS_clean_linker_0, # of connection points: 2
#     Edge 25, Type (0, 0), BuildingBlock: ZUJKAS_clean_linker_0, # of connection points: 2
#     Edge 26, Type (0, 0), BuildingBlock: ZUJKAS_clean_linker_0, # of connection points: 2
#     Edge 27, Type (0, 0), BuildingBlock: ZUJKAS_clean_linker_0, # of connection points: 2
#     Edge 28, Type (0, 0), BuildingBlock: ZUJKAS_clean_linker_0, # of connection points: 2
#     Edge 29, Type (0, 0), BuildingBlock: ZUJKAS_clean_linker_0, # of connection points: 2
#     Edge 30, Type (0, 0), BuildingBlock: ZUJKAS_clean_linker_0, # of connection points: 2
#     Edge 31, Type (0, 0), BuildingBlock: ZUJKAS_clean_linker_0, # of connection points: 2
#     Edge 32, Type (0, 0), BuildingBlock: ZUJKAS_clean_linker_0, # of connection points: 2
#     Edge 33, Type (0, 0), BuildingBlock: ZUJKAS_clean_linker_0, # of connection points: 2
#     Edge 34, Type (0, 0), BuildingBlock: ZUJKAS_clean_linker_0, # of connection points: 2
#     Edge 35, Type (0, 0), BuildingBlock: ZUJKAS_clean_linker_0, # of connection points: 2
# Relax obj value: 0.157
# Max RMSD: 0.167
# Mean RMSD: 0.161
data_MOF--net-uop--node1-QUQFOY_clean_sbu_3--edge1-ZUJKAS_clean_linker_0
_symmetry_space_group_name_H-M    P1
_symmetry_Int_Tables_number       1
_symmetry_cell_setting            triclinic
loop_
_symmetry_equiv_pos_as_xyz
'x, y, z'
_cell_length_a     41.997685
_cell_length_b     43.150841
_cell_length_c     62.081396
_cell_angle_alpha  89.988141
_cell_angle_beta   90.05804
_cell_angle_gamma 119.42705
loop_
_atom_site_label
_atom_site_type_symbol
_atom_site_fract_x
_atom_site_fract_y
_atom_site_fract_z
_atom_type_partial_charge
C0 C 0.16576 0.32567 0.16147 0.0
O1 O 0.1839 0.34068 0.14459 0.0
Cd2 Cd 0.24155 0.39432 0.14378 0.0
O3 O 0.17777 0.33865 0.18009 0.0
Cd4 Cd 0.23171 0.3881 0.1975 0.0
C5 C 0.21966 0.45105 0.17197 0.0
O6 O 0.27406 0.38632 0.17205 0.0
O7 O 0.29719 0.43035 0.19416 0.0
O8 O 0.22628 0.34423 0.22406 0.0
C9 C 0.30189 0.41433 0.17843 0.0
O10 O 0.23072 0.44246 0.15506 0.0
C11 C 0.23205 0.36388 0.24044 0.0
O12 O 0.21407 0.43372 0.18954 0.0
O13 O 0.23611 0.39468 0.23704 0.0
C14 C 0.86541 0.27062 0.57524 0.0
O15 O 0.84201 0.28117 0.57589 0.0
Cd16 Cd 0.79879 0.27146 0.54763 0.0
O17 O 0.86583 0.25194 0.55946 0.0
Cd18 Cd 0.83044 0.22467 0.52596 0.0
C19 C 0.85934 0.30599 0.50503 0.0
O20 O 0.76916 0.21059 0.53781 0.0
O21 O 0.7768 0.2094 0.50356 0.0
O22 O 0.8301 0.17119 0.53807 0.0
C23 C 0.75524 0.20446 0.51909 0.0
O24 O 0.83505 0.30641 0.51712 0.0
C25 C 0.83862 0.16328 0.52011 0.0
O26 O 0.86687 0.28075 0.50607 0.0
O27 O 0.84499 0.18492 0.50465 0.0
C28 C 0.66034 0.84775 0.82983 0.0
O29 O 0.64721 0.84699 0.81129 0.0
Cd30 Cd 0.5895 0.84424 0.80623 0.0
O31 O 0.64331 0.84791 0.84675 0.0
Cd32 Cd 0.58775 0.8494 0.8577 0.0
C33 C 0.53318 0.76861 0.83549 0.0
O34 O 0.58861 0.88829 0.82902 0.0
O35 O 0.5387 0.8608 0.84745 0.0
O36 O 0.62607 0.89546 0.88329 0.0
C37 C 0.55695 0.88351 0.83307 0.0
O38 O 0.54333 0.78472 0.81748 0.0
C39 C 0.60642 0.8811 0.89975 0.0
O40 O 0.54664 0.78509 0.85313 0.0
O41 O 0.57782 0.85116 0.89689 0.0
C42 C 0.79118 0.6382 0.1625 0.0
O43 O 0.77689 0.62512 0.14436 0.0
Cd44 Cd 0.71931 0.5716 0.14123 0.0
O45 O 0.77502 0.62328 0.17993 0.0
Cd46 Cd 0.71848 0.57325 0.19376 0.0
C47 C 0.73632 0.51254 0.1702 0.0
O48 O 0.67959 0.57767 0.16615 0.0
O49 O 0.65438 0.53182 0.187 0.0
O50 O 0.72296 0.61734 0.21979 0.0
C51 C 0.65115 0.54932 0.1716 0.0
O52 O 0.72949 0.52303 0.15248 0.0
C53 C 0.71427 0.5973 0.23619 0.0
O54 O 0.73672 0.52766 0.18796 0.0
O55 O 0.70817 0.56571 0.2331 0.0
C56 C 0.087 0.69566 0.5749 0.0
O57 O 0.11033 0.68511 0.57632 0.0
Cd58 Cd 0.1534 0.69318 0.54834 0.0
O59 O 0.08698 0.71371 0.55865 0.0
Cd60 Cd 0.12299 0.74018 0.52531 0.0
C61 C 0.09266 0.65756 0.50572 0.0
O62 O 0.18397 0.75386 0.53773 0.0
O63 O 0.17682 0.75555 0.50342 0.0
O64 O 0.12305 0.79379 0.53679 0.0
C65 C 0.1981 0.76013 0.51907 0.0
O66 O 0.11593 0.65674 0.51855 0.0
C67 C 0.11486 0.80141 0.51862 0.0
O68 O 0.08688 0.68398 0.50558 0.0
O69 O 0.10886 0.77957 0.50333 0.0
C70 C 0.28975 0.11995 0.82351 0.0
O71 O 0.30227 0.11773 0.80534 0.0
Cd72 Cd 0.36105 0.12235 0.80197 0.0
O73 O 0.30711 0.12198 0.84075 0.0
Cd74 Cd 0.36132 0.11848 0.85248 0.0
C75 C 0.41673 0.19872 0.83131 0.0
O76 O 0.36299 0.0789 0.82481 0.0
O77 O 0.41312 0.11172 0.84226 0.0
O78 O 0.32066 0.07265 0.87742 0.0
C79 C 0.39572 0.08689 0.82885 0.0
O80 O 0.40715 0.18229 0.81335 0.0
C81 C 0.34064 0.08531 0.89397 0.0
O82 O 0.40229 0.18264 0.84889 0.0
O83 O 0.37057 0.11419 0.89149 0.0
C84 C 0.5802 0.6978 0.42009 0.0
O85 O 0.54606 0.68669 0.41911 0.0
Cd86 Cd 0.51069 0.6935 0.44716 0.0
O87 O 0.5987 0.7156 0.43636 0.0
Cd88 Cd 0.5881 0.73945 0.4706 0.0
C89 C 0.53464 0.65597 0.48901 0.0
O90 O 0.54089 0.75357 0.45903 0.0
O91 O 0.54845 0.75205 0.4933 0.0
O92 O 0.64082 0.79592 0.46147 0.0
C93 C 0.5324 0.75811 0.47792 0.0
O94 O 0.51087 0.65567 0.47611 0.0
C95 C 0.65699 0.80092 0.47946 0.0
O96 O 0.56701 0.68248 0.48962 0.0
O97 O 0.64185 0.77627 0.49338 0.0
C98 C 0.83398 0.65256 0.83817 0.0
O99 O 0.83493 0.63755 0.85557 0.0
Cd100 Cd 0.83392 0.58188 0.85753 0.0
O101 O 0.83305 0.63851 0.81995 0.0
Cd102 Cd 0.83519 0.58673 0.80453 0.0
C103 C 0.75539 0.52721 0.82843 0.0
O104 O 0.87719 0.58729 0.83131 0.0
O105 O 0.85459 0.54223 0.80987 0.0
O106 O 0.87913 0.6268 0.77836 0.0
C107 C 0.87578 0.5586 0.82545 0.0
O108 O 0.77311 0.53633 0.84612 0.0
C109 C 0.86243 0.60918 0.76175 0.0
O110 O 0.77053 0.54252 0.81078 0.0
O111 O 0.832 0.58111 0.76485 0.0
C112 C 0.1685 0.85242 0.16821 0.0
O113 O 0.18518 0.85536 0.18582 0.0
Cd114 Cd 0.24486 0.86182 0.18835 0.0
O115 O 0.18358 0.8536 0.15021 0.0
Cd116 Cd 0.24206 0.86243 0.13578 0.0
C117 C 0.22961 0.78688 0.15971 0.0
O118 O 0.27999 0.90572 0.16259 0.0
O119 O 0.30675 0.88407 0.14316 0.0
O120 O 0.23587 0.90027 0.10886 0.0
C121 C 0.30912 0.90547 0.15786 0.0
O122 O 0.23869 0.80483 0.17714 0.0
C123 C 0.24599 0.88877 0.09296 0.0
O124 O 0.22534 0.79992 0.1422 0.0
O125 O 0.25319 0.86391 0.09675 0.0
C126 C 0.37405 0.27548 0.426 0.0
O127 O 0.40859 0.28888 0.42598 0.0
Cd128 Cd 0.44327 0.27895 0.45343 0.0
O129 O 0.35494 0.25452 0.44105 0.0
Cd130 Cd 0.36534 0.22855 0.47427 0.0
C131 C 0.41612 0.30912 0.49709 0.0
O132 O 0.4144 0.21745 0.46195 0.0
O133 O 0.40483 0.21451 0.49619 0.0
O134 O 0.31381 0.17219 0.46345 0.0
C135 C 0.42204 0.21077 0.48056 0.0
O136 O 0.44167 0.31124 0.48507 0.0
C137 C 0.29694 0.16552 0.48127 0.0
O138 O 0.38348 0.2834 0.49526 0.0
O139 O 0.31115 0.18912 0.49588 0.0
C140 C 0.11454 0.31122 0.83747 0.0
O141 O 0.11669 0.32556 0.85566 0.0
Cd142 Cd 0.12314 0.3836 0.85934 0.0
O143 O 0.11574 0.32745 0.8201 0.0
Cd144 Cd 0.11942 0.38281 0.80684 0.0
C145 C 0.20194 0.43578 0.8302 0.0
O146 O 0.08097 0.38635 0.83484 0.0
O147 O 0.108 0.43188 0.8138 0.0
O148 O 0.07161 0.34687 0.7813 0.0
C149 C 0.08655 0.41695 0.8295 0.0
O150 O 0.1848 0.42644 0.84804 0.0
C151 C 0.08887 0.36286 0.76443 0.0
O152 O 0.18553 0.42251 0.81243 0.0
O153 O 0.12124 0.38843 0.76706 0.0
C154 C 0.7947 0.10916 0.16915 0.0
O155 O 0.78327 0.10881 0.18811 0.0
Cd156 Cd 0.72717 0.10814 0.19559 0.0
O157 O 0.77547 0.10752 0.15287 0.0
Cd158 Cd 0.71514 0.10074 0.14429 0.0
C159 C 0.7387 0.18104 0.16575 0.0
O160 O 0.68025 0.06278 0.17435 0.0
O161 O 0.65702 0.09112 0.15768 0.0
O162 O 0.70292 0.05253 0.11945 0.0
C163 C 0.65371 0.06858 0.17184 0.0
O164 O 0.73562 0.16579 0.18383 0.0
C165 C 0.69799 0.06681 0.10285 0.0
O166 O 0.73515 0.16445 0.1481 0.0
O167 O 0.70109 0.09743 0.10535 0.0
H168 H 0.18017 0.72877 0.13684 0.0
H169 H 0.16935 0.66761 0.13971 0.0
H170 H 0.25818 0.70279 0.18528 0.0
H171 H 0.26726 0.76305 0.18353 0.0
H172 H 0.20588 0.63742 0.13033 0.0
H173 H 0.1847 0.62111 0.21798 0.0
H174 H 0.18729 0.65886 0.20396 0.0
H175 H 0.22839 0.65905 0.21275 0.0
C176 C 0.19716 0.72324 0.14754 0.0
C177 C 0.22423 0.75043 0.16016 0.0
C178 C 0.19096 0.68833 0.14922 0.0
C179 C 0.21218 0.6802 0.16325 0.0
C180 C 0.24029 0.70785 0.1751 0.0
H181 H 0.25941 0.51032 0.14824 0.0
H182 H 0.25344 0.56355 0.14632 0.0
C183 C 0.24577 0.74242 0.1739 0.0
C184 C 0.20624 0.64331 0.16483 0.0
H185 H 0.20299 0.58191 0.20078 0.0
C186 C 0.20464 0.62509 0.14576 0.0
C187 C 0.20344 0.62645 0.18489 0.0
C188 C 0.20059 0.64228 0.206 0.0
C189 C 0.20228 0.59151 0.14621 0.0
C190 C 0.2034 0.57641 0.16629 0.0
C191 C 0.20297 0.5937 0.18535 0.0
C192 C 0.20693 0.54382 0.16784 0.0
C193 C 0.19833 0.57263 0.12508 0.0
C194 C 0.18424 0.5156 0.18161 0.0
C195 C 0.18855 0.48548 0.18336 0.0
C196 C 0.2152 0.48289 0.17107 0.0
C197 C 0.2381 0.51128 0.15756 0.0
C198 C 0.23445 0.54162 0.15627 0.0
H199 H 0.18361 0.58001 0.11304 0.0
H200 H 0.22587 0.58084 0.11845 0.0
H201 H 0.18331 0.54327 0.12704 0.0
H202 H 0.16307 0.51679 0.19093 0.0
H203 H 0.17063 0.46398 0.19394 0.0
H204 H 0.70438 0.19729 0.54907 0.0
H205 H 0.64457 0.19233 0.5425 0.0
H206 H 0.6624 0.19449 0.47398 0.0
H207 H 0.72182 0.19876 0.48038 0.0
H208 H 0.63277 0.24172 0.52144 0.0
H209 H 0.55915 0.11153 0.47969 0.0
H210 H 0.60096 0.12519 0.49453 0.0
H211 H 0.60238 0.1416 0.46771 0.0
C212 C 0.69532 0.19615 0.5326 0.0
C213 C 0.71782 0.19839 0.51524 0.0
C214 C 0.66117 0.19337 0.52888 0.0
C215 C 0.64883 0.1926 0.50776 0.0
C216 C 0.67098 0.19423 0.4904 0.0
H217 H 0.46913 0.20916 0.45067 0.0
H218 H 0.52356 0.2035 0.45749 0.0
C219 C 0.70506 0.1969 0.4941 0.0
C220 C 0.61406 0.19275 0.50389 0.0
H221 H 0.53131 0.14819 0.47855 0.0
C222 C 0.61045 0.2211 0.51223 0.0
C223 C 0.58511 0.16596 0.49172 0.0
C224 C 0.58686 0.13417 0.48305 0.0
C225 C 0.57895 0.22374 0.50843 0.0
C226 C 0.55004 0.197 0.49624 0.0
C227 C 0.55357 0.16863 0.48789 0.0
C228 C 0.51595 0.1982 0.49202 0.0
C229 C 0.57722 0.25559 0.51706 0.0
C230 C 0.49325 0.19619 0.50913 0.0
C231 C 0.46223 0.19942 0.50531 0.0
C232 C 0.45326 0.20456 0.48428 0.0
C233 C 0.47538 0.20532 0.46706 0.0
C234 C 0.50644 0.20209 0.47091 0.0
H235 H 0.60472 0.27765 0.52147 0.0
H236 H 0.56481 0.26558 0.50505 0.0
H237 H 0.55995 0.24769 0.53174 0.0
H238 H 0.49978 0.19255 0.52549 0.0
H239 H 0.44562 0.19846 0.51891 0.0
H240 H 0.49854 0.72635 0.87045 0.0
H241 H 0.44678 0.66555 0.8701 0.0
H242 H 0.44945 0.66504 0.80068 0.0
H243 H 0.50122 0.7253 0.80082 0.0
H244 H 0.37979 0.6458 0.85109 0.0
H245 H 0.44079 0.56918 0.81539 0.0
H246 H 0.46818 0.61334 0.82635 0.0
H247 H 0.44878 0.60739 0.79982 0.0
C248 C 0.48851 0.71309 0.85512 0.0
C249 C 0.50404 0.73077 0.83567 0.0
C250 C 0.45892 0.67836 0.85495 0.0
C251 C 0.44459 0.66061 0.83537 0.0
C252 C 0.46055 0.6779 0.81598 0.0
H253 H 0.24504 0.47274 0.79573 0.0
H254 H 0.30561 0.52607 0.79709 0.0
C255 C 0.49003 0.71254 0.81612 0.0
C256 C 0.41102 0.62532 0.83504 0.0
H257 H 0.3755 0.53994 0.81677 0.0
C258 C 0.37895 0.62256 0.8438 0.0
C259 C 0.40993 0.59514 0.82533 0.0
C260 C 0.44383 0.59622 0.81636 0.0
C261 C 0.34563 0.59064 0.84272 0.0
C262 C 0.34449 0.56051 0.83292 0.0
C263 C 0.37653 0.56314 0.82423 0.0
C264 C 0.31009 0.52609 0.8318 0.0
C265 C 0.31168 0.58962 0.85161 0.0
C266 C 0.29332 0.50785 0.85079 0.0
C267 C 0.25889 0.47753 0.8501 0.0
C268 C 0.24054 0.46472 0.83035 0.0
C269 C 0.25836 0.48192 0.81119 0.0
C270 C 0.29292 0.51239 0.81193 0.0
H271 H 0.31552 0.61676 0.85406 0.0
H272 H 0.28802 0.57468 0.84067 0.0
H273 H 0.30493 0.57586 0.86742 0.0
H274 H 0.30645 0.5177 0.86625 0.0
H275 H 0.24621 0.46479 0.86516 0.0
H276 H 0.74892 0.47965 0.20452 0.0
H277 H 0.75475 0.42585 0.2037 0.0
H278 H 0.74148 0.42042 0.13469 0.0
H279 H 0.73625 0.47415 0.13523 0.0
H280 H 0.70253 0.35923 0.18881 0.0
H281 H 0.83095 0.40824 0.14219 0.0
H282 H 0.8172 0.43786 0.1543 0.0
H283 H 0.79733 0.41605 0.12921 0.0
C284 C 0.74774 0.46729 0.18914 0.0
C285 C 0.74222 0.48135 0.16994 0.0
C286 C 0.75102 0.43653 0.18871 0.0
C287 C 0.74911 0.41946 0.1691 0.0
C288 C 0.74391 0.4336 0.14994 0.0
H289 H 0.73629 0.21968 0.13116 0.0
H290 H 0.73976 0.27809 0.13199 0.0
C291 C 0.74068 0.46427 0.15033 0.0
C292 C 0.75024 0.38566 0.1687 0.0
H293 H 0.79545 0.34543 0.14699 0.0
C294 C 0.72304 0.35629 0.17984 0.0
C295 C 0.77682 0.38182 0.15679 0.0
C296 C 0.80744 0.41274 0.1451 0.0
C297 C 0.72128 0.32298 0.1791 0.0
C298 C 0.74787 0.31914 0.16721 0.0
C299 C 0.7751 0.34848 0.15606 0.0
C300 C 0.74802 0.28488 0.16645 0.0
C301 C 0.69041 0.29198 0.19061 0.0
C302 C 0.7526 0.26992 0.18543 0.0
C303 C 0.7506 0.23668 0.18504 0.0
C304 C 0.74425 0.21775 0.16559 0.0
C305 C 0.74116 0.23348 0.14641 0.0
C306 C 0.74308 0.26682 0.14685 0.0
H307 H 0.66734 0.29695 0.19405 0.0
H308 H 0.67995 0.2672 0.18096 0.0
H309 H 0.70057 0.28767 0.20621 0.0
H310 H 0.75727 0.2838 0.20065 0.0
H311 H 0.75346 0.22558 0.20009 0.0
H312 H 0.50376 0.76128 0.51678 0.0
H313 H 0.44926 0.76657 0.5234 0.0
H314 H 0.43658 0.77504 0.45507 0.0
H315 H 0.49073 0.76907 0.44825 0.0
H316 H 0.43162 0.81913 0.51285 0.0
H317 H 0.33824 0.69103 0.47265 0.0
H318 H 0.38479 0.70365 0.47957 0.0
H319 H 0.3752 0.72193 0.45602 0.0
C320 C 0.48949 0.76443 0.50315 0.0
C321 C 0.50132 0.76438 0.48196 0.0
C322 C 0.45839 0.7675 0.50697 0.0
C323 C 0.43854 0.77054 0.48971 0.0
C324 C 0.45109 0.77194 0.46859 0.0
H325 H 0.23388 0.77267 0.4807 0.0
H326 H 0.29389 0.77849 0.47398 0.0
C327 C 0.48214 0.76872 0.46473 0.0
C328 C 0.40421 0.77133 0.49384 0.0
H329 H 0.3124 0.72612 0.48407 0.0
C330 C 0.40552 0.79882 0.50659 0.0
C331 C 0.37021 0.74464 0.48574 0.0
C332 C 0.3668 0.71344 0.4729 0.0
C333 C 0.37372 0.80064 0.51115 0.0
C334 C 0.33979 0.77403 0.50296 0.0
C335 C 0.33852 0.74659 0.49022 0.0
C336 C 0.30504 0.77374 0.50748 0.0
C337 C 0.37675 0.83127 0.5244 0.0
C338 C 0.29155 0.76939 0.52859 0.0
C339 C 0.25721 0.76607 0.53251 0.0
C340 C 0.23572 0.7668 0.51534 0.0
C341 C 0.24972 0.77196 0.49428 0.0
C342 C 0.284 0.77528 0.49039 0.0
H343 H 0.40525 0.85378 0.52489 0.0
H344 H 0.35865 0.84106 0.51791 0.0
H345 H 0.36811 0.82213 0.54118 0.0
H346 H 0.30707 0.76746 0.54196 0.0
H347 H 0.2471 0.76196 0.54889 0.0
H348 H 0.45037 0.24199 0.79684 0.0
H349 H 0.50501 0.3006 0.79708 0.0
H350 H 0.50685 0.29888 0.86649 0.0
H351 H 0.45223 0.23992 0.86648 0.0
H352 H 0.52096 0.3664 0.81698 0.0
H353 H 0.60747 0.31184 0.84828 0.0
H354 H 0.56225 0.28386 0.83749 0.0
H355 H 0.56786 0.30177 0.86422 0.0
C356 C 0.46212 0.25413 0.81221 0.0
C357 C 0.44707 0.23603 0.83166 0.0
C358 C 0.49334 0.28769 0.81228 0.0
C359 C 0.51027 0.30377 0.83176 0.0
C360 C 0.49448 0.2866 0.85125 0.0
H361 H 0.7146 0.49107 0.86337 0.0
H362 H 0.65399 0.43866 0.86375 0.0
C363 C 0.46314 0.25301 0.85122 0.0
C364 C 0.54531 0.33774 0.83155 0.0
H365 H 0.63583 0.37415 0.84407 0.0
C366 C 0.54611 0.36818 0.8229 0.0
C367 C 0.57807 0.33982 0.83914 0.0
C368 C 0.57915 0.30757 0.84765 0.0
C369 C 0.57878 0.4009 0.82202 0.0
C370 C 0.6115 0.40297 0.82967 0.0
C371 C 0.61066 0.37249 0.83827 0.0
C372 C 0.64702 0.43648 0.82917 0.0
C373 C 0.57792 0.43312 0.81331 0.0
C374 C 0.66318 0.45284 0.80955 0.0
C375 C 0.69799 0.483 0.80924 0.0
C376 C 0.71732 0.49713 0.82855 0.0
C377 C 0.70062 0.48096 0.84817 0.0
C378 C 0.66593 0.45094 0.84845 0.0
H379 H 0.54972 0.42919 0.81301 0.0
H380 H 0.59552 0.45709 0.82309 0.0
H381 H 0.58851 0.43817 0.79657 0.0
H382 H 0.64932 0.44171 0.79445 0.0
H383 H 0.7101 0.49465 0.79385 0.0
H384 H 0.58655 0.49114 0.18122 0.0
H385 H 0.52834 0.46996 0.16313 0.0
H386 H 0.57874 0.555 0.11669 0.0
H387 H 0.63762 0.57715 0.13524 0.0
H388 H 0.51987 0.55245 0.13221 0.0
H389 H 0.48063 0.41593 0.10978 0.0
H390 H 0.49684 0.42155 0.13693 0.0
H391 H 0.52758 0.44835 0.11575 0.0
C392 C 0.58548 0.50511 0.16698 0.0
C393 C 0.61654 0.53583 0.15969 0.0
C394 C 0.55226 0.49265 0.1564 0.0
C395 C 0.54938 0.51025 0.1381 0.0
C396 C 0.58054 0.54071 0.13051 0.0
H397 H 0.31367 0.396 0.13827 0.0
H398 H 0.37104 0.42359 0.11793 0.0
C399 C 0.61396 0.55336 0.14123 0.0
C400 C 0.51263 0.49948 0.12945 0.0
H401 H 0.43046 0.42362 0.12716 0.0
C402 C 0.50036 0.5244 0.13018 0.0
C403 C 0.48716 0.46327 0.12565 0.0
C404 C 0.49899 0.43595 0.12171 0.0
C405 C 0.46294 0.51317 0.13109 0.0
C406 C 0.43776 0.4763 0.13203 0.0
C407 C 0.44981 0.45193 0.12737 0.0
C408 C 0.4017 0.46268 0.14247 0.0
C409 C 0.451 0.5408 0.1328 0.0
C410 C 0.40001 0.4752 0.16309 0.0
C411 C 0.36746 0.45965 0.17465 0.0
C412 C 0.33609 0.43076 0.16601 0.0
C413 C 0.33759 0.41817 0.14535 0.0
C414 C 0.3702 0.43406 0.13365 0.0
H415 H 0.46802 0.56381 0.12218 0.0
H416 H 0.4218 0.52983 0.12833 0.0
H417 H 0.4551 0.55098 0.14957 0.0
H418 H 0.42426 0.49619 0.17068 0.0
H419 H 0.36712 0.46974 0.19058 0.0
H420 H 0.10697 0.60419 0.4959 0.0
H421 H 0.06451 0.54587 0.48147 0.0
H422 H -0.0157 0.57933 0.4713 0.0
H423 H 0.02677 0.63806 0.48614 0.0
H424 H 0.961 0.52323 0.49808 0.0
H425 H 0.01874 0.49505 0.42576 0.0
H426 H 0.05182 0.51286 0.44704 0.0
H427 H 0.03435 0.53978 0.43539 0.0
C428 C 0.08067 0.59955 0.49007 0.0
C429 C 0.06999 0.62557 0.49251 0.0
C430 C 0.05654 0.56623 0.48152 0.0
C431 C 0.0213 0.55825 0.4751 0.0
C432 C 0.01151 0.58505 0.476 0.0
H433 H 0.83474 0.344 0.48269 0.0
H434 H 0.87176 0.40424 0.46849 0.0
C435 C 0.03577 0.61857 0.48451 0.0
C436 C -0.00692 0.52052 0.4719 0.0
H437 H -0.02274 0.44345 0.4472 0.0
C438 C 0.96394 0.50593 0.48654 0.0
C439 C -0.00273 0.49793 0.45703 0.0
C440 C 0.02708 0.51233 0.44029 0.0
C441 C 0.94036 0.46917 0.48777 0.0
C442 C 0.94538 0.44632 0.47349 0.0
C443 C 0.97346 0.46099 0.45811 0.0
C444 C 0.92353 0.40717 0.47584 0.0
C445 C 0.91183 0.45504 0.50537 0.0
C446 C 0.94043 0.38784 0.48294 0.0
C447 C 0.91928 0.35303 0.4906 0.0
C448 C 0.88106 0.33749 0.49148 0.0
C449 C 0.86422 0.35563 0.4824 0.0
C450 C 0.8853 0.39003 0.47435 0.0
H451 H 0.91685 0.47553 0.51776 0.0
H452 H 0.8845 0.44633 0.49822 0.0
H453 H 0.91116 0.4318 0.5135 0.0
H454 H 0.96994 0.40057 0.48412 0.0
H455 H 0.93287 0.33958 0.49755 0.0
H456 H 0.46666 0.11813 0.81662 0.0
H457 H 0.49916 0.08869 0.80235 0.0
H458 H 0.39845 -0.01175 0.80275 0.0
H459 H 0.3656 0.01818 0.81566 0.0
H460 H 0.50679 0.04503 0.82581 0.0
H461 H 0.44337 0.97312 0.75075 0.0
H462 H 0.43476 0.00741 0.76114 0.0
H463 H 0.40856 0.96216 0.77061 0.0
C464 C 0.45139 0.08993 0.81303 0.0
C465 C 0.41386 0.07017 0.81742 0.0
C466 C 0.46988 0.07319 0.80477 0.0
C467 C 0.45129 0.03627 0.80133 0.0
C468 C 0.41329 0.01688 0.80464 0.0
H469 H 0.48743 0.87249 0.8349 0.0
H470 H 0.46509 0.91087 0.82035 0.0
C471 C 0.39458 0.03387 0.81231 0.0
C472 C 0.47234 0.0173 0.79867 0.0
H473 H 0.47088 0.946 0.77387 0.0
C474 C 0.49974 0.02421 0.81394 0.0
C475 C 0.46314 -0.00999 0.78326 0.0
C476 C 0.43609 0.98308 0.7654 0.0
C477 C 0.51622 0.00298 0.81526 0.0
C478 C 0.50495 0.97405 0.80096 0.0
C479 C 0.47922 0.96824 0.78484 0.0
C480 C 0.5161 0.94718 0.80484 0.0
C481 C 0.54376 0.01004 0.83291 0.0
C482 C 0.55182 0.95458 0.80031 0.0
C483 C 0.56475 0.93279 0.80867 0.0
C484 C 0.54209 0.9036 0.82178 0.0
C485 C 0.5056 0.89505 0.82506 0.0
C486 C 0.49268 0.91668 0.81659 0.0
H487 H 0.54827 0.03277 0.84334 0.0
H488 H 0.53441 -0.01398 0.84316 0.0
H489 H 0.57033 0.01601 0.82567 0.0
H490 H 0.57023 0.97826 0.79137 0.0
H491 H 0.59293 0.93983 0.80577 0.0
H492 H 0.57847 0.64159 0.51557 0.0
H493 H 0.5623 0.58444 0.53269 0.0
H494 H 0.45208 0.54046 0.50872 0.0
H495 H 0.46745 0.59713 0.49226 0.0
H496 H 0.4547 0.51412 0.54932 0.0
H497 H 0.55287 0.50653 0.49198 0.0
H498 H 0.57114 0.54298 0.51069 0.0
H499 H 0.54023 0.54072 0.48992 0.0
C500 C 0.55063 0.61992 0.51431 0.0
C501 C 0.5245 0.62373 0.50212 0.0
C502 C 0.54146 0.58729 0.52407 0.0
C503 C 0.50618 0.55801 0.52158 0.0
C504 C 0.47949 0.56263 0.5108 0.0
H505 H 0.37566 0.3418 0.5042 0.0
H506 H 0.39886 0.40181 0.5186 0.0
C507 C 0.48849 0.59509 0.50121 0.0
C508 C 0.49764 0.52142 0.52743 0.0
H509 H 0.51241 0.45484 0.50976 0.0
C510 C 0.46781 0.50121 0.54108 0.0
C511 C 0.51482 0.50466 0.51671 0.0
C512 C 0.54639 0.52462 0.5014 0.0
C513 C 0.45345 0.4643 0.54334 0.0
C514 C 0.469 0.4472 0.53136 0.0
C515 C 0.50044 0.46788 0.51898 0.0
C516 C 0.45103 0.40793 0.52884 0.0
C517 C 0.42123 0.44397 0.55807 0.0
C518 C 0.47201 0.39081 0.53035 0.0
C519 C 0.45914 0.35696 0.52157 0.0
C520 C 0.42476 0.33935 0.51151 0.0
C521 C 0.4021 0.35473 0.51207 0.0
C522 C 0.41533 0.38901 0.52045 0.0
H523 H 0.42211 0.46077 0.57187 0.0
H524 H 0.39561 0.43629 0.54902 0.0
H525 H 0.42035 0.41949 0.56439 0.0
H526 H 0.49957 0.40478 0.53674 0.0
H527 H 0.47703 0.3455 0.52139 0.0
H528 H 0.8826 0.50135 0.81423 0.0
H529 H 0.9173 0.47798 0.83278 0.0
H530 H 0.94691 0.55749 0.88248 0.0
H531 H 0.9129 0.58184 0.86349 0.0
H532 H 0.00478 0.55632 0.86922 0.0
H533 H 0.90218 0.41775 0.88443 0.0
H534 H 0.89699 0.42671 0.8569 0.0
H535 H 0.88936 0.45104 0.87808 0.0
C536 C 0.89607 0.51358 0.82924 0.0
C537 C 0.89519 0.54344 0.83737 0.0
C538 C 0.91549 0.49989 0.84004 0.0
C539 C 0.93383 0.51533 0.85938 0.0
C540 C 0.9325 0.54486 0.86776 0.0
H541 H 0.05041 0.39763 0.86802 0.0
H542 H 0.01908 0.42557 0.8861 0.0
C543 C 0.91327 0.55882 0.85683 0.0
C544 C 0.95823 0.50329 0.8688 0.0
H545 H 0.96312 0.42714 0.87189 0.0
C546 C -0.00442 0.52811 0.87063 0.0
C547 C 0.94636 0.46675 0.87178 0.0
C548 C 0.90641 0.43921 0.87296 0.0
C549 C 0.0216 0.51684 0.87185 0.0
C550 C 0.00981 0.48006 0.8704 0.0
C551 C 0.97238 0.45544 0.87218 0.0
C552 C 0.0342 0.46706 0.86223 0.0
C553 C 0.0615 0.54451 0.87312 0.0
C554 C 0.05323 0.48117 0.84289 0.0
C555 C 0.07121 0.46549 0.83267 0.0
C556 C 0.06985 0.43486 0.84132 0.0
C557 C 0.05163 0.42113 0.86094 0.0
C558 C 0.03396 0.43717 0.87135 0.0
H559 H 0.06535 0.56651 0.88402 0.0
H560 H 0.07853 0.53309 0.87902 0.0
H561 H 0.07125 0.55624 0.85692 0.0
H562 H 0.05264 0.50328 0.83501 0.0
H563 H 0.0849 0.47655 0.81752 0.0
H564 H 0.32065 0.9503 0.19177 0.0
H565 H 0.37659 0.98216 0.21338 0.0
H566 H 0.42732 0.93414 0.17589 0.0
H567 H 0.37196 0.90237 0.15433 0.0
H568 H 0.43894 0.93919 0.225 0.0
H569 H 0.46945 0.06483 0.18248 0.0
H570 H 0.426 0.03801 0.19547 0.0
H571 H 0.43664 0.02248 0.1712 0.0
C572 C 0.3437 0.94641 0.18826 0.0
C573 C 0.34219 0.92421 0.17121 0.0
C574 C 0.3754 0.96438 0.2007 0.0
C575 C 0.40576 0.96021 0.19623 0.0
C576 C 0.40387 0.93728 0.17968 0.0
H577 H 0.60516 -0.00056 0.17912 0.0
H578 H 0.54618 0.97664 0.19692 0.0
C579 C 0.3724 0.91948 0.16724 0.0
C580 C 0.44136 0.98262 0.20658 0.0
H581 H 0.51871 0.05993 0.19564 0.0
C582 C 0.45636 0.96615 0.21932 0.0
C583 C 0.4636 0.01801 0.19965 0.0
C584 C 0.44835 0.03713 0.18646 0.0
C585 C 0.49412 0.98279 0.2231 0.0
C586 C 0.51713 0.01591 0.21316 0.0
C587 C 0.50134 0.03426 0.20302 0.0
C588 C 0.55616 0.02817 0.20853 0.0
C589 C 0.50899 0.96374 0.2366 0.0
C590 C 0.58188 0.06464 0.20924 0.0
C591 C 0.61482 0.07773 0.19811 0.0
C592 C 0.62296 0.05439 0.1868 0.0
C593 C 0.59923 0.01771 0.18791 0.0
C594 C 0.56574 0.00469 0.19842 0.0
H595 H 0.49102 0.95103 0.25073 0.0
H596 H 0.5091 0.94213 0.22694 0.0
H597 H 0.53716 0.98201 0.24239 0.0
H598 H 0.57522 0.08329 0.2169 0.0
H599 H 0.63317 0.1062 0.19749 0.0
H600 H 0.26072 0.40492 0.27651 0.0
H601 H 0.27916 0.38793 0.30996 0.0
H602 H 0.23384 0.28029 0.28668 0.0
H603 H 0.21618 0.29723 0.25304 0.0
H604 H 0.2443 0.33737 0.34222 0.0
H605 H 0.34105 0.31005 0.29613 0.0
H606 H 0.3183 0.33216 0.28434 0.0
H607 H 0.29445 0.28455 0.28733 0.0
C608 C 0.25417 0.37751 0.27866 0.0
C609 C 0.23747 0.35253 0.26201 0.0
C610 C 0.26473 0.36784 0.29778 0.0
C611 C 0.25865 0.33306 0.30058 0.0
C612 C 0.23962 0.3075 0.28462 0.0
H613 H 0.30058 0.24633 0.418 0.0
H614 H 0.27128 0.26034 0.38837 0.0
C615 C 0.22937 0.31719 0.26545 0.0
C616 C 0.2744 0.32415 0.31945 0.0
H617 H 0.33475 0.29596 0.33319 0.0
C618 C 0.26406 0.32829 0.34029 0.0
C619 C 0.30065 0.31288 0.31689 0.0
C620 C 0.31459 0.30995 0.29499 0.0
C621 C 0.27905 0.32113 0.35865 0.0
C622 C 0.30459 0.30898 0.35603 0.0
C623 C 0.31498 0.30502 0.33518 0.0
C624 C 0.32193 0.30121 0.37458 0.0
C625 C 0.26812 0.32753 0.38063 0.0
C626 C 0.36018 0.31894 0.37645 0.0
C627 C 0.37703 0.31067 0.39316 0.0
C628 C 0.35598 0.28443 0.40842 0.0
C629 C 0.31762 0.26681 0.4066 0.0
C630 C 0.30078 0.27497 0.38976 0.0
H631 H 0.25622 0.3455 0.37985 0.0
H632 H 0.24714 0.30178 0.3875 0.0
H633 H 0.29191 0.33927 0.39176 0.0
H634 H 0.37706 0.33919 0.36488 0.0
H635 H 0.4066 0.32486 0.39408 0.0
H636 H 0.9242 0.25932 0.57741 0.0
H637 H 0.96871 0.27567 0.60669 0.0
H638 H 0.91204 0.31947 0.64246 0.0
H639 H 0.86803 0.30404 0.61316 0.0
H640 H -0.01404 0.36326 0.6429 0.0
H641 H 0.95178 0.2252 0.66417 0.0
H642 H 0.96514 0.23753 0.63665 0.0
H643 H 0.92356 0.23471 0.64648 0.0
C644 C 0.92115 0.27236 0.59153 0.0
C645 C 0.89239 0.2802 0.59297 0.0
C646 C 0.94654 0.28154 0.6083 0.0
C647 C 0.94341 0.29833 0.62691 0.0
C648 C 0.91497 0.30647 0.62827 0.0
H649 H 0.01853 0.3131 0.75556 0.0
H650 H -0.0123 0.29839 0.72076 0.0
C651 C 0.88975 0.29754 0.6115 0.0
C652 C 0.96959 0.30763 0.64508 0.0
H653 H -0.00075 0.27159 0.68387 0.0
C654 C -0.01091 0.34328 0.65179 0.0
C655 C 0.97348 0.28146 0.65669 0.0
C656 C 0.95219 0.24253 0.65081 0.0
C657 C 0.01156 0.35337 0.67014 0.0
C658 C 0.01527 0.32716 0.68186 0.0
C659 C -0.00343 0.29167 0.67478 0.0
C660 C 0.03537 0.33533 0.70264 0.0
C661 C 0.0297 0.39169 0.67738 0.0
C662 C 0.07272 0.36061 0.70404 0.0
C663 C 0.09046 0.36939 0.72407 0.0
C664 C 0.07121 0.35269 0.74297 0.0
C665 C 0.03417 0.32656 0.74135 0.0
C666 C 0.01648 0.31803 0.72143 0.0
H667 H 0.0177 0.40663 0.66939 0.0
H668 H 0.02729 0.39348 0.69509 0.0
H669 H 0.05919 0.40492 0.67325 0.0
H670 H 0.08806 0.37376 0.68969 0.0
H671 H 0.11908 0.38941 0.72476 0.0
H672 H 0.56828 0.85905 0.93772 0.0
H673 H 0.58396 0.89065 0.9723 0.0
H674 H 0.68187 0.97565 0.94421 0.0
H675 H 0.6667 0.9442 0.90979 0.0
H676 H 0.69376 0.95468 0.98429 0.0
H677 H 0.57612 0.97968 0.98632 0.0
H678 H 0.56378 0.93377 0.98296 0.0
H679 H 0.58937 0.96541 0.96226 0.0
C680 C 0.59318 0.88443 0.93894 0.0
C681 C 0.61615 0.89918 0.92098 0.0
C682 C 0.60197 0.90256 0.95866 0.0
C683 C 0.63379 0.93578 0.96073 0.0
C684 C 0.65709 0.95015 0.94295 0.0
H685 H 0.68751 0.09088 0.064 0.0
H686 H 0.67299 0.05976 0.02926 0.0
C687 C 0.64834 0.93212 0.92327 0.0
C688 C 0.64313 0.95558 0.98142 0.0
H689 H 0.6131 -0.00499 0.0177 0.0
C690 C 0.67615 0.96352 0.9916 0.0
C691 C 0.62042 0.96764 0.99073 0.0
C692 C 0.58559 0.96154 0.97995 0.0
C693 C 0.68679 0.98268 0.01102 0.0
C694 C 0.6635 -0.00629 0.0207 0.0
C695 C 0.63078 -0.0137 0.01034 0.0
C696 C 0.67244 0.01264 0.0417 0.0
C697 C 0.72319 -0.00856 0.02079 0.0
C698 C 0.67647 -0.00369 0.06024 0.0
C699 C 0.68484 0.01401 0.08003 0.0
C700 C 0.68906 0.04834 0.08175 0.0
C701 C 0.68455 0.06451 0.0632 0.0
C702 C 0.67621 0.04676 0.04336 0.0
H703 H 0.74186 -0.00996 0.00865 0.0
H704 H 0.73676 0.01844 0.02806 0.0
H705 H 0.71878 0.9719 0.03367 0.0
H706 H 0.67289 0.96971 0.05945 0.0
H707 H 0.68787 0.00066 0.09402 0.0
H708 H 0.5478 0.65487 0.38534 0.0
H709 H 0.57702 0.64019 0.35624 0.0
H710 H 0.68268 0.70717 0.38492 0.0
H711 H 0.65353 0.72148 0.41451 0.0
H712 H 0.62623 0.68423 0.32711 0.0
H713 H 0.68553 0.61551 0.3744 0.0
H714 H 0.65189 0.62558 0.38541 0.0
H715 H 0.69888 0.65983 0.38333 0.0
C716 C 0.57726 0.66645 0.38557 0.0
C717 C 0.59829 0.68933 0.40232 0.0
C718 C 0.59393 0.65798 0.36889 0.0
C719 C 0.63199 0.67217 0.36853 0.0
C720 C 0.6532 0.69527 0.38511 0.0
H721 H 0.73808 0.6657 0.24887 0.0
H722 H 0.72286 0.68593 0.28209 0.0
C723 C 0.63649 0.70363 0.40192 0.0
C724 C 0.64914 0.66355 0.35028 0.0
H725 H 0.69997 0.6241 0.33722 0.0
C726 C 0.64246 0.67118 0.32933 0.0
C727 C 0.67002 0.64623 0.3532 0.0
C728 C 0.67681 0.63598 0.37527 0.0
C729 C 0.6556 0.66161 0.3112 0.0
C730 C 0.67694 0.64474 0.31409 0.0
C731 C 0.68392 0.63733 0.33506 0.0
C732 C 0.6906 0.63312 0.29544 0.0
C733 C 0.64532 0.66855 0.28912 0.0
C734 C 0.6794 0.59691 0.29249 0.0
C735 C 0.68861 0.58531 0.27365 0.0
C736 C 0.709 0.60974 0.25741 0.0
C737 C 0.72189 0.64618 0.26096 0.0
C738 C 0.71307 0.65778 0.27989 0.0
H739 H 0.62137 0.67291 0.28975 0.0
H740 H 0.66864 0.69287 0.28229 0.0
H741 H 0.63881 0.64601 0.27804 0.0
H742 H 0.66224 0.57744 0.30436 0.0
H743 H 0.67837 0.55708 0.27139 0.0
H744 H 0.08278 0.66315 0.61345 0.0
H745 H 0.03726 0.64798 0.64176 0.0
H746 H -0.01738 0.69159 0.60378 0.0
H747 H 0.02864 0.70769 0.57549 0.0
H748 H -0.01048 0.71289 0.64499 0.0
H749 H 0.93332 0.56724 0.64296 0.0
H750 H -0.01806 0.59008 0.64661 0.0
H751 H 0.96278 0.59619 0.62206 0.0
C752 C 0.06104 0.66943 0.61103 0.0
C753 C 0.05933 0.68653 0.59213 0.0
C754 C 0.03482 0.66046 0.62719 0.0
C755 C 0.00602 0.6679 0.6247 0.0
C756 C 0.00441 0.68531 0.60597 0.0
H757 H 0.83285 0.57851 0.72273 0.0
H758 H 0.8629 0.59412 0.68744 0.0
C759 C 0.03078 0.69451 0.58982 0.0
C760 C -0.0214 0.65877 0.64211 0.0
H761 H 0.92158 0.59095 0.67523 0.0
C762 C 0.97426 0.68612 0.65142 0.0
C763 C 0.95792 0.6237 0.65016 0.0
C764 C 0.95889 0.59257 0.63976 0.0
C765 C 0.95145 0.67973 0.66933 0.0
C766 C 0.93324 0.64526 0.67852 0.0
C767 C 0.93593 0.61751 0.66843 0.0
C768 C 0.91351 0.63788 0.69939 0.0
C769 C 0.9473 0.71007 0.67825 0.0
C770 C 0.93186 0.65729 0.71783 0.0
C771 C 0.91471 0.64864 0.73789 0.0
C772 C 0.87897 0.61998 0.74007 0.0
C773 C 0.86036 0.60078 0.72158 0.0
C774 C 0.87752 0.60965 0.70141 0.0
H775 H 0.95123 0.72966 0.66546 0.0
H776 H 0.91999 0.70048 0.68566 0.0
H777 H 0.96853 0.7242 0.69073 0.0
H778 H 0.95997 0.67847 0.71685 0.0
H779 H 0.92995 0.66381 0.75182 0.0
H780 H 0.2847 0.88364 0.05908 0.0
H781 H 0.29975 0.91691 0.0252 0.0
H782 H 0.23411 0.96398 0.04411 0.0
H783 H 0.22017 0.9319 0.07833 0.0
H784 H 0.2613 0.91925 0.99203 0.0
H785 H 0.32913 0.05154 0.03135 0.0
H786 H 0.31551 0.01093 0.04608 0.0
H787 H 0.28254 0.0248 0.03973 0.0
C788 C 0.27331 0.90092 0.05595 0.0
C789 C 0.25159 0.90547 0.07146 0.0
C790 C 0.28198 0.91997 0.0366 0.0
C791 C 0.26888 0.94371 0.03234 0.0
C792 C 0.24556 0.94678 0.04733 0.0
H793 H 0.27327 0.03207 0.90561 0.0
H794 H 0.25579 -0.00166 0.93922 0.0
C795 C 0.23734 0.92817 0.0668 0.0
C796 C 0.2799 0.96543 0.01232 0.0
H797 H 0.31847 0.0508 0.99366 0.0
C798 C 0.27393 0.94802 0.9924 0.0
C799 C 0.29704 0.00307 0.01278 0.0
C800 C 0.3068 0.02372 0.03364 0.0
C801 C 0.2841 0.9671 0.97295 0.0
C802 C 0.29967 0.00462 0.97337 0.0
C803 C 0.30613 0.02205 0.9933 0.0
C804 C 0.30987 0.02631 0.95335 0.0
C805 C 0.27886 0.94685 0.95222 0.0
C806 C 0.34567 0.05454 0.95048 0.0
C807 C 0.35556 0.07445 0.93143 0.0
C808 C 0.32986 0.06632 0.91484 0.0
C809 C 0.29382 0.03869 0.91798 0.0
C810 C 0.28385 0.01917 0.93713 0.0
H811 H 0.27767 0.92089 0.95513 0.0
H812 H 0.25259 0.9413 0.94471 0.0
H813 H 0.30127 0.96235 0.94065 0.0
H814 H 0.36617 0.06076 0.96285 0.0
H815 H 0.38352 0.09558 0.92947 0.0
H816 H 0.82643 0.10675 0.13121 0.0
H817 H 0.89107 0.12654 0.12509 0.0
H818 H 0.91192 0.1453 0.19323 0.0
H819 H 0.84746 0.12486 0.19957 0.0
H820 H 0.93988 0.19387 0.13376 0.0
H821 H -0.02044 0.10736 0.17819 0.0
H822 H 0.93251 0.09366 0.17172 0.0
H823 H 0.9539 0.12073 0.19512 0.0
C824 C 0.84461 0.11416 0.14497 0.0
C825 C 0.83195 0.11474 0.16585 0.0
C826 C 0.88148 0.12529 0.14144 0.0
C827 C 0.90623 0.13708 0.15871 0.0
C828 C 0.8932 0.13548 0.17972 0.0
H829 H 0.11588 0.29102 0.19328 0.0
H830 H 0.05481 0.23976 0.18939 0.0
C831 C 0.85633 0.12414 0.18329 0.0
C832 C 0.94597 0.15719 0.15461 0.0
H833 H 0.0276 0.16907 0.17329 0.0
C834 C 0.95913 0.18793 0.14189 0.0
C835 C 0.97094 0.14941 0.16529 0.0
C836 C 0.95843 0.11575 0.17816 0.0
C837 C -0.00352 0.21261 0.14094 0.0
C838 C 0.02128 0.20592 0.15273 0.0
C839 C 0.00839 0.1741 0.16436 0.0
C840 C 0.05986 0.23361 0.15518 0.0
C841 C 0.00875 0.24681 0.1286 0.0
C842 C 0.08309 0.24647 0.13729 0.0
C843 C 0.11786 0.27608 0.13938 0.0
C844 C 0.13 0.29298 0.15946 0.0
C845 C 0.10727 0.2788 0.17756 0.0
C846 C 0.07246 0.24938 0.17541 0.0
H847 H -0.01462 0.25034 0.12347 0.0
H848 H 0.02754 0.2701 0.13854 0.0
H849 H 0.02374 0.24661 0.11394 0.0
H850 H 0.07393 0.23425 0.12162 0.0
H851 H 0.13494 0.28605 0.12519 0.0
H852 H 0.83573 0.11747 0.55121 0.0
H853 H 0.82069 0.05557 0.54649 0.0
H854 H 0.82051 0.06775 0.47753 0.0
H855 H 0.83642 0.13001 0.48214 0.0
H856 H 0.75673 0.00895 0.52874 0.0
H857 H 0.86821 0.00621 0.48291 0.0
H858 H 0.87403 0.04568 0.4965 0.0
H859 H 0.85254 0.0338 0.47043 0.0
C860 C 0.83352 0.10727 0.53501 0.0
C861 C 0.83698 0.12852 0.51704 0.0
C862 C 0.82496 0.07188 0.53235 0.0
C863 C 0.81964 0.057 0.51167 0.0
C864 C 0.82524 0.07878 0.49363 0.0
H865 H 0.69443 0.85686 0.45227 0.0
H866 H 0.73973 0.91759 0.462 0.0
C867 C 0.83413 0.11436 0.49629 0.0
C868 C 0.80274 0.01786 0.50914 0.0
H869 H 0.80968 0.95238 0.48221 0.0
C870 C 0.76869 -0.00349 0.51893 0.0
C871 C 0.81824 0.00169 0.49621 0.0
C872 C 0.85544 0.02302 0.48608 0.0
C873 C 0.74886 0.95972 0.51535 0.0
C874 C 0.76381 0.94364 0.5019 0.0
C875 C 0.79839 0.96476 0.49261 0.0
C876 C 0.74203 0.90571 0.49562 0.0
C877 C 0.71116 0.93872 0.52505 0.0
C878 C 0.72953 0.87854 0.51113 0.0
C879 C 0.70336 0.84369 0.50565 0.0
C880 C 0.6895 0.83555 0.48454 0.0
C881 C 0.70429 0.8623 0.46872 0.0
C882 C 0.73032 0.89704 0.47423 0.0
H883 H 0.70099 0.95624 0.53155 0.0
H884 H 0.6913 0.92067 0.51289 0.0
H885 H 0.71201 0.92219 0.53848 0.0
H886 H 0.73871 0.88462 0.52768 0.0
H887 H 0.69269 0.82362 0.51816 0.0
H888 H 0.82369 0.68803 0.80482 0.0
H889 H 0.81358 0.73889 0.80715 0.0
H890 H 0.83163 0.74428 0.8758 0.0
H891 H 0.84109 0.69286 0.87372 0.0
H892 H 0.76634 0.73676 0.8653 0.0
H893 H 0.87219 0.84539 0.81642 0.0
H894 H 0.85123 0.80406 0.80198 0.0
H895 H 0.87713 0.80843 0.82603 0.0
C896 C 0.82626 0.70044 0.82037 0.0
C897 C 0.83265 0.68609 0.83913 0.0
C898 C 0.82094 0.72985 0.82163 0.0
C899 C 0.8224 0.74567 0.84161 0.0
C900 C 0.83072 0.73259 0.86021 0.0
H901 H 0.70279 0.86052 0.86568 0.0
H902 H 0.75164 0.84586 0.87076 0.0
C903 C 0.83585 0.70307 0.85899 0.0
C904 C 0.80883 0.77129 0.84346 0.0
H905 H 0.81462 0.84563 0.82037 0.0
C906 C 0.77746 0.76112 0.85596 0.0
C907 C 0.82336 0.80289 0.83116 0.0
C908 C 0.85807 0.816 0.81832 0.0
C909 C 0.75852 0.78018 0.85525 0.0
C910 C 0.77193 0.81077 0.84204 0.0
C911 C 0.80451 0.82218 0.83049 0.0
C912 C 0.7497 0.82805 0.83798 0.0
C913 C 0.72287 0.76581 0.8674 0.0
C914 C 0.73433 0.82508 0.8175 0.0
C915 C 0.70675 0.83377 0.81447 0.0
C916 C 0.69398 0.84526 0.83195 0.0
C917 C 0.71161 0.85106 0.85201 0.0
C918 C 0.73952 0.84278 0.85495 0.0
H919 H 0.71331 0.73852 0.87366 0.0
H920 H 0.72656 0.78336 0.88134 0.0
H921 H 0.70114 0.76521 0.8569 0.0
H922 H 0.74196 0.81383 0.80419 0.0
H923 H 0.69392 0.82931 0.79878 0.0
H924 H 0.83955 0.67095 0.12956 0.0
H925 H 0.90237 0.72005 0.13257 0.0
H926 H 0.88713 0.72775 0.20064 0.0
H927 H 0.8246 0.67847 0.19794 0.0
H928 H 0.93601 0.79273 0.15037 0.0
H929 H 0.9688 0.70012 0.19528 0.0
H930 H 0.92705 0.68482 0.18013 0.0
H931 H 0.93201 0.70538 0.20599 0.0
C932 C 0.8494 0.6834 0.14512 0.0
C933 C 0.82742 0.6704 0.1636 0.0
C934 C 0.88516 0.71153 0.14677 0.0
C935 C 0.89927 0.72703 0.16687 0.0
C936 C 0.87669 0.7157 0.18506 0.0
H937 H 0.12737 0.84757 0.20348 0.0
H938 H 0.06155 0.82537 0.20443 0.0
C939 C 0.84106 0.68749 0.18347 0.0
C940 C 0.93862 0.75212 0.16921 0.0
H941 H 0.01674 0.75801 0.18952 0.0
C942 C 0.95374 0.78541 0.15907 0.0
C943 C 0.96144 0.74222 0.18055 0.0
C944 C 0.9467 0.70612 0.19099 0.0
C945 C -0.0085 0.80912 0.15984 0.0
C946 C 0.01436 0.79883 0.17078 0.0
C947 C -0.001 0.76591 0.18135 0.0
C948 C 0.05457 0.81979 0.16986 0.0
C949 C 0.00662 0.84477 0.14888 0.0
C950 C 0.07244 0.82481 0.15005 0.0
C951 C 0.11 0.8374 0.14942 0.0
C952 C 0.13019 0.84479 0.16865 0.0
C953 C 0.11255 0.84183 0.1884 0.0
C954 C 0.075 0.82933 0.18898 0.0
H955 H -0.01448 0.85308 0.14734 0.0
H956 H 0.03043 0.86564 0.15783 0.0
H957 H 0.0158 0.84286 0.13242 0.0
H958 H 0.05703 0.81686 0.13514 0.0
H959 H 0.12279 0.83952 0.13394 0.0
H960 H 0.11562 0.84694 0.54921 0.0
H961 H 0.13087 0.90883 0.54416 0.0
H962 H 0.13535 0.89701 0.47541 0.0
H963 H 0.1192 0.83474 0.48033 0.0
H964 H 0.196 0.95533 0.52766 0.0
H965 H 0.0876 0.95875 0.47867 0.0
H966 H 0.08082 0.91913 0.49253 0.0
H967 H 0.1041 0.93126 0.46702 0.0
C968 C 0.11881 0.85722 0.53297 0.0
C969 C 0.11651 0.83608 0.51517 0.0
C970 C 0.12748 0.8926 0.53011 0.0
C971 C 0.13411 0.90758 0.50942 0.0
C972 C 0.12961 0.88589 0.4915 0.0
H973 H 0.26257 0.11061 0.45293 0.0
H974 H 0.21736 0.04916 0.46122 0.0
C975 C 0.12058 0.85031 0.49434 0.0
C976 C 0.15125 0.94674 0.50693 0.0
H977 H 0.14588 0.01268 0.4795 0.0
C978 C 0.18465 0.96793 0.51747 0.0
C979 C 0.13659 0.9631 0.49347 0.0
C980 C 0.10012 0.9419 0.48244 0.0
C981 C 0.2046 0.00478 0.51424 0.0
C982 C 0.19042 0.0211 0.50038 0.0
C983 C 0.15656 0.00011 0.49022 0.0
C984 C 0.21225 0.05932 0.4948 0.0
C985 C 0.24161 0.02565 0.52483 0.0
C986 C 0.22317 0.08572 0.51074 0.0
C987 C 0.24928 0.12094 0.50609 0.0
C988 C 0.26466 0.13027 0.48538 0.0
C989 C 0.2515 0.10425 0.46909 0.0
C990 C 0.22553 0.06911 0.47377 0.0
H991 H 0.25159 0.00804 0.53147 0.0
H992 H 0.26217 0.04431 0.5132 0.0
H993 H 0.2397 0.04152 0.53832 0.0
H994 H 0.21276 0.07875 0.52701 0.0
H995 H 0.25865 0.14042 0.51894 0.0
H996 H 0.09561 0.26694 0.80276 0.0
H997 H 0.10321 0.21466 0.79881 0.0
H998 H 0.13868 0.22531 0.86498 0.0
H999 H 0.13022 0.27697 0.86923 0.0
H1000 H 0.17061 0.22472 0.80244 0.0
H1001 H 0.08206 0.11841 0.85903 0.0
H1002 H 0.07322 0.15392 0.8514 0.0
H1003 H 0.1058 0.1607 0.87231 0.0
C1004 C 0.10411 0.25757 0.81664 0.0
C1005 C 0.11295 0.27637 0.83621 0.0
C1006 C 0.10815 0.22755 0.81439 0.0
C1007 C 0.12124 0.21594 0.83163 0.0
C1008 C 0.12769 0.23324 0.85161 0.0
H1009 H 0.26398 0.14023 0.8579 0.0
H1010 H 0.21437 0.15424 0.8579 0.0
C1011 C 0.12326 0.26306 0.85395 0.0
C1012 C 0.13529 0.19109 0.82762 0.0
H1013 H 0.1389 0.11996 0.84884 0.0
C1014 C 0.16295 0.20119 0.81215 0.0
C1015 C 0.12542 0.16064 0.84043 0.0
C1016 C 0.09471 0.1476 0.85657 0.0
C1017 C 0.18296 0.18331 0.81021 0.0
C1018 C 0.17437 0.1539 0.82379 0.0
C1019 C 0.1453 0.14248 0.83844 0.0
C1020 C 0.19852 0.1381 0.82484 0.0
C1021 C 0.21488 0.19782 0.79477 0.0
C1022 C 0.20493 0.12298 0.80651 0.0
C1023 C 0.23378 0.11559 0.80631 0.0
C1024 C 0.25611 0.12264 0.82458 0.0
C1025 C 0.24749 0.13482 0.8435 0.0
C1026 C 0.21899 0.14263 0.84359 0.0
H1027 H 0.22179 0.22451 0.78849 0.0
H1028 H 0.23955 0.19987 0.80272 0.0
H1029 H 0.20795 0.17954 0.78082 0.0
H1030 H 0.18889 0.11867 0.79203 0.0
H1031 H 0.23936 0.10559 0.79162 0.0
loop_
_geom_bond_atom_site_label_1
_geom_bond_atom_site_label_2
_geom_bond_distance
_geom_bond_site_symmetry_2
_ccdc_geom_bond_type
C0 O1 1.306 . S
C0 O3 1.160 . S
O1 C0 1.306 . S
O1 Cd2 2.228 . S
Cd2 O1 2.228 . S
Cd2 O6 2.273 . S
Cd2 O10 2.277 . S
O3 C0 1.160 . S
O3 Cd4 2.203 . S
Cd4 O3 2.203 . S
Cd4 O6 2.411 . S
Cd4 O7 2.333 . S
Cd4 O8 2.352 . S
Cd4 O12 2.277 . S
Cd4 O13 2.356 . S
C5 O10 1.209 . S
C5 O12 1.226 . S
O6 Cd2 2.273 . S
O6 Cd4 2.411 . S
O6 C9 1.320 . S
O7 Cd4 2.333 . S
O7 C9 1.214 . S
O8 Cd4 2.352 . S
O8 C11 1.258 . S
C9 O6 1.320 . S
C9 O7 1.214 . S
O10 Cd2 2.277 . S
O10 C5 1.209 . S
C11 O8 1.258 . S
C11 O13 1.282 . S
O12 Cd4 2.277 . S
O12 C5 1.226 . S
O13 Cd4 2.356 . S
O13 C11 1.282 . S
C14 O15 1.306 . S
C14 O17 1.160 . S
O15 C14 1.306 . S
O15 Cd16 2.228 . S
Cd16 O15 2.228 . S
Cd16 O20 2.273 . S
Cd16 O24 2.277 . S
O17 C14 1.160 . S
O17 Cd18 2.203 . S
Cd18 O17 2.203 . S
Cd18 O20 2.411 . S
Cd18 O21 2.333 . S
Cd18 O22 2.352 . S
Cd18 O26 2.277 . S
Cd18 O27 2.356 . S
C19 O24 1.209 . S
C19 O26 1.226 . S
O20 Cd16 2.273 . S
O20 Cd18 2.411 . S
O20 C23 1.320 . S
O21 Cd18 2.333 . S
O21 C23 1.214 . S
O22 Cd18 2.352 . S
O22 C25 1.258 . S
C23 O20 1.320 . S
C23 O21 1.214 . S
O24 Cd16 2.277 . S
O24 C19 1.209 . S
C25 O22 1.258 . S
C25 O27 1.282 . S
O26 Cd18 2.277 . S
O26 C19 1.226 . S
O27 Cd18 2.356 . S
O27 C25 1.282 . S
C28 O29 1.306 . S
C28 O31 1.160 . S
O29 C28 1.306 . S
O29 Cd30 2.228 . S
Cd30 O29 2.228 . S
Cd30 O34 2.273 . S
Cd30 O38 2.277 . S
O31 C28 1.160 . S
O31 Cd32 2.203 . S
Cd32 O31 2.203 . S
Cd32 O34 2.411 . S
Cd32 O35 2.333 . S
Cd32 O36 2.352 . S
Cd32 O40 2.277 . S
Cd32 O41 2.356 . S
C33 O38 1.209 . S
C33 O40 1.226 . S
O34 Cd30 2.273 . S
O34 Cd32 2.411 . S
O34 C37 1.320 . S
O35 Cd32 2.333 . S
O35 C37 1.214 . S
O36 Cd32 2.352 . S
O36 C39 1.258 . S
C37 O34 1.320 . S
C37 O35 1.214 . S
O38 Cd30 2.277 . S
O38 C33 1.209 . S
C39 O36 1.258 . S
C39 O41 1.282 . S
O40 Cd32 2.277 . S
O40 C33 1.226 . S
O41 Cd32 2.356 . S
O41 C39 1.282 . S
C42 O43 1.306 . S
C42 O45 1.160 . S
O43 C42 1.306 . S
O43 Cd44 2.228 . S
Cd44 O43 2.228 . S
Cd44 O48 2.273 . S
Cd44 O52 2.277 . S
O45 C42 1.160 . S
O45 Cd46 2.203 . S
Cd46 O45 2.203 . S
Cd46 O48 2.411 . S
Cd46 O49 2.333 . S
Cd46 O50 2.352 . S
Cd46 O54 2.277 . S
Cd46 O55 2.356 . S
C47 O52 1.209 . S
C47 O54 1.226 . S
O48 Cd44 2.273 . S
O48 Cd46 2.411 . S
O48 C51 1.320 . S
O49 Cd46 2.333 . S
O49 C51 1.214 . S
O50 Cd46 2.352 . S
O50 C53 1.258 . S
C51 O48 1.320 . S
C51 O49 1.214 . S
O52 Cd44 2.277 . S
O52 C47 1.209 . S
C53 O50 1.258 . S
C53 O55 1.282 . S
O54 Cd46 2.277 . S
O54 C47 1.226 . S
O55 Cd46 2.356 . S
O55 C53 1.282 . S
C56 O57 1.306 . S
C56 O59 1.160 . S
O57 C56 1.306 . S
O57 Cd58 2.228 . S
Cd58 O57 2.228 . S
Cd58 O62 2.273 . S
Cd58 O66 2.277 . S
O59 C56 1.160 . S
O59 Cd60 2.203 . S
Cd60 O59 2.203 . S
Cd60 O62 2.411 . S
Cd60 O63 2.333 . S
Cd60 O64 2.352 . S
Cd60 O68 2.277 . S
Cd60 O69 2.356 . S
C61 O66 1.209 . S
C61 O68 1.226 . S
O62 Cd58 2.273 . S
O62 Cd60 2.411 . S
O62 C65 1.320 . S
O63 Cd60 2.333 . S
O63 C65 1.214 . S
O64 Cd60 2.352 . S
O64 C67 1.258 . S
C65 O62 1.320 . S
C65 O63 1.214 . S
O66 Cd58 2.277 . S
O66 C61 1.209 . S
C67 O64 1.258 . S
C67 O69 1.282 . S
O68 Cd60 2.277 . S
O68 C61 1.226 . S
O69 Cd60 2.356 . S
O69 C67 1.282 . S
C70 O71 1.306 . S
C70 O73 1.160 . S
O71 C70 1.306 . S
O71 Cd72 2.228 . S
Cd72 O71 2.228 . S
Cd72 O76 2.273 . S
Cd72 O80 2.277 . S
O73 C70 1.160 . S
O73 Cd74 2.203 . S
Cd74 O73 2.203 . S
Cd74 O76 2.411 . S
Cd74 O77 2.333 . S
Cd74 O78 2.352 . S
Cd74 O82 2.277 . S
Cd74 O83 2.356 . S
C75 O80 1.209 . S
C75 O82 1.226 . S
O76 Cd72 2.273 . S
O76 Cd74 2.411 . S
O76 C79 1.320 . S
O77 Cd74 2.333 . S
O77 C79 1.214 . S
O78 Cd74 2.352 . S
O78 C81 1.258 . S
C79 O76 1.320 . S
C79 O77 1.214 . S
O80 Cd72 2.277 . S
O80 C75 1.209 . S
C81 O78 1.258 . S
C81 O83 1.282 . S
O82 Cd74 2.277 . S
O82 C75 1.226 . S
O83 Cd74 2.356 . S
O83 C81 1.282 . S
C84 O85 1.306 . S
C84 O87 1.160 . S
O85 C84 1.306 . S
O85 Cd86 2.228 . S
Cd86 O85 2.228 . S
Cd86 O90 2.273 . S
Cd86 O94 2.277 . S
O87 C84 1.160 . S
O87 Cd88 2.203 . S
Cd88 O87 2.203 . S
Cd88 O90 2.411 . S
Cd88 O91 2.333 . S
Cd88 O92 2.352 . S
Cd88 O96 2.277 . S
Cd88 O97 2.356 . S
C89 O94 1.209 . S
C89 O96 1.226 . S
O90 Cd86 2.273 . S
O90 Cd88 2.411 . S
O90 C93 1.320 . S
O91 Cd88 2.333 . S
O91 C93 1.214 . S
O92 Cd88 2.352 . S
O92 C95 1.258 . S
C93 O90 1.320 . S
C93 O91 1.214 . S
O94 Cd86 2.277 . S
O94 C89 1.209 . S
C95 O92 1.258 . S
C95 O97 1.282 . S
O96 Cd88 2.277 . S
O96 C89 1.226 . S
O97 Cd88 2.356 . S
O97 C95 1.282 . S
C98 O99 1.306 . S
C98 O101 1.160 . S
O99 C98 1.306 . S
O99 Cd100 2.228 . S
Cd100 O99 2.228 . S
Cd100 O104 2.273 . S
Cd100 O108 2.277 . S
O101 C98 1.160 . S
O101 Cd102 2.203 . S
Cd102 O101 2.203 . S
Cd102 O104 2.411 . S
Cd102 O105 2.333 . S
Cd102 O106 2.352 . S
Cd102 O110 2.277 . S
Cd102 O111 2.356 . S
C103 O108 1.209 . S
C103 O110 1.226 . S
O104 Cd100 2.273 . S
O104 Cd102 2.411 . S
O104 C107 1.320 . S
O105 Cd102 2.333 . S
O105 C107 1.214 . S
O106 Cd102 2.352 . S
O106 C109 1.258 . S
C107 O104 1.320 . S
C107 O105 1.214 . S
O108 Cd100 2.277 . S
O108 C103 1.209 . S
C109 O106 1.258 . S
C109 O111 1.282 . S
O110 Cd102 2.277 . S
O110 C103 1.226 . S
O111 Cd102 2.356 . S
O111 C109 1.282 . S
C112 O113 1.306 . S
C112 O115 1.160 . S
O113 C112 1.306 . S
O113 Cd114 2.228 . S
Cd114 O113 2.228 . S
Cd114 O118 2.273 . S
Cd114 O122 2.277 . S
O115 C112 1.160 . S
O115 Cd116 2.203 . S
Cd116 O115 2.203 . S
Cd116 O118 2.411 . S
Cd116 O119 2.333 . S
Cd116 O120 2.352 . S
Cd116 O124 2.277 . S
Cd116 O125 2.356 . S
C117 O122 1.209 . S
C117 O124 1.226 . S
O118 Cd114 2.273 . S
O118 Cd116 2.411 . S
O118 C121 1.320 . S
O119 Cd116 2.333 . S
O119 C121 1.214 . S
O120 Cd116 2.352 . S
O120 C123 1.258 . S
C121 O118 1.320 . S
C121 O119 1.214 . S
O122 Cd114 2.277 . S
O122 C117 1.209 . S
C123 O120 1.258 . S
C123 O125 1.282 . S
O124 Cd116 2.277 . S
O124 C117 1.226 . S
O125 Cd116 2.356 . S
O125 C123 1.282 . S
C126 O127 1.306 . S
C126 O129 1.160 . S
O127 C126 1.306 . S
O127 Cd128 2.228 . S
Cd128 O127 2.228 . S
Cd128 O132 2.273 . S
Cd128 O136 2.277 . S
O129 C126 1.160 . S
O129 Cd130 2.203 . S
Cd130 O129 2.203 . S
Cd130 O132 2.411 . S
Cd130 O133 2.333 . S
Cd130 O134 2.352 . S
Cd130 O138 2.277 . S
Cd130 O139 2.356 . S
C131 O136 1.209 . S
C131 O138 1.226 . S
O132 Cd128 2.273 . S
O132 Cd130 2.411 . S
O132 C135 1.320 . S
O133 Cd130 2.333 . S
O133 C135 1.214 . S
O134 Cd130 2.352 . S
O134 C137 1.258 . S
C135 O132 1.320 . S
C135 O133 1.214 . S
O136 Cd128 2.277 . S
O136 C131 1.209 . S
C137 O134 1.258 . S
C137 O139 1.282 . S
O138 Cd130 2.277 . S
O138 C131 1.226 . S
O139 Cd130 2.356 . S
O139 C137 1.282 . S
C140 O141 1.306 . S
C140 O143 1.160 . S
O141 C140 1.306 . S
O141 Cd142 2.228 . S
Cd142 O141 2.228 . S
Cd142 O146 2.273 . S
Cd142 O150 2.277 . S
O143 C140 1.160 . S
O143 Cd144 2.203 . S
Cd144 O143 2.203 . S
Cd144 O146 2.411 . S
Cd144 O147 2.333 . S
Cd144 O148 2.352 . S
Cd144 O152 2.277 . S
Cd144 O153 2.356 . S
C145 O150 1.209 . S
C145 O152 1.226 . S
O146 Cd142 2.273 . S
O146 Cd144 2.411 . S
O146 C149 1.320 . S
O147 Cd144 2.333 . S
O147 C149 1.214 . S
O148 Cd144 2.352 . S
O148 C151 1.258 . S
C149 O146 1.320 . S
C149 O147 1.214 . S
O150 Cd142 2.277 . S
O150 C145 1.209 . S
C151 O148 1.258 . S
C151 O153 1.282 . S
O152 Cd144 2.277 . S
O152 C145 1.226 . S
O153 Cd144 2.356 . S
O153 C151 1.282 . S
C154 O155 1.306 . S
C154 O157 1.160 . S
O155 C154 1.306 . S
O155 Cd156 2.228 . S
Cd156 O155 2.228 . S
Cd156 O160 2.273 . S
Cd156 O164 2.277 . S
O157 C154 1.160 . S
O157 Cd158 2.203 . S
Cd158 O157 2.203 . S
Cd158 O160 2.411 . S
Cd158 O161 2.333 . S
Cd158 O162 2.352 . S
Cd158 O166 2.277 . S
Cd158 O167 2.356 . S
C159 O164 1.209 . S
C159 O166 1.226 . S
O160 Cd156 2.273 . S
O160 Cd158 2.411 . S
O160 C163 1.320 . S
O161 Cd158 2.333 . S
O161 C163 1.214 . S
O162 Cd158 2.352 . S
O162 C165 1.258 . S
C163 O160 1.320 . S
C163 O161 1.214 . S
O164 Cd156 2.277 . S
O164 C159 1.209 . S
C165 O162 1.258 . S
C165 O167 1.282 . S
O166 Cd158 2.277 . S
O166 C159 1.226 . S
O167 Cd158 2.356 . S
O167 C165 1.282 . S
H168 C176 0.929 . S
H169 C178 0.930 . S
H170 C180 0.930 . S
H171 C183 0.929 . S
H172 C186 0.930 . S
H173 C188 0.960 . S
H174 C188 0.960 . S
H175 C188 0.960 . S
C176 H168 0.929 . S
C176 C177 1.377 . S
C176 C178 1.384 . S
C177 C176 1.377 . S
C177 C183 1.390 . S
C178 H169 0.930 . S
C178 C176 1.384 . S
C178 C179 1.372 . S
C179 C178 1.372 . S
C179 C180 1.400 . S
C179 C184 1.490 . S
C180 H170 0.930 . S
C180 C179 1.400 . S
C180 C183 1.386 . S
H181 C197 0.930 . S
H182 C198 0.931 . S
C183 H171 0.929 . S
C183 C177 1.390 . S
C183 C180 1.386 . S
C184 C179 1.490 . S
C184 C186 1.395 . S
C184 C187 1.403 . S
H185 C191 0.930 . S
C186 H172 0.930 . S
C186 C184 1.395 . S
C186 C189 1.403 . S
C187 C184 1.403 . S
C187 C188 1.524 . S
C187 C191 1.400 . S
C188 H173 0.960 . S
C188 H174 0.960 . S
C188 H175 0.960 . S
C188 C187 1.524 . S
C189 C186 1.403 . S
C189 C190 1.392 . S
C189 C193 1.495 . S
C190 C189 1.392 . S
C190 C191 1.385 . S
C190 C192 1.478 . S
C191 H185 0.930 . S
C191 C187 1.400 . S
C191 C190 1.385 . S
C192 C190 1.478 . S
C192 C194 1.381 . S
C192 C198 1.383 . S
C193 C189 1.495 . S
C193 H199 0.959 . S
C193 H200 0.961 . S
C193 H201 0.960 . S
C194 C192 1.381 . S
C194 C195 1.394 . S
C194 H202 0.930 . S
C195 C194 1.394 . S
C195 C196 1.383 . S
C195 H203 0.929 . S
C196 C195 1.383 . S
C196 C197 1.377 . S
C197 H181 0.930 . S
C197 C196 1.377 . S
C197 C198 1.379 . S
C198 H182 0.931 . S
C198 C192 1.383 . S
C198 C197 1.379 . S
H199 C193 0.959 . S
H200 C193 0.961 . S
H201 C193 0.960 . S
H202 C194 0.930 . S
H203 C195 0.929 . S
H204 C212 0.929 . S
H205 C214 0.930 . S
H206 C216 0.930 . S
H207 C219 0.929 . S
H208 C222 0.930 . S
H209 C224 0.960 . S
H210 C224 0.960 . S
H211 C224 0.960 . S
C212 H204 0.929 . S
C212 C213 1.377 . S
C212 C214 1.384 . S
C213 C212 1.377 . S
C213 C219 1.390 . S
C214 H205 0.930 . S
C214 C212 1.384 . S
C214 C215 1.372 . S
C215 C214 1.372 . S
C215 C216 1.400 . S
C215 C220 1.490 . S
C216 H206 0.930 . S
C216 C215 1.400 . S
C216 C219 1.386 . S
H217 C233 0.930 . S
H218 C234 0.931 . S
C219 H207 0.929 . S
C219 C213 1.390 . S
C219 C216 1.386 . S
C220 C215 1.490 . S
C220 C222 1.395 . S
C220 C223 1.403 . S
H221 C227 0.930 . S
C222 H208 0.930 . S
C222 C220 1.395 . S
C222 C225 1.403 . S
C223 C220 1.403 . S
C223 C224 1.524 . S
C223 C227 1.400 . S
C224 H209 0.960 . S
C224 H210 0.960 . S
C224 H211 0.960 . S
C224 C223 1.524 . S
C225 C222 1.403 . S
C225 C226 1.392 . S
C225 C229 1.495 . S
C226 C225 1.392 . S
C226 C227 1.385 . S
C226 C228 1.478 . S
C227 H221 0.930 . S
C227 C223 1.400 . S
C227 C226 1.385 . S
C228 C226 1.478 . S
C228 C230 1.381 . S
C228 C234 1.383 . S
C229 C225 1.495 . S
C229 H235 0.959 . S
C229 H236 0.961 . S
C229 H237 0.960 . S
C230 C228 1.381 . S
C230 C231 1.394 . S
C230 H238 0.930 . S
C231 C230 1.394 . S
C231 C232 1.383 . S
C231 H239 0.929 . S
C232 C231 1.383 . S
C232 C233 1.377 . S
C233 H217 0.930 . S
C233 C232 1.377 . S
C233 C234 1.379 . S
C234 H218 0.931 . S
C234 C228 1.383 . S
C234 C233 1.379 . S
H235 C229 0.959 . S
H236 C229 0.961 . S
H237 C229 0.960 . S
H238 C230 0.930 . S
H239 C231 0.929 . S
H240 C248 0.929 . S
H241 C250 0.930 . S
H242 C252 0.930 . S
H243 C255 0.929 . S
H244 C258 0.930 . S
H245 C260 0.960 . S
H246 C260 0.960 . S
H247 C260 0.960 . S
C248 H240 0.929 . S
C248 C249 1.377 . S
C248 C250 1.384 . S
C249 C248 1.377 . S
C249 C255 1.390 . S
C250 H241 0.930 . S
C250 C248 1.384 . S
C250 C251 1.372 . S
C251 C250 1.372 . S
C251 C252 1.400 . S
C251 C256 1.490 . S
C252 H242 0.930 . S
C252 C251 1.400 . S
C252 C255 1.386 . S
H253 C269 0.930 . S
H254 C270 0.931 . S
C255 H243 0.929 . S
C255 C249 1.390 . S
C255 C252 1.386 . S
C256 C251 1.490 . S
C256 C258 1.395 . S
C256 C259 1.403 . S
H257 C263 0.930 . S
C258 H244 0.930 . S
C258 C256 1.395 . S
C258 C261 1.403 . S
C259 C256 1.403 . S
C259 C260 1.524 . S
C259 C263 1.400 . S
C260 H245 0.960 . S
C260 H246 0.960 . S
C260 H247 0.960 . S
C260 C259 1.524 . S
C261 C258 1.403 . S
C261 C262 1.392 . S
C261 C265 1.495 . S
C262 C261 1.392 . S
C262 C263 1.385 . S
C262 C264 1.478 . S
C263 H257 0.930 . S
C263 C259 1.400 . S
C263 C262 1.385 . S
C264 C262 1.478 . S
C264 C266 1.381 . S
C264 C270 1.383 . S
C265 C261 1.495 . S
C265 H271 0.959 . S
C265 H272 0.961 . S
C265 H273 0.960 . S
C266 C264 1.381 . S
C266 C267 1.394 . S
C266 H274 0.930 . S
C267 C266 1.394 . S
C267 C268 1.383 . S
C267 H275 0.929 . S
C268 C267 1.383 . S
C268 C269 1.377 . S
C269 H253 0.930 . S
C269 C268 1.377 . S
C269 C270 1.379 . S
C270 H254 0.931 . S
C270 C264 1.383 . S
C270 C269 1.379 . S
H271 C265 0.959 . S
H272 C265 0.961 . S
H273 C265 0.960 . S
H274 C266 0.930 . S
H275 C267 0.929 . S
H276 C284 0.929 . S
H277 C286 0.930 . S
H278 C288 0.930 . S
H279 C291 0.929 . S
H280 C294 0.930 . S
H281 C296 0.960 . S
H282 C296 0.960 . S
H283 C296 0.960 . S
C284 H276 0.929 . S
C284 C285 1.377 . S
C284 C286 1.384 . S
C285 C284 1.377 . S
C285 C291 1.390 . S
C286 H277 0.930 . S
C286 C284 1.384 . S
C286 C287 1.372 . S
C287 C286 1.372 . S
C287 C288 1.400 . S
C287 C292 1.490 . S
C288 H278 0.930 . S
C288 C287 1.400 . S
C288 C291 1.386 . S
H289 C305 0.930 . S
H290 C306 0.931 . S
C291 H279 0.929 . S
C291 C285 1.390 . S
C291 C288 1.386 . S
C292 C287 1.490 . S
C292 C294 1.395 . S
C292 C295 1.403 . S
H293 C299 0.930 . S
C294 H280 0.930 . S
C294 C292 1.395 . S
C294 C297 1.403 . S
C295 C292 1.403 . S
C295 C296 1.524 . S
C295 C299 1.400 . S
C296 H281 0.960 . S
C296 H282 0.960 . S
C296 H283 0.960 . S
C296 C295 1.524 . S
C297 C294 1.403 . S
C297 C298 1.392 . S
C297 C301 1.495 . S
C298 C297 1.392 . S
C298 C299 1.385 . S
C298 C300 1.478 . S
C299 H293 0.930 . S
C299 C295 1.400 . S
C299 C298 1.385 . S
C300 C298 1.478 . S
C300 C302 1.381 . S
C300 C306 1.383 . S
C301 C297 1.495 . S
C301 H307 0.959 . S
C301 H308 0.961 . S
C301 H309 0.960 . S
C302 C300 1.381 . S
C302 C303 1.394 . S
C302 H310 0.930 . S
C303 C302 1.394 . S
C303 C304 1.383 . S
C303 H311 0.929 . S
C304 C303 1.383 . S
C304 C305 1.377 . S
C305 H289 0.930 . S
C305 C304 1.377 . S
C305 C306 1.379 . S
C306 H290 0.931 . S
C306 C300 1.383 . S
C306 C305 1.379 . S
H307 C301 0.959 . S
H308 C301 0.961 . S
H309 C301 0.960 . S
H310 C302 0.930 . S
H311 C303 0.929 . S
H312 C320 0.929 . S
H313 C322 0.930 . S
H314 C324 0.930 . S
H315 C327 0.929 . S
H316 C330 0.930 . S
H317 C332 0.960 . S
H318 C332 0.960 . S
H319 C332 0.960 . S
C320 H312 0.929 . S
C320 C321 1.377 . S
C320 C322 1.384 . S
C321 C320 1.377 . S
C321 C327 1.390 . S
C322 H313 0.930 . S
C322 C320 1.384 . S
C322 C323 1.372 . S
C323 C322 1.372 . S
C323 C324 1.400 . S
C323 C328 1.490 . S
C324 H314 0.930 . S
C324 C323 1.400 . S
C324 C327 1.386 . S
H325 C341 0.930 . S
H326 C342 0.931 . S
C327 H315 0.929 . S
C327 C321 1.390 . S
C327 C324 1.386 . S
C328 C323 1.490 . S
C328 C330 1.395 . S
C328 C331 1.403 . S
H329 C335 0.930 . S
C330 H316 0.930 . S
C330 C328 1.395 . S
C330 C333 1.403 . S
C331 C328 1.403 . S
C331 C332 1.524 . S
C331 C335 1.400 . S
C332 H317 0.960 . S
C332 H318 0.960 . S
C332 H319 0.960 . S
C332 C331 1.524 . S
C333 C330 1.403 . S
C333 C334 1.392 . S
C333 C337 1.495 . S
C334 C333 1.392 . S
C334 C335 1.385 . S
C334 C336 1.478 . S
C335 H329 0.930 . S
C335 C331 1.400 . S
C335 C334 1.385 . S
C336 C334 1.478 . S
C336 C338 1.381 . S
C336 C342 1.383 . S
C337 C333 1.495 . S
C337 H343 0.959 . S
C337 H344 0.961 . S
C337 H345 0.960 . S
C338 C336 1.381 . S
C338 C339 1.394 . S
C338 H346 0.930 . S
C339 C338 1.394 . S
C339 C340 1.383 . S
C339 H347 0.929 . S
C340 C339 1.383 . S
C340 C341 1.377 . S
C341 H325 0.930 . S
C341 C340 1.377 . S
C341 C342 1.379 . S
C342 H326 0.931 . S
C342 C336 1.383 . S
C342 C341 1.379 . S
H343 C337 0.959 . S
H344 C337 0.961 . S
H345 C337 0.960 . S
H346 C338 0.930 . S
H347 C339 0.929 . S
H348 C356 0.929 . S
H349 C358 0.930 . S
H350 C360 0.930 . S
H351 C363 0.929 . S
H352 C366 0.930 . S
H353 C368 0.960 . S
H354 C368 0.960 . S
H355 C368 0.960 . S
C356 H348 0.929 . S
C356 C357 1.377 . S
C356 C358 1.384 . S
C357 C356 1.377 . S
C357 C363 1.390 . S
C358 H349 0.930 . S
C358 C356 1.384 . S
C358 C359 1.372 . S
C359 C358 1.372 . S
C359 C360 1.400 . S
C359 C364 1.490 . S
C360 H350 0.930 . S
C360 C359 1.400 . S
C360 C363 1.386 . S
H361 C377 0.930 . S
H362 C378 0.931 . S
C363 H351 0.929 . S
C363 C357 1.390 . S
C363 C360 1.386 . S
C364 C359 1.490 . S
C364 C366 1.395 . S
C364 C367 1.403 . S
H365 C371 0.930 . S
C366 H352 0.930 . S
C366 C364 1.395 . S
C366 C369 1.403 . S
C367 C364 1.403 . S
C367 C368 1.524 . S
C367 C371 1.400 . S
C368 H353 0.960 . S
C368 H354 0.960 . S
C368 H355 0.960 . S
C368 C367 1.524 . S
C369 C366 1.403 . S
C369 C370 1.392 . S
C369 C373 1.495 . S
C370 C369 1.392 . S
C370 C371 1.385 . S
C370 C372 1.478 . S
C371 H365 0.930 . S
C371 C367 1.400 . S
C371 C370 1.385 . S
C372 C370 1.478 . S
C372 C374 1.381 . S
C372 C378 1.383 . S
C373 C369 1.495 . S
C373 H379 0.959 . S
C373 H380 0.961 . S
C373 H381 0.960 . S
C374 C372 1.381 . S
C374 C375 1.394 . S
C374 H382 0.930 . S
C375 C374 1.394 . S
C375 C376 1.383 . S
C375 H383 0.929 . S
C376 C375 1.383 . S
C376 C377 1.377 . S
C377 H361 0.930 . S
C377 C376 1.377 . S
C377 C378 1.379 . S
C378 H362 0.931 . S
C378 C372 1.383 . S
C378 C377 1.379 . S
H379 C373 0.959 . S
H380 C373 0.961 . S
H381 C373 0.960 . S
H382 C374 0.930 . S
H383 C375 0.929 . S
H384 C392 0.929 . S
H385 C394 0.930 . S
H386 C396 0.930 . S
H387 C399 0.929 . S
H388 C402 0.930 . S
H389 C404 0.960 . S
H390 C404 0.960 . S
H391 C404 0.960 . S
C392 H384 0.929 . S
C392 C393 1.377 . S
C392 C394 1.384 . S
C393 C392 1.377 . S
C393 C399 1.390 . S
C394 H385 0.930 . S
C394 C392 1.384 . S
C394 C395 1.372 . S
C395 C394 1.372 . S
C395 C396 1.400 . S
C395 C400 1.490 . S
C396 H386 0.930 . S
C396 C395 1.400 . S
C396 C399 1.386 . S
H397 C413 0.930 . S
H398 C414 0.931 . S
C399 H387 0.929 . S
C399 C393 1.390 . S
C399 C396 1.386 . S
C400 C395 1.490 . S
C400 C402 1.395 . S
C400 C403 1.403 . S
H401 C407 0.930 . S
C402 H388 0.930 . S
C402 C400 1.395 . S
C402 C405 1.403 . S
C403 C400 1.403 . S
C403 C404 1.524 . S
C403 C407 1.400 . S
C404 H389 0.960 . S
C404 H390 0.960 . S
C404 H391 0.960 . S
C404 C403 1.524 . S
C405 C402 1.403 . S
C405 C406 1.392 . S
C405 C409 1.495 . S
C406 C405 1.392 . S
C406 C407 1.385 . S
C406 C408 1.478 . S
C407 H401 0.930 . S
C407 C403 1.400 . S
C407 C406 1.385 . S
C408 C406 1.478 . S
C408 C410 1.381 . S
C408 C414 1.383 . S
C409 C405 1.495 . S
C409 H415 0.959 . S
C409 H416 0.961 . S
C409 H417 0.960 . S
C410 C408 1.381 . S
C410 C411 1.394 . S
C410 H418 0.930 . S
C411 C410 1.394 . S
C411 C412 1.383 . S
C411 H419 0.929 . S
C412 C411 1.383 . S
C412 C413 1.377 . S
C413 H397 0.930 . S
C413 C412 1.377 . S
C413 C414 1.379 . S
C414 H398 0.931 . S
C414 C408 1.383 . S
C414 C413 1.379 . S
H415 C409 0.959 . S
H416 C409 0.961 . S
H417 C409 0.960 . S
H418 C410 0.930 . S
H419 C411 0.929 . S
H420 C428 0.929 . S
H421 C430 0.930 . S
H422 C432 0.930 1_655 S
H423 C435 0.929 . S
H424 C438 0.930 . S
H425 C440 0.960 . S
H426 C440 0.960 . S
H427 C440 0.960 1_655 S
C428 H420 0.929 . S
C428 C429 1.377 . S
C428 C430 1.384 . S
C429 C428 1.377 . S
C429 C435 1.390 . S
C430 H421 0.930 . S
C430 C428 1.384 . S
C430 C431 1.372 . S
C431 C430 1.372 . S
C431 C432 1.400 . S
C431 C436 1.490 . S
C432 H422 0.930 1_455 S
C432 C431 1.400 . S
C432 C435 1.386 . S
H433 C449 0.930 . S
H434 C450 0.931 . S
C435 H423 0.929 . S
C435 C429 1.390 . S
C435 C432 1.386 . S
C436 C431 1.490 . S
C436 C438 1.395 . S
C436 C439 1.403 . S
H437 C443 0.930 . S
C438 H424 0.930 . S
C438 C436 1.395 . S
C438 C441 1.403 1_455 S
C439 C436 1.403 . S
C439 C440 1.524 . S
C439 C443 1.400 1_455 S
C440 H425 0.960 . S
C440 H426 0.960 . S
C440 H427 0.960 1_455 S
C440 C439 1.524 . S
C441 C438 1.403 1_655 S
C441 C442 1.392 . S
C441 C445 1.495 . S
C442 C441 1.392 . S
C442 C443 1.385 . S
C442 C444 1.478 . S
C443 H437 0.930 . S
C443 C439 1.400 1_655 S
C443 C442 1.385 . S
C444 C442 1.478 . S
C444 C446 1.381 . S
C444 C450 1.383 . S
C445 C441 1.495 . S
C445 H451 0.959 1_655 S
C445 H452 0.961 . S
C445 H453 0.960 1_655 S
C446 C444 1.381 . S
C446 C447 1.394 . S
C446 H454 0.930 1_655 S
C447 C446 1.394 . S
C447 C448 1.383 . S
C447 H455 0.929 . S
C448 C447 1.383 . S
C448 C449 1.377 . S
C449 H433 0.930 . S
C449 C448 1.377 . S
C449 C450 1.379 . S
C450 H434 0.931 . S
C450 C444 1.383 . S
C450 C449 1.379 . S
H451 C445 0.959 1_455 S
H452 C445 0.961 . S
H453 C445 0.960 1_455 S
H454 C446 0.930 1_455 S
H455 C447 0.929 . S
H456 C464 0.929 . S
H457 C466 0.930 . S
H458 C468 0.930 1_565 S
H459 C471 0.929 . S
H460 C474 0.930 . S
H461 C476 0.976 . S
H462 C476 0.960 . S
H463 C476 0.962 1_565 S
C464 H456 0.929 . S
C464 C465 1.377 . S
C464 C466 1.384 . S
C465 C464 1.377 . S
C465 C471 1.390 . S
C466 H457 0.930 . S
C466 C464 1.384 . S
C466 C467 1.372 . S
C467 C466 1.372 . S
C467 C468 1.400 . S
C467 C472 1.490 . S
C468 H458 0.930 1_545 S
C468 C467 1.400 . S
C468 C471 1.386 . S
H469 C485 0.930 . S
H470 C486 0.931 . S
C471 H459 0.929 . S
C471 C465 1.390 . S
C471 C468 1.386 . S
C472 C467 1.490 . S
C472 C474 1.395 . S
C472 C475 1.403 . S
H473 C479 0.930 . S
C474 H460 0.930 . S
C474 C472 1.395 . S
C474 C477 1.403 1_545 S
C475 C472 1.403 . S
C475 C476 1.524 . S
C475 C479 1.400 1_545 S
C476 H461 0.976 . S
C476 H462 0.960 . S
C476 H463 0.962 1_545 S
C476 C475 1.524 . S
C477 C474 1.403 1_565 S
C477 C478 1.392 . S
C477 C481 1.495 . S
C478 C477 1.392 . S
C478 C479 1.385 . S
C478 C480 1.478 . S
C479 H473 0.930 . S
C479 C475 1.400 1_565 S
C479 C478 1.385 . S
C480 C478 1.478 . S
C480 C482 1.381 . S
C480 C486 1.383 . S
C481 C477 1.495 . S
C481 H487 0.959 1_565 S
C481 H488 0.961 . S
C481 H489 0.960 1_565 S
C482 C480 1.381 . S
C482 C483 1.394 . S
C482 H490 0.930 1_565 S
C483 C482 1.394 . S
C483 C484 1.383 . S
C483 H491 0.929 . S
C484 C483 1.383 . S
C484 C485 1.377 . S
C485 H469 0.930 . S
C485 C484 1.377 . S
C485 C486 1.379 . S
C486 H470 0.931 . S
C486 C480 1.383 . S
C486 C485 1.379 . S
H487 C481 0.959 1_545 S
H488 C481 0.961 . S
H489 C481 0.960 1_545 S
H490 C482 0.930 1_545 S
H491 C483 0.929 . S
H492 C500 0.929 . S
H493 C502 0.930 . S
H494 C504 0.930 . S
H495 C507 0.929 . S
H496 C510 0.930 . S
H497 C512 0.960 . S
H498 C512 0.960 . S
H499 C512 0.960 . S
C500 H492 0.929 . S
C500 C501 1.377 . S
C500 C502 1.384 . S
C501 C500 1.377 . S
C501 C507 1.390 . S
C502 H493 0.930 . S
C502 C500 1.384 . S
C502 C503 1.372 . S
C503 C502 1.372 . S
C503 C504 1.400 . S
C503 C508 1.490 . S
C504 H494 0.930 . S
C504 C503 1.400 . S
C504 C507 1.386 . S
H505 C521 0.930 . S
H506 C522 0.931 . S
C507 H495 0.929 . S
C507 C501 1.390 . S
C507 C504 1.386 . S
C508 C503 1.490 . S
C508 C510 1.395 . S
C508 C511 1.403 . S
H509 C515 0.930 . S
C510 H496 0.930 . S
C510 C508 1.395 . S
C510 C513 1.403 . S
C511 C508 1.403 . S
C511 C512 1.524 . S
C511 C515 1.400 . S
C512 H497 0.960 . S
C512 H498 0.960 . S
C512 H499 0.960 . S
C512 C511 1.524 . S
C513 C510 1.403 . S
C513 C514 1.392 . S
C513 C517 1.495 . S
C514 C513 1.392 . S
C514 C515 1.385 . S
C514 C516 1.478 . S
C515 H509 0.930 . S
C515 C511 1.400 . S
C515 C514 1.385 . S
C516 C514 1.478 . S
C516 C518 1.381 . S
C516 C522 1.383 . S
C517 C513 1.495 . S
C517 H523 0.959 . S
C517 H524 0.961 . S
C517 H525 0.960 . S
C518 C516 1.381 . S
C518 C519 1.394 . S
C518 H526 0.930 . S
C519 C518 1.394 . S
C519 C520 1.383 . S
C519 H527 0.929 . S
C520 C519 1.383 . S
C520 C521 1.377 . S
C521 H505 0.930 . S
C521 C520 1.377 . S
C521 C522 1.379 . S
C522 H506 0.931 . S
C522 C516 1.383 . S
C522 C521 1.379 . S
H523 C517 0.959 . S
H524 C517 0.961 . S
H525 C517 0.960 . S
H526 C518 0.930 . S
H527 C519 0.929 . S
H528 C536 0.929 . S
H529 C538 0.930 . S
H530 C540 0.930 . S
H531 C543 0.929 . S
H532 C546 0.930 . S
H533 C548 0.960 . S
H534 C548 0.960 . S
H535 C548 0.960 . S
C536 H528 0.929 . S
C536 C537 1.377 . S
C536 C538 1.384 . S
C537 C536 1.377 . S
C537 C543 1.390 . S
C538 H529 0.930 . S
C538 C536 1.384 . S
C538 C539 1.372 . S
C539 C538 1.372 . S
C539 C540 1.400 . S
C539 C544 1.490 . S
C540 H530 0.930 . S
C540 C539 1.400 . S
C540 C543 1.386 . S
H541 C557 0.930 . S
H542 C558 0.931 . S
C543 H531 0.929 . S
C543 C537 1.390 . S
C543 C540 1.386 . S
C544 C539 1.490 . S
C544 C546 1.395 1_655 S
C544 C547 1.403 . S
H545 C551 0.930 . S
C546 H532 0.930 . S
C546 C544 1.395 1_455 S
C546 C549 1.403 . S
C547 C544 1.403 . S
C547 C548 1.524 . S
C547 C551 1.400 . S
C548 H533 0.960 . S
C548 H534 0.960 . S
C548 H535 0.960 . S
C548 C547 1.524 . S
C549 C546 1.403 . S
C549 C550 1.392 . S
C549 C553 1.495 . S
C550 C549 1.392 . S
C550 C551 1.385 1_455 S
C550 C552 1.478 . S
C551 H545 0.930 . S
C551 C547 1.400 . S
C551 C550 1.385 1_655 S
C552 C550 1.478 . S
C552 C554 1.381 . S
C552 C558 1.383 . S
C553 C549 1.495 . S
C553 H559 0.959 . S
C553 H560 0.961 . S
C553 H561 0.960 . S
C554 C552 1.381 . S
C554 C555 1.394 . S
C554 H562 0.930 . S
C555 C554 1.394 . S
C555 C556 1.383 . S
C555 H563 0.929 . S
C556 C555 1.383 . S
C556 C557 1.377 . S
C557 H541 0.930 . S
C557 C556 1.377 . S
C557 C558 1.379 . S
C558 H542 0.931 . S
C558 C552 1.383 . S
C558 C557 1.379 . S
H559 C553 0.959 . S
H560 C553 0.961 . S
H561 C553 0.960 . S
H562 C554 0.930 . S
H563 C555 0.929 . S
H564 C572 0.929 . S
H565 C574 0.930 . S
H566 C576 0.930 . S
H567 C579 0.929 . S
H568 C582 0.930 . S
H569 C584 0.960 . S
H570 C584 0.960 . S
H571 C584 0.960 1_565 S
C572 H564 0.929 . S
C572 C573 1.377 . S
C572 C574 1.384 . S
C573 C572 1.377 . S
C573 C579 1.390 . S
C574 H565 0.930 . S
C574 C572 1.384 . S
C574 C575 1.372 . S
C575 C574 1.372 . S
C575 C576 1.400 . S
C575 C580 1.490 . S
C576 H566 0.930 . S
C576 C575 1.400 . S
C576 C579 1.386 . S
H577 C593 0.930 . S
H578 C594 0.931 . S
C579 H567 0.929 . S
C579 C573 1.390 . S
C579 C576 1.386 . S
C580 C575 1.490 . S
C580 C582 1.395 . S
C580 C583 1.403 1_565 S
H581 C587 0.930 . S
C582 H568 0.930 . S
C582 C580 1.395 . S
C582 C585 1.403 . S
C583 C580 1.403 1_545 S
C583 C584 1.524 . S
C583 C587 1.400 . S
C584 H569 0.960 . S
C584 H570 0.960 . S
C584 H571 0.960 1_545 S
C584 C583 1.524 . S
C585 C582 1.403 . S
C585 C586 1.392 1_565 S
C585 C589 1.495 . S
C586 C585 1.392 1_545 S
C586 C587 1.385 . S
C586 C588 1.478 . S
C587 H581 0.930 . S
C587 C583 1.400 . S
C587 C586 1.385 . S
C588 C586 1.478 . S
C588 C590 1.381 . S
C588 C594 1.383 . S
C589 C585 1.495 . S
C589 H595 0.959 . S
C589 H596 0.961 . S
C589 H597 0.960 1_565 S
C590 C588 1.381 . S
C590 C591 1.394 . S
C590 H598 0.930 . S
C591 C590 1.394 . S
C591 C592 1.383 . S
C591 H599 0.929 . S
C592 C591 1.383 . S
C592 C593 1.377 . S
C593 H577 0.930 . S
C593 C592 1.377 . S
C593 C594 1.379 . S
C594 H578 0.931 . S
C594 C588 1.383 . S
C594 C593 1.379 . S
H595 C589 0.959 . S
H596 C589 0.961 . S
H597 C589 0.960 1_545 S
H598 C590 0.930 . S
H599 C591 0.929 . S
H600 C608 0.929 . S
H601 C610 0.930 . S
H602 C612 0.930 . S
H603 C615 0.929 . S
H604 C618 0.930 . S
H605 C620 0.960 . S
H606 C620 0.960 . S
H607 C620 0.960 . S
C608 H600 0.929 . S
C608 C609 1.377 . S
C608 C610 1.384 . S
C609 C608 1.377 . S
C609 C615 1.390 . S
C610 H601 0.930 . S
C610 C608 1.384 . S
C610 C611 1.372 . S
C611 C610 1.372 . S
C611 C612 1.400 . S
C611 C616 1.490 . S
C612 H602 0.930 . S
C612 C611 1.400 . S
C612 C615 1.386 . S
H613 C629 0.930 . S
H614 C630 0.931 . S
C615 H603 0.929 . S
C615 C609 1.390 . S
C615 C612 1.386 . S
C616 C611 1.490 . S
C616 C618 1.395 . S
C616 C619 1.403 . S
H617 C623 0.930 . S
C618 H604 0.930 . S
C618 C616 1.395 . S
C618 C621 1.403 . S
C619 C616 1.403 . S
C619 C620 1.524 . S
C619 C623 1.400 . S
C620 H605 0.960 . S
C620 H606 0.960 . S
C620 H607 0.960 . S
C620 C619 1.524 . S
C621 C618 1.403 . S
C621 C622 1.392 . S
C621 C625 1.495 . S
C622 C621 1.392 . S
C622 C623 1.385 . S
C622 C624 1.478 . S
C623 H617 0.930 . S
C623 C619 1.400 . S
C623 C622 1.385 . S
C624 C622 1.478 . S
C624 C626 1.381 . S
C624 C630 1.383 . S
C625 C621 1.495 . S
C625 H631 0.959 . S
C625 H632 0.961 . S
C625 H633 0.960 . S
C626 C624 1.381 . S
C626 C627 1.394 . S
C626 H634 0.930 . S
C627 C626 1.394 . S
C627 C628 1.383 . S
C627 H635 0.929 . S
C628 C627 1.383 . S
C628 C629 1.377 . S
C629 H613 0.930 . S
C629 C628 1.377 . S
C629 C630 1.379 . S
C630 H614 0.931 . S
C630 C624 1.383 . S
C630 C629 1.379 . S
H631 C625 0.959 . S
H632 C625 0.961 . S
H633 C625 0.960 . S
H634 C626 0.930 . S
H635 C627 0.929 . S
H636 C644 0.929 . S
H637 C646 0.930 1_455 S
H638 C648 0.930 . S
H639 C651 0.929 . S
H640 C654 0.930 . S
H641 C656 0.960 . S
H642 C656 0.960 . S
H643 C656 0.960 . S
C644 H636 0.929 . S
C644 C645 1.377 . S
C644 C646 1.384 . S
C645 C644 1.377 . S
C645 C651 1.390 . S
C646 H637 0.930 1_655 S
C646 C644 1.384 . S
C646 C647 1.372 . S
C647 C646 1.372 . S
C647 C648 1.400 . S
C647 C652 1.490 . S
C648 H638 0.930 . S
C648 C647 1.400 . S
C648 C651 1.386 . S
H649 C665 0.930 . S
H650 C666 0.931 . S
C651 H639 0.929 . S
C651 C645 1.390 . S
C651 C648 1.386 . S
C652 C647 1.490 . S
C652 C654 1.395 1_655 S
C652 C655 1.403 . S
H653 C659 0.930 . S
C654 H640 0.930 . S
C654 C652 1.395 1_455 S
C654 C657 1.403 . S
C655 C652 1.403 . S
C655 C656 1.524 . S
C655 C659 1.400 . S
C656 H641 0.960 . S
C656 H642 0.960 . S
C656 H643 0.960 . S
C656 C655 1.524 . S
C657 C654 1.403 . S
C657 C658 1.392 . S
C657 C661 1.495 . S
C658 C657 1.392 . S
C658 C659 1.385 1_455 S
C658 C660 1.478 . S
C659 H653 0.930 . S
C659 C655 1.400 . S
C659 C658 1.385 1_655 S
C660 C658 1.478 . S
C660 C662 1.381 . S
C660 C666 1.383 . S
C661 C657 1.495 . S
C661 H667 0.959 . S
C661 H668 0.961 . S
C661 H669 0.960 . S
C662 C660 1.381 . S
C662 C663 1.394 . S
C662 H670 0.930 . S
C663 C662 1.394 . S
C663 C664 1.383 . S
C663 H671 0.929 . S
C664 C663 1.383 . S
C664 C665 1.377 . S
C665 H649 0.930 . S
C665 C664 1.377 . S
C665 C666 1.379 . S
C666 H650 0.931 . S
C666 C660 1.383 . S
C666 C665 1.379 . S
H667 C661 0.959 . S
H668 C661 0.961 . S
H669 C661 0.960 . S
H670 C662 0.930 . S
H671 C663 0.929 . S
H672 C680 0.929 . S
H673 C682 0.930 . S
H674 C684 0.930 1_545 S
H675 C687 0.929 . S
H676 C690 0.930 . S
H677 C692 0.960 . S
H678 C692 0.960 . S
H679 C692 0.960 . S
C680 H672 0.929 . S
C680 C681 1.377 . S
C680 C682 1.384 . S
C681 C680 1.377 . S
C681 C687 1.390 . S
C682 H673 0.930 . S
C682 C680 1.384 . S
C682 C683 1.372 . S
C683 C682 1.372 . S
C683 C684 1.400 . S
C683 C688 1.490 . S
C684 H674 0.930 1_565 S
C684 C683 1.400 . S
C684 C687 1.386 . S
H685 C701 0.930 . S
H686 C702 0.931 . S
C687 H675 0.929 . S
C687 C681 1.390 . S
C687 C684 1.386 . S
C688 C683 1.490 . S
C688 C690 1.395 . S
C688 C691 1.403 1_565 S
H689 C695 0.930 . S
C690 H676 0.930 . S
C690 C688 1.395 . S
C690 C693 1.403 1_556 S
C691 C688 1.403 1_545 S
C691 C692 1.524 . S
C691 C695 1.400 1_556 S
C692 H677 0.960 . S
C692 H678 0.960 . S
C692 H679 0.960 . S
C692 C691 1.524 . S
C693 C690 1.403 1_554 S
C693 C694 1.392 1_565 S
C693 C697 1.495 . S
C694 C693 1.392 1_545 S
C694 C695 1.385 . S
C694 C696 1.478 . S
C695 H689 0.930 . S
C695 C691 1.400 1_554 S
C695 C694 1.385 . S
C696 C694 1.478 . S
C696 C698 1.381 . S
C696 C702 1.383 . S
C697 C693 1.495 . S
C697 H703 0.959 . S
C697 H704 0.961 . S
C697 H705 0.960 . S
C698 C696 1.381 . S
C698 C699 1.394 . S
C698 H706 0.930 1_545 S
C699 C698 1.394 . S
C699 C700 1.383 . S
C699 H707 0.929 . S
C700 C699 1.383 . S
C700 C701 1.377 . S
C701 H685 0.930 . S
C701 C700 1.377 . S
C701 C702 1.379 . S
C702 H686 0.931 . S
C702 C696 1.383 . S
C702 C701 1.379 . S
H703 C697 0.959 . S
H704 C697 0.961 . S
H705 C697 0.960 . S
H706 C698 0.930 1_565 S
H707 C699 0.929 . S
H708 C716 0.929 . S
H709 C718 0.930 . S
H710 C720 0.930 . S
H711 C723 0.929 . S
H712 C726 0.930 . S
H713 C728 0.960 . S
H714 C728 0.960 . S
H715 C728 0.960 . S
C716 H708 0.929 . S
C716 C717 1.377 . S
C716 C718 1.384 . S
C717 C716 1.377 . S
C717 C723 1.390 . S
C718 H709 0.930 . S
C718 C716 1.384 . S
C718 C719 1.372 . S
C719 C718 1.372 . S
C719 C720 1.400 . S
C719 C724 1.490 . S
C720 H710 0.930 . S
C720 C719 1.400 . S
C720 C723 1.386 . S
H721 C737 0.930 . S
H722 C738 0.931 . S
C723 H711 0.929 . S
C723 C717 1.390 . S
C723 C720 1.386 . S
C724 C719 1.490 . S
C724 C726 1.395 . S
C724 C727 1.403 . S
H725 C731 0.930 . S
C726 H712 0.930 . S
C726 C724 1.395 . S
C726 C729 1.403 . S
C727 C724 1.403 . S
C727 C728 1.524 . S
C727 C731 1.400 . S
C728 H713 0.960 . S
C728 H714 0.960 . S
C728 H715 0.960 . S
C728 C727 1.524 . S
C729 C726 1.403 . S
C729 C730 1.392 . S
C729 C733 1.495 . S
C730 C729 1.392 . S
C730 C731 1.385 . S
C730 C732 1.478 . S
C731 H725 0.930 . S
C731 C727 1.400 . S
C731 C730 1.385 . S
C732 C730 1.478 . S
C732 C734 1.381 . S
C732 C738 1.383 . S
C733 C729 1.495 . S
C733 H739 0.959 . S
C733 H740 0.961 . S
C733 H741 0.960 . S
C734 C732 1.381 . S
C734 C735 1.394 . S
C734 H742 0.930 . S
C735 C734 1.394 . S
C735 C736 1.383 . S
C735 H743 0.929 . S
C736 C735 1.383 . S
C736 C737 1.377 . S
C737 H721 0.930 . S
C737 C736 1.377 . S
C737 C738 1.379 . S
C738 H722 0.931 . S
C738 C732 1.383 . S
C738 C737 1.379 . S
H739 C733 0.959 . S
H740 C733 0.961 . S
H741 C733 0.960 . S
H742 C734 0.930 . S
H743 C735 0.929 . S
H744 C752 0.929 . S
H745 C754 0.930 . S
H746 C756 0.930 1_655 S
H747 C759 0.929 . S
H748 C762 0.930 . S
H749 C764 0.960 . S
H750 C764 0.960 . S
H751 C764 0.960 . S
C752 H744 0.929 . S
C752 C753 1.377 . S
C752 C754 1.384 . S
C753 C752 1.377 . S
C753 C759 1.390 . S
C754 H745 0.930 . S
C754 C752 1.384 . S
C754 C755 1.372 . S
C755 C754 1.372 . S
C755 C756 1.400 . S
C755 C760 1.490 . S
C756 H746 0.930 1_455 S
C756 C755 1.400 . S
C756 C759 1.386 . S
H757 C773 0.930 . S
H758 C774 0.931 . S
C759 H747 0.929 . S
C759 C753 1.390 . S
C759 C756 1.386 . S
C760 C755 1.490 . S
C760 C762 1.395 . S
C760 C763 1.403 1_455 S
H761 C767 0.930 . S
C762 H748 0.930 . S
C762 C760 1.395 . S
C762 C765 1.403 . S
C763 C760 1.403 1_655 S
C763 C764 1.524 . S
C763 C767 1.400 . S
C764 H749 0.960 . S
C764 H750 0.960 . S
C764 H751 0.960 . S
C764 C763 1.524 . S
C765 C762 1.403 . S
C765 C766 1.392 1_455 S
C765 C769 1.495 . S
C766 C765 1.392 1_655 S
C766 C767 1.385 . S
C766 C768 1.478 . S
C767 H761 0.930 . S
C767 C763 1.400 . S
C767 C766 1.385 . S
C768 C766 1.478 . S
C768 C770 1.381 . S
C768 C774 1.383 . S
C769 C765 1.495 . S
C769 H775 0.959 . S
C769 H776 0.961 . S
C769 H777 0.960 . S
C770 C768 1.381 . S
C770 C771 1.394 . S
C770 H778 0.930 1_655 S
C771 C770 1.394 . S
C771 C772 1.383 . S
C771 H779 0.929 . S
C772 C771 1.383 . S
C772 C773 1.377 . S
C773 H757 0.930 . S
C773 C772 1.377 . S
C773 C774 1.379 . S
C774 H758 0.931 . S
C774 C768 1.383 . S
C774 C773 1.379 . S
H775 C769 0.959 . S
H776 C769 0.961 . S
H777 C769 0.960 . S
H778 C770 0.930 1_455 S
H779 C771 0.929 . S
H780 C788 0.929 . S
H781 C790 0.930 . S
H782 C792 0.930 . S
H783 C795 0.929 . S
H784 C798 0.930 . S
H785 C800 0.960 . S
H786 C800 0.960 . S
H787 C800 0.960 . S
C788 H780 0.929 . S
C788 C789 1.377 . S
C788 C790 1.384 . S
C789 C788 1.377 . S
C789 C795 1.390 . S
C790 H781 0.930 . S
C790 C788 1.384 . S
C790 C791 1.372 . S
C791 C790 1.372 . S
C791 C792 1.400 . S
C791 C796 1.490 . S
C792 H782 0.930 . S
C792 C791 1.400 . S
C792 C795 1.386 . S
H793 C809 0.930 . S
H794 C810 0.931 . S
C795 H783 0.929 . S
C795 C789 1.390 . S
C795 C792 1.386 . S
C796 C791 1.490 . S
C796 C798 1.395 . S
C796 C799 1.403 1_565 S
H797 C803 0.930 . S
C798 H784 0.930 . S
C798 C796 1.395 . S
C798 C801 1.403 1_554 S
C799 C796 1.403 1_545 S
C799 C800 1.524 . S
C799 C803 1.400 1_554 S
C800 H785 0.960 . S
C800 H786 0.960 . S
C800 H787 0.960 . S
C800 C799 1.524 . S
C801 C798 1.403 1_556 S
C801 C802 1.392 1_565 S
C801 C805 1.495 . S
C802 C801 1.392 1_545 S
C802 C803 1.385 . S
C802 C804 1.478 . S
C803 H797 0.930 . S
C803 C799 1.400 1_556 S
C803 C802 1.385 . S
C804 C802 1.478 . S
C804 C806 1.381 . S
C804 C810 1.383 . S
C805 C801 1.495 . S
C805 H811 0.959 . S
C805 H812 0.961 . S
C805 H813 0.960 . S
C806 C804 1.381 . S
C806 C807 1.394 . S
C806 H814 0.930 . S
C807 C806 1.394 . S
C807 C808 1.383 . S
C807 H815 0.929 . S
C808 C807 1.383 . S
C808 C809 1.377 . S
C809 H793 0.930 . S
C809 C808 1.377 . S
C809 C810 1.379 . S
C810 H794 0.931 . S
C810 C804 1.383 . S
C810 C809 1.379 . S
H811 C805 0.959 . S
H812 C805 0.961 . S
H813 C805 0.960 . S
H814 C806 0.930 . S
H815 C807 0.929 . S
H816 C824 0.929 . S
H817 C826 0.930 . S
H818 C828 0.930 . S
H819 C831 0.929 . S
H820 C834 0.930 . S
H821 C836 0.960 . S
H822 C836 0.960 . S
H823 C836 0.960 . S
C824 H816 0.929 . S
C824 C825 1.377 . S
C824 C826 1.384 . S
C825 C824 1.377 . S
C825 C831 1.390 . S
C826 H817 0.930 . S
C826 C824 1.384 . S
C826 C827 1.372 . S
C827 C826 1.372 . S
C827 C828 1.400 . S
C827 C832 1.490 . S
C828 H818 0.930 . S
C828 C827 1.400 . S
C828 C831 1.386 . S
H829 C845 0.930 . S
H830 C846 0.931 . S
C831 H819 0.929 . S
C831 C825 1.390 . S
C831 C828 1.386 . S
C832 C827 1.490 . S
C832 C834 1.395 . S
C832 C835 1.403 . S
H833 C839 0.930 . S
C834 H820 0.930 . S
C834 C832 1.395 . S
C834 C837 1.403 1_655 S
C835 C832 1.403 . S
C835 C836 1.524 . S
C835 C839 1.400 1_655 S
C836 H821 0.960 . S
C836 H822 0.960 . S
C836 H823 0.960 . S
C836 C835 1.524 . S
C837 C834 1.403 1_455 S
C837 C838 1.392 . S
C837 C841 1.495 . S
C838 C837 1.392 . S
C838 C839 1.385 . S
C838 C840 1.478 . S
C839 H833 0.930 . S
C839 C835 1.400 1_455 S
C839 C838 1.385 . S
C840 C838 1.478 . S
C840 C842 1.381 . S
C840 C846 1.383 . S
C841 C837 1.495 . S
C841 H847 0.959 . S
C841 H848 0.961 . S
C841 H849 0.960 . S
C842 C840 1.381 . S
C842 C843 1.394 . S
C842 H850 0.930 . S
C843 C842 1.394 . S
C843 C844 1.383 . S
C843 H851 0.929 . S
C844 C843 1.383 . S
C844 C845 1.377 . S
C845 H829 0.930 . S
C845 C844 1.377 . S
C845 C846 1.379 . S
C846 H830 0.931 . S
C846 C840 1.383 . S
C846 C845 1.379 . S
H847 C841 0.959 . S
H848 C841 0.961 . S
H849 C841 0.960 . S
H850 C842 0.930 . S
H851 C843 0.929 . S
H852 C860 0.929 . S
H853 C862 0.930 . S
H854 C864 0.930 . S
H855 C867 0.929 . S
H856 C870 0.930 . S
H857 C872 0.960 . S
H858 C872 0.960 . S
H859 C872 0.960 . S
C860 H852 0.929 . S
C860 C861 1.377 . S
C860 C862 1.384 . S
C861 C860 1.377 . S
C861 C867 1.390 . S
C862 H853 0.930 . S
C862 C860 1.384 . S
C862 C863 1.372 . S
C863 C862 1.372 . S
C863 C864 1.400 . S
C863 C868 1.490 . S
C864 H854 0.930 . S
C864 C863 1.400 . S
C864 C867 1.386 . S
H865 C881 0.930 . S
H866 C882 0.931 . S
C867 H855 0.929 . S
C867 C861 1.390 . S
C867 C864 1.386 . S
C868 C863 1.490 . S
C868 C870 1.395 . S
C868 C871 1.403 . S
H869 C875 0.930 . S
C870 H856 0.930 . S
C870 C868 1.395 . S
C870 C873 1.403 1_545 S
C871 C868 1.403 . S
C871 C872 1.524 . S
C871 C875 1.400 1_545 S
C872 H857 0.960 . S
C872 H858 0.960 . S
C872 H859 0.960 . S
C872 C871 1.524 . S
C873 C870 1.403 1_565 S
C873 C874 1.392 . S
C873 C877 1.495 . S
C874 C873 1.392 . S
C874 C875 1.385 . S
C874 C876 1.478 . S
C875 H869 0.930 . S
C875 C871 1.400 1_565 S
C875 C874 1.385 . S
C876 C874 1.478 . S
C876 C878 1.381 . S
C876 C882 1.383 . S
C877 C873 1.495 . S
C877 H883 0.959 . S
C877 H884 0.961 . S
C877 H885 0.960 . S
C878 C876 1.381 . S
C878 C879 1.394 . S
C878 H886 0.930 . S
C879 C878 1.394 . S
C879 C880 1.383 . S
C879 H887 0.929 . S
C880 C879 1.383 . S
C880 C881 1.377 . S
C881 H865 0.930 . S
C881 C880 1.377 . S
C881 C882 1.379 . S
C882 H866 0.931 . S
C882 C876 1.383 . S
C882 C881 1.379 . S
H883 C877 0.959 . S
H884 C877 0.961 . S
H885 C877 0.960 . S
H886 C878 0.930 . S
H887 C879 0.929 . S
H888 C896 0.929 . S
H889 C898 0.930 . S
H890 C900 0.930 . S
H891 C903 0.929 . S
H892 C906 0.930 . S
H893 C908 0.960 . S
H894 C908 0.960 . S
H895 C908 0.960 . S
C896 H888 0.929 . S
C896 C897 1.377 . S
C896 C898 1.384 . S
C897 C896 1.377 . S
C897 C903 1.390 . S
C898 H889 0.930 . S
C898 C896 1.384 . S
C898 C899 1.372 . S
C899 C898 1.372 . S
C899 C900 1.400 . S
C899 C904 1.490 . S
C900 H890 0.930 . S
C900 C899 1.400 . S
C900 C903 1.386 . S
H901 C917 0.930 . S
H902 C918 0.931 . S
C903 H891 0.929 . S
C903 C897 1.390 . S
C903 C900 1.386 . S
C904 C899 1.490 . S
C904 C906 1.395 . S
C904 C907 1.403 . S
H905 C911 0.930 . S
C906 H892 0.930 . S
C906 C904 1.395 . S
C906 C909 1.403 . S
C907 C904 1.403 . S
C907 C908 1.524 . S
C907 C911 1.400 . S
C908 H893 0.960 . S
C908 H894 0.960 . S
C908 H895 0.960 . S
C908 C907 1.524 . S
C909 C906 1.403 . S
C909 C910 1.392 . S
C909 C913 1.495 . S
C910 C909 1.392 . S
C910 C911 1.385 . S
C910 C912 1.478 . S
C911 H905 0.930 . S
C911 C907 1.400 . S
C911 C910 1.385 . S
C912 C910 1.478 . S
C912 C914 1.381 . S
C912 C918 1.383 . S
C913 C909 1.495 . S
C913 H919 0.959 . S
C913 H920 0.961 . S
C913 H921 0.960 . S
C914 C912 1.381 . S
C914 C915 1.394 . S
C914 H922 0.930 . S
C915 C914 1.394 . S
C915 C916 1.383 . S
C915 H923 0.929 . S
C916 C915 1.383 . S
C916 C917 1.377 . S
C917 H901 0.930 . S
C917 C916 1.377 . S
C917 C918 1.379 . S
C918 H902 0.931 . S
C918 C912 1.383 . S
C918 C917 1.379 . S
H919 C913 0.959 . S
H920 C913 0.961 . S
H921 C913 0.960 . S
H922 C914 0.930 . S
H923 C915 0.929 . S
H924 C932 0.929 . S
H925 C934 0.930 . S
H926 C936 0.930 . S
H927 C939 0.929 . S
H928 C942 0.930 . S
H929 C944 0.960 . S
H930 C944 0.960 . S
H931 C944 0.960 . S
C932 H924 0.929 . S
C932 C933 1.377 . S
C932 C934 1.384 . S
C933 C932 1.377 . S
C933 C939 1.390 . S
C934 H925 0.930 . S
C934 C932 1.384 . S
C934 C935 1.372 . S
C935 C934 1.372 . S
C935 C936 1.400 . S
C935 C940 1.490 . S
C936 H926 0.930 . S
C936 C935 1.400 . S
C936 C939 1.386 . S
H937 C953 0.930 . S
H938 C954 0.931 . S
C939 H927 0.929 . S
C939 C933 1.390 . S
C939 C936 1.386 . S
C940 C935 1.490 . S
C940 C942 1.395 . S
C940 C943 1.403 . S
H941 C947 0.930 . S
C942 H928 0.930 . S
C942 C940 1.395 . S
C942 C945 1.403 1_655 S
C943 C940 1.403 . S
C943 C944 1.524 . S
C943 C947 1.400 1_655 S
C944 H929 0.960 . S
C944 H930 0.960 . S
C944 H931 0.960 . S
C944 C943 1.524 . S
C945 C942 1.403 1_455 S
C945 C946 1.392 . S
C945 C949 1.495 . S
C946 C945 1.392 . S
C946 C947 1.385 . S
C946 C948 1.478 . S
C947 H941 0.930 . S
C947 C943 1.400 1_455 S
C947 C946 1.385 . S
C948 C946 1.478 . S
C948 C950 1.381 . S
C948 C954 1.383 . S
C949 C945 1.495 . S
C949 H955 0.959 . S
C949 H956 0.961 . S
C949 H957 0.960 . S
C950 C948 1.381 . S
C950 C951 1.394 . S
C950 H958 0.930 . S
C951 C950 1.394 . S
C951 C952 1.383 . S
C951 H959 0.929 . S
C952 C951 1.383 . S
C952 C953 1.377 . S
C953 H937 0.930 . S
C953 C952 1.377 . S
C953 C954 1.379 . S
C954 H938 0.931 . S
C954 C948 1.383 . S
C954 C953 1.379 . S
H955 C949 0.959 . S
H956 C949 0.961 . S
H957 C949 0.960 . S
H958 C950 0.930 . S
H959 C951 0.929 . S
H960 C968 0.929 . S
H961 C970 0.930 . S
H962 C972 0.930 . S
H963 C975 0.929 . S
H964 C978 0.930 . S
H965 C980 0.960 . S
H966 C980 0.960 . S
H967 C980 0.960 . S
C968 H960 0.929 . S
C968 C969 1.377 . S
C968 C970 1.384 . S
C969 C968 1.377 . S
C969 C975 1.390 . S
C970 H961 0.930 . S
C970 C968 1.384 . S
C970 C971 1.372 . S
C971 C970 1.372 . S
C971 C972 1.400 . S
C971 C976 1.490 . S
C972 H962 0.930 . S
C972 C971 1.400 . S
C972 C975 1.386 . S
H973 C989 0.930 . S
H974 C990 0.931 . S
C975 H963 0.929 . S
C975 C969 1.390 . S
C975 C972 1.386 . S
C976 C971 1.490 . S
C976 C978 1.395 . S
C976 C979 1.403 . S
H977 C983 0.930 . S
C978 H964 0.930 . S
C978 C976 1.395 . S
C978 C981 1.403 1_565 S
C979 C976 1.403 . S
C979 C980 1.524 . S
C979 C983 1.400 1_565 S
C980 H965 0.960 . S
C980 H966 0.960 . S
C980 H967 0.960 . S
C980 C979 1.524 . S
C981 C978 1.403 1_545 S
C981 C982 1.392 . S
C981 C985 1.495 . S
C982 C981 1.392 . S
C982 C983 1.385 . S
C982 C984 1.478 . S
C983 H977 0.930 . S
C983 C979 1.400 1_545 S
C983 C982 1.385 . S
C984 C982 1.478 . S
C984 C986 1.381 . S
C984 C990 1.383 . S
C985 C981 1.495 . S
C985 H991 0.959 . S
C985 H992 0.961 . S
C985 H993 0.960 . S
C986 C984 1.381 . S
C986 C987 1.394 . S
C986 H994 0.930 . S
C987 C986 1.394 . S
C987 C988 1.383 . S
C987 H995 0.929 . S
C988 C987 1.383 . S
C988 C989 1.377 . S
C989 H973 0.930 . S
C989 C988 1.377 . S
C989 C990 1.379 . S
C990 H974 0.931 . S
C990 C984 1.383 . S
C990 C989 1.379 . S
H991 C985 0.959 . S
H992 C985 0.961 . S
H993 C985 0.960 . S
H994 C986 0.930 . S
H995 C987 0.929 . S
H996 C1004 0.929 . S
H997 C1006 0.930 . S
H998 C1008 0.930 . S
H999 C1011 0.929 . S
H1000 C1014 0.930 . S
H1001 C1016 0.960 . S
H1002 C1016 0.960 . S
H1003 C1016 0.960 . S
C1004 H996 0.929 . S
C1004 C1005 1.377 . S
C1004 C1006 1.384 . S
C1005 C1004 1.377 . S
C1005 C1011 1.390 . S
C1006 H997 0.930 . S
C1006 C1004 1.384 . S
C1006 C1007 1.372 . S
C1007 C1006 1.372 . S
C1007 C1008 1.400 . S
C1007 C1012 1.490 . S
C1008 H998 0.930 . S
C1008 C1007 1.400 . S
C1008 C1011 1.386 . S
H1009 C1025 0.930 . S
H1010 C1026 0.931 . S
C1011 H999 0.929 . S
C1011 C1005 1.390 . S
C1011 C1008 1.386 . S
C1012 C1007 1.490 . S
C1012 C1014 1.395 . S
C1012 C1015 1.403 . S
H1013 C1019 0.930 . S
C1014 H1000 0.930 . S
C1014 C1012 1.395 . S
C1014 C1017 1.403 . S
C1015 C1012 1.403 . S
C1015 C1016 1.524 . S
C1015 C1019 1.400 . S
C1016 H1001 0.960 . S
C1016 H1002 0.960 . S
C1016 H1003 0.960 . S
C1016 C1015 1.524 . S
C1017 C1014 1.403 . S
C1017 C1018 1.392 . S
C1017 C1021 1.495 . S
C1018 C1017 1.392 . S
C1018 C1019 1.385 . S
C1018 C1020 1.478 . S
C1019 H1013 0.930 . S
C1019 C1015 1.400 . S
C1019 C1018 1.385 . S
C1020 C1018 1.478 . S
C1020 C1022 1.381 . S
C1020 C1026 1.383 . S
C1021 C1017 1.495 . S
C1021 H1027 0.959 . S
C1021 H1028 0.961 . S
C1021 H1029 0.960 . S
C1022 C1020 1.381 . S
C1022 C1023 1.394 . S
C1022 H1030 0.930 . S
C1023 C1022 1.394 . S
C1023 C1024 1.383 . S
C1023 H1031 0.929 . S
C1024 C1023 1.383 . S
C1024 C1025 1.377 . S
C1025 H1009 0.930 . S
C1025 C1024 1.377 . S
C1025 C1026 1.379 . S
C1026 H1010 0.931 . S
C1026 C1020 1.383 . S
C1026 C1025 1.379 . S
H1027 C1021 0.959 . S
H1028 C1021 0.961 . S
H1029 C1021 0.960 . S
H1030 C1022 0.930 . S
H1031 C1023 0.929 . S
C177 C117 1.901 . S
C196 C5 1.900 . S
C213 C23 1.834 . S
C232 C135 1.831 . S
C249 C33 1.900 . S
C268 C145 1.895 . S
C285 C47 1.901 . S
C304 C159 1.900 . S
C321 C93 1.835 . S
C340 C65 1.831 . S
C357 C75 1.901 . S
C376 C103 1.898 . S
C393 C51 0.689 . S
C412 C9 0.671 . S
C429 C61 0.719 . S
C448 C19 0.681 . S
C465 C79 0.830 . S
C484 C37 0.782 . S
C501 C89 0.730 . S
C520 C131 0.773 . S
C537 C107 0.689 . S
C556 C149 0.669 . S
C573 C121 0.836 . S
C592 C163 0.882 . S
C609 C11 1.554 . S
C628 C126 1.545 . S
C645 C14 1.555 . S
C664 C151 1.542 . S
C681 C39 1.565 . S
C700 C165 1.576 . S
C717 C84 1.548 . S
C736 C53 1.557 . S
C753 C56 1.548 . S
C772 C109 1.564 . S
C789 C123 1.567 . S
C808 C81 1.558 . S
C825 C154 1.097 . S
C844 C0 1.090 . S
C861 C25 1.021 . S
C880 C95 1.002 . S
C897 C98 1.092 . S
C916 C28 1.067 . S
C933 C42 1.095 . S
C952 C112 1.112 . S
C969 C67 1.021 . S
C988 C137 1.002 . S
C1005 C140 1.101 . S
C1024 C70 1.092 . S
