# Generated by pormake.
# Topology smd, (6)-cn, num edge types: 1
# Building blocks:
#     Node 0, Type 0, BuildingBlock: INOVEN_clean_sbu_0, # of connection points: 6
#     Node 1, Type 0, BuildingBlock: INOVEN_clean_sbu_0, # of connection points: 6
#     Node 2, Type 0, BuildingBlock: INOVEN_clean_sbu_0, # of connection points: 6
#     Node 3, Type 0, BuildingBlock: INOVEN_clean_sbu_0, # of connection points: 6
#     Node 4, Type 0, BuildingBlock: INOVEN_clean_sbu_0, # of connection points: 6
#     Node 5, Type 0, BuildingBlock: INOVEN_clean_sbu_0, # of connection points: 6
#     Node 6, Type 0, BuildingBlock: INOVEN_clean_sbu_0, # of connection points: 6
#     Node 7, Type 0, BuildingBlock: INOVEN_clean_sbu_0, # of connection points: 6
#     Node 8, Type 0, BuildingBlock: INOVEN_clean_sbu_0, # of connection points: 6
#     Node 9, Type 0, BuildingBlock: INOVEN_clean_sbu_0, # of connection points: 6
#     Node 10, Type 0, BuildingBlock: INOVEN_clean_sbu_0, # of connection points: 6
#     Node 11, Type 0, BuildingBlock: INOVEN_clean_sbu_0, # of connection points: 6
#     Node 12, Type 0, BuildingBlock: INOVEN_clean_sbu_0, # of connection points: 6
#     Node 13, Type 0, BuildingBlock: INOVEN_clean_sbu_0, # of connection points: 6
#     Node 14, Type 0, BuildingBlock: INOVEN_clean_sbu_0, # of connection points: 6
#     Node 15, Type 0, BuildingBlock: INOVEN_clean_sbu_0, # of connection points: 6
#     Node 16, Type 0, BuildingBlock: INOVEN_clean_sbu_0, # of connection points: 6
#     Node 17, Type 0, BuildingBlock: INOVEN_clean_sbu_0, # of connection points: 6
#     Edge 18, Type (0, 0), BuildingBlock: EZIPEK_clean_linker_0, # of connection points: 2
#     Edge 19, Type (0, 0), BuildingBlock: EZIPEK_clean_linker_0, # of connection points: 2
#     Edge 20, Type (0, 0), BuildingBlock: EZIPEK_clean_linker_0, # of connection points: 2
#     Edge 21, Type (0, 0), BuildingBlock: EZIPEK_clean_linker_0, # of connection points: 2
#     Edge 22, Type (0, 0), BuildingBlock: EZIPEK_clean_linker_0, # of connection points: 2
#     Edge 23, Type (0, 0), BuildingBlock: EZIPEK_clean_linker_0, # of connection points: 2
#     Edge 24, Type (0, 0), BuildingBlock: EZIPEK_clean_linker_0, # of connection points: 2
#     Edge 25, Type (0, 0), BuildingBlock: EZIPEK_clean_linker_0, # of connection points: 2
#     Edge 26, Type (0, 0), BuildingBlock: EZIPEK_clean_linker_0, # of connection points: 2
#     Edge 27, Type (0, 0), BuildingBlock: EZIPEK_clean_linker_0, # of connection points: 2
#     Edge 28, Type (0, 0), BuildingBlock: EZIPEK_clean_linker_0, # of connection points: 2
#     Edge 29, Type (0, 0), BuildingBlock: EZIPEK_clean_linker_0, # of connection points: 2
#     Edge 30, Type (0, 0), BuildingBlock: EZIPEK_clean_linker_0, # of connection points: 2
#     Edge 31, Type (0, 0), BuildingBlock: EZIPEK_clean_linker_0, # of connection points: 2
#     Edge 32, Type (0, 0), BuildingBlock: EZIPEK_clean_linker_0, # of connection points: 2
#     Edge 33, Type (0, 0), BuildingBlock: EZIPEK_clean_linker_0, # of connection points: 2
#     Edge 34, Type (0, 0), BuildingBlock: EZIPEK_clean_linker_0, # of connection points: 2
#     Edge 35, Type (0, 0), BuildingBlock: EZIPEK_clean_linker_0, # of connection points: 2
#     Edge 36, Type (0, 0), BuildingBlock: EZIPEK_clean_linker_0, # of connection points: 2
#     Edge 37, Type (0, 0), BuildingBlock: EZIPEK_clean_linker_0, # of connection points: 2
#     Edge 38, Type (0, 0), BuildingBlock: EZIPEK_clean_linker_0, # of connection points: 2
#     Edge 39, Type (0, 0), BuildingBlock: EZIPEK_clean_linker_0, # of connection points: 2
#     Edge 40, Type (0, 0), BuildingBlock: EZIPEK_clean_linker_0, # of connection points: 2
#     Edge 41, Type (0, 0), BuildingBlock: EZIPEK_clean_linker_0, # of connection points: 2
#     Edge 42, Type (0, 0), BuildingBlock: EZIPEK_clean_linker_0, # of connection points: 2
#     Edge 43, Type (0, 0), BuildingBlock: EZIPEK_clean_linker_0, # of connection points: 2
#     Edge 44, Type (0, 0), BuildingBlock: EZIPEK_clean_linker_0, # of connection points: 2
#     Edge 45, Type (0, 0), BuildingBlock: EZIPEK_clean_linker_0, # of connection points: 2
#     Edge 46, Type (0, 0), BuildingBlock: EZIPEK_clean_linker_0, # of connection points: 2
#     Edge 47, Type (0, 0), BuildingBlock: EZIPEK_clean_linker_0, # of connection points: 2
#     Edge 48, Type (0, 0), BuildingBlock: EZIPEK_clean_linker_0, # of connection points: 2
#     Edge 49, Type (0, 0), BuildingBlock: EZIPEK_clean_linker_0, # of connection points: 2
#     Edge 50, Type (0, 0), BuildingBlock: EZIPEK_clean_linker_0, # of connection points: 2
#     Edge 51, Type (0, 0), BuildingBlock: EZIPEK_clean_linker_0, # of connection points: 2
#     Edge 52, Type (0, 0), BuildingBlock: EZIPEK_clean_linker_0, # of connection points: 2
#     Edge 53, Type (0, 0), BuildingBlock: EZIPEK_clean_linker_0, # of connection points: 2
#     Edge 54, Type (0, 0), BuildingBlock: EZIPEK_clean_linker_0, # of connection points: 2
#     Edge 55, Type (0, 0), BuildingBlock: EZIPEK_clean_linker_0, # of connection points: 2
#     Edge 56, Type (0, 0), BuildingBlock: EZIPEK_clean_linker_0, # of connection points: 2
#     Edge 57, Type (0, 0), BuildingBlock: EZIPEK_clean_linker_0, # of connection points: 2
#     Edge 58, Type (0, 0), BuildingBlock: EZIPEK_clean_linker_0, # of connection points: 2
#     Edge 59, Type (0, 0), BuildingBlock: EZIPEK_clean_linker_0, # of connection points: 2
#     Edge 60, Type (0, 0), BuildingBlock: EZIPEK_clean_linker_0, # of connection points: 2
#     Edge 61, Type (0, 0), BuildingBlock: EZIPEK_clean_linker_0, # of connection points: 2
#     Edge 62, Type (0, 0), BuildingBlock: EZIPEK_clean_linker_0, # of connection points: 2
#     Edge 63, Type (0, 0), BuildingBlock: EZIPEK_clean_linker_0, # of connection points: 2
#     Edge 64, Type (0, 0), BuildingBlock: EZIPEK_clean_linker_0, # of connection points: 2
#     Edge 65, Type (0, 0), BuildingBlock: EZIPEK_clean_linker_0, # of connection points: 2
#     Edge 66, Type (0, 0), BuildingBlock: EZIPEK_clean_linker_0, # of connection points: 2
#     Edge 67, Type (0, 0), BuildingBlock: EZIPEK_clean_linker_0, # of connection points: 2
#     Edge 68, Type (0, 0), BuildingBlock: EZIPEK_clean_linker_0, # of connection points: 2
#     Edge 69, Type (0, 0), BuildingBlock: EZIPEK_clean_linker_0, # of connection points: 2
#     Edge 70, Type (0, 0), BuildingBlock: EZIPEK_clean_linker_0, # of connection points: 2
#     Edge 71, Type (0, 0), BuildingBlock: EZIPEK_clean_linker_0, # of connection points: 2
# Relax obj value: 0.285
# Max RMSD: 0.380
# Mean RMSD: 0.350
data_MOF--net-smd--node1-INOVEN_clean_sbu_0--edge1-EZIPEK_clean_linker_0
_symmetry_space_group_name_H-M    P1
_symmetry_Int_Tables_number       1
_symmetry_cell_setting            triclinic
loop_
_symmetry_equiv_pos_as_xyz
'x, y, z'
_cell_length_a     47.691644
_cell_length_b     48.087358
_cell_length_c     21.011715
_cell_angle_alpha  93.121239
_cell_angle_beta   93.108253
_cell_angle_gamma 120.02649
loop_
_atom_site_label
_atom_site_type_symbol
_atom_site_fract_x
_atom_site_fract_y
_atom_site_fract_z
_atom_type_partial_charge
Gd0 Gd 0.02847 0.2564 0.58829 0.0
Gd1 Gd 0.98753 0.23305 0.47516 0.0
C2 C 0.96482 0.18033 0.56962 0.0
C3 C 0.04696 0.28039 0.70745 0.0
C4 C 0.03217 0.27709 0.76943 0.0
C5 C 1.00772 0.24688 0.78552 0.0
C6 C 0.04516 0.30354 0.8162 0.0
C7 C 1.01235 0.26896 0.89569 0.0
C8 C 0.03523 0.2996 0.87851 0.0
C9 C 0.99806 0.24285 0.84796 0.0
C10 C 0.06208 0.23468 0.52361 0.0
C11 C 0.05001 0.30157 0.4654 0.0
C12 C 0.96141 0.21849 0.35656 0.0
C13 C 0.9702 0.22776 0.29024 0.0
C14 C 0.96696 0.25264 0.26456 0.0
C15 C 0.98011 0.21039 0.25026 0.0
C16 C 0.98377 0.2427 0.16164 0.0
C17 C 0.98685 0.2178 0.18705 0.0
C18 C 0.97365 0.25999 0.20116 0.0
C19 C 0.96331 0.25425 0.57469 0.0
O20 O 0.98561 0.20582 0.61013 0.0
O21 O 0.9646 0.18391 0.50844 0.0
O22 O 0.04735 0.25505 0.68316 0.0
O23 O 0.04044 0.29514 0.66353 0.0
O24 O 0.06907 0.24743 0.58187 0.0
O25 O 0.03548 0.2326 0.49767 0.0
O26 O 0.02052 0.28065 0.44146 0.0
O27 O 0.05986 0.2981 0.52411 0.0
O28 O 0.95962 0.2391 0.39685 0.0
O29 O 0.97404 0.20315 0.38465 0.0
O30 O 0.94698 0.22722 0.53856 0.0
O31 O 0.99153 0.26772 0.55593 0.0
H32 H 0.99705 0.22601 0.75058 0.0
H33 H 0.06397 0.32704 0.80529 0.0
H34 H 0.04649 0.3202 0.91416 0.0
H35 H 0.98025 0.21903 0.85967 0.0
H36 H 0.95907 0.26637 0.29333 0.0
H37 H 0.98245 0.1908 0.26766 0.0
H38 H 0.99443 0.20396 0.15772 0.0
H39 H 0.97107 0.27931 0.18295 0.0
Gd40 Gd 0.78974 0.76625 0.47794 0.0
Gd41 Gd 0.77706 0.78873 0.58916 0.0
C42 C 0.80162 0.84048 0.49268 0.0
C43 C 0.78763 0.7386 0.36556 0.0
C44 C 0.78527 0.74469 0.29743 0.0
C45 C 0.80578 0.74177 0.25541 0.0
C46 C 0.76258 0.753 0.27338 0.0
C47 C 0.78064 0.75477 0.16647 0.0
C48 C 0.76 0.75756 0.20844 0.0
C49 C 0.8037 0.74703 0.19074 0.0
C50 C 0.84737 0.79698 0.55408 0.0
C51 C 0.76537 0.71871 0.59921 0.0
C52 C 0.77011 0.80478 0.70487 0.0
C53 C 0.77148 0.79486 0.77058 0.0
C54 C 0.7426 0.77453 0.79808 0.0
C55 C 0.80139 0.80673 0.80775 0.0
C56 C 0.77345 0.77874 0.89812 0.0
C57 C 0.80233 0.79871 0.87072 0.0
C58 C 0.74357 0.76652 0.8611 0.0
C59 C 0.72684 0.76723 0.48832 0.0
O60 O 0.79109 0.81406 0.4519 0.0
O61 O 0.80576 0.8374 0.55349 0.0
O62 O 0.81454 0.75843 0.40034 0.0
O63 O 0.76235 0.73103 0.39679 0.0
O64 O 0.84302 0.80281 0.49611 0.0
O65 O 0.81904 0.77861 0.57284 0.0
O66 O 0.76352 0.74226 0.62826 0.0
O67 O 0.77547 0.72184 0.54003 0.0
O68 O 0.74579 0.78423 0.66409 0.0
O69 O 0.79743 0.81985 0.67812 0.0
O70 O 0.73906 0.79418 0.52448 0.0
O71 O 0.7425 0.75421 0.50771 0.0
H72 H 0.82351 0.73546 0.27269 0.0
H73 H 0.74688 0.75605 0.30475 0.0
H74 H 0.74214 0.76367 0.19103 0.0
H75 H 0.81998 0.7449 0.15944 0.0
H76 H 0.71914 0.76517 0.77118 0.0
H77 H 0.82412 0.82261 0.7886 0.0
H78 H 0.82562 0.80853 0.89855 0.0
H79 H 0.72099 0.75123 0.88138 0.0
Gd80 Gd 0.23983 0.99848 0.56649 0.0
Gd81 Gd 0.24968 0.03247 0.46899 0.0
C82 C 0.22417 0.06012 0.56583 0.0
C83 C 0.23899 0.97903 0.68012 0.0
C84 C 0.24308 0.99056 0.74845 0.0
C85 C 0.22116 0.96997 0.78939 0.0
C86 C 0.2686 0.0211 0.77391 0.0
C87 C 0.25066 1.00957 0.88059 0.0
C88 C 0.27253 0.03044 0.83969 0.0
C89 C 0.22481 0.97942 0.85477 0.0
C90 C 0.18537 0.96021 0.48718 0.0
C91 C 0.25698 0.97321 0.43585 0.0
C92 C 0.26494 0.05828 0.36085 0.0
C93 C 0.2623 0.04975 0.29072 0.0
C94 C 0.29081 0.05858 0.26032 0.0
C95 C 0.2322 0.03408 0.25307 0.0
C96 C 0.25933 0.03628 0.15664 0.0
C97 C 0.23077 0.02739 0.18667 0.0
C98 C 0.28934 0.05187 0.19407 0.0
C99 C 0.30225 0.06096 0.56643 0.0
O100 O 0.23314 0.04288 0.60126 0.0
O101 O 0.22309 0.05561 0.50405 0.0
O102 O 0.21323 0.97492 0.64661 0.0
O103 O 0.26462 0.99143 0.64838 0.0
O104 O 0.20337 0.95093 0.5163 0.0
O105 O 0.1994 0.9915 0.4951 0.0
O106 O 0.24246 0.98816 0.41546 0.0
O107 O 0.26328 0.9764 0.49937 0.0
O108 O 0.28383 0.05202 0.39697 0.0
O109 O 0.23874 0.0528 0.38758 0.0
O110 O 0.28737 0.07468 0.54175 0.0
O111 O 0.28725 0.03254 0.54014 0.0
H112 H 0.20131 0.94635 0.77079 0.0
H113 H 0.28555 0.0376 0.74318 0.0
H114 H 0.29268 0.05378 0.85876 0.0
H115 H 0.20775 0.96298 0.88554 0.0
H116 H 0.31436 0.07087 0.28787 0.0
H117 H 0.20979 0.02706 0.27476 0.0
H118 H 0.20737 0.01544 0.15859 0.0
H119 H 0.31168 0.05905 0.1719 0.0
Gd120 Gd 0.03659 0.79295 0.60619 0.0
Gd121 Gd 0.99813 0.76673 0.48782 0.0
C122 C 0.97938 0.72078 0.61179 0.0
C123 C 0.05956 0.8096 0.72588 0.0
C124 C 0.04882 0.79818 0.78992 0.0
C125 C 0.05484 0.77508 0.81632 0.0
C126 C 0.03396 0.81157 0.82698 0.0
C127 C 0.03186 0.77954 0.91493 0.0
C128 C 0.02551 0.8023 0.88851 0.0
C129 C 0.04646 0.76589 0.87804 0.0
C130 C 0.06484 0.77404 0.51121 0.0
C131 C 0.05915 0.84315 0.50412 0.0
C132 C 0.97403 0.73693 0.37326 0.0
C133 C 0.9829 0.74256 0.3059 0.0
C134 C 0.9695 0.75622 0.26546 0.0
C135 C 1.00406 0.73323 0.28048 0.0
C136 C 0.99903 0.75206 0.17732 0.0
C137 C 1.0122 0.73812 0.2172 0.0
C138 C 0.9775 0.76094 0.20197 0.0
C139 C 0.97197 0.79706 0.5558 0.0
O140 O 1.00569 0.74508 0.64175 0.0
O141 O 0.9702 0.72305 0.55136 0.0
O142 O 0.06575 0.79141 0.6875 0.0
O143 O 0.04496 0.82256 0.69513 0.0
O144 O 0.08041 0.80018 0.55017 0.0
O145 O 0.03635 0.7597 0.52747 0.0
O146 O 0.04292 0.81589 0.46472 0.0
O147 O 0.05483 0.84057 0.5653 0.0
O148 O 0.96454 0.75504 0.40225 0.0
O149 O 0.99276 0.73154 0.41175 0.0
O150 O 0.97885 0.80064 0.49694 0.0
O151 O 0.98336 0.77998 0.57892 0.0
H152 H 0.06648 0.76439 0.78971 0.0
H153 H 0.02924 0.82963 0.8088 0.0
H154 H 1.01447 0.81332 0.91609 0.0
H155 H 0.05179 0.74843 0.8974 0.0
H156 H 0.95279 0.76329 0.28285 0.0
H157 H 1.01434 0.72206 0.30949 0.0
H158 H 0.02878 0.73098 0.19931 0.0
H159 H 0.96704 0.77174 0.17212 0.0
Gd160 Gd 0.24932 0.23123 0.47558 0.0
Gd161 Gd 0.24172 0.25852 0.5807 0.0
C162 C 0.25795 0.29731 0.4507 0.0
C163 C 0.26306 0.21914 0.36272 0.0
C164 C 0.26153 0.22779 0.29602 0.0
C165 C 0.27542 0.26019 0.28202 0.0
C166 C 0.24776 0.20341 0.2449 0.0
C167 C 0.26213 0.24342 0.16748 0.0
C168 C 0.24803 0.21112 0.18136 0.0
C169 C 0.2757 0.2679 0.21845 0.0
C170 C 0.30221 0.25496 0.57248 0.0
C171 C 0.22383 0.18021 0.56869 0.0
C172 C 0.24507 0.28017 0.6994 0.0
C173 C 0.25118 0.27441 0.76644 0.0
C174 C 0.23109 0.24473 0.79094 0.0
C175 C 0.2758 0.29983 0.80833 0.0
C176 C 0.25906 0.26659 0.89793 0.0
C177 C 0.27979 0.29596 0.87337 0.0
C178 C 0.23497 0.24093 0.85599 0.0
C179 C 0.18763 0.24408 0.50414 0.0
O180 O 0.24389 0.2678 0.42525 0.0
O181 O 0.26402 0.30167 0.51475 0.0
O182 O 0.28389 0.24229 0.40493 0.0
O183 O 0.23569 0.19997 0.38622 0.0
O184 O 0.28642 0.22616 0.54324 0.0
O185 O 0.28802 0.26898 0.55013 0.0
O186 O 0.23273 0.2072 0.60697 0.0
O187 O 0.22322 0.18228 0.50709 0.0
O188 O 0.21825 0.25835 0.66641 0.0
O189 O 0.26953 0.29235 0.66447 0.0
O190 O 0.20577 0.27041 0.54077 0.0
O191 O 0.20041 0.22563 0.50645 0.0
H192 H 0.2865 0.27966 0.32006 0.0
H193 H 0.23717 0.17832 0.25408 0.0
H194 H 0.23745 0.19186 0.14286 0.0
H195 H 0.28674 0.29299 0.20898 0.0
H196 H 0.21186 0.22462 0.76025 0.0
H197 H 0.29148 0.32301 0.79102 0.0
H198 H 0.29855 0.31609 0.90482 0.0
H199 H 0.21878 0.21807 0.8739 0.0
Gd200 Gd 0.77564 0.99177 0.59629 0.0
Gd201 Gd 0.78906 0.02633 0.49957 0.0
C202 C 0.77442 0.05425 0.63084 0.0
C203 C 0.75627 0.9652 0.70253 0.0
C204 C 0.75931 0.97285 0.77311 0.0
C205 C 0.73117 0.96501 0.80408 0.0
C206 C 0.78945 0.98714 0.81043 0.0
C207 C 0.7631 0.98566 0.90775 0.0
C208 C 0.7913 0.99353 0.87705 0.0
C209 C 0.73305 0.97139 0.87059 0.0
C210 C 0.72483 0.96632 0.49497 0.0
C211 C 0.80181 0.96255 0.50404 0.0
C212 C 0.79198 0.04579 0.38536 0.0
C213 C 0.78662 0.03377 0.31697 0.0
C214 C 0.80705 0.05432 0.27405 0.0
C215 C 0.76119 1.00283 0.29337 0.0
C216 C 0.77622 0.01385 0.18461 0.0
C217 C 0.75586 0.99303 0.22753 0.0
C218 C 0.80199 0.04444 0.20857 0.0
C219 C 0.84207 0.06299 0.58193 0.0
O220 O 0.78626 0.03697 0.65122 0.0
O221 O 0.76876 0.05187 0.56714 0.0
O222 O 0.74057 0.9755 0.66739 0.0
O223 O 0.78132 0.96729 0.67591 0.0
O224 O 0.73827 0.95142 0.52025 0.0
O225 O 0.74047 0.99435 0.5227 0.0
O226 O 0.79507 0.98105 0.4675 0.0
O227 O 0.80085 0.96641 0.56539 0.0
O228 O 0.81665 0.0474 0.4187 0.0
O229 O 0.76652 0.03576 0.4174 0.0
O230 O 0.82591 0.07327 0.54951 0.0
O231 O 0.82739 0.03165 0.57419 0.0
H232 H 0.70763 0.95391 0.77667 0.0
H233 H 0.81159 0.99347 0.78824 0.0
H234 H 0.81474 1.00452 0.90478 0.0
H235 H 0.71106 0.96518 0.89326 0.0
H236 H 0.8268 0.07825 0.29117 0.0
H237 H 0.74536 0.98639 0.32563 0.0
H238 H 0.73579 0.96935 0.21 0.0
H239 H 0.81792 0.06087 0.17632 0.0
Gd240 Gd 0.6649 0.56215 0.78176 0.0
Gd241 Gd 0.70509 0.58076 0.8942 0.0
C242 C 0.72943 0.55077 0.796 0.0
C243 C 0.64244 0.55654 0.66255 0.0
C244 C 0.65325 0.56315 0.59718 0.0
C245 C 0.63097 0.54536 0.54383 0.0
C246 C 0.68483 0.5874 0.58679 0.0
C247 C 0.67142 0.57572 0.47074 0.0
C248 C 0.69379 0.5937 0.52413 0.0
C249 C 0.63995 0.5515 0.48137 0.0
C250 C 0.632 0.51505 0.86019 0.0
C251 C 0.64331 0.58604 0.90842 0.0
C252 C 0.73193 0.5995 1.01162 0.0
C253 C 0.72148 0.5968 0.07768 0.0
C254 C 0.73808 0.62345 0.12392 0.0
C255 C 0.69559 0.56803 0.09581 0.0
C256 C 0.70419 0.59232 0.20559 0.0
C257 C 0.68715 0.56579 0.1592 0.0
C258 C 0.72949 0.62129 0.18713 0.0
C259 C 0.72848 0.62593 0.80063 0.0
O260 O 0.70919 0.55546 0.75712 0.0
O261 O 0.72862 0.55445 0.85776 0.0
O262 O 0.65054 0.58138 0.70332 0.0
O263 O 0.64453 0.53368 0.68928 0.0
O264 O 0.61939 0.5262 0.82029 0.0
O265 O 0.66321 0.52942 0.85714 0.0
O266 O 0.66207 0.57719 0.93667 0.0
O267 O 0.6425 0.58646 0.84482 0.0
O268 O 0.7253 0.61719 0.97581 0.0
O269 O 0.72752 0.57331 0.9795 0.0
O270 O 0.74538 0.61694 0.83502 0.0
O271 O 0.70044 0.61075 0.81944 0.0
H272 H 0.60647 0.52665 0.55049 0.0
H273 H 0.70252 0.60141 0.62701 0.0
H274 H 0.71823 0.61246 0.51726 0.0
H275 H 0.62231 0.53727 0.44117 0.0
H276 H 0.75809 0.64589 0.11131 0.0
H277 H 0.68215 0.54714 0.06123 0.0
H278 H 0.66754 0.54321 0.17229 0.0
H279 H 0.743 0.64206 0.22197 0.0
Gd280 Gd 0.45137 0.10175 0.79409 0.0
Gd281 Gd 0.44306 0.12928 0.90779 0.0
C282 C 0.46713 0.17739 0.8043 0.0
C283 C 0.44307 0.07099 0.68174 0.0
C284 C 0.44175 0.07764 0.61353 0.0
C285 C 0.45605 0.06709 0.56865 0.0
C286 C 0.42553 0.09362 0.59207 0.0
C287 C 0.43842 0.08868 0.48255 0.0
C288 C 0.42383 0.09898 0.5273 0.0
C289 C 0.45449 0.07262 0.5039 0.0
C290 C 0.5109 0.13507 0.86333 0.0
C291 C 0.43218 0.05959 0.92259 0.0
C292 C 0.4369 0.14637 1.0234 0.0
C293 C 0.43699 0.13575 0.08893 0.0
C294 C 0.40889 0.12449 0.12188 0.0
C295 C 0.46472 0.13721 0.11989 0.0
C296 C 0.43644 0.11738 0.2155 0.0
C297 C 0.46443 0.12815 0.18247 0.0
C298 C 0.40859 0.11537 0.18433 0.0
C299 C 0.39127 0.10676 0.81053 0.0
O300 O 0.45488 0.14994 0.76598 0.0
O301 O 0.47189 0.17603 0.8659 0.0
O302 O 0.47106 0.0868 0.71591 0.0
O303 O 0.41955 0.06862 0.71388 0.0
O304 O 0.50484 0.13769 0.8038 0.0
O305 O 0.48347 0.11779 0.88634 0.0
O306 O 0.43304 0.08476 0.95101 0.0
O307 O 0.43815 0.05945 0.86076 0.0
O308 O 0.41227 0.12663 0.98244 0.0
O309 O 0.46442 0.16033 0.99691 0.0
O310 O 0.4049 0.13455 0.84404 0.0
O311 O 0.40652 0.09339 0.8306 0.0
H312 H 0.46846 0.05453 0.58373 0.0
H313 H 0.41415 0.10199 0.62533 0.0
H314 H 0.41133 0.11144 0.51211 0.0
H315 H 0.46598 0.0645 0.47042 0.0
H316 H 0.38715 0.12307 0.09948 0.0
H317 H 0.48677 0.14564 0.09609 0.0
H318 H 0.48622 0.12996 0.20554 0.0
H319 H 0.38674 0.10721 0.20876 0.0
Gd320 Gd 0.92277 0.35957 0.81478 0.0
Gd321 Gd 0.9029 0.32468 0.91052 0.0
C322 C 0.84444 0.29951 0.81702 0.0
C323 C 0.93887 0.37746 0.7005 0.0
C324 C 0.9341 0.36496 0.63221 0.0
C325 C 0.94528 0.38708 0.58571 0.0
C326 C 0.9189 0.33179 0.6124 0.0
C327 C 0.92561 0.34337 0.50043 0.0
C328 C 0.91468 0.32107 0.54695 0.0
C329 C 0.94112 0.37643 0.52062 0.0
C330 C 0.90763 0.39643 0.89034 0.0
C331 C 0.96693 0.389 0.95348 0.0
C332 C 0.89615 0.29603 1.01567 0.0
C333 C 0.8997 0.30219 0.08666 0.0
C334 C 0.90609 0.2824 0.12442 0.0
C335 C 0.89686 0.32722 0.1175 0.0
C336 C 0.90792 0.31312 0.22251 0.0
C337 C 0.90122 0.33281 0.18472 0.0
C338 C 0.90988 0.28759 0.1915 0.0
C339 C 0.92383 0.29807 0.81218 0.0
O340 O 0.86891 0.31621 0.78075 0.0
O341 O 0.85149 0.30342 0.87848 0.0
O342 O 0.91406 0.37648 0.7257 0.0
O343 O 0.95567 0.37019 0.7401 0.0
O344 O 0.93319 0.40676 0.85949 0.0
O345 O 0.89113 0.36498 0.88434 0.0
O346 O 0.93909 0.36813 0.97152 0.0
O347 O 0.96892 0.38824 0.89011 0.0
O348 O 0.92285 0.30898 0.98703 0.0
O349 O 0.87255 0.29714 0.98354 0.0
O350 O 0.8957 0.28402 0.83456 0.0
O351 O 0.93816 0.32611 0.84051 0.0
H352 H 0.95716 0.41274 0.59979 0.0
H353 H 0.91017 0.31425 0.64736 0.0
H354 H 0.9027 0.29544 0.53254 0.0
H355 H 0.94972 0.39404 0.48578 0.0
H356 H 0.90797 0.26271 0.10191 0.0
H357 H 0.89148 0.34256 0.08964 0.0
H358 H 0.89925 0.35247 0.20735 0.0
H359 H 0.91448 0.27174 0.2193 0.0
Gd360 Gd 0.70109 0.13543 0.91909 0.0
Gd361 Gd 0.66284 0.10603 0.80034 0.0
C362 C 0.64413 0.06367 0.92881 0.0
C363 C 0.72439 0.15382 0.03838 0.0
C364 C 0.7137 0.14293 0.10284 0.0
C365 C 0.72363 0.12351 0.13362 0.0
C366 C 0.69477 0.15292 0.13569 0.0
C367 C 0.69647 0.12482 0.22817 0.0
C368 C 0.68621 0.1439 0.19741 0.0
C369 C 0.71511 0.11456 0.19539 0.0
C370 C 0.73001 0.11566 0.82784 0.0
C371 C 0.72065 0.1832 0.81331 0.0
C372 C 0.641 0.07512 0.68629 0.0
C373 C 0.6495 0.08238 0.61921 0.0
C374 C 0.6269 0.0823 0.57313 0.0
C375 C 0.6798 0.08846 0.5998 0.0
C376 C 0.66478 0.09474 0.49078 0.0
C377 C 0.68732 0.09459 0.53648 0.0
C378 C 0.63446 0.08846 0.50972 0.0
C379 C 0.63586 0.13681 0.86409 0.0
O380 O 0.6691 0.08924 0.95887 0.0
O381 O 0.63606 0.06349 0.8663 0.0
O382 O 0.73074 0.13535 1.00122 0.0
O383 O 0.70963 0.16627 1.00635 0.0
O384 O 0.74507 0.14288 0.86361 0.0
O385 O 0.7016 0.10082 0.84435 0.0
O386 O 0.70609 0.15551 0.77523 0.0
O387 O 0.71623 0.18141 0.8745 0.0
O388 O 0.62776 0.08971 0.71542 0.0
O389 O 0.66221 0.07317 0.72468 0.0
O390 O 0.64196 0.13872 0.80462 0.0
O391 O 0.64784 0.12077 0.88952 0.0
H392 H 0.73842 0.11551 0.11028 0.0
H393 H 0.68683 0.16805 0.11407 0.0
H394 H 0.67193 0.15224 0.22168 0.0
H395 H 0.72345 0.09994 0.21802 0.0
H396 H 0.60331 0.07745 0.58617 0.0
H397 H 0.69779 0.08847 0.63348 0.0
H398 H 0.71083 0.0993 0.52313 0.0
H399 H 0.61667 0.08846 0.47541 0.0
Gd400 Gd 0.90619 0.58333 0.90785 0.0
Gd401 Gd 0.92694 0.56532 0.80236 0.0
C402 C 0.97341 0.58852 0.93712 0.0
C403 C 0.89787 0.60213 1.02038 0.0
C404 C 0.9037 0.59887 0.08923 0.0
C405 C 0.87847 0.59024 0.12927 0.0
C406 C 0.93424 0.60518 0.11629 0.0
C407 C 0.914 0.59419 0.22159 0.0
C408 C 0.93935 0.6029 0.18182 0.0
C409 C 0.88352 0.58784 0.19468 0.0
C410 C 0.92679 0.62813 0.81344 0.0
C411 C 0.84998 0.55139 0.80334 0.0
C412 C 0.94357 0.5605 0.68761 0.0
C413 C 0.93954 0.56789 0.62133 0.0
C414 C 0.95669 0.56263 0.57446 0.0
C415 C 0.91901 0.57991 0.60384 0.0
C416 C 0.93193 0.57986 0.49278 0.0
C417 C 0.91516 0.58576 0.53994 0.0
C418 C 0.95297 0.56857 0.5109 0.0
C419 C 0.91104 0.51688 0.87976 0.0
O420 O 0.94562 0.57931 0.9601 0.0
O421 O 0.97429 0.5892 0.87373 0.0
O422 O 0.92332 0.61911 0.98966 0.0
O423 O 0.87533 0.57644 0.98538 0.0
O424 O 0.9011 0.61893 0.84384 0.0
O425 O 0.94026 0.61367 0.83674 0.0
O426 O 0.87488 0.55735 0.76845 0.0
O427 O 0.85556 0.55537 0.86553 0.0
O428 O 0.91799 0.53769 0.71045 0.0
O429 O 0.96097 0.58501 0.73002 0.0
O430 O 0.93571 0.52901 0.84622 0.0
O431 O 0.89502 0.53189 0.87215 0.0
H432 H 0.85478 0.58542 0.10991 0.0
H433 H 0.95417 0.6119 0.08689 0.0
H434 H 0.96303 0.60781 0.20146 0.0
H435 H 0.86362 0.58102 0.22439 0.0
H436 H 0.97282 0.55359 0.58693 0.0
H437 H 0.90578 0.58445 0.63935 0.0
H438 H 0.89882 0.59449 0.5271 0.0
H439 H 0.96616 0.56388 0.47551 0.0
Gd440 Gd 0.44598 0.32659 0.91169 0.0
Gd441 Gd 0.45404 0.36071 0.81278 0.0
C442 C 0.44012 0.38676 0.94995 0.0
C443 C 0.4345 0.3006 1.02004 0.0
C444 C 0.4359 0.3105 0.08906 0.0
C445 C 0.40831 0.29391 0.1221 0.0
C446 C 0.46441 0.3352 0.12338 0.0
C447 C 0.43571 0.33078 0.2201 0.0
C448 C 0.46461 0.34429 0.18818 0.0
C449 C 0.40846 0.30326 0.18655 0.0
C450 C 0.39192 0.29863 0.81684 0.0
C451 C 0.46931 0.29868 0.81077 0.0
C452 C 0.45085 0.37859 0.69875 0.0
C453 C 0.44192 0.36626 0.63014 0.0
C454 C 0.4302 0.38108 0.58929 0.0
C455 C 0.44749 0.34212 0.60364 0.0
C456 C 0.4331 0.35055 0.49602 0.0
C457 C 0.44305 0.33429 0.53702 0.0
C458 C 0.42587 0.37335 0.52292 0.0
C459 C 0.50993 0.39886 0.8875 0.0
O460 O 0.44958 0.36773 0.97136 0.0
O461 O 0.43674 0.38677 0.88608 0.0
O462 O 0.41245 0.30147 0.98211 0.0
O463 O 0.46186 0.31062 0.99407 0.0
O464 O 0.40676 0.28452 0.84012 0.0
O465 O 0.40766 0.32702 0.84337 0.0
O466 O 0.45987 0.31597 0.77664 0.0
O467 O 0.47156 0.30328 0.87269 0.0
O468 O 0.42746 0.36947 0.73614 0.0
O469 O 0.47668 0.37995 0.72647 0.0
O470 O 0.49187 0.40825 0.8591 0.0
O471 O 0.49545 0.36747 0.88067 0.0
H472 H 0.3865 0.27337 0.09807 0.0
H473 H 0.4868 0.34729 0.10055 0.0
H474 H 0.48812 0.3612 0.21216 0.0
H475 H 0.38692 0.28813 0.20969 0.0
H476 H 0.42563 0.39965 0.60856 0.0
H477 H 0.45637 0.33019 0.63415 0.0
H478 H 0.44874 0.31661 0.51727 0.0
H479 H 0.4181 0.38613 0.49228 0.0
Gd480 Gd 0.37153 0.92396 0.24074 0.0
Gd481 Gd 0.33299 0.90208 0.1307 0.0
C482 C 0.30747 0.84716 0.21206 0.0
C483 C 0.39195 0.94017 0.36252 0.0
C484 C 0.37989 0.93601 0.42768 0.0
C485 C 0.38616 0.91723 0.46887 0.0
C486 C 0.36449 0.95245 0.45156 0.0
C487 C 0.36233 0.93149 0.55585 0.0
C488 C 0.35579 0.95017 0.51487 0.0
C489 C 0.37741 0.9149 0.53193 0.0
C490 C 0.40548 0.90835 0.16123 0.0
C491 C 0.39408 0.96723 0.11908 0.0
C492 C 0.3054 0.89583 1.01587 0.0
C493 C 0.31494 0.9031 0.94978 0.0
C494 C 0.29504 0.9083 0.90602 0.0
C495 C 0.34355 0.90519 0.92962 0.0
C496 C 0.33116 0.91594 0.82227 0.0
C497 C 0.35155 0.91152 0.86644 0.0
C498 C 0.303 0.91459 0.84297 0.0
C499 C 0.30864 0.92282 0.23213 0.0
O500 O 0.32601 0.87264 0.25508 0.0
O501 O 0.31226 0.85144 0.15216 0.0
O502 O 0.38984 0.91511 0.33027 0.0
O503 O 0.386 0.95792 0.32558 0.0
O504 O 0.41758 0.93354 0.20206 0.0
O505 O 0.37416 0.89182 0.16197 0.0
O506 O 0.37709 0.93855 0.08959 0.0
O507 O 0.39297 0.96979 0.18253 0.0
O508 O 0.3145 0.92061 0.05743 0.0
O509 O 0.30831 0.87292 0.04062 0.0
O510 O 0.2924 0.8963 0.19544 0.0
O511 O 0.33641 0.93736 0.21226 0.0
H512 H 0.39832 0.9046 0.45255 0.0
H513 H 0.35944 0.96736 0.42164 0.0
H514 H 0.34406 0.96309 0.532 0.0
H515 H 0.38266 0.90029 0.56239 0.0
H516 H 0.27306 0.9072 0.92048 0.0
H517 H 0.35954 0.90165 0.96249 0.0
H518 H 0.37342 0.91251 0.85172 0.0
H519 H 0.28695 0.91801 0.81001 0.0
Gd520 Gd 0.12899 0.44506 0.15589 0.0
Gd521 Gd 0.12181 0.47355 0.26959 0.0
C522 C 0.15211 0.52303 0.16921 0.0
C523 C 0.11762 0.41439 0.0425 0.0
C524 C 0.11902 0.42187 0.97417 0.0
C525 C 0.14861 0.43924 0.94668 0.0
C526 C 0.0898 0.41123 0.93536 0.0
C527 C 0.11957 0.43596 0.8442 0.0
C528 C 0.09007 0.41834 0.87147 0.0
C529 C 0.14886 0.44612 0.88236 0.0
C530 C 0.18831 0.47604 0.22481 0.0
C531 C 0.10731 0.4023 0.2838 0.0
C532 C 0.11618 0.49238 0.38437 0.0
C533 C 0.11681 0.48332 0.45093 0.0
C534 C 0.09549 0.48488 0.49273 0.0
C535 C 0.13829 0.47325 0.47365 0.0
C536 C 0.1173 0.46691 0.57871 0.0
C537 C 0.13847 0.46504 0.53686 0.0
C538 C 0.09576 0.47684 0.55594 0.0
C539 C 0.07213 0.45374 0.17012 0.0
O540 O 0.13826 0.49585 0.12957 0.0
O541 O 0.15431 0.5201 0.23068 0.0
O542 O 0.14466 0.42475 0.07913 0.0
O543 O 0.09582 0.41704 0.0727 0.0
O544 O 0.18278 0.47823 0.16476 0.0
O545 O 0.16078 0.46003 0.24838 0.0
O546 O 0.11017 0.42837 0.31295 0.0
O547 O 0.11277 0.40205 0.22162 0.0
O548 O 0.09139 0.47183 0.34457 0.0
O549 O 0.14356 0.5054 0.35748 0.0
O550 O 0.08609 0.48165 0.20322 0.0
O551 O 0.08501 0.43866 0.19212 0.0
H552 H 0.17157 0.44766 0.97483 0.0
H553 H 0.06656 0.39754 0.95468 0.0
H554 H 0.06716 0.41014 0.84325 0.0
H555 H 0.17194 0.45964 0.86243 0.0
H556 H 0.07866 0.49252 0.47652 0.0
H557 H 0.15507 0.4719 0.44266 0.0
H558 H 0.15532 0.4575 0.55332 0.0
H559 H 0.07921 0.47845 0.58723 0.0
Gd560 Gd 0.5804 0.66697 0.24315 0.0
Gd561 Gd 0.59114 0.6974 0.137 0.0
C562 C 0.56682 0.72775 0.22988 0.0
C563 C 0.58577 0.64473 0.35098 0.0
C564 C 0.58339 0.64974 0.42034 0.0
C565 C 0.56089 0.62415 0.45272 0.0
C566 C 0.60544 0.67927 0.45597 0.0
C567 C 0.58282 0.65739 0.55448 0.0
C568 C 0.60516 0.68299 0.52227 0.0
C569 C 0.56045 0.62801 0.51925 0.0
C570 C 0.52103 0.64004 0.17695 0.0
C571 C 0.595 0.63621 0.10997 0.0
C572 C 0.6039 0.72086 1.02704 0.0
C573 C 0.59993 0.70823 0.9594 0.0
C574 C 0.62639 0.72255 0.92221 0.0
C575 C 0.57015 0.6823 0.93114 0.0
C576 C 0.59296 0.68655 0.82898 0.0
C577 C 0.56667 0.67165 0.86631 0.0
C578 C 0.62297 0.71176 0.85751 0.0
C579 C 0.64397 0.72636 0.23605 0.0
O580 O 0.58057 0.71601 0.26965 0.0
O581 O 0.55785 0.71336 0.17207 0.0
O582 O 0.55927 0.63062 0.31193 0.0
O583 O 0.60948 0.66859 0.32668 0.0
O584 O 0.52766 0.65203 0.23614 0.0
O585 O 0.54771 0.64741 0.1522 0.0
O586 O 0.5877 0.65541 0.08229 0.0
O587 O 0.59604 0.63712 0.17419 0.0
O588 O 0.62491 0.71821 0.06486 0.0
O589 O 0.57746 0.71451 0.05396 0.0
O590 O 0.63079 0.74049 0.20717 0.0
O591 O 0.62746 0.69764 0.21169 0.0
H592 H 0.54394 0.60106 0.42667 0.0
H593 H 0.62329 0.69951 0.43294 0.0
H594 H 0.6225 0.70587 0.5486 0.0
H595 H 0.54292 0.60804 0.54337 0.0
H596 H 0.64963 0.74239 0.94307 0.0
H597 H 0.54944 0.67054 0.95884 0.0
H598 H 0.54335 0.65217 0.84493 0.0
H599 H 0.64349 0.72353 0.82931 0.0
Gd600 Gd 0.37296 0.46593 0.25841 0.0
Gd601 Gd 0.33198 0.44393 0.14136 0.0
C602 C 0.31244 0.39634 0.26326 0.0
C603 C 0.39781 0.47988 0.37731 0.0
C604 C 0.38613 0.47165 0.4424 0.0
C605 C 0.39355 0.49647 0.49063 0.0
C606 C 0.36826 0.43949 0.45791 0.0
C607 C 0.36559 0.45731 0.56767 0.0
C608 C 0.35805 0.43241 0.51963 0.0
C609 C 0.38344 0.48941 0.55238 0.0
C610 C 0.39744 0.44629 0.15551 0.0
C611 C 0.3964 0.51809 0.16439 0.0
C612 C 0.3021 0.41865 1.02632 0.0
C613 C 0.30994 0.42404 0.95825 0.0
C614 C 0.30261 0.39774 0.9139 0.0
C615 C 0.3254 0.45519 0.93699 0.0
C616 C 0.32689 0.43359 0.82966 0.0
C617 C 0.33386 0.45988 0.87364 0.0
C618 C 0.31096 0.40244 0.85047 0.0
C619 C 0.31092 0.47542 0.2205 0.0
O620 O 0.33709 0.42116 0.29563 0.0
O621 O 0.30482 0.39847 0.20157 0.0
O622 O 0.39722 0.45714 0.33892 0.0
O623 O 0.38925 0.49794 0.34682 0.0
O624 O 0.41483 0.47006 0.1992 0.0
O625 O 0.36902 0.43302 0.17224 0.0
O626 O 0.37877 0.49228 0.1224 0.0
O627 O 0.39158 0.51484 0.2249 0.0
O628 O 0.29986 0.44087 0.05993 0.0
O629 O 0.31691 0.40713 0.06031 0.0
O630 O 0.31723 0.48085 0.16197 0.0
O631 O 0.32064 0.45609 0.23706 0.0
H632 H 0.40738 0.52146 0.48062 0.0
H633 H 0.36225 0.41977 0.42247 0.0
H634 H 0.34436 0.40746 0.53001 0.0
H635 H 0.38961 0.50908 0.5884 0.0
H636 H 0.29075 0.37347 0.92857 0.0
H637 H 0.33159 0.47606 0.96968 0.0
H638 H 0.34607 0.48413 0.85898 0.0
H639 H 0.30525 0.38174 0.8177 0.0
Gd640 Gd 0.592 0.90617 0.13918 0.0
Gd641 Gd 0.57753 0.92693 0.24607 0.0
C642 C 0.59568 0.97059 0.12382 0.0
C643 C 0.61021 0.89788 1.02846 0.0
C644 C 0.60771 0.90476 0.9611 0.0
C645 C 0.63559 0.91723 0.92751 0.0
C646 C 0.57827 0.89907 0.92959 0.0
C647 C 0.60454 0.917 0.83148 0.0
C648 C 0.57671 0.90508 0.86522 0.0
C649 C 0.63401 0.92324 0.86332 0.0
C650 C 0.64115 0.92887 0.24416 0.0
C651 C 0.56616 0.85172 0.22182 0.0
C652 C 0.57302 0.94371 0.3636 0.0
C653 C 0.58058 0.94069 0.43112 0.0
C654 C 0.56453 0.94738 0.47836 0.0
C655 C 0.60329 0.93142 0.44939 0.0
C656 C 0.59305 0.93491 0.56131 0.0
C657 C 0.60956 0.92864 0.51416 0.0
C658 C 0.57067 0.9445 0.54282 0.0
C659 C 0.5256 0.91003 0.16084 0.0
O660 O 0.58353 0.94213 0.09401 0.0
O661 O 0.60063 0.97288 0.18776 0.0
O662 O 0.6277 0.92289 0.06966 0.0
O663 O 0.58403 0.87588 0.05138 0.0
O664 O 0.63082 0.90323 0.20583 0.0
O665 O 0.62576 0.94192 0.22311 0.0
O666 O 0.57595 0.87746 0.26457 0.0
O667 O 0.56144 0.85591 0.16245 0.0
O668 O 0.55034 0.91773 0.3299 0.0
O669 O 0.59745 0.96103 0.33098 0.0
O670 O 0.54037 0.936 0.1995 0.0
O671 O 0.5407 0.89405 0.1657 0.0
H672 H 0.6586 0.92201 0.95085 0.0
H673 H 0.55648 0.88978 0.95448 0.0
H674 H 0.55373 0.90012 0.84146 0.0
H675 H 0.65565 0.93233 0.83805 0.0
H676 H 0.54701 0.95465 0.46529 0.0
H677 H 0.61591 0.92612 0.41368 0.0
H678 H 0.62694 0.92122 0.52743 0.0
H679 H 0.55767 0.9494 0.57832 0.0
Gd680 Gd 0.11812 0.66314 0.2701 0.0
Gd681 Gd 0.12617 0.69632 0.16193 0.0
C682 C 0.10621 0.72114 0.29575 0.0
C683 C 0.10952 0.63964 0.38022 0.0
C684 C 0.11149 0.65142 0.4483 0.0
C685 C 0.08493 0.65211 0.47311 0.0
C686 C 0.13948 0.66076 0.49 0.0
C687 C 0.11417 0.67067 0.57935 0.0
C688 C 0.14084 0.67041 0.55477 0.0
C689 C 0.08627 0.66161 0.53797 0.0
C690 C 0.06741 0.63201 0.16981 0.0
C691 C 0.14728 0.64015 0.16765 0.0
C692 C 0.11616 0.71697 0.05553 0.0
C693 C 0.11857 0.71407 0.9858 0.0
C694 C 0.14694 0.71839 0.96007 0.0
C695 C 0.09069 0.70497 0.94408 0.0
C696 C 0.11878 0.70301 0.85243 0.0
C697 C 0.09072 0.6993 0.87815 0.0
C698 C 0.14707 0.71307 0.8937 0.0
C699 C 0.18589 0.72387 0.2284 0.0
O700 O 0.11224 0.7007 0.32253 0.0
O701 O 0.10865 0.7236 0.23262 0.0
O702 O 0.08597 0.63749 0.34151 0.0
O703 O 0.13682 0.65034 0.35336 0.0
O704 O 0.08124 0.61865 0.20018 0.0
O705 O 0.08164 0.66055 0.19495 0.0
O706 O 0.13364 0.65265 0.12967 0.0
O707 O 0.15048 0.6479 0.2293 0.0
O708 O 0.14256 0.73349 0.09461 0.0
O709 O 0.09502 0.69052 0.0779 0.0
O710 O 0.17923 0.71329 0.16829 0.0
O711 O 0.15876 0.71457 0.25329 0.0
H712 H 0.06287 0.64488 0.44268 0.0
H713 H 0.16022 0.66024 0.47276 0.0
H714 H 0.1625 0.67712 0.58607 0.0
H715 H 0.06536 0.66148 0.55611 0.0
H716 H 0.1687 0.72525 0.99115 0.0
H717 H 0.06856 0.70156 0.96277 0.0
H718 H 0.0687 0.6916 0.84723 0.0
H719 H 0.16894 0.71599 0.87465 0.0
C720 C 0.11202 0.38104 0.39121 0.0
C721 C 0.09815 0.37425 0.32596 0.0
C722 C 0.06301 0.31799 0.35116 0.0
C723 C 0.07087 0.32662 0.4192 0.0
N724 N 0.10409 0.36932 0.50223 0.0
N725 N 0.05643 0.33496 0.24741 0.0
C726 C 0.09598 0.35894 0.43872 0.0
C727 C 0.07268 0.34231 0.3069 0.0
N728 N 0.14138 0.40837 0.40757 0.0
N729 N 0.04761 0.2863 0.32764 0.0
H730 H 0.06228 0.35159 0.21356 0.0
H731 H 0.03532 0.31297 0.23393 0.0
H732 H 0.04259 0.26757 0.35606 0.0
H733 H 0.0438 0.279 0.27891 0.0
H734 H 0.15436 0.41346 0.45227 0.0
H735 H 0.15448 0.42396 0.3739 0.0
H736 H 0.11992 0.39337 0.51899 0.0
H737 H 0.09323 0.35453 0.53829 0.0
C738 C 0.68875 0.77389 0.4035 0.0
C739 C 0.70235 0.75549 0.42733 0.0
C740 C 0.67937 0.71964 0.3253 0.0
C741 C 0.66661 0.73848 0.29988 0.0
N742 N 0.66949 0.79035 0.31175 0.0
N743 N 0.69449 0.70179 0.41988 0.0
C744 C 0.67406 0.76743 0.33826 0.0
C745 C 0.69311 0.72581 0.39073 0.0
N746 N 0.6871 0.79588 0.44469 0.0
N747 N 0.6808 0.69705 0.28565 0.0
H748 H 0.69988 0.70318 0.46903 0.0
H749 H 0.68559 0.67876 0.39721 0.0
H750 H 0.67487 0.69434 0.23652 0.0
H751 H 0.69255 0.68471 0.2997 0.0
H752 H 0.67443 0.80757 0.43265 0.0
H753 H 0.69421 0.79905 0.49346 0.0
H754 H 0.67722 0.81298 0.33526 0.0
H755 H 0.66255 0.78916 0.26356 0.0
C756 C 0.27678 0.93314 0.3963 0.0
C757 C 0.26831 0.95719 0.38478 0.0
C758 C 0.29157 0.96168 0.2799 0.0
C759 C 0.29593 0.93497 0.28669 0.0
N760 N 0.28361 0.88993 0.34851 0.0
N761 N 0.25231 0.97785 0.29483 0.0
C762 C 0.28602 0.91919 0.34425 0.0
C763 C 0.27156 0.96715 0.32098 0.0
N764 N 0.27465 0.92221 0.45537 0.0
N765 N 0.30462 0.98103 0.23201 0.0
H766 H 0.23024 0.9727 0.31156 0.0
H767 H 0.25406 0.98494 0.24874 0.0
H768 H 0.31786 0.9771 0.19854 0.0
H769 H 0.30447 1.00258 0.22991 0.0
H770 H 0.2842 0.90779 0.46838 0.0
H771 H 0.26449 0.92841 0.49213 0.0
H772 H 0.27412 0.87598 0.38648 0.0
H773 H 0.28706 0.87783 0.31021 0.0
C774 C 0.34063 0.10603 0.65589 0.0
C775 C 0.3277 0.07407 0.62584 0.0
C776 C 0.35329 0.06275 0.71993 0.0
C777 C 0.36635 0.09468 0.75027 0.0
N778 N 0.36002 0.14162 0.75427 0.0
N779 N 0.33597 0.02837 0.62045 0.0
C780 C 0.3566 0.11493 0.72019 0.0
C781 C 0.33803 0.05422 0.65539 0.0
N782 N 0.34045 0.12913 0.62114 0.0
N783 N 0.35264 0.03921 0.75445 0.0
H784 H 0.32911 0.02341 0.57144 0.0
H785 H 0.34593 0.01496 0.63775 0.0
H786 H 0.35965 0.04294 0.80336 0.0
H787 H 0.34062 0.01495 0.73688 0.0
H788 H 0.35197 0.15343 0.63799 0.0
H789 H 0.33299 0.12507 0.57239 0.0
H790 H 0.35052 0.15543 0.73712 0.0
H791 H 0.36793 0.14745 0.80272 0.0
C792 C 0.91412 0.2547 0.71927 0.0
C793 C 0.93488 0.28567 0.75381 0.0
C794 C 0.97225 0.29748 0.66698 0.0
C795 C 0.95179 0.26638 0.63283 0.0
N796 N 0.89617 0.2221 0.61725 0.0
N797 N 0.99039 0.33005 0.76899 0.0
C798 C 0.92078 0.24686 0.65649 0.0
C799 C 0.96575 0.30524 0.72988 0.0
N800 N 0.88922 0.23124 0.74824 0.0
N801 N 0.99642 0.32125 0.63718 0.0
H802 H 0.98859 0.3344 0.81722 0.0
H803 H 1.01416 0.34308 0.75646 0.0
H804 H 0.99976 0.31843 0.58923 0.0
H805 H 1.00981 0.34516 0.65689 0.0
H806 H 0.87525 0.20743 0.72828 0.0
H807 H 0.88569 0.2339 0.79607 0.0
H808 H 0.87231 0.20924 0.6293 0.0
H809 H 0.89794 0.21756 0.56919 0.0
C810 C 0.77928 0.68439 0.67097 0.0
C811 C 0.75559 0.68952 0.63816 0.0
C812 C 0.71752 0.65868 0.71785 0.0
C813 C 0.73935 0.64949 0.74651 0.0
N814 N 0.79253 0.65401 0.74299 0.0
N815 N 0.69942 0.67436 0.62296 0.0
C816 C 0.77057 0.66232 0.72066 0.0
C817 C 0.72386 0.67398 0.65908 0.0
N818 N 0.81082 0.70198 0.65698 0.0
N819 N 0.69203 0.65587 0.74932 0.0
H820 H 0.7032 0.68522 0.58011 0.0
H821 H 0.67511 0.66094 0.63188 0.0
H822 H 0.68888 0.65004 0.79632 0.0
H823 H 0.67708 0.66452 0.73291 0.0
H824 H 0.83042 0.70349 0.68459 0.0
H825 H 0.81761 0.71688 0.6197 0.0
H826 H 0.81328 0.65904 0.72052 0.0
H827 H 0.78976 0.64055 0.78141 0.0
C828 C 0.9799 0.6792 0.68142 0.0
C829 C 0.96155 0.69168 0.65147 0.0
C830 C 0.91795 0.65975 0.72212 0.0
C831 C 0.93849 0.65094 0.75831 0.0
N832 N 0.99434 0.6636 0.77973 0.0
N833 N 0.91443 0.69744 0.65318 0.0
C834 C 0.97084 0.66361 0.73958 0.0
C835 C 0.93085 0.68275 0.67442 0.0
N836 N 1.0067 0.68258 0.65447 0.0
N837 N 0.88581 0.64613 0.73169 0.0
H838 H 0.92264 0.71355 0.61817 0.0
H839 H 0.89422 0.6956 0.67367 0.0
H840 H 0.87466 0.62989 0.76519 0.0
H841 H 0.86927 0.64881 0.70199 0.0
H842 H 0.01943 0.67142 0.67008 0.0
H843 H 1.01379 0.69348 0.61212 0.0
H844 H 0.0187 0.67485 0.7706 0.0
H845 H 0.99093 0.65707 0.82629 0.0
C846 C 0.33687 0.24621 0.66186 0.0
C847 C 0.3272 0.26684 0.63301 0.0
C848 C 0.3562 0.30653 0.7291 0.0
C849 C 0.36636 0.28623 0.75731 0.0
N850 N 0.35272 0.23081 0.75963 0.0
N851 N 0.34096 0.32245 0.63181 0.0
C852 C 0.35292 0.25443 0.7261 0.0
C853 C 0.34051 0.29857 0.66476 0.0
N854 N 0.33346 0.21988 0.62638 0.0
N855 N 0.35876 0.33226 0.76539 0.0
H856 H 0.33377 0.31913 0.58311 0.0
H857 H 0.35314 0.34661 0.6501 0.0
H858 H 0.36574 0.33661 0.81433 0.0
H859 H 0.34921 0.34623 0.74937 0.0
H860 H 0.34271 0.20572 0.64269 0.0
H861 H 0.32596 0.21487 0.57767 0.0
H862 H 0.34062 0.20658 0.74199 0.0
H863 H 0.36051 0.23446 0.80817 0.0
C864 C 0.75965 0.11859 0.72519 0.0
C865 C 0.74388 0.10199 0.77854 0.0
C866 C 0.75816 0.06123 0.74397 0.0
C867 C 0.76598 0.07288 0.68199 0.0
N868 N 0.77368 0.11545 0.61628 0.0
N869 N 0.72495 0.05321 0.83141 0.0
C870 C 0.76613 0.10218 0.67303 0.0
C871 C 0.74119 0.07153 0.78415 0.0
N872 N 0.77051 0.15065 0.72568 0.0
N873 N 0.77087 0.04413 0.77027 0.0
H874 H 0.71686 0.06164 0.86866 0.0
H875 H 0.71884 0.02911 0.83149 0.0
H876 H 0.79175 0.04486 0.75626 0.0
H877 H 0.76612 0.03606 0.81545 0.0
H878 H 0.78568 0.16477 0.69249 0.0
H879 H 0.76788 0.16357 0.76389 0.0
H880 H 0.77053 0.13462 0.60497 0.0
H881 H 0.78169 0.10649 0.5797 0.0
C882 C 0.66482 0.91386 0.34374 0.0
C883 C 0.66192 0.93757 0.30949 0.0
C884 C 0.69144 0.97621 0.40615 0.0
C885 C 0.70006 0.9548 0.43457 0.0
N886 N 0.69203 0.90078 0.42744 0.0
N887 N 0.68071 0.99447 0.30747 0.0
C888 C 0.68613 0.92311 0.40213 0.0
C889 C 0.67758 0.96958 0.34065 0.0
N890 N 0.64547 0.88177 0.32418 0.0
N891 N 0.69444 1.00217 0.44231 0.0
H892 H 0.67342 0.99172 0.25882 0.0
H893 H 0.69439 0.01851 0.32645 0.0
H894 H 0.70032 1.00599 0.49165 0.0
H895 H 0.68615 0.01697 0.42509 0.0
H896 H 0.6431 0.86347 0.35172 0.0
H897 H 0.62888 0.87266 0.28422 0.0
H898 H 0.68869 0.88033 0.40039 0.0
H899 H 0.69987 0.90214 0.47516 0.0
C900 C 0.10228 0.78355 0.41712 0.0
C901 C 0.07682 0.76226 0.45407 0.0
C902 C 0.06599 0.71733 0.37324 0.0
C903 C 0.09326 0.73763 0.34026 0.0
N904 N 0.14034 0.78995 0.33783 0.0
N905 N 0.04295 0.7066 0.4748 0.0
C906 C 0.11212 0.77078 0.3641 0.0
C907 C 0.06092 0.72855 0.4338 0.0
N908 N 0.11707 0.8161 0.43147 0.0
N909 N 0.0446 0.68671 0.3466 0.0
H910 H 0.04156 0.7132 0.52198 0.0
H911 H 0.03357 0.68187 0.46521 0.0
H912 H 0.04719 0.6778 0.30223 0.0
H913 H 0.02261 0.67171 0.36496 0.0
H914 H 0.13315 0.83278 0.40273 0.0
H915 H 0.11174 0.82678 0.46954 0.0
H916 H 0.15772 0.81306 0.35753 0.0
H917 H 0.14723 0.78174 0.2981 0.0
C918 C 0.26223 0.34858 0.30763 0.0
C919 C 0.29616 0.36673 0.30181 0.0
C920 C 0.30485 0.34352 0.39963 0.0
C921 C 0.27073 0.3237 0.40356 0.0
N922 N 0.21791 0.30006 0.34231 0.0
N923 N 0.34806 0.37151 0.33079 0.0
C924 C 0.2497 0.32404 0.35193 0.0
C925 C 0.31683 0.3611 0.34457 0.0
N926 N 0.24167 0.355 0.27224 0.0
N927 N 0.32625 0.34498 0.44738 0.0
H928 H 0.35687 0.38198 0.28868 0.0
H929 H 0.36402 0.36672 0.35717 0.0
H930 H 0.31899 0.33139 0.48632 0.0
H931 H 0.35111 0.3616 0.4509 0.0
H932 H 0.21719 0.34515 0.27974 0.0
H933 H 0.24969 0.37193 0.23875 0.0
H934 H 0.20266 0.29759 0.30228 0.0
H935 H 0.20764 0.28061 0.36979 0.0
C936 C 0.98779 0.40514 0.07378 0.0
C937 C 0.99432 0.41033 1.00784 0.0
C938 C 0.0499 0.45262 0.05355 0.0
C939 C 0.04499 0.44045 0.11495 0.0
N940 N 1.00751 0.40028 0.17866 0.0
N941 N 0.03593 0.44198 0.93857 0.0
C942 C 1.01366 0.41468 0.12287 0.0
C943 C 0.02676 0.43473 0.99859 0.0
N944 N 0.9575 0.39517 0.0924 0.0
N945 N 0.07539 0.4825 0.04821 0.0
H946 H 0.02002 0.43239 0.89727 0.0
H947 H 0.06014 0.45684 0.92997 0.0
H948 H 0.08977 0.49731 0.08859 0.0
H949 H 0.07852 0.49399 1.00635 0.0
H950 H 0.95275 0.3937 0.14036 0.0
H951 H 0.93908 0.39474 0.06302 0.0
H952 H 0.98533 0.37968 0.18393 0.0
H953 H 0.02501 0.40754 0.2175 0.0
C954 C 0.59552 0.58124 0.96798 0.0
C955 C 0.62832 0.59974 0.95335 0.0
C956 C 0.6399 0.63513 0.05345 0.0
C957 C 0.60658 0.61867 0.06545 0.0
N958 N 0.55154 0.5796 1.02424 0.0
N959 N 0.67955 0.64902 0.97543 0.0
C960 C 0.58408 0.59267 1.01978 0.0
C961 C 0.64978 0.62802 0.99435 0.0
N962 N 0.57531 0.55243 0.93316 0.0
N963 N 0.66244 0.65782 0.09893 0.0
H964 H 0.68735 0.64492 0.93228 0.0
H965 H 0.69456 0.67205 0.99848 0.0
H966 H 0.65597 0.66326 0.14241 0.0
H967 H 0.68744 0.66861 0.09624 0.0
H968 H 0.55233 0.53595 0.9458 0.0
H969 H 0.5825 0.54429 0.89366 0.0
H970 H 0.53381 0.5631 0.98916 0.0
H971 H 0.54244 0.58719 0.06103 0.0
C972 C 0.39099 0.01808 0.98764 0.0
C973 C 0.42233 0.03174 0.96464 0.0
C974 C 0.43748 1.00589 0.04939 0.0
C975 C 0.40703 0.99476 0.07563 0.0
N976 N 0.35709 0.99556 0.07476 0.0
N977 N 0.47698 0.04168 0.9797 0.0
C978 C 0.38457 1.00252 0.046 0.0
C979 C 0.44597 0.02633 0.99721 0.0
N980 N 0.36686 0.01947 0.95243 0.0
N981 N 0.45824 0.99657 0.074 0.0
H982 H 0.48342 0.05553 0.94078 0.0
H983 H 0.49646 0.042 1.00534 0.0
H984 H 0.4536 0.98352 0.11405 0.0
H985 H 0.47907 1.00042 0.0532 0.0
H986 H 0.34263 1.00739 0.96221 0.0
H987 H 0.37061 0.03009 0.90935 0.0
H988 H 0.3412 1.00341 0.0602 0.0
H989 H 0.35199 0.98464 0.11742 0.0
C990 C 0.60059 0.03214 1.00522 0.0
C991 C 0.62694 0.03569 0.97043 0.0
C992 C 0.63725 1.00435 0.04945 0.0
C993 C 0.60929 0.99833 0.08095 0.0
N994 N 0.56122 1.00264 0.08095 0.0
N995 N 0.66562 0.01878 0.95298 0.0
C996 C 0.59005 0.01114 0.05638 0.0
C997 C 0.64375 0.01978 0.9909 0.0
N998 N 0.58615 0.04965 0.99071 0.0
N999 N 0.65809 0.99563 0.07636 0.0
H1000 H 0.6693 0.02837 0.90885 0.0
H1001 H 0.67693 1.00539 0.96117 0.0
H1002 H 0.65472 0.98558 0.12007 0.0
H1003 H 0.68008 1.00105 0.05886 0.0
H1004 H 0.56933 0.05113 1.01819 0.0
H1005 H 0.59251 0.06417 0.95283 0.0
H1006 H 0.54411 1.00783 0.06076 0.0
H1007 H 0.55372 0.98873 0.11969 0.0
C1008 C 0.02773 0.63658 0.08849 0.0
C1009 C 0.04316 0.61903 0.10837 0.0
C1010 C 1.0139 0.58096 1.00964 0.0
C1011 C 1.00276 0.6014 0.98682 0.0
N1012 N 1.0053 0.65251 1.0005 0.0
N1013 N 0.05055 0.57337 0.08175 0.0
C1014 C 1.01211 0.63056 1.02481 0.0
C1015 C 0.03617 0.59092 0.06713 0.0
N1016 N 0.02542 0.6574 0.13191 0.0
N1017 N 1.00218 0.55125 0.97748 0.0
H1018 H 0.06521 0.57756 0.12352 0.0
H1019 H 0.04934 0.55523 0.05031 0.0
H1020 H 0.98773 0.54423 0.93401 0.0
H1021 H 1.00499 0.53295 0.99549 0.0
H1022 H 1.01226 0.66881 0.12147 0.0
H1023 H 0.0322 0.65954 0.18066 0.0
H1024 H 1.01401 0.67554 1.02322 0.0
H1025 H 0.99389 0.64885 0.95449 0.0
C1026 C 0.39741 0.42779 0.03596 0.0
C1027 C 0.40967 0.43271 0.1018 0.0
C1028 C 0.44707 0.41427 0.06502 0.0
C1029 C 0.43129 0.40511 1.00052 0.0
N1030 N 0.38332 0.39511 0.93527 0.0
N1031 N 0.44288 0.42377 0.17829 0.0
C1032 C 0.40437 0.40979 0.98899 0.0
C1033 C 0.43367 0.42411 0.11585 0.0
N1034 N 0.38026 0.44168 1.01592 0.0
N1035 N 0.47555 0.41454 0.07871 0.0
H1036 H 0.43371 0.43027 0.21667 0.0
H1037 H 0.4569 0.4137 0.19167 0.0
H1038 H 0.48695 0.40787 0.04554 0.0
H1039 H 0.48981 0.42459 0.12218 0.0
H1040 H 0.37593 0.44335 0.96749 0.0
H1041 H 0.37335 0.45392 0.04719 0.0
H1042 H 0.36139 0.39492 0.92893 0.0
H1043 H 0.38548 0.38003 0.90105 0.0
C1044 C 0.11245 0.25438 0.46343 0.0
C1045 C 0.08755 0.22893 0.49299 0.0
C1046 C 0.12451 0.20604 0.50433 0.0
C1047 C 0.15174 0.23521 0.48787 0.0
N1048 N 0.16999 0.28919 0.4565 0.0
N1049 N 0.07043 0.18001 0.54309 0.0
C1050 C 0.14502 0.25966 0.46785 0.0
C1051 C 0.09375 0.20444 0.51312 0.0
N1052 N 0.10503 0.27416 0.43172 0.0
N1053 N 0.12775 0.17979 0.51196 0.0
H1054 H 0.04747 0.17733 0.54683 0.0
H1055 H 0.07434 0.16355 0.56652 0.0
H1056 H 0.14893 0.17955 0.5038 0.0
H1057 H 0.10838 0.1572 0.51907 0.0
H1058 H 0.12081 0.2915 0.40355 0.0
H1059 H 0.08149 0.27025 0.42779 0.0
H1060 H 0.16715 0.30902 0.45038 0.0
H1061 H 0.19413 0.295 0.45812 0.0
C1062 C 0.83308 0.93212 0.51118 0.0
C1063 C 0.80709 0.93465 0.48036 0.0
C1064 C 0.78141 0.87638 0.43971 0.0
C1065 C 0.80607 0.87332 0.47532 0.0
N1066 N 0.86059 0.90134 0.52631 0.0
N1067 N 0.76165 0.91104 0.39992 0.0
C1068 C 0.83347 0.90227 0.50521 0.0
C1069 C 0.78303 0.90738 0.43942 0.0
N1070 N 0.85744 0.95849 0.54763 0.0
N1071 N 0.75546 0.84943 0.40836 0.0
H1072 H 0.76202 0.93283 0.39878 0.0
H1073 H 0.74564 0.89365 0.36399 0.0
H1074 H 0.75419 0.8272 0.40377 0.0
H1075 H 0.73466 0.84873 0.38841 0.0
H1076 H 0.87461 0.95771 0.57904 0.0
H1077 H 0.85983 0.9813 0.54779 0.0
H1078 H 0.88264 0.92166 0.54344 0.0
H1079 H 0.86204 0.88042 0.52039 0.0
C1080 C 0.10472 0.88009 0.43157 0.0
C1081 C 0.08621 0.87639 0.48504 0.0
C1082 C 0.12761 0.93348 0.52529 0.0
C1083 C 0.14863 0.9353 0.47778 0.0
N1084 N 0.15666 0.90918 0.38554 0.0
N1085 N 0.07339 0.90626 0.56199 0.0
C1086 C 0.13668 0.90836 0.4305 0.0
C1087 C 0.09582 0.90515 0.52579 0.0
N1088 N 0.0911 0.85789 0.37944 0.0
N1089 N 0.13867 0.95799 0.57302 0.0
H1090 H 0.04924 0.88752 0.55865 0.0
H1091 H 0.07726 0.92707 0.58825 0.0
H1092 H 0.16066 0.97953 0.57341 0.0
H1093 H 0.12692 0.95625 0.61424 0.0
H1094 H 0.10194 0.8604 0.33683 0.0
H1095 H 0.06711 0.83906 0.37529 0.0
H1096 H 0.15204 0.88913 0.35546 0.0
H1097 H 0.17891 0.92979 0.38062 0.0
C1098 C 0.24296 0.146 0.62938 0.0
C1099 C 0.21849 0.14797 0.59084 0.0
C1100 C 0.19126 0.08839 0.56421 0.0
C1101 C 0.21903 0.08778 0.59073 0.0
N1102 N 0.27071 0.11622 0.65392 0.0
N1103 N 0.16672 0.11941 0.52812 0.0
C1104 C 0.24437 0.11652 0.62607 0.0
C1105 C 0.19169 0.11847 0.56101 0.0
N1106 N 0.26486 0.1722 0.66952 0.0
N1107 N 0.16407 0.0597 0.54264 0.0
H1108 H 0.16468 0.14004 0.53023 0.0
H1109 H 0.14855 0.10027 0.49777 0.0
H1110 H 0.16305 0.03762 0.54595 0.0
H1111 H 0.14181 0.05733 0.52731 0.0
H1112 H 0.28119 0.1717 0.70368 0.0
H1113 H 0.26459 0.19371 0.67347 0.0
H1114 H 0.29194 0.13685 0.67336 0.0
H1115 H 0.27166 0.09512 0.65593 0.0
C1116 C 0.90158 0.08928 0.55512 0.0
C1117 C 0.87835 0.08738 0.59718 0.0
C1118 C 0.91577 0.14558 0.63412 0.0
C1119 C 0.93852 0.14783 0.59015 0.0
N1120 N 0.95703 0.1188 0.52462 0.0
N1121 N 0.86795 0.11138 0.68903 0.0
C1122 C 0.93258 0.1186 0.55593 0.0
C1123 C 0.88727 0.11483 0.64091 0.0
N1124 N 0.89341 0.06373 0.51144 0.0
N1125 N 0.91995 0.17298 0.66654 0.0
H1126 H 0.84738 0.0893 0.6949 0.0
H1127 H 0.87395 0.12909 0.72643 0.0
H1128 H 0.94025 0.19564 0.66457 0.0
H1129 H 0.90236 0.17367 0.69269 0.0
H1130 H 0.90708 0.06495 0.47358 0.0
H1131 H 0.87205 0.04161 0.5113 0.0
H1132 H 0.95575 0.09803 0.50357 0.0
H1133 H 0.97999 0.13939 0.52573 0.0
C1134 C 0.9375 0.82038 0.60039 0.0
C1135 C 0.9391 0.79396 0.56996 0.0
C1136 C 0.87919 0.76697 0.53947 0.0
C1137 C 0.87749 0.79347 0.56942 0.0
N1138 N 0.90457 0.84315 0.6371 0.0
N1139 N 0.90973 0.73997 0.51759 0.0
C1140 C 0.9066 0.81938 0.60276 0.0
C1141 C 0.90931 0.7666 0.54233 0.0
N1142 N 0.96592 0.84712 0.62502 0.0
N1143 N 0.8522 0.74268 0.50436 0.0
H1144 H 0.93108 0.73947 0.51349 0.0
H1145 H 0.88897 0.71756 0.50528 0.0
H1146 H 0.82957 0.74083 0.50383 0.0
H1147 H 0.8523 0.72527 0.4729 0.0
H1148 H 0.96778 0.8688 0.64166 0.0
H1149 H 0.98825 0.84798 0.62628 0.0
H1150 H 0.92367 0.8616 0.66706 0.0
H1151 H 0.88263 0.84292 0.63929 0.0
C1152 C 0.78868 0.51923 0.80811 0.0
C1153 C 0.81547 0.54237 0.77725 0.0
C1154 C 0.78007 0.56293 0.73548 0.0
C1155 C 0.75514 0.543 0.77421 0.0
N1156 N 0.73133 0.49436 0.82691 0.0
N1157 N 0.83112 0.57614 0.69054 0.0
C1158 C 0.75818 0.51861 0.80386 0.0
C1159 C 0.80936 0.56096 0.73396 0.0
N1160 N 0.79279 0.49804 0.84264 0.0
N1161 N 0.77647 0.58465 0.7021 0.0
H1162 H 0.85185 0.57432 0.68733 0.0
H1163 H 0.82718 0.58775 0.6537 0.0
H1164 H 0.75522 0.58579 0.69971 0.0
H1165 H 0.79479 0.60219 0.67825 0.0
H1166 H 0.77647 0.48338 0.8736 0.0
H1167 H 0.81329 0.49558 0.8408 0.0
H1168 H 0.73044 0.47426 0.84504 0.0
H1169 H 0.7087 0.49288 0.82218 0.0
C1170 C 0.50127 0.26946 0.80966 0.0
C1171 C 0.47361 0.27072 0.78459 0.0
C1172 C 0.44848 0.21253 0.74509 0.0
C1173 C 0.47266 0.20985 0.78313 0.0
N1174 N 0.52554 0.23761 0.84194 0.0
N1175 N 0.42142 0.24314 0.72308 0.0
C1176 C 0.50024 0.23907 0.81181 0.0
C1177 C 0.4477 0.24229 0.74959 0.0
N1178 N 0.52892 0.29784 0.8307 0.0
N1179 N 0.42658 0.18702 0.70353 0.0
H1180 H 0.42083 0.26444 0.72165 0.0
H1181 H 0.39986 0.22265 0.70436 0.0
H1182 H 0.42667 0.16548 0.69744 0.0
H1183 H 0.41072 0.18841 0.66959 0.0
H1184 H 0.55108 0.29981 0.84521 0.0
H1185 H 0.53035 0.3201 0.82796 0.0
H1186 H 0.54438 0.2565 0.8716 0.0
H1187 H 0.52738 0.21686 0.83779 0.0
C1188 C 0.75364 0.24525 0.83087 0.0
C1189 C 0.74635 0.21639 0.79323 0.0
C1190 C 0.79993 0.24702 0.74953 0.0
C1191 C 0.80908 0.27437 0.79384 0.0
N1192 N 0.7898 0.30324 0.85725 0.0
N1193 N 0.75486 0.19908 0.69016 0.0
C1194 C 0.78419 0.27455 0.82821 0.0
C1195 C 0.76707 0.21997 0.74413 0.0
N1196 N 0.73094 0.24474 0.86848 0.0
N1197 N 0.82262 0.24589 0.7145 0.0
H1198 H 0.73052 0.18089 0.68277 0.0
H1199 H 0.76791 0.20232 0.65028 0.0
H1200 H 0.8464 0.26509 0.71589 0.0
H1201 H 0.81804 0.22517 0.68667 0.0
H1202 H 0.73573 0.26288 0.90406 0.0
H1203 H 0.70686 0.22579 0.86343 0.0
H1204 H 0.77246 0.30629 0.87963 0.0
H1205 H 0.81127 0.32493 0.85354 0.0
C1206 C 0.88053 0.45644 0.84211 0.0
C1207 C 0.89751 0.4815 0.89294 0.0
C1208 C 0.90571 0.44235 0.95287 0.0
C1209 C 0.89448 0.41972 0.89784 0.0
N1210 N 0.86887 0.40446 0.79037 0.0
N1211 N 0.92539 0.49747 0.99862 0.0
C1212 C 0.88058 0.42638 0.84303 0.0
C1213 C 0.90938 0.47391 0.94924 0.0
N1214 N 0.86464 0.46166 0.79233 0.0
N1215 N 0.9125 0.43319 1.00914 0.0
H1216 H 0.92673 0.5198 0.99877 0.0
H1217 H 0.93826 0.4954 0.03792 0.0
H1218 H 0.90776 0.40969 1.01225 0.0
H1219 H 0.91896 0.44708 0.0529 0.0
H1220 H 0.84961 0.44406 0.75579 0.0
H1221 H 0.86432 0.48314 0.79059 0.0
H1222 H 0.86217 0.40885 0.74575 0.0
H1223 H 0.86671 0.38181 0.79125 0.0
C1224 C 0.55787 0.45359 0.9351 0.0
C1225 C 0.54673 0.42404 0.89564 0.0
C1226 C 0.59841 0.45279 0.84257 0.0
C1227 C 0.60914 0.48184 0.88283 0.0
N1228 N 0.60334 0.50532 0.98089 0.0
N1229 N 0.56088 0.39485 0.81935 0.0
C1230 C 0.59027 0.48045 0.93369 0.0
C1231 C 0.56869 0.42336 0.85248 0.0
N1232 N 0.5367 0.45714 0.97108 0.0
N1233 N 0.6158 0.45377 0.79238 0.0
H1234 H 0.53945 0.37346 0.82381 0.0
H1235 H 0.57679 0.39179 0.79179 0.0
H1236 H 0.63798 0.47414 0.78596 0.0
H1237 H 0.60771 0.43519 0.7559 0.0
H1238 H 0.54199 0.47906 0.99478 0.0
H1239 H 0.5127 0.43896 0.9722 0.0
H1240 H 0.5922 0.50501 1.02237 0.0
H1241 H 0.62715 0.52442 0.98168 0.0
C1242 C 0.60191 0.16131 0.90492 0.0
C1243 C 0.6033 0.134 0.87893 0.0
C1244 C 0.54298 0.10528 0.85414 0.0
C1245 C 0.54153 0.13271 0.87928 0.0
N1246 N 0.5692 0.18498 0.93786 0.0
N1247 N 0.57375 0.07814 0.83682 0.0
C1248 C 0.57097 0.16008 0.90777 0.0
C1249 C 0.57332 0.10544 0.85666 0.0
N1250 N 0.63049 0.18897 0.92486 0.0
N1251 N 0.51544 0.07943 0.8238 0.0
H1252 H 0.59511 0.07777 0.83217 0.0
H1253 H 0.55309 0.05532 0.82905 0.0
H1254 H 0.49269 0.07731 0.82398 0.0
H1255 H 0.51509 0.0608 0.79551 0.0
H1256 H 0.63232 0.21103 0.93794 0.0
H1257 H 0.65295 0.19009 0.92592 0.0
H1258 H 0.58873 0.20478 0.96428 0.0
H1259 H 0.54718 0.18456 0.9403 0.0
C1260 C 0.467 0.88036 0.19103 0.0
C1261 C 0.48919 0.89647 0.14477 0.0
C1262 C 0.44874 0.90888 0.09423 0.0
C1263 C 0.4282 0.8958 0.14432 0.0
N1264 N 0.41366 0.86179 0.2304 0.0
N1265 N 0.49851 0.92032 0.04534 0.0
C1266 C 0.43599 0.87893 0.18909 0.0
C1267 C 0.47886 0.90856 0.09372 0.0
N1268 N 0.47656 0.86818 0.23942 0.0
N1269 N 0.43952 0.92234 0.04795 0.0
H1270 H 0.51992 0.91946 0.04383 0.0
H1271 H 0.4932 0.92919 1.00527 0.0
H1272 H 0.41691 0.92088 0.04561 0.0
H1273 H 0.45363 0.93466 1.012 0.0
H1274 H 0.46404 0.85981 0.27956 0.0
H1275 H 0.49797 0.86727 0.24022 0.0
H1276 H 0.41603 0.8468 0.26139 0.0
H1277 H 0.39114 0.86046 0.22976 0.0
C1278 C 0.18186 0.61443 0.18745 0.0
C1279 C 0.15703 0.61504 0.1475 0.0
C1280 C 0.14519 0.56196 0.09577 0.0
C1281 C 0.1607 0.55687 0.15006 0.0
N1282 N 0.20361 0.5835 0.23582 0.0
N1283 N 0.11958 0.59057 0.05212 0.0
C1284 C 0.18217 0.58487 0.19217 0.0
C1285 C 0.14023 0.58932 0.09767 0.0
N1286 N 0.20622 0.64278 0.21843 0.0
N1287 N 0.13831 0.5428 0.04033 0.0
H1288 H 0.1172 0.61078 0.04837 0.0
H1289 H 0.10431 0.57106 1.01894 0.0
H1290 H 0.14459 0.52493 0.03633 0.0
H1291 H 0.13017 0.54719 0.99708 0.0
H1292 H 0.22654 0.64509 0.24463 0.0
H1293 H 0.20787 0.66489 0.21159 0.0
H1294 H 0.21634 0.60083 0.27431 0.0
H1295 H 0.20866 0.56473 0.23298 0.0
C1296 C 0.48601 0.57819 0.15029 0.0
C1297 C 0.48834 0.60895 0.159 0.0
C1298 C 0.42809 0.57972 0.16194 0.0
C1299 C 0.42597 0.54931 0.14827 0.0
N1300 N 0.4532 0.52225 0.1075 0.0
N1301 N 0.45975 0.63834 0.1622 0.0
C1302 C 0.45496 0.54951 0.13475 0.0
C1303 C 0.45869 0.60941 0.1611 0.0
N1304 N 0.51282 0.57546 0.16317 0.0
N1305 N 0.40087 0.58026 0.17706 0.0
H1306 H 0.48146 0.66018 0.16172 0.0
H1307 H 0.43906 0.64046 0.15794 0.0
H1308 H 0.37804 0.55937 0.17423 0.0
H1309 H 0.4012 0.60103 0.1951 0.0
H1310 H 0.51166 0.55324 0.16387 0.0
H1311 H 0.53545 0.59495 0.18009 0.0
H1312 H 0.47347 0.52174 0.0927 0.0
H1313 H 0.43109 0.50165 0.09204 0.0
C1314 C 0.58611 0.78358 0.19033 0.0
C1315 C 0.57116 0.76197 0.23821 0.0
C1316 C 0.55457 0.80083 0.28172 0.0
C1317 C 0.56972 0.82206 0.23332 0.0
N1318 N 0.60804 0.83577 0.15237 0.0
N1319 N 0.54512 0.75313 0.33564 0.0
C1320 C 0.58769 0.81396 0.19126 0.0
C1321 C 0.55689 0.7718 0.2862 0.0
N1322 N 0.59831 0.77503 0.14053 0.0
N1323 N 0.53665 0.80758 0.32154 0.0
H1324 H 0.5458 0.7319 0.33878 0.0
H1325 H 0.53678 0.75957 0.37536 0.0
H1326 H 0.53479 0.82823 0.31954 0.0
H1327 H 0.52228 0.79215 0.35398 0.0
H1328 H 0.60204 0.78554 0.09733 0.0
H1329 H 0.60395 0.757 0.14073 0.0
H1330 H 0.62691 0.83421 0.13282 0.0
H1331 H 0.60791 0.85629 0.14118 0.0
C1332 C 0.24497 0.81034 0.19766 0.0
C1333 C 0.27592 0.81707 0.22686 0.0
C1334 C 0.24657 0.76281 0.26847 0.0
C1335 C 0.21588 0.75767 0.24255 0.0
N1336 N 0.18673 0.78265 0.20145 0.0
N1337 N 0.30447 0.80048 0.29921 0.0
C1338 C 0.21554 0.78359 0.21413 0.0
C1339 C 0.27606 0.79366 0.26585 0.0
N1340 N 0.24287 0.82791 0.15054 0.0
N1341 N 0.24768 0.73782 0.29379 0.0
H1342 H 0.32626 0.82194 0.29641 0.0
H1343 H 0.30592 0.786 0.33279 0.0
H1344 H 0.22662 0.71594 0.29855 0.0
H1345 H 0.26925 0.73825 0.30713 0.0
H1346 H 0.22116 0.82119 0.12318 0.0
H1347 H 0.26252 0.84671 0.13242 0.0
H1348 H 0.18523 0.80243 0.18777 0.0
H1349 H 0.16469 0.76344 0.21144 0.0
C1350 C 0.24857 0.4454 0.2117 0.0
C1351 C 0.27884 0.47255 0.23776 0.0
C1352 C 0.24847 0.50044 0.26739 0.0
C1353 C 0.21828 0.47302 0.2421 0.0
N1354 N 0.18972 0.41654 0.20446 0.0
N1355 N 0.30656 0.52391 0.30007 0.0
C1356 C 0.2185 0.44462 0.21952 0.0
C1357 C 0.27832 0.49935 0.26899 0.0
N1358 N 0.24843 0.42108 0.17466 0.0
N1359 N 0.24875 0.52801 0.28791 0.0
H1360 H 0.32834 0.52366 0.30148 0.0
H1361 H 0.30796 0.54306 0.32845 0.0
H1362 H 0.22739 0.5289 0.29021 0.0
H1363 H 0.26988 0.55013 0.30012 0.0
H1364 H 0.22795 0.40305 0.14674 0.0
H1365 H 0.26933 0.4202 0.16721 0.0
H1366 H 0.18796 0.39416 0.19575 0.0
H1367 H 0.16739 0.41511 0.2066 0.0
C1368 C 0.02356 0.26354 0.07644 0.0
C1369 C 0.99121 0.25055 0.09374 0.0
C1370 C 0.97365 0.25401 0.98307 0.0
C1371 C 1.00521 0.26358 0.96441 0.0
N1372 N 0.05862 0.27129 0.99175 0.0
N1373 N 0.93425 0.22766 0.05961 0.0
C1374 C 0.02976 0.26675 1.01075 0.0
C1375 C 0.96591 0.2443 0.04595 0.0
N1376 N 0.04868 0.27362 0.12294 0.0
N1377 N 0.95126 0.25499 0.94126 0.0
H1378 H 0.92753 0.21973 0.1045 0.0
H1379 H 0.91461 0.21932 1.02503 0.0
H1380 H 0.95616 0.26225 0.89529 0.0
H1381 H 0.92901 0.2515 0.95414 0.0
H1382 H 0.07305 0.28677 0.11419 0.0
H1383 H 0.04524 0.27138 0.17127 0.0
H1384 H 0.07595 0.27016 1.02212 0.0
H1385 H 0.06403 0.27306 0.94421 0.0
C1386 C 0.78677 0.7919 0.0809 0.0
C1387 C 0.77852 0.76059 0.09739 0.0
C1388 C 0.76911 0.74147 0.98265 0.0
C1389 C 0.77456 0.77204 0.96673 0.0
N1390 N 0.78261 0.82443 1.0009 0.0
N1391 N 0.75776 0.70433 0.06468 0.0
C1392 C 0.78166 0.79669 1.01598 0.0
C1393 C 0.76857 0.73499 0.04834 0.0
N1394 N 0.80096 0.81747 0.12686 0.0
N1395 N 0.76508 0.7189 0.93496 0.0
H1396 H 0.75573 0.69851 0.11193 0.0
H1397 H 0.7485 0.68414 0.03177 0.0
H1398 H 0.76492 0.72271 0.88657 0.0
H1399 H 0.76422 0.69734 0.94307 0.0
H1400 H 0.81076 0.84136 0.11662 0.0
H1401 H 0.80588 0.81524 0.17468 0.0
H1402 H 0.78399 0.84169 0.03511 0.0
H1403 H 0.77903 0.82893 0.95402 0.0
C1404 C 0.26222 1.00474 0.05933 0.0
C1405 C 0.25799 0.03012 0.08564 0.0
C1406 C 0.24858 0.04215 0.97693 0.0
C1407 C 0.2552 0.01835 0.95108 0.0
N1408 N 0.27488 0.98161 0.96763 0.0
N1409 N 0.25314 0.07689 0.06989 0.0
C1410 C 0.26409 1.00109 0.99238 0.0
C1411 C 0.25297 0.05002 0.04449 0.0
N1412 N 0.26301 0.98319 0.09792 0.0
N1413 N 0.23681 0.0563 0.93719 0.0
H1414 H 0.25604 0.08331 0.11905 0.0
H1415 H 0.25318 0.09426 0.04231 0.0
H1416 H 0.2333 0.05124 0.88756 0.0
H1417 H 0.22806 0.07108 0.95363 0.0
H1418 H 0.26274 0.96228 0.08099 0.0
H1419 H 0.26064 0.98456 0.14659 0.0
H1420 H 0.28454 0.97067 0.99572 0.0
H1421 H 0.2771 0.97876 0.91892 0.0
C1422 C 0.99812 0.74093 0.99449 0.0
C1423 C 0.02457 0.77137 0.98243 0.0
C1424 C 0.0342 0.78902 0.09793 0.0
C1425 C 1.00848 0.75827 0.11027 0.0
N1426 N 0.96964 0.70307 0.0723 0.0
N1427 N 0.07203 0.8217 1.02358 0.0
C1428 C 0.99162 0.73361 0.05907 0.0
C1429 C 0.0438 0.79466 0.03452 0.0
N1430 N 0.97838 0.7195 0.94412 0.0
N1431 N 0.04917 0.81311 0.14684 0.0
H1432 H 0.08004 0.82649 0.97809 0.0
H1433 H 0.08902 0.83795 0.05987 0.0
H1434 H 0.04397 0.80958 0.19431 0.0
H1435 H 0.06524 0.83709 0.14 0.0
H1436 H 0.95673 0.69837 0.94912 0.0
H1437 H 0.98242 0.7239 0.89646 0.0
H1438 H 0.95925 0.68316 0.03841 0.0
H1439 H 0.96352 0.69708 0.11853 0.0
C1440 C 0.28496 0.24892 0.05995 0.0
C1441 C 0.26285 0.25145 0.09932 0.0
C1442 C 0.24206 0.26877 1.00901 0.0
C1443 C 0.26163 0.26285 0.96802 0.0
N1444 N 0.3 0.24501 0.95242 0.0
N1445 N 0.21798 0.26059 0.11025 0.0
C1446 C 0.2827 0.25237 0.99303 0.0
C1447 C 0.24088 0.26072 0.07362 0.0
N1448 N 0.30875 0.24415 0.08705 0.0
N1449 N 0.225 0.28264 0.98634 0.0
H1450 H 0.21653 0.25518 0.15779 0.0
H1451 H 0.19889 0.26347 0.09242 0.0
H1452 H 0.22474 0.28824 0.93912 0.0
H1453 H 0.21321 0.29097 1.01531 0.0
H1454 H 0.32758 0.24513 0.06262 0.0
H1455 H 0.31126 0.24174 0.13575 0.0
H1456 H 0.31292 0.23375 0.96577 0.0
H1457 H 0.29981 0.24831 0.90376 0.0
C1458 C 0.77752 0.98131 0.08718 0.0
C1459 C 0.77027 1.00447 0.11409 0.0
C1460 C 0.75965 0.01635 1.00618 0.0
C1461 C 0.76492 0.99178 0.97904 0.0
N1462 N 0.77205 0.94625 0.99401 0.0
N1463 N 0.74787 0.03912 0.09984 0.0
C1464 C 0.77184 0.97287 1.0197 0.0
C1465 C 0.75927 0.02045 0.07367 0.0
N1466 N 0.79108 0.9683 0.12572 0.0
N1467 N 0.75641 0.03674 0.96774 0.0
H1468 H 0.74674 0.04224 0.14898 0.0
H1469 H 0.73674 0.04907 0.07283 0.0
H1470 H 0.75718 0.03483 0.9185 0.0
H1471 H 0.75595 0.05722 0.98491 0.0
H1472 H 0.80032 0.95414 0.10817 0.0
H1473 H 0.7955 0.97373 0.17526 0.0
H1474 H 0.77346 0.92955 1.02155 0.0
H1475 H 0.76781 0.93918 0.94498 0.0
C1476 C 0.67467 0.59855 0.29737 0.0
C1477 C 0.69654 0.58925 0.27418 0.0
C1478 C 0.70137 0.57057 0.37901 0.0
C1479 C 0.68095 0.58145 0.4035 0.0
N1480 N 0.65126 0.6094 0.38908 0.0
N1481 N 0.73492 0.57145 0.29535 0.0
C1482 C 0.66846 0.59648 0.36341 0.0
C1483 C 0.71113 0.57677 0.31583 0.0
N1484 N 0.65944 0.60883 0.25581 0.0
N1485 N 0.71027 0.55295 0.41516 0.0
H1486 H 0.7422 0.57492 0.24912 0.0
H1487 H 0.74928 0.56606 0.32543 0.0
H1488 H 0.70376 0.5479 0.46153 0.0
H1489 H 0.72185 0.54105 0.3976 0.0
H1490 H 0.64083 0.613 0.26722 0.0
H1491 H 0.66413 0.61145 0.20791 0.0
H1492 H 0.64332 0.62274 0.36444 0.0
H1493 H 0.6467 0.60868 0.43715 0.0
C1494 C 0.45681 0.12793 0.39752 0.0
C1495 C 0.43783 0.09574 0.41379 0.0
C1496 C 0.42001 0.07718 0.29928 0.0
C1497 C 0.4368 0.10972 0.28384 0.0
N1498 N 0.46625 0.16647 0.31972 0.0
N1499 N 0.39737 0.04025 0.38139 0.0
C1500 C 0.45383 0.1352 0.33344 0.0
C1501 C 0.41833 0.07047 0.36492 0.0
N1502 N 0.47864 0.15147 0.44288 0.0
N1503 N 0.40644 0.05264 0.25112 0.0
H1504 H 0.3955 0.03446 0.4287 0.0
H1505 H 0.38 0.02159 0.34896 0.0
H1506 H 0.40707 0.05664 0.20277 0.0
H1507 H 0.39684 0.02845 0.25874 0.0
H1508 H 0.49572 0.17456 0.43246 0.0
H1509 H 0.48175 0.1472 0.49016 0.0
H1510 H 0.47559 0.18589 0.35471 0.0
H1511 H 0.4646 0.17286 0.2736 0.0
C1512 C 0.88513 0.3139 0.32837 0.0
C1513 C 0.91201 0.31873 0.29451 0.0
C1514 C 0.94581 0.33333 0.39754 0.0
C1515 C 0.92013 0.33255 0.43018 0.0
N1516 N 0.86623 0.32523 0.42606 0.0
N1517 N 0.96915 0.33606 0.29656 0.0
C1518 C 0.88999 0.32358 0.39539 0.0
C1519 C 0.94266 0.32904 0.32911 0.0
N1520 N 0.85461 0.29889 0.29687 0.0
N1521 N 0.97302 0.33764 0.43217 0.0
H1522 H 0.96795 0.33319 0.24679 0.0
H1523 H 0.99281 0.34702 0.31839 0.0
H1524 H 0.97617 0.34111 0.48208 0.0
H1525 H 0.99113 0.33498 0.41208 0.0
H1526 H 0.83356 0.29155 0.31995 0.0
H1527 H 0.84994 0.2909 0.24825 0.0
H1528 H 0.84532 0.32286 0.40219 0.0
H1529 H 0.86843 0.3313 0.47523 0.0
C1530 C 0.66592 0.08469 0.30811 0.0
C1531 C 0.68877 0.11673 0.29564 0.0
C1532 C 0.6944 0.13456 0.41035 0.0
C1533 C 0.67324 0.10221 0.42345 0.0
N1534 N 0.64346 0.04563 0.38661 0.0
N1535 N 0.72961 0.17084 0.3368 0.0
C1536 C 0.66031 0.07702 0.37276 0.0
C1537 C 0.70436 0.1413 0.34739 0.0
N1538 N 0.6487 0.06178 0.25804 0.0
N1539 N 0.7043 0.15907 0.45777 0.0
H1540 H 0.73781 0.17665 0.29172 0.0
H1541 H 0.74436 0.18861 0.37338 0.0
H1542 H 0.69787 0.15518 0.5045 0.0
H1543 H 0.71666 0.18337 0.44975 0.0
H1544 H 0.62926 0.03894 0.26346 0.0
H1545 H 0.65209 0.06641 0.2103 0.0
H1546 H 0.63675 0.02612 0.35305 0.0
H1547 H 0.63862 0.0391 0.43304 0.0
C1548 C 0.90696 0.55969 0.3125 0.0
C1549 C 0.91896 0.59087 0.29124 0.0
C1550 C 0.94065 0.61528 0.40197 0.0
C1551 C 0.92658 0.58396 0.42369 0.0
N1552 N 0.89141 0.52646 0.40145 0.0
N1553 N 0.94367 0.64827 0.31588 0.0
C1554 C 0.90836 0.5562 0.37937 0.0
C1555 C 0.93484 0.61867 0.3361 0.0
N1556 N 0.89508 0.53342 0.26854 0.0
N1557 N 0.96037 0.6417 0.44397 0.0
H1558 H 0.94047 0.65176 0.26807 0.0
H1559 H 0.95199 0.66902 0.34679 0.0
H1560 H 0.96504 0.64015 0.49233 0.0
H1561 H 0.97388 0.66498 0.43042 0.0
H1562 H 0.88943 0.51056 0.28041 0.0
H1563 H 0.89343 0.53494 0.21927 0.0
H1564 H 0.87485 0.5057 0.37246 0.0
H1565 H 0.89163 0.52288 0.44996 0.0
C1566 C 0.40409 0.33013 0.31711 0.0
C1567 C 0.43423 0.34231 0.2892 0.0
C1568 C 0.46297 0.36398 0.39683 0.0
C1569 C 0.43327 0.34651 0.42491 0.0
N1570 N 0.37493 0.31241 0.4116 0.0
N1571 N 0.4861 0.39179 0.30527 0.0
C1572 C 0.40359 0.32953 0.38494 0.0
C1573 C 0.4625 0.36509 0.32936 0.0
N1574 N 0.37681 0.32382 0.27995 0.0
N1575 N 0.49183 0.38034 0.43436 0.0
H1576 H 0.48261 0.39785 0.25991 0.0
H1577 H 0.50593 0.41056 0.33346 0.0
H1578 H 0.49349 0.38182 0.48424 0.0
H1579 H 0.51424 0.39051 0.41522 0.0
H1580 H 0.35438 0.31653 0.29748 0.0
H1581 H 0.37789 0.33016 0.23302 0.0
H1582 H 0.35289 0.29693 0.38466 0.0
H1583 H 0.37365 0.31174 0.46097 0.0
C1584 C 0.32668 0.89922 0.63992 0.0
C1585 C 0.35307 0.92862 0.62359 0.0
C1586 C 0.36243 0.95119 0.73629 0.0
C1587 C 0.33848 0.9206 0.7536 0.0
N1588 N 0.30041 0.86426 0.72303 0.0
N1589 N 0.39844 0.98173 0.65731 0.0
C1590 C 0.32125 0.89431 0.70561 0.0
C1591 C 0.37149 0.95447 0.67208 0.0
N1592 N 0.30614 0.87627 0.59231 0.0
N1593 N 0.37598 0.97732 0.78095 0.0
H1594 H 0.4056 0.98525 0.61101 0.0
H1595 H 0.41508 0.99982 0.69156 0.0
H1596 H 0.37023 0.97572 0.82832 0.0
H1597 H 0.39085 1.00092 0.77003 0.0
H1598 H 0.28445 0.85584 0.60036 0.0
H1599 H 0.30923 0.87906 0.54383 0.0
H1600 H 0.28996 0.84342 0.69148 0.0
H1601 H 0.29552 0.85966 0.77032 0.0
C1602 C 0.10608 0.41897 0.72481 0.0
C1603 C 0.1196 0.444 0.77592 0.0
C1604 C 0.13415 0.48416 0.69715 0.0
C1605 C 0.11798 0.45898 0.64676 0.0
N1606 N 0.08287 0.40233 0.61426 0.0
N1607 N 0.14071 0.50012 0.81101 0.0
C1608 C 0.1023 0.42633 0.6611 0.0
C1609 C 0.13212 0.47656 0.76213 0.0
N1610 N 0.0979 0.38829 0.73675 0.0
N1611 N 0.15204 0.5154 0.68292 0.0
H1612 H 0.13899 0.49553 0.85901 0.0
H1613 H 0.14663 0.52362 0.80375 0.0
H1614 H 0.15375 0.52197 0.63616 0.0
H1615 H 0.1673 0.53445 0.71694 0.0
H1616 H 0.09084 0.36962 0.70084 0.0
H1617 H 0.1012 0.3822 0.78231 0.0
H1618 H 0.06813 0.37835 0.62305 0.0
H1619 H 0.07932 0.40684 0.56736 0.0
C1620 C 0.57646 0.69174 0.71686 0.0
C1621 C 0.58853 0.67721 0.75891 0.0
C1622 C 0.59587 0.64838 0.66701 0.0
C1623 C 0.58268 0.66209 0.62514 0.0
N1624 N 0.55413 0.69111 0.60997 0.0
N1625 N 0.60539 0.63842 0.77626 0.0
C1626 C 0.57111 0.6821 0.65009 0.0
C1627 C 0.59685 0.65441 0.73459 0.0
N1628 N 0.57107 0.71555 0.7406 0.0
N1629 N 0.60844 0.63053 0.64207 0.0
H1630 H 0.60703 0.64288 0.82588 0.0
H1631 H 0.60874 0.61928 0.76227 0.0
H1632 H 0.60817 0.62565 0.593 0.0
H1633 H 0.62095 0.6221 0.66946 0.0
H1634 H 0.56613 0.72983 0.71186 0.0
H1635 H 0.57388 0.72278 0.78935 0.0
H1636 H 0.54205 0.70279 0.62586 0.0
H1637 H 0.54953 0.6843 0.56081 0.0
C1638 C 0.31755 0.44477 0.71586 0.0
C1639 C 0.33636 0.43876 0.76198 0.0
C1640 C 0.37324 0.44314 0.67961 0.0
C1641 C 0.3549 0.44995 0.63401 0.0
N1642 N 0.30799 0.45605 0.61004 0.0
N1643 N 0.38352 0.43303 0.7859 0.0
C1644 C 0.32685 0.45047 0.65242 0.0
C1645 C 0.36426 0.43798 0.74333 0.0
N1646 N 0.29022 0.44483 0.73205 0.0
N1647 N 0.39994 0.44198 0.66277 0.0
H1648 H 0.37959 0.42987 0.83399 0.0
H1649 H 0.37959 0.42987 0.83399 0.0
H1650 H 0.40789 0.44593 0.61709 0.0
H1651 H 0.41398 0.4369 0.69467 0.0
H1652 H 0.27579 0.44923 0.69974 0.0
H1653 H 0.28185 0.44016 0.7773 0.0
H1654 H 0.31243 0.46006 0.56234 0.0
H1655 H 0.31243 0.46006 0.56234 0.0
C1656 C 0.58842 0.89462 0.71569 0.0
C1657 C 0.60265 0.92179 0.76199 0.0
C1658 C 0.61543 0.95773 0.67563 0.0
C1659 C 0.59799 0.93039 0.63003 0.0
N1660 N 0.564 0.87271 0.60727 0.0
N1661 N 0.62654 0.97911 0.78733 0.0
C1662 C 0.58353 0.89878 0.65021 0.0
C1663 C 0.61542 0.95338 0.74228 0.0
N1664 N 0.5804 0.86487 0.73406 0.0
N1665 N 0.63265 0.98778 0.65503 0.0
H1666 H 0.62689 0.97679 0.83639 0.0
H1667 H 0.63303 1.00232 0.77639 0.0
H1668 H 0.63314 0.9918 0.60669 0.0
H1669 H 0.64865 1.00833 0.68515 0.0
H1670 H 0.57342 0.84481 0.70179 0.0
H1671 H 0.58342 0.86078 0.78153 0.0
H1672 H 0.54975 0.84944 0.62043 0.0
H1673 H 0.55994 0.87462 0.55885 0.0
C1674 C 0.11915 0.70919 0.67158 0.0
C1675 C 0.11495 0.67885 0.64926 0.0
C1676 C 0.11402 0.66458 0.76033 0.0
C1677 C 0.1178 0.69486 0.78245 0.0
N1678 N 0.12349 0.74609 0.75736 0.0
N1679 N 0.10295 0.62541 0.67026 0.0
C1680 C 0.11998 0.71693 0.73792 0.0
C1681 C 0.11106 0.65595 0.69316 0.0
N1682 N 0.1225 0.73109 0.62942 0.0
N1683 N 0.11362 0.6442 0.80372 0.0
H1684 H 0.10043 0.61818 0.62157 0.0
H1685 H 0.09627 0.60638 0.69861 0.0
H1686 H 0.11369 0.64867 0.85286 0.0
H1687 H 0.11504 0.62368 0.79184 0.0
H1688 H 0.12541 0.75356 0.64404 0.0
H1689 H 0.12261 0.72694 0.58021 0.0
H1690 H 0.12475 0.75429 0.80505 0.0
H1691 H 0.12475 0.75429 0.80505 0.0
loop_
_geom_bond_atom_site_label_1
_geom_bond_atom_site_label_2
_geom_bond_distance
_geom_bond_site_symmetry_2
_ccdc_geom_bond_type
Gd0 C3 2.818 . S
Gd0 O20 2.377 1_455 S
Gd0 O22 2.448 . S
Gd0 O23 2.518 . S
Gd0 O24 2.435 . S
Gd0 O25 2.717 . S
Gd0 O27 2.395 . S
Gd0 O31 2.327 1_455 S
Gd1 C12 2.818 . S
Gd1 O21 2.395 . S
Gd1 O25 2.327 1_655 S
Gd1 O26 2.377 1_655 S
Gd1 O28 2.448 . S
Gd1 O29 2.506 1_655 S
Gd1 O30 2.435 . S
Gd1 O31 2.717 . S
C2 O20 1.240 . S
C2 O21 1.240 . S
C3 Gd0 2.818 . S
C3 C4 1.510 . S
C3 O22 1.249 . S
C3 O23 1.270 . S
C4 C3 1.510 . S
C4 C5 1.404 . S
C4 C6 1.352 1_455 S
C5 C4 1.404 . S
C5 C9 1.389 . S
C5 H32 0.930 . S
C6 C4 1.352 1_655 S
C6 C8 1.374 . S
C6 H33 0.931 . S
C7 C8 1.359 1_455 S
C7 C9 1.364 . S
C8 C6 1.374 . S
C8 C7 1.359 1_655 S
C8 H34 0.931 . S
C9 C5 1.389 . S
C9 C7 1.364 . S
C9 H35 0.931 . S
C10 O24 1.256 . S
C10 O25 1.257 . S
C11 O26 1.240 . S
C11 O27 1.240 . S
C12 Gd1 2.818 . S
C12 C13 1.510 . S
C12 O28 1.249 . S
C12 O29 1.252 1_655 S
C13 C12 1.510 . S
C13 C14 1.404 . S
C13 C15 1.352 1_655 S
C14 C13 1.404 . S
C14 C18 1.389 . S
C14 H36 0.930 . S
C15 C13 1.352 1_455 S
C15 C17 1.374 . S
C15 H37 0.931 . S
C16 C17 1.359 . S
C16 C18 1.364 1_455 S
C17 C15 1.374 . S
C17 C16 1.359 . S
C17 H38 0.931 . S
C18 C14 1.389 . S
C18 C16 1.364 1_655 S
C18 H39 0.931 . S
C19 O30 1.256 . S
C19 O31 1.257 . S
O20 Gd0 2.377 1_655 S
O20 C2 1.240 . S
O21 Gd1 2.395 . S
O21 C2 1.240 . S
O22 Gd0 2.448 . S
O22 C3 1.249 . S
O23 Gd0 2.518 . S
O23 C3 1.270 . S
O24 Gd0 2.435 . S
O24 C10 1.256 . S
O25 Gd0 2.717 . S
O25 Gd1 2.327 1_455 S
O25 C10 1.257 . S
O26 Gd1 2.377 1_455 S
O26 C11 1.240 . S
O27 Gd0 2.395 . S
O27 C11 1.240 . S
O28 Gd1 2.448 . S
O28 C12 1.249 . S
O29 Gd1 2.506 1_455 S
O29 C12 1.252 1_455 S
O30 Gd1 2.435 . S
O30 C19 1.256 . S
O31 Gd0 2.327 1_655 S
O31 Gd1 2.717 . S
O31 C19 1.257 . S
H32 C5 0.930 . S
H33 C6 0.931 . S
H34 C8 0.931 . S
H35 C9 0.931 . S
H36 C14 0.930 . S
H37 C15 0.931 . S
H38 C17 0.931 . S
H39 C18 0.931 . S
Gd40 C43 2.818 . S
Gd40 O60 2.377 . S
Gd40 O62 2.448 . S
Gd40 O63 2.506 . S
Gd40 O64 2.435 . S
Gd40 O65 2.717 . S
Gd40 O67 2.395 . S
Gd40 O71 2.327 . S
Gd41 C52 2.818 . S
Gd41 O61 2.395 . S
Gd41 O65 2.327 . S
Gd41 O66 2.377 . S
Gd41 O68 2.448 . S
Gd41 O69 2.506 . S
Gd41 O70 2.435 . S
Gd41 O71 2.717 . S
C42 O60 1.240 . S
C42 O61 1.240 . S
C43 Gd40 2.818 . S
C43 C44 1.510 . S
C43 O62 1.249 . S
C43 O63 1.252 . S
C44 C43 1.510 . S
C44 C45 1.404 . S
C44 C46 1.352 . S
C45 C44 1.404 . S
C45 C49 1.389 . S
C45 H72 0.930 . S
C46 C44 1.352 . S
C46 C48 1.374 . S
C46 H73 0.931 . S
C47 C48 1.359 . S
C47 C49 1.364 . S
C48 C46 1.374 . S
C48 C47 1.359 . S
C48 H74 0.931 . S
C49 C45 1.389 . S
C49 C47 1.364 . S
C49 H75 0.931 . S
C50 O64 1.256 . S
C50 O65 1.257 . S
C51 O66 1.240 . S
C51 O67 1.240 . S
C52 Gd41 2.818 . S
C52 C53 1.510 . S
C52 O68 1.249 . S
C52 O69 1.252 . S
C53 C52 1.510 . S
C53 C54 1.404 . S
C53 C55 1.352 . S
C54 C53 1.404 . S
C54 C58 1.389 . S
C54 H76 0.930 . S
C55 C53 1.352 . S
C55 C57 1.374 . S
C55 H77 0.931 . S
C56 C57 1.359 . S
C56 C58 1.364 . S
C57 C55 1.374 . S
C57 C56 1.359 . S
C57 H78 0.931 . S
C58 C54 1.389 . S
C58 C56 1.364 . S
C58 H79 0.931 . S
C59 O70 1.256 . S
C59 O71 1.257 . S
O60 Gd40 2.377 . S
O60 C42 1.240 . S
O61 Gd41 2.395 . S
O61 C42 1.240 . S
O62 Gd40 2.448 . S
O62 C43 1.249 . S
O63 Gd40 2.506 . S
O63 C43 1.252 . S
O64 Gd40 2.435 . S
O64 C50 1.256 . S
O65 Gd40 2.717 . S
O65 Gd41 2.327 . S
O65 C50 1.257 . S
O66 Gd41 2.377 . S
O66 C51 1.240 . S
O67 Gd40 2.395 . S
O67 C51 1.240 . S
O68 Gd41 2.448 . S
O68 C52 1.249 . S
O69 Gd41 2.506 . S
O69 C52 1.252 . S
O70 Gd41 2.435 . S
O70 C59 1.256 . S
O71 Gd40 2.327 . S
O71 Gd41 2.717 . S
O71 C59 1.257 . S
H72 C45 0.930 . S
H73 C46 0.931 . S
H74 C48 0.931 . S
H75 C49 0.931 . S
H76 C54 0.930 . S
H77 C55 0.931 . S
H78 C57 0.931 . S
H79 C58 0.931 . S
Gd80 C83 2.818 . S
Gd80 O100 2.377 1_565 S
Gd80 O102 2.448 . S
Gd80 O103 2.506 1_565 S
Gd80 O104 2.435 . S
Gd80 O105 2.717 . S
Gd80 O107 2.395 . S
Gd80 O111 2.327 1_565 S
Gd81 C92 2.818 . S
Gd81 O101 2.395 . S
Gd81 O105 2.327 1_545 S
Gd81 O106 2.377 1_545 S
Gd81 O108 2.448 . S
Gd81 O109 2.506 1_545 S
Gd81 O110 2.435 . S
Gd81 O111 2.717 . S
C82 O100 1.240 . S
C82 O101 1.240 . S
C83 Gd80 2.818 . S
C83 C84 1.510 1_565 S
C83 O102 1.249 . S
C83 O103 1.252 1_565 S
C84 C83 1.510 1_545 S
C84 C85 1.404 1_545 S
C84 C86 1.352 . S
C85 C84 1.404 1_565 S
C85 C89 1.389 . S
C85 H112 0.930 . S
C86 C84 1.352 . S
C86 C88 1.374 . S
C86 H113 0.931 . S
C87 C88 1.359 . S
C87 C89 1.364 1_545 S
C88 C86 1.374 . S
C88 C87 1.359 . S
C88 H114 0.931 . S
C89 C85 1.389 . S
C89 C87 1.364 1_565 S
C89 H115 0.931 . S
C90 O104 1.256 . S
C90 O105 1.257 . S
C91 O106 1.240 . S
C91 O107 1.240 . S
C92 Gd81 2.818 . S
C92 C93 1.513 . S
C92 O108 1.249 . S
C92 O109 1.252 1_545 S
C93 C92 1.513 . S
C93 C94 1.409 . S
C93 C95 1.345 1_545 S
C94 C93 1.409 . S
C94 C98 1.389 . S
C94 H116 0.930 . S
C95 C93 1.345 1_565 S
C95 C97 1.374 . S
C95 H117 0.931 . S
C96 C97 1.359 . S
C96 C98 1.364 1_565 S
C97 C95 1.374 . S
C97 C96 1.359 . S
C97 H118 0.931 . S
C98 C94 1.389 . S
C98 C96 1.364 1_545 S
C98 H119 0.931 . S
C99 O110 1.256 . S
C99 O111 1.257 . S
O100 Gd80 2.377 1_545 S
O100 C82 1.240 . S
O101 Gd81 2.395 . S
O101 C82 1.240 . S
O102 Gd80 2.448 . S
O102 C83 1.249 . S
O103 Gd80 2.506 1_545 S
O103 C83 1.252 1_545 S
O104 Gd80 2.435 . S
O104 C90 1.256 . S
O105 Gd80 2.717 . S
O105 Gd81 2.327 1_565 S
O105 C90 1.257 . S
O106 Gd81 2.377 1_565 S
O106 C91 1.240 . S
O107 Gd80 2.395 . S
O107 C91 1.240 . S
O108 Gd81 2.448 . S
O108 C92 1.249 . S
O109 Gd81 2.506 1_565 S
O109 C92 1.252 1_565 S
O110 Gd81 2.435 . S
O110 C99 1.256 . S
O111 Gd80 2.327 1_545 S
O111 Gd81 2.717 . S
O111 C99 1.257 . S
H112 C85 0.930 . S
H113 C86 0.931 . S
H114 C88 0.931 . S
H115 C89 0.931 . S
H116 C94 0.930 . S
H117 C95 0.931 . S
H118 C97 0.931 . S
H119 C98 0.931 . S
Gd120 C123 2.818 . S
Gd120 O140 2.377 1_455 S
Gd120 O142 2.448 . S
Gd120 O143 2.485 1_455 S
Gd120 O144 2.435 . S
Gd120 O145 2.717 . S
Gd120 O147 2.395 . S
Gd120 O151 2.327 1_455 S
Gd121 C132 2.818 . S
Gd121 O141 2.395 . S
Gd121 O145 2.327 1_655 S
Gd121 O146 2.377 1_655 S
Gd121 O148 2.448 . S
Gd121 O149 2.506 1_655 S
Gd121 O150 2.435 . S
Gd121 O151 2.717 . S
C122 O140 1.240 . S
C122 O141 1.240 . S
C123 Gd120 2.818 . S
C123 C124 1.510 . S
C123 O142 1.249 . S
C123 O143 1.218 1_455 S
C124 C123 1.510 . S
C124 C125 1.404 . S
C124 C126 1.352 1_455 S
C125 C124 1.404 . S
C125 C129 1.389 . S
C125 H152 0.930 . S
C126 C124 1.352 1_655 S
C126 C128 1.374 . S
C126 H153 0.931 . S
C127 C128 1.359 1_455 S
C127 C129 1.364 . S
C128 C126 1.374 . S
C128 C127 1.359 1_655 S
C128 H154 0.931 . S
C129 C125 1.389 . S
C129 C127 1.364 . S
C129 H155 0.931 . S
C130 O144 1.256 . S
C130 O145 1.257 . S
C131 O146 1.240 . S
C131 O147 1.240 . S
C132 Gd121 2.818 . S
C132 C133 1.510 . S
C132 O148 1.249 . S
C132 O149 1.252 1_655 S
C133 C132 1.510 . S
C133 C134 1.404 . S
C133 C135 1.352 1_655 S
C134 C133 1.404 . S
C134 C138 1.389 . S
C134 H156 0.930 . S
C135 C133 1.352 1_455 S
C135 C137 1.374 . S
C135 H157 0.931 . S
C136 C137 1.371 . S
C136 C138 1.351 1_455 S
C137 C135 1.374 . S
C137 C136 1.371 . S
C137 H158 0.931 . S
C138 C134 1.389 . S
C138 C136 1.351 1_655 S
C138 H159 0.931 . S
C139 O150 1.256 . S
C139 O151 1.257 . S
O140 Gd120 2.377 1_655 S
O140 C122 1.240 . S
O141 Gd121 2.395 . S
O141 C122 1.240 . S
O142 Gd120 2.448 . S
O142 C123 1.249 . S
O143 Gd120 2.485 1_655 S
O143 C123 1.218 1_655 S
O144 Gd120 2.435 . S
O144 C130 1.256 . S
O145 Gd120 2.717 . S
O145 Gd121 2.327 1_455 S
O145 C130 1.257 . S
O146 Gd121 2.377 1_455 S
O146 C131 1.240 . S
O147 Gd120 2.395 . S
O147 C131 1.240 . S
O148 Gd121 2.448 . S
O148 C132 1.249 . S
O149 Gd121 2.506 1_455 S
O149 C132 1.252 1_455 S
O150 Gd121 2.435 . S
O150 C139 1.256 . S
O151 Gd120 2.327 1_655 S
O151 Gd121 2.717 . S
O151 C139 1.257 . S
H152 C125 0.930 . S
H153 C126 0.931 . S
H154 C128 0.931 . S
H155 C129 0.931 . S
H156 C134 0.930 . S
H157 C135 0.931 . S
H158 C137 0.931 . S
H159 C138 0.931 . S
Gd160 C163 2.818 . S
Gd160 O180 2.377 . S
Gd160 O182 2.448 . S
Gd160 O183 2.506 . S
Gd160 O184 2.435 . S
Gd160 O185 2.717 . S
Gd160 O187 2.395 . S
Gd160 O191 2.327 . S
Gd161 C172 2.818 . S
Gd161 O181 2.395 . S
Gd161 O185 2.327 . S
Gd161 O186 2.377 . S
Gd161 O188 2.448 . S
Gd161 O189 2.506 . S
Gd161 O190 2.435 . S
Gd161 O191 2.717 . S
C162 O180 1.240 . S
C162 O181 1.240 . S
C163 Gd160 2.818 . S
C163 C164 1.510 . S
C163 O182 1.249 . S
C163 O183 1.252 . S
C164 C163 1.510 . S
C164 C165 1.404 . S
C164 C166 1.352 . S
C165 C164 1.404 . S
C165 C169 1.389 . S
C165 H192 0.930 . S
C166 C164 1.352 . S
C166 C168 1.374 . S
C166 H193 0.931 . S
C167 C168 1.359 . S
C167 C169 1.364 . S
C168 C166 1.374 . S
C168 C167 1.359 . S
C168 H194 0.931 . S
C169 C165 1.389 . S
C169 C167 1.364 . S
C169 H195 0.931 . S
C170 O184 1.256 . S
C170 O185 1.257 . S
C171 O186 1.240 . S
C171 O187 1.240 . S
C172 Gd161 2.818 . S
C172 C173 1.510 . S
C172 O188 1.249 . S
C172 O189 1.252 . S
C173 C172 1.510 . S
C173 C174 1.404 . S
C173 C175 1.352 . S
C174 C173 1.404 . S
C174 C178 1.389 . S
C174 H196 0.930 . S
C175 C173 1.352 . S
C175 C177 1.374 . S
C175 H197 0.931 . S
C176 C177 1.359 . S
C176 C178 1.364 . S
C177 C175 1.374 . S
C177 C176 1.359 . S
C177 H198 0.931 . S
C178 C174 1.389 . S
C178 C176 1.364 . S
C178 H199 0.931 . S
C179 O190 1.256 . S
C179 O191 1.257 . S
O180 Gd160 2.377 . S
O180 C162 1.240 . S
O181 Gd161 2.395 . S
O181 C162 1.240 . S
O182 Gd160 2.448 . S
O182 C163 1.249 . S
O183 Gd160 2.506 . S
O183 C163 1.252 . S
O184 Gd160 2.435 . S
O184 C170 1.256 . S
O185 Gd160 2.717 . S
O185 Gd161 2.327 . S
O185 C170 1.257 . S
O186 Gd161 2.377 . S
O186 C171 1.240 . S
O187 Gd160 2.395 . S
O187 C171 1.240 . S
O188 Gd161 2.448 . S
O188 C172 1.249 . S
O189 Gd161 2.506 . S
O189 C172 1.252 . S
O190 Gd161 2.435 . S
O190 C179 1.256 . S
O191 Gd160 2.327 . S
O191 Gd161 2.717 . S
O191 C179 1.257 . S
H192 C165 0.930 . S
H193 C166 0.931 . S
H194 C168 0.931 . S
H195 C169 0.931 . S
H196 C174 0.930 . S
H197 C175 0.931 . S
H198 C177 0.931 . S
H199 C178 0.931 . S
Gd200 C203 2.818 . S
Gd200 O220 2.377 1_565 S
Gd200 O222 2.448 . S
Gd200 O223 2.506 1_565 S
Gd200 O224 2.435 . S
Gd200 O225 2.717 . S
Gd200 O227 2.395 . S
Gd200 O231 2.327 1_565 S
Gd201 C212 2.818 . S
Gd201 O221 2.395 . S
Gd201 O225 2.327 1_545 S
Gd201 O226 2.377 1_545 S
Gd201 O228 2.448 . S
Gd201 O229 2.506 1_545 S
Gd201 O230 2.435 . S
Gd201 O231 2.717 . S
C202 O220 1.240 . S
C202 O221 1.240 . S
C203 Gd200 2.818 . S
C203 C204 1.510 1_565 S
C203 O222 1.249 . S
C203 O223 1.252 1_565 S
C204 C203 1.510 1_545 S
C204 C205 1.404 1_545 S
C204 C206 1.352 . S
C205 C204 1.404 1_565 S
C205 C209 1.389 . S
C205 H232 0.930 . S
C206 C204 1.352 . S
C206 C208 1.374 . S
C206 H233 0.931 . S
C207 C208 1.359 . S
C207 C209 1.364 1_545 S
C208 C206 1.374 . S
C208 C207 1.359 . S
C208 H234 0.931 . S
C209 C205 1.389 . S
C209 C207 1.364 1_565 S
C209 H235 0.931 . S
C210 O224 1.256 . S
C210 O225 1.257 . S
C211 O226 1.240 . S
C211 O227 1.240 . S
C212 Gd201 2.818 . S
C212 C213 1.510 . S
C212 O228 1.249 . S
C212 O229 1.252 1_545 S
C213 C212 1.510 . S
C213 C214 1.404 . S
C213 C215 1.352 1_545 S
C214 C213 1.404 . S
C214 C218 1.389 . S
C214 H236 0.930 . S
C215 C213 1.352 1_565 S
C215 C217 1.374 . S
C215 H237 0.931 . S
C216 C217 1.359 . S
C216 C218 1.364 1_565 S
C217 C215 1.374 . S
C217 C216 1.359 . S
C217 H238 0.931 . S
C218 C214 1.389 . S
C218 C216 1.364 1_545 S
C218 H239 0.931 . S
C219 O230 1.256 . S
C219 O231 1.257 . S
O220 Gd200 2.377 1_545 S
O220 C202 1.240 . S
O221 Gd201 2.395 . S
O221 C202 1.240 . S
O222 Gd200 2.448 . S
O222 C203 1.249 . S
O223 Gd200 2.506 1_545 S
O223 C203 1.252 1_545 S
O224 Gd200 2.435 . S
O224 C210 1.256 . S
O225 Gd200 2.717 . S
O225 Gd201 2.327 1_565 S
O225 C210 1.257 . S
O226 Gd201 2.377 1_565 S
O226 C211 1.240 . S
O227 Gd200 2.395 . S
O227 C211 1.240 . S
O228 Gd201 2.448 . S
O228 C212 1.249 . S
O229 Gd201 2.506 1_565 S
O229 C212 1.252 1_565 S
O230 Gd201 2.435 . S
O230 C219 1.256 . S
O231 Gd200 2.327 1_545 S
O231 Gd201 2.717 . S
O231 C219 1.257 . S
H232 C205 0.930 . S
H233 C206 0.931 . S
H234 C208 0.931 . S
H235 C209 0.931 . S
H236 C214 0.930 . S
H237 C215 0.931 . S
H238 C217 0.931 . S
H239 C218 0.931 . S
Gd240 C243 2.818 . S
Gd240 O260 2.377 . S
Gd240 O262 2.448 . S
Gd240 O263 2.506 . S
Gd240 O264 2.435 . S
Gd240 O265 2.717 . S
Gd240 O267 2.395 . S
Gd240 O271 2.327 . S
Gd241 C252 2.818 . S
Gd241 O261 2.395 . S
Gd241 O265 2.327 . S
Gd241 O266 2.377 . S
Gd241 O268 2.448 . S
Gd241 O269 2.506 . S
Gd241 O270 2.435 . S
Gd241 O271 2.717 . S
C242 O260 1.240 . S
C242 O261 1.240 . S
C243 Gd240 2.818 . S
C243 C244 1.510 . S
C243 O262 1.249 . S
C243 O263 1.252 . S
C244 C243 1.510 . S
C244 C245 1.404 . S
C244 C246 1.352 . S
C245 C244 1.404 . S
C245 C249 1.389 . S
C245 H272 0.930 . S
C246 C244 1.352 . S
C246 C248 1.374 . S
C246 H273 0.931 . S
C247 C248 1.359 . S
C247 C249 1.364 . S
C248 C246 1.374 . S
C248 C247 1.359 . S
C248 H274 0.931 . S
C249 C245 1.389 . S
C249 C247 1.364 . S
C249 H275 0.931 . S
C250 O264 1.256 . S
C250 O265 1.257 . S
C251 O266 1.240 . S
C251 O267 1.240 . S
C252 Gd241 2.818 . S
C252 C253 1.510 1_556 S
C252 O268 1.249 . S
C252 O269 1.252 . S
C253 C252 1.510 1_554 S
C253 C254 1.404 . S
C253 C255 1.352 . S
C254 C253 1.404 . S
C254 C258 1.389 . S
C254 H276 0.930 . S
C255 C253 1.352 . S
C255 C257 1.374 . S
C255 H277 0.931 . S
C256 C257 1.359 . S
C256 C258 1.364 . S
C257 C255 1.374 . S
C257 C256 1.359 . S
C257 H278 0.931 . S
C258 C254 1.389 . S
C258 C256 1.364 . S
C258 H279 0.931 . S
C259 O270 1.256 . S
C259 O271 1.257 . S
O260 Gd240 2.377 . S
O260 C242 1.240 . S
O261 Gd241 2.395 . S
O261 C242 1.240 . S
O262 Gd240 2.448 . S
O262 C243 1.249 . S
O263 Gd240 2.506 . S
O263 C243 1.252 . S
O264 Gd240 2.435 . S
O264 C250 1.256 . S
O265 Gd240 2.717 . S
O265 Gd241 2.327 . S
O265 C250 1.257 . S
O266 Gd241 2.377 . S
O266 C251 1.240 . S
O267 Gd240 2.395 . S
O267 C251 1.240 . S
O268 Gd241 2.448 . S
O268 C252 1.249 . S
O269 Gd241 2.506 . S
O269 C252 1.252 . S
O270 Gd241 2.435 . S
O270 C259 1.256 . S
O271 Gd240 2.327 . S
O271 Gd241 2.717 . S
O271 C259 1.257 . S
H272 C245 0.930 . S
H273 C246 0.931 . S
H274 C248 0.931 . S
H275 C249 0.931 . S
H276 C254 0.930 . S
H277 C255 0.931 . S
H278 C257 0.931 . S
H279 C258 0.931 . S
Gd280 C283 2.818 . S
Gd280 O300 2.377 . S
Gd280 O302 2.448 . S
Gd280 O303 2.506 . S
Gd280 O304 2.435 . S
Gd280 O305 2.717 . S
Gd280 O307 2.395 . S
Gd280 O311 2.327 . S
Gd281 C292 2.818 . S
Gd281 O301 2.395 . S
Gd281 O305 2.327 . S
Gd281 O306 2.377 . S
Gd281 O308 2.448 . S
Gd281 O309 2.506 . S
Gd281 O310 2.435 . S
Gd281 O311 2.717 . S
C282 O300 1.240 . S
C282 O301 1.240 . S
C283 Gd280 2.818 . S
C283 C284 1.510 . S
C283 O302 1.249 . S
C283 O303 1.252 . S
C284 C283 1.510 . S
C284 C285 1.404 . S
C284 C286 1.352 . S
C285 C284 1.404 . S
C285 C289 1.389 . S
C285 H312 0.930 . S
C286 C284 1.352 . S
C286 C288 1.374 . S
C286 H313 0.931 . S
C287 C288 1.359 . S
C287 C289 1.364 . S
C288 C286 1.374 . S
C288 C287 1.359 . S
C288 H314 0.931 . S
C289 C285 1.389 . S
C289 C287 1.364 . S
C289 H315 0.931 . S
C290 O304 1.256 . S
C290 O305 1.257 . S
C291 O306 1.240 . S
C291 O307 1.240 . S
C292 Gd281 2.818 . S
C292 C293 1.510 1_556 S
C292 O308 1.249 . S
C292 O309 1.252 . S
C293 C292 1.510 1_554 S
C293 C294 1.404 . S
C293 C295 1.352 . S
C294 C293 1.404 . S
C294 C298 1.389 . S
C294 H316 0.930 . S
C295 C293 1.352 . S
C295 C297 1.374 . S
C295 H317 0.931 . S
C296 C297 1.359 . S
C296 C298 1.364 . S
C297 C295 1.374 . S
C297 C296 1.359 . S
C297 H318 0.931 . S
C298 C294 1.389 . S
C298 C296 1.364 . S
C298 H319 0.931 . S
C299 O310 1.256 . S
C299 O311 1.257 . S
O300 Gd280 2.377 . S
O300 C282 1.240 . S
O301 Gd281 2.395 . S
O301 C282 1.240 . S
O302 Gd280 2.448 . S
O302 C283 1.249 . S
O303 Gd280 2.506 . S
O303 C283 1.252 . S
O304 Gd280 2.435 . S
O304 C290 1.256 . S
O305 Gd280 2.717 . S
O305 Gd281 2.327 . S
O305 C290 1.257 . S
O306 Gd281 2.377 . S
O306 C291 1.240 . S
O307 Gd280 2.395 . S
O307 C291 1.240 . S
O308 Gd281 2.448 . S
O308 C292 1.249 . S
O309 Gd281 2.506 . S
O309 C292 1.252 . S
O310 Gd281 2.435 . S
O310 C299 1.256 . S
O311 Gd280 2.327 . S
O311 Gd281 2.717 . S
O311 C299 1.257 . S
H312 C285 0.930 . S
H313 C286 0.931 . S
H314 C288 0.931 . S
H315 C289 0.931 . S
H316 C294 0.930 . S
H317 C295 0.931 . S
H318 C297 0.931 . S
H319 C298 0.931 . S
Gd320 C323 2.818 . S
Gd320 O340 2.377 . S
Gd320 O342 2.448 . S
Gd320 O343 2.506 . S
Gd320 O344 2.435 . S
Gd320 O345 2.717 . S
Gd320 O347 2.395 . S
Gd320 O351 2.327 . S
Gd321 C332 2.818 . S
Gd321 O341 2.395 . S
Gd321 O345 2.327 . S
Gd321 O346 2.377 . S
Gd321 O348 2.448 . S
Gd321 O349 2.506 . S
Gd321 O350 2.435 . S
Gd321 O351 2.717 . S
C322 O340 1.240 . S
C322 O341 1.240 . S
C323 Gd320 2.818 . S
C323 C324 1.510 . S
C323 O342 1.249 . S
C323 O343 1.252 . S
C324 C323 1.510 . S
C324 C325 1.404 . S
C324 C326 1.352 . S
C325 C324 1.404 . S
C325 C329 1.389 . S
C325 H352 0.930 . S
C326 C324 1.352 . S
C326 C328 1.374 . S
C326 H353 0.931 . S
C327 C328 1.359 . S
C327 C329 1.364 . S
C328 C326 1.374 . S
C328 C327 1.359 . S
C328 H354 0.931 . S
C329 C325 1.389 . S
C329 C327 1.364 . S
C329 H355 0.931 . S
C330 O344 1.256 . S
C330 O345 1.257 . S
C331 O346 1.240 . S
C331 O347 1.240 . S
C332 Gd321 2.818 . S
C332 C333 1.510 1_556 S
C332 O348 1.249 . S
C332 O349 1.252 . S
C333 C332 1.510 1_554 S
C333 C334 1.404 . S
C333 C335 1.352 . S
C334 C333 1.404 . S
C334 C338 1.389 . S
C334 H356 0.930 . S
C335 C333 1.352 . S
C335 C337 1.374 . S
C335 H357 0.931 . S
C336 C337 1.359 . S
C336 C338 1.364 . S
C337 C335 1.374 . S
C337 C336 1.359 . S
C337 H358 0.931 . S
C338 C334 1.389 . S
C338 C336 1.364 . S
C338 H359 0.931 . S
C339 O350 1.256 . S
C339 O351 1.257 . S
O340 Gd320 2.377 . S
O340 C322 1.240 . S
O341 Gd321 2.395 . S
O341 C322 1.240 . S
O342 Gd320 2.448 . S
O342 C323 1.249 . S
O343 Gd320 2.506 . S
O343 C323 1.252 . S
O344 Gd320 2.435 . S
O344 C330 1.256 . S
O345 Gd320 2.717 . S
O345 Gd321 2.327 . S
O345 C330 1.257 . S
O346 Gd321 2.377 . S
O346 C331 1.240 . S
O347 Gd320 2.395 . S
O347 C331 1.240 . S
O348 Gd321 2.448 . S
O348 C332 1.249 . S
O349 Gd321 2.506 . S
O349 C332 1.252 . S
O350 Gd321 2.435 . S
O350 C339 1.256 . S
O351 Gd320 2.327 . S
O351 Gd321 2.717 . S
O351 C339 1.257 . S
H352 C325 0.930 . S
H353 C326 0.931 . S
H354 C328 0.931 . S
H355 C329 0.931 . S
H356 C334 0.930 . S
H357 C335 0.931 . S
H358 C337 0.931 . S
H359 C338 0.931 . S
Gd360 C363 2.818 1_556 S
Gd360 O380 2.377 . S
Gd360 O382 2.448 . S
Gd360 O383 2.506 . S
Gd360 O384 2.435 . S
Gd360 O385 2.717 . S
Gd360 O387 2.395 . S
Gd360 O391 2.327 . S
Gd361 C372 2.818 . S
Gd361 O381 2.395 . S
Gd361 O385 2.327 . S
Gd361 O386 2.377 . S
Gd361 O388 2.448 . S
Gd361 O389 2.506 . S
Gd361 O390 2.435 . S
Gd361 O391 2.717 . S
C362 O380 1.240 . S
C362 O381 1.240 . S
C363 Gd360 2.818 1_554 S
C363 C364 1.510 . S
C363 O382 1.249 1_554 S
C363 O383 1.252 1_554 S
C364 C363 1.510 . S
C364 C365 1.404 . S
C364 C366 1.352 . S
C365 C364 1.404 . S
C365 C369 1.389 . S
C365 H392 0.930 . S
C366 C364 1.352 . S
C366 C368 1.374 . S
C366 H393 0.931 . S
C367 C368 1.359 . S
C367 C369 1.364 . S
C368 C366 1.374 . S
C368 C367 1.359 . S
C368 H394 0.931 . S
C369 C365 1.389 . S
C369 C367 1.364 . S
C369 H395 0.931 . S
C370 O384 1.256 . S
C370 O385 1.257 . S
C371 O386 1.240 . S
C371 O387 1.240 . S
C372 Gd361 2.818 . S
C372 C373 1.510 . S
C372 O388 1.249 . S
C372 O389 1.252 . S
C373 C372 1.510 . S
C373 C374 1.404 . S
C373 C375 1.352 . S
C374 C373 1.404 . S
C374 C378 1.389 . S
C374 H396 0.930 . S
C375 C373 1.352 . S
C375 C377 1.374 . S
C375 H397 0.931 . S
C376 C377 1.359 . S
C376 C378 1.364 . S
C377 C375 1.374 . S
C377 C376 1.359 . S
C377 H398 0.931 . S
C378 C374 1.389 . S
C378 C376 1.364 . S
C378 H399 0.931 . S
C379 O390 1.256 . S
C379 O391 1.257 . S
O380 Gd360 2.377 . S
O380 C362 1.240 . S
O381 Gd361 2.395 . S
O381 C362 1.240 . S
O382 Gd360 2.448 . S
O382 C363 1.249 1_556 S
O383 Gd360 2.506 . S
O383 C363 1.252 1_556 S
O384 Gd360 2.435 . S
O384 C370 1.256 . S
O385 Gd360 2.717 . S
O385 Gd361 2.327 . S
O385 C370 1.257 . S
O386 Gd361 2.377 . S
O386 C371 1.240 . S
O387 Gd360 2.395 . S
O387 C371 1.240 . S
O388 Gd361 2.448 . S
O388 C372 1.249 . S
O389 Gd361 2.506 . S
O389 C372 1.252 . S
O390 Gd361 2.435 . S
O390 C379 1.256 . S
O391 Gd360 2.327 . S
O391 Gd361 2.717 . S
O391 C379 1.257 . S
H392 C365 0.930 . S
H393 C366 0.931 . S
H394 C368 0.931 . S
H395 C369 0.931 . S
H396 C374 0.930 . S
H397 C375 0.931 . S
H398 C377 0.931 . S
H399 C378 0.931 . S
Gd400 C403 2.818 1_556 S
Gd400 O420 2.377 . S
Gd400 O422 2.448 1_556 S
Gd400 O423 2.506 . S
Gd400 O424 2.435 . S
Gd400 O425 2.717 . S
Gd400 O427 2.395 . S
Gd400 O431 2.327 . S
Gd401 C412 2.818 . S
Gd401 O421 2.395 . S
Gd401 O425 2.327 . S
Gd401 O426 2.377 . S
Gd401 O428 2.448 . S
Gd401 O429 2.506 . S
Gd401 O430 2.435 . S
Gd401 O431 2.717 . S
C402 O420 1.240 . S
C402 O421 1.240 . S
C403 Gd400 2.818 1_554 S
C403 C404 1.510 . S
C403 O422 1.249 . S
C403 O423 1.252 1_554 S
C404 C403 1.510 . S
C404 C405 1.404 . S
C404 C406 1.352 . S
C405 C404 1.404 . S
C405 C409 1.389 . S
C405 H432 0.930 . S
C406 C404 1.352 . S
C406 C408 1.374 . S
C406 H433 0.931 . S
C407 C408 1.359 . S
C407 C409 1.364 . S
C408 C406 1.374 . S
C408 C407 1.359 . S
C408 H434 0.931 . S
C409 C405 1.389 . S
C409 C407 1.364 . S
C409 H435 0.931 . S
C410 O424 1.256 . S
C410 O425 1.257 . S
C411 O426 1.240 . S
C411 O427 1.240 . S
C412 Gd401 2.818 . S
C412 C413 1.510 . S
C412 O428 1.249 . S
C412 O429 1.252 . S
C413 C412 1.510 . S
C413 C414 1.404 . S
C413 C415 1.352 . S
C414 C413 1.404 . S
C414 C418 1.389 . S
C414 H436 0.930 . S
C415 C413 1.352 . S
C415 C417 1.374 . S
C415 H437 0.931 . S
C416 C417 1.359 . S
C416 C418 1.364 . S
C417 C415 1.374 . S
C417 C416 1.359 . S
C417 H438 0.931 . S
C418 C414 1.389 . S
C418 C416 1.364 . S
C418 H439 0.931 . S
C419 O430 1.256 . S
C419 O431 1.257 . S
O420 Gd400 2.377 . S
O420 C402 1.240 . S
O421 Gd401 2.395 . S
O421 C402 1.240 . S
O422 Gd400 2.448 1_554 S
O422 C403 1.249 . S
O423 Gd400 2.506 . S
O423 C403 1.252 1_556 S
O424 Gd400 2.435 . S
O424 C410 1.256 . S
O425 Gd400 2.717 . S
O425 Gd401 2.327 . S
O425 C410 1.257 . S
O426 Gd401 2.377 . S
O426 C411 1.240 . S
O427 Gd400 2.395 . S
O427 C411 1.240 . S
O428 Gd401 2.448 . S
O428 C412 1.249 . S
O429 Gd401 2.506 . S
O429 C412 1.252 . S
O430 Gd401 2.435 . S
O430 C419 1.256 . S
O431 Gd400 2.327 . S
O431 Gd401 2.717 . S
O431 C419 1.257 . S
H432 C405 0.930 . S
H433 C406 0.931 . S
H434 C408 0.931 . S
H435 C409 0.931 . S
H436 C414 0.930 . S
H437 C415 0.931 . S
H438 C417 0.931 . S
H439 C418 0.931 . S
Gd440 C443 2.818 1_556 S
Gd440 O460 2.377 . S
Gd440 O462 2.448 . S
Gd440 O463 2.506 . S
Gd440 O464 2.435 . S
Gd440 O465 2.717 . S
Gd440 O467 2.395 . S
Gd440 O471 2.327 . S
Gd441 C452 2.818 . S
Gd441 O461 2.395 . S
Gd441 O465 2.327 . S
Gd441 O466 2.377 . S
Gd441 O468 2.448 . S
Gd441 O469 2.506 . S
Gd441 O470 2.435 . S
Gd441 O471 2.717 . S
C442 O460 1.240 . S
C442 O461 1.240 . S
C443 Gd440 2.818 1_554 S
C443 C444 1.510 . S
C443 O462 1.249 1_554 S
C443 O463 1.252 1_554 S
C444 C443 1.510 . S
C444 C445 1.404 . S
C444 C446 1.352 . S
C445 C444 1.404 . S
C445 C449 1.389 . S
C445 H472 0.930 . S
C446 C444 1.352 . S
C446 C448 1.374 . S
C446 H473 0.931 . S
C447 C448 1.359 . S
C447 C449 1.364 . S
C448 C446 1.374 . S
C448 C447 1.359 . S
C448 H474 0.931 . S
C449 C445 1.389 . S
C449 C447 1.364 . S
C449 H475 0.931 . S
C450 O464 1.256 . S
C450 O465 1.257 . S
C451 O466 1.240 . S
C451 O467 1.240 . S
C452 Gd441 2.818 . S
C452 C453 1.510 . S
C452 O468 1.249 . S
C452 O469 1.252 . S
C453 C452 1.510 . S
C453 C454 1.404 . S
C453 C455 1.352 . S
C454 C453 1.404 . S
C454 C458 1.389 . S
C454 H476 0.930 . S
C455 C453 1.352 . S
C455 C457 1.374 . S
C455 H477 0.931 . S
C456 C457 1.359 . S
C456 C458 1.364 . S
C457 C455 1.374 . S
C457 C456 1.359 . S
C457 H478 0.931 . S
C458 C454 1.389 . S
C458 C456 1.364 . S
C458 H479 0.931 . S
C459 O470 1.256 . S
C459 O471 1.257 . S
O460 Gd440 2.377 . S
O460 C442 1.240 . S
O461 Gd441 2.395 . S
O461 C442 1.240 . S
O462 Gd440 2.448 . S
O462 C443 1.249 1_556 S
O463 Gd440 2.506 . S
O463 C443 1.252 1_556 S
O464 Gd440 2.435 . S
O464 C450 1.256 . S
O465 Gd440 2.717 . S
O465 Gd441 2.327 . S
O465 C450 1.257 . S
O466 Gd441 2.377 . S
O466 C451 1.240 . S
O467 Gd440 2.395 . S
O467 C451 1.240 . S
O468 Gd441 2.448 . S
O468 C452 1.249 . S
O469 Gd441 2.506 . S
O469 C452 1.252 . S
O470 Gd441 2.435 . S
O470 C459 1.256 . S
O471 Gd440 2.327 . S
O471 Gd441 2.717 . S
O471 C459 1.257 . S
H472 C445 0.930 . S
H473 C446 0.931 . S
H474 C448 0.931 . S
H475 C449 0.931 . S
H476 C454 0.930 . S
H477 C455 0.931 . S
H478 C457 0.931 . S
H479 C458 0.931 . S
Gd480 C483 2.818 . S
Gd480 O500 2.377 . S
Gd480 O502 2.448 . S
Gd480 O503 2.506 . S
Gd480 O504 2.435 . S
Gd480 O505 2.717 . S
Gd480 O507 2.395 . S
Gd480 O511 2.327 . S
Gd481 C492 2.818 1_554 S
Gd481 O501 2.395 . S
Gd481 O505 2.327 . S
Gd481 O506 2.377 . S
Gd481 O508 2.448 1_554 S
Gd481 O509 2.506 1_554 S
Gd481 O510 2.435 . S
Gd481 O511 2.717 . S
C482 O500 1.240 . S
C482 O501 1.240 . S
C483 Gd480 2.818 . S
C483 C484 1.510 . S
C483 O502 1.249 . S
C483 O503 1.252 . S
C484 C483 1.510 . S
C484 C485 1.404 . S
C484 C486 1.352 . S
C485 C484 1.404 . S
C485 C489 1.389 . S
C485 H512 0.930 . S
C486 C484 1.352 . S
C486 C488 1.374 . S
C486 H513 0.931 . S
C487 C488 1.359 . S
C487 C489 1.364 . S
C488 C486 1.374 . S
C488 C487 1.359 . S
C488 H514 0.931 . S
C489 C485 1.389 . S
C489 C487 1.364 . S
C489 H515 0.931 . S
C490 O504 1.256 . S
C490 O505 1.257 . S
C491 O506 1.240 . S
C491 O507 1.240 . S
C492 Gd481 2.818 1_556 S
C492 C493 1.510 . S
C492 O508 1.249 . S
C492 O509 1.252 . S
C493 C492 1.510 . S
C493 C494 1.404 . S
C493 C495 1.352 . S
C494 C493 1.404 . S
C494 C498 1.389 . S
C494 H516 0.930 . S
C495 C493 1.352 . S
C495 C497 1.374 . S
C495 H517 0.931 . S
C496 C497 1.359 . S
C496 C498 1.364 . S
C497 C495 1.374 . S
C497 C496 1.359 . S
C497 H518 0.931 . S
C498 C494 1.389 . S
C498 C496 1.364 . S
C498 H519 0.931 . S
C499 O510 1.256 . S
C499 O511 1.257 . S
O500 Gd480 2.377 . S
O500 C482 1.240 . S
O501 Gd481 2.395 . S
O501 C482 1.240 . S
O502 Gd480 2.448 . S
O502 C483 1.249 . S
O503 Gd480 2.506 . S
O503 C483 1.252 . S
O504 Gd480 2.435 . S
O504 C490 1.256 . S
O505 Gd480 2.717 . S
O505 Gd481 2.327 . S
O505 C490 1.257 . S
O506 Gd481 2.377 . S
O506 C491 1.240 . S
O507 Gd480 2.395 . S
O507 C491 1.240 . S
O508 Gd481 2.448 1_556 S
O508 C492 1.249 . S
O509 Gd481 2.506 1_556 S
O509 C492 1.252 . S
O510 Gd481 2.435 . S
O510 C499 1.256 . S
O511 Gd480 2.327 . S
O511 Gd481 2.717 . S
O511 C499 1.257 . S
H512 C485 0.930 . S
H513 C486 0.931 . S
H514 C488 0.931 . S
H515 C489 0.931 . S
H516 C494 0.930 . S
H517 C495 0.931 . S
H518 C497 0.931 . S
H519 C498 0.931 . S
Gd520 C523 2.818 1_554 S
Gd520 O540 2.377 . S
Gd520 O542 2.448 1_554 S
Gd520 O543 2.506 1_554 S
Gd520 O544 2.435 . S
Gd520 O545 2.717 . S
Gd520 O547 2.395 . S
Gd520 O551 2.327 . S
Gd521 C532 2.818 . S
Gd521 O541 2.395 . S
Gd521 O545 2.327 . S
Gd521 O546 2.377 . S
Gd521 O548 2.448 . S
Gd521 O549 2.506 . S
Gd521 O550 2.435 . S
Gd521 O551 2.717 . S
C522 O540 1.240 . S
C522 O541 1.240 . S
C523 Gd520 2.818 1_556 S
C523 C524 1.510 . S
C523 O542 1.249 . S
C523 O543 1.252 . S
C524 C523 1.510 . S
C524 C525 1.404 . S
C524 C526 1.352 . S
C525 C524 1.404 . S
C525 C529 1.389 . S
C525 H552 0.930 . S
C526 C524 1.352 . S
C526 C528 1.374 . S
C526 H553 0.931 . S
C527 C528 1.359 . S
C527 C529 1.364 . S
C528 C526 1.374 . S
C528 C527 1.359 . S
C528 H554 0.931 . S
C529 C525 1.389 . S
C529 C527 1.364 . S
C529 H555 0.931 . S
C530 O544 1.256 . S
C530 O545 1.257 . S
C531 O546 1.240 . S
C531 O547 1.240 . S
C532 Gd521 2.818 . S
C532 C533 1.510 . S
C532 O548 1.249 . S
C532 O549 1.252 . S
C533 C532 1.510 . S
C533 C534 1.404 . S
C533 C535 1.352 . S
C534 C533 1.404 . S
C534 C538 1.389 . S
C534 H556 0.930 . S
C535 C533 1.352 . S
C535 C537 1.374 . S
C535 H557 0.931 . S
C536 C537 1.359 . S
C536 C538 1.364 . S
C537 C535 1.374 . S
C537 C536 1.359 . S
C537 H558 0.931 . S
C538 C534 1.389 . S
C538 C536 1.364 . S
C538 H559 0.931 . S
C539 O550 1.256 . S
C539 O551 1.257 . S
O540 Gd520 2.377 . S
O540 C522 1.240 . S
O541 Gd521 2.395 . S
O541 C522 1.240 . S
O542 Gd520 2.448 1_556 S
O542 C523 1.249 . S
O543 Gd520 2.506 1_556 S
O543 C523 1.252 . S
O544 Gd520 2.435 . S
O544 C530 1.256 . S
O545 Gd520 2.717 . S
O545 Gd521 2.327 . S
O545 C530 1.257 . S
O546 Gd521 2.377 . S
O546 C531 1.240 . S
O547 Gd520 2.395 . S
O547 C531 1.240 . S
O548 Gd521 2.448 . S
O548 C532 1.249 . S
O549 Gd521 2.506 . S
O549 C532 1.252 . S
O550 Gd521 2.435 . S
O550 C539 1.256 . S
O551 Gd520 2.327 . S
O551 Gd521 2.717 . S
O551 C539 1.257 . S
H552 C525 0.930 . S
H553 C526 0.931 . S
H554 C528 0.931 . S
H555 C529 0.931 . S
H556 C534 0.930 . S
H557 C535 0.931 . S
H558 C537 0.931 . S
H559 C538 0.931 . S
Gd560 C563 2.818 . S
Gd560 O580 2.377 . S
Gd560 O582 2.448 . S
Gd560 O583 2.506 . S
Gd560 O584 2.435 . S
Gd560 O585 2.717 . S
Gd560 O587 2.395 . S
Gd560 O591 2.327 . S
Gd561 C572 2.818 1_554 S
Gd561 O581 2.395 . S
Gd561 O585 2.327 . S
Gd561 O586 2.377 . S
Gd561 O588 2.448 . S
Gd561 O589 2.506 . S
Gd561 O590 2.435 . S
Gd561 O591 2.717 . S
C562 O580 1.240 . S
C562 O581 1.240 . S
C563 Gd560 2.818 . S
C563 C564 1.510 . S
C563 O582 1.249 . S
C563 O583 1.252 . S
C564 C563 1.510 . S
C564 C565 1.404 . S
C564 C566 1.352 . S
C565 C564 1.404 . S
C565 C569 1.389 . S
C565 H592 0.930 . S
C566 C564 1.352 . S
C566 C568 1.374 . S
C566 H593 0.931 . S
C567 C568 1.359 . S
C567 C569 1.364 . S
C568 C566 1.374 . S
C568 C567 1.359 . S
C568 H594 0.931 . S
C569 C565 1.389 . S
C569 C567 1.364 . S
C569 H595 0.931 . S
C570 O584 1.256 . S
C570 O585 1.257 . S
C571 O586 1.240 . S
C571 O587 1.240 . S
C572 Gd561 2.818 1_556 S
C572 C573 1.510 . S
C572 O588 1.249 1_556 S
C572 O589 1.252 1_556 S
C573 C572 1.510 . S
C573 C574 1.404 . S
C573 C575 1.352 . S
C574 C573 1.404 . S
C574 C578 1.389 . S
C574 H596 0.930 . S
C575 C573 1.352 . S
C575 C577 1.374 . S
C575 H597 0.931 . S
C576 C577 1.359 . S
C576 C578 1.364 . S
C577 C575 1.374 . S
C577 C576 1.359 . S
C577 H598 0.931 . S
C578 C574 1.389 . S
C578 C576 1.364 . S
C578 H599 0.931 . S
C579 O590 1.256 . S
C579 O591 1.257 . S
O580 Gd560 2.377 . S
O580 C562 1.240 . S
O581 Gd561 2.395 . S
O581 C562 1.240 . S
O582 Gd560 2.448 . S
O582 C563 1.249 . S
O583 Gd560 2.506 . S
O583 C563 1.252 . S
O584 Gd560 2.435 . S
O584 C570 1.256 . S
O585 Gd560 2.717 . S
O585 Gd561 2.327 . S
O585 C570 1.257 . S
O586 Gd561 2.377 . S
O586 C571 1.240 . S
O587 Gd560 2.395 . S
O587 C571 1.240 . S
O588 Gd561 2.448 . S
O588 C572 1.249 1_554 S
O589 Gd561 2.506 . S
O589 C572 1.252 1_554 S
O590 Gd561 2.435 . S
O590 C579 1.256 . S
O591 Gd560 2.327 . S
O591 Gd561 2.717 . S
O591 C579 1.257 . S
H592 C565 0.930 . S
H593 C566 0.931 . S
H594 C568 0.931 . S
H595 C569 0.931 . S
H596 C574 0.930 . S
H597 C575 0.931 . S
H598 C577 0.931 . S
H599 C578 0.931 . S
Gd600 C603 2.818 . S
Gd600 O620 2.377 . S
Gd600 O622 2.448 . S
Gd600 O623 2.506 . S
Gd600 O624 2.435 . S
Gd600 O625 2.717 . S
Gd600 O627 2.395 . S
Gd600 O631 2.327 . S
Gd601 C612 2.818 1_554 S
Gd601 O621 2.395 . S
Gd601 O625 2.327 . S
Gd601 O626 2.377 . S
Gd601 O628 2.448 1_554 S
Gd601 O629 2.506 . S
Gd601 O630 2.435 . S
Gd601 O631 2.717 . S
C602 O620 1.240 . S
C602 O621 1.240 . S
C603 Gd600 2.818 . S
C603 C604 1.510 . S
C603 O622 1.249 . S
C603 O623 1.252 . S
C604 C603 1.510 . S
C604 C605 1.404 . S
C604 C606 1.352 . S
C605 C604 1.404 . S
C605 C609 1.389 . S
C605 H632 0.930 . S
C606 C604 1.352 . S
C606 C608 1.374 . S
C606 H633 0.931 . S
C607 C608 1.359 . S
C607 C609 1.364 . S
C608 C606 1.374 . S
C608 C607 1.359 . S
C608 H634 0.931 . S
C609 C605 1.389 . S
C609 C607 1.364 . S
C609 H635 0.931 . S
C610 O624 1.256 . S
C610 O625 1.257 . S
C611 O626 1.240 . S
C611 O627 1.240 . S
C612 Gd601 2.818 1_556 S
C612 C613 1.510 . S
C612 O628 1.249 . S
C612 O629 1.252 1_556 S
C613 C612 1.510 . S
C613 C614 1.404 . S
C613 C615 1.352 . S
C614 C613 1.404 . S
C614 C618 1.389 . S
C614 H636 0.930 . S
C615 C613 1.352 . S
C615 C617 1.374 . S
C615 H637 0.931 . S
C616 C617 1.359 . S
C616 C618 1.364 . S
C617 C615 1.374 . S
C617 C616 1.359 . S
C617 H638 0.931 . S
C618 C614 1.389 . S
C618 C616 1.364 . S
C618 H639 0.931 . S
C619 O630 1.256 . S
C619 O631 1.257 . S
O620 Gd600 2.377 . S
O620 C602 1.240 . S
O621 Gd601 2.395 . S
O621 C602 1.240 . S
O622 Gd600 2.448 . S
O622 C603 1.249 . S
O623 Gd600 2.506 . S
O623 C603 1.252 . S
O624 Gd600 2.435 . S
O624 C610 1.256 . S
O625 Gd600 2.717 . S
O625 Gd601 2.327 . S
O625 C610 1.257 . S
O626 Gd601 2.377 . S
O626 C611 1.240 . S
O627 Gd600 2.395 . S
O627 C611 1.240 . S
O628 Gd601 2.448 1_556 S
O628 C612 1.249 . S
O629 Gd601 2.506 . S
O629 C612 1.252 1_554 S
O630 Gd601 2.435 . S
O630 C619 1.256 . S
O631 Gd600 2.327 . S
O631 Gd601 2.717 . S
O631 C619 1.257 . S
H632 C605 0.930 . S
H633 C606 0.931 . S
H634 C608 0.931 . S
H635 C609 0.931 . S
H636 C614 0.930 . S
H637 C615 0.931 . S
H638 C617 0.931 . S
H639 C618 0.931 . S
Gd640 C643 2.818 . S
Gd640 O660 2.377 . S
Gd640 O662 2.448 . S
Gd640 O663 2.506 . S
Gd640 O664 2.435 . S
Gd640 O665 2.717 . S
Gd640 O667 2.395 . S
Gd640 O671 2.327 . S
Gd641 C652 2.818 . S
Gd641 O661 2.395 . S
Gd641 O665 2.327 . S
Gd641 O666 2.377 . S
Gd641 O668 2.448 . S
Gd641 O669 2.506 . S
Gd641 O670 2.435 . S
Gd641 O671 2.717 . S
C642 O660 1.240 . S
C642 O661 1.240 . S
C643 Gd640 2.818 . S
C643 C644 1.510 1_554 S
C643 O662 1.249 . S
C643 O663 1.252 . S
C644 C643 1.510 1_556 S
C644 C645 1.404 . S
C644 C646 1.352 . S
C645 C644 1.404 . S
C645 C649 1.389 . S
C645 H672 0.930 . S
C646 C644 1.352 . S
C646 C648 1.374 . S
C646 H673 0.931 . S
C647 C648 1.359 . S
C647 C649 1.364 . S
C648 C646 1.374 . S
C648 C647 1.359 . S
C648 H674 0.931 . S
C649 C645 1.389 . S
C649 C647 1.364 . S
C649 H675 0.931 . S
C650 O664 1.256 . S
C650 O665 1.257 . S
C651 O666 1.240 . S
C651 O667 1.240 . S
C652 Gd641 2.818 . S
C652 C653 1.510 . S
C652 O668 1.249 . S
C652 O669 1.252 . S
C653 C652 1.510 . S
C653 C654 1.404 . S
C653 C655 1.352 . S
C654 C653 1.404 . S
C654 C658 1.389 . S
C654 H676 0.930 . S
C655 C653 1.352 . S
C655 C657 1.374 . S
C655 H677 0.931 . S
C656 C657 1.359 . S
C656 C658 1.364 . S
C657 C655 1.374 . S
C657 C656 1.359 . S
C657 H678 0.931 . S
C658 C654 1.389 . S
C658 C656 1.364 . S
C658 H679 0.931 . S
C659 O670 1.256 . S
C659 O671 1.257 . S
O660 Gd640 2.377 . S
O660 C642 1.240 . S
O661 Gd641 2.395 . S
O661 C642 1.240 . S
O662 Gd640 2.448 . S
O662 C643 1.249 . S
O663 Gd640 2.506 . S
O663 C643 1.252 . S
O664 Gd640 2.435 . S
O664 C650 1.256 . S
O665 Gd640 2.717 . S
O665 Gd641 2.327 . S
O665 C650 1.257 . S
O666 Gd641 2.377 . S
O666 C651 1.240 . S
O667 Gd640 2.395 . S
O667 C651 1.240 . S
O668 Gd641 2.448 . S
O668 C652 1.249 . S
O669 Gd641 2.506 . S
O669 C652 1.252 . S
O670 Gd641 2.435 . S
O670 C659 1.256 . S
O671 Gd640 2.327 . S
O671 Gd641 2.717 . S
O671 C659 1.257 . S
H672 C645 0.930 . S
H673 C646 0.931 . S
H674 C648 0.931 . S
H675 C649 0.931 . S
H676 C654 0.930 . S
H677 C655 0.931 . S
H678 C657 0.931 . S
H679 C658 0.931 . S
Gd680 C683 2.818 . S
Gd680 O700 2.377 . S
Gd680 O702 2.448 . S
Gd680 O703 2.506 . S
Gd680 O704 2.435 . S
Gd680 O705 2.717 . S
Gd680 O707 2.395 . S
Gd680 O711 2.327 . S
Gd681 C692 2.818 . S
Gd681 O701 2.395 . S
Gd681 O705 2.327 . S
Gd681 O706 2.377 . S
Gd681 O708 2.448 . S
Gd681 O709 2.506 . S
Gd681 O710 2.435 . S
Gd681 O711 2.717 . S
C682 O700 1.240 . S
C682 O701 1.240 . S
C683 Gd680 2.818 . S
C683 C684 1.510 . S
C683 O702 1.249 . S
C683 O703 1.252 . S
C684 C683 1.510 . S
C684 C685 1.404 . S
C684 C686 1.352 . S
C685 C684 1.404 . S
C685 C689 1.389 . S
C685 H712 0.930 . S
C686 C684 1.352 . S
C686 C688 1.374 . S
C686 H713 0.931 . S
C687 C688 1.359 . S
C687 C689 1.364 . S
C688 C686 1.374 . S
C688 C687 1.359 . S
C688 H714 0.931 . S
C689 C685 1.389 . S
C689 C687 1.364 . S
C689 H715 0.931 . S
C690 O704 1.256 . S
C690 O705 1.257 . S
C691 O706 1.240 . S
C691 O707 1.240 . S
C692 Gd681 2.818 . S
C692 C693 1.510 1_554 S
C692 O708 1.249 . S
C692 O709 1.252 . S
C693 C692 1.510 1_556 S
C693 C694 1.404 . S
C693 C695 1.352 . S
C694 C693 1.404 . S
C694 C698 1.389 . S
C694 H716 0.930 . S
C695 C693 1.352 . S
C695 C697 1.374 . S
C695 H717 0.931 . S
C696 C697 1.359 . S
C696 C698 1.364 . S
C697 C695 1.374 . S
C697 C696 1.359 . S
C697 H718 0.931 . S
C698 C694 1.389 . S
C698 C696 1.364 . S
C698 H719 0.931 . S
C699 O710 1.256 . S
C699 O711 1.257 . S
O700 Gd680 2.377 . S
O700 C682 1.240 . S
O701 Gd681 2.395 . S
O701 C682 1.240 . S
O702 Gd680 2.448 . S
O702 C683 1.249 . S
O703 Gd680 2.506 . S
O703 C683 1.252 . S
O704 Gd680 2.435 . S
O704 C690 1.256 . S
O705 Gd680 2.717 . S
O705 Gd681 2.327 . S
O705 C690 1.257 . S
O706 Gd681 2.377 . S
O706 C691 1.240 . S
O707 Gd680 2.395 . S
O707 C691 1.240 . S
O708 Gd681 2.448 . S
O708 C692 1.249 . S
O709 Gd681 2.506 . S
O709 C692 1.252 . S
O710 Gd681 2.435 . S
O710 C699 1.256 . S
O711 Gd680 2.327 . S
O711 Gd681 2.717 . S
O711 C699 1.257 . S
H712 C685 0.930 . S
H713 C686 0.931 . S
H714 C688 0.931 . S
H715 C689 0.931 . S
H716 C694 0.930 . S
H717 C695 0.931 . S
H718 C697 0.931 . S
H719 C698 0.931 . S
C720 C721 1.363 . S
C720 C726 1.379 . S
C720 N728 1.356 . S
C721 C720 1.363 . S
C721 C727 1.363 . S
C722 C723 1.363 . S
C722 C727 1.379 . S
C722 N729 1.356 . S
C723 C722 1.363 . S
C723 C726 1.363 . S
N724 C726 1.356 . S
N724 H736 0.984 . S
N724 H737 0.985 . S
N725 C727 1.356 . S
N725 H730 0.984 . S
N725 H731 0.985 . S
C726 C720 1.379 . S
C726 C723 1.363 . S
C726 N724 1.356 . S
C727 C721 1.363 . S
C727 C722 1.379 . S
C727 N725 1.356 . S
N728 C720 1.356 . S
N728 H734 0.984 . S
N728 H735 0.984 . S
N729 C722 1.356 . S
N729 H732 0.984 . S
N729 H733 0.985 . S
H730 N725 0.984 . S
H731 N725 0.985 . S
H732 N729 0.984 . S
H733 N729 0.985 . S
H734 N728 0.984 . S
H735 N728 0.984 . S
H736 N724 0.984 . S
H737 N724 0.985 . S
C738 C739 1.363 . S
C738 C744 1.379 . S
C738 N746 1.356 . S
C739 C738 1.363 . S
C739 C745 1.363 . S
C740 C741 1.363 . S
C740 C745 1.379 . S
C740 N747 1.356 . S
C741 C740 1.363 . S
C741 C744 1.363 . S
N742 C744 1.356 . S
N742 H754 0.984 . S
N742 H755 0.985 . S
N743 C745 1.356 . S
N743 H748 0.984 . S
N743 H749 0.985 . S
C744 C738 1.379 . S
C744 C741 1.363 . S
C744 N742 1.356 . S
C745 C739 1.363 . S
C745 C740 1.379 . S
C745 N743 1.356 . S
N746 C738 1.356 . S
N746 H752 0.984 . S
N746 H753 0.984 . S
N747 C740 1.356 . S
N747 H750 0.984 . S
N747 H751 0.985 . S
H748 N743 0.984 . S
H749 N743 0.985 . S
H750 N747 0.984 . S
H751 N747 0.985 . S
H752 N746 0.984 . S
H753 N746 0.984 . S
H754 N742 0.984 . S
H755 N742 0.985 . S
C756 C757 1.363 . S
C756 C762 1.379 . S
C756 N764 1.356 . S
C757 C756 1.363 . S
C757 C763 1.363 . S
C758 C759 1.363 . S
C758 C763 1.379 . S
C758 N765 1.356 . S
C759 C758 1.363 . S
C759 C762 1.363 . S
N760 C762 1.356 . S
N760 H772 0.984 . S
N760 H773 0.985 . S
N761 C763 1.356 . S
N761 H766 0.984 . S
N761 H767 0.985 . S
C762 C756 1.379 . S
C762 C759 1.363 . S
C762 N760 1.356 . S
C763 C757 1.363 . S
C763 C758 1.379 . S
C763 N761 1.356 . S
N764 C756 1.356 . S
N764 H770 0.984 . S
N764 H771 0.984 . S
N765 C758 1.356 . S
N765 H768 0.984 . S
N765 H769 0.985 . S
H766 N761 0.984 . S
H767 N761 0.985 . S
H768 N765 0.984 . S
H769 N765 0.985 . S
H770 N764 0.984 . S
H771 N764 0.984 . S
H772 N760 0.984 . S
H773 N760 0.985 . S
C774 C775 1.363 . S
C774 C780 1.379 . S
C774 N782 1.356 . S
C775 C774 1.363 . S
C775 C781 1.363 . S
C776 C777 1.363 . S
C776 C781 1.379 . S
C776 N783 1.356 . S
C777 C776 1.363 . S
C777 C780 1.363 . S
N778 C780 1.356 . S
N778 H790 0.984 . S
N778 H791 0.985 . S
N779 C781 1.356 . S
N779 H784 0.984 . S
N779 H785 0.985 . S
C780 C774 1.379 . S
C780 C777 1.363 . S
C780 N778 1.356 . S
C781 C775 1.363 . S
C781 C776 1.379 . S
C781 N779 1.356 . S
N782 C774 1.356 . S
N782 H788 0.984 . S
N782 H789 0.984 . S
N783 C776 1.356 . S
N783 H786 0.984 . S
N783 H787 0.985 . S
H784 N779 0.984 . S
H785 N779 0.985 . S
H786 N783 0.984 . S
H787 N783 0.985 . S
H788 N782 0.984 . S
H789 N782 0.984 . S
H790 N778 0.984 . S
H791 N778 0.985 . S
C792 C793 1.363 . S
C792 C798 1.379 . S
C792 N800 1.356 . S
C793 C792 1.363 . S
C793 C799 1.363 . S
C794 C795 1.363 . S
C794 C799 1.379 . S
C794 N801 1.356 . S
C795 C794 1.363 . S
C795 C798 1.363 . S
N796 C798 1.356 . S
N796 H808 0.984 . S
N796 H809 0.985 . S
N797 C799 1.356 . S
N797 H802 0.984 . S
N797 H803 0.985 . S
C798 C792 1.379 . S
C798 C795 1.363 . S
C798 N796 1.356 . S
C799 C793 1.363 . S
C799 C794 1.379 . S
C799 N797 1.356 . S
N800 C792 1.356 . S
N800 H806 0.984 . S
N800 H807 0.984 . S
N801 C794 1.356 . S
N801 H804 0.984 . S
N801 H805 0.985 . S
H802 N797 0.984 . S
H803 N797 0.985 . S
H804 N801 0.984 . S
H805 N801 0.985 . S
H806 N800 0.984 . S
H807 N800 0.984 . S
H808 N796 0.984 . S
H809 N796 0.985 . S
C810 C811 1.363 . S
C810 C816 1.379 . S
C810 N818 1.356 . S
C811 C810 1.363 . S
C811 C817 1.363 . S
C812 C813 1.363 . S
C812 C817 1.379 . S
C812 N819 1.356 . S
C813 C812 1.363 . S
C813 C816 1.363 . S
N814 C816 1.356 . S
N814 H826 0.984 . S
N814 H827 0.985 . S
N815 C817 1.356 . S
N815 H820 0.984 . S
N815 H821 0.985 . S
C816 C810 1.379 . S
C816 C813 1.363 . S
C816 N814 1.356 . S
C817 C811 1.363 . S
C817 C812 1.379 . S
C817 N815 1.356 . S
N818 C810 1.356 . S
N818 H824 0.984 . S
N818 H825 0.984 . S
N819 C812 1.356 . S
N819 H822 0.984 . S
N819 H823 0.985 . S
H820 N815 0.984 . S
H821 N815 0.985 . S
H822 N819 0.984 . S
H823 N819 0.985 . S
H824 N818 0.984 . S
H825 N818 0.984 . S
H826 N814 0.984 . S
H827 N814 0.985 . S
C828 C829 1.363 . S
C828 C834 1.379 . S
C828 N836 1.356 . S
C829 C828 1.363 . S
C829 C835 1.363 . S
C830 C831 1.363 . S
C830 C835 1.379 . S
C830 N837 1.356 . S
C831 C830 1.363 . S
C831 C834 1.363 . S
N832 C834 1.356 . S
N832 H844 0.984 . S
N832 H845 0.985 . S
N833 C835 1.356 . S
N833 H838 0.984 . S
N833 H839 0.985 . S
C834 C828 1.379 . S
C834 C831 1.363 . S
C834 N832 1.356 . S
C835 C829 1.363 . S
C835 C830 1.379 . S
C835 N833 1.356 . S
N836 C828 1.356 . S
N836 H842 0.984 . S
N836 H843 0.984 . S
N837 C830 1.356 . S
N837 H840 0.984 . S
N837 H841 0.985 . S
H838 N833 0.984 . S
H839 N833 0.985 . S
H840 N837 0.984 . S
H841 N837 0.985 . S
H842 N836 0.984 . S
H843 N836 0.984 . S
H844 N832 0.984 . S
H845 N832 0.985 . S
C846 C847 1.363 . S
C846 C852 1.379 . S
C846 N854 1.356 . S
C847 C846 1.363 . S
C847 C853 1.363 . S
C848 C849 1.363 . S
C848 C853 1.379 . S
C848 N855 1.356 . S
C849 C848 1.363 . S
C849 C852 1.363 . S
N850 C852 1.356 . S
N850 H862 0.984 . S
N850 H863 0.985 . S
N851 C853 1.356 . S
N851 H856 0.984 . S
N851 H857 0.985 . S
C852 C846 1.379 . S
C852 C849 1.363 . S
C852 N850 1.356 . S
C853 C847 1.363 . S
C853 C848 1.379 . S
C853 N851 1.356 . S
N854 C846 1.356 . S
N854 H860 0.984 . S
N854 H861 0.984 . S
N855 C848 1.356 . S
N855 H858 0.984 . S
N855 H859 0.985 . S
H856 N851 0.984 . S
H857 N851 0.985 . S
H858 N855 0.984 . S
H859 N855 0.985 . S
H860 N854 0.984 . S
H861 N854 0.984 . S
H862 N850 0.984 . S
H863 N850 0.985 . S
C864 C865 1.363 . S
C864 C870 1.379 . S
C864 N872 1.356 . S
C865 C864 1.363 . S
C865 C871 1.363 . S
C866 C867 1.363 . S
C866 C871 1.379 . S
C866 N873 1.356 . S
C867 C866 1.363 . S
C867 C870 1.363 . S
N868 C870 1.356 . S
N868 H880 0.984 . S
N868 H881 0.985 . S
N869 C871 1.356 . S
N869 H874 0.984 . S
N869 H875 0.985 . S
C870 C864 1.379 . S
C870 C867 1.363 . S
C870 N868 1.356 . S
C871 C865 1.363 . S
C871 C866 1.379 . S
C871 N869 1.356 . S
N872 C864 1.356 . S
N872 H878 0.984 . S
N872 H879 0.984 . S
N873 C866 1.356 . S
N873 H876 0.984 . S
N873 H877 0.985 . S
H874 N869 0.984 . S
H875 N869 0.985 . S
H876 N873 0.984 . S
H877 N873 0.985 . S
H878 N872 0.984 . S
H879 N872 0.984 . S
H880 N868 0.984 . S
H881 N868 0.985 . S
C882 C883 1.363 . S
C882 C888 1.379 . S
C882 N890 1.356 . S
C883 C882 1.363 . S
C883 C889 1.363 . S
C884 C885 1.363 . S
C884 C889 1.379 . S
C884 N891 1.356 . S
C885 C884 1.363 . S
C885 C888 1.363 . S
N886 C888 1.356 . S
N886 H898 0.984 . S
N886 H899 0.985 . S
N887 C889 1.356 . S
N887 H892 0.984 . S
N887 H893 0.985 . S
C888 C882 1.379 . S
C888 C885 1.363 . S
C888 N886 1.356 . S
C889 C883 1.363 . S
C889 C884 1.379 . S
C889 N887 1.356 . S
N890 C882 1.356 . S
N890 H896 0.984 . S
N890 H897 0.984 . S
N891 C884 1.356 . S
N891 H894 0.984 . S
N891 H895 0.985 1_565 S
H892 N887 0.984 . S
H893 N887 0.985 . S
H894 N891 0.984 . S
H895 N891 0.985 1_545 S
H896 N890 0.984 . S
H897 N890 0.984 . S
H898 N886 0.984 . S
H899 N886 0.985 . S
C900 C901 1.363 . S
C900 C906 1.379 . S
C900 N908 1.356 . S
C901 C900 1.363 . S
C901 C907 1.363 . S
C902 C903 1.363 . S
C902 C907 1.379 . S
C902 N909 1.356 . S
C903 C902 1.363 . S
C903 C906 1.363 . S
N904 C906 1.356 . S
N904 H916 0.984 . S
N904 H917 0.985 . S
N905 C907 1.356 . S
N905 H910 0.984 . S
N905 H911 0.985 . S
C906 C900 1.379 . S
C906 C903 1.363 . S
C906 N904 1.356 . S
C907 C901 1.363 . S
C907 C902 1.379 . S
C907 N905 1.356 . S
N908 C900 1.356 . S
N908 H914 0.984 . S
N908 H915 0.984 . S
N909 C902 1.356 . S
N909 H912 0.984 . S
N909 H913 0.985 . S
H910 N905 0.984 . S
H911 N905 0.985 . S
H912 N909 0.984 . S
H913 N909 0.985 . S
H914 N908 0.984 . S
H915 N908 0.984 . S
H916 N904 0.984 . S
H917 N904 0.985 . S
C918 C919 1.363 . S
C918 C924 1.379 . S
C918 N926 1.356 . S
C919 C918 1.363 . S
C919 C925 1.363 . S
C920 C921 1.363 . S
C920 C925 1.379 . S
C920 N927 1.356 . S
C921 C920 1.363 . S
C921 C924 1.363 . S
N922 C924 1.356 . S
N922 H934 0.984 . S
N922 H935 0.985 . S
N923 C925 1.356 . S
N923 H928 0.984 . S
N923 H929 0.985 . S
C924 C918 1.379 . S
C924 C921 1.363 . S
C924 N922 1.356 . S
C925 C919 1.363 . S
C925 C920 1.379 . S
C925 N923 1.356 . S
N926 C918 1.356 . S
N926 H932 0.984 . S
N926 H933 0.984 . S
N927 C920 1.356 . S
N927 H930 0.984 . S
N927 H931 0.985 . S
H928 N923 0.984 . S
H929 N923 0.985 . S
H930 N927 0.984 . S
H931 N927 0.985 . S
H932 N926 0.984 . S
H933 N926 0.984 . S
H934 N922 0.984 . S
H935 N922 0.985 . S
C936 C937 1.363 . S
C936 C942 1.379 1_556 S
C936 N944 1.356 . S
C937 C936 1.363 . S
C937 C943 1.363 1_655 S
C938 C939 1.363 . S
C938 C943 1.379 1_554 S
C938 N945 1.356 . S
C939 C938 1.363 . S
C939 C942 1.363 1_455 S
N940 C942 1.356 . S
N940 H952 0.984 . S
N940 H953 0.985 1_655 S
N941 C943 1.356 . S
N941 H946 0.984 1_455 S
N941 H947 0.985 . S
C942 C936 1.379 1_554 S
C942 C939 1.363 1_655 S
C942 N940 1.356 . S
C943 C937 1.363 1_455 S
C943 C938 1.379 1_556 S
C943 N941 1.356 . S
N944 C936 1.356 . S
N944 H950 0.984 . S
N944 H951 0.984 . S
N945 C938 1.356 . S
N945 H948 0.984 . S
N945 H949 0.985 . S
H946 N941 0.984 1_655 S
H947 N941 0.985 . S
H948 N945 0.984 . S
H949 N945 0.985 . S
H950 N944 0.984 . S
H951 N944 0.984 . S
H952 N940 0.984 . S
H953 N940 0.985 1_455 S
C954 C955 1.363 . S
C954 C960 1.379 1_556 S
C954 N962 1.356 . S
C955 C954 1.363 . S
C955 C961 1.363 . S
C956 C957 1.363 . S
C956 C961 1.379 1_554 S
C956 N963 1.356 . S
C957 C956 1.363 . S
C957 C960 1.363 . S
N958 C960 1.356 . S
N958 H970 0.984 . S
N958 H971 0.985 . S
N959 C961 1.356 . S
N959 H964 0.984 . S
N959 H965 0.985 . S
C960 C954 1.379 1_554 S
C960 C957 1.363 . S
C960 N958 1.356 . S
C961 C955 1.363 . S
C961 C956 1.379 1_556 S
C961 N959 1.356 . S
N962 C954 1.356 . S
N962 H968 0.984 . S
N962 H969 0.984 . S
N963 C956 1.356 . S
N963 H966 0.984 . S
N963 H967 0.985 . S
H964 N959 0.984 . S
H965 N959 0.985 . S
H966 N963 0.984 . S
H967 N963 0.985 . S
H968 N962 0.984 . S
H969 N962 0.984 . S
H970 N958 0.984 . S
H971 N958 0.985 . S
C972 C973 1.363 1_565 S
C972 C978 1.379 . S
C972 N980 1.356 . S
C973 C972 1.363 1_545 S
C973 C979 1.363 . S
C974 C975 1.363 1_545 S
C974 C979 1.379 1_554 S
C974 N981 1.356 . S
C975 C974 1.363 1_565 S
C975 C978 1.363 1_554 S
N976 C978 1.356 . S
N976 H988 0.984 . S
N976 H989 0.985 1_556 S
N977 C979 1.356 . S
N977 H982 0.984 . S
N977 H983 0.985 . S
C978 C972 1.379 . S
C978 C975 1.363 1_556 S
C978 N976 1.356 . S
C979 C973 1.363 . S
C979 C974 1.379 1_556 S
C979 N977 1.356 . S
N980 C972 1.356 . S
N980 H986 0.984 . S
N980 H987 0.984 . S
N981 C974 1.356 . S
N981 H984 0.984 . S
N981 H985 0.985 . S
H982 N977 0.984 . S
H983 N977 0.985 . S
H984 N981 0.984 . S
H985 N981 0.985 . S
H986 N980 0.984 . S
H987 N980 0.984 . S
H988 N976 0.984 . S
H989 N976 0.985 1_554 S
C990 C991 1.363 1_565 S
C990 C996 1.379 1_556 S
C990 N998 1.356 . S
C991 C990 1.363 1_545 S
C991 C997 1.363 1_556 S
C992 C993 1.363 1_545 S
C992 C997 1.379 . S
C992 N999 1.356 . S
C993 C992 1.363 1_565 S
C993 C996 1.363 . S
N994 C996 1.356 . S
N994 H1006 0.984 . S
N994 H1007 0.985 . S
N995 C997 1.356 1_556 S
N995 H1000 0.984 . S
N995 H1001 0.985 1_556 S
C996 C990 1.379 1_554 S
C996 C993 1.363 . S
C996 N994 1.356 . S
C997 C991 1.363 1_554 S
C997 C992 1.379 . S
C997 N995 1.356 1_554 S
N998 C990 1.356 . S
N998 H1004 0.984 . S
N998 H1005 0.984 . S
N999 C992 1.356 . S
N999 H1002 0.984 . S
N999 H1003 0.985 . S
H1000 N995 0.984 . S
H1001 N995 0.985 1_554 S
H1002 N999 0.984 . S
H1003 N999 0.985 . S
H1004 N998 0.984 . S
H1005 N998 0.984 . S
H1006 N994 0.984 . S
H1007 N994 0.985 . S
C1008 C1009 1.363 1_655 S
C1008 C1014 1.379 . S
C1008 N1016 1.356 . S
C1009 C1008 1.363 1_455 S
C1009 C1015 1.363 . S
C1010 C1011 1.363 1_455 S
C1010 C1015 1.379 1_556 S
C1010 N1017 1.356 . S
C1011 C1010 1.363 1_655 S
C1011 C1014 1.363 1_556 S
N1012 C1014 1.356 . S
N1012 H1024 0.984 . S
N1012 H1025 0.985 1_554 S
N1013 C1015 1.356 . S
N1013 H1018 0.984 . S
N1013 H1019 0.985 . S
C1014 C1008 1.379 . S
C1014 C1011 1.363 1_554 S
C1014 N1012 1.356 . S
C1015 C1009 1.363 . S
C1015 C1010 1.379 1_554 S
C1015 N1013 1.356 . S
N1016 C1008 1.356 . S
N1016 H1022 0.984 . S
N1016 H1023 0.984 1_655 S
N1017 C1010 1.356 . S
N1017 H1020 0.968 1_455 S
N1017 H1021 0.985 . S
H1018 N1013 0.984 . S
H1019 N1013 0.985 . S
H1020 N1017 0.968 1_655 S
H1021 N1017 0.985 . S
H1022 N1016 0.984 . S
H1023 N1016 0.984 1_455 S
H1024 N1012 0.984 . S
H1025 N1012 0.985 1_556 S
C1026 C1027 1.363 . S
C1026 C1032 1.379 1_554 S
C1026 N1034 1.356 . S
C1027 C1026 1.363 . S
C1027 C1033 1.363 . S
C1028 C1029 1.363 1_554 S
C1028 C1033 1.379 . S
C1028 N1035 1.356 1_554 S
C1029 C1028 1.363 1_556 S
C1029 C1032 1.363 . S
N1030 C1032 1.356 . S
N1030 H1042 0.984 . S
N1030 H1043 0.985 . S
N1031 C1033 1.356 . S
N1031 H1036 0.984 . S
N1031 H1037 0.985 . S
C1032 C1026 1.379 1_556 S
C1032 C1029 1.363 . S
C1032 N1030 1.356 . S
C1033 C1027 1.363 . S
C1033 C1028 1.379 . S
C1033 N1031 1.356 . S
N1034 C1026 1.356 . S
N1034 H1040 0.984 . S
N1034 H1041 0.984 . S
N1035 C1028 1.356 1_556 S
N1035 H1038 0.984 . S
N1035 H1039 0.985 1_556 S
H1036 N1031 0.984 . S
H1037 N1031 0.985 . S
H1038 N1035 0.984 . S
H1039 N1035 0.985 1_554 S
H1040 N1034 0.984 . S
H1041 N1034 0.984 . S
H1042 N1030 0.984 . S
H1043 N1030 0.985 . S
C1044 C1045 1.363 . S
C1044 C1050 1.379 . S
C1044 N1052 1.356 . S
C1045 C1044 1.363 . S
C1045 C1051 1.363 . S
C1046 C1047 1.363 . S
C1046 C1051 1.379 . S
C1046 N1053 1.356 . S
C1047 C1046 1.363 . S
C1047 C1050 1.363 . S
N1048 C1050 1.356 . S
N1048 H1060 0.984 . S
N1048 H1061 0.985 . S
N1049 C1051 1.356 . S
N1049 H1054 0.984 . S
N1049 H1055 0.985 . S
C1050 C1044 1.379 . S
C1050 C1047 1.363 . S
C1050 N1048 1.356 . S
C1051 C1045 1.363 . S
C1051 C1046 1.379 . S
C1051 N1049 1.356 . S
N1052 C1044 1.356 . S
N1052 H1058 0.984 . S
N1052 H1059 0.984 . S
N1053 C1046 1.356 . S
N1053 H1056 0.984 . S
N1053 H1057 0.985 . S
H1054 N1049 0.984 . S
H1055 N1049 0.985 . S
H1056 N1053 0.984 . S
H1057 N1053 0.985 . S
H1058 N1052 0.984 . S
H1059 N1052 0.984 . S
H1060 N1048 0.984 . S
H1061 N1048 0.985 . S
C1062 C1063 1.363 . S
C1062 C1068 1.379 . S
C1062 N1070 1.356 . S
C1063 C1062 1.363 . S
C1063 C1069 1.363 . S
C1064 C1065 1.363 . S
C1064 C1069 1.379 . S
C1064 N1071 1.356 . S
C1065 C1064 1.363 . S
C1065 C1068 1.363 . S
N1066 C1068 1.356 . S
N1066 H1078 0.984 . S
N1066 H1079 0.985 . S
N1067 C1069 1.356 . S
N1067 H1072 0.984 . S
N1067 H1073 0.985 . S
C1068 C1062 1.379 . S
C1068 C1065 1.363 . S
C1068 N1066 1.356 . S
C1069 C1063 1.363 . S
C1069 C1064 1.379 . S
C1069 N1067 1.356 . S
N1070 C1062 1.356 . S
N1070 H1076 0.984 . S
N1070 H1077 0.984 . S
N1071 C1064 1.356 . S
N1071 H1074 0.984 . S
N1071 H1075 0.985 . S
H1072 N1067 0.984 . S
H1073 N1067 0.985 . S
H1074 N1071 0.984 . S
H1075 N1071 0.985 . S
H1076 N1070 0.984 . S
H1077 N1070 0.984 . S
H1078 N1066 0.984 . S
H1079 N1066 0.985 . S
C1080 C1081 1.363 . S
C1080 C1086 1.379 . S
C1080 N1088 1.356 . S
C1081 C1080 1.363 . S
C1081 C1087 1.363 . S
C1082 C1083 1.363 . S
C1082 C1087 1.379 . S
C1082 N1089 1.356 . S
C1083 C1082 1.363 . S
C1083 C1086 1.363 . S
N1084 C1086 1.356 . S
N1084 H1096 0.984 . S
N1084 H1097 0.985 . S
N1085 C1087 1.356 . S
N1085 H1090 0.984 . S
N1085 H1091 0.985 . S
C1086 C1080 1.379 . S
C1086 C1083 1.363 . S
C1086 N1084 1.356 . S
C1087 C1081 1.363 . S
C1087 C1082 1.379 . S
C1087 N1085 1.356 . S
N1088 C1080 1.356 . S
N1088 H1094 0.984 . S
N1088 H1095 0.984 . S
N1089 C1082 1.356 . S
N1089 H1092 0.984 . S
N1089 H1093 0.985 . S
H1090 N1085 0.984 . S
H1091 N1085 0.985 . S
H1092 N1089 0.984 . S
H1093 N1089 0.985 . S
H1094 N1088 0.984 . S
H1095 N1088 0.984 . S
H1096 N1084 0.984 . S
H1097 N1084 0.985 . S
C1098 C1099 1.363 . S
C1098 C1104 1.379 . S
C1098 N1106 1.356 . S
C1099 C1098 1.363 . S
C1099 C1105 1.363 . S
C1100 C1101 1.363 . S
C1100 C1105 1.379 . S
C1100 N1107 1.356 . S
C1101 C1100 1.363 . S
C1101 C1104 1.363 . S
N1102 C1104 1.356 . S
N1102 H1114 0.984 . S
N1102 H1115 0.985 . S
N1103 C1105 1.356 . S
N1103 H1108 0.984 . S
N1103 H1109 0.985 . S
C1104 C1098 1.379 . S
C1104 C1101 1.363 . S
C1104 N1102 1.356 . S
C1105 C1099 1.363 . S
C1105 C1100 1.379 . S
C1105 N1103 1.356 . S
N1106 C1098 1.356 . S
N1106 H1112 0.984 . S
N1106 H1113 0.984 . S
N1107 C1100 1.356 . S
N1107 H1110 0.984 . S
N1107 H1111 0.985 . S
H1108 N1103 0.984 . S
H1109 N1103 0.985 . S
H1110 N1107 0.984 . S
H1111 N1107 0.985 . S
H1112 N1106 0.984 . S
H1113 N1106 0.984 . S
H1114 N1102 0.984 . S
H1115 N1102 0.985 . S
C1116 C1117 1.363 . S
C1116 C1122 1.379 . S
C1116 N1124 1.356 . S
C1117 C1116 1.363 . S
C1117 C1123 1.363 . S
C1118 C1119 1.363 . S
C1118 C1123 1.379 . S
C1118 N1125 1.356 . S
C1119 C1118 1.363 . S
C1119 C1122 1.363 . S
N1120 C1122 1.356 . S
N1120 H1132 0.984 . S
N1120 H1133 0.985 . S
N1121 C1123 1.356 . S
N1121 H1126 0.984 . S
N1121 H1127 0.985 . S
C1122 C1116 1.379 . S
C1122 C1119 1.363 . S
C1122 N1120 1.356 . S
C1123 C1117 1.363 . S
C1123 C1118 1.379 . S
C1123 N1121 1.356 . S
N1124 C1116 1.356 . S
N1124 H1130 0.984 . S
N1124 H1131 0.984 . S
N1125 C1118 1.356 . S
N1125 H1128 0.984 . S
N1125 H1129 0.985 . S
H1126 N1121 0.984 . S
H1127 N1121 0.985 . S
H1128 N1125 0.984 . S
H1129 N1125 0.985 . S
H1130 N1124 0.984 . S
H1131 N1124 0.984 . S
H1132 N1120 0.984 . S
H1133 N1120 0.985 . S
C1134 C1135 1.363 . S
C1134 C1140 1.379 . S
C1134 N1142 1.356 . S
C1135 C1134 1.363 . S
C1135 C1141 1.363 . S
C1136 C1137 1.363 . S
C1136 C1141 1.379 . S
C1136 N1143 1.356 . S
C1137 C1136 1.363 . S
C1137 C1140 1.363 . S
N1138 C1140 1.356 . S
N1138 H1150 0.984 . S
N1138 H1151 0.985 . S
N1139 C1141 1.356 . S
N1139 H1144 0.984 . S
N1139 H1145 0.985 . S
C1140 C1134 1.379 . S
C1140 C1137 1.363 . S
C1140 N1138 1.356 . S
C1141 C1135 1.363 . S
C1141 C1136 1.379 . S
C1141 N1139 1.356 . S
N1142 C1134 1.356 . S
N1142 H1148 0.984 . S
N1142 H1149 0.984 . S
N1143 C1136 1.356 . S
N1143 H1146 0.984 . S
N1143 H1147 0.985 . S
H1144 N1139 0.984 . S
H1145 N1139 0.985 . S
H1146 N1143 0.984 . S
H1147 N1143 0.985 . S
H1148 N1142 0.984 . S
H1149 N1142 0.984 . S
H1150 N1138 0.984 . S
H1151 N1138 0.985 . S
C1152 C1153 1.363 . S
C1152 C1158 1.379 . S
C1152 N1160 1.356 . S
C1153 C1152 1.363 . S
C1153 C1159 1.363 . S
C1154 C1155 1.363 . S
C1154 C1159 1.379 . S
C1154 N1161 1.356 . S
C1155 C1154 1.363 . S
C1155 C1158 1.363 . S
N1156 C1158 1.356 . S
N1156 H1168 0.984 . S
N1156 H1169 0.985 . S
N1157 C1159 1.356 . S
N1157 H1162 0.984 . S
N1157 H1163 0.985 . S
C1158 C1152 1.379 . S
C1158 C1155 1.363 . S
C1158 N1156 1.356 . S
C1159 C1153 1.363 . S
C1159 C1154 1.379 . S
C1159 N1157 1.356 . S
N1160 C1152 1.356 . S
N1160 H1166 0.984 . S
N1160 H1167 0.984 . S
N1161 C1154 1.356 . S
N1161 H1164 0.984 . S
N1161 H1165 0.985 . S
H1162 N1157 0.984 . S
H1163 N1157 0.985 . S
H1164 N1161 0.984 . S
H1165 N1161 0.985 . S
H1166 N1160 0.984 . S
H1167 N1160 0.984 . S
H1168 N1156 0.984 . S
H1169 N1156 0.985 . S
C1170 C1171 1.363 . S
C1170 C1176 1.379 . S
C1170 N1178 1.356 . S
C1171 C1170 1.363 . S
C1171 C1177 1.363 . S
C1172 C1173 1.363 . S
C1172 C1177 1.379 . S
C1172 N1179 1.356 . S
C1173 C1172 1.363 . S
C1173 C1176 1.363 . S
N1174 C1176 1.356 . S
N1174 H1186 0.984 . S
N1174 H1187 0.985 . S
N1175 C1177 1.356 . S
N1175 H1180 0.984 . S
N1175 H1181 0.985 . S
C1176 C1170 1.379 . S
C1176 C1173 1.363 . S
C1176 N1174 1.356 . S
C1177 C1171 1.363 . S
C1177 C1172 1.379 . S
C1177 N1175 1.356 . S
N1178 C1170 1.356 . S
N1178 H1184 0.984 . S
N1178 H1185 0.984 . S
N1179 C1172 1.356 . S
N1179 H1182 0.984 . S
N1179 H1183 0.985 . S
H1180 N1175 0.984 . S
H1181 N1175 0.985 . S
H1182 N1179 0.984 . S
H1183 N1179 0.985 . S
H1184 N1178 0.984 . S
H1185 N1178 0.984 . S
H1186 N1174 0.984 . S
H1187 N1174 0.985 . S
C1188 C1189 1.363 . S
C1188 C1194 1.379 . S
C1188 N1196 1.356 . S
C1189 C1188 1.363 . S
C1189 C1195 1.363 . S
C1190 C1191 1.363 . S
C1190 C1195 1.379 . S
C1190 N1197 1.356 . S
C1191 C1190 1.363 . S
C1191 C1194 1.363 . S
N1192 C1194 1.356 . S
N1192 H1204 0.984 . S
N1192 H1205 0.985 . S
N1193 C1195 1.356 . S
N1193 H1198 0.984 . S
N1193 H1199 0.985 . S
C1194 C1188 1.379 . S
C1194 C1191 1.363 . S
C1194 N1192 1.356 . S
C1195 C1189 1.363 . S
C1195 C1190 1.379 . S
C1195 N1193 1.356 . S
N1196 C1188 1.356 . S
N1196 H1202 0.984 . S
N1196 H1203 0.984 . S
N1197 C1190 1.356 . S
N1197 H1200 0.984 . S
N1197 H1201 0.985 . S
H1198 N1193 0.984 . S
H1199 N1193 0.985 . S
H1200 N1197 0.984 . S
H1201 N1197 0.985 . S
H1202 N1196 0.984 . S
H1203 N1196 0.984 . S
H1204 N1192 0.984 . S
H1205 N1192 0.985 . S
C1206 C1207 1.363 . S
C1206 C1212 1.379 . S
C1206 N1214 1.356 . S
C1207 C1206 1.363 . S
C1207 C1213 1.363 . S
C1208 C1209 1.363 . S
C1208 C1213 1.379 . S
C1208 N1215 1.356 . S
C1209 C1208 1.363 . S
C1209 C1212 1.363 . S
N1210 C1212 1.356 . S
N1210 H1222 0.984 . S
N1210 H1223 0.985 . S
N1211 C1213 1.356 . S
N1211 H1216 0.984 . S
N1211 H1217 0.985 . S
C1212 C1206 1.379 . S
C1212 C1209 1.363 . S
C1212 N1210 1.356 . S
C1213 C1207 1.363 . S
C1213 C1208 1.379 . S
C1213 N1211 1.356 . S
N1214 C1206 1.356 . S
N1214 H1220 0.984 . S
N1214 H1221 0.984 . S
N1215 C1208 1.356 . S
N1215 H1218 0.984 . S
N1215 H1219 0.985 . S
H1216 N1211 0.984 . S
H1217 N1211 0.985 . S
H1218 N1215 0.984 . S
H1219 N1215 0.985 . S
H1220 N1214 0.984 . S
H1221 N1214 0.984 . S
H1222 N1210 0.984 . S
H1223 N1210 0.985 . S
C1224 C1225 1.363 . S
C1224 C1230 1.379 . S
C1224 N1232 1.356 . S
C1225 C1224 1.363 . S
C1225 C1231 1.363 . S
C1226 C1227 1.363 . S
C1226 C1231 1.379 . S
C1226 N1233 1.356 . S
C1227 C1226 1.363 . S
C1227 C1230 1.363 . S
N1228 C1230 1.356 . S
N1228 H1240 0.984 . S
N1228 H1241 0.985 . S
N1229 C1231 1.356 . S
N1229 H1234 0.984 . S
N1229 H1235 0.985 . S
C1230 C1224 1.379 . S
C1230 C1227 1.363 . S
C1230 N1228 1.356 . S
C1231 C1225 1.363 . S
C1231 C1226 1.379 . S
C1231 N1229 1.356 . S
N1232 C1224 1.356 . S
N1232 H1238 0.984 . S
N1232 H1239 0.984 . S
N1233 C1226 1.356 . S
N1233 H1236 0.984 . S
N1233 H1237 0.985 . S
H1234 N1229 0.984 . S
H1235 N1229 0.985 . S
H1236 N1233 0.984 . S
H1237 N1233 0.985 . S
H1238 N1232 0.984 . S
H1239 N1232 0.984 . S
H1240 N1228 0.984 . S
H1241 N1228 0.985 . S
C1242 C1243 1.363 . S
C1242 C1248 1.379 . S
C1242 N1250 1.356 . S
C1243 C1242 1.363 . S
C1243 C1249 1.363 . S
C1244 C1245 1.363 . S
C1244 C1249 1.379 . S
C1244 N1251 1.356 . S
C1245 C1244 1.363 . S
C1245 C1248 1.363 . S
N1246 C1248 1.356 . S
N1246 H1258 0.984 . S
N1246 H1259 0.985 . S
N1247 C1249 1.356 . S
N1247 H1252 0.984 . S
N1247 H1253 0.985 . S
C1248 C1242 1.379 . S
C1248 C1245 1.363 . S
C1248 N1246 1.356 . S
C1249 C1243 1.363 . S
C1249 C1244 1.379 . S
C1249 N1247 1.356 . S
N1250 C1242 1.356 . S
N1250 H1256 0.984 . S
N1250 H1257 0.984 . S
N1251 C1244 1.356 . S
N1251 H1254 0.984 . S
N1251 H1255 0.985 . S
H1252 N1247 0.984 . S
H1253 N1247 0.985 . S
H1254 N1251 0.984 . S
H1255 N1251 0.985 . S
H1256 N1250 0.984 . S
H1257 N1250 0.984 . S
H1258 N1246 0.984 . S
H1259 N1246 0.985 . S
C1260 C1261 1.363 . S
C1260 C1266 1.379 . S
C1260 N1268 1.356 . S
C1261 C1260 1.363 . S
C1261 C1267 1.363 . S
C1262 C1263 1.363 . S
C1262 C1267 1.379 . S
C1262 N1269 1.356 . S
C1263 C1262 1.363 . S
C1263 C1266 1.363 . S
N1264 C1266 1.356 . S
N1264 H1276 0.984 . S
N1264 H1277 0.985 . S
N1265 C1267 1.356 . S
N1265 H1270 0.984 . S
N1265 H1271 0.985 . S
C1266 C1260 1.379 . S
C1266 C1263 1.363 . S
C1266 N1264 1.356 . S
C1267 C1261 1.363 . S
C1267 C1262 1.379 . S
C1267 N1265 1.356 . S
N1268 C1260 1.356 . S
N1268 H1274 0.984 . S
N1268 H1275 0.984 . S
N1269 C1262 1.356 . S
N1269 H1272 0.984 . S
N1269 H1273 0.985 . S
H1270 N1265 0.984 . S
H1271 N1265 0.985 . S
H1272 N1269 0.984 . S
H1273 N1269 0.985 . S
H1274 N1268 0.984 . S
H1275 N1268 0.984 . S
H1276 N1264 0.984 . S
H1277 N1264 0.985 . S
C1278 C1279 1.363 . S
C1278 C1284 1.379 . S
C1278 N1286 1.356 . S
C1279 C1278 1.363 . S
C1279 C1285 1.363 . S
C1280 C1281 1.363 . S
C1280 C1285 1.379 . S
C1280 N1287 1.356 . S
C1281 C1280 1.363 . S
C1281 C1284 1.363 . S
N1282 C1284 1.356 . S
N1282 H1294 0.984 . S
N1282 H1295 0.985 . S
N1283 C1285 1.356 . S
N1283 H1288 0.984 . S
N1283 H1289 0.985 1_554 S
C1284 C1278 1.379 . S
C1284 C1281 1.363 . S
C1284 N1282 1.356 . S
C1285 C1279 1.363 . S
C1285 C1280 1.379 . S
C1285 N1283 1.356 . S
N1286 C1278 1.356 . S
N1286 H1292 0.984 . S
N1286 H1293 0.984 . S
N1287 C1280 1.356 . S
N1287 H1290 0.984 . S
N1287 H1291 0.985 1_554 S
H1288 N1283 0.984 . S
H1289 N1283 0.985 1_556 S
H1290 N1287 0.984 . S
H1291 N1287 0.985 1_556 S
H1292 N1286 0.984 . S
H1293 N1286 0.984 . S
H1294 N1282 0.984 . S
H1295 N1282 0.985 . S
C1296 C1297 1.363 . S
C1296 C1302 1.379 . S
C1296 N1304 1.356 . S
C1297 C1296 1.363 . S
C1297 C1303 1.363 . S
C1298 C1299 1.363 . S
C1298 C1303 1.379 . S
C1298 N1305 1.356 . S
C1299 C1298 1.363 . S
C1299 C1302 1.363 . S
N1300 C1302 1.356 . S
N1300 H1312 0.984 . S
N1300 H1313 0.985 . S
N1301 C1303 1.356 . S
N1301 H1306 0.984 . S
N1301 H1307 0.985 . S
C1302 C1296 1.379 . S
C1302 C1299 1.363 . S
C1302 N1300 1.356 . S
C1303 C1297 1.363 . S
C1303 C1298 1.379 . S
C1303 N1301 1.356 . S
N1304 C1296 1.356 . S
N1304 H1310 0.984 . S
N1304 H1311 0.984 . S
N1305 C1298 1.356 . S
N1305 H1308 0.984 . S
N1305 H1309 0.985 . S
H1306 N1301 0.984 . S
H1307 N1301 0.985 . S
H1308 N1305 0.984 . S
H1309 N1305 0.985 . S
H1310 N1304 0.984 . S
H1311 N1304 0.984 . S
H1312 N1300 0.984 . S
H1313 N1300 0.985 . S
C1314 C1315 1.363 . S
C1314 C1320 1.379 . S
C1314 N1322 1.356 . S
C1315 C1314 1.363 . S
C1315 C1321 1.363 . S
C1316 C1317 1.363 . S
C1316 C1321 1.379 . S
C1316 N1323 1.356 . S
C1317 C1316 1.363 . S
C1317 C1320 1.363 . S
N1318 C1320 1.356 . S
N1318 H1330 0.984 . S
N1318 H1331 0.985 . S
N1319 C1321 1.356 . S
N1319 H1324 0.984 . S
N1319 H1325 0.985 . S
C1320 C1314 1.379 . S
C1320 C1317 1.363 . S
C1320 N1318 1.356 . S
C1321 C1315 1.363 . S
C1321 C1316 1.379 . S
C1321 N1319 1.356 . S
N1322 C1314 1.356 . S
N1322 H1328 0.984 . S
N1322 H1329 0.984 . S
N1323 C1316 1.356 . S
N1323 H1326 0.984 . S
N1323 H1327 0.985 . S
H1324 N1319 0.984 . S
H1325 N1319 0.985 . S
H1326 N1323 0.984 . S
H1327 N1323 0.985 . S
H1328 N1322 0.984 . S
H1329 N1322 0.984 . S
H1330 N1318 0.984 . S
H1331 N1318 0.985 . S
C1332 C1333 1.363 . S
C1332 C1338 1.379 . S
C1332 N1340 1.356 . S
C1333 C1332 1.363 . S
C1333 C1339 1.363 . S
C1334 C1335 1.363 . S
C1334 C1339 1.379 . S
C1334 N1341 1.356 . S
C1335 C1334 1.363 . S
C1335 C1338 1.363 . S
N1336 C1338 1.356 . S
N1336 H1348 0.984 . S
N1336 H1349 0.985 . S
N1337 C1339 1.356 . S
N1337 H1342 0.984 . S
N1337 H1343 0.985 . S
C1338 C1332 1.379 . S
C1338 C1335 1.363 . S
C1338 N1336 1.356 . S
C1339 C1333 1.363 . S
C1339 C1334 1.379 . S
C1339 N1337 1.356 . S
N1340 C1332 1.356 . S
N1340 H1346 0.984 . S
N1340 H1347 0.984 . S
N1341 C1334 1.356 . S
N1341 H1344 0.984 . S
N1341 H1345 0.985 . S
H1342 N1337 0.984 . S
H1343 N1337 0.985 . S
H1344 N1341 0.984 . S
H1345 N1341 0.985 . S
H1346 N1340 0.984 . S
H1347 N1340 0.984 . S
H1348 N1336 0.984 . S
H1349 N1336 0.985 . S
C1350 C1351 1.363 . S
C1350 C1356 1.379 . S
C1350 N1358 1.356 . S
C1351 C1350 1.363 . S
C1351 C1357 1.363 . S
C1352 C1353 1.363 . S
C1352 C1357 1.379 . S
C1352 N1359 1.356 . S
C1353 C1352 1.363 . S
C1353 C1356 1.363 . S
N1354 C1356 1.356 . S
N1354 H1366 0.984 . S
N1354 H1367 0.985 . S
N1355 C1357 1.356 . S
N1355 H1360 0.984 . S
N1355 H1361 0.985 . S
C1356 C1350 1.379 . S
C1356 C1353 1.363 . S
C1356 N1354 1.356 . S
C1357 C1351 1.363 . S
C1357 C1352 1.379 . S
C1357 N1355 1.356 . S
N1358 C1350 1.356 . S
N1358 H1364 0.984 . S
N1358 H1365 0.984 . S
N1359 C1352 1.356 . S
N1359 H1362 0.984 . S
N1359 H1363 0.985 . S
H1360 N1355 0.984 . S
H1361 N1355 0.985 . S
H1362 N1359 0.984 . S
H1363 N1359 0.985 . S
H1364 N1358 0.984 . S
H1365 N1358 0.984 . S
H1366 N1354 0.984 . S
H1367 N1354 0.985 . S
C1368 C1369 1.363 . S
C1368 C1374 1.379 . S
C1368 N1376 1.356 . S
C1369 C1368 1.363 . S
C1369 C1375 1.363 1_455 S
C1370 C1371 1.363 1_655 S
C1370 C1375 1.379 1_556 S
C1370 N1377 1.356 . S
C1371 C1370 1.363 1_455 S
C1371 C1374 1.363 1_556 S
N1372 C1374 1.356 1_556 S
N1372 H1384 0.984 . S
N1372 H1385 0.985 . S
N1373 C1375 1.356 . S
N1373 H1378 0.984 . S
N1373 H1379 0.985 . S
C1374 C1368 1.379 . S
C1374 C1371 1.363 1_554 S
C1374 N1372 1.356 1_554 S
C1375 C1369 1.363 1_655 S
C1375 C1370 1.379 1_554 S
C1375 N1373 1.356 . S
N1376 C1368 1.356 . S
N1376 H1382 0.984 . S
N1376 H1383 0.984 . S
N1377 C1370 1.356 . S
N1377 H1380 0.984 . S
N1377 H1381 0.985 . S
H1378 N1373 0.984 . S
H1379 N1373 0.985 . S
H1380 N1377 0.984 . S
H1381 N1377 0.985 . S
H1382 N1376 0.984 . S
H1383 N1376 0.984 . S
H1384 N1372 0.984 . S
H1385 N1372 0.985 . S
C1386 C1387 1.363 . S
C1386 C1392 1.379 1_554 S
C1386 N1394 1.356 . S
C1387 C1386 1.363 . S
C1387 C1393 1.363 . S
C1388 C1389 1.363 . S
C1388 C1393 1.379 1_556 S
C1388 N1395 1.356 . S
C1389 C1388 1.363 . S
C1389 C1392 1.363 . S
N1390 C1392 1.356 . S
N1390 H1402 0.984 . S
N1390 H1403 0.985 . S
N1391 C1393 1.356 . S
N1391 H1396 0.984 . S
N1391 H1397 0.985 . S
C1392 C1386 1.379 1_556 S
C1392 C1389 1.363 . S
C1392 N1390 1.356 . S
C1393 C1387 1.363 . S
C1393 C1388 1.379 1_554 S
C1393 N1391 1.356 . S
N1394 C1386 1.356 . S
N1394 H1400 0.984 . S
N1394 H1401 0.984 . S
N1395 C1388 1.356 . S
N1395 H1398 0.984 . S
N1395 H1399 0.985 . S
H1396 N1391 0.984 . S
H1397 N1391 0.985 . S
H1398 N1395 0.984 . S
H1399 N1395 0.985 . S
H1400 N1394 0.984 . S
H1401 N1394 0.984 . S
H1402 N1390 0.984 . S
H1403 N1390 0.985 . S
C1404 C1405 1.363 1_556 S
C1404 C1410 1.379 . S
C1404 N1412 1.356 1_556 S
C1405 C1404 1.363 1_554 S
C1405 C1411 1.363 1_565 S
C1406 C1407 1.363 . S
C1406 C1411 1.379 1_556 S
C1406 N1413 1.356 . S
C1407 C1406 1.363 . S
C1407 C1410 1.363 1_545 S
N1408 C1410 1.356 . S
N1408 H1420 0.984 . S
N1408 H1421 0.985 1_565 S
N1409 C1411 1.356 . S
N1409 H1414 0.984 1_545 S
N1409 H1415 0.985 . S
C1410 C1404 1.379 . S
C1410 C1407 1.363 1_565 S
C1410 N1408 1.356 . S
C1411 C1405 1.363 1_545 S
C1411 C1406 1.379 1_554 S
C1411 N1409 1.356 . S
N1412 C1404 1.356 1_554 S
N1412 H1418 0.984 1_554 S
N1412 H1419 0.984 . S
N1413 C1406 1.356 . S
N1413 H1416 0.984 . S
N1413 H1417 0.985 1_556 S
H1414 N1409 0.984 1_565 S
H1415 N1409 0.985 . S
H1416 N1413 0.984 . S
H1417 N1413 0.985 1_554 S
H1418 N1412 0.984 1_556 S
H1419 N1412 0.984 . S
H1420 N1408 0.984 . S
H1421 N1408 0.985 1_545 S
C1422 C1423 1.363 1_655 S
C1422 C1428 1.379 1_556 S
C1422 N1430 1.356 . S
C1423 C1422 1.363 1_455 S
C1423 C1429 1.363 1_556 S
C1424 C1425 1.363 . S
C1424 C1429 1.379 . S
C1424 N1431 1.356 . S
C1425 C1424 1.363 . S
C1425 C1428 1.363 1_455 S
N1426 C1428 1.356 . S
N1426 H1438 0.984 . S
N1426 H1439 0.985 . S
N1427 C1429 1.356 1_556 S
N1427 H1432 0.984 . S
N1427 H1433 0.985 1_556 S
C1428 C1422 1.379 1_554 S
C1428 C1425 1.363 1_655 S
C1428 N1426 1.356 . S
C1429 C1423 1.363 1_554 S
C1429 C1424 1.379 . S
C1429 N1427 1.356 1_554 S
N1430 C1422 1.356 . S
N1430 H1436 0.984 . S
N1430 H1437 0.984 . S
N1431 C1424 1.356 . S
N1431 H1434 0.984 . S
N1431 H1435 0.985 . S
H1432 N1427 0.984 . S
H1433 N1427 0.985 1_554 S
H1434 N1431 0.984 . S
H1435 N1431 0.985 . S
H1436 N1430 0.984 . S
H1437 N1430 0.984 . S
H1438 N1426 0.984 . S
H1439 N1426 0.985 . S
C1440 C1441 1.363 . S
C1440 C1446 1.379 . S
C1440 N1448 1.356 . S
C1441 C1440 1.363 . S
C1441 C1447 1.363 . S
C1442 C1443 1.363 1_554 S
C1442 C1447 1.379 . S
C1442 N1449 1.356 1_554 S
C1443 C1442 1.363 1_556 S
C1443 C1446 1.363 1_556 S
N1444 C1446 1.356 1_556 S
N1444 H1456 0.984 . S
N1444 H1457 0.985 . S
N1445 C1447 1.356 . S
N1445 H1450 0.984 . S
N1445 H1451 0.985 . S
C1446 C1440 1.379 . S
C1446 C1443 1.363 1_554 S
C1446 N1444 1.356 1_554 S
C1447 C1441 1.363 . S
C1447 C1442 1.379 . S
C1447 N1445 1.356 . S
N1448 C1440 1.356 . S
N1448 H1454 0.984 . S
N1448 H1455 0.984 . S
N1449 C1442 1.356 1_556 S
N1449 H1452 0.984 . S
N1449 H1453 0.985 . S
H1450 N1445 0.984 . S
H1451 N1445 0.985 . S
H1452 N1449 0.984 . S
H1453 N1449 0.985 . S
H1454 N1448 0.984 . S
H1455 N1448 0.984 . S
H1456 N1444 0.984 . S
H1457 N1444 0.985 . S
C1458 C1459 1.363 . S
C1458 C1464 1.379 1_554 S
C1458 N1466 1.356 . S
C1459 C1458 1.363 . S
C1459 C1465 1.363 1_565 S
C1460 C1461 1.363 1_554 S
C1460 C1465 1.379 . S
C1460 N1467 1.356 . S
C1461 C1460 1.363 1_556 S
C1461 C1464 1.363 1_545 S
N1462 C1464 1.356 . S
N1462 H1474 0.984 . S
N1462 H1475 0.985 . S
N1463 C1465 1.356 . S
N1463 H1468 0.984 . S
N1463 H1469 0.985 . S
C1464 C1458 1.379 1_556 S
C1464 C1461 1.363 1_565 S
C1464 N1462 1.356 . S
C1465 C1459 1.363 1_545 S
C1465 C1460 1.379 . S
C1465 N1463 1.356 . S
N1466 C1458 1.356 . S
N1466 H1472 0.984 1_554 S
N1466 H1473 0.984 . S
N1467 C1460 1.356 . S
N1467 H1470 0.984 1_554 S
N1467 H1471 0.985 . S
H1468 N1463 0.984 . S
H1469 N1463 0.985 . S
H1470 N1467 0.984 1_556 S
H1471 N1467 0.985 . S
H1472 N1466 0.984 1_556 S
H1473 N1466 0.984 . S
H1474 N1462 0.984 . S
H1475 N1462 0.985 . S
C1476 C1477 1.363 . S
C1476 C1482 1.379 . S
C1476 N1484 1.356 . S
C1477 C1476 1.363 . S
C1477 C1483 1.363 . S
C1478 C1479 1.363 . S
C1478 C1483 1.379 . S
C1478 N1485 1.356 . S
C1479 C1478 1.363 . S
C1479 C1482 1.363 . S
N1480 C1482 1.356 . S
N1480 H1492 0.984 . S
N1480 H1493 0.985 . S
N1481 C1483 1.356 . S
N1481 H1486 0.984 . S
N1481 H1487 0.985 . S
C1482 C1476 1.379 . S
C1482 C1479 1.363 . S
C1482 N1480 1.356 . S
C1483 C1477 1.363 . S
C1483 C1478 1.379 . S
C1483 N1481 1.356 . S
N1484 C1476 1.356 . S
N1484 H1490 0.984 . S
N1484 H1491 0.984 . S
N1485 C1478 1.356 . S
N1485 H1488 0.984 . S
N1485 H1489 0.985 . S
H1486 N1481 0.984 . S
H1487 N1481 0.985 . S
H1488 N1485 0.984 . S
H1489 N1485 0.985 . S
H1490 N1484 0.984 . S
H1491 N1484 0.984 . S
H1492 N1480 0.984 . S
H1493 N1480 0.985 . S
C1494 C1495 1.363 . S
C1494 C1500 1.379 . S
C1494 N1502 1.356 . S
C1495 C1494 1.363 . S
C1495 C1501 1.363 . S
C1496 C1497 1.363 . S
C1496 C1501 1.379 . S
C1496 N1503 1.356 . S
C1497 C1496 1.363 . S
C1497 C1500 1.363 . S
N1498 C1500 1.356 . S
N1498 H1510 0.984 . S
N1498 H1511 0.985 . S
N1499 C1501 1.356 . S
N1499 H1504 0.984 . S
N1499 H1505 0.985 . S
C1500 C1494 1.379 . S
C1500 C1497 1.363 . S
C1500 N1498 1.356 . S
C1501 C1495 1.363 . S
C1501 C1496 1.379 . S
C1501 N1499 1.356 . S
N1502 C1494 1.356 . S
N1502 H1508 0.984 . S
N1502 H1509 0.984 . S
N1503 C1496 1.356 . S
N1503 H1506 0.984 . S
N1503 H1507 0.985 . S
H1504 N1499 0.984 . S
H1505 N1499 0.985 . S
H1506 N1503 0.984 . S
H1507 N1503 0.985 . S
H1508 N1502 0.984 . S
H1509 N1502 0.984 . S
H1510 N1498 0.984 . S
H1511 N1498 0.985 . S
C1512 C1513 1.363 . S
C1512 C1518 1.379 . S
C1512 N1520 1.356 . S
C1513 C1512 1.363 . S
C1513 C1519 1.363 . S
C1514 C1515 1.363 . S
C1514 C1519 1.379 . S
C1514 N1521 1.356 . S
C1515 C1514 1.363 . S
C1515 C1518 1.363 . S
N1516 C1518 1.356 . S
N1516 H1528 0.984 . S
N1516 H1529 0.985 . S
N1517 C1519 1.356 . S
N1517 H1522 0.984 . S
N1517 H1523 0.985 . S
C1518 C1512 1.379 . S
C1518 C1515 1.363 . S
C1518 N1516 1.356 . S
C1519 C1513 1.363 . S
C1519 C1514 1.379 . S
C1519 N1517 1.356 . S
N1520 C1512 1.356 . S
N1520 H1526 0.984 . S
N1520 H1527 0.984 . S
N1521 C1514 1.356 . S
N1521 H1524 0.984 . S
N1521 H1525 0.985 . S
H1522 N1517 0.984 . S
H1523 N1517 0.985 . S
H1524 N1521 0.984 . S
H1525 N1521 0.985 . S
H1526 N1520 0.984 . S
H1527 N1520 0.984 . S
H1528 N1516 0.984 . S
H1529 N1516 0.985 . S
C1530 C1531 1.363 . S
C1530 C1536 1.379 . S
C1530 N1538 1.356 . S
C1531 C1530 1.363 . S
C1531 C1537 1.363 . S
C1532 C1533 1.363 . S
C1532 C1537 1.379 . S
C1532 N1539 1.356 . S
C1533 C1532 1.363 . S
C1533 C1536 1.363 . S
N1534 C1536 1.356 . S
N1534 H1546 0.984 . S
N1534 H1547 0.985 . S
N1535 C1537 1.356 . S
N1535 H1540 0.984 . S
N1535 H1541 0.985 . S
C1536 C1530 1.379 . S
C1536 C1533 1.363 . S
C1536 N1534 1.356 . S
C1537 C1531 1.363 . S
C1537 C1532 1.379 . S
C1537 N1535 1.356 . S
N1538 C1530 1.356 . S
N1538 H1544 0.984 . S
N1538 H1545 0.984 . S
N1539 C1532 1.356 . S
N1539 H1542 0.984 . S
N1539 H1543 0.985 . S
H1540 N1535 0.984 . S
H1541 N1535 0.985 . S
H1542 N1539 0.984 . S
H1543 N1539 0.985 . S
H1544 N1538 0.984 . S
H1545 N1538 0.984 . S
H1546 N1534 0.984 . S
H1547 N1534 0.985 . S
C1548 C1549 1.363 . S
C1548 C1554 1.379 . S
C1548 N1556 1.356 . S
C1549 C1548 1.363 . S
C1549 C1555 1.363 . S
C1550 C1551 1.363 . S
C1550 C1555 1.379 . S
C1550 N1557 1.356 . S
C1551 C1550 1.363 . S
C1551 C1554 1.363 . S
N1552 C1554 1.356 . S
N1552 H1564 0.984 . S
N1552 H1565 0.985 . S
N1553 C1555 1.356 . S
N1553 H1558 0.984 . S
N1553 H1559 0.985 . S
C1554 C1548 1.379 . S
C1554 C1551 1.363 . S
C1554 N1552 1.356 . S
C1555 C1549 1.363 . S
C1555 C1550 1.379 . S
C1555 N1553 1.356 . S
N1556 C1548 1.356 . S
N1556 H1562 0.984 . S
N1556 H1563 0.984 . S
N1557 C1550 1.356 . S
N1557 H1560 0.984 . S
N1557 H1561 0.985 . S
H1558 N1553 0.984 . S
H1559 N1553 0.985 . S
H1560 N1557 0.984 . S
H1561 N1557 0.985 . S
H1562 N1556 0.984 . S
H1563 N1556 0.984 . S
H1564 N1552 0.984 . S
H1565 N1552 0.985 . S
C1566 C1567 1.363 . S
C1566 C1572 1.379 . S
C1566 N1574 1.356 . S
C1567 C1566 1.363 . S
C1567 C1573 1.363 . S
C1568 C1569 1.363 . S
C1568 C1573 1.379 . S
C1568 N1575 1.356 . S
C1569 C1568 1.363 . S
C1569 C1572 1.363 . S
N1570 C1572 1.356 . S
N1570 H1582 0.984 . S
N1570 H1583 0.985 . S
N1571 C1573 1.356 . S
N1571 H1576 0.984 . S
N1571 H1577 0.985 . S
C1572 C1566 1.379 . S
C1572 C1569 1.363 . S
C1572 N1570 1.356 . S
C1573 C1567 1.363 . S
C1573 C1568 1.379 . S
C1573 N1571 1.356 . S
N1574 C1566 1.356 . S
N1574 H1580 0.984 . S
N1574 H1581 0.984 . S
N1575 C1568 1.356 . S
N1575 H1578 0.984 . S
N1575 H1579 0.985 . S
H1576 N1571 0.984 . S
H1577 N1571 0.985 . S
H1578 N1575 0.984 . S
H1579 N1575 0.985 . S
H1580 N1574 0.984 . S
H1581 N1574 0.984 . S
H1582 N1570 0.984 . S
H1583 N1570 0.985 . S
C1584 C1585 1.363 . S
C1584 C1590 1.379 . S
C1584 N1592 1.356 . S
C1585 C1584 1.363 . S
C1585 C1591 1.363 . S
C1586 C1587 1.363 . S
C1586 C1591 1.379 . S
C1586 N1593 1.356 . S
C1587 C1586 1.363 . S
C1587 C1590 1.363 . S
N1588 C1590 1.356 . S
N1588 H1600 0.984 . S
N1588 H1601 0.985 . S
N1589 C1591 1.356 . S
N1589 H1594 0.984 . S
N1589 H1595 0.985 . S
C1590 C1584 1.379 . S
C1590 C1587 1.363 . S
C1590 N1588 1.356 . S
C1591 C1585 1.363 . S
C1591 C1586 1.379 . S
C1591 N1589 1.356 . S
N1592 C1584 1.356 . S
N1592 H1598 0.984 . S
N1592 H1599 0.984 . S
N1593 C1586 1.356 . S
N1593 H1596 0.984 . S
N1593 H1597 0.985 . S
H1594 N1589 0.984 . S
H1595 N1589 0.985 . S
H1596 N1593 0.984 . S
H1597 N1593 0.985 . S
H1598 N1592 0.984 . S
H1599 N1592 0.984 . S
H1600 N1588 0.984 . S
H1601 N1588 0.985 . S
C1602 C1603 1.363 . S
C1602 C1608 1.379 . S
C1602 N1610 1.356 . S
C1603 C1602 1.363 . S
C1603 C1609 1.363 . S
C1604 C1605 1.363 . S
C1604 C1609 1.379 . S
C1604 N1611 1.356 . S
C1605 C1604 1.363 . S
C1605 C1608 1.363 . S
N1606 C1608 1.356 . S
N1606 H1618 0.984 . S
N1606 H1619 0.985 . S
N1607 C1609 1.356 . S
N1607 H1612 0.984 . S
N1607 H1613 0.985 . S
C1608 C1602 1.379 . S
C1608 C1605 1.363 . S
C1608 N1606 1.356 . S
C1609 C1603 1.363 . S
C1609 C1604 1.379 . S
C1609 N1607 1.356 . S
N1610 C1602 1.356 . S
N1610 H1616 0.984 . S
N1610 H1617 0.984 . S
N1611 C1604 1.356 . S
N1611 H1614 0.984 . S
N1611 H1615 0.985 . S
H1612 N1607 0.984 . S
H1613 N1607 0.985 . S
H1614 N1611 0.984 . S
H1615 N1611 0.985 . S
H1616 N1610 0.984 . S
H1617 N1610 0.984 . S
H1618 N1606 0.984 . S
H1619 N1606 0.985 . S
C1620 C1621 1.363 . S
C1620 C1626 1.379 . S
C1620 N1628 1.356 . S
C1621 C1620 1.363 . S
C1621 C1627 1.363 . S
C1622 C1623 1.363 . S
C1622 C1627 1.379 . S
C1622 N1629 1.356 . S
C1623 C1622 1.363 . S
C1623 C1626 1.363 . S
N1624 C1626 1.356 . S
N1624 H1636 0.984 . S
N1624 H1637 0.985 . S
N1625 C1627 1.356 . S
N1625 H1630 0.984 . S
N1625 H1631 0.985 . S
C1626 C1620 1.379 . S
C1626 C1623 1.363 . S
C1626 N1624 1.356 . S
C1627 C1621 1.363 . S
C1627 C1622 1.379 . S
C1627 N1625 1.356 . S
N1628 C1620 1.356 . S
N1628 H1634 0.984 . S
N1628 H1635 0.984 . S
N1629 C1622 1.356 . S
N1629 H1632 0.984 . S
N1629 H1633 0.985 . S
H1630 N1625 0.984 . S
H1631 N1625 0.985 . S
H1632 N1629 0.984 . S
H1633 N1629 0.985 . S
H1634 N1628 0.984 . S
H1635 N1628 0.984 . S
H1636 N1624 0.984 . S
H1637 N1624 0.985 . S
C1638 C1639 1.363 . S
C1638 C1644 1.379 . S
C1638 N1646 1.356 . S
C1639 C1638 1.363 . S
C1639 C1645 1.363 . S
C1640 C1641 1.363 . S
C1640 C1645 1.379 . S
C1640 N1647 1.356 . S
C1641 C1640 1.363 . S
C1641 C1644 1.363 . S
N1642 C1644 1.356 . S
N1642 H1654 0.984 . S
N1642 H1655 0.985 . S
N1643 C1645 1.356 . S
N1643 H1648 0.984 . S
N1643 H1649 0.985 . S
C1644 C1638 1.379 . S
C1644 C1641 1.363 . S
C1644 N1642 1.356 . S
C1645 C1639 1.363 . S
C1645 C1640 1.379 . S
C1645 N1643 1.356 . S
N1646 C1638 1.356 . S
N1646 H1652 0.984 . S
N1646 H1653 0.984 . S
N1647 C1640 1.356 . S
N1647 H1650 0.984 . S
N1647 H1651 0.985 . S
H1648 N1643 0.984 . S
H1649 N1643 0.985 . S
H1650 N1647 0.984 . S
H1651 N1647 0.985 . S
H1652 N1646 0.984 . S
H1653 N1646 0.984 . S
H1654 N1642 0.984 . S
H1655 N1642 0.985 . S
C1656 C1657 1.363 . S
C1656 C1662 1.379 . S
C1656 N1664 1.356 . S
C1657 C1656 1.363 . S
C1657 C1663 1.363 . S
C1658 C1659 1.363 . S
C1658 C1663 1.379 . S
C1658 N1665 1.356 . S
C1659 C1658 1.363 . S
C1659 C1662 1.363 . S
N1660 C1662 1.356 . S
N1660 H1672 0.984 . S
N1660 H1673 0.985 . S
N1661 C1663 1.356 . S
N1661 H1666 0.984 . S
N1661 H1667 0.985 . S
C1662 C1656 1.379 . S
C1662 C1659 1.363 . S
C1662 N1660 1.356 . S
C1663 C1657 1.363 . S
C1663 C1658 1.379 . S
C1663 N1661 1.356 . S
N1664 C1656 1.356 . S
N1664 H1670 0.984 . S
N1664 H1671 0.984 . S
N1665 C1658 1.356 . S
N1665 H1668 0.984 . S
N1665 H1669 0.985 . S
H1666 N1661 0.984 . S
H1667 N1661 0.985 . S
H1668 N1665 0.984 . S
H1669 N1665 0.985 . S
H1670 N1664 0.984 . S
H1671 N1664 0.984 . S
H1672 N1660 0.984 . S
H1673 N1660 0.985 . S
C1674 C1675 1.363 . S
C1674 C1680 1.379 . S
C1674 N1682 1.356 . S
C1675 C1674 1.363 . S
C1675 C1681 1.363 . S
C1676 C1677 1.363 . S
C1676 C1681 1.379 . S
C1676 N1683 1.356 . S
C1677 C1676 1.363 . S
C1677 C1680 1.363 . S
N1678 C1680 1.356 . S
N1678 H1690 0.984 . S
N1678 H1691 0.985 . S
N1679 C1681 1.356 . S
N1679 H1684 0.984 . S
N1679 H1685 0.985 . S
C1680 C1674 1.379 . S
C1680 C1677 1.363 . S
C1680 N1678 1.356 . S
C1681 C1675 1.363 . S
C1681 C1676 1.379 . S
C1681 N1679 1.356 . S
N1682 C1674 1.356 . S
N1682 H1688 0.984 . S
N1682 H1689 0.984 . S
N1683 C1676 1.356 . S
N1683 H1686 0.984 . S
N1683 H1687 0.985 . S
H1684 N1679 0.984 . S
H1685 N1679 0.985 . S
H1686 N1683 0.984 . S
H1687 N1683 0.985 . S
H1688 N1682 0.984 . S
H1689 N1682 0.984 . S
H1690 N1678 0.984 . S
H1691 N1678 0.985 . S
C721 C531 2.456 . S
C723 C11 2.467 . S
C739 C59 2.030 . S
C741 C579 2.023 . S
C757 C91 2.250 . S
C759 C499 2.290 . S
C775 C99 1.880 . S
C777 C299 1.886 . S
C793 C339 2.172 . S
C795 C19 2.169 . S
C811 C51 2.323 . S
C813 C259 2.369 . S
C829 C122 2.247 . S
C831 C410 2.267 . S
C847 C170 1.760 . S
C849 C450 1.756 . S
C865 C370 2.003 . S
C867 C202 1.959 . S
C883 C650 2.041 . S
C885 C210 2.038 . S
C901 C130 2.283 . S
C903 C682 2.252 . S
C919 C602 2.481 . S
C921 C162 2.454 . S
C937 C331 2.136 . S
C939 C539 2.183 . S
C955 C251 2.357 . S
C957 C571 2.348 . S
C973 C291 2.599 . S
C975 C491 2.622 . S
C991 C362 2.724 . S
C993 C642 2.714 . S
C1009 C690 2.303 . S
C1011 C402 2.280 . S
C1027 C610 2.576 . S
C1029 C442 2.532 . S
C1045 C10 1.487 . S
C1047 C179 1.486 . S
C1063 C211 1.912 . S
C1065 C42 1.915 . S
C1081 C131 1.712 . S
C1083 C90 1.576 . S
C1099 C171 1.934 . S
C1101 C82 1.980 . S
C1117 C219 1.727 . S
C1119 C2 1.760 . S
C1135 C139 1.566 . S
C1137 C50 1.621 . S
C1153 C411 1.997 . S
C1155 C242 1.985 . S
C1171 C451 2.061 . S
C1173 C282 2.051 . S
C1189 C371 2.083 . S
C1191 C322 1.979 . S
C1207 C419 1.549 . S
C1209 C330 1.554 . S
C1225 C459 1.479 . S
C1227 C250 1.607 . S
C1243 C379 1.500 . S
C1245 C290 1.511 . S
C1261 C659 1.614 . S
C1263 C490 1.560 . S
C1279 C691 1.974 . S
C1281 C522 1.929 . S
C1297 C570 1.723 . S
C1299 C611 1.753 . S
C1315 C562 2.085 . S
C1317 C651 2.089 . S
C1333 C482 1.852 . S
C1335 C699 1.716 . S
C1351 C619 1.590 . S
C1353 C530 1.587 . S
C1369 C16 1.366 . S
C1371 C7 1.366 . S
C1387 C47 1.501 . S
C1389 C56 1.501 . S
C1405 C96 1.412 . S
C1407 C87 1.412 . S
C1423 C127 1.462 . S
C1425 C136 1.465 . S
C1441 C167 1.369 . S
C1443 C176 1.369 . S
C1459 C216 1.580 . S
C1461 C207 1.580 . S
C1477 C256 1.699 . S
C1479 C247 1.699 . S
C1495 C287 1.336 . S
C1497 C296 1.336 . S
C1513 C336 1.737 . S
C1515 C327 1.737 . S
C1531 C367 1.317 . S
C1533 C376 1.317 . S
C1549 C407 1.664 . S
C1551 C416 1.664 . S
C1567 C447 1.377 . S
C1569 C456 1.377 . S
C1585 C487 1.338 . S
C1587 C496 1.338 . S
C1603 C527 1.472 . S
C1605 C536 1.472 . S
C1621 C576 1.400 . S
C1623 C567 1.400 . S
C1639 C616 1.505 . S
C1641 C607 1.505 . S
C1657 C647 1.346 . S
C1659 C656 1.346 . S
C1675 C687 1.485 . S
C1677 C696 1.485 . S
