# Generated by pormake.
# Topology vby, (6)-cn, num edge types: 1
# Building blocks:
#     Node 0, Type 0, BuildingBlock: UKALOJ_clean_sbu_0, # of connection points: 6
#     Node 1, Type 0, BuildingBlock: UKALOJ_clean_sbu_0, # of connection points: 6
#     Node 2, Type 0, BuildingBlock: UKALOJ_clean_sbu_0, # of connection points: 6
#     Node 3, Type 0, BuildingBlock: UKALOJ_clean_sbu_0, # of connection points: 6
#     Node 4, Type 0, BuildingBlock: UKALOJ_clean_sbu_0, # of connection points: 6
#     Node 5, Type 0, BuildingBlock: UKALOJ_clean_sbu_0, # of connection points: 6
#     Node 6, Type 0, BuildingBlock: UKALOJ_clean_sbu_0, # of connection points: 6
#     Node 7, Type 0, BuildingBlock: UKALOJ_clean_sbu_0, # of connection points: 6
#     Edge 8, Type (0, 0), BuildingBlock: AJUNOK_clean_linker_0, # of connection points: 2
#     Edge 9, Type (0, 0), BuildingBlock: AJUNOK_clean_linker_0, # of connection points: 2
#     Edge 10, Type (0, 0), BuildingBlock: AJUNOK_clean_linker_0, # of connection points: 2
#     Edge 11, Type (0, 0), BuildingBlock: AJUNOK_clean_linker_0, # of connection points: 2
#     Edge 12, Type (0, 0), BuildingBlock: AJUNOK_clean_linker_0, # of connection points: 2
#     Edge 13, Type (0, 0), BuildingBlock: AJUNOK_clean_linker_0, # of connection points: 2
#     Edge 14, Type (0, 0), BuildingBlock: AJUNOK_clean_linker_0, # of connection points: 2
#     Edge 15, Type (0, 0), BuildingBlock: AJUNOK_clean_linker_0, # of connection points: 2
#     Edge 16, Type (0, 0), BuildingBlock: AJUNOK_clean_linker_0, # of connection points: 2
#     Edge 17, Type (0, 0), BuildingBlock: AJUNOK_clean_linker_0, # of connection points: 2
#     Edge 18, Type (0, 0), BuildingBlock: AJUNOK_clean_linker_0, # of connection points: 2
#     Edge 19, Type (0, 0), BuildingBlock: AJUNOK_clean_linker_0, # of connection points: 2
#     Edge 20, Type (0, 0), BuildingBlock: AJUNOK_clean_linker_0, # of connection points: 2
#     Edge 21, Type (0, 0), BuildingBlock: AJUNOK_clean_linker_0, # of connection points: 2
#     Edge 22, Type (0, 0), BuildingBlock: AJUNOK_clean_linker_0, # of connection points: 2
#     Edge 23, Type (0, 0), BuildingBlock: AJUNOK_clean_linker_0, # of connection points: 2
#     Edge 24, Type (0, 0), BuildingBlock: AJUNOK_clean_linker_0, # of connection points: 2
#     Edge 25, Type (0, 0), BuildingBlock: AJUNOK_clean_linker_0, # of connection points: 2
#     Edge 26, Type (0, 0), BuildingBlock: AJUNOK_clean_linker_0, # of connection points: 2
#     Edge 27, Type (0, 0), BuildingBlock: AJUNOK_clean_linker_0, # of connection points: 2
#     Edge 28, Type (0, 0), BuildingBlock: AJUNOK_clean_linker_0, # of connection points: 2
#     Edge 29, Type (0, 0), BuildingBlock: AJUNOK_clean_linker_0, # of connection points: 2
#     Edge 30, Type (0, 0), BuildingBlock: AJUNOK_clean_linker_0, # of connection points: 2
#     Edge 31, Type (0, 0), BuildingBlock: AJUNOK_clean_linker_0, # of connection points: 2
# Relax obj value: 0.065
# Max RMSD: 0.108
# Mean RMSD: 0.108
data_MOF--net-vby--node1-UKALOJ_clean_sbu_0--edge1-AJUNOK_clean_linker_0
_symmetry_space_group_name_H-M    P1
_symmetry_Int_Tables_number       1
_symmetry_cell_setting            triclinic
loop_
_symmetry_equiv_pos_as_xyz
'x, y, z'
_cell_length_a     11.278736
_cell_length_b     43.370347
_cell_length_c     32.222588
_cell_angle_alpha  89.636448
_cell_angle_beta   90.377882
_cell_angle_gamma 89.679073
loop_
_atom_site_label
_atom_site_type_symbol
_atom_site_fract_x
_atom_site_fract_y
_atom_site_fract_z
_atom_type_partial_charge
Zn0 Zn 0.05074 0.3659 0.98545 0.0
O1 O 0.23519 0.37187 0.98443 0.0
C2 C 0.09964 0.30277 1.00802 0.0
Zn3 Zn 0.05147 0.36216 0.05451 0.0
C4 C 0.29373 0.37042 1.01829 0.0
O5 O 0.2383 0.36798 0.05245 0.0
C6 C 0.80844 0.35702 1.02044 0.0
O7 O 0.02535 0.40972 0.0654 0.0
O8 O 0.02417 0.4132 0.99762 0.0
N9 N 0.06293 0.35257 0.1167 0.0
C10 C 0.00687 0.36372 0.1503 0.0
C11 C 0.12156 0.32751 0.17128 0.0
N12 N 0.13425 0.33015 0.1299 0.0
N13 N 0.04212 0.34833 0.18484 0.0
C14 C 0.04687 0.36075 0.88726 0.0
C15 C 0.9615 0.40346 0.87226 0.0
N16 N 0.03252 0.37619 0.92317 0.0
N17 N -0.01992 0.40273 0.9135 0.0
N18 N 0.00242 0.37739 0.85505 0.0
H19 H 0.11481 0.32217 0.85191 0.0
H20 H 0.02871 0.31224 0.89674 0.0
H21 H 0.17725 0.3265 0.90338 0.0
C22 C 0.09516 0.32861 0.88437 0.0
C23 C 0.91447 0.38869 0.14907 0.0
H24 H 0.86882 0.38957 0.11859 0.0
H25 H 0.95808 0.41122 0.15423 0.0
H26 H 0.8482 0.38513 0.17392 0.0
O27 O 0.86419 0.35604 0.05487 0.0
O28 O 0.86675 0.35972 0.9871 0.0
C29 C 0.01561 0.42607 0.03274 0.0
O30 O 0.08178 0.31848 0.97517 0.0
O31 O 0.08204 0.31509 0.04311 0.0
Zn32 Zn 0.85084 0.61865 0.06953 0.0
O33 O 0.87296 0.5699 0.07318 0.0
C34 C 0.09244 0.62402 0.03469 0.0
Zn35 Zn 0.84867 0.61854 0.99981 0.0
C36 C 0.88329 0.55587 0.03883 0.0
O37 O 0.87203 0.57095 1.00516 0.0
C38 C 0.81379 0.68132 0.02894 0.0
O39 O 0.66153 0.61403 1.00104 0.0
O40 O 0.66598 0.61412 0.06913 0.0
N41 N 0.84621 0.61357 0.93612 0.0
C42 C 0.91351 0.62501 0.90514 0.0
C43 C 0.79395 0.59289 0.8781 0.0
N44 N 0.77189 0.59373 0.91909 0.0
N45 N 0.88306 0.61214 0.86836 0.0
C46 C 0.91492 0.61216 0.16561 0.0
C47 C 0.78429 0.64197 0.19116 0.0
N48 N 0.84843 0.62321 0.1336 0.0
N49 N 0.76758 0.64169 0.1498 0.0
N50 N 0.87614 0.6236 0.20233 0.0
H51 H 0.0075 0.57679 0.13138 0.0
H52 H 0.01791 0.5732 0.1872 0.0
H53 H 0.09993 0.6024 0.15988 0.0
C54 C 0.01511 0.58966 0.16071 0.0
C55 C 0.00335 0.64996 0.91089 0.0
H56 H 0.97324 0.66645 0.93479 0.0
H57 H 0.0191 0.66248 0.88131 0.0
H58 H 0.08808 0.63963 0.92193 0.0
O59 O 0.82407 0.6663 0.99543 0.0
O60 O 0.82621 0.66726 0.06354 0.0
C61 C 0.6069 0.61372 0.03545 0.0
O62 O 0.03569 0.62342 0.06864 0.0
O63 O 0.03568 0.62303 1.00045 0.0
Zn64 Zn 0.09544 0.61225 0.50198 0.0
O65 O 0.07691 0.56404 0.49838 0.0
C66 C 0.85373 0.61648 0.53735 0.0
Zn67 Zn 0.09807 0.60916 0.57162 0.0
C68 C 0.06772 0.54794 0.53133 0.0
O69 O 0.07479 0.56109 0.5664 0.0
C70 C 0.13375 0.67305 0.54241 0.0
O71 O 0.28521 0.60413 0.56996 0.0
O72 O 0.28079 0.60795 0.50201 0.0
N73 N 0.10201 0.60463 0.63547 0.0
C74 C 0.03993 0.61798 0.66636 0.0
C75 C 0.15838 0.5855 0.69436 0.0
N76 N 0.17554 0.58451 0.65308 0.0
N77 N 0.07379 0.60636 0.70382 0.0
C78 C 0.02518 0.60762 0.40655 0.0
C79 C 0.1531 0.63768 0.37997 0.0
N80 N 0.09547 0.61758 0.43788 0.0
N81 N 0.17483 0.63615 0.42106 0.0
N82 N 0.05894 0.62022 0.36982 0.0
H83 H 0.95382 0.56696 0.43558 0.0
H84 H 0.90936 0.5724 0.38223 0.0
H85 H 0.84727 0.596 0.42279 0.0
C86 C 0.92873 0.58431 0.41186 0.0
C87 C 0.94957 0.643 0.65961 0.0
H88 H 0.96907 0.65643 0.63116 0.0
H89 H 0.94689 0.65874 0.68661 0.0
H90 H 0.86092 0.63243 0.65557 0.0
O91 O 0.12472 0.65711 0.57545 0.0
O92 O 0.1176 0.66018 0.50752 0.0
C93 C 0.33988 0.60575 0.53561 0.0
O94 O 0.91019 0.61687 0.50334 0.0
O95 O 0.9108 0.61426 0.57147 0.0
Zn96 Zn 0.90322 0.35452 0.55344 0.0
O97 O 0.71825 0.36084 0.55767 0.0
C98 C 0.85668 0.29389 0.51114 0.0
Zn99 Zn 0.90288 0.35689 0.48452 0.0
C100 C 0.66028 0.36205 0.52365 0.0
O101 O 0.7164 0.36202 0.48955 0.0
C102 C 0.14614 0.34912 0.5156 0.0
O103 O 0.92834 0.40443 0.49138 0.0
O104 O 0.9353 0.40241 0.55934 0.0
N105 N 0.88697 0.36365 0.42193 0.0
C106 C 0.94495 0.35194 0.38911 0.0
C107 C 0.81735 0.38421 0.36562 0.0
N108 N 0.80769 0.38363 0.40724 0.0
N109 N 0.90236 0.36442 0.35346 0.0
C110 C 0.89731 0.36086 0.65147 0.0
C111 C 0.00234 0.3214 0.66737 0.0
N112 N 0.92316 0.3462 0.61578 0.0
N113 N -0.01251 0.32162 0.62598 0.0
N114 N 0.94628 0.34567 0.68424 0.0
H115 H 0.81914 0.40159 0.62314 0.0
H116 H 0.87442 0.40654 0.67578 0.0
H117 H 0.73964 0.38593 0.66602 0.0
C118 C 0.82965 0.3906 0.65398 0.0
C119 C 0.05013 0.33077 0.39265 0.0
H120 H 0.12892 0.34454 0.40138 0.0
H121 H 0.07007 0.31915 0.36302 0.0
H122 H 0.03541 0.31331 0.41734 0.0
O123 O 0.09106 0.35188 0.48118 0.0
O124 O 0.08689 0.34813 0.54882 0.0
C125 C 0.94302 0.41793 0.52584 0.0
O126 O 0.87 0.30716 0.54586 0.0
O127 O 0.87412 0.30913 0.47795 0.0
Zn128 Zn 0.60337 0.87181 1.00471 0.0
O129 O 0.79034 0.8761 1.0065 0.0
C130 C 0.64018 0.80812 0.03075 0.0
Zn131 Zn 0.60481 0.86935 0.07436 0.0
C132 C 0.84661 0.87566 0.04084 0.0
O133 O 0.7891 0.8742 0.07456 0.0
C134 C 0.3614 0.86543 0.0392 0.0
O135 O 0.58106 0.91772 0.08046 0.0
O136 O 0.58047 0.91924 1.01237 0.0
N137 N 0.60684 0.86199 0.13813 0.0
C138 C 0.55008 0.87508 0.17049 0.0
C139 C 0.65066 0.83721 0.1946 0.0
N140 N 0.66944 0.83858 0.15341 0.0
N141 N 0.57549 0.85972 0.2063 0.0
C142 C 0.55391 0.86533 0.90861 0.0
C143 C 0.6458 0.90456 0.88543 0.0
N144 N 0.6056 0.8792 0.94144 0.0
N145 N 0.66298 0.90345 0.92679 0.0
N146 N 0.57741 0.88093 0.87306 0.0
H147 H 0.52893 0.81679 0.9026 0.0
H148 H 0.39971 0.83962 0.89032 0.0
H149 H 0.44561 0.83369 0.94383 0.0
C150 C 0.47681 0.8374 0.91173 0.0
C151 C 0.47973 0.90441 0.16717 0.0
H152 H 0.53916 0.92313 0.15685 0.0
H153 H 0.44173 0.91148 0.19726 0.0
H154 H 0.40854 0.90193 0.14353 0.0
O155 O 0.42046 0.86446 0.0729 0.0
O156 O 0.41605 0.86771 1.00489 0.0
C157 C 0.57058 0.93301 0.04681 0.0
O158 O 0.62716 0.82413 0.99785 0.0
O159 O 0.6301 0.82113 0.06586 0.0
Zn160 Zn 0.38462 0.12607 0.05699 0.0
O161 O 0.41444 0.07891 0.06881 0.0
C162 C 0.62682 0.12882 1.01982 0.0
Zn163 Zn 0.3837 0.12009 0.98804 0.0
C164 C 0.42409 0.06145 0.03751 0.0
O165 O 0.41094 0.07275 1.0012 0.0
C166 C 0.34135 0.18464 1.00779 0.0
O167 O 0.19755 0.11515 0.99251 0.0
O168 O 0.19972 0.12072 0.06021 0.0
N169 N 0.37334 0.11016 0.92564 0.0
C170 C 0.43485 0.12004 0.89234 0.0
C171 C 0.3045 0.08867 0.87025 0.0
N172 N 0.29255 0.09065 0.91174 0.0
N173 N 0.39341 0.10685 0.85724 0.0
C174 C 0.38247 0.12112 0.1547 0.0
C175 C 0.45826 0.16438 0.1705 0.0
N176 N 0.39881 0.13686 0.11892 0.0
N177 N 0.44534 0.16377 0.12899 0.0
N178 N 0.41968 0.13787 0.18758 0.0
H179 H 0.26236 0.08697 0.13112 0.0
H180 H 0.27739 0.08761 0.18723 0.0
H181 H 0.39415 0.07199 0.15591 0.0
C182 C 0.32505 0.09016 0.15739 0.0
C183 C 0.53115 0.14365 0.89407 0.0
H184 H 0.5181 0.15937 0.92064 0.0
H185 H 0.53371 0.15726 0.86483 0.0
H186 H 0.61774 0.13171 0.89813 0.0
O187 O 0.35304 0.16766 0.97605 0.0
O188 O 0.35506 0.17295 0.04376 0.0
C189 C 0.14171 0.11726 1.02656 0.0
O190 O 0.5678 0.13134 0.05296 0.0
O191 O 0.57178 0.12498 0.98563 0.0
Zn192 Zn 0.57347 0.11207 0.4881 0.0
O193 O 0.54919 0.06433 0.49463 0.0
C194 C 0.33127 0.12012 0.52323 0.0
Zn195 Zn 0.5752 0.11454 0.55773 0.0
C196 C 0.53804 0.05079 0.52951 0.0
O197 O 0.54794 0.06632 0.56278 0.0
C198 C 0.61769 0.17534 0.51502 0.0
O199 O 0.7592 0.10836 0.55832 0.0
O200 O 0.76116 0.1069 0.4904 0.0
N201 N 0.57932 0.12044 0.62123 0.0
C202 C 0.51922 0.10775 0.65313 0.0
C203 C 0.63411 0.14172 0.67864 0.0
N204 N 0.65058 0.14148 0.63728 0.0
N205 N 0.5517 0.12089 0.68945 0.0
C206 C 0.49953 0.11239 0.39261 0.0
C207 C 0.66604 0.10309 0.36439 0.0
N208 N 0.57927 0.10814 0.42371 0.0
N209 N 0.68238 0.10223 0.40585 0.0
N210 N 0.55202 0.10955 0.35522 0.0
H211 H 0.33604 0.09722 0.41772 0.0
H212 H 0.31971 0.11697 0.36895 0.0
H213 H 0.35284 0.13865 0.41536 0.0
C214 C 0.36928 0.11671 0.39878 0.0
C215 C 0.43874 0.08055 0.64882 0.0
H216 H 0.3786 0.08378 0.6218 0.0
H217 H 0.38655 0.07626 0.67723 0.0
H218 H 0.49365 0.05976 0.64303 0.0
O219 O 0.60556 0.16239 0.55027 0.0
O220 O 0.60019 0.15973 0.48238 0.0
C221 C 0.8172 0.10707 0.52478 0.0
O222 O 0.38599 0.11751 0.48899 0.0
O223 O 0.39066 0.12097 0.55681 0.0
Zn224 Zn 0.38059 0.85891 0.57515 0.0
O225 O 0.19607 0.86467 0.57491 0.0
C226 C 0.34234 0.79543 0.54206 0.0
Zn227 Zn 0.37956 0.857 0.50574 0.0
C228 C 0.13712 0.86352 0.54126 0.0
O229 O 0.19211 0.86141 0.50705 0.0
C230 C 0.62297 0.85184 0.54052 0.0
O231 O 0.3985 0.90516 0.50561 0.0
O232 O 0.40594 0.90732 0.57372 0.0
N233 N 0.3733 0.85543 0.44168 0.0
C234 C 0.44184 0.86644 0.41069 0.0
C235 C 0.30262 0.84079 0.38271 0.0
N236 N 0.28704 0.83955 0.42403 0.0
N237 N 0.39906 0.85758 0.37314 0.0
C238 C 0.44165 0.87099 0.66957 0.0
C239 C 0.32933 0.83789 0.69843 0.0
N240 N 0.37932 0.85711 0.63907 0.0
N241 N 0.30948 0.83669 0.65724 0.0
N242 N 0.41157 0.8593 0.70709 0.0
H243 H 0.5751 0.89224 0.63129 0.0
H244 H 0.60535 0.89321 0.68662 0.0
H245 H 0.49395 0.91802 0.66378 0.0
C246 C 0.53521 0.89478 0.66237 0.0
C247 C 0.54807 0.88641 0.41745 0.0
H248 H 0.543 0.89849 0.44752 0.0
H249 H 0.55626 0.90354 0.39191 0.0
H250 H 0.62883 0.87172 0.41806 0.0
O251 O 0.56698 0.85247 0.50608 0.0
O252 O 0.5651 0.85276 0.57419 0.0
C253 C 0.41091 0.92085 0.53856 0.0
O254 O 0.35285 0.81088 0.57516 0.0
O255 O 0.35747 0.80885 0.50737 0.0
C256 C 0.48905 0.36601 0.05549 0.0
C257 C 0.42517 0.368 1.01784 0.0
C258 C 0.61227 0.3615 0.05612 0.0
C259 C 0.67687 0.35867 1.0191 0.0
H260 H 0.44366 0.36787 0.0849 0.0
H261 H 0.65722 0.36067 0.08592 0.0
S262 S 0.55162 0.36091 0.91204 0.0
N263 N 0.43608 0.36596 0.94243 0.0
N264 N 0.66677 0.35733 0.94356 0.0
C265 C 0.61392 0.36019 0.98118 0.0
C266 C 0.48854 0.36494 0.98055 0.0
C267 C 0.28586 0.6146 0.99922 0.0
C268 C 0.22372 0.62303 0.0352 0.0
C269 C 0.40946 0.61114 0.99972 0.0
C270 C 0.47577 0.61581 0.03627 0.0
H271 H 0.23871 0.61013 0.9705 0.0
H272 H 0.45318 0.60463 0.97122 0.0
S273 S 0.3563 0.64011 0.13829 0.0
N274 N 0.2386 0.63749 0.10788 0.0
N275 N 0.47014 0.63056 0.10908 0.0
C276 C 0.41483 0.6246 0.07238 0.0
C277 C 0.28914 0.62835 0.07176 0.0
C278 C 0.66103 0.60463 0.57182 0.0
C279 C 0.72249 0.61563 0.5369 0.0
C280 C 0.53762 0.601 0.57094 0.0
C281 C 0.47088 0.60813 0.53505 0.0
H282 H 0.70868 0.5982 0.5999 0.0
H283 H 0.4944 0.59241 0.59858 0.0
S284 S 0.58822 0.64037 0.43648 0.0
N285 N 0.70634 0.63556 0.46634 0.0
N286 N 0.47514 0.62841 0.46439 0.0
C287 C 0.53109 0.6197 0.50014 0.0
C288 C 0.65656 0.62358 0.50116 0.0
C289 C 0.46681 0.36251 0.48495 0.0
C290 C 0.52884 0.3599 0.52297 0.0
C291 C 0.34387 0.35807 0.48256 0.0
C292 C 0.27764 0.35073 0.51806 0.0
H293 H 0.51352 0.36794 0.45658 0.0
H294 H 0.30045 0.36085 0.45268 0.0
S295 S 0.39769 0.34024 0.62513 0.0
N296 N 0.51447 0.34893 0.5969 0.0
N297 N 0.28429 0.34039 0.59253 0.0
C298 C 0.33874 0.34776 0.55629 0.0
C299 C 0.46384 0.35246 0.55873 0.0
C300 C 0.04139 0.87523 1.00396 0.0
C301 C -0.02208 0.87395 0.0414 0.0
C302 C 0.16494 0.87173 1.00341 0.0
C303 C 0.23007 0.86673 0.04028 0.0
H304 H -0.00456 0.87885 0.97469 0.0
H305 H 0.2096 0.87323 0.97381 0.0
S306 S 0.10584 0.86053 0.1465 0.0
N307 N -0.01038 0.86684 0.11632 0.0
N308 N 0.22109 0.86003 0.11531 0.0
C309 C 0.16757 0.86513 0.07793 0.0
C310 C 0.04188 0.86886 0.0785 0.0
C311 C 0.94834 0.11863 0.9879 0.0
C312 C 0.01022 0.11894 1.02606 0.0
C313 C 0.82499 0.12257 0.98602 0.0
C314 C 0.75823 0.12707 1.02219 0.0
H315 H -0.00453 0.11559 0.95902 0.0
H316 H 0.78179 0.12189 0.95592 0.0
S317 S 0.87706 0.1294 0.13018 0.0
N318 N -0.00523 0.12378 0.10103 0.0
N319 N 0.76372 0.13134 0.09765 0.0
C320 C 0.819 0.1274 0.06065 0.0
C321 C 0.94456 0.12324 0.06255 0.0
C322 C 0.13447 0.11428 0.48756 0.0
C323 C 0.19969 0.11861 0.52444 0.0
C324 C 0.01168 0.10975 0.48808 0.0
C325 C 0.94841 0.10941 0.52554 0.0
H326 H 0.17818 0.11413 0.45787 0.0
H327 H 0.96608 0.10671 0.4587 0.0
S328 S 0.07557 0.12107 0.63097 0.0
N329 N 0.19028 0.12334 0.59964 0.0
N330 N 0.95999 0.11466 0.60069 0.0
C331 C 0.01204 0.11407 0.56275 0.0
C332 C 0.13723 0.1188 0.56218 0.0
C333 C 0.81762 0.85753 0.50442 0.0
C334 C 0.75436 0.85326 0.5415 0.0
C335 C 0.94081 0.8615 0.50471 0.0
C336 C 0.00594 0.86146 0.54212 0.0
H337 H 0.77174 0.85816 0.47481 0.0
H338 H -0.01482 0.86456 0.47527 0.0
S339 S 0.88344 0.85001 0.64791 0.0
N340 N 0.76707 0.84834 0.61676 0.0
N341 N -0.0021 0.85602 0.61736 0.0
C342 C 0.94396 0.857 0.57949 0.0
C343 C 0.81857 0.85279 0.57916 0.0
C344 C 0.91074 0.50391 0.0728 0.0
C345 C 0.91775 0.52286 0.03728 0.0
C346 C 0.94506 0.47273 0.07153 0.0
C347 C -0.01177 0.45948 0.03476 0.0
H348 H 0.8774 0.51311 0.10166 0.0
H349 H 0.93568 0.45883 0.09935 0.0
S350 S 0.03491 0.49996 0.93423 0.0
N351 N -0.02165 0.52643 0.96492 0.0
N352 N 0.04334 0.46833 0.96275 0.0
C353 C -0.00119 0.47845 0.9994 0.0
C354 C 0.96342 0.50998 1.00059 0.0
C355 C -0.02111 0.46708 0.56417 0.0
C356 C 0.97497 0.45103 0.52643 0.0
C357 C 0.01114 0.49822 0.56549 0.0
C358 C 0.04117 0.51454 0.52914 0.0
H359 H 0.95623 0.45561 0.59299 0.0
H360 H 0.01101 0.50961 0.59531 0.0
S361 S 0.0515 0.48269 0.42249 0.0
N362 N 0.00803 0.4536 0.45177 0.0
N363 N 0.06955 0.51187 0.45444 0.0
C364 C 0.03966 0.49862 0.49124 0.0
C365 C 0.00626 0.46697 0.48984 0.0
C366 C 0.48022 0.97807 1.01052 0.0
C367 C 0.53487 0.96586 0.04648 0.0
C368 C 0.44225 0.0087 1.00854 0.0
C369 C 0.45744 0.02858 0.04238 0.0
H370 H 0.46545 0.96378 0.98353 0.0
H371 H 0.40104 0.01686 0.98002 0.0
S372 S 0.5998 0.00845 0.14333 0.0
N373 N 0.6043 0.97612 0.11657 0.0
N374 N 0.53414 0.03413 0.11275 0.0
C375 C 0.51191 0.01677 0.07867 0.0
C376 C 0.55033 0.98532 0.08074 0.0
C377 C 0.5029 0.00181 0.56932 0.0
C378 C 0.50669 0.01761 0.53105 0.0
C379 C 0.46971 0.97074 0.57159 0.0
C380 C 0.43867 0.9542 0.53569 0.0
H381 H 0.5262 0.01345 0.59783 0.0
H382 H 0.46972 0.95956 0.60174 0.0
S383 S 0.43004 0.98512 0.42782 0.0
N384 N 0.47388 0.0144 0.45637 0.0
N385 N 0.4111 0.95629 0.46068 0.0
C386 C 0.44084 0.96982 0.49724 0.0
C387 C 0.47504 0.00139 0.4949 0.0
C388 C 0.15164 0.25274 0.97304 0.0
C389 C 0.16466 0.27308 1.00656 0.0
C390 C 0.21501 0.2247 0.97206 0.0
C391 C 0.2944 0.21643 1.00429 0.0
H392 H 0.08999 0.25813 0.94808 0.0
H393 H 0.19786 0.20886 0.94689 0.0
S394 S 0.37707 0.26444 0.09468 0.0
N395 N 0.27489 0.28481 0.06977 0.0
N396 N 0.39315 0.23251 0.0677 0.0
C397 C 0.31355 0.23753 0.03644 0.0
C398 C 0.24887 0.26574 0.03765 0.0
C399 C 0.69895 0.75875 0.06582 0.0
C400 C 0.67962 0.77544 0.02875 0.0
C401 C 0.74534 0.72877 0.0655 0.0
C402 C 0.77442 0.71405 0.02809 0.0
H403 H 0.67902 0.76896 0.09559 0.0
H404 H 0.75717 0.71697 0.09498 0.0
S405 S 0.74191 0.74763 0.9222 0.0
N406 N 0.69399 0.77498 0.95338 0.0
N407 N 0.78101 0.71859 0.95276 0.0
C408 C 0.75576 0.73043 0.99068 0.0
C409 C 0.70826 0.76105 0.99101 0.0
C410 C 0.20926 0.72003 0.50638 0.0
C411 C 0.18046 0.70492 0.54376 0.0
C412 C 0.2656 0.74867 0.50627 0.0
C413 C 0.29538 0.76358 0.54352 0.0
H414 H 0.18974 0.70952 0.47672 0.0
H415 H 0.28442 0.75933 0.47656 0.0
S416 S 0.23894 0.73402 0.65008 0.0
N417 N 0.18576 0.70713 0.61923 0.0
N418 N 0.29155 0.76102 0.61906 0.0
C419 C 0.26713 0.74878 0.58124 0.0
C420 C 0.20949 0.71953 0.58135 0.0
C421 C 0.77561 0.24803 0.54801 0.0
C422 C 0.80246 0.2628 0.51021 0.0
C423 C 0.71148 0.22058 0.54911 0.0
C424 C 0.67162 0.20642 0.51246 0.0
H425 H 0.80295 0.2579 0.57733 0.0
H426 H 0.69485 0.21017 0.57916 0.0
S427 S 0.71807 0.23555 0.40508 0.0
N428 N 0.7836 0.26122 0.43495 0.0
N429 N 0.66371 0.20932 0.43696 0.0
C430 C 0.69779 0.22085 0.47429 0.0
C431 C 0.76329 0.24899 0.47317 0.0
C432 C 0.00924 0.38129 0.24581 0.0
C433 C 0.00512 0.35216 0.22706 0.0
C434 C -0.02358 0.38507 0.28738 0.0
C435 C 0.93943 0.3598 0.31145 0.0
H436 H 0.03953 0.40112 0.22836 0.0
H437 H -0.0193 0.4078 0.30102 0.0
S438 S 0.90394 0.2794 0.27576 0.0
N439 N 0.95646 0.29799 0.23495 0.0
N440 N 0.89209 0.30531 0.31291 0.0
C441 C 0.93269 0.33074 0.29284 0.0
C442 C 0.96677 0.32684 0.25068 0.0
C443 C 0.04247 0.61701 0.2531 0.0
C444 C 0.92014 0.61952 0.2445 0.0
C445 C 0.08591 0.61591 0.29408 0.0
C446 C 0.00954 0.61783 0.32838 0.0
H447 H 0.10628 0.61731 0.22831 0.0
H448 H 0.18082 0.61439 0.29905 0.0
S449 S 0.68277 0.62773 0.32316 0.0
N450 N 0.7234 0.62465 0.27424 0.0
N451 N 0.8062 0.62514 0.35078 0.0
C452 C 0.88739 0.62103 0.32037 0.0
C453 C 0.84272 0.62135 0.27866 0.0
C454 C 0.86001 0.6167 0.79238 0.0
C455 C 0.93449 0.61496 0.82757 0.0
C456 C 0.90582 0.6151 0.75199 0.0
C457 C 0.02841 0.61192 0.74508 0.0
H458 H 0.76488 0.61831 0.79627 0.0
H459 H 0.84394 0.61481 0.72626 0.0
S460 S 0.26125 0.6049 0.82661 0.0
N461 N 0.13646 0.60825 0.85272 0.0
N462 N 0.22335 0.60697 0.77708 0.0
C463 C 0.10397 0.61058 0.78006 0.0
C464 C 0.05707 0.61177 0.82117 0.0
C465 C 0.07142 0.35675 0.74502 0.0
C466 C 0.95784 0.35476 0.72686 0.0
C467 C 0.08583 0.36388 0.78712 0.0
C468 C -0.013 0.36896 0.8124 0.0
H469 H 0.14951 0.35283 0.72635 0.0
H470 H 0.1744 0.36566 0.80003 0.0
S471 S 0.67135 0.36426 0.78086 0.0
N472 N 0.74533 0.35671 0.73797 0.0
N473 N 0.77248 0.37072 0.81707 0.0
C474 C 0.87318 0.36688 0.79477 0.0
C475 C 0.85848 0.35955 0.75197 0.0
C476 C 0.60825 0.86144 0.28209 0.0
C477 C 0.53028 0.86336 0.24785 0.0
C478 C 0.56595 0.86077 0.32305 0.0
C479 C 0.44366 0.86228 0.33149 0.0
H480 H 0.70279 0.85946 0.27699 0.0
H481 H 0.62951 0.85747 0.34791 0.0
S482 S 0.20206 0.86593 0.25285 0.0
N483 N 0.32465 0.86476 0.22517 0.0
N484 N 0.24537 0.8657 0.30186 0.0
C485 C 0.36502 0.86461 0.29743 0.0
C486 C 0.40803 0.86465 0.25577 0.0
C487 C 0.48916 0.10067 0.24121 0.0
C488 C 0.4363 0.12915 0.23053 0.0
C489 C 0.52331 0.094 0.28234 0.0
C490 C 0.50521 0.11546 0.31422 0.0
H491 H 0.51005 0.08409 0.21738 0.0
H492 H 0.56686 0.07223 0.28921 0.0
S493 S 0.37366 0.19354 0.30244 0.0
N494 N 0.368 0.17889 0.25527 0.0
N495 N 0.43441 0.16657 0.33224 0.0
C496 C 0.45158 0.14384 0.30407 0.0
C497 C 0.4167 0.15061 0.26232 0.0
C498 C 0.55259 0.10708 0.80476 0.0
C499 C 0.43221 0.11045 0.81497 0.0
C500 C 0.59061 0.10989 0.76347 0.0
C501 C 0.50947 0.11584 0.731 0.0
H502 H 0.61737 0.10196 0.82879 0.0
H503 H 0.68409 0.10738 0.75673 0.0
S504 S 0.1865 0.12909 0.74203 0.0
N505 N 0.23311 0.12128 0.78968 0.0
N506 N 0.30506 0.12727 0.71228 0.0
C507 C 0.38933 0.1197 0.74093 0.0
C508 C 0.35056 0.11669 0.78285 0.0
C509 C 0.50117 0.8411 0.77281 0.0
C510 C 0.45856 0.86552 0.7478 0.0
C511 C 0.5403 0.84616 0.81367 0.0
C512 C 0.53614 0.87575 0.83119 0.0
H513 H 0.50455 0.81795 0.76049 0.0
H514 H 0.5753 0.82687 0.8314 0.0
S515 S 0.42555 0.94702 0.77932 0.0
N516 N 0.41042 0.92 0.74381 0.0
N517 N 0.4836 0.92967 0.82054 0.0
C518 C 0.49357 0.90033 0.80641 0.0
C519 C 0.45443 0.89517 0.76479 0.0
loop_
_geom_bond_atom_site_label_1
_geom_bond_atom_site_label_2
_geom_bond_distance
_geom_bond_site_symmetry_2
_ccdc_geom_bond_type
Zn0 O1 2.055 . S
Zn0 O8 2.046 . S
Zn0 N16 2.036 . S
Zn0 O28 2.053 1_455 S
Zn0 O30 2.066 . S
O1 Zn0 2.055 . S
O1 C4 1.259 1_556 S
C2 O30 1.256 . S
C2 O31 1.244 1_556 S
Zn3 O5 2.046 . S
Zn3 O7 2.055 . S
Zn3 N9 2.036 . S
Zn3 O27 2.066 1_455 S
Zn3 O31 2.053 . S
C4 O1 1.259 1_554 S
C4 O5 1.254 . S
O5 Zn3 2.046 . S
O5 C4 1.254 . S
C6 O27 1.256 . S
C6 O28 1.244 1_554 S
O7 Zn3 2.055 . S
O7 C29 1.259 . S
O8 Zn0 2.046 . S
O8 C29 1.254 1_556 S
N9 Zn3 2.036 . S
N9 C10 1.298 . S
N9 N12 1.398 . S
C10 N9 1.298 . S
C10 N13 1.367 . S
C10 C23 1.481 1_455 S
C11 N12 1.299 . S
C11 N13 1.379 . S
N12 N9 1.398 . S
N12 C11 1.299 . S
N13 C10 1.367 . S
N13 C11 1.379 . S
C14 N16 1.298 . S
C14 N18 1.367 . S
C14 C22 1.481 . S
C15 N17 1.299 . S
C15 N18 1.379 1_655 S
N16 Zn0 2.036 . S
N16 C14 1.298 . S
N16 N17 1.398 1_455 S
N17 C15 1.299 . S
N17 N16 1.398 1_655 S
N18 C14 1.367 . S
N18 C15 1.379 1_455 S
H19 C22 0.980 . S
H20 C22 0.981 . S
H21 C22 0.981 . S
C22 C14 1.481 . S
C22 H19 0.980 . S
C22 H20 0.981 . S
C22 H21 0.981 . S
C23 C10 1.481 1_655 S
C23 H24 0.980 . S
C23 H25 0.981 . S
C23 H26 0.981 . S
H24 C23 0.980 . S
H25 C23 0.981 . S
H26 C23 0.981 . S
O27 Zn3 2.066 1_655 S
O27 C6 1.256 . S
O28 Zn0 2.053 1_655 S
O28 C6 1.244 1_556 S
C29 O7 1.259 . S
C29 O8 1.254 1_554 S
O30 Zn0 2.066 . S
O30 C2 1.256 . S
O31 C2 1.244 1_554 S
O31 Zn3 2.053 . S
Zn32 O33 2.055 . S
Zn32 O40 2.046 . S
Zn32 N48 2.036 . S
Zn32 O60 2.053 . S
Zn32 O62 2.066 1_655 S
O33 Zn32 2.055 . S
O33 C36 1.259 . S
C34 O62 1.256 . S
C34 O63 1.244 1_554 S
Zn35 O37 2.046 . S
Zn35 O39 2.055 . S
Zn35 N41 2.036 . S
Zn35 O59 2.066 . S
Zn35 O63 2.053 1_655 S
C36 O33 1.259 . S
C36 O37 1.254 1_554 S
O37 Zn35 2.046 . S
O37 C36 1.254 1_556 S
C38 O59 1.256 . S
C38 O60 1.244 1_556 S
O39 Zn35 2.055 . S
O39 C61 1.259 1_556 S
O40 Zn32 2.046 . S
O40 C61 1.254 . S
N41 Zn35 2.036 . S
N41 C42 1.298 . S
N41 N44 1.398 1_655 S
C42 N41 1.298 . S
C42 N45 1.367 . S
C42 C55 1.481 . S
C43 N44 1.299 . S
C43 N45 1.379 1_455 S
N44 N41 1.398 1_455 S
N44 C43 1.299 . S
N45 C42 1.367 . S
N45 C43 1.379 1_655 S
C46 N48 1.298 . S
C46 N50 1.367 . S
C46 C54 1.481 1_655 S
C47 N49 1.299 . S
C47 N50 1.379 . S
N48 Zn32 2.036 . S
N48 C46 1.298 . S
N48 N49 1.398 . S
N49 C47 1.299 . S
N49 N48 1.398 . S
N50 C46 1.367 . S
N50 C47 1.379 . S
H51 C54 0.980 . S
H52 C54 0.981 . S
H53 C54 0.981 . S
C54 C46 1.481 1_455 S
C54 H51 0.980 . S
C54 H52 0.981 . S
C54 H53 0.981 . S
C55 C42 1.481 . S
C55 H56 0.980 . S
C55 H57 0.981 . S
C55 H58 0.981 . S
H56 C55 0.980 . S
H57 C55 0.981 . S
H58 C55 0.981 . S
O59 Zn35 2.066 . S
O59 C38 1.256 . S
O60 Zn32 2.053 . S
O60 C38 1.244 1_554 S
C61 O39 1.259 1_554 S
C61 O40 1.254 . S
O62 Zn32 2.066 1_455 S
O62 C34 1.256 . S
O63 C34 1.244 1_556 S
O63 Zn35 2.053 1_455 S
Zn64 O65 2.055 . S
Zn64 O72 2.046 . S
Zn64 N80 2.036 . S
Zn64 O92 2.053 . S
Zn64 O94 2.066 1_455 S
O65 Zn64 2.055 . S
O65 C68 1.259 . S
C66 O94 1.256 . S
C66 O95 1.244 . S
Zn67 O69 2.046 . S
Zn67 O71 2.055 . S
Zn67 N73 2.036 . S
Zn67 O91 2.066 . S
Zn67 O95 2.053 1_455 S
C68 O65 1.259 . S
C68 O69 1.254 . S
O69 Zn67 2.046 . S
O69 C68 1.254 . S
C70 O91 1.256 . S
C70 O92 1.244 . S
O71 Zn67 2.055 . S
O71 C93 1.259 . S
O72 Zn64 2.046 . S
O72 C93 1.254 . S
N73 Zn67 2.036 . S
N73 C74 1.298 . S
N73 N76 1.398 1_455 S
C74 N73 1.298 . S
C74 N77 1.367 . S
C74 C87 1.481 . S
C75 N76 1.299 . S
C75 N77 1.379 1_655 S
N76 N73 1.398 1_655 S
N76 C75 1.299 . S
N77 C74 1.367 . S
N77 C75 1.379 1_455 S
C78 N80 1.298 . S
C78 N82 1.367 . S
C78 C86 1.481 1_455 S
C79 N81 1.299 . S
C79 N82 1.379 . S
N80 Zn64 2.036 . S
N80 C78 1.298 . S
N80 N81 1.398 . S
N81 C79 1.299 . S
N81 N80 1.398 . S
N82 C78 1.367 . S
N82 C79 1.379 . S
H83 C86 0.980 . S
H84 C86 0.981 . S
H85 C86 0.981 . S
C86 C78 1.481 1_655 S
C86 H83 0.980 . S
C86 H84 0.981 . S
C86 H85 0.981 . S
C87 C74 1.481 . S
C87 H88 0.980 . S
C87 H89 0.981 . S
C87 H90 0.981 . S
H88 C87 0.980 . S
H89 C87 0.981 . S
H90 C87 0.981 . S
O91 Zn67 2.066 . S
O91 C70 1.256 . S
O92 Zn64 2.053 . S
O92 C70 1.244 . S
C93 O71 1.259 . S
C93 O72 1.254 . S
O94 Zn64 2.066 1_655 S
O94 C66 1.256 . S
O95 C66 1.244 . S
O95 Zn67 2.053 1_655 S
Zn96 O97 2.055 . S
Zn96 O104 2.046 . S
Zn96 N112 2.036 . S
Zn96 O124 2.053 1_655 S
Zn96 O126 2.066 . S
O97 Zn96 2.055 . S
O97 C100 1.259 . S
C98 O126 1.256 . S
C98 O127 1.244 . S
Zn99 O101 2.046 . S
Zn99 O103 2.055 . S
Zn99 N105 2.036 . S
Zn99 O123 2.066 1_655 S
Zn99 O127 2.053 . S
C100 O97 1.259 . S
C100 O101 1.254 . S
O101 Zn99 2.046 . S
O101 C100 1.254 . S
C102 O123 1.256 . S
C102 O124 1.244 . S
O103 Zn99 2.055 . S
O103 C125 1.259 . S
O104 Zn96 2.046 . S
O104 C125 1.254 . S
N105 Zn99 2.036 . S
N105 C106 1.298 . S
N105 N108 1.398 . S
C106 N105 1.298 . S
C106 N109 1.367 . S
C106 C119 1.481 1_655 S
C107 N108 1.299 . S
C107 N109 1.379 . S
N108 N105 1.398 . S
N108 C107 1.299 . S
N109 C106 1.367 . S
N109 C107 1.379 . S
C110 N112 1.298 . S
C110 N114 1.367 . S
C110 C118 1.481 . S
C111 N113 1.299 . S
C111 N114 1.379 1_455 S
N112 Zn96 2.036 . S
N112 C110 1.298 . S
N112 N113 1.398 1_655 S
N113 C111 1.299 . S
N113 N112 1.398 1_455 S
N114 C110 1.367 . S
N114 C111 1.379 1_655 S
H115 C118 0.980 . S
H116 C118 0.981 . S
H117 C118 0.981 . S
C118 C110 1.481 . S
C118 H115 0.980 . S
C118 H116 0.981 . S
C118 H117 0.981 . S
C119 C106 1.481 1_455 S
C119 H120 0.980 . S
C119 H121 0.981 . S
C119 H122 0.981 . S
H120 C119 0.980 . S
H121 C119 0.981 . S
H122 C119 0.981 . S
O123 Zn99 2.066 1_455 S
O123 C102 1.256 . S
O124 Zn96 2.053 1_455 S
O124 C102 1.244 . S
C125 O103 1.259 . S
C125 O104 1.254 . S
O126 Zn96 2.066 . S
O126 C98 1.256 . S
O127 C98 1.244 . S
O127 Zn99 2.053 . S
Zn128 O129 2.055 . S
Zn128 O136 2.046 . S
Zn128 N144 2.036 . S
Zn128 O156 2.053 . S
Zn128 O158 2.066 . S
O129 Zn128 2.055 . S
O129 C132 1.259 1_556 S
C130 O158 1.256 . S
C130 O159 1.244 1_556 S
Zn131 O133 2.046 . S
Zn131 O135 2.055 . S
Zn131 N137 2.036 . S
Zn131 O155 2.066 . S
Zn131 O159 2.053 . S
C132 O129 1.259 1_554 S
C132 O133 1.254 . S
O133 Zn131 2.046 . S
O133 C132 1.254 . S
C134 O155 1.256 . S
C134 O156 1.244 1_554 S
O135 Zn131 2.055 . S
O135 C157 1.259 . S
O136 Zn128 2.046 . S
O136 C157 1.254 1_556 S
N137 Zn131 2.036 . S
N137 C138 1.298 . S
N137 N140 1.398 . S
C138 N137 1.298 . S
C138 N141 1.367 . S
C138 C151 1.481 . S
C139 N140 1.299 . S
C139 N141 1.379 . S
N140 N137 1.398 . S
N140 C139 1.299 . S
N141 C138 1.367 . S
N141 C139 1.379 . S
C142 N144 1.298 . S
C142 N146 1.367 . S
C142 C150 1.481 . S
C143 N145 1.299 . S
C143 N146 1.379 . S
N144 Zn128 2.036 . S
N144 C142 1.298 . S
N144 N145 1.398 . S
N145 C143 1.299 . S
N145 N144 1.398 . S
N146 C142 1.367 . S
N146 C143 1.379 . S
H147 C150 0.980 . S
H148 C150 0.981 . S
H149 C150 0.981 . S
C150 C142 1.481 . S
C150 H147 0.980 . S
C150 H148 0.981 . S
C150 H149 0.981 . S
C151 C138 1.481 . S
C151 H152 0.980 . S
C151 H153 0.981 . S
C151 H154 0.981 . S
H152 C151 0.980 . S
H153 C151 0.981 . S
H154 C151 0.981 . S
O155 Zn131 2.066 . S
O155 C134 1.256 . S
O156 Zn128 2.053 . S
O156 C134 1.244 1_556 S
C157 O135 1.259 . S
C157 O136 1.254 1_554 S
O158 Zn128 2.066 . S
O158 C130 1.256 . S
O159 C130 1.244 1_554 S
O159 Zn131 2.053 . S
Zn160 O161 2.055 . S
Zn160 O168 2.046 . S
Zn160 N176 2.036 . S
Zn160 O188 2.053 . S
Zn160 O190 2.066 . S
O161 Zn160 2.055 . S
O161 C164 1.259 . S
C162 O190 1.256 . S
C162 O191 1.244 1_554 S
Zn163 O165 2.046 . S
Zn163 O167 2.055 . S
Zn163 N169 2.036 . S
Zn163 O187 2.066 . S
Zn163 O191 2.053 . S
C164 O161 1.259 . S
C164 O165 1.254 1_554 S
O165 Zn163 2.046 . S
O165 C164 1.254 1_556 S
C166 O187 1.256 . S
C166 O188 1.244 1_556 S
O167 Zn163 2.055 . S
O167 C189 1.259 1_556 S
O168 Zn160 2.046 . S
O168 C189 1.254 . S
N169 Zn163 2.036 . S
N169 C170 1.298 . S
N169 N172 1.398 . S
C170 N169 1.298 . S
C170 N173 1.367 . S
C170 C183 1.481 . S
C171 N172 1.299 . S
C171 N173 1.379 . S
N172 N169 1.398 . S
N172 C171 1.299 . S
N173 C170 1.367 . S
N173 C171 1.379 . S
C174 N176 1.298 . S
C174 N178 1.367 . S
C174 C182 1.481 . S
C175 N177 1.299 . S
C175 N178 1.379 . S
N176 Zn160 2.036 . S
N176 C174 1.298 . S
N176 N177 1.398 . S
N177 C175 1.299 . S
N177 N176 1.398 . S
N178 C174 1.367 . S
N178 C175 1.379 . S
H179 C182 0.980 . S
H180 C182 0.981 . S
H181 C182 0.981 . S
C182 C174 1.481 . S
C182 H179 0.980 . S
C182 H180 0.981 . S
C182 H181 0.981 . S
C183 C170 1.481 . S
C183 H184 0.980 . S
C183 H185 0.981 . S
C183 H186 0.981 . S
H184 C183 0.980 . S
H185 C183 0.981 . S
H186 C183 0.981 . S
O187 Zn163 2.066 . S
O187 C166 1.256 . S
O188 Zn160 2.053 . S
O188 C166 1.244 1_554 S
C189 O167 1.259 1_554 S
C189 O168 1.254 . S
O190 Zn160 2.066 . S
O190 C162 1.256 . S
O191 C162 1.244 1_556 S
O191 Zn163 2.053 . S
Zn192 O193 2.055 . S
Zn192 O200 2.046 . S
Zn192 N208 2.036 . S
Zn192 O220 2.053 . S
Zn192 O222 2.066 . S
O193 Zn192 2.055 . S
O193 C196 1.259 . S
C194 O222 1.256 . S
C194 O223 1.244 . S
Zn195 O197 2.046 . S
Zn195 O199 2.055 . S
Zn195 N201 2.036 . S
Zn195 O219 2.066 . S
Zn195 O223 2.053 . S
C196 O193 1.259 . S
C196 O197 1.254 . S
O197 Zn195 2.046 . S
O197 C196 1.254 . S
C198 O219 1.256 . S
C198 O220 1.244 . S
O199 Zn195 2.055 . S
O199 C221 1.259 . S
O200 Zn192 2.046 . S
O200 C221 1.254 . S
N201 Zn195 2.036 . S
N201 C202 1.298 . S
N201 N204 1.398 . S
C202 N201 1.298 . S
C202 N205 1.367 . S
C202 C215 1.481 . S
C203 N204 1.299 . S
C203 N205 1.379 . S
N204 N201 1.398 . S
N204 C203 1.299 . S
N205 C202 1.367 . S
N205 C203 1.379 . S
C206 N208 1.298 . S
C206 N210 1.367 . S
C206 C214 1.481 . S
C207 N209 1.299 . S
C207 N210 1.379 . S
N208 Zn192 2.036 . S
N208 C206 1.298 . S
N208 N209 1.398 . S
N209 C207 1.299 . S
N209 N208 1.398 . S
N210 C206 1.367 . S
N210 C207 1.379 . S
H211 C214 0.980 . S
H212 C214 0.981 . S
H213 C214 0.981 . S
C214 C206 1.481 . S
C214 H211 0.980 . S
C214 H212 0.981 . S
C214 H213 0.981 . S
C215 C202 1.481 . S
C215 H216 0.980 . S
C215 H217 0.981 . S
C215 H218 0.981 . S
H216 C215 0.980 . S
H217 C215 0.981 . S
H218 C215 0.981 . S
O219 Zn195 2.066 . S
O219 C198 1.256 . S
O220 Zn192 2.053 . S
O220 C198 1.244 . S
C221 O199 1.259 . S
C221 O200 1.254 . S
O222 Zn192 2.066 . S
O222 C194 1.256 . S
O223 C194 1.244 . S
O223 Zn195 2.053 . S
Zn224 O225 2.055 . S
Zn224 O232 2.046 . S
Zn224 N240 2.036 . S
Zn224 O252 2.053 . S
Zn224 O254 2.066 . S
O225 Zn224 2.055 . S
O225 C228 1.259 . S
C226 O254 1.256 . S
C226 O255 1.244 . S
Zn227 O229 2.046 . S
Zn227 O231 2.055 . S
Zn227 N233 2.036 . S
Zn227 O251 2.066 . S
Zn227 O255 2.053 . S
C228 O225 1.259 . S
C228 O229 1.254 . S
O229 Zn227 2.046 . S
O229 C228 1.254 . S
C230 O251 1.256 . S
C230 O252 1.244 . S
O231 Zn227 2.055 . S
O231 C253 1.259 . S
O232 Zn224 2.046 . S
O232 C253 1.254 . S
N233 Zn227 2.036 . S
N233 C234 1.298 . S
N233 N236 1.398 . S
C234 N233 1.298 . S
C234 N237 1.367 . S
C234 C247 1.481 . S
C235 N236 1.299 . S
C235 N237 1.379 . S
N236 N233 1.398 . S
N236 C235 1.299 . S
N237 C234 1.367 . S
N237 C235 1.379 . S
C238 N240 1.298 . S
C238 N242 1.367 . S
C238 C246 1.481 . S
C239 N241 1.299 . S
C239 N242 1.379 . S
N240 Zn224 2.036 . S
N240 C238 1.298 . S
N240 N241 1.398 . S
N241 C239 1.299 . S
N241 N240 1.398 . S
N242 C238 1.367 . S
N242 C239 1.379 . S
H243 C246 0.980 . S
H244 C246 0.981 . S
H245 C246 0.981 . S
C246 C238 1.481 . S
C246 H243 0.980 . S
C246 H244 0.981 . S
C246 H245 0.981 . S
C247 C234 1.481 . S
C247 H248 0.980 . S
C247 H249 0.981 . S
C247 H250 0.981 . S
H248 C247 0.980 . S
H249 C247 0.981 . S
H250 C247 0.981 . S
O251 Zn227 2.066 . S
O251 C230 1.256 . S
O252 Zn224 2.053 . S
O252 C230 1.244 . S
C253 O231 1.259 . S
C253 O232 1.254 . S
O254 Zn224 2.066 . S
O254 C226 1.256 . S
O255 C226 1.244 . S
O255 Zn227 2.053 . S
C256 C257 1.369 . S
C256 C258 1.419 . S
C256 H260 0.930 . S
C257 C256 1.369 . S
C257 C266 1.429 1_554 S
C258 C256 1.419 . S
C258 C259 1.363 . S
C258 H261 0.929 . S
C259 C258 1.363 . S
C259 C265 1.428 1_554 S
H260 C256 0.930 . S
H261 C258 0.929 . S
S262 N263 1.613 . S
S262 N264 1.610 . S
N263 S262 1.613 . S
N263 C266 1.350 . S
N264 S262 1.610 . S
N264 C265 1.351 . S
C265 C259 1.428 1_556 S
C265 N264 1.351 . S
C265 C266 1.434 . S
C266 C257 1.429 1_556 S
C266 N263 1.350 . S
C266 C265 1.434 . S
C267 C268 1.369 1_556 S
C267 C269 1.419 . S
C267 H271 0.930 . S
C268 C267 1.369 1_554 S
C268 C277 1.429 . S
C269 C267 1.419 . S
C269 C270 1.363 1_556 S
C269 H272 0.929 . S
C270 C269 1.363 1_554 S
C270 C276 1.428 . S
H271 C267 0.930 . S
H272 C269 0.929 . S
S273 N274 1.613 . S
S273 N275 1.610 . S
N274 S273 1.613 . S
N274 C277 1.350 . S
N275 S273 1.610 . S
N275 C276 1.351 . S
C276 C270 1.428 . S
C276 N275 1.351 . S
C276 C277 1.434 . S
C277 C268 1.429 . S
C277 N274 1.350 . S
C277 C276 1.434 . S
C278 C279 1.369 . S
C278 C280 1.419 . S
C278 H282 0.930 . S
C279 C278 1.369 . S
C279 C288 1.429 . S
C280 C278 1.419 . S
C280 C281 1.363 . S
C280 H283 0.929 . S
C281 C280 1.363 . S
C281 C287 1.428 . S
H282 C278 0.930 . S
H283 C280 0.929 . S
S284 N285 1.613 . S
S284 N286 1.610 . S
N285 S284 1.613 . S
N285 C288 1.350 . S
N286 S284 1.610 . S
N286 C287 1.351 . S
C287 C281 1.428 . S
C287 N286 1.351 . S
C287 C288 1.434 . S
C288 C279 1.429 . S
C288 N285 1.350 . S
C288 C287 1.434 . S
C289 C290 1.369 . S
C289 C291 1.419 . S
C289 H293 0.930 . S
C290 C289 1.369 . S
C290 C299 1.429 . S
C291 C289 1.419 . S
C291 C292 1.363 . S
C291 H294 0.929 . S
C292 C291 1.363 . S
C292 C298 1.428 . S
H293 C289 0.930 . S
H294 C291 0.929 . S
S295 N296 1.613 . S
S295 N297 1.610 . S
N296 S295 1.613 . S
N296 C299 1.350 . S
N297 S295 1.610 . S
N297 C298 1.351 . S
C298 C292 1.428 . S
C298 N297 1.351 . S
C298 C299 1.434 . S
C299 C290 1.429 . S
C299 N296 1.350 . S
C299 C298 1.434 . S
C300 C301 1.369 1_456 S
C300 C302 1.419 . S
C300 H304 0.930 1_455 S
C301 C300 1.369 1_654 S
C301 C310 1.429 1_655 S
C302 C300 1.419 . S
C302 C303 1.363 1_556 S
C302 H305 0.929 . S
C303 C302 1.363 1_554 S
C303 C309 1.428 . S
H304 C300 0.930 1_655 S
H305 C302 0.929 . S
S306 N307 1.613 1_455 S
S306 N308 1.610 . S
N307 S306 1.613 1_655 S
N307 C310 1.350 1_655 S
N308 S306 1.610 . S
N308 C309 1.351 . S
C309 C303 1.428 . S
C309 N308 1.351 . S
C309 C310 1.434 . S
C310 C301 1.429 1_455 S
C310 N307 1.350 1_455 S
C310 C309 1.434 . S
C311 C312 1.369 1_656 S
C311 C313 1.419 . S
C311 H315 0.930 1_655 S
C312 C311 1.369 1_454 S
C312 C321 1.429 1_455 S
C313 C311 1.419 . S
C313 C314 1.363 1_556 S
C313 H316 0.929 . S
C314 C313 1.363 1_554 S
C314 C320 1.428 . S
H315 C311 0.930 1_455 S
H316 C313 0.929 . S
S317 N318 1.613 1_655 S
S317 N319 1.610 . S
N318 S317 1.613 1_455 S
N318 C321 1.350 1_455 S
N319 S317 1.610 . S
N319 C320 1.351 . S
C320 C314 1.428 . S
C320 N319 1.351 . S
C320 C321 1.434 . S
C321 C312 1.429 1_655 S
C321 N318 1.350 1_655 S
C321 C320 1.434 . S
C322 C323 1.369 . S
C322 C324 1.419 . S
C322 H326 0.930 . S
C323 C322 1.369 . S
C323 C332 1.429 . S
C324 C322 1.419 . S
C324 C325 1.363 1_455 S
C324 H327 0.929 1_455 S
C325 C324 1.363 1_655 S
C325 C331 1.428 1_655 S
H326 C322 0.930 . S
H327 C324 0.929 1_655 S
S328 N329 1.613 . S
S328 N330 1.610 1_455 S
N329 S328 1.613 . S
N329 C332 1.350 . S
N330 S328 1.610 1_655 S
N330 C331 1.351 1_655 S
C331 C325 1.428 1_455 S
C331 N330 1.351 1_455 S
C331 C332 1.434 . S
C332 C323 1.429 . S
C332 N329 1.350 . S
C332 C331 1.434 . S
C333 C334 1.369 . S
C333 C335 1.419 . S
C333 H337 0.930 . S
C334 C333 1.369 . S
C334 C343 1.429 . S
C335 C333 1.419 . S
C335 C336 1.363 1_655 S
C335 H338 0.929 1_655 S
C336 C335 1.363 1_455 S
C336 C342 1.428 1_455 S
H337 C333 0.930 . S
H338 C335 0.929 1_455 S
S339 N340 1.613 . S
S339 N341 1.610 1_655 S
N340 S339 1.613 . S
N340 C343 1.350 . S
N341 S339 1.610 1_455 S
N341 C342 1.351 1_455 S
C342 C336 1.428 1_655 S
C342 N341 1.351 1_655 S
C342 C343 1.434 . S
C343 C334 1.429 . S
C343 N340 1.350 . S
C343 C342 1.434 . S
C344 C345 1.369 . S
C344 C346 1.419 . S
C344 H348 0.930 . S
C345 C344 1.369 . S
C345 C354 1.429 1_654 S
C346 C344 1.419 . S
C346 C347 1.363 1_655 S
C346 H349 0.929 . S
C347 C346 1.363 1_455 S
C347 C353 1.428 1_554 S
H348 C344 0.930 . S
H349 C346 0.929 . S
S350 N351 1.613 . S
S350 N352 1.610 . S
N351 S350 1.613 . S
N351 C354 1.350 . S
N352 S350 1.610 . S
N352 C353 1.351 . S
C353 C347 1.428 1_556 S
C353 N352 1.351 . S
C353 C354 1.434 . S
C354 C345 1.429 1_456 S
C354 N351 1.350 . S
C354 C353 1.434 . S
C355 C356 1.369 1_455 S
C355 C357 1.419 . S
C355 H359 0.930 . S
C356 C355 1.369 1_655 S
C356 C365 1.429 . S
C357 C355 1.419 . S
C357 C358 1.363 . S
C357 H360 0.929 . S
C358 C357 1.363 . S
C358 C364 1.428 1_455 S
H359 C355 0.930 . S
H360 C357 0.929 . S
S361 N362 1.613 . S
S361 N363 1.610 . S
N362 S361 1.613 . S
N362 C365 1.350 . S
N363 S361 1.610 . S
N363 C364 1.351 . S
C364 C358 1.428 1_655 S
C364 N363 1.351 . S
C364 C365 1.434 . S
C365 C356 1.429 . S
C365 N362 1.350 . S
C365 C364 1.434 . S
C366 C367 1.369 1_556 S
C366 C368 1.419 1_565 S
C366 H370 0.930 . S
C367 C366 1.369 1_554 S
C367 C376 1.429 . S
C368 C366 1.419 1_545 S
C368 C369 1.363 1_556 S
C368 H371 0.929 . S
C369 C368 1.363 1_554 S
C369 C375 1.428 . S
H370 C366 0.930 . S
H371 C368 0.929 . S
S372 N373 1.613 1_545 S
S372 N374 1.610 . S
N373 S372 1.613 1_565 S
N373 C376 1.350 . S
N374 S372 1.610 . S
N374 C375 1.351 . S
C375 C369 1.428 . S
C375 N374 1.351 . S
C375 C376 1.434 1_545 S
C376 C367 1.429 . S
C376 N373 1.350 . S
C376 C375 1.434 1_565 S
C377 C378 1.369 . S
C377 C379 1.419 1_545 S
C377 H381 0.930 . S
C378 C377 1.369 . S
C378 C387 1.429 . S
C379 C377 1.419 1_565 S
C379 C380 1.363 . S
C379 H382 0.929 . S
C380 C379 1.363 . S
C380 C386 1.428 . S
H381 C377 0.930 . S
H382 C379 0.929 . S
S383 N384 1.613 1_565 S
S383 N385 1.610 . S
N384 S383 1.613 1_545 S
N384 C387 1.350 . S
N385 S383 1.610 . S
N385 C386 1.351 . S
C386 C380 1.428 . S
C386 N385 1.351 . S
C386 C387 1.434 1_565 S
C387 C378 1.429 . S
C387 N384 1.350 . S
C387 C386 1.434 1_545 S
C388 C389 1.369 . S
C388 C390 1.419 . S
C388 H392 0.930 1_556 S
C389 C388 1.369 . S
C389 C398 1.429 . S
C390 C388 1.419 . S
C390 C391 1.363 . S
C390 H393 0.929 1_556 S
C391 C390 1.363 . S
C391 C397 1.428 . S
H392 C388 0.930 1_554 S
H393 C390 0.929 1_554 S
S394 N395 1.613 . S
S394 N396 1.610 . S
N395 S394 1.613 . S
N395 C398 1.350 . S
N396 S394 1.610 . S
N396 C397 1.351 . S
C397 C391 1.428 . S
C397 N396 1.351 . S
C397 C398 1.434 . S
C398 C389 1.429 . S
C398 N395 1.350 . S
C398 C397 1.434 . S
C399 C400 1.369 1_554 S
C399 C401 1.419 . S
C399 H403 0.930 . S
C400 C399 1.369 1_556 S
C400 C409 1.429 . S
C401 C399 1.419 . S
C401 C402 1.363 1_554 S
C401 H404 0.929 . S
C402 C401 1.363 1_556 S
C402 C408 1.428 . S
H403 C399 0.930 . S
H404 C401 0.929 . S
S405 N406 1.613 . S
S405 N407 1.610 . S
N406 S405 1.613 . S
N406 C409 1.350 . S
N407 S405 1.610 . S
N407 C408 1.351 . S
C408 C402 1.428 . S
C408 N407 1.351 . S
C408 C409 1.434 . S
C409 C400 1.429 . S
C409 N406 1.350 . S
C409 C408 1.434 . S
C410 C411 1.369 . S
C410 C412 1.419 . S
C410 H414 0.930 . S
C411 C410 1.369 . S
C411 C420 1.429 . S
C412 C410 1.419 . S
C412 C413 1.363 . S
C412 H415 0.929 . S
C413 C412 1.363 . S
C413 C419 1.428 . S
H414 C410 0.930 . S
H415 C412 0.929 . S
S416 N417 1.613 . S
S416 N418 1.610 . S
N417 S416 1.613 . S
N417 C420 1.350 . S
N418 S416 1.610 . S
N418 C419 1.351 . S
C419 C413 1.428 . S
C419 N418 1.351 . S
C419 C420 1.434 . S
C420 C411 1.429 . S
C420 N417 1.350 . S
C420 C419 1.434 . S
C421 C422 1.369 . S
C421 C423 1.419 . S
C421 H425 0.930 . S
C422 C421 1.369 . S
C422 C431 1.429 . S
C423 C421 1.419 . S
C423 C424 1.363 . S
C423 H426 0.929 . S
C424 C423 1.363 . S
C424 C430 1.428 . S
H425 C421 0.930 . S
H426 C423 0.929 . S
S427 N428 1.613 . S
S427 N429 1.610 . S
N428 S427 1.613 . S
N428 C431 1.350 . S
N429 S427 1.610 . S
N429 C430 1.351 . S
C430 C424 1.428 . S
C430 N429 1.351 . S
C430 C431 1.434 . S
C431 C422 1.429 . S
C431 N428 1.350 . S
C431 C430 1.434 . S
C432 C433 1.370 . S
C432 C434 1.419 . S
C432 H436 0.930 . S
C433 C432 1.370 . S
C433 C442 1.428 1_655 S
C434 C432 1.419 . S
C434 C435 1.361 1_655 S
C434 H437 0.929 . S
C435 C434 1.361 1_455 S
C435 C441 1.431 . S
H436 C432 0.930 . S
H437 C434 0.929 . S
S438 N439 1.613 . S
S438 N440 1.610 . S
N439 S438 1.613 . S
N439 C442 1.350 . S
N440 S438 1.610 . S
N440 C441 1.351 . S
C441 C435 1.431 . S
C441 N440 1.351 . S
C441 C442 1.434 . S
C442 C433 1.428 1_455 S
C442 N439 1.350 . S
C442 C441 1.434 . S
C443 C444 1.369 1_455 S
C443 C445 1.419 . S
C443 H447 0.930 . S
C444 C443 1.369 1_655 S
C444 C453 1.429 . S
C445 C443 1.419 . S
C445 C446 1.359 1_455 S
C445 H448 0.929 . S
C446 C445 1.359 1_655 S
C446 C452 1.433 . S
H447 C443 0.930 . S
H448 C445 0.929 . S
S449 N450 1.613 . S
S449 N451 1.610 . S
N450 S449 1.613 . S
N450 C453 1.350 . S
N451 S449 1.610 . S
N451 C452 1.351 . S
C452 C446 1.433 . S
C452 N451 1.351 . S
C452 C453 1.434 . S
C453 C444 1.429 . S
C453 N450 1.350 . S
C453 C452 1.434 . S
C454 C455 1.369 . S
C454 C456 1.419 . S
C454 H458 0.930 . S
C455 C454 1.369 . S
C455 C464 1.429 1_655 S
C456 C454 1.419 . S
C456 C457 1.363 1_655 S
C456 H459 0.929 . S
C457 C456 1.363 1_455 S
C457 C463 1.428 . S
H458 C454 0.930 . S
H459 C456 0.929 . S
S460 N461 1.613 . S
S460 N462 1.610 . S
N461 S460 1.613 . S
N461 C464 1.350 . S
N462 S460 1.610 . S
N462 C463 1.351 . S
C463 C457 1.428 . S
C463 N462 1.351 . S
C463 C464 1.434 . S
C464 C455 1.429 1_455 S
C464 N461 1.350 . S
C464 C463 1.434 . S
C465 C466 1.369 1_455 S
C465 C467 1.419 . S
C465 H469 0.930 . S
C466 C465 1.369 1_655 S
C466 C475 1.429 . S
C467 C465 1.419 . S
C467 C468 1.363 . S
C467 H470 0.929 . S
C468 C467 1.363 . S
C468 C474 1.428 1_455 S
H469 C465 0.930 . S
H470 C467 0.929 . S
S471 N472 1.613 . S
S471 N473 1.610 . S
N472 S471 1.613 . S
N472 C475 1.350 . S
N473 S471 1.610 . S
N473 C474 1.351 . S
C474 C468 1.428 1_655 S
C474 N473 1.351 . S
C474 C475 1.434 . S
C475 C466 1.429 . S
C475 N472 1.350 . S
C475 C474 1.434 . S
C476 C477 1.369 . S
C476 C478 1.419 . S
C476 H480 0.930 . S
C477 C476 1.369 . S
C477 C486 1.429 . S
C478 C476 1.419 . S
C478 C479 1.363 . S
C478 H481 0.929 . S
C479 C478 1.363 . S
C479 C485 1.428 . S
H480 C476 0.930 . S
H481 C478 0.929 . S
S482 N483 1.613 . S
S482 N484 1.610 . S
N483 S482 1.613 . S
N483 C486 1.350 . S
N484 S482 1.610 . S
N484 C485 1.351 . S
C485 C479 1.428 . S
C485 N484 1.351 . S
C485 C486 1.434 . S
C486 C477 1.429 . S
C486 N483 1.350 . S
C486 C485 1.434 . S
C487 C488 1.369 . S
C487 C489 1.419 . S
C487 H491 0.930 . S
C488 C487 1.369 . S
C488 C497 1.429 . S
C489 C487 1.419 . S
C489 C490 1.363 . S
C489 H492 0.929 . S
C490 C489 1.363 . S
C490 C496 1.428 . S
H491 C487 0.930 . S
H492 C489 0.929 . S
S493 N494 1.613 . S
S493 N495 1.610 . S
N494 S493 1.613 . S
N494 C497 1.350 . S
N495 S493 1.610 . S
N495 C496 1.351 . S
C496 C490 1.428 . S
C496 N495 1.351 . S
C496 C497 1.434 . S
C497 C488 1.429 . S
C497 N494 1.350 . S
C497 C496 1.434 . S
C498 C499 1.369 . S
C498 C500 1.419 . S
C498 H502 0.930 . S
C499 C498 1.369 . S
C499 C508 1.429 . S
C500 C498 1.419 . S
C500 C501 1.363 . S
C500 H503 0.929 . S
C501 C500 1.363 . S
C501 C507 1.428 . S
H502 C498 0.930 . S
H503 C500 0.929 . S
S504 N505 1.613 . S
S504 N506 1.610 . S
N505 S504 1.613 . S
N505 C508 1.350 . S
N506 S504 1.610 . S
N506 C507 1.351 . S
C507 C501 1.428 . S
C507 N506 1.351 . S
C507 C508 1.434 . S
C508 C499 1.429 . S
C508 N505 1.350 . S
C508 C507 1.434 . S
C509 C510 1.369 . S
C509 C511 1.419 . S
C509 H513 0.930 . S
C510 C509 1.369 . S
C510 C519 1.429 . S
C511 C509 1.419 . S
C511 C512 1.363 . S
C511 H514 0.929 . S
C512 C511 1.363 . S
C512 C518 1.428 . S
H513 C509 0.930 . S
H514 C511 0.929 . S
S515 N516 1.613 . S
S515 N517 1.610 . S
N516 S515 1.613 . S
N516 C519 1.350 . S
N517 S515 1.610 . S
N517 C518 1.351 . S
C518 C512 1.428 . S
C518 N517 1.351 . S
C518 C519 1.434 . S
C519 C510 1.429 . S
C519 N516 1.350 . S
C519 C518 1.434 . S
C257 C4 1.366 . S
C259 C6 1.368 . S
C268 C34 1.368 . S
C270 C61 1.365 . S
C279 C66 1.368 . S
C281 C93 1.366 . S
C290 C100 1.367 . S
C292 C102 1.367 . S
C301 C132 1.365 . S
C303 C134 1.367 . S
C312 C189 1.365 . S
C314 C162 1.367 . S
C323 C194 1.367 . S
C325 C221 1.367 . S
C334 C230 1.367 . S
C336 C228 1.366 . S
C345 C36 1.515 . S
C347 C29 1.512 . S
C356 C125 1.514 . S
C358 C68 1.515 . S
C367 C157 1.513 . S
C369 C164 1.515 . S
C378 C196 1.514 . S
C380 C253 1.514 . S
C389 C2 1.593 . S
C391 C166 1.597 . S
C400 C130 1.596 . S
C402 C38 1.595 . S
C411 C70 1.593 . S
C413 C226 1.597 . S
C422 C98 1.594 . S
C424 C198 1.596 . S
C433 N13 1.458 1_655 S
C435 N109 1.459 1_455 S
C444 N50 1.458 . S
C446 N82 1.459 1_655 S
C455 N45 1.544 . S
C457 N77 1.551 . S
C466 N114 1.552 . S
C468 N18 1.543 . S
C477 N141 1.463 . S
C479 N237 1.457 . S
C488 N178 1.457 . S
C490 N210 1.462 . S
C499 N173 1.541 . S
C501 N205 1.546 . S
C510 N242 1.553 . S
C512 N146 1.543 . S
