# Generated by pormake.
# Topology fnq, (5)-cn, num edge types: 1
# Building blocks:
#     Node 0, Type 0, BuildingBlock: BEQFEK_clean_sbu_0, # of connection points: 5
#     Node 1, Type 0, BuildingBlock: BEQFEK_clean_sbu_0, # of connection points: 5
#     Node 2, Type 0, BuildingBlock: BEQFEK_clean_sbu_0, # of connection points: 5
#     Node 3, Type 0, BuildingBlock: BEQFEK_clean_sbu_0, # of connection points: 5
#     Node 4, Type 0, BuildingBlock: BEQFEK_clean_sbu_0, # of connection points: 5
#     Node 5, Type 0, BuildingBlock: BEQFEK_clean_sbu_0, # of connection points: 5
#     Node 6, Type 0, BuildingBlock: BEQFEK_clean_sbu_0, # of connection points: 5
#     Node 7, Type 0, BuildingBlock: BEQFEK_clean_sbu_0, # of connection points: 5
#     Node 8, Type 0, BuildingBlock: BEQFEK_clean_sbu_0, # of connection points: 5
#     Node 9, Type 0, BuildingBlock: BEQFEK_clean_sbu_0, # of connection points: 5
#     Node 10, Type 0, BuildingBlock: BEQFEK_clean_sbu_0, # of connection points: 5
#     Node 11, Type 0, BuildingBlock: BEQFEK_clean_sbu_0, # of connection points: 5
#     Node 12, Type 0, BuildingBlock: BEQFEK_clean_sbu_0, # of connection points: 5
#     Node 13, Type 0, BuildingBlock: BEQFEK_clean_sbu_0, # of connection points: 5
#     Node 14, Type 0, BuildingBlock: BEQFEK_clean_sbu_0, # of connection points: 5
#     Node 15, Type 0, BuildingBlock: BEQFEK_clean_sbu_0, # of connection points: 5
#     Node 16, Type 0, BuildingBlock: BEQFEK_clean_sbu_0, # of connection points: 5
#     Node 17, Type 0, BuildingBlock: BEQFEK_clean_sbu_0, # of connection points: 5
#     Edge 18, Type (0, 0), BuildingBlock: TEMPAE_clean_linker_10, # of connection points: 2
#     Edge 19, Type (0, 0), BuildingBlock: TEMPAE_clean_linker_10, # of connection points: 2
#     Edge 20, Type (0, 0), BuildingBlock: TEMPAE_clean_linker_10, # of connection points: 2
#     Edge 21, Type (0, 0), BuildingBlock: TEMPAE_clean_linker_10, # of connection points: 2
#     Edge 22, Type (0, 0), BuildingBlock: TEMPAE_clean_linker_10, # of connection points: 2
#     Edge 23, Type (0, 0), BuildingBlock: TEMPAE_clean_linker_10, # of connection points: 2
#     Edge 24, Type (0, 0), BuildingBlock: TEMPAE_clean_linker_10, # of connection points: 2
#     Edge 25, Type (0, 0), BuildingBlock: TEMPAE_clean_linker_10, # of connection points: 2
#     Edge 26, Type (0, 0), BuildingBlock: TEMPAE_clean_linker_10, # of connection points: 2
#     Edge 27, Type (0, 0), BuildingBlock: TEMPAE_clean_linker_10, # of connection points: 2
#     Edge 28, Type (0, 0), BuildingBlock: TEMPAE_clean_linker_10, # of connection points: 2
#     Edge 29, Type (0, 0), BuildingBlock: TEMPAE_clean_linker_10, # of connection points: 2
#     Edge 30, Type (0, 0), BuildingBlock: TEMPAE_clean_linker_10, # of connection points: 2
#     Edge 31, Type (0, 0), BuildingBlock: TEMPAE_clean_linker_10, # of connection points: 2
#     Edge 32, Type (0, 0), BuildingBlock: TEMPAE_clean_linker_10, # of connection points: 2
#     Edge 33, Type (0, 0), BuildingBlock: TEMPAE_clean_linker_10, # of connection points: 2
#     Edge 34, Type (0, 0), BuildingBlock: TEMPAE_clean_linker_10, # of connection points: 2
#     Edge 35, Type (0, 0), BuildingBlock: TEMPAE_clean_linker_10, # of connection points: 2
#     Edge 36, Type (0, 0), BuildingBlock: TEMPAE_clean_linker_10, # of connection points: 2
#     Edge 37, Type (0, 0), BuildingBlock: TEMPAE_clean_linker_10, # of connection points: 2
#     Edge 38, Type (0, 0), BuildingBlock: TEMPAE_clean_linker_10, # of connection points: 2
#     Edge 39, Type (0, 0), BuildingBlock: TEMPAE_clean_linker_10, # of connection points: 2
#     Edge 40, Type (0, 0), BuildingBlock: TEMPAE_clean_linker_10, # of connection points: 2
#     Edge 41, Type (0, 0), BuildingBlock: TEMPAE_clean_linker_10, # of connection points: 2
#     Edge 42, Type (0, 0), BuildingBlock: TEMPAE_clean_linker_10, # of connection points: 2
#     Edge 43, Type (0, 0), BuildingBlock: TEMPAE_clean_linker_10, # of connection points: 2
#     Edge 44, Type (0, 0), BuildingBlock: TEMPAE_clean_linker_10, # of connection points: 2
#     Edge 45, Type (0, 0), BuildingBlock: TEMPAE_clean_linker_10, # of connection points: 2
#     Edge 46, Type (0, 0), BuildingBlock: TEMPAE_clean_linker_10, # of connection points: 2
#     Edge 47, Type (0, 0), BuildingBlock: TEMPAE_clean_linker_10, # of connection points: 2
#     Edge 48, Type (0, 0), BuildingBlock: TEMPAE_clean_linker_10, # of connection points: 2
#     Edge 49, Type (0, 0), BuildingBlock: TEMPAE_clean_linker_10, # of connection points: 2
#     Edge 50, Type (0, 0), BuildingBlock: TEMPAE_clean_linker_10, # of connection points: 2
#     Edge 51, Type (0, 0), BuildingBlock: TEMPAE_clean_linker_10, # of connection points: 2
#     Edge 52, Type (0, 0), BuildingBlock: TEMPAE_clean_linker_10, # of connection points: 2
#     Edge 53, Type (0, 0), BuildingBlock: TEMPAE_clean_linker_10, # of connection points: 2
#     Edge 54, Type (0, 0), BuildingBlock: TEMPAE_clean_linker_10, # of connection points: 2
#     Edge 55, Type (0, 0), BuildingBlock: TEMPAE_clean_linker_10, # of connection points: 2
#     Edge 56, Type (0, 0), BuildingBlock: TEMPAE_clean_linker_10, # of connection points: 2
#     Edge 57, Type (0, 0), BuildingBlock: TEMPAE_clean_linker_10, # of connection points: 2
#     Edge 58, Type (0, 0), BuildingBlock: TEMPAE_clean_linker_10, # of connection points: 2
#     Edge 59, Type (0, 0), BuildingBlock: TEMPAE_clean_linker_10, # of connection points: 2
#     Edge 60, Type (0, 0), BuildingBlock: TEMPAE_clean_linker_10, # of connection points: 2
#     Edge 61, Type (0, 0), BuildingBlock: TEMPAE_clean_linker_10, # of connection points: 2
#     Edge 62, Type (0, 0), BuildingBlock: TEMPAE_clean_linker_10, # of connection points: 2
# Relax obj value: 0.369
# Max RMSD: 0.234
# Mean RMSD: 0.218
data_MOF--net-fnq--node1-BEQFEK_clean_sbu_0--edge1-TEMPAE_clean_linker_10
_symmetry_space_group_name_H-M    P1
_symmetry_Int_Tables_number       1
_symmetry_cell_setting            triclinic
loop_
_symmetry_equiv_pos_as_xyz
'x, y, z'
_cell_length_a     51.897939
_cell_length_b     51.881862
_cell_length_c     37.144302
_cell_angle_alpha  89.837549
_cell_angle_beta   90.148226
_cell_angle_gamma 120.00123
loop_
_atom_site_label
_atom_site_type_symbol
_atom_site_fract_x
_atom_site_fract_y
_atom_site_fract_z
_atom_type_partial_charge
Co0 Co 0.20241 0.385 0.13881 0.0
Co1 Co 0.19656 0.32284 0.14485 0.0
C2 C 0.25714 0.37816 0.14077 0.0
O3 O 0.24472 0.39392 0.13839 0.0
O4 O 0.24142 0.34985 0.14163 0.0
C5 C 0.22329 0.44588 0.14633 0.0
O6 O 0.24342 0.44407 0.16597 0.0
C7 C 0.20077 0.27265 0.11934 0.0
C8 C 0.15899 0.2342 0.13884 0.0
C9 C 0.18257 0.24211 0.11546 0.0
N10 N 0.18772 0.28252 0.14219 0.0
N11 N 0.16332 0.25935 0.15489 0.0
C12 C 0.22949 0.29268 0.10044 0.0
H13 H 0.2465 0.30679 0.12057 0.0
H14 H 0.22632 0.30755 0.08166 0.0
H15 H 0.23805 0.27996 0.08568 0.0
C16 C 0.15158 0.35284 0.08746 0.0
N17 N 0.17452 0.35479 0.1072 0.0
N18 N 0.17266 0.32861 0.10836 0.0
C19 C 0.14898 0.30943 0.08803 0.0
C20 C 0.13425 0.32379 0.07448 0.0
C21 C 0.14412 0.3772 0.08574 0.0
H22 H 0.14814 0.38823 0.11234 0.0
H23 H 0.15891 0.39413 0.06586 0.0
H24 H 0.12061 0.36869 0.07784 0.0
O25 O 0.18873 0.3738 0.1886 0.0
O26 O 0.18538 0.32957 0.19417 0.0
H27 H 0.12836 0.26401 0.10485 0.0
H28 H 0.12591 0.26882 0.05712 0.0
C29 C 0.14045 0.27776 0.08117 0.0
H30 H 0.16065 0.27624 0.07645 0.0
H31 H 0.14831 0.26096 0.17208 0.0
O32 O 0.20361 0.42278 0.13021 0.0
C33 C 0.18345 0.35121 0.20754 0.0
Co34 Co 0.67818 0.84105 0.14036 0.0
Co35 Co 0.74114 0.89515 0.14949 0.0
C36 C 0.68656 0.90255 0.14366 0.0
O37 O 0.66988 0.87501 0.13665 0.0
O38 O 0.71434 0.91311 0.14888 0.0
C39 C 0.62457 0.79482 0.10436 0.0
O40 O 0.6351 0.80835 0.07346 0.0
C41 C 0.79061 0.94968 0.12317 0.0
C42 C 0.82961 0.95084 0.14884 0.0
C43 C 0.82139 0.96521 0.12374 0.0
N44 N 0.78099 0.92718 0.14678 0.0
N45 N 0.80433 0.92836 0.1628 0.0
C46 C 0.77081 0.95282 0.09621 0.0
H47 H 0.75003 0.93122 0.09235 0.0
H48 H 0.78222 0.96084 0.06991 0.0
H49 H 0.76491 0.9693 0.10635 0.0
C50 C 0.71108 0.82138 0.09038 0.0
N51 N 0.70882 0.84222 0.11 0.0
N52 N 0.73521 0.86624 0.11221 0.0
C53 C 0.75475 0.86183 0.09266 0.0
C54 C 0.74039 0.83301 0.0784 0.0
C55 C 0.687 0.78946 0.08821 0.0
H56 H 0.67279 0.78307 0.11253 0.0
H57 H 0.67303 0.78636 0.06417 0.0
H58 H 0.69647 0.77453 0.0857 0.0
O59 O 0.6885 0.83881 0.19116 0.0
O60 O 0.73473 0.87631 0.1979 0.0
H61 H 0.79923 0.88672 0.11285 0.0
H62 H 0.79699 0.87917 0.0651 0.0
C63 C 0.78681 0.88481 0.08773 0.0
H64 H 0.78876 0.90658 0.08167 0.0
H65 H 0.80307 0.91264 0.18138 0.0
O66 O 0.63974 0.80484 0.13298 0.0
C67 C 0.71149 0.85387 0.21061 0.0
Co68 Co 0.22142 0.85278 0.14679 0.0
Co69 Co 0.16426 0.85722 0.14824 0.0
C70 C 0.16026 0.79724 0.14698 0.0
O71 O 0.18856 0.81012 0.14674 0.0
O72 O 0.14719 0.8125 0.1454 0.0
C73 C 0.26364 0.83457 0.15796 0.0
O74 O 0.2422 0.81422 0.17791 0.0
C75 C 0.11075 0.85239 0.11806 0.0
C76 C 0.10752 0.88868 0.14475 0.0
C77 C 0.09466 0.86709 0.11833 0.0
N78 N 0.13214 0.86465 0.14313 0.0
N79 N 0.12975 0.88592 0.15962 0.0
C80 C 0.10914 0.83053 0.0906 0.0
H81 H 0.13089 0.83143 0.08836 0.0
H82 H 0.10267 0.83508 0.06384 0.0
H83 H 0.09208 0.80777 0.09907 0.0
C84 C 0.24002 0.90182 0.09293 0.0
N85 N 0.21893 0.87939 0.11305 0.0
N86 N 0.19465 0.88133 0.11312 0.0
C87 C 0.19941 0.90487 0.09229 0.0
C88 C 0.22852 0.91906 0.0789 0.0
C89 C 0.27179 0.90908 0.09201 0.0
H90 H 0.27947 0.90861 0.11979 0.0
H91 H 0.27337 0.89178 0.07623 0.0
H92 H 0.28665 0.93125 0.08001 0.0
O93 O 0.22249 0.86749 0.19585 0.0
O94 O 0.18047 0.86894 0.19831 0.0
H95 H 0.17337 0.9235 0.11123 0.0
H96 H 0.18365 0.93109 0.06428 0.0
C97 C 0.17677 0.91423 0.086 0.0
H98 H 0.15538 0.89467 0.07803 0.0
H99 H 0.1444 0.89971 0.17946 0.0
O100 O 0.259 0.853 0.14061 0.0
C101 C 0.20409 0.87212 0.21321 0.0
Co102 Co 0.38595 0.18197 0.86975 0.0
Co103 Co 0.32514 0.17925 0.87372 0.0
C104 C 0.38237 0.23846 0.87142 0.0
O105 O 0.39711 0.22489 0.87027 0.0
O106 O 0.35412 0.22389 0.8747 0.0
C107 C 0.44863 0.20108 0.87826 0.0
O108 O 0.45224 0.22502 0.89474 0.0
C109 C 0.27838 0.18529 0.90792 0.0
C110 C 0.2377 0.14495 0.88951 0.0
C111 C 0.24797 0.16806 0.91409 0.0
N112 N 0.28591 0.17201 0.88248 0.0
N113 N 0.26141 0.14848 0.87063 0.0
C114 C 0.30042 0.21341 0.9265 0.0
H115 H 0.31496 0.22995 0.90621 0.0
H116 H 0.31468 0.20872 0.94455 0.0
H117 H 0.28934 0.22333 0.94208 0.0
C118 C 0.35765 0.13347 0.92489 0.0
N119 N 0.35872 0.15613 0.90542 0.0
N120 N 0.33305 0.1553 0.90793 0.0
C121 C 0.31519 0.13252 0.93023 0.0
C122 C 0.32978 0.11736 0.94136 0.0
C123 C 0.38131 0.12505 0.92323 0.0
H124 H 0.38858 0.12611 0.89493 0.0
H125 H 0.40089 0.14138 0.93898 0.0
H126 H 0.37347 0.10238 0.93401 0.0
O127 O 0.36892 0.16703 0.82227 0.0
O128 O 0.32581 0.16626 0.82303 0.0
H129 H 0.26896 0.11382 0.91828 0.0
H130 H 0.27662 0.11016 0.96481 0.0
C131 C 0.28447 0.12505 0.94096 0.0
H132 H 0.28433 0.14568 0.9479 0.0
H133 H 0.26115 0.13356 0.85166 0.0
O134 O 0.42286 0.18069 0.86895 0.0
C135 C 0.34519 0.1624 0.80663 0.0
Co136 Co 0.86014 0.20909 0.88315 0.0
Co137 Co 0.87015 0.15548 0.87601 0.0
C138 C 0.80777 0.14712 0.88245 0.0
O139 O 0.81814 0.17475 0.88853 0.0
O140 O 0.82541 0.13705 0.87746 0.0
C141 C 0.85337 0.25698 0.91605 0.0
O142 O 0.85118 0.24506 0.94793 0.0
C143 C 0.86605 0.10191 0.90451 0.0
C144 C 0.90347 0.10018 0.87872 0.0
C145 C 0.8813 0.08638 0.90435 0.0
N146 N 0.87849 0.12385 0.88012 0.0
N147 N 0.90042 0.12234 0.86409 0.0
C148 C 0.84342 0.09924 0.93148 0.0
H149 H 0.84441 0.12096 0.93492 0.0
H150 H 0.84699 0.09149 0.95793 0.0
H151 H 0.82092 0.08274 0.9216 0.0
C152 C 0.9138 0.23087 0.93233 0.0
N153 N 0.89057 0.20934 0.91343 0.0
N154 N 0.8935 0.18561 0.91193 0.0
C155 C 0.91799 0.19094 0.93109 0.0
C156 C 0.93216 0.22002 0.94446 0.0
C157 C 0.92109 0.26265 0.93366 0.0
H158 H 0.91289 0.2684 0.90908 0.0
H159 H 0.91022 0.26589 0.95751 0.0
H160 H 0.94544 0.27796 0.93598 0.0
O161 O 0.87156 0.20969 0.8322 0.0
O162 O 0.88139 0.17283 0.82684 0.0
H163 H 0.93794 0.16643 0.91099 0.0
H164 H 0.9445 0.17521 0.95838 0.0
C165 C 0.92796 0.16865 0.93632 0.0
H166 H 0.90865 0.1468 0.94335 0.0
H167 H 0.91448 0.13758 0.84489 0.0
O168 O 0.85774 0.24548 0.8883 0.0
C169 C 0.87961 0.19451 0.81327 0.0
Co170 Co 0.8478 0.67111 0.88221 0.0
Co171 Co 0.90283 0.73356 0.87378 0.0
C172 C 0.90879 0.67806 0.8799 0.0
O173 O 0.88108 0.66182 0.88631 0.0
O174 O 0.92004 0.70599 0.87491 0.0
C175 C 0.80686 0.61038 0.8744 0.0
O176 O 0.82891 0.61167 0.85565 0.0
C177 C 0.95753 0.78268 0.90009 0.0
C178 C 0.959 0.82187 0.87447 0.0
C179 C 0.97326 0.81344 0.89946 0.0
N180 N 0.93507 0.77322 0.87649 0.0
N181 N 0.93642 0.79667 0.86051 0.0
C182 C 0.96062 0.76272 0.92685 0.0
H183 H 0.93865 0.74271 0.93206 0.0
H184 H 0.97029 0.77448 0.95258 0.0
H185 H 0.97566 0.75536 0.91556 0.0
C186 C 0.8292 0.7037 0.93313 0.0
N187 N 0.84987 0.70172 0.91294 0.0
N188 N 0.87381 0.72811 0.9106 0.0
C189 C 0.8694 0.74759 0.93029 0.0
C190 C 0.84072 0.73305 0.94504 0.0
C191 C 0.79765 0.67892 0.93625 0.0
H192 H 0.78983 0.66772 0.90984 0.0
H193 H 0.79661 0.66223 0.95582 0.0
H194 H 0.78257 0.687 0.94517 0.0
O195 O 0.84603 0.68188 0.83122 0.0
O196 O 0.88459 0.72763 0.82527 0.0
H197 H 0.89389 0.79189 0.90944 0.0
H198 H 0.88651 0.79008 0.95721 0.0
C199 C 0.89219 0.77977 0.93476 0.0
H200 H 0.91408 0.78197 0.94073 0.0
H201 H 0.92073 0.79554 0.84198 0.0
O202 O 0.81056 0.63368 0.89021 0.0
C203 C 0.86189 0.70493 0.81212 0.0
Co204 Co 0.86865 0.70824 0.47367 0.0
Co205 Co 0.85805 0.64496 0.48518 0.0
C206 C 0.9209 0.69962 0.47766 0.0
O207 O 0.91069 0.71667 0.46953 0.0
O208 O 0.90311 0.67206 0.48393 0.0
C209 C 0.88791 0.76895 0.48188 0.0
O210 O 0.90834 0.76787 0.50175 0.0
C211 C 0.85482 0.59477 0.44962 0.0
C212 C 0.83408 0.55792 0.48893 0.0
C213 C 0.84426 0.56475 0.45384 0.0
N214 N 0.85067 0.60547 0.48043 0.0
N215 N 0.83846 0.58347 0.5041 0.0
C216 C 0.86836 0.61304 0.41645 0.0
H217 H 0.87842 0.63712 0.42235 0.0
H218 H 0.85098 0.60674 0.39547 0.0
H219 H 0.8855 0.60837 0.4055 0.0
C220 C 0.81862 0.67699 0.42073 0.0
N221 N 0.83981 0.67791 0.44298 0.0
N222 N 0.83425 0.65067 0.44905 0.0
C223 C 0.80892 0.63146 0.43133 0.0
C224 C 0.79814 0.64738 0.41226 0.0
C225 C 0.81709 0.70393 0.40967 0.0
H226 H 0.83982 0.72273 0.40441 0.0
H227 H 0.80315 0.69948 0.38523 0.0
H228 H 0.80736 0.71046 0.43198 0.0
O229 O 0.85624 0.69773 0.52517 0.0
O230 O 0.84634 0.65117 0.53336 0.0
H231 H 0.76802 0.58912 0.43369 0.0
H232 H 0.79989 0.58775 0.41765 0.0
C233 C 0.79232 0.5985 0.4374 0.0
H234 H 0.79643 0.59317 0.46497 0.0
H235 H 0.83245 0.58569 0.5302 0.0
O236 O 0.86892 0.74563 0.4655 0.0
C237 C 0.84799 0.67496 0.54533 0.0
Co238 Co 0.3352 0.16501 0.46879 0.0
Co239 Co 0.39659 0.22171 0.47818 0.0
C240 C 0.34132 0.22653 0.47202 0.0
O241 O 0.32581 0.1983 0.46907 0.0
O242 O 0.36963 0.23941 0.47352 0.0
C243 C 0.2755 0.12214 0.47747 0.0
O244 O 0.27686 0.14285 0.49898 0.0
C245 C 0.44786 0.27719 0.45693 0.0
C246 C 0.48495 0.27608 0.48482 0.0
C247 C 0.47854 0.29208 0.46004 0.0
N248 N 0.43657 0.25352 0.47889 0.0
N249 N 0.45874 0.25335 0.4963 0.0
C250 C 0.42981 0.28234 0.42931 0.0
H251 H 0.41085 0.26077 0.42031 0.0
H252 H 0.44346 0.29482 0.4057 0.0
H253 H 0.42064 0.29549 0.44172 0.0
C254 C 0.37019 0.14868 0.41896 0.0
N255 N 0.36693 0.16884 0.43865 0.0
N256 N 0.39279 0.19343 0.44127 0.0
C257 C 0.4131 0.19003 0.42202 0.0
C258 C 0.39976 0.16128 0.4075 0.0
C259 C 0.34648 0.11665 0.41615 0.0
H260 H 0.33051 0.1143 0.39473 0.0
H261 H 0.3559 0.10217 0.40972 0.0
H262 H 0.33412 0.10908 0.44189 0.0
O263 O 0.34474 0.16119 0.51883 0.0
O264 O 0.38813 0.20244 0.52688 0.0
H265 H 0.45553 0.20914 0.39462 0.0
H266 H 0.44604 0.23543 0.41227 0.0
C267 C 0.44488 0.21389 0.41753 0.0
H268 H 0.45737 0.21574 0.44256 0.0
H269 H 0.45611 0.23656 0.51401 0.0
O270 O 0.29824 0.1277 0.4589 0.0
C271 C 0.36641 0.1783 0.53899 0.0
Co272 Co 0.88394 0.18529 0.47859 0.0
Co273 Co 0.82638 0.18873 0.48002 0.0
C274 C 0.8227 0.1293 0.47905 0.0
O275 O 0.851 0.14275 0.4793 0.0
O276 O 0.80913 0.14402 0.4768 0.0
C277 C 0.92909 0.1768 0.44335 0.0
O278 O 0.91478 0.17314 0.41288 0.0
C279 C 0.7725 0.18417 0.45125 0.0
C280 C 0.77043 0.22111 0.47794 0.0
C281 C 0.7569 0.19938 0.45178 0.0
N282 N 0.79428 0.19634 0.47585 0.0
N283 N 0.79254 0.21794 0.49242 0.0
C284 C 0.77016 0.16203 0.42373 0.0
H285 H 0.79172 0.16259 0.42098 0.0
H286 H 0.76344 0.16657 0.39713 0.0
H287 H 0.75301 0.13941 0.4325 0.0
C288 C 0.90252 0.23583 0.42615 0.0
N289 N 0.88154 0.21238 0.44522 0.0
N290 N 0.8566 0.21314 0.44465 0.0
C291 C 0.86073 0.23656 0.42402 0.0
C292 C 0.89016 0.25218 0.41179 0.0
C293 C 0.9349 0.24526 0.42669 0.0
H294 H 0.94067 0.23794 0.45201 0.0
H295 H 0.93984 0.23489 0.40364 0.0
H296 H 0.94897 0.26979 0.42422 0.0
O297 O 0.88576 0.20021 0.52744 0.0
O298 O 0.84306 0.20035 0.53012 0.0
H299 H 0.8331 0.25398 0.44095 0.0
H300 H 0.84333 0.2604 0.39394 0.0
C301 C 0.83706 0.2443 0.41647 0.0
H302 H 0.81618 0.22397 0.40895 0.0
H303 H 0.80763 0.23176 0.51189 0.0
O304 O 0.92014 0.1831 0.47198 0.0
C305 C 0.867 0.20422 0.5449 0.0
Co306 Co 0.05211 0.52103 0.21565 0.0
Co307 Co 0.99089 0.51712 0.21138 0.0
C308 C 0.04692 0.57682 0.21478 0.0
O309 O 0.06197 0.56361 0.21609 0.0
O310 O 1.01858 0.56184 0.21495 0.0
C311 C 0.11337 0.54224 0.20959 0.0
O312 O 0.11233 0.56375 0.19214 0.0
C313 C 0.94286 0.52259 0.2408 0.0
C314 C 0.90319 0.48903 0.21131 0.0
C315 C 0.91219 0.50954 0.23911 0.0
N316 N 0.95162 0.51047 0.2153 0.0
N317 N 0.92795 0.49078 0.19722 0.0
C318 C 0.96315 0.5426 0.26972 0.0
H319 H 0.98336 0.5405 0.27178 0.0
H320 H 0.95168 0.53715 0.29616 0.0
H321 H 0.97006 0.56602 0.26293 0.0
C322 C 1.0199 0.47097 0.26789 0.0
N323 N 1.02208 0.49394 0.24806 0.0
N324 N 0.996 0.49227 0.24677 0.0
C325 C 0.97644 0.46834 0.26645 0.0
C326 C 0.99072 0.45362 0.28042 0.0
C327 C 0.04419 0.46341 0.2699 0.0
H328 H 0.06201 0.47949 0.288 0.0
H329 H 0.036 0.44049 0.28001 0.0
H330 H 0.05406 0.46562 0.24282 0.0
O331 O 0.03972 0.50711 0.16596 0.0
O332 O 0.99638 0.50586 0.16161 0.0
H333 H 0.93262 0.45113 0.2449 0.0
H334 H 0.93331 0.44139 0.29159 0.0
C335 C 0.94432 0.45912 0.27102 0.0
H336 H 0.94246 0.47847 0.27978 0.0
H337 H 0.92855 0.4775 0.17655 0.0
O338 O 0.08967 0.52142 0.22346 0.0
C339 C 1.01716 0.50281 0.14761 0.0
Co340 Co 0.5348 0.54589 0.20612 0.0
Co341 Co 0.53679 0.48738 0.20696 0.0
C342 C 0.47783 0.48657 0.20768 0.0
O343 O 0.49149 0.51492 0.20778 0.0
O344 O 0.49235 0.4727 0.2091 0.0
C345 C 0.52198 0.58909 0.18394 0.0
O346 O 0.5018 0.56606 0.16583 0.0
C347 C 0.52967 0.43512 0.24299 0.0
C348 C 0.56104 0.42503 0.21482 0.0
C349 C 0.54148 0.41645 0.24354 0.0
N350 N 0.54155 0.45393 0.21522 0.0
N351 N 0.5599 0.44752 0.19797 0.0
C352 C 0.51041 0.43769 0.27103 0.0
H353 H 0.51269 0.46013 0.27029 0.0
H354 H 0.51629 0.43334 0.29826 0.0
H355 H 0.48684 0.42083 0.26561 0.0
C356 C 0.5829 0.56362 0.26147 0.0
N357 N 0.56057 0.54299 0.24087 0.0
N358 N 0.56187 0.51833 0.24107 0.0
C359 C 0.58507 0.52254 0.26216 0.0
C360 C 0.5994 0.55149 0.27595 0.0
C361 C 0.58953 0.59506 0.26504 0.0
H362 H 0.60056 0.60746 0.24009 0.0
H363 H 0.56848 0.59545 0.2682 0.0
H364 H 0.60432 0.60625 0.28838 0.0
O365 O 0.54842 0.54354 0.15761 0.0
O366 O 0.54935 0.5013 0.15639 0.0
H367 H 0.5986 0.49405 0.23745 0.0
H368 H 0.61775 0.51038 0.27892 0.0
C369 C 0.59604 0.50084 0.26484 0.0
H370 H 0.57949 0.48078 0.27965 0.0
H371 H 0.57277 0.45945 0.17588 0.0
O372 O 0.53836 0.5853 0.20634 0.0
C373 C 0.55279 0.52476 0.14084 0.0
Co374 Co 0.5148 1.00268 0.21943 0.0
Co375 Co 0.56822 0.0658 0.20817 0.0
C376 C 0.57637 1.01162 0.21588 0.0
O377 O 0.54898 0.99476 0.22352 0.0
O378 O 0.5865 0.03925 0.20981 0.0
C379 C 0.47407 0.94146 0.21371 0.0
O380 O 0.4954 0.94241 0.19378 0.0
C381 C 0.62257 0.11591 0.23313 0.0
C382 C 0.6232 0.15441 0.20671 0.0
C383 C 0.6379 0.14666 0.23188 0.0
N384 N 0.59993 0.10581 0.20972 0.0
N385 N 0.60076 0.12884 0.19326 0.0
C386 C 0.6261 0.09656 0.26044 0.0
H387 H 0.60435 0.0763 0.26577 0.0
H388 H 0.63543 0.10868 0.28607 0.0
H389 H 0.6416 0.08961 0.24965 0.0
C390 C 0.49527 0.03546 0.26866 0.0
N391 N 0.5162 0.0337 0.24876 0.0
N392 N 0.53954 0.0604 0.24533 0.0
C393 C 0.53455 0.07989 0.26411 0.0
C394 C 0.50603 0.065 0.27931 0.0
C395 C 0.46405 1.01013 0.27244 0.0
H396 H 0.4563 0.99831 0.24638 0.0
H397 H 0.46367 0.99411 0.29258 0.0
H398 H 0.44849 1.01775 0.28091 0.0
O399 O 0.51202 1.0117 0.16806 0.0
O400 O 0.54909 0.05802 0.16002 0.0
H401 H 0.55755 0.12368 0.24152 0.0
H402 H 0.5508 0.12291 0.28937 0.0
C403 C 0.55662 0.11241 0.26729 0.0
H404 H 0.57891 0.11552 0.2731 0.0
H405 H 0.58483 0.12718 0.17477 0.0
O406 O 0.47829 0.96506 0.22922 0.0
C407 C 0.52682 0.03433 0.14792 0.0
Co408 Co 0.53332 0.03653 0.81261 0.0
Co409 Co 0.52611 0.97416 0.8197 0.0
C410 C 0.58747 0.03034 0.8143 0.0
O411 O 0.57589 0.04649 0.80783 0.0
O412 O 0.57091 1.00237 0.81925 0.0
C413 C 0.55399 0.09939 0.81327 0.0
O414 O 0.58114 0.10367 0.81439 0.0
C415 C 0.53187 0.92574 0.79108 0.0
C416 C 0.49461 0.88607 0.81643 0.0
C417 C 0.5169 0.89496 0.79093 0.0
N418 N 0.51915 0.93473 0.81555 0.0
N419 N 0.49735 0.91099 0.83137 0.0
C420 C 0.55438 0.94613 0.76419 0.0
H421 H 0.5535 0.96698 0.76146 0.0
H422 H 0.55061 0.93523 0.7375 0.0
H423 H 0.57691 0.95183 0.77368 0.0
C424 C 0.48207 1.00471 0.76125 0.0
N425 N 0.50477 1.00647 0.78131 0.0
N426 N 0.50234 0.98005 0.78318 0.0
C427 C 0.47844 0.9608 0.76323 0.0
C428 C 0.46425 0.9755 0.74886 0.0
C429 C 0.47527 0.0295 0.75875 0.0
H430 H 0.47854 0.04027 0.78542 0.0
H431 H 0.49096 0.04651 0.73956 0.0
H432 H 0.45212 1.02155 0.74974 0.0
O433 O 0.52107 0.02441 0.86303 0.0
O434 O 0.51329 0.97849 0.86862 0.0
H435 H 0.45906 0.91627 0.78324 0.0
H436 H 0.45301 0.9186 0.73564 0.0
C437 C 0.46916 0.92872 0.75803 0.0
H438 H 0.48887 0.92673 0.75152 0.0
H439 H 0.48304 0.91175 0.85046 0.0
O440 O 0.53191 0.07336 0.80907 0.0
C441 C 0.51352 1.00122 0.88191 0.0
Co442 Co 1.00843 0.50366 0.81019 0.0
Co443 Co 0.07133 0.55819 0.81807 0.0
C444 C 1.01553 0.56432 0.81216 0.0
O445 O 0.99881 0.53672 0.80529 0.0
O446 O 0.04335 0.57495 0.81738 0.0
C447 C 0.95099 0.46124 0.82837 0.0
O448 O 0.95388 0.48402 0.84705 0.0
C449 C 0.11957 0.612 0.78835 0.0
C450 C 0.15935 0.61567 0.81508 0.0
C451 C 0.15034 0.62828 0.78852 0.0
N452 N 0.11071 0.59074 0.81358 0.0
N453 N 0.13451 0.59341 0.83014 0.0
C454 C 0.09915 0.61316 0.76063 0.0
H455 H 0.07793 0.59165 0.75948 0.0
H456 H 0.10975 0.61839 0.73364 0.0
H457 H 0.09427 0.631 0.76792 0.0
C458 C 0.04005 0.48432 0.75856 0.0
N459 N 0.03859 0.50514 0.77906 0.0
N460 N 0.06527 0.52865 0.7817 0.0
C461 C 0.08446 0.52376 0.76211 0.0
C462 C 0.06938 0.49526 0.74692 0.0
C463 C 1.01471 0.4531 0.75497 0.0
H464 H 0.99693 0.4532 0.73841 0.0
H465 H 1.02165 0.43813 0.74256 0.0
H466 H 1.00524 0.44432 0.78196 0.0
O467 O 1.02038 0.50355 0.86083 0.0
O468 O 0.06666 0.54084 0.867 0.0
H469 H 0.12824 0.54806 0.78448 0.0
H470 H 0.12758 0.53931 0.73722 0.0
C471 C 0.11693 0.54585 0.75836 0.0
H472 H 0.11982 0.56777 0.75081 0.0
H473 H 0.13387 0.57886 0.85002 0.0
O474 O 0.97151 0.46525 0.80655 0.0
C475 C 0.04345 0.51867 0.88007 0.0
Co476 Co 0.55467 0.51476 0.80298 0.0
Co477 Co 0.49759 0.51895 0.80991 0.0
C478 C 0.49368 0.45912 0.80451 0.0
O479 O 0.52193 0.47204 0.80231 0.0
O480 O 0.48058 0.47434 0.80555 0.0
C481 C 0.59738 0.49762 0.81233 0.0
O482 O 0.57639 0.47777 0.8332 0.0
C483 C 0.44262 0.51392 0.78491 0.0
C484 C 0.44064 0.5501 0.81369 0.0
C485 C 0.4265 0.52848 0.78755 0.0
N486 N 0.46523 0.52624 0.8084 0.0
N487 N 0.46362 0.54743 0.82618 0.0
C488 C 0.43974 0.49219 0.75647 0.0
H489 H 0.46148 0.49352 0.75178 0.0
H490 H 0.43154 0.49649 0.73079 0.0
H491 H 0.42351 0.46934 0.76562 0.0
C492 C 0.57157 0.56563 0.75212 0.0
N493 N 0.55115 0.54238 0.77187 0.0
N494 N 0.52664 0.54383 0.77388 0.0
C495 C 0.53046 0.5677 0.75446 0.0
C496 C 0.55929 0.58281 0.74019 0.0
C497 C 0.60351 0.5736 0.74968 0.0
H498 H 0.61129 0.57054 0.77633 0.0
H499 H 0.60546 0.55838 0.73038 0.0
H500 H 0.61805 0.59693 0.74079 0.0
O501 O 0.5571 0.52789 0.85302 0.0
O502 O 0.51556 0.52981 0.85923 0.0
H503 H 0.5046 0.5858 0.77564 0.0
H504 H 0.51266 0.59281 0.72811 0.0
C505 C 0.50708 0.57631 0.75004 0.0
H506 H 0.48557 0.55638 0.74335 0.0
H507 H 0.47923 0.56125 0.84521 0.0
O508 O 0.59219 0.5154 0.79434 0.0
C509 C 0.53948 0.53232 0.87233 0.0
Co510 Co 0.71979 0.85282 0.54603 0.0
Co511 Co 0.6585 0.84899 0.54242 0.0
C512 C 0.71455 0.90865 0.54607 0.0
O513 O 0.72976 0.89556 0.5469 0.0
O514 O 0.68621 0.89357 0.54649 0.0
C515 C 0.78055 0.87171 0.53776 0.0
O516 O 0.77985 0.89262 0.51845 0.0
C517 C 0.60966 0.85429 0.57046 0.0
C518 C 0.57037 0.81805 0.54321 0.0
C519 C 0.5789 0.83978 0.56941 0.0
N520 N 0.61897 0.84183 0.546 0.0
N521 N 0.59548 0.82061 0.52914 0.0
C522 C 0.6296 0.87606 0.59826 0.0
H523 H 0.64993 0.87437 0.60195 0.0
H524 H 0.618 0.87216 0.62448 0.0
H525 H 0.63631 0.89894 0.58908 0.0
C526 C 0.68741 0.80219 0.59752 0.0
N527 N 0.68966 0.82542 0.57817 0.0
N528 N 0.66372 0.82408 0.57759 0.0
C529 C 0.64428 0.8003 0.59756 0.0
C530 C 0.65838 0.78514 0.61069 0.0
C531 C 0.71136 0.79412 0.59843 0.0
H532 H 0.72146 0.79729 0.57134 0.0
H533 H 0.72908 0.80919 0.61734 0.0
H534 H 0.70274 0.77073 0.60698 0.0
O535 O 0.7075 0.83935 0.49633 0.0
O536 O 0.66419 0.83816 0.49242 0.0
H537 H 0.59966 0.78231 0.57845 0.0
H538 H 0.6023 0.77537 0.62569 0.0
C539 C 0.6125 0.79182 0.60358 0.0
H540 H 0.61124 0.8118 0.61088 0.0
H541 H 0.5965 0.80667 0.50969 0.0
O542 O 0.75702 0.85253 0.55363 0.0
C543 C 0.68495 0.83524 0.47814 0.0
Co544 Co 0.19425 0.87014 0.55207 0.0
Co545 Co 0.20263 0.81581 0.54183 0.0
C546 C 0.14079 0.80891 0.54875 0.0
O547 O 0.15177 0.83644 0.55601 0.0
O548 O 0.15791 0.79829 0.54314 0.0
C549 C 0.17582 0.91179 0.54225 0.0
O550 O 0.15594 0.89012 0.52214 0.0
C551 C 0.19756 0.76107 0.56733 0.0
C552 C 0.2353 0.76009 0.54138 0.0
C553 C 0.21283 0.74558 0.56648 0.0
N554 N 0.21026 0.78365 0.54382 0.0
N555 N 0.23235 0.78257 0.52761 0.0
C556 C 0.17478 0.75784 0.59445 0.0
H557 H 0.17632 0.77965 0.59937 0.0
H558 H 0.17762 0.74872 0.62028 0.0
H559 H 0.15229 0.74225 0.58371 0.0
C560 C 0.24611 0.88871 0.60247 0.0
N561 N 0.2234 0.86817 0.58212 0.0
N562 N 0.2261 0.84441 0.57911 0.0
C563 C 0.25011 0.84874 0.59861 0.0
C564 C 0.26417 0.87725 0.61384 0.0
C565 C 0.25266 0.92015 0.60628 0.0
H566 H 0.24868 0.92811 0.58026 0.0
H567 H 0.23733 0.92087 0.62649 0.0
H568 H 0.27596 0.93532 0.61475 0.0
O569 O 0.20615 0.87233 0.50093 0.0
O570 O 0.21458 0.83473 0.49356 0.0
H571 H 0.26992 0.82448 0.57728 0.0
H572 H 0.27555 0.8314 0.62515 0.0
C573 C 0.25955 0.82595 0.60268 0.0
H574 H 0.2399 0.80399 0.60844 0.0
H575 H 0.24672 0.79841 0.50913 0.0
O576 O 0.19418 0.90745 0.56021 0.0
C577 C 0.2137 0.85721 0.48112 0.0
Co578 Co 0.17365 0.33517 0.54197 0.0
Co579 Co 0.23168 0.39595 0.5414 0.0
C580 C 0.23415 0.33912 0.5426 0.0
O581 O 0.20583 0.32437 0.54289 0.0
O582 O 0.24791 0.36748 0.54408 0.0
C583 C 0.13234 0.27758 0.5233 0.0
O584 O 0.15549 0.28115 0.50491 0.0
C585 C 0.28613 0.44384 0.57087 0.0
C586 C 0.28841 0.48394 0.54683 0.0
C587 C 0.30202 0.4746 0.5716 0.0
N588 N 0.26413 0.43526 0.54674 0.0
N589 N 0.26598 0.45927 0.53173 0.0
C590 C 0.28867 0.42295 0.59666 0.0
H591 H 0.26638 0.4034 0.60192 0.0
H592 H 0.29896 0.43412 0.62248 0.0
H593 H 0.30283 0.41491 0.58441 0.0
C594 C 0.15525 0.36635 0.59521 0.0
N595 N 0.17614 0.36425 0.57564 0.0
N596 N 0.2011 0.38992 0.5764 0.0
C597 C 0.19705 0.40889 0.59761 0.0
C598 C 0.16763 0.39491 0.61003 0.0
C599 C 0.12304 0.34288 0.5951 0.0
H600 H 0.11656 0.33253 0.56808 0.0
H601 H 0.11953 0.32525 0.61473 0.0
H602 H 0.10854 0.3521 0.60234 0.0
O603 O 0.17394 0.34958 0.49321 0.0
O604 O 0.21626 0.39264 0.49095 0.0
H605 H 0.22455 0.45439 0.58205 0.0
H606 H 0.21497 0.44924 0.62929 0.0
C607 C 0.22091 0.44005 0.60587 0.0
H608 H 0.24187 0.44036 0.61229 0.0
H609 H 0.25075 0.45883 0.51299 0.0
O610 O 0.13543 0.29808 0.54461 0.0
C611 C 0.1926 0.3725 0.4759 0.0
C612 C 0.24495 0.17809 0.97898 0.0
C613 C 0.23112 0.1695 0.94526 0.0
C614 C 0.23106 0.18358 1.00768 0.0
C615 C 0.20174 0.17834 1.00323 0.0
C616 C 0.1861 0.16554 0.97086 0.0
C617 C 0.20121 0.16174 0.94185 0.0
C618 C 0.24866 0.19711 0.04174 0.0
C619 C 0.15399 0.15726 0.96615 0.0
C620 C 0.17528 0.19389 0.09105 0.0
C621 C 0.18309 0.22364 0.08563 0.0
C622 C 0.17828 0.17739 0.06305 0.0
C623 C 0.19025 0.1915 0.0296 0.0
C624 C 0.1958 0.22075 0.02334 0.0
C625 C 0.1911 0.23598 0.05109 0.0
C626 C 0.16995 0.14551 0.07004 0.0
C627 C 0.20882 0.23692 0.98829 0.0
H628 H 0.26716 0.18156 0.98273 0.0
H629 H 0.18993 0.15366 0.91626 0.0
H630 H 0.2506 0.21911 0.04666 0.0
H631 H 0.237 0.18268 0.06512 0.0
H632 H 0.27143 0.20021 0.04046 0.0
H633 H 0.14266 0.13914 0.94608 0.0
H634 H 0.14172 0.15003 0.99203 0.0
H635 H 0.15284 0.17683 0.95619 0.0
H636 H 0.16774 0.18382 0.11736 0.0
H637 H 0.19484 0.25815 0.04598 0.0
H638 H 0.189 0.1449 0.08275 0.0
H639 H 0.16401 0.13231 0.04482 0.0
H640 H 0.15089 0.13476 0.08898 0.0
H641 H 0.23048 0.23815 0.98315 0.0
H642 H 0.2125 0.25994 0.98832 0.0
H643 H 0.1938 0.22465 0.9656 0.0
C644 C 0.83914 1.01219 0.08975 0.0
C645 C 0.8404 0.98626 0.09591 0.0
C646 C 0.85126 0.02897 0.05838 0.0
C647 C 0.86429 1.01907 0.03237 0.0
C648 C 0.86731 0.99391 0.03966 0.0
C649 C 0.85542 0.97783 0.07163 0.0
C650 C 0.84808 0.056 0.0519 0.0
C651 C 0.88077 0.98251 0.01248 0.0
C652 C 0.8521 0.03977 0.93896 0.0
C653 C 0.87935 0.06548 0.93241 0.0
C654 C 0.84769 0.02307 0.97036 0.0
C655 C 0.87096 0.03282 0.99601 0.0
C656 C 0.89916 0.05777 0.98834 0.0
C657 C 0.90309 0.07378 0.95634 0.0
C658 C 0.81743 0.99625 0.97723 0.0
C659 C 0.92438 0.06899 0.01512 0.0
H660 H 0.82731 1.01844 0.10861 0.0
H661 H 0.8559 0.95743 0.07632 0.0
H662 H 0.86944 0.07501 0.04251 0.0
H663 H 0.83129 0.05104 0.03048 0.0
H664 H 0.84091 0.06282 0.07652 0.0
H665 H 0.88585 0.9659 0.02445 0.0
H666 H 0.86487 0.97176 0.98994 0.0
H667 H 0.90148 1.00107 1.00097 0.0
H668 H 0.8338 0.0336 0.92034 0.0
H669 H 0.92403 0.09399 0.95131 0.0
H670 H 0.80608 1.00139 0.99898 0.0
H671 H 0.81968 0.97709 0.98637 0.0
H672 H 0.80307 0.98955 0.95287 0.0
H673 H 0.91966 0.0798 0.03789 0.0
H674 H 0.94595 0.08549 1.0029 0.0
H675 H 0.92652 0.05032 0.02638 0.0
C676 C 0.0496 0.83728 0.08122 0.0
C677 C 0.07368 0.86506 0.09031 0.0
C678 C 0.03284 0.8338 0.05016 0.0
C679 C 0.0408 0.85868 0.02749 0.0
C680 C 0.06401 0.88718 0.03781 0.0
C681 C 0.08014 0.89007 0.06939 0.0
C682 C 1.00787 0.80311 0.04043 0.0
C683 C 0.07324 0.91413 0.01423 0.0
C684 C 1.02136 0.8333 0.93124 0.0
C685 C 0.99405 0.83221 0.92753 0.0
C686 C 0.0382 0.84444 0.96275 0.0
C687 C 1.02688 0.85386 0.99139 0.0
C688 C 1.00017 0.85459 0.98669 0.0
C689 C 0.98408 0.84385 0.95454 0.0
C690 C 0.06688 0.84384 0.96648 0.0
C691 C 0.98721 0.8641 0.0167 0.0
H692 H 0.0447 0.81805 0.09765 0.0
H693 H 0.09904 0.9115 0.07641 0.0
H694 H 0.98752 0.80391 0.03319 0.0
H695 H 1.01432 0.79481 0.01656 0.0
H696 H 1.00245 0.78693 0.06277 0.0
H697 H 0.08851 0.93516 0.02846 0.0
H698 H 0.08481 0.91244 0.99003 0.0
H699 H 0.05351 0.9152 1.00478 0.0
H700 H 1.02871 0.82391 0.91031 0.0
H701 H 0.96259 0.84239 0.95168 0.0
H702 H 0.06356 0.82584 0.98539 0.0
H703 H 0.08466 0.86515 0.97778 0.0
H704 H 0.07455 0.83983 0.94029 0.0
H705 H 0.97769 0.84635 0.03749 0.0
H706 H 0.96927 0.86811 1.00689 0.0
H707 H 1.00468 0.88461 0.02988 0.0
C708 C 0.80681 0.73267 0.99473 0.0
C709 C 0.82482 0.74664 0.96456 0.0
C710 C 0.7919 0.74531 0.01316 0.0
C711 C 0.79537 0.77307 1.00184 0.0
C712 C 0.8135 0.78722 0.97136 0.0
C713 C 0.82752 0.77373 0.95295 0.0
C714 C 0.77245 0.72893 0.04491 0.0
C715 C 0.8184 0.81691 0.95832 0.0
C716 C 0.73962 0.79799 0.02995 0.0
C717 C 0.75407 0.81704 0.05917 0.0
C718 C 0.75236 0.78313 0.01164 0.0
C719 C 0.78068 0.78765 0.02215 0.0
C720 C 0.79526 0.80671 0.05178 0.0
C721 C 0.78167 0.82066 0.07011 0.0
C722 C 0.7355 0.76263 0.98085 0.0
C723 C 0.82553 0.81269 0.06396 0.0
H724 H 0.80453 0.71185 1.00417 0.0
H725 H 0.84064 0.78448 0.92921 0.0
H726 H 0.78164 0.74237 0.0697 0.0
H727 H 0.7498 0.72564 0.04088 0.0
H728 H 0.77061 0.70687 0.0492 0.0
H729 H 0.83355 0.8254 0.93475 0.0
H730 H 0.79683 0.81499 0.95072 0.0
H731 H 0.82801 0.83354 0.98032 0.0
H732 H 0.71835 0.7949 0.02108 0.0
H733 H 0.79277 0.83445 0.09328 0.0
H734 H 0.73299 0.74035 0.98553 0.0
H735 H 0.74818 0.77145 0.95548 0.0
H736 H 0.71306 0.76003 0.97724 0.0
H737 H 0.82438 0.79157 0.07218 0.0
H738 H 0.83429 0.82849 0.0869 0.0
H739 H 0.84155 0.82203 0.04132 0.0
C740 C 0.33163 0.08331 0.9895 0.0
C741 C 0.3165 0.08797 0.96107 0.0
C742 C 0.31874 0.05601 1.00867 0.0
C743 C 0.28978 0.03261 0.99957 0.0
C744 C 0.27462 0.03715 0.97058 0.0
C745 C 0.28817 0.06446 0.95165 0.0
C746 C 0.33603 0.05232 0.03897 0.0
C747 C 0.24377 1.01321 0.95975 0.0
C748 C 0.26243 0.95161 0.02869 0.0
C749 C 0.24481 0.9483 0.05893 0.0
C750 C 0.27758 0.97888 1.00963 0.0
C751 C 0.27499 1.0037 0.02067 0.0
C752 C 0.25739 1.00049 0.05139 0.0
C753 C 0.24284 0.97311 0.07018 0.0
C754 C 0.2962 0.98106 0.9774 0.0
C755 C 0.25364 0.02599 0.06427 0.0
H756 H 0.35345 0.10124 0.99715 0.0
H757 H 0.27645 0.06742 0.92928 0.0
H758 H 0.32397 0.04895 0.06474 0.0
H759 H 0.33798 0.03223 0.03439 0.0
H760 H 0.35872 0.07192 0.04177 0.0
H761 H 0.23488 1.02008 0.93669 0.0
H762 H 0.244 0.99264 0.95228 0.0
H763 H 0.22834 1.0076 0.98286 0.0
H764 H 0.26412 0.93266 0.01965 0.0
H765 H 0.22987 0.97115 0.0939 0.0
H766 H 0.31919 0.99997 0.98077 0.0
H767 H 0.28686 0.98553 0.95282 0.0
H768 H 0.29718 0.96038 0.97319 0.0
H769 H 0.27568 0.04551 0.07058 0.0
H770 H 0.23938 1.02011 0.0886 0.0
H771 H 0.24353 0.03284 0.04263 0.0
C772 C 0.96662 0.25576 0.99229 0.0
C773 C 0.96211 0.23685 0.96298 0.0
C774 C 0.99446 0.2712 1.01016 0.0
C775 C 1.01863 0.2676 0.99893 0.0
C776 C 1.01426 0.24881 0.96907 0.0
C777 C 0.98639 0.23409 0.95134 0.0
C778 C 0.9979 0.29123 0.04138 0.0
C779 C 0.03899 0.24391 0.95602 0.0
C780 C 0.09951 0.32406 0.02604 0.0
C781 C 0.10448 0.30994 0.05542 0.0
C782 C 0.07173 0.31095 1.00792 0.0
C783 C 0.04813 0.28266 0.01889 0.0
C784 C 0.05302 0.26843 0.04867 0.0
C785 C 0.08078 0.28228 0.06665 0.0
C786 C 0.06771 0.32734 0.97679 0.0
C787 C 1.02894 0.23827 0.06142 0.0
H788 H 0.94819 0.25819 1.00163 0.0
H789 H 0.98367 0.22036 0.92813 0.0
H790 H 1.00252 0.28251 0.06639 0.0
H791 H 1.01715 0.31383 0.03673 0.0
H792 H 0.9777 0.29306 0.04564 0.0
H793 H 0.03216 0.2286 0.9326 0.0
H794 H 0.05856 0.26546 0.94822 0.0
H795 H 0.04618 0.23445 0.97809 0.0
H796 H 0.11752 0.34532 0.01692 0.0
H797 H 0.08386 0.27136 0.0898 0.0
H798 H 0.04805 0.32998 0.9815 0.0
H799 H 0.06343 0.31423 0.95172 0.0
H800 H 0.08751 0.3497 0.97259 0.0
H801 H 1.00894 0.23939 0.0694 0.0
H802 H 0.03619 0.22992 0.08466 0.0
H803 H 1.02222 0.22192 0.03915 0.0
C804 C 0.90071 0.54077 0.27887 0.0
C805 C 0.89307 0.51253 0.26601 0.0
C806 C 0.88685 0.544 0.30937 0.0
C807 C 0.86451 0.51828 0.32703 0.0
C808 C 0.85502 0.48976 0.3124 0.0
C809 C 0.86953 0.4872 0.28191 0.0
C810 C 0.89744 0.5749 0.32391 0.0
C811 C 0.83087 0.46193 0.33008 0.0
C812 C 0.86387 0.53499 0.42553 0.0
C813 C 0.8431 0.5446 0.42553 0.0
C814 C 0.8692 0.52354 0.39406 0.0
C815 C 0.85319 0.5217 0.36225 0.0
C816 C 0.83003 0.52855 0.3634 0.0
C817 C 0.82543 0.54021 0.39511 0.0
C818 C 0.89406 0.5164 0.3939 0.0
C819 C 0.81212 0.5264 0.33031 0.0
H820 H 0.9185 0.56034 0.26596 0.0
H821 H 0.86362 0.46533 0.27181 0.0
H822 H 0.87837 0.57865 0.32753 0.0
H823 H 0.90787 0.57722 0.35073 0.0
H824 H 0.91396 0.59255 0.30593 0.0
H825 H 0.82261 0.44224 0.31216 0.0
H826 H 0.83974 0.45736 0.35501 0.0
H827 H 0.81187 0.46484 0.33793 0.0
H828 H 0.87763 0.53873 0.44916 0.0
H829 H 0.80935 0.54775 0.39539 0.0
H830 H 0.91336 0.53405 0.37896 0.0
H831 H 0.88699 0.49502 0.37995 0.0
H832 H 0.90147 0.51504 0.42158 0.0
H833 H 0.82562 0.54573 0.31248 0.0
H834 H 0.79137 0.52649 0.33731 0.0
H835 H 0.80625 0.50591 0.31485 0.0
C836 C 0.56236 0.40027 0.29322 0.0
C837 C 0.53782 0.39562 0.27253 0.0
C838 C 0.55838 0.38401 0.32502 0.0
C839 C 0.52925 0.36246 0.3357 0.0
C840 C 0.50463 0.3565 0.3135 0.0
C841 C 0.50923 0.37344 0.28232 0.0
C842 C 0.58504 0.39121 0.34824 0.0
C843 C 0.47325 0.33327 0.32358 0.0
C844 C 0.50977 0.30277 0.4059 0.0
C845 C 0.4991 0.31324 0.43347 0.0
C846 C 0.52195 0.31965 0.37458 0.0
C847 C 0.52372 0.34768 0.37134 0.0
C848 C 0.51551 0.35943 0.40071 0.0
C849 C 0.50282 0.34178 0.43135 0.0
C850 C 0.53005 0.30619 0.34374 0.0
C851 C 0.51765 0.3895 0.39854 0.0
H852 H 0.58443 0.41779 0.28565 0.0
H853 H 0.49037 0.37001 0.26609 0.0
H854 H 0.58441 0.40297 0.37283 0.0
H855 H 0.58458 0.37054 0.35706 0.0
H856 H 0.60633 0.40561 0.33398 0.0
H857 H 0.45708 0.32942 0.30171 0.0
H858 H 0.47212 0.31184 0.33006 0.0
H859 H 0.46632 0.3405 0.348 0.0
H860 H 0.50631 0.28038 0.40755 0.0
H861 H 0.49418 0.34953 0.45271 0.0
H862 H 0.55119 0.32295 0.331 0.0
H863 H 0.5124 0.29841 0.32287 0.0
H864 H 0.53226 0.28691 0.35257 0.0
H865 H 0.5394 0.40632 0.38712 0.0
H866 H 0.51492 0.39728 0.42534 0.0
H867 H 0.49999 0.38813 0.3804 0.0
C868 C 0.71164 0.17068 0.41459 0.0
C869 C 0.7363 0.19806 0.42366 0.0
C870 C 0.69537 0.16763 0.38321 0.0
C871 C 0.70439 0.19253 0.36022 0.0
C872 C 0.72814 0.22071 0.37055 0.0
C873 C 0.74379 0.22318 0.40243 0.0
C874 C 0.66982 0.13727 0.37344 0.0
C875 C 0.7385 0.24768 0.34667 0.0
C876 C 0.68578 0.16648 0.26414 0.0
C877 C 0.65881 0.16596 0.25957 0.0
C878 C 0.70234 0.1777 0.29582 0.0
C879 C 0.69111 0.1879 0.32373 0.0
C880 C 0.66492 0.18941 0.31804 0.0
C881 C 0.64907 0.1785 0.28575 0.0
C882 C 0.73048 0.17622 0.30061 0.0
C883 C 0.65212 0.19987 0.34721 0.0
H884 H 0.70598 0.15134 0.43122 0.0
H885 H 0.76314 0.2443 0.40942 0.0
H886 H 0.65002 0.13882 0.36548 0.0
H887 H 0.67614 0.12838 0.35004 0.0
H888 H 0.66356 0.12116 0.39603 0.0
H889 H 0.75387 0.26861 0.36102 0.0
H890 H 0.75035 0.24555 0.32306 0.0
H891 H 0.7193 0.24933 0.33633 0.0
H892 H 0.69297 0.15644 0.24385 0.0
H893 H 0.62784 0.17752 0.28225 0.0
H894 H 0.72636 0.15819 0.31991 0.0
H895 H 0.7485 0.19738 0.31193 0.0
H896 H 0.73827 0.17169 0.27482 0.0
H897 H 0.64169 0.18229 0.36811 0.0
H898 H 0.63492 0.20464 0.33653 0.0
H899 H 0.66984 0.22015 0.36051 0.0
C900 C 0.47163 0.06457 0.32838 0.0
C901 C 0.4895 0.0783 0.29804 0.0
C902 C 0.456 0.07682 0.34595 0.0
C903 C 0.45869 0.10403 0.33368 0.0
C904 C 0.47678 0.11801 0.30312 0.0
C905 C 0.49142 0.10482 0.28548 0.0
C906 C 0.43655 0.06057 0.37777 0.0
C907 C 0.48096 0.14722 0.28919 0.0
C908 C 0.401 0.12704 0.35936 0.0
C909 C 0.41461 0.14627 0.38869 0.0
C910 C 0.41466 0.11274 0.34181 0.0
C911 C 0.44315 0.11818 0.35304 0.0
C912 C 0.45702 0.13765 0.38255 0.0
C913 C 0.44247 0.15093 0.40024 0.0
C914 C 0.39851 0.09172 0.31116 0.0
C915 C 0.4875 0.14474 0.39534 0.0
H916 H 0.46997 0.04421 0.33859 0.0
H917 H 0.50439 0.11536 0.26157 0.0
H918 H 0.44534 0.07441 0.40233 0.0
H919 H 0.4137 0.05662 0.37329 0.0
H920 H 0.43529 0.03884 0.38275 0.0
H921 H 0.4964 0.15578 0.26589 0.0
H922 H 0.45923 0.14454 0.28085 0.0
H923 H 0.48988 0.16414 0.31092 0.0
H924 H 0.37961 0.12326 0.34993 0.0
H925 H 0.45301 0.16495 0.42341 0.0
H926 H 0.39659 0.06977 0.31648 0.0
H927 H 0.41137 0.1005 0.28591 0.0
H928 H 0.37585 0.08842 0.30694 0.0
H929 H 0.48693 0.12411 0.4045 0.0
H930 H 0.49577 0.16103 0.4178 0.0
H931 H 0.5036 0.15397 0.37276 0.0
C932 C 0.99036 0.41971 0.33017 0.0
C933 C 0.97694 0.42392 0.29951 0.0
C934 C 0.97747 0.392 0.3484 0.0
C935 C 0.95017 0.36767 0.33613 0.0
C936 C 0.93668 0.37179 0.30501 0.0
C937 C 0.95029 0.39956 0.28701 0.0
C938 C 0.99304 0.38883 0.38103 0.0
C939 C 0.90759 0.34686 0.29082 0.0
C940 C 0.92613 0.28719 0.3646 0.0
C941 C 0.90592 0.2819 0.39265 0.0
C942 C 0.94094 0.31493 0.34643 0.0
C943 C 0.93538 0.33819 0.3561 0.0
C944 C 0.91518 0.33301 0.38461 0.0
C945 C 0.90107 0.30526 0.40265 0.0
C946 C 0.9625 0.31928 0.31669 0.0
C947 C 0.90824 0.35678 0.39597 0.0
H948 H 1.0109 0.43826 0.34015 0.0
H949 H 0.94001 0.40217 0.26291 0.0
H950 H 0.97869 0.38384 0.40511 0.0
H951 H 0.99702 0.36989 0.37733 0.0
H952 H 1.01468 0.40927 0.38634 0.0
H953 H 0.89977 0.35353 0.26654 0.0
H954 H 0.91002 0.3274 0.28392 0.0
H955 H 0.89022 0.33954 0.31194 0.0
H956 H 0.93016 0.26946 0.35656 0.0
H957 H 0.88627 0.30195 0.4249 0.0
H958 H 0.98452 0.33906 0.3224 0.0
H959 H 0.95447 0.32354 0.29087 0.0
H960 H 0.96541 0.29963 0.31329 0.0
H961 H 0.9289 0.37695 0.40479 0.0
H962 H 0.89182 0.3493 0.41828 0.0
H963 H 0.89924 0.36332 0.37275 0.0
C964 C 0.74867 0.64425 0.3983 0.0
C965 C 0.76936 0.63489 0.39148 0.0
C966 C 0.72101 0.63154 0.38003 0.0
C967 C 0.71364 0.60896 0.35385 0.0
C968 C 0.73467 0.59971 0.34662 0.0
C969 C 0.76198 0.61256 0.36559 0.0
C970 C 0.6994 0.64195 0.38923 0.0
C971 C 0.72828 0.5761 0.31881 0.0
C972 C 0.63178 0.55489 0.32892 0.0
C973 C 0.62827 0.56695 0.29662 0.0
C974 C 0.65907 0.56849 0.34798 0.0
C975 C 0.68394 0.59477 0.33438 0.0
C976 C 0.68041 0.6071 0.3018 0.0
C977 C 0.65273 0.59322 0.28353 0.0
C978 C 0.66134 0.55457 0.38269 0.0
C979 C 0.70611 0.63476 0.2858 0.0
H980 H 0.7538 0.66106 0.41865 0.0
H981 H 0.77776 0.60517 0.36002 0.0
H982 H 0.69378 0.65039 0.36471 0.0
H983 H 0.67838 0.62296 0.39949 0.0
H984 H 0.70841 0.65983 0.40985 0.0
H985 H 0.7471 0.57184 0.31558 0.0
H986 H 0.70816 0.55497 0.32657 0.0
H987 H 0.7236 0.58295 0.29239 0.0
H988 H 0.61302 0.53468 0.33934 0.0
H989 H 0.65043 0.60257 0.25842 0.0
H990 H 0.66867 0.5711 0.40481 0.0
H991 H 0.67834 0.54769 0.38001 0.0
H992 H 0.63985 0.53478 0.39039 0.0
H993 H 0.71454 0.65329 0.30545 0.0
H994 H 0.69983 0.64187 0.26062 0.0
H995 H 0.72469 0.63066 0.27981 0.0
C996 C 0.56294 0.86946 0.60532 0.0
C997 C 0.55983 0.84177 0.59711 0.0
C998 C 0.55041 0.87336 0.6367 0.0
C999 C 0.53492 0.84903 0.66057 0.0
C1000 C 0.53001 0.82052 0.65107 0.0
C1001 C 0.54245 0.81718 0.61916 0.0
C1002 C 0.55568 0.90402 0.64556 0.0
C1003 C 0.5138 0.79415 0.67592 0.0
C1004 C 0.54498 0.87646 0.75634 0.0
C1005 C 0.51849 0.87665 0.76199 0.0
C1006 C 0.5496 0.86516 0.72433 0.0
C1007 C 0.52744 0.85464 0.69715 0.0
C1008 C 0.4999 0.85319 0.70374 0.0
C1009 C 0.49566 0.8641 0.73638 0.0
C1010 C 0.57907 0.86656 0.71857 0.0
C1011 C 0.47595 0.84254 0.67528 0.0
H1012 H 0.57649 0.88839 0.58809 0.0
H1013 H 0.54044 0.79585 0.61284 0.0
H1014 H 0.53466 0.90283 0.65421 0.0
H1015 H 0.57168 0.91348 0.66826 0.0
H1016 H 0.56485 0.9195 0.62229 0.0
H1017 H 0.50777 0.77285 0.66224 0.0
H1018 H 0.52829 0.79674 0.69926 0.0
H1019 H 0.49328 0.79293 0.6866 0.0
H1020 H 0.56262 0.8865 0.77622 0.0
H1021 H 0.47539 0.86485 0.74073 0.0
H1022 H 0.59233 0.8841 0.69847 0.0
H1023 H 0.57557 0.84513 0.70778 0.0
H1024 H 0.59223 0.87172 0.74384 0.0
H1025 H 0.48282 0.85974 0.65393 0.0
H1026 H 0.45435 0.83831 0.68651 0.0
H1027 H 0.47273 0.82188 0.66238 0.0
C1028 C 0.1655 0.67298 0.7507 0.0
C1029 C 0.16891 0.64873 0.75993 0.0
C1030 C 0.17803 0.68906 0.71901 0.0
C1031 C 0.19382 0.68018 0.69582 0.0
C1032 C 0.19883 0.65677 0.7062 0.0
C1033 C 0.1864 0.64137 0.73842 0.0
C1034 C 0.17265 0.71427 0.70922 0.0
C1035 C 0.21529 0.64653 0.68207 0.0
C1036 C 0.18507 0.69807 0.59968 0.0
C1037 C 0.21142 0.72506 0.59467 0.0
C1038 C 0.18017 0.68178 0.63155 0.0
C1039 C 0.2019 0.69332 0.65922 0.0
C1040 C 0.22943 0.7196 0.65315 0.0
C1041 C 0.23395 0.73514 0.62067 0.0
C1042 C 0.15073 0.65352 0.63673 0.0
C1043 C 0.25297 0.73278 0.68209 0.0
H1044 H 0.1519 0.67851 0.76751 0.0
H1045 H 0.18864 0.62229 0.74552 0.0
H1046 H 0.19374 0.73419 0.7009 0.0
H1047 H 0.15708 0.70759 0.68605 0.0
H1048 H 0.16295 0.72048 0.73192 0.0
H1049 H 0.22117 0.6313 0.69629 0.0
H1050 H 0.20107 0.63457 0.6586 0.0
H1051 H 0.23594 0.66581 0.67151 0.0
H1052 H 0.16764 0.69061 0.57952 0.0
H1053 H 0.25411 0.75639 0.61683 0.0
H1054 H 0.13694 0.6576 0.65614 0.0
H1055 H 0.15419 0.63568 0.64811 0.0
H1056 H 0.13813 0.64549 0.61109 0.0
H1057 H 0.2458 0.74304 0.70308 0.0
H1058 H 0.27472 0.75019 0.67121 0.0
H1059 H 0.25599 0.71529 0.69534 0.0
C1060 C 0.3797 0.49891 0.75345 0.0
C1061 C 0.40445 0.52659 0.76125 0.0
C1062 C 0.36217 0.49517 0.72307 0.0
C1063 C 0.37003 0.51968 0.69978 0.0
C1064 C 0.39381 0.54818 0.70901 0.0
C1065 C 0.41073 0.55135 0.73994 0.0
C1066 C 0.33662 0.46451 0.71448 0.0
C1067 C 0.40294 0.57475 0.68478 0.0
C1068 C 0.34968 0.49304 0.60405 0.0
C1069 C 0.3227 0.4926 0.60018 0.0
C1070 C 0.36662 0.50418 0.63547 0.0
C1071 C 0.35574 0.5143 0.66387 0.0
C1072 C 0.32929 0.5155 0.65909 0.0
C1073 C 0.31309 0.50473 0.62701 0.0
C1074 C 0.39502 0.50305 0.6393 0.0
C1075 C 0.31682 0.52576 0.68886 0.0
H1076 H 0.37502 0.47986 0.77012 0.0
H1077 H 0.43016 0.57269 0.74594 0.0
H1078 H 0.31644 0.46561 0.70725 0.0
H1079 H 0.34248 0.45535 0.69093 0.0
H1080 H 0.33121 0.44884 0.73742 0.0
H1081 H 0.41847 0.59597 0.69848 0.0
H1082 H 0.41422 0.57256 0.6606 0.0
H1083 H 0.38321 0.57584 0.67538 0.0
H1084 H 0.35676 0.48333 0.58321 0.0
H1085 H 0.29185 0.50381 0.624 0.0
H1086 H 0.39159 0.48543 0.65891 0.0
H1087 H 0.41319 0.52449 0.64983 0.0
H1088 H 0.40224 0.49818 0.61331 0.0
H1089 H 0.30732 0.50838 0.71009 0.0
H1090 H 0.29898 0.5299 0.67897 0.0
H1091 H 0.33458 0.54638 0.70152 0.0
C1092 C 0.10867 0.48012 0.73964 0.0
C1093 C 0.08251 0.47902 0.7272 0.0
C1094 C 0.12199 0.46611 0.72087 0.0
C1095 C 0.1086 0.44966 0.68906 0.0
C1096 C 0.0817 0.44774 0.67689 0.0
C1097 C 0.06921 0.46257 0.6958 0.0
C1098 C 0.15076 0.4693 0.7349 0.0
C1099 C 0.06614 0.43012 0.64365 0.0
C1100 C 0.1573 0.43723 0.62114 0.0
C1101 C 0.15209 0.40864 0.63007 0.0
C1102 C 0.14351 0.45073 0.64003 0.0
C1103 C 0.12313 0.43515 0.66824 0.0
C1104 C 0.11719 0.40597 0.67683 0.0
C1105 C 0.13184 0.39326 0.65798 0.0
C1106 C 0.15102 0.48192 0.62993 0.0
C1107 C 0.09535 0.38812 0.7061 0.0
H1108 H 0.11888 0.49209 0.76425 0.0
H1109 H 0.0491 0.46155 0.68574 0.0
H1110 H 0.14784 0.44704 0.74094 0.0
H1111 H 0.16829 0.47967 0.714 0.0
H1112 H 0.15863 0.48308 0.75967 0.0
H1113 H 0.04462 0.42929 0.63874 0.0
H1114 H 0.08059 0.44018 0.61978 0.0
H1115 H 0.06195 0.40702 0.64623 0.0
H1116 H 0.17218 0.44916 0.59909 0.0
H1117 H 0.1276 0.37125 0.66535 0.0
H1118 H 0.15991 0.4967 0.65375 0.0
H1119 H 0.13062 0.48202 0.62117 0.0
H1120 H 0.1677 0.49135 0.60794 0.0
H1121 H 0.10342 0.39952 0.73236 0.0
H1122 H 0.09194 0.36527 0.70843 0.0
H1123 H 0.07356 0.38652 0.70068 0.0
C1124 C 0.61694 0.73159 0.61848 0.0
C1125 C 0.64454 0.75537 0.62968 0.0
C1126 C 0.60339 0.70374 0.63628 0.0
C1127 C 0.61794 0.69885 0.66571 0.0
C1128 C 0.64613 0.72257 0.67667 0.0
C1129 C 0.65888 0.75044 0.65883 0.0
C1130 C 0.57326 0.67953 0.62366 0.0
C1131 C 0.66288 0.71853 0.70737 0.0
C1132 C 0.5713 0.63642 0.73342 0.0
C1133 C 0.57468 0.61263 0.72125 0.0
C1134 C 0.58503 0.66429 0.71566 0.0
C1135 C 0.60344 0.66917 0.68524 0.0
C1136 C 0.60749 0.64544 0.67329 0.0
C1137 C 0.59295 0.61756 0.69114 0.0
C1138 C 0.57959 0.68851 0.72936 0.0
C1139 C 0.62721 0.64948 0.6415 0.0
H1140 H 0.60588 0.73468 0.5955 0.0
H1141 H 0.68011 0.76853 0.6679 0.0
H1142 H 0.57464 0.65983 0.61493 0.0
H1143 H 0.55712 0.67229 0.64622 0.0
H1144 H 0.56451 0.6869 0.60095 0.0
H1145 H 0.68508 0.73854 0.71168 0.0
H1146 H 0.64984 0.71373 0.73258 0.0
H1147 H 0.66592 0.69918 0.70205 0.0
H1148 H 0.55793 0.63332 0.75712 0.0
H1149 H 0.59573 0.59945 0.68132 0.0
H1150 H 0.56992 0.69576 0.7076 0.0
H1151 H 0.60096 0.70821 0.73739 0.0
H1152 H 0.56428 0.68115 0.75281 0.0
H1153 H 0.61812 0.65429 0.61695 0.0
H1154 H 0.62925 0.62948 0.63647 0.0
H1155 H 0.64977 0.66883 0.64606 0.0
C1156 C 0.31799 0.89016 0.62188 0.0
C1157 C 0.29373 0.89302 0.63344 0.0
C1158 C 0.34546 0.9038 0.64051 0.0
C1159 C 0.34962 0.92187 0.67106 0.0
C1160 C 0.32553 0.92563 0.68225 0.0
C1161 C 0.29795 0.91096 0.6637 0.0
C1162 C 0.37 0.8985 0.62768 0.0
C1163 C 0.32885 0.94516 0.71396 0.0
C1164 C 0.41046 0.93473 0.74006 0.0
C1165 C 0.43474 0.96214 0.72918 0.0
C1166 C 0.38298 0.92144 0.72142 0.0
C1167 C 0.37887 0.93618 0.69159 0.0
C1168 C 0.40301 0.96429 0.68109 0.0
C1169 C 0.43058 0.97665 0.69958 0.0
C1170 C 0.35839 0.89131 0.73349 0.0
C1171 C 0.39976 0.98136 0.65016 0.0
H1172 H 0.31555 0.87717 0.59803 0.0
H1173 H 0.27953 0.91337 0.67314 0.0
H1174 H 0.38978 0.91993 0.62001 0.0
H1175 H 0.37689 0.88881 0.6498 0.0
H1176 H 0.36311 0.88325 0.60419 0.0
H1177 H 0.30888 0.94746 0.71792 0.0
H1178 H 0.33268 0.9357 0.73885 0.0
H1179 H 0.34851 0.96764 0.71014 0.0
H1180 H 0.41287 0.92354 0.76339 0.0
H1181 H 0.44903 0.99771 0.69066 0.0
H1182 H 0.35145 0.87531 0.7108 0.0
H1183 H 0.33865 0.89281 0.74167 0.0
H1184 H 0.36524 0.88229 0.75644 0.0
H1185 H 0.39585 0.9687 0.62479 0.0
H1186 H 0.41978 1.00369 0.64671 0.0
H1187 H 0.38015 0.98416 0.65455 0.0
C1188 C 0.16003 0.35407 0.42142 0.0
C1189 C 0.188 0.37339 0.43661 0.0
C1190 C 0.15622 0.35062 0.384 0.0
C1191 C 0.18104 0.36667 0.36118 0.0
C1192 C 0.209 0.38732 0.37622 0.0
C1193 C 0.21211 0.39058 0.41379 0.0
C1194 C 0.12595 0.32878 0.36903 0.0
C1195 C 0.23603 0.4048 0.35274 0.0
C1196 C 0.18325 0.33394 0.27063 0.0
C1197 C 0.17851 0.35212 0.24671 0.0
C1198 C 0.18342 0.33799 0.30802 0.0
C1199 C 0.17832 0.3605 0.32182 0.0
C1200 C 0.17194 0.37784 0.29789 0.0
C1201 C 0.17227 0.37356 0.26064 0.0
C1202 C 0.19036 0.31906 0.33268 0.0
C1203 C 0.16583 0.40166 0.31156 0.0
H1204 H 0.14121 0.34083 0.43887 0.0
H1205 H 0.23379 0.40543 0.42528 0.0
H1206 H 0.1197 0.3393 0.34724 0.0
H1207 H 0.12658 0.30952 0.35709 0.0
H1208 H 0.10837 0.32033 0.39004 0.0
H1209 H 0.25567 0.42125 0.36838 0.0
H1210 H 0.24179 0.38932 0.3392 0.0
H1211 H 0.23121 0.41677 0.33136 0.0
H1212 H 0.18823 0.31744 0.26014 0.0
H1213 H 0.16839 0.38761 0.24236 0.0
H1214 H 0.17262 0.30799 0.35318 0.0
H1215 H 0.21147 0.33339 0.34728 0.0
H1216 H 0.19259 0.30173 0.31782 0.0
H1217 H 0.14819 0.39236 0.33241 0.0
H1218 H 0.15884 0.41149 0.28968 0.0
H1219 H 0.18618 0.41972 0.3244 0.0
C1220 C 0.70429 0.82189 0.42388 0.0
C1221 C 0.68506 0.83072 0.43876 0.0
C1222 C 0.70835 0.82216 0.3865 0.0
C1223 C 0.6932 0.83197 0.36348 0.0
C1224 C 0.67274 0.8396 0.37821 0.0
C1225 C 0.66872 0.83863 0.41567 0.0
C1226 C 0.72982 0.81319 0.3718 0.0
C1227 C 0.6563 0.85037 0.35458 0.0
C1228 C 0.72803 0.86875 0.27427 0.0
C1229 C 0.70964 0.8468 0.24954 0.0
C1230 C 0.72339 0.86389 0.31149 0.0
C1231 C 0.70015 0.83622 0.32429 0.0
C1232 C 0.68262 0.8134 0.29951 0.0
C1233 C 0.6874 0.81905 0.26242 0.0
C1234 C 0.74245 0.88889 0.33705 0.0
C1235 C 0.6581 0.78339 0.3121 0.0
H1236 H 0.71686 0.81555 0.44155 0.0
H1237 H 0.65396 0.84563 0.42693 0.0
H1238 H 0.71943 0.79714 0.34937 0.0
H1239 H 0.74972 0.83305 0.3608 0.0
H1240 H 0.73724 0.80299 0.39276 0.0
H1241 H 0.64002 0.85393 0.36997 0.0
H1242 H 0.67247 0.87168 0.34155 0.0
H1243 H 0.64429 0.8341 0.33281 0.0
H1244 H 0.74514 0.89029 0.26454 0.0
H1245 H 0.67322 0.80189 0.24347 0.0
H1246 H 0.75277 0.8812 0.35744 0.0
H1247 H 0.72835 0.89588 0.35171 0.0
H1248 H 0.76037 0.90858 0.3229 0.0
H1249 H 0.66658 0.77425 0.3331 0.0
H1250 H 0.64856 0.76711 0.2897 0.0
H1251 H 0.63999 0.78582 0.32442 0.0
C1252 C 0.18437 0.86959 0.27529 0.0
C1253 C 0.20871 0.87764 0.25246 0.0
C1254 C 0.18752 0.86946 0.31285 0.0
C1255 C 0.21581 0.87814 0.32794 0.0
C1256 C 0.24083 0.88822 0.30511 0.0
C1257 C 0.23694 0.88758 0.26763 0.0
C1258 C 0.16022 0.8583 0.33624 0.0
C1259 C 0.27148 0.89834 0.32015 0.0
C1260 C 0.22272 0.8915 0.42901 0.0
C1261 C 0.21829 0.86415 0.4421 0.0
C1262 C 0.22321 0.8969 0.39186 0.0
C1263 C 0.21862 0.87422 0.36723 0.0
C1264 C 0.21516 0.84696 0.38025 0.0
C1265 C 0.21532 0.84237 0.4175 0.0
C1266 C 0.22768 0.9265 0.37904 0.0
C1267 C 0.20993 0.82209 0.35489 0.0
H1268 H 0.16247 0.86174 0.26378 0.0
H1269 H 0.25591 0.89405 0.25015 0.0
H1270 H 0.15551 0.83717 0.34947 0.0
H1271 H 0.16408 0.87455 0.35785 0.0
H1272 H 0.14026 0.85422 0.32059 0.0
H1273 H 0.28906 0.90896 0.29929 0.0
H1274 H 0.27654 0.91439 0.34243 0.0
H1275 H 0.27233 0.87896 0.33141 0.0
H1276 H 0.2252 0.90853 0.44784 0.0
H1277 H 0.21171 0.82113 0.42735 0.0
H1278 H 0.20691 0.92331 0.36635 0.0
H1279 H 0.24538 0.93611 0.35826 0.0
H1280 H 0.23378 0.94275 0.40137 0.0
H1281 H 0.18886 0.81462 0.33988 0.0
H1282 H 0.20857 0.80263 0.36924 0.0
H1283 H 0.2281 0.83011 0.33478 0.0
C1284 C 0.36044 0.14626 0.75141 0.0
C1285 C 0.34262 0.15632 0.76749 0.0
C1286 C 0.36321 0.14609 0.71389 0.0
C1287 C 0.34798 0.15646 0.69193 0.0
C1288 C 0.32848 0.16484 0.70786 0.0
C1289 C 0.32588 0.16451 0.74553 0.0
C1290 C 0.38381 0.13646 0.69794 0.0
C1291 C 0.31182 0.176 0.68528 0.0
C1292 C 0.38265 0.19331 0.60276 0.0
C1293 C 0.36428 0.17139 0.578 0.0
C1294 C 0.37788 0.18847 0.63995 0.0
C1295 C 0.35437 0.16094 0.65268 0.0
C1296 C 0.33664 0.13823 0.62792 0.0
C1297 C 0.34173 0.14376 0.59088 0.0
C1298 C 0.39731 0.21326 0.66558 0.0
C1299 C 0.3117 0.10843 0.64047 0.0
H1300 H 0.37325 0.13964 0.76824 0.0
H1301 H 0.31218 0.17241 0.75776 0.0
H1302 H 0.37274 0.1207 0.67541 0.0
H1303 H 0.40381 0.15615 0.68681 0.0
H1304 H 0.39116 0.1257 0.71823 0.0
H1305 H 0.29565 0.17921 0.70141 0.0
H1306 H 0.32789 0.19759 0.67276 0.0
H1307 H 0.29969 0.16019 0.66314 0.0
H1308 H 0.40003 0.21474 0.5931 0.0
H1309 H 0.32749 0.12659 0.57196 0.0
H1310 H 0.40777 0.2053 0.68545 0.0
H1311 H 0.3835 0.22026 0.68085 0.0
H1312 H 0.41516 0.23299 0.65142 0.0
H1313 H 0.32006 0.09862 0.66073 0.0
H1314 H 0.30134 0.09243 0.61793 0.0
H1315 H 0.29423 0.11141 0.65373 0.0
C1316 C 0.90021 0.22056 0.59896 0.0
C1317 C 0.87177 0.20997 0.58408 0.0
C1318 C 0.90444 0.2216 0.63638 0.0
C1319 C 0.87957 0.21133 0.65947 0.0
C1320 C 0.85102 0.20192 0.64468 0.0
C1321 C 0.84751 0.2016 0.60715 0.0
C1322 C 0.93532 0.23245 0.6511 0.0
C1323 C 0.8239 0.19063 0.66841 0.0
C1324 C 0.88084 0.17813 0.7503 0.0
C1325 C 0.88376 0.20041 0.77403 0.0
C1326 C 0.88014 0.18172 0.71289 0.0
C1327 C 0.88294 0.20843 0.69886 0.0
C1328 C 0.8875 0.23163 0.7226 0.0
C1329 C 0.88762 0.22725 0.7599 0.0
C1330 C 0.87507 0.15637 0.68846 0.0
C1331 C 0.89124 0.26067 0.70866 0.0
H1332 H 0.91912 0.22729 0.58128 0.0
H1333 H 0.82546 0.19323 0.59587 0.0
H1334 H 0.94041 0.24895 0.67282 0.0
H1335 H 0.93659 0.21349 0.66305 0.0
H1336 H 0.95266 0.24277 0.62993 0.0
H1337 H 0.80362 0.18573 0.65291 0.0
H1338 H 0.81986 0.16997 0.6823 0.0
H1339 H 0.8276 0.20722 0.68952 0.0
H1340 H 0.87769 0.15728 0.76097 0.0
H1341 H 0.89009 0.24467 0.77807 0.0
H1342 H 0.89293 0.16421 0.66795 0.0
H1343 H 0.85368 0.14809 0.67387 0.0
H1344 H 0.87441 0.13752 0.70351 0.0
H1345 H 0.90862 0.26999 0.68749 0.0
H1346 H 0.8974 0.27746 0.73036 0.0
H1347 H 0.87014 0.25675 0.69617 0.0
C1348 C 0.84795 0.65977 0.60918 0.0
C1349 C 0.84347 0.6775 0.58425 0.0
C1350 C 0.84819 0.66476 0.64632 0.0
C1351 C 0.84308 0.68757 0.65892 0.0
C1352 C 0.8368 0.7044 0.63397 0.0
C1353 C 0.83748 0.69944 0.59688 0.0
C1354 C 0.8555 0.64666 0.67195 0.0
C1355 C 0.83036 0.72829 0.64636 0.0
C1356 C 0.82751 0.6834 0.75932 0.0
C1357 C 0.85572 0.70376 0.77301 0.0
C1358 C 0.82254 0.67916 0.72204 0.0
C1359 C 0.84654 0.69506 0.69798 0.0
C1360 C 0.87476 0.71648 0.71163 0.0
C1361 C 0.87889 0.72083 0.74894 0.0
C1362 C 0.79193 0.65679 0.70852 0.0
C1363 C 0.90109 0.73354 0.68697 0.0
H1364 H 0.85281 0.64292 0.59964 0.0
H1365 H 0.83382 0.7131 0.57774 0.0
H1366 H 0.87661 0.66152 0.68626 0.0
H1367 H 0.83786 0.63591 0.69262 0.0
H1368 H 0.85794 0.62911 0.65793 0.0
H1369 H 0.82249 0.73689 0.62399 0.0
H1370 H 0.81326 0.71956 0.66789 0.0
H1371 H 0.85081 0.74715 0.65792 0.0
H1372 H 0.80945 0.67028 0.77779 0.0
H1373 H 0.90079 0.73645 0.75933 0.0
H1374 H 0.79223 0.63703 0.69773 0.0
H1375 H 0.78519 0.66643 0.6862 0.0
H1376 H 0.7749 0.64927 0.73014 0.0
H1377 H 0.90662 0.71783 0.67355 0.0
H1378 H 0.92111 0.75043 0.70165 0.0
H1379 H 0.89559 0.74493 0.66554 0.0
C1380 C 0.03616 0.48851 0.09382 0.0
C1381 C 1.01722 0.49784 0.10834 0.0
C1382 C 0.04009 0.48824 0.05646 0.0
C1383 C 1.02515 0.49805 0.0331 0.0
C1384 C 1.00498 0.50621 0.0475 0.0
C1385 C 1.00105 0.50574 0.08494 0.0
C1386 C 0.0612 0.47866 0.04212 0.0
C1387 C 0.9888 0.51705 0.02351 0.0
C1388 C 0.06027 0.53387 0.9436 0.0
C1389 C 0.04164 0.51188 0.91908 0.0
C1390 C 0.05562 0.5293 0.98086 0.0
C1391 C 0.03211 0.50189 0.99391 0.0
C1392 C 1.01431 0.47899 0.96933 0.0
C1393 C 1.01912 0.48436 0.93221 0.0
C1394 C 0.07494 0.55439 1.00619 0.0
C1395 C 0.98948 0.44923 0.98214 0.0
H1396 H 0.04859 0.48217 0.11174 0.0
H1397 H 0.98651 0.51313 0.09592 0.0
H1398 H 0.05058 0.4624 0.01993 0.0
H1399 H 0.08125 0.49822 0.0309 0.0
H1400 H 0.0684 0.46847 0.06335 0.0
H1401 H 0.97272 0.52106 0.03869 0.0
H1402 H 1.00515 0.53814 1.01021 0.0
H1403 H 0.97662 0.50062 1.00196 0.0
H1404 H 0.07759 0.55523 0.93368 0.0
H1405 H 1.00474 0.46716 0.91341 0.0
H1406 H 0.08507 0.54663 0.02676 0.0
H1407 H 0.06108 0.56177 0.02066 0.0
H1408 H 0.09303 0.57384 0.99188 0.0
H1409 H 0.9977 0.44002 1.00335 0.0
H1410 H 0.97975 0.43281 0.9599 0.0
H1411 H 0.97154 0.45207 0.99425 0.0
C1412 C 0.52276 0.53242 0.9355 0.0
C1413 C 0.54552 0.53708 0.91151 0.0
C1414 C 0.5269 0.5324 0.97287 0.0
C1415 C 0.55457 0.53752 0.9866 0.0
C1416 C 0.57811 0.54371 0.9626 0.0
C1417 C 0.57326 0.54327 0.92536 0.0
C1418 C 0.50123 0.52567 0.99762 0.0
C1419 C 0.60809 0.54982 0.9762 0.0
C1420 C 0.56701 0.55683 0.0859 0.0
C1421 C 0.55828 0.52898 0.10156 0.0
C1422 C 0.56728 0.56027 0.04841 0.0
C1423 C 0.55833 0.53521 0.026 0.0
C1424 C 0.55102 0.50738 0.04153 0.0
C1425 C 0.55126 0.50463 0.07916 0.0
C1426 C 0.57574 0.59043 0.03292 0.0
C1427 C 0.5413 0.4801 0.0185 0.0
H1428 H 0.50125 0.52751 0.92509 0.0
H1429 H 0.59105 0.54707 0.90704 0.0
H1430 H 0.49461 0.50474 0.0126 0.0
H1431 H 0.50805 0.54366 0.0178 0.0
H1432 H 0.48152 0.52322 0.98278 0.0
H1433 H 0.62472 0.55652 0.95422 0.0
H1434 H 0.61669 0.5677 0.99676 0.0
H1435 H 0.60582 0.52958 0.98938 0.0
H1436 H 0.57269 0.57584 0.10302 0.0
H1437 H 0.54438 0.48304 0.09103 0.0
H1438 H 0.5558 0.58977 0.02098 0.0
H1439 H 0.59229 0.59636 0.01104 0.0
H1440 H 0.58512 0.60824 0.05363 0.0
H1441 H 0.51991 0.47414 1.00507 0.0
H1442 H 0.53829 0.46064 0.03446 0.0
H1443 H 0.55789 0.48471 0.99703 0.0
C1444 C 0.51428 0.9858 0.94553 0.0
C1445 C 0.50799 1.00234 0.92079 0.0
C1446 C 0.51417 0.99057 0.98272 0.0
C1447 C 0.50693 1.0119 0.99543 0.0
C1448 C 0.49862 0.02721 0.97062 0.0
C1449 C 0.49959 0.02252 0.93357 0.0
C1450 C 0.52358 0.97407 1.00826 0.0
C1451 C 0.48996 0.04952 0.9831 0.0
C1452 C 0.49241 1.00916 0.09602 0.0
C1453 C 0.52013 0.03147 0.10887 0.0
C1454 C 0.48725 1.00344 0.05898 0.0
C1455 C 0.51058 1.01993 0.03431 0.0
C1456 C 0.53825 0.04318 0.04704 0.0
C1457 C 0.54256 0.04889 0.08412 0.0
C1458 C 0.45718 0.97906 0.04638 0.0
C1459 C 0.56385 0.06105 0.02167 0.0
H1460 H 0.52098 0.97034 0.9358 0.0
H1461 H 0.49449 0.03522 0.91453 0.0
H1462 H 0.54474 0.99012 0.02166 0.0
H1463 H 0.50667 0.96294 0.02966 0.0
H1464 H 0.5269 0.95705 0.9943 0.0
H1465 H 0.48063 0.05676 0.96088 0.0
H1466 H 0.4733 0.03994 1.00505 0.0
H1467 H 0.50978 0.06945 0.99409 0.0
H1468 H 0.47492 0.99572 0.11501 0.0
H1469 H 0.5641 0.066 0.09384 0.0
H1470 H 0.45921 0.96022 0.03566 0.0
H1471 H 0.44881 0.98726 0.02418 0.0
H1472 H 0.44051 0.97058 0.06844 0.0
H1473 H 0.57045 0.04611 1.00833 0.0
H1474 H 0.58359 0.07897 0.03573 0.0
H1475 H 0.55698 0.07129 1.00022 0.0
C1476 C 0.3086 0.38405 0.13439 0.0
C1477 C 0.28971 0.39328 0.14929 0.0
C1478 C 0.33922 0.3984 0.14354 0.0
C1479 C 0.35105 0.42159 0.16958 0.0
C1480 C 0.3317 0.43024 0.18542 0.0
C1481 C 0.30165 0.41651 0.17457 0.0
C1482 C 0.35905 0.38916 0.12476 0.0
C1483 C 0.34263 0.45386 0.21427 0.0
C1484 C 0.42565 0.44251 0.21574 0.0
C1485 C 0.44518 0.46993 0.1995 0.0
C1486 C 0.39501 0.42669 0.20667 0.0
C1487 C 0.38375 0.43772 0.17938 0.0
C1488 C 0.40369 0.46501 0.16228 0.0
C1489 C 0.43379 0.48096 0.17304 0.0
C1490 C 0.37457 0.39845 0.2268 0.0
C1491 C 0.39334 0.47728 0.13216 0.0
H1492 H 0.29957 0.36605 0.115 0.0
H1493 H 0.28713 0.42341 0.18683 0.0
H1494 H 0.37764 0.40872 0.11129 0.0
H1495 H 0.36902 0.38074 0.14469 0.0
H1496 H 0.34681 0.37157 0.10433 0.0
H1497 H 0.32434 0.45634 0.22604 0.0
H1498 H 0.35361 0.44829 0.23619 0.0
H1499 H 0.35946 0.47562 0.2029 0.0
H1500 H 0.43424 0.43372 0.23605 0.0
H1501 H 0.44878 0.50181 0.15975 0.0
H1502 H 0.36425 0.37942 0.20787 0.0
H1503 H 0.35625 0.40041 0.23937 0.0
H1504 H 0.38641 0.39337 0.24815 0.0
H1505 H 0.38205 0.46012 0.11102 0.0
H1506 H 0.41199 0.49743 0.11964 0.0
H1507 H 0.3769 0.48312 0.14253 0.0
C1508 C 0.61818 1.01087 0.18231 0.0
C1509 C 0.59544 0.99803 0.20823 0.0
C1510 C 0.63369 0.99646 0.17075 0.0
C1511 C 0.62718 0.96879 0.18617 0.0
C1512 C 0.60503 0.95627 0.21336 0.0
C1513 C 0.58912 0.97067 0.22353 0.0
C1514 C 0.65633 1.01037 0.14097 0.0
C1515 C 0.59787 0.9274 0.23154 0.0
C1516 C 0.64531 0.91487 0.13625 0.0
C1517 C 0.67274 0.92138 0.15145 0.0
C1518 C 0.63078 0.93065 0.14643 0.0
C1519 C 0.64324 0.95285 0.17358 0.0
C1520 C 0.67097 0.95953 0.18893 0.0
C1521 C 0.68551 0.94416 0.17732 0.0
C1522 C 0.60185 0.92333 0.1283 0.0
C1523 C 0.68481 0.98222 0.21866 0.0
H1524 H 0.62298 0.03169 0.16974 0.0
H1525 H 0.57157 0.96042 0.24341 0.0
H1526 H 0.67831 1.0142 0.15019 0.0
H1527 H 0.64953 0.99493 0.11771 0.0
H1528 H 0.65889 0.03189 0.13166 0.0
H1529 H 0.58185 0.92173 0.25405 0.0
H1530 H 0.58821 0.909 0.2117 0.0
H1531 H 0.61853 0.92878 0.24219 0.0
H1532 H 0.63513 0.8973 0.11637 0.0
H1533 H 0.70639 0.9491 0.18981 0.0
H1534 H 0.60313 0.94393 0.11758 0.0
H1535 H 0.58349 0.91366 0.1482 0.0
H1536 H 0.59622 0.90726 0.10586 0.0
H1537 H 0.68856 1.00416 0.20939 0.0
H1538 H 0.70637 0.98487 0.22796 0.0
H1539 H 0.66939 0.97539 0.24193 0.0
C1540 C 0.05465 0.62897 0.22167 0.0
C1541 C 0.06274 0.60939 0.20619 0.0
C1542 C 0.06968 0.6596 0.21245 0.0
C1543 C 0.09238 0.67075 0.18579 0.0
C1544 C 0.09988 0.65072 0.1694 0.0
C1545 C 0.0855 0.62066 0.18028 0.0
C1546 C 0.06167 0.68015 0.23178 0.0
C1547 C 0.12296 0.66096 0.13994 0.0
C1548 C 0.11492 0.74579 0.1398 0.0
C1549 C 0.14281 0.76466 0.15541 0.0
C1550 C 0.09839 0.71521 0.14906 0.0
C1551 C 0.10922 0.7034 0.17591 0.0
C1552 C 0.13701 0.72271 0.19239 0.0
C1553 C 0.15362 0.75272 0.18145 0.0
C1554 C 0.06959 0.69541 0.1296 0.0
C1555 C 0.14914 0.71175 0.22201 0.0
H1556 H 0.03703 0.62046 0.24156 0.0
H1557 H 0.09151 0.60561 0.16758 0.0
H1558 H 0.08176 0.69834 0.24494 0.0
H1559 H 0.05353 0.69067 0.21225 0.0
H1560 H 0.04427 0.66836 0.25256 0.0
H1561 H 0.12454 0.64223 0.12786 0.0
H1562 H 0.11753 0.67231 0.11834 0.0
H1563 H 0.14511 0.67732 0.15083 0.0
H1564 H 0.10632 0.75482 0.11982 0.0
H1565 H 0.17484 0.76722 0.19425 0.0
H1566 H 0.0509 0.68552 0.14902 0.0
H1567 H 0.07068 0.67674 0.1166 0.0
H1568 H 0.06462 0.70765 0.10867 0.0
H1569 H 0.13224 0.70091 0.24353 0.0
H1570 H 0.16979 0.73002 0.23415 0.0
H1571 H 0.15411 0.69479 0.21126 0.0
C1572 C 0.39089 0.29075 0.87985 0.0
C1573 C 0.39804 0.27103 0.8628 0.0
C1574 C 0.4057 0.32139 0.87072 0.0
C1575 C 0.42719 0.33243 0.84262 0.0
C1576 C 0.43372 0.31228 0.8247 0.0
C1577 C 0.41963 0.28219 0.83547 0.0
C1578 C 0.3988 0.34207 0.89166 0.0
C1579 C 0.45545 0.32242 0.79374 0.0
C1580 C 0.44809 0.40772 0.79844 0.0
C1581 C 0.47663 0.42645 0.81251 0.0
C1582 C 0.43189 0.37709 0.80755 0.0
C1583 C 0.44378 0.3651 0.83277 0.0
C1584 C 0.47228 0.38425 0.8477 0.0
C1585 C 0.48849 0.41431 0.83686 0.0
C1586 C 0.40224 0.35746 0.78971 0.0
C1587 C 0.48557 0.3731 0.87565 0.0
H1588 H 0.37419 0.28234 0.90088 0.0
H1589 H 0.42493 0.26705 0.82162 0.0
H1590 H 0.41952 0.36016 0.90383 0.0
H1591 H 0.38992 0.3527 0.87336 0.0
H1592 H 0.38233 0.33034 0.91341 0.0
H1593 H 0.45628 0.30362 0.78066 0.0
H1594 H 0.44923 0.33393 0.7732 0.0
H1595 H 0.4781 0.33861 0.80343 0.0
H1596 H 0.43867 0.4169 0.7798 0.0
H1597 H 0.51024 0.42871 0.84852 0.0
H1598 H 0.3844 0.34777 0.81026 0.0
H1599 H 0.40254 0.33865 0.77595 0.0
H1600 H 0.39656 0.36979 0.76968 0.0
H1601 H 0.46968 0.36236 0.89818 0.0
H1602 H 0.50684 0.39124 0.88673 0.0
H1603 H 0.48981 0.35601 0.86371 0.0
C1604 C 0.64037 0.07253 0.80576 0.0
C1605 C 0.62029 0.04508 0.82161 0.0
C1606 C 0.67082 0.08806 0.81546 0.0
C1607 C 0.68156 0.07662 0.84281 0.0
C1608 C 0.66135 0.04889 0.85887 0.0
C1609 C 0.63127 0.03331 0.8477 0.0
C1610 C 0.6915 0.11691 0.79656 0.0
C1611 C 0.67126 0.03612 0.88887 0.0
C1612 C 0.76527 0.10417 0.85018 0.0
C1613 C 0.77507 0.1274 0.87539 0.0
C1614 C 0.73518 0.08771 0.83928 0.0
C1615 C 0.71376 0.09371 0.85475 0.0
C1616 C 0.72333 0.1164 0.88126 0.0
C1617 C 0.75381 0.13328 0.89068 0.0
C1618 C 0.72652 0.06458 0.81014 0.0
C1619 C 0.70137 0.12305 0.89951 0.0
H1620 H 0.63221 0.08196 0.78573 0.0
H1621 H 0.61596 1.01245 0.86071 0.0
H1622 H 0.69998 0.1356 0.81598 0.0
H1623 H 0.71103 0.11616 0.78576 0.0
H1624 H 0.68035 0.12169 0.77406 0.0
H1625 H 0.65291 1.01448 0.89882 0.0
H1626 H 0.68971 0.03285 0.87957 0.0
H1627 H 0.67988 0.05201 0.9117 0.0
H1628 H 0.78145 0.09968 0.83762 0.0
H1629 H 0.76103 0.15118 0.91006 0.0
H1630 H 0.71702 0.07047 0.78685 0.0
H1631 H 0.70905 0.04254 0.8201 0.0
H1632 H 0.74572 0.06257 0.80064 0.0
H1633 H 0.69182 0.13191 0.87956 0.0
H1634 H 0.71177 0.13955 0.92155 0.0
H1635 H 0.68266 0.1023 0.91079 0.0
C1636 C 0.91991 0.63607 0.88843 0.0
C1637 C 0.92708 0.66352 0.8727 0.0
C1638 C 0.93519 0.62086 0.87892 0.0
C1639 C 0.95751 0.63263 0.85186 0.0
C1640 C 0.96478 0.66035 0.83589 0.0
C1641 C 0.94994 0.67559 0.84688 0.0
C1642 C 0.92725 0.59202 0.89772 0.0
C1643 C 0.98759 0.67346 0.80619 0.0
C1644 C 1.01474 0.60639 0.84505 0.0
C1645 C 1.00182 0.58336 0.81951 0.0
C1646 C 1.00056 0.6223 0.85594 0.0
C1647 C 0.97307 0.61594 0.84015 0.0
C1648 C 0.96042 0.5934 0.81341 0.0
C1649 C 0.97457 0.57706 0.80398 0.0
C1650 C 1.01457 0.64529 0.88533 0.0
C1651 C 0.93175 0.58638 0.79483 0.0
H1652 H 0.90225 0.6264 0.90825 0.0
H1653 H 0.95535 0.69646 0.83396 0.0
H1654 H 0.91736 0.57341 0.87817 0.0
H1655 H 0.9476 0.593 0.90882 0.0
H1656 H 0.91115 0.58695 0.91999 0.0
H1657 H 0.99058 0.69498 0.79617 0.0
H1658 H 1.00939 0.67707 0.81583 0.0
H1659 H 0.98068 0.65763 0.78333 0.0
H1660 H 0.03549 0.61119 0.8578 0.0
H1661 H 0.96426 0.55931 0.78436 0.0
H1662 H 0.99894 0.63914 0.90832 0.0
H1663 H 1.01901 0.66731 0.87541 0.0
H1664 H 0.03578 0.64747 0.89525 0.0
H1665 H 0.91328 0.57729 0.81458 0.0
H1666 H 0.92594 0.56996 0.77277 0.0
H1667 H 0.93353 0.60703 0.78349 0.0
C1668 C 0.65114 0.52778 0.79723 0.0
C1669 C 0.62831 0.50388 0.8161 0.0
C1670 C 0.68094 0.53894 0.80679 0.0
C1671 C 0.68798 0.52564 0.83564 0.0
C1672 C 0.66532 0.49946 0.85201 0.0
C1673 C 0.6356 0.4889 0.84212 0.0
C1674 C 0.70454 0.56674 0.78829 0.0
C1675 C 0.67209 0.48411 0.88207 0.0
C1676 C 0.77107 0.56096 0.84771 0.0
C1677 C 0.77662 0.58444 0.87103 0.0
C1678 C 0.74185 0.53966 0.83821 0.0
C1679 C 0.71792 0.54222 0.85218 0.0
C1680 C 0.72332 0.56414 0.87838 0.0
C1681 C 0.75265 0.58492 0.88762 0.0
C1682 C 0.73687 0.516 0.81108 0.0
C1683 C 0.69832 0.56739 0.89429 0.0
H1684 H 0.6457 0.53912 0.7766 0.0
H1685 H 0.61806 0.47006 0.85641 0.0
H1686 H 0.71313 0.58576 0.80728 0.0
H1687 H 0.72358 0.56399 0.78018 0.0
H1688 H 0.69584 0.57244 0.76402 0.0
H1689 H 0.65389 0.46073 0.88559 0.0
H1690 H 0.69321 0.48423 0.87702 0.0
H1691 H 0.67464 0.49614 0.90767 0.0
H1692 H 0.7895 0.56015 0.83521 0.0
H1693 H 0.75677 0.60268 0.90618 0.0
H1694 H 0.73361 0.52304 0.78402 0.0
H1695 H 0.71663 0.49456 0.81762 0.0
H1696 H 0.75623 0.5124 0.80972 0.0
H1697 H 0.68852 0.57501 0.87309 0.0
H1698 H 0.70602 0.58369 0.91674 0.0
H1699 H 0.6804 0.54566 0.90444 0.0
C1700 C 0.47234 0.18438 0.83395 0.0
C1701 C 0.47425 0.19849 0.8667 0.0
C1702 C 0.49349 0.17652 0.82455 0.0
C1703 C 0.51683 0.18253 0.8489 0.0
C1704 C 0.52076 0.19978 0.8801 0.0
C1705 C 0.49927 0.20771 0.8887 0.0
C1706 C 0.48875 0.15872 0.79057 0.0
C1707 C 0.54587 0.20729 0.90613 0.0
C1708 C 0.52462 0.1147 0.84992 0.0
C1709 C 0.54802 0.12267 0.82573 0.0
C1710 C 0.51627 0.13521 0.86054 0.0
C1711 C 0.53138 0.16433 0.84594 0.0
C1712 C 0.55652 0.17321 0.82355 0.0
C1713 C 0.56476 0.15214 0.81382 0.0
C1714 C 0.48972 0.12486 0.88517 0.0
C1715 C 0.57338 0.20415 0.80788 0.0
H1716 H 0.45339 0.17812 0.81638 0.0
H1717 H 0.50095 0.21915 0.91374 0.0
H1718 H 0.51003 0.1667 0.77599 0.0
H1719 H 0.48011 0.135 0.7977 0.0
H1720 H 0.47252 0.15998 0.77211 0.0
H1721 H 0.55062 0.22687 0.92292 0.0
H1722 H 0.5396 0.18806 0.92434 0.0
H1723 H 0.56645 0.21189 0.89173 0.0
H1724 H 0.51232 0.09205 0.86002 0.0
H1725 H 0.58322 0.1583 0.79557 0.0
H1726 H 0.47064 0.12325 0.86972 0.0
H1727 H 0.4948 0.14106 0.90724 0.0
H1728 H 0.48278 0.10273 0.8973 0.0
H1729 H 0.5618 0.20522 0.78326 0.0
H1730 H 0.59638 0.21006 0.80026 0.0
H1731 H 0.57442 0.22098 0.82709 0.0
C1732 C 0.93174 0.40665 0.82841 0.0
C1733 C 0.92845 0.43072 0.83908 0.0
C1734 C 0.91437 0.37847 0.8438 0.0
C1735 C 0.89268 0.37409 0.86989 0.0
C1736 C 0.88774 0.39773 0.87889 0.0
C1737 C 0.90594 0.42594 0.86361 0.0
C1738 C 0.92037 0.35379 0.83345 0.0
C1739 C 0.86422 0.39364 0.90577 0.0
C1740 C 0.8424 0.29193 0.88352 0.0
C1741 C 0.85682 0.28664 0.91206 0.0
C1742 C 0.85166 0.32099 0.87201 0.0
C1743 C 0.87657 0.34502 0.88871 0.0
C1744 C 0.88941 0.33988 0.91971 0.0
C1745 C 0.87907 0.31057 0.93131 0.0
C1746 C 0.8367 0.32564 0.83974 0.0
C1747 C 0.91618 0.36492 0.9381 0.0
H1748 H 0.94904 0.41014 0.80945 0.0
H1749 H 0.90315 0.44444 0.87179 0.0
H1750 H 0.92761 0.34632 0.8575 0.0
H1751 H 0.89974 0.33434 0.82319 0.0
H1752 H 0.93785 0.36085 0.81246 0.0
H1753 H 0.85967 0.4124 0.90501 0.0
H1754 H 0.84316 0.37257 0.90066 0.0
H1755 H 0.87177 0.39226 0.93331 0.0
H1756 H 0.8251 0.27324 0.86877 0.0
H1757 H 0.89035 0.3063 0.95316 0.0
H1758 H 0.85044 0.32911 0.81542 0.0
H1759 H 0.83453 0.34571 0.84323 0.0
H1760 H 0.81427 0.3061 0.83495 0.0
H1761 H 0.936 0.37249 0.92062 0.0
H1762 H 0.92087 0.35793 0.96446 0.0
H1763 H 0.91294 0.38425 0.94245 0.0
C1764 C 0.59733 0.74217 0.08515 0.0
C1765 C 0.59837 0.76502 0.10606 0.0
C1766 C 0.57869 0.71233 0.09502 0.0
C1767 C 0.56049 0.70562 0.12599 0.0
C1768 C 0.55874 0.72861 0.14416 0.0
C1769 C 0.57816 0.7582 0.13431 0.0
C1770 C 0.58125 0.68843 0.07501 0.0
C1771 C 0.53886 0.72228 0.17647 0.0
C1772 C 0.5112 0.62388 0.14899 0.0
C1773 C 0.52952 0.61944 0.17307 0.0
C1774 C 0.52034 0.65213 0.13436 0.0
C1775 C 0.54863 0.67618 0.14359 0.0
C1776 C 0.56665 0.67204 0.16903 0.0
C1777 C 0.55671 0.64377 0.18373 0.0
C1778 C 0.50024 0.65593 0.1081 0.0
C1779 C 0.59704 0.69718 0.17962 0.0
H1780 H 0.61322 0.74762 0.06349 0.0
H1781 H 0.57903 0.77607 0.15032 0.0
H1782 H 0.59438 0.68116 0.09144 0.0
H1783 H 0.559 0.66867 0.07047 0.0
H1784 H 0.59251 0.6965 0.04861 0.0
H1785 H 0.53516 0.74116 0.18237 0.0
H1786 H 0.517 0.70187 0.17228 0.0
H1787 H 0.54942 0.71854 0.20041 0.0
H1788 H 0.49004 0.60514 0.14082 0.0
H1789 H 0.57097 0.64051 0.20232 0.0
H1790 H 0.50917 0.65829 0.08045 0.0
H1791 H 0.49939 0.67643 0.11416 0.0
H1792 H 0.47723 0.6366 0.10853 0.0
H1793 H 0.61149 0.70572 0.15547 0.0
H1794 H 0.60818 0.69018 0.19981 0.0
H1795 H 0.59514 0.71589 0.19103 0.0
C1796 C 0.30111 0.82386 0.18622 0.0
C1797 C 0.29429 0.83997 0.16129 0.0
C1798 C 0.33076 0.83317 0.19525 0.0
C1799 C 0.35383 0.85926 0.17921 0.0
C1800 C 0.34714 0.8738 0.1515 0.0
C1801 C 0.31742 0.86385 0.14273 0.0
C1802 C 0.33712 0.81649 0.22401 0.0
C1803 C 0.37117 0.90157 0.13339 0.0
C1804 C 0.42053 0.91637 0.23024 0.0
C1805 C 0.44364 0.91563 0.21174 0.0
C1806 C 0.39079 0.89616 0.22207 0.0
C1807 C 0.3841 0.87451 0.19503 0.0
C1808 C 0.40721 0.87146 0.1793 0.0
C1809 C 0.43687 0.89223 0.18774 0.0
C1810 C 0.36673 0.89996 0.23984 0.0
C1811 C 0.40086 0.84799 0.15131 0.0
H1812 H 0.28333 0.80504 0.20024 0.0
H1813 H 0.31233 0.87604 0.12291 0.0
H1814 H 0.35781 0.81601 0.21801 0.0
H1815 H 0.34026 0.82789 0.25022 0.0
H1816 H 0.31844 0.79327 0.22688 0.0
H1817 H 0.36251 0.90849 0.11013 0.0
H1818 H 0.3809 0.92011 0.15309 0.0
H1819 H 0.38937 0.89802 0.1238 0.0
H1820 H 0.4256 0.93402 0.24939 0.0
H1821 H 0.45464 0.89119 0.17378 0.0
H1822 H 0.34857 0.87826 0.24972 0.0
H1823 H 0.35696 0.90857 0.21983 0.0
H1824 H 0.37538 0.91572 0.26283 0.0
H1825 H 0.38032 0.82683 0.15789 0.0
H1826 H 0.41966 0.84362 0.14873 0.0
H1827 H 0.39744 0.85573 0.12479 0.0
C1828 C 0.1638 0.55807 0.18468 0.0
C1829 C 0.1399 0.53893 0.20683 0.0
C1830 C 0.18567 0.55102 0.17512 0.0
C1831 C 0.18322 0.52419 0.18784 0.0
C1832 C 0.16102 0.5066 0.21333 0.0
C1833 C 0.13966 0.51429 0.22265 0.0
C1834 C 0.20969 0.57091 0.14897 0.0
C1835 C 0.15794 0.478 0.22806 0.0
C1836 C 0.19604 0.47236 0.13068 0.0
C1837 C 0.21907 0.47182 0.14976 0.0
C1838 C 0.18603 0.49182 0.14058 0.0
C1839 C 0.19965 0.5113 0.17004 0.0
C1840 C 0.22537 0.51356 0.18622 0.0
C1841 C 0.2348 0.49361 0.17594 0.0
C1842 C 0.15881 0.48911 0.12211 0.0
C1843 C 0.24117 0.5349 0.21672 0.0
H1844 H 0.16446 0.57754 0.17292 0.0
H1845 H 0.12162 0.49979 0.24045 0.0
H1846 H 0.23086 0.57126 0.15462 0.0
H1847 H 0.20262 0.56236 0.12123 0.0
H1848 H 0.21376 0.59406 0.14986 0.0
H1849 H 0.15067 0.46123 0.2062 0.0
H1850 H 0.17965 0.48172 0.23822 0.0
H1851 H 0.14145 0.46859 0.25026 0.0
H1852 H 0.18428 0.45604 0.1098 0.0
H1853 H 0.25307 0.49373 0.1903 0.0
H1854 H 0.1623 0.51139 0.11498 0.0
H1855 H 0.13953 0.47847 0.14072 0.0
H1856 H 0.15305 0.47548 0.09722 0.0
H1857 H 0.24102 0.55604 0.21297 0.0
H1858 H 0.26458 0.53993 0.21926 0.0
H1859 H 0.2296 0.52471 0.24238 0.0
C1860 C 0.09761 0.7666 0.51633 0.0
C1861 C 0.10801 0.79007 0.54129 0.0
C1862 C 0.06757 0.75106 0.50504 0.0
C1863 C 0.04679 0.75831 0.51977 0.0
C1864 C 0.05692 0.78125 0.54601 0.0
C1865 C 0.08734 0.79713 0.55591 0.0
C1866 C 0.05831 0.72755 0.47628 0.0
C1867 C 0.03564 0.78926 0.56343 0.0
C1868 C 0.97471 0.73989 0.46925 0.0
C1869 C 0.95357 0.71302 0.48538 0.0
C1870 C 1.00508 0.7543 0.47935 0.0
C1871 C 1.01468 0.7423 0.50732 0.0
C1872 C 0.99342 0.71511 0.5236 0.0
C1873 C 0.96341 0.70066 0.51211 0.0
C1874 C 1.02687 0.78262 0.46026 0.0
C1875 C 1.00213 0.70179 0.55418 0.0
H1876 H 0.11331 0.76117 0.5043 0.0
H1877 H 0.095 0.81522 0.57507 0.0
H1878 H 0.04003 0.70595 0.48626 0.0
H1879 H 0.04966 0.73388 0.45251 0.0
H1880 H 0.077 0.72442 0.46748 0.0
H1881 H 0.04635 0.80587 0.5853 0.0
H1882 H 1.02693 0.79857 0.54295 0.0
H1883 H 1.0163 0.76903 0.57474 0.0
H1884 H 0.96747 0.74979 0.44873 0.0
H1885 H 0.94731 0.68025 0.52533 0.0
H1886 H 0.04593 0.78073 0.45003 0.0
H1887 H 0.03592 0.80151 0.47943 0.0
H1888 H 1.01648 0.78788 0.43733 0.0
H1889 H 1.0201 0.69753 0.54552 0.0
H1890 H 0.9831 0.68058 0.56408 0.0
H1891 H 1.011 0.71778 0.57689 0.0
C1892 C 0.3356 0.27226 0.46661 0.0
C1893 C 0.32593 0.24369 0.48058 0.0
C1894 C 0.32147 0.28859 0.47629 0.0
C1895 C 0.29806 0.27684 0.50204 0.0
C1896 C 0.28887 0.24831 0.51688 0.0
C1897 C 0.30239 0.23195 0.50544 0.0
C1898 C 0.33127 0.31824 0.45849 0.0
C1899 C 0.26499 0.23515 0.54539 0.0
C1900 C 0.27786 0.33026 0.55004 0.0
C1901 C 0.25069 0.32316 0.53368 0.0
C1902 C 0.29335 0.31522 0.54044 0.0
C1903 C 0.28227 0.29358 0.51251 0.0
C1904 C 0.25527 0.2871 0.49527 0.0
C1905 C 0.23963 0.3014 0.50654 0.0
C1906 C 0.32129 0.32209 0.5607 0.0
C1907 C 0.24299 0.26526 0.46447 0.0
H1908 H 0.35388 0.28161 0.44759 0.0
H1909 H 0.29516 0.21019 0.51704 0.0
H1910 H 0.31193 0.31805 0.44538 0.0
H1911 H 0.34 0.33615 0.47898 0.0
H1912 H 0.34878 0.32375 0.43792 0.0
H1913 H 0.26203 0.21389 0.55636 0.0
H1914 H 0.27064 0.25113 0.56791 0.0
H1915 H 0.24345 0.23093 0.53402 0.0
H1916 H 0.28667 0.34711 0.57089 0.0
H1917 H 0.21898 0.29617 0.49316 0.0
H1918 H 0.34047 0.33105 0.542 0.0
H1919 H 0.31889 0.30134 0.57257 0.0
H1920 H 0.3264 0.33849 0.58261 0.0
H1921 H 0.26028 0.27139 0.44346 0.0
H1922 H 0.22312 0.26443 0.45198 0.0
H1923 H 0.23669 0.24262 0.47413 0.0
C1924 C 0.7204 0.96004 0.55258 0.0
C1925 C 0.73005 0.94134 0.53813 0.0
C1926 C 0.73463 0.99066 0.54349 0.0
C1927 C 0.75817 1.0027 0.51793 0.0
C1928 C 0.7674 0.9836 0.50267 0.0
C1929 C 0.75373 0.95353 0.51346 0.0
C1930 C 0.72477 1.01024 0.56168 0.0
C1931 C 0.7915 0.99482 0.47441 0.0
C1932 C 0.77883 0.07698 0.47105 0.0
C1933 C 0.8059 0.09675 0.48778 0.0
C1934 C 0.76319 0.04634 0.48023 0.0
C1935 C 0.77403 0.03537 0.50807 0.0
C1936 C 0.80091 0.05558 0.52571 0.0
C1937 C 0.81671 0.08566 0.51488 0.0
C1938 C 0.73536 0.0256 0.45961 0.0
C1939 C 0.81293 0.04551 0.5564 0.0
H1940 H 0.70204 0.95083 0.57149 0.0
H1941 H 0.76098 0.93918 0.50151 0.0
H1942 H 0.74402 0.02906 0.5753 0.0
H1943 H 0.71635 1.01992 0.54136 0.0
H1944 H 0.70702 0.99788 0.58189 0.0
H1945 H 0.79458 0.97672 0.46315 0.0
H1946 H 0.78601 1.0055 0.45205 0.0
H1947 H 0.81294 1.01196 0.48614 0.0
H1948 H 0.77025 0.08534 0.4502 0.0
H1949 H 0.8373 0.10085 0.52849 0.0
H1950 H 0.71611 1.01488 0.47817 0.0
H1951 H 0.73793 1.00758 0.44719 0.0
H1952 H 0.73027 0.03729 0.43808 0.0
H1953 H 0.79547 0.03397 0.57714 0.0
H1954 H 0.83268 0.06436 0.56931 0.0
H1955 H 0.81935 0.02937 0.54649 0.0
C1956 C 0.20553 0.96613 0.55481 0.0
C1957 C 0.18107 0.94235 0.53786 0.0
C1958 C 0.21497 0.99557 0.5449 0.0
C1959 C 0.19934 1.00131 0.51766 0.0
C1960 C 0.17293 0.97762 0.50304 0.0
C1961 C 0.16414 0.9483 0.51323 0.0
C1962 C 0.24314 1.02029 0.56144 0.0
C1963 C 0.15523 0.98297 0.47471 0.0
C1964 C 0.22852 0.08373 0.50682 0.0
C1965 C 0.2511 0.09106 0.48136 0.0
C1966 C 0.20943 0.05402 0.51686 0.0
C1967 C 0.21331 0.03137 0.50123 0.0
C1968 C 0.23413 0.03841 0.47306 0.0
C1969 C 0.25268 0.0682 0.46331 0.0
C1970 C 0.18686 0.04725 0.54621 0.0
C1971 C 0.23875 1.01482 0.45543 0.0
H1972 H 0.21848 0.96174 0.57427 0.0
H1973 H 0.14492 0.93004 0.50038 0.0
H1974 H 0.26096 0.02981 0.54079 0.0
H1975 H 0.23955 0.0385 0.57094 0.0
H1976 H 0.25108 1.0124 0.58447 0.0
H1977 H 0.13231 0.96368 0.47216 0.0
H1978 H 0.15387 1.00316 0.48093 0.0
H1979 H 0.16645 0.98659 0.44828 0.0
H1980 H 0.22684 0.10126 0.5205 0.0
H1981 H 0.26976 0.07365 0.4432 0.0
H1982 H 0.19572 0.04419 0.5721 0.0
H1983 H 0.1658 0.02634 0.54047 0.0
H1984 H 0.18193 0.06562 0.54958 0.0
H1985 H 0.24879 1.00627 0.47517 0.0
H1986 H 0.25366 0.02351 0.43165 0.0
H1987 H 0.21717 0.99574 0.44676 0.0
C1988 C 0.07742 0.25541 0.52436 0.0
C1989 C 0.10229 0.25374 0.51321 0.0
C1990 C 0.04937 0.23673 0.50947 0.0
C1991 C 0.04601 0.21539 0.48336 0.0
C1992 C 0.07054 0.21198 0.47407 0.0
C1993 C 0.09856 0.23147 0.48889 0.0
C1994 C 1.02368 0.24103 0.52025 0.0
C1995 C 0.06762 0.18889 0.44722 0.0
C1996 C 0.96429 0.16417 0.47168 0.0
C1997 C 0.95828 0.17904 0.44435 0.0
C1998 C 0.99363 0.17324 0.48159 0.0
C1999 C 1.0171 0.1984 0.46456 0.0
C2000 C 1.01116 0.21122 0.43417 0.0
C2001 C 0.98157 0.20109 0.42414 0.0
C2002 C 0.99919 0.15817 0.51304 0.0
C2003 C 0.03565 0.23808 0.41526 0.0
H2004 H 0.0801 0.27247 0.54328 0.0
H2005 H 0.1177 0.2299 0.48041 0.0
H2006 H 1.01534 0.24757 0.49637 0.0
H2007 H 1.00503 0.21988 0.53072 0.0
H2008 H 1.03005 0.25841 0.54124 0.0
H2009 H 0.08627 0.18427 0.44961 0.0
H2010 H 0.0463 0.16775 0.45074 0.0
H2011 H 0.06789 0.19713 0.41955 0.0
H2012 H 0.94603 0.14695 0.48709 0.0
H2013 H 0.9767 0.2126 0.40313 0.0
H2014 H 1.00242 0.17136 0.53782 0.0
H2015 H 1.01963 0.1568 0.50878 0.0
H2016 H 0.98012 0.13539 0.51751 0.0
H2017 H 0.04319 0.25796 0.43263 0.0
H2018 H 1.02806 0.24244 0.38912 0.0
H2019 H 0.0551 0.23516 0.41038 0.0
C2020 C 0.80518 0.84249 0.55299 0.0
C2021 C 0.80616 0.86682 0.53522 0.0
C2022 C 0.82553 0.83322 0.54466 0.0
C2023 C 0.84754 0.84888 0.51818 0.0
C2024 C 0.85069 0.87535 0.5031 0.0
C2025 C 0.82978 0.88399 0.51169 0.0
C2026 C 0.82164 0.80501 0.56175 0.0
C2027 C 0.8745 0.89318 0.4757 0.0
C2028 C 0.89858 0.81705 0.50996 0.0
C2029 C 0.88284 0.79443 0.48468 0.0
C2030 C 0.88912 0.83726 0.51889 0.0
C2031 C 0.86327 0.83443 0.50231 0.0
C2032 C 0.84928 0.81369 0.4741 0.0
C2033 C 0.85936 0.79402 0.46549 0.0
C2034 C 0.90523 0.8598 0.54819 0.0
C2035 C 0.82182 0.8102 0.45538 0.0
H2036 H 0.78733 0.82947 0.57176 0.0
H2037 H 0.831 0.90316 0.49832 0.0
H2038 H 0.81357 0.78713 0.5412 0.0
H2039 H 0.84321 0.80848 0.57208 0.0
H2040 H 0.80543 0.7972 0.5843 0.0
H2041 H 0.87882 0.91639 0.47374 0.0
H2042 H 0.89562 0.89373 0.48243 0.0
H2043 H 0.86716 0.88265 0.44886 0.0
H2044 H 0.91711 0.81784 0.52448 0.0
H2045 H 0.84749 0.77699 0.44537 0.0
H2046 H 0.89342 0.85102 0.5741 0.0
H2047 H 0.90569 0.88102 0.54246 0.0
H2048 H 0.92843 0.86439 0.55152 0.0
H2049 H 0.80288 0.80076 0.47453 0.0
H2050 H 0.81551 0.79523 0.43166 0.0
H2051 H 0.82538 0.83213 0.44635 0.0
loop_
_geom_bond_atom_site_label_1
_geom_bond_atom_site_label_2
_geom_bond_distance
_geom_bond_site_symmetry_2
_ccdc_geom_bond_type
Co0 O3 1.970 . S
Co0 N17 1.989 . S
Co0 O25 1.967 . S
Co0 O32 1.920 . S
Co1 O4 1.966 . S
Co1 N10 2.022 . S
Co1 N18 1.993 . S
Co1 O26 1.941 . S
C2 O3 1.258 . S
C2 O4 1.263 . S
O3 Co0 1.970 . S
O3 C2 1.258 . S
O4 Co1 1.966 . S
O4 C2 1.263 . S
C5 O6 1.235 . S
C5 O32 1.289 . S
O6 C5 1.235 . S
C7 C9 1.400 . S
C7 N10 1.351 . S
C7 C12 1.501 . S
C8 C9 1.387 . S
C8 N11 1.341 . S
C9 C7 1.400 . S
C9 C8 1.387 . S
N10 Co1 2.022 . S
N10 C7 1.351 . S
N10 N11 1.365 . S
N11 C8 1.341 . S
N11 N10 1.365 . S
N11 H31 0.862 . S
C12 C7 1.501 . S
C12 H13 0.961 . S
C12 H14 0.961 . S
C12 H15 0.960 . S
H13 C12 0.961 . S
H14 C12 0.961 . S
H15 C12 0.960 . S
C16 N17 1.342 . S
C16 C20 1.401 . S
C16 C21 1.499 . S
N17 Co0 1.989 . S
N17 C16 1.342 . S
N17 N18 1.388 . S
N18 Co1 1.993 . S
N18 N17 1.388 . S
N18 C19 1.346 . S
C19 N18 1.346 . S
C19 C20 1.396 . S
C19 C29 1.510 . S
C20 C16 1.401 . S
C20 C19 1.396 . S
C21 C16 1.499 . S
C21 H22 0.959 . S
C21 H23 0.960 . S
C21 H24 0.961 . S
H22 C21 0.959 . S
H23 C21 0.960 . S
H24 C21 0.961 . S
O25 Co0 1.967 . S
O25 C33 1.258 . S
O26 Co1 1.941 . S
O26 C33 1.266 . S
H27 C29 0.959 . S
H28 C29 0.961 . S
C29 C19 1.510 . S
C29 H27 0.959 . S
C29 H28 0.961 . S
C29 H30 0.960 . S
H30 C29 0.960 . S
H31 N11 0.862 . S
O32 Co0 1.920 . S
O32 C5 1.289 . S
C33 O25 1.258 . S
C33 O26 1.266 . S
Co34 O37 1.970 . S
Co34 N51 1.989 . S
Co34 O59 1.967 . S
Co34 O66 1.920 . S
Co35 O38 1.966 . S
Co35 N44 2.022 . S
Co35 N52 1.993 . S
Co35 O60 1.941 . S
C36 O37 1.258 . S
C36 O38 1.263 . S
O37 Co34 1.970 . S
O37 C36 1.258 . S
O38 Co35 1.966 . S
O38 C36 1.263 . S
C39 O40 1.235 . S
C39 O66 1.289 . S
O40 C39 1.235 . S
C41 C43 1.400 . S
C41 N44 1.351 . S
C41 C46 1.501 . S
C42 C43 1.387 . S
C42 N45 1.341 . S
C43 C41 1.400 . S
C43 C42 1.387 . S
N44 Co35 2.022 . S
N44 C41 1.351 . S
N44 N45 1.365 . S
N45 C42 1.341 . S
N45 N44 1.365 . S
N45 H65 0.862 . S
C46 C41 1.501 . S
C46 H47 0.961 . S
C46 H48 0.961 . S
C46 H49 0.960 . S
H47 C46 0.961 . S
H48 C46 0.961 . S
H49 C46 0.960 . S
C50 N51 1.342 . S
C50 C54 1.401 . S
C50 C55 1.499 . S
N51 Co34 1.989 . S
N51 C50 1.342 . S
N51 N52 1.388 . S
N52 Co35 1.993 . S
N52 N51 1.388 . S
N52 C53 1.346 . S
C53 N52 1.346 . S
C53 C54 1.396 . S
C53 C63 1.510 . S
C54 C50 1.401 . S
C54 C53 1.396 . S
C55 C50 1.499 . S
C55 H56 0.959 . S
C55 H57 0.960 . S
C55 H58 0.961 . S
H56 C55 0.959 . S
H57 C55 0.960 . S
H58 C55 0.961 . S
O59 Co34 1.967 . S
O59 C67 1.258 . S
O60 Co35 1.941 . S
O60 C67 1.266 . S
H61 C63 0.959 . S
H62 C63 0.961 . S
C63 C53 1.510 . S
C63 H61 0.959 . S
C63 H62 0.961 . S
C63 H64 0.960 . S
H64 C63 0.960 . S
H65 N45 0.862 . S
O66 Co34 1.920 . S
O66 C39 1.289 . S
C67 O59 1.258 . S
C67 O60 1.266 . S
Co68 O71 1.970 . S
Co68 N85 1.989 . S
Co68 O93 1.967 . S
Co68 O100 1.920 . S
Co69 O72 1.966 . S
Co69 N78 2.022 . S
Co69 N86 1.993 . S
Co69 O94 1.941 . S
C70 O71 1.258 . S
C70 O72 1.263 . S
O71 Co68 1.970 . S
O71 C70 1.258 . S
O72 Co69 1.966 . S
O72 C70 1.263 . S
C73 O74 1.235 . S
C73 O100 1.289 . S
O74 C73 1.235 . S
C75 C77 1.400 . S
C75 N78 1.351 . S
C75 C80 1.501 . S
C76 C77 1.387 . S
C76 N79 1.341 . S
C77 C75 1.400 . S
C77 C76 1.387 . S
N78 Co69 2.022 . S
N78 C75 1.351 . S
N78 N79 1.365 . S
N79 C76 1.341 . S
N79 N78 1.365 . S
N79 H99 0.862 . S
C80 C75 1.501 . S
C80 H81 0.961 . S
C80 H82 0.961 . S
C80 H83 0.960 . S
H81 C80 0.961 . S
H82 C80 0.961 . S
H83 C80 0.960 . S
C84 N85 1.342 . S
C84 C88 1.401 . S
C84 C89 1.499 . S
N85 Co68 1.989 . S
N85 C84 1.342 . S
N85 N86 1.388 . S
N86 Co69 1.993 . S
N86 N85 1.388 . S
N86 C87 1.346 . S
C87 N86 1.346 . S
C87 C88 1.396 . S
C87 C97 1.510 . S
C88 C84 1.401 . S
C88 C87 1.396 . S
C89 C84 1.499 . S
C89 H90 0.959 . S
C89 H91 0.960 . S
C89 H92 0.961 . S
H90 C89 0.959 . S
H91 C89 0.960 . S
H92 C89 0.961 . S
O93 Co68 1.967 . S
O93 C101 1.258 . S
O94 Co69 1.941 . S
O94 C101 1.266 . S
H95 C97 0.959 . S
H96 C97 0.961 . S
C97 C87 1.510 . S
C97 H95 0.959 . S
C97 H96 0.961 . S
C97 H98 0.960 . S
H98 C97 0.960 . S
H99 N79 0.862 . S
O100 Co68 1.920 . S
O100 C73 1.289 . S
C101 O93 1.258 . S
C101 O94 1.266 . S
Co102 O105 1.970 . S
Co102 N119 1.989 . S
Co102 O127 1.967 . S
Co102 O134 1.920 . S
Co103 O106 1.966 . S
Co103 N112 2.022 . S
Co103 N120 1.993 . S
Co103 O128 1.941 . S
C104 O105 1.258 . S
C104 O106 1.263 . S
O105 Co102 1.970 . S
O105 C104 1.258 . S
O106 Co103 1.966 . S
O106 C104 1.263 . S
C107 O108 1.235 . S
C107 O134 1.289 . S
O108 C107 1.235 . S
C109 C111 1.400 . S
C109 N112 1.351 . S
C109 C114 1.501 . S
C110 C111 1.387 . S
C110 N113 1.341 . S
C111 C109 1.400 . S
C111 C110 1.387 . S
N112 Co103 2.022 . S
N112 C109 1.351 . S
N112 N113 1.365 . S
N113 C110 1.341 . S
N113 N112 1.365 . S
N113 H133 0.862 . S
C114 C109 1.501 . S
C114 H115 0.961 . S
C114 H116 0.961 . S
C114 H117 0.960 . S
H115 C114 0.961 . S
H116 C114 0.961 . S
H117 C114 0.960 . S
C118 N119 1.342 . S
C118 C122 1.401 . S
C118 C123 1.499 . S
N119 Co102 1.989 . S
N119 C118 1.342 . S
N119 N120 1.388 . S
N120 Co103 1.993 . S
N120 N119 1.388 . S
N120 C121 1.346 . S
C121 N120 1.346 . S
C121 C122 1.396 . S
C121 C131 1.510 . S
C122 C118 1.401 . S
C122 C121 1.396 . S
C123 C118 1.499 . S
C123 H124 0.959 . S
C123 H125 0.960 . S
C123 H126 0.961 . S
H124 C123 0.959 . S
H125 C123 0.960 . S
H126 C123 0.961 . S
O127 Co102 1.967 . S
O127 C135 1.258 . S
O128 Co103 1.941 . S
O128 C135 1.266 . S
H129 C131 0.959 . S
H130 C131 0.961 . S
C131 C121 1.510 . S
C131 H129 0.959 . S
C131 H130 0.961 . S
C131 H132 0.960 . S
H132 C131 0.960 . S
H133 N113 0.862 . S
O134 Co102 1.920 . S
O134 C107 1.289 . S
C135 O127 1.258 . S
C135 O128 1.266 . S
Co136 O139 1.970 . S
Co136 N153 1.989 . S
Co136 O161 1.967 . S
Co136 O168 1.920 . S
Co137 O140 1.966 . S
Co137 N146 2.022 . S
Co137 N154 1.993 . S
Co137 O162 1.941 . S
C138 O139 1.258 . S
C138 O140 1.263 . S
O139 Co136 1.970 . S
O139 C138 1.258 . S
O140 Co137 1.966 . S
O140 C138 1.263 . S
C141 O142 1.235 . S
C141 O168 1.289 . S
O142 C141 1.235 . S
C143 C145 1.400 . S
C143 N146 1.351 . S
C143 C148 1.501 . S
C144 C145 1.387 . S
C144 N147 1.341 . S
C145 C143 1.400 . S
C145 C144 1.387 . S
N146 Co137 2.022 . S
N146 C143 1.351 . S
N146 N147 1.365 . S
N147 C144 1.341 . S
N147 N146 1.365 . S
N147 H167 0.862 . S
C148 C143 1.501 . S
C148 H149 0.961 . S
C148 H150 0.961 . S
C148 H151 0.960 . S
H149 C148 0.961 . S
H150 C148 0.961 . S
H151 C148 0.960 . S
C152 N153 1.342 . S
C152 C156 1.401 . S
C152 C157 1.499 . S
N153 Co136 1.989 . S
N153 C152 1.342 . S
N153 N154 1.388 . S
N154 Co137 1.993 . S
N154 N153 1.388 . S
N154 C155 1.346 . S
C155 N154 1.346 . S
C155 C156 1.396 . S
C155 C165 1.510 . S
C156 C152 1.401 . S
C156 C155 1.396 . S
C157 C152 1.499 . S
C157 H158 0.959 . S
C157 H159 0.960 . S
C157 H160 0.961 . S
H158 C157 0.959 . S
H159 C157 0.960 . S
H160 C157 0.961 . S
O161 Co136 1.967 . S
O161 C169 1.258 . S
O162 Co137 1.941 . S
O162 C169 1.266 . S
H163 C165 0.959 . S
H164 C165 0.961 . S
C165 C155 1.510 . S
C165 H163 0.959 . S
C165 H164 0.961 . S
C165 H166 0.960 . S
H166 C165 0.960 . S
H167 N147 0.862 . S
O168 Co136 1.920 . S
O168 C141 1.289 . S
C169 O161 1.258 . S
C169 O162 1.266 . S
Co170 O173 1.970 . S
Co170 N187 1.989 . S
Co170 O195 1.967 . S
Co170 O202 1.920 . S
Co171 O174 1.966 . S
Co171 N180 2.022 . S
Co171 N188 1.993 . S
Co171 O196 1.941 . S
C172 O173 1.258 . S
C172 O174 1.263 . S
O173 Co170 1.970 . S
O173 C172 1.258 . S
O174 Co171 1.966 . S
O174 C172 1.263 . S
C175 O176 1.235 . S
C175 O202 1.289 . S
O176 C175 1.235 . S
C177 C179 1.400 . S
C177 N180 1.351 . S
C177 C182 1.501 . S
C178 C179 1.387 . S
C178 N181 1.341 . S
C179 C177 1.400 . S
C179 C178 1.387 . S
N180 Co171 2.022 . S
N180 C177 1.351 . S
N180 N181 1.365 . S
N181 C178 1.341 . S
N181 N180 1.365 . S
N181 H201 0.862 . S
C182 C177 1.501 . S
C182 H183 0.961 . S
C182 H184 0.961 . S
C182 H185 0.960 . S
H183 C182 0.961 . S
H184 C182 0.961 . S
H185 C182 0.960 . S
C186 N187 1.342 . S
C186 C190 1.401 . S
C186 C191 1.499 . S
N187 Co170 1.989 . S
N187 C186 1.342 . S
N187 N188 1.388 . S
N188 Co171 1.993 . S
N188 N187 1.388 . S
N188 C189 1.346 . S
C189 N188 1.346 . S
C189 C190 1.396 . S
C189 C199 1.510 . S
C190 C186 1.401 . S
C190 C189 1.396 . S
C191 C186 1.499 . S
C191 H192 0.959 . S
C191 H193 0.960 . S
C191 H194 0.961 . S
H192 C191 0.959 . S
H193 C191 0.960 . S
H194 C191 0.961 . S
O195 Co170 1.967 . S
O195 C203 1.258 . S
O196 Co171 1.941 . S
O196 C203 1.266 . S
H197 C199 0.959 . S
H198 C199 0.961 . S
C199 C189 1.510 . S
C199 H197 0.959 . S
C199 H198 0.961 . S
C199 H200 0.960 . S
H200 C199 0.960 . S
H201 N181 0.862 . S
O202 Co170 1.920 . S
O202 C175 1.289 . S
C203 O195 1.258 . S
C203 O196 1.266 . S
Co204 O207 1.970 . S
Co204 N221 1.989 . S
Co204 O229 1.967 . S
Co204 O236 1.920 . S
Co205 O208 1.966 . S
Co205 N214 2.022 . S
Co205 N222 1.993 . S
Co205 O230 1.941 . S
C206 O207 1.258 . S
C206 O208 1.263 . S
O207 Co204 1.970 . S
O207 C206 1.258 . S
O208 Co205 1.966 . S
O208 C206 1.263 . S
C209 O210 1.235 . S
C209 O236 1.289 . S
O210 C209 1.235 . S
C211 C213 1.400 . S
C211 N214 1.351 . S
C211 C216 1.501 . S
C212 C213 1.387 . S
C212 N215 1.341 . S
C213 C211 1.400 . S
C213 C212 1.387 . S
N214 Co205 2.022 . S
N214 C211 1.351 . S
N214 N215 1.365 . S
N215 C212 1.341 . S
N215 N214 1.365 . S
N215 H235 0.862 . S
C216 C211 1.501 . S
C216 H217 0.961 . S
C216 H218 0.961 . S
C216 H219 0.960 . S
H217 C216 0.961 . S
H218 C216 0.961 . S
H219 C216 0.960 . S
C220 N221 1.342 . S
C220 C224 1.401 . S
C220 C225 1.499 . S
N221 Co204 1.989 . S
N221 C220 1.342 . S
N221 N222 1.388 . S
N222 Co205 1.993 . S
N222 N221 1.388 . S
N222 C223 1.346 . S
C223 N222 1.346 . S
C223 C224 1.396 . S
C223 C233 1.510 . S
C224 C220 1.401 . S
C224 C223 1.396 . S
C225 C220 1.499 . S
C225 H226 0.959 . S
C225 H227 0.960 . S
C225 H228 0.961 . S
H226 C225 0.959 . S
H227 C225 0.960 . S
H228 C225 0.961 . S
O229 Co204 1.967 . S
O229 C237 1.258 . S
O230 Co205 1.941 . S
O230 C237 1.266 . S
H231 C233 0.959 . S
H232 C233 0.961 . S
C233 C223 1.510 . S
C233 H231 0.959 . S
C233 H232 0.961 . S
C233 H234 0.960 . S
H234 C233 0.960 . S
H235 N215 0.862 . S
O236 Co204 1.920 . S
O236 C209 1.289 . S
C237 O229 1.258 . S
C237 O230 1.266 . S
Co238 O241 1.970 . S
Co238 N255 1.989 . S
Co238 O263 1.967 . S
Co238 O270 1.920 . S
Co239 O242 1.966 . S
Co239 N248 2.022 . S
Co239 N256 1.993 . S
Co239 O264 1.941 . S
C240 O241 1.258 . S
C240 O242 1.263 . S
O241 Co238 1.970 . S
O241 C240 1.258 . S
O242 Co239 1.966 . S
O242 C240 1.263 . S
C243 O244 1.235 . S
C243 O270 1.289 . S
O244 C243 1.235 . S
C245 C247 1.400 . S
C245 N248 1.351 . S
C245 C250 1.501 . S
C246 C247 1.387 . S
C246 N249 1.341 . S
C247 C245 1.400 . S
C247 C246 1.387 . S
N248 Co239 2.022 . S
N248 C245 1.351 . S
N248 N249 1.365 . S
N249 C246 1.341 . S
N249 N248 1.365 . S
N249 H269 0.862 . S
C250 C245 1.501 . S
C250 H251 0.961 . S
C250 H252 0.961 . S
C250 H253 0.960 . S
H251 C250 0.961 . S
H252 C250 0.961 . S
H253 C250 0.960 . S
C254 N255 1.342 . S
C254 C258 1.401 . S
C254 C259 1.499 . S
N255 Co238 1.989 . S
N255 C254 1.342 . S
N255 N256 1.388 . S
N256 Co239 1.993 . S
N256 N255 1.388 . S
N256 C257 1.346 . S
C257 N256 1.346 . S
C257 C258 1.396 . S
C257 C267 1.510 . S
C258 C254 1.401 . S
C258 C257 1.396 . S
C259 C254 1.499 . S
C259 H260 0.959 . S
C259 H261 0.960 . S
C259 H262 0.961 . S
H260 C259 0.959 . S
H261 C259 0.960 . S
H262 C259 0.961 . S
O263 Co238 1.967 . S
O263 C271 1.258 . S
O264 Co239 1.941 . S
O264 C271 1.266 . S
H265 C267 0.959 . S
H266 C267 0.961 . S
C267 C257 1.510 . S
C267 H265 0.959 . S
C267 H266 0.961 . S
C267 H268 0.960 . S
H268 C267 0.960 . S
H269 N249 0.862 . S
O270 Co238 1.920 . S
O270 C243 1.289 . S
C271 O263 1.258 . S
C271 O264 1.266 . S
Co272 O275 1.970 . S
Co272 N289 1.989 . S
Co272 O297 1.967 . S
Co272 O304 1.920 . S
Co273 O276 1.966 . S
Co273 N282 2.022 . S
Co273 N290 1.993 . S
Co273 O298 1.941 . S
C274 O275 1.258 . S
C274 O276 1.263 . S
O275 Co272 1.970 . S
O275 C274 1.258 . S
O276 Co273 1.966 . S
O276 C274 1.263 . S
C277 O278 1.235 . S
C277 O304 1.289 . S
O278 C277 1.235 . S
C279 C281 1.400 . S
C279 N282 1.351 . S
C279 C284 1.501 . S
C280 C281 1.387 . S
C280 N283 1.341 . S
C281 C279 1.400 . S
C281 C280 1.387 . S
N282 Co273 2.022 . S
N282 C279 1.351 . S
N282 N283 1.365 . S
N283 C280 1.341 . S
N283 N282 1.365 . S
N283 H303 0.862 . S
C284 C279 1.501 . S
C284 H285 0.961 . S
C284 H286 0.961 . S
C284 H287 0.960 . S
H285 C284 0.961 . S
H286 C284 0.961 . S
H287 C284 0.960 . S
C288 N289 1.342 . S
C288 C292 1.401 . S
C288 C293 1.499 . S
N289 Co272 1.989 . S
N289 C288 1.342 . S
N289 N290 1.388 . S
N290 Co273 1.993 . S
N290 N289 1.388 . S
N290 C291 1.346 . S
C291 N290 1.346 . S
C291 C292 1.396 . S
C291 C301 1.510 . S
C292 C288 1.401 . S
C292 C291 1.396 . S
C293 C288 1.499 . S
C293 H294 0.959 . S
C293 H295 0.960 . S
C293 H296 0.961 . S
H294 C293 0.959 . S
H295 C293 0.960 . S
H296 C293 0.961 . S
O297 Co272 1.967 . S
O297 C305 1.258 . S
O298 Co273 1.941 . S
O298 C305 1.266 . S
H299 C301 0.959 . S
H300 C301 0.961 . S
C301 C291 1.510 . S
C301 H299 0.959 . S
C301 H300 0.961 . S
C301 H302 0.960 . S
H302 C301 0.960 . S
H303 N283 0.862 . S
O304 Co272 1.920 . S
O304 C277 1.289 . S
C305 O297 1.258 . S
C305 O298 1.266 . S
Co306 O309 1.970 . S
Co306 N323 1.989 1_455 S
Co306 O331 1.967 . S
Co306 O338 1.920 . S
Co307 O310 1.966 1_655 S
Co307 N316 2.022 . S
Co307 N324 1.993 . S
Co307 O332 1.941 . S
C308 O309 1.258 . S
C308 O310 1.263 . S
O309 Co306 1.970 . S
O309 C308 1.258 . S
O310 Co307 1.966 1_455 S
O310 C308 1.263 . S
C311 O312 1.235 . S
C311 O338 1.289 . S
O312 C311 1.235 . S
C313 C315 1.400 . S
C313 N316 1.351 . S
C313 C318 1.501 . S
C314 C315 1.387 . S
C314 N317 1.341 . S
C315 C313 1.400 . S
C315 C314 1.387 . S
N316 Co307 2.022 . S
N316 C313 1.351 . S
N316 N317 1.365 . S
N317 C314 1.341 . S
N317 N316 1.365 . S
N317 H337 0.862 . S
C318 C313 1.501 . S
C318 H319 0.961 . S
C318 H320 0.961 . S
C318 H321 0.960 . S
H319 C318 0.961 . S
H320 C318 0.961 . S
H321 C318 0.960 . S
C322 N323 1.342 . S
C322 C326 1.401 . S
C322 C327 1.499 1_655 S
N323 Co306 1.989 1_655 S
N323 C322 1.342 . S
N323 N324 1.388 . S
N324 Co307 1.993 . S
N324 N323 1.388 . S
N324 C325 1.346 . S
C325 N324 1.346 . S
C325 C326 1.396 . S
C325 C335 1.510 . S
C326 C322 1.401 . S
C326 C325 1.396 . S
C327 C322 1.499 1_455 S
C327 H328 0.959 . S
C327 H329 0.960 . S
C327 H330 0.961 1_455 S
H328 C327 0.959 . S
H329 C327 0.960 . S
H330 C327 0.961 1_655 S
O331 Co306 1.967 . S
O331 C339 1.258 1_455 S
O332 Co307 1.941 . S
O332 C339 1.266 . S
H333 C335 0.959 . S
H334 C335 0.961 . S
C335 C325 1.510 . S
C335 H333 0.959 . S
C335 H334 0.961 . S
C335 H336 0.960 . S
H336 C335 0.960 . S
H337 N317 0.862 . S
O338 Co306 1.920 . S
O338 C311 1.289 . S
C339 O331 1.258 1_655 S
C339 O332 1.266 . S
Co340 O343 1.970 . S
Co340 N357 1.989 . S
Co340 O365 1.967 . S
Co340 O372 1.920 . S
Co341 O344 1.966 . S
Co341 N350 2.022 . S
Co341 N358 1.993 . S
Co341 O366 1.941 . S
C342 O343 1.258 . S
C342 O344 1.263 . S
O343 Co340 1.970 . S
O343 C342 1.258 . S
O344 Co341 1.966 . S
O344 C342 1.263 . S
C345 O346 1.235 . S
C345 O372 1.289 . S
O346 C345 1.235 . S
C347 C349 1.400 . S
C347 N350 1.351 . S
C347 C352 1.501 . S
C348 C349 1.387 . S
C348 N351 1.341 . S
C349 C347 1.400 . S
C349 C348 1.387 . S
N350 Co341 2.022 . S
N350 C347 1.351 . S
N350 N351 1.365 . S
N351 C348 1.341 . S
N351 N350 1.365 . S
N351 H371 0.862 . S
C352 C347 1.501 . S
C352 H353 0.961 . S
C352 H354 0.961 . S
C352 H355 0.960 . S
H353 C352 0.961 . S
H354 C352 0.961 . S
H355 C352 0.960 . S
C356 N357 1.342 . S
C356 C360 1.401 . S
C356 C361 1.499 . S
N357 Co340 1.989 . S
N357 C356 1.342 . S
N357 N358 1.388 . S
N358 Co341 1.993 . S
N358 N357 1.388 . S
N358 C359 1.346 . S
C359 N358 1.346 . S
C359 C360 1.396 . S
C359 C369 1.510 . S
C360 C356 1.401 . S
C360 C359 1.396 . S
C361 C356 1.499 . S
C361 H362 0.959 . S
C361 H363 0.960 . S
C361 H364 0.961 . S
H362 C361 0.959 . S
H363 C361 0.960 . S
H364 C361 0.961 . S
O365 Co340 1.967 . S
O365 C373 1.258 . S
O366 Co341 1.941 . S
O366 C373 1.266 . S
H367 C369 0.959 . S
H368 C369 0.961 . S
C369 C359 1.510 . S
C369 H367 0.959 . S
C369 H368 0.961 . S
C369 H370 0.960 . S
H370 C369 0.960 . S
H371 N351 0.862 . S
O372 Co340 1.920 . S
O372 C345 1.289 . S
C373 O365 1.258 . S
C373 O366 1.266 . S
Co374 O377 1.970 . S
Co374 N391 1.989 1_565 S
Co374 O399 1.967 . S
Co374 O406 1.920 . S
Co375 O378 1.966 1_545 S
Co375 N384 2.022 . S
Co375 N392 1.993 . S
Co375 O400 1.941 . S
C376 O377 1.258 . S
C376 O378 1.263 . S
O377 Co374 1.970 . S
O377 C376 1.258 . S
O378 Co375 1.966 1_565 S
O378 C376 1.263 . S
C379 O380 1.235 . S
C379 O406 1.289 . S
O380 C379 1.235 . S
C381 C383 1.400 . S
C381 N384 1.351 . S
C381 C386 1.501 . S
C382 C383 1.387 . S
C382 N385 1.341 . S
C383 C381 1.400 . S
C383 C382 1.387 . S
N384 Co375 2.022 . S
N384 C381 1.351 . S
N384 N385 1.365 . S
N385 C382 1.341 . S
N385 N384 1.365 . S
N385 H405 0.862 . S
C386 C381 1.501 . S
C386 H387 0.961 . S
C386 H388 0.961 . S
C386 H389 0.960 . S
H387 C386 0.961 . S
H388 C386 0.961 . S
H389 C386 0.960 . S
C390 N391 1.342 . S
C390 C394 1.401 . S
C390 C395 1.499 1_545 S
N391 Co374 1.989 1_545 S
N391 C390 1.342 . S
N391 N392 1.388 . S
N392 Co375 1.993 . S
N392 N391 1.388 . S
N392 C393 1.346 . S
C393 N392 1.346 . S
C393 C394 1.396 . S
C393 C403 1.510 . S
C394 C390 1.401 . S
C394 C393 1.396 . S
C395 C390 1.499 1_565 S
C395 H396 0.959 . S
C395 H397 0.960 . S
C395 H398 0.961 1_565 S
H396 C395 0.959 . S
H397 C395 0.960 . S
H398 C395 0.961 1_545 S
O399 Co374 1.967 . S
O399 C407 1.258 1_565 S
O400 Co375 1.941 . S
O400 C407 1.266 . S
H401 C403 0.959 . S
H402 C403 0.961 . S
C403 C393 1.510 . S
C403 H401 0.959 . S
C403 H402 0.961 . S
C403 H404 0.960 . S
H404 C403 0.960 . S
H405 N385 0.862 . S
O406 Co374 1.920 . S
O406 C379 1.289 . S
C407 O399 1.258 1_545 S
C407 O400 1.266 . S
Co408 O411 1.970 . S
Co408 N425 1.989 1_545 S
Co408 O433 1.967 . S
Co408 O440 1.920 . S
Co409 O412 1.966 1_565 S
Co409 N418 2.022 . S
Co409 N426 1.993 . S
Co409 O434 1.941 . S
C410 O411 1.258 . S
C410 O412 1.263 . S
O411 Co408 1.970 . S
O411 C410 1.258 . S
O412 Co409 1.966 1_545 S
O412 C410 1.263 . S
C413 O414 1.235 . S
C413 O440 1.289 . S
O414 C413 1.235 . S
C415 C417 1.400 . S
C415 N418 1.351 . S
C415 C420 1.501 . S
C416 C417 1.387 . S
C416 N419 1.341 . S
C417 C415 1.400 . S
C417 C416 1.387 . S
N418 Co409 2.022 . S
N418 C415 1.351 . S
N418 N419 1.365 . S
N419 C416 1.341 . S
N419 N418 1.365 . S
N419 H439 0.862 . S
C420 C415 1.501 . S
C420 H421 0.961 . S
C420 H422 0.961 . S
C420 H423 0.960 . S
H421 C420 0.961 . S
H422 C420 0.961 . S
H423 C420 0.960 . S
C424 N425 1.342 . S
C424 C428 1.401 . S
C424 C429 1.499 1_565 S
N425 Co408 1.989 1_565 S
N425 C424 1.342 . S
N425 N426 1.388 . S
N426 Co409 1.993 . S
N426 N425 1.388 . S
N426 C427 1.346 . S
C427 N426 1.346 . S
C427 C428 1.396 . S
C427 C437 1.510 . S
C428 C424 1.401 . S
C428 C427 1.396 . S
C429 C424 1.499 1_545 S
C429 H430 0.959 . S
C429 H431 0.960 . S
C429 H432 0.961 1_545 S
H430 C429 0.959 . S
H431 C429 0.960 . S
H432 C429 0.961 1_565 S
O433 Co408 1.967 . S
O433 C441 1.258 1_545 S
O434 Co409 1.941 . S
O434 C441 1.266 . S
H435 C437 0.959 . S
H436 C437 0.961 . S
C437 C427 1.510 . S
C437 H435 0.959 . S
C437 H436 0.961 . S
C437 H438 0.960 . S
H438 C437 0.960 . S
H439 N419 0.862 . S
O440 Co408 1.920 . S
O440 C413 1.289 . S
C441 O433 1.258 1_565 S
C441 O434 1.266 . S
Co442 O445 1.970 . S
Co442 N459 1.989 1_655 S
Co442 O467 1.967 . S
Co442 O474 1.920 . S
Co443 O446 1.966 1_455 S
Co443 N452 2.022 . S
Co443 N460 1.993 . S
Co443 O468 1.941 . S
C444 O445 1.258 . S
C444 O446 1.263 . S
O445 Co442 1.970 . S
O445 C444 1.258 . S
O446 Co443 1.966 1_655 S
O446 C444 1.263 . S
C447 O448 1.235 . S
C447 O474 1.289 . S
O448 C447 1.235 . S
C449 C451 1.400 . S
C449 N452 1.351 . S
C449 C454 1.501 . S
C450 C451 1.387 . S
C450 N453 1.341 . S
C451 C449 1.400 . S
C451 C450 1.387 . S
N452 Co443 2.022 . S
N452 C449 1.351 . S
N452 N453 1.365 . S
N453 C450 1.341 . S
N453 N452 1.365 . S
N453 H473 0.862 . S
C454 C449 1.501 . S
C454 H455 0.961 . S
C454 H456 0.961 . S
C454 H457 0.960 . S
H455 C454 0.961 . S
H456 C454 0.961 . S
H457 C454 0.960 . S
C458 N459 1.342 . S
C458 C462 1.401 . S
C458 C463 1.499 1_455 S
N459 Co442 1.989 1_455 S
N459 C458 1.342 . S
N459 N460 1.388 . S
N460 Co443 1.993 . S
N460 N459 1.388 . S
N460 C461 1.346 . S
C461 N460 1.346 . S
C461 C462 1.396 . S
C461 C471 1.510 . S
C462 C458 1.401 . S
C462 C461 1.396 . S
C463 C458 1.499 1_655 S
C463 H464 0.959 . S
C463 H465 0.960 . S
C463 H466 0.961 1_655 S
H464 C463 0.959 . S
H465 C463 0.960 . S
H466 C463 0.961 1_455 S
O467 Co442 1.967 . S
O467 C475 1.258 1_655 S
O468 Co443 1.941 . S
O468 C475 1.266 . S
H469 C471 0.959 . S
H470 C471 0.961 . S
C471 C461 1.510 . S
C471 H469 0.959 . S
C471 H470 0.961 . S
C471 H472 0.960 . S
H472 C471 0.960 . S
H473 N453 0.862 . S
O474 Co442 1.920 . S
O474 C447 1.289 . S
C475 O467 1.258 1_455 S
C475 O468 1.266 . S
Co476 O479 1.970 . S
Co476 N493 1.989 . S
Co476 O501 1.967 . S
Co476 O508 1.920 . S
Co477 O480 1.966 . S
Co477 N486 2.022 . S
Co477 N494 1.993 . S
Co477 O502 1.941 . S
C478 O479 1.258 . S
C478 O480 1.263 . S
O479 Co476 1.970 . S
O479 C478 1.258 . S
O480 Co477 1.966 . S
O480 C478 1.263 . S
C481 O482 1.235 . S
C481 O508 1.289 . S
O482 C481 1.235 . S
C483 C485 1.400 . S
C483 N486 1.351 . S
C483 C488 1.501 . S
C484 C485 1.387 . S
C484 N487 1.341 . S
C485 C483 1.400 . S
C485 C484 1.387 . S
N486 Co477 2.022 . S
N486 C483 1.351 . S
N486 N487 1.365 . S
N487 C484 1.341 . S
N487 N486 1.365 . S
N487 H507 0.862 . S
C488 C483 1.501 . S
C488 H489 0.961 . S
C488 H490 0.961 . S
C488 H491 0.960 . S
H489 C488 0.961 . S
H490 C488 0.961 . S
H491 C488 0.960 . S
C492 N493 1.342 . S
C492 C496 1.401 . S
C492 C497 1.499 . S
N493 Co476 1.989 . S
N493 C492 1.342 . S
N493 N494 1.388 . S
N494 Co477 1.993 . S
N494 N493 1.388 . S
N494 C495 1.346 . S
C495 N494 1.346 . S
C495 C496 1.396 . S
C495 C505 1.510 . S
C496 C492 1.401 . S
C496 C495 1.396 . S
C497 C492 1.499 . S
C497 H498 0.959 . S
C497 H499 0.960 . S
C497 H500 0.961 . S
H498 C497 0.959 . S
H499 C497 0.960 . S
H500 C497 0.961 . S
O501 Co476 1.967 . S
O501 C509 1.258 . S
O502 Co477 1.941 . S
O502 C509 1.266 . S
H503 C505 0.959 . S
H504 C505 0.961 . S
C505 C495 1.510 . S
C505 H503 0.959 . S
C505 H504 0.961 . S
C505 H506 0.960 . S
H506 C505 0.960 . S
H507 N487 0.862 . S
O508 Co476 1.920 . S
O508 C481 1.289 . S
C509 O501 1.258 . S
C509 O502 1.266 . S
Co510 O513 1.970 . S
Co510 N527 1.989 . S
Co510 O535 1.967 . S
Co510 O542 1.920 . S
Co511 O514 1.966 . S
Co511 N520 2.022 . S
Co511 N528 1.993 . S
Co511 O536 1.941 . S
C512 O513 1.258 . S
C512 O514 1.263 . S
O513 Co510 1.970 . S
O513 C512 1.258 . S
O514 Co511 1.966 . S
O514 C512 1.263 . S
C515 O516 1.235 . S
C515 O542 1.289 . S
O516 C515 1.235 . S
C517 C519 1.400 . S
C517 N520 1.351 . S
C517 C522 1.501 . S
C518 C519 1.387 . S
C518 N521 1.341 . S
C519 C517 1.400 . S
C519 C518 1.387 . S
N520 Co511 2.022 . S
N520 C517 1.351 . S
N520 N521 1.365 . S
N521 C518 1.341 . S
N521 N520 1.365 . S
N521 H541 0.862 . S
C522 C517 1.501 . S
C522 H523 0.961 . S
C522 H524 0.961 . S
C522 H525 0.960 . S
H523 C522 0.961 . S
H524 C522 0.961 . S
H525 C522 0.960 . S
C526 N527 1.342 . S
C526 C530 1.401 . S
C526 C531 1.499 . S
N527 Co510 1.989 . S
N527 C526 1.342 . S
N527 N528 1.388 . S
N528 Co511 1.993 . S
N528 N527 1.388 . S
N528 C529 1.346 . S
C529 N528 1.346 . S
C529 C530 1.396 . S
C529 C539 1.510 . S
C530 C526 1.401 . S
C530 C529 1.396 . S
C531 C526 1.499 . S
C531 H532 0.959 . S
C531 H533 0.960 . S
C531 H534 0.961 . S
H532 C531 0.959 . S
H533 C531 0.960 . S
H534 C531 0.961 . S
O535 Co510 1.967 . S
O535 C543 1.258 . S
O536 Co511 1.941 . S
O536 C543 1.266 . S
H537 C539 0.959 . S
H538 C539 0.961 . S
C539 C529 1.510 . S
C539 H537 0.959 . S
C539 H538 0.961 . S
C539 H540 0.960 . S
H540 C539 0.960 . S
H541 N521 0.862 . S
O542 Co510 1.920 . S
O542 C515 1.289 . S
C543 O535 1.258 . S
C543 O536 1.266 . S
Co544 O547 1.970 . S
Co544 N561 1.989 . S
Co544 O569 1.967 . S
Co544 O576 1.920 . S
Co545 O548 1.966 . S
Co545 N554 2.022 . S
Co545 N562 1.993 . S
Co545 O570 1.941 . S
C546 O547 1.258 . S
C546 O548 1.263 . S
O547 Co544 1.970 . S
O547 C546 1.258 . S
O548 Co545 1.966 . S
O548 C546 1.263 . S
C549 O550 1.235 . S
C549 O576 1.289 . S
O550 C549 1.235 . S
C551 C553 1.400 . S
C551 N554 1.351 . S
C551 C556 1.501 . S
C552 C553 1.387 . S
C552 N555 1.341 . S
C553 C551 1.400 . S
C553 C552 1.387 . S
N554 Co545 2.022 . S
N554 C551 1.351 . S
N554 N555 1.365 . S
N555 C552 1.341 . S
N555 N554 1.365 . S
N555 H575 0.862 . S
C556 C551 1.501 . S
C556 H557 0.961 . S
C556 H558 0.961 . S
C556 H559 0.960 . S
H557 C556 0.961 . S
H558 C556 0.961 . S
H559 C556 0.960 . S
C560 N561 1.342 . S
C560 C564 1.401 . S
C560 C565 1.499 . S
N561 Co544 1.989 . S
N561 C560 1.342 . S
N561 N562 1.388 . S
N562 Co545 1.993 . S
N562 N561 1.388 . S
N562 C563 1.346 . S
C563 N562 1.346 . S
C563 C564 1.396 . S
C563 C573 1.510 . S
C564 C560 1.401 . S
C564 C563 1.396 . S
C565 C560 1.499 . S
C565 H566 0.959 . S
C565 H567 0.960 . S
C565 H568 0.961 . S
H566 C565 0.959 . S
H567 C565 0.960 . S
H568 C565 0.961 . S
O569 Co544 1.967 . S
O569 C577 1.258 . S
O570 Co545 1.941 . S
O570 C577 1.266 . S
H571 C573 0.959 . S
H572 C573 0.961 . S
C573 C563 1.510 . S
C573 H571 0.959 . S
C573 H572 0.961 . S
C573 H574 0.960 . S
H574 C573 0.960 . S
H575 N555 0.862 . S
O576 Co544 1.920 . S
O576 C549 1.289 . S
C577 O569 1.258 . S
C577 O570 1.266 . S
Co578 O581 1.970 . S
Co578 N595 1.989 . S
Co578 O603 1.967 . S
Co578 O610 1.920 . S
Co579 O582 1.966 . S
Co579 N588 2.022 . S
Co579 N596 1.993 . S
Co579 O604 1.941 . S
C580 O581 1.258 . S
C580 O582 1.263 . S
O581 Co578 1.970 . S
O581 C580 1.258 . S
O582 Co579 1.966 . S
O582 C580 1.263 . S
C583 O584 1.235 . S
C583 O610 1.289 . S
O584 C583 1.235 . S
C585 C587 1.400 . S
C585 N588 1.351 . S
C585 C590 1.501 . S
C586 C587 1.387 . S
C586 N589 1.341 . S
C587 C585 1.400 . S
C587 C586 1.387 . S
N588 Co579 2.022 . S
N588 C585 1.351 . S
N588 N589 1.365 . S
N589 C586 1.341 . S
N589 N588 1.365 . S
N589 H609 0.862 . S
C590 C585 1.501 . S
C590 H591 0.961 . S
C590 H592 0.961 . S
C590 H593 0.960 . S
H591 C590 0.961 . S
H592 C590 0.961 . S
H593 C590 0.960 . S
C594 N595 1.342 . S
C594 C598 1.401 . S
C594 C599 1.499 . S
N595 Co578 1.989 . S
N595 C594 1.342 . S
N595 N596 1.388 . S
N596 Co579 1.993 . S
N596 N595 1.388 . S
N596 C597 1.346 . S
C597 N596 1.346 . S
C597 C598 1.396 . S
C597 C607 1.510 . S
C598 C594 1.401 . S
C598 C597 1.396 . S
C599 C594 1.499 . S
C599 H600 0.959 . S
C599 H601 0.960 . S
C599 H602 0.961 . S
H600 C599 0.959 . S
H601 C599 0.960 . S
H602 C599 0.961 . S
O603 Co578 1.967 . S
O603 C611 1.258 . S
O604 Co579 1.941 . S
O604 C611 1.266 . S
H605 C607 0.959 . S
H606 C607 0.961 . S
C607 C597 1.510 . S
C607 H605 0.959 . S
C607 H606 0.961 . S
C607 H608 0.960 . S
H608 C607 0.960 . S
H609 N589 0.862 . S
O610 Co578 1.920 . S
O610 C583 1.289 . S
C611 O603 1.258 . S
C611 O604 1.266 . S
C612 C613 1.391 . S
C612 C614 1.394 . S
C612 H628 0.931 . S
C613 C612 1.391 . S
C613 C617 1.376 . S
C614 C612 1.394 . S
C614 C615 1.369 . S
C614 C618 1.531 1_556 S
C615 C614 1.369 . S
C615 C616 1.410 . S
C615 C623 1.503 1_556 S
C616 C615 1.410 . S
C616 C617 1.392 . S
C616 C619 1.511 . S
C617 C613 1.376 . S
C617 C616 1.392 . S
C617 H629 0.929 . S
C618 C614 1.531 1_554 S
C618 H630 0.960 . S
C618 H631 0.962 . S
C618 H632 0.960 . S
C619 C616 1.511 . S
C619 H633 0.961 . S
C619 H634 0.961 . S
C619 H635 0.961 . S
C620 C621 1.370 . S
C620 C622 1.363 . S
C620 H636 0.931 . S
C621 C620 1.370 . S
C621 C625 1.408 . S
C622 C620 1.363 . S
C622 C623 1.370 . S
C622 C626 1.524 . S
C623 C615 1.503 1_554 S
C623 C622 1.370 . S
C623 C624 1.403 . S
C624 C623 1.403 . S
C624 C625 1.404 . S
C624 C627 1.539 1_554 S
C625 C621 1.408 . S
C625 C624 1.404 . S
C625 H637 0.930 . S
C626 C622 1.524 . S
C626 H638 0.956 . S
C626 H639 0.961 . S
C626 H640 0.961 . S
C627 C624 1.539 1_556 S
C627 H641 0.958 . S
C627 H642 0.961 . S
C627 H643 0.960 . S
H628 C612 0.931 . S
H629 C617 0.929 . S
H630 C618 0.960 . S
H631 C618 0.962 . S
H632 C618 0.960 . S
H633 C619 0.961 . S
H634 C619 0.961 . S
H635 C619 0.961 . S
H636 C620 0.931 . S
H637 C625 0.930 . S
H638 C626 0.956 . S
H639 C626 0.961 . S
H640 C626 0.961 . S
H641 C627 0.958 . S
H642 C627 0.961 . S
H643 C627 0.960 . S
C644 C645 1.391 . S
C644 C646 1.394 . S
C644 H660 0.931 . S
C645 C644 1.391 . S
C645 C649 1.376 . S
C646 C644 1.394 . S
C646 C647 1.369 . S
C646 C650 1.531 1_565 S
C647 C646 1.369 . S
C647 C648 1.410 . S
C647 C655 1.503 1_564 S
C648 C647 1.410 . S
C648 C649 1.392 . S
C648 C651 1.511 1_554 S
C649 C645 1.376 . S
C649 C648 1.392 . S
C649 H661 0.929 . S
C650 C646 1.531 1_545 S
C650 H662 0.960 . S
C650 H663 0.962 . S
C650 H664 0.960 . S
C651 C648 1.511 1_556 S
C651 H665 0.961 . S
C651 H666 0.961 . S
C651 H667 0.961 . S
C652 C653 1.370 . S
C652 C654 1.363 . S
C652 H668 0.931 . S
C653 C652 1.370 . S
C653 C657 1.408 . S
C654 C652 1.363 . S
C654 C655 1.370 . S
C654 C658 1.524 1_545 S
C655 C647 1.503 1_546 S
C655 C654 1.370 . S
C655 C656 1.403 . S
C656 C655 1.403 . S
C656 C657 1.404 . S
C656 C659 1.539 1_556 S
C657 C653 1.408 . S
C657 C656 1.404 . S
C657 H669 0.930 . S
C658 C654 1.524 1_565 S
C658 H670 0.956 . S
C658 H671 0.961 . S
C658 H672 0.961 . S
C659 C656 1.539 1_554 S
C659 H673 0.958 . S
C659 H674 0.961 . S
C659 H675 0.960 . S
H660 C644 0.931 . S
H661 C649 0.929 . S
H662 C650 0.960 . S
H663 C650 0.962 . S
H664 C650 0.960 . S
H665 C651 0.961 . S
H666 C651 0.961 . S
H667 C651 0.961 . S
H668 C652 0.931 . S
H669 C657 0.930 . S
H670 C658 0.956 . S
H671 C658 0.961 . S
H672 C658 0.961 . S
H673 C659 0.958 . S
H674 C659 0.961 . S
H675 C659 0.960 . S
C676 C677 1.391 . S
C676 C678 1.394 . S
C676 H692 0.931 . S
C677 C676 1.391 . S
C677 C681 1.376 . S
C678 C676 1.394 . S
C678 C679 1.369 . S
C678 C682 1.531 1_455 S
C679 C678 1.369 . S
C679 C680 1.410 . S
C679 C687 1.503 1_454 S
C680 C679 1.410 . S
C680 C681 1.392 . S
C680 C683 1.511 1_554 S
C681 C677 1.376 . S
C681 C680 1.392 . S
C681 H693 0.929 . S
C682 C678 1.531 1_655 S
C682 H694 0.960 . S
C682 H695 0.983 . S
C682 H696 0.960 . S
C683 C680 1.511 1_556 S
C683 H697 0.961 . S
C683 H698 0.961 . S
C683 H699 0.961 1_556 S
C684 C685 1.370 . S
C684 C686 1.363 . S
C684 H700 0.931 . S
C685 C684 1.370 . S
C685 C689 1.408 . S
C686 C684 1.363 . S
C686 C687 1.370 . S
C686 C690 1.524 1_655 S
C687 C679 1.503 1_656 S
C687 C686 1.370 . S
C687 C688 1.403 1_556 S
C688 C687 1.403 1_554 S
C688 C689 1.404 1_554 S
C688 C691 1.539 . S
C689 C685 1.408 . S
C689 C688 1.404 1_556 S
C689 H701 0.930 . S
C690 C686 1.524 1_455 S
C690 H702 0.956 . S
C690 H703 0.961 . S
C690 H704 0.961 . S
C691 C688 1.539 . S
C691 H705 0.958 . S
C691 H706 0.961 . S
C691 H707 0.960 . S
H692 C676 0.931 . S
H693 C681 0.929 . S
H694 C682 0.960 . S
H695 C682 0.983 . S
H696 C682 0.960 . S
H697 C683 0.961 . S
H698 C683 0.961 . S
H699 C683 0.961 1_554 S
H700 C684 0.931 . S
H701 C689 0.930 . S
H702 C690 0.956 . S
H703 C690 0.961 . S
H704 C690 0.961 . S
H705 C691 0.958 . S
H706 C691 0.961 . S
H707 C691 0.960 . S
C708 C709 1.391 . S
C708 C710 1.394 1_556 S
C708 H724 0.931 1_556 S
C709 C708 1.391 . S
C709 C713 1.376 . S
C710 C708 1.394 1_554 S
C710 C711 1.369 1_554 S
C710 C714 1.531 . S
C711 C710 1.369 1_556 S
C711 C712 1.410 . S
C711 C719 1.503 1_556 S
C712 C711 1.410 . S
C712 C713 1.392 . S
C712 C715 1.511 . S
C713 C709 1.376 . S
C713 C712 1.392 . S
C713 H725 0.929 . S
C714 C710 1.531 . S
C714 H726 0.960 . S
C714 H727 0.962 . S
C714 H728 0.960 . S
C715 C712 1.511 . S
C715 H729 0.961 . S
C715 H730 0.961 . S
C715 H731 0.961 . S
C716 C717 1.370 . S
C716 C718 1.363 . S
C716 H732 0.931 . S
C717 C716 1.370 . S
C717 C721 1.408 . S
C718 C716 1.363 . S
C718 C719 1.370 . S
C718 C722 1.524 . S
C719 C711 1.503 1_554 S
C719 C718 1.370 . S
C719 C720 1.403 . S
C720 C719 1.403 . S
C720 C721 1.404 . S
C720 C723 1.539 . S
C721 C717 1.408 . S
C721 C720 1.404 . S
C721 H733 0.930 . S
C722 C718 1.524 . S
C722 H734 0.956 . S
C722 H735 0.961 1_554 S
C722 H736 0.961 . S
C723 C720 1.539 . S
C723 H737 0.958 . S
C723 H738 0.961 . S
C723 H739 0.960 1_554 S
H724 C708 0.931 1_554 S
H725 C713 0.929 . S
H726 C714 0.960 . S
H727 C714 0.962 . S
H728 C714 0.960 . S
H729 C715 0.961 . S
H730 C715 0.961 . S
H731 C715 0.961 . S
H732 C716 0.931 . S
H733 C721 0.930 . S
H734 C722 0.956 . S
H735 C722 0.961 1_556 S
H736 C722 0.961 . S
H737 C723 0.958 . S
H738 C723 0.961 . S
H739 C723 0.960 1_556 S
C740 C741 1.391 . S
C740 C742 1.394 1_556 S
C740 H756 0.931 . S
C741 C740 1.391 . S
C741 C745 1.376 . S
C742 C740 1.394 1_554 S
C742 C743 1.366 1_554 S
C742 C746 1.531 . S
C743 C742 1.366 1_556 S
C743 C744 1.428 . S
C743 C751 1.492 1_546 S
C744 C743 1.428 . S
C744 C745 1.392 . S
C744 C747 1.511 . S
C745 C741 1.376 . S
C745 C744 1.392 . S
C745 H757 0.929 . S
C746 C742 1.531 . S
C746 H758 0.960 . S
C746 H759 0.962 . S
C746 H760 0.960 . S
C747 C744 1.511 . S
C747 H761 0.961 . S
C747 H762 0.961 1_545 S
C747 H763 0.961 . S
C748 C749 1.370 . S
C748 C750 1.363 1_554 S
C748 H764 0.931 1_554 S
C749 C748 1.370 . S
C749 C753 1.408 . S
C750 C748 1.363 1_556 S
C750 C751 1.370 1_556 S
C750 C754 1.524 . S
C751 C743 1.492 1_564 S
C751 C750 1.370 1_554 S
C751 C752 1.403 . S
C752 C751 1.403 . S
C752 C753 1.404 . S
C752 C755 1.539 1_565 S
C753 C749 1.408 . S
C753 C752 1.404 . S
C753 H765 0.930 . S
C754 C750 1.524 . S
C754 H766 0.956 . S
C754 H767 0.961 . S
C754 H768 0.961 . S
C755 C752 1.539 1_545 S
C755 H769 0.958 . S
C755 H770 0.961 1_545 S
C755 H771 0.960 . S
H756 C740 0.931 . S
H757 C745 0.929 . S
H758 C746 0.960 . S
H759 C746 0.962 . S
H760 C746 0.960 . S
H761 C747 0.961 . S
H762 C747 0.961 1_565 S
H763 C747 0.961 . S
H764 C748 0.931 1_556 S
H765 C753 0.930 . S
H766 C754 0.956 . S
H767 C754 0.961 . S
H768 C754 0.961 . S
H769 C755 0.958 . S
H770 C755 0.961 1_565 S
H771 C755 0.960 . S
C772 C773 1.391 . S
C772 C774 1.394 1_556 S
C772 H788 0.931 1_556 S
C773 C772 1.391 . S
C773 C777 1.376 . S
C774 C772 1.394 1_554 S
C774 C775 1.369 1_554 S
C774 C778 1.531 . S
C775 C774 1.369 1_556 S
C775 C776 1.410 . S
C775 C783 1.503 1_656 S
C776 C775 1.410 . S
C776 C777 1.392 . S
C776 C779 1.511 1_655 S
C777 C773 1.376 . S
C777 C776 1.392 . S
C777 H789 0.929 . S
C778 C774 1.531 . S
C778 H790 0.960 . S
C778 H791 0.962 . S
C778 H792 0.960 . S
C779 C776 1.511 1_455 S
C779 H793 0.961 . S
C779 H794 0.961 . S
C779 H795 0.961 . S
C780 C781 1.370 . S
C780 C782 1.363 . S
C780 H796 0.931 . S
C781 C780 1.370 . S
C781 C785 1.408 . S
C782 C780 1.363 . S
C782 C783 1.370 . S
C782 C786 1.524 1_554 S
C783 C775 1.503 1_454 S
C783 C782 1.370 . S
C783 C784 1.403 . S
C784 C783 1.403 . S
C784 C785 1.404 . S
C784 C787 1.539 . S
C785 C781 1.408 . S
C785 C784 1.404 . S
C785 H797 0.930 . S
C786 C782 1.524 1_556 S
C786 H798 0.956 . S
C786 H799 0.961 . S
C786 H800 0.961 . S
C787 C784 1.539 . S
C787 H801 0.958 1_455 S
C787 H802 0.961 . S
C787 H803 0.960 1_455 S
H788 C772 0.931 1_554 S
H789 C777 0.929 . S
H790 C778 0.960 . S
H791 C778 0.962 . S
H792 C778 0.960 . S
H793 C779 0.961 . S
H794 C779 0.961 . S
H795 C779 0.961 . S
H796 C780 0.931 . S
H797 C785 0.930 . S
H798 C786 0.956 . S
H799 C786 0.961 . S
H800 C786 0.961 . S
H801 C787 0.958 1_655 S
H802 C787 0.961 . S
H803 C787 0.960 1_655 S
C804 C805 1.391 . S
C804 C806 1.394 . S
C804 H820 0.931 . S
C805 C804 1.391 . S
C805 C809 1.376 . S
C806 C804 1.394 . S
C806 C807 1.369 . S
C806 C810 1.531 . S
C807 C806 1.369 . S
C807 C808 1.410 . S
C807 C815 1.503 . S
C808 C807 1.410 . S
C808 C809 1.392 . S
C808 C811 1.511 . S
C809 C805 1.376 . S
C809 C808 1.392 . S
C809 H821 0.929 . S
C810 C806 1.531 . S
C810 H822 0.960 . S
C810 H823 0.962 . S
C810 H824 0.960 . S
C811 C808 1.511 . S
C811 H825 0.961 . S
C811 H826 0.961 . S
C811 H827 0.961 . S
C812 C813 1.370 . S
C812 C814 1.363 . S
C812 H828 0.931 . S
C813 C812 1.370 . S
C813 C817 1.408 . S
C814 C812 1.363 . S
C814 C815 1.370 . S
C814 C818 1.524 . S
C815 C807 1.503 . S
C815 C814 1.370 . S
C815 C816 1.403 . S
C816 C815 1.403 . S
C816 C817 1.404 . S
C816 C819 1.539 . S
C817 C813 1.408 . S
C817 C816 1.404 . S
C817 H829 0.930 . S
C818 C814 1.524 . S
C818 H830 0.956 . S
C818 H831 0.961 . S
C818 H832 0.961 . S
C819 C816 1.539 . S
C819 H833 0.958 . S
C819 H834 0.961 . S
C819 H835 0.960 . S
H820 C804 0.931 . S
H821 C809 0.929 . S
H822 C810 0.960 . S
H823 C810 0.962 . S
H824 C810 0.960 . S
H825 C811 0.961 . S
H826 C811 0.961 . S
H827 C811 0.961 . S
H828 C812 0.931 . S
H829 C817 0.930 . S
H830 C818 0.956 . S
H831 C818 0.961 . S
H832 C818 0.961 . S
H833 C819 0.958 . S
H834 C819 0.961 . S
H835 C819 0.960 . S
C836 C837 1.391 . S
C836 C838 1.394 . S
C836 H852 0.931 . S
C837 C836 1.391 . S
C837 C841 1.376 . S
C838 C836 1.394 . S
C838 C839 1.369 . S
C838 C842 1.531 . S
C839 C838 1.369 . S
C839 C840 1.410 . S
C839 C847 1.503 . S
C840 C839 1.410 . S
C840 C841 1.392 . S
C840 C843 1.511 . S
C841 C837 1.376 . S
C841 C840 1.392 . S
C841 H853 0.929 . S
C842 C838 1.531 . S
C842 H854 0.960 . S
C842 H855 0.962 . S
C842 H856 0.960 . S
C843 C840 1.511 . S
C843 H857 0.961 . S
C843 H858 0.961 . S
C843 H859 0.961 . S
C844 C845 1.370 . S
C844 C846 1.363 . S
C844 H860 0.931 . S
C845 C844 1.370 . S
C845 C849 1.408 . S
C846 C844 1.363 . S
C846 C847 1.370 . S
C846 C850 1.524 . S
C847 C839 1.503 . S
C847 C846 1.370 . S
C847 C848 1.403 . S
C848 C847 1.403 . S
C848 C849 1.404 . S
C848 C851 1.539 . S
C849 C845 1.408 . S
C849 C848 1.404 . S
C849 H861 0.930 . S
C850 C846 1.524 . S
C850 H862 0.956 . S
C850 H863 0.961 . S
C850 H864 0.961 . S
C851 C848 1.539 . S
C851 H865 0.958 . S
C851 H866 0.961 . S
C851 H867 0.960 . S
H852 C836 0.931 . S
H853 C841 0.929 . S
H854 C842 0.960 . S
H855 C842 0.962 . S
H856 C842 0.960 . S
H857 C843 0.961 . S
H858 C843 0.961 . S
H859 C843 0.961 . S
H860 C844 0.931 . S
H861 C849 0.930 . S
H862 C850 0.956 . S
H863 C850 0.961 . S
H864 C850 0.961 . S
H865 C851 0.958 . S
H866 C851 0.961 . S
H867 C851 0.960 . S
C868 C869 1.391 . S
C868 C870 1.394 . S
C868 H884 0.931 . S
C869 C868 1.391 . S
C869 C873 1.376 . S
C870 C868 1.394 . S
C870 C871 1.369 . S
C870 C874 1.531 . S
C871 C870 1.369 . S
C871 C872 1.410 . S
C871 C879 1.503 . S
C872 C871 1.410 . S
C872 C873 1.392 . S
C872 C875 1.511 . S
C873 C869 1.376 . S
C873 C872 1.392 . S
C873 H885 0.929 . S
C874 C870 1.531 . S
C874 H886 0.960 . S
C874 H887 0.962 . S
C874 H888 0.960 . S
C875 C872 1.511 . S
C875 H889 0.961 . S
C875 H890 0.961 . S
C875 H891 0.961 . S
C876 C877 1.370 . S
C876 C878 1.363 . S
C876 H892 0.931 . S
C877 C876 1.370 . S
C877 C881 1.408 . S
C878 C876 1.363 . S
C878 C879 1.370 . S
C878 C882 1.524 . S
C879 C871 1.503 . S
C879 C878 1.370 . S
C879 C880 1.403 . S
C880 C879 1.403 . S
C880 C881 1.404 . S
C880 C883 1.539 . S
C881 C877 1.408 . S
C881 C880 1.404 . S
C881 H893 0.930 . S
C882 C878 1.524 . S
C882 H894 0.956 . S
C882 H895 0.961 . S
C882 H896 0.961 . S
C883 C880 1.539 . S
C883 H897 0.958 . S
C883 H898 0.961 . S
C883 H899 0.960 . S
H884 C868 0.931 . S
H885 C873 0.929 . S
H886 C874 0.960 . S
H887 C874 0.962 . S
H888 C874 0.960 . S
H889 C875 0.961 . S
H890 C875 0.961 . S
H891 C875 0.961 . S
H892 C876 0.931 . S
H893 C881 0.930 . S
H894 C882 0.956 . S
H895 C882 0.961 . S
H896 C882 0.961 . S
H897 C883 0.958 . S
H898 C883 0.961 . S
H899 C883 0.960 . S
C900 C901 1.391 . S
C900 C902 1.394 . S
C900 H916 0.931 . S
C901 C900 1.391 . S
C901 C905 1.376 . S
C902 C900 1.394 . S
C902 C903 1.369 . S
C902 C906 1.531 . S
C903 C902 1.369 . S
C903 C904 1.410 . S
C903 C911 1.503 . S
C904 C903 1.410 . S
C904 C905 1.392 . S
C904 C907 1.511 . S
C905 C901 1.376 . S
C905 C904 1.392 . S
C905 H917 0.929 . S
C906 C902 1.531 . S
C906 H918 0.960 . S
C906 H919 0.962 . S
C906 H920 0.960 . S
C907 C904 1.511 . S
C907 H921 0.961 . S
C907 H922 0.961 . S
C907 H923 0.961 . S
C908 C909 1.370 . S
C908 C910 1.363 . S
C908 H924 0.931 . S
C909 C908 1.370 . S
C909 C913 1.408 . S
C910 C908 1.363 . S
C910 C911 1.370 . S
C910 C914 1.524 . S
C911 C903 1.503 . S
C911 C910 1.370 . S
C911 C912 1.403 . S
C912 C911 1.403 . S
C912 C913 1.404 . S
C912 C915 1.539 . S
C913 C909 1.408 . S
C913 C912 1.404 . S
C913 H925 0.930 . S
C914 C910 1.524 . S
C914 H926 0.956 . S
C914 H927 0.961 . S
C914 H928 0.961 . S
C915 C912 1.539 . S
C915 H929 0.958 . S
C915 H930 0.961 . S
C915 H931 0.960 . S
H916 C900 0.931 . S
H917 C905 0.929 . S
H918 C906 0.960 . S
H919 C906 0.962 . S
H920 C906 0.960 . S
H921 C907 0.961 . S
H922 C907 0.961 . S
H923 C907 0.961 . S
H924 C908 0.931 . S
H925 C913 0.930 . S
H926 C914 0.956 . S
H927 C914 0.961 . S
H928 C914 0.961 . S
H929 C915 0.958 . S
H930 C915 0.961 . S
H931 C915 0.960 . S
C932 C933 1.391 . S
C932 C934 1.394 . S
C932 H948 0.931 . S
C933 C932 1.391 . S
C933 C937 1.376 . S
C934 C932 1.394 . S
C934 C935 1.369 . S
C934 C938 1.531 . S
C935 C934 1.369 . S
C935 C936 1.410 . S
C935 C943 1.503 . S
C936 C935 1.410 . S
C936 C937 1.392 . S
C936 C939 1.511 . S
C937 C933 1.376 . S
C937 C936 1.392 . S
C937 H949 0.929 . S
C938 C934 1.531 . S
C938 H950 0.960 . S
C938 H951 0.962 . S
C938 H952 0.960 . S
C939 C936 1.511 . S
C939 H953 0.961 . S
C939 H954 0.961 . S
C939 H955 0.961 . S
C940 C941 1.370 . S
C940 C942 1.363 . S
C940 H956 0.931 . S
C941 C940 1.370 . S
C941 C945 1.408 . S
C942 C940 1.363 . S
C942 C943 1.370 . S
C942 C946 1.524 . S
C943 C935 1.503 . S
C943 C942 1.370 . S
C943 C944 1.403 . S
C944 C943 1.403 . S
C944 C945 1.404 . S
C944 C947 1.539 . S
C945 C941 1.408 . S
C945 C944 1.404 . S
C945 H957 0.930 . S
C946 C942 1.524 . S
C946 H958 0.956 . S
C946 H959 0.961 . S
C946 H960 0.961 . S
C947 C944 1.539 . S
C947 H961 0.958 . S
C947 H962 0.961 . S
C947 H963 0.960 . S
H948 C932 0.931 . S
H949 C937 0.929 . S
H950 C938 0.960 . S
H951 C938 0.962 . S
H952 C938 0.960 . S
H953 C939 0.961 . S
H954 C939 0.961 . S
H955 C939 0.961 . S
H956 C940 0.931 . S
H957 C945 0.930 . S
H958 C946 0.956 . S
H959 C946 0.961 . S
H960 C946 0.961 . S
H961 C947 0.958 . S
H962 C947 0.961 . S
H963 C947 0.960 . S
C964 C965 1.391 . S
C964 C966 1.394 . S
C964 H980 0.931 . S
C965 C964 1.391 . S
C965 C969 1.376 . S
C966 C964 1.394 . S
C966 C967 1.369 . S
C966 C970 1.531 . S
C967 C966 1.369 . S
C967 C968 1.410 . S
C967 C975 1.503 . S
C968 C967 1.410 . S
C968 C969 1.392 . S
C968 C971 1.511 . S
C969 C965 1.376 . S
C969 C968 1.392 . S
C969 H981 0.929 . S
C970 C966 1.531 . S
C970 H982 0.960 . S
C970 H983 0.962 . S
C970 H984 0.960 . S
C971 C968 1.511 . S
C971 H985 0.961 . S
C971 H986 0.961 . S
C971 H987 0.961 . S
C972 C973 1.370 . S
C972 C974 1.363 . S
C972 H988 0.931 . S
C973 C972 1.370 . S
C973 C977 1.408 . S
C974 C972 1.363 . S
C974 C975 1.370 . S
C974 C978 1.524 . S
C975 C967 1.503 . S
C975 C974 1.370 . S
C975 C976 1.403 . S
C976 C975 1.403 . S
C976 C977 1.404 . S
C976 C979 1.539 . S
C977 C973 1.408 . S
C977 C976 1.404 . S
C977 H989 0.930 . S
C978 C974 1.524 . S
C978 H990 0.956 . S
C978 H991 0.961 . S
C978 H992 0.961 . S
C979 C976 1.539 . S
C979 H993 0.958 . S
C979 H994 0.961 . S
C979 H995 0.960 . S
H980 C964 0.931 . S
H981 C969 0.929 . S
H982 C970 0.960 . S
H983 C970 0.962 . S
H984 C970 0.960 . S
H985 C971 0.961 . S
H986 C971 0.961 . S
H987 C971 0.961 . S
H988 C972 0.931 . S
H989 C977 0.930 . S
H990 C978 0.956 . S
H991 C978 0.961 . S
H992 C978 0.961 . S
H993 C979 0.958 . S
H994 C979 0.961 . S
H995 C979 0.960 . S
C996 C997 1.391 . S
C996 C998 1.394 . S
C996 H1012 0.931 . S
C997 C996 1.391 . S
C997 C1001 1.376 . S
C998 C996 1.394 . S
C998 C999 1.369 . S
C998 C1002 1.531 . S
C999 C998 1.369 . S
C999 C1000 1.410 . S
C999 C1007 1.503 . S
C1000 C999 1.410 . S
C1000 C1001 1.392 . S
C1000 C1003 1.511 . S
C1001 C997 1.376 . S
C1001 C1000 1.392 . S
C1001 H1013 0.929 . S
C1002 C998 1.531 . S
C1002 H1014 0.960 . S
C1002 H1015 0.962 . S
C1002 H1016 0.960 . S
C1003 C1000 1.511 . S
C1003 H1017 0.961 . S
C1003 H1018 0.961 . S
C1003 H1019 0.961 . S
C1004 C1005 1.370 . S
C1004 C1006 1.363 . S
C1004 H1020 0.931 . S
C1005 C1004 1.370 . S
C1005 C1009 1.408 . S
C1006 C1004 1.363 . S
C1006 C1007 1.370 . S
C1006 C1010 1.524 . S
C1007 C999 1.503 . S
C1007 C1006 1.370 . S
C1007 C1008 1.403 . S
C1008 C1007 1.403 . S
C1008 C1009 1.404 . S
C1008 C1011 1.539 . S
C1009 C1005 1.408 . S
C1009 C1008 1.404 . S
C1009 H1021 0.930 . S
C1010 C1006 1.524 . S
C1010 H1022 0.956 . S
C1010 H1023 0.961 . S
C1010 H1024 0.961 . S
C1011 C1008 1.539 . S
C1011 H1025 0.958 . S
C1011 H1026 0.961 . S
C1011 H1027 0.960 . S
H1012 C996 0.931 . S
H1013 C1001 0.929 . S
H1014 C1002 0.960 . S
H1015 C1002 0.962 . S
H1016 C1002 0.960 . S
H1017 C1003 0.961 . S
H1018 C1003 0.961 . S
H1019 C1003 0.961 . S
H1020 C1004 0.931 . S
H1021 C1009 0.930 . S
H1022 C1010 0.956 . S
H1023 C1010 0.961 . S
H1024 C1010 0.961 . S
H1025 C1011 0.958 . S
H1026 C1011 0.961 . S
H1027 C1011 0.960 . S
C1028 C1029 1.391 . S
C1028 C1030 1.394 . S
C1028 H1044 0.931 . S
C1029 C1028 1.391 . S
C1029 C1033 1.376 . S
C1030 C1028 1.394 . S
C1030 C1031 1.369 . S
C1030 C1034 1.531 . S
C1031 C1030 1.369 . S
C1031 C1032 1.410 . S
C1031 C1039 1.503 . S
C1032 C1031 1.410 . S
C1032 C1033 1.392 . S
C1032 C1035 1.511 . S
C1033 C1029 1.376 . S
C1033 C1032 1.392 . S
C1033 H1045 0.929 . S
C1034 C1030 1.531 . S
C1034 H1046 0.960 . S
C1034 H1047 0.962 . S
C1034 H1048 0.960 . S
C1035 C1032 1.511 . S
C1035 H1049 0.961 . S
C1035 H1050 0.961 . S
C1035 H1051 0.961 . S
C1036 C1037 1.370 . S
C1036 C1038 1.363 . S
C1036 H1052 0.931 . S
C1037 C1036 1.370 . S
C1037 C1041 1.408 . S
C1038 C1036 1.363 . S
C1038 C1039 1.370 . S
C1038 C1042 1.524 . S
C1039 C1031 1.503 . S
C1039 C1038 1.370 . S
C1039 C1040 1.403 . S
C1040 C1039 1.403 . S
C1040 C1041 1.404 . S
C1040 C1043 1.539 . S
C1041 C1037 1.408 . S
C1041 C1040 1.404 . S
C1041 H1053 0.930 . S
C1042 C1038 1.524 . S
C1042 H1054 0.956 . S
C1042 H1055 0.961 . S
C1042 H1056 0.961 . S
C1043 C1040 1.539 . S
C1043 H1057 0.958 . S
C1043 H1058 0.961 . S
C1043 H1059 0.960 . S
H1044 C1028 0.931 . S
H1045 C1033 0.929 . S
H1046 C1034 0.960 . S
H1047 C1034 0.962 . S
H1048 C1034 0.960 . S
H1049 C1035 0.961 . S
H1050 C1035 0.961 . S
H1051 C1035 0.961 . S
H1052 C1036 0.931 . S
H1053 C1041 0.930 . S
H1054 C1042 0.956 . S
H1055 C1042 0.961 . S
H1056 C1042 0.961 . S
H1057 C1043 0.958 . S
H1058 C1043 0.961 . S
H1059 C1043 0.960 . S
C1060 C1061 1.391 . S
C1060 C1062 1.394 . S
C1060 H1076 0.931 . S
C1061 C1060 1.391 . S
C1061 C1065 1.376 . S
C1062 C1060 1.394 . S
C1062 C1063 1.369 . S
C1062 C1066 1.531 . S
C1063 C1062 1.369 . S
C1063 C1064 1.410 . S
C1063 C1071 1.503 . S
C1064 C1063 1.410 . S
C1064 C1065 1.392 . S
C1064 C1067 1.511 . S
C1065 C1061 1.376 . S
C1065 C1064 1.392 . S
C1065 H1077 0.929 . S
C1066 C1062 1.531 . S
C1066 H1078 0.960 . S
C1066 H1079 0.962 . S
C1066 H1080 0.960 . S
C1067 C1064 1.511 . S
C1067 H1081 0.961 . S
C1067 H1082 0.961 . S
C1067 H1083 0.961 . S
C1068 C1069 1.370 . S
C1068 C1070 1.363 . S
C1068 H1084 0.931 . S
C1069 C1068 1.370 . S
C1069 C1073 1.408 . S
C1070 C1068 1.363 . S
C1070 C1071 1.370 . S
C1070 C1074 1.524 . S
C1071 C1063 1.503 . S
C1071 C1070 1.370 . S
C1071 C1072 1.403 . S
C1072 C1071 1.403 . S
C1072 C1073 1.404 . S
C1072 C1075 1.539 . S
C1073 C1069 1.408 . S
C1073 C1072 1.404 . S
C1073 H1085 0.930 . S
C1074 C1070 1.524 . S
C1074 H1086 0.956 . S
C1074 H1087 0.961 . S
C1074 H1088 0.961 . S
C1075 C1072 1.539 . S
C1075 H1089 0.958 . S
C1075 H1090 0.961 . S
C1075 H1091 0.960 . S
H1076 C1060 0.931 . S
H1077 C1065 0.929 . S
H1078 C1066 0.960 . S
H1079 C1066 0.962 . S
H1080 C1066 0.960 . S
H1081 C1067 0.961 . S
H1082 C1067 0.961 . S
H1083 C1067 0.961 . S
H1084 C1068 0.931 . S
H1085 C1073 0.930 . S
H1086 C1074 0.956 . S
H1087 C1074 0.961 . S
H1088 C1074 0.961 . S
H1089 C1075 0.958 . S
H1090 C1075 0.961 . S
H1091 C1075 0.960 . S
C1092 C1093 1.391 . S
C1092 C1094 1.394 . S
C1092 H1108 0.931 . S
C1093 C1092 1.391 . S
C1093 C1097 1.376 . S
C1094 C1092 1.394 . S
C1094 C1095 1.369 . S
C1094 C1098 1.531 . S
C1095 C1094 1.369 . S
C1095 C1096 1.410 . S
C1095 C1103 1.503 . S
C1096 C1095 1.410 . S
C1096 C1097 1.392 . S
C1096 C1099 1.511 . S
C1097 C1093 1.376 . S
C1097 C1096 1.392 . S
C1097 H1109 0.929 . S
C1098 C1094 1.531 . S
C1098 H1110 0.960 . S
C1098 H1111 0.962 . S
C1098 H1112 0.960 . S
C1099 C1096 1.511 . S
C1099 H1113 0.961 . S
C1099 H1114 0.961 . S
C1099 H1115 0.961 . S
C1100 C1101 1.370 . S
C1100 C1102 1.363 . S
C1100 H1116 0.931 . S
C1101 C1100 1.370 . S
C1101 C1105 1.408 . S
C1102 C1100 1.363 . S
C1102 C1103 1.370 . S
C1102 C1106 1.524 . S
C1103 C1095 1.503 . S
C1103 C1102 1.370 . S
C1103 C1104 1.403 . S
C1104 C1103 1.403 . S
C1104 C1105 1.404 . S
C1104 C1107 1.539 . S
C1105 C1101 1.408 . S
C1105 C1104 1.404 . S
C1105 H1117 0.930 . S
C1106 C1102 1.524 . S
C1106 H1118 0.956 . S
C1106 H1119 0.961 . S
C1106 H1120 0.961 . S
C1107 C1104 1.539 . S
C1107 H1121 0.958 . S
C1107 H1122 0.961 . S
C1107 H1123 0.960 . S
H1108 C1092 0.931 . S
H1109 C1097 0.929 . S
H1110 C1098 0.960 . S
H1111 C1098 0.962 . S
H1112 C1098 0.960 . S
H1113 C1099 0.961 . S
H1114 C1099 0.961 . S
H1115 C1099 0.961 . S
H1116 C1100 0.931 . S
H1117 C1105 0.930 . S
H1118 C1106 0.956 . S
H1119 C1106 0.961 . S
H1120 C1106 0.961 . S
H1121 C1107 0.958 . S
H1122 C1107 0.961 . S
H1123 C1107 0.960 . S
C1124 C1125 1.391 . S
C1124 C1126 1.394 . S
C1124 H1140 0.931 . S
C1125 C1124 1.391 . S
C1125 C1129 1.376 . S
C1126 C1124 1.394 . S
C1126 C1127 1.369 . S
C1126 C1130 1.531 . S
C1127 C1126 1.369 . S
C1127 C1128 1.410 . S
C1127 C1135 1.503 . S
C1128 C1127 1.410 . S
C1128 C1129 1.392 . S
C1128 C1131 1.511 . S
C1129 C1125 1.376 . S
C1129 C1128 1.392 . S
C1129 H1141 0.929 . S
C1130 C1126 1.531 . S
C1130 H1142 0.960 . S
C1130 H1143 0.962 . S
C1130 H1144 0.960 . S
C1131 C1128 1.511 . S
C1131 H1145 0.961 . S
C1131 H1146 0.961 . S
C1131 H1147 0.961 . S
C1132 C1133 1.370 . S
C1132 C1134 1.363 . S
C1132 H1148 0.931 . S
C1133 C1132 1.370 . S
C1133 C1137 1.408 . S
C1134 C1132 1.363 . S
C1134 C1135 1.370 . S
C1134 C1138 1.524 . S
C1135 C1127 1.503 . S
C1135 C1134 1.370 . S
C1135 C1136 1.403 . S
C1136 C1135 1.403 . S
C1136 C1137 1.404 . S
C1136 C1139 1.539 . S
C1137 C1133 1.408 . S
C1137 C1136 1.404 . S
C1137 H1149 0.930 . S
C1138 C1134 1.524 . S
C1138 H1150 0.956 . S
C1138 H1151 0.961 . S
C1138 H1152 0.961 . S
C1139 C1136 1.539 . S
C1139 H1153 0.958 . S
C1139 H1154 0.961 . S
C1139 H1155 0.960 . S
H1140 C1124 0.931 . S
H1141 C1129 0.929 . S
H1142 C1130 0.960 . S
H1143 C1130 0.962 . S
H1144 C1130 0.960 . S
H1145 C1131 0.961 . S
H1146 C1131 0.961 . S
H1147 C1131 0.961 . S
H1148 C1132 0.931 . S
H1149 C1137 0.930 . S
H1150 C1138 0.956 . S
H1151 C1138 0.961 . S
H1152 C1138 0.961 . S
H1153 C1139 0.958 . S
H1154 C1139 0.961 . S
H1155 C1139 0.960 . S
C1156 C1157 1.391 . S
C1156 C1158 1.394 . S
C1156 H1172 0.931 . S
C1157 C1156 1.391 . S
C1157 C1161 1.376 . S
C1158 C1156 1.394 . S
C1158 C1159 1.369 . S
C1158 C1162 1.531 . S
C1159 C1158 1.369 . S
C1159 C1160 1.410 . S
C1159 C1167 1.503 . S
C1160 C1159 1.410 . S
C1160 C1161 1.392 . S
C1160 C1163 1.511 . S
C1161 C1157 1.376 . S
C1161 C1160 1.392 . S
C1161 H1173 0.929 . S
C1162 C1158 1.531 . S
C1162 H1174 0.960 . S
C1162 H1175 0.962 . S
C1162 H1176 0.960 . S
C1163 C1160 1.511 . S
C1163 H1177 0.961 . S
C1163 H1178 0.961 . S
C1163 H1179 0.961 . S
C1164 C1165 1.370 . S
C1164 C1166 1.363 . S
C1164 H1180 0.931 . S
C1165 C1164 1.370 . S
C1165 C1169 1.408 . S
C1166 C1164 1.363 . S
C1166 C1167 1.370 . S
C1166 C1170 1.524 . S
C1167 C1159 1.503 . S
C1167 C1166 1.370 . S
C1167 C1168 1.403 . S
C1168 C1167 1.403 . S
C1168 C1169 1.404 . S
C1168 C1171 1.539 . S
C1169 C1165 1.408 . S
C1169 C1168 1.404 . S
C1169 H1181 0.930 . S
C1170 C1166 1.524 . S
C1170 H1182 0.956 . S
C1170 H1183 0.961 . S
C1170 H1184 0.961 . S
C1171 C1168 1.539 . S
C1171 H1185 0.958 . S
C1171 H1186 0.961 . S
C1171 H1187 0.960 . S
H1172 C1156 0.931 . S
H1173 C1161 0.929 . S
H1174 C1162 0.960 . S
H1175 C1162 0.962 . S
H1176 C1162 0.960 . S
H1177 C1163 0.961 . S
H1178 C1163 0.961 . S
H1179 C1163 0.961 . S
H1180 C1164 0.931 . S
H1181 C1169 0.930 . S
H1182 C1170 0.956 . S
H1183 C1170 0.961 . S
H1184 C1170 0.961 . S
H1185 C1171 0.958 . S
H1186 C1171 0.961 . S
H1187 C1171 0.960 . S
C1188 C1189 1.391 . S
C1188 C1190 1.394 . S
C1188 H1204 0.931 . S
C1189 C1188 1.391 . S
C1189 C1193 1.376 . S
C1190 C1188 1.394 . S
C1190 C1191 1.369 . S
C1190 C1194 1.531 . S
C1191 C1190 1.369 . S
C1191 C1192 1.410 . S
C1191 C1199 1.503 . S
C1192 C1191 1.410 . S
C1192 C1193 1.392 . S
C1192 C1195 1.511 . S
C1193 C1189 1.376 . S
C1193 C1192 1.392 . S
C1193 H1205 0.929 . S
C1194 C1190 1.531 . S
C1194 H1206 0.960 . S
C1194 H1207 0.962 . S
C1194 H1208 0.960 . S
C1195 C1192 1.511 . S
C1195 H1209 0.961 . S
C1195 H1210 0.961 . S
C1195 H1211 0.961 . S
C1196 C1197 1.370 . S
C1196 C1198 1.363 . S
C1196 H1212 0.931 . S
C1197 C1196 1.370 . S
C1197 C1201 1.408 . S
C1198 C1196 1.363 . S
C1198 C1199 1.370 . S
C1198 C1202 1.524 . S
C1199 C1191 1.503 . S
C1199 C1198 1.370 . S
C1199 C1200 1.403 . S
C1200 C1199 1.403 . S
C1200 C1201 1.404 . S
C1200 C1203 1.539 . S
C1201 C1197 1.408 . S
C1201 C1200 1.404 . S
C1201 H1213 0.930 . S
C1202 C1198 1.524 . S
C1202 H1214 0.956 . S
C1202 H1215 0.961 . S
C1202 H1216 0.961 . S
C1203 C1200 1.539 . S
C1203 H1217 0.958 . S
C1203 H1218 0.961 . S
C1203 H1219 0.960 . S
H1204 C1188 0.931 . S
H1205 C1193 0.929 . S
H1206 C1194 0.960 . S
H1207 C1194 0.962 . S
H1208 C1194 0.960 . S
H1209 C1195 0.961 . S
H1210 C1195 0.961 . S
H1211 C1195 0.961 . S
H1212 C1196 0.931 . S
H1213 C1201 0.930 . S
H1214 C1202 0.956 . S
H1215 C1202 0.961 . S
H1216 C1202 0.961 . S
H1217 C1203 0.958 . S
H1218 C1203 0.961 . S
H1219 C1203 0.960 . S
C1220 C1221 1.391 . S
C1220 C1222 1.394 . S
C1220 H1236 0.931 . S
C1221 C1220 1.391 . S
C1221 C1225 1.376 . S
C1222 C1220 1.394 . S
C1222 C1223 1.369 . S
C1222 C1226 1.531 . S
C1223 C1222 1.369 . S
C1223 C1224 1.410 . S
C1223 C1231 1.503 . S
C1224 C1223 1.410 . S
C1224 C1225 1.392 . S
C1224 C1227 1.511 . S
C1225 C1221 1.376 . S
C1225 C1224 1.392 . S
C1225 H1237 0.929 . S
C1226 C1222 1.531 . S
C1226 H1238 0.960 . S
C1226 H1239 0.962 . S
C1226 H1240 0.960 . S
C1227 C1224 1.511 . S
C1227 H1241 0.961 . S
C1227 H1242 0.961 . S
C1227 H1243 0.961 . S
C1228 C1229 1.370 . S
C1228 C1230 1.363 . S
C1228 H1244 0.931 . S
C1229 C1228 1.370 . S
C1229 C1233 1.408 . S
C1230 C1228 1.363 . S
C1230 C1231 1.370 . S
C1230 C1234 1.524 . S
C1231 C1223 1.503 . S
C1231 C1230 1.370 . S
C1231 C1232 1.403 . S
C1232 C1231 1.403 . S
C1232 C1233 1.404 . S
C1232 C1235 1.539 . S
C1233 C1229 1.408 . S
C1233 C1232 1.404 . S
C1233 H1245 0.930 . S
C1234 C1230 1.524 . S
C1234 H1246 0.956 . S
C1234 H1247 0.961 . S
C1234 H1248 0.961 . S
C1235 C1232 1.539 . S
C1235 H1249 0.958 . S
C1235 H1250 0.961 . S
C1235 H1251 0.960 . S
H1236 C1220 0.931 . S
H1237 C1225 0.929 . S
H1238 C1226 0.960 . S
H1239 C1226 0.962 . S
H1240 C1226 0.960 . S
H1241 C1227 0.961 . S
H1242 C1227 0.961 . S
H1243 C1227 0.961 . S
H1244 C1228 0.931 . S
H1245 C1233 0.930 . S
H1246 C1234 0.956 . S
H1247 C1234 0.961 . S
H1248 C1234 0.961 . S
H1249 C1235 0.958 . S
H1250 C1235 0.961 . S
H1251 C1235 0.960 . S
C1252 C1253 1.391 . S
C1252 C1254 1.394 . S
C1252 H1268 0.931 . S
C1253 C1252 1.391 . S
C1253 C1257 1.376 . S
C1254 C1252 1.394 . S
C1254 C1255 1.369 . S
C1254 C1258 1.531 . S
C1255 C1254 1.369 . S
C1255 C1256 1.410 . S
C1255 C1263 1.503 . S
C1256 C1255 1.410 . S
C1256 C1257 1.392 . S
C1256 C1259 1.511 . S
C1257 C1253 1.376 . S
C1257 C1256 1.392 . S
C1257 H1269 0.929 . S
C1258 C1254 1.531 . S
C1258 H1270 0.960 . S
C1258 H1271 0.962 . S
C1258 H1272 0.960 . S
C1259 C1256 1.511 . S
C1259 H1273 0.961 . S
C1259 H1274 0.961 . S
C1259 H1275 0.961 . S
C1260 C1261 1.370 . S
C1260 C1262 1.363 . S
C1260 H1276 0.931 . S
C1261 C1260 1.370 . S
C1261 C1265 1.408 . S
C1262 C1260 1.363 . S
C1262 C1263 1.370 . S
C1262 C1266 1.524 . S
C1263 C1255 1.503 . S
C1263 C1262 1.370 . S
C1263 C1264 1.403 . S
C1264 C1263 1.403 . S
C1264 C1265 1.404 . S
C1264 C1267 1.539 . S
C1265 C1261 1.408 . S
C1265 C1264 1.404 . S
C1265 H1277 0.930 . S
C1266 C1262 1.524 . S
C1266 H1278 0.956 . S
C1266 H1279 0.961 . S
C1266 H1280 0.961 . S
C1267 C1264 1.539 . S
C1267 H1281 0.958 . S
C1267 H1282 0.961 . S
C1267 H1283 0.960 . S
H1268 C1252 0.931 . S
H1269 C1257 0.929 . S
H1270 C1258 0.960 . S
H1271 C1258 0.962 . S
H1272 C1258 0.960 . S
H1273 C1259 0.961 . S
H1274 C1259 0.961 . S
H1275 C1259 0.961 . S
H1276 C1260 0.931 . S
H1277 C1265 0.930 . S
H1278 C1266 0.956 . S
H1279 C1266 0.961 . S
H1280 C1266 0.961 . S
H1281 C1267 0.958 . S
H1282 C1267 0.961 . S
H1283 C1267 0.960 . S
C1284 C1285 1.391 . S
C1284 C1286 1.394 . S
C1284 H1300 0.931 . S
C1285 C1284 1.391 . S
C1285 C1289 1.376 . S
C1286 C1284 1.394 . S
C1286 C1287 1.369 . S
C1286 C1290 1.531 . S
C1287 C1286 1.369 . S
C1287 C1288 1.410 . S
C1287 C1295 1.503 . S
C1288 C1287 1.410 . S
C1288 C1289 1.392 . S
C1288 C1291 1.511 . S
C1289 C1285 1.376 . S
C1289 C1288 1.392 . S
C1289 H1301 0.929 . S
C1290 C1286 1.531 . S
C1290 H1302 0.960 . S
C1290 H1303 0.962 . S
C1290 H1304 0.960 . S
C1291 C1288 1.511 . S
C1291 H1305 0.961 . S
C1291 H1306 0.961 . S
C1291 H1307 0.961 . S
C1292 C1293 1.370 . S
C1292 C1294 1.363 . S
C1292 H1308 0.931 . S
C1293 C1292 1.370 . S
C1293 C1297 1.408 . S
C1294 C1292 1.363 . S
C1294 C1295 1.370 . S
C1294 C1298 1.524 . S
C1295 C1287 1.503 . S
C1295 C1294 1.370 . S
C1295 C1296 1.403 . S
C1296 C1295 1.403 . S
C1296 C1297 1.404 . S
C1296 C1299 1.539 . S
C1297 C1293 1.408 . S
C1297 C1296 1.404 . S
C1297 H1309 0.930 . S
C1298 C1294 1.524 . S
C1298 H1310 0.956 . S
C1298 H1311 0.961 . S
C1298 H1312 0.961 . S
C1299 C1296 1.539 . S
C1299 H1313 0.958 . S
C1299 H1314 0.961 . S
C1299 H1315 0.960 . S
H1300 C1284 0.931 . S
H1301 C1289 0.929 . S
H1302 C1290 0.960 . S
H1303 C1290 0.962 . S
H1304 C1290 0.960 . S
H1305 C1291 0.961 . S
H1306 C1291 0.961 . S
H1307 C1291 0.961 . S
H1308 C1292 0.931 . S
H1309 C1297 0.930 . S
H1310 C1298 0.956 . S
H1311 C1298 0.961 . S
H1312 C1298 0.961 . S
H1313 C1299 0.958 . S
H1314 C1299 0.961 . S
H1315 C1299 0.960 . S
C1316 C1317 1.391 . S
C1316 C1318 1.394 . S
C1316 H1332 0.931 . S
C1317 C1316 1.391 . S
C1317 C1321 1.376 . S
C1318 C1316 1.394 . S
C1318 C1319 1.369 . S
C1318 C1322 1.531 . S
C1319 C1318 1.369 . S
C1319 C1320 1.410 . S
C1319 C1327 1.503 . S
C1320 C1319 1.410 . S
C1320 C1321 1.392 . S
C1320 C1323 1.511 . S
C1321 C1317 1.376 . S
C1321 C1320 1.392 . S
C1321 H1333 0.929 . S
C1322 C1318 1.531 . S
C1322 H1334 0.960 . S
C1322 H1335 0.962 . S
C1322 H1336 0.960 . S
C1323 C1320 1.511 . S
C1323 H1337 0.961 . S
C1323 H1338 0.961 . S
C1323 H1339 0.961 . S
C1324 C1325 1.370 . S
C1324 C1326 1.363 . S
C1324 H1340 0.931 . S
C1325 C1324 1.370 . S
C1325 C1329 1.408 . S
C1326 C1324 1.363 . S
C1326 C1327 1.370 . S
C1326 C1330 1.524 . S
C1327 C1319 1.503 . S
C1327 C1326 1.370 . S
C1327 C1328 1.403 . S
C1328 C1327 1.403 . S
C1328 C1329 1.404 . S
C1328 C1331 1.539 . S
C1329 C1325 1.408 . S
C1329 C1328 1.404 . S
C1329 H1341 0.930 . S
C1330 C1326 1.524 . S
C1330 H1342 0.956 . S
C1330 H1343 0.961 . S
C1330 H1344 0.961 . S
C1331 C1328 1.539 . S
C1331 H1345 0.958 . S
C1331 H1346 0.961 . S
C1331 H1347 0.960 . S
H1332 C1316 0.931 . S
H1333 C1321 0.929 . S
H1334 C1322 0.960 . S
H1335 C1322 0.962 . S
H1336 C1322 0.960 . S
H1337 C1323 0.961 . S
H1338 C1323 0.961 . S
H1339 C1323 0.961 . S
H1340 C1324 0.931 . S
H1341 C1329 0.930 . S
H1342 C1330 0.956 . S
H1343 C1330 0.961 . S
H1344 C1330 0.961 . S
H1345 C1331 0.958 . S
H1346 C1331 0.961 . S
H1347 C1331 0.960 . S
C1348 C1349 1.391 . S
C1348 C1350 1.394 . S
C1348 H1364 0.931 . S
C1349 C1348 1.391 . S
C1349 C1353 1.376 . S
C1350 C1348 1.394 . S
C1350 C1351 1.369 . S
C1350 C1354 1.531 . S
C1351 C1350 1.369 . S
C1351 C1352 1.410 . S
C1351 C1359 1.503 . S
C1352 C1351 1.410 . S
C1352 C1353 1.392 . S
C1352 C1355 1.511 . S
C1353 C1349 1.376 . S
C1353 C1352 1.392 . S
C1353 H1365 0.929 . S
C1354 C1350 1.531 . S
C1354 H1366 0.960 . S
C1354 H1367 0.962 . S
C1354 H1368 0.960 . S
C1355 C1352 1.511 . S
C1355 H1369 0.961 . S
C1355 H1370 0.961 . S
C1355 H1371 0.961 . S
C1356 C1357 1.370 . S
C1356 C1358 1.363 . S
C1356 H1372 0.931 . S
C1357 C1356 1.370 . S
C1357 C1361 1.408 . S
C1358 C1356 1.363 . S
C1358 C1359 1.370 . S
C1358 C1362 1.524 . S
C1359 C1351 1.503 . S
C1359 C1358 1.370 . S
C1359 C1360 1.403 . S
C1360 C1359 1.403 . S
C1360 C1361 1.404 . S
C1360 C1363 1.539 . S
C1361 C1357 1.408 . S
C1361 C1360 1.404 . S
C1361 H1373 0.930 . S
C1362 C1358 1.524 . S
C1362 H1374 0.956 . S
C1362 H1375 0.961 . S
C1362 H1376 0.961 . S
C1363 C1360 1.539 . S
C1363 H1377 0.958 . S
C1363 H1378 0.961 . S
C1363 H1379 0.960 . S
H1364 C1348 0.931 . S
H1365 C1353 0.929 . S
H1366 C1354 0.960 . S
H1367 C1354 0.962 . S
H1368 C1354 0.960 . S
H1369 C1355 0.961 . S
H1370 C1355 0.961 . S
H1371 C1355 0.961 . S
H1372 C1356 0.931 . S
H1373 C1361 0.930 . S
H1374 C1362 0.956 . S
H1375 C1362 0.961 . S
H1376 C1362 0.961 . S
H1377 C1363 0.958 . S
H1378 C1363 0.961 . S
H1379 C1363 0.960 . S
C1380 C1381 1.391 . S
C1380 C1382 1.394 . S
C1380 H1396 0.931 . S
C1381 C1380 1.391 . S
C1381 C1385 1.376 . S
C1382 C1380 1.394 . S
C1382 C1383 1.369 . S
C1382 C1386 1.531 1_655 S
C1383 C1382 1.369 . S
C1383 C1384 1.410 . S
C1383 C1391 1.503 1_554 S
C1384 C1383 1.410 . S
C1384 C1385 1.392 . S
C1384 C1387 1.511 . S
C1385 C1381 1.376 . S
C1385 C1384 1.392 . S
C1385 H1397 0.929 . S
C1386 C1382 1.531 1_455 S
C1386 H1398 0.960 1_454 S
C1386 H1399 0.962 . S
C1386 H1400 0.960 1_455 S
C1387 C1384 1.511 . S
C1387 H1401 0.961 . S
C1387 H1402 0.961 1_554 S
C1387 H1403 0.961 . S
C1388 C1389 1.370 . S
C1388 C1390 1.363 . S
C1388 H1404 0.931 . S
C1389 C1388 1.370 . S
C1389 C1393 1.408 1_455 S
C1390 C1388 1.363 . S
C1390 C1391 1.370 1_455 S
C1390 C1394 1.524 . S
C1391 C1383 1.503 1_556 S
C1391 C1390 1.370 1_655 S
C1391 C1392 1.403 . S
C1392 C1391 1.403 . S
C1392 C1393 1.404 . S
C1392 C1395 1.539 . S
C1393 C1389 1.408 1_655 S
C1393 C1392 1.404 . S
C1393 H1405 0.930 . S
C1394 C1390 1.524 . S
C1394 H1406 0.956 1_556 S
C1394 H1407 0.961 1_556 S
C1394 H1408 0.961 . S
C1395 C1392 1.539 . S
C1395 H1409 0.958 . S
C1395 H1410 0.961 . S
C1395 H1411 0.960 . S
H1396 C1380 0.931 . S
H1397 C1385 0.929 . S
H1398 C1386 0.960 1_656 S
H1399 C1386 0.962 . S
H1400 C1386 0.960 1_655 S
H1401 C1387 0.961 . S
H1402 C1387 0.961 1_556 S
H1403 C1387 0.961 . S
H1404 C1388 0.931 . S
H1405 C1393 0.930 . S
H1406 C1394 0.956 1_554 S
H1407 C1394 0.961 1_554 S
H1408 C1394 0.961 . S
H1409 C1395 0.958 . S
H1410 C1395 0.961 . S
H1411 C1395 0.960 . S
C1412 C1413 1.391 . S
C1412 C1414 1.394 . S
C1412 H1428 0.931 . S
C1413 C1412 1.391 . S
C1413 C1417 1.376 . S
C1414 C1412 1.394 . S
C1414 C1415 1.369 . S
C1414 C1418 1.531 . S
C1415 C1414 1.369 . S
C1415 C1416 1.410 . S
C1415 C1423 1.503 1_556 S
C1416 C1415 1.410 . S
C1416 C1417 1.392 . S
C1416 C1419 1.511 . S
C1417 C1413 1.376 . S
C1417 C1416 1.392 . S
C1417 H1429 0.929 . S
C1418 C1414 1.531 . S
C1418 H1430 0.960 1_556 S
C1418 H1431 0.962 . S
C1418 H1432 0.960 . S
C1419 C1416 1.511 . S
C1419 H1433 0.961 . S
C1419 H1434 0.961 1_556 S
C1419 H1435 0.961 . S
C1420 C1421 1.370 . S
C1420 C1422 1.363 . S
C1420 H1436 0.931 . S
C1421 C1420 1.370 . S
C1421 C1425 1.408 . S
C1422 C1420 1.363 . S
C1422 C1423 1.370 . S
C1422 C1426 1.524 . S
C1423 C1415 1.503 1_554 S
C1423 C1422 1.370 . S
C1423 C1424 1.403 . S
C1424 C1423 1.403 . S
C1424 C1425 1.404 . S
C1424 C1427 1.539 . S
C1425 C1421 1.408 . S
C1425 C1424 1.404 . S
C1425 H1437 0.930 . S
C1426 C1422 1.524 . S
C1426 H1438 0.969 . S
C1426 H1439 0.961 1_554 S
C1426 H1440 0.961 . S
C1427 C1424 1.539 . S
C1427 H1441 0.958 . S
C1427 H1442 0.961 . S
C1427 H1443 0.960 . S
H1428 C1412 0.931 . S
H1429 C1417 0.929 . S
H1430 C1418 0.960 1_554 S
H1431 C1418 0.962 . S
H1432 C1418 0.960 . S
H1433 C1419 0.961 . S
H1434 C1419 0.961 1_554 S
H1435 C1419 0.961 . S
H1436 C1420 0.931 . S
H1437 C1425 0.930 . S
H1438 C1426 0.969 . S
H1439 C1426 0.961 1_556 S
H1440 C1426 0.961 . S
H1441 C1427 0.958 . S
H1442 C1427 0.961 . S
H1443 C1427 0.960 . S
C1444 C1445 1.391 . S
C1444 C1446 1.394 . S
C1444 H1460 0.931 . S
C1445 C1444 1.391 . S
C1445 C1449 1.376 1_565 S
C1446 C1444 1.394 . S
C1446 C1447 1.369 . S
C1446 C1450 1.531 . S
C1447 C1446 1.369 . S
C1447 C1448 1.410 1_565 S
C1447 C1455 1.494 1_566 S
C1448 C1447 1.410 1_545 S
C1448 C1449 1.392 . S
C1448 C1451 1.511 . S
C1449 C1445 1.376 1_545 S
C1449 C1448 1.392 . S
C1449 H1461 0.929 . S
C1450 C1446 1.531 . S
C1450 H1462 0.960 1_556 S
C1450 H1463 0.962 . S
C1450 H1464 0.960 . S
C1451 C1448 1.511 . S
C1451 H1465 0.961 . S
C1451 H1466 0.961 . S
C1451 H1467 0.961 . S
C1452 C1453 1.370 . S
C1452 C1454 1.363 . S
C1452 H1468 0.931 . S
C1453 C1452 1.370 . S
C1453 C1457 1.408 . S
C1454 C1452 1.363 . S
C1454 C1455 1.406 . S
C1454 C1458 1.524 . S
C1455 C1447 1.494 1_544 S
C1455 C1454 1.406 . S
C1455 C1456 1.377 1_545 S
C1456 C1455 1.377 1_565 S
C1456 C1457 1.404 1_565 S
C1456 C1459 1.539 . S
C1457 C1453 1.408 . S
C1457 C1456 1.404 1_545 S
C1457 H1469 0.930 1_545 S
C1458 C1454 1.524 . S
C1458 H1470 0.955 . S
C1458 H1471 0.961 1_554 S
C1458 H1472 0.961 . S
C1459 C1456 1.539 . S
C1459 H1473 0.958 . S
C1459 H1474 0.961 . S
C1459 H1475 0.960 . S
H1460 C1444 0.931 . S
H1461 C1449 0.929 . S
H1462 C1450 0.960 1_554 S
H1463 C1450 0.962 . S
H1464 C1450 0.960 . S
H1465 C1451 0.961 . S
H1466 C1451 0.961 . S
H1467 C1451 0.961 . S
H1468 C1452 0.931 . S
H1469 C1457 0.930 1_565 S
H1470 C1458 0.955 . S
H1471 C1458 0.961 1_556 S
H1472 C1458 0.961 . S
H1473 C1459 0.958 . S
H1474 C1459 0.961 . S
H1475 C1459 0.960 . S
C1476 C1477 1.391 . S
C1476 C1478 1.394 . S
C1476 H1492 0.931 . S
C1477 C1476 1.391 . S
C1477 C1481 1.376 . S
C1478 C1476 1.394 . S
C1478 C1479 1.369 . S
C1478 C1482 1.531 . S
C1479 C1478 1.369 . S
C1479 C1480 1.410 . S
C1479 C1487 1.503 . S
C1480 C1479 1.410 . S
C1480 C1481 1.392 . S
C1480 C1483 1.511 . S
C1481 C1477 1.376 . S
C1481 C1480 1.392 . S
C1481 H1493 0.929 . S
C1482 C1478 1.531 . S
C1482 H1494 0.960 . S
C1482 H1495 0.962 . S
C1482 H1496 0.960 . S
C1483 C1480 1.511 . S
C1483 H1497 0.961 . S
C1483 H1498 0.961 . S
C1483 H1499 0.961 . S
C1484 C1485 1.370 . S
C1484 C1486 1.363 . S
C1484 H1500 0.931 . S
C1485 C1484 1.370 . S
C1485 C1489 1.408 . S
C1486 C1484 1.363 . S
C1486 C1487 1.370 . S
C1486 C1490 1.524 . S
C1487 C1479 1.503 . S
C1487 C1486 1.370 . S
C1487 C1488 1.403 . S
C1488 C1487 1.403 . S
C1488 C1489 1.404 . S
C1488 C1491 1.539 . S
C1489 C1485 1.408 . S
C1489 C1488 1.404 . S
C1489 H1501 0.930 . S
C1490 C1486 1.524 . S
C1490 H1502 0.956 . S
C1490 H1503 0.961 . S
C1490 H1504 0.961 . S
C1491 C1488 1.539 . S
C1491 H1505 0.958 . S
C1491 H1506 0.961 . S
C1491 H1507 0.960 . S
H1492 C1476 0.931 . S
H1493 C1481 0.929 . S
H1494 C1482 0.960 . S
H1495 C1482 0.962 . S
H1496 C1482 0.960 . S
H1497 C1483 0.961 . S
H1498 C1483 0.961 . S
H1499 C1483 0.961 . S
H1500 C1484 0.931 . S
H1501 C1489 0.930 . S
H1502 C1490 0.956 . S
H1503 C1490 0.961 . S
H1504 C1490 0.961 . S
H1505 C1491 0.958 . S
H1506 C1491 0.961 . S
H1507 C1491 0.960 . S
C1508 C1509 1.391 . S
C1508 C1510 1.394 . S
C1508 H1524 0.931 . S
C1509 C1508 1.391 . S
C1509 C1513 1.376 . S
C1510 C1508 1.394 . S
C1510 C1511 1.369 . S
C1510 C1514 1.531 . S
C1511 C1510 1.369 . S
C1511 C1512 1.410 . S
C1511 C1519 1.503 . S
C1512 C1511 1.410 . S
C1512 C1513 1.392 . S
C1512 C1515 1.511 . S
C1513 C1509 1.376 . S
C1513 C1512 1.392 . S
C1513 H1525 0.929 . S
C1514 C1510 1.531 . S
C1514 H1526 0.960 . S
C1514 H1527 0.962 . S
C1514 H1528 0.960 . S
C1515 C1512 1.511 . S
C1515 H1529 0.961 . S
C1515 H1530 0.961 . S
C1515 H1531 0.961 . S
C1516 C1517 1.370 . S
C1516 C1518 1.363 . S
C1516 H1532 0.931 . S
C1517 C1516 1.370 . S
C1517 C1521 1.408 . S
C1518 C1516 1.363 . S
C1518 C1519 1.370 . S
C1518 C1522 1.524 . S
C1519 C1511 1.503 . S
C1519 C1518 1.370 . S
C1519 C1520 1.403 . S
C1520 C1519 1.403 . S
C1520 C1521 1.404 . S
C1520 C1523 1.539 . S
C1521 C1517 1.408 . S
C1521 C1520 1.404 . S
C1521 H1533 0.930 . S
C1522 C1518 1.524 . S
C1522 H1534 0.956 . S
C1522 H1535 0.961 . S
C1522 H1536 0.961 . S
C1523 C1520 1.539 . S
C1523 H1537 0.958 . S
C1523 H1538 0.961 . S
C1523 H1539 0.960 . S
H1524 C1508 0.931 . S
H1525 C1513 0.929 . S
H1526 C1514 0.960 . S
H1527 C1514 0.962 . S
H1528 C1514 0.960 . S
H1529 C1515 0.961 . S
H1530 C1515 0.961 . S
H1531 C1515 0.961 . S
H1532 C1516 0.931 . S
H1533 C1521 0.930 . S
H1534 C1522 0.956 . S
H1535 C1522 0.961 . S
H1536 C1522 0.961 . S
H1537 C1523 0.958 . S
H1538 C1523 0.961 . S
H1539 C1523 0.960 . S
C1540 C1541 1.391 . S
C1540 C1542 1.394 . S
C1540 H1556 0.931 . S
C1541 C1540 1.391 . S
C1541 C1545 1.376 . S
C1542 C1540 1.394 . S
C1542 C1543 1.369 . S
C1542 C1546 1.531 . S
C1543 C1542 1.369 . S
C1543 C1544 1.410 . S
C1543 C1551 1.503 . S
C1544 C1543 1.410 . S
C1544 C1545 1.392 . S
C1544 C1547 1.511 . S
C1545 C1541 1.376 . S
C1545 C1544 1.392 . S
C1545 H1557 0.929 . S
C1546 C1542 1.531 . S
C1546 H1558 0.960 . S
C1546 H1559 0.962 . S
C1546 H1560 0.960 . S
C1547 C1544 1.511 . S
C1547 H1561 0.961 . S
C1547 H1562 0.961 . S
C1547 H1563 0.961 . S
C1548 C1549 1.370 . S
C1548 C1550 1.363 . S
C1548 H1564 0.931 . S
C1549 C1548 1.370 . S
C1549 C1553 1.408 . S
C1550 C1548 1.363 . S
C1550 C1551 1.370 . S
C1550 C1554 1.524 . S
C1551 C1543 1.503 . S
C1551 C1550 1.370 . S
C1551 C1552 1.403 . S
C1552 C1551 1.403 . S
C1552 C1553 1.404 . S
C1552 C1555 1.539 . S
C1553 C1549 1.408 . S
C1553 C1552 1.404 . S
C1553 H1565 0.930 . S
C1554 C1550 1.524 . S
C1554 H1566 0.956 . S
C1554 H1567 0.961 . S
C1554 H1568 0.961 . S
C1555 C1552 1.539 . S
C1555 H1569 0.958 . S
C1555 H1570 0.961 . S
C1555 H1571 0.960 . S
H1556 C1540 0.931 . S
H1557 C1545 0.929 . S
H1558 C1546 0.960 . S
H1559 C1546 0.962 . S
H1560 C1546 0.960 . S
H1561 C1547 0.961 . S
H1562 C1547 0.961 . S
H1563 C1547 0.961 . S
H1564 C1548 0.931 . S
H1565 C1553 0.930 . S
H1566 C1554 0.956 . S
H1567 C1554 0.961 . S
H1568 C1554 0.961 . S
H1569 C1555 0.958 . S
H1570 C1555 0.961 . S
H1571 C1555 0.960 . S
C1572 C1573 1.391 . S
C1572 C1574 1.394 . S
C1572 H1588 0.931 . S
C1573 C1572 1.391 . S
C1573 C1577 1.376 . S
C1574 C1572 1.394 . S
C1574 C1575 1.369 . S
C1574 C1578 1.531 . S
C1575 C1574 1.369 . S
C1575 C1576 1.410 . S
C1575 C1583 1.503 . S
C1576 C1575 1.410 . S
C1576 C1577 1.392 . S
C1576 C1579 1.511 . S
C1577 C1573 1.376 . S
C1577 C1576 1.392 . S
C1577 H1589 0.929 . S
C1578 C1574 1.531 . S
C1578 H1590 0.960 . S
C1578 H1591 0.962 . S
C1578 H1592 0.960 . S
C1579 C1576 1.511 . S
C1579 H1593 0.961 . S
C1579 H1594 0.961 . S
C1579 H1595 0.961 . S
C1580 C1581 1.370 . S
C1580 C1582 1.363 . S
C1580 H1596 0.931 . S
C1581 C1580 1.370 . S
C1581 C1585 1.408 . S
C1582 C1580 1.363 . S
C1582 C1583 1.370 . S
C1582 C1586 1.524 . S
C1583 C1575 1.503 . S
C1583 C1582 1.370 . S
C1583 C1584 1.403 . S
C1584 C1583 1.403 . S
C1584 C1585 1.404 . S
C1584 C1587 1.539 . S
C1585 C1581 1.408 . S
C1585 C1584 1.404 . S
C1585 H1597 0.930 . S
C1586 C1582 1.524 . S
C1586 H1598 0.956 . S
C1586 H1599 0.961 . S
C1586 H1600 0.961 . S
C1587 C1584 1.539 . S
C1587 H1601 0.958 . S
C1587 H1602 0.961 . S
C1587 H1603 0.960 . S
H1588 C1572 0.931 . S
H1589 C1577 0.929 . S
H1590 C1578 0.960 . S
H1591 C1578 0.962 . S
H1592 C1578 0.960 . S
H1593 C1579 0.961 . S
H1594 C1579 0.961 . S
H1595 C1579 0.961 . S
H1596 C1580 0.931 . S
H1597 C1585 0.930 . S
H1598 C1586 0.956 . S
H1599 C1586 0.961 . S
H1600 C1586 0.961 . S
H1601 C1587 0.958 . S
H1602 C1587 0.961 . S
H1603 C1587 0.960 . S
C1604 C1605 1.391 . S
C1604 C1606 1.394 . S
C1604 H1620 0.931 . S
C1605 C1604 1.391 . S
C1605 C1609 1.376 . S
C1606 C1604 1.394 . S
C1606 C1607 1.369 . S
C1606 C1610 1.531 . S
C1607 C1606 1.369 . S
C1607 C1608 1.410 . S
C1607 C1615 1.503 . S
C1608 C1607 1.410 . S
C1608 C1609 1.392 . S
C1608 C1611 1.511 . S
C1609 C1605 1.376 . S
C1609 C1608 1.392 . S
C1609 H1621 0.929 . S
C1610 C1606 1.531 . S
C1610 H1622 0.960 . S
C1610 H1623 0.962 . S
C1610 H1624 0.960 . S
C1611 C1608 1.511 . S
C1611 H1625 0.961 . S
C1611 H1626 0.961 . S
C1611 H1627 0.961 . S
C1612 C1613 1.370 . S
C1612 C1614 1.363 . S
C1612 H1628 0.931 . S
C1613 C1612 1.370 . S
C1613 C1617 1.408 . S
C1614 C1612 1.363 . S
C1614 C1615 1.370 . S
C1614 C1618 1.524 . S
C1615 C1607 1.503 . S
C1615 C1614 1.370 . S
C1615 C1616 1.403 . S
C1616 C1615 1.403 . S
C1616 C1617 1.404 . S
C1616 C1619 1.539 . S
C1617 C1613 1.408 . S
C1617 C1616 1.404 . S
C1617 H1629 0.930 . S
C1618 C1614 1.524 . S
C1618 H1630 0.956 . S
C1618 H1631 0.961 . S
C1618 H1632 0.961 . S
C1619 C1616 1.539 . S
C1619 H1633 0.958 . S
C1619 H1634 0.961 . S
C1619 H1635 0.960 . S
H1620 C1604 0.931 . S
H1621 C1609 0.929 . S
H1622 C1610 0.960 . S
H1623 C1610 0.962 . S
H1624 C1610 0.960 . S
H1625 C1611 0.961 . S
H1626 C1611 0.961 . S
H1627 C1611 0.961 . S
H1628 C1612 0.931 . S
H1629 C1617 0.930 . S
H1630 C1618 0.956 . S
H1631 C1618 0.961 . S
H1632 C1618 0.961 . S
H1633 C1619 0.958 . S
H1634 C1619 0.961 . S
H1635 C1619 0.960 . S
C1636 C1637 1.391 . S
C1636 C1638 1.394 . S
C1636 H1652 0.931 . S
C1637 C1636 1.391 . S
C1637 C1641 1.376 . S
C1638 C1636 1.394 . S
C1638 C1639 1.369 . S
C1638 C1642 1.531 . S
C1639 C1638 1.369 . S
C1639 C1640 1.410 . S
C1639 C1647 1.503 . S
C1640 C1639 1.410 . S
C1640 C1641 1.392 . S
C1640 C1643 1.511 . S
C1641 C1637 1.376 . S
C1641 C1640 1.392 . S
C1641 H1653 0.929 . S
C1642 C1638 1.531 . S
C1642 H1654 0.960 . S
C1642 H1655 0.962 . S
C1642 H1656 0.960 . S
C1643 C1640 1.511 . S
C1643 H1657 0.961 . S
C1643 H1658 0.961 . S
C1643 H1659 0.961 . S
C1644 C1645 1.370 . S
C1644 C1646 1.363 . S
C1644 H1660 0.931 . S
C1645 C1644 1.370 . S
C1645 C1649 1.408 . S
C1646 C1644 1.363 . S
C1646 C1647 1.370 . S
C1646 C1650 1.524 . S
C1647 C1639 1.503 . S
C1647 C1646 1.370 . S
C1647 C1648 1.403 . S
C1648 C1647 1.403 . S
C1648 C1649 1.404 . S
C1648 C1651 1.539 . S
C1649 C1645 1.408 . S
C1649 C1648 1.404 . S
C1649 H1661 0.930 . S
C1650 C1646 1.524 . S
C1650 H1662 0.956 . S
C1650 H1663 0.961 . S
C1650 H1664 0.961 . S
C1651 C1648 1.539 . S
C1651 H1665 0.958 . S
C1651 H1666 0.961 . S
C1651 H1667 0.960 . S
H1652 C1636 0.931 . S
H1653 C1641 0.929 . S
H1654 C1642 0.960 . S
H1655 C1642 0.962 . S
H1656 C1642 0.960 . S
H1657 C1643 0.961 . S
H1658 C1643 0.961 . S
H1659 C1643 0.961 . S
H1660 C1644 0.931 . S
H1661 C1649 0.930 . S
H1662 C1650 0.956 . S
H1663 C1650 0.961 . S
H1664 C1650 0.961 . S
H1665 C1651 0.958 . S
H1666 C1651 0.961 . S
H1667 C1651 0.960 . S
C1668 C1669 1.391 . S
C1668 C1670 1.394 . S
C1668 H1684 0.931 . S
C1669 C1668 1.391 . S
C1669 C1673 1.376 . S
C1670 C1668 1.394 . S
C1670 C1671 1.369 . S
C1670 C1674 1.531 . S
C1671 C1670 1.369 . S
C1671 C1672 1.410 . S
C1671 C1679 1.503 . S
C1672 C1671 1.410 . S
C1672 C1673 1.392 . S
C1672 C1675 1.511 . S
C1673 C1669 1.376 . S
C1673 C1672 1.392 . S
C1673 H1685 0.929 . S
C1674 C1670 1.531 . S
C1674 H1686 0.960 . S
C1674 H1687 0.962 . S
C1674 H1688 0.960 . S
C1675 C1672 1.511 . S
C1675 H1689 0.961 . S
C1675 H1690 0.961 . S
C1675 H1691 0.961 . S
C1676 C1677 1.370 . S
C1676 C1678 1.363 . S
C1676 H1692 0.931 . S
C1677 C1676 1.370 . S
C1677 C1681 1.408 . S
C1678 C1676 1.363 . S
C1678 C1679 1.370 . S
C1678 C1682 1.524 . S
C1679 C1671 1.503 . S
C1679 C1678 1.370 . S
C1679 C1680 1.403 . S
C1680 C1679 1.403 . S
C1680 C1681 1.404 . S
C1680 C1683 1.539 . S
C1681 C1677 1.408 . S
C1681 C1680 1.404 . S
C1681 H1693 0.930 . S
C1682 C1678 1.524 . S
C1682 H1694 0.956 . S
C1682 H1695 0.961 . S
C1682 H1696 0.961 . S
C1683 C1680 1.539 . S
C1683 H1697 0.958 . S
C1683 H1698 0.961 . S
C1683 H1699 0.960 . S
H1684 C1668 0.931 . S
H1685 C1673 0.929 . S
H1686 C1674 0.960 . S
H1687 C1674 0.962 . S
H1688 C1674 0.960 . S
H1689 C1675 0.961 . S
H1690 C1675 0.961 . S
H1691 C1675 0.961 . S
H1692 C1676 0.931 . S
H1693 C1681 0.930 . S
H1694 C1682 0.956 . S
H1695 C1682 0.961 . S
H1696 C1682 0.961 . S
H1697 C1683 0.958 . S
H1698 C1683 0.961 . S
H1699 C1683 0.960 . S
C1700 C1701 1.391 . S
C1700 C1702 1.394 . S
C1700 H1716 0.931 . S
C1701 C1700 1.391 . S
C1701 C1705 1.376 . S
C1702 C1700 1.394 . S
C1702 C1703 1.369 . S
C1702 C1706 1.531 . S
C1703 C1702 1.369 . S
C1703 C1704 1.410 . S
C1703 C1711 1.503 . S
C1704 C1703 1.410 . S
C1704 C1705 1.392 . S
C1704 C1707 1.511 . S
C1705 C1701 1.376 . S
C1705 C1704 1.392 . S
C1705 H1717 0.929 . S
C1706 C1702 1.531 . S
C1706 H1718 0.960 . S
C1706 H1719 0.962 . S
C1706 H1720 0.960 . S
C1707 C1704 1.511 . S
C1707 H1721 0.961 . S
C1707 H1722 0.961 . S
C1707 H1723 0.961 . S
C1708 C1709 1.370 . S
C1708 C1710 1.363 . S
C1708 H1724 0.931 . S
C1709 C1708 1.370 . S
C1709 C1713 1.408 . S
C1710 C1708 1.363 . S
C1710 C1711 1.370 . S
C1710 C1714 1.524 . S
C1711 C1703 1.503 . S
C1711 C1710 1.370 . S
C1711 C1712 1.403 . S
C1712 C1711 1.403 . S
C1712 C1713 1.404 . S
C1712 C1715 1.539 . S
C1713 C1709 1.408 . S
C1713 C1712 1.404 . S
C1713 H1725 0.930 . S
C1714 C1710 1.524 . S
C1714 H1726 0.956 . S
C1714 H1727 0.961 . S
C1714 H1728 0.961 . S
C1715 C1712 1.539 . S
C1715 H1729 0.958 . S
C1715 H1730 0.961 . S
C1715 H1731 0.960 . S
H1716 C1700 0.931 . S
H1717 C1705 0.929 . S
H1718 C1706 0.960 . S
H1719 C1706 0.962 . S
H1720 C1706 0.960 . S
H1721 C1707 0.961 . S
H1722 C1707 0.961 . S
H1723 C1707 0.961 . S
H1724 C1708 0.931 . S
H1725 C1713 0.930 . S
H1726 C1714 0.956 . S
H1727 C1714 0.961 . S
H1728 C1714 0.961 . S
H1729 C1715 0.958 . S
H1730 C1715 0.961 . S
H1731 C1715 0.960 . S
C1732 C1733 1.391 . S
C1732 C1734 1.394 . S
C1732 H1748 0.931 . S
C1733 C1732 1.391 . S
C1733 C1737 1.376 . S
C1734 C1732 1.394 . S
C1734 C1735 1.369 . S
C1734 C1738 1.531 . S
C1735 C1734 1.369 . S
C1735 C1736 1.410 . S
C1735 C1743 1.503 . S
C1736 C1735 1.410 . S
C1736 C1737 1.392 . S
C1736 C1739 1.511 . S
C1737 C1733 1.376 . S
C1737 C1736 1.392 . S
C1737 H1749 0.929 . S
C1738 C1734 1.531 . S
C1738 H1750 0.960 . S
C1738 H1751 0.962 . S
C1738 H1752 0.960 . S
C1739 C1736 1.511 . S
C1739 H1753 0.961 . S
C1739 H1754 0.961 . S
C1739 H1755 0.961 . S
C1740 C1741 1.370 . S
C1740 C1742 1.363 . S
C1740 H1756 0.931 . S
C1741 C1740 1.370 . S
C1741 C1745 1.408 . S
C1742 C1740 1.363 . S
C1742 C1743 1.370 . S
C1742 C1746 1.524 . S
C1743 C1735 1.503 . S
C1743 C1742 1.370 . S
C1743 C1744 1.403 . S
C1744 C1743 1.403 . S
C1744 C1745 1.404 . S
C1744 C1747 1.539 . S
C1745 C1741 1.408 . S
C1745 C1744 1.404 . S
C1745 H1757 0.930 . S
C1746 C1742 1.524 . S
C1746 H1758 0.956 . S
C1746 H1759 0.961 . S
C1746 H1760 0.961 . S
C1747 C1744 1.539 . S
C1747 H1761 0.958 . S
C1747 H1762 0.961 . S
C1747 H1763 0.960 . S
H1748 C1732 0.931 . S
H1749 C1737 0.929 . S
H1750 C1738 0.960 . S
H1751 C1738 0.962 . S
H1752 C1738 0.960 . S
H1753 C1739 0.961 . S
H1754 C1739 0.961 . S
H1755 C1739 0.961 . S
H1756 C1740 0.931 . S
H1757 C1745 0.930 . S
H1758 C1746 0.956 . S
H1759 C1746 0.961 . S
H1760 C1746 0.961 . S
H1761 C1747 0.958 . S
H1762 C1747 0.961 . S
H1763 C1747 0.960 . S
C1764 C1765 1.391 . S
C1764 C1766 1.394 . S
C1764 H1780 0.931 . S
C1765 C1764 1.391 . S
C1765 C1769 1.376 . S
C1766 C1764 1.394 . S
C1766 C1767 1.369 . S
C1766 C1770 1.531 . S
C1767 C1766 1.369 . S
C1767 C1768 1.410 . S
C1767 C1775 1.503 . S
C1768 C1767 1.410 . S
C1768 C1769 1.392 . S
C1768 C1771 1.511 . S
C1769 C1765 1.376 . S
C1769 C1768 1.392 . S
C1769 H1781 0.929 . S
C1770 C1766 1.531 . S
C1770 H1782 0.960 . S
C1770 H1783 0.962 . S
C1770 H1784 0.960 . S
C1771 C1768 1.511 . S
C1771 H1785 0.961 . S
C1771 H1786 0.961 . S
C1771 H1787 0.961 . S
C1772 C1773 1.370 . S
C1772 C1774 1.363 . S
C1772 H1788 0.931 . S
C1773 C1772 1.370 . S
C1773 C1777 1.408 . S
C1774 C1772 1.363 . S
C1774 C1775 1.370 . S
C1774 C1778 1.524 . S
C1775 C1767 1.503 . S
C1775 C1774 1.370 . S
C1775 C1776 1.403 . S
C1776 C1775 1.403 . S
C1776 C1777 1.404 . S
C1776 C1779 1.539 . S
C1777 C1773 1.408 . S
C1777 C1776 1.404 . S
C1777 H1789 0.930 . S
C1778 C1774 1.524 . S
C1778 H1790 0.956 . S
C1778 H1791 0.961 . S
C1778 H1792 0.961 . S
C1779 C1776 1.539 . S
C1779 H1793 0.958 . S
C1779 H1794 0.961 . S
C1779 H1795 0.960 . S
H1780 C1764 0.931 . S
H1781 C1769 0.929 . S
H1782 C1770 0.960 . S
H1783 C1770 0.962 . S
H1784 C1770 0.960 . S
H1785 C1771 0.961 . S
H1786 C1771 0.961 . S
H1787 C1771 0.961 . S
H1788 C1772 0.931 . S
H1789 C1777 0.930 . S
H1790 C1778 0.956 . S
H1791 C1778 0.961 . S
H1792 C1778 0.961 . S
H1793 C1779 0.958 . S
H1794 C1779 0.961 . S
H1795 C1779 0.960 . S
C1796 C1797 1.391 . S
C1796 C1798 1.394 . S
C1796 H1812 0.931 . S
C1797 C1796 1.391 . S
C1797 C1801 1.376 . S
C1798 C1796 1.394 . S
C1798 C1799 1.369 . S
C1798 C1802 1.531 . S
C1799 C1798 1.369 . S
C1799 C1800 1.410 . S
C1799 C1807 1.503 . S
C1800 C1799 1.410 . S
C1800 C1801 1.392 . S
C1800 C1803 1.511 . S
C1801 C1797 1.376 . S
C1801 C1800 1.392 . S
C1801 H1813 0.929 . S
C1802 C1798 1.531 . S
C1802 H1814 0.960 . S
C1802 H1815 0.962 . S
C1802 H1816 0.960 . S
C1803 C1800 1.511 . S
C1803 H1817 0.961 . S
C1803 H1818 0.961 . S
C1803 H1819 0.961 . S
C1804 C1805 1.370 . S
C1804 C1806 1.363 . S
C1804 H1820 0.931 . S
C1805 C1804 1.370 . S
C1805 C1809 1.408 . S
C1806 C1804 1.363 . S
C1806 C1807 1.370 . S
C1806 C1810 1.524 . S
C1807 C1799 1.503 . S
C1807 C1806 1.370 . S
C1807 C1808 1.403 . S
C1808 C1807 1.403 . S
C1808 C1809 1.404 . S
C1808 C1811 1.539 . S
C1809 C1805 1.408 . S
C1809 C1808 1.404 . S
C1809 H1821 0.930 . S
C1810 C1806 1.524 . S
C1810 H1822 0.956 . S
C1810 H1823 0.961 . S
C1810 H1824 0.961 . S
C1811 C1808 1.539 . S
C1811 H1825 0.958 . S
C1811 H1826 0.961 . S
C1811 H1827 0.960 . S
H1812 C1796 0.931 . S
H1813 C1801 0.929 . S
H1814 C1802 0.960 . S
H1815 C1802 0.962 . S
H1816 C1802 0.960 . S
H1817 C1803 0.961 . S
H1818 C1803 0.961 . S
H1819 C1803 0.961 . S
H1820 C1804 0.931 . S
H1821 C1809 0.930 . S
H1822 C1810 0.956 . S
H1823 C1810 0.961 . S
H1824 C1810 0.961 . S
H1825 C1811 0.958 . S
H1826 C1811 0.961 . S
H1827 C1811 0.960 . S
C1828 C1829 1.391 . S
C1828 C1830 1.394 . S
C1828 H1844 0.931 . S
C1829 C1828 1.391 . S
C1829 C1833 1.376 . S
C1830 C1828 1.394 . S
C1830 C1831 1.369 . S
C1830 C1834 1.531 . S
C1831 C1830 1.369 . S
C1831 C1832 1.410 . S
C1831 C1839 1.503 . S
C1832 C1831 1.410 . S
C1832 C1833 1.392 . S
C1832 C1835 1.511 . S
C1833 C1829 1.376 . S
C1833 C1832 1.392 . S
C1833 H1845 0.929 . S
C1834 C1830 1.531 . S
C1834 H1846 0.960 . S
C1834 H1847 0.962 . S
C1834 H1848 0.960 . S
C1835 C1832 1.511 . S
C1835 H1849 0.961 . S
C1835 H1850 0.961 . S
C1835 H1851 0.961 . S
C1836 C1837 1.370 . S
C1836 C1838 1.363 . S
C1836 H1852 0.931 . S
C1837 C1836 1.370 . S
C1837 C1841 1.408 . S
C1838 C1836 1.363 . S
C1838 C1839 1.370 . S
C1838 C1842 1.524 . S
C1839 C1831 1.503 . S
C1839 C1838 1.370 . S
C1839 C1840 1.403 . S
C1840 C1839 1.403 . S
C1840 C1841 1.404 . S
C1840 C1843 1.539 . S
C1841 C1837 1.408 . S
C1841 C1840 1.404 . S
C1841 H1853 0.930 . S
C1842 C1838 1.524 . S
C1842 H1854 0.956 . S
C1842 H1855 0.961 . S
C1842 H1856 0.961 . S
C1843 C1840 1.539 . S
C1843 H1857 0.958 . S
C1843 H1858 0.961 . S
C1843 H1859 0.960 . S
H1844 C1828 0.931 . S
H1845 C1833 0.929 . S
H1846 C1834 0.960 . S
H1847 C1834 0.962 . S
H1848 C1834 0.960 . S
H1849 C1835 0.961 . S
H1850 C1835 0.961 . S
H1851 C1835 0.961 . S
H1852 C1836 0.931 . S
H1853 C1841 0.930 . S
H1854 C1842 0.956 . S
H1855 C1842 0.961 . S
H1856 C1842 0.961 . S
H1857 C1843 0.958 . S
H1858 C1843 0.961 . S
H1859 C1843 0.960 . S
C1860 C1861 1.391 . S
C1860 C1862 1.394 . S
C1860 H1876 0.931 . S
C1861 C1860 1.391 . S
C1861 C1865 1.376 . S
C1862 C1860 1.394 . S
C1862 C1863 1.369 . S
C1862 C1866 1.531 . S
C1863 C1862 1.369 . S
C1863 C1864 1.410 . S
C1863 C1871 1.503 1_455 S
C1864 C1863 1.410 . S
C1864 C1865 1.392 . S
C1864 C1867 1.511 1_455 S
C1865 C1861 1.376 . S
C1865 C1864 1.392 . S
C1865 H1877 0.929 . S
C1866 C1862 1.531 . S
C1866 H1878 0.960 . S
C1866 H1879 0.962 . S
C1866 H1880 0.960 . S
C1867 C1864 1.511 1_655 S
C1867 H1881 0.961 1_655 S
C1867 H1882 0.961 . S
C1867 H1883 0.961 . S
C1868 C1869 1.370 . S
C1868 C1870 1.363 . S
C1868 H1884 0.931 . S
C1869 C1868 1.370 . S
C1869 C1873 1.408 . S
C1870 C1868 1.363 . S
C1870 C1871 1.370 . S
C1870 C1874 1.524 . S
C1871 C1863 1.503 1_655 S
C1871 C1870 1.370 . S
C1871 C1872 1.403 . S
C1872 C1871 1.403 . S
C1872 C1873 1.404 . S
C1872 C1875 1.539 . S
C1873 C1869 1.408 . S
C1873 C1872 1.404 . S
C1873 H1885 0.930 . S
C1874 C1870 1.524 . S
C1874 H1886 0.956 1_655 S
C1874 H1887 0.961 . S
C1874 H1888 0.961 . S
C1875 C1872 1.539 . S
C1875 H1889 0.958 . S
C1875 H1890 0.961 . S
C1875 H1891 0.960 . S
H1876 C1860 0.931 . S
H1877 C1865 0.929 . S
H1878 C1866 0.960 . S
H1879 C1866 0.962 . S
H1880 C1866 0.960 . S
H1881 C1867 0.961 1_455 S
H1882 C1867 0.961 . S
H1883 C1867 0.961 . S
H1884 C1868 0.931 . S
H1885 C1873 0.930 . S
H1886 C1874 0.956 1_455 S
H1887 C1874 0.961 . S
H1888 C1874 0.961 . S
H1889 C1875 0.958 . S
H1890 C1875 0.961 . S
H1891 C1875 0.960 . S
C1892 C1893 1.391 . S
C1892 C1894 1.394 . S
C1892 H1908 0.931 . S
C1893 C1892 1.391 . S
C1893 C1897 1.376 . S
C1894 C1892 1.394 . S
C1894 C1895 1.369 . S
C1894 C1898 1.531 . S
C1895 C1894 1.369 . S
C1895 C1896 1.410 . S
C1895 C1903 1.503 . S
C1896 C1895 1.410 . S
C1896 C1897 1.392 . S
C1896 C1899 1.511 . S
C1897 C1893 1.376 . S
C1897 C1896 1.392 . S
C1897 H1909 0.929 . S
C1898 C1894 1.531 . S
C1898 H1910 0.960 . S
C1898 H1911 0.962 . S
C1898 H1912 0.960 . S
C1899 C1896 1.511 . S
C1899 H1913 0.961 . S
C1899 H1914 0.961 . S
C1899 H1915 0.961 . S
C1900 C1901 1.370 . S
C1900 C1902 1.363 . S
C1900 H1916 0.931 . S
C1901 C1900 1.370 . S
C1901 C1905 1.408 . S
C1902 C1900 1.363 . S
C1902 C1903 1.370 . S
C1902 C1906 1.524 . S
C1903 C1895 1.503 . S
C1903 C1902 1.370 . S
C1903 C1904 1.403 . S
C1904 C1903 1.403 . S
C1904 C1905 1.404 . S
C1904 C1907 1.539 . S
C1905 C1901 1.408 . S
C1905 C1904 1.404 . S
C1905 H1917 0.930 . S
C1906 C1902 1.524 . S
C1906 H1918 0.956 . S
C1906 H1919 0.961 . S
C1906 H1920 0.961 . S
C1907 C1904 1.539 . S
C1907 H1921 0.958 . S
C1907 H1922 0.961 . S
C1907 H1923 0.960 . S
H1908 C1892 0.931 . S
H1909 C1897 0.929 . S
H1910 C1898 0.960 . S
H1911 C1898 0.962 . S
H1912 C1898 0.960 . S
H1913 C1899 0.961 . S
H1914 C1899 0.961 . S
H1915 C1899 0.961 . S
H1916 C1900 0.931 . S
H1917 C1905 0.930 . S
H1918 C1906 0.956 . S
H1919 C1906 0.961 . S
H1920 C1906 0.961 . S
H1921 C1907 0.958 . S
H1922 C1907 0.961 . S
H1923 C1907 0.960 . S
C1924 C1925 1.391 . S
C1924 C1926 1.394 . S
C1924 H1940 0.931 . S
C1925 C1924 1.391 . S
C1925 C1929 1.376 . S
C1926 C1924 1.394 . S
C1926 C1927 1.369 . S
C1926 C1930 1.531 . S
C1927 C1926 1.369 . S
C1927 C1928 1.410 . S
C1927 C1935 1.503 1_565 S
C1928 C1927 1.410 . S
C1928 C1929 1.392 . S
C1928 C1931 1.511 . S
C1929 C1925 1.376 . S
C1929 C1928 1.392 . S
C1929 H1941 0.929 . S
C1930 C1926 1.531 . S
C1930 H1942 0.960 1_565 S
C1930 H1943 0.962 . S
C1930 H1944 0.960 . S
C1931 C1928 1.511 . S
C1931 H1945 0.961 . S
C1931 H1946 0.961 . S
C1931 H1947 0.961 . S
C1932 C1933 1.370 . S
C1932 C1934 1.363 . S
C1932 H1948 0.931 . S
C1933 C1932 1.370 . S
C1933 C1937 1.408 . S
C1934 C1932 1.363 . S
C1934 C1935 1.370 . S
C1934 C1938 1.524 1_545 S
C1935 C1927 1.503 1_545 S
C1935 C1934 1.370 . S
C1935 C1936 1.403 . S
C1936 C1935 1.403 . S
C1936 C1937 1.404 . S
C1936 C1939 1.539 . S
C1937 C1933 1.408 . S
C1937 C1936 1.404 . S
C1937 H1949 0.930 . S
C1938 C1934 1.524 1_565 S
C1938 H1950 0.956 . S
C1938 H1951 0.961 . S
C1938 H1952 0.961 1_565 S
C1939 C1936 1.539 . S
C1939 H1953 0.958 . S
C1939 H1954 0.961 . S
C1939 H1955 0.960 . S
H1940 C1924 0.931 . S
H1941 C1929 0.929 . S
H1942 C1930 0.960 1_545 S
H1943 C1930 0.962 . S
H1944 C1930 0.960 . S
H1945 C1931 0.961 . S
H1946 C1931 0.961 . S
H1947 C1931 0.961 . S
H1948 C1932 0.931 . S
H1949 C1937 0.930 . S
H1950 C1938 0.956 . S
H1951 C1938 0.961 . S
H1952 C1938 0.961 1_545 S
H1953 C1939 0.958 . S
H1954 C1939 0.961 . S
H1955 C1939 0.960 . S
C1956 C1957 1.391 . S
C1956 C1958 1.394 . S
C1956 H1972 0.931 . S
C1957 C1956 1.391 . S
C1957 C1961 1.376 . S
C1958 C1956 1.394 . S
C1958 C1959 1.369 . S
C1958 C1962 1.531 . S
C1959 C1958 1.369 . S
C1959 C1960 1.410 . S
C1959 C1967 1.503 1_565 S
C1960 C1959 1.410 . S
C1960 C1961 1.392 . S
C1960 C1963 1.511 . S
C1961 C1957 1.376 . S
C1961 C1960 1.392 . S
C1961 H1973 0.929 . S
C1962 C1958 1.531 . S
C1962 H1974 0.960 . S
C1962 H1975 0.962 . S
C1962 H1976 0.960 . S
C1963 C1960 1.511 . S
C1963 H1977 0.961 . S
C1963 H1978 0.961 1_565 S
C1963 H1979 0.961 . S
C1964 C1965 1.370 . S
C1964 C1966 1.363 . S
C1964 H1980 0.931 . S
C1965 C1964 1.370 . S
C1965 C1969 1.408 . S
C1966 C1964 1.363 . S
C1966 C1967 1.370 . S
C1966 C1970 1.524 . S
C1967 C1959 1.503 1_545 S
C1967 C1966 1.370 . S
C1967 C1968 1.403 . S
C1968 C1967 1.403 . S
C1968 C1969 1.404 . S
C1968 C1971 1.539 . S
C1969 C1965 1.408 . S
C1969 C1968 1.404 . S
C1969 H1981 0.930 . S
C1970 C1966 1.524 . S
C1970 H1982 0.956 . S
C1970 H1983 0.961 . S
C1970 H1984 0.961 . S
C1971 C1968 1.539 . S
C1971 H1985 0.978 . S
C1971 H1986 0.961 . S
C1971 H1987 0.960 1_545 S
H1972 C1956 0.931 . S
H1973 C1961 0.929 . S
H1974 C1962 0.960 . S
H1975 C1962 0.962 . S
H1976 C1962 0.960 . S
H1977 C1963 0.961 . S
H1978 C1963 0.961 1_545 S
H1979 C1963 0.961 . S
H1980 C1964 0.931 . S
H1981 C1969 0.930 . S
H1982 C1970 0.956 . S
H1983 C1970 0.961 . S
H1984 C1970 0.961 . S
H1985 C1971 0.978 . S
H1986 C1971 0.961 . S
H1987 C1971 0.960 1_565 S
C1988 C1989 1.391 . S
C1988 C1990 1.394 . S
C1988 H2004 0.931 . S
C1989 C1988 1.391 . S
C1989 C1993 1.376 . S
C1990 C1988 1.394 . S
C1990 C1991 1.369 . S
C1990 C1994 1.531 . S
C1991 C1990 1.369 . S
C1991 C1992 1.410 . S
C1991 C1999 1.503 1_455 S
C1992 C1991 1.410 . S
C1992 C1993 1.392 . S
C1992 C1995 1.511 . S
C1993 C1989 1.376 . S
C1993 C1992 1.392 . S
C1993 H2005 0.929 . S
C1994 C1990 1.531 . S
C1994 H2006 0.960 . S
C1994 H2007 0.962 . S
C1994 H2008 0.960 . S
C1995 C1992 1.511 . S
C1995 H2009 0.961 . S
C1995 H2010 0.961 1_455 S
C1995 H2011 0.961 . S
C1996 C1997 1.370 . S
C1996 C1998 1.363 . S
C1996 H2012 0.931 . S
C1997 C1996 1.370 . S
C1997 C2001 1.408 . S
C1998 C1996 1.363 . S
C1998 C1999 1.370 . S
C1998 C2002 1.524 . S
C1999 C1991 1.503 1_655 S
C1999 C1998 1.370 . S
C1999 C2000 1.403 . S
C2000 C1999 1.403 . S
C2000 C2001 1.404 . S
C2000 C2003 1.539 . S
C2001 C1997 1.408 . S
C2001 C2000 1.404 . S
C2001 H2013 0.930 . S
C2002 C1998 1.524 . S
C2002 H2014 0.956 . S
C2002 H2015 0.961 . S
C2002 H2016 0.961 . S
C2003 C2000 1.539 . S
C2003 H2017 0.958 . S
C2003 H2018 0.961 . S
C2003 H2019 0.960 1_655 S
H2004 C1988 0.931 . S
H2005 C1993 0.929 . S
H2006 C1994 0.960 . S
H2007 C1994 0.962 . S
H2008 C1994 0.960 . S
H2009 C1995 0.961 . S
H2010 C1995 0.961 1_655 S
H2011 C1995 0.961 . S
H2012 C1996 0.931 . S
H2013 C2001 0.930 . S
H2014 C2002 0.956 . S
H2015 C2002 0.961 . S
H2016 C2002 0.961 . S
H2017 C2003 0.958 . S
H2018 C2003 0.961 . S
H2019 C2003 0.960 1_455 S
C2020 C2021 1.391 . S
C2020 C2022 1.394 . S
C2020 H2036 0.931 . S
C2021 C2020 1.391 . S
C2021 C2025 1.376 . S
C2022 C2020 1.394 . S
C2022 C2023 1.369 . S
C2022 C2026 1.531 . S
C2023 C2022 1.369 . S
C2023 C2024 1.410 . S
C2023 C2031 1.503 . S
C2024 C2023 1.410 . S
C2024 C2025 1.392 . S
C2024 C2027 1.511 . S
C2025 C2021 1.376 . S
C2025 C2024 1.392 . S
C2025 H2037 0.929 . S
C2026 C2022 1.531 . S
C2026 H2038 0.960 . S
C2026 H2039 0.962 . S
C2026 H2040 0.960 . S
C2027 C2024 1.511 . S
C2027 H2041 0.961 . S
C2027 H2042 0.961 . S
C2027 H2043 0.961 . S
C2028 C2029 1.370 . S
C2028 C2030 1.363 . S
C2028 H2044 0.931 . S
C2029 C2028 1.370 . S
C2029 C2033 1.408 . S
C2030 C2028 1.363 . S
C2030 C2031 1.370 . S
C2030 C2034 1.524 . S
C2031 C2023 1.503 . S
C2031 C2030 1.370 . S
C2031 C2032 1.403 . S
C2032 C2031 1.403 . S
C2032 C2033 1.404 . S
C2032 C2035 1.539 . S
C2033 C2029 1.408 . S
C2033 C2032 1.404 . S
C2033 H2045 0.930 . S
C2034 C2030 1.524 . S
C2034 H2046 0.956 . S
C2034 H2047 0.961 . S
C2034 H2048 0.961 . S
C2035 C2032 1.539 . S
C2035 H2049 0.958 . S
C2035 H2050 0.961 . S
C2035 H2051 0.960 . S
H2036 C2020 0.931 . S
H2037 C2025 0.929 . S
H2038 C2026 0.960 . S
H2039 C2026 0.962 . S
H2040 C2026 0.960 . S
H2041 C2027 0.961 . S
H2042 C2027 0.961 . S
H2043 C2027 0.961 . S
H2044 C2028 0.931 . S
H2045 C2033 0.930 . S
H2046 C2034 0.956 . S
H2047 C2034 0.961 . S
H2048 C2034 0.961 . S
H2049 C2035 0.958 . S
H2050 C2035 0.961 . S
H2051 C2035 0.960 . S
C613 C111 0.707 . S
C621 C9 0.725 . S
C645 C43 0.569 . S
C653 C145 0.609 . S
C677 C77 0.570 . S
C685 C179 0.616 . S
C709 C190 2.462 . S
C717 C54 2.465 . S
C741 C122 2.368 . S
C749 C88 2.365 . S
C773 C156 2.368 . S
C781 C20 2.366 . S
C805 C315 0.571 . S
C813 C213 0.609 . S
C837 C349 0.691 . S
C845 C247 0.639 . S
C869 C281 0.576 . S
C877 C383 0.595 . S
C901 C394 2.298 . S
C909 C258 2.299 . S
C933 C326 2.289 . S
C941 C292 2.293 . S
C965 C224 2.398 . S
C973 C360 2.395 . S
C997 C519 0.602 . S
C1005 C417 0.604 . S
C1029 C451 0.548 . S
C1037 C553 0.583 . S
C1061 C485 0.628 . S
C1069 C587 0.656 . S
C1093 C462 2.287 . S
C1101 C598 2.301 . S
C1125 C530 2.386 . S
C1133 C496 2.401 . S
C1157 C564 2.283 . S
C1165 C428 2.284 . S
C1189 C611 1.680 . S
C1197 C33 1.689 . S
C1221 C543 1.700 . S
C1229 C67 1.681 . S
C1253 C101 1.617 . S
C1261 C577 1.639 . S
C1285 C135 1.698 . S
C1293 C271 1.681 . S
C1317 C305 1.644 . S
C1325 C169 1.628 . S
C1349 C237 1.668 . S
C1357 C203 1.694 . S
C1381 C339 1.616 . S
C1389 C475 1.586 . S
C1413 C509 1.734 . S
C1421 C373 1.756 . S
C1445 C441 1.600 . S
C1453 C407 1.593 . S
C1477 C2 1.768 . S
C1485 C342 1.753 . S
C1509 C376 1.902 . S
C1517 C36 1.888 . S
C1541 C308 1.909 . S
C1549 C70 1.886 . S
C1573 C104 1.768 . S
C1581 C478 1.753 . S
C1605 C410 1.882 . S
C1613 C138 1.889 . S
C1637 C172 1.879 . S
C1645 C444 1.904 . S
C1669 C481 0.298 . S
C1677 C175 0.230 . S
C1701 C107 0.336 . S
C1709 C413 0.154 . S
C1733 C447 0.304 . S
C1741 C141 0.205 . S
C1765 C39 0.221 . S
C1773 C345 0.271 . S
C1797 C73 0.358 . S
C1805 C379 0.165 . S
C1829 C311 0.088 . S
C1837 C5 0.254 . S
C1861 C546 1.790 . S
C1869 C206 1.798 . S
C1893 C240 1.712 . S
C1901 C580 1.702 . S
C1925 C512 1.816 . S
C1933 C274 1.804 . S
C1957 C549 0.319 . S
C1965 C243 0.188 . S
C1989 C583 0.312 . S
C1997 C277 0.202 . S
C2021 C515 0.303 . S
C2029 C209 0.307 . S
