# Generated by pormake.
# Topology wmn, (6)-cn, num edge types: 1
# Building blocks:
#     Node 0, Type 0, BuildingBlock: KUMBUR_clean_sbu_1, # of connection points: 6
#     Node 1, Type 0, BuildingBlock: KUMBUR_clean_sbu_1, # of connection points: 6
#     Node 2, Type 0, BuildingBlock: KUMBUR_clean_sbu_1, # of connection points: 6
#     Node 3, Type 0, BuildingBlock: KUMBUR_clean_sbu_1, # of connection points: 6
#     Node 4, Type 0, BuildingBlock: KUMBUR_clean_sbu_1, # of connection points: 6
#     Node 5, Type 0, BuildingBlock: KUMBUR_clean_sbu_1, # of connection points: 6
#     Node 6, Type 0, BuildingBlock: KUMBUR_clean_sbu_1, # of connection points: 6
#     Node 7, Type 0, BuildingBlock: KUMBUR_clean_sbu_1, # of connection points: 6
#     Node 8, Type 0, BuildingBlock: KUMBUR_clean_sbu_1, # of connection points: 6
#     Node 9, Type 0, BuildingBlock: KUMBUR_clean_sbu_1, # of connection points: 6
#     Node 10, Type 0, BuildingBlock: KUMBUR_clean_sbu_1, # of connection points: 6
#     Node 11, Type 0, BuildingBlock: KUMBUR_clean_sbu_1, # of connection points: 6
#     Edge 12, Type (0, 0), BuildingBlock: KIFKEQ_clean_linker_1, # of connection points: 2
#     Edge 13, Type (0, 0), BuildingBlock: KIFKEQ_clean_linker_1, # of connection points: 2
#     Edge 14, Type (0, 0), BuildingBlock: KIFKEQ_clean_linker_1, # of connection points: 2
#     Edge 15, Type (0, 0), BuildingBlock: KIFKEQ_clean_linker_1, # of connection points: 2
#     Edge 16, Type (0, 0), BuildingBlock: KIFKEQ_clean_linker_1, # of connection points: 2
#     Edge 17, Type (0, 0), BuildingBlock: KIFKEQ_clean_linker_1, # of connection points: 2
#     Edge 18, Type (0, 0), BuildingBlock: KIFKEQ_clean_linker_1, # of connection points: 2
#     Edge 19, Type (0, 0), BuildingBlock: KIFKEQ_clean_linker_1, # of connection points: 2
#     Edge 20, Type (0, 0), BuildingBlock: KIFKEQ_clean_linker_1, # of connection points: 2
#     Edge 21, Type (0, 0), BuildingBlock: KIFKEQ_clean_linker_1, # of connection points: 2
#     Edge 22, Type (0, 0), BuildingBlock: KIFKEQ_clean_linker_1, # of connection points: 2
#     Edge 23, Type (0, 0), BuildingBlock: KIFKEQ_clean_linker_1, # of connection points: 2
#     Edge 24, Type (0, 0), BuildingBlock: KIFKEQ_clean_linker_1, # of connection points: 2
#     Edge 25, Type (0, 0), BuildingBlock: KIFKEQ_clean_linker_1, # of connection points: 2
#     Edge 26, Type (0, 0), BuildingBlock: KIFKEQ_clean_linker_1, # of connection points: 2
#     Edge 27, Type (0, 0), BuildingBlock: KIFKEQ_clean_linker_1, # of connection points: 2
#     Edge 28, Type (0, 0), BuildingBlock: KIFKEQ_clean_linker_1, # of connection points: 2
#     Edge 29, Type (0, 0), BuildingBlock: KIFKEQ_clean_linker_1, # of connection points: 2
#     Edge 30, Type (0, 0), BuildingBlock: KIFKEQ_clean_linker_1, # of connection points: 2
#     Edge 31, Type (0, 0), BuildingBlock: KIFKEQ_clean_linker_1, # of connection points: 2
#     Edge 32, Type (0, 0), BuildingBlock: KIFKEQ_clean_linker_1, # of connection points: 2
#     Edge 33, Type (0, 0), BuildingBlock: KIFKEQ_clean_linker_1, # of connection points: 2
#     Edge 34, Type (0, 0), BuildingBlock: KIFKEQ_clean_linker_1, # of connection points: 2
#     Edge 35, Type (0, 0), BuildingBlock: KIFKEQ_clean_linker_1, # of connection points: 2
#     Edge 36, Type (0, 0), BuildingBlock: KIFKEQ_clean_linker_1, # of connection points: 2
#     Edge 37, Type (0, 0), BuildingBlock: KIFKEQ_clean_linker_1, # of connection points: 2
#     Edge 38, Type (0, 0), BuildingBlock: KIFKEQ_clean_linker_1, # of connection points: 2
#     Edge 39, Type (0, 0), BuildingBlock: KIFKEQ_clean_linker_1, # of connection points: 2
#     Edge 40, Type (0, 0), BuildingBlock: KIFKEQ_clean_linker_1, # of connection points: 2
#     Edge 41, Type (0, 0), BuildingBlock: KIFKEQ_clean_linker_1, # of connection points: 2
#     Edge 42, Type (0, 0), BuildingBlock: KIFKEQ_clean_linker_1, # of connection points: 2
#     Edge 43, Type (0, 0), BuildingBlock: KIFKEQ_clean_linker_1, # of connection points: 2
#     Edge 44, Type (0, 0), BuildingBlock: KIFKEQ_clean_linker_1, # of connection points: 2
#     Edge 45, Type (0, 0), BuildingBlock: KIFKEQ_clean_linker_1, # of connection points: 2
#     Edge 46, Type (0, 0), BuildingBlock: KIFKEQ_clean_linker_1, # of connection points: 2
#     Edge 47, Type (0, 0), BuildingBlock: KIFKEQ_clean_linker_1, # of connection points: 2
# Relax obj value: 0.143
# Max RMSD: 0.301
# Mean RMSD: 0.301
data_MOF--net-wmn--node1-KUMBUR_clean_sbu_1--edge1-KIFKEQ_clean_linker_1
_symmetry_space_group_name_H-M    P1
_symmetry_Int_Tables_number       1
_symmetry_cell_setting            triclinic
loop_
_symmetry_equiv_pos_as_xyz
'x, y, z'
_cell_length_a     59.657192
_cell_length_b     59.689734
_cell_length_c     24.1737
_cell_angle_alpha  90.108821
_cell_angle_beta   89.88315
_cell_angle_gamma 119.9296
loop_
_atom_site_label
_atom_site_type_symbol
_atom_site_fract_x
_atom_site_fract_y
_atom_site_fract_z
_atom_type_partial_charge
Tb0 Tb 0.12446 0.40673 0.0508 0.0
C1 C 0.10334 0.28878 0.0841 0.0
N2 N 0.11258 0.30941 0.11892 0.0
C3 C 0.08795 0.28135 0.19366 0.0
C4 C 0.08492 0.26378 0.10215 0.0
C5 C 0.10621 0.30576 0.17389 0.0
C6 C 0.07689 0.26035 0.15743 0.0
C7 C 0.10451 0.27156 0.99371 0.0
C8 C 0.11322 0.29253 0.03071 0.0
C9 C 0.0854 0.24681 0.01087 0.0
C10 C 0.07568 0.24292 0.06498 0.0
Tb11 Tb 0.14214 0.34801 0.08034 0.0
N12 N 0.1315 0.31678 0.01518 0.0
C13 C 0.11542 0.27609 0.94071 0.0
C14 C 0.14305 0.32111 0.96458 0.0
C15 C 0.13496 0.30093 0.92631 0.0
H16 H 0.11527 0.32156 0.20303 0.0
H17 H 0.14397 0.30449 0.88592 0.0
H18 H 0.16402 0.43102 0.93904 0.0
H19 H 0.12594 0.45513 0.24043 0.0
H20 H 0.15882 0.33992 0.95407 0.0
H21 H 0.10923 0.26049 0.91101 0.0
H22 H 0.10621 0.42161 0.16749 0.0
H23 H 0.08259 0.27873 0.23696 0.0
H24 H 0.07831 0.23048 0.9829 0.0
H25 H 0.06135 0.22362 0.07798 0.0
H26 H 0.20891 0.46426 0.92161 0.0
H27 H 0.06282 0.24144 0.17295 0.0
H28 H 0.17182 0.48946 0.23267 0.0
N29 N 0.16552 0.43849 0.02593 0.0
C30 C 0.17853 0.45676 0.06545 0.0
C31 C 0.20087 0.46195 0.96277 0.0
C32 C 0.20392 0.47728 0.05628 0.0
C33 C 0.17554 0.44235 0.97353 0.0
C34 C 0.2154 0.4791 1.00478 0.0
N35 N 0.14078 0.43678 0.11998 0.0
C36 C 0.12619 0.4367 0.16383 0.0
C37 C 0.17764 0.47557 0.15412 0.0
C38 C 0.16559 0.45622 0.11356 0.0
C39 C 0.16325 0.47489 0.2006 0.0
C40 C 0.13733 0.45555 0.20512 0.0
H41 H 0.23485 0.49455 0.99603 0.0
H42 H 0.23611 0.51175 0.09147 0.0
H43 H 0.21312 0.51015 0.17733 0.0
O44 O 0.09296 0.41334 0.06241 0.0
O45 O 0.14341 0.4054 0.12847 0.0
O46 O 0.16487 0.38961 0.08485 0.0
O47 O 0.11777 0.42947 0.99336 0.0
O48 O 0.09706 0.37515 0.10404 0.0
O49 O 0.11818 0.35423 0.14175 0.0
O50 O 0.1621 0.34752 0.15133 0.0
O51 O 0.10789 0.33573 0.028 0.0
O52 O 0.09658 0.36831 0.01775 0.0
O53 O 0.17289 0.34041 0.07087 0.0
O54 O 0.16306 0.37755 0.01706 0.0
O55 O 0.13593 0.39076 0.97885 0.0
C56 C 0.16264 0.40083 0.12878 0.0
C57 C 0.09937 0.45375 0.03038 0.0
C58 C 0.07827 0.48041 0.03535 0.0
C59 C 0.10206 0.50142 0.05233 0.0
C60 C 0.12273 0.47542 0.04645 0.0
C61 C 0.12399 0.49894 0.05754 0.0
C62 C 0.07708 0.45642 0.02409 0.0
C63 C 0.09815 0.35799 0.137 0.0
C64 C 0.09856 0.42864 0.02044 0.0
C65 C 0.21652 0.49603 0.09763 0.0
C66 C 0.2034 0.49519 0.14643 0.0
C67 C 0.09252 0.34445 0.01128 0.0
C68 C 0.18162 0.32108 0.14755 0.0
C69 C 0.20872 0.3009 0.15258 0.0
C70 C 0.19326 0.28543 0.19653 0.0
C71 C 0.16665 0.30547 0.19169 0.0
C72 C 0.2026 0.31865 0.12817 0.0
C73 C 0.17239 0.2877 0.21569 0.0
C74 C 0.1532 0.38293 0.97375 0.0
C75 C 0.17704 0.3413 0.12388 0.0
H76 H 0.10384 0.52007 0.06073 0.0
H77 H 0.14016 0.47428 0.0501 0.0
H78 H 0.14218 0.51543 0.07005 0.0
H79 H 0.05893 0.43992 0.01129 0.0
H80 H 0.19761 0.27195 0.2171 0.0
H81 H 0.15082 0.30727 0.20848 0.0
H82 H 0.21422 0.33074 0.09424 0.0
H83 H 0.16087 0.2759 0.24997 0.0
Tb84 Tb 0.6162 0.72079 0.05313 0.0
C85 C 0.74172 0.80928 0.04138 0.0
N86 N 0.72487 0.80435 0.08362 0.0
C87 C 0.75708 0.80835 0.14867 0.0
C88 C 0.76653 0.81264 0.05081 0.0
C89 C 0.73278 0.80539 0.13718 0.0
C90 C 0.77385 0.81147 0.10521 0.0
C91 C 0.75214 0.81953 0.94439 0.0
C92 C 0.73473 0.81281 0.98903 0.0
C93 C 0.77635 0.8215 0.95289 0.0
C94 C 0.78353 0.81805 0.00602 0.0
Tb95 Tb 0.68513 0.79807 0.05838 0.0
N96 N 0.71117 0.81065 0.98237 0.0
C97 C 0.74483 0.82453 0.8929 0.0
C98 C 0.70446 0.81682 0.93314 0.0
C99 C 0.72101 0.8235 0.88746 0.0
H100 H 0.72023 0.80365 0.17127 0.0
H101 H 0.7154 0.82786 0.84815 0.0
H102 H 0.58692 0.73458 0.9489 0.0
H103 H 0.58044 0.6763 0.25176 0.0
H104 H 0.6862 0.81619 0.92908 0.0
H105 H 0.75764 0.82973 0.85751 0.0
H106 H 0.61203 0.69424 0.175 0.0
H107 H 0.76293 0.8084 0.19105 0.0
H108 H 0.78989 0.82632 0.91898 0.0
H109 H 0.80256 0.82038 0.01232 0.0
H110 H 0.54771 0.73716 0.93679 0.0
H111 H 0.79275 0.81396 0.11424 0.0
H112 H 0.53899 0.67621 0.24563 0.0
N113 N 0.58009 0.72403 0.03431 0.0
C114 C 0.5617 0.71482 0.07492 0.0
C115 C 0.55166 0.73139 0.97634 0.0
C116 C 0.53814 0.71472 0.06857 0.0
C117 C 0.57454 0.73073 0.98417 0.0
C118 C 0.53357 0.72377 0.019 0.0
N119 N 0.5889 0.7047 0.12696 0.0
C120 C 0.59412 0.69453 0.17238 0.0
C121 C 0.54739 0.69421 0.16479 0.0
C122 C 0.56594 0.70423 0.12215 0.0
C123 C 0.55278 0.68414 0.21195 0.0
C124 C 0.57621 0.68423 0.21565 0.0
H125 H 0.51571 0.72397 0.01245 0.0
H126 H 0.50145 0.70475 0.10695 0.0
H127 H 0.50968 0.68706 0.1914 0.0
O128 O 0.60782 0.6822 0.06463 0.0
O129 O 0.61253 0.74431 0.12034 0.0
O130 O 0.64859 0.77016 0.08568 0.0
O131 O 0.59668 0.69301 0.99036 0.0
O132 O 0.64785 0.72673 0.11079 0.0
O133 O 0.68336 0.77003 0.12084 0.0
O134 O 0.68749 0.83373 0.0397 0.0
O135 O 0.6811 0.77118 0.99239 0.0
O136 O 0.65551 0.7292 0.02713 0.0
O137 O 0.69314 0.8248 0.12258 0.0
O138 O 0.64828 0.78944 0.01964 0.0
O139 O 0.6284 0.74819 0.98131 0.0
C140 C 0.63216 0.76713 0.124 0.0
C141 C 0.56968 0.64961 0.02165 0.0
C142 C 0.5431 0.602 0.02474 0.0
C143 C 0.52106 0.60448 0.03215 0.0
C144 C 0.54707 0.65109 0.02758 0.0
C145 C 0.52305 0.62876 0.03318 0.0
C146 C 0.56757 0.62482 0.01938 0.0
C147 C 0.67011 0.74486 0.13321 0.0
C148 C 0.59531 0.67382 0.01857 0.0
C149 C 0.51959 0.70487 0.11109 0.0
C150 C 0.52421 0.69467 0.15908 0.0
C151 C 0.67635 0.74737 1.00099 0.0
C152 C 0.71705 0.86875 0.09499 0.0
C153 C 0.73636 0.91584 0.09138 0.0
C154 C 0.75999 0.91846 0.10896 0.0
C155 C 0.74104 0.87198 0.11168 0.0
C156 C 0.7149 0.89082 0.08405 0.0
C157 C 0.76231 0.89668 0.11862 0.0
C158 C 0.63678 0.77348 0.97784 0.0
C159 C 0.69421 0.84256 0.0897 0.0
H160 H 0.50208 0.58748 0.03606 0.0
H161 H 0.54785 0.66951 0.02756 0.0
H162 H 0.50582 0.63029 0.03807 0.0
H163 H 0.58481 0.6233 0.01421 0.0
H164 H 0.7768 0.93744 0.11456 0.0
H165 H 0.74337 0.85548 0.11976 0.0
H166 H 0.69651 0.88856 0.07092 0.0
H167 H 0.78067 0.89894 0.13171 0.0
Tb168 Tb 0.29762 0.90028 0.04779 0.0
C169 C 0.21581 0.94246 0.03998 0.0
N170 N 0.21766 0.92723 0.07913 0.0
C171 C 0.2066 0.94822 0.14982 0.0
C172 C 0.21042 0.96215 0.05459 0.0
C173 C 0.21198 0.92891 0.13317 0.0
C174 C 0.20641 0.9653 0.11053 0.0
C175 C 0.21169 0.94977 0.94289 0.0
C176 C 0.21651 0.93638 0.98486 0.0
C177 C 0.20845 0.97083 0.95699 0.0
C178 C 0.20781 0.97702 0.01278 0.0
Tb179 Tb 0.22811 0.89784 0.04726 0.0
N180 N 0.21925 0.91562 0.97289 0.0
C181 C 0.20883 0.94065 0.8885 0.0
C182 C 0.21394 0.90513 0.92093 0.0
C183 C 0.20928 0.91786 0.87774 0.0
H184 H 0.21236 0.91581 0.1635 0.0
H185 H 0.20591 0.9101 0.83627 0.0
H186 H 0.29032 0.85938 0.94398 0.0
H187 H 0.31461 0.89777 0.26651 0.0
H188 H 0.21414 0.88745 0.91275 0.0
H189 H 0.20505 0.95035 0.85501 0.0
H190 H 0.31023 0.9172 0.1804 0.0
H191 H 0.20276 0.95 0.1929 0.0
H192 H 0.20521 0.98169 0.92522 0.0
H193 H 0.2041 0.99254 0.02314 0.0
H194 H 0.2849 0.81608 0.93514 0.0
H195 H 0.20214 0.98016 0.12349 0.0
H196 H 0.30984 0.85417 0.26494 0.0
N197 N 0.29229 0.86004 0.03233 0.0
C198 C 0.29485 0.84815 0.07796 0.0
C199 C 0.28724 0.82469 0.97568 0.0
C200 C 0.29252 0.82349 0.0744 0.0
C201 C 0.28975 0.84917 0.98118 0.0
C202 C 0.28829 0.81164 0.02254 0.0
N203 N 0.30267 0.88483 0.13029 0.0
C204 C 0.30806 0.89819 0.17894 0.0
C205 C 0.30287 0.84921 0.1767 0.0
C206 C 0.30043 0.86102 0.12841 0.0
C207 C 0.30793 0.86262 0.22687 0.0
C208 C 0.3106 0.88723 0.22793 0.0
H209 H 0.28648 0.79274 0.01804 0.0
H210 H 0.2931 0.79265 0.12048 0.0
H211 H 0.30179 0.81503 0.21013 0.0
O212 O 0.33672 0.92187 0.07309 0.0
O213 O 0.26292 0.8714 0.09644 0.0
O214 O 0.24074 0.89159 0.1265 0.0
O215 O 0.32734 0.90795 0.99021 0.0
O216 O 0.29728 0.9311 0.09736 0.0
O217 O 0.25569 0.92613 0.10843 0.0
O218 O 0.20239 0.85773 0.05301 0.0
O219 O 0.25584 0.91839 0.98104 0.0
O220 O 0.29656 0.93451 0.01768 0.0
O221 O 0.18814 0.88431 0.05329 0.0
O222 O 0.23605 0.86892 0.00992 0.0
O223 O 0.27562 0.88795 0.96935 0.0
C224 C 0.24936 0.87553 0.13475 0.0
C225 C 0.36813 0.91572 0.02506 0.0
C226 C 0.41527 0.9318 0.02184 0.0
C227 C 0.40957 0.90586 0.02229 0.0
C228 C 0.36352 0.89032 0.02613 0.0
C229 C 0.38408 0.88548 0.02469 0.0
C230 C 0.3941 0.9365 0.02295 0.0
C231 C 0.28106 0.93802 0.11854 0.0
C232 C 0.34603 0.9207 0.0253 0.0
C233 C 0.29495 0.81165 0.12243 0.0
C234 C 0.30001 0.82443 0.17346 0.0
C235 C 0.27941 0.93743 0.98913 0.0
C236 C 0.16387 0.84554 0.10251 0.0
C237 C 0.12075 0.8116 0.13038 0.0
C238 C 0.12786 0.81797 0.1861 0.0
C239 C 0.17072 0.85148 0.15828 0.0
C240 C 0.139 0.82551 0.08877 0.0
C241 C 0.15276 0.83768 0.19985 0.0
C242 C 0.25041 0.87226 0.96628 0.0
C243 C 0.18211 0.86031 0.05799 0.0
H244 H 0.42484 0.90111 0.0198 0.0
H245 H 0.34402 0.87414 0.02753 0.0
H246 H 0.38022 0.86573 0.02496 0.0
H247 H 0.39773 0.95618 0.02262 0.0
H248 H 0.11429 0.80747 0.21899 0.0
H249 H 0.18982 0.86683 0.16957 0.0
H250 H 0.13371 0.82106 0.04559 0.0
H251 H 0.15813 0.84232 0.24285 0.0
Tb252 Tb 0.4163 0.12166 0.45418 0.0
C253 C 0.29971 0.0911 0.50773 0.0
N254 N 0.31299 0.09393 0.46001 0.0
C255 C 0.27862 0.05303 0.42785 0.0
C256 C 0.27598 0.06846 0.51858 0.0
C257 C 0.30208 0.07585 0.41905 0.0
C258 C 0.2657 0.04912 0.47819 0.0
C259 C 0.29746 0.10868 0.59673 0.0
C260 C 0.31025 0.11091 0.54622 0.0
C261 C 0.27408 0.08596 0.60827 0.0
C262 C 0.26336 0.0659 0.56927 0.0
Tb263 Tb 0.35193 0.13159 0.45207 0.0
N264 N 0.33313 0.13237 0.53404 0.0
C265 C 0.30852 0.12939 0.63396 0.0
C266 C 0.34324 0.15313 0.56885 0.0
C267 C 0.33137 0.15185 0.61965 0.0
H268 H 0.31085 0.07898 0.37896 0.0
H269 H 0.3397 0.16828 0.64743 0.0
H270 H 0.44653 0.16238 0.56127 0.0
H271 H 0.45093 0.12399 0.24661 0.0
H272 H 0.36002 0.17093 0.55659 0.0
H273 H 0.29928 0.12842 0.67319 0.0
H274 H 0.42276 0.10388 0.32818 0.0
H275 H 0.27037 0.0386 0.39549 0.0
H276 H 0.26405 0.08379 0.64704 0.0
H277 H 0.24524 0.04855 0.57856 0.0
H278 H 0.4797 0.2078 0.57309 0.0
H279 H 0.24756 0.03139 0.48493 0.0
H280 H 0.48495 0.17011 0.24942 0.0
N281 N 0.4483 0.1634 0.47289 0.0
C282 C 0.46367 0.17644 0.42903 0.0
C283 C 0.47492 0.19947 0.53203 0.0
C284 C 0.48401 0.20221 0.43431 0.0
C285 C 0.45534 0.17381 0.52479 0.0
C286 C 0.48889 0.21398 0.48633 0.0
N287 N 0.44101 0.1383 0.37645 0.0
C288 C 0.43792 0.12391 0.32993 0.0
C289 C 0.47648 0.17566 0.33386 0.0
C290 C 0.46031 0.16333 0.3796 0.0
C291 C 0.47287 0.16133 0.28543 0.0
C292 C 0.45371 0.13527 0.2837 0.0
H293 H 0.50433 0.23373 0.49218 0.0
H294 H 0.51514 0.23483 0.39148 0.0
H295 H 0.50836 0.21162 0.30334 0.0
O296 O 0.42934 0.09583 0.43143 0.0
O297 O 0.40878 0.14028 0.38294 0.0
O298 O 0.39131 0.16017 0.43036 0.0
O299 O 0.44105 0.11587 0.50765 0.0
O300 O 0.38308 0.09264 0.40772 0.0
O301 O 0.35558 0.10885 0.38297 0.0
O302 O 0.33902 0.15893 0.45437 0.0
O303 O 0.35034 0.10243 0.51017 0.0
O304 O 0.37995 0.08908 0.48532 0.0
O305 O 0.33655 0.13785 0.37893 0.0
O306 O 0.38771 0.15772 0.49611 0.0
O307 O 0.40411 0.13307 0.53138 0.0
C308 C 0.40141 0.15761 0.38468 0.0
C309 C 0.43859 0.07479 0.50301 0.0
C310 C 0.45222 0.04229 0.51841 0.0
C311 C 0.43072 0.02906 0.55384 0.0
C312 C 0.41728 0.0607 0.53778 0.0
C313 C 0.41347 0.0381 0.56305 0.0
C314 C 0.45607 0.06551 0.49327 0.0
C315 C 0.364 0.09203 0.3785 0.0
C316 C 0.44228 0.09883 0.47624 0.0
C317 C 0.49961 0.21496 0.38828 0.0
C318 C 0.49585 0.20171 0.33816 0.0
C319 C 0.35808 0.08523 0.5081 0.0
C320 C 0.32047 0.16846 0.37335 0.0
C321 C 0.3075 0.20174 0.36836 0.0
C322 C 0.29753 0.19257 0.31509 0.0
C323 C 0.31068 0.16032 0.31982 0.0
C324 C 0.3188 0.18925 0.39767 0.0
C325 C 0.29922 0.1722 0.29119 0.0
C326 C 0.3968 0.15054 0.53792 0.0
C327 C 0.33215 0.15491 0.40281 0.0
H328 H 0.42727 0.01175 0.5754 0.0
H329 H 0.4036 0.06726 0.54563 0.0
H330 H 0.39706 0.02752 0.59024 0.0
H331 H 0.47231 0.07615 0.46565 0.0
H332 H 0.28803 0.20092 0.29176 0.0
H333 H 0.31164 0.14451 0.30008 0.0
H334 H 0.32661 0.1959 0.43867 0.0
H335 H 0.29143 0.16548 0.25023 0.0
Tb336 Tb 0.90253 0.2951 0.45195 0.0
C337 C 0.93965 0.20833 0.46308 0.0
N338 N 0.92605 0.21233 0.42324 0.0
C339 C 0.94692 0.20087 0.35301 0.0
C340 C 0.9583 0.20136 0.44923 0.0
C341 C 0.92847 0.20759 0.36893 0.0
C342 C 0.96228 0.19826 0.39325 0.0
C343 C 0.94431 0.20151 0.56024 0.0
C344 C 0.93286 0.20859 0.51788 0.0
C345 C 0.96431 0.19644 0.54706 0.0
C346 C 0.97133 0.19641 0.49163 0.0
Tb347 Tb 0.89789 0.22464 0.45423 0.0
N348 N 0.91325 0.21329 0.52898 0.0
C349 C 0.9344 0.19848 0.614 0.0
C350 C 0.90204 0.20815 0.58019 0.0
C351 C 0.91278 0.20122 0.62375 0.0
H352 H 0.91667 0.20974 0.33786 0.0
H353 H 0.90436 0.19796 0.66471 0.0
H354 H 0.86126 0.28921 0.55406 0.0
H355 H 0.90206 0.3121 0.23274 0.0
H356 H 0.88524 0.21002 0.58755 0.0
H357 H 0.94261 0.193 0.64772 0.0
H358 H 0.92056 0.30747 0.32004 0.0
H359 H 0.94934 0.19778 0.30979 0.0
H360 H 0.9737 0.19145 0.57915 0.0
H361 H 0.98602 0.1914 0.48189 0.0
H362 H 0.81817 0.28448 0.56087 0.0
H363 H 0.97643 0.19289 0.38085 0.0
H364 H 0.85867 0.30792 0.23217 0.0
N365 N 0.86245 0.29058 0.46564 0.0
C366 C 0.851 0.2932 0.41929 0.0
C367 C 0.82698 0.28646 0.52066 0.0
C368 C 0.82649 0.2913 0.42166 0.0
C369 C 0.85133 0.28855 0.51634 0.0
C370 C 0.81433 0.28747 0.47308 0.0
N371 N 0.88791 0.30042 0.36862 0.0
C372 C 0.90167 0.30561 0.32052 0.0
C373 C 0.85294 0.30108 0.32035 0.0
C374 C 0.86423 0.29853 0.36933 0.0
C375 C 0.86673 0.30592 0.27073 0.0
C376 C 0.89122 0.30827 0.27088 0.0
H377 H 0.79553 0.286 0.47668 0.0
H378 H 0.79624 0.29227 0.37397 0.0
H379 H 0.81925 0.30046 0.28518 0.0
O380 O 0.92526 0.33406 0.42642 0.0
O381 O 0.87412 0.26084 0.4014 0.0
O382 O 0.89409 0.23807 0.37404 0.0
O383 O 0.91034 0.32515 0.50862 0.0
O384 O 0.93356 0.29408 0.40426 0.0
O385 O 0.92836 0.25227 0.39651 0.0
O386 O 0.85774 0.20101 0.44152 0.0
O387 O 0.91818 0.25178 0.52148 0.0
O388 O 0.93561 0.29279 0.48548 0.0
O389 O 0.88203 0.1843 0.45148 0.0
O390 O 0.86958 0.23406 0.48915 0.0
O391 O 0.88892 0.2733 0.53038 0.0
C392 C 0.87855 0.24716 0.36394 0.0
C393 C 0.91931 0.36604 0.47242 0.0
C394 C 0.93609 0.41328 0.4751 0.0
C395 C 0.91028 0.40801 0.47322 0.0
C396 C 0.89407 0.36186 0.46984 0.0
C397 C 0.88964 0.38268 0.47032 0.0
C398 C 0.94036 0.39185 0.475 0.0
C399 C 0.94059 0.27756 0.38541 0.0
C400 C 0.92379 0.34363 0.47361 0.0
C401 C 0.81512 0.2938 0.37294 0.0
C402 C 0.82827 0.29858 0.3224 0.0
C403 C 0.93773 0.27521 0.51429 0.0
C404 C 0.84447 0.16071 0.39823 0.0
C405 C 0.81086 0.11656 0.37422 0.0
C406 C 0.81957 0.12174 0.31885 0.0
C407 C 0.85242 0.16546 0.34292 0.0
C408 C 0.8234 0.13669 0.41335 0.0
C409 C 0.83985 0.14607 0.3034 0.0
C410 C 0.87283 0.24819 0.53305 0.0
C411 C 0.85876 0.17977 0.44175 0.0
H412 H 0.90582 0.42349 0.47497 0.0
H413 H 0.87769 0.3425 0.4681 0.0
H414 H 0.87 0.37915 0.46893 0.0
H415 H 0.95992 0.39514 0.4765 0.0
H416 H 0.81124 0.10697 0.28727 0.0
H417 H 0.86852 0.18395 0.33058 0.0
H418 H 0.81712 0.1339 0.45606 0.0
H419 H 0.84624 0.1497 0.26074 0.0
Tb420 Tb 0.72622 0.60957 0.45543 0.0
C421 C 0.81238 0.73406 0.47627 0.0
N422 N 0.80856 0.719 0.43131 0.0
C423 C 0.81239 0.75304 0.3724 0.0
C424 C 0.8147 0.75865 0.47158 0.0
C425 C 0.81047 0.72887 0.37959 0.0
C426 C 0.81384 0.76774 0.41875 0.0
C427 C 0.82207 0.74117 0.574 0.0
C428 C 0.81626 0.72564 0.52636 0.0
C429 C 0.82272 0.76499 0.57057 0.0
C430 C 0.81904 0.77374 0.51936 0.0
Tb431 Tb 0.80276 0.67873 0.44805 0.0
N432 N 0.81543 0.70255 0.52765 0.0
C433 C 0.82755 0.73246 0.62313 0.0
C434 C 0.82226 0.69467 0.57443 0.0
C435 C 0.82803 0.70927 0.6231 0.0
H436 H 0.81098 0.71824 0.34393 0.0
H437 H 0.83293 0.70269 0.66044 0.0
H438 H 0.74004 0.58109 0.56106 0.0
H439 H 0.68364 0.57391 0.25511 0.0
H440 H 0.82315 0.67713 0.57416 0.0
H441 H 0.83208 0.74377 0.66078 0.0
H442 H 0.70202 0.60608 0.33065 0.0
H443 H 0.81317 0.76046 0.3312 0.0
H444 H 0.82676 0.7771 0.60685 0.0
H445 H 0.82048 0.79253 0.51684 0.0
H446 H 0.74097 0.54114 0.57565 0.0
H447 H 0.81562 0.78657 0.41318 0.0
H448 H 0.68135 0.53155 0.26473 0.0
N449 N 0.72885 0.57339 0.47604 0.0
C450 C 0.71892 0.55455 0.43643 0.0
C451 C 0.73526 0.54491 0.53583 0.0
C452 C 0.71794 0.53066 0.44426 0.0
C453 C 0.73554 0.56816 0.52654 0.0
C454 C 0.72679 0.52623 0.49427 0.0
N455 N 0.71034 0.5822 0.38181 0.0
C456 C 0.70126 0.58771 0.33496 0.0
C457 C 0.69858 0.54 0.34635 0.0
C458 C 0.70886 0.55886 0.38834 0.0
C459 C 0.68942 0.54556 0.29796 0.0
C460 C 0.69075 0.5695 0.29229 0.0
H461 H 0.72631 0.50811 0.50194 0.0
H462 H 0.70678 0.4933 0.40791 0.0
H463 H 0.69013 0.50161 0.32199 0.0
O464 O 0.68666 0.59781 0.44283 0.0
O465 O 0.74993 0.60527 0.38946 0.0
O466 O 0.77503 0.64203 0.42169 0.0
O467 O 0.69971 0.59305 0.52144 0.0
O468 O 0.73185 0.64115 0.39807 0.0
O469 O 0.77471 0.67684 0.38418 0.0
O470 O 0.83921 0.68194 0.46193 0.0
O471 O 0.77539 0.67366 0.51385 0.0
O472 O 0.73367 0.64885 0.47826 0.0
O473 O 0.82816 0.68736 0.38092 0.0
O474 O 0.79608 0.64275 0.48856 0.0
O475 O 0.75436 0.62228 0.52585 0.0
C476 C 0.77238 0.62535 0.38435 0.0
C477 C 0.65654 0.56161 0.496 0.0
C478 C 0.60916 0.53169 0.49646 0.0
C479 C 0.614 0.51121 0.50627 0.0
C480 C 0.66019 0.54049 0.50581 0.0
C481 C 0.63915 0.5156 0.51064 0.0
C482 C 0.63082 0.55712 0.49155 0.0
C483 C 0.74923 0.66316 0.37334 0.0
C484 C 0.67954 0.58816 0.49193 0.0
C485 C 0.7076 0.51172 0.40259 0.0
C486 C 0.69799 0.51639 0.35375 0.0
C487 C 0.75191 0.66957 0.50443 0.0
C488 C 0.87284 0.71144 0.4032 0.0
C489 C 0.91999 0.73085 0.40463 0.0
C490 C 0.92235 0.75368 0.38252 0.0
C491 C 0.87583 0.73462 0.38164 0.0
C492 C 0.8951 0.70977 0.41535 0.0
C493 C 0.90042 0.75556 0.37151 0.0
C494 C 0.77954 0.63007 0.52901 0.0
C495 C 0.84678 0.68866 0.4112 0.0
H496 H 0.59824 0.49163 0.5119 0.0
H497 H 0.67934 0.54317 0.51074 0.0
H498 H 0.64237 0.49958 0.51858 0.0
H499 H 0.62776 0.57328 0.48411 0.0
H500 H 0.94125 0.77021 0.37429 0.0
H501 H 0.85922 0.73655 0.37199 0.0
H502 H 0.89304 0.69196 0.43186 0.0
H503 H 0.90248 0.77329 0.35472 0.0
Tb504 Tb 0.90238 0.68261 0.96529 0.0
C505 C 0.85711 0.56507 0.91751 0.0
N506 N 0.86498 0.57961 0.96449 0.0
C507 C 0.82628 0.54834 0.01092 0.0
C508 C 0.83306 0.54197 0.91505 0.0
C509 C 0.85037 0.571 0.01158 0.0
C510 C 0.81746 0.53389 0.96234 0.0
C511 C 0.86611 0.55851 0.82269 0.0
C512 C 0.87346 0.57321 0.87186 0.0
C513 C 0.84202 0.53569 0.81989 0.0
C514 C 0.82553 0.52746 0.86592 0.0
Tb515 Tb 0.90544 0.61521 0.96029 0.0
N516 N 0.89651 0.59559 0.87567 0.0
C517 C 0.88324 0.56714 0.77782 0.0
C518 C 0.91344 0.6039 0.8322 0.0
C519 C 0.90703 0.58988 0.78271 0.0
H520 H 0.8573 0.58083 0.0505 0.0
H521 H 0.92052 0.59657 0.74844 0.0
H522 H 0.93041 0.72214 0.85872 0.0
H523 H 0.90804 0.70705 0.18221 0.0
H524 H 0.93221 0.62094 0.83563 0.0
H525 H 0.87833 0.55636 0.73938 0.0
H526 H 0.88699 0.68195 0.09758 0.0
H527 H 0.81473 0.54178 0.04824 0.0
H528 H 0.83601 0.5242 0.78241 0.0
H529 H 0.8071 0.5097 0.86328 0.0
H530 H 0.97127 0.76305 0.84142 0.0
H531 H 0.79887 0.51623 0.96217 0.0
H532 H 0.95174 0.74568 0.17628 0.0
N533 N 0.93777 0.72155 0.94448 0.0
C534 C 0.95202 0.73554 0.98846 0.0
C535 C 0.96634 0.7553 0.88292 0.0
C536 C 0.97494 0.7594 0.98115 0.0
C537 C 0.94351 0.73196 0.8926 0.0
C538 C 0.9825 0.76878 0.92729 0.0
N539 N 0.91919 0.70478 0.04587 0.0
C540 C 0.9062 0.69835 0.09514 0.0
C541 C 0.95477 0.7424 0.08767 0.0
C542 C 0.94213 0.72715 0.04098 0.0
C543 C 0.94267 0.73453 0.13932 0.0
C544 C 0.91802 0.71271 0.14286 0.0
H545 H 0.99999 0.78703 0.91983 0.0
H546 H 1.00663 0.79189 0.02305 0.0
H547 H 0.98891 0.777 0.11644 0.0
O548 O 0.86368 0.6748 0.96933 0.0
O549 O 0.92239 0.67308 0.02895 0.0
O550 O 0.93989 0.65101 0.98689 0.0
O551 O 0.89471 0.71307 0.95479 0.0
O552 O 0.87242 0.64515 0.99808 0.0
O553 O 0.89103 0.62375 0.03746 0.0
O554 O 0.92886 0.59869 0.94314 0.0
O555 O 0.87537 0.61847 0.91074 0.0
O556 O 0.89129 0.6618 0.88707 0.0
O557 O 0.91106 0.59348 0.02232 0.0
O558 O 0.93547 0.64778 0.9129 0.0
O559 O 0.92515 0.68031 0.89438 0.0
C560 C 0.94216 0.66994 0.01854 0.0
C561 C 0.85458 0.70264 0.91594 0.0
C562 C 0.8197 0.71153 0.89259 0.0
C563 C 0.82778 0.71454 0.83686 0.0
C564 C 0.86203 0.70564 0.86019 0.0
C565 C 0.84854 0.71135 0.82091 0.0
C566 C 0.8333 0.7053 0.93187 0.0
C567 C 0.87508 0.63305 0.0406 0.0
C568 C 0.86986 0.69848 0.95838 0.0
C569 C 0.98872 0.77372 0.02777 0.0
C570 C 0.9786 0.76528 0.08096 0.0
C571 C 0.87554 0.63686 0.8793 0.0
C572 C 0.92094 0.56101 0.99208 0.0
C573 C 0.9377 0.53046 0.99359 0.0
C574 C 0.91187 0.51 0.99372 0.0
C575 C 0.89565 0.54001 0.99172 0.0
C576 C 0.942 0.55616 0.99305 0.0
C577 C 0.89121 0.51477 0.99259 0.0
C578 C 0.93904 0.6687 0.88622 0.0
C579 C 0.92555 0.58795 0.99125 0.0
H580 H 0.8185 0.71994 0.80538 0.0
H581 H 0.87838 0.70371 0.84716 0.0
H582 H 0.85447 0.71376 0.77796 0.0
H583 H 0.82755 0.70262 0.97496 0.0
H584 H 0.90746 0.49009 0.99567 0.0
H585 H 0.87926 0.54306 0.99116 0.0
H586 H 0.9616 0.57235 0.99279 0.0
H587 H 0.87156 0.49872 0.99275 0.0
Tb588 Tb 0.34418 0.22512 0.95963 0.0
C589 C 0.46021 0.3016 0.9043 0.0
N590 N 0.44643 0.2932 0.95217 0.0
C591 C 0.47945 0.28639 0.99152 0.0
C592 C 0.48392 0.30206 0.89778 0.0
C593 C 0.45604 0.28631 0.99614 0.0
C594 C 0.49339 0.29416 0.94207 0.0
C595 C 0.4637 0.31775 0.81077 0.0
C596 C 0.45018 0.30933 0.8613 0.0
C597 C 0.48735 0.31826 0.80414 0.0
C598 C 0.49743 0.31044 0.84752 0.0
Tb599 Tb 0.40993 0.2964 0.95554 0.0
N600 N 0.42696 0.30813 0.86871 0.0
C601 C 0.45289 0.32511 0.76816 0.0
C602 C 0.41673 0.31602 0.82774 0.0
C603 C 0.42935 0.32429 0.77677 0.0
H604 H 0.44631 0.28149 0.03553 0.0
H605 H 0.42108 0.33041 0.74439 0.0
H606 H 0.30624 0.22391 0.85516 0.0
H607 H 0.32036 0.19651 0.17224 0.0
H608 H 0.39934 0.31688 0.83438 0.0
H609 H 0.46263 0.33161 0.72866 0.0
H610 H 0.34618 0.20644 0.08633 0.0
H611 H 0.48692 0.28081 0.02641 0.0
H612 H 0.49797 0.3246 0.76556 0.0
H613 H 0.51569 0.31093 0.84176 0.0
H614 H 0.26578 0.22496 0.84572 0.0
H615 H 0.51157 0.29429 0.93876 0.0
H616 H 0.28 0.19877 0.17285 0.0
N617 N 0.30595 0.22448 0.94356 0.0
C618 C 0.29124 0.22104 0.98924 0.0
C619 C 0.27292 0.22429 0.88645 0.0
C620 C 0.26726 0.22024 0.9855 0.0
C621 C 0.29625 0.22428 0.89216 0.0
C622 C 0.25861 0.2228 0.93343 0.0
N623 N 0.32214 0.21647 0.04096 0.0
C624 C 0.32917 0.20831 0.08705 0.0
C625 C 0.28346 0.21005 0.08671 0.0
C626 C 0.29923 0.21615 0.03927 0.0
C627 C 0.29152 0.20351 0.13544 0.0
C628 C 0.31433 0.2023 0.13535 0.0
H629 H 0.24034 0.22237 0.92879 0.0
H630 H 0.23379 0.21525 0.03132 0.0
H631 H 0.24793 0.20619 0.11992 0.0
O632 O 0.34958 0.19271 0.96469 0.0
O633 O 0.35189 0.25341 0.02607 0.0
O634 O 0.3739 0.2936 0.9858 0.0
O635 O 0.31345 0.18856 0.93846 0.0
O636 O 0.38121 0.23243 0.99429 0.0
O637 O 0.40253 0.27328 0.03167 0.0
O638 O 0.42658 0.33652 0.94147 0.0
O639 O 0.40947 0.26328 0.91078 0.0
O640 O 0.36698 0.23597 0.88372 0.0
O641 O 0.43151 0.32263 0.01934 0.0
O642 O 0.37548 0.29284 0.91361 0.0
O643 O 0.3492 0.24967 0.8874 0.0
C644 C 0.3559 0.27697 0.01931 0.0
C645 C 0.32419 0.15863 0.90213 0.0
C646 C 0.31645 0.11562 0.87618 0.0
C647 C 0.31564 0.12185 0.82024 0.0
C648 C 0.32317 0.16427 0.84621 0.0
C649 C 0.31922 0.14606 0.80555 0.0
C650 C 0.32117 0.13451 0.91681 0.0
C651 C 0.39394 0.24817 0.03522 0.0
C652 C 0.32657 0.17687 0.94593 0.0
C653 C 0.25213 0.21566 0.0333 0.0
C654 C 0.26013 0.2104 0.08373 0.0
C655 C 0.39194 0.24441 0.87946 0.0
C656 C 0.46439 0.36507 0.99154 0.0
C657 C 0.49529 0.41215 0.99357 0.0
C658 C 0.51556 0.4065 0.9963 0.0
C659 C 0.4852 0.36046 0.99372 0.0
C660 C 0.46952 0.39102 0.99137 0.0
C661 C 0.51053 0.38101 0.99607 0.0
C662 C 0.35621 0.2744 0.885 0.0
C663 C 0.43733 0.34309 0.9898 0.0
H664 H 0.31164 0.10789 0.78768 0.0
H665 H 0.32542 0.18275 0.83406 0.0
H666 H 0.31854 0.15059 0.7625 0.0
H667 H 0.32229 0.13052 0.96011 0.0
H668 H 0.5355 0.4218 0.99967 0.0
H669 H 0.48195 0.34097 0.99415 0.0
H670 H 0.45348 0.39464 0.98908 0.0
H671 H 0.52642 0.37716 0.99824 0.0
Tb672 Tb 0.80355 0.13186 0.93563 0.0
C673 C 0.7211 0.17137 0.94229 0.0
N674 N 0.7284 0.15923 0.97989 0.0
C675 C 0.73457 0.19131 0.04789 0.0
C676 C 0.72175 0.19476 0.95524 0.0
C677 C 0.733 0.16787 0.03346 0.0
C678 C 0.7295 0.20513 0.00825 0.0
C679 C 0.70157 0.17023 0.85337 0.0
C680 C 0.71073 0.15917 0.89226 0.0
C681 C 0.70337 0.19412 0.8651 0.0
C682 C 0.71344 0.20636 0.9159 0.0
Tb683 Tb 0.72512 0.12103 0.94975 0.0
N684 N 0.70965 0.13623 0.88186 0.0
C685 C 0.69056 0.15675 0.80423 0.0
C686 C 0.69799 0.12248 0.83503 0.0
C687 C 0.68855 0.13267 0.79528 0.0
H688 H 0.73472 0.15653 0.06604 0.0
H689 H 0.67972 0.12194 0.75781 0.0
H690 H 0.80754 0.1008 0.82418 0.0
H691 H 0.8404 0.13939 0.14218 0.0
H692 H 0.69641 0.10386 0.82822 0.0
H693 H 0.68323 0.16458 0.77334 0.0
H694 H 0.82397 0.15269 0.06214 0.0
H695 H 0.73898 0.19832 0.09003 0.0
H696 H 0.69656 0.20304 0.83564 0.0
H697 H 0.71402 0.22442 0.92502 0.0
H698 H 0.81658 0.06547 0.80494 0.0
H699 H 0.73025 0.22304 0.01985 0.0
H700 H 0.84689 0.10165 0.13385 0.0
N701 N 0.81217 0.09985 0.91143 0.0
C702 C 0.82027 0.09047 0.9532 0.0
C703 C 0.81737 0.07208 0.84699 0.0
C704 C 0.826 0.07053 0.94405 0.0
C705 C 0.81198 0.09193 0.85821 0.0
C706 C 0.8239 0.06096 0.89028 0.0
N707 N 0.82001 0.12214 0.0107 0.0
C708 C 0.82637 0.13604 0.05869 0.0
C709 C 0.8342 0.09402 0.04854 0.0
C710 C 0.82452 0.10215 1.00451 0.0
C711 C 0.83949 0.10732 0.09893 0.0
C712 C 0.83583 0.12862 0.10381 0.0
H713 H 0.82818 0.04569 0.88145 0.0
H714 H 0.83878 0.04601 0.98228 0.0
H715 H 0.8458 0.06648 0.07398 0.0
O716 O 0.83938 0.16615 0.94704 0.0
O717 O 0.77875 0.10888 1.00409 0.0
O718 O 0.73545 0.09154 0.97648 0.0
O719 O 0.82691 0.14974 0.86622 0.0
O720 O 0.79499 0.15979 0.97648 0.0
O721 O 0.75445 0.13687 0.01826 0.0
O722 O 0.687 0.09027 0.93543 0.0
O723 O 0.74651 0.14673 0.87882 0.0
O724 O 0.774 0.13864 0.91249 0.0
O725 O 0.6965 0.11031 0.01194 0.0
O726 O 0.73072 0.09557 0.89048 0.0
O727 O 0.77391 0.10291 0.87882 0.0
C728 C 0.75482 0.08947 0.99858 0.0
C729 C 0.87206 0.17073 0.88452 0.0
C730 C 0.91942 0.19745 0.88811 0.0
C731 C 0.92125 0.17713 0.86302 0.0
C732 C 0.87473 0.15106 0.85876 0.0
C733 C 0.8991 0.15422 0.84846 0.0
C734 C 0.89458 0.19397 0.89932 0.0
C735 C 0.77931 0.15531 0.01901 0.0
C736 C 0.84599 0.16721 0.8954 0.0
C737 C 0.83457 0.06153 0.98833 0.0
C738 C 0.83864 0.07323 0.04051 0.0
C739 C 0.76963 0.1508 0.87375 0.0
C740 C 0.65323 0.09371 0.9796 0.0
C741 C 0.60546 0.0722 0.97889 0.0
C742 C 0.60758 0.09646 0.97026 0.0
C743 C 0.65427 0.11751 0.97241 0.0
C744 C 0.62856 0.07091 0.98371 0.0
C745 C 0.63171 0.11884 0.96743 0.0
C746 C 0.74848 0.09076 0.86813 0.0
C747 C 0.67784 0.09287 0.98206 0.0
H748 H 0.93991 0.17883 0.855 0.0
H749 H 0.85804 0.13323 0.84616 0.0
H750 H 0.90083 0.13881 0.82895 0.0
H751 H 0.89274 0.20939 0.91858 0.0
H752 H 0.5904 0.09819 0.9667 0.0
H753 H 0.67258 0.13522 0.97093 0.0
H754 H 0.62735 0.05237 0.98985 0.0
H755 H 0.63293 0.1374 0.96157 0.0
Tb756 Tb 0.68589 0.8949 0.54824 0.0
C757 C 0.57247 0.84961 0.60389 0.0
N758 N 0.58535 0.85611 0.55468 0.0
C759 C 0.55516 0.81454 0.51747 0.0
C760 C 0.55087 0.82485 0.61225 0.0
C761 C 0.57652 0.83934 0.51106 0.0
C762 C 0.5424 0.80718 0.56836 0.0
C763 C 0.56868 0.86159 0.69806 0.0
C764 C 0.58141 0.86777 0.64644 0.0
C765 C 0.54723 0.83687 0.70661 0.0
C766 C 0.53837 0.81855 0.66387 0.0
Tb767 Tb 0.61874 0.89756 0.54914 0.0
N768 N 0.60255 0.89142 0.63714 0.0
C769 C 0.57781 0.88048 0.73953 0.0
C770 C 0.61114 0.91013 0.67716 0.0
C771 C 0.59901 0.90488 0.72888 0.0
H772 H 0.58546 0.84498 0.47091 0.0
H773 H 0.60592 0.91975 0.7604 0.0
H774 H 0.71838 0.91581 0.6662 0.0
H775 H 0.72013 0.91021 0.33671 0.0
H776 H 0.62675 0.92943 0.66922 0.0
H777 H 0.56851 0.8765 0.7797 0.0
H778 H 0.68962 0.88669 0.41297 0.0
H779 H 0.54837 0.8012 0.48294 0.0
H780 H 0.53729 0.83176 0.74609 0.0
H781 H 0.52175 0.7996 0.67109 0.0
H782 H 0.76088 0.95176 0.69596 0.0
H783 H 0.52583 0.78797 0.57309 0.0
H784 H 0.76134 0.95029 0.3567 0.0
N785 N 0.72499 0.92594 0.58098 0.0
C786 C 0.74241 0.94087 0.54189 0.0
C787 C 0.75582 0.94907 0.65252 0.0
C788 C 0.76701 0.96131 0.55678 0.0
C789 C 0.73174 0.92888 0.63561 0.0
C790 C 0.7734 0.96562 0.613 0.0
N791 N 0.71251 0.91415 0.47422 0.0
C792 C 0.7074 0.90428 0.42169 0.0
C793 C 0.75413 0.94866 0.44485 0.0
C794 C 0.73598 0.93476 0.48666 0.0
C795 C 0.74791 0.94015 0.39007 0.0
C796 C 0.72467 0.91753 0.37861 0.0
H797 H 0.7921 0.98114 0.62618 0.0
H798 H 0.80351 0.99222 0.52574 0.0
H799 H 0.79229 0.98107 0.42772 0.0
O800 O 0.67405 0.85513 0.5466 0.0
O801 O 0.67914 0.91696 0.48414 0.0
O802 O 0.65356 0.93241 0.52014 0.0
O803 O 0.71394 0.88356 0.55564 0.0
O804 O 0.64981 0.86644 0.50827 0.0
O805 O 0.62732 0.88421 0.47038 0.0
O806 O 0.59546 0.91413 0.56707 0.0
O807 O 0.62352 0.8667 0.59112 0.0
O808 O 0.66492 0.88508 0.62603 0.0
O809 O 0.59689 0.90177 0.48516 0.0
O810 O 0.65166 0.92969 0.59204 0.0
O811 O 0.6824 0.91774 0.61681 0.0
C812 C 0.6737 0.93554 0.49136 0.0
C813 C 0.70075 0.84307 0.59563 0.0
C814 C 0.71164 0.8096 0.61702 0.0
C815 C 0.71171 0.81509 0.67361 0.0
C816 C 0.70079 0.84818 0.65229 0.0
C817 C 0.70605 0.83408 0.69105 0.0
C818 C 0.70585 0.82354 0.57818 0.0
C819 C 0.63862 0.87008 0.46536 0.0
C820 C 0.6973 0.85907 0.55404 0.0
C821 C 0.78461 0.97623 0.51516 0.0
C822 C 0.7782 0.9699 0.45931 0.0
C823 C 0.63992 0.86931 0.63096 0.0
C824 C 0.59151 0.93874 0.49567 0.0
C825 C 0.57631 0.97033 0.488 0.0
C826 C 0.60009 0.98772 0.46323 0.0
C827 C 0.61486 0.9567 0.47057 0.0
C828 C 0.57202 0.94556 0.50388 0.0
C829 C 0.61905 0.9809 0.45442 0.0
C830 C 0.67225 0.93307 0.61997 0.0
C831 C 0.58839 0.91381 0.51636 0.0
H832 H 0.71597 0.80455 0.70432 0.0
H833 H 0.69701 0.86323 0.6664 0.0
H834 H 0.70604 0.83809 0.73474 0.0
H835 H 0.70614 0.81976 0.53436 0.0
H836 H 0.60399 1.00668 0.45012 0.0
H837 H 0.63005 0.95211 0.46383 0.0
H838 H 0.55399 0.93198 0.52374 0.0
H839 H 0.63721 0.99456 0.43521 0.0
Tb840 Tb 0.13578 0.79969 0.56353 0.0
C841 C 0.17431 0.71582 0.57047 0.0
N842 N 0.16483 0.72501 0.53056 0.0
C843 C 0.20004 0.73213 0.4707 0.0
C844 C 0.1977 0.71569 0.56284 0.0
C845 C 0.17653 0.7314 0.47974 0.0
C846 C 0.21093 0.7247 0.51275 0.0
C847 C 0.16832 0.69456 0.65946 0.0
C848 C 0.15967 0.70492 0.61789 0.0
C849 C 0.19199 0.69516 0.65267 0.0
C850 C 0.20663 0.70569 0.60449 0.0
Tb851 Tb 0.1257 0.72186 0.55147 0.0
N852 N 0.1371 0.70519 0.62375 0.0
C853 C 0.1529 0.68392 0.70657 0.0
C854 C 0.12168 0.69437 0.66901 0.0
C855 C 0.12944 0.68374 0.71124 0.0
H856 H 0.16756 0.735 0.44492 0.0
H857 H 0.11733 0.67539 0.74733 0.0
H858 H 0.10117 0.8053 0.66502 0.0
H859 H 0.15263 0.83863 0.357 0.0
H860 H 0.10351 0.69417 0.67257 0.0
H861 H 0.15886 0.67572 0.73943 0.0
H862 H 0.16328 0.82363 0.44305 0.0
H863 H 0.2094 0.73775 0.43069 0.0
H864 H 0.19904 0.68734 0.68418 0.0
H865 H 0.22462 0.70557 0.59939 0.0
H866 H 0.06258 0.81026 0.67347 0.0
H867 H 0.22894 0.72489 0.50524 0.0
H868 H 0.11287 0.84192 0.35259 0.0
N869 N 0.10228 0.80745 0.57738 0.0
C870 C 0.09395 0.81455 0.53218 0.0
C871 C 0.07086 0.81098 0.63318 0.0
C872 C 0.07263 0.81859 0.5348 0.0
C873 C 0.09232 0.80753 0.62821 0.0
C874 C 0.06054 0.81591 0.58597 0.0
N875 N 0.12936 0.81692 0.48506 0.0
C876 C 0.14569 0.82435 0.44081 0.0
C877 C 0.10147 0.82875 0.43682 0.0
C878 C 0.10823 0.81981 0.48431 0.0
C879 C 0.11739 0.83505 0.39007 0.0
C880 C 0.13981 0.83317 0.39236 0.0
H881 H 0.04411 0.81887 0.58991 0.0
H882 H 0.04835 0.82915 0.48784 0.0
H883 H 0.07355 0.83786 0.40169 0.0
O884 O 0.17018 0.83631 0.55852 0.0
O885 O 0.11306 0.77435 0.49545 0.0
O886 O 0.09576 0.73135 0.5245 0.0
O887 O 0.14997 0.82115 0.63678 0.0
O888 O 0.16443 0.79205 0.52236 0.0
O889 O 0.14217 0.75087 0.48235 0.0
O890 O 0.09479 0.68352 0.56188 0.0
O891 O 0.15086 0.74344 0.6228 0.0
O892 O 0.14322 0.77054 0.58562 0.0
O893 O 0.11722 0.69414 0.48828 0.0
O894 O 0.09955 0.72769 0.60786 0.0
O895 O 0.10743 0.77077 0.62281 0.0
C896 C 0.09369 0.75046 0.50126 0.0
C897 C 0.18905 0.86332 0.64123 0.0
C898 C 0.22557 0.90759 0.64269 0.0
C899 C 0.2268 0.90613 0.70042 0.0
C900 C 0.19025 0.86269 0.69918 0.0
C901 C 0.20924 0.88376 0.72837 0.0
C902 C 0.2068 0.88603 0.61292 0.0
C903 C 0.16036 0.77585 0.48089 0.0
C904 C 0.16951 0.84003 0.61142 0.0
C905 C 0.06491 0.82629 0.48694 0.0
C906 C 0.07932 0.83135 0.43796 0.0
C907 C 0.15511 0.76665 0.6257 0.0
C908 C 0.09972 0.65044 0.51887 0.0
C909 C 0.078 0.60269 0.52001 0.0
C910 C 0.10216 0.60468 0.5295 0.0
C911 C 0.12345 0.65137 0.52681 0.0
C912 C 0.07687 0.62584 0.51459 0.0
C913 C 0.12461 0.62874 0.53247 0.0
C914 C 0.09493 0.7452 0.63208 0.0
C915 C 0.09894 0.67505 0.51587 0.0
H916 H 0.24125 0.92243 0.72388 0.0
H917 H 0.17659 0.8458 0.72207 0.0
H918 H 0.21032 0.88267 0.77285 0.0
H919 H 0.20602 0.887 0.56826 0.0
H920 H 0.10375 0.58745 0.53356 0.0
H921 H 0.14123 0.66961 0.52834 0.0
H922 H 0.05839 0.62472 0.50783 0.0
H923 H 0.1431 0.62987 0.53895 0.0
Tb924 Tb 0.22355 0.33551 0.56282 0.0
C925 C 0.30663 0.45877 0.57497 0.0
N926 N 0.29672 0.44002 0.53515 0.0
C927 C 0.28942 0.46827 0.47658 0.0
C928 C 0.30715 0.48248 0.56789 0.0
C929 C 0.2897 0.44524 0.48506 0.0
C930 C 0.29779 0.4868 0.51845 0.0
C931 C 0.328 0.47356 0.66403 0.0
C932 C 0.31744 0.45469 0.62213 0.0
C933 C 0.32805 0.49695 0.65751 0.0
C934 C 0.31768 0.50141 0.60957 0.0
Tb935 Tb 0.29993 0.40405 0.55451 0.0
N936 N 0.31642 0.43151 0.62786 0.0
C937 C 0.33802 0.46823 0.71138 0.0
C938 C 0.32636 0.42625 0.67362 0.0
C939 C 0.33723 0.4445 0.71613 0.0
H940 H 0.2853 0.43244 0.4503 0.0
H941 H 0.34502 0.44029 0.75249 0.0
H942 H 0.22162 0.29551 0.6616 0.0
H943 H 0.18852 0.3147 0.35317 0.0
H944 H 0.32597 0.40801 0.67718 0.0
H945 H 0.34637 0.48228 0.7445 0.0
H946 H 0.20055 0.33908 0.44131 0.0
H947 H 0.28338 0.472 0.43711 0.0
H948 H 0.33612 0.51174 0.68922 0.0
H949 H 0.31815 0.51969 0.60485 0.0
H950 H 0.22039 0.25369 0.66658 0.0
H951 H 0.29789 0.50477 0.51138 0.0
H952 H 0.18891 0.27348 0.34622 0.0
N953 N 0.21943 0.29548 0.57384 0.0
C954 C 0.21382 0.28083 0.52748 0.0
C955 C 0.21903 0.26131 0.62692 0.0
C956 C 0.21202 0.25638 0.52827 0.0
C957 C 0.22037 0.28536 0.62383 0.0
C958 C 0.2154 0.24698 0.57868 0.0
N959 N 0.2093 0.31296 0.48203 0.0
C960 C 0.20143 0.32155 0.43802 0.0
C961 C 0.20109 0.27486 0.43113 0.0
C962 C 0.20823 0.28975 0.47993 0.0
C963 C 0.19446 0.28428 0.38465 0.0
C964 C 0.19428 0.30757 0.38838 0.0
H965 H 0.21414 0.22826 0.58118 0.0
H966 H 0.20484 0.2231 0.47879 0.0
H967 H 0.19539 0.23939 0.39346 0.0
O968 O 0.18832 0.33548 0.55482 0.0
O969 O 0.25037 0.33939 0.49664 0.0
O970 O 0.29241 0.36467 0.53059 0.0
O971 O 0.19694 0.32119 0.62833 0.0
O972 O 0.23006 0.37154 0.52311 0.0
O973 O 0.27151 0.39088 0.48474 0.0
O974 O 0.33913 0.41412 0.56496 0.0
O975 O 0.27693 0.4085 0.62254 0.0
O976 O 0.25089 0.37205 0.59102 0.0
O977 O 0.32666 0.42246 0.48934 0.0
O978 O 0.29464 0.37245 0.61065 0.0
O979 O 0.25131 0.33861 0.62815 0.0
C980 C 0.27402 0.34369 0.50518 0.0
C981 C 0.15317 0.30082 0.60039 0.0
C982 C 0.1065 0.28279 0.59367 0.0
C983 C 0.10291 0.25795 0.60195 0.0
C984 C 0.14924 0.27573 0.60761 0.0
C985 C 0.12422 0.25447 0.60849 0.0
C986 C 0.13168 0.3042 0.59276 0.0
C987 C 0.24659 0.38414 0.48266 0.0
C988 C 0.1794 0.3236 0.60154 0.0
C989 C 0.20599 0.2418 0.47924 0.0
C990 C 0.20053 0.25104 0.43071 0.0
C991 C 0.25417 0.38889 0.62859 0.0
C992 C 0.37029 0.45157 0.51709 0.0
C993 C 0.41783 0.47972 0.51825 0.0
C994 C 0.41437 0.50132 0.52077 0.0
C995 C 0.36787 0.47378 0.51788 0.0
C996 C 0.39554 0.45467 0.51636 0.0
C997 C 0.38966 0.49834 0.52019 0.0
C998 C 0.27691 0.35119 0.63677 0.0
C999 C 0.34657 0.42543 0.51738 0.0
H1000 H 0.08361 0.24125 0.60274 0.0
H1001 H 0.16544 0.27254 0.61294 0.0
H1002 H 0.12133 0.23523 0.61438 0.0
H1003 H 0.1345 0.32344 0.58678 0.0
H1004 H 0.43093 0.52069 0.52198 0.0
H1005 H 0.34911 0.47224 0.51627 0.0
H1006 H 0.39782 0.43777 0.51496 0.0
H1007 H 0.38739 0.51523 0.52118 0.0
H1008 H 0.04511 0.46918 0.94675 0.0
H1009 H 0.06048 0.50225 0.11036 0.0
H1010 H 1.01266 0.48235 0.93324 0.0
H1011 H 0.02764 0.51464 0.09817 0.0
H1012 H 0.9849 0.55628 0.04793 0.0
H1013 H 0.01796 0.54377 0.056 0.0
H1014 H 0.97218 0.47699 0.95314 0.0
H1015 H 0.94017 0.49039 0.94233 0.0
C1016 C 0.04114 0.47873 0.98034 0.0
C1017 C 0.0555 0.48461 0.02961 0.0
C1018 C 0.02249 0.48642 0.97266 0.0
C1019 C 0.01742 0.50004 0.01428 0.0
C1020 C 0.03123 0.50496 0.06429 0.0
C1021 C 0.04996 0.49752 0.07166 0.0
C1022 C 0.98206 0.53919 0.02619 0.0
C1023 C 0.95943 0.5243 0.99505 0.0
C1024 C 1.00094 0.53168 0.03154 0.0
C1025 C 0.99788 0.50895 0.00607 0.0
C1026 C 0.97563 0.49461 0.97342 0.0
C1027 C 0.95691 0.5022 0.96781 0.0
H1028 H 0.53697 0.45457 0.94624 0.0
H1029 H 0.46817 0.43361 0.04217 0.0
H1030 H 0.55013 0.49988 0.95589 0.0
H1031 H 0.48036 0.47904 0.04832 0.0
H1032 H 0.51902 0.56307 0.10003 0.0
H1033 H 0.50761 0.51794 0.09123 0.0
H1034 H 0.54551 0.53466 0.93175 0.0
H1035 H 0.55788 0.58015 0.94243 0.0
C1036 C 0.52448 0.45951 0.96935 0.0
C1037 C 0.5016 0.44002 0.99426 0.0
C1038 C 0.53193 0.48577 0.97418 0.0
C1039 C 0.51662 0.49368 1.00345 0.0
C1040 C 0.49319 0.47412 0.02658 0.0
C1041 C 0.48587 0.44779 0.02222 0.0
C1042 C 0.52527 0.55713 0.06349 0.0
C1043 C 0.53954 0.57531 0.02212 0.0
C1044 C 0.51838 0.53105 0.05794 0.0
C1045 C 0.52514 0.52205 0.01029 0.0
C1046 C 0.54005 0.54052 0.96946 0.0
C1047 C 0.54727 0.56676 0.97549 0.0
H1048 H 0.56605 0.05561 0.90423 0.0
H1049 H 0.58407 0.03738 0.06444 0.0
H1050 H 0.52089 0.0224 0.91571 0.0
H1051 H 0.53857 1.0048 0.07773 0.0
H1052 H 0.45801 0.93361 0.07031 0.0
H1053 H 0.50331 0.96515 0.0579 0.0
H1054 H 0.48217 0.01181 0.95844 0.0
H1055 H 0.43665 0.97906 0.96762 0.0
C1056 C 0.56033 0.04427 0.94189 0.0
C1057 C 0.57881 0.04904 0.98317 0.0
C1058 C 0.53421 0.02539 0.94899 0.0
C1059 C 0.52544 0.0108 0.99813 0.0
C1060 C 0.54421 0.01518 0.0389 0.0
C1061 C 0.57048 0.03389 0.03137 0.0
C1062 C 0.46286 0.95039 0.04509 0.0
C1063 C 0.44323 0.95324 0.01918 0.0
C1064 C 0.48915 0.96889 0.03862 0.0
C1065 C 0.49701 0.9913 0.00658 0.0
C1066 C 0.47731 0.99467 0.98236 0.0
C1067 C 0.45094 0.97596 0.98842 0.0
H1068 H 0.50552 0.06857 0.5033 0.0
H1069 H 0.44001 0.99122 0.51229 0.0
H1070 H 0.53432 0.05073 0.49531 0.0
H1071 H 0.46869 0.97351 0.50855 0.0
H1072 H 0.52496 0.94594 0.45695 0.0
H1073 H 0.49543 0.96321 0.45984 0.0
H1074 H 0.55412 0.03174 0.54246 0.0
H1075 H 0.58368 0.01482 0.53705 0.0
C1076 C 0.49714 0.04777 0.5035 0.0
C1077 C 0.47021 0.03156 0.50926 0.0
C1078 C 0.51381 0.03741 0.49985 0.0
C1079 C 0.50421 0.01043 0.50211 0.0
C1080 C 0.4772 0.99429 0.50627 0.0
C1081 C 0.46059 1.0046 0.50934 0.0
C1082 C 0.53137 0.96453 0.47635 0.0
C1083 C 0.55674 0.97892 0.49673 0.0
C1084 C 0.5144 0.97459 0.47806 0.0
C1085 C 0.52215 0.99925 0.50093 0.0
C1086 C 0.54734 0.01312 0.52302 0.0
C1087 C 0.56433 1.00323 0.5206 0.0
H1088 H 0.04367 0.5816 0.43362 0.0
H1089 H 0.06069 0.56321 0.59468 0.0
H1090 H 1.01083 0.53627 0.41993 0.0
H1091 H 0.02715 0.51821 0.58283 0.0
H1092 H 0.98287 0.43402 0.5312 0.0
H1093 H 0.01607 0.47933 0.54083 0.0
H1094 H 0.97096 0.50141 0.43859 0.0
H1095 H 0.93905 0.45632 0.42563 0.0
C1096 C 0.03986 0.56797 0.46678 0.0
C1097 C 0.05474 0.57614 0.51535 0.0
C1098 C 0.02098 0.54179 0.45902 0.0
C1099 C 0.01613 0.52296 0.49996 0.0
C1100 C 0.03049 0.53157 0.54943 0.0
C1101 C 0.04956 0.5576 0.55674 0.0
C1102 C 0.98022 0.44846 0.50989 0.0
C1103 C 0.95781 0.44108 0.47817 0.0
C1104 C 0.99918 0.47473 0.51621 0.0
C1105 C 0.99638 0.49463 0.49132 0.0
C1106 C 0.97428 0.48709 0.45839 0.0
C1107 C 0.95555 0.46092 0.45161 0.0
H1108 H 0.44072 0.46431 0.43956 0.0
H1109 H 0.45677 0.50703 0.59199 0.0
H1110 H 0.48664 0.47832 0.42951 0.0
H1111 H 0.50241 0.5201 0.58406 0.0
H1112 H 0.5871 0.5598 0.53706 0.0
H1113 H 0.5413 0.54695 0.54072 0.0
H1114 H 0.52218 0.47585 0.4557 0.0
H1115 H 0.5677 0.48958 0.44862 0.0
C1116 C 0.454 0.47612 0.47175 0.0
C1117 C 0.44498 0.48436 0.51674 0.0
C1118 C 0.48052 0.48431 0.46607 0.0
C1119 C 0.49884 0.50074 0.50567 0.0
C1120 C 0.48943 0.50813 0.55169 0.0
C1121 C 0.46305 0.50027 0.55683 0.0
C1122 C 0.57317 0.5417 0.51809 0.0
C1123 C 0.58141 0.52569 0.49325 0.0
C1124 C 0.54666 0.53399 0.52104 0.0
C1125 C 0.52744 0.50994 0.49948 0.0
C1126 C 0.53593 0.49451 0.47273 0.0
C1127 C 0.56232 0.50232 0.4693 0.0
H1128 H 0.96591 0.32548 0.33721 0.0
H1129 H 0.96994 0.25563 0.35494 0.0
H1130 H 1.00438 0.34395 0.27977 0.0
H1131 H 1.00865 0.2742 0.29726 0.0
H1132 H 0.06021 0.30768 0.13904 0.0
H1133 H 0.02271 0.28744 0.20105 0.0
H1134 H 0.05044 0.36036 0.28591 0.0
H1135 H 0.08781 0.38032 0.22372 0.0
C1136 C 0.97478 0.31385 0.32861 0.0
C1137 C 0.96414 0.28859 0.3497 0.0
C1138 C 0.99712 0.32463 0.29597 0.0
C1139 C 1.00968 0.31059 0.28367 0.0
C1140 C 0.99925 0.28542 0.30505 0.0
C1141 C 0.97686 0.27464 0.33789 0.0
C1142 C 0.05847 0.3191 0.17188 0.0
C1143 C 0.07696 0.34537 0.17745 0.0
C1144 C 0.03699 0.30759 0.20726 0.0
C1145 C 0.03344 0.32227 0.24844 0.0
C1146 C 0.05232 0.34855 0.25423 0.0
C1147 C 0.0738 0.35998 0.21896 0.0
H1148 H 0.65136 0.7183 0.22978 0.0
H1149 H 0.71737 0.74978 0.12107 0.0
H1150 H 0.67113 0.69947 0.28747 0.0
H1151 H 0.73634 0.72919 0.17478 0.0
H1152 H 0.77457 0.70357 0.2994 0.0
H1153 H 0.75695 0.72584 0.24823 0.0
H1154 H 0.67986 0.66725 0.29741 0.0
H1155 H 0.69809 0.64741 0.35493 0.0
C1156 C 0.67007 0.72096 0.21814 0.0
C1157 C 0.68285 0.73539 0.17113 0.0
C1158 C 0.68139 0.70989 0.25074 0.0
C1159 C 0.70539 0.71219 0.23592 0.0
C1160 C 0.71819 0.72712 0.18887 0.0
C1161 C 0.70725 0.73889 0.15755 0.0
C1162 C 0.75405 0.69604 0.30127 0.0
C1163 C 0.73818 0.6744 0.33396 0.0
C1164 C 0.74363 0.70845 0.27025 0.0
C1165 C 0.71672 0.69886 0.26877 0.0
C1166 C 0.7007 0.67612 0.29872 0.0
C1167 C 0.71124 0.6643 0.33119 0.0
H1168 H 0.33366 0.08717 0.28752 0.0
H1169 H 0.3659 0.04746 0.37793 0.0
H1170 H 0.3131 0.05051 0.2232 0.0
H1171 H 0.34535 0.01127 0.31507 0.0
H1172 H 0.32992 0.963 0.16214 0.0
H1173 H 0.3495 1.00083 0.22117 0.0
H1174 H 0.27906 1.0045 0.21713 0.0
H1175 H 0.25969 0.96695 0.15612 0.0
C1176 C 0.33625 0.07065 0.29394 0.0
C1177 C 0.35138 0.07033 0.33819 0.0
C1178 C 0.32442 0.04961 0.25721 0.0
C1179 C 0.32768 0.02795 0.26373 0.0
C1180 C 0.34277 0.02775 0.30802 0.0
C1181 C 0.3545 0.0486 0.34443 0.0
C1182 C 0.31835 0.97158 0.17401 0.0
C1183 C 0.29268 0.96111 0.15559 0.0
C1184 C 0.32967 0.99339 0.20809 0.0
C1185 C 0.31576 1.00555 0.22478 0.0
C1186 C 0.29035 0.99562 0.20524 0.0
C1187 C 0.27901 0.97371 0.17099 0.0
H1188 H 0.05495 0.69537 0.63746 0.0
H1189 H 0.08371 0.76992 0.71541 0.0
H1190 H 0.01699 0.67755 0.69728 0.0
H1191 H 0.04462 0.75232 0.77232 0.0
H1192 H 0.95111 0.70622 0.80576 0.0
H1193 H 0.98953 0.72634 0.74636 0.0
H1194 H 1.01426 0.6753 0.81298 0.0
H1195 H 0.97726 0.6565 0.87494 0.0
C1196 C 0.0532 0.70812 0.66687 0.0
C1197 C 0.0723 0.73444 0.67033 0.0
C1198 C 0.0313 0.69787 0.70082 0.0
C1199 C 0.02772 0.7137 0.73852 0.0
C1200 C 0.0467 0.73989 0.74253 0.0
C1201 C 0.06896 0.75005 0.7094 0.0
C1202 C 0.96505 0.69981 0.80913 0.0
C1203 C 0.9612 0.68017 0.84658 0.0
C1204 C 0.9869 0.71113 0.77458 0.0
C1205 C 1.00485 0.70242 0.77552 0.0
C1206 C 1.00069 0.68236 0.81155 0.0
C1207 C 0.97933 0.67154 0.84688 0.0
H1208 H 0.32571 0.35846 0.63888 0.0
H1209 H 0.25249 0.31853 0.72475 0.0
H1210 H 0.34279 0.33776 0.69775 0.0
H1211 H 0.26914 0.29635 0.78169 0.0
H1212 H 0.31923 0.28573 0.91323 0.0
H1213 H 0.29907 0.30387 0.85444 0.0
H1214 H 0.33955 0.29665 0.71295 0.0
H1215 H 0.36058 0.27966 0.77323 0.0
C1216 C 0.31309 0.34508 0.67008 0.0
C1217 C 0.28738 0.3396 0.67591 0.0
C1218 C 0.32285 0.33289 0.7034 0.0
C1219 C 0.30721 0.31491 0.74368 0.0
C1220 C 0.28171 0.30998 0.75081 0.0
C1221 C 0.27197 0.32236 0.71753 0.0
C1222 C 0.32402 0.28847 0.86974 0.0
C1223 C 0.34196 0.28223 0.84781 0.0
C1224 C 0.31214 0.29838 0.83578 0.0
C1225 C 0.31796 0.30212 0.77899 0.0
C1226 C 0.33508 0.2946 0.75672 0.0
C1227 C 0.34697 0.2847 0.79091 0.0
H1228 H 0.70973 0.07523 0.79202 0.0
H1229 H 0.76287 0.05412 0.86225 0.0
H1230 H 0.69167 0.03697 0.73356 0.0
H1231 H 0.74712 0.01744 0.79973 0.0
H1232 H 0.6953 0.93841 0.72087 0.0
H1233 H 0.71386 0.97641 0.78095 0.0
H1234 H 0.69803 0.01857 0.65612 0.0
H1235 H 0.67814 0.98015 0.59846 0.0
C1236 C 0.71799 0.06273 0.79397 0.0
C1237 C 0.73848 0.06832 0.83014 0.0
C1238 C 0.70787 0.04086 0.75991 0.0
C1239 C 0.71813 0.02407 0.76075 0.0
C1240 C 0.73854 0.02968 0.79755 0.0
C1241 C 0.74826 0.05128 0.83233 0.0
C1242 C 0.69589 0.95588 0.70657 0.0
C1243 C 0.68505 0.95629 0.65544 0.0
C1244 C 0.70667 0.97779 0.74079 0.0
C1245 C 0.70734 1.00077 0.72396 0.0
C1246 C 0.69723 1.00119 0.67165 0.0
C1247 C 0.68596 0.97917 0.63823 0.0
H1248 H 0.24432 0.42636 0.66437 0.0
H1249 H 0.22621 0.34859 0.70156 0.0
H1250 H 0.21863 0.42569 0.74473 0.0
H1251 H 0.19919 0.34731 0.77943 0.0
H1252 H 0.13149 0.3656 0.87057 0.0
H1253 H 0.15389 0.36611 0.78407 0.0
H1254 H 0.22723 0.40685 0.86776 0.0
H1255 H 0.205 0.40569 0.95407 0.0
C1256 C 0.23412 0.40876 0.68843 0.0
C1257 C 0.23612 0.38693 0.67409 0.0
C1258 C 0.21941 0.40842 0.73447 0.0
C1259 C 0.20627 0.38621 0.76759 0.0
C1260 C 0.20839 0.36443 0.75369 0.0
C1261 C 0.22344 0.36494 0.70811 0.0
C1262 C 0.1524 0.375 0.87019 0.0
C1263 C 0.16643 0.38575 0.91923 0.0
C1264 C 0.16521 0.37512 0.82082 0.0
C1265 C 0.19235 0.38652 0.81913 0.0
C1266 C 0.20635 0.39791 0.86772 0.0
C1267 C 0.19358 0.39727 0.91713 0.0
H1268 H 0.64306 0.82163 0.96308 0.0
H1269 H 0.62236 0.75124 0.87385 0.0
H1270 H 0.64057 0.84184 0.87873 0.0
H1271 H 0.61811 0.77103 0.78893 0.0
H1272 H 0.64312 0.8254 0.63598 0.0
H1273 H 0.64017 0.80058 0.71866 0.0
H1274 H 0.61594 0.84646 0.81319 0.0
H1275 H 0.62163 0.87254 0.73162 0.0
C1276 C 0.63751 0.81021 0.9255 0.0
C1277 C 0.633 0.78471 0.92568 0.0
C1278 C 0.63577 0.82182 0.87669 0.0
C1279 C 0.62887 0.80822 0.82614 0.0
C1280 C 0.62379 0.78242 0.8265 0.0
C1281 C 0.62594 0.77089 0.87549 0.0
C1282 C 0.63668 0.82974 0.67437 0.0
C1283 C 0.63189 0.85049 0.67703 0.0
C1284 C 0.63488 0.81544 0.72201 0.0
C1285 C 0.62799 0.8214 0.77362 0.0
C1286 C 0.62189 0.84142 0.77506 0.0
C1287 C 0.62437 0.85605 0.72776 0.0
H1288 H 0.26765 0.88258 0.85805 0.0
H1289 H 0.20422 0.8275 0.95835 0.0
H1290 H 0.24486 0.85881 0.77471 0.0
H1291 H 0.18213 0.80305 0.87645 0.0
H1292 H 0.20713 0.79748 0.63726 0.0
H1293 H 0.23093 0.82283 0.71818 0.0
H1294 H 0.15831 0.80044 0.80058 0.0
H1295 H 0.135 0.77449 0.72036 0.0
C1296 C 0.24904 0.86517 0.8624 0.0
C1297 C 0.23783 0.85706 0.91505 0.0
C1298 C 0.23589 0.85137 0.81449 0.0
C1299 C 0.21129 0.82882 0.81792 0.0
C1300 C 0.20054 0.82056 0.87106 0.0
C1301 C 0.21344 0.83453 0.91856 0.0
C1302 C 0.1964 0.79834 0.67262 0.0
C1303 C 0.16925 0.78445 0.67215 0.0
C1304 C 0.21002 0.81293 0.7192 0.0
C1305 C 0.19682 0.81388 0.76695 0.0
C1306 C 0.16947 0.79995 0.76574 0.0
C1307 C 0.15594 0.78536 0.7192 0.0
H1308 H 0.39682 0.13411 0.64429 0.0
H1309 H 0.41005 0.201 0.55068 0.0
H1310 H 0.40139 0.15765 0.73039 0.0
H1311 H 0.41284 0.22394 0.63545 0.0
H1312 H 0.42557 0.26701 0.79248 0.0
H1313 H 0.43268 0.2455 0.71429 0.0
H1314 H 0.3799 0.17135 0.78745 0.0
H1315 H 0.37546 0.19347 0.86775 0.0
C1316 C 0.40085 0.15391 0.64216 0.0
C1317 C 0.40255 0.16548 0.59064 0.0
C1318 C 0.40315 0.1674 0.69159 0.0
C1319 C 0.40712 0.19283 0.69079 0.0
C1320 C 0.41012 0.20467 0.6388 0.0
C1321 C 0.40822 0.19134 0.58972 0.0
C1322 C 0.41643 0.24623 0.79279 0.0
C1323 C 0.39987 0.23196 0.83625 0.0
C1324 C 0.41992 0.23367 0.7471 0.0
C1325 C 0.40647 0.20639 0.74306 0.0
C1326 C 0.39084 0.19226 0.78825 0.0
C1327 C 0.38783 0.20491 0.83419 0.0
H1328 H 0.83225 0.19902 0.54343 0.0
H1329 H 0.87915 0.26796 0.63922 0.0
H1330 H 0.80888 0.17654 0.62623 0.0
H1331 H 0.85578 0.24514 0.7232 0.0
H1332 H 0.78936 0.20187 0.85201 0.0
H1333 H 0.81462 0.22637 0.77133 0.0
H1334 H 0.81327 0.15781 0.70908 0.0
H1335 H 0.78738 0.13342 0.78876 0.0
C1336 C 0.83764 0.20947 0.58226 0.0
C1337 C 0.85777 0.23539 0.58436 0.0
C1338 C 0.8243 0.1964 0.63015 0.0
C1339 C 0.8305 0.20875 0.68206 0.0
C1340 C 0.85028 0.23492 0.68411 0.0
C1341 C 0.86374 0.24806 0.6359 0.0
C1342 C 0.79485 0.19223 0.82132 0.0
C1343 C 0.7871 0.16595 0.82756 0.0
C1344 C 0.8094 0.20627 0.77508 0.0
C1345 C 0.8162 0.19425 0.73326 0.0
C1346 C 0.80831 0.16782 0.73985 0.0
C1347 C 0.79375 0.15384 0.78603 0.0
H1348 H 0.86985 0.60708 0.78801 0.0
H1349 H 0.83998 0.65196 0.86398 0.0
H1350 H 0.84398 0.60142 0.70536 0.0
H1351 H 0.81504 0.64774 0.78063 0.0
H1352 H 0.75951 0.62275 0.63458 0.0
H1353 H 0.77955 0.62037 0.721 0.0
H1354 H 0.84473 0.62712 0.62882 0.0
H1355 H 0.82448 0.62894 0.54288 0.0
C1356 C 0.85731 0.61525 0.78753 0.0
C1357 C 0.8569 0.62984 0.83267 0.0
C1358 C 0.84277 0.61246 0.73965 0.0
C1359 C 0.82743 0.62431 0.73555 0.0
C1360 C 0.82632 0.6381 0.7819 0.0
C1361 C 0.84086 0.6408 0.82962 0.0
C1362 C 0.77792 0.6233 0.63274 0.0
C1363 C 0.79033 0.62606 0.58157 0.0
C1364 C 0.78959 0.62219 0.68244 0.0
C1365 C 0.81393 0.62362 0.68242 0.0
C1366 C 0.82589 0.6256 0.63093 0.0
C1367 C 0.81429 0.6268 0.5814 0.0
H1368 H 0.83418 0.64131 0.05332 0.0
H1369 H 0.88148 0.61855 0.14537 0.0
H1370 H 0.8114 0.64028 0.13758 0.0
H1371 H 0.85854 0.61757 0.2305 0.0
H1372 H 0.79152 0.5936 0.36001 0.0
H1373 H 0.81667 0.59469 0.27861 0.0
H1374 H 0.81774 0.66385 0.22245 0.0
H1375 H 0.79212 0.66217 0.30274 0.0
C1376 C 0.83976 0.63604 0.09157 0.0
C1377 C 0.85991 0.63019 0.09225 0.0
C1378 C 0.82675 0.63564 0.14026 0.0
C1379 C 0.83323 0.62919 0.19146 0.0
C1380 C 0.85288 0.62257 0.19199 0.0
C1381 C 0.86606 0.62311 0.14309 0.0
C1382 C 0.79765 0.60932 0.33074 0.0
C1383 C 0.79065 0.62835 0.33906 0.0
C1384 C 0.81208 0.60997 0.28401 0.0
C1385 C 0.8194 0.62938 0.24355 0.0
C1386 C 0.81241 0.64847 0.25225 0.0
C1387 C 0.79808 0.64783 0.29903 0.0
H1388 H 0.38624 0.19393 0.37348 0.0
H1389 H 0.41769 0.15415 0.28057 0.0
H1390 H 0.38597 0.2166 0.28985 0.0
H1391 H 0.41899 0.17784 0.19794 0.0
H1392 H 0.38967 0.20074 0.04683 0.0
H1393 H 0.39198 0.17988 0.13082 0.0
H1394 H 0.41141 0.24913 0.22381 0.0
H1395 H 0.408 0.26974 0.13924 0.0
C1396 C 0.3933 0.19013 0.33532 0.0
C1397 C 0.4019 0.17204 0.33394 0.0
C1398 C 0.39343 0.2034 0.28732 0.0
C1399 C 0.40248 0.19921 0.23663 0.0
C1400 C 0.41146 0.18139 0.23568 0.0
C1401 C 0.41099 0.16791 0.28345 0.0
C1402 C 0.39461 0.21166 0.08506 0.0
C1403 C 0.3985 0.23694 0.08615 0.0
C1404 C 0.3961 0.19968 0.13348 0.0
C1405 C 0.40186 0.21266 0.18466 0.0
C1406 C 0.40652 0.23828 0.18551 0.0
C1407 C 0.40489 0.25028 0.13685 0.0
H1408 H 0.76173 0.14488 0.12736 0.0
H1409 H 0.82369 0.2019 0.02639 0.0
H1410 H 0.78409 0.1696 0.21069 0.0
H1411 H 0.84592 0.22605 0.10899 0.0
H1412 H 0.8932 0.23534 0.26751 0.0
H1413 H 0.86729 0.21475 0.18579 0.0
H1414 H 0.80187 0.21504 0.26147 0.0
H1415 H 0.82824 0.23613 0.34426 0.0
C1416 C 0.77981 0.16286 0.12274 0.0
C1417 C 0.79089 0.17126 0.06994 0.0
C1418 C 0.79262 0.17703 0.17053 0.0
C1419 C 0.8169 0.19974 0.16658 0.0
C1420 C 0.82741 0.20853 0.11366 0.0
C1421 C 0.81459 0.19462 0.06618 0.0
C1422 C 0.87338 0.23134 0.26669 0.0
C1423 C 0.86283 0.23744 0.31249 0.0
C1424 C 0.85851 0.21955 0.21966 0.0
C1425 C 0.83246 0.21318 0.21693 0.0
C1426 C 0.82184 0.21955 0.2624 0.0
C1427 C 0.83698 0.23184 0.30954 0.0
H1428 H 0.67045 0.78985 0.20197 0.0
H1429 H 0.5986 0.78376 0.1501 0.0
H1430 H 0.67223 0.81625 0.28078 0.0
H1431 H 0.5997 0.80951 0.23031 0.0
H1432 H 0.62165 0.87472 0.36153 0.0
H1433 H 0.62106 0.85198 0.27621 0.0
H1434 H 0.65003 0.80949 0.36691 0.0
H1435 H 0.65078 0.832 0.45082 0.0
C1436 C 0.65538 0.79475 0.20654 0.0
C1437 C 0.63493 0.78557 0.16851 0.0
C1438 C 0.65609 0.80953 0.25247 0.0
C1439 C 0.63607 0.81513 0.26236 0.0
C1440 C 0.61568 0.80604 0.22385 0.0
C1441 C 0.61501 0.79123 0.17789 0.0
C1442 C 0.62774 0.86042 0.36318 0.0
C1443 C 0.6364 0.85543 0.41332 0.0
C1444 C 0.62742 0.84735 0.31423 0.0
C1445 C 0.63586 0.82905 0.31415 0.0
C1446 C 0.64399 0.82382 0.36463 0.0
C1447 C 0.64421 0.83671 0.41322 0.0
H1448 H 0.20795 0.81906 0.47299 0.0
H1449 H 0.14914 0.75829 0.37286 0.0
H1450 H 0.23157 0.8414 0.38973 0.0
H1451 H 0.17323 0.7807 0.28892 0.0
H1452 H 0.23797 0.82495 0.15197 0.0
H1453 H 0.21794 0.79829 0.23497 0.0
H1454 H 0.21954 0.86364 0.31547 0.0
H1455 H 0.23903 0.88985 0.23344 0.0
C1456 C 0.20021 0.81021 0.4332 0.0
C1457 C 0.17639 0.78698 0.42982 0.0
C1458 C 0.21378 0.8231 0.38537 0.0
C1459 C 0.20422 0.81302 0.33252 0.0
C1460 C 0.18121 0.78896 0.32897 0.0
C1461 C 0.1674 0.77611 0.3771 0.0
C1462 C 0.2343 0.83361 0.18773 0.0
C1463 C 0.24008 0.85954 0.18601 0.0
C1464 C 0.22264 0.81831 0.23505 0.0
C1465 C 0.21712 0.82881 0.28198 0.0
C1466 C 0.22369 0.85493 0.28045 0.0
C1467 C 0.23483 0.86997 0.23323 0.0
H1468 H 0.14271 0.39098 0.23449 0.0
H1469 H 0.21153 0.40942 0.14183 0.0
H1470 H 0.16293 0.38704 0.31852 0.0
H1471 H 0.23281 0.40765 0.22604 0.0
H1472 H 0.25918 0.38065 0.3751 0.0
H1473 H 0.23885 0.38445 0.29111 0.0
H1474 H 0.19037 0.40389 0.39003 0.0
H1475 H 0.20946 0.39793 0.47356 0.0
C1476 C 0.16241 0.39468 0.23236 0.0
C1477 C 0.17545 0.40037 0.18138 0.0
C1478 C 0.17426 0.39261 0.28089 0.0
C1479 C 0.19985 0.39694 0.28035 0.0
C1480 C 0.21299 0.40341 0.22907 0.0
C1481 C 0.20089 0.40479 0.18044 0.0
C1482 C 0.24429 0.38593 0.37863 0.0
C1483 C 0.23601 0.38906 0.43103 0.0
C1484 C 0.23256 0.38826 0.33021 0.0
C1485 C 0.21265 0.39458 0.33249 0.0
C1486 C 0.20501 0.39838 0.38543 0.0
C1487 C 0.21623 0.3953 0.43378 0.0
H1488 H 0.25669 0.34003 0.12069 0.0
H1489 H 0.21251 0.25714 0.14164 0.0
H1490 H 0.29425 0.33666 0.09288 0.0
H1491 H 0.25015 0.25392 0.11492 0.0
H1492 H 0.32855 0.25883 0.11577 0.0
H1493 H 0.29353 0.26544 0.14921 0.0
H1494 H 0.3094 0.32018 0.01747 0.0
H1495 H 0.34435 0.31357 0.98468 0.0
C1496 C 0.25486 0.32107 0.1189 0.0
C1497 C 0.23149 0.29887 0.13361 0.0
C1498 C 0.27647 0.31916 0.10318 0.0
C1499 C 0.2753 0.29503 0.10209 0.0
C1500 C 0.2519 0.27285 0.11633 0.0
C1501 C 0.23028 0.27472 0.13167 0.0
C1502 C 0.32427 0.272 0.09369 0.0
C1503 C 0.33801 0.28435 0.04554 0.0
C1504 C 0.30434 0.27591 0.11293 0.0
C1505 C 0.29813 0.29278 0.08504 0.0
C1506 C 0.31344 0.30685 0.03966 0.0
C1507 C 0.33336 0.30289 0.02058 0.0
H1508 H 0.78075 0.07736 0.07527 0.0
H1509 H 0.71605 0.04241 0.963 0.0
H1510 H 0.77489 0.03505 0.09683 0.0
H1511 H 0.70859 0.99968 0.988 0.0
H1512 H 0.72127 0.92957 0.99657 0.0
H1513 H 0.7242 0.97103 0.97587 0.0
H1514 H 0.75002 0.99653 0.14321 0.0
H1515 H 0.74831 0.95565 0.1623 0.0
C1516 C 0.76523 0.06059 0.05523 0.0
C1517 C 0.74928 0.06339 0.01658 0.0
C1518 C 0.76147 0.03614 0.06842 0.0
C1519 C 0.74118 0.01362 0.04431 0.0
C1520 C 0.72469 0.01643 0.00683 0.0
C1521 C 0.72874 0.04099 0.99304 0.0
C1522 C 0.72726 0.94401 0.02892 0.0
C1523 C 0.73467 0.93948 0.0809 0.0
C1524 C 0.72891 0.96781 0.01724 0.0
C1525 C 0.73765 0.98751 0.0576 0.0
C1526 C 0.74391 0.98231 0.11043 0.0
C1527 C 0.74268 0.95874 0.1217 0.0
H1528 H 0.95737 0.6906 0.12178 0.0
H1529 H 0.98545 0.69424 0.95587 0.0
H1530 H 1.00048 0.72452 0.15043 0.0
H1531 H 0.028 0.72878 0.98292 0.0
H1532 H 0.10795 0.77213 0.05747 0.0
H1533 H 0.06499 0.7374 0.03263 0.0
H1534 H 0.03092 0.76915 0.14347 0.0
H1535 H 0.07415 0.80333 0.1698 0.0
C1536 C 0.97282 0.69875 0.0915 0.0
C1537 C 0.96821 0.68982 0.03673 0.0
C1538 C 0.99747 0.71831 0.10765 0.0
C1539 C 0.01793 0.72948 0.0691 0.0
C1540 C 1.01304 0.72039 0.0142 0.0
C1541 C 0.98857 0.70061 0.99846 0.0
C1542 C 0.09125 0.77167 0.07642 0.0
C1543 C 0.09442 0.79045 0.11551 0.0
C1544 C 0.06655 0.75182 0.06202 0.0
C1545 C 0.04429 0.7504 0.08574 0.0
C1546 C 0.04752 0.76927 0.12496 0.0
C1547 C 0.0723 0.78895 0.13993 0.0
H1548 H 0.31327 0.24462 0.31392 0.0
H1549 H 0.29757 0.21001 0.47646 0.0
H1550 H 0.30527 0.27831 0.34814 0.0
H1551 H 0.29045 0.24465 0.51118 0.0
H1552 H 0.30532 0.3284 0.55518 0.0
H1553 H 0.31434 0.29434 0.52565 0.0
H1554 H 0.26574 0.27968 0.38261 0.0
H1555 H 0.25679 0.31366 0.41226 0.0
C1556 C 0.30806 0.24408 0.35702 0.0
C1557 C 0.3056 0.22408 0.392 0.0
C1558 C 0.30353 0.26354 0.37665 0.0
C1559 C 0.29684 0.26403 0.4322 0.0
C1560 C 0.29557 0.24484 0.4681 0.0
C1561 C 0.29978 0.22504 0.44821 0.0
C1562 C 0.29666 0.31796 0.51736 0.0
C1563 C 0.2803 0.32372 0.48612 0.0
C1564 C 0.30165 0.29829 0.50069 0.0
C1565 C 0.29082 0.28428 0.45169 0.0
C1566 C 0.27458 0.29021 0.42033 0.0
C1567 C 0.26931 0.30957 0.43746 0.0
H1568 H 0.71866 0.96801 0.54091 0.0
H1569 H 0.67005 0.96316 0.40523 0.0
H1570 H 0.75202 0.01009 0.51028 0.0
H1571 H 0.70146 1.00738 0.37852 0.0
H1572 H 0.77058 0.07911 0.31129 0.0
H1573 H 0.73849 0.03589 0.33785 0.0
H1574 H 0.7677 0.0519 0.50557 0.0
H1575 H 0.80211 0.09318 0.47706 0.0
C1576 C 0.71544 0.97602 0.50376 0.0
C1577 C 0.69268 0.96188 0.47348 0.0
C1578 C 0.73419 1.00074 0.48705 0.0
C1579 C 0.72994 0.01282 0.44133 0.0
C1580 C 0.70621 0.99885 0.4127 0.0
C1581 C 0.68792 0.97355 0.4283 0.0
C1582 C 0.77076 0.0733 0.35354 0.0
C1583 C 0.78955 0.09022 0.39149 0.0
C1584 C 0.75169 0.04837 0.36933 0.0
C1585 C 0.75007 0.03971 0.42419 0.0
C1586 C 0.76833 0.057 0.46249 0.0
C1587 C 0.78798 0.08145 0.44622 0.0
H1588 H 0.93446 0.7183 0.50177 0.0
H1589 H 0.95929 0.74093 0.33341 0.0
H1590 H 0.97597 0.72146 0.5232 0.0
H1591 H 1.00024 0.74291 0.35348 0.0
H1592 H 0.08159 0.77479 0.42073 0.0
H1593 H 0.03923 0.76875 0.39817 0.0
H1594 H 1.00396 0.70484 0.51315 0.0
H1595 H 0.0467 0.71253 0.53886 0.0
C1596 C 0.94864 0.72339 0.46909 0.0
C1597 C 0.94376 0.72951 0.41608 0.0
C1598 C 0.97246 0.72516 0.4812 0.0
C1599 C 0.9918 0.73272 0.44028 0.0
C1600 C 0.98627 0.73772 0.38659 0.0
C1601 C 0.96268 0.73636 0.37482 0.0
C1602 C 0.06483 0.75982 0.44193 0.0
C1603 C 0.06764 0.74467 0.48263 0.0
C1604 C 0.04036 0.75593 0.42819 0.0
C1605 C 0.01789 0.73629 0.45385 0.0
C1606 C 0.02071 0.72048 0.49318 0.0
C1607 C 0.04526 0.72467 0.50745 0.0
H1608 H 0.68842 0.71361 0.04987 0.0
H1609 H 0.70893 0.76602 0.91183 0.0
H1610 H 0.7234 0.70519 0.02531 0.0
H1611 H 0.74349 0.757 0.8864 0.0
H1612 H 0.77643 0.70168 0.83224 0.0
H1613 H 0.74227 0.71089 0.85733 0.0
H1614 H 0.77724 0.7381 0.01723 0.0
H1615 H 0.81263 0.73075 0.99139 0.0
C1616 C 0.70033 0.72326 0.01416 0.0
C1617 C 0.69622 0.74084 0.98331 0.0
C1618 C 0.72038 0.7185 1.0003 0.0
C1619 C 0.73616 0.73054 0.95417 0.0
C1620 C 0.73158 0.7475 0.92223 0.0
C1621 C 0.71193 0.75275 0.93692 0.0
C1622 C 0.77733 0.71009 0.87244 0.0
C1623 C 0.79773 0.7156 0.90942 0.0
C1624 C 0.75755 0.71517 0.88684 0.0
C1625 C 0.7572 0.72523 0.93908 0.0
C1626 C 0.77703 0.73019 0.97673 0.0
C1627 C 0.7972 0.72571 0.96192 0.0
H1628 H 0.29242 0.08754 0.96992 0.0
H1629 H 0.32918 0.08351 0.81857 0.0
H1630 H 0.28477 0.04486 0.99585 0.0
H1631 H 0.31985 0.0401 0.84356 0.0
H1632 H 0.26572 0.95084 0.89218 0.0
H1633 H 0.27487 0.99411 0.8639 0.0
H1634 H 0.3174 0.02593 0.01516 0.0
H1635 H 0.30873 0.98293 0.0428 0.0
C1636 C 0.29909 0.07781 0.94225 0.0
C1637 C 0.31163 0.08934 0.8921 0.0
C1638 C 0.29444 0.05321 0.95704 0.0
C1639 C 0.30168 0.03927 0.9216 0.0
C1640 C 0.31388 0.05043 0.87131 0.0
C1641 C 0.31906 0.07528 0.85698 0.0
C1642 C 0.27704 0.96712 0.91919 0.0
C1643 C 0.28632 0.96355 0.96982 0.0
C1644 C 0.28239 0.99182 0.90293 0.0
C1645 C 0.29673 0.01324 0.93755 0.0
C1646 C 0.30617 1.00967 0.98795 0.0
C1647 C 0.3013 0.98512 1.00358 0.0
H1648 H 0.0812 0.30115 0.95116 0.0
H1649 H 0.04653 0.3438 0.01832 0.0
H1650 H 0.03876 0.2672 0.92023 0.0
H1651 H 1.00406 0.31006 0.98649 0.0
H1652 H 0.93064 0.22689 0.98279 0.0
H1653 H 0.97228 0.264 0.00938 0.0
H1654 H 1.00476 0.25999 0.85242 0.0
H1655 H 0.96329 0.22331 0.82565 0.0
C1656 C 0.06454 0.30332 0.95909 0.0
C1657 C 0.06727 0.32514 0.98726 0.0
C1658 C 0.04021 0.28398 0.94096 0.0
C1659 C 0.01795 0.28588 0.95094 0.0
C1660 C 0.02075 0.30789 0.97852 0.0
C1661 C 0.04514 0.32736 0.99616 0.0
C1662 C 0.94653 0.23424 0.9536 0.0
C1663 C 0.94367 0.22186 0.90239 0.0
C1664 C 0.97042 0.25547 0.96886 0.0
C1665 C 0.99197 0.26474 0.9333 0.0
C1666 C 0.98875 0.253 0.88128 0.0
C1667 C 0.96494 0.23196 0.86596 0.0
H1668 H 0.75489 0.80693 0.64092 0.0
H1669 H 0.68282 0.76741 0.55199 0.0
H1670 H 0.76551 0.77419 0.61166 0.0
H1671 H 0.69232 0.73358 0.52548 0.0
H1672 H 0.72407 0.68649 0.44693 0.0
H1673 H 0.71583 0.72131 0.47105 0.0
H1674 H 0.75717 0.73265 0.62492 0.0
H1675 H 0.76653 0.69872 0.59856 0.0
C1676 C 0.7412 0.791 0.61549 0.0
C1677 C 0.71804 0.78966 0.59871 0.0
C1678 C 0.74714 0.77204 0.59899 0.0
C1679 C 0.72977 0.75086 0.5663 0.0
C1680 C 0.70654 0.74968 0.54963 0.0
C1681 C 0.70091 0.76898 0.56512 0.0
C1682 C 0.73134 0.69647 0.48589 0.0
C1683 C 0.74597 0.68995 0.52082 0.0
C1684 C 0.72651 0.71642 0.50005 0.0
C1685 C 0.73564 0.73 0.55031 0.0
C1686 C 0.75015 0.72317 0.58542 0.0
C1687 C 0.75539 0.70354 0.57062 0.0
H1688 H 0.27502 0.92313 0.6124 0.0
H1689 H 0.21795 0.94724 0.61399 0.0
H1690 H 0.30775 0.96604 0.58006 0.0
H1691 H 0.25043 0.99019 0.58086 0.0
H1692 H 0.3214 0.07151 0.58945 0.0
H1693 H 0.28861 0.02796 0.61694 0.0
H1694 H 0.32144 0.996 0.50361 0.0
H1695 H 0.35417 0.03953 0.47637 0.0
C1696 C 0.26944 0.93755 0.60451 0.0
C1697 C 0.24403 0.93195 0.61483 0.0
C1698 C 0.28813 0.96212 0.58608 0.0
C1699 C 0.28182 0.9817 0.57818 0.0
C1700 C 0.25608 0.97573 0.58727 0.0
C1701 C 0.2374 0.9511 0.60548 0.0
C1702 C 0.32152 0.05518 0.57023 0.0
C1703 C 0.34014 0.05903 0.53003 0.0
C1704 C 0.30267 0.03018 0.58587 0.0
C1705 C 0.30212 1.00837 0.56202 0.0
C1706 C 0.32131 0.01228 0.52311 0.0
C1707 C 0.34013 0.03729 0.50748 0.0
H1708 H 0.98459 0.31026 0.47074 0.0
H1709 H 0.94976 0.25395 0.60101 0.0
H1710 H 0.02679 0.31581 0.49369 0.0
H1711 H 0.9913 0.25753 0.62104 0.0
H1712 H 0.07175 0.27877 0.67124 0.0
H1713 H 0.03249 0.28122 0.65721 0.0
H1714 H 0.05017 0.29447 0.48248 0.0
H1715 H 0.09013 0.29353 0.49797 0.0
C1716 C 0.98595 0.29905 0.50442 0.0
C1717 C 0.96369 0.28106 0.53314 0.0
C1718 C 1.01013 0.30195 0.51711 0.0
C1719 C 1.01261 0.28679 0.55861 0.0
C1720 C 0.99042 0.26972 0.58902 0.0
C1721 C 0.96638 0.2672 0.57687 0.0
C1722 C 0.06727 0.2826 0.63013 0.0
C1723 C 0.0838 0.28607 0.58567 0.0
C1724 C 0.04467 0.28376 0.62182 0.0
C1725 C 0.03785 0.28786 0.56854 0.0
C1726 C 0.05485 0.29175 0.52426 0.0
C1727 C 0.07768 0.29106 0.53288 0.0
loop_
_geom_bond_atom_site_label_1
_geom_bond_atom_site_label_2
_geom_bond_distance
_geom_bond_site_symmetry_2
_ccdc_geom_bond_type
Tb0 N29 2.617 . S
Tb0 N35 2.572 . S
Tb0 O44 2.465 . S
Tb0 O45 2.387 . S
Tb0 O47 2.428 . S
Tb0 O48 2.308 . S
Tb0 O52 2.349 . S
Tb0 O55 2.393 1_554 S
Tb0 C64 2.802 . S
C1 N2 1.379 . S
C1 C4 1.416 . S
C1 C8 1.424 . S
N2 C1 1.379 . S
N2 C5 1.334 . S
N2 Tb11 2.617 . S
C3 C5 1.390 . S
C3 C6 1.339 . S
C3 H23 0.930 . S
C4 C1 1.416 . S
C4 C6 1.416 . S
C4 C10 1.448 . S
C5 N2 1.334 . S
C5 C3 1.390 . S
C5 H16 0.930 . S
C6 C3 1.339 . S
C6 C4 1.416 . S
C6 H27 0.930 . S
C7 C8 1.413 1_556 S
C7 C9 1.427 . S
C7 C13 1.416 . S
C8 C1 1.424 . S
C8 C7 1.413 1_554 S
C8 N12 1.361 . S
C9 C7 1.427 . S
C9 C10 1.328 1_556 S
C9 H24 0.929 . S
C10 C4 1.448 . S
C10 C9 1.328 1_554 S
C10 H25 0.930 . S
Tb11 N2 2.617 . S
Tb11 N12 2.572 . S
Tb11 O46 2.349 . S
Tb11 O49 2.393 . S
Tb11 O50 2.465 . S
Tb11 O51 2.387 . S
Tb11 O53 2.428 . S
Tb11 O54 2.308 . S
Tb11 C75 2.802 . S
N12 C8 1.361 . S
N12 Tb11 2.572 . S
N12 C14 1.340 1_554 S
C13 C7 1.416 . S
C13 C15 1.332 . S
C13 H21 0.931 . S
C14 N12 1.340 1_556 S
C14 C15 1.407 . S
C14 H20 0.930 . S
C15 C13 1.332 . S
C15 C14 1.407 . S
C15 H17 0.929 . S
H16 C5 0.930 . S
H17 C15 0.929 . S
H18 C33 0.930 1_556 S
H19 C40 0.929 . S
H20 C14 0.930 . S
H21 C13 0.931 . S
H22 C36 0.930 . S
H23 C3 0.930 . S
H24 C9 0.929 . S
H25 C10 0.930 . S
H26 C31 0.930 . S
H27 C6 0.930 . S
H28 C39 0.931 . S
N29 Tb0 2.617 . S
N29 C30 1.379 . S
N29 C33 1.334 . S
C30 N29 1.379 . S
C30 C32 1.416 . S
C30 C38 1.424 . S
C31 H26 0.930 . S
C31 C33 1.390 1_556 S
C31 C34 1.339 1_556 S
C32 C30 1.416 . S
C32 C34 1.416 . S
C32 C65 1.448 . S
C33 H18 0.930 1_554 S
C33 N29 1.334 . S
C33 C31 1.390 1_554 S
C34 C31 1.339 1_554 S
C34 C32 1.416 . S
C34 H41 0.930 . S
N35 Tb0 2.572 . S
N35 C36 1.340 . S
N35 C38 1.361 . S
C36 H22 0.930 . S
C36 N35 1.340 . S
C36 C40 1.407 . S
C37 C38 1.413 . S
C37 C39 1.416 . S
C37 C66 1.427 . S
C38 C30 1.424 . S
C38 N35 1.361 . S
C38 C37 1.413 . S
C39 H28 0.931 . S
C39 C37 1.416 . S
C39 C40 1.332 . S
C40 H19 0.929 . S
C40 C36 1.407 . S
C40 C39 1.332 . S
H41 C34 0.930 . S
H42 C65 0.930 . S
H43 C66 0.929 . S
O44 Tb0 2.465 . S
O44 C64 1.264 . S
O45 Tb0 2.387 . S
O45 C56 1.264 . S
O46 Tb11 2.349 . S
O46 C56 1.243 . S
O47 Tb0 2.428 . S
O47 C64 1.256 . S
O48 Tb0 2.308 . S
O48 C63 1.266 . S
O49 Tb11 2.393 . S
O49 C63 1.248 . S
O50 Tb11 2.465 . S
O50 C75 1.264 . S
O51 Tb11 2.387 . S
O51 C67 1.264 . S
O52 Tb0 2.349 . S
O52 C67 1.243 . S
O53 Tb11 2.428 . S
O53 C75 1.256 . S
O54 Tb11 2.308 . S
O54 C74 1.266 1_554 S
O55 Tb0 2.393 1_556 S
O55 C74 1.248 . S
C56 O45 1.264 . S
C56 O46 1.243 . S
C57 C60 1.399 1_554 S
C57 C62 1.383 . S
C57 C64 1.496 . S
C58 C59 1.399 . S
C58 C62 1.389 . S
C59 C58 1.399 . S
C59 C61 1.380 1_554 S
C59 H76 0.929 . S
C60 C57 1.399 1_556 S
C60 C61 1.392 . S
C60 H77 0.929 . S
C61 C59 1.380 1_556 S
C61 C60 1.392 . S
C61 H78 0.929 . S
C62 C57 1.383 . S
C62 C58 1.389 . S
C62 H79 0.931 . S
C63 O48 1.266 . S
C63 O49 1.248 . S
C64 Tb0 2.802 . S
C64 O44 1.264 . S
C64 O47 1.256 . S
C64 C57 1.496 . S
C65 C32 1.448 . S
C65 H42 0.930 . S
C65 C66 1.328 . S
C66 C37 1.427 . S
C66 H43 0.929 . S
C66 C65 1.328 . S
C67 O51 1.264 . S
C67 O52 1.243 . S
C68 C71 1.399 . S
C68 C72 1.383 . S
C68 C75 1.496 . S
C69 C70 1.399 . S
C69 C72 1.389 . S
C70 C69 1.399 . S
C70 C73 1.380 . S
C70 H80 0.929 . S
C71 C68 1.399 . S
C71 C73 1.392 . S
C71 H81 0.929 . S
C72 C68 1.383 . S
C72 C69 1.389 . S
C72 H82 0.931 . S
C73 C70 1.380 . S
C73 C71 1.392 . S
C73 H83 0.929 . S
C74 O54 1.266 1_556 S
C74 O55 1.248 . S
C75 Tb11 2.802 . S
C75 O50 1.264 . S
C75 O53 1.256 . S
C75 C68 1.496 . S
H76 C59 0.929 . S
H77 C60 0.929 . S
H78 C61 0.929 . S
H79 C62 0.931 . S
H80 C70 0.929 . S
H81 C71 0.929 . S
H82 C72 0.931 . S
H83 C73 0.929 . S
Tb84 N113 2.617 . S
Tb84 N119 2.572 . S
Tb84 O128 2.465 . S
Tb84 O129 2.387 . S
Tb84 O131 2.428 . S
Tb84 O132 2.308 . S
Tb84 O136 2.349 . S
Tb84 O139 2.393 1_554 S
Tb84 C148 2.802 . S
C85 N86 1.379 . S
C85 C88 1.416 . S
C85 C92 1.424 . S
N86 C85 1.379 . S
N86 C89 1.334 . S
N86 Tb95 2.617 . S
C87 C89 1.390 . S
C87 C90 1.339 . S
C87 H107 0.930 . S
C88 C85 1.416 . S
C88 C90 1.416 . S
C88 C94 1.448 . S
C89 N86 1.334 . S
C89 C87 1.390 . S
C89 H100 0.930 . S
C90 C87 1.339 . S
C90 C88 1.416 . S
C90 H111 0.930 . S
C91 C92 1.413 1_556 S
C91 C93 1.427 . S
C91 C97 1.416 . S
C92 C85 1.424 . S
C92 C91 1.413 1_554 S
C92 N96 1.361 . S
C93 C91 1.427 . S
C93 C94 1.328 1_556 S
C93 H108 0.929 . S
C94 C88 1.448 . S
C94 C93 1.328 1_554 S
C94 H109 0.930 . S
Tb95 N86 2.617 . S
Tb95 N96 2.572 . S
Tb95 O130 2.349 . S
Tb95 O133 2.393 . S
Tb95 O134 2.465 . S
Tb95 O135 2.387 . S
Tb95 O137 2.428 . S
Tb95 O138 2.308 . S
Tb95 C159 2.802 . S
N96 C92 1.361 . S
N96 Tb95 2.572 . S
N96 C98 1.340 1_554 S
C97 C91 1.416 . S
C97 C99 1.332 . S
C97 H105 0.931 . S
C98 N96 1.340 1_556 S
C98 C99 1.407 . S
C98 H104 0.930 . S
C99 C97 1.332 . S
C99 C98 1.407 . S
C99 H101 0.929 . S
H100 C89 0.930 . S
H101 C99 0.929 . S
H102 C117 0.930 1_556 S
H103 C124 0.929 . S
H104 C98 0.930 . S
H105 C97 0.931 . S
H106 C120 0.930 . S
H107 C87 0.930 . S
H108 C93 0.929 . S
H109 C94 0.930 . S
H110 C115 0.930 . S
H111 C90 0.930 . S
H112 C123 0.931 . S
N113 Tb84 2.617 . S
N113 C114 1.379 . S
N113 C117 1.334 . S
C114 N113 1.379 . S
C114 C116 1.416 . S
C114 C122 1.424 . S
C115 H110 0.930 . S
C115 C117 1.390 1_556 S
C115 C118 1.339 1_556 S
C116 C114 1.416 . S
C116 C118 1.416 . S
C116 C149 1.448 . S
C117 H102 0.930 1_554 S
C117 N113 1.334 . S
C117 C115 1.390 1_554 S
C118 C115 1.339 1_554 S
C118 C116 1.416 . S
C118 H125 0.930 . S
N119 Tb84 2.572 . S
N119 C120 1.340 . S
N119 C122 1.361 . S
C120 H106 0.930 . S
C120 N119 1.340 . S
C120 C124 1.407 . S
C121 C122 1.413 . S
C121 C123 1.416 . S
C121 C150 1.427 . S
C122 C114 1.424 . S
C122 N119 1.361 . S
C122 C121 1.413 . S
C123 H112 0.931 . S
C123 C121 1.416 . S
C123 C124 1.332 . S
C124 H103 0.929 . S
C124 C120 1.407 . S
C124 C123 1.332 . S
H125 C118 0.930 . S
H126 C149 0.930 . S
H127 C150 0.929 . S
O128 Tb84 2.465 . S
O128 C148 1.264 . S
O129 Tb84 2.387 . S
O129 C140 1.264 . S
O130 Tb95 2.349 . S
O130 C140 1.243 . S
O131 Tb84 2.428 . S
O131 C148 1.256 . S
O132 Tb84 2.308 . S
O132 C147 1.266 . S
O133 Tb95 2.393 . S
O133 C147 1.248 . S
O134 Tb95 2.465 . S
O134 C159 1.264 . S
O135 Tb95 2.387 . S
O135 C151 1.264 . S
O136 Tb84 2.349 . S
O136 C151 1.243 . S
O137 Tb95 2.428 . S
O137 C159 1.256 . S
O138 Tb95 2.308 . S
O138 C158 1.266 1_554 S
O139 Tb84 2.393 1_556 S
O139 C158 1.248 . S
C140 O129 1.264 . S
C140 O130 1.243 . S
C141 C144 1.399 1_554 S
C141 C146 1.383 . S
C141 C148 1.496 . S
C142 C143 1.399 . S
C142 C146 1.389 . S
C143 C142 1.399 . S
C143 C145 1.380 1_554 S
C143 H160 0.929 . S
C144 C141 1.399 1_556 S
C144 C145 1.392 . S
C144 H161 0.929 . S
C145 C143 1.380 1_556 S
C145 C144 1.392 . S
C145 H162 0.929 . S
C146 C141 1.383 . S
C146 C142 1.389 . S
C146 H163 0.931 . S
C147 O132 1.266 . S
C147 O133 1.248 . S
C148 Tb84 2.802 . S
C148 O128 1.264 . S
C148 O131 1.256 . S
C148 C141 1.496 . S
C149 C116 1.448 . S
C149 H126 0.930 . S
C149 C150 1.328 . S
C150 C121 1.427 . S
C150 H127 0.929 . S
C150 C149 1.328 . S
C151 O135 1.264 . S
C151 O136 1.243 . S
C152 C155 1.399 . S
C152 C156 1.383 . S
C152 C159 1.496 . S
C153 C154 1.399 . S
C153 C156 1.389 . S
C154 C153 1.399 . S
C154 C157 1.380 . S
C154 H164 0.929 . S
C155 C152 1.399 . S
C155 C157 1.392 . S
C155 H165 0.929 . S
C156 C152 1.383 . S
C156 C153 1.389 . S
C156 H166 0.931 . S
C157 C154 1.380 . S
C157 C155 1.392 . S
C157 H167 0.929 . S
C158 O138 1.266 1_556 S
C158 O139 1.248 . S
C159 Tb95 2.802 . S
C159 O134 1.264 . S
C159 O137 1.256 . S
C159 C152 1.496 . S
H160 C143 0.929 . S
H161 C144 0.929 . S
H162 C145 0.929 . S
H163 C146 0.931 . S
H164 C154 0.929 . S
H165 C155 0.929 . S
H166 C156 0.931 . S
H167 C157 0.929 . S
Tb168 N197 2.617 . S
Tb168 N203 2.572 . S
Tb168 O212 2.465 . S
Tb168 O213 2.387 . S
Tb168 O215 2.428 . S
Tb168 O216 2.308 . S
Tb168 O220 2.349 . S
Tb168 O223 2.393 1_554 S
Tb168 C232 2.802 . S
C169 N170 1.379 . S
C169 C172 1.416 . S
C169 C176 1.424 . S
N170 C169 1.379 . S
N170 C173 1.334 . S
N170 Tb179 2.617 . S
C171 C173 1.390 . S
C171 C174 1.339 . S
C171 H191 0.930 . S
C172 C169 1.416 . S
C172 C174 1.416 . S
C172 C178 1.448 . S
C173 N170 1.334 . S
C173 C171 1.390 . S
C173 H184 0.930 . S
C174 C171 1.339 . S
C174 C172 1.416 . S
C174 H195 0.930 . S
C175 C176 1.413 1_556 S
C175 C177 1.427 . S
C175 C181 1.416 . S
C176 C169 1.424 . S
C176 C175 1.413 1_554 S
C176 N180 1.361 . S
C177 C175 1.427 . S
C177 C178 1.328 1_556 S
C177 H192 0.929 . S
C178 C172 1.448 . S
C178 C177 1.328 1_554 S
C178 H193 0.930 . S
Tb179 N170 2.617 . S
Tb179 N180 2.572 . S
Tb179 O214 2.349 . S
Tb179 O217 2.393 . S
Tb179 O218 2.465 . S
Tb179 O219 2.387 . S
Tb179 O221 2.428 . S
Tb179 O222 2.308 . S
Tb179 C243 2.802 . S
N180 C176 1.361 . S
N180 Tb179 2.572 . S
N180 C182 1.340 1_554 S
C181 C175 1.416 . S
C181 C183 1.332 . S
C181 H189 0.931 . S
C182 N180 1.340 1_556 S
C182 C183 1.407 . S
C182 H188 0.930 . S
C183 C181 1.332 . S
C183 C182 1.407 . S
C183 H185 0.929 . S
H184 C173 0.930 . S
H185 C183 0.929 . S
H186 C201 0.930 1_556 S
H187 C208 0.929 . S
H188 C182 0.930 . S
H189 C181 0.931 . S
H190 C204 0.930 . S
H191 C171 0.930 . S
H192 C177 0.929 . S
H193 C178 0.930 . S
H194 C199 0.930 . S
H195 C174 0.930 . S
H196 C207 0.931 . S
N197 Tb168 2.617 . S
N197 C198 1.379 . S
N197 C201 1.334 . S
C198 N197 1.379 . S
C198 C200 1.416 . S
C198 C206 1.424 . S
C199 H194 0.930 . S
C199 C201 1.390 1_556 S
C199 C202 1.339 1_556 S
C200 C198 1.416 . S
C200 C202 1.416 . S
C200 C233 1.448 . S
C201 H186 0.930 1_554 S
C201 N197 1.334 . S
C201 C199 1.390 1_554 S
C202 C199 1.339 1_554 S
C202 C200 1.416 . S
C202 H209 0.930 . S
N203 Tb168 2.572 . S
N203 C204 1.340 . S
N203 C206 1.361 . S
C204 H190 0.930 . S
C204 N203 1.340 . S
C204 C208 1.407 . S
C205 C206 1.413 . S
C205 C207 1.416 . S
C205 C234 1.427 . S
C206 C198 1.424 . S
C206 N203 1.361 . S
C206 C205 1.413 . S
C207 H196 0.931 . S
C207 C205 1.416 . S
C207 C208 1.332 . S
C208 H187 0.929 . S
C208 C204 1.407 . S
C208 C207 1.332 . S
H209 C202 0.930 . S
H210 C233 0.930 . S
H211 C234 0.929 . S
O212 Tb168 2.465 . S
O212 C232 1.264 . S
O213 Tb168 2.387 . S
O213 C224 1.264 . S
O214 Tb179 2.349 . S
O214 C224 1.243 . S
O215 Tb168 2.428 . S
O215 C232 1.256 . S
O216 Tb168 2.308 . S
O216 C231 1.266 . S
O217 Tb179 2.393 . S
O217 C231 1.248 . S
O218 Tb179 2.465 . S
O218 C243 1.264 . S
O219 Tb179 2.387 . S
O219 C235 1.264 . S
O220 Tb168 2.349 . S
O220 C235 1.243 . S
O221 Tb179 2.428 . S
O221 C243 1.256 . S
O222 Tb179 2.308 . S
O222 C242 1.266 1_554 S
O223 Tb168 2.393 1_556 S
O223 C242 1.248 . S
C224 O213 1.264 . S
C224 O214 1.243 . S
C225 C228 1.399 1_554 S
C225 C230 1.383 . S
C225 C232 1.496 . S
C226 C227 1.399 . S
C226 C230 1.389 . S
C227 C226 1.399 . S
C227 C229 1.380 1_554 S
C227 H244 0.929 . S
C228 C225 1.399 1_556 S
C228 C229 1.392 . S
C228 H245 0.929 . S
C229 C227 1.380 1_556 S
C229 C228 1.392 . S
C229 H246 0.929 . S
C230 C225 1.383 . S
C230 C226 1.389 . S
C230 H247 0.931 . S
C231 O216 1.266 . S
C231 O217 1.248 . S
C232 Tb168 2.802 . S
C232 O212 1.264 . S
C232 O215 1.256 . S
C232 C225 1.496 . S
C233 C200 1.448 . S
C233 H210 0.930 . S
C233 C234 1.328 . S
C234 C205 1.427 . S
C234 H211 0.929 . S
C234 C233 1.328 . S
C235 O219 1.264 . S
C235 O220 1.243 . S
C236 C239 1.399 . S
C236 C240 1.383 . S
C236 C243 1.496 . S
C237 C238 1.399 . S
C237 C240 1.389 . S
C238 C237 1.399 . S
C238 C241 1.380 . S
C238 H248 0.929 . S
C239 C236 1.399 . S
C239 C241 1.392 . S
C239 H249 0.929 . S
C240 C236 1.383 . S
C240 C237 1.389 . S
C240 H250 0.931 . S
C241 C238 1.380 . S
C241 C239 1.392 . S
C241 H251 0.929 . S
C242 O222 1.266 1_556 S
C242 O223 1.248 . S
C243 Tb179 2.802 . S
C243 O218 1.264 . S
C243 O221 1.256 . S
C243 C236 1.496 . S
H244 C227 0.929 . S
H245 C228 0.929 . S
H246 C229 0.929 . S
H247 C230 0.931 . S
H248 C238 0.929 . S
H249 C239 0.929 . S
H250 C240 0.931 . S
H251 C241 0.929 . S
Tb252 N281 2.617 . S
Tb252 N287 2.572 . S
Tb252 O296 2.465 . S
Tb252 O297 2.387 . S
Tb252 O299 2.428 . S
Tb252 O300 2.308 . S
Tb252 O304 2.349 . S
Tb252 O307 2.393 . S
Tb252 C316 2.802 . S
C253 N254 1.379 . S
C253 C256 1.416 . S
C253 C260 1.424 . S
N254 C253 1.379 . S
N254 C257 1.334 . S
N254 Tb263 2.617 . S
C255 C257 1.390 . S
C255 C258 1.339 . S
C255 H275 0.930 . S
C256 C253 1.416 . S
C256 C258 1.416 . S
C256 C262 1.448 . S
C257 N254 1.334 . S
C257 C255 1.390 . S
C257 H268 0.930 . S
C258 C255 1.339 . S
C258 C256 1.416 . S
C258 H279 0.930 . S
C259 C260 1.413 . S
C259 C261 1.427 . S
C259 C265 1.416 . S
C260 C253 1.424 . S
C260 C259 1.413 . S
C260 N264 1.361 . S
C261 C259 1.427 . S
C261 C262 1.328 . S
C261 H276 0.929 . S
C262 C256 1.448 . S
C262 C261 1.328 . S
C262 H277 0.930 . S
Tb263 N254 2.617 . S
Tb263 N264 2.572 . S
Tb263 O298 2.349 . S
Tb263 O301 2.393 . S
Tb263 O302 2.465 . S
Tb263 O303 2.387 . S
Tb263 O305 2.428 . S
Tb263 O306 2.308 . S
Tb263 C327 2.802 . S
N264 C260 1.361 . S
N264 Tb263 2.572 . S
N264 C266 1.340 . S
C265 C259 1.416 . S
C265 C267 1.332 . S
C265 H273 0.931 . S
C266 N264 1.340 . S
C266 C267 1.407 . S
C266 H272 0.930 . S
C267 C265 1.332 . S
C267 C266 1.407 . S
C267 H269 0.929 . S
H268 C257 0.930 . S
H269 C267 0.929 . S
H270 C285 0.930 . S
H271 C292 0.929 . S
H272 C266 0.930 . S
H273 C265 0.931 . S
H274 C288 0.930 . S
H275 C255 0.930 . S
H276 C261 0.929 . S
H277 C262 0.930 . S
H278 C283 0.930 . S
H279 C258 0.930 . S
H280 C291 0.931 . S
N281 Tb252 2.617 . S
N281 C282 1.379 . S
N281 C285 1.334 . S
C282 N281 1.379 . S
C282 C284 1.416 . S
C282 C290 1.424 . S
C283 H278 0.930 . S
C283 C285 1.390 . S
C283 C286 1.339 . S
C284 C282 1.416 . S
C284 C286 1.416 . S
C284 C317 1.448 . S
C285 H270 0.930 . S
C285 N281 1.334 . S
C285 C283 1.390 . S
C286 C283 1.339 . S
C286 C284 1.416 . S
C286 H293 0.930 . S
N287 Tb252 2.572 . S
N287 C288 1.340 . S
N287 C290 1.361 . S
C288 H274 0.930 . S
C288 N287 1.340 . S
C288 C292 1.407 . S
C289 C290 1.413 . S
C289 C291 1.416 . S
C289 C318 1.427 . S
C290 C282 1.424 . S
C290 N287 1.361 . S
C290 C289 1.413 . S
C291 H280 0.931 . S
C291 C289 1.416 . S
C291 C292 1.332 . S
C292 H271 0.929 . S
C292 C288 1.407 . S
C292 C291 1.332 . S
H293 C286 0.930 . S
H294 C317 0.930 . S
H295 C318 0.929 . S
O296 Tb252 2.465 . S
O296 C316 1.264 . S
O297 Tb252 2.387 . S
O297 C308 1.264 . S
O298 Tb263 2.349 . S
O298 C308 1.243 . S
O299 Tb252 2.428 . S
O299 C316 1.256 . S
O300 Tb252 2.308 . S
O300 C315 1.266 . S
O301 Tb263 2.393 . S
O301 C315 1.248 . S
O302 Tb263 2.465 . S
O302 C327 1.264 . S
O303 Tb263 2.387 . S
O303 C319 1.264 . S
O304 Tb252 2.349 . S
O304 C319 1.243 . S
O305 Tb263 2.428 . S
O305 C327 1.256 . S
O306 Tb263 2.308 . S
O306 C326 1.266 . S
O307 Tb252 2.393 . S
O307 C326 1.248 . S
C308 O297 1.264 . S
C308 O298 1.243 . S
C309 C312 1.399 . S
C309 C314 1.383 . S
C309 C316 1.496 . S
C310 C311 1.399 . S
C310 C314 1.389 . S
C311 C310 1.399 . S
C311 C313 1.380 . S
C311 H328 0.929 . S
C312 C309 1.399 . S
C312 C313 1.392 . S
C312 H329 0.929 . S
C313 C311 1.380 . S
C313 C312 1.392 . S
C313 H330 0.929 . S
C314 C309 1.383 . S
C314 C310 1.389 . S
C314 H331 0.931 . S
C315 O300 1.266 . S
C315 O301 1.248 . S
C316 Tb252 2.802 . S
C316 O296 1.264 . S
C316 O299 1.256 . S
C316 C309 1.496 . S
C317 C284 1.448 . S
C317 H294 0.930 . S
C317 C318 1.328 . S
C318 C289 1.427 . S
C318 H295 0.929 . S
C318 C317 1.328 . S
C319 O303 1.264 . S
C319 O304 1.243 . S
C320 C323 1.399 . S
C320 C324 1.383 . S
C320 C327 1.496 . S
C321 C322 1.399 . S
C321 C324 1.389 . S
C322 C321 1.399 . S
C322 C325 1.380 . S
C322 H332 0.929 . S
C323 C320 1.399 . S
C323 C325 1.392 . S
C323 H333 0.929 . S
C324 C320 1.383 . S
C324 C321 1.389 . S
C324 H334 0.931 . S
C325 C322 1.380 . S
C325 C323 1.392 . S
C325 H335 0.929 . S
C326 O306 1.266 . S
C326 O307 1.248 . S
C327 Tb263 2.802 . S
C327 O302 1.264 . S
C327 O305 1.256 . S
C327 C320 1.496 . S
H328 C311 0.929 . S
H329 C312 0.929 . S
H330 C313 0.929 . S
H331 C314 0.931 . S
H332 C322 0.929 . S
H333 C323 0.929 . S
H334 C324 0.931 . S
H335 C325 0.929 . S
Tb336 N365 2.617 . S
Tb336 N371 2.572 . S
Tb336 O380 2.465 . S
Tb336 O381 2.387 . S
Tb336 O383 2.428 . S
Tb336 O384 2.308 . S
Tb336 O388 2.349 . S
Tb336 O391 2.393 . S
Tb336 C400 2.802 . S
C337 N338 1.379 . S
C337 C340 1.416 . S
C337 C344 1.424 . S
N338 C337 1.379 . S
N338 C341 1.334 . S
N338 Tb347 2.617 . S
C339 C341 1.390 . S
C339 C342 1.339 . S
C339 H359 0.930 . S
C340 C337 1.416 . S
C340 C342 1.416 . S
C340 C346 1.448 . S
C341 N338 1.334 . S
C341 C339 1.390 . S
C341 H352 0.930 . S
C342 C339 1.339 . S
C342 C340 1.416 . S
C342 H363 0.930 . S
C343 C344 1.413 . S
C343 C345 1.427 . S
C343 C349 1.416 . S
C344 C337 1.424 . S
C344 C343 1.413 . S
C344 N348 1.361 . S
C345 C343 1.427 . S
C345 C346 1.328 . S
C345 H360 0.929 . S
C346 C340 1.448 . S
C346 C345 1.328 . S
C346 H361 0.930 . S
Tb347 N338 2.617 . S
Tb347 N348 2.572 . S
Tb347 O382 2.349 . S
Tb347 O385 2.393 . S
Tb347 O386 2.465 . S
Tb347 O387 2.387 . S
Tb347 O389 2.428 . S
Tb347 O390 2.308 . S
Tb347 C411 2.802 . S
N348 C344 1.361 . S
N348 Tb347 2.572 . S
N348 C350 1.340 . S
C349 C343 1.416 . S
C349 C351 1.332 . S
C349 H357 0.931 . S
C350 N348 1.340 . S
C350 C351 1.407 . S
C350 H356 0.930 . S
C351 C349 1.332 . S
C351 C350 1.407 . S
C351 H353 0.929 . S
H352 C341 0.930 . S
H353 C351 0.929 . S
H354 C369 0.930 . S
H355 C376 0.929 . S
H356 C350 0.930 . S
H357 C349 0.931 . S
H358 C372 0.930 . S
H359 C339 0.930 . S
H360 C345 0.929 . S
H361 C346 0.930 . S
H362 C367 0.930 . S
H363 C342 0.930 . S
H364 C375 0.931 . S
N365 Tb336 2.617 . S
N365 C366 1.379 . S
N365 C369 1.334 . S
C366 N365 1.379 . S
C366 C368 1.416 . S
C366 C374 1.424 . S
C367 H362 0.930 . S
C367 C369 1.390 . S
C367 C370 1.339 . S
C368 C366 1.416 . S
C368 C370 1.416 . S
C368 C401 1.448 . S
C369 H354 0.930 . S
C369 N365 1.334 . S
C369 C367 1.390 . S
C370 C367 1.339 . S
C370 C368 1.416 . S
C370 H377 0.930 . S
N371 Tb336 2.572 . S
N371 C372 1.340 . S
N371 C374 1.361 . S
C372 H358 0.930 . S
C372 N371 1.340 . S
C372 C376 1.407 . S
C373 C374 1.413 . S
C373 C375 1.416 . S
C373 C402 1.427 . S
C374 C366 1.424 . S
C374 N371 1.361 . S
C374 C373 1.413 . S
C375 H364 0.931 . S
C375 C373 1.416 . S
C375 C376 1.332 . S
C376 H355 0.929 . S
C376 C372 1.407 . S
C376 C375 1.332 . S
H377 C370 0.930 . S
H378 C401 0.930 . S
H379 C402 0.929 . S
O380 Tb336 2.465 . S
O380 C400 1.264 . S
O381 Tb336 2.387 . S
O381 C392 1.264 . S
O382 Tb347 2.349 . S
O382 C392 1.243 . S
O383 Tb336 2.428 . S
O383 C400 1.256 . S
O384 Tb336 2.308 . S
O384 C399 1.266 . S
O385 Tb347 2.393 . S
O385 C399 1.248 . S
O386 Tb347 2.465 . S
O386 C411 1.264 . S
O387 Tb347 2.387 . S
O387 C403 1.264 . S
O388 Tb336 2.349 . S
O388 C403 1.243 . S
O389 Tb347 2.428 . S
O389 C411 1.256 . S
O390 Tb347 2.308 . S
O390 C410 1.266 . S
O391 Tb336 2.393 . S
O391 C410 1.248 . S
C392 O381 1.264 . S
C392 O382 1.243 . S
C393 C396 1.399 . S
C393 C398 1.383 . S
C393 C400 1.496 . S
C394 C395 1.399 . S
C394 C398 1.389 . S
C395 C394 1.399 . S
C395 C397 1.380 . S
C395 H412 0.929 . S
C396 C393 1.399 . S
C396 C397 1.392 . S
C396 H413 0.929 . S
C397 C395 1.380 . S
C397 C396 1.392 . S
C397 H414 0.929 . S
C398 C393 1.383 . S
C398 C394 1.389 . S
C398 H415 0.931 . S
C399 O384 1.266 . S
C399 O385 1.248 . S
C400 Tb336 2.802 . S
C400 O380 1.264 . S
C400 O383 1.256 . S
C400 C393 1.496 . S
C401 C368 1.448 . S
C401 H378 0.930 . S
C401 C402 1.328 . S
C402 C373 1.427 . S
C402 H379 0.929 . S
C402 C401 1.328 . S
C403 O387 1.264 . S
C403 O388 1.243 . S
C404 C407 1.399 . S
C404 C408 1.383 . S
C404 C411 1.496 . S
C405 C406 1.399 . S
C405 C408 1.389 . S
C406 C405 1.399 . S
C406 C409 1.380 . S
C406 H416 0.929 . S
C407 C404 1.399 . S
C407 C409 1.392 . S
C407 H417 0.929 . S
C408 C404 1.383 . S
C408 C405 1.389 . S
C408 H418 0.931 . S
C409 C406 1.380 . S
C409 C407 1.392 . S
C409 H419 0.929 . S
C410 O390 1.266 . S
C410 O391 1.248 . S
C411 Tb347 2.802 . S
C411 O386 1.264 . S
C411 O389 1.256 . S
C411 C404 1.496 . S
H412 C395 0.929 . S
H413 C396 0.929 . S
H414 C397 0.929 . S
H415 C398 0.931 . S
H416 C406 0.929 . S
H417 C407 0.929 . S
H418 C408 0.931 . S
H419 C409 0.929 . S
Tb420 N449 2.617 . S
Tb420 N455 2.572 . S
Tb420 O464 2.465 . S
Tb420 O465 2.387 . S
Tb420 O467 2.428 . S
Tb420 O468 2.308 . S
Tb420 O472 2.349 . S
Tb420 O475 2.393 . S
Tb420 C484 2.802 . S
C421 N422 1.379 . S
C421 C424 1.416 . S
C421 C428 1.424 . S
N422 C421 1.379 . S
N422 C425 1.334 . S
N422 Tb431 2.617 . S
C423 C425 1.390 . S
C423 C426 1.339 . S
C423 H443 0.930 . S
C424 C421 1.416 . S
C424 C426 1.416 . S
C424 C430 1.448 . S
C425 N422 1.334 . S
C425 C423 1.390 . S
C425 H436 0.930 . S
C426 C423 1.339 . S
C426 C424 1.416 . S
C426 H447 0.930 . S
C427 C428 1.413 . S
C427 C429 1.427 . S
C427 C433 1.416 . S
C428 C421 1.424 . S
C428 C427 1.413 . S
C428 N432 1.361 . S
C429 C427 1.427 . S
C429 C430 1.328 . S
C429 H444 0.929 . S
C430 C424 1.448 . S
C430 C429 1.328 . S
C430 H445 0.930 . S
Tb431 N422 2.617 . S
Tb431 N432 2.572 . S
Tb431 O466 2.349 . S
Tb431 O469 2.393 . S
Tb431 O470 2.465 . S
Tb431 O471 2.387 . S
Tb431 O473 2.428 . S
Tb431 O474 2.308 . S
Tb431 C495 2.802 . S
N432 C428 1.361 . S
N432 Tb431 2.572 . S
N432 C434 1.340 . S
C433 C427 1.416 . S
C433 C435 1.332 . S
C433 H441 0.931 . S
C434 N432 1.340 . S
C434 C435 1.407 . S
C434 H440 0.930 . S
C435 C433 1.332 . S
C435 C434 1.407 . S
C435 H437 0.929 . S
H436 C425 0.930 . S
H437 C435 0.929 . S
H438 C453 0.930 . S
H439 C460 0.929 . S
H440 C434 0.930 . S
H441 C433 0.931 . S
H442 C456 0.930 . S
H443 C423 0.930 . S
H444 C429 0.929 . S
H445 C430 0.930 . S
H446 C451 0.930 . S
H447 C426 0.930 . S
H448 C459 0.931 . S
N449 Tb420 2.617 . S
N449 C450 1.379 . S
N449 C453 1.334 . S
C450 N449 1.379 . S
C450 C452 1.416 . S
C450 C458 1.424 . S
C451 H446 0.930 . S
C451 C453 1.390 . S
C451 C454 1.339 . S
C452 C450 1.416 . S
C452 C454 1.416 . S
C452 C485 1.448 . S
C453 H438 0.930 . S
C453 N449 1.334 . S
C453 C451 1.390 . S
C454 C451 1.339 . S
C454 C452 1.416 . S
C454 H461 0.930 . S
N455 Tb420 2.572 . S
N455 C456 1.340 . S
N455 C458 1.361 . S
C456 H442 0.930 . S
C456 N455 1.340 . S
C456 C460 1.407 . S
C457 C458 1.413 . S
C457 C459 1.416 . S
C457 C486 1.427 . S
C458 C450 1.424 . S
C458 N455 1.361 . S
C458 C457 1.413 . S
C459 H448 0.931 . S
C459 C457 1.416 . S
C459 C460 1.332 . S
C460 H439 0.929 . S
C460 C456 1.407 . S
C460 C459 1.332 . S
H461 C454 0.930 . S
H462 C485 0.930 . S
H463 C486 0.929 . S
O464 Tb420 2.465 . S
O464 C484 1.264 . S
O465 Tb420 2.387 . S
O465 C476 1.264 . S
O466 Tb431 2.349 . S
O466 C476 1.243 . S
O467 Tb420 2.428 . S
O467 C484 1.256 . S
O468 Tb420 2.308 . S
O468 C483 1.266 . S
O469 Tb431 2.393 . S
O469 C483 1.248 . S
O470 Tb431 2.465 . S
O470 C495 1.264 . S
O471 Tb431 2.387 . S
O471 C487 1.264 . S
O472 Tb420 2.349 . S
O472 C487 1.243 . S
O473 Tb431 2.428 . S
O473 C495 1.256 . S
O474 Tb431 2.308 . S
O474 C494 1.266 . S
O475 Tb420 2.393 . S
O475 C494 1.248 . S
C476 O465 1.264 . S
C476 O466 1.243 . S
C477 C480 1.399 . S
C477 C482 1.383 . S
C477 C484 1.496 . S
C478 C479 1.399 . S
C478 C482 1.389 . S
C479 C478 1.399 . S
C479 C481 1.380 . S
C479 H496 0.929 . S
C480 C477 1.399 . S
C480 C481 1.392 . S
C480 H497 0.929 . S
C481 C479 1.380 . S
C481 C480 1.392 . S
C481 H498 0.929 . S
C482 C477 1.383 . S
C482 C478 1.389 . S
C482 H499 0.931 . S
C483 O468 1.266 . S
C483 O469 1.248 . S
C484 Tb420 2.802 . S
C484 O464 1.264 . S
C484 O467 1.256 . S
C484 C477 1.496 . S
C485 C452 1.448 . S
C485 H462 0.930 . S
C485 C486 1.328 . S
C486 C457 1.427 . S
C486 H463 0.929 . S
C486 C485 1.328 . S
C487 O471 1.264 . S
C487 O472 1.243 . S
C488 C491 1.399 . S
C488 C492 1.383 . S
C488 C495 1.496 . S
C489 C490 1.399 . S
C489 C492 1.389 . S
C490 C489 1.399 . S
C490 C493 1.380 . S
C490 H500 0.929 . S
C491 C488 1.399 . S
C491 C493 1.392 . S
C491 H501 0.929 . S
C492 C488 1.383 . S
C492 C489 1.389 . S
C492 H502 0.931 . S
C493 C490 1.380 . S
C493 C491 1.392 . S
C493 H503 0.929 . S
C494 O474 1.266 . S
C494 O475 1.248 . S
C495 Tb431 2.802 . S
C495 O470 1.264 . S
C495 O473 1.256 . S
C495 C488 1.496 . S
H496 C479 0.929 . S
H497 C480 0.929 . S
H498 C481 0.929 . S
H499 C482 0.931 . S
H500 C490 0.929 . S
H501 C491 0.929 . S
H502 C492 0.931 . S
H503 C493 0.929 . S
Tb504 N533 2.617 . S
Tb504 N539 2.572 . S
Tb504 O548 2.465 . S
Tb504 O549 2.387 . S
Tb504 O551 2.428 . S
Tb504 O552 2.308 . S
Tb504 O556 2.349 . S
Tb504 O559 2.393 . S
Tb504 C568 2.802 . S
C505 N506 1.379 . S
C505 C508 1.416 . S
C505 C512 1.424 . S
N506 C505 1.379 . S
N506 C509 1.334 . S
N506 Tb515 2.617 . S
C507 C509 1.390 1_554 S
C507 C510 1.339 1_554 S
C507 H527 0.930 . S
C508 C505 1.416 . S
C508 C510 1.416 . S
C508 C514 1.448 . S
C509 N506 1.334 . S
C509 C507 1.390 1_556 S
C509 H520 0.930 1_556 S
C510 C507 1.339 1_556 S
C510 C508 1.416 . S
C510 H531 0.930 . S
C511 C512 1.413 . S
C511 C513 1.427 . S
C511 C517 1.416 . S
C512 C505 1.424 . S
C512 C511 1.413 . S
C512 N516 1.361 . S
C513 C511 1.427 . S
C513 C514 1.328 . S
C513 H528 0.929 . S
C514 C508 1.448 . S
C514 C513 1.328 . S
C514 H529 0.930 . S
Tb515 N506 2.617 . S
Tb515 N516 2.572 . S
Tb515 O550 2.349 . S
Tb515 O553 2.393 1_556 S
Tb515 O554 2.465 . S
Tb515 O555 2.387 . S
Tb515 O557 2.428 . S
Tb515 O558 2.308 . S
Tb515 C579 2.802 . S
N516 C512 1.361 . S
N516 Tb515 2.572 . S
N516 C518 1.340 . S
C517 C511 1.416 . S
C517 C519 1.332 . S
C517 H525 0.931 . S
C518 N516 1.340 . S
C518 C519 1.407 . S
C518 H524 0.930 . S
C519 C517 1.332 . S
C519 C518 1.407 . S
C519 H521 0.929 . S
H520 C509 0.930 1_554 S
H521 C519 0.929 . S
H522 C537 0.930 . S
H523 C544 0.929 . S
H524 C518 0.930 . S
H525 C517 0.931 . S
H526 C540 0.930 . S
H527 C507 0.930 . S
H528 C513 0.929 . S
H529 C514 0.930 . S
H530 C535 0.930 . S
H531 C510 0.930 . S
H532 C543 0.931 . S
N533 Tb504 2.617 . S
N533 C534 1.379 . S
N533 C537 1.334 . S
C534 N533 1.379 . S
C534 C536 1.416 . S
C534 C542 1.424 . S
C535 H530 0.930 . S
C535 C537 1.390 . S
C535 C538 1.339 . S
C536 C534 1.416 . S
C536 C538 1.416 . S
C536 C569 1.448 . S
C537 H522 0.930 . S
C537 N533 1.334 . S
C537 C535 1.390 . S
C538 C535 1.339 . S
C538 C536 1.416 . S
C538 H545 0.930 . S
N539 Tb504 2.572 . S
N539 C540 1.340 1_556 S
N539 C542 1.361 . S
C540 H526 0.930 . S
C540 N539 1.340 1_554 S
C540 C544 1.407 . S
C541 C542 1.413 1_554 S
C541 C543 1.416 . S
C541 C570 1.427 . S
C542 C534 1.424 . S
C542 N539 1.361 . S
C542 C541 1.413 1_556 S
C543 H532 0.931 . S
C543 C541 1.416 . S
C543 C544 1.332 . S
C544 H523 0.929 . S
C544 C540 1.407 . S
C544 C543 1.332 . S
H545 C538 0.930 . S
H546 C569 0.930 . S
H547 C570 0.929 . S
O548 Tb504 2.465 . S
O548 C568 1.264 . S
O549 Tb504 2.387 . S
O549 C560 1.264 . S
O550 Tb515 2.349 . S
O550 C560 1.243 . S
O551 Tb504 2.428 . S
O551 C568 1.256 . S
O552 Tb504 2.308 . S
O552 C567 1.266 1_556 S
O553 Tb515 2.393 1_554 S
O553 C567 1.248 . S
O554 Tb515 2.465 . S
O554 C579 1.264 . S
O555 Tb515 2.387 . S
O555 C571 1.264 . S
O556 Tb504 2.349 . S
O556 C571 1.243 . S
O557 Tb515 2.428 . S
O557 C579 1.256 . S
O558 Tb515 2.308 . S
O558 C578 1.266 . S
O559 Tb504 2.393 . S
O559 C578 1.248 . S
C560 O549 1.264 . S
C560 O550 1.243 . S
C561 C564 1.399 . S
C561 C566 1.383 . S
C561 C568 1.496 . S
C562 C563 1.399 . S
C562 C566 1.389 . S
C563 C562 1.399 . S
C563 C565 1.380 . S
C563 H580 0.929 . S
C564 C561 1.399 . S
C564 C565 1.392 . S
C564 H581 0.929 . S
C565 C563 1.380 . S
C565 C564 1.392 . S
C565 H582 0.929 . S
C566 C561 1.383 . S
C566 C562 1.389 . S
C566 H583 0.931 . S
C567 O552 1.266 1_554 S
C567 O553 1.248 . S
C568 Tb504 2.802 . S
C568 O548 1.264 . S
C568 O551 1.256 . S
C568 C561 1.496 . S
C569 C536 1.448 . S
C569 H546 0.930 . S
C569 C570 1.328 1_556 S
C570 C541 1.427 . S
C570 H547 0.929 . S
C570 C569 1.328 1_554 S
C571 O555 1.264 . S
C571 O556 1.243 . S
C572 C575 1.399 1_556 S
C572 C576 1.383 . S
C572 C579 1.496 . S
C573 C574 1.399 . S
C573 C576 1.389 . S
C574 C573 1.399 . S
C574 C577 1.380 1_556 S
C574 H584 0.929 . S
C575 C572 1.399 1_554 S
C575 C577 1.392 . S
C575 H585 0.929 . S
C576 C572 1.383 . S
C576 C573 1.389 . S
C576 H586 0.931 . S
C577 C574 1.380 1_554 S
C577 C575 1.392 . S
C577 H587 0.929 . S
C578 O558 1.266 . S
C578 O559 1.248 . S
C579 Tb515 2.802 . S
C579 O554 1.264 . S
C579 O557 1.256 . S
C579 C572 1.496 . S
H580 C563 0.929 . S
H581 C564 0.929 . S
H582 C565 0.929 . S
H583 C566 0.931 . S
H584 C574 0.929 . S
H585 C575 0.929 . S
H586 C576 0.931 . S
H587 C577 0.929 . S
Tb588 N617 2.617 . S
Tb588 N623 2.572 . S
Tb588 O632 2.465 . S
Tb588 O633 2.387 . S
Tb588 O635 2.428 . S
Tb588 O636 2.308 . S
Tb588 O640 2.349 . S
Tb588 O643 2.393 . S
Tb588 C652 2.802 . S
C589 N590 1.379 . S
C589 C592 1.416 . S
C589 C596 1.424 . S
N590 C589 1.379 . S
N590 C593 1.334 . S
N590 Tb599 2.617 . S
C591 C593 1.390 1_554 S
C591 C594 1.339 1_554 S
C591 H611 0.930 . S
C592 C589 1.416 . S
C592 C594 1.416 . S
C592 C598 1.448 . S
C593 N590 1.334 . S
C593 C591 1.390 1_556 S
C593 H604 0.930 1_556 S
C594 C591 1.339 1_556 S
C594 C592 1.416 . S
C594 H615 0.930 . S
C595 C596 1.413 . S
C595 C597 1.427 . S
C595 C601 1.416 . S
C596 C589 1.424 . S
C596 C595 1.413 . S
C596 N600 1.361 . S
C597 C595 1.427 . S
C597 C598 1.328 . S
C597 H612 0.929 . S
C598 C592 1.448 . S
C598 C597 1.328 . S
C598 H613 0.930 . S
Tb599 N590 2.617 . S
Tb599 N600 2.572 . S
Tb599 O634 2.349 . S
Tb599 O637 2.393 1_556 S
Tb599 O638 2.465 . S
Tb599 O639 2.387 . S
Tb599 O641 2.428 . S
Tb599 O642 2.308 . S
Tb599 C663 2.802 . S
N600 C596 1.361 . S
N600 Tb599 2.572 . S
N600 C602 1.340 . S
C601 C595 1.416 . S
C601 C603 1.332 . S
C601 H609 0.931 . S
C602 N600 1.340 . S
C602 C603 1.407 . S
C602 H608 0.930 . S
C603 C601 1.332 . S
C603 C602 1.407 . S
C603 H605 0.929 . S
H604 C593 0.930 1_554 S
H605 C603 0.929 . S
H606 C621 0.930 . S
H607 C628 0.929 . S
H608 C602 0.930 . S
H609 C601 0.931 . S
H610 C624 0.930 . S
H611 C591 0.930 . S
H612 C597 0.929 . S
H613 C598 0.930 . S
H614 C619 0.930 . S
H615 C594 0.930 . S
H616 C627 0.931 . S
N617 Tb588 2.617 . S
N617 C618 1.379 . S
N617 C621 1.334 . S
C618 N617 1.379 . S
C618 C620 1.416 . S
C618 C626 1.424 . S
C619 H614 0.930 . S
C619 C621 1.390 . S
C619 C622 1.339 . S
C620 C618 1.416 . S
C620 C622 1.416 . S
C620 C653 1.448 . S
C621 H606 0.930 . S
C621 N617 1.334 . S
C621 C619 1.390 . S
C622 C619 1.339 . S
C622 C620 1.416 . S
C622 H629 0.930 . S
N623 Tb588 2.572 . S
N623 C624 1.340 1_556 S
N623 C626 1.361 . S
C624 H610 0.930 . S
C624 N623 1.340 1_554 S
C624 C628 1.407 . S
C625 C626 1.413 1_554 S
C625 C627 1.416 . S
C625 C654 1.427 . S
C626 C618 1.424 . S
C626 N623 1.361 . S
C626 C625 1.413 1_556 S
C627 H616 0.931 . S
C627 C625 1.416 . S
C627 C628 1.332 . S
C628 H607 0.929 . S
C628 C624 1.407 . S
C628 C627 1.332 . S
H629 C622 0.930 . S
H630 C653 0.930 . S
H631 C654 0.929 . S
O632 Tb588 2.465 . S
O632 C652 1.264 . S
O633 Tb588 2.387 . S
O633 C644 1.264 . S
O634 Tb599 2.349 . S
O634 C644 1.243 . S
O635 Tb588 2.428 . S
O635 C652 1.256 . S
O636 Tb588 2.308 . S
O636 C651 1.266 1_556 S
O637 Tb599 2.393 1_554 S
O637 C651 1.248 . S
O638 Tb599 2.465 . S
O638 C663 1.264 . S
O639 Tb599 2.387 . S
O639 C655 1.264 . S
O640 Tb588 2.349 . S
O640 C655 1.243 . S
O641 Tb599 2.428 . S
O641 C663 1.256 . S
O642 Tb599 2.308 . S
O642 C662 1.266 . S
O643 Tb588 2.393 . S
O643 C662 1.248 . S
C644 O633 1.264 . S
C644 O634 1.243 . S
C645 C648 1.399 . S
C645 C650 1.383 . S
C645 C652 1.496 . S
C646 C647 1.399 . S
C646 C650 1.389 . S
C647 C646 1.399 . S
C647 C649 1.380 . S
C647 H664 0.929 . S
C648 C645 1.399 . S
C648 C649 1.392 . S
C648 H665 0.929 . S
C649 C647 1.380 . S
C649 C648 1.392 . S
C649 H666 0.929 . S
C650 C645 1.383 . S
C650 C646 1.389 . S
C650 H667 0.931 . S
C651 O636 1.266 1_554 S
C651 O637 1.248 . S
C652 Tb588 2.802 . S
C652 O632 1.264 . S
C652 O635 1.256 . S
C652 C645 1.496 . S
C653 C620 1.448 . S
C653 H630 0.930 . S
C653 C654 1.328 1_556 S
C654 C625 1.427 . S
C654 H631 0.929 . S
C654 C653 1.328 1_554 S
C655 O639 1.264 . S
C655 O640 1.243 . S
C656 C659 1.399 1_556 S
C656 C660 1.383 . S
C656 C663 1.496 . S
C657 C658 1.399 . S
C657 C660 1.389 . S
C658 C657 1.399 . S
C658 C661 1.380 1_556 S
C658 H668 0.929 . S
C659 C656 1.399 1_554 S
C659 C661 1.392 . S
C659 H669 0.929 . S
C660 C656 1.383 . S
C660 C657 1.389 . S
C660 H670 0.931 . S
C661 C658 1.380 1_554 S
C661 C659 1.392 . S
C661 H671 0.929 . S
C662 O642 1.266 . S
C662 O643 1.248 . S
C663 Tb599 2.802 . S
C663 O638 1.264 . S
C663 O641 1.256 . S
C663 C656 1.496 . S
H664 C647 0.929 . S
H665 C648 0.929 . S
H666 C649 0.929 . S
H667 C650 0.931 . S
H668 C658 0.929 . S
H669 C659 0.929 . S
H670 C660 0.931 . S
H671 C661 0.929 . S
Tb672 N701 2.617 . S
Tb672 N707 2.572 . S
Tb672 O716 2.465 . S
Tb672 O717 2.387 . S
Tb672 O719 2.428 . S
Tb672 O720 2.308 . S
Tb672 O724 2.349 . S
Tb672 O727 2.393 . S
Tb672 C736 2.802 . S
C673 N674 1.379 . S
C673 C676 1.416 . S
C673 C680 1.424 . S
N674 C673 1.379 . S
N674 C677 1.334 . S
N674 Tb683 2.617 . S
C675 C677 1.390 1_554 S
C675 C678 1.339 1_554 S
C675 H695 0.930 . S
C676 C673 1.416 . S
C676 C678 1.416 . S
C676 C682 1.448 . S
C677 N674 1.334 . S
C677 C675 1.390 1_556 S
C677 H688 0.930 1_556 S
C678 C675 1.339 1_556 S
C678 C676 1.416 . S
C678 H699 0.930 . S
C679 C680 1.413 . S
C679 C681 1.427 . S
C679 C685 1.416 . S
C680 C673 1.424 . S
C680 C679 1.413 . S
C680 N684 1.361 . S
C681 C679 1.427 . S
C681 C682 1.328 . S
C681 H696 0.929 . S
C682 C676 1.448 . S
C682 C681 1.328 . S
C682 H697 0.930 . S
Tb683 N674 2.617 . S
Tb683 N684 2.572 . S
Tb683 O718 2.349 . S
Tb683 O721 2.393 1_556 S
Tb683 O722 2.465 . S
Tb683 O723 2.387 . S
Tb683 O725 2.428 . S
Tb683 O726 2.308 . S
Tb683 C747 2.802 . S
N684 C680 1.361 . S
N684 Tb683 2.572 . S
N684 C686 1.340 . S
C685 C679 1.416 . S
C685 C687 1.332 . S
C685 H693 0.931 . S
C686 N684 1.340 . S
C686 C687 1.407 . S
C686 H692 0.930 . S
C687 C685 1.332 . S
C687 C686 1.407 . S
C687 H689 0.929 . S
H688 C677 0.930 1_554 S
H689 C687 0.929 . S
H690 C705 0.930 . S
H691 C712 0.929 . S
H692 C686 0.930 . S
H693 C685 0.931 . S
H694 C708 0.930 . S
H695 C675 0.930 . S
H696 C681 0.929 . S
H697 C682 0.930 . S
H698 C703 0.930 . S
H699 C678 0.930 . S
H700 C711 0.931 . S
N701 Tb672 2.617 . S
N701 C702 1.379 . S
N701 C705 1.334 . S
C702 N701 1.379 . S
C702 C704 1.416 . S
C702 C710 1.424 . S
C703 H698 0.930 . S
C703 C705 1.390 . S
C703 C706 1.339 . S
C704 C702 1.416 . S
C704 C706 1.416 . S
C704 C737 1.448 . S
C705 H690 0.930 . S
C705 N701 1.334 . S
C705 C703 1.390 . S
C706 C703 1.339 . S
C706 C704 1.416 . S
C706 H713 0.930 . S
N707 Tb672 2.572 . S
N707 C708 1.340 1_556 S
N707 C710 1.361 . S
C708 H694 0.930 . S
C708 N707 1.340 1_554 S
C708 C712 1.407 . S
C709 C710 1.413 1_554 S
C709 C711 1.416 . S
C709 C738 1.427 . S
C710 C702 1.424 . S
C710 N707 1.361 . S
C710 C709 1.413 1_556 S
C711 H700 0.931 . S
C711 C709 1.416 . S
C711 C712 1.332 . S
C712 H691 0.929 . S
C712 C708 1.407 . S
C712 C711 1.332 . S
H713 C706 0.930 . S
H714 C737 0.930 . S
H715 C738 0.929 . S
O716 Tb672 2.465 . S
O716 C736 1.264 . S
O717 Tb672 2.387 . S
O717 C728 1.264 . S
O718 Tb683 2.349 . S
O718 C728 1.243 . S
O719 Tb672 2.428 . S
O719 C736 1.256 . S
O720 Tb672 2.308 . S
O720 C735 1.266 1_556 S
O721 Tb683 2.393 1_554 S
O721 C735 1.248 . S
O722 Tb683 2.465 . S
O722 C747 1.264 . S
O723 Tb683 2.387 . S
O723 C739 1.264 . S
O724 Tb672 2.349 . S
O724 C739 1.243 . S
O725 Tb683 2.428 . S
O725 C747 1.256 . S
O726 Tb683 2.308 . S
O726 C746 1.266 . S
O727 Tb672 2.393 . S
O727 C746 1.248 . S
C728 O717 1.264 . S
C728 O718 1.243 . S
C729 C732 1.399 . S
C729 C734 1.383 . S
C729 C736 1.496 . S
C730 C731 1.399 . S
C730 C734 1.389 . S
C731 C730 1.399 . S
C731 C733 1.380 . S
C731 H748 0.929 . S
C732 C729 1.399 . S
C732 C733 1.392 . S
C732 H749 0.929 . S
C733 C731 1.380 . S
C733 C732 1.392 . S
C733 H750 0.929 . S
C734 C729 1.383 . S
C734 C730 1.389 . S
C734 H751 0.931 . S
C735 O720 1.266 1_554 S
C735 O721 1.248 . S
C736 Tb672 2.802 . S
C736 O716 1.264 . S
C736 O719 1.256 . S
C736 C729 1.496 . S
C737 C704 1.448 . S
C737 H714 0.930 . S
C737 C738 1.328 1_556 S
C738 C709 1.427 . S
C738 H715 0.929 . S
C738 C737 1.328 1_554 S
C739 O723 1.264 . S
C739 O724 1.243 . S
C740 C743 1.399 1_556 S
C740 C744 1.383 . S
C740 C747 1.496 . S
C741 C742 1.399 . S
C741 C744 1.389 . S
C742 C741 1.399 . S
C742 C745 1.380 1_556 S
C742 H752 0.929 . S
C743 C740 1.399 1_554 S
C743 C745 1.392 . S
C743 H753 0.929 . S
C744 C740 1.383 . S
C744 C741 1.389 . S
C744 H754 0.931 . S
C745 C742 1.380 1_554 S
C745 C743 1.392 . S
C745 H755 0.929 . S
C746 O726 1.266 . S
C746 O727 1.248 . S
C747 Tb683 2.802 . S
C747 O722 1.264 . S
C747 O725 1.256 . S
C747 C740 1.496 . S
H748 C731 0.929 . S
H749 C732 0.929 . S
H750 C733 0.929 . S
H751 C734 0.931 . S
H752 C742 0.929 . S
H753 C743 0.929 . S
H754 C744 0.931 . S
H755 C745 0.929 . S
Tb756 N785 2.617 . S
Tb756 N791 2.572 . S
Tb756 O800 2.465 . S
Tb756 O801 2.387 . S
Tb756 O803 2.428 . S
Tb756 O804 2.308 . S
Tb756 O808 2.349 . S
Tb756 O811 2.393 . S
Tb756 C820 2.802 . S
C757 N758 1.379 . S
C757 C760 1.416 . S
C757 C764 1.424 . S
N758 C757 1.379 . S
N758 C761 1.334 . S
N758 Tb767 2.617 . S
C759 C761 1.390 . S
C759 C762 1.339 . S
C759 H779 0.930 . S
C760 C757 1.416 . S
C760 C762 1.416 . S
C760 C766 1.448 . S
C761 N758 1.334 . S
C761 C759 1.390 . S
C761 H772 0.930 . S
C762 C759 1.339 . S
C762 C760 1.416 . S
C762 H783 0.930 . S
C763 C764 1.413 . S
C763 C765 1.427 . S
C763 C769 1.416 . S
C764 C757 1.424 . S
C764 C763 1.413 . S
C764 N768 1.361 . S
C765 C763 1.427 . S
C765 C766 1.328 . S
C765 H780 0.929 . S
C766 C760 1.448 . S
C766 C765 1.328 . S
C766 H781 0.930 . S
Tb767 N758 2.617 . S
Tb767 N768 2.572 . S
Tb767 O802 2.349 . S
Tb767 O805 2.393 . S
Tb767 O806 2.465 . S
Tb767 O807 2.387 . S
Tb767 O809 2.428 . S
Tb767 O810 2.308 . S
Tb767 C831 2.802 . S
N768 C764 1.361 . S
N768 Tb767 2.572 . S
N768 C770 1.340 . S
C769 C763 1.416 . S
C769 C771 1.332 . S
C769 H777 0.931 . S
C770 N768 1.340 . S
C770 C771 1.407 . S
C770 H776 0.930 . S
C771 C769 1.332 . S
C771 C770 1.407 . S
C771 H773 0.929 . S
H772 C761 0.930 . S
H773 C771 0.929 . S
H774 C789 0.930 . S
H775 C796 0.929 . S
H776 C770 0.930 . S
H777 C769 0.931 . S
H778 C792 0.930 . S
H779 C759 0.930 . S
H780 C765 0.929 . S
H781 C766 0.930 . S
H782 C787 0.930 . S
H783 C762 0.930 . S
H784 C795 0.931 . S
N785 Tb756 2.617 . S
N785 C786 1.379 . S
N785 C789 1.334 . S
C786 N785 1.379 . S
C786 C788 1.416 . S
C786 C794 1.424 . S
C787 H782 0.930 . S
C787 C789 1.390 . S
C787 C790 1.339 . S
C788 C786 1.416 . S
C788 C790 1.416 . S
C788 C821 1.448 . S
C789 H774 0.930 . S
C789 N785 1.334 . S
C789 C787 1.390 . S
C790 C787 1.339 . S
C790 C788 1.416 . S
C790 H797 0.930 . S
N791 Tb756 2.572 . S
N791 C792 1.340 . S
N791 C794 1.361 . S
C792 H778 0.930 . S
C792 N791 1.340 . S
C792 C796 1.407 . S
C793 C794 1.413 . S
C793 C795 1.416 . S
C793 C822 1.427 . S
C794 C786 1.424 . S
C794 N791 1.361 . S
C794 C793 1.413 . S
C795 H784 0.931 . S
C795 C793 1.416 . S
C795 C796 1.332 . S
C796 H775 0.929 . S
C796 C792 1.407 . S
C796 C795 1.332 . S
H797 C790 0.930 . S
H798 C821 0.930 . S
H799 C822 0.929 . S
O800 Tb756 2.465 . S
O800 C820 1.264 . S
O801 Tb756 2.387 . S
O801 C812 1.264 . S
O802 Tb767 2.349 . S
O802 C812 1.243 . S
O803 Tb756 2.428 . S
O803 C820 1.256 . S
O804 Tb756 2.308 . S
O804 C819 1.266 . S
O805 Tb767 2.393 . S
O805 C819 1.248 . S
O806 Tb767 2.465 . S
O806 C831 1.264 . S
O807 Tb767 2.387 . S
O807 C823 1.264 . S
O808 Tb756 2.349 . S
O808 C823 1.243 . S
O809 Tb767 2.428 . S
O809 C831 1.256 . S
O810 Tb767 2.308 . S
O810 C830 1.266 . S
O811 Tb756 2.393 . S
O811 C830 1.248 . S
C812 O801 1.264 . S
C812 O802 1.243 . S
C813 C816 1.399 . S
C813 C818 1.383 . S
C813 C820 1.496 . S
C814 C815 1.399 . S
C814 C818 1.389 . S
C815 C814 1.399 . S
C815 C817 1.380 . S
C815 H832 0.929 . S
C816 C813 1.399 . S
C816 C817 1.392 . S
C816 H833 0.929 . S
C817 C815 1.380 . S
C817 C816 1.392 . S
C817 H834 0.929 . S
C818 C813 1.383 . S
C818 C814 1.389 . S
C818 H835 0.931 . S
C819 O804 1.266 . S
C819 O805 1.248 . S
C820 Tb756 2.802 . S
C820 O800 1.264 . S
C820 O803 1.256 . S
C820 C813 1.496 . S
C821 C788 1.448 . S
C821 H798 0.930 . S
C821 C822 1.328 . S
C822 C793 1.427 . S
C822 H799 0.929 . S
C822 C821 1.328 . S
C823 O807 1.264 . S
C823 O808 1.243 . S
C824 C827 1.399 . S
C824 C828 1.383 . S
C824 C831 1.496 . S
C825 C826 1.399 . S
C825 C828 1.389 . S
C826 C825 1.399 . S
C826 C829 1.380 . S
C826 H836 0.929 . S
C827 C824 1.399 . S
C827 C829 1.392 . S
C827 H837 0.929 . S
C828 C824 1.383 . S
C828 C825 1.389 . S
C828 H838 0.931 . S
C829 C826 1.380 . S
C829 C827 1.392 . S
C829 H839 0.929 . S
C830 O810 1.266 . S
C830 O811 1.248 . S
C831 Tb767 2.802 . S
C831 O806 1.264 . S
C831 O809 1.256 . S
C831 C824 1.496 . S
H832 C815 0.929 . S
H833 C816 0.929 . S
H834 C817 0.929 . S
H835 C818 0.931 . S
H836 C826 0.929 . S
H837 C827 0.929 . S
H838 C828 0.931 . S
H839 C829 0.929 . S
Tb840 N869 2.617 . S
Tb840 N875 2.572 . S
Tb840 O884 2.465 . S
Tb840 O885 2.387 . S
Tb840 O887 2.428 . S
Tb840 O888 2.308 . S
Tb840 O892 2.349 . S
Tb840 O895 2.393 . S
Tb840 C904 2.802 . S
C841 N842 1.379 . S
C841 C844 1.416 . S
C841 C848 1.424 . S
N842 C841 1.379 . S
N842 C845 1.334 . S
N842 Tb851 2.617 . S
C843 C845 1.390 . S
C843 C846 1.339 . S
C843 H863 0.930 . S
C844 C841 1.416 . S
C844 C846 1.416 . S
C844 C850 1.448 . S
C845 N842 1.334 . S
C845 C843 1.390 . S
C845 H856 0.930 . S
C846 C843 1.339 . S
C846 C844 1.416 . S
C846 H867 0.930 . S
C847 C848 1.413 . S
C847 C849 1.427 . S
C847 C853 1.416 . S
C848 C841 1.424 . S
C848 C847 1.413 . S
C848 N852 1.361 . S
C849 C847 1.427 . S
C849 C850 1.328 . S
C849 H864 0.929 . S
C850 C844 1.448 . S
C850 C849 1.328 . S
C850 H865 0.930 . S
Tb851 N842 2.617 . S
Tb851 N852 2.572 . S
Tb851 O886 2.349 . S
Tb851 O889 2.393 . S
Tb851 O890 2.465 . S
Tb851 O891 2.387 . S
Tb851 O893 2.428 . S
Tb851 O894 2.308 . S
Tb851 C915 2.802 . S
N852 C848 1.361 . S
N852 Tb851 2.572 . S
N852 C854 1.340 . S
C853 C847 1.416 . S
C853 C855 1.332 . S
C853 H861 0.931 . S
C854 N852 1.340 . S
C854 C855 1.407 . S
C854 H860 0.930 . S
C855 C853 1.332 . S
C855 C854 1.407 . S
C855 H857 0.929 . S
H856 C845 0.930 . S
H857 C855 0.929 . S
H858 C873 0.930 . S
H859 C880 0.929 . S
H860 C854 0.930 . S
H861 C853 0.931 . S
H862 C876 0.930 . S
H863 C843 0.930 . S
H864 C849 0.929 . S
H865 C850 0.930 . S
H866 C871 0.930 . S
H867 C846 0.930 . S
H868 C879 0.931 . S
N869 Tb840 2.617 . S
N869 C870 1.379 . S
N869 C873 1.334 . S
C870 N869 1.379 . S
C870 C872 1.416 . S
C870 C878 1.424 . S
C871 H866 0.930 . S
C871 C873 1.390 . S
C871 C874 1.339 . S
C872 C870 1.416 . S
C872 C874 1.416 . S
C872 C905 1.448 . S
C873 H858 0.930 . S
C873 N869 1.334 . S
C873 C871 1.390 . S
C874 C871 1.339 . S
C874 C872 1.416 . S
C874 H881 0.930 . S
N875 Tb840 2.572 . S
N875 C876 1.340 . S
N875 C878 1.361 . S
C876 H862 0.930 . S
C876 N875 1.340 . S
C876 C880 1.407 . S
C877 C878 1.413 . S
C877 C879 1.416 . S
C877 C906 1.427 . S
C878 C870 1.424 . S
C878 N875 1.361 . S
C878 C877 1.413 . S
C879 H868 0.931 . S
C879 C877 1.416 . S
C879 C880 1.332 . S
C880 H859 0.929 . S
C880 C876 1.407 . S
C880 C879 1.332 . S
H881 C874 0.930 . S
H882 C905 0.930 . S
H883 C906 0.929 . S
O884 Tb840 2.465 . S
O884 C904 1.264 . S
O885 Tb840 2.387 . S
O885 C896 1.264 . S
O886 Tb851 2.349 . S
O886 C896 1.243 . S
O887 Tb840 2.428 . S
O887 C904 1.256 . S
O888 Tb840 2.308 . S
O888 C903 1.266 . S
O889 Tb851 2.393 . S
O889 C903 1.248 . S
O890 Tb851 2.465 . S
O890 C915 1.264 . S
O891 Tb851 2.387 . S
O891 C907 1.264 . S
O892 Tb840 2.349 . S
O892 C907 1.243 . S
O893 Tb851 2.428 . S
O893 C915 1.256 . S
O894 Tb851 2.308 . S
O894 C914 1.266 . S
O895 Tb840 2.393 . S
O895 C914 1.248 . S
C896 O885 1.264 . S
C896 O886 1.243 . S
C897 C900 1.399 . S
C897 C902 1.383 . S
C897 C904 1.496 . S
C898 C899 1.399 . S
C898 C902 1.389 . S
C899 C898 1.399 . S
C899 C901 1.380 . S
C899 H916 0.929 . S
C900 C897 1.399 . S
C900 C901 1.392 . S
C900 H917 0.929 . S
C901 C899 1.380 . S
C901 C900 1.392 . S
C901 H918 0.929 . S
C902 C897 1.383 . S
C902 C898 1.389 . S
C902 H919 0.931 . S
C903 O888 1.266 . S
C903 O889 1.248 . S
C904 Tb840 2.802 . S
C904 O884 1.264 . S
C904 O887 1.256 . S
C904 C897 1.496 . S
C905 C872 1.448 . S
C905 H882 0.930 . S
C905 C906 1.328 . S
C906 C877 1.427 . S
C906 H883 0.929 . S
C906 C905 1.328 . S
C907 O891 1.264 . S
C907 O892 1.243 . S
C908 C911 1.399 . S
C908 C912 1.383 . S
C908 C915 1.496 . S
C909 C910 1.399 . S
C909 C912 1.389 . S
C910 C909 1.399 . S
C910 C913 1.380 . S
C910 H920 0.929 . S
C911 C908 1.399 . S
C911 C913 1.392 . S
C911 H921 0.929 . S
C912 C908 1.383 . S
C912 C909 1.389 . S
C912 H922 0.931 . S
C913 C910 1.380 . S
C913 C911 1.392 . S
C913 H923 0.929 . S
C914 O894 1.266 . S
C914 O895 1.248 . S
C915 Tb851 2.802 . S
C915 O890 1.264 . S
C915 O893 1.256 . S
C915 C908 1.496 . S
H916 C899 0.929 . S
H917 C900 0.929 . S
H918 C901 0.929 . S
H919 C902 0.931 . S
H920 C910 0.929 . S
H921 C911 0.929 . S
H922 C912 0.931 . S
H923 C913 0.929 . S
Tb924 N953 2.617 . S
Tb924 N959 2.572 . S
Tb924 O968 2.465 . S
Tb924 O969 2.387 . S
Tb924 O971 2.428 . S
Tb924 O972 2.308 . S
Tb924 O976 2.349 . S
Tb924 O979 2.393 . S
Tb924 C988 2.802 . S
C925 N926 1.379 . S
C925 C928 1.416 . S
C925 C932 1.424 . S
N926 C925 1.379 . S
N926 C929 1.334 . S
N926 Tb935 2.617 . S
C927 C929 1.390 . S
C927 C930 1.339 . S
C927 H947 0.930 . S
C928 C925 1.416 . S
C928 C930 1.416 . S
C928 C934 1.448 . S
C929 N926 1.334 . S
C929 C927 1.390 . S
C929 H940 0.930 . S
C930 C927 1.339 . S
C930 C928 1.416 . S
C930 H951 0.930 . S
C931 C932 1.413 . S
C931 C933 1.427 . S
C931 C937 1.416 . S
C932 C925 1.424 . S
C932 C931 1.413 . S
C932 N936 1.361 . S
C933 C931 1.427 . S
C933 C934 1.328 . S
C933 H948 0.929 . S
C934 C928 1.448 . S
C934 C933 1.328 . S
C934 H949 0.930 . S
Tb935 N926 2.617 . S
Tb935 N936 2.572 . S
Tb935 O970 2.349 . S
Tb935 O973 2.393 . S
Tb935 O974 2.465 . S
Tb935 O975 2.387 . S
Tb935 O977 2.428 . S
Tb935 O978 2.308 . S
Tb935 C999 2.802 . S
N936 C932 1.361 . S
N936 Tb935 2.572 . S
N936 C938 1.340 . S
C937 C931 1.416 . S
C937 C939 1.332 . S
C937 H945 0.931 . S
C938 N936 1.340 . S
C938 C939 1.407 . S
C938 H944 0.930 . S
C939 C937 1.332 . S
C939 C938 1.407 . S
C939 H941 0.929 . S
H940 C929 0.930 . S
H941 C939 0.929 . S
H942 C957 0.930 . S
H943 C964 0.929 . S
H944 C938 0.930 . S
H945 C937 0.931 . S
H946 C960 0.930 . S
H947 C927 0.930 . S
H948 C933 0.929 . S
H949 C934 0.930 . S
H950 C955 0.930 . S
H951 C930 0.930 . S
H952 C963 0.931 . S
N953 Tb924 2.617 . S
N953 C954 1.379 . S
N953 C957 1.334 . S
C954 N953 1.379 . S
C954 C956 1.416 . S
C954 C962 1.424 . S
C955 H950 0.930 . S
C955 C957 1.390 . S
C955 C958 1.339 . S
C956 C954 1.416 . S
C956 C958 1.416 . S
C956 C989 1.448 . S
C957 H942 0.930 . S
C957 N953 1.334 . S
C957 C955 1.390 . S
C958 C955 1.339 . S
C958 C956 1.416 . S
C958 H965 0.930 . S
N959 Tb924 2.572 . S
N959 C960 1.340 . S
N959 C962 1.361 . S
C960 H946 0.930 . S
C960 N959 1.340 . S
C960 C964 1.407 . S
C961 C962 1.413 . S
C961 C963 1.416 . S
C961 C990 1.427 . S
C962 C954 1.424 . S
C962 N959 1.361 . S
C962 C961 1.413 . S
C963 H952 0.931 . S
C963 C961 1.416 . S
C963 C964 1.332 . S
C964 H943 0.929 . S
C964 C960 1.407 . S
C964 C963 1.332 . S
H965 C958 0.930 . S
H966 C989 0.930 . S
H967 C990 0.929 . S
O968 Tb924 2.465 . S
O968 C988 1.264 . S
O969 Tb924 2.387 . S
O969 C980 1.264 . S
O970 Tb935 2.349 . S
O970 C980 1.243 . S
O971 Tb924 2.428 . S
O971 C988 1.256 . S
O972 Tb924 2.308 . S
O972 C987 1.266 . S
O973 Tb935 2.393 . S
O973 C987 1.248 . S
O974 Tb935 2.465 . S
O974 C999 1.264 . S
O975 Tb935 2.387 . S
O975 C991 1.264 . S
O976 Tb924 2.349 . S
O976 C991 1.243 . S
O977 Tb935 2.428 . S
O977 C999 1.256 . S
O978 Tb935 2.308 . S
O978 C998 1.266 . S
O979 Tb924 2.393 . S
O979 C998 1.248 . S
C980 O969 1.264 . S
C980 O970 1.243 . S
C981 C984 1.399 . S
C981 C986 1.383 . S
C981 C988 1.496 . S
C982 C983 1.399 . S
C982 C986 1.389 . S
C983 C982 1.399 . S
C983 C985 1.380 . S
C983 H1000 0.929 . S
C984 C981 1.399 . S
C984 C985 1.392 . S
C984 H1001 0.929 . S
C985 C983 1.380 . S
C985 C984 1.392 . S
C985 H1002 0.929 . S
C986 C981 1.383 . S
C986 C982 1.389 . S
C986 H1003 0.931 . S
C987 O972 1.266 . S
C987 O973 1.248 . S
C988 Tb924 2.802 . S
C988 O968 1.264 . S
C988 O971 1.256 . S
C988 C981 1.496 . S
C989 C956 1.448 . S
C989 H966 0.930 . S
C989 C990 1.328 . S
C990 C961 1.427 . S
C990 H967 0.929 . S
C990 C989 1.328 . S
C991 O975 1.264 . S
C991 O976 1.243 . S
C992 C995 1.399 . S
C992 C996 1.383 . S
C992 C999 1.496 . S
C993 C994 1.399 . S
C993 C996 1.389 . S
C994 C993 1.399 . S
C994 C997 1.380 . S
C994 H1004 0.929 . S
C995 C992 1.399 . S
C995 C997 1.392 . S
C995 H1005 0.929 . S
C996 C992 1.383 . S
C996 C993 1.389 . S
C996 H1006 0.931 . S
C997 C994 1.380 . S
C997 C995 1.392 . S
C997 H1007 0.929 . S
C998 O978 1.266 . S
C998 O979 1.248 . S
C999 Tb935 2.802 . S
C999 O974 1.264 . S
C999 O977 1.256 . S
C999 C992 1.496 . S
H1000 C983 0.929 . S
H1001 C984 0.929 . S
H1002 C985 0.929 . S
H1003 C986 0.931 . S
H1004 C994 0.929 . S
H1005 C995 0.929 . S
H1006 C996 0.931 . S
H1007 C997 0.929 . S
H1008 C1016 0.950 1_556 S
H1009 C1021 0.950 . S
H1010 C1018 0.950 . S
H1011 C1020 0.951 1_655 S
H1012 C1022 0.950 1_554 S
H1013 C1024 0.950 . S
H1014 C1026 0.951 1_455 S
H1015 C1027 0.950 . S
C1016 H1008 0.950 1_554 S
C1016 C1017 1.386 . S
C1016 C1018 1.391 1_554 S
C1017 C1016 1.386 . S
C1017 C1021 1.393 . S
C1018 H1010 0.950 . S
C1018 C1016 1.391 1_556 S
C1018 C1019 1.400 1_556 S
C1019 C1018 1.400 1_554 S
C1019 C1020 1.398 . S
C1019 C1025 1.491 1_454 S
C1020 H1011 0.951 1_455 S
C1020 C1019 1.398 . S
C1020 C1021 1.391 . S
C1021 H1009 0.950 . S
C1021 C1017 1.393 . S
C1021 C1020 1.391 . S
C1022 H1012 0.950 1_556 S
C1022 C1023 1.386 . S
C1022 C1024 1.391 1_556 S
C1023 C1022 1.386 . S
C1023 C1027 1.393 . S
C1024 H1013 0.950 . S
C1024 C1022 1.391 1_554 S
C1024 C1025 1.400 1_554 S
C1025 C1019 1.491 1_656 S
C1025 C1024 1.400 1_556 S
C1025 C1026 1.398 . S
C1026 H1014 0.951 1_655 S
C1026 C1025 1.398 . S
C1026 C1027 1.391 . S
C1027 H1015 0.950 . S
C1027 C1023 1.393 . S
C1027 C1026 1.391 . S
H1028 C1036 0.950 . S
H1029 C1041 0.950 1_554 S
H1030 C1038 0.950 . S
H1031 C1040 0.950 . S
H1032 C1042 0.950 . S
H1033 C1044 0.950 . S
H1034 C1046 0.950 . S
H1035 C1047 0.950 1_556 S
C1036 H1028 0.950 . S
C1036 C1037 1.386 . S
C1036 C1038 1.391 . S
C1037 C1036 1.386 . S
C1037 C1041 1.393 . S
C1038 H1030 0.950 . S
C1038 C1036 1.391 . S
C1038 C1039 1.400 . S
C1039 C1038 1.400 . S
C1039 C1040 1.398 1_556 S
C1039 C1045 1.491 1_556 S
C1040 H1031 0.950 . S
C1040 C1039 1.398 1_554 S
C1040 C1041 1.391 1_554 S
C1041 H1029 0.950 1_556 S
C1041 C1037 1.393 . S
C1041 C1040 1.391 1_556 S
C1042 H1032 0.950 . S
C1042 C1043 1.386 . S
C1042 C1044 1.391 . S
C1043 C1042 1.386 . S
C1043 C1047 1.393 . S
C1044 H1033 0.950 . S
C1044 C1042 1.391 . S
C1044 C1045 1.400 . S
C1045 C1039 1.491 1_554 S
C1045 C1044 1.400 . S
C1045 C1046 1.398 1_554 S
C1046 H1034 0.950 . S
C1046 C1045 1.398 1_556 S
C1046 C1047 1.391 1_556 S
C1047 H1035 0.950 1_554 S
C1047 C1043 1.393 . S
C1047 C1046 1.391 1_554 S
H1048 C1056 0.950 1_565 S
H1049 C1061 0.950 1_554 S
H1050 C1058 0.950 . S
H1051 C1060 0.950 . S
H1052 C1062 0.950 1_545 S
H1053 C1064 0.950 . S
H1054 C1066 0.950 . S
H1055 C1067 0.950 1_556 S
C1056 H1048 0.950 1_545 S
C1056 C1057 1.386 . S
C1056 C1058 1.391 1_545 S
C1057 C1056 1.386 . S
C1057 C1061 1.393 . S
C1058 H1050 0.950 . S
C1058 C1056 1.391 1_565 S
C1058 C1059 1.400 1_565 S
C1059 C1058 1.400 1_545 S
C1059 C1060 1.398 1_556 S
C1059 C1065 1.491 1_546 S
C1060 H1051 0.950 . S
C1060 C1059 1.398 1_554 S
C1060 C1061 1.391 1_554 S
C1061 H1049 0.950 1_556 S
C1061 C1057 1.393 . S
C1061 C1060 1.391 1_556 S
C1062 H1052 0.950 1_565 S
C1062 C1063 1.386 . S
C1062 C1064 1.391 1_565 S
C1063 C1062 1.386 . S
C1063 C1067 1.393 . S
C1064 H1053 0.950 . S
C1064 C1062 1.391 1_545 S
C1064 C1065 1.400 1_545 S
C1065 C1059 1.491 1_564 S
C1065 C1064 1.400 1_565 S
C1065 C1066 1.398 1_554 S
C1066 H1054 0.950 . S
C1066 C1065 1.398 1_556 S
C1066 C1067 1.391 1_556 S
C1067 H1055 0.950 1_554 S
C1067 C1063 1.393 . S
C1067 C1066 1.391 1_554 S
H1068 C1076 0.950 . S
H1069 C1081 0.950 . S
H1070 C1078 0.950 . S
H1071 C1080 0.950 . S
H1072 C1082 0.950 . S
H1073 C1084 0.950 . S
H1074 C1086 0.950 . S
H1075 C1087 0.950 . S
C1076 H1068 0.950 . S
C1076 C1077 1.386 . S
C1076 C1078 1.391 . S
C1077 C1076 1.386 . S
C1077 C1081 1.393 1_545 S
C1078 H1070 0.950 . S
C1078 C1076 1.391 . S
C1078 C1079 1.400 . S
C1079 C1078 1.400 . S
C1079 C1080 1.398 1_545 S
C1079 C1085 1.491 1_545 S
C1080 H1071 0.950 . S
C1080 C1079 1.398 1_565 S
C1080 C1081 1.391 . S
C1081 H1069 0.950 . S
C1081 C1077 1.393 1_565 S
C1081 C1080 1.391 . S
C1082 H1072 0.950 . S
C1082 C1083 1.386 . S
C1082 C1084 1.391 . S
C1083 C1082 1.386 . S
C1083 C1087 1.393 1_565 S
C1084 H1073 0.950 . S
C1084 C1082 1.391 . S
C1084 C1085 1.400 . S
C1085 C1079 1.491 1_565 S
C1085 C1084 1.400 . S
C1085 C1086 1.398 1_565 S
C1086 H1074 0.950 . S
C1086 C1085 1.398 1_545 S
C1086 C1087 1.391 . S
C1087 H1075 0.950 . S
C1087 C1083 1.393 1_545 S
C1087 C1086 1.391 . S
H1088 C1096 0.950 . S
H1089 C1101 0.949 . S
H1090 C1098 0.950 . S
H1091 C1100 0.950 . S
H1092 C1102 0.950 . S
H1093 C1104 0.950 . S
H1094 C1106 0.950 . S
H1095 C1107 0.949 . S
C1096 H1088 0.950 . S
C1096 C1097 1.386 . S
C1096 C1098 1.391 . S
C1097 C1096 1.386 . S
C1097 C1101 1.393 . S
C1098 H1090 0.950 . S
C1098 C1096 1.391 . S
C1098 C1099 1.400 . S
C1099 C1098 1.400 . S
C1099 C1100 1.398 1_455 S
C1099 C1105 1.491 1_455 S
C1100 H1091 0.950 . S
C1100 C1099 1.398 1_655 S
C1100 C1101 1.391 1_655 S
C1101 H1089 0.949 . S
C1101 C1097 1.393 . S
C1101 C1100 1.391 1_455 S
C1102 H1092 0.950 . S
C1102 C1103 1.386 . S
C1102 C1104 1.391 . S
C1103 C1102 1.386 . S
C1103 C1107 1.393 . S
C1104 H1093 0.950 . S
C1104 C1102 1.391 . S
C1104 C1105 1.400 . S
C1105 C1099 1.491 1_655 S
C1105 C1104 1.400 . S
C1105 C1106 1.398 1_655 S
C1106 H1094 0.950 . S
C1106 C1105 1.398 1_455 S
C1106 C1107 1.391 1_455 S
C1107 H1095 0.949 . S
C1107 C1103 1.393 . S
C1107 C1106 1.391 1_655 S
H1108 C1116 0.950 . S
H1109 C1121 0.950 . S
H1110 C1118 0.950 . S
H1111 C1120 0.950 . S
H1112 C1122 0.950 . S
H1113 C1124 0.950 . S
H1114 C1126 0.950 . S
H1115 C1127 0.950 . S
C1116 H1108 0.950 . S
C1116 C1117 1.386 . S
C1116 C1118 1.391 . S
C1117 C1116 1.386 . S
C1117 C1121 1.393 . S
C1118 H1110 0.950 . S
C1118 C1116 1.391 . S
C1118 C1119 1.400 . S
C1119 C1118 1.400 . S
C1119 C1120 1.398 . S
C1119 C1125 1.491 . S
C1120 H1111 0.950 . S
C1120 C1119 1.398 . S
C1120 C1121 1.391 . S
C1121 H1109 0.950 . S
C1121 C1117 1.393 . S
C1121 C1120 1.391 . S
C1122 H1112 0.950 . S
C1122 C1123 1.386 . S
C1122 C1124 1.391 . S
C1123 C1122 1.386 . S
C1123 C1127 1.393 . S
C1124 H1113 0.950 . S
C1124 C1122 1.391 . S
C1124 C1125 1.400 . S
C1125 C1119 1.491 . S
C1125 C1124 1.400 . S
C1125 C1126 1.398 . S
C1126 H1114 0.950 . S
C1126 C1125 1.398 . S
C1126 C1127 1.391 . S
C1127 H1115 0.950 . S
C1127 C1123 1.393 . S
C1127 C1126 1.391 . S
H1128 C1136 0.950 . S
H1129 C1141 0.950 . S
H1130 C1138 0.950 . S
H1131 C1140 0.950 . S
H1132 C1142 0.950 . S
H1133 C1144 0.950 . S
H1134 C1146 0.950 . S
H1135 C1147 0.950 . S
C1136 H1128 0.950 . S
C1136 C1137 1.386 . S
C1136 C1138 1.391 . S
C1137 C1136 1.386 . S
C1137 C1141 1.393 . S
C1138 H1130 0.950 . S
C1138 C1136 1.391 . S
C1138 C1139 1.400 . S
C1139 C1138 1.400 . S
C1139 C1140 1.398 . S
C1139 C1145 1.491 1_655 S
C1140 H1131 0.950 . S
C1140 C1139 1.398 . S
C1140 C1141 1.391 . S
C1141 H1129 0.950 . S
C1141 C1137 1.393 . S
C1141 C1140 1.391 . S
C1142 H1132 0.950 . S
C1142 C1143 1.386 . S
C1142 C1144 1.391 . S
C1143 C1142 1.386 . S
C1143 C1147 1.393 . S
C1144 H1133 0.950 . S
C1144 C1142 1.391 . S
C1144 C1145 1.400 . S
C1145 C1139 1.491 1_455 S
C1145 C1144 1.400 . S
C1145 C1146 1.398 . S
C1146 H1134 0.950 . S
C1146 C1145 1.398 . S
C1146 C1147 1.391 . S
C1147 H1135 0.950 . S
C1147 C1143 1.393 . S
C1147 C1146 1.391 . S
H1148 C1156 0.950 . S
H1149 C1161 0.950 . S
H1150 C1158 0.950 . S
H1151 C1160 0.950 . S
H1152 C1162 0.950 . S
H1153 C1164 0.950 . S
H1154 C1166 0.950 . S
H1155 C1167 0.950 . S
C1156 H1148 0.950 . S
C1156 C1157 1.386 . S
C1156 C1158 1.391 . S
C1157 C1156 1.386 . S
C1157 C1161 1.393 . S
C1158 H1150 0.950 . S
C1158 C1156 1.391 . S
C1158 C1159 1.400 . S
C1159 C1158 1.400 . S
C1159 C1160 1.398 . S
C1159 C1165 1.491 . S
C1160 H1151 0.950 . S
C1160 C1159 1.398 . S
C1160 C1161 1.391 . S
C1161 H1149 0.950 . S
C1161 C1157 1.393 . S
C1161 C1160 1.391 . S
C1162 H1152 0.950 . S
C1162 C1163 1.386 . S
C1162 C1164 1.391 . S
C1163 C1162 1.386 . S
C1163 C1167 1.393 . S
C1164 H1153 0.950 . S
C1164 C1162 1.391 . S
C1164 C1165 1.400 . S
C1165 C1159 1.491 . S
C1165 C1164 1.400 . S
C1165 C1166 1.398 . S
C1166 H1154 0.950 . S
C1166 C1165 1.398 . S
C1166 C1167 1.391 . S
C1167 H1155 0.950 . S
C1167 C1163 1.393 . S
C1167 C1166 1.391 . S
H1168 C1176 0.950 . S
H1169 C1181 0.950 . S
H1170 C1178 0.950 . S
H1171 C1180 0.950 . S
H1172 C1182 0.950 . S
H1173 C1184 0.950 . S
H1174 C1186 0.950 . S
H1175 C1187 0.950 . S
C1176 H1168 0.950 . S
C1176 C1177 1.386 . S
C1176 C1178 1.391 . S
C1177 C1176 1.386 . S
C1177 C1181 1.393 . S
C1178 H1170 0.950 . S
C1178 C1176 1.391 . S
C1178 C1179 1.400 . S
C1179 C1178 1.400 . S
C1179 C1180 1.398 . S
C1179 C1185 1.491 1_545 S
C1180 H1171 0.950 . S
C1180 C1179 1.398 . S
C1180 C1181 1.391 . S
C1181 H1169 0.950 . S
C1181 C1177 1.393 . S
C1181 C1180 1.391 . S
C1182 H1172 0.950 . S
C1182 C1183 1.386 . S
C1182 C1184 1.391 . S
C1183 C1182 1.386 . S
C1183 C1187 1.393 . S
C1184 H1173 0.950 . S
C1184 C1182 1.391 . S
C1184 C1185 1.400 . S
C1185 C1179 1.491 1_565 S
C1185 C1184 1.400 . S
C1185 C1186 1.398 . S
C1186 H1174 0.950 . S
C1186 C1185 1.398 . S
C1186 C1187 1.391 . S
C1187 H1175 0.950 . S
C1187 C1183 1.393 . S
C1187 C1186 1.391 . S
H1188 C1196 0.950 . S
H1189 C1201 0.950 . S
H1190 C1198 0.950 . S
H1191 C1200 0.950 . S
H1192 C1202 0.950 . S
H1193 C1204 0.950 . S
H1194 C1206 0.950 . S
H1195 C1207 0.950 . S
C1196 H1188 0.950 . S
C1196 C1197 1.386 . S
C1196 C1198 1.391 . S
C1197 C1196 1.386 . S
C1197 C1201 1.393 . S
C1198 H1190 0.950 . S
C1198 C1196 1.391 . S
C1198 C1199 1.400 . S
C1199 C1198 1.400 . S
C1199 C1200 1.398 . S
C1199 C1205 1.491 1_455 S
C1200 H1191 0.950 . S
C1200 C1199 1.398 . S
C1200 C1201 1.391 . S
C1201 H1189 0.950 . S
C1201 C1197 1.393 . S
C1201 C1200 1.391 . S
C1202 H1192 0.950 . S
C1202 C1203 1.386 . S
C1202 C1204 1.391 . S
C1203 C1202 1.386 . S
C1203 C1207 1.393 . S
C1204 H1193 0.950 . S
C1204 C1202 1.391 . S
C1204 C1205 1.400 . S
C1205 C1199 1.491 1_655 S
C1205 C1204 1.400 . S
C1205 C1206 1.398 . S
C1206 H1194 0.950 . S
C1206 C1205 1.398 . S
C1206 C1207 1.391 . S
C1207 H1195 0.950 . S
C1207 C1203 1.393 . S
C1207 C1206 1.391 . S
H1208 C1216 0.950 . S
H1209 C1221 0.950 . S
H1210 C1218 0.950 . S
H1211 C1220 0.950 . S
H1212 C1222 0.950 . S
H1213 C1224 0.950 . S
H1214 C1226 0.950 . S
H1215 C1227 0.950 . S
C1216 H1208 0.950 . S
C1216 C1217 1.386 . S
C1216 C1218 1.391 . S
C1217 C1216 1.386 . S
C1217 C1221 1.393 . S
C1218 H1210 0.950 . S
C1218 C1216 1.391 . S
C1218 C1219 1.400 . S
C1219 C1218 1.400 . S
C1219 C1220 1.398 . S
C1219 C1225 1.491 . S
C1220 H1211 0.950 . S
C1220 C1219 1.398 . S
C1220 C1221 1.391 . S
C1221 H1209 0.950 . S
C1221 C1217 1.393 . S
C1221 C1220 1.391 . S
C1222 H1212 0.950 . S
C1222 C1223 1.386 . S
C1222 C1224 1.391 . S
C1223 C1222 1.386 . S
C1223 C1227 1.393 . S
C1224 H1213 0.950 . S
C1224 C1222 1.391 . S
C1224 C1225 1.400 . S
C1225 C1219 1.491 . S
C1225 C1224 1.400 . S
C1225 C1226 1.398 . S
C1226 H1214 0.950 . S
C1226 C1225 1.398 . S
C1226 C1227 1.391 . S
C1227 H1215 0.950 . S
C1227 C1223 1.393 . S
C1227 C1226 1.391 . S
H1228 C1236 0.950 . S
H1229 C1241 0.950 . S
H1230 C1238 0.950 . S
H1231 C1240 0.950 . S
H1232 C1242 0.950 . S
H1233 C1244 0.950 . S
H1234 C1246 0.950 . S
H1235 C1247 0.950 . S
C1236 H1228 0.950 . S
C1236 C1237 1.386 . S
C1236 C1238 1.391 . S
C1237 C1236 1.386 . S
C1237 C1241 1.393 . S
C1238 H1230 0.950 . S
C1238 C1236 1.391 . S
C1238 C1239 1.400 . S
C1239 C1238 1.400 . S
C1239 C1240 1.398 . S
C1239 C1245 1.491 1_545 S
C1240 H1231 0.950 . S
C1240 C1239 1.398 . S
C1240 C1241 1.391 . S
C1241 H1229 0.950 . S
C1241 C1237 1.393 . S
C1241 C1240 1.391 . S
C1242 H1232 0.950 . S
C1242 C1243 1.386 . S
C1242 C1244 1.391 . S
C1243 C1242 1.386 . S
C1243 C1247 1.393 . S
C1244 H1233 0.950 . S
C1244 C1242 1.391 . S
C1244 C1245 1.400 . S
C1245 C1239 1.491 1_565 S
C1245 C1244 1.400 . S
C1245 C1246 1.398 . S
C1246 H1234 0.950 . S
C1246 C1245 1.398 . S
C1246 C1247 1.391 . S
C1247 H1235 0.950 . S
C1247 C1243 1.393 . S
C1247 C1246 1.391 . S
H1248 C1256 0.950 . S
H1249 C1261 0.950 . S
H1250 C1258 0.950 . S
H1251 C1260 0.950 . S
H1252 C1262 0.950 . S
H1253 C1264 0.950 . S
H1254 C1266 0.950 . S
H1255 C1267 0.950 . S
C1256 H1248 0.950 . S
C1256 C1257 1.386 . S
C1256 C1258 1.391 . S
C1257 C1256 1.386 . S
C1257 C1261 1.393 . S
C1258 H1250 0.950 . S
C1258 C1256 1.391 . S
C1258 C1259 1.400 . S
C1259 C1258 1.400 . S
C1259 C1260 1.398 . S
C1259 C1265 1.491 . S
C1260 H1251 0.950 . S
C1260 C1259 1.398 . S
C1260 C1261 1.391 . S
C1261 H1249 0.950 . S
C1261 C1257 1.393 . S
C1261 C1260 1.391 . S
C1262 H1252 0.950 . S
C1262 C1263 1.386 . S
C1262 C1264 1.391 . S
C1263 C1262 1.386 . S
C1263 C1267 1.393 . S
C1264 H1253 0.950 . S
C1264 C1262 1.391 . S
C1264 C1265 1.400 . S
C1265 C1259 1.491 . S
C1265 C1264 1.400 . S
C1265 C1266 1.398 . S
C1266 H1254 0.950 . S
C1266 C1265 1.398 . S
C1266 C1267 1.391 . S
C1267 H1255 0.950 . S
C1267 C1263 1.393 . S
C1267 C1266 1.391 . S
H1268 C1276 0.950 . S
H1269 C1281 0.950 . S
H1270 C1278 0.950 . S
H1271 C1280 0.950 . S
H1272 C1282 0.950 . S
H1273 C1284 0.950 . S
H1274 C1286 0.950 . S
H1275 C1287 0.950 . S
C1276 H1268 0.950 . S
C1276 C1277 1.386 . S
C1276 C1278 1.391 . S
C1277 C1276 1.386 . S
C1277 C1281 1.393 . S
C1278 H1270 0.950 . S
C1278 C1276 1.391 . S
C1278 C1279 1.400 . S
C1279 C1278 1.400 . S
C1279 C1280 1.398 . S
C1279 C1285 1.491 . S
C1280 H1271 0.950 . S
C1280 C1279 1.398 . S
C1280 C1281 1.391 . S
C1281 H1269 0.950 . S
C1281 C1277 1.393 . S
C1281 C1280 1.391 . S
C1282 H1272 0.950 . S
C1282 C1283 1.386 . S
C1282 C1284 1.391 . S
C1283 C1282 1.386 . S
C1283 C1287 1.393 . S
C1284 H1273 0.950 . S
C1284 C1282 1.391 . S
C1284 C1285 1.400 . S
C1285 C1279 1.491 . S
C1285 C1284 1.400 . S
C1285 C1286 1.398 . S
C1286 H1274 0.950 . S
C1286 C1285 1.398 . S
C1286 C1287 1.391 . S
C1287 H1275 0.950 . S
C1287 C1283 1.393 . S
C1287 C1286 1.391 . S
H1288 C1296 0.950 . S
H1289 C1301 0.950 . S
H1290 C1298 0.950 . S
H1291 C1300 0.950 . S
H1292 C1302 0.950 . S
H1293 C1304 0.950 . S
H1294 C1306 0.950 . S
H1295 C1307 0.950 . S
C1296 H1288 0.950 . S
C1296 C1297 1.386 . S
C1296 C1298 1.391 . S
C1297 C1296 1.386 . S
C1297 C1301 1.393 . S
C1298 H1290 0.950 . S
C1298 C1296 1.391 . S
C1298 C1299 1.400 . S
C1299 C1298 1.400 . S
C1299 C1300 1.398 . S
C1299 C1305 1.491 . S
C1300 H1291 0.950 . S
C1300 C1299 1.398 . S
C1300 C1301 1.391 . S
C1301 H1289 0.950 . S
C1301 C1297 1.393 . S
C1301 C1300 1.391 . S
C1302 H1292 0.950 . S
C1302 C1303 1.386 . S
C1302 C1304 1.391 . S
C1303 C1302 1.386 . S
C1303 C1307 1.393 . S
C1304 H1293 0.950 . S
C1304 C1302 1.391 . S
C1304 C1305 1.400 . S
C1305 C1299 1.491 . S
C1305 C1304 1.400 . S
C1305 C1306 1.398 . S
C1306 H1294 0.950 . S
C1306 C1305 1.398 . S
C1306 C1307 1.391 . S
C1307 H1295 0.950 . S
C1307 C1303 1.393 . S
C1307 C1306 1.391 . S
H1308 C1316 0.950 . S
H1309 C1321 0.950 . S
H1310 C1318 0.950 . S
H1311 C1320 0.950 . S
H1312 C1322 0.950 . S
H1313 C1324 0.950 . S
H1314 C1326 0.950 . S
H1315 C1327 0.950 . S
C1316 H1308 0.950 . S
C1316 C1317 1.386 . S
C1316 C1318 1.391 . S
C1317 C1316 1.386 . S
C1317 C1321 1.393 . S
C1318 H1310 0.950 . S
C1318 C1316 1.391 . S
C1318 C1319 1.400 . S
C1319 C1318 1.400 . S
C1319 C1320 1.398 . S
C1319 C1325 1.491 . S
C1320 H1311 0.950 . S
C1320 C1319 1.398 . S
C1320 C1321 1.391 . S
C1321 H1309 0.950 . S
C1321 C1317 1.393 . S
C1321 C1320 1.391 . S
C1322 H1312 0.950 . S
C1322 C1323 1.386 . S
C1322 C1324 1.391 . S
C1323 C1322 1.386 . S
C1323 C1327 1.393 . S
C1324 H1313 0.950 . S
C1324 C1322 1.391 . S
C1324 C1325 1.400 . S
C1325 C1319 1.491 . S
C1325 C1324 1.400 . S
C1325 C1326 1.398 . S
C1326 H1314 0.950 . S
C1326 C1325 1.398 . S
C1326 C1327 1.391 . S
C1327 H1315 0.950 . S
C1327 C1323 1.393 . S
C1327 C1326 1.391 . S
H1328 C1336 0.950 . S
H1329 C1341 0.950 . S
H1330 C1338 0.950 . S
H1331 C1340 0.950 . S
H1332 C1342 0.950 . S
H1333 C1344 0.950 . S
H1334 C1346 0.950 . S
H1335 C1347 0.950 . S
C1336 H1328 0.950 . S
C1336 C1337 1.386 . S
C1336 C1338 1.391 . S
C1337 C1336 1.386 . S
C1337 C1341 1.393 . S
C1338 H1330 0.950 . S
C1338 C1336 1.391 . S
C1338 C1339 1.400 . S
C1339 C1338 1.400 . S
C1339 C1340 1.398 . S
C1339 C1345 1.491 . S
C1340 H1331 0.950 . S
C1340 C1339 1.398 . S
C1340 C1341 1.391 . S
C1341 H1329 0.950 . S
C1341 C1337 1.393 . S
C1341 C1340 1.391 . S
C1342 H1332 0.950 . S
C1342 C1343 1.386 . S
C1342 C1344 1.391 . S
C1343 C1342 1.386 . S
C1343 C1347 1.393 . S
C1344 H1333 0.950 . S
C1344 C1342 1.391 . S
C1344 C1345 1.400 . S
C1345 C1339 1.491 . S
C1345 C1344 1.400 . S
C1345 C1346 1.398 . S
C1346 H1334 0.950 . S
C1346 C1345 1.398 . S
C1346 C1347 1.391 . S
C1347 H1335 0.950 . S
C1347 C1343 1.393 . S
C1347 C1346 1.391 . S
H1348 C1356 0.950 . S
H1349 C1361 0.950 . S
H1350 C1358 0.950 . S
H1351 C1360 0.950 . S
H1352 C1362 0.950 . S
H1353 C1364 0.950 . S
H1354 C1366 0.950 . S
H1355 C1367 0.950 . S
C1356 H1348 0.950 . S
C1356 C1357 1.386 . S
C1356 C1358 1.391 . S
C1357 C1356 1.386 . S
C1357 C1361 1.393 . S
C1358 H1350 0.950 . S
C1358 C1356 1.391 . S
C1358 C1359 1.400 . S
C1359 C1358 1.400 . S
C1359 C1360 1.398 . S
C1359 C1365 1.491 . S
C1360 H1351 0.950 . S
C1360 C1359 1.398 . S
C1360 C1361 1.391 . S
C1361 H1349 0.950 . S
C1361 C1357 1.393 . S
C1361 C1360 1.391 . S
C1362 H1352 0.950 . S
C1362 C1363 1.386 . S
C1362 C1364 1.391 . S
C1363 C1362 1.386 . S
C1363 C1367 1.393 . S
C1364 H1353 0.950 . S
C1364 C1362 1.391 . S
C1364 C1365 1.400 . S
C1365 C1359 1.491 . S
C1365 C1364 1.400 . S
C1365 C1366 1.398 . S
C1366 H1354 0.950 . S
C1366 C1365 1.398 . S
C1366 C1367 1.391 . S
C1367 H1355 0.950 . S
C1367 C1363 1.393 . S
C1367 C1366 1.391 . S
H1368 C1376 0.950 . S
H1369 C1381 0.950 . S
H1370 C1378 0.950 . S
H1371 C1380 0.950 . S
H1372 C1382 0.950 . S
H1373 C1384 0.950 . S
H1374 C1386 0.950 . S
H1375 C1387 0.950 . S
C1376 H1368 0.950 . S
C1376 C1377 1.386 . S
C1376 C1378 1.391 . S
C1377 C1376 1.386 . S
C1377 C1381 1.393 . S
C1378 H1370 0.950 . S
C1378 C1376 1.391 . S
C1378 C1379 1.400 . S
C1379 C1378 1.400 . S
C1379 C1380 1.398 . S
C1379 C1385 1.491 . S
C1380 H1371 0.950 . S
C1380 C1379 1.398 . S
C1380 C1381 1.391 . S
C1381 H1369 0.950 . S
C1381 C1377 1.393 . S
C1381 C1380 1.391 . S
C1382 H1372 0.950 . S
C1382 C1383 1.386 . S
C1382 C1384 1.391 . S
C1383 C1382 1.386 . S
C1383 C1387 1.393 . S
C1384 H1373 0.950 . S
C1384 C1382 1.391 . S
C1384 C1385 1.400 . S
C1385 C1379 1.491 . S
C1385 C1384 1.400 . S
C1385 C1386 1.398 . S
C1386 H1374 0.950 . S
C1386 C1385 1.398 . S
C1386 C1387 1.391 . S
C1387 H1375 0.950 . S
C1387 C1383 1.393 . S
C1387 C1386 1.391 . S
H1388 C1396 0.950 . S
H1389 C1401 0.950 . S
H1390 C1398 0.950 . S
H1391 C1400 0.950 . S
H1392 C1402 0.950 . S
H1393 C1404 0.950 . S
H1394 C1406 0.950 . S
H1395 C1407 0.950 . S
C1396 H1388 0.950 . S
C1396 C1397 1.386 . S
C1396 C1398 1.391 . S
C1397 C1396 1.386 . S
C1397 C1401 1.393 . S
C1398 H1390 0.950 . S
C1398 C1396 1.391 . S
C1398 C1399 1.400 . S
C1399 C1398 1.400 . S
C1399 C1400 1.398 . S
C1399 C1405 1.491 . S
C1400 H1391 0.950 . S
C1400 C1399 1.398 . S
C1400 C1401 1.391 . S
C1401 H1389 0.950 . S
C1401 C1397 1.393 . S
C1401 C1400 1.391 . S
C1402 H1392 0.950 . S
C1402 C1403 1.386 . S
C1402 C1404 1.391 . S
C1403 C1402 1.386 . S
C1403 C1407 1.393 . S
C1404 H1393 0.950 . S
C1404 C1402 1.391 . S
C1404 C1405 1.400 . S
C1405 C1399 1.491 . S
C1405 C1404 1.400 . S
C1405 C1406 1.398 . S
C1406 H1394 0.950 . S
C1406 C1405 1.398 . S
C1406 C1407 1.391 . S
C1407 H1395 0.950 . S
C1407 C1403 1.393 . S
C1407 C1406 1.391 . S
H1408 C1416 0.950 . S
H1409 C1421 0.950 . S
H1410 C1418 0.950 . S
H1411 C1420 0.950 . S
H1412 C1422 0.950 . S
H1413 C1424 0.950 . S
H1414 C1426 0.950 . S
H1415 C1427 0.950 . S
C1416 H1408 0.950 . S
C1416 C1417 1.386 . S
C1416 C1418 1.391 . S
C1417 C1416 1.386 . S
C1417 C1421 1.393 . S
C1418 H1410 0.950 . S
C1418 C1416 1.391 . S
C1418 C1419 1.400 . S
C1419 C1418 1.400 . S
C1419 C1420 1.398 . S
C1419 C1425 1.491 . S
C1420 H1411 0.950 . S
C1420 C1419 1.398 . S
C1420 C1421 1.391 . S
C1421 H1409 0.950 . S
C1421 C1417 1.393 . S
C1421 C1420 1.391 . S
C1422 H1412 0.950 . S
C1422 C1423 1.386 . S
C1422 C1424 1.391 . S
C1423 C1422 1.386 . S
C1423 C1427 1.393 . S
C1424 H1413 0.950 . S
C1424 C1422 1.391 . S
C1424 C1425 1.400 . S
C1425 C1419 1.491 . S
C1425 C1424 1.400 . S
C1425 C1426 1.398 . S
C1426 H1414 0.950 . S
C1426 C1425 1.398 . S
C1426 C1427 1.391 . S
C1427 H1415 0.950 . S
C1427 C1423 1.393 . S
C1427 C1426 1.391 . S
H1428 C1436 0.950 . S
H1429 C1441 0.950 . S
H1430 C1438 0.950 . S
H1431 C1440 0.950 . S
H1432 C1442 0.950 . S
H1433 C1444 0.950 . S
H1434 C1446 0.950 . S
H1435 C1447 0.950 . S
C1436 H1428 0.950 . S
C1436 C1437 1.386 . S
C1436 C1438 1.391 . S
C1437 C1436 1.386 . S
C1437 C1441 1.393 . S
C1438 H1430 0.950 . S
C1438 C1436 1.391 . S
C1438 C1439 1.400 . S
C1439 C1438 1.400 . S
C1439 C1440 1.398 . S
C1439 C1445 1.491 . S
C1440 H1431 0.950 . S
C1440 C1439 1.398 . S
C1440 C1441 1.391 . S
C1441 H1429 0.950 . S
C1441 C1437 1.393 . S
C1441 C1440 1.391 . S
C1442 H1432 0.950 . S
C1442 C1443 1.386 . S
C1442 C1444 1.391 . S
C1443 C1442 1.386 . S
C1443 C1447 1.393 . S
C1444 H1433 0.950 . S
C1444 C1442 1.391 . S
C1444 C1445 1.400 . S
C1445 C1439 1.491 . S
C1445 C1444 1.400 . S
C1445 C1446 1.398 . S
C1446 H1434 0.950 . S
C1446 C1445 1.398 . S
C1446 C1447 1.391 . S
C1447 H1435 0.950 . S
C1447 C1443 1.393 . S
C1447 C1446 1.391 . S
H1448 C1456 0.950 . S
H1449 C1461 0.950 . S
H1450 C1458 0.950 . S
H1451 C1460 0.950 . S
H1452 C1462 0.950 . S
H1453 C1464 0.950 . S
H1454 C1466 0.950 . S
H1455 C1467 0.950 . S
C1456 H1448 0.950 . S
C1456 C1457 1.386 . S
C1456 C1458 1.391 . S
C1457 C1456 1.386 . S
C1457 C1461 1.393 . S
C1458 H1450 0.950 . S
C1458 C1456 1.391 . S
C1458 C1459 1.400 . S
C1459 C1458 1.400 . S
C1459 C1460 1.398 . S
C1459 C1465 1.491 . S
C1460 H1451 0.950 . S
C1460 C1459 1.398 . S
C1460 C1461 1.391 . S
C1461 H1449 0.950 . S
C1461 C1457 1.393 . S
C1461 C1460 1.391 . S
C1462 H1452 0.950 . S
C1462 C1463 1.386 . S
C1462 C1464 1.391 . S
C1463 C1462 1.386 . S
C1463 C1467 1.393 . S
C1464 H1453 0.950 . S
C1464 C1462 1.391 . S
C1464 C1465 1.400 . S
C1465 C1459 1.491 . S
C1465 C1464 1.400 . S
C1465 C1466 1.398 . S
C1466 H1454 0.950 . S
C1466 C1465 1.398 . S
C1466 C1467 1.391 . S
C1467 H1455 0.950 . S
C1467 C1463 1.393 . S
C1467 C1466 1.391 . S
H1468 C1476 0.950 . S
H1469 C1481 0.950 . S
H1470 C1478 0.950 . S
H1471 C1480 0.950 . S
H1472 C1482 0.950 . S
H1473 C1484 0.950 . S
H1474 C1486 0.950 . S
H1475 C1487 0.950 . S
C1476 H1468 0.950 . S
C1476 C1477 1.386 . S
C1476 C1478 1.391 . S
C1477 C1476 1.386 . S
C1477 C1481 1.393 . S
C1478 H1470 0.950 . S
C1478 C1476 1.391 . S
C1478 C1479 1.400 . S
C1479 C1478 1.400 . S
C1479 C1480 1.398 . S
C1479 C1485 1.491 . S
C1480 H1471 0.950 . S
C1480 C1479 1.398 . S
C1480 C1481 1.391 . S
C1481 H1469 0.950 . S
C1481 C1477 1.393 . S
C1481 C1480 1.391 . S
C1482 H1472 0.950 . S
C1482 C1483 1.386 . S
C1482 C1484 1.391 . S
C1483 C1482 1.386 . S
C1483 C1487 1.393 . S
C1484 H1473 0.950 . S
C1484 C1482 1.391 . S
C1484 C1485 1.400 . S
C1485 C1479 1.491 . S
C1485 C1484 1.400 . S
C1485 C1486 1.398 . S
C1486 H1474 0.950 . S
C1486 C1485 1.398 . S
C1486 C1487 1.391 . S
C1487 H1475 0.950 . S
C1487 C1483 1.393 . S
C1487 C1486 1.391 . S
H1488 C1496 0.950 . S
H1489 C1501 0.950 . S
H1490 C1498 0.950 . S
H1491 C1500 0.950 . S
H1492 C1502 0.950 . S
H1493 C1504 0.950 . S
H1494 C1506 0.950 . S
H1495 C1507 0.950 . S
C1496 H1488 0.950 . S
C1496 C1497 1.386 . S
C1496 C1498 1.391 . S
C1497 C1496 1.386 . S
C1497 C1501 1.393 . S
C1498 H1490 0.950 . S
C1498 C1496 1.391 . S
C1498 C1499 1.400 . S
C1499 C1498 1.400 . S
C1499 C1500 1.398 . S
C1499 C1505 1.491 . S
C1500 H1491 0.950 . S
C1500 C1499 1.398 . S
C1500 C1501 1.391 . S
C1501 H1489 0.950 . S
C1501 C1497 1.393 . S
C1501 C1500 1.391 . S
C1502 H1492 0.950 . S
C1502 C1503 1.386 . S
C1502 C1504 1.391 . S
C1503 C1502 1.386 . S
C1503 C1507 1.393 1_554 S
C1504 H1493 0.950 . S
C1504 C1502 1.391 . S
C1504 C1505 1.400 . S
C1505 C1499 1.491 . S
C1505 C1504 1.400 . S
C1505 C1506 1.398 1_554 S
C1506 H1494 0.950 . S
C1506 C1505 1.398 1_556 S
C1506 C1507 1.391 . S
C1507 H1495 0.950 . S
C1507 C1503 1.393 1_556 S
C1507 C1506 1.391 . S
H1508 C1516 0.950 . S
H1509 C1521 0.950 . S
H1510 C1518 0.950 . S
H1511 C1520 0.950 1_565 S
H1512 C1522 0.950 1_556 S
H1513 C1524 0.950 1_556 S
H1514 C1526 0.950 . S
H1515 C1527 0.950 . S
C1516 H1508 0.950 . S
C1516 C1517 1.386 . S
C1516 C1518 1.391 . S
C1517 C1516 1.386 . S
C1517 C1521 1.393 1_554 S
C1518 H1510 0.950 . S
C1518 C1516 1.391 . S
C1518 C1519 1.400 1_545 S
C1519 C1518 1.400 1_565 S
C1519 C1520 1.398 1_564 S
C1519 C1525 1.491 . S
C1520 H1511 0.950 1_545 S
C1520 C1519 1.398 1_546 S
C1520 C1521 1.391 . S
C1521 H1509 0.950 . S
C1521 C1517 1.393 1_556 S
C1521 C1520 1.391 . S
C1522 H1512 0.950 1_554 S
C1522 C1523 1.386 . S
C1522 C1524 1.391 . S
C1523 C1522 1.386 . S
C1523 C1527 1.393 . S
C1524 H1513 0.950 1_554 S
C1524 C1522 1.391 . S
C1524 C1525 1.400 . S
C1525 C1519 1.491 . S
C1525 C1524 1.400 . S
C1525 C1526 1.398 . S
C1526 H1514 0.950 . S
C1526 C1525 1.398 . S
C1526 C1527 1.391 . S
C1527 H1515 0.950 . S
C1527 C1523 1.393 . S
C1527 C1526 1.391 . S
H1528 C1536 0.950 . S
H1529 C1541 0.950 . S
H1530 C1538 0.950 . S
H1531 C1540 0.976 . S
H1532 C1542 0.950 . S
H1533 C1544 0.950 . S
H1534 C1546 0.950 . S
H1535 C1547 0.950 . S
C1536 H1528 0.950 . S
C1536 C1537 1.386 . S
C1536 C1538 1.391 . S
C1537 C1536 1.386 . S
C1537 C1541 1.393 . S
C1538 H1530 0.950 . S
C1538 C1536 1.391 . S
C1538 C1539 1.400 1_655 S
C1539 C1538 1.400 1_455 S
C1539 C1540 1.388 . S
C1539 C1545 1.491 . S
C1540 H1531 0.976 . S
C1540 C1539 1.388 . S
C1540 C1541 1.376 1_455 S
C1541 H1529 0.950 . S
C1541 C1537 1.393 . S
C1541 C1540 1.376 1_655 S
C1542 H1532 0.950 . S
C1542 C1543 1.386 . S
C1542 C1544 1.391 . S
C1543 C1542 1.386 . S
C1543 C1547 1.393 . S
C1544 H1533 0.950 . S
C1544 C1542 1.391 . S
C1544 C1545 1.400 . S
C1545 C1539 1.491 . S
C1545 C1544 1.400 . S
C1545 C1546 1.398 . S
C1546 H1534 0.950 . S
C1546 C1545 1.398 . S
C1546 C1547 1.391 . S
C1547 H1535 0.950 . S
C1547 C1543 1.393 . S
C1547 C1546 1.391 . S
H1548 C1556 0.950 . S
H1549 C1561 0.950 . S
H1550 C1558 0.950 . S
H1551 C1560 0.950 . S
H1552 C1562 0.950 . S
H1553 C1564 0.950 . S
H1554 C1566 0.950 . S
H1555 C1567 0.950 . S
C1556 H1548 0.950 . S
C1556 C1557 1.386 . S
C1556 C1558 1.391 . S
C1557 C1556 1.386 . S
C1557 C1561 1.393 . S
C1558 H1550 0.950 . S
C1558 C1556 1.391 . S
C1558 C1559 1.400 . S
C1559 C1558 1.400 . S
C1559 C1560 1.398 . S
C1559 C1565 1.491 . S
C1560 H1551 0.950 . S
C1560 C1559 1.398 . S
C1560 C1561 1.391 . S
C1561 H1549 0.950 . S
C1561 C1557 1.393 . S
C1561 C1560 1.391 . S
C1562 H1552 0.950 . S
C1562 C1563 1.386 . S
C1562 C1564 1.391 . S
C1563 C1562 1.386 . S
C1563 C1567 1.393 . S
C1564 H1553 0.950 . S
C1564 C1562 1.391 . S
C1564 C1565 1.400 . S
C1565 C1559 1.491 . S
C1565 C1564 1.400 . S
C1565 C1566 1.398 . S
C1566 H1554 0.950 . S
C1566 C1565 1.398 . S
C1566 C1567 1.391 . S
C1567 H1555 0.950 . S
C1567 C1563 1.393 . S
C1567 C1566 1.391 . S
H1568 C1576 0.950 . S
H1569 C1581 0.950 . S
H1570 C1578 0.950 . S
H1571 C1580 0.950 1_545 S
H1572 C1582 0.950 . S
H1573 C1584 0.950 . S
H1574 C1586 0.950 . S
H1575 C1587 0.950 . S
C1576 H1568 0.950 . S
C1576 C1577 1.386 . S
C1576 C1578 1.391 . S
C1577 C1576 1.386 . S
C1577 C1581 1.393 . S
C1578 H1570 0.950 . S
C1578 C1576 1.391 . S
C1578 C1579 1.400 1_565 S
C1579 C1578 1.400 1_545 S
C1579 C1580 1.398 1_545 S
C1579 C1585 1.491 . S
C1580 H1571 0.950 1_565 S
C1580 C1579 1.398 1_565 S
C1580 C1581 1.391 . S
C1581 H1569 0.950 . S
C1581 C1577 1.393 . S
C1581 C1580 1.391 . S
C1582 H1572 0.950 . S
C1582 C1583 1.386 . S
C1582 C1584 1.391 . S
C1583 C1582 1.386 . S
C1583 C1587 1.393 . S
C1584 H1573 0.950 . S
C1584 C1582 1.391 . S
C1584 C1585 1.400 . S
C1585 C1579 1.491 . S
C1585 C1584 1.400 . S
C1585 C1586 1.398 . S
C1586 H1574 0.950 . S
C1586 C1585 1.398 . S
C1586 C1587 1.391 . S
C1587 H1575 0.950 . S
C1587 C1583 1.393 . S
C1587 C1586 1.391 . S
H1588 C1596 0.950 . S
H1589 C1601 0.950 . S
H1590 C1598 0.950 . S
H1591 C1600 0.950 . S
H1592 C1602 0.950 . S
H1593 C1604 0.950 . S
H1594 C1606 0.950 . S
H1595 C1607 0.950 . S
C1596 H1588 0.950 . S
C1596 C1597 1.386 . S
C1596 C1598 1.391 . S
C1597 C1596 1.386 . S
C1597 C1601 1.393 . S
C1598 H1590 0.950 . S
C1598 C1596 1.391 . S
C1598 C1599 1.400 . S
C1599 C1598 1.400 . S
C1599 C1600 1.398 . S
C1599 C1605 1.491 . S
C1600 H1591 0.950 . S
C1600 C1599 1.398 . S
C1600 C1601 1.391 . S
C1601 H1589 0.950 . S
C1601 C1597 1.393 . S
C1601 C1600 1.391 . S
C1602 H1592 0.950 . S
C1602 C1603 1.386 . S
C1602 C1604 1.391 . S
C1603 C1602 1.386 . S
C1603 C1607 1.393 . S
C1604 H1593 0.950 . S
C1604 C1602 1.391 . S
C1604 C1605 1.400 1_455 S
C1605 C1599 1.491 . S
C1605 C1604 1.400 1_655 S
C1605 C1606 1.398 . S
C1606 H1594 0.950 . S
C1606 C1605 1.398 . S
C1606 C1607 1.391 1_655 S
C1607 H1595 0.950 . S
C1607 C1603 1.393 . S
C1607 C1606 1.391 1_455 S
H1608 C1616 0.950 . S
H1609 C1621 0.950 . S
H1610 C1618 0.950 . S
H1611 C1620 0.950 . S
H1612 C1622 0.950 . S
H1613 C1624 0.950 . S
H1614 C1626 0.950 1_554 S
H1615 C1627 0.950 . S
C1616 H1608 0.950 . S
C1616 C1617 1.386 1_554 S
C1616 C1618 1.391 . S
C1617 C1616 1.386 1_556 S
C1617 C1621 1.393 . S
C1618 H1610 0.950 . S
C1618 C1616 1.391 . S
C1618 C1619 1.400 1_554 S
C1619 C1618 1.400 1_556 S
C1619 C1620 1.398 . S
C1619 C1625 1.491 . S
C1620 H1611 0.950 . S
C1620 C1619 1.398 . S
C1620 C1621 1.391 . S
C1621 H1609 0.950 . S
C1621 C1617 1.393 . S
C1621 C1620 1.391 . S
C1622 H1612 0.950 . S
C1622 C1623 1.386 . S
C1622 C1624 1.391 . S
C1623 C1622 1.386 . S
C1623 C1627 1.393 . S
C1624 H1613 0.950 . S
C1624 C1622 1.391 . S
C1624 C1625 1.400 . S
C1625 C1619 1.491 . S
C1625 C1624 1.400 . S
C1625 C1626 1.398 . S
C1626 H1614 0.950 1_556 S
C1626 C1625 1.398 . S
C1626 C1627 1.391 . S
C1627 H1615 0.950 . S
C1627 C1623 1.393 . S
C1627 C1626 1.391 . S
H1628 C1636 0.950 . S
H1629 C1641 0.950 . S
H1630 C1638 0.950 1_554 S
H1631 C1640 0.950 . S
H1632 C1642 0.950 . S
H1633 C1644 0.950 . S
H1634 C1646 0.982 . S
H1635 C1647 0.950 . S
C1636 H1628 0.950 . S
C1636 C1637 1.386 . S
C1636 C1638 1.391 . S
C1637 C1636 1.386 . S
C1637 C1641 1.393 . S
C1638 H1630 0.950 1_556 S
C1638 C1636 1.391 . S
C1638 C1639 1.400 . S
C1639 C1638 1.400 . S
C1639 C1640 1.398 . S
C1639 C1645 1.491 . S
C1640 H1631 0.950 . S
C1640 C1639 1.398 . S
C1640 C1641 1.391 . S
C1641 H1629 0.950 . S
C1641 C1637 1.393 . S
C1641 C1640 1.391 . S
C1642 H1632 0.950 . S
C1642 C1643 1.386 . S
C1642 C1644 1.391 . S
C1643 C1642 1.386 . S
C1643 C1647 1.393 1_556 S
C1644 H1633 0.950 . S
C1644 C1642 1.391 . S
C1644 C1645 1.400 1_565 S
C1645 C1639 1.491 . S
C1645 C1644 1.400 1_545 S
C1645 C1646 1.417 1_556 S
C1646 H1634 0.982 . S
C1646 C1645 1.417 1_554 S
C1646 C1647 1.342 1_545 S
C1647 H1635 0.950 . S
C1647 C1643 1.393 1_554 S
C1647 C1646 1.342 1_565 S
H1648 C1656 0.950 . S
H1649 C1661 0.950 . S
H1650 C1658 0.950 . S
H1651 C1660 0.944 1_655 S
H1652 C1662 0.950 . S
H1653 C1664 0.950 1_554 S
H1654 C1666 0.950 . S
H1655 C1667 0.950 . S
C1656 H1648 0.950 . S
C1656 C1657 1.386 . S
C1656 C1658 1.391 . S
C1657 C1656 1.386 . S
C1657 C1661 1.393 1_556 S
C1658 H1650 0.950 . S
C1658 C1656 1.391 . S
C1658 C1659 1.400 1_455 S
C1659 C1658 1.400 1_655 S
C1659 C1660 1.399 1_656 S
C1659 C1665 1.491 . S
C1660 H1651 0.944 1_455 S
C1660 C1659 1.399 1_454 S
C1660 C1661 1.396 . S
C1661 H1649 0.950 . S
C1661 C1657 1.393 1_554 S
C1661 C1660 1.396 . S
C1662 H1652 0.950 . S
C1662 C1663 1.386 . S
C1662 C1664 1.391 . S
C1663 C1662 1.386 . S
C1663 C1667 1.393 . S
C1664 H1653 0.950 1_556 S
C1664 C1662 1.391 . S
C1664 C1665 1.400 . S
C1665 C1659 1.491 . S
C1665 C1664 1.400 . S
C1665 C1666 1.398 . S
C1666 H1654 0.950 . S
C1666 C1665 1.398 . S
C1666 C1667 1.391 . S
C1667 H1655 0.950 . S
C1667 C1663 1.393 . S
C1667 C1666 1.391 . S
H1668 C1676 0.950 . S
H1669 C1681 0.950 . S
H1670 C1678 0.950 . S
H1671 C1680 0.950 . S
H1672 C1682 0.950 . S
H1673 C1684 0.950 . S
H1674 C1686 0.950 . S
H1675 C1687 0.950 . S
C1676 H1668 0.950 . S
C1676 C1677 1.386 . S
C1676 C1678 1.391 . S
C1677 C1676 1.386 . S
C1677 C1681 1.393 . S
C1678 H1670 0.950 . S
C1678 C1676 1.391 . S
C1678 C1679 1.400 . S
C1679 C1678 1.400 . S
C1679 C1680 1.398 . S
C1679 C1685 1.491 . S
C1680 H1671 0.950 . S
C1680 C1679 1.398 . S
C1680 C1681 1.391 . S
C1681 H1669 0.950 . S
C1681 C1677 1.393 . S
C1681 C1680 1.391 . S
C1682 H1672 0.950 . S
C1682 C1683 1.386 . S
C1682 C1684 1.391 . S
C1683 C1682 1.386 . S
C1683 C1687 1.393 . S
C1684 H1673 0.950 . S
C1684 C1682 1.391 . S
C1684 C1685 1.400 . S
C1685 C1679 1.491 . S
C1685 C1684 1.400 . S
C1685 C1686 1.398 . S
C1686 H1674 0.950 . S
C1686 C1685 1.398 . S
C1686 C1687 1.391 . S
C1687 H1675 0.950 . S
C1687 C1683 1.393 . S
C1687 C1686 1.391 . S
H1688 C1696 0.950 . S
H1689 C1701 0.950 . S
H1690 C1698 0.950 . S
H1691 C1700 0.950 . S
H1692 C1702 0.950 . S
H1693 C1704 0.950 . S
H1694 C1706 0.950 . S
H1695 C1707 0.950 . S
C1696 H1688 0.950 . S
C1696 C1697 1.386 . S
C1696 C1698 1.391 . S
C1697 C1696 1.386 . S
C1697 C1701 1.393 . S
C1698 H1690 0.950 . S
C1698 C1696 1.391 . S
C1698 C1699 1.400 . S
C1699 C1698 1.400 . S
C1699 C1700 1.398 . S
C1699 C1705 1.491 . S
C1700 H1691 0.950 . S
C1700 C1699 1.398 . S
C1700 C1701 1.391 . S
C1701 H1689 0.950 . S
C1701 C1697 1.393 . S
C1701 C1700 1.391 . S
C1702 H1692 0.950 . S
C1702 C1703 1.386 . S
C1702 C1704 1.391 . S
C1703 C1702 1.386 . S
C1703 C1707 1.393 . S
C1704 H1693 0.950 . S
C1704 C1702 1.391 . S
C1704 C1705 1.400 1_545 S
C1705 C1699 1.491 . S
C1705 C1704 1.400 1_565 S
C1705 C1706 1.398 . S
C1706 H1694 0.950 . S
C1706 C1705 1.398 . S
C1706 C1707 1.391 1_565 S
C1707 H1695 0.950 . S
C1707 C1703 1.393 . S
C1707 C1706 1.391 1_545 S
H1708 C1716 0.950 . S
H1709 C1721 0.950 . S
H1710 C1718 0.950 1_455 S
H1711 C1720 0.950 . S
H1712 C1722 0.950 . S
H1713 C1724 0.950 . S
H1714 C1726 0.950 . S
H1715 C1727 0.950 . S
C1716 H1708 0.950 . S
C1716 C1717 1.386 . S
C1716 C1718 1.391 . S
C1717 C1716 1.386 . S
C1717 C1721 1.393 . S
C1718 H1710 0.950 1_655 S
C1718 C1716 1.391 . S
C1718 C1719 1.400 1_655 S
C1719 C1718 1.400 1_455 S
C1719 C1720 1.398 1_455 S
C1719 C1725 1.491 . S
C1720 H1711 0.950 . S
C1720 C1719 1.398 1_655 S
C1720 C1721 1.391 . S
C1721 H1709 0.950 . S
C1721 C1717 1.393 . S
C1721 C1720 1.391 . S
C1722 H1712 0.950 . S
C1722 C1723 1.386 . S
C1722 C1724 1.391 . S
C1723 C1722 1.386 . S
C1723 C1727 1.393 . S
C1724 H1713 0.950 . S
C1724 C1722 1.391 . S
C1724 C1725 1.400 . S
C1725 C1719 1.491 . S
C1725 C1724 1.400 . S
C1725 C1726 1.398 . S
C1726 H1714 0.950 . S
C1726 C1725 1.398 . S
C1726 C1727 1.391 . S
C1727 H1715 0.950 . S
C1727 C1723 1.393 . S
C1727 C1726 1.391 . S
C1017 C58 1.527 . S
C1023 C573 1.527 . S
C1037 C657 1.518 . S
C1043 C142 1.518 . S
C1057 C741 1.512 . S
C1063 C226 1.512 . S
C1077 C310 1.511 . S
C1083 C825 1.511 . S
C1097 C909 1.502 . S
C1103 C394 1.502 . S
C1117 C993 1.484 . S
C1123 C478 1.484 . S
C1137 C399 1.346 . S
C1143 C63 1.358 . S
C1157 C147 1.358 . S
C1163 C483 1.346 . S
C1177 C315 1.367 . S
C1183 C231 1.362 . S
C1197 C914 1.365 . S
C1203 C578 1.365 . S
C1217 C998 1.366 . S
C1223 C662 1.363 . S
C1237 C746 1.359 . S
C1243 C830 1.369 . S
C1257 C991 1.551 . S
C1263 C74 1.572 . S
C1277 C158 1.563 . S
C1283 C823 1.559 . S
C1297 C242 1.554 . S
C1303 C907 1.543 . S
C1317 C326 1.560 . S
C1323 C655 1.537 . S
C1337 C410 1.553 . S
C1343 C739 1.546 . S
C1357 C571 1.556 . S
C1363 C494 1.571 . S
C1377 C567 1.572 . S
C1383 C476 1.550 . S
C1397 C308 1.556 . S
C1403 C651 1.571 . S
C1417 C735 1.558 . S
C1423 C392 1.556 . S
C1437 C140 1.549 . S
C1443 C819 1.572 . S
C1457 C903 1.567 . S
C1463 C224 1.540 . S
C1477 C56 1.551 . S
C1483 C987 1.572 . S
C1497 C69 1.808 . S
C1503 C644 1.755 1_554 S
C1517 C728 1.772 1_554 S
C1523 C153 1.806 . S
C1537 C560 1.779 1_554 S
C1543 C237 1.819 . S
C1557 C321 1.807 . S
C1563 C980 1.773 . S
C1577 C812 1.777 . S
C1583 C405 1.820 . S
C1597 C489 1.810 . S
C1603 C896 1.756 . S
C1617 C151 1.778 1_556 S
C1623 C562 1.812 . S
C1637 C646 1.810 . S
C1643 C235 1.776 1_556 S
C1657 C67 1.757 1_556 S
C1663 C730 1.812 . S
C1677 C814 1.808 . S
C1683 C487 1.755 . S
C1697 C898 1.816 . S
C1703 C319 1.780 . S
C1717 C403 1.776 . S
C1723 C982 1.810 . S
