# Generated by pormake.
# Topology una, (4)-cn, num edge types: 1
# Building blocks:
#     Node 0, Type 0, BuildingBlock: TATPOV_clean_sbu_0, # of connection points: 4
#     Node 1, Type 0, BuildingBlock: TATPOV_clean_sbu_0, # of connection points: 4
#     Node 2, Type 0, BuildingBlock: TATPOV_clean_sbu_0, # of connection points: 4
#     Node 3, Type 0, BuildingBlock: TATPOV_clean_sbu_0, # of connection points: 4
#     Node 4, Type 0, BuildingBlock: TATPOV_clean_sbu_0, # of connection points: 4
#     Node 5, Type 0, BuildingBlock: TATPOV_clean_sbu_0, # of connection points: 4
#     Node 6, Type 0, BuildingBlock: TATPOV_clean_sbu_0, # of connection points: 4
#     Node 7, Type 0, BuildingBlock: TATPOV_clean_sbu_0, # of connection points: 4
#     Node 8, Type 0, BuildingBlock: TATPOV_clean_sbu_0, # of connection points: 4
#     Node 9, Type 0, BuildingBlock: TATPOV_clean_sbu_0, # of connection points: 4
#     Node 10, Type 0, BuildingBlock: TATPOV_clean_sbu_0, # of connection points: 4
#     Node 11, Type 0, BuildingBlock: TATPOV_clean_sbu_0, # of connection points: 4
#     Edge 12, Type (0, 0), BuildingBlock: MIFKUJ_clean_linker_0, # of connection points: 2
#     Edge 13, Type (0, 0), BuildingBlock: MIFKUJ_clean_linker_0, # of connection points: 2
#     Edge 14, Type (0, 0), BuildingBlock: MIFKUJ_clean_linker_0, # of connection points: 2
#     Edge 15, Type (0, 0), BuildingBlock: MIFKUJ_clean_linker_0, # of connection points: 2
#     Edge 16, Type (0, 0), BuildingBlock: MIFKUJ_clean_linker_0, # of connection points: 2
#     Edge 17, Type (0, 0), BuildingBlock: MIFKUJ_clean_linker_0, # of connection points: 2
#     Edge 18, Type (0, 0), BuildingBlock: MIFKUJ_clean_linker_0, # of connection points: 2
#     Edge 19, Type (0, 0), BuildingBlock: MIFKUJ_clean_linker_0, # of connection points: 2
#     Edge 20, Type (0, 0), BuildingBlock: MIFKUJ_clean_linker_0, # of connection points: 2
#     Edge 21, Type (0, 0), BuildingBlock: MIFKUJ_clean_linker_0, # of connection points: 2
#     Edge 22, Type (0, 0), BuildingBlock: MIFKUJ_clean_linker_0, # of connection points: 2
#     Edge 23, Type (0, 0), BuildingBlock: MIFKUJ_clean_linker_0, # of connection points: 2
#     Edge 24, Type (0, 0), BuildingBlock: MIFKUJ_clean_linker_0, # of connection points: 2
#     Edge 25, Type (0, 0), BuildingBlock: MIFKUJ_clean_linker_0, # of connection points: 2
#     Edge 26, Type (0, 0), BuildingBlock: MIFKUJ_clean_linker_0, # of connection points: 2
#     Edge 27, Type (0, 0), BuildingBlock: MIFKUJ_clean_linker_0, # of connection points: 2
#     Edge 28, Type (0, 0), BuildingBlock: MIFKUJ_clean_linker_0, # of connection points: 2
#     Edge 29, Type (0, 0), BuildingBlock: MIFKUJ_clean_linker_0, # of connection points: 2
#     Edge 30, Type (0, 0), BuildingBlock: MIFKUJ_clean_linker_0, # of connection points: 2
#     Edge 31, Type (0, 0), BuildingBlock: MIFKUJ_clean_linker_0, # of connection points: 2
#     Edge 32, Type (0, 0), BuildingBlock: MIFKUJ_clean_linker_0, # of connection points: 2
#     Edge 33, Type (0, 0), BuildingBlock: MIFKUJ_clean_linker_0, # of connection points: 2
#     Edge 34, Type (0, 0), BuildingBlock: MIFKUJ_clean_linker_0, # of connection points: 2
#     Edge 35, Type (0, 0), BuildingBlock: MIFKUJ_clean_linker_0, # of connection points: 2
# Relax obj value: 0.133
# Max RMSD: 0.163
# Mean RMSD: 0.163
data_MOF--net-una--node1-TATPOV_clean_sbu_0--edge1-MIFKUJ_clean_linker_0
_symmetry_space_group_name_H-M    P1
_symmetry_Int_Tables_number       1
_symmetry_cell_setting            triclinic
loop_
_symmetry_equiv_pos_as_xyz
'x, y, z'
_cell_length_a     75.72902
_cell_length_b     75.743352
_cell_length_c     26.110014
_cell_angle_alpha  90.012318
_cell_angle_beta   90.001041
_cell_angle_gamma 120.01799
loop_
_atom_site_label
_atom_site_type_symbol
_atom_site_fract_x
_atom_site_fract_y
_atom_site_fract_z
_atom_type_partial_charge
Zn0 Zn 0.16629 0.46491 0.09266 0.0
Zn1 Zn 0.13027 0.43608 0.05867 0.0
O2 O 0.14866 0.44469 0.99463 0.0
O3 O 0.17798 0.47001 0.02157 0.0
O4 O 0.10272 0.4157 0.03013 0.0
O5 O 0.15433 0.48122 0.12126 0.0
O6 O 0.1249 0.45836 0.08851 0.0
C7 C 0.16709 0.45832 0.98586 0.0
C8 C 0.15399 0.42513 0.13422 0.0
O9 O 0.13757 0.41953 0.10914 0.0
O10 O 0.16817 0.44355 0.13347 0.0
C11 C 0.10057 0.40231 0.99745 0.0
O12 O 0.11661 0.40111 0.98354 0.0
C13 C 0.13572 0.4751 0.11241 0.0
Zn14 Zn 0.6991 0.16002 0.30276 0.0
Zn15 Zn 0.69159 0.12627 0.25432 0.0
O16 O 0.70638 0.14812 0.19927 0.0
O17 O 0.71567 0.1766 0.24171 0.0
O18 O 0.68434 0.10028 0.21633 0.0
O19 O 0.66931 0.15054 0.3099 0.0
O20 O 0.66304 0.12162 0.27446 0.0
C21 C 0.71583 0.16753 0.2011 0.0
C22 C 0.71809 0.14019 0.35151 0.0
O23 O 0.71155 0.12867 0.31221 0.0
O24 O 0.7134 0.15389 0.35827 0.0
C25 C 0.68551 0.0853 0.23434 0.0
O26 O 0.69227 0.08633 0.28121 0.0
C27 C 0.65666 0.13266 0.29519 0.0
Zn28 Zn 0.54193 0.70653 0.45997 0.0
Zn29 Zn 0.56685 0.69682 0.41292 0.0
O30 O 0.56044 0.71138 0.35565 0.0
O31 O 0.54314 0.72304 0.39759 0.0
O32 O 0.58586 0.68889 0.3793 0.0
O33 O 0.52031 0.67704 0.46495 0.0
O34 O 0.54213 0.66884 0.43304 0.0
C35 C 0.55146 0.72179 0.35671 0.0
C36 C 0.58023 0.72388 0.50959 0.0
O37 O 0.58457 0.71681 0.47029 0.0
O38 O 0.56221 0.72026 0.51675 0.0
C39 C 0.58149 0.68038 0.33555 0.0
O40 O 0.5646 0.67702 0.31284 0.0
C41 C 0.52457 0.66355 0.45146 0.0
Zn42 Zn 0.8437 0.54068 0.6157 0.0
Zn43 Zn 0.87797 0.56712 0.56962 0.0
O44 O 0.85657 0.55976 0.51287 0.0
O45 O 0.82786 0.53828 0.55133 0.0
O46 O 0.90454 0.58533 0.53326 0.0
O47 O 0.85344 0.52118 0.62987 0.0
O48 O 0.88253 0.5435 0.59463 0.0
C49 C 0.83724 0.54834 0.5119 0.0
C50 C 0.86244 0.58045 0.6614 0.0
O51 O 0.87498 0.58528 0.62435 0.0
O52 O 0.84845 0.56214 0.66751 0.0
C53 C 0.91296 0.60455 0.52802 0.0
O54 O 0.90421 0.61421 0.5478 0.0
C55 C 0.87151 0.52644 0.61704 0.0
Zn56 Zn 0.30022 0.8335 0.75554 0.0
Zn57 Zn 0.30715 0.86993 0.72398 0.0
O58 O 0.29715 0.85227 0.65857 0.0
O59 O 0.29367 0.82291 0.68326 0.0
O60 O 0.31528 0.89827 0.69938 0.0
O61 O 0.3287 0.84525 0.78336 0.0
O62 O 0.33474 0.87466 0.7519 0.0
C63 C 0.29265 0.83401 0.64847 0.0
C64 C 0.27312 0.84574 0.80084 0.0
O65 O 0.28379 0.86232 0.77626 0.0
O66 O 0.27715 0.83145 0.79796 0.0
C67 C 0.3077 0.90213 0.66043 0.0
O68 O 0.2927 0.88702 0.63544 0.0
C69 C 0.341 0.86391 0.77456 0.0
Zn70 Zn 0.4555 0.29862 0.94859 0.0
Zn71 Zn 0.43107 0.30784 0.89699 0.0
O72 O 0.43965 0.29441 0.84162 0.0
O73 O 0.45758 0.28405 0.88571 0.0
O74 O 0.41388 0.31677 0.85803 0.0
O75 O 0.47574 0.32799 0.9618 0.0
O76 O 0.45437 0.33553 0.92423 0.0
C77 C 0.44963 0.28497 0.84386 0.0
C78 C 0.41502 0.27878 0.98885 0.0
O79 O 0.41148 0.28648 0.94951 0.0
O80 O 0.43304 0.28295 0.99907 0.0
C81 C 0.3949 0.30575 0.8491 0.0
O82 O 0.38505 0.28693 0.86625 0.0
C83 C 0.47109 0.34115 0.94794 0.0
Zn84 Zn 0.53954 0.84001 0.81167 0.0
Zn85 Zn 0.56464 0.87353 0.86457 0.0
O86 O 0.55524 0.85138 0.91942 0.0
O87 O 0.53637 0.82327 0.87541 0.0
O88 O 0.58289 0.89958 0.90275 0.0
O89 O 0.52036 0.85049 0.79765 0.0
O90 O 0.54179 0.87866 0.83809 0.0
C91 C 0.54452 0.83202 0.9173 0.0
C92 C 0.58043 0.85953 0.77383 0.0
O93 O 0.58388 0.87096 0.81277 0.0
O94 O 0.56237 0.84598 0.76279 0.0
C95 C 0.59467 0.90067 0.93884 0.0
O96 O 0.5955 0.88431 0.95149 0.0
C97 C 0.52523 0.86816 0.8133 0.0
Zn98 Zn 0.69766 0.53441 0.98863 0.0
Zn99 Zn 0.69118 0.56301 0.02968 0.0
O100 O 0.70593 0.55724 0.08794 0.0
O101 O 0.71206 0.53426 0.05377 0.0
O102 O 0.68364 0.58295 0.05973 0.0
O103 O 0.66782 0.51485 0.98073 0.0
O104 O 0.6625 0.53892 0.01076 0.0
C105 C 0.7135 0.54557 0.09118 0.0
C106 C 0.71779 0.57256 0.93415 0.0
O107 O 0.71097 0.5787 0.97048 0.0
O108 O 0.71345 0.55412 0.93186 0.0
C109 C 0.69217 0.59431 0.09833 0.0
O110 O 0.70771 0.59412 0.12011 0.0
C111 C 0.65561 0.52096 0.99295 0.0
Zn112 Zn 0.16125 0.70049 0.12093 0.0
Zn113 Zn 0.1303 0.69368 0.18071 0.0
O114 O 0.15448 0.70987 0.22902 0.0
O115 O 0.18046 0.7172 0.17813 0.0
O116 O 0.10539 0.68589 0.22376 0.0
O117 O 0.15194 0.67084 0.1132 0.0
O118 O 0.12542 0.66507 0.15981 0.0
C119 C 0.17366 0.71876 0.22122 0.0
C120 C 0.13925 0.7192 0.08303 0.0
O121 O 0.12966 0.71282 0.12522 0.0
O122 O 0.15256 0.71458 0.07031 0.0
C123 C 0.10083 0.69828 0.24448 0.0
O124 O 0.11306 0.71798 0.23852 0.0
C125 C 0.13521 0.6584 0.13418 0.0
Zn126 Zn 0.45903 0.16448 0.30027 0.0
Zn127 Zn 0.43322 0.13027 0.34923 0.0
O128 O 0.44065 0.15196 0.40507 0.0
O129 O 0.45979 0.18059 0.36326 0.0
O130 O 0.41433 0.1039 0.38525 0.0
O131 O 0.47919 0.15482 0.29166 0.0
O132 O 0.45696 0.12575 0.32718 0.0
C133 C 0.45087 0.17137 0.40405 0.0
C134 C 0.41963 0.14394 0.2536 0.0
O135 O 0.41522 0.13238 0.29262 0.0
O136 O 0.43774 0.15818 0.24622 0.0
C137 C 0.4196 0.10019 0.42834 0.0
O138 O 0.43708 0.11381 0.44848 0.0
C139 C 0.47422 0.13696 0.30595 0.0
Zn140 Zn 0.29604 0.4585 0.45181 0.0
Zn141 Zn 0.306 0.43575 0.50654 0.0
O142 O 0.28983 0.44228 0.55887 0.0
O143 O 0.27779 0.4575 0.50975 0.0
O144 O 0.31519 0.41902 0.54631 0.0
O145 O 0.32506 0.48112 0.44672 0.0
O146 O 0.33367 0.46064 0.48474 0.0
C147 C 0.27858 0.4502 0.55277 0.0
C148 C 0.28039 0.41916 0.40872 0.0
O149 O 0.28696 0.41596 0.45063 0.0
O150 O 0.28408 0.43694 0.39752 0.0
C151 C 0.303 0.40166 0.56542 0.0
O152 O 0.28326 0.39394 0.55935 0.0
C153 C 0.33874 0.47762 0.46305 0.0
Zn154 Zn 0.83703 0.30073 0.66593 0.0
Zn155 Zn 0.87178 0.30659 0.70456 0.0
O156 O 0.85103 0.29191 0.76265 0.0
O157 O 0.82162 0.28424 0.72755 0.0
O158 O 0.89831 0.31291 0.73825 0.0
O159 O 0.84723 0.33075 0.66369 0.0
O160 O 0.8773 0.33565 0.68671 0.0
C161 C 0.83166 0.28333 0.7652 0.0
C162 C 0.85451 0.28116 0.60734 0.0
O163 O 0.86742 0.28716 0.64387 0.0
O164 O 0.84097 0.28631 0.60633 0.0
C165 C 0.91144 0.30841 0.72237 0.0
O166 O 0.90817 0.29822 0.67937 0.0
C167 C 0.8659 0.34275 0.67306 0.0
H168 H 0.18883 0.42443 0.12705 0.0
H169 H 0.19879 0.40294 0.17286 0.0
H170 H 0.13937 0.37067 0.24361 0.0
H171 H 0.12908 0.39236 0.19618 0.0
H172 H 0.17199 0.38693 0.31297 0.0
H173 H 0.15259 0.34211 0.17339 0.0
H174 H 0.14764 0.33187 0.08256 0.0
H175 H 0.21246 0.36389 0.0596 0.0
H176 H 0.21785 0.37457 0.15004 0.0
H177 H 0.24942 0.38251 0.44204 0.0
H178 H 0.21731 0.36191 0.39573 0.0
H179 H 0.24439 0.39777 0.25977 0.0
H180 H 0.27622 0.41825 0.30571 0.0
H181 H 0.21291 0.35916 0.23565 0.0
H182 H 0.22665 0.41652 0.35473 0.0
H183 H 0.23402 0.43125 0.44181 0.0
H184 H 0.18101 0.37796 0.49929 0.0
H185 H 0.17353 0.36285 0.41257 0.0
C186 C 0.17772 0.41253 0.15167 0.0
C187 C 0.15828 0.41014 0.15858 0.0
C188 C 0.18334 0.40006 0.1774 0.0
C189 C 0.16974 0.38496 0.2111 0.0
C190 C 0.14999 0.38206 0.21719 0.0
C191 C 0.14415 0.39442 0.19032 0.0
C192 C 0.17785 0.37484 0.24451 0.0
C193 C 0.18017 0.3799 0.29667 0.0
C194 C 0.18861 0.36576 0.22321 0.0
C195 C 0.18561 0.35904 0.16881 0.0
C196 C 0.1658 0.34699 0.14901 0.0
C197 C 0.16292 0.34112 0.09753 0.0
C198 C 0.17973 0.34719 0.06536 0.0
C199 C 0.19946 0.35912 0.08463 0.0
C200 C 0.20244 0.36503 0.13609 0.0
C201 C 0.24882 0.38522 0.40151 0.0
C202 C 0.26512 0.40215 0.37751 0.0
C203 C 0.23043 0.3735 0.37515 0.0
C204 C 0.22831 0.37863 0.32467 0.0
C205 C 0.2456 0.39357 0.29874 0.0
C206 C 0.26382 0.40534 0.32507 0.0
C207 C 0.20802 0.37266 0.30267 0.0
C208 C 0.20357 0.36472 0.25279 0.0
C209 C 0.19541 0.3793 0.32576 0.0
C210 C 0.19966 0.38851 0.37751 0.0
C211 C 0.21661 0.40796 0.38603 0.0
C212 C 0.22082 0.41636 0.43527 0.0
C213 C 0.208 0.40553 0.47608 0.0
C214 C 0.19094 0.38631 0.46768 0.0
C215 C 0.18672 0.37781 0.41853 0.0
H216 H 0.21127 0.41203 0.51418 0.0
H217 H 0.17746 0.34267 0.02549 0.0
H218 H 0.83563 0.27259 0.51517 0.0
H219 H 0.82315 0.24123 0.46726 0.0
H220 H 0.85694 0.22289 0.56578 0.0
H221 H 0.86892 0.25432 0.61576 0.0
H222 H 0.83253 0.21881 0.41452 0.0
H223 H 0.82735 0.17271 0.58902 0.0
H224 H 0.83036 0.17577 0.68328 0.0
H225 H 0.80643 0.21657 0.68159 0.0
H226 H 0.80315 0.2136 0.58742 0.0
H227 H 0.74805 0.13152 0.32583 0.0
H228 H 0.78102 0.14561 0.36964 0.0
H229 H 0.75767 0.16562 0.49393 0.0
H230 H 0.72489 0.15119 0.45127 0.0
H231 H 0.78754 0.16144 0.5289 0.0
H232 H 0.77608 0.19419 0.37926 0.0
H233 H 0.7679 0.19491 0.28801 0.0
H234 H 0.81783 0.18642 0.2443 0.0
H235 H 0.82611 0.18541 0.33544 0.0
C236 C 0.84088 0.26217 0.52598 0.0
C237 C 0.85282 0.26568 0.57004 0.0
C238 C 0.83383 0.24421 0.4982 0.0
C239 C 0.83863 0.22934 0.5136 0.0
C240 C 0.85264 0.23392 0.55382 0.0
C241 C 0.85962 0.25197 0.58213 0.0
C242 C 0.82616 0.20834 0.49263 0.0
C243 C 0.82312 0.20604 0.43944 0.0
C244 C 0.81376 0.19158 0.5249 0.0
C245 C 0.81527 0.19313 0.58139 0.0
C246 C 0.82271 0.18228 0.60888 0.0
C247 C 0.82446 0.18401 0.66222 0.0
C248 C 0.81868 0.19643 0.68836 0.0
C249 C 0.81096 0.20702 0.66128 0.0
C250 C 0.80914 0.20531 0.60798 0.0
C251 C 0.74967 0.13796 0.36376 0.0
C252 C 0.73412 0.14073 0.3847 0.0
C253 C 0.76858 0.14615 0.38861 0.0
C254 C 0.77207 0.1573 0.43428 0.0
C255 C 0.75552 0.1573 0.45855 0.0
C256 C 0.73673 0.1491 0.43397 0.0
C257 C 0.793 0.17257 0.45131 0.0
C258 C 0.79775 0.17371 0.50363 0.0
C259 C 0.80634 0.18872 0.41857 0.0
C260 C 0.80154 0.18948 0.36393 0.0
C261 C 0.78525 0.19241 0.3501 0.0
C262 C 0.78059 0.19286 0.29848 0.0
C263 C 0.79231 0.19066 0.26037 0.0
C264 C 0.80874 0.18806 0.27386 0.0
C265 C 0.81341 0.18753 0.32547 0.0
H266 H 0.78869 0.19102 0.22042 0.0
H267 H 0.82018 0.19785 0.72958 0.0
H268 H 0.60592 0.76233 0.48067 0.0
H269 H 0.62288 0.79145 0.53755 0.0
H270 H 0.6079 0.75081 0.66698 0.0
H271 H 0.58912 0.72162 0.60967 0.0
H272 H 0.59489 0.77289 0.6884 0.0
H273 H 0.66047 0.79176 0.63156 0.0
H274 H 0.68855 0.79806 0.573 0.0
H275 H 0.68285 0.84545 0.49833 0.0
H276 H 0.65453 0.83926 0.55582 0.0
H277 H 0.61495 0.86296 0.81568 0.0
H278 H 0.63391 0.84751 0.77947 0.0
H279 H 0.60191 0.83794 0.63655 0.0
H280 H 0.58268 0.8529 0.6727 0.0
H281 H 0.64973 0.84321 0.64778 0.0
H282 H 0.56857 0.7931 0.68395 0.0
H283 H 0.54169 0.78845 0.74518 0.0
H284 H 0.58362 0.80305 0.87017 0.0
H285 H 0.61069 0.80769 0.80955 0.0
C286 C 0.60704 0.75966 0.52101 0.0
C287 C 0.59638 0.73985 0.54096 0.0
C288 C 0.61692 0.77639 0.55379 0.0
C289 C 0.61688 0.77358 0.60711 0.0
C290 C 0.60808 0.75353 0.62621 0.0
C291 C 0.59751 0.73681 0.59351 0.0
C292 C 0.62185 0.79101 0.64236 0.0
C293 C 0.60752 0.78805 0.68058 0.0
C294 C 0.63822 0.81109 0.63307 0.0
C295 C 0.65531 0.81501 0.59816 0.0
C296 C 0.66511 0.80345 0.60249 0.0
C297 C 0.68109 0.80702 0.56947 0.0
C298 C 0.68748 0.82215 0.53198 0.0
C299 C 0.67791 0.83376 0.52747 0.0
C300 C 0.66192 0.83027 0.56038 0.0
C301 C 0.61285 0.85866 0.77561 0.0
C302 C 0.59719 0.85884 0.74706 0.0
C303 C 0.62374 0.84987 0.75496 0.0
C304 C 0.6192 0.8415 0.7055 0.0
C305 C 0.60574 0.84447 0.67466 0.0
C306 C 0.59466 0.85291 0.69544 0.0
C307 C 0.6227 0.82459 0.69171 0.0
C308 C 0.63813 0.82773 0.6571 0.0
C309 C 0.60798 0.80455 0.70568 0.0
C310 C 0.59153 0.80065 0.74242 0.0
C311 C 0.57194 0.7951 0.72456 0.0
C312 C 0.55673 0.79255 0.75909 0.0
C313 C 0.56095 0.79544 0.81152 0.0
C314 C 0.58037 0.80079 0.82957 0.0
C315 C 0.59564 0.80336 0.79517 0.0
H316 H 0.54918 0.79354 0.83813 0.0
H317 H 0.69985 0.82487 0.50644 0.0
H318 H 0.85769 0.58067 0.7639 0.0
H319 H 0.83912 0.59523 0.80573 0.0
H320 H 0.84268 0.62805 0.66775 0.0
H321 H 0.86182 0.61386 0.62599 0.0
H322 H 0.83593 0.64345 0.78126 0.0
H323 H 0.80659 0.59029 0.64873 0.0
H324 H 0.80484 0.56062 0.60461 0.0
H325 H 0.79039 0.52789 0.74696 0.0
H326 H 0.79231 0.5575 0.79192 0.0
H327 H 0.71581 0.57273 0.83051 0.0
H328 H 0.74497 0.58922 0.77239 0.0
H329 H 0.78459 0.61883 0.90156 0.0
H330 H 0.75517 0.60359 0.95866 0.0
H331 H 0.77021 0.57818 0.7729 0.0
H332 H 0.83191 0.65426 0.87041 0.0
H333 H 0.83408 0.68514 0.90803 0.0
H334 H 0.78138 0.67486 0.82232 0.0
H335 H 0.77905 0.6441 0.78356 0.0
C336 C 0.85573 0.59206 0.74365 0.0
C337 C 0.86097 0.59602 0.69171 0.0
C338 C 0.84513 0.6004 0.76758 0.0
C339 C 0.83929 0.61245 0.73952 0.0
C340 C 0.84718 0.6189 0.6901 0.0
C341 C 0.85813 0.61077 0.66627 0.0
C342 C 0.8205 0.61235 0.75537 0.0
C343 C 0.82142 0.62936 0.77924 0.0
C344 C 0.80156 0.59417 0.75069 0.0
C345 C 0.79969 0.57609 0.72363 0.0
C346 C 0.80309 0.57677 0.67057 0.0
C347 C 0.80206 0.55998 0.64542 0.0
C348 C 0.79752 0.54238 0.67297 0.0
C349 C 0.7939 0.54152 0.72567 0.0
C350 C 0.79492 0.55828 0.75098 0.0
C351 C 0.73062 0.58365 0.84585 0.0
C352 C 0.73335 0.58706 0.89874 0.0
C353 C 0.74733 0.59296 0.81279 0.0
C354 C 0.76716 0.60517 0.83235 0.0
C355 C 0.76955 0.60987 0.88495 0.0
C356 C 0.7527 0.60108 0.91779 0.0
C357 C 0.78519 0.60928 0.80053 0.0
C358 C 0.78429 0.59273 0.7739 0.0
C359 C 0.80383 0.62816 0.80128 0.0
C360 C 0.80525 0.64676 0.82427 0.0
C361 C 0.82085 0.65864 0.85931 0.0
C362 C 0.82209 0.67612 0.88092 0.0
C363 C 0.80786 0.68193 0.86766 0.0
C364 C 0.79236 0.6703 0.83269 0.0
C365 C 0.79106 0.65282 0.81096 0.0
H366 H 0.80884 0.69547 0.88444 0.0
H367 H 0.79681 0.52943 0.65349 0.0
H368 H 0.23685 0.81153 0.79495 0.0
H369 H 0.20647 0.80185 0.84572 0.0
H370 H 0.23663 0.86037 0.92127 0.0
H371 H 0.26741 0.87043 0.86872 0.0
H372 H 0.22024 0.8262 0.9881 0.0
H373 H 0.19515 0.85043 0.85858 0.0
H374 H 0.18859 0.85765 0.77078 0.0
H375 H 0.15168 0.7935 0.74113 0.0
H376 H 0.15824 0.78583 0.8284 0.0
H377 H 0.13673 0.75153 0.12002 0.0
H378 H 0.15012 0.7843 0.07572 0.0
H379 H 0.15479 0.75645 0.93606 0.0
H380 H 0.14162 0.72395 0.98008 0.0
H381 H 0.15003 0.79019 0.9171 0.0
H382 H 0.19206 0.77084 0.02687 0.0
H383 H 0.19914 0.76151 0.11195 0.0
H384 H 0.20435 0.81612 0.17622 0.0
H385 H 0.19701 0.82559 0.09156 0.0
C386 C 0.23692 0.82252 0.82168 0.0
C387 C 0.25444 0.84165 0.82825 0.0
C388 C 0.21947 0.81705 0.85037 0.0
C389 C 0.21917 0.83048 0.88685 0.0
C390 C 0.23649 0.8499 0.89282 0.0
C391 C 0.25399 0.85561 0.86296 0.0
C392 C 0.20153 0.82252 0.9223 0.0
C393 C 0.20479 0.81909 0.97331 0.0
C394 C 0.18137 0.81318 0.903 0.0
C395 C 0.17715 0.81757 0.85032 0.0
C396 C 0.18569 0.83784 0.83332 0.0
C397 C 0.18197 0.84201 0.78359 0.0
C398 C 0.1697 0.82604 0.75043 0.0
C399 C 0.16112 0.80586 0.76692 0.0
C400 C 0.16479 0.80159 0.81661 0.0
C401 C 0.13954 0.75218 0.07919 0.0
C402 C 0.13847 0.73536 0.05348 0.0
C403 C 0.1473 0.77095 0.05399 0.0
C404 C 0.15388 0.7729 0.00293 0.0
C405 C 0.14989 0.75534 0.97551 0.0
C406 C 0.14239 0.73673 0.0007 0.0
C407 C 0.16903 0.79295 0.98128 0.0
C408 C 0.16531 0.79845 0.9329 0.0
C409 C 0.18882 0.80418 0.00282 0.0
C410 C 0.19385 0.79883 0.05318 0.0
C411 C 0.19472 0.78083 0.05922 0.0
C412 C 0.19873 0.7755 0.10733 0.0
C413 C 0.20216 0.7882 0.14949 0.0
C414 C 0.20165 0.80628 0.14356 0.0
C415 C 0.19755 0.81163 0.09555 0.0
H416 H 0.20523 0.78403 0.18674 0.0
H417 H 0.16685 0.82931 0.71193 0.0
H418 H 0.39089 0.15283 0.28296 0.0
H419 H 0.37401 0.16546 0.22676 0.0
H420 H 0.39556 0.1473 0.0948 0.0
H421 H 0.41388 0.13625 0.15159 0.0
H422 H 0.40857 0.18377 0.08632 0.0
H423 H 0.34183 0.13098 0.11999 0.0
H424 H 0.31221 0.10569 0.16948 0.0
H425 H 0.31023 0.15383 0.25134 0.0
H426 H 0.34004 0.17944 0.20295 0.0
H427 H 0.38074 0.24657 0.94955 0.0
H428 H 0.3636 0.21262 0.98862 0.0
H429 H 0.39557 0.23834 0.13001 0.0
H430 H 0.41297 0.27208 0.09102 0.0
H431 H 0.34756 0.19105 0.11154 0.0
H432 H 0.43194 0.22778 0.10148 0.0
H433 H 0.46104 0.2533 0.05053 0.0
H434 H 0.4247 0.23275 0.91386 0.0
H435 H 0.39549 0.20695 0.96404 0.0
C436 C 0.3912 0.15071 0.24198 0.0
C437 C 0.40359 0.1436 0.22138 0.0
C438 C 0.38144 0.15786 0.20965 0.0
C439 C 0.38348 0.15748 0.15613 0.0
C440 C 0.39387 0.14799 0.13584 0.0
C441 C 0.40421 0.1415 0.1682 0.0
C442 C 0.37904 0.17084 0.12297 0.0
C443 C 0.39479 0.18465 0.09077 0.0
C444 C 0.36124 0.17246 0.12844 0.0
C445 C 0.34326 0.15716 0.15782 0.0
C446 C 0.33518 0.1362 0.14876 0.0
C447 C 0.31833 0.12179 0.17661 0.0
C448 C 0.30936 0.12815 0.21354 0.0
C449 C 0.31719 0.14893 0.22267 0.0
C450 C 0.33404 0.1634 0.19494 0.0
C451 C 0.38309 0.24516 0.98993 0.0
C452 C 0.39838 0.26181 0.01717 0.0
C453 C 0.37324 0.22572 0.01224 0.0
C454 C 0.37853 0.223 0.06194 0.0
C455 C 0.39124 0.24017 0.09166 0.0
C456 C 0.40125 0.25946 0.06928 0.0
C457 C 0.37706 0.20346 0.07643 0.0
C458 C 0.36063 0.18904 0.10562 0.0
C459 C 0.39389 0.2007 0.06716 0.0
C460 C 0.41159 0.21555 0.03644 0.0
C461 C 0.43025 0.22864 0.0605 0.0
C462 C 0.44673 0.24315 0.0318 0.0
C463 C 0.44472 0.24464 0.979 0.0
C464 C 0.42624 0.23157 0.95475 0.0
C465 C 0.40973 0.217 0.98329 0.0
H466 H 0.45749 0.2559 0.95689 0.0
H467 H 0.29632 0.11697 0.23507 0.0
H468 H 0.0992 0.47157 0.0829 0.0
H469 H 0.08878 0.49726 0.09314 0.0
H470 H 0.14338 0.5349 0.1804 0.0
H471 H 0.15361 0.50934 0.17133 0.0
H472 H 0.11285 0.53885 0.21701 0.0
H473 H 0.14177 0.53987 0.04906 0.0
H474 H 0.14258 0.52472 0.96602 0.0
H475 H 0.08276 0.51442 0.93058 0.0
H476 H 0.08154 0.52931 0.01376 0.0
H477 H 0.15219 0.63993 0.08001 0.0
H478 H 0.14248 0.60414 0.08011 0.0
H479 H 0.09169 0.59043 0.17955 0.0
H480 H 0.10164 0.62665 0.18054 0.0
H481 H 0.11052 0.56968 0.05134 0.0
H482 H 0.08598 0.55154 0.26047 0.0
H483 H 0.09013 0.56907 0.34311 0.0
H484 H 0.14873 0.61758 0.29522 0.0
H485 H 0.14499 0.60021 0.21261 0.0
C486 C 0.10872 0.4851 0.1053 0.0
C487 C 0.1274 0.48855 0.12561 0.0
C488 C 0.10278 0.49979 0.11099 0.0
C489 C 0.11546 0.51816 0.13685 0.0
C490 C 0.13333 0.52088 0.16026 0.0
C491 C 0.13924 0.50627 0.1547 0.0
C492 C 0.11175 0.53564 0.1349 0.0
C493 C 0.11193 0.54538 0.18082 0.0
C494 C 0.1107 0.54429 0.08774 0.0
C495 C 0.11146 0.53543 0.03778 0.0
C496 C 0.12875 0.53424 0.02366 0.0
C497 C 0.12929 0.52572 0.97659 0.0
C498 C 0.1127 0.51854 0.94312 0.0
C499 C 0.09557 0.51993 0.95661 0.0
C500 C 0.09495 0.5284 0.00369 0.0
C501 C 0.13883 0.62936 0.10167 0.0
C502 C 0.12782 0.63623 0.13071 0.0
C503 C 0.13322 0.60881 0.1014 0.0
C504 C 0.11645 0.59458 0.13011 0.0
C505 C 0.10483 0.60118 0.15753 0.0
C506 C 0.1105 0.62187 0.15795 0.0
C507 C 0.11234 0.57327 0.13337 0.0
C508 C 0.11063 0.56277 0.08765 0.0
C509 C 0.11255 0.56422 0.18065 0.0
C510 C 0.11506 0.57472 0.23022 0.0
C511 C 0.09974 0.56594 0.26767 0.0
C512 C 0.10203 0.57584 0.31448 0.0
C513 C 0.11964 0.59447 0.32432 0.0
C514 C 0.13506 0.60319 0.28747 0.0
C515 C 0.13285 0.59334 0.24065 0.0
H516 H 0.12138 0.60212 0.36055 0.0
H517 H 0.11314 0.51196 0.90669 0.0
H518 H 0.62465 0.10017 0.24665 0.0
H519 H 0.58863 0.09104 0.24826 0.0
H520 H 0.60298 0.13941 0.35651 0.0
H521 H 0.63869 0.14854 0.35524 0.0
H522 H 0.56625 0.10557 0.3785 0.0
H523 H 0.60233 0.1479 0.23038 0.0
H524 H 0.62199 0.15517 0.15015 0.0
H525 H 0.57385 0.10036 0.0831 0.0
H526 H 0.55403 0.09266 0.16327 0.0
H527 H 0.51218 0.15773 0.26412 0.0
H528 H 0.5379 0.14758 0.26011 0.0
H529 H 0.49589 0.08959 0.32843 0.0
H530 H 0.46997 0.09993 0.33385 0.0
H531 H 0.54149 0.11855 0.21472 0.0
H532 H 0.52397 0.07521 0.40242 0.0
H533 H 0.50575 0.0713 0.48383 0.0
H534 H 0.51919 0.13341 0.47388 0.0
H535 H 0.53759 0.13769 0.39264 0.0
C536 C 0.62003 0.1086 0.27146 0.0
C537 C 0.63456 0.12524 0.30033 0.0
C538 C 0.59947 0.10337 0.27231 0.0
C539 C 0.59316 0.11464 0.30227 0.0
C540 C 0.60747 0.13046 0.33325 0.0
C541 C 0.62794 0.13577 0.33214 0.0
C542 C 0.57231 0.11168 0.29789 0.0
C543 C 0.56063 0.10802 0.34251 0.0
C544 C 0.56498 0.11493 0.25104 0.0
C545 C 0.57685 0.11958 0.20292 0.0
C546 C 0.59603 0.13733 0.19863 0.0
C547 C 0.60718 0.14154 0.15318 0.0
C548 C 0.59921 0.12819 0.11161 0.0
C549 C 0.58003 0.11065 0.11538 0.0
C550 C 0.56883 0.10635 0.16079 0.0
C551 C 0.50826 0.14274 0.27804 0.0
C552 C 0.48904 0.12973 0.29978 0.0
C553 C 0.523 0.13689 0.27541 0.0
C554 C 0.51892 0.11788 0.29428 0.0
C555 C 0.49946 0.10444 0.31417 0.0
C556 C 0.48466 0.11035 0.31713 0.0
C557 C 0.53573 0.11313 0.29566 0.0
C558 C 0.54667 0.11532 0.2504 0.0
C559 C 0.54254 0.10888 0.34209 0.0
C560 C 0.53193 0.10668 0.39133 0.0
C561 C 0.52307 0.08803 0.41776 0.0
C562 C 0.51271 0.08575 0.4638 0.0
C563 C 0.51126 0.10208 0.48393 0.0
C564 C 0.52026 0.12076 0.45817 0.0
C565 C 0.53064 0.12311 0.41212 0.0
H566 H 0.5032 0.10028 0.51953 0.0
H567 H 0.60786 0.13148 0.07644 0.0
H568 H 0.35371 0.51615 0.42656 0.0
H569 H 0.38901 0.54318 0.42096 0.0
H570 H 0.40872 0.50289 0.48175 0.0
H571 H 0.37298 0.47558 0.48882 0.0
H572 H 0.42905 0.53894 0.52649 0.0
H573 H 0.4169 0.51728 0.35444 0.0
H574 H 0.39856 0.50621 0.27221 0.0
H575 H 0.4024 0.5644 0.25491 0.0
H576 H 0.42049 0.57573 0.33741 0.0
H577 H 0.52861 0.62948 0.44186 0.0
H578 H 0.50102 0.5936 0.44203 0.0
H579 H 0.45684 0.61287 0.46489 0.0
H580 H 0.48398 0.64838 0.46605 0.0
H581 H 0.45475 0.58234 0.37122 0.0
H582 H 0.45813 0.59728 0.55897 0.0
H583 H 0.47753 0.6076 0.63993 0.0
H584 H 0.49244 0.5602 0.6217 0.0
H585 H 0.47333 0.54981 0.54019 0.0
C586 C 0.36548 0.51287 0.43844 0.0
C587 C 0.36047 0.49362 0.45798 0.0
C588 C 0.38575 0.52837 0.43487 0.0
C589 C 0.4016 0.52499 0.4499 0.0
C590 C 0.39674 0.5058 0.46953 0.0
C591 C 0.37633 0.49022 0.47347 0.0
C592 C 0.42304 0.54203 0.44714 0.0
C593 C 0.43483 0.5481 0.49209 0.0
C594 C 0.43082 0.55399 0.40222 0.0
C595 C 0.42003 0.54733 0.3523 0.0
C596 C 0.41374 0.52768 0.33327 0.0
C597 C 0.40339 0.52136 0.28657 0.0
C598 C 0.39931 0.53459 0.25837 0.0
C599 C 0.40559 0.55418 0.27678 0.0
C600 C 0.41593 0.56057 0.32347 0.0
C601 C 0.51303 0.62602 0.44742 0.0
C602 C 0.5085 0.64179 0.45407 0.0
C603 C 0.49734 0.60557 0.44752 0.0
C604 C 0.477 0.60073 0.45359 0.0
C605 C 0.4725 0.61638 0.46038 0.0
C606 C 0.48807 0.63667 0.46115 0.0
C607 C 0.45999 0.57949 0.4509 0.0
C608 C 0.44911 0.57271 0.40492 0.0
C609 C 0.45321 0.56677 0.49443 0.0
C610 C 0.46459 0.57298 0.54329 0.0
C611 C 0.46575 0.58922 0.57198 0.0
C612 C 0.47663 0.59504 0.61801 0.0
C613 C 0.48629 0.58461 0.63585 0.0
C614 C 0.48501 0.5683 0.60777 0.0
C615 C 0.47416 0.56244 0.56168 0.0
H616 H 0.4947 0.58913 0.67151 0.0
H617 H 0.39128 0.52966 0.22224 0.0
H618 H 0.85308 0.49181 0.67379 0.0
H619 H 0.86383 0.46697 0.68716 0.0
H620 H 0.91819 0.50356 0.59817 0.0
H621 H 0.90723 0.52875 0.58369 0.0
H622 H 0.8998 0.46408 0.5695 0.0
H623 H 0.92296 0.49835 0.72617 0.0
H624 H 0.92279 0.51607 0.80519 0.0
H625 H 0.87093 0.46124 0.86036 0.0
H626 H 0.87055 0.44324 0.78138 0.0
H627 H 0.90533 0.37332 0.65485 0.0
H628 H 0.91764 0.41017 0.648 0.0
H629 H 0.85694 0.3988 0.6795 0.0
H630 H 0.84451 0.36232 0.68484 0.0
H631 H 0.89343 0.43245 0.73997 0.0
H632 H 0.86632 0.40428 0.56698 0.0
H633 H 0.86733 0.38713 0.4876 0.0
H634 H 0.93027 0.43242 0.46598 0.0
H635 H 0.92965 0.44967 0.54569 0.0
C636 C 0.86744 0.4948 0.6573 0.0
C637 C 0.87927 0.51231 0.62756 0.0
C638 C 0.87367 0.4806 0.66541 0.0
C639 C 0.89201 0.48354 0.64449 0.0
C640 C 0.90407 0.50108 0.61507 0.0
C641 C 0.89781 0.51546 0.60693 0.0
C642 C 0.89731 0.46725 0.6509 0.0
C643 C 0.89911 0.45756 0.60696 0.0
C644 C 0.8966 0.45877 0.69973 0.0
C645 C 0.89674 0.46943 0.74769 0.0
C646 C 0.91145 0.49008 0.75501 0.0
C647 C 0.91145 0.50018 0.79984 0.0
C648 C 0.89686 0.48978 0.83777 0.0
C649 C 0.88225 0.46926 0.83098 0.0
C650 C 0.88216 0.45908 0.78622 0.0
C651 C 0.89469 0.37876 0.66037 0.0
C652 C 0.87395 0.36497 0.67011 0.0
C653 C 0.90172 0.39973 0.65645 0.0
C654 C 0.88816 0.40708 0.66343 0.0
C655 C 0.86761 0.39336 0.67417 0.0
C656 C 0.86053 0.37252 0.67693 0.0
C657 C 0.89473 0.42894 0.65861 0.0
C658 C 0.89508 0.43957 0.70287 0.0
C659 C 0.89773 0.43841 0.61031 0.0
C660 C 0.89802 0.42806 0.56254 0.0
C661 C 0.88042 0.41044 0.54556 0.0
C662 C 0.88091 0.40074 0.50046 0.0
C663 C 0.89888 0.40863 0.47186 0.0
C664 C 0.91638 0.42628 0.48824 0.0
C665 C 0.91597 0.43603 0.53335 0.0
H666 H 0.89923 0.40111 0.43694 0.0
H667 H 0.89689 0.49763 0.87244 0.0
H668 H 0.35833 0.84694 0.83354 0.0
H669 H 0.39449 0.85862 0.84377 0.0
H670 H 0.40966 0.91193 0.75298 0.0
H671 H 0.37328 0.90023 0.7422 0.0
H672 H 0.42865 0.89285 0.71795 0.0
H673 H 0.42289 0.91772 0.8784 0.0
H674 H 0.40799 0.91779 0.96226 0.0
H675 H 0.41603 0.86832 0.01268 0.0
H676 H 0.43071 0.86772 0.92887 0.0
H677 H 0.52691 0.90246 0.85409 0.0
H678 H 0.5009 0.91264 0.84742 0.0
H679 H 0.46487 0.86092 0.74963 0.0
H680 H 0.49068 0.8509 0.75537 0.0
H681 H 0.46261 0.89223 0.87988 0.0
H682 H 0.43728 0.86961 0.6671 0.0
H683 H 0.45329 0.87173 0.5834 0.0
H684 H 0.50974 0.92179 0.63757 0.0
H685 H 0.49402 0.92019 0.72138 0.0
C686 C 0.36932 0.86134 0.81644 0.0
C687 C 0.3629 0.87258 0.78677 0.0
C688 C 0.39004 0.86808 0.82264 0.0
C689 C 0.40481 0.88623 0.79942 0.0
C690 C 0.39851 0.89792 0.77136 0.0
C691 C 0.37772 0.89123 0.76537 0.0
C692 C 0.42653 0.89157 0.80026 0.0
C693 C 0.43622 0.89301 0.75336 0.0
C694 C 0.43666 0.89239 0.84651 0.0
C695 C 0.42786 0.89264 0.89717 0.0
C696 C 0.42137 0.90676 0.90723 0.0
C697 C 0.41297 0.9069 0.9548 0.0
C698 C 0.41105 0.89306 0.99276 0.0
C699 C 0.41754 0.87905 0.98325 0.0
C700 C 0.42594 0.87883 0.93573 0.0
C701 C 0.51361 0.89349 0.83042 0.0
C702 C 0.51085 0.87583 0.80538 0.0
C703 C 0.49875 0.8993 0.82678 0.0
C704 C 0.48103 0.88767 0.79762 0.0
C705 C 0.47858 0.87038 0.77153 0.0
C706 C 0.49333 0.86458 0.77518 0.0
C707 C 0.46413 0.89228 0.7975 0.0
C708 C 0.45533 0.89265 0.8445 0.0
C709 C 0.45497 0.89347 0.75135 0.0
C710 C 0.46446 0.89472 0.70068 0.0
C711 C 0.45307 0.88118 0.66108 0.0
C712 C 0.46211 0.88226 0.61362 0.0
C713 C 0.48253 0.89687 0.6052 0.0
C714 C 0.49394 0.91045 0.64419 0.0
C715 C 0.48498 0.90944 0.69171 0.0
H716 H 0.4895 0.89767 0.56844 0.0
H717 H 0.40454 0.8932 0.02957 0.0
H718 H 0.46878 0.37463 0.91613 0.0
H719 H 0.49462 0.41068 0.92776 0.0
H720 H 0.53208 0.39287 0.01273 0.0
H721 H 0.50645 0.35721 0.00223 0.0
H722 H 0.53373 0.42524 0.05591 0.0
H723 H 0.53878 0.40377 0.88248 0.0
H724 H 0.52562 0.39084 0.79586 0.0
H725 H 0.51493 0.44078 0.77119 0.0
H726 H 0.52783 0.45386 0.85796 0.0
H727 H 0.63666 0.48025 0.97412 0.0
H728 H 0.60023 0.45615 0.96938 0.0
H729 H 0.5874 0.50482 0.99516 0.0
H730 H 0.62421 0.52932 0.00126 0.0
H731 H 0.5679 0.46431 0.89886 0.0
H732 H 0.56812 0.48759 0.07541 0.0
H733 H 0.5843 0.49911 0.16017 0.0
H734 H 0.58721 0.4442 0.17659 0.0
H735 H 0.57132 0.43254 0.09153 0.0
C736 C 0.48242 0.37845 0.93783 0.0
C737 C 0.48562 0.36302 0.95784 0.0
C738 C 0.49718 0.39904 0.94435 0.0
C739 C 0.51537 0.40448 0.97079 0.0
C740 C 0.51815 0.38909 0.99237 0.0
C741 C 0.50349 0.36864 0.98599 0.0
C742 C 0.53235 0.42591 0.97349 0.0
C743 C 0.54094 0.43395 0.02157 0.0
C744 C 0.54171 0.43747 0.92885 0.0
C745 C 0.53399 0.42962 0.87683 0.0
C746 C 0.53347 0.41189 0.85868 0.0
C747 C 0.52609 0.40455 0.80957 0.0
C748 C 0.51937 0.41494 0.77811 0.0
C749 C 0.52008 0.43272 0.79565 0.0
C750 C 0.52743 0.4401 0.84478 0.0
C751 C 0.6262 0.48596 0.97865 0.0
C752 C 0.63338 0.50674 0.98822 0.0
C753 C 0.60536 0.47213 0.9759 0.0
C754 C 0.59122 0.47873 0.98217 0.0
C755 C 0.59816 0.49948 0.9906 0.0
C756 C 0.61915 0.51341 0.99404 0.0
C757 C 0.56931 0.4633 0.98104 0.0
C758 C 0.55999 0.45615 0.93327 0.0
C759 C 0.55934 0.45246 0.02582 0.0
C760 C 0.56874 0.45932 0.077 0.0
C761 C 0.5724 0.47809 0.09692 0.0
C762 C 0.58148 0.48462 0.14503 0.0
C763 C 0.58684 0.47242 0.17369 0.0
C764 C 0.58308 0.45365 0.15433 0.0
C765 C 0.57403 0.44707 0.1062 0.0
H766 H 0.59385 0.4775 0.21094 0.0
H767 H 0.51367 0.40924 0.7401 0.0
H768 H 0.24166 0.44777 0.54586 0.0
H769 H 0.22031 0.44793 0.61568 0.0
H770 H 0.26602 0.45446 0.72502 0.0
H771 H 0.28675 0.45286 0.65519 0.0
H772 H 0.23184 0.43038 0.76318 0.0
H773 H 0.25829 0.49569 0.68263 0.0
H774 H 0.26551 0.51978 0.61146 0.0
H775 H 0.20132 0.49408 0.58476 0.0
H776 H 0.19372 0.46967 0.6554 0.0
H777 H 0.2076 0.47842 0.96319 0.0
H778 H 0.22381 0.47608 0.88479 0.0
H779 H 0.16481 0.43781 0.81664 0.0
H780 H 0.14824 0.43957 0.89587 0.0
H781 H 0.20287 0.47639 0.75646 0.0
H782 H 0.17837 0.41101 0.84381 0.0
H783 H 0.17417 0.3905 0.92101 0.0
H784 H 0.23916 0.42114 0.9405 0.0
H785 H 0.24371 0.44207 0.86385 0.0
C786 C 0.24711 0.44922 0.58486 0.0
C787 C 0.2659 0.45046 0.59525 0.0
C788 C 0.23497 0.44945 0.62475 0.0
C789 C 0.24172 0.45172 0.67572 0.0
C790 C 0.26044 0.45274 0.68609 0.0
C791 C 0.27233 0.4519 0.64624 0.0
C792 C 0.22928 0.45292 0.71823 0.0
C793 C 0.22567 0.44057 0.76156 0.0
C794 C 0.22092 0.46602 0.71633 0.0
C795 C 0.22545 0.48072 0.67394 0.0
C796 C 0.24572 0.49509 0.66134 0.0
C797 C 0.24988 0.50882 0.62114 0.0
C798 C 0.23389 0.50842 0.59352 0.0
C799 C 0.21369 0.49435 0.60614 0.0
C800 C 0.20945 0.48057 0.64628 0.0
C801 C 0.19799 0.46973 0.93139 0.0
C802 C 0.1766 0.4591 0.93584 0.0
C803 C 0.20731 0.4684 0.8867 0.0
C804 C 0.19546 0.4567 0.84539 0.0
C805 C 0.17413 0.44689 0.84841 0.0
C806 C 0.16473 0.44791 0.89359 0.0
C807 C 0.20562 0.45392 0.80048 0.0
C808 C 0.20889 0.46606 0.75719 0.0
C809 C 0.21406 0.44102 0.80281 0.0
C810 C 0.21136 0.42824 0.84844 0.0
C811 C 0.19175 0.41351 0.86485 0.0
C812 C 0.18931 0.40178 0.90844 0.0
C813 C 0.20639 0.40455 0.93573 0.0
C814 C 0.22595 0.41902 0.91937 0.0
C815 C 0.22846 0.43081 0.87583 0.0
H816 H 0.20447 0.39546 0.96948 0.0
H817 H 0.23714 0.51906 0.5624 0.0
H818 H 0.7514 0.20363 0.20289 0.0
H819 H 0.77218 0.22319 0.13007 0.0
H820 H 0.72784 0.17855 0.02646 0.0
H821 H 0.70772 0.15825 0.0997 0.0
H822 H 0.76243 0.1888 0.99114 0.0
H823 H 0.73316 0.22794 0.05197 0.0
H824 H 0.72414 0.24647 0.11475 0.0
H825 H 0.78763 0.2883 0.14251 0.0
H826 H 0.79703 0.26985 0.08034 0.0
H827 H 0.79165 0.25407 0.77222 0.0
H828 H 0.77329 0.23444 0.8478 0.0
H829 H 0.82805 0.26672 0.93809 0.0
H830 H 0.84677 0.28626 0.86214 0.0
H831 H 0.7895 0.26339 0.97981 0.0
H832 H 0.81683 0.22276 0.90968 0.0
H833 H 0.82275 0.20418 0.84039 0.0
H834 H 0.75815 0.16488 0.82269 0.0
H835 H 0.75184 0.18345 0.89127 0.0
C836 C 0.74607 0.19807 0.16452 0.0
C837 C 0.72788 0.17956 0.15676 0.0
C838 C 0.7579 0.20931 0.12285 0.0
C839 C 0.7514 0.20267 0.0725 0.0
C840 C 0.73321 0.18407 0.06482 0.0
C841 C 0.72167 0.17252 0.10661 0.0
C842 C 0.76368 0.21492 0.02794 0.0
C843 C 0.7681 0.20506 0.98857 0.0
C844 C 0.77138 0.23624 0.02449 0.0
C845 C 0.76579 0.24739 0.06188 0.0
C846 C 0.74519 0.241 0.07174 0.0
C847 C 0.74001 0.2515 0.10717 0.0
C848 C 0.7553 0.26851 0.13271 0.0
C849 C 0.7758 0.2751 0.12276 0.0
C850 C 0.78107 0.26464 0.08739 0.0
C851 C 0.79982 0.25704 0.80814 0.0
C852 C 0.82066 0.27173 0.81131 0.0
C853 C 0.78931 0.24576 0.85117 0.0
C854 C 0.79937 0.24913 0.89826 0.0
C855 C 0.82009 0.26394 0.9019 0.0
C856 C 0.83074 0.27501 0.85856 0.0
C857 C 0.78806 0.2372 0.94367 0.0
C858 C 0.78383 0.24714 0.98293 0.0
C859 C 0.78004 0.2159 0.94628 0.0
C860 C 0.78387 0.20462 0.90534 0.0
C861 C 0.80389 0.21027 0.89071 0.0
C862 C 0.80731 0.19972 0.85161 0.0
C863 C 0.79084 0.18338 0.82711 0.0
C864 C 0.7709 0.17755 0.84168 0.0
C865 C 0.76739 0.18807 0.88069 0.0
H866 H 0.7935 0.17519 0.79694 0.0
H867 H 0.75125 0.27662 0.16012 0.0
H868 H 0.5501 0.75689 0.35285 0.0
H869 H 0.5482 0.77468 0.2771 0.0
H870 H 0.54813 0.72834 0.18051 0.0
H871 H 0.55137 0.71119 0.25656 0.0
H872 H 0.56955 0.76219 0.13649 0.0
H873 H 0.50323 0.7311 0.20987 0.0
H874 H 0.47721 0.72194 0.27713 0.0
H875 H 0.49532 0.78506 0.29658 0.0
H876 H 0.52165 0.79464 0.22988 0.0
H877 H 0.53133 0.79123 0.92102 0.0
H878 H 0.5313 0.77146 0.99509 0.0
H879 H 0.55327 0.82477 0.09075 0.0
H880 H 0.55381 0.84486 0.01663 0.0
H881 H 0.51905 0.78572 0.13145 0.0
H882 H 0.58656 0.81499 0.05445 0.0
H883 H 0.6093 0.82126 0.98068 0.0
H884 H 0.58441 0.7568 0.96146 0.0
H885 H 0.56126 0.75013 0.03464 0.0
C886 C 0.54971 0.75053 0.31543 0.0
C887 C 0.5507 0.73259 0.3105 0.0
C888 C 0.54847 0.76062 0.2721 0.0
C889 C 0.54742 0.75258 0.22295 0.0
C890 C 0.5488 0.73482 0.21794 0.0
C891 C 0.5506 0.725 0.26135 0.0
C892 C 0.54504 0.76284 0.17703 0.0
C893 C 0.55828 0.76702 0.13529 0.0
C894 C 0.53039 0.76929 0.1751 0.0
C895 C 0.51453 0.7636 0.21516 0.0
C896 C 0.50176 0.74304 0.22873 0.0
C897 C 0.48694 0.73777 0.26672 0.0
C898 C 0.48465 0.75291 0.29119 0.0
C899 C 0.49713 0.77335 0.27763 0.0
C900 C 0.51199 0.77871 0.23969 0.0
C901 C 0.53602 0.79875 0.95785 0.0
C902 C 0.54269 0.81965 0.96292 0.0
C903 C 0.536 0.78742 4e-05 0.0
C904 C 0.54238 0.79674 0.04809 0.0
C905 C 0.5483 0.81737 0.05383 0.0
C906 C 0.54864 0.82881 0.01147 0.0
C907 C 0.54367 0.78515 0.092 0.0
C908 C 0.53021 0.78073 0.13305 0.0
C909 C 0.55771 0.77802 0.09271 0.0
C910 C 0.57205 0.78206 0.04972 0.0
C911 C 0.58585 0.80215 0.0343 0.0
C912 C 0.59882 0.80577 0.99262 0.0
C913 C 0.59827 0.78944 0.96634 0.0
C914 C 0.58481 0.76944 0.98183 0.0
C915 C 0.57177 0.76573 0.02343 0.0
H916 H 0.60828 0.79227 0.93399 0.0
H917 H 0.47317 0.7488 0.3206 0.0
H918 H 0.85099 0.57273 0.42679 0.0
H919 H 0.83059 0.57386 0.35552 0.0
H920 H 0.77656 0.52376 0.42193 0.0
H921 H 0.79668 0.52285 0.49371 0.0
H922 H 0.80803 0.54826 0.28326 0.0
H923 H 0.736 0.53004 0.4029 0.0
H924 H 0.72765 0.53488 0.49125 0.0
H925 H 0.78784 0.58638 0.50978 0.0
H926 H 0.79643 0.58209 0.42128 0.0
H927 H 0.72528 0.51816 0.11766 0.0
H928 H 0.7466 0.51998 0.1897 0.0
H929 H 0.74977 0.57572 0.2404 0.0
H930 H 0.72787 0.57369 0.16895 0.0
H931 H 0.74624 0.55304 0.32006 0.0
H932 H 0.78938 0.57652 0.17363 0.0
H933 H 0.8002 0.57551 0.08511 0.0
H934 H 0.80218 0.5211 0.1195 0.0
H935 H 0.7911 0.52162 0.20806 0.0
C936 C 0.83479 0.56185 0.42601 0.0
C937 C 0.82544 0.5478 0.46613 0.0
C938 C 0.82315 0.56252 0.38526 0.0
C939 C 0.80199 0.54915 0.38389 0.0
C940 C 0.79279 0.53454 0.42278 0.0
C941 C 0.80435 0.53397 0.46366 0.0
C942 C 0.78942 0.55058 0.34226 0.0
C943 C 0.79453 0.54933 0.2913 0.0
C944 C 0.77213 0.55256 0.3527 0.0
C945 C 0.76691 0.55561 0.40556 0.0
C946 C 0.74741 0.54248 0.4257 0.0
C947 C 0.74264 0.54511 0.47584 0.0
C948 C 0.75722 0.56088 0.50616 0.0
C949 C 0.77657 0.57413 0.48631 0.0
C950 C 0.7814 0.5716 0.43617 0.0
C951 C 0.73038 0.53075 0.1443 0.0
C952 C 0.72502 0.54588 0.13732 0.0
C953 C 0.74267 0.53182 0.18536 0.0
C954 C 0.75018 0.54823 0.21982 0.0
C955 C 0.74424 0.56297 0.21411 0.0
C956 C 0.73174 0.5618 0.17325 0.0
C957 C 0.7645 0.5501 0.26111 0.0
C958 C 0.75975 0.55202 0.31201 0.0
C959 C 0.78247 0.54935 0.25054 0.0
C960 C 0.78925 0.54903 0.19738 0.0
C961 C 0.792 0.56427 0.16222 0.0
C962 C 0.79819 0.56379 0.11205 0.0
C963 C 0.80183 0.54823 0.09666 0.0
C964 C 0.79934 0.53314 0.13146 0.0
C965 C 0.79312 0.53353 0.18167 0.0
H966 H 0.80663 0.54789 0.0578 0.0
H967 H 0.75352 0.56286 0.545 0.0
H968 H 0.16505 0.72449 0.31968 0.0
H969 H 0.18892 0.74742 0.38412 0.0
H970 H 0.23867 0.7661 0.27749 0.0
H971 H 0.21501 0.74299 0.21317 0.0
H972 H 0.24974 0.76033 0.3684 0.0
H973 H 0.21969 0.79709 0.30204 0.0
H974 H 0.1919 0.80288 0.27417 0.0
H975 H 0.16904 0.79367 0.42815 0.0
H976 H 0.19651 0.78747 0.45684 0.0
H977 H 0.2892 0.853 0.56245 0.0
H978 H 0.27342 0.83706 0.48059 0.0
H979 H 0.26142 0.77873 0.5386 0.0
H980 H 0.2776 0.79451 0.61922 0.0
H981 H 0.23612 0.80984 0.45929 0.0
H982 H 0.26085 0.74814 0.44795 0.0
H983 H 0.29101 0.74506 0.46821 0.0
H984 H 0.32949 0.80996 0.45564 0.0
H985 H 0.29963 0.81342 0.43458 0.0
C986 C 0.18108 0.73339 0.31 0.0
C987 C 0.18811 0.73188 0.26129 0.0
C988 C 0.19469 0.74659 0.34676 0.0
C989 C 0.21554 0.75868 0.33535 0.0
C990 C 0.22265 0.75694 0.28709 0.0
C991 C 0.20908 0.7437 0.25038 0.0
C992 C 0.22992 0.77299 0.37404 0.0
C993 C 0.24683 0.77121 0.38817 0.0
C994 C 0.22655 0.78774 0.39841 0.0
C995 C 0.2101 0.79167 0.38154 0.0
C996 C 0.20867 0.79617 0.32993 0.0
C997 C 0.19297 0.79953 0.31398 0.0
C998 C 0.1787 0.79861 0.34936 0.0
C999 C 0.18011 0.79437 0.40079 0.0
C1000 C 0.19575 0.79094 0.41693 0.0
C1001 C 0.28348 0.83684 0.55739 0.0
C1002 C 0.28472 0.82506 0.59736 0.0
C1003 C 0.2744 0.82774 0.51067 0.0
C1004 C 0.26643 0.80672 0.50315 0.0
C1005 C 0.26787 0.79504 0.54289 0.0
C1006 C 0.27706 0.80411 0.58922 0.0
C1007 C 0.2555 0.79658 0.4552 0.0
C1008 C 0.23921 0.79914 0.4392 0.0
C1009 C 0.25985 0.78302 0.42797 0.0
C1010 C 0.27795 0.78104 0.44 0.0
C1011 C 0.27576 0.76174 0.4492 0.0
C1012 C 0.2928 0.75993 0.46091 0.0
C1013 C 0.31214 0.77731 0.46332 0.0
C1014 C 0.31449 0.79652 0.45391 0.0
C1015 C 0.29751 0.79842 0.44216 0.0
H1016 H 0.32531 0.77587 0.47243 0.0
H1017 H 0.16656 0.80122 0.33694 0.0
H1018 H 0.44584 0.2924 0.74315 0.0
H1019 H 0.44717 0.27361 0.66847 0.0
H1020 H 0.45675 0.23356 0.76771 0.0
H1021 H 0.4565 0.25296 0.8421 0.0
H1022 H 0.47928 0.24077 0.68982 0.0
H1023 H 0.40893 0.22004 0.71053 0.0
H1024 H 0.37892 0.22434 0.72052 0.0
H1025 H 0.39074 0.25356 0.57358 0.0
H1026 H 0.421 0.24967 0.56301 0.0
H1027 H 0.44454 0.15891 0.5041 0.0
H1028 H 0.44546 0.17878 0.57941 0.0
H1029 H 0.45934 0.23017 0.48237 0.0
H1030 H 0.45899 0.21069 0.4072 0.0
H1031 H 0.42468 0.21639 0.5585 0.0
H1032 H 0.49604 0.23576 0.54195 0.0
H1033 H 0.5242 0.2284 0.53503 0.0
H1034 H 0.50724 0.19724 0.6796 0.0
H1035 H 0.47877 0.20417 0.68699 0.0
C1036 C 0.44833 0.27965 0.74892 0.0
C1037 C 0.45104 0.27413 0.7984 0.0
C1038 C 0.44895 0.26882 0.70626 0.0
C1039 C 0.45164 0.25186 0.71239 0.0
C1040 C 0.45464 0.24655 0.76184 0.0
C1041 C 0.45447 0.25765 0.80438 0.0
C1042 C 0.45128 0.23961 0.66743 0.0
C1043 C 0.46716 0.23525 0.66156 0.0
C1044 C 0.43558 0.23245 0.63011 0.0
C1045 C 0.41735 0.23475 0.63621 0.0
C1046 C 0.40521 0.22751 0.6805 0.0
C1047 C 0.38814 0.22986 0.68625 0.0
C1048 C 0.38296 0.23927 0.64777 0.0
C1049 C 0.3948 0.2463 0.60339 0.0
C1050 C 0.4119 0.24401 0.59748 0.0
C1051 C 0.44787 0.17447 0.49889 0.0
C1052 C 0.45175 0.18328 0.44981 0.0
C1053 C 0.44841 0.18577 0.54185 0.0
C1054 C 0.45246 0.20588 0.5362 0.0
C1055 C 0.45618 0.21465 0.48732 0.0
C1056 C 0.45607 0.20353 0.44454 0.0
C1057 C 0.45263 0.21777 0.58125 0.0
C1058 C 0.4367 0.22197 0.58702 0.0
C1059 C 0.46798 0.22435 0.61905 0.0
C1060 C 0.48514 0.22028 0.61472 0.0
C1061 C 0.49819 0.22716 0.572 0.0
C1062 C 0.51424 0.22311 0.56806 0.0
C1063 C 0.51747 0.21231 0.60677 0.0
C1064 C 0.50469 0.20558 0.64959 0.0
C1065 C 0.48861 0.20958 0.6537 0.0
H1066 H 0.5299 0.20919 0.60365 0.0
H1067 H 0.36974 0.24107 0.65229 0.0
H1068 H 0.09127 0.37401 0.92162 0.0
H1069 H 0.05883 0.3545 0.87633 0.0
H1070 H 0.03233 0.382 0.97058 0.0
H1071 H 0.06459 0.40138 0.01644 0.0
H1072 H 0.00605 0.34161 0.95657 0.0
H1073 H 0.04953 0.3998 0.851 0.0
H1074 H 0.08079 0.42232 0.80244 0.0
H1075 H 0.0707 0.37218 0.70603 0.0
H1076 H 0.0395 0.34928 0.75451 0.0
H1077 H 0.92316 0.33083 0.81049 0.0
H1078 H 0.95489 0.34302 0.85778 0.0
H1079 H 0.97475 0.31364 0.74911 0.0
H1080 H 0.94302 0.30161 0.70077 0.0
H1081 H 0.00463 0.35157 0.76909 0.0
H1082 H 0.95923 0.29399 0.86961 0.0
H1083 H 0.92787 0.2716 0.91792 0.0
H1084 H 0.94134 0.32017 0.02366 0.0
H1085 H 0.97265 0.34295 0.97557 0.0
C1086 C 0.0785 0.37579 0.93303 0.0
C1087 C 0.08057 0.38936 0.97244 0.0
C1088 C 0.05998 0.36467 0.90696 0.0
C1089 C 0.04324 0.36699 0.91964 0.0
C1090 C 0.04506 0.38 0.96012 0.0
C1091 C 0.06355 0.39111 0.98619 0.0
C1092 C 0.02402 0.35648 0.88972 0.0
C1093 C 0.0057 0.34388 0.91564 0.0
C1094 C 0.02364 0.35902 0.83607 0.0
C1095 C 0.04232 0.37279 0.80674 0.0
C1096 C 0.05406 0.39354 0.8197 0.0
C1097 C 0.07175 0.40638 0.79215 0.0
C1098 C 0.07776 0.39867 0.75127 0.0
C1099 C 0.06605 0.37812 0.73776 0.0
C1100 C 0.04836 0.36521 0.76524 0.0
C1101 C 0.93419 0.32683 0.79665 0.0
C1102 C 0.93051 0.3152 0.75181 0.0
C1103 C 0.95231 0.33374 0.82397 0.0
C1104 C 0.9671 0.32901 0.80744 0.0
C1105 C 0.96352 0.31741 0.76268 0.0
C1106 C 0.94536 0.31051 0.73517 0.0
C1107 C 0.98657 0.3369 0.83605 0.0
C1108 C 0.00496 0.34904 0.8099 0.0
C1109 C 0.987 0.33392 0.88949 0.0
C1110 C 0.96823 0.32023 0.91873 0.0
C1111 C 0.95544 0.29994 0.90296 0.0
C1112 C 0.93768 0.28717 0.93034 0.0
C1113 C 0.9326 0.29447 0.97377 0.0
C1114 C 0.94529 0.31454 0.98999 0.0
C1115 C 0.96307 0.32738 0.96272 0.0
H1116 H 0.91884 0.28456 0.99491 0.0
H1117 H 0.09146 0.40863 0.72999 0.0
H1118 H 0.59786 0.93762 0.91934 0.0
H1119 H 0.61625 0.96898 0.96918 0.0
H1120 H 0.63676 0.93883 0.07357 0.0
H1121 H 0.61827 0.90729 0.02404 0.0
H1122 H 0.62157 0.95987 0.12376 0.0
H1123 H 0.66976 0.9733 0.9897 0.0
H1124 H 0.68145 0.97601 0.90041 0.0
H1125 H 0.66498 0.02162 0.86998 0.0
H1126 H 0.65292 0.01898 0.95893 0.0
H1127 H 0.6876 0.05116 0.25831 0.0
H1128 H 0.67499 0.01995 0.20775 0.0
H1129 H 0.65473 0.04576 0.0901 0.0
H1130 H 0.66767 0.07712 0.13976 0.0
H1131 H 0.67205 0.02635 0.04807 0.0
H1132 H 0.62139 0.01116 0.1783 0.0
H1133 H 0.6087 0.00829 0.26664 0.0
H1134 H 0.62881 0.96589 0.30314 0.0
H1135 H 0.64187 0.96871 0.21514 0.0
C1136 C 0.60638 0.93766 0.9527 0.0
C1137 C 0.60659 0.91994 0.9677 0.0
C1138 C 0.61696 0.95564 0.98103 0.0
C1139 C 0.62802 0.95629 0.02484 0.0
C1140 C 0.62835 0.93866 0.03982 0.0
C1141 C 0.61782 0.92067 0.01138 0.0
C1142 C 0.63856 0.97518 0.05599 0.0
C1143 C 0.6329 0.97435 0.10749 0.0
C1144 C 0.65296 0.99413 0.03439 0.0
C1145 C 0.66028 0.99581 0.9809 0.0
C1146 C 0.66848 0.9838 0.96387 0.0
C1147 C 0.67521 0.98534 0.91333 0.0
C1148 C 0.67392 0.99895 0.87952 0.0
C1149 C 0.66595 0.01108 0.89621 0.0
C1150 C 0.65919 0.00958 0.9467 0.0
C1151 C 0.68053 0.05023 0.22159 0.0
C1152 C 0.67854 0.0666 0.20323 0.0
C1153 C 0.67326 0.03234 0.1928 0.0
C1154 C 0.66366 0.0304 0.14541 0.0
C1155 C 0.66207 0.04689 0.12655 0.0
C1156 C 0.66942 0.0648 0.15512 0.0
C1157 C 0.65491 0.01109 0.11573 0.0
C1158 C 0.66088 0.01184 0.0645 0.0
C1159 C 0.64068 0.99207 0.13746 0.0
C1160 C 0.63281 0.99033 0.19033 0.0
C1161 C 0.62325 0.00135 0.20529 0.0
C1162 C 0.61597 0.99971 0.25527 0.0
C1163 C 0.618 0.98696 0.29052 0.0
C1164 C 0.62728 0.97578 0.27582 0.0
C1165 C 0.63462 0.97739 0.2259 0.0
H1166 H 0.61235 0.98571 0.3292 0.0
H1167 H 0.67913 1.00012 0.8404 0.0
H1168 H 0.70358 0.61662 0.18703 0.0
H1169 H 0.68748 0.6342 0.22721 0.0
H1170 H 0.64504 0.61657 0.10143 0.0
H1171 H 0.6611 0.59909 0.0608 0.0
H1172 H 0.65886 0.65598 0.1308 0.0
H1173 H 0.63082 0.59009 0.21112 0.0
H1174 H 0.63231 0.56248 0.25735 0.0
H1175 H 0.66231 0.60283 0.38374 0.0
H1176 H 0.66124 0.63078 0.3379 0.0
H1177 H 0.57742 0.66362 0.24055 0.0
H1178 H 0.59911 0.65217 0.20066 0.0
H1179 H 0.63781 0.6711 0.33427 0.0
H1180 H 0.61606 0.68247 0.37475 0.0
H1181 H 0.62836 0.63328 0.30339 0.0
H1182 H 0.65399 0.6986 0.22527 0.0
H1183 H 0.65205 0.72593 0.17891 0.0
H1184 H 0.62636 0.6867 0.04841 0.0
H1185 H 0.62788 0.65902 0.09427 0.0
C1186 C 0.69095 0.61663 0.16765 0.0
C1187 C 0.68354 0.60632 0.12086 0.0
C1188 C 0.68172 0.62663 0.19078 0.0
C1189 C 0.66491 0.62648 0.16759 0.0
C1190 C 0.65797 0.61685 0.12001 0.0
C1191 C 0.66714 0.6068 0.09694 0.0
C1192 C 0.65402 0.63566 0.19369 0.0
C1193 C 0.65204 0.65092 0.16836 0.0
C1194 C 0.64554 0.62937 0.24319 0.0
C1195 C 0.64616 0.61258 0.27084 0.0
C1196 C 0.63789 0.59312 0.24858 0.0
C1197 C 0.63863 0.57741 0.27475 0.0
C1198 C 0.64746 0.58092 0.32338 0.0
C1199 C 0.65551 0.60015 0.34602 0.0
C1200 C 0.65484 0.61593 0.31998 0.0
C1201 C 0.59058 0.66544 0.26144 0.0
C1202 C 0.595 0.67397 0.31086 0.0
C1203 C 0.60304 0.65898 0.23844 0.0
C1204 C 0.6202 0.66097 0.26427 0.0
C1205 C 0.62467 0.66947 0.31361 0.0
C1206 C 0.61224 0.676 0.33662 0.0
C1207 C 0.63304 0.65351 0.24036 0.0
C1208 C 0.63535 0.63853 0.26607 0.0
C1209 C 0.64179 0.66004 0.19119 0.0
C1210 C 0.64088 0.67667 0.16341 0.0
C1211 C 0.64777 0.69574 0.18685 0.0
C1212 C 0.64678 0.71131 0.16062 0.0
C1213 C 0.63904 0.70804 0.11079 0.0
C1214 C 0.63233 0.6892 0.08703 0.0
C1215 C 0.63327 0.67357 0.11311 0.0
H1216 H 0.63829 0.72011 0.09054 0.0
H1217 H 0.64801 0.56873 0.34359 0.0
H1218 H 0.07273 0.6585 0.26401 0.0
H1219 H 0.04091 0.64523 0.31155 0.0
H1220 H 0.05336 0.70652 0.33977 0.0
H1221 H 0.08555 0.72005 0.29257 0.0
H1222 H 0.03919 0.68309 0.42518 0.0
H1223 H 0.01856 0.67758 0.25068 0.0
H1224 H 0.01669 0.66828 0.15954 0.0
H1225 H 0.98882 0.60501 0.20031 0.0
H1226 H 0.99079 0.61395 0.29179 0.0
H1227 H 0.93667 0.64589 0.51412 0.0
H1228 H 0.96859 0.66412 0.4658 0.0
H1229 H 0.96502 0.60693 0.42869 0.0
H1230 H 0.93317 0.58863 0.47649 0.0
H1231 H 0.97418 0.63144 0.34523 0.0
H1232 H 0.9973 0.63761 0.5202 0.0
H1233 H 0.99934 0.64714 0.61123 0.0
H1234 H 0.02233 0.70966 0.56876 0.0
H1235 H 0.02017 0.70044 0.47738 0.0
C1236 C 0.06877 0.66922 0.28027 0.0
C1237 C 0.08167 0.69036 0.2742 0.0
C1238 C 0.05049 0.66158 0.3073 0.0
C1239 C 0.04459 0.67486 0.32855 0.0
C1240 C 0.05758 0.69599 0.32348 0.0
C1241 C 0.07594 0.70369 0.29639 0.0
C1242 C 0.02486 0.66651 0.35613 0.0
C1243 C 0.02491 0.67208 0.40743 0.0
C1244 C 0.00627 0.65194 0.33318 0.0
C1245 C 0.00497 0.64646 0.27815 0.0
C1246 C 0.01217 0.6617 0.24025 0.0
C1247 C 0.01107 0.65648 0.18851 0.0
C1248 C 0.00268 0.63607 0.17415 0.0
C1249 C 0.99533 0.62082 0.2115 0.0
C1250 C 0.99641 0.62595 0.2633 0.0
C1251 C 0.94269 0.6372 0.49571 0.0
C1252 C 0.93237 0.6158 0.49925 0.0
C1253 C 0.96097 0.64765 0.46826 0.0
C1254 C 0.96924 0.63688 0.44389 0.0
C1255 C 0.9589 0.61554 0.44714 0.0
C1256 C 0.94071 0.6051 0.47466 0.0
C1257 C 0.98858 0.64769 0.41455 0.0
C1258 C 0.98843 0.64261 0.36282 0.0
C1259 C 0.00703 0.66275 0.43707 0.0
C1260 C 0.00834 0.6683 0.49196 0.0
C1261 C 0.00262 0.65336 0.53026 0.0
C1262 C 0.00383 0.65871 0.58192 0.0
C1263 C 0.0109 0.67898 0.59576 0.0
C1264 C 0.01682 0.69395 0.55797 0.0
C1265 C 0.01562 0.68868 0.50625 0.0
H1266 H 0.01183 0.68309 0.63578 0.0
H1267 H 0.00184 0.63207 0.13407 0.0
H1268 H 0.42556 0.08854 0.52277 0.0
H1269 H 0.40507 0.05559 0.56471 0.0
H1270 H 0.36412 0.03419 0.4354 0.0
H1271 H 0.38434 0.06729 0.39352 0.0
H1272 H 0.34332 0.02214 0.52423 0.0
H1273 H 0.4007 0.02093 0.44974 0.0
H1274 H 0.43725 0.03402 0.43327 0.0
H1275 H 0.44733 0.02994 0.59359 0.0
H1276 H 0.41088 0.0171 0.61112 0.0
H1277 H 0.29774 0.91543 0.57345 0.0
H1278 H 0.31535 0.94979 0.53717 0.0
H1279 H 0.35655 0.97101 0.66599 0.0
H1280 H 0.33923 0.93667 0.70217 0.0
H1281 H 0.37701 0.98334 0.57797 0.0
H1282 H 0.31929 0.98382 0.65215 0.0
H1283 H 0.28279 0.97105 0.66828 0.0
H1284 H 0.27323 0.97636 0.50824 0.0
H1285 H 0.30965 0.9889 0.49103 0.0
C1286 C 0.41215 0.07687 0.50328 0.0
C1287 C 0.40667 0.0805 0.45461 0.0
C1288 C 0.40048 0.05801 0.52727 0.0
C1289 C 0.38324 0.04231 0.50285 0.0
C1290 C 0.3774 0.04606 0.45488 0.0
C1291 C 0.38901 0.06498 0.43094 0.0
C1292 C 0.3716 0.02185 0.52682 0.0
C1293 C 0.35062 0.01353 0.53544 0.0
C1294 C 0.38122 0.01081 0.54235 0.0
C1295 C 0.40309 0.01823 0.5318 0.0
C1296 C 0.41074 0.02294 0.48153 0.0
C1297 C 0.43143 0.03031 0.472 0.0
C1298 C 0.44462 0.03287 0.51238 0.0
C1299 C 0.43711 0.02798 0.56236 0.0
C1300 C 0.41643 0.02064 0.57211 0.0
C1301 C 0.31041 0.92745 0.59438 0.0
C1302 C 0.3171 0.92328 0.64067 0.0
C1303 C 0.32043 0.94711 0.57364 0.0
C1304 C 0.33722 0.96301 0.59899 0.0
C1305 C 0.34365 0.95897 0.64572 0.0
C1306 C 0.33368 0.93933 0.66643 0.0
C1307 C 0.34871 0.98362 0.57565 0.0
C1308 C 0.36969 0.99195 0.56696 0.0
C1309 C 0.33906 0.99462 0.55998 0.0
C1310 C 0.31716 0.98711 0.57024 0.0
C1311 C 0.30938 0.9821 0.62033 0.0
C1312 C 0.28871 0.97494 0.62968 0.0
C1313 C 0.27569 0.97285 0.58929 0.0
C1314 C 0.28333 0.97796 0.53948 0.0
C1315 C 0.30399 0.98512 0.52991 0.0
H1316 H 0.25969 0.9673 0.59662 0.0
H1317 H 0.46064 0.0386 0.50493 0.0
H1318 H 0.34284 0.41387 0.58615 0.0
H1319 H 0.35631 0.39528 0.63279 0.0
H1320 H 0.29521 0.34514 0.65573 0.0
H1321 H 0.28151 0.36384 0.6096 0.0
H1322 H 0.31734 0.35368 0.74226 0.0
H1323 H 0.32619 0.34158 0.5674 0.0
H1324 H 0.33697 0.35055 0.47754 0.0
H1325 H 0.39939 0.38636 0.52542 0.0
H1326 H 0.38896 0.37784 0.61568 0.0
H1327 H 0.35393 0.28786 0.82918 0.0
H1328 H 0.33645 0.3021 0.77987 0.0
H1329 H 0.39399 0.3568 0.75251 0.0
H1330 H 0.41156 0.34273 0.80138 0.0
H1331 H 0.3711 0.34281 0.66552 0.0
H1332 H 0.36155 0.35644 0.84089 0.0
H1333 H 0.35052 0.34732 0.93057 0.0
H1334 H 0.28891 0.30789 0.88074 0.0
H1335 H 0.29963 0.31658 0.79066 0.0
C1336 C 0.33222 0.39888 0.60101 0.0
C1337 C 0.31109 0.39031 0.59393 0.0
C1338 C 0.33997 0.38823 0.62751 0.0
C1339 C 0.32679 0.36869 0.64711 0.0
C1340 C 0.30566 0.36017 0.64075 0.0
C1341 C 0.29787 0.37086 0.61427 0.0
C1342 C 0.33518 0.35736 0.67468 0.0
C1343 C 0.32883 0.35097 0.72516 0.0
C1344 C 0.3504 0.35409 0.65264 0.0
C1345 C 0.35676 0.3592 0.59836 0.0
C1346 C 0.3422 0.35149 0.55881 0.0
C1347 C 0.34825 0.35648 0.50779 0.0
C1348 C 0.36885 0.36906 0.49579 0.0
C1349 C 0.38344 0.37664 0.53478 0.0
C1350 C 0.37747 0.37171 0.58587 0.0
C1351 C 0.36286 0.30292 0.81266 0.0
C1352 C 0.38414 0.31418 0.81933 0.0
C1353 C 0.35284 0.31105 0.78464 0.0
C1354 C 0.36391 0.33056 0.76281 0.0
C1355 C 0.38515 0.34172 0.769 0.0
C1356 C 0.39516 0.33366 0.79713 0.0
C1357 C 0.3535 0.33946 0.73331 0.0
C1358 C 0.35947 0.34536 0.68241 0.0
C1359 C 0.3379 0.3422 0.75491 0.0
C1360 C 0.33143 0.33698 0.80902 0.0
C1361 C 0.34568 0.34569 0.84903 0.0
C1362 C 0.33948 0.34062 0.89994 0.0
C1363 C 0.31904 0.32698 0.91134 0.0
C1364 C 0.30474 0.31842 0.87185 0.0
C1365 C 0.31087 0.32342 0.82087 0.0
H1366 H 0.31426 0.32308 0.95078 0.0
H1367 H 0.3735 0.3729 0.45626 0.0
loop_
_geom_bond_atom_site_label_1
_geom_bond_atom_site_label_2
_geom_bond_distance
_geom_bond_site_symmetry_2
_ccdc_geom_bond_type
Zn0 O3 2.031 . S
Zn0 O5 2.049 . S
Zn0 O10 2.067 . S
Zn1 O2 1.962 1_554 S
Zn1 O4 1.986 . S
Zn1 O6 1.996 . S
Zn1 O9 1.943 . S
O2 Zn1 1.962 1_556 S
O2 C7 1.254 . S
O3 Zn0 2.031 . S
O3 C7 1.269 1_554 S
O4 Zn1 1.986 . S
O4 C11 1.262 . S
O5 Zn0 2.049 . S
O5 C13 1.260 . S
O6 Zn1 1.996 . S
O6 C13 1.257 . S
C7 O2 1.254 . S
C7 O3 1.269 1_556 S
C8 O9 1.249 . S
C8 O10 1.270 . S
O9 Zn1 1.943 . S
O9 C8 1.249 . S
O10 Zn0 2.067 . S
O10 C8 1.270 . S
C11 O4 1.262 . S
C11 O12 1.232 . S
O12 C11 1.232 . S
C13 O5 1.260 . S
C13 O6 1.257 . S
Zn14 O17 2.031 . S
Zn14 O19 2.049 . S
Zn14 O24 2.067 . S
Zn15 O16 1.962 . S
Zn15 O18 1.986 . S
Zn15 O20 1.996 . S
Zn15 O23 1.943 . S
O16 Zn15 1.962 . S
O16 C21 1.254 . S
O17 Zn14 2.031 . S
O17 C21 1.269 . S
O18 Zn15 1.986 . S
O18 C25 1.262 . S
O19 Zn14 2.049 . S
O19 C27 1.260 . S
O20 Zn15 1.996 . S
O20 C27 1.257 . S
C21 O16 1.254 . S
C21 O17 1.269 . S
C22 O23 1.249 . S
C22 O24 1.270 . S
O23 Zn15 1.943 . S
O23 C22 1.249 . S
O24 Zn14 2.067 . S
O24 C22 1.270 . S
C25 O18 1.262 . S
C25 O26 1.232 . S
O26 C25 1.232 . S
C27 O19 1.260 . S
C27 O20 1.257 . S
Zn28 O31 2.031 . S
Zn28 O33 2.049 . S
Zn28 O38 2.067 . S
Zn29 O30 1.962 . S
Zn29 O32 1.986 . S
Zn29 O34 1.996 . S
Zn29 O37 1.943 . S
O30 Zn29 1.962 . S
O30 C35 1.254 . S
O31 Zn28 2.031 . S
O31 C35 1.269 . S
O32 Zn29 1.986 . S
O32 C39 1.262 . S
O33 Zn28 2.049 . S
O33 C41 1.260 . S
O34 Zn29 1.996 . S
O34 C41 1.257 . S
C35 O30 1.254 . S
C35 O31 1.269 . S
C36 O37 1.249 . S
C36 O38 1.270 . S
O37 Zn29 1.943 . S
O37 C36 1.249 . S
O38 Zn28 2.067 . S
O38 C36 1.270 . S
C39 O32 1.262 . S
C39 O40 1.232 . S
O40 C39 1.232 . S
C41 O33 1.260 . S
C41 O34 1.257 . S
Zn42 O45 2.031 . S
Zn42 O47 2.049 . S
Zn42 O52 2.067 . S
Zn43 O44 1.962 . S
Zn43 O46 1.986 . S
Zn43 O48 1.996 . S
Zn43 O51 1.943 . S
O44 Zn43 1.962 . S
O44 C49 1.254 . S
O45 Zn42 2.031 . S
O45 C49 1.269 . S
O46 Zn43 1.986 . S
O46 C53 1.262 . S
O47 Zn42 2.049 . S
O47 C55 1.260 . S
O48 Zn43 1.996 . S
O48 C55 1.257 . S
C49 O44 1.254 . S
C49 O45 1.269 . S
C50 O51 1.249 . S
C50 O52 1.270 . S
O51 Zn43 1.943 . S
O51 C50 1.249 . S
O52 Zn42 2.067 . S
O52 C50 1.270 . S
C53 O46 1.262 . S
C53 O54 1.232 . S
O54 C53 1.232 . S
C55 O47 1.260 . S
C55 O48 1.257 . S
Zn56 O59 2.031 . S
Zn56 O61 2.049 . S
Zn56 O66 2.067 . S
Zn57 O58 1.962 . S
Zn57 O60 1.986 . S
Zn57 O62 1.996 . S
Zn57 O65 1.943 . S
O58 Zn57 1.962 . S
O58 C63 1.254 . S
O59 Zn56 2.031 . S
O59 C63 1.269 . S
O60 Zn57 1.986 . S
O60 C67 1.262 . S
O61 Zn56 2.049 . S
O61 C69 1.260 . S
O62 Zn57 1.996 . S
O62 C69 1.257 . S
C63 O58 1.254 . S
C63 O59 1.269 . S
C64 O65 1.249 . S
C64 O66 1.270 . S
O65 Zn57 1.943 . S
O65 C64 1.249 . S
O66 Zn56 2.067 . S
O66 C64 1.270 . S
C67 O60 1.262 . S
C67 O68 1.232 . S
O68 C67 1.232 . S
C69 O61 1.260 . S
C69 O62 1.257 . S
Zn70 O73 2.031 . S
Zn70 O75 2.049 . S
Zn70 O80 2.067 . S
Zn71 O72 1.962 . S
Zn71 O74 1.986 . S
Zn71 O76 1.996 . S
Zn71 O79 1.943 . S
O72 Zn71 1.962 . S
O72 C77 1.254 . S
O73 Zn70 2.031 . S
O73 C77 1.269 . S
O74 Zn71 1.986 . S
O74 C81 1.262 . S
O75 Zn70 2.049 . S
O75 C83 1.260 . S
O76 Zn71 1.996 . S
O76 C83 1.257 . S
C77 O72 1.254 . S
C77 O73 1.269 . S
C78 O79 1.249 . S
C78 O80 1.270 . S
O79 Zn71 1.943 . S
O79 C78 1.249 . S
O80 Zn70 2.067 . S
O80 C78 1.270 . S
C81 O74 1.262 . S
C81 O82 1.232 . S
O82 C81 1.232 . S
C83 O75 1.260 . S
C83 O76 1.257 . S
Zn84 O87 2.031 . S
Zn84 O89 2.049 . S
Zn84 O94 2.067 . S
Zn85 O86 1.962 . S
Zn85 O88 1.986 . S
Zn85 O90 1.996 . S
Zn85 O93 1.943 . S
O86 Zn85 1.962 . S
O86 C91 1.254 . S
O87 Zn84 2.031 . S
O87 C91 1.269 . S
O88 Zn85 1.986 . S
O88 C95 1.262 . S
O89 Zn84 2.049 . S
O89 C97 1.260 . S
O90 Zn85 1.996 . S
O90 C97 1.257 . S
C91 O86 1.254 . S
C91 O87 1.269 . S
C92 O93 1.249 . S
C92 O94 1.270 . S
O93 Zn85 1.943 . S
O93 C92 1.249 . S
O94 Zn84 2.067 . S
O94 C92 1.270 . S
C95 O88 1.262 . S
C95 O96 1.232 . S
O96 C95 1.232 . S
C97 O89 1.260 . S
C97 O90 1.257 . S
Zn98 O101 2.031 . S
Zn98 O103 2.049 . S
Zn98 O108 2.067 1_554 S
Zn99 O100 1.962 . S
Zn99 O102 1.986 . S
Zn99 O104 1.996 . S
Zn99 O107 1.943 . S
O100 Zn99 1.962 . S
O100 C105 1.254 . S
O101 Zn98 2.031 . S
O101 C105 1.269 . S
O102 Zn99 1.986 . S
O102 C109 1.262 . S
O103 Zn98 2.049 . S
O103 C111 1.260 . S
O104 Zn99 1.996 . S
O104 C111 1.257 . S
C105 O100 1.254 . S
C105 O101 1.269 . S
C106 O107 1.249 1_556 S
C106 O108 1.270 . S
O107 Zn99 1.943 . S
O107 C106 1.249 1_554 S
O108 Zn98 2.067 1_556 S
O108 C106 1.270 . S
C109 O102 1.262 . S
C109 O110 1.232 . S
O110 C109 1.232 . S
C111 O103 1.260 . S
C111 O104 1.257 . S
Zn112 O115 2.031 . S
Zn112 O117 2.049 . S
Zn112 O122 2.067 . S
Zn113 O114 1.962 . S
Zn113 O116 1.986 . S
Zn113 O118 1.996 . S
Zn113 O121 1.943 . S
O114 Zn113 1.962 . S
O114 C119 1.254 . S
O115 Zn112 2.031 . S
O115 C119 1.269 . S
O116 Zn113 1.986 . S
O116 C123 1.262 . S
O117 Zn112 2.049 . S
O117 C125 1.260 . S
O118 Zn113 1.996 . S
O118 C125 1.257 . S
C119 O114 1.254 . S
C119 O115 1.269 . S
C120 O121 1.249 . S
C120 O122 1.270 . S
O121 Zn113 1.943 . S
O121 C120 1.249 . S
O122 Zn112 2.067 . S
O122 C120 1.270 . S
C123 O116 1.262 . S
C123 O124 1.232 . S
O124 C123 1.232 . S
C125 O117 1.260 . S
C125 O118 1.257 . S
Zn126 O129 2.031 . S
Zn126 O131 2.049 . S
Zn126 O136 2.067 . S
Zn127 O128 1.962 . S
Zn127 O130 1.986 . S
Zn127 O132 1.996 . S
Zn127 O135 1.943 . S
O128 Zn127 1.962 . S
O128 C133 1.254 . S
O129 Zn126 2.031 . S
O129 C133 1.269 . S
O130 Zn127 1.986 . S
O130 C137 1.262 . S
O131 Zn126 2.049 . S
O131 C139 1.260 . S
O132 Zn127 1.996 . S
O132 C139 1.257 . S
C133 O128 1.254 . S
C133 O129 1.269 . S
C134 O135 1.249 . S
C134 O136 1.270 . S
O135 Zn127 1.943 . S
O135 C134 1.249 . S
O136 Zn126 2.067 . S
O136 C134 1.270 . S
C137 O130 1.262 . S
C137 O138 1.232 . S
O138 C137 1.232 . S
C139 O131 1.260 . S
C139 O132 1.257 . S
Zn140 O143 2.031 . S
Zn140 O145 2.049 . S
Zn140 O150 2.067 . S
Zn141 O142 1.962 . S
Zn141 O144 1.986 . S
Zn141 O146 1.996 . S
Zn141 O149 1.943 . S
O142 Zn141 1.962 . S
O142 C147 1.254 . S
O143 Zn140 2.031 . S
O143 C147 1.269 . S
O144 Zn141 1.986 . S
O144 C151 1.262 . S
O145 Zn140 2.049 . S
O145 C153 1.260 . S
O146 Zn141 1.996 . S
O146 C153 1.257 . S
C147 O142 1.254 . S
C147 O143 1.269 . S
C148 O149 1.249 . S
C148 O150 1.270 . S
O149 Zn141 1.943 . S
O149 C148 1.249 . S
O150 Zn140 2.067 . S
O150 C148 1.270 . S
C151 O144 1.262 . S
C151 O152 1.232 . S
O152 C151 1.232 . S
C153 O145 1.260 . S
C153 O146 1.257 . S
Zn154 O157 2.031 . S
Zn154 O159 2.049 . S
Zn154 O164 2.067 . S
Zn155 O156 1.962 . S
Zn155 O158 1.986 . S
Zn155 O160 1.996 . S
Zn155 O163 1.943 . S
O156 Zn155 1.962 . S
O156 C161 1.254 . S
O157 Zn154 2.031 . S
O157 C161 1.269 . S
O158 Zn155 1.986 . S
O158 C165 1.262 . S
O159 Zn154 2.049 . S
O159 C167 1.260 . S
O160 Zn155 1.996 . S
O160 C167 1.257 . S
C161 O156 1.254 . S
C161 O157 1.269 . S
C162 O163 1.249 . S
C162 O164 1.270 . S
O163 Zn155 1.943 . S
O163 C162 1.249 . S
O164 Zn154 2.067 . S
O164 C162 1.270 . S
C165 O158 1.262 . S
C165 O166 1.232 . S
O166 C165 1.232 . S
C167 O159 1.260 . S
C167 O160 1.257 . S
H168 C186 0.951 . S
H169 C188 0.951 . S
H170 C190 0.950 . S
H171 C191 0.950 . S
H172 C193 0.950 . S
H173 C196 0.950 . S
H174 C197 0.950 . S
H175 C199 0.950 . S
H176 C200 0.950 . S
H177 C201 0.951 . S
H178 C203 0.951 . S
H179 C205 0.950 . S
H180 C206 0.950 . S
H181 C208 0.950 . S
H182 C211 0.950 . S
H183 C212 0.950 . S
H184 C214 0.950 . S
H185 C215 0.950 . S
C186 H168 0.951 . S
C186 C187 1.366 . S
C186 C188 1.388 . S
C187 C186 1.366 . S
C187 C191 1.385 . S
C188 H169 0.951 . S
C188 C186 1.388 . S
C188 C189 1.366 . S
C189 C188 1.366 . S
C189 C190 1.414 . S
C189 C192 1.499 . S
C190 H170 0.950 . S
C190 C189 1.414 . S
C190 C191 1.374 . S
C191 H171 0.950 . S
C191 C187 1.385 . S
C191 C190 1.374 . S
C192 C189 1.499 . S
C192 C193 1.373 . S
C192 C194 1.389 . S
C193 H172 0.950 . S
C193 C192 1.373 . S
C193 C209 1.377 . S
C194 C192 1.389 . S
C194 C195 1.524 . S
C194 C208 1.377 . S
C195 C194 1.524 . S
C195 C196 1.397 . S
C195 C200 1.363 . S
C196 H173 0.950 . S
C196 C195 1.397 . S
C196 C197 1.334 . S
C197 H174 0.950 . S
C197 C196 1.334 . S
C197 C198 1.287 . S
C198 C197 1.287 . S
C198 C199 1.524 . S
C198 H217 0.913 . S
C199 H175 0.950 . S
C199 C198 1.524 . S
C199 C200 1.415 . S
C200 H176 0.950 . S
C200 C195 1.363 . S
C200 C199 1.415 . S
C201 H177 0.951 . S
C201 C202 1.366 . S
C201 C203 1.388 . S
C202 C201 1.366 . S
C202 C206 1.385 . S
C203 H178 0.951 . S
C203 C201 1.388 . S
C203 C204 1.366 . S
C204 C203 1.366 . S
C204 C205 1.414 . S
C204 C207 1.499 . S
C205 H179 0.950 . S
C205 C204 1.414 . S
C205 C206 1.374 . S
C206 H180 0.950 . S
C206 C202 1.385 . S
C206 C205 1.374 . S
C207 C204 1.499 . S
C207 C208 1.373 . S
C207 C209 1.389 . S
C208 H181 0.950 . S
C208 C194 1.377 . S
C208 C207 1.373 . S
C209 C193 1.377 . S
C209 C207 1.389 . S
C209 C210 1.524 . S
C210 C209 1.524 . S
C210 C211 1.397 . S
C210 C215 1.363 . S
C211 H182 0.950 . S
C211 C210 1.397 . S
C211 C212 1.334 . S
C212 H183 0.950 . S
C212 C211 1.334 . S
C212 C213 1.287 . S
C213 C212 1.287 . S
C213 C214 1.524 . S
C213 H216 0.999 . S
C214 H184 0.950 . S
C214 C213 1.524 . S
C214 C215 1.415 . S
C215 H185 0.950 . S
C215 C210 1.363 . S
C215 C214 1.415 . S
H216 C213 0.999 . S
H217 C198 0.913 . S
H218 C236 0.951 . S
H219 C238 0.951 . S
H220 C240 0.950 . S
H221 C241 0.950 . S
H222 C243 0.950 . S
H223 C246 0.950 . S
H224 C247 0.950 . S
H225 C249 0.950 . S
H226 C250 0.950 . S
H227 C251 0.951 . S
H228 C253 0.951 . S
H229 C255 0.950 . S
H230 C256 0.950 . S
H231 C258 0.950 . S
H232 C261 0.950 . S
H233 C262 0.950 . S
H234 C264 0.950 . S
H235 C265 0.950 . S
C236 H218 0.951 . S
C236 C237 1.366 . S
C236 C238 1.388 . S
C237 C236 1.366 . S
C237 C241 1.385 . S
C238 H219 0.951 . S
C238 C236 1.388 . S
C238 C239 1.366 . S
C239 C238 1.366 . S
C239 C240 1.414 . S
C239 C242 1.499 . S
C240 H220 0.950 . S
C240 C239 1.414 . S
C240 C241 1.374 . S
C241 H221 0.950 . S
C241 C237 1.385 . S
C241 C240 1.374 . S
C242 C239 1.499 . S
C242 C243 1.373 . S
C242 C244 1.389 . S
C243 H222 0.950 . S
C243 C242 1.373 . S
C243 C259 1.377 . S
C244 C242 1.389 . S
C244 C245 1.524 . S
C244 C258 1.377 . S
C245 C244 1.524 . S
C245 C246 1.397 . S
C245 C250 1.363 . S
C246 H223 0.950 . S
C246 C245 1.397 . S
C246 C247 1.334 . S
C247 H224 0.950 . S
C247 C246 1.334 . S
C247 C248 1.287 . S
C248 C247 1.287 . S
C248 C249 1.524 . S
C248 H267 0.913 . S
C249 H225 0.950 . S
C249 C248 1.524 . S
C249 C250 1.415 . S
C250 H226 0.950 . S
C250 C245 1.363 . S
C250 C249 1.415 . S
C251 H227 0.951 . S
C251 C252 1.366 . S
C251 C253 1.388 . S
C252 C251 1.366 . S
C252 C256 1.385 . S
C253 H228 0.951 . S
C253 C251 1.388 . S
C253 C254 1.366 . S
C254 C253 1.366 . S
C254 C255 1.414 . S
C254 C257 1.499 . S
C255 H229 0.950 . S
C255 C254 1.414 . S
C255 C256 1.374 . S
C256 H230 0.950 . S
C256 C252 1.385 . S
C256 C255 1.374 . S
C257 C254 1.499 . S
C257 C258 1.373 . S
C257 C259 1.389 . S
C258 H231 0.950 . S
C258 C244 1.377 . S
C258 C257 1.373 . S
C259 C243 1.377 . S
C259 C257 1.389 . S
C259 C260 1.524 . S
C260 C259 1.524 . S
C260 C261 1.397 . S
C260 C265 1.363 . S
C261 H232 0.950 . S
C261 C260 1.397 . S
C261 C262 1.334 . S
C262 H233 0.950 . S
C262 C261 1.334 . S
C262 C263 1.287 . S
C263 C262 1.287 . S
C263 C264 1.524 . S
C263 H266 0.999 . S
C264 H234 0.950 . S
C264 C263 1.524 . S
C264 C265 1.415 . S
C265 H235 0.950 . S
C265 C260 1.363 . S
C265 C264 1.415 . S
H266 C263 0.999 . S
H267 C248 0.913 . S
H268 C286 0.951 . S
H269 C288 0.951 . S
H270 C290 0.950 . S
H271 C291 0.950 . S
H272 C293 0.950 . S
H273 C296 0.950 . S
H274 C297 0.950 . S
H275 C299 0.950 . S
H276 C300 0.950 . S
H277 C301 0.951 . S
H278 C303 0.951 . S
H279 C305 0.950 . S
H280 C306 0.950 . S
H281 C308 0.950 . S
H282 C311 0.950 . S
H283 C312 0.950 . S
H284 C314 0.950 . S
H285 C315 0.950 . S
C286 H268 0.951 . S
C286 C287 1.366 . S
C286 C288 1.388 . S
C287 C286 1.366 . S
C287 C291 1.385 . S
C288 H269 0.951 . S
C288 C286 1.388 . S
C288 C289 1.366 . S
C289 C288 1.366 . S
C289 C290 1.414 . S
C289 C292 1.499 . S
C290 H270 0.950 . S
C290 C289 1.414 . S
C290 C291 1.374 . S
C291 H271 0.950 . S
C291 C287 1.385 . S
C291 C290 1.374 . S
C292 C289 1.499 . S
C292 C293 1.373 . S
C292 C294 1.389 . S
C293 H272 0.950 . S
C293 C292 1.373 . S
C293 C309 1.377 . S
C294 C292 1.389 . S
C294 C295 1.524 . S
C294 C308 1.377 . S
C295 C294 1.524 . S
C295 C296 1.397 . S
C295 C300 1.363 . S
C296 H273 0.950 . S
C296 C295 1.397 . S
C296 C297 1.334 . S
C297 H274 0.950 . S
C297 C296 1.334 . S
C297 C298 1.287 . S
C298 C297 1.287 . S
C298 C299 1.524 . S
C298 H317 0.913 . S
C299 H275 0.950 . S
C299 C298 1.524 . S
C299 C300 1.415 . S
C300 H276 0.950 . S
C300 C295 1.363 . S
C300 C299 1.415 . S
C301 H277 0.951 . S
C301 C302 1.366 . S
C301 C303 1.388 . S
C302 C301 1.366 . S
C302 C306 1.385 . S
C303 H278 0.951 . S
C303 C301 1.388 . S
C303 C304 1.366 . S
C304 C303 1.366 . S
C304 C305 1.414 . S
C304 C307 1.499 . S
C305 H279 0.950 . S
C305 C304 1.414 . S
C305 C306 1.374 . S
C306 H280 0.950 . S
C306 C302 1.385 . S
C306 C305 1.374 . S
C307 C304 1.499 . S
C307 C308 1.373 . S
C307 C309 1.389 . S
C308 H281 0.950 . S
C308 C294 1.377 . S
C308 C307 1.373 . S
C309 C293 1.377 . S
C309 C307 1.389 . S
C309 C310 1.524 . S
C310 C309 1.524 . S
C310 C311 1.397 . S
C310 C315 1.363 . S
C311 H282 0.950 . S
C311 C310 1.397 . S
C311 C312 1.334 . S
C312 H283 0.950 . S
C312 C311 1.334 . S
C312 C313 1.287 . S
C313 C312 1.287 . S
C313 C314 1.524 . S
C313 H316 0.999 . S
C314 H284 0.950 . S
C314 C313 1.524 . S
C314 C315 1.415 . S
C315 H285 0.950 . S
C315 C310 1.363 . S
C315 C314 1.415 . S
H316 C313 0.999 . S
H317 C298 0.913 . S
H318 C336 0.951 . S
H319 C338 0.951 . S
H320 C340 0.950 . S
H321 C341 0.950 . S
H322 C343 0.950 . S
H323 C346 0.950 . S
H324 C347 0.950 . S
H325 C349 0.950 . S
H326 C350 0.950 . S
H327 C351 0.951 . S
H328 C353 0.951 . S
H329 C355 0.950 . S
H330 C356 0.950 . S
H331 C358 0.950 . S
H332 C361 0.950 . S
H333 C362 0.950 . S
H334 C364 0.950 . S
H335 C365 0.950 . S
C336 H318 0.951 . S
C336 C337 1.366 . S
C336 C338 1.388 . S
C337 C336 1.366 . S
C337 C341 1.385 . S
C338 H319 0.951 . S
C338 C336 1.388 . S
C338 C339 1.366 . S
C339 C338 1.366 . S
C339 C340 1.414 . S
C339 C342 1.499 . S
C340 H320 0.950 . S
C340 C339 1.414 . S
C340 C341 1.374 . S
C341 H321 0.950 . S
C341 C337 1.385 . S
C341 C340 1.374 . S
C342 C339 1.499 . S
C342 C343 1.373 . S
C342 C344 1.389 . S
C343 H322 0.950 . S
C343 C342 1.373 . S
C343 C359 1.377 . S
C344 C342 1.389 . S
C344 C345 1.524 . S
C344 C358 1.377 . S
C345 C344 1.524 . S
C345 C346 1.397 . S
C345 C350 1.363 . S
C346 H323 0.950 . S
C346 C345 1.397 . S
C346 C347 1.334 . S
C347 H324 0.950 . S
C347 C346 1.334 . S
C347 C348 1.287 . S
C348 C347 1.287 . S
C348 C349 1.524 . S
C348 H367 0.913 . S
C349 H325 0.950 . S
C349 C348 1.524 . S
C349 C350 1.415 . S
C350 H326 0.950 . S
C350 C345 1.363 . S
C350 C349 1.415 . S
C351 H327 0.951 . S
C351 C352 1.366 . S
C351 C353 1.388 . S
C352 C351 1.366 . S
C352 C356 1.385 . S
C353 H328 0.951 . S
C353 C351 1.388 . S
C353 C354 1.366 . S
C354 C353 1.366 . S
C354 C355 1.414 . S
C354 C357 1.499 . S
C355 H329 0.950 . S
C355 C354 1.414 . S
C355 C356 1.374 . S
C356 H330 0.950 . S
C356 C352 1.385 . S
C356 C355 1.374 . S
C357 C354 1.499 . S
C357 C358 1.373 . S
C357 C359 1.389 . S
C358 H331 0.950 . S
C358 C344 1.377 . S
C358 C357 1.373 . S
C359 C343 1.377 . S
C359 C357 1.389 . S
C359 C360 1.524 . S
C360 C359 1.524 . S
C360 C361 1.397 . S
C360 C365 1.363 . S
C361 H332 0.950 . S
C361 C360 1.397 . S
C361 C362 1.334 . S
C362 H333 0.950 . S
C362 C361 1.334 . S
C362 C363 1.287 . S
C363 C362 1.287 . S
C363 C364 1.524 . S
C363 H366 0.999 . S
C364 H334 0.950 . S
C364 C363 1.524 . S
C364 C365 1.415 . S
C365 H335 0.950 . S
C365 C360 1.363 . S
C365 C364 1.415 . S
H366 C363 0.999 . S
H367 C348 0.913 . S
H368 C386 0.951 . S
H369 C388 0.951 . S
H370 C390 0.950 . S
H371 C391 0.950 . S
H372 C393 0.950 . S
H373 C396 0.950 . S
H374 C397 0.950 . S
H375 C399 0.950 . S
H376 C400 0.950 . S
H377 C401 0.951 . S
H378 C403 0.951 . S
H379 C405 0.950 1_556 S
H380 C406 0.950 . S
H381 C408 0.950 . S
H382 C411 0.950 . S
H383 C412 0.950 . S
H384 C414 0.950 . S
H385 C415 0.950 . S
C386 H368 0.951 . S
C386 C387 1.366 . S
C386 C388 1.388 . S
C387 C386 1.366 . S
C387 C391 1.385 . S
C388 H369 0.951 . S
C388 C386 1.388 . S
C388 C389 1.366 . S
C389 C388 1.366 . S
C389 C390 1.414 . S
C389 C392 1.499 . S
C390 H370 0.950 . S
C390 C389 1.414 . S
C390 C391 1.374 . S
C391 H371 0.950 . S
C391 C387 1.385 . S
C391 C390 1.374 . S
C392 C389 1.499 . S
C392 C393 1.373 . S
C392 C394 1.389 . S
C393 H372 0.950 . S
C393 C392 1.373 . S
C393 C409 1.377 1_556 S
C394 C392 1.389 . S
C394 C395 1.524 . S
C394 C408 1.377 . S
C395 C394 1.524 . S
C395 C396 1.397 . S
C395 C400 1.363 . S
C396 H373 0.950 . S
C396 C395 1.397 . S
C396 C397 1.334 . S
C397 H374 0.950 . S
C397 C396 1.334 . S
C397 C398 1.287 . S
C398 C397 1.287 . S
C398 C399 1.524 . S
C398 H417 0.913 . S
C399 H375 0.950 . S
C399 C398 1.524 . S
C399 C400 1.415 . S
C400 H376 0.950 . S
C400 C395 1.363 . S
C400 C399 1.415 . S
C401 H377 0.951 . S
C401 C402 1.366 . S
C401 C403 1.388 . S
C402 C401 1.366 . S
C402 C406 1.385 . S
C403 H378 0.951 . S
C403 C401 1.388 . S
C403 C404 1.366 . S
C404 C403 1.366 . S
C404 C405 1.414 . S
C404 C407 1.499 1_554 S
C405 H379 0.950 1_554 S
C405 C404 1.414 . S
C405 C406 1.374 . S
C406 H380 0.950 . S
C406 C402 1.385 . S
C406 C405 1.374 . S
C407 C404 1.499 1_556 S
C407 C408 1.373 . S
C407 C409 1.389 1_556 S
C408 H381 0.950 . S
C408 C394 1.377 . S
C408 C407 1.373 . S
C409 C393 1.377 1_554 S
C409 C407 1.389 1_554 S
C409 C410 1.524 . S
C410 C409 1.524 . S
C410 C411 1.397 . S
C410 C415 1.363 . S
C411 H382 0.950 . S
C411 C410 1.397 . S
C411 C412 1.334 . S
C412 H383 0.950 . S
C412 C411 1.334 . S
C412 C413 1.287 . S
C413 C412 1.287 . S
C413 C414 1.524 . S
C413 H416 0.999 . S
C414 H384 0.950 . S
C414 C413 1.524 . S
C414 C415 1.415 . S
C415 H385 0.950 . S
C415 C410 1.363 . S
C415 C414 1.415 . S
H416 C413 0.999 . S
H417 C398 0.913 . S
H418 C436 0.951 . S
H419 C438 0.951 . S
H420 C440 0.950 . S
H421 C441 0.950 . S
H422 C443 0.950 . S
H423 C446 0.950 . S
H424 C447 0.950 . S
H425 C449 0.950 . S
H426 C450 0.950 . S
H427 C451 0.951 . S
H428 C453 0.951 . S
H429 C455 0.950 . S
H430 C456 0.950 . S
H431 C458 0.950 . S
H432 C461 0.950 . S
H433 C462 0.950 . S
H434 C464 0.950 . S
H435 C465 0.950 . S
C436 H418 0.951 . S
C436 C437 1.366 . S
C436 C438 1.388 . S
C437 C436 1.366 . S
C437 C441 1.385 . S
C438 H419 0.951 . S
C438 C436 1.388 . S
C438 C439 1.366 . S
C439 C438 1.366 . S
C439 C440 1.414 . S
C439 C442 1.499 . S
C440 H420 0.950 . S
C440 C439 1.414 . S
C440 C441 1.374 . S
C441 H421 0.950 . S
C441 C437 1.385 . S
C441 C440 1.374 . S
C442 C439 1.499 . S
C442 C443 1.373 . S
C442 C444 1.389 . S
C443 H422 0.950 . S
C443 C442 1.373 . S
C443 C459 1.377 . S
C444 C442 1.389 . S
C444 C445 1.524 . S
C444 C458 1.377 . S
C445 C444 1.524 . S
C445 C446 1.397 . S
C445 C450 1.363 . S
C446 H423 0.950 . S
C446 C445 1.397 . S
C446 C447 1.334 . S
C447 H424 0.950 . S
C447 C446 1.334 . S
C447 C448 1.287 . S
C448 C447 1.287 . S
C448 C449 1.524 . S
C448 H467 0.913 . S
C449 H425 0.950 . S
C449 C448 1.524 . S
C449 C450 1.415 . S
C450 H426 0.950 . S
C450 C445 1.363 . S
C450 C449 1.415 . S
C451 H427 0.951 . S
C451 C452 1.366 . S
C451 C453 1.388 1_556 S
C452 C451 1.366 . S
C452 C456 1.385 1_556 S
C453 H428 0.951 . S
C453 C451 1.388 1_554 S
C453 C454 1.366 . S
C454 C453 1.366 . S
C454 C455 1.414 . S
C454 C457 1.499 . S
C455 H429 0.950 . S
C455 C454 1.414 . S
C455 C456 1.374 . S
C456 H430 0.950 . S
C456 C452 1.385 1_554 S
C456 C455 1.374 . S
C457 C454 1.499 . S
C457 C458 1.373 . S
C457 C459 1.389 . S
C458 H431 0.950 . S
C458 C444 1.377 . S
C458 C457 1.373 . S
C459 C443 1.377 . S
C459 C457 1.389 . S
C459 C460 1.524 . S
C460 C459 1.524 . S
C460 C461 1.397 . S
C460 C465 1.363 . S
C461 H432 0.950 . S
C461 C460 1.397 . S
C461 C462 1.334 . S
C462 H433 0.950 . S
C462 C461 1.334 . S
C462 C463 1.287 . S
C463 C462 1.287 . S
C463 C464 1.524 . S
C463 H466 0.999 . S
C464 H434 0.950 . S
C464 C463 1.524 . S
C464 C465 1.415 . S
C465 H435 0.950 . S
C465 C460 1.363 . S
C465 C464 1.415 . S
H466 C463 0.999 . S
H467 C448 0.913 . S
H468 C486 0.951 . S
H469 C488 0.951 . S
H470 C490 0.950 . S
H471 C491 0.950 . S
H472 C493 0.950 . S
H473 C496 0.950 . S
H474 C497 0.950 . S
H475 C499 0.950 . S
H476 C500 0.950 . S
H477 C501 0.951 . S
H478 C503 0.951 . S
H479 C505 0.950 . S
H480 C506 0.950 . S
H481 C508 0.950 . S
H482 C511 0.950 . S
H483 C512 0.950 . S
H484 C514 0.950 . S
H485 C515 0.950 . S
C486 H468 0.951 . S
C486 C487 1.366 . S
C486 C488 1.388 . S
C487 C486 1.366 . S
C487 C491 1.385 . S
C488 H469 0.951 . S
C488 C486 1.388 . S
C488 C489 1.366 . S
C489 C488 1.366 . S
C489 C490 1.414 . S
C489 C492 1.499 . S
C490 H470 0.950 . S
C490 C489 1.414 . S
C490 C491 1.374 . S
C491 H471 0.950 . S
C491 C487 1.385 . S
C491 C490 1.374 . S
C492 C489 1.499 . S
C492 C493 1.373 . S
C492 C494 1.389 . S
C493 H472 0.950 . S
C493 C492 1.373 . S
C493 C509 1.377 . S
C494 C492 1.389 . S
C494 C495 1.524 . S
C494 C508 1.377 . S
C495 C494 1.524 . S
C495 C496 1.397 . S
C495 C500 1.363 1_554 S
C496 H473 0.950 . S
C496 C495 1.397 . S
C496 C497 1.334 1_554 S
C497 H474 0.950 . S
C497 C496 1.334 1_556 S
C497 C498 1.287 . S
C498 C497 1.287 . S
C498 C499 1.524 . S
C498 H517 0.913 . S
C499 H475 0.950 . S
C499 C498 1.524 . S
C499 C500 1.415 . S
C500 H476 0.950 . S
C500 C495 1.363 1_556 S
C500 C499 1.415 . S
C501 H477 0.951 . S
C501 C502 1.366 . S
C501 C503 1.388 . S
C502 C501 1.366 . S
C502 C506 1.385 . S
C503 H478 0.951 . S
C503 C501 1.388 . S
C503 C504 1.366 . S
C504 C503 1.366 . S
C504 C505 1.414 . S
C504 C507 1.499 . S
C505 H479 0.950 . S
C505 C504 1.414 . S
C505 C506 1.374 . S
C506 H480 0.950 . S
C506 C502 1.385 . S
C506 C505 1.374 . S
C507 C504 1.499 . S
C507 C508 1.373 . S
C507 C509 1.389 . S
C508 H481 0.950 . S
C508 C494 1.377 . S
C508 C507 1.373 . S
C509 C493 1.377 . S
C509 C507 1.389 . S
C509 C510 1.524 . S
C510 C509 1.524 . S
C510 C511 1.397 . S
C510 C515 1.363 . S
C511 H482 0.950 . S
C511 C510 1.397 . S
C511 C512 1.334 . S
C512 H483 0.950 . S
C512 C511 1.334 . S
C512 C513 1.287 . S
C513 C512 1.287 . S
C513 C514 1.524 . S
C513 H516 0.999 . S
C514 H484 0.950 . S
C514 C513 1.524 . S
C514 C515 1.415 . S
C515 H485 0.950 . S
C515 C510 1.363 . S
C515 C514 1.415 . S
H516 C513 0.999 . S
H517 C498 0.913 . S
H518 C536 0.951 . S
H519 C538 0.951 . S
H520 C540 0.950 . S
H521 C541 0.950 . S
H522 C543 0.950 . S
H523 C546 0.950 . S
H524 C547 0.950 . S
H525 C549 0.950 . S
H526 C550 0.950 . S
H527 C551 0.951 . S
H528 C553 0.951 . S
H529 C555 0.950 . S
H530 C556 0.950 . S
H531 C558 0.950 . S
H532 C561 0.950 . S
H533 C562 0.950 . S
H534 C564 0.950 . S
H535 C565 0.950 . S
C536 H518 0.951 . S
C536 C537 1.366 . S
C536 C538 1.388 . S
C537 C536 1.366 . S
C537 C541 1.385 . S
C538 H519 0.951 . S
C538 C536 1.388 . S
C538 C539 1.366 . S
C539 C538 1.366 . S
C539 C540 1.414 . S
C539 C542 1.499 . S
C540 H520 0.950 . S
C540 C539 1.414 . S
C540 C541 1.374 . S
C541 H521 0.950 . S
C541 C537 1.385 . S
C541 C540 1.374 . S
C542 C539 1.499 . S
C542 C543 1.373 . S
C542 C544 1.389 . S
C543 H522 0.950 . S
C543 C542 1.373 . S
C543 C559 1.377 . S
C544 C542 1.389 . S
C544 C545 1.524 . S
C544 C558 1.377 . S
C545 C544 1.524 . S
C545 C546 1.397 . S
C545 C550 1.363 . S
C546 H523 0.950 . S
C546 C545 1.397 . S
C546 C547 1.334 . S
C547 H524 0.950 . S
C547 C546 1.334 . S
C547 C548 1.287 . S
C548 C547 1.287 . S
C548 C549 1.524 . S
C548 H567 0.913 . S
C549 H525 0.950 . S
C549 C548 1.524 . S
C549 C550 1.415 . S
C550 H526 0.950 . S
C550 C545 1.363 . S
C550 C549 1.415 . S
C551 H527 0.951 . S
C551 C552 1.366 . S
C551 C553 1.388 . S
C552 C551 1.366 . S
C552 C556 1.385 . S
C553 H528 0.951 . S
C553 C551 1.388 . S
C553 C554 1.366 . S
C554 C553 1.366 . S
C554 C555 1.414 . S
C554 C557 1.499 . S
C555 H529 0.950 . S
C555 C554 1.414 . S
C555 C556 1.374 . S
C556 H530 0.950 . S
C556 C552 1.385 . S
C556 C555 1.374 . S
C557 C554 1.499 . S
C557 C558 1.373 . S
C557 C559 1.389 . S
C558 H531 0.950 . S
C558 C544 1.377 . S
C558 C557 1.373 . S
C559 C543 1.377 . S
C559 C557 1.389 . S
C559 C560 1.524 . S
C560 C559 1.524 . S
C560 C561 1.397 . S
C560 C565 1.363 . S
C561 H532 0.950 . S
C561 C560 1.397 . S
C561 C562 1.334 . S
C562 H533 0.950 . S
C562 C561 1.334 . S
C562 C563 1.287 . S
C563 C562 1.287 . S
C563 C564 1.524 . S
C563 H566 0.999 . S
C564 H534 0.950 . S
C564 C563 1.524 . S
C564 C565 1.415 . S
C565 H535 0.950 . S
C565 C560 1.363 . S
C565 C564 1.415 . S
H566 C563 0.999 . S
H567 C548 0.913 . S
H568 C586 0.951 . S
H569 C588 0.951 . S
H570 C590 0.950 . S
H571 C591 0.950 . S
H572 C593 0.950 . S
H573 C596 0.950 . S
H574 C597 0.950 . S
H575 C599 0.950 . S
H576 C600 0.950 . S
H577 C601 0.951 . S
H578 C603 0.951 . S
H579 C605 0.950 . S
H580 C606 0.950 . S
H581 C608 0.950 . S
H582 C611 0.950 . S
H583 C612 0.950 . S
H584 C614 0.950 . S
H585 C615 0.950 . S
C586 H568 0.951 . S
C586 C587 1.366 . S
C586 C588 1.388 . S
C587 C586 1.366 . S
C587 C591 1.385 . S
C588 H569 0.951 . S
C588 C586 1.388 . S
C588 C589 1.366 . S
C589 C588 1.366 . S
C589 C590 1.414 . S
C589 C592 1.499 . S
C590 H570 0.950 . S
C590 C589 1.414 . S
C590 C591 1.374 . S
C591 H571 0.950 . S
C591 C587 1.385 . S
C591 C590 1.374 . S
C592 C589 1.499 . S
C592 C593 1.373 . S
C592 C594 1.389 . S
C593 H572 0.950 . S
C593 C592 1.373 . S
C593 C609 1.377 . S
C594 C592 1.389 . S
C594 C595 1.524 . S
C594 C608 1.377 . S
C595 C594 1.524 . S
C595 C596 1.397 . S
C595 C600 1.363 . S
C596 H573 0.950 . S
C596 C595 1.397 . S
C596 C597 1.334 . S
C597 H574 0.950 . S
C597 C596 1.334 . S
C597 C598 1.287 . S
C598 C597 1.287 . S
C598 C599 1.524 . S
C598 H617 0.913 . S
C599 H575 0.950 . S
C599 C598 1.524 . S
C599 C600 1.415 . S
C600 H576 0.950 . S
C600 C595 1.363 . S
C600 C599 1.415 . S
C601 H577 0.951 . S
C601 C602 1.366 . S
C601 C603 1.388 . S
C602 C601 1.366 . S
C602 C606 1.385 . S
C603 H578 0.951 . S
C603 C601 1.388 . S
C603 C604 1.366 . S
C604 C603 1.366 . S
C604 C605 1.414 . S
C604 C607 1.499 . S
C605 H579 0.950 . S
C605 C604 1.414 . S
C605 C606 1.374 . S
C606 H580 0.950 . S
C606 C602 1.385 . S
C606 C605 1.374 . S
C607 C604 1.499 . S
C607 C608 1.373 . S
C607 C609 1.389 . S
C608 H581 0.950 . S
C608 C594 1.377 . S
C608 C607 1.373 . S
C609 C593 1.377 . S
C609 C607 1.389 . S
C609 C610 1.524 . S
C610 C609 1.524 . S
C610 C611 1.397 . S
C610 C615 1.363 . S
C611 H582 0.950 . S
C611 C610 1.397 . S
C611 C612 1.334 . S
C612 H583 0.950 . S
C612 C611 1.334 . S
C612 C613 1.287 . S
C613 C612 1.287 . S
C613 C614 1.524 . S
C613 H616 0.999 . S
C614 H584 0.950 . S
C614 C613 1.524 . S
C614 C615 1.415 . S
C615 H585 0.950 . S
C615 C610 1.363 . S
C615 C614 1.415 . S
H616 C613 0.999 . S
H617 C598 0.913 . S
H618 C636 0.951 . S
H619 C638 0.951 . S
H620 C640 0.950 . S
H621 C641 0.950 . S
H622 C643 0.950 . S
H623 C646 0.950 . S
H624 C647 0.950 . S
H625 C649 0.950 . S
H626 C650 0.950 . S
H627 C651 0.951 . S
H628 C653 0.951 . S
H629 C655 0.950 . S
H630 C656 0.950 . S
H631 C658 0.950 . S
H632 C661 0.950 . S
H633 C662 0.950 . S
H634 C664 0.950 . S
H635 C665 0.950 . S
C636 H618 0.951 . S
C636 C637 1.366 . S
C636 C638 1.388 . S
C637 C636 1.366 . S
C637 C641 1.385 . S
C638 H619 0.951 . S
C638 C636 1.388 . S
C638 C639 1.366 . S
C639 C638 1.366 . S
C639 C640 1.414 . S
C639 C642 1.499 . S
C640 H620 0.950 . S
C640 C639 1.414 . S
C640 C641 1.374 . S
C641 H621 0.950 . S
C641 C637 1.385 . S
C641 C640 1.374 . S
C642 C639 1.499 . S
C642 C643 1.373 . S
C642 C644 1.389 . S
C643 H622 0.950 . S
C643 C642 1.373 . S
C643 C659 1.377 . S
C644 C642 1.389 . S
C644 C645 1.524 . S
C644 C658 1.377 . S
C645 C644 1.524 . S
C645 C646 1.397 . S
C645 C650 1.363 . S
C646 H623 0.950 . S
C646 C645 1.397 . S
C646 C647 1.334 . S
C647 H624 0.950 . S
C647 C646 1.334 . S
C647 C648 1.287 . S
C648 C647 1.287 . S
C648 C649 1.524 . S
C648 H667 0.913 . S
C649 H625 0.950 . S
C649 C648 1.524 . S
C649 C650 1.415 . S
C650 H626 0.950 . S
C650 C645 1.363 . S
C650 C649 1.415 . S
C651 H627 0.951 . S
C651 C652 1.366 . S
C651 C653 1.388 . S
C652 C651 1.366 . S
C652 C656 1.385 . S
C653 H628 0.951 . S
C653 C651 1.388 . S
C653 C654 1.366 . S
C654 C653 1.366 . S
C654 C655 1.414 . S
C654 C657 1.499 . S
C655 H629 0.950 . S
C655 C654 1.414 . S
C655 C656 1.374 . S
C656 H630 0.950 . S
C656 C652 1.385 . S
C656 C655 1.374 . S
C657 C654 1.499 . S
C657 C658 1.373 . S
C657 C659 1.389 . S
C658 H631 0.950 . S
C658 C644 1.377 . S
C658 C657 1.373 . S
C659 C643 1.377 . S
C659 C657 1.389 . S
C659 C660 1.524 . S
C660 C659 1.524 . S
C660 C661 1.397 . S
C660 C665 1.363 . S
C661 H632 0.950 . S
C661 C660 1.397 . S
C661 C662 1.334 . S
C662 H633 0.950 . S
C662 C661 1.334 . S
C662 C663 1.287 . S
C663 C662 1.287 . S
C663 C664 1.524 . S
C663 H666 0.999 . S
C664 H634 0.950 . S
C664 C663 1.524 . S
C664 C665 1.415 . S
C665 H635 0.950 . S
C665 C660 1.363 . S
C665 C664 1.415 . S
H666 C663 0.999 . S
H667 C648 0.913 . S
H668 C686 0.951 . S
H669 C688 0.951 . S
H670 C690 0.950 . S
H671 C691 0.950 . S
H672 C693 0.950 . S
H673 C696 0.950 . S
H674 C697 0.950 . S
H675 C699 0.950 . S
H676 C700 0.950 . S
H677 C701 0.951 . S
H678 C703 0.951 . S
H679 C705 0.950 . S
H680 C706 0.950 . S
H681 C708 0.950 . S
H682 C711 0.950 . S
H683 C712 0.950 . S
H684 C714 0.950 . S
H685 C715 0.950 . S
C686 H668 0.951 . S
C686 C687 1.366 . S
C686 C688 1.388 . S
C687 C686 1.366 . S
C687 C691 1.385 . S
C688 H669 0.951 . S
C688 C686 1.388 . S
C688 C689 1.366 . S
C689 C688 1.366 . S
C689 C690 1.414 . S
C689 C692 1.499 . S
C690 H670 0.950 . S
C690 C689 1.414 . S
C690 C691 1.374 . S
C691 H671 0.950 . S
C691 C687 1.385 . S
C691 C690 1.374 . S
C692 C689 1.499 . S
C692 C693 1.373 . S
C692 C694 1.389 . S
C693 H672 0.950 . S
C693 C692 1.373 . S
C693 C709 1.377 . S
C694 C692 1.389 . S
C694 C695 1.524 . S
C694 C708 1.377 . S
C695 C694 1.524 . S
C695 C696 1.397 . S
C695 C700 1.363 . S
C696 H673 0.950 . S
C696 C695 1.397 . S
C696 C697 1.334 . S
C697 H674 0.950 . S
C697 C696 1.334 . S
C697 C698 1.287 . S
C698 C697 1.287 . S
C698 C699 1.524 . S
C698 H717 0.913 . S
C699 H675 0.950 . S
C699 C698 1.524 . S
C699 C700 1.415 . S
C700 H676 0.950 . S
C700 C695 1.363 . S
C700 C699 1.415 . S
C701 H677 0.951 . S
C701 C702 1.366 . S
C701 C703 1.388 . S
C702 C701 1.366 . S
C702 C706 1.385 . S
C703 H678 0.951 . S
C703 C701 1.388 . S
C703 C704 1.366 . S
C704 C703 1.366 . S
C704 C705 1.414 . S
C704 C707 1.499 . S
C705 H679 0.950 . S
C705 C704 1.414 . S
C705 C706 1.374 . S
C706 H680 0.950 . S
C706 C702 1.385 . S
C706 C705 1.374 . S
C707 C704 1.499 . S
C707 C708 1.373 . S
C707 C709 1.389 . S
C708 H681 0.950 . S
C708 C694 1.377 . S
C708 C707 1.373 . S
C709 C693 1.377 . S
C709 C707 1.389 . S
C709 C710 1.524 . S
C710 C709 1.524 . S
C710 C711 1.397 . S
C710 C715 1.363 . S
C711 H682 0.950 . S
C711 C710 1.397 . S
C711 C712 1.334 . S
C712 H683 0.950 . S
C712 C711 1.334 . S
C712 C713 1.287 . S
C713 C712 1.287 . S
C713 C714 1.524 . S
C713 H716 0.999 . S
C714 H684 0.950 . S
C714 C713 1.524 . S
C714 C715 1.415 . S
C715 H685 0.950 . S
C715 C710 1.363 . S
C715 C714 1.415 . S
H716 C713 0.999 . S
H717 C698 0.913 . S
H718 C736 0.951 . S
H719 C738 0.951 . S
H720 C740 0.950 . S
H721 C741 0.950 . S
H722 C743 0.950 1_554 S
H723 C746 0.950 . S
H724 C747 0.950 . S
H725 C749 0.950 . S
H726 C750 0.950 . S
H727 C751 0.951 . S
H728 C753 0.951 . S
H729 C755 0.950 . S
H730 C756 0.950 . S
H731 C758 0.950 . S
H732 C761 0.950 . S
H733 C762 0.950 . S
H734 C764 0.950 . S
H735 C765 0.950 . S
C736 H718 0.951 . S
C736 C737 1.366 . S
C736 C738 1.388 . S
C737 C736 1.366 . S
C737 C741 1.385 . S
C738 H719 0.951 . S
C738 C736 1.388 . S
C738 C739 1.366 . S
C739 C738 1.366 . S
C739 C740 1.414 . S
C739 C742 1.499 . S
C740 H720 0.950 . S
C740 C739 1.414 . S
C740 C741 1.374 . S
C741 H721 0.950 . S
C741 C737 1.385 . S
C741 C740 1.374 . S
C742 C739 1.499 . S
C742 C743 1.373 . S
C742 C744 1.389 . S
C743 H722 0.950 1_556 S
C743 C742 1.373 . S
C743 C759 1.377 1_556 S
C744 C742 1.389 . S
C744 C745 1.524 . S
C744 C758 1.377 . S
C745 C744 1.524 . S
C745 C746 1.397 . S
C745 C750 1.363 . S
C746 H723 0.950 . S
C746 C745 1.397 . S
C746 C747 1.334 . S
C747 H724 0.950 . S
C747 C746 1.334 . S
C747 C748 1.287 . S
C748 C747 1.287 . S
C748 C749 1.524 . S
C748 H767 0.913 . S
C749 H725 0.950 . S
C749 C748 1.524 . S
C749 C750 1.415 . S
C750 H726 0.950 . S
C750 C745 1.363 . S
C750 C749 1.415 . S
C751 H727 0.951 . S
C751 C752 1.366 . S
C751 C753 1.388 . S
C752 C751 1.366 . S
C752 C756 1.385 1_554 S
C753 H728 0.951 . S
C753 C751 1.388 . S
C753 C754 1.366 1_554 S
C754 C753 1.366 1_556 S
C754 C755 1.414 . S
C754 C757 1.499 . S
C755 H729 0.950 . S
C755 C754 1.414 . S
C755 C756 1.374 . S
C756 H730 0.950 . S
C756 C752 1.385 1_556 S
C756 C755 1.374 . S
C757 C754 1.499 . S
C757 C758 1.373 . S
C757 C759 1.389 1_556 S
C758 H731 0.950 . S
C758 C744 1.377 . S
C758 C757 1.373 . S
C759 C743 1.377 1_554 S
C759 C757 1.389 1_554 S
C759 C760 1.524 . S
C760 C759 1.524 . S
C760 C761 1.397 . S
C760 C765 1.363 . S
C761 H732 0.950 . S
C761 C760 1.397 . S
C761 C762 1.334 . S
C762 H733 0.950 . S
C762 C761 1.334 . S
C762 C763 1.287 . S
C763 C762 1.287 . S
C763 C764 1.524 . S
C763 H766 0.999 . S
C764 H734 0.950 . S
C764 C763 1.524 . S
C764 C765 1.415 . S
C765 H735 0.950 . S
C765 C760 1.363 . S
C765 C764 1.415 . S
H766 C763 0.999 . S
H767 C748 0.913 . S
H768 C786 0.951 . S
H769 C788 0.951 . S
H770 C790 0.950 . S
H771 C791 0.950 . S
H772 C793 0.950 . S
H773 C796 0.950 . S
H774 C797 0.950 . S
H775 C799 0.950 . S
H776 C800 0.950 . S
H777 C801 0.951 . S
H778 C803 0.951 . S
H779 C805 0.950 . S
H780 C806 0.950 . S
H781 C808 0.950 . S
H782 C811 0.950 . S
H783 C812 0.950 . S
H784 C814 0.950 . S
H785 C815 0.950 . S
C786 H768 0.951 . S
C786 C787 1.366 . S
C786 C788 1.388 . S
C787 C786 1.366 . S
C787 C791 1.385 . S
C788 H769 0.951 . S
C788 C786 1.388 . S
C788 C789 1.366 . S
C789 C788 1.366 . S
C789 C790 1.414 . S
C789 C792 1.499 . S
C790 H770 0.950 . S
C790 C789 1.414 . S
C790 C791 1.374 . S
C791 H771 0.950 . S
C791 C787 1.385 . S
C791 C790 1.374 . S
C792 C789 1.499 . S
C792 C793 1.373 . S
C792 C794 1.389 . S
C793 H772 0.950 . S
C793 C792 1.373 . S
C793 C809 1.377 . S
C794 C792 1.389 . S
C794 C795 1.524 . S
C794 C808 1.377 . S
C795 C794 1.524 . S
C795 C796 1.397 . S
C795 C800 1.363 . S
C796 H773 0.950 . S
C796 C795 1.397 . S
C796 C797 1.334 . S
C797 H774 0.950 . S
C797 C796 1.334 . S
C797 C798 1.287 . S
C798 C797 1.287 . S
C798 C799 1.524 . S
C798 H817 0.913 . S
C799 H775 0.950 . S
C799 C798 1.524 . S
C799 C800 1.415 . S
C800 H776 0.950 . S
C800 C795 1.363 . S
C800 C799 1.415 . S
C801 H777 0.951 . S
C801 C802 1.366 . S
C801 C803 1.388 . S
C802 C801 1.366 . S
C802 C806 1.385 . S
C803 H778 0.951 . S
C803 C801 1.388 . S
C803 C804 1.366 . S
C804 C803 1.366 . S
C804 C805 1.414 . S
C804 C807 1.499 . S
C805 H779 0.950 . S
C805 C804 1.414 . S
C805 C806 1.374 . S
C806 H780 0.950 . S
C806 C802 1.385 . S
C806 C805 1.374 . S
C807 C804 1.499 . S
C807 C808 1.373 . S
C807 C809 1.389 . S
C808 H781 0.950 . S
C808 C794 1.377 . S
C808 C807 1.373 . S
C809 C793 1.377 . S
C809 C807 1.389 . S
C809 C810 1.524 . S
C810 C809 1.524 . S
C810 C811 1.397 . S
C810 C815 1.363 . S
C811 H782 0.950 . S
C811 C810 1.397 . S
C811 C812 1.334 . S
C812 H783 0.950 . S
C812 C811 1.334 . S
C812 C813 1.287 . S
C813 C812 1.287 . S
C813 C814 1.524 . S
C813 H816 0.999 1_556 S
C814 H784 0.950 . S
C814 C813 1.524 . S
C814 C815 1.415 . S
C815 H785 0.950 . S
C815 C810 1.363 . S
C815 C814 1.415 . S
H816 C813 0.999 1_554 S
H817 C798 0.913 . S
H818 C836 0.951 . S
H819 C838 0.951 . S
H820 C840 0.950 . S
H821 C841 0.950 . S
H822 C843 0.950 . S
H823 C846 0.950 . S
H824 C847 0.950 . S
H825 C849 0.950 . S
H826 C850 0.950 . S
H827 C851 0.951 . S
H828 C853 0.951 . S
H829 C855 0.950 . S
H830 C856 0.950 . S
H831 C858 0.950 . S
H832 C861 0.950 . S
H833 C862 0.950 . S
H834 C864 0.950 . S
H835 C865 0.950 . S
C836 H818 0.951 . S
C836 C837 1.366 . S
C836 C838 1.388 . S
C837 C836 1.366 . S
C837 C841 1.385 . S
C838 H819 0.951 . S
C838 C836 1.388 . S
C838 C839 1.366 . S
C839 C838 1.366 . S
C839 C840 1.414 . S
C839 C842 1.509 . S
C840 H820 0.950 . S
C840 C839 1.414 . S
C840 C841 1.374 . S
C841 H821 0.950 . S
C841 C837 1.385 . S
C841 C840 1.374 . S
C842 C839 1.509 . S
C842 C843 1.360 1_554 S
C842 C844 1.392 . S
C843 H822 0.950 . S
C843 C842 1.360 1_556 S
C843 C859 1.377 . S
C844 C842 1.392 . S
C844 C845 1.524 . S
C844 C858 1.377 1_554 S
C845 C844 1.524 . S
C845 C846 1.397 . S
C845 C850 1.363 . S
C846 H823 0.950 . S
C846 C845 1.397 . S
C846 C847 1.334 . S
C847 H824 0.950 . S
C847 C846 1.334 . S
C847 C848 1.287 . S
C848 C847 1.287 . S
C848 C849 1.524 . S
C848 H867 0.913 . S
C849 H825 0.950 . S
C849 C848 1.524 . S
C849 C850 1.415 . S
C850 H826 0.950 . S
C850 C845 1.363 . S
C850 C849 1.415 . S
C851 H827 0.951 . S
C851 C852 1.366 . S
C851 C853 1.388 . S
C852 C851 1.366 . S
C852 C856 1.385 . S
C853 H828 0.951 . S
C853 C851 1.388 . S
C853 C854 1.366 . S
C854 C853 1.366 . S
C854 C855 1.414 . S
C854 C857 1.499 . S
C855 H829 0.950 . S
C855 C854 1.414 . S
C855 C856 1.374 . S
C856 H830 0.950 . S
C856 C852 1.385 . S
C856 C855 1.374 . S
C857 C854 1.499 . S
C857 C858 1.373 . S
C857 C859 1.389 . S
C858 H831 0.950 . S
C858 C844 1.377 1_556 S
C858 C857 1.373 . S
C859 C843 1.377 . S
C859 C857 1.389 . S
C859 C860 1.524 . S
C860 C859 1.524 . S
C860 C861 1.397 . S
C860 C865 1.363 . S
C861 H832 0.950 . S
C861 C860 1.397 . S
C861 C862 1.334 . S
C862 H833 0.950 . S
C862 C861 1.334 . S
C862 C863 1.287 . S
C863 C862 1.287 . S
C863 C864 1.524 . S
C863 H866 0.999 . S
C864 H834 0.950 . S
C864 C863 1.524 . S
C864 C865 1.415 . S
C865 H835 0.950 . S
C865 C860 1.363 . S
C865 C864 1.415 . S
H866 C863 0.999 . S
H867 C848 0.913 . S
H868 C886 0.951 . S
H869 C888 0.951 . S
H870 C890 0.950 . S
H871 C891 0.950 . S
H872 C893 0.950 . S
H873 C896 0.950 . S
H874 C897 0.950 . S
H875 C899 0.950 . S
H876 C900 0.950 . S
H877 C901 0.951 . S
H878 C903 0.951 . S
H879 C905 0.950 . S
H880 C906 0.950 . S
H881 C908 0.950 . S
H882 C911 0.956 . S
H883 C912 0.950 . S
H884 C914 0.950 . S
H885 C915 0.950 . S
C886 H868 0.951 . S
C886 C887 1.366 . S
C886 C888 1.388 . S
C887 C886 1.366 . S
C887 C891 1.385 . S
C888 H869 0.951 . S
C888 C886 1.388 . S
C888 C889 1.366 . S
C889 C888 1.366 . S
C889 C890 1.414 . S
C889 C892 1.499 . S
C890 H870 0.950 . S
C890 C889 1.414 . S
C890 C891 1.374 . S
C891 H871 0.950 . S
C891 C887 1.385 . S
C891 C890 1.374 . S
C892 C889 1.499 . S
C892 C893 1.373 . S
C892 C894 1.389 . S
C893 H872 0.950 . S
C893 C892 1.373 . S
C893 C909 1.377 . S
C894 C892 1.389 . S
C894 C895 1.524 . S
C894 C908 1.377 . S
C895 C894 1.524 . S
C895 C896 1.397 . S
C895 C900 1.363 . S
C896 H873 0.950 . S
C896 C895 1.397 . S
C896 C897 1.334 . S
C897 H874 0.950 . S
C897 C896 1.334 . S
C897 C898 1.287 . S
C898 C897 1.287 . S
C898 C899 1.524 . S
C898 H917 0.913 . S
C899 H875 0.950 . S
C899 C898 1.524 . S
C899 C900 1.415 . S
C900 H876 0.950 . S
C900 C895 1.363 . S
C900 C899 1.415 . S
C901 H877 0.951 . S
C901 C902 1.366 . S
C901 C903 1.388 1_556 S
C902 C901 1.366 . S
C902 C906 1.385 1_556 S
C903 H878 0.951 . S
C903 C901 1.388 1_554 S
C903 C904 1.366 . S
C904 C903 1.366 . S
C904 C905 1.414 . S
C904 C907 1.499 . S
C905 H879 0.950 . S
C905 C904 1.414 . S
C905 C906 1.374 . S
C906 H880 0.950 . S
C906 C902 1.385 1_554 S
C906 C905 1.374 . S
C907 C904 1.499 . S
C907 C908 1.373 . S
C907 C909 1.389 . S
C908 H881 0.950 . S
C908 C894 1.377 . S
C908 C907 1.373 . S
C909 C893 1.377 . S
C909 C907 1.389 . S
C909 C910 1.524 . S
C910 C909 1.524 . S
C910 C911 1.404 . S
C910 C915 1.363 . S
C911 H882 0.956 . S
C911 C910 1.404 . S
C911 C912 1.320 1_554 S
C912 H883 0.950 . S
C912 C911 1.320 1_556 S
C912 C913 1.287 . S
C913 C912 1.287 . S
C913 C914 1.524 . S
C913 H916 0.999 . S
C914 H884 0.950 . S
C914 C913 1.524 . S
C914 C915 1.415 1_556 S
C915 H885 0.950 . S
C915 C910 1.363 . S
C915 C914 1.415 1_554 S
H916 C913 0.999 . S
H917 C898 0.913 . S
H918 C936 0.951 . S
H919 C938 0.951 . S
H920 C940 0.950 . S
H921 C941 0.950 . S
H922 C943 0.950 . S
H923 C946 0.950 . S
H924 C947 0.950 . S
H925 C949 0.950 . S
H926 C950 0.950 . S
H927 C951 0.951 . S
H928 C953 0.951 . S
H929 C955 0.950 . S
H930 C956 0.950 . S
H931 C958 0.950 . S
H932 C961 0.950 . S
H933 C962 0.950 . S
H934 C964 0.950 . S
H935 C965 0.950 . S
C936 H918 0.951 . S
C936 C937 1.366 . S
C936 C938 1.388 . S
C937 C936 1.366 . S
C937 C941 1.385 . S
C938 H919 0.951 . S
C938 C936 1.388 . S
C938 C939 1.366 . S
C939 C938 1.366 . S
C939 C940 1.414 . S
C939 C942 1.499 . S
C940 H920 0.950 . S
C940 C939 1.414 . S
C940 C941 1.374 . S
C941 H921 0.950 . S
C941 C937 1.385 . S
C941 C940 1.374 . S
C942 C939 1.499 . S
C942 C943 1.373 . S
C942 C944 1.389 . S
C943 H922 0.950 . S
C943 C942 1.373 . S
C943 C959 1.377 . S
C944 C942 1.389 . S
C944 C945 1.524 . S
C944 C958 1.377 . S
C945 C944 1.524 . S
C945 C946 1.397 . S
C945 C950 1.363 . S
C946 H923 0.950 . S
C946 C945 1.397 . S
C946 C947 1.334 . S
C947 H924 0.950 . S
C947 C946 1.334 . S
C947 C948 1.287 . S
C948 C947 1.287 . S
C948 C949 1.524 . S
C948 H967 0.913 . S
C949 H925 0.950 . S
C949 C948 1.524 . S
C949 C950 1.415 . S
C950 H926 0.950 . S
C950 C945 1.363 . S
C950 C949 1.415 . S
C951 H927 0.951 . S
C951 C952 1.366 . S
C951 C953 1.388 . S
C952 C951 1.366 . S
C952 C956 1.385 . S
C953 H928 0.951 . S
C953 C951 1.388 . S
C953 C954 1.366 . S
C954 C953 1.366 . S
C954 C955 1.414 . S
C954 C957 1.499 . S
C955 H929 0.950 . S
C955 C954 1.414 . S
C955 C956 1.374 . S
C956 H930 0.950 . S
C956 C952 1.385 . S
C956 C955 1.374 . S
C957 C954 1.499 . S
C957 C958 1.373 . S
C957 C959 1.389 . S
C958 H931 0.950 . S
C958 C944 1.377 . S
C958 C957 1.373 . S
C959 C943 1.377 . S
C959 C957 1.389 . S
C959 C960 1.524 . S
C960 C959 1.524 . S
C960 C961 1.397 . S
C960 C965 1.363 . S
C961 H932 0.950 . S
C961 C960 1.397 . S
C961 C962 1.334 . S
C962 H933 0.950 . S
C962 C961 1.334 . S
C962 C963 1.287 . S
C963 C962 1.287 . S
C963 C964 1.524 . S
C963 H966 0.999 . S
C964 H934 0.950 . S
C964 C963 1.524 . S
C964 C965 1.415 . S
C965 H935 0.950 . S
C965 C960 1.363 . S
C965 C964 1.415 . S
H966 C963 0.999 . S
H967 C948 0.913 . S
H968 C986 0.951 . S
H969 C988 0.951 . S
H970 C990 0.950 . S
H971 C991 0.950 . S
H972 C993 0.950 . S
H973 C996 0.950 . S
H974 C997 0.950 . S
H975 C999 0.950 . S
H976 C1000 0.950 . S
H977 C1001 0.951 . S
H978 C1003 0.951 . S
H979 C1005 0.950 . S
H980 C1006 0.950 . S
H981 C1008 0.950 . S
H982 C1011 0.950 . S
H983 C1012 0.950 . S
H984 C1014 0.950 . S
H985 C1015 0.950 . S
C986 H968 0.951 . S
C986 C987 1.366 . S
C986 C988 1.388 . S
C987 C986 1.366 . S
C987 C991 1.385 . S
C988 H969 0.951 . S
C988 C986 1.388 . S
C988 C989 1.366 . S
C989 C988 1.366 . S
C989 C990 1.414 . S
C989 C992 1.499 . S
C990 H970 0.950 . S
C990 C989 1.414 . S
C990 C991 1.374 . S
C991 H971 0.950 . S
C991 C987 1.385 . S
C991 C990 1.374 . S
C992 C989 1.499 . S
C992 C993 1.373 . S
C992 C994 1.389 . S
C993 H972 0.950 . S
C993 C992 1.373 . S
C993 C1009 1.377 . S
C994 C992 1.389 . S
C994 C995 1.524 . S
C994 C1008 1.377 . S
C995 C994 1.524 . S
C995 C996 1.397 . S
C995 C1000 1.363 . S
C996 H973 0.950 . S
C996 C995 1.397 . S
C996 C997 1.334 . S
C997 H974 0.950 . S
C997 C996 1.334 . S
C997 C998 1.287 . S
C998 C997 1.287 . S
C998 C999 1.524 . S
C998 H1017 0.913 . S
C999 H975 0.950 . S
C999 C998 1.524 . S
C999 C1000 1.415 . S
C1000 H976 0.950 . S
C1000 C995 1.363 . S
C1000 C999 1.415 . S
C1001 H977 0.951 . S
C1001 C1002 1.366 . S
C1001 C1003 1.388 . S
C1002 C1001 1.366 . S
C1002 C1006 1.385 . S
C1003 H978 0.951 . S
C1003 C1001 1.388 . S
C1003 C1004 1.366 . S
C1004 C1003 1.366 . S
C1004 C1005 1.414 . S
C1004 C1007 1.499 . S
C1005 H979 0.950 . S
C1005 C1004 1.414 . S
C1005 C1006 1.374 . S
C1006 H980 0.950 . S
C1006 C1002 1.385 . S
C1006 C1005 1.374 . S
C1007 C1004 1.499 . S
C1007 C1008 1.373 . S
C1007 C1009 1.389 . S
C1008 H981 0.950 . S
C1008 C994 1.377 . S
C1008 C1007 1.373 . S
C1009 C993 1.377 . S
C1009 C1007 1.389 . S
C1009 C1010 1.524 . S
C1010 C1009 1.524 . S
C1010 C1011 1.397 . S
C1010 C1015 1.363 . S
C1011 H982 0.950 . S
C1011 C1010 1.397 . S
C1011 C1012 1.334 . S
C1012 H983 0.950 . S
C1012 C1011 1.334 . S
C1012 C1013 1.287 . S
C1013 C1012 1.287 . S
C1013 C1014 1.524 . S
C1013 H1016 0.999 . S
C1014 H984 0.950 . S
C1014 C1013 1.524 . S
C1014 C1015 1.415 . S
C1015 H985 0.950 . S
C1015 C1010 1.363 . S
C1015 C1014 1.415 . S
H1016 C1013 0.999 . S
H1017 C998 0.913 . S
H1018 C1036 0.951 . S
H1019 C1038 0.951 . S
H1020 C1040 0.950 . S
H1021 C1041 0.950 . S
H1022 C1043 0.950 . S
H1023 C1046 0.950 . S
H1024 C1047 0.950 . S
H1025 C1049 0.950 . S
H1026 C1050 0.950 . S
H1027 C1051 0.951 . S
H1028 C1053 0.951 . S
H1029 C1055 0.950 . S
H1030 C1056 0.950 . S
H1031 C1058 0.950 . S
H1032 C1061 0.950 . S
H1033 C1062 0.950 . S
H1034 C1064 0.950 . S
H1035 C1065 0.950 . S
C1036 H1018 0.951 . S
C1036 C1037 1.366 . S
C1036 C1038 1.388 . S
C1037 C1036 1.366 . S
C1037 C1041 1.385 . S
C1038 H1019 0.951 . S
C1038 C1036 1.388 . S
C1038 C1039 1.366 . S
C1039 C1038 1.366 . S
C1039 C1040 1.414 . S
C1039 C1042 1.499 . S
C1040 H1020 0.950 . S
C1040 C1039 1.414 . S
C1040 C1041 1.374 . S
C1041 H1021 0.950 . S
C1041 C1037 1.385 . S
C1041 C1040 1.374 . S
C1042 C1039 1.499 . S
C1042 C1043 1.373 . S
C1042 C1044 1.389 . S
C1043 H1022 0.950 . S
C1043 C1042 1.373 . S
C1043 C1059 1.377 . S
C1044 C1042 1.389 . S
C1044 C1045 1.524 . S
C1044 C1058 1.377 . S
C1045 C1044 1.524 . S
C1045 C1046 1.397 . S
C1045 C1050 1.363 . S
C1046 H1023 0.950 . S
C1046 C1045 1.397 . S
C1046 C1047 1.334 . S
C1047 H1024 0.950 . S
C1047 C1046 1.334 . S
C1047 C1048 1.287 . S
C1048 C1047 1.287 . S
C1048 C1049 1.524 . S
C1048 H1067 0.913 . S
C1049 H1025 0.950 . S
C1049 C1048 1.524 . S
C1049 C1050 1.415 . S
C1050 H1026 0.950 . S
C1050 C1045 1.363 . S
C1050 C1049 1.415 . S
C1051 H1027 0.951 . S
C1051 C1052 1.366 . S
C1051 C1053 1.388 . S
C1052 C1051 1.366 . S
C1052 C1056 1.385 . S
C1053 H1028 0.951 . S
C1053 C1051 1.388 . S
C1053 C1054 1.366 . S
C1054 C1053 1.366 . S
C1054 C1055 1.414 . S
C1054 C1057 1.499 . S
C1055 H1029 0.950 . S
C1055 C1054 1.414 . S
C1055 C1056 1.374 . S
C1056 H1030 0.950 . S
C1056 C1052 1.385 . S
C1056 C1055 1.374 . S
C1057 C1054 1.499 . S
C1057 C1058 1.373 . S
C1057 C1059 1.389 . S
C1058 H1031 0.950 . S
C1058 C1044 1.377 . S
C1058 C1057 1.373 . S
C1059 C1043 1.377 . S
C1059 C1057 1.389 . S
C1059 C1060 1.524 . S
C1060 C1059 1.524 . S
C1060 C1061 1.397 . S
C1060 C1065 1.363 . S
C1061 H1032 0.950 . S
C1061 C1060 1.397 . S
C1061 C1062 1.334 . S
C1062 H1033 0.950 . S
C1062 C1061 1.334 . S
C1062 C1063 1.287 . S
C1063 C1062 1.287 . S
C1063 C1064 1.524 . S
C1063 H1066 0.999 . S
C1064 H1034 0.950 . S
C1064 C1063 1.524 . S
C1064 C1065 1.415 . S
C1065 H1035 0.950 . S
C1065 C1060 1.363 . S
C1065 C1064 1.415 . S
H1066 C1063 0.999 . S
H1067 C1048 0.913 . S
H1068 C1086 0.951 . S
H1069 C1088 0.951 . S
H1070 C1090 0.950 . S
H1071 C1091 0.950 . S
H1072 C1093 0.950 1_655 S
H1073 C1096 0.950 . S
H1074 C1097 0.950 . S
H1075 C1099 0.950 . S
H1076 C1100 0.950 . S
H1077 C1101 0.951 . S
H1078 C1103 0.951 . S
H1079 C1105 0.950 . S
H1080 C1106 0.950 . S
H1081 C1108 0.950 1_455 S
H1082 C1111 0.950 . S
H1083 C1112 0.950 . S
H1084 C1114 0.950 . S
H1085 C1115 0.950 . S
C1086 H1068 0.951 . S
C1086 C1087 1.366 . S
C1086 C1088 1.388 . S
C1087 C1086 1.366 . S
C1087 C1091 1.385 1_556 S
C1088 H1069 0.951 . S
C1088 C1086 1.388 . S
C1088 C1089 1.366 . S
C1089 C1088 1.366 . S
C1089 C1090 1.414 . S
C1089 C1092 1.499 . S
C1090 H1070 0.950 . S
C1090 C1089 1.414 . S
C1090 C1091 1.374 1_556 S
C1091 H1071 0.950 . S
C1091 C1087 1.385 1_554 S
C1091 C1090 1.374 1_554 S
C1092 C1089 1.499 . S
C1092 C1093 1.373 . S
C1092 C1094 1.389 . S
C1093 H1072 0.950 1_455 S
C1093 C1092 1.373 . S
C1093 C1109 1.377 1_455 S
C1094 C1092 1.389 . S
C1094 C1095 1.524 . S
C1094 C1108 1.376 1_455 S
C1095 C1094 1.524 . S
C1095 C1096 1.397 . S
C1095 C1100 1.363 . S
C1096 H1073 0.950 . S
C1096 C1095 1.397 . S
C1096 C1097 1.334 . S
C1097 H1074 0.950 . S
C1097 C1096 1.334 . S
C1097 C1098 1.287 . S
C1098 C1097 1.287 . S
C1098 C1099 1.524 . S
C1098 H1117 0.913 . S
C1099 H1075 0.950 . S
C1099 C1098 1.524 . S
C1099 C1100 1.415 . S
C1100 H1076 0.950 . S
C1100 C1095 1.363 . S
C1100 C1099 1.415 . S
C1101 H1077 0.951 . S
C1101 C1102 1.366 . S
C1101 C1103 1.388 . S
C1102 C1101 1.366 . S
C1102 C1106 1.385 . S
C1103 H1078 0.951 . S
C1103 C1101 1.388 . S
C1103 C1104 1.366 . S
C1104 C1103 1.366 . S
C1104 C1105 1.414 . S
C1104 C1107 1.499 . S
C1105 H1079 0.950 . S
C1105 C1104 1.414 . S
C1105 C1106 1.374 . S
C1106 H1080 0.950 . S
C1106 C1102 1.385 . S
C1106 C1105 1.374 . S
C1107 C1104 1.499 . S
C1107 C1108 1.373 . S
C1107 C1109 1.389 . S
C1108 H1081 0.950 1_655 S
C1108 C1094 1.376 1_655 S
C1108 C1107 1.373 . S
C1109 C1093 1.377 1_655 S
C1109 C1107 1.389 . S
C1109 C1110 1.524 . S
C1110 C1109 1.524 . S
C1110 C1111 1.397 . S
C1110 C1115 1.363 . S
C1111 H1082 0.950 . S
C1111 C1110 1.397 . S
C1111 C1112 1.334 . S
C1112 H1083 0.950 . S
C1112 C1111 1.334 . S
C1112 C1113 1.287 . S
C1113 C1112 1.287 . S
C1113 C1114 1.524 1_556 S
C1113 H1116 0.999 1_556 S
C1114 H1084 0.950 . S
C1114 C1113 1.524 1_554 S
C1114 C1115 1.415 1_554 S
C1115 H1085 0.950 . S
C1115 C1110 1.363 . S
C1115 C1114 1.415 1_556 S
H1116 C1113 0.999 1_554 S
H1117 C1098 0.913 . S
H1118 C1136 0.951 . S
H1119 C1138 0.951 . S
H1120 C1140 0.950 . S
H1121 C1141 0.950 . S
H1122 C1143 0.950 . S
H1123 C1146 0.950 . S
H1124 C1147 0.950 . S
H1125 C1149 0.950 . S
H1126 C1150 0.950 . S
H1127 C1151 0.951 . S
H1128 C1153 0.951 . S
H1129 C1155 0.950 . S
H1130 C1156 0.950 . S
H1131 C1158 0.950 . S
H1132 C1161 0.950 . S
H1133 C1162 0.950 . S
H1134 C1164 0.950 . S
H1135 C1165 0.950 . S
C1136 H1118 0.951 . S
C1136 C1137 1.366 . S
C1136 C1138 1.388 . S
C1137 C1136 1.366 . S
C1137 C1141 1.385 . S
C1138 H1119 0.951 . S
C1138 C1136 1.388 . S
C1138 C1139 1.366 . S
C1139 C1138 1.366 . S
C1139 C1140 1.414 1_556 S
C1139 C1142 1.499 1_556 S
C1140 H1120 0.950 . S
C1140 C1139 1.414 1_554 S
C1140 C1141 1.374 1_554 S
C1141 H1121 0.950 . S
C1141 C1137 1.385 . S
C1141 C1140 1.374 1_556 S
C1142 C1139 1.499 1_554 S
C1142 C1143 1.373 . S
C1142 C1144 1.374 1_564 S
C1143 H1122 0.950 . S
C1143 C1142 1.373 . S
C1143 C1159 1.397 . S
C1144 C1142 1.374 1_546 S
C1144 C1145 1.521 . S
C1144 C1158 1.397 1_556 S
C1145 C1144 1.521 . S
C1145 C1146 1.397 1_545 S
C1145 C1150 1.363 . S
C1146 H1123 0.950 . S
C1146 C1145 1.397 1_565 S
C1146 C1147 1.334 . S
C1147 H1124 0.950 . S
C1147 C1146 1.334 . S
C1147 C1148 1.287 1_565 S
C1148 C1147 1.287 1_545 S
C1148 C1149 1.524 . S
C1148 H1167 0.913 . S
C1149 H1125 0.950 . S
C1149 C1148 1.524 . S
C1149 C1150 1.415 . S
C1150 H1126 0.950 . S
C1150 C1145 1.363 . S
C1150 C1149 1.415 . S
C1151 H1127 0.951 . S
C1151 C1152 1.366 . S
C1151 C1153 1.388 . S
C1152 C1151 1.366 . S
C1152 C1156 1.385 . S
C1153 H1128 0.951 . S
C1153 C1151 1.388 . S
C1153 C1154 1.366 . S
C1154 C1153 1.366 . S
C1154 C1155 1.414 . S
C1154 C1157 1.499 . S
C1155 H1129 0.950 . S
C1155 C1154 1.414 . S
C1155 C1156 1.374 . S
C1156 H1130 0.950 . S
C1156 C1152 1.385 . S
C1156 C1155 1.374 . S
C1157 C1154 1.499 . S
C1157 C1158 1.373 . S
C1157 C1159 1.373 1_545 S
C1158 H1131 0.950 . S
C1158 C1144 1.397 1_554 S
C1158 C1157 1.373 . S
C1159 C1143 1.397 . S
C1159 C1157 1.373 1_565 S
C1159 C1160 1.521 . S
C1160 C1159 1.521 . S
C1160 C1161 1.397 1_565 S
C1160 C1165 1.363 . S
C1161 H1132 0.950 . S
C1161 C1160 1.397 1_545 S
C1161 C1162 1.334 . S
C1162 H1133 0.950 . S
C1162 C1161 1.334 . S
C1162 C1163 1.287 1_545 S
C1163 C1162 1.287 1_565 S
C1163 C1164 1.524 . S
C1163 H1166 0.999 . S
C1164 H1134 0.950 . S
C1164 C1163 1.524 . S
C1164 C1165 1.415 . S
C1165 H1135 0.950 . S
C1165 C1160 1.363 . S
C1165 C1164 1.415 . S
H1166 C1163 0.999 . S
H1167 C1148 0.913 . S
H1168 C1186 0.951 . S
H1169 C1188 0.951 . S
H1170 C1190 0.950 . S
H1171 C1191 0.950 . S
H1172 C1193 0.950 . S
H1173 C1196 0.950 . S
H1174 C1197 0.950 . S
H1175 C1199 0.950 . S
H1176 C1200 0.950 . S
H1177 C1201 0.951 . S
H1178 C1203 0.951 . S
H1179 C1205 0.950 . S
H1180 C1206 0.950 . S
H1181 C1208 0.950 . S
H1182 C1211 0.950 . S
H1183 C1212 0.950 . S
H1184 C1214 0.950 . S
H1185 C1215 0.950 . S
C1186 H1168 0.951 . S
C1186 C1187 1.366 . S
C1186 C1188 1.388 . S
C1187 C1186 1.366 . S
C1187 C1191 1.385 . S
C1188 H1169 0.951 . S
C1188 C1186 1.388 . S
C1188 C1189 1.366 . S
C1189 C1188 1.366 . S
C1189 C1190 1.414 . S
C1189 C1192 1.499 . S
C1190 H1170 0.950 . S
C1190 C1189 1.414 . S
C1190 C1191 1.374 . S
C1191 H1171 0.950 . S
C1191 C1187 1.385 . S
C1191 C1190 1.374 . S
C1192 C1189 1.499 . S
C1192 C1193 1.373 . S
C1192 C1194 1.389 . S
C1193 H1172 0.950 . S
C1193 C1192 1.373 . S
C1193 C1209 1.377 . S
C1194 C1192 1.389 . S
C1194 C1195 1.524 . S
C1194 C1208 1.377 . S
C1195 C1194 1.524 . S
C1195 C1196 1.397 . S
C1195 C1200 1.363 . S
C1196 H1173 0.950 . S
C1196 C1195 1.397 . S
C1196 C1197 1.334 . S
C1197 H1174 0.950 . S
C1197 C1196 1.334 . S
C1197 C1198 1.287 . S
C1198 C1197 1.287 . S
C1198 C1199 1.524 . S
C1198 H1217 0.913 . S
C1199 H1175 0.950 . S
C1199 C1198 1.524 . S
C1199 C1200 1.415 . S
C1200 H1176 0.950 . S
C1200 C1195 1.363 . S
C1200 C1199 1.415 . S
C1201 H1177 0.951 . S
C1201 C1202 1.366 . S
C1201 C1203 1.388 . S
C1202 C1201 1.366 . S
C1202 C1206 1.385 . S
C1203 H1178 0.951 . S
C1203 C1201 1.388 . S
C1203 C1204 1.366 . S
C1204 C1203 1.366 . S
C1204 C1205 1.414 . S
C1204 C1207 1.499 . S
C1205 H1179 0.950 . S
C1205 C1204 1.414 . S
C1205 C1206 1.374 . S
C1206 H1180 0.950 . S
C1206 C1202 1.385 . S
C1206 C1205 1.374 . S
C1207 C1204 1.499 . S
C1207 C1208 1.373 . S
C1207 C1209 1.389 . S
C1208 H1181 0.950 . S
C1208 C1194 1.377 . S
C1208 C1207 1.373 . S
C1209 C1193 1.377 . S
C1209 C1207 1.389 . S
C1209 C1210 1.524 . S
C1210 C1209 1.524 . S
C1210 C1211 1.397 . S
C1210 C1215 1.363 . S
C1211 H1182 0.950 . S
C1211 C1210 1.397 . S
C1211 C1212 1.334 . S
C1212 H1183 0.950 . S
C1212 C1211 1.334 . S
C1212 C1213 1.287 . S
C1213 C1212 1.287 . S
C1213 C1214 1.524 . S
C1213 H1216 0.999 . S
C1214 H1184 0.950 . S
C1214 C1213 1.524 . S
C1214 C1215 1.415 . S
C1215 H1185 0.950 . S
C1215 C1210 1.363 . S
C1215 C1214 1.415 . S
H1216 C1213 0.999 . S
H1217 C1198 0.913 . S
H1218 C1236 0.951 . S
H1219 C1238 0.951 . S
H1220 C1240 0.950 . S
H1221 C1241 0.950 . S
H1222 C1243 0.950 . S
H1223 C1246 0.950 . S
H1224 C1247 0.950 . S
H1225 C1249 0.950 . S
H1226 C1250 0.950 . S
H1227 C1251 0.951 . S
H1228 C1253 0.951 . S
H1229 C1255 0.950 . S
H1230 C1256 0.950 . S
H1231 C1258 0.950 . S
H1232 C1261 0.950 . S
H1233 C1262 0.950 . S
H1234 C1264 0.950 . S
H1235 C1265 0.950 . S
C1236 H1218 0.951 . S
C1236 C1237 1.366 . S
C1236 C1238 1.388 . S
C1237 C1236 1.366 . S
C1237 C1241 1.385 . S
C1238 H1219 0.951 . S
C1238 C1236 1.388 . S
C1238 C1239 1.366 . S
C1239 C1238 1.366 . S
C1239 C1240 1.414 . S
C1239 C1242 1.499 . S
C1240 H1220 0.950 . S
C1240 C1239 1.414 . S
C1240 C1241 1.374 . S
C1241 H1221 0.950 . S
C1241 C1237 1.385 . S
C1241 C1240 1.374 . S
C1242 C1239 1.499 . S
C1242 C1243 1.373 . S
C1242 C1244 1.389 1_455 S
C1243 H1222 0.950 . S
C1243 C1242 1.373 . S
C1243 C1259 1.377 . S
C1244 C1242 1.389 1_655 S
C1244 C1245 1.524 . S
C1244 C1258 1.377 . S
C1245 C1244 1.524 . S
C1245 C1246 1.397 1_655 S
C1245 C1250 1.363 . S
C1246 H1223 0.950 . S
C1246 C1245 1.397 1_455 S
C1246 C1247 1.334 . S
C1247 H1224 0.950 . S
C1247 C1246 1.334 . S
C1247 C1248 1.287 1_455 S
C1248 C1247 1.287 1_655 S
C1248 C1249 1.524 . S
C1248 H1267 0.913 . S
C1249 H1225 0.950 . S
C1249 C1248 1.524 . S
C1249 C1250 1.415 . S
C1250 H1226 0.950 . S
C1250 C1245 1.363 . S
C1250 C1249 1.415 . S
C1251 H1227 0.951 . S
C1251 C1252 1.366 . S
C1251 C1253 1.388 . S
C1252 C1251 1.366 . S
C1252 C1256 1.385 . S
C1253 H1228 0.951 . S
C1253 C1251 1.388 . S
C1253 C1254 1.366 . S
C1254 C1253 1.366 . S
C1254 C1255 1.414 . S
C1254 C1257 1.499 . S
C1255 H1229 0.950 . S
C1255 C1254 1.414 . S
C1255 C1256 1.374 . S
C1256 H1230 0.950 . S
C1256 C1252 1.385 . S
C1256 C1255 1.374 . S
C1257 C1254 1.499 . S
C1257 C1258 1.373 . S
C1257 C1259 1.389 1_655 S
C1258 H1231 0.950 . S
C1258 C1244 1.377 . S
C1258 C1257 1.373 . S
C1259 C1243 1.377 . S
C1259 C1257 1.389 1_455 S
C1259 C1260 1.524 . S
C1260 C1259 1.524 . S
C1260 C1261 1.397 1_455 S
C1260 C1265 1.363 . S
C1261 H1232 0.950 . S
C1261 C1260 1.397 1_655 S
C1261 C1262 1.334 . S
C1262 H1233 0.950 . S
C1262 C1261 1.334 . S
C1262 C1263 1.287 1_655 S
C1263 C1262 1.287 1_455 S
C1263 C1264 1.524 . S
C1263 H1266 0.999 . S
C1264 H1234 0.950 . S
C1264 C1263 1.524 . S
C1264 C1265 1.415 . S
C1265 H1235 0.950 . S
C1265 C1260 1.363 . S
C1265 C1264 1.415 . S
H1266 C1263 0.999 . S
H1267 C1248 0.913 . S
H1268 C1286 0.951 . S
H1269 C1288 0.951 . S
H1270 C1290 0.950 . S
H1271 C1291 0.950 . S
H1272 C1293 0.950 . S
H1273 C1296 0.950 . S
H1274 C1297 0.950 . S
H1275 C1299 0.950 . S
H1276 C1300 0.950 . S
H1277 C1301 0.951 . S
H1278 C1303 0.951 . S
H1279 C1305 0.950 . S
H1280 C1306 0.950 . S
H1281 C1308 0.950 . S
H1282 C1311 0.950 . S
H1283 C1312 0.950 . S
H1284 C1314 0.950 . S
H1285 C1315 0.950 . S
C1286 H1268 0.951 . S
C1286 C1287 1.366 . S
C1286 C1288 1.388 . S
C1287 C1286 1.366 . S
C1287 C1291 1.385 . S
C1288 H1269 0.951 . S
C1288 C1286 1.388 . S
C1288 C1289 1.366 . S
C1289 C1288 1.366 . S
C1289 C1290 1.414 . S
C1289 C1292 1.499 . S
C1290 H1270 0.950 . S
C1290 C1289 1.414 . S
C1290 C1291 1.374 . S
C1291 H1271 0.950 . S
C1291 C1287 1.385 . S
C1291 C1290 1.374 . S
C1292 C1289 1.499 . S
C1292 C1293 1.373 . S
C1292 C1294 1.389 . S
C1293 H1272 0.950 . S
C1293 C1292 1.373 . S
C1293 C1309 1.377 1_545 S
C1294 C1292 1.389 . S
C1294 C1295 1.524 . S
C1294 C1308 1.377 1_545 S
C1295 C1294 1.524 . S
C1295 C1296 1.397 . S
C1295 C1300 1.363 . S
C1296 H1273 0.950 . S
C1296 C1295 1.397 . S
C1296 C1297 1.334 . S
C1297 H1274 0.950 . S
C1297 C1296 1.334 . S
C1297 C1298 1.287 . S
C1298 C1297 1.287 . S
C1298 C1299 1.524 . S
C1298 H1317 0.913 . S
C1299 H1275 0.950 . S
C1299 C1298 1.524 . S
C1299 C1300 1.415 . S
C1300 H1276 0.950 . S
C1300 C1295 1.363 . S
C1300 C1299 1.415 . S
C1301 H1277 0.951 . S
C1301 C1302 1.366 . S
C1301 C1303 1.388 . S
C1302 C1301 1.366 . S
C1302 C1306 1.385 . S
C1303 H1278 0.951 . S
C1303 C1301 1.388 . S
C1303 C1304 1.366 . S
C1304 C1303 1.366 . S
C1304 C1305 1.414 . S
C1304 C1307 1.499 . S
C1305 H1279 0.950 . S
C1305 C1304 1.414 . S
C1305 C1306 1.374 . S
C1306 H1280 0.950 . S
C1306 C1302 1.385 . S
C1306 C1305 1.374 . S
C1307 C1304 1.499 . S
C1307 C1308 1.373 . S
C1307 C1309 1.389 . S
C1308 H1281 0.950 . S
C1308 C1294 1.377 1_565 S
C1308 C1307 1.373 . S
C1309 C1293 1.377 1_565 S
C1309 C1307 1.389 . S
C1309 C1310 1.524 . S
C1310 C1309 1.524 . S
C1310 C1311 1.397 . S
C1310 C1315 1.363 . S
C1311 H1282 0.950 . S
C1311 C1310 1.397 . S
C1311 C1312 1.334 . S
C1312 H1283 0.950 . S
C1312 C1311 1.334 . S
C1312 C1313 1.287 . S
C1313 C1312 1.287 . S
C1313 C1314 1.524 . S
C1313 H1316 0.999 . S
C1314 H1284 0.950 . S
C1314 C1313 1.524 . S
C1314 C1315 1.415 . S
C1315 H1285 0.950 . S
C1315 C1310 1.363 . S
C1315 C1314 1.415 . S
H1316 C1313 0.999 . S
H1317 C1298 0.913 . S
H1318 C1336 0.951 . S
H1319 C1338 0.951 . S
H1320 C1340 0.950 . S
H1321 C1341 0.950 . S
H1322 C1343 0.950 . S
H1323 C1346 0.950 . S
H1324 C1347 0.950 . S
H1325 C1349 0.950 . S
H1326 C1350 0.950 . S
H1327 C1351 0.951 . S
H1328 C1353 0.951 . S
H1329 C1355 0.950 . S
H1330 C1356 0.950 . S
H1331 C1358 0.950 . S
H1332 C1361 0.950 . S
H1333 C1362 0.950 . S
H1334 C1364 0.950 . S
H1335 C1365 0.950 . S
C1336 H1318 0.951 . S
C1336 C1337 1.366 . S
C1336 C1338 1.388 . S
C1337 C1336 1.366 . S
C1337 C1341 1.385 . S
C1338 H1319 0.951 . S
C1338 C1336 1.388 . S
C1338 C1339 1.366 . S
C1339 C1338 1.366 . S
C1339 C1340 1.414 . S
C1339 C1342 1.499 . S
C1340 H1320 0.950 . S
C1340 C1339 1.414 . S
C1340 C1341 1.374 . S
C1341 H1321 0.950 . S
C1341 C1337 1.385 . S
C1341 C1340 1.374 . S
C1342 C1339 1.499 . S
C1342 C1343 1.373 . S
C1342 C1344 1.389 . S
C1343 H1322 0.950 . S
C1343 C1342 1.373 . S
C1343 C1359 1.377 . S
C1344 C1342 1.389 . S
C1344 C1345 1.524 . S
C1344 C1358 1.377 . S
C1345 C1344 1.524 . S
C1345 C1346 1.397 . S
C1345 C1350 1.363 . S
C1346 H1323 0.950 . S
C1346 C1345 1.397 . S
C1346 C1347 1.334 . S
C1347 H1324 0.950 . S
C1347 C1346 1.334 . S
C1347 C1348 1.287 . S
C1348 C1347 1.287 . S
C1348 C1349 1.524 . S
C1348 H1367 0.913 . S
C1349 H1325 0.950 . S
C1349 C1348 1.524 . S
C1349 C1350 1.415 . S
C1350 H1326 0.950 . S
C1350 C1345 1.363 . S
C1350 C1349 1.415 . S
C1351 H1327 0.951 . S
C1351 C1352 1.366 . S
C1351 C1353 1.388 . S
C1352 C1351 1.366 . S
C1352 C1356 1.385 . S
C1353 H1328 0.951 . S
C1353 C1351 1.388 . S
C1353 C1354 1.366 . S
C1354 C1353 1.366 . S
C1354 C1355 1.414 . S
C1354 C1357 1.499 . S
C1355 H1329 0.950 . S
C1355 C1354 1.414 . S
C1355 C1356 1.374 . S
C1356 H1330 0.950 . S
C1356 C1352 1.385 . S
C1356 C1355 1.374 . S
C1357 C1354 1.499 . S
C1357 C1358 1.373 . S
C1357 C1359 1.389 . S
C1358 H1331 0.950 . S
C1358 C1344 1.377 . S
C1358 C1357 1.373 . S
C1359 C1343 1.377 . S
C1359 C1357 1.389 . S
C1359 C1360 1.524 . S
C1360 C1359 1.524 . S
C1360 C1361 1.397 . S
C1360 C1365 1.363 . S
C1361 H1332 0.950 . S
C1361 C1360 1.397 . S
C1361 C1362 1.334 . S
C1362 H1333 0.950 . S
C1362 C1361 1.334 . S
C1362 C1363 1.287 . S
C1363 C1362 1.287 . S
C1363 C1364 1.524 . S
C1363 H1366 0.999 . S
C1364 H1334 0.950 . S
C1364 C1363 1.524 . S
C1364 C1365 1.415 . S
C1365 H1335 0.950 . S
C1365 C1360 1.363 . S
C1365 C1364 1.415 . S
H1366 C1363 0.999 . S
H1367 C1348 0.913 . S
C187 C8 1.285 . S
C202 C148 1.286 . S
C237 C162 1.285 . S
C252 C22 1.286 . S
C287 C36 1.285 . S
C302 C92 1.287 . S
C337 C50 1.287 . S
C352 C106 1.285 . S
C387 C64 1.285 . S
C402 C120 1.287 . S
C437 C134 1.285 . S
C452 C78 1.286 . S
C487 C13 1.487 . S
C502 C125 1.486 . S
C537 C27 1.486 . S
C552 C139 1.485 . S
C587 C153 1.485 . S
C602 C41 1.486 . S
C637 C55 1.485 . S
C652 C167 1.486 . S
C687 C69 1.484 . S
C702 C97 1.486 . S
C737 C83 1.486 . S
C752 C111 1.485 . S
C787 C147 0.705 . S
C802 C7 0.705 . S
C837 C21 0.705 . S
C852 C161 0.705 . S
C887 C35 0.705 . S
C902 C91 0.705 . S
C937 C49 0.705 . S
C952 C105 0.705 . S
C987 C119 0.704 . S
C1002 C63 0.705 . S
C1037 C77 0.704 . S
C1052 C133 0.705 . S
C1087 C11 1.357 1_556 S
C1102 C165 1.356 . S
C1137 C95 1.355 . S
C1152 C25 1.355 . S
C1187 C109 1.356 . S
C1202 C39 1.355 . S
C1237 C123 1.355 . S
C1252 C53 1.355 . S
C1287 C137 1.356 . S
C1302 C67 1.356 . S
C1337 C151 1.356 . S
C1352 C81 1.356 . S
