# Generated by pormake.
# Topology rkf, (6)-cn, num edge types: 1
# Building blocks:
#     Node 0, Type 0, BuildingBlock: INOVEN_clean_sbu_0, # of connection points: 6
#     Node 1, Type 0, BuildingBlock: INOVEN_clean_sbu_0, # of connection points: 6
#     Node 2, Type 0, BuildingBlock: INOVEN_clean_sbu_0, # of connection points: 6
#     Node 3, Type 0, BuildingBlock: INOVEN_clean_sbu_0, # of connection points: 6
#     Node 4, Type 0, BuildingBlock: INOVEN_clean_sbu_0, # of connection points: 6
#     Node 5, Type 0, BuildingBlock: INOVEN_clean_sbu_0, # of connection points: 6
#     Edge 6, Type (0, 0), BuildingBlock: XIVTED_clean_linker_0, # of connection points: 2
#     Edge 7, Type (0, 0), BuildingBlock: XIVTED_clean_linker_0, # of connection points: 2
#     Edge 8, Type (0, 0), BuildingBlock: XIVTED_clean_linker_0, # of connection points: 2
#     Edge 9, Type (0, 0), BuildingBlock: XIVTED_clean_linker_0, # of connection points: 2
#     Edge 10, Type (0, 0), BuildingBlock: XIVTED_clean_linker_0, # of connection points: 2
#     Edge 11, Type (0, 0), BuildingBlock: XIVTED_clean_linker_0, # of connection points: 2
#     Edge 12, Type (0, 0), BuildingBlock: XIVTED_clean_linker_0, # of connection points: 2
#     Edge 13, Type (0, 0), BuildingBlock: XIVTED_clean_linker_0, # of connection points: 2
#     Edge 14, Type (0, 0), BuildingBlock: XIVTED_clean_linker_0, # of connection points: 2
#     Edge 15, Type (0, 0), BuildingBlock: XIVTED_clean_linker_0, # of connection points: 2
#     Edge 16, Type (0, 0), BuildingBlock: XIVTED_clean_linker_0, # of connection points: 2
#     Edge 17, Type (0, 0), BuildingBlock: XIVTED_clean_linker_0, # of connection points: 2
#     Edge 18, Type (0, 0), BuildingBlock: XIVTED_clean_linker_0, # of connection points: 2
#     Edge 19, Type (0, 0), BuildingBlock: XIVTED_clean_linker_0, # of connection points: 2
#     Edge 20, Type (0, 0), BuildingBlock: XIVTED_clean_linker_0, # of connection points: 2
#     Edge 21, Type (0, 0), BuildingBlock: XIVTED_clean_linker_0, # of connection points: 2
#     Edge 22, Type (0, 0), BuildingBlock: XIVTED_clean_linker_0, # of connection points: 2
#     Edge 23, Type (0, 0), BuildingBlock: XIVTED_clean_linker_0, # of connection points: 2
# Relax obj value: 0.682
# Max RMSD: 0.253
# Mean RMSD: 0.253
data_MOF--net-rkf--node1-INOVEN_clean_sbu_0--edge1-XIVTED_clean_linker_0
_symmetry_space_group_name_H-M    P1
_symmetry_Int_Tables_number       1
_symmetry_cell_setting            triclinic
loop_
_symmetry_equiv_pos_as_xyz
'x, y, z'
_cell_length_a     24.69135
_cell_length_b     24.961632
_cell_length_c     45.997578
_cell_angle_alpha  89.522592
_cell_angle_beta   89.718543
_cell_angle_gamma 120.69965
loop_
_atom_site_label
_atom_site_type_symbol
_atom_site_fract_x
_atom_site_fract_y
_atom_site_fract_z
_atom_type_partial_charge
Gd0 Gd 0.25156 0.05823 0.15067 0.0
Gd1 Gd 0.37648 0.15996 0.14204 0.0
C2 C 0.31299 0.16026 0.20462 0.0
C3 C 0.15203 0.95745 0.16835 0.0
C4 C 0.12687 0.88971 0.16759 0.0
C5 C 0.16165 0.86435 0.179 0.0
C6 C 0.06482 0.84943 0.15873 0.0
C7 C 0.06766 0.76084 0.17973 0.0
C8 C 0.03573 0.78534 0.16429 0.0
C9 C 0.13238 0.80078 0.18514 0.0
C10 C 0.25859 0.15966 1.12514 0.0
C11 C 0.29947 0.06597 1.08635 0.0
C12 C 0.4843 0.25449 1.12609 0.0
C13 C 0.5148 0.29091 1.09968 0.0
C14 C 0.55719 0.35512 1.10186 0.0
C15 C 0.49789 0.2636 1.07223 0.0
C16 C 0.56022 0.36574 1.04927 0.0
C17 C 0.52072 0.30071 1.04721 0.0
C18 C 0.5797 0.39241 1.07681 0.0
C19 C 0.37404 0.06054 0.16788 0.0
O20 O 0.2675 0.10424 0.19617 0.0
O21 O 0.36044 0.19399 0.18617 0.0
O22 O 0.20178 -0.01013 0.18439 0.0
O23 O 0.15398 -0.01447 0.14393 0.0
O24 O 0.21655 0.10308 1.1187 0.0
O25 O 0.2894 0.15933 0.14641 0.0
O26 O 0.3409 0.12466 1.09427 0.0
O27 O 0.26667 0.02548 1.10727 0.0
O28 O 0.47264 0.19724 1.127 0.0
O29 O 0.43754 0.25951 0.13605 0.0
O30 O 0.40466 0.11694 0.17741 0.0
O31 O 0.3412 0.05846 0.14643 0.0
H32 H 0.21025 0.89412 0.18535 0.0
H33 H 0.03754 0.86788 0.1492 0.0
H34 H -0.01323 0.75599 0.1585 0.0
H35 H 0.15959 0.78485 0.19679 0.0
H36 H 0.5706 0.37682 1.12297 0.0
H37 H 0.46483 0.21414 1.07013 0.0
H38 H 0.50382 0.2789 1.02633 0.0
H39 H 0.61002 0.44233 1.07899 0.0
Gd40 Gd 0.27616 0.2994 0.4796 0.0
Gd41 Gd 0.24217 0.39214 0.46157 0.0
C42 C 0.21843 0.34968 0.53055 0.0
C43 C 0.33803 0.25469 0.50396 0.0
C44 C 0.37725 0.27782 0.53011 0.0
C45 C 0.35128 0.28359 0.55626 0.0
C46 C 0.44293 0.30457 0.5277 0.0
C47 C 0.45599 0.34659 0.57627 0.0
C48 C 0.48206 0.33847 0.55069 0.0
C49 C 0.39021 0.31774 0.57901 0.0
C50 C 0.16038 0.24948 0.45635 0.0
C51 C 0.28168 0.32004 0.41023 0.0
C52 C 0.19933 0.46082 0.4421 0.0
C53 C 0.17535 0.47672 0.41654 0.0
C54 C 0.14508 0.51077 0.42038 0.0
C55 C 0.17949 0.45625 0.38883 0.0
C56 C 0.1194 0.50068 0.36916 0.0
C57 C 0.15185 0.4684 0.36522 0.0
C58 C 0.11713 0.5226 0.39686 0.0
C59 C 0.35737 0.4426 0.48582 0.0
O60 O 0.25331 0.32452 0.52444 0.0
O61 O 0.20245 0.37455 0.50885 0.0
O62 O 0.27688 0.22931 0.50754 0.0
O63 O 0.36021 0.29353 0.48184 0.0
O64 O 0.19553 0.22477 0.45427 0.0
O65 O 0.18512 0.2949 0.47324 0.0
O66 O 0.26116 0.35953 0.41631 0.0
O67 O 0.29416 0.29289 0.43186 0.0
O68 O 0.25914 0.47862 0.44199 0.0
O69 O 0.16343 0.40485 0.453 0.0
O70 O 0.31748 0.46039 0.4911 0.0
O71 O 0.33429 0.39891 0.46772 0.0
H72 H 0.30095 0.26347 0.5589 0.0
H73 H 0.46409 0.3013 0.50761 0.0
H74 H 0.53257 0.35942 0.54826 0.0
H75 H 0.36864 0.32131 0.59891 0.0
H76 H 0.14171 0.52689 0.44174 0.0
H77 H 0.20252 0.4296 0.38565 0.0
H78 H 0.1534 0.45008 0.34417 0.0
H79 H 0.09264 0.54773 0.40043 0.0
Gd80 Gd 0.10943 0.32099 0.81479 0.0
Gd81 Gd -0.00966 0.31552 0.80629 0.0
C82 C 0.01048 0.27194 0.87028 0.0
C83 C 0.22382 0.35159 0.82647 0.0
C84 C 0.27447 0.3796 0.84775 0.0
C85 C 0.26299 0.36818 0.87765 0.0
C86 C 0.33626 0.41804 0.83744 0.0
C87 C 0.3758 0.43035 0.88657 0.0
C88 C 0.38655 0.44331 0.85666 0.0
C89 C 0.31339 0.39332 0.89695 0.0
C90 C 0.01666 0.21171 0.79352 0.0
C91 C 0.07987 0.3309 0.74751 0.0
C92 C 0.87967 0.29328 0.79139 0.0
C93 C 0.82431 0.23665 0.78099 0.0
C94 C 0.77196 0.23829 0.77064 0.0
C95 C 0.82618 0.18168 0.77904 0.0
C96 C 0.72721 0.13236 0.75291 0.0
C97 C 0.77816 0.13001 0.76513 0.0
C98 C 0.72347 0.18632 0.75678 0.0
C99 C 0.08243 0.4276 0.82642 0.0
O100 O 0.07129 0.30468 0.86255 0.0
O101 O 0.96803 0.26099 0.84989 0.0
O102 O 0.1753 0.29608 0.83209 0.0
O103 O 0.20871 0.38941 0.81411 0.0
O104 O 0.07548 0.23677 0.78614 0.0
O105 O 0.01113 0.24245 0.81335 0.0
O106 O 0.02264 0.31549 0.75776 0.0
O107 O 0.12426 0.34114 0.76634 0.0
O108 O 0.92812 0.31708 0.7737 0.0
O109 O 0.89525 0.29106 0.81821 0.0
O110 O 0.02416 0.40022 0.83451 0.0
O111 O 0.0883 0.39575 0.80702 0.0
H112 H 0.21546 0.33889 0.886 0.0
H113 H 0.34575 0.42767 0.81436 0.0
H114 H 0.4339 0.47216 0.84805 0.0
H115 H 0.3036 0.38172 0.91985 0.0
H116 H 0.76986 0.28048 0.77215 0.0
H117 H 0.86652 0.1799 0.78692 0.0
H118 H 0.78355 0.08998 0.76219 0.0
H119 H 0.68458 0.18941 0.74794 0.0
Gd120 Gd 0.82334 0.09352 0.14808 0.0
Gd121 Gd 0.82911 -0.01301 0.13436 0.0
C122 C 0.84232 0.01543 0.20232 0.0
C123 C 0.79103 0.1763 0.1551 0.0
C124 C 0.81725 0.23403 0.17167 0.0
C125 C 0.88235 0.26954 0.17622 0.0
C126 C 0.77783 0.25394 0.18313 0.0
C127 C 0.8685 0.34337 0.20454 0.0
C128 C 0.80328 0.30824 0.19964 0.0
C129 C 0.90771 0.32375 0.19233 0.0
C130 C 0.94344 0.1237 0.15107 0.0
C131 C 0.85741 0.08384 1.07928 0.0
C132 C 0.82835 0.88707 1.11999 0.0
C133 C 0.84016 0.8456 1.10231 0.0
C134 C 0.79705 0.7815 1.1046 0.0
C135 C 0.89303 0.86763 1.08406 0.0
C136 C 0.85822 0.76095 1.06985 0.0
C137 C 0.902 0.82547 1.06788 0.0
C138 C 0.80596 0.7395 1.08857 0.0
C139 C 0.71206 0.9675 0.14734 0.0
O140 O 0.81669 0.04976 0.19483 0.0
O141 O 0.86184 -0.00584 0.181 0.0
O142 O 0.8267 0.17754 0.13381 0.0
O143 O 0.76584 0.12426 0.17018 0.0
O144 O 0.91609 0.14052 0.16996 0.0
O145 O 0.90429 0.087 0.13275 0.0
O146 O 0.85374 0.03083 1.08782 0.0
O147 O 0.84636 0.11615 1.09893 0.0
O148 O 0.78481 0.89886 1.11187 0.0
O149 O 0.87486 0.93249 0.1341 0.0
O150 O 0.7373 0.94119 0.16156 0.0
O151 O 0.75165 0.00622 1.12994 0.0
H152 H 0.91366 0.25482 0.16774 0.0
H153 H 0.72744 0.227 0.17973 0.0
H154 H 0.77203 0.32211 0.20901 0.0
H155 H 0.95788 0.34865 0.19639 0.0
H156 H 0.75626 0.76382 1.11888 0.0
H157 H 0.92682 0.91708 1.08215 0.0
H158 H 0.9423 0.84348 1.05331 0.0
H159 H 0.77189 0.69019 1.09085 0.0
Gd160 Gd 0.88498 0.89761 0.48468 0.0
Gd161 Gd 0.94066 0.82316 0.46454 0.0
C162 C 0.95587 0.85921 0.53376 0.0
C163 C 0.81426 0.9353 0.50699 0.0
C164 C 0.77625 0.92744 0.53306 0.0
C165 C 0.71736 0.9222 0.52969 0.0
C166 C 0.79816 0.9269 0.56106 0.0
C167 C 0.70511 0.92237 0.58213 0.0
C168 C 0.76292 0.92454 0.58541 0.0
C169 C 0.68197 0.91952 0.55398 0.0
C170 C 0.00347 0.96525 0.46309 0.0
C171 C 0.88324 0.88164 0.4145 0.0
C172 C 0.00417 0.7784 0.44073 0.0
C173 C -0.00064 0.73866 0.41628 0.0
C174 C 0.94334 0.68267 0.41045 0.0
C175 C 0.05193 0.75788 0.39815 0.0
C176 C -0.00851 0.66823 0.36715 0.0
C177 C 0.04808 0.72325 0.37381 0.0
C178 C 0.93955 0.6476 0.38616 0.0
C179 C 0.81977 0.75274 0.48319 0.0
O180 O 0.90883 0.86956 0.52886 0.0
O181 O -0.01718 0.84883 0.51094 0.0
O182 O 0.87569 0.96572 0.50961 0.0
O183 O 0.79295 0.88668 0.49028 0.0
O184 O 0.96101 0.98088 0.46054 0.0
O185 O -0.01709 0.91776 0.47917 0.0
O186 O 0.91012 0.84744 0.4201 0.0
O187 O 0.86641 0.90407 0.43658 0.0
O188 O 0.96488 0.75143 0.46248 0.0
O189 O 0.01264 0.83323 0.43399 0.0
O190 O 0.86257 0.7383 0.48726 0.0
O191 O 0.84217 0.80201 0.46806 0.0
H192 H 0.69942 0.92179 0.50818 0.0
H193 H 0.84324 0.93021 0.56414 0.0
H194 H 0.78257 0.92761 0.60675 0.0
H195 H 0.63731 0.91699 0.55072 0.0
H196 H 0.90212 0.66665 0.42427 0.0
H197 H 0.09562 0.80083 0.40236 0.0
H198 H 0.08872 0.74157 0.35945 0.0
H199 H 0.89548 0.60522 0.38187 0.0
Gd200 Gd 0.10182 0.83122 0.81462 0.0
Gd201 Gd 0.20261 0.95778 0.80318 0.0
C202 C 0.17404 0.92293 0.871 0.0
C203 C 0.03241 0.71143 0.81988 0.0
C204 C -0.00546 0.66875 0.84386 0.0
C205 C 0.93875 0.66534 0.8534 0.0
C206 C 0.0177 0.63616 0.85946 0.0
C207 C 0.93798 0.6092 0.897 0.0
C208 C -0.01019 0.60677 0.8859 0.0
C209 C 0.91075 0.63583 0.8797 0.0
C210 C 0.06145 0.91081 0.82282 0.0
C211 C 0.11371 0.88443 0.74684 0.0
C212 C 0.29153 0.07009 0.79202 0.0
C213 C 0.33079 0.12895 0.77601 0.0
C214 C 0.36519 0.13067 0.75131 0.0
C215 C 0.34141 0.18517 0.7879 0.0
C216 C 0.42182 0.24391 0.75119 0.0
C217 C 0.38624 0.24231 0.77542 0.0
C218 C 0.41024 0.18752 0.73907 0.0
C219 C 0.23646 0.87033 0.81089 0.0
O220 O 0.14465 0.86393 0.86151 0.0
O221 O 0.19091 0.96796 0.85147 0.0
O222 O 0.01222 0.74642 0.80873 0.0
O223 O 0.09345 0.74205 0.82368 0.0
O224 O 0.04742 0.86405 0.84011 0.0
O225 O 0.09895 0.91501 0.80292 0.0
O226 O 0.16253 0.93747 0.75641 0.0
O227 O 0.08328 0.83642 0.76542 0.0
O228 O 0.29265 0.02056 0.78384 0.0
O229 O 0.23916 0.05801 0.80515 0.0
O230 O 0.25886 0.92002 0.82631 0.0
O231 O 0.19435 0.86753 0.79508 0.0
H232 H 0.91894 0.689 0.84164 0.0
H233 H 0.05983 0.63694 0.85214 0.0
H234 H 0.01123 0.58573 0.89851 0.0
H235 H 0.87108 0.63899 0.88757 0.0
H236 H 0.3584 0.08818 0.74175 0.0
H237 H 0.31616 0.18494 0.80728 0.0
H238 H 0.39373 0.28512 0.78492 0.0
H239 H 0.43551 0.18726 0.7198 0.0
H240 H 0.03938 0.21451 0.18277 0.0
H241 H 0.22255 0.1828 1.07279 0.0
H242 H -0.01174 0.14537 1.09555 0.0
H243 H 0.29135 0.26399 0.15662 0.0
H244 H 0.17312 0.24543 1.06777 0.0
H245 H 0.14531 0.29047 0.16494 0.0
C246 C 0.05059 0.21532 0.15991 0.0
C247 C 0.00676 0.1708 0.141 0.0
C248 C 0.20045 0.25107 1.08707 0.0
C249 C 0.12654 0.25795 1.12028 0.0
C250 C 0.2282 0.21483 1.08988 0.0
C251 C 0.2552 0.2141 1.11635 0.0
C252 C 0.1924 0.27773 1.11241 0.0
C253 C 0.26568 0.25944 0.13688 0.0
C254 C 0.11044 0.25956 0.14957 0.0
C255 C 0.02189 0.17619 1.1113 0.0
N256 N 0.23201 0.28844 0.13502 0.0
N257 N 0.08066 0.21824 1.10197 0.0
H258 H 0.00894 0.93057 0.40484 0.0
H259 H 0.03258 0.17912 0.46561 0.0
H260 H 0.12789 0.05694 0.4692 0.0
H261 H 0.16254 0.28352 0.39696 0.0
H262 H -0.01692 0.0901 0.4336 0.0
H263 H 0.01648 0.01754 0.3761 0.0
C264 C 0.03756 0.97707 0.41276 0.0
C265 C 0.05599 -0.01241 0.44203 0.0
C266 C 0.0223 0.13323 0.4251 0.0
C267 C 0.0782 0.08626 0.40707 0.0
C268 C 0.05029 0.18454 0.44353 0.0
C269 C 0.10928 0.23527 0.43578 0.0
C270 C 0.05924 0.13221 0.40187 0.0
C271 C 0.12559 0.24055 0.40615 0.0
C272 C 0.04336 0.02646 0.39585 0.0
C273 C 0.10588 0.04704 0.44808 0.0
N274 N 0.10449 0.18773 0.39058 0.0
N275 N 0.11329 0.09537 0.43136 0.0
H276 H -0.00697 0.93758 0.86061 0.0
H277 H 0.00503 0.14222 0.74627 0.0
H278 H 0.01473 0.91083 0.76978 0.0
H279 H 0.92151 0.13254 0.83006 0.0
H280 H 0.95852 0.02977 0.74775 0.0
H281 H 0.92377 0.9771 0.84729 0.0
C282 C -0.01746 0.93954 0.83792 0.0
C283 C 0.01284 0.92568 0.81611 0.0
C284 C 0.9486 0.0516 0.7656 0.0
C285 C 0.9339 0.96956 0.8006 0.0
C286 C 0.97545 0.11591 0.76465 0.0
C287 C 0.97045 0.14619 0.78895 0.0
C288 C 0.92166 0.01945 0.79196 0.0
C289 C 0.92927 0.11053 0.81161 0.0
C290 C 0.94228 0.96106 0.83024 0.0
C291 C -0.00451 0.9254 0.78712 0.0
N292 N 0.90845 0.04877 0.81324 0.0
N293 N 0.95811 0.94838 0.78013 0.0
H294 H 0.59411 0.35169 0.99431 0.0
H295 H 0.48577 0.43099 0.8769 0.0
H296 H 0.54818 0.4681 1.04491 0.0
H297 H 0.38849 0.47558 0.94179 0.0
H298 H 0.56372 0.44508 0.91294 0.0
H299 H 0.57562 0.3936 0.95011 0.0
C300 C 0.58232 0.38783 0.99601 0.0
C301 C 0.57104 0.40524 1.02324 0.0
C302 C 0.52546 0.45187 0.91936 0.0
C303 C 0.54979 0.45395 0.97275 0.0
C304 C 0.48129 0.44471 0.89864 0.0
C305 C 0.42936 0.45023 0.90661 0.0
C306 C 0.51685 0.4635 0.94833 0.0
C307 C 0.42647 0.46862 0.935 0.0
C308 C 0.5721 0.41229 0.97069 0.0
C309 C 0.55678 0.45286 1.02433 0.0
N310 N 0.46897 0.47354 0.95497 0.0
N311 N 0.54475 0.47426 0.99944 0.0
H312 H -0.00167 0.47621 0.37106 0.0
H313 H 0.97811 0.45608 0.19936 0.0
H314 H 0.15641 0.53479 0.31255 0.0
H315 H 0.82186 0.34702 0.25797 0.0
H316 H 0.03937 0.51988 0.24018 0.0
H317 H 0.93162 0.46307 0.32942 0.0
C318 C 0.01935 0.48781 0.34951 0.0
C319 C 0.08261 0.50534 0.34508 0.0
C320 C -0.00898 0.48313 0.24392 0.0
C321 C 0.00661 0.48974 0.2976 0.0
C322 C 0.95604 0.44684 0.22067 0.0
C323 C 0.89575 0.39486 0.22557 0.0
C324 C 0.96527 0.46725 0.27209 0.0
C325 C 0.86861 0.38599 0.25335 0.0
C326 C -0.01884 0.47987 0.3258 0.0
C327 C 0.10747 0.51976 0.31676 0.0
N328 N 0.90421 0.42091 0.2758 0.0
N329 N 0.06913 0.51075 0.29399 0.0
H330 H 0.67915 0.00553 0.75639 0.0
H331 H 0.64997 -0.00664 0.58549 0.0
H332 H 0.68103 0.14765 0.70147 0.0
H333 H 0.68905 0.87204 0.6372 0.0
H334 H 0.62022 0.02575 0.62953 0.0
H335 H 0.64227 0.93453 0.71525 0.0
C336 C 0.67037 0.02139 0.73593 0.0
C337 C 0.68549 0.08347 0.73214 0.0
C338 C 0.63397 -0.009 0.6312 0.0
C339 C 0.64294 0.00241 0.68518 0.0
C340 C 0.65064 0.97209 0.606 0.0
C341 C 0.67359 0.93099 0.6077 0.0
C342 C 0.64095 0.96926 0.65834 0.0
C343 C 0.67353 0.90533 0.63499 0.0
C344 C 0.64916 0.98074 0.71249 0.0
C345 C 0.67095 0.10064 0.70545 0.0
N346 N 0.65876 0.92584 0.65933 0.0
N347 N 0.65187 0.06079 0.68282 0.0
H348 H 0.76588 0.66106 1.04067 0.0
H349 H 0.01699 0.63959 0.94321 0.0
H350 H 0.96582 0.75917 1.05678 0.0
H351 H 0.81987 0.55353 0.92227 0.0
H352 H -0.00724 0.654 0.99275 0.0
H353 H 0.77962 0.59621 1.00558 0.0
C354 C 0.81257 0.66822 1.03725 0.0
C355 C 0.86505 0.71649 1.05127 0.0
C356 C 0.95449 0.63056 0.97755 0.0
C357 C 0.88112 0.64285 1.01078 0.0
C358 C 0.96817 0.62154 0.94923 0.0
C359 C 0.92058 0.59701 0.92827 0.0
C360 C 0.89301 0.6156 0.9848 0.0
C361 C 0.85829 0.57456 0.93753 0.0
C362 C 0.82036 0.6312 1.01713 0.0
C363 C 0.92436 0.72367 1.04585 0.0
N364 N 0.84647 0.58589 0.96495 0.0
N365 N 0.93091 0.68785 1.02572 0.0
H366 H 0.07916 0.65225 0.33724 0.0
H367 H 0.94462 0.70167 0.2 0.0
H368 H 0.88892 0.61612 0.33129 0.0
H369 H 0.10731 0.67974 0.19814 0.0
H370 H 0.90731 0.63714 0.24305 0.0
H371 H 0.07896 0.63541 0.28515 0.0
C372 C 0.0368 0.63942 0.32514 0.0
C373 C -0.01501 0.63835 0.33851 0.0
C374 C 0.95058 0.64514 0.23295 0.0
C375 C -0.01622 0.61722 0.27891 0.0
C376 C 0.97204 0.682 0.20785 0.0
C377 C 0.03207 0.70059 0.19628 0.0
C378 C -0.0098 0.62849 0.24706 0.0
C379 C 0.06322 0.671 0.20752 0.0
C380 C 0.03649 0.62918 0.29538 0.0
C381 C 0.93045 0.61857 0.32197 0.0
N382 N 0.04354 0.63885 0.23311 0.0
N383 N 0.93181 0.61025 0.29291 0.0
H384 H 0.54096 0.28197 0.73136 0.0
H385 H 0.45071 0.43368 0.60989 0.0
H386 H 0.4045 0.34056 0.73682 0.0
H387 H 0.55085 0.33516 0.6001 0.0
H388 H 0.48456 0.45475 0.6604 0.0
H389 H 0.59319 0.35561 0.69114 0.0
C390 C 0.5233 0.31195 0.72471 0.0
C391 C 0.46658 0.30313 0.73629 0.0
C392 C 0.50117 0.43057 0.64692 0.0
C393 C 0.52519 0.38625 0.69026 0.0
C394 C 0.48166 0.41833 0.61814 0.0
C395 C 0.49549 0.37997 0.60143 0.0
C396 C 0.5333 0.40292 0.65899 0.0
C397 C 0.5375 0.36322 0.61262 0.0
C398 C 0.55325 0.35412 0.70185 0.0
C399 C 0.447 0.34454 0.72779 0.0
N400 N 0.55335 0.37308 0.6411 0.0
N401 N 0.47511 0.38305 0.70457 0.0
H402 H 0.44373 0.05469 0.21235 0.0
H403 H 0.63632 0.97186 1.10664 0.0
H404 H 0.37585 0.98219 1.12698 0.0
H405 H 0.64762 0.95025 0.19904 0.0
H406 H 0.54001 0.97501 1.11419 0.0
H407 H 0.51592 0.01452 0.20966 0.0
C408 C 0.44277 0.02877 0.19339 0.0
C409 C 0.40408 0.0222 0.16976 0.0
C410 C 0.56271 0.96843 0.13284 0.0
C411 C 0.48771 0.97779 0.16622 0.0
C412 C 0.61778 0.96682 1.12854 0.0
C413 C 0.64962 0.96057 0.15225 0.0
C414 C 0.5402 0.96585 0.1612 0.0
C415 C 0.62396 0.95457 0.1802 0.0
C416 C 0.48409 0.00602 0.19184 0.0
C417 C 0.4049 -0.01154 0.14567 0.0
N418 N 0.57129 0.95865 0.184 0.0
N419 N 0.44711 0.96881 0.14424 0.0
H420 H 0.45288 0.41771 0.4781 0.0
H421 H 0.72124 0.77208 0.47515 0.0
H422 H 0.41746 0.56356 0.50274 0.0
H423 H 0.7632 0.62969 0.4988 0.0
H424 H 0.60868 0.69506 0.47959 0.0
H425 H 0.56677 0.49288 0.48059 0.0
C426 C 0.46903 0.46527 0.48426 0.0
C427 C 0.42576 0.48453 0.49007 0.0
C428 C 0.64261 0.68087 0.48405 0.0
C429 C 0.55515 0.57058 0.49226 0.0
C430 C 0.70682 0.72485 0.48157 0.0
C431 C 0.75163 0.70747 0.4869 0.0
C432 C 0.62304 0.61869 0.49115 0.0
C433 C 0.73016 0.64513 0.49465 0.0
C434 C 0.53384 0.50803 0.48569 0.0
C435 C 0.44914 0.54671 0.49801 0.0
N436 N 0.66734 0.60274 0.49622 0.0
N437 N 0.51217 0.58771 0.49843 0.0
H438 H 0.08218 0.50199 0.86948 0.0
H439 H 0.24977 0.79913 0.77137 0.0
H440 H 0.17919 0.50749 0.7903 0.0
H441 H 0.22953 0.81403 0.86352 0.0
H442 H 0.23067 0.69393 0.77896 0.0
H443 H 0.14146 0.61626 0.87003 0.0
C444 C 0.11662 0.52734 0.85244 0.0
C445 C 0.12522 0.49543 0.82958 0.0
C446 C 0.23198 0.72055 0.7977 0.0
C447 C 0.19149 0.62579 0.82955 0.0
C448 C 0.24314 0.78067 0.79335 0.0
C449 C 0.24164 0.81512 0.81687 0.0
C450 C 0.21692 0.69374 0.82569 0.0
C451 C 0.23182 0.789 0.8449 0.0
C452 C 0.15042 0.59248 0.85276 0.0
C453 C 0.17073 0.53032 0.80818 0.0
N454 N 0.21823 0.72906 0.84849 0.0
N455 N 0.20112 0.59364 0.80832 0.0
H456 H 0.37136 0.28389 0.22405 0.0
H457 H 0.25877 0.20501 0.3925 0.0
H458 H 0.24494 0.09702 0.255 0.0
H459 H 0.31133 0.38409 0.35536 0.0
H460 H 0.26511 0.16815 0.34401 0.0
H461 H 0.36233 0.32375 0.2718 0.0
C462 C 0.34188 0.25082 0.24076 0.0
C463 C 0.30906 0.18621 0.23465 0.0
C464 C 0.27546 0.21561 0.34622 0.0
C465 C 0.29907 0.23281 0.29094 0.0
C466 C 0.27207 0.23719 0.37427 0.0
C467 C 0.28467 0.29855 0.37896 0.0
C468 C 0.29339 0.25542 0.32162 0.0
C469 C 0.30092 0.33657 0.35355 0.0
C470 C 0.3365 0.27399 0.26826 0.0
C471 C 0.27142 0.14695 0.25793 0.0
N472 N 0.30551 0.31489 0.32649 0.0
N473 N 0.26817 0.17048 0.28457 0.0
H474 H 0.26508 0.32947 0.58184 0.0
H475 H 0.01346 0.3307 0.69694 0.0
H476 H 0.12186 0.36717 0.55352 0.0
H477 H 0.1848 0.33752 0.72164 0.0
H478 H 0.0451 0.33664 0.64514 0.0
H479 H 0.23047 0.32503 0.63234 0.0
C480 C 0.22613 0.33669 0.58597 0.0
C481 C 0.19701 0.34874 0.56242 0.0
C482 C 0.07586 0.33687 0.66189 0.0
C483 C 0.15541 0.343 0.62211 0.0
C484 C 0.05757 0.33331 0.69178 0.0
C485 C 0.09605 0.33373 0.71465 0.0
C486 C 0.13305 0.33999 0.65405 0.0
C487 C 0.15286 0.33725 0.70555 0.0
C488 C 0.20624 0.33427 0.61524 0.0
C489 C 0.14668 0.358 0.57033 0.0
N490 N 0.16893 0.33985 0.67663 0.0
N491 N 0.1276 0.35459 0.59902 0.0
H492 H 0.07036 0.31677 0.92388 0.0
H493 H 0.83834 0.02173 1.02621 0.0
H494 H 0.9011 0.16348 0.88911 0.0
H495 H 0.92822 0.20771 1.05982 0.0
H496 H 0.87375 0.06606 0.97669 0.0
H497 H 0.03362 0.27282 0.97336 0.0
C498 C 0.02562 0.27374 0.92639 0.0
C499 C -0.0108 0.24471 0.90148 0.0
C500 C 0.88588 0.09736 0.99484 0.0
C501 C 0.94673 0.19198 0.9594 0.0
C502 C 0.8656 0.07187 1.02343 0.0
C503 C 0.8792 0.11033 1.04801 0.0
C504 C 0.92266 0.16255 0.99009 0.0
C505 C 0.91537 0.17536 1.04207 0.0
C506 C 0.00441 0.24856 0.95495 0.0
C507 C 0.93132 0.18859 0.9071 0.0
N508 N 0.93609 0.19886 1.01429 0.0
N509 N 0.91271 0.16419 0.9349 0.0
H510 H 0.89354 0.94542 0.22207 0.0
H511 H 0.83142 0.95254 0.39577 0.0
H512 H 0.80496 0.04179 0.25682 0.0
H513 H 0.9171 0.85453 0.35978 0.0
H514 H 0.82158 -0.01488 0.34642 0.0
H515 H 0.90244 0.91326 0.27147 0.0
C516 C 0.87584 0.96033 0.23993 0.0
C517 C 0.84833 -0.00275 0.23417 0.0
C518 C 0.84236 0.9563 0.34908 0.0
C519 C 0.85875 0.95888 0.2929 0.0
C520 C 0.84799 0.93715 0.37765 0.0
C521 C 0.8748 0.89946 0.38297 0.0
C522 C 0.86374 0.93853 0.3245 0.0
C523 C 0.89552 0.88271 0.35763 0.0
C524 C 0.88105 0.94148 0.26856 0.0
C525 C 0.8267 0.01382 0.25929 0.0
N526 N 0.88961 0.90206 0.33009 0.0
N527 N 0.83232 -0.0052 0.287 0.0
H528 H 0.07496 0.88651 0.55303 0.0
H529 H -0.00735 0.81077 0.72444 0.0
H530 H 0.89324 0.83893 0.58746 0.0
H531 H 0.17988 0.94716 0.69571 0.0
H532 H 0.95508 0.8052 0.67427 0.0
H533 H 0.11318 0.89371 0.60325 0.0
C534 C 0.04259 0.87701 0.57096 0.0
C535 C -0.01991 0.86194 0.56512 0.0
C536 C 0.00449 0.83628 0.67878 0.0
C537 C 0.0244 0.86904 0.62416 0.0
C538 C 0.02635 0.83937 0.70771 0.0
C539 C 0.09022 0.87957 0.71518 0.0
C540 C 0.04651 0.87218 0.65602 0.0
C541 C 0.13039 0.91542 0.69172 0.0
C542 C 0.06483 0.88148 0.59994 0.0
C543 C 0.94163 0.85079 0.59014 0.0
N544 N 0.10833 0.91033 0.66367 0.0
N545 N 0.96385 0.85379 0.61799 0.0
H546 H 0.2434 0.04149 0.89391 0.0
H547 H 0.22447 0.94632 1.06478 0.0
H548 H 0.14779 0.85026 0.92325 0.0
H549 H 0.33738 0.13509 1.03317 0.0
H550 H 0.19468 0.91105 1.01456 0.0
H551 H 0.27478 0.07521 0.94399 0.0
C552 C 0.22847 0.00596 0.91072 0.0
C553 C 0.19204 0.94209 0.90325 0.0
C554 C 0.22616 0.96021 1.01837 0.0
C555 C 0.22926 0.9822 0.96278 0.0
C556 C 0.24364 0.98086 1.04743 0.0
C557 C 0.28446 0.04455 1.05424 0.0
C558 C 0.24857 0.00293 0.99479 0.0
C559 C 0.30642 0.08568 1.02984 0.0
C560 C 0.24694 0.02579 0.93974 0.0
C561 C 0.17548 0.89983 0.92707 0.0
N562 N 0.28823 0.06444 1.00178 0.0
N563 N 0.19379 0.92042 0.95524 0.0
loop_
_geom_bond_atom_site_label_1
_geom_bond_atom_site_label_2
_geom_bond_distance
_geom_bond_site_symmetry_2
_ccdc_geom_bond_type
Gd0 C3 2.818 . S
Gd0 O20 2.377 . S
Gd0 O22 2.448 . S
Gd0 O23 2.506 . S
Gd0 O24 2.435 . S
Gd0 O25 2.717 . S
Gd0 O27 2.395 1_554 S
Gd0 O31 2.327 . S
Gd1 C12 2.818 . S
Gd1 O21 2.395 1_556 S
Gd1 O25 2.327 1_556 S
Gd1 O26 2.377 . S
Gd1 O28 2.448 . S
Gd1 O29 2.506 . S
Gd1 O30 2.435 . S
Gd1 O31 2.717 1_556 S
C2 O20 1.240 . S
C2 O21 1.240 . S
C3 Gd0 2.818 . S
C3 C4 1.510 . S
C3 O22 1.249 . S
C3 O23 1.252 . S
C4 C3 1.510 . S
C4 C5 1.404 . S
C4 C6 1.352 . S
C5 C4 1.404 . S
C5 C9 1.389 . S
C5 H32 0.930 . S
C6 C4 1.352 . S
C6 C8 1.374 . S
C6 H33 0.931 . S
C7 C8 1.359 . S
C7 C9 1.364 . S
C8 C6 1.374 . S
C8 C7 1.359 . S
C8 H34 0.931 . S
C9 C5 1.389 . S
C9 C7 1.364 . S
C9 H35 0.931 1_545 S
C10 O24 1.256 . S
C10 O25 1.257 . S
C11 O26 1.240 . S
C11 O27 1.240 . S
C12 Gd1 2.818 . S
C12 C13 1.510 . S
C12 O28 1.249 . S
C12 O29 1.252 . S
C13 C12 1.510 . S
C13 C14 1.404 . S
C13 C15 1.352 . S
C14 C13 1.404 . S
C14 C18 1.389 . S
C14 H36 0.930 . S
C15 C13 1.352 . S
C15 C17 1.374 . S
C15 H37 0.931 . S
C16 C17 1.359 . S
C16 C18 1.364 . S
C17 C15 1.374 . S
C17 C16 1.359 . S
C17 H38 0.931 . S
C18 C14 1.389 . S
C18 C16 1.364 . S
C18 H39 0.931 . S
C19 O30 1.256 1_554 S
C19 O31 1.257 . S
O20 Gd0 2.377 . S
O20 C2 1.240 . S
O21 Gd1 2.395 1_554 S
O21 C2 1.240 . S
O22 Gd0 2.448 . S
O22 C3 1.249 . S
O23 Gd0 2.506 . S
O23 C3 1.252 . S
O24 Gd0 2.435 . S
O24 C10 1.256 . S
O25 Gd0 2.717 . S
O25 Gd1 2.327 1_554 S
O25 C10 1.257 . S
O26 Gd1 2.377 . S
O26 C11 1.240 . S
O27 Gd0 2.395 1_556 S
O27 C11 1.240 . S
O28 Gd1 2.448 . S
O28 C12 1.249 . S
O29 Gd1 2.506 . S
O29 C12 1.252 . S
O30 Gd1 2.435 . S
O30 C19 1.256 1_556 S
O31 Gd0 2.327 . S
O31 Gd1 2.717 1_554 S
O31 C19 1.257 . S
H32 C5 0.930 . S
H33 C6 0.931 . S
H34 C8 0.931 . S
H35 C9 0.931 1_565 S
H36 C14 0.930 . S
H37 C15 0.931 . S
H38 C17 0.931 . S
H39 C18 0.931 . S
Gd40 C43 2.818 . S
Gd40 O60 2.377 . S
Gd40 O62 2.448 . S
Gd40 O63 2.506 . S
Gd40 O64 2.435 . S
Gd40 O65 2.717 . S
Gd40 O67 2.395 . S
Gd40 O71 2.327 . S
Gd41 C52 2.818 . S
Gd41 O61 2.395 . S
Gd41 O65 2.327 . S
Gd41 O66 2.377 . S
Gd41 O68 2.448 . S
Gd41 O69 2.506 . S
Gd41 O70 2.435 . S
Gd41 O71 2.717 . S
C42 O60 1.240 . S
C42 O61 1.240 . S
C43 Gd40 2.818 . S
C43 C44 1.510 . S
C43 O62 1.249 . S
C43 O63 1.252 . S
C44 C43 1.510 . S
C44 C45 1.404 . S
C44 C46 1.352 . S
C45 C44 1.404 . S
C45 C49 1.389 . S
C45 H72 0.930 . S
C46 C44 1.352 . S
C46 C48 1.374 . S
C46 H73 0.931 . S
C47 C48 1.359 . S
C47 C49 1.364 . S
C48 C46 1.374 . S
C48 C47 1.359 . S
C48 H74 0.931 . S
C49 C45 1.389 . S
C49 C47 1.364 . S
C49 H75 0.931 . S
C50 O64 1.256 . S
C50 O65 1.257 . S
C51 O66 1.240 . S
C51 O67 1.240 . S
C52 Gd41 2.818 . S
C52 C53 1.510 . S
C52 O68 1.249 . S
C52 O69 1.252 . S
C53 C52 1.510 . S
C53 C54 1.404 . S
C53 C55 1.352 . S
C54 C53 1.404 . S
C54 C58 1.389 . S
C54 H76 0.930 . S
C55 C53 1.352 . S
C55 C57 1.374 . S
C55 H77 0.931 . S
C56 C57 1.359 . S
C56 C58 1.364 . S
C57 C55 1.374 . S
C57 C56 1.359 . S
C57 H78 0.931 . S
C58 C54 1.389 . S
C58 C56 1.364 . S
C58 H79 0.931 . S
C59 O70 1.256 . S
C59 O71 1.257 . S
O60 Gd40 2.377 . S
O60 C42 1.240 . S
O61 Gd41 2.395 . S
O61 C42 1.240 . S
O62 Gd40 2.448 . S
O62 C43 1.249 . S
O63 Gd40 2.506 . S
O63 C43 1.252 . S
O64 Gd40 2.435 . S
O64 C50 1.256 . S
O65 Gd40 2.717 . S
O65 Gd41 2.327 . S
O65 C50 1.257 . S
O66 Gd41 2.377 . S
O66 C51 1.240 . S
O67 Gd40 2.395 . S
O67 C51 1.240 . S
O68 Gd41 2.448 . S
O68 C52 1.249 . S
O69 Gd41 2.506 . S
O69 C52 1.252 . S
O70 Gd41 2.435 . S
O70 C59 1.256 . S
O71 Gd40 2.327 . S
O71 Gd41 2.717 . S
O71 C59 1.257 . S
H72 C45 0.930 . S
H73 C46 0.931 . S
H74 C48 0.931 . S
H75 C49 0.931 . S
H76 C54 0.930 . S
H77 C55 0.931 . S
H78 C57 0.931 . S
H79 C58 0.931 . S
Gd80 C83 2.818 . S
Gd80 O100 2.377 1_455 S
Gd80 O102 2.448 . S
Gd80 O103 2.506 . S
Gd80 O104 2.435 . S
Gd80 O105 2.717 1_455 S
Gd80 O107 2.395 . S
Gd80 O111 2.327 . S
Gd81 C92 2.818 . S
Gd81 O101 2.395 . S
Gd81 O105 2.327 . S
Gd81 O106 2.377 1_655 S
Gd81 O108 2.448 . S
Gd81 O109 2.506 . S
Gd81 O110 2.435 . S
Gd81 O111 2.717 1_655 S
C82 O100 1.240 . S
C82 O101 1.240 . S
C83 Gd80 2.818 . S
C83 C84 1.510 . S
C83 O102 1.249 . S
C83 O103 1.252 . S
C84 C83 1.510 . S
C84 C85 1.404 . S
C84 C86 1.352 . S
C85 C84 1.404 . S
C85 C89 1.389 . S
C85 H112 0.930 . S
C86 C84 1.352 . S
C86 C88 1.374 . S
C86 H113 0.931 . S
C87 C88 1.359 . S
C87 C89 1.364 . S
C88 C86 1.374 . S
C88 C87 1.359 . S
C88 H114 0.931 . S
C89 C85 1.389 . S
C89 C87 1.364 . S
C89 H115 0.931 . S
C90 O104 1.256 . S
C90 O105 1.257 1_455 S
C91 O106 1.240 . S
C91 O107 1.240 . S
C92 Gd81 2.818 . S
C92 C93 1.510 . S
C92 O108 1.249 . S
C92 O109 1.252 . S
C93 C92 1.510 . S
C93 C94 1.404 . S
C93 C95 1.352 . S
C94 C93 1.404 . S
C94 C98 1.389 . S
C94 H116 0.930 . S
C95 C93 1.352 . S
C95 C97 1.374 . S
C95 H117 0.931 . S
C96 C97 1.359 . S
C96 C98 1.364 . S
C97 C95 1.374 . S
C97 C96 1.359 . S
C97 H118 0.931 . S
C98 C94 1.389 . S
C98 C96 1.364 . S
C98 H119 0.931 . S
C99 O110 1.256 . S
C99 O111 1.257 1_655 S
O100 Gd80 2.377 1_655 S
O100 C82 1.240 . S
O101 Gd81 2.395 . S
O101 C82 1.240 . S
O102 Gd80 2.448 . S
O102 C83 1.249 . S
O103 Gd80 2.506 . S
O103 C83 1.252 . S
O104 Gd80 2.435 . S
O104 C90 1.256 . S
O105 Gd80 2.717 1_655 S
O105 Gd81 2.327 . S
O105 C90 1.257 1_655 S
O106 Gd81 2.377 1_455 S
O106 C91 1.240 . S
O107 Gd80 2.395 . S
O107 C91 1.240 . S
O108 Gd81 2.448 . S
O108 C92 1.249 . S
O109 Gd81 2.506 . S
O109 C92 1.252 . S
O110 Gd81 2.435 . S
O110 C99 1.256 . S
O111 Gd80 2.327 . S
O111 Gd81 2.717 1_455 S
O111 C99 1.257 1_455 S
H112 C85 0.930 . S
H113 C86 0.931 . S
H114 C88 0.931 . S
H115 C89 0.931 . S
H116 C94 0.930 . S
H117 C95 0.931 . S
H118 C97 0.931 . S
H119 C98 0.931 . S
Gd120 C123 2.818 . S
Gd120 O140 2.393 . S
Gd120 O142 2.448 . S
Gd120 O143 2.506 . S
Gd120 O144 2.435 . S
Gd120 O145 2.715 . S
Gd120 O147 2.395 1_554 S
Gd120 O151 2.327 . S
Gd121 C132 2.818 . S
Gd121 O141 2.395 1_556 S
Gd121 O145 2.328 1_566 S
Gd121 O146 2.377 1_565 S
Gd121 O148 2.448 . S
Gd121 O149 2.506 . S
Gd121 O150 2.435 . S
Gd121 O151 2.717 1_566 S
C122 O140 1.226 1_565 S
C122 O141 1.240 . S
C123 Gd120 2.818 . S
C123 C124 1.510 . S
C123 O142 1.249 . S
C123 O143 1.252 . S
C124 C123 1.510 . S
C124 C125 1.404 . S
C124 C126 1.352 . S
C125 C124 1.404 . S
C125 C129 1.389 . S
C125 H152 0.930 . S
C126 C124 1.352 . S
C126 C128 1.374 . S
C126 H153 0.931 . S
C127 C128 1.359 . S
C127 C129 1.364 . S
C128 C126 1.374 . S
C128 C127 1.359 . S
C128 H154 0.931 . S
C129 C125 1.389 . S
C129 C127 1.364 . S
C129 H155 0.931 . S
C130 O144 1.256 . S
C130 O145 1.257 . S
C131 O146 1.240 . S
C131 O147 1.240 . S
C132 Gd121 2.818 . S
C132 C133 1.510 . S
C132 O148 1.249 . S
C132 O149 1.252 . S
C133 C132 1.510 . S
C133 C134 1.404 . S
C133 C135 1.352 . S
C134 C133 1.404 . S
C134 C138 1.389 . S
C134 H156 0.930 . S
C135 C133 1.352 . S
C135 C137 1.374 . S
C135 H157 0.931 . S
C136 C137 1.359 . S
C136 C138 1.364 . S
C137 C135 1.374 . S
C137 C136 1.359 . S
C137 H158 0.931 . S
C138 C134 1.389 . S
C138 C136 1.364 . S
C138 H159 0.931 . S
C139 O150 1.256 1_554 S
C139 O151 1.257 1_565 S
O140 Gd120 2.393 . S
O140 C122 1.226 1_545 S
O141 Gd121 2.395 1_554 S
O141 C122 1.240 . S
O142 Gd120 2.448 . S
O142 C123 1.249 . S
O143 Gd120 2.506 . S
O143 C123 1.252 . S
O144 Gd120 2.435 . S
O144 C130 1.256 . S
O145 Gd120 2.715 . S
O145 Gd121 2.328 1_544 S
O145 C130 1.257 . S
O146 Gd121 2.377 1_545 S
O146 C131 1.240 . S
O147 Gd120 2.395 1_556 S
O147 C131 1.240 . S
O148 Gd121 2.448 . S
O148 C132 1.249 . S
O149 Gd121 2.506 . S
O149 C132 1.252 . S
O150 Gd121 2.435 . S
O150 C139 1.256 1_556 S
O151 Gd120 2.327 . S
O151 Gd121 2.717 1_544 S
O151 C139 1.257 1_545 S
H152 C125 0.930 . S
H153 C126 0.931 . S
H154 C128 0.931 . S
H155 C129 0.931 . S
H156 C134 0.930 . S
H157 C135 0.931 . S
H158 C137 0.931 . S
H159 C138 0.931 . S
Gd160 C163 2.818 . S
Gd160 O180 2.377 . S
Gd160 O182 2.448 . S
Gd160 O183 2.506 . S
Gd160 O184 2.435 . S
Gd160 O185 2.717 . S
Gd160 O187 2.395 . S
Gd160 O191 2.327 . S
Gd161 C172 2.818 1_655 S
Gd161 O181 2.395 . S
Gd161 O185 2.327 . S
Gd161 O186 2.377 . S
Gd161 O188 2.448 . S
Gd161 O189 2.506 1_655 S
Gd161 O190 2.435 . S
Gd161 O191 2.717 . S
C162 O180 1.240 . S
C162 O181 1.240 . S
C163 Gd160 2.818 . S
C163 C164 1.510 . S
C163 O182 1.249 . S
C163 O183 1.252 . S
C164 C163 1.510 . S
C164 C165 1.404 . S
C164 C166 1.352 . S
C165 C164 1.404 . S
C165 C169 1.389 . S
C165 H192 0.930 . S
C166 C164 1.352 . S
C166 C168 1.374 . S
C166 H193 0.931 . S
C167 C168 1.359 . S
C167 C169 1.364 . S
C168 C166 1.374 . S
C168 C167 1.359 . S
C168 H194 0.931 . S
C169 C165 1.389 . S
C169 C167 1.364 . S
C169 H195 0.931 . S
C170 O184 1.256 1_455 S
C170 O185 1.257 1_455 S
C171 O186 1.240 . S
C171 O187 1.240 . S
C172 Gd161 2.818 1_455 S
C172 C173 1.510 . S
C172 O188 1.249 1_455 S
C172 O189 1.252 . S
C173 C172 1.510 . S
C173 C174 1.404 . S
C173 C175 1.352 . S
C174 C173 1.404 . S
C174 C178 1.389 . S
C174 H196 0.930 1_455 S
C175 C173 1.352 . S
C175 C177 1.374 . S
C175 H197 0.931 . S
C176 C177 1.359 . S
C176 C178 1.364 . S
C177 C175 1.374 . S
C177 C176 1.359 . S
C177 H198 0.931 . S
C178 C174 1.389 . S
C178 C176 1.364 . S
C178 H199 0.931 . S
C179 O190 1.256 . S
C179 O191 1.257 . S
O180 Gd160 2.377 . S
O180 C162 1.240 . S
O181 Gd161 2.395 . S
O181 C162 1.240 . S
O182 Gd160 2.448 . S
O182 C163 1.249 . S
O183 Gd160 2.506 . S
O183 C163 1.252 . S
O184 Gd160 2.435 . S
O184 C170 1.256 1_655 S
O185 Gd160 2.717 . S
O185 Gd161 2.327 . S
O185 C170 1.257 1_655 S
O186 Gd161 2.377 . S
O186 C171 1.240 . S
O187 Gd160 2.395 . S
O187 C171 1.240 . S
O188 Gd161 2.448 . S
O188 C172 1.249 1_655 S
O189 Gd161 2.506 1_455 S
O189 C172 1.252 . S
O190 Gd161 2.435 . S
O190 C179 1.256 . S
O191 Gd160 2.327 . S
O191 Gd161 2.717 . S
O191 C179 1.257 . S
H192 C165 0.930 . S
H193 C166 0.931 . S
H194 C168 0.931 . S
H195 C169 0.931 . S
H196 C174 0.930 1_655 S
H197 C175 0.931 . S
H198 C177 0.931 . S
H199 C178 0.931 . S
Gd200 C203 2.818 . S
Gd200 O220 2.377 . S
Gd200 O222 2.448 . S
Gd200 O223 2.506 . S
Gd200 O224 2.435 . S
Gd200 O225 2.717 . S
Gd200 O227 2.395 . S
Gd200 O231 2.327 . S
Gd201 C212 2.818 1_565 S
Gd201 O221 2.395 . S
Gd201 O225 2.327 . S
Gd201 O226 2.377 . S
Gd201 O228 2.448 . S
Gd201 O229 2.506 1_565 S
Gd201 O230 2.435 . S
Gd201 O231 2.717 . S
C202 O220 1.240 . S
C202 O221 1.240 . S
C203 Gd200 2.818 . S
C203 C204 1.510 . S
C203 O222 1.249 . S
C203 O223 1.252 . S
C204 C203 1.510 . S
C204 C205 1.404 . S
C204 C206 1.352 . S
C205 C204 1.404 . S
C205 C209 1.389 . S
C205 H232 0.930 . S
C206 C204 1.352 . S
C206 C208 1.374 . S
C206 H233 0.931 . S
C207 C208 1.359 . S
C207 C209 1.364 . S
C208 C206 1.374 . S
C208 C207 1.359 . S
C208 H234 0.931 . S
C209 C205 1.389 . S
C209 C207 1.364 . S
C209 H235 0.931 1_455 S
C210 O224 1.256 1_545 S
C210 O225 1.257 1_545 S
C211 O226 1.240 . S
C211 O227 1.240 . S
C212 Gd201 2.818 1_545 S
C212 C213 1.510 . S
C212 O228 1.249 1_545 S
C212 O229 1.252 . S
C213 C212 1.510 . S
C213 C214 1.404 . S
C213 C215 1.352 . S
C214 C213 1.404 . S
C214 C218 1.389 . S
C214 H236 0.930 1_545 S
C215 C213 1.352 . S
C215 C217 1.374 . S
C215 H237 0.931 . S
C216 C217 1.359 . S
C216 C218 1.364 . S
C217 C215 1.374 . S
C217 C216 1.359 . S
C217 H238 0.931 . S
C218 C214 1.389 . S
C218 C216 1.364 . S
C218 H239 0.931 . S
C219 O230 1.256 . S
C219 O231 1.257 . S
O220 Gd200 2.377 . S
O220 C202 1.240 . S
O221 Gd201 2.395 . S
O221 C202 1.240 . S
O222 Gd200 2.448 . S
O222 C203 1.249 . S
O223 Gd200 2.506 . S
O223 C203 1.252 . S
O224 Gd200 2.435 . S
O224 C210 1.256 1_565 S
O225 Gd200 2.717 . S
O225 Gd201 2.327 . S
O225 C210 1.257 1_565 S
O226 Gd201 2.377 . S
O226 C211 1.240 . S
O227 Gd200 2.395 . S
O227 C211 1.240 . S
O228 Gd201 2.448 . S
O228 C212 1.249 1_565 S
O229 Gd201 2.506 1_545 S
O229 C212 1.252 . S
O230 Gd201 2.435 . S
O230 C219 1.256 . S
O231 Gd200 2.327 . S
O231 Gd201 2.717 . S
O231 C219 1.257 . S
H232 C205 0.930 . S
H233 C206 0.931 . S
H234 C208 0.931 . S
H235 C209 0.931 1_655 S
H236 C214 0.930 1_565 S
H237 C215 0.931 . S
H238 C217 0.931 . S
H239 C218 0.931 . S
H240 C246 0.930 . S
H241 C250 0.930 . S
H242 C255 0.929 . S
H243 C253 0.929 . S
H244 C248 0.929 . S
H245 C254 0.929 . S
C246 H240 0.930 . S
C246 C247 1.367 . S
C246 C254 1.378 1_655 S
C247 C246 1.367 . S
C247 C255 1.433 1_544 S
C248 H244 0.929 . S
C248 C250 1.378 . S
C248 C252 1.350 1_556 S
C249 C252 1.463 . S
C249 C254 1.350 . S
C249 N257 1.427 1_554 S
C250 H241 0.930 . S
C250 C248 1.378 . S
C250 C251 1.367 1_556 S
C251 C250 1.367 1_554 S
C251 C253 1.433 . S
C252 C248 1.350 1_554 S
C252 C249 1.463 . S
C252 N256 1.427 . S
C253 H243 0.929 . S
C253 C251 1.433 . S
C253 N256 1.384 . S
C254 H245 0.929 . S
C254 C246 1.378 1_455 S
C254 C249 1.350 . S
C255 H242 0.929 . S
C255 C247 1.433 1_566 S
C255 N257 1.384 1_665 S
N256 C252 1.427 . S
N256 C253 1.384 . S
N257 C249 1.427 1_556 S
N257 C255 1.384 1_445 S
H258 C264 0.922 1_655 S
H259 C268 0.930 . S
H260 C273 0.929 . S
H261 C271 0.929 . S
H262 C266 0.929 . S
H263 C272 0.929 . S
C264 H258 0.922 1_455 S
C264 C265 1.367 . S
C264 C272 1.378 1_565 S
C265 C264 1.367 . S
C265 C273 1.433 . S
C266 H262 0.929 . S
C266 C268 1.378 . S
C266 C270 1.350 . S
C267 C270 1.463 . S
C267 C272 1.350 . S
C267 N275 1.427 . S
C268 H259 0.930 . S
C268 C266 1.378 . S
C268 C269 1.367 . S
C269 C268 1.367 . S
C269 C271 1.433 . S
C270 C266 1.350 . S
C270 C267 1.463 . S
C270 N274 1.427 . S
C271 H261 0.929 . S
C271 C269 1.433 . S
C271 N274 1.384 . S
C272 H263 0.929 . S
C272 C264 1.378 1_545 S
C272 C267 1.350 . S
C273 H260 0.929 . S
C273 C265 1.433 . S
C273 N275 1.384 1_565 S
N274 C270 1.427 . S
N274 C271 1.384 . S
N275 C267 1.427 . S
N275 C273 1.384 1_545 S
H276 C282 0.930 1_565 S
H277 C286 0.930 . S
H278 C291 0.929 . S
H279 C289 0.929 . S
H280 C284 0.929 . S
H281 C290 0.929 . S
C282 H276 0.930 1_545 S
C282 C283 1.367 . S
C282 C290 1.378 . S
C283 C282 1.367 . S
C283 C291 1.433 . S
C284 H280 0.929 . S
C284 C286 1.378 . S
C284 C288 1.350 . S
C285 C288 1.463 . S
C285 C290 1.350 . S
C285 N293 1.427 . S
C286 H277 0.930 . S
C286 C284 1.378 . S
C286 C287 1.367 . S
C287 C286 1.367 . S
C287 C289 1.433 1_455 S
C288 C284 1.350 . S
C288 C285 1.463 . S
C288 N292 1.427 . S
C289 H279 0.929 . S
C289 C287 1.433 1_655 S
C289 N292 1.384 1_655 S
C290 H281 0.929 . S
C290 C282 1.378 . S
C290 C285 1.350 . S
C291 H278 0.929 . S
C291 C283 1.433 . S
C291 N293 1.384 . S
N292 C288 1.427 . S
N292 C289 1.384 1_455 S
N293 C285 1.427 . S
N293 C291 1.384 . S
H294 C300 0.930 . S
H295 C304 0.930 . S
H296 C309 0.929 . S
H297 C307 0.929 . S
H298 C302 0.929 . S
H299 C308 0.929 . S
C300 H294 0.930 . S
C300 C301 1.367 . S
C300 C308 1.378 . S
C301 C300 1.367 . S
C301 C309 1.433 . S
C302 H298 0.929 . S
C302 C304 1.378 . S
C302 C306 1.350 . S
C303 C306 1.463 . S
C303 C308 1.350 . S
C303 N311 1.427 . S
C304 H295 0.930 . S
C304 C302 1.378 . S
C304 C305 1.367 . S
C305 C304 1.367 . S
C305 C307 1.433 . S
C306 C302 1.350 . S
C306 C303 1.463 . S
C306 N310 1.427 . S
C307 H297 0.929 . S
C307 C305 1.433 . S
C307 N310 1.384 . S
C308 H299 0.929 . S
C308 C300 1.378 . S
C308 C303 1.350 . S
C309 H296 0.929 . S
C309 C301 1.433 . S
C309 N311 1.384 . S
N310 C306 1.427 . S
N310 C307 1.384 . S
N311 C303 1.427 . S
N311 C309 1.384 . S
H312 C318 0.930 . S
H313 C322 0.930 . S
H314 C327 0.929 . S
H315 C325 0.929 . S
H316 C320 0.929 1_455 S
H317 C326 0.929 . S
C318 H312 0.930 . S
C318 C319 1.367 . S
C318 C326 1.378 . S
C319 C318 1.367 . S
C319 C327 1.433 . S
C320 H316 0.929 1_655 S
C320 C322 1.378 . S
C320 C324 1.350 . S
C321 C324 1.463 1_455 S
C321 C326 1.350 . S
C321 N329 1.427 . S
C322 H313 0.930 . S
C322 C320 1.378 . S
C322 C323 1.367 . S
C323 C322 1.367 . S
C323 C325 1.433 . S
C324 C320 1.350 . S
C324 C321 1.463 1_655 S
C324 N328 1.427 . S
C325 H315 0.929 . S
C325 C323 1.433 . S
C325 N328 1.384 . S
C326 H317 0.929 . S
C326 C318 1.378 . S
C326 C321 1.350 . S
C327 H314 0.929 . S
C327 C319 1.433 . S
C327 N329 1.384 . S
N328 C324 1.427 . S
N328 C325 1.384 . S
N329 C321 1.427 . S
N329 C327 1.384 . S
H330 C336 0.930 . S
H331 C340 0.930 . S
H332 C345 0.929 . S
H333 C343 0.929 . S
H334 C338 0.929 1_545 S
H335 C344 0.929 . S
C336 H330 0.930 . S
C336 C337 1.367 . S
C336 C344 1.378 . S
C337 C336 1.367 . S
C337 C345 1.433 . S
C338 H334 0.929 1_565 S
C338 C340 1.378 . S
C338 C342 1.350 . S
C339 C342 1.463 1_545 S
C339 C344 1.350 . S
C339 N347 1.427 . S
C340 H331 0.930 . S
C340 C338 1.378 . S
C340 C341 1.367 . S
C341 C340 1.367 . S
C341 C343 1.433 . S
C342 C338 1.350 . S
C342 C339 1.463 1_565 S
C342 N346 1.427 . S
C343 H333 0.929 . S
C343 C341 1.433 . S
C343 N346 1.384 . S
C344 H335 0.929 . S
C344 C336 1.378 . S
C344 C339 1.350 . S
C345 H332 0.929 . S
C345 C337 1.433 . S
C345 N347 1.384 . S
N346 C342 1.427 . S
N346 C343 1.384 . S
N347 C339 1.427 . S
N347 C345 1.384 . S
H348 C354 0.930 . S
H349 C358 0.930 . S
H350 C363 0.929 . S
H351 C361 0.929 . S
H352 C356 0.929 . S
H353 C362 0.929 . S
C354 H348 0.930 . S
C354 C355 1.367 . S
C354 C362 1.378 . S
C355 C354 1.367 . S
C355 C363 1.433 . S
C356 H352 0.929 . S
C356 C358 1.378 1_655 S
C356 C360 1.350 . S
C357 C360 1.463 . S
C357 C362 1.350 . S
C357 N365 1.427 . S
C358 H349 0.930 . S
C358 C356 1.378 1_455 S
C358 C359 1.367 . S
C359 C358 1.367 . S
C359 C361 1.433 1_455 S
C360 C356 1.350 . S
C360 C357 1.463 . S
C360 N364 1.427 . S
C361 H351 0.929 . S
C361 C359 1.433 1_655 S
C361 N364 1.384 . S
C362 H353 0.929 . S
C362 C354 1.378 . S
C362 C357 1.350 . S
C363 H350 0.929 . S
C363 C355 1.433 . S
C363 N365 1.384 . S
N364 C360 1.427 . S
N364 C361 1.384 . S
N365 C357 1.427 . S
N365 C363 1.384 . S
H366 C372 0.930 . S
H367 C376 0.930 1_545 S
H368 C381 0.929 . S
H369 C379 0.929 1_545 S
H370 C374 0.929 . S
H371 C380 0.929 . S
C372 H366 0.930 . S
C372 C373 1.367 . S
C372 C380 1.378 . S
C373 C372 1.367 . S
C373 C381 1.433 . S
C374 H370 0.929 . S
C374 C376 1.378 . S
C374 C378 1.350 . S
C375 C378 1.463 . S
C375 C380 1.350 . S
C375 N383 1.427 . S
C376 H367 0.930 1_565 S
C376 C374 1.378 . S
C376 C377 1.367 1_565 S
C377 C376 1.367 1_545 S
C377 C379 1.433 1_545 S
C378 C374 1.350 . S
C378 C375 1.463 . S
C378 N382 1.427 . S
C379 H369 0.929 1_565 S
C379 C377 1.433 1_565 S
C379 N382 1.384 . S
C380 H371 0.929 . S
C380 C372 1.378 . S
C380 C375 1.350 . S
C381 H368 0.929 . S
C381 C373 1.433 . S
C381 N383 1.384 . S
N382 C378 1.427 . S
N382 C379 1.384 . S
N383 C375 1.427 . S
N383 C381 1.384 . S
H384 C390 0.930 . S
H385 C394 0.930 . S
H386 C399 0.929 . S
H387 C397 0.929 . S
H388 C392 0.929 . S
H389 C398 0.929 . S
C390 H384 0.930 . S
C390 C391 1.367 . S
C390 C398 1.378 . S
C391 C390 1.367 . S
C391 C399 1.433 . S
C392 H388 0.929 . S
C392 C394 1.378 . S
C392 C396 1.350 . S
C393 C396 1.463 . S
C393 C398 1.350 . S
C393 N401 1.427 . S
C394 H385 0.930 . S
C394 C392 1.378 . S
C394 C395 1.367 . S
C395 C394 1.367 . S
C395 C397 1.433 . S
C396 C392 1.350 . S
C396 C393 1.463 . S
C396 N400 1.427 . S
C397 H387 0.929 . S
C397 C395 1.433 . S
C397 N400 1.384 . S
C398 H389 0.929 . S
C398 C390 1.378 . S
C398 C393 1.350 . S
C399 H386 0.929 . S
C399 C391 1.433 . S
C399 N401 1.384 . S
N400 C396 1.427 . S
N400 C397 1.384 . S
N401 C393 1.427 . S
N401 C399 1.384 . S
H402 C408 0.930 . S
H403 C412 0.930 . S
H404 C417 0.929 . S
H405 C415 0.929 1_565 S
H406 C410 0.929 . S
H407 C416 0.929 . S
C408 H402 0.930 . S
C408 C409 1.367 . S
C408 C416 1.378 . S
C409 C408 1.367 . S
C409 C417 1.433 1_554 S
C410 H406 0.929 . S
C410 C412 1.378 . S
C410 C414 1.350 1_556 S
C411 C414 1.463 . S
C411 C416 1.350 . S
C411 N419 1.427 1_554 S
C412 H403 0.930 . S
C412 C410 1.378 . S
C412 C413 1.367 1_556 S
C413 C412 1.367 1_554 S
C413 C415 1.433 . S
C414 C410 1.350 1_554 S
C414 C411 1.463 . S
C414 N418 1.427 . S
C415 H405 0.929 1_545 S
C415 C413 1.433 . S
C415 N418 1.384 . S
C416 H407 0.929 . S
C416 C408 1.378 . S
C416 C411 1.350 . S
C417 H404 0.929 . S
C417 C409 1.433 1_556 S
C417 N419 1.384 . S
N418 C414 1.427 . S
N418 C415 1.384 . S
N419 C411 1.427 1_556 S
N419 C417 1.384 . S
H420 C426 0.930 . S
H421 C430 0.930 . S
H422 C435 0.929 . S
H423 C433 0.929 . S
H424 C428 0.929 . S
H425 C434 0.929 . S
C426 H420 0.930 . S
C426 C427 1.367 . S
C426 C434 1.378 . S
C427 C426 1.367 . S
C427 C435 1.433 . S
C428 H424 0.929 . S
C428 C430 1.378 . S
C428 C432 1.350 . S
C429 C432 1.463 . S
C429 C434 1.350 . S
C429 N437 1.427 . S
C430 H421 0.930 . S
C430 C428 1.378 . S
C430 C431 1.367 . S
C431 C430 1.367 . S
C431 C433 1.433 . S
C432 C428 1.350 . S
C432 C429 1.463 . S
C432 N436 1.427 . S
C433 H423 0.929 . S
C433 C431 1.433 . S
C433 N436 1.384 . S
C434 H425 0.929 . S
C434 C426 1.378 . S
C434 C429 1.350 . S
C435 H422 0.929 . S
C435 C427 1.433 . S
C435 N437 1.384 . S
N436 C432 1.427 . S
N436 C433 1.384 . S
N437 C429 1.427 . S
N437 C435 1.384 . S
H438 C444 0.930 1_655 S
H439 C448 0.930 . S
H440 C453 0.929 . S
H441 C451 0.929 . S
H442 C446 0.929 . S
H443 C452 0.929 . S
C444 H438 0.930 1_455 S
C444 C445 1.367 . S
C444 C452 1.378 . S
C445 C444 1.367 . S
C445 C453 1.433 . S
C446 H442 0.929 . S
C446 C448 1.378 . S
C446 C450 1.350 . S
C447 C450 1.463 . S
C447 C452 1.350 . S
C447 N455 1.427 . S
C448 H439 0.930 . S
C448 C446 1.378 . S
C448 C449 1.367 . S
C449 C448 1.367 . S
C449 C451 1.433 . S
C450 C446 1.350 . S
C450 C447 1.463 . S
C450 N454 1.427 . S
C451 H441 0.929 . S
C451 C449 1.433 . S
C451 N454 1.384 . S
C452 H443 0.929 . S
C452 C444 1.378 . S
C452 C447 1.350 . S
C453 H440 0.929 . S
C453 C445 1.433 . S
C453 N455 1.384 . S
N454 C450 1.427 . S
N454 C451 1.384 . S
N455 C447 1.427 . S
N455 C453 1.384 . S
H456 C462 0.930 . S
H457 C466 0.930 . S
H458 C471 0.929 . S
H459 C469 0.929 . S
H460 C464 0.929 . S
H461 C470 0.929 . S
C462 H456 0.930 . S
C462 C463 1.367 . S
C462 C470 1.378 . S
C463 C462 1.367 . S
C463 C471 1.433 . S
C464 H460 0.929 . S
C464 C466 1.378 . S
C464 C468 1.350 . S
C465 C468 1.463 . S
C465 C470 1.350 . S
C465 N473 1.427 . S
C466 H457 0.930 . S
C466 C464 1.378 . S
C466 C467 1.367 . S
C467 C466 1.367 . S
C467 C469 1.433 . S
C468 C464 1.350 . S
C468 C465 1.463 . S
C468 N472 1.427 . S
C469 H459 0.929 . S
C469 C467 1.433 . S
C469 N472 1.384 . S
C470 H461 0.929 . S
C470 C462 1.378 . S
C470 C465 1.350 . S
C471 H458 0.929 . S
C471 C463 1.433 . S
C471 N473 1.384 . S
N472 C468 1.427 . S
N472 C469 1.384 . S
N473 C465 1.427 . S
N473 C471 1.384 . S
H474 C480 0.930 . S
H475 C484 0.930 . S
H476 C489 0.929 . S
H477 C487 0.929 . S
H478 C482 0.929 . S
H479 C488 0.929 . S
C480 H474 0.930 . S
C480 C481 1.367 . S
C480 C488 1.378 . S
C481 C480 1.367 . S
C481 C489 1.433 . S
C482 H478 0.929 . S
C482 C484 1.378 . S
C482 C486 1.350 . S
C483 C486 1.463 . S
C483 C488 1.350 . S
C483 N491 1.427 . S
C484 H475 0.930 . S
C484 C482 1.378 . S
C484 C485 1.367 . S
C485 C484 1.367 . S
C485 C487 1.433 . S
C486 C482 1.350 . S
C486 C483 1.463 . S
C486 N490 1.427 . S
C487 H477 0.929 . S
C487 C485 1.433 . S
C487 N490 1.384 . S
C488 H479 0.929 . S
C488 C480 1.378 . S
C488 C483 1.350 . S
C489 H476 0.929 . S
C489 C481 1.433 . S
C489 N491 1.384 . S
N490 C486 1.427 . S
N490 C487 1.384 . S
N491 C483 1.427 . S
N491 C489 1.384 . S
H492 C498 0.930 1_455 S
H493 C502 0.930 . S
H494 C507 0.929 . S
H495 C505 0.929 . S
H496 C500 0.929 . S
H497 C506 0.929 . S
C498 H492 0.930 1_655 S
C498 C499 1.367 . S
C498 C506 1.378 . S
C499 C498 1.367 . S
C499 C507 1.433 . S
C500 H496 0.929 . S
C500 C502 1.378 . S
C500 C504 1.350 . S
C501 C504 1.463 . S
C501 C506 1.350 . S
C501 N509 1.427 . S
C502 H493 0.930 . S
C502 C500 1.378 . S
C502 C503 1.367 . S
C503 C502 1.367 . S
C503 C505 1.433 . S
C504 C500 1.350 . S
C504 C501 1.463 . S
C504 N508 1.427 . S
C505 H495 0.929 . S
C505 C503 1.433 . S
C505 N508 1.384 . S
C506 H497 0.929 . S
C506 C498 1.378 . S
C506 C501 1.350 . S
C507 H494 0.929 . S
C507 C499 1.433 . S
C507 N509 1.384 . S
N508 C504 1.427 . S
N508 C505 1.384 . S
N509 C501 1.427 . S
N509 C507 1.384 . S
H510 C516 0.930 . S
H511 C520 0.930 . S
H512 C525 0.929 1_545 S
H513 C523 0.929 . S
H514 C518 0.929 . S
H515 C524 0.929 . S
C516 H510 0.930 . S
C516 C517 1.367 . S
C516 C524 1.378 . S
C517 C516 1.367 . S
C517 C525 1.433 . S
C518 H514 0.929 . S
C518 C520 1.378 . S
C518 C522 1.350 . S
C519 C522 1.463 . S
C519 C524 1.350 . S
C519 N527 1.427 . S
C520 H511 0.930 . S
C520 C518 1.378 . S
C520 C521 1.367 . S
C521 C520 1.367 . S
C521 C523 1.433 . S
C522 C518 1.350 . S
C522 C519 1.463 . S
C522 N526 1.427 . S
C523 H513 0.929 . S
C523 C521 1.433 . S
C523 N526 1.384 . S
C524 H515 0.929 . S
C524 C516 1.378 . S
C524 C519 1.350 . S
C525 H512 0.929 1_565 S
C525 C517 1.433 . S
C525 N527 1.384 . S
N526 C522 1.427 . S
N526 C523 1.384 . S
N527 C519 1.427 . S
N527 C525 1.384 . S
H528 C534 0.930 . S
H529 C538 0.930 . S
H530 C543 0.929 1_655 S
H531 C541 0.929 . S
H532 C536 0.929 . S
H533 C542 0.929 . S
C534 H528 0.930 . S
C534 C535 1.367 . S
C534 C542 1.378 . S
C535 C534 1.367 . S
C535 C543 1.433 . S
C536 H532 0.929 . S
C536 C538 1.378 . S
C536 C540 1.350 . S
C537 C540 1.463 . S
C537 C542 1.350 . S
C537 N545 1.427 . S
C538 H529 0.930 . S
C538 C536 1.378 . S
C538 C539 1.367 . S
C539 C538 1.367 . S
C539 C541 1.433 . S
C540 C536 1.350 . S
C540 C537 1.463 . S
C540 N544 1.427 . S
C541 H531 0.929 . S
C541 C539 1.433 . S
C541 N544 1.384 . S
C542 H533 0.929 . S
C542 C534 1.378 . S
C542 C537 1.350 . S
C543 H530 0.929 1_455 S
C543 C535 1.433 . S
C543 N545 1.384 . S
N544 C540 1.427 . S
N544 C541 1.384 . S
N545 C537 1.427 . S
N545 C543 1.384 . S
H546 C552 0.930 . S
H547 C556 0.930 . S
H548 C561 0.929 . S
H549 C559 0.929 . S
H550 C554 0.929 . S
H551 C560 0.929 . S
C552 H546 0.930 . S
C552 C553 1.367 . S
C552 C560 1.378 . S
C553 C552 1.367 . S
C553 C561 1.433 1_545 S
C554 H550 0.929 . S
C554 C556 1.378 . S
C554 C558 1.350 . S
C555 C558 1.463 . S
C555 C560 1.350 . S
C555 N563 1.427 . S
C556 H547 0.930 . S
C556 C554 1.378 . S
C556 C557 1.367 . S
C557 C556 1.367 . S
C557 C559 1.433 . S
C558 C554 1.350 . S
C558 C555 1.463 . S
C558 N562 1.427 . S
C559 H549 0.929 . S
C559 C557 1.433 . S
C559 N562 1.384 . S
C560 H551 0.929 . S
C560 C552 1.378 . S
C560 C555 1.350 . S
C561 H548 0.929 . S
C561 C553 1.433 1_565 S
C561 N563 1.384 1_565 S
N562 C558 1.427 . S
N562 C559 1.384 . S
N563 C555 1.427 . S
N563 C561 1.384 1_545 S
C247 C130 0.612 . S
C251 C10 0.621 . S
C265 C170 0.635 . S
C269 C50 0.617 . S
C283 C210 0.613 . S
C287 C90 0.623 . S
C301 C16 0.737 . S
C305 C87 0.757 . S
C319 C56 0.738 . S
C323 C127 0.740 . S
C337 C96 0.768 . S
C341 C167 0.754 . S
C355 C136 0.783 . S
C359 C207 0.778 . S
C373 C176 0.745 . S
C377 C7 0.741 . S
C391 C216 0.764 . S
C395 C47 0.751 . S
C409 C19 1.355 . S
C413 C139 1.345 1_545 S
C427 C59 1.353 . S
C431 C179 1.347 . S
C445 C99 1.361 1_455 S
C449 C219 1.351 . S
C463 C2 4.057 . S
C467 C51 4.110 . S
C481 C42 4.055 . S
C485 C91 4.108 . S
C499 C82 4.055 . S
C503 C131 4.108 . S
C517 C122 4.058 . S
C521 C171 4.110 . S
C535 C162 4.059 1_455 S
C539 C211 4.110 . S
C553 C202 4.058 1_545 S
C557 C11 4.110 . S
