# Generated by pormake.
# Topology lcy-e, (6)-cn, num edge types: 1
# Building blocks:
#     Node 0, Type 0, BuildingBlock: BETFAJ_clean_sbu_0, # of connection points: 6
#     Node 1, Type 0, BuildingBlock: BETFAJ_clean_sbu_0, # of connection points: 6
#     Node 2, Type 0, BuildingBlock: BETFAJ_clean_sbu_0, # of connection points: 6
#     Node 3, Type 0, BuildingBlock: BETFAJ_clean_sbu_0, # of connection points: 6
#     Node 4, Type 0, BuildingBlock: BETFAJ_clean_sbu_0, # of connection points: 6
#     Node 5, Type 0, BuildingBlock: BETFAJ_clean_sbu_0, # of connection points: 6
#     Node 6, Type 0, BuildingBlock: BETFAJ_clean_sbu_0, # of connection points: 6
#     Node 7, Type 0, BuildingBlock: BETFAJ_clean_sbu_0, # of connection points: 6
#     Node 8, Type 0, BuildingBlock: BETFAJ_clean_sbu_0, # of connection points: 6
#     Node 9, Type 0, BuildingBlock: BETFAJ_clean_sbu_0, # of connection points: 6
#     Node 10, Type 0, BuildingBlock: BETFAJ_clean_sbu_0, # of connection points: 6
#     Node 11, Type 0, BuildingBlock: BETFAJ_clean_sbu_0, # of connection points: 6
#     Edge 12, Type (0, 0), BuildingBlock: XUDNAN_clean_linker_2, # of connection points: 2
#     Edge 13, Type (0, 0), BuildingBlock: XUDNAN_clean_linker_2, # of connection points: 2
#     Edge 14, Type (0, 0), BuildingBlock: XUDNAN_clean_linker_2, # of connection points: 2
#     Edge 15, Type (0, 0), BuildingBlock: XUDNAN_clean_linker_2, # of connection points: 2
#     Edge 16, Type (0, 0), BuildingBlock: XUDNAN_clean_linker_2, # of connection points: 2
#     Edge 17, Type (0, 0), BuildingBlock: XUDNAN_clean_linker_2, # of connection points: 2
#     Edge 18, Type (0, 0), BuildingBlock: XUDNAN_clean_linker_2, # of connection points: 2
#     Edge 19, Type (0, 0), BuildingBlock: XUDNAN_clean_linker_2, # of connection points: 2
#     Edge 20, Type (0, 0), BuildingBlock: XUDNAN_clean_linker_2, # of connection points: 2
#     Edge 21, Type (0, 0), BuildingBlock: XUDNAN_clean_linker_2, # of connection points: 2
#     Edge 22, Type (0, 0), BuildingBlock: XUDNAN_clean_linker_2, # of connection points: 2
#     Edge 23, Type (0, 0), BuildingBlock: XUDNAN_clean_linker_2, # of connection points: 2
#     Edge 24, Type (0, 0), BuildingBlock: XUDNAN_clean_linker_2, # of connection points: 2
#     Edge 25, Type (0, 0), BuildingBlock: XUDNAN_clean_linker_2, # of connection points: 2
#     Edge 26, Type (0, 0), BuildingBlock: XUDNAN_clean_linker_2, # of connection points: 2
#     Edge 27, Type (0, 0), BuildingBlock: XUDNAN_clean_linker_2, # of connection points: 2
#     Edge 28, Type (0, 0), BuildingBlock: XUDNAN_clean_linker_2, # of connection points: 2
#     Edge 29, Type (0, 0), BuildingBlock: XUDNAN_clean_linker_2, # of connection points: 2
#     Edge 30, Type (0, 0), BuildingBlock: XUDNAN_clean_linker_2, # of connection points: 2
#     Edge 31, Type (0, 0), BuildingBlock: XUDNAN_clean_linker_2, # of connection points: 2
#     Edge 32, Type (0, 0), BuildingBlock: XUDNAN_clean_linker_2, # of connection points: 2
#     Edge 33, Type (0, 0), BuildingBlock: XUDNAN_clean_linker_2, # of connection points: 2
#     Edge 34, Type (0, 0), BuildingBlock: XUDNAN_clean_linker_2, # of connection points: 2
#     Edge 35, Type (0, 0), BuildingBlock: XUDNAN_clean_linker_2, # of connection points: 2
#     Edge 36, Type (0, 0), BuildingBlock: XUDNAN_clean_linker_2, # of connection points: 2
#     Edge 37, Type (0, 0), BuildingBlock: XUDNAN_clean_linker_2, # of connection points: 2
#     Edge 38, Type (0, 0), BuildingBlock: XUDNAN_clean_linker_2, # of connection points: 2
#     Edge 39, Type (0, 0), BuildingBlock: XUDNAN_clean_linker_2, # of connection points: 2
#     Edge 40, Type (0, 0), BuildingBlock: XUDNAN_clean_linker_2, # of connection points: 2
#     Edge 41, Type (0, 0), BuildingBlock: XUDNAN_clean_linker_2, # of connection points: 2
#     Edge 42, Type (0, 0), BuildingBlock: XUDNAN_clean_linker_2, # of connection points: 2
#     Edge 43, Type (0, 0), BuildingBlock: XUDNAN_clean_linker_2, # of connection points: 2
#     Edge 44, Type (0, 0), BuildingBlock: XUDNAN_clean_linker_2, # of connection points: 2
#     Edge 45, Type (0, 0), BuildingBlock: XUDNAN_clean_linker_2, # of connection points: 2
#     Edge 46, Type (0, 0), BuildingBlock: XUDNAN_clean_linker_2, # of connection points: 2
#     Edge 47, Type (0, 0), BuildingBlock: XUDNAN_clean_linker_2, # of connection points: 2
# Relax obj value: 0.202
# Max RMSD: 0.312
# Mean RMSD: 0.288
data_MOF--net-lcy-e--node1-BETFAJ_clean_sbu_0--edge1-XUDNAN_clean_linker_2
_symmetry_space_group_name_H-M    P1
_symmetry_Int_Tables_number       1
_symmetry_cell_setting            triclinic
loop_
_symmetry_equiv_pos_as_xyz
'x, y, z'
_cell_length_a     45.558195
_cell_length_b     42.029846
_cell_length_c     45.687911
_cell_angle_alpha  89.285438
_cell_angle_beta   90.787138
_cell_angle_gamma 88.429245
loop_
_atom_site_label
_atom_site_type_symbol
_atom_site_fract_x
_atom_site_fract_y
_atom_site_fract_z
_atom_type_partial_charge
Sm0 Sm 0.14222 0.2573 0.47359 0.0
Sm1 Sm 0.1572 0.2046 0.51675 0.0
C2 C 0.13948 0.30553 0.4355 0.0
C3 C 0.14976 0.31369 0.40607 0.0
C4 C 0.17188 0.29556 0.39238 0.0
C5 C 0.18177 0.30452 0.36462 0.0
C6 C 0.16971 0.33178 0.35028 0.0
C7 C 0.14704 0.34926 0.36391 0.0
C8 C 0.13723 0.34031 0.39153 0.0
C9 C 0.10547 0.20677 0.4701 0.0
C10 C 0.20049 0.20949 0.46225 0.0
C11 C 0.15733 0.15403 0.55191 0.0
C12 C 0.13839 0.13645 0.57206 0.0
C13 C 0.11274 0.12175 0.56224 0.0
C14 C 0.09645 0.10331 0.58153 0.0
C15 C 0.10542 0.09943 0.61096 0.0
C16 C 0.13083 0.11458 0.62072 0.0
C17 C 0.14714 0.1328 0.60147 0.0
C18 C 0.19094 0.25785 0.52256 0.0
C19 C 0.10822 0.25805 0.53552 0.0
O20 O 0.1595 0.30255 0.45619 0.0
O21 O 0.11956 0.28386 0.43705 0.0
O22 O 0.13315 0.2042 0.47313 0.0
O23 O 0.09684 0.23633 0.46794 0.0
O24 O 0.18564 0.23585 0.4546 0.0
O25 O 0.19229 0.19117 0.48401 0.0
O26 O 0.15118 0.15298 0.52388 0.0
O27 O 0.16602 0.18193 0.56032 0.0
O28 O 0.16375 0.25787 0.51767 0.0
O29 O 0.20116 0.22894 0.52665 0.0
O30 O 0.11591 0.22757 0.5373 0.0
O31 O 0.11851 0.27646 0.51446 0.0
H32 H 0.18171 0.27478 0.40329 0.0
H33 H 0.19932 0.29066 0.35475 0.0
H34 H 0.13691 0.37002 0.35323 0.0
H35 H 0.11996 0.35439 0.40166 0.0
H36 H 0.10543 0.12411 0.53964 0.0
H37 H 0.07687 0.09208 0.57345 0.0
H38 H 0.13862 0.11163 0.64312 0.0
H39 H 0.16698 0.1436 0.60948 0.0
Sm40 Sm 0.99986 0.85499 0.73436 0.0
Sm41 Sm 0.04579 0.8707 0.78178 0.0
C42 C 0.95954 0.85186 0.69198 0.0
C43 C 0.94574 0.87057 0.66768 0.0
C44 C 0.91748 0.86301 0.658 0.0
C45 C 0.90509 0.87775 0.63296 0.0
C46 C 0.92077 0.90038 0.61697 0.0
C47 C 0.94876 0.90872 0.62736 0.0
C48 C 0.96112 0.89398 0.65251 0.0
C49 C 0.04815 0.81449 0.73629 0.0
C50 C 0.03675 0.92143 0.72808 0.0
C51 C 0.09605 0.87814 0.81081 0.0
C52 C 0.12102 0.8595 0.82436 0.0
C53 C 0.12374 0.8572 0.85498 0.0
C54 C 0.14841 0.84218 0.86818 0.0
C55 C 0.17122 0.82929 0.85111 0.0
C56 C 0.16815 0.83091 0.82042 0.0
C57 C 0.1434 0.84587 0.8072 0.0
C58 C 0.98973 0.89319 0.7934 0.0
C59 C 1.00318 0.81433 0.79501 0.0
O60 O 0.95321 0.86003 0.71874 0.0
O61 O 0.98715 0.84337 0.68892 0.0
O62 O 0.04883 0.84434 0.73898 0.0
O63 O 0.02154 0.80527 0.73205 0.0
O64 O 0.02009 0.90057 0.71475 0.0
O65 O 0.04745 0.91649 0.75474 0.0
O66 O 0.09376 0.87867 0.78224 0.0
O67 O 0.07056 0.87709 0.82359 0.0
O68 O 1.00153 0.89263 0.7686 0.0
O69 O 1.00856 0.88462 0.81383 0.0
O70 O 0.03124 0.82118 0.79533 0.0
O71 O 0.98462 0.82786 0.77572 0.0
H72 H 0.90532 0.84489 0.6693 0.0
H73 H 0.88368 0.87043 0.62547 0.0
H74 H 0.96128 0.92635 0.61585 0.0
H75 H 0.98295 0.90028 0.65964 0.0
H76 H 0.10699 0.86757 0.86882 0.0
H77 H 0.14971 0.84093 0.89185 0.0
H78 H 0.18535 0.8216 0.80654 0.0
H79 H 0.1422 0.84739 0.78354 0.0
Sm80 Sm 0.39201 0.77342 0.01402 0.0
Sm81 Sm 0.40181 0.72098 0.963 0.0
C82 C 0.39632 0.80735 0.06228 0.0
C83 C 0.41601 0.82857 0.0788 0.0
C84 C 0.43528 0.81647 0.10076 0.0
C85 C 0.45089 0.83715 0.11868 0.0
C86 C 0.44741 0.87044 0.11523 0.0
C87 C 0.42897 0.88241 0.09253 0.0
C88 C 0.41343 0.86178 0.07464 0.0
C89 C 0.34728 0.77814 0.97189 0.0
C90 C 0.43845 0.78847 0.96141 0.0
C91 C 0.40527 0.69183 0.91188 0.0
C92 C 0.38883 0.67734 0.88746 0.0
C93 C 0.3652 0.69352 0.87312 0.0
C94 C 0.35253 0.6811 0.84772 0.0
C95 C 0.36331 0.65234 0.83595 0.0
C96 C 0.38654 0.63592 0.85081 0.0
C97 C 0.39908 0.64827 0.87624 0.0
C98 C 0.43495 0.71356 0.01389 0.0
C99 C 0.35656 0.70545 0.01359 0.0
O100 O 0.40255 0.77663 0.06176 0.0
O101 O 0.38528 0.81853 0.03747 0.0
O102 O 0.36903 0.75917 0.97279 0.0
O103 O 0.34877 0.79651 0.99442 0.0
O104 O 0.42806 0.79725 0.9871 0.0
O105 O 0.43112 0.76182 0.9484 0.0
O106 O 0.40274 0.72273 0.91468 0.0
O107 O 0.40752 0.67648 0.93701 0.0
O108 O 0.42823 0.73938 1.00091 0.0
O109 O 0.42626 0.68966 0.99848 0.0
O110 O 0.36086 0.70309 0.98512 0.0
O111 O 0.36876 0.7278 0.02982 0.0
H112 H 0.43767 0.79106 0.10473 0.0
H113 H 0.46519 0.82704 0.13571 0.0
H114 H 0.42533 0.90781 0.08943 0.0
H115 H 0.3985 0.87202 0.0582 0.0
H116 H 0.35699 0.71618 0.88101 0.0
H117 H 0.33445 0.69422 0.83716 0.0
H118 H 0.39584 0.61401 0.84226 0.0
H119 H 0.41754 0.63557 0.8866 0.0
Sm120 Sm 0.54539 0.1208 0.23603 0.0
Sm121 Sm 0.50084 0.10387 0.28361 0.0
C122 C 0.5893 0.12066 0.19831 0.0
C123 C 0.59679 0.11176 0.16784 0.0
C124 C 0.61939 0.08908 0.16291 0.0
C125 C 0.62879 0.08258 0.13443 0.0
C126 C 0.61597 0.09887 0.11016 0.0
C127 C 0.5927 0.12083 0.11508 0.0
C128 C 0.58322 0.1272 0.14352 0.0
C129 C 0.49344 0.1545 0.2304 0.0
C130 C 0.50852 0.0533 0.23144 0.0
C131 C 0.45455 0.10141 0.31821 0.0
C132 C 0.43224 0.1193 0.33519 0.0
C133 C 0.41396 0.14341 0.32247 0.0
C134 C 0.39107 0.15749 0.33855 0.0
C135 C 0.38608 0.14778 0.36763 0.0
C136 C 0.40464 0.1238 0.38018 0.0
C137 C 0.42738 0.10983 0.36419 0.0
C138 C 0.55759 0.07841 0.29272 0.0
C139 C 0.54174 0.16493 0.29455 0.0
O140 O 0.58543 0.09758 0.21729 0.0
O141 O 0.57123 0.14503 0.20195 0.0
O142 O 0.49544 0.12517 0.23763 0.0
O143 O 0.51879 0.16538 0.22334 0.0
O144 O 0.52761 0.07259 0.21947 0.0
O145 O 0.49486 0.06016 0.25582 0.0
O146 O 0.4527 0.10295 0.28962 0.0
O147 O 0.48164 0.09981 0.32818 0.0
O148 O 0.54991 0.10517 0.28253 0.0
O149 O 0.53414 0.0636 0.30052 0.0
O150 O 0.51529 0.15348 0.29825 0.0
O151 O 0.55949 0.15343 0.27413 0.0
H152 H 0.6304 0.07696 0.18122 0.0
H153 H 0.64691 0.06575 0.13153 0.0
H154 H 0.58203 0.13349 0.0969 0.0
H155 H 0.56568 0.14474 0.14642 0.0
H156 H 0.41706 0.15107 0.30002 0.0
H157 H 0.37737 0.17601 0.32826 0.0
H158 H 0.40118 0.11518 0.40226 0.0
H159 H 0.4408 0.09095 0.37433 0.0
Sm160 Sm 0.65598 0.23992 0.54387 0.0
Sm161 Sm 0.66083 0.29812 0.50369 0.0
C162 C 0.6547 0.18434 0.57233 0.0
C163 C 0.65921 0.17112 0.60252 0.0
C164 C 0.63754 0.15216 0.61475 0.0
C165 C 0.64109 0.13919 0.64302 0.0
C166 C 0.6665 0.14474 0.65993 0.0
C167 C 0.68844 0.16341 0.64751 0.0
C168 C 0.6848 0.17656 0.61918 0.0
C169 C 0.62087 0.29129 0.55888 0.0
C170 C 0.69934 0.29466 0.56561 0.0
C171 C 0.66227 0.35479 0.47708 0.0
C172 C 0.64516 0.37837 0.45911 0.0
C173 C 0.61837 0.37102 0.4456 0.0
C174 C 0.60301 0.39398 0.42829 0.0
C175 C 0.6142 0.42467 0.4241 0.0
C176 C 0.64103 0.43175 0.43787 0.0
C177 C 0.65626 0.40888 0.45515 0.0
C178 C 0.69727 0.24621 0.4911 0.0
C179 C 0.62032 0.24606 0.48032 0.0
O180 O 0.67774 0.19431 0.55848 0.0
O181 O 0.63133 0.20256 0.56752 0.0
O182 O 0.62441 0.28169 0.53304 0.0
O183 O 0.6354 0.27337 0.57764 0.0
O184 O 0.6938 0.26407 0.56821 0.0
O185 O 0.68718 0.3127 0.54462 0.0
O186 O 0.65457 0.35088 0.50434 0.0
O187 O 0.67023 0.32811 0.46467 0.0
O188 O 0.69209 0.25734 0.51589 0.0
O189 O 0.68376 0.2634 0.47108 0.0
O190 O 0.61965 0.27673 0.4855 0.0
O191 O 0.6358 0.22628 0.49792 0.0
H192 H 0.61775 0.1473 0.60236 0.0
H193 H 0.62392 0.12452 0.65155 0.0
H194 H 0.70818 0.16841 0.65991 0.0
H195 H 0.70196 0.19109 0.61041 0.0
H196 H 0.60944 0.34756 0.44833 0.0
H197 H 0.58259 0.38752 0.41783 0.0
H198 H 0.65013 0.45517 0.43563 0.0
H199 H 0.67687 0.41505 0.46546 0.0
Sm200 Sm 0.99967 0.38988 0.73917 0.0
Sm201 Sm 0.04616 0.36931 0.78192 0.0
C202 C 0.96071 0.39273 0.69545 0.0
C203 C 0.92993 0.38575 0.68807 0.0
C204 C 0.91426 0.4063 0.6688 0.0
C205 C 0.88574 0.3994 0.65979 0.0
C206 C 0.8722 0.37169 0.66984 0.0
C207 C 0.88788 0.35116 0.68939 0.0
C208 C 0.91648 0.35818 0.69852 0.0
C209 C 0.99615 0.42429 0.78985 0.0
C210 C 0.98734 0.3313 0.78628 0.0
C211 C 0.08897 0.36371 0.82189 0.0
C212 C 0.0954 0.36969 0.85301 0.0
C213 C 0.08345 0.3963 0.86746 0.0
C214 C 0.09151 0.40229 0.89657 0.0
C215 C 0.11143 0.38164 0.91173 0.0
C216 C 0.12299 0.35488 0.89715 0.0
C217 C 0.11505 0.34902 0.86813 0.0
C218 C 0.05028 0.3418 0.72656 0.0
C219 C 0.05884 0.42954 0.74203 0.0
O220 O 0.97861 0.36836 0.70051 0.0
O221 O 0.96545 0.4167 0.71274 0.0
O222 O 1.00169 0.39448 0.7892 0.0
O223 O 0.99114 0.43593 0.76375 0.0
O224 O 0.98134 0.34318 0.75981 0.0
O225 O 1.00886 0.34259 0.80213 0.0
O226 O 0.07125 0.34071 0.81582 0.0
O227 O 0.08489 0.38859 0.80478 0.0
O228 O 0.04454 0.36999 0.7327 0.0
O229 O 0.0562 0.32599 0.75051 0.0
O230 O 0.05806 0.42042 0.76959 0.0
O231 O 0.04061 0.41669 0.72302 0.0
H232 H 0.92431 0.42751 0.66028 0.0
H233 H 0.87453 0.41547 0.64436 0.0
H234 H 0.878 0.32978 0.69772 0.0
H235 H 0.92814 0.34193 0.71346 0.0
H236 H 0.06815 0.41257 0.85619 0.0
H237 H 0.08206 0.42294 0.90726 0.0
H238 H 0.13874 0.33877 0.90797 0.0
H239 H 0.12467 0.32852 0.85731 0.0
Sm240 Sm 0.88518 0.76597 0.04267 0.0
Sm241 Sm 0.87017 0.70874 0.99818 0.0
C242 C 0.88006 0.81855 0.07376 0.0
C243 C 0.87299 0.82563 0.10458 0.0
C244 C 0.84866 0.812 0.11798 0.0
C245 C 0.84133 0.8196 0.14668 0.0
C246 C 0.85832 0.84077 0.16294 0.0
C247 C 0.88298 0.85402 0.14961 0.0
C248 C 0.89017 0.84658 0.1207 0.0
C249 C 0.92153 0.71338 0.05482 0.0
C250 C 0.83233 0.71642 0.05913 0.0
C251 C 0.8654 0.65283 0.97236 0.0
C252 C 0.88364 0.62734 0.95887 0.0
C253 C 0.90593 0.63418 0.93893 0.0
C254 C 0.92164 0.60947 0.92525 0.0
C255 C 0.91557 0.57737 0.93132 0.0
C256 C 0.89368 0.57071 0.95179 0.0
C257 C 0.87791 0.5954 0.96533 0.0
C258 C 0.84705 0.7689 0.98353 0.0
C259 C 0.92342 0.75368 0.98381 0.0
O260 O 0.85867 0.80725 0.05794 0.0
O261 O 0.9055 0.80448 0.06876 0.0
O262 O 0.90141 0.71583 0.03559 0.0
O263 O 0.92202 0.73959 0.06956 0.0
O264 O 0.85025 0.73877 0.06803 0.0
O265 O 0.83441 0.70289 0.03312 0.0
O266 O 0.86764 0.6559 1.00081 0.0
O267 O 0.86269 0.68019 0.95835 0.0
O268 O 0.85063 0.7568 1.00876 0.0
O269 O 0.85301 0.74739 0.96408 0.0
O270 O 0.91619 0.72354 0.98593 0.0
O271 O 0.91107 0.77616 1.00013 0.0
H272 H 0.83495 0.7957 0.10619 0.0
H273 H 0.8219 0.80933 0.15584 0.0
H274 H 0.89684 0.87004 0.16153 0.0
H275 H 0.90908 0.8573 0.11088 0.0
H276 H 0.91101 0.65861 0.93368 0.0
H277 H 0.93859 0.61551 0.90991 0.0
H278 H 0.88812 0.54637 0.95679 0.0
H279 H 0.8608 0.5895 0.98056 0.0
Sm280 Sm 0.53505 0.62397 0.23239 0.0
Sm281 Sm 0.48805 0.6391 0.2769 0.0
C282 C 0.56824 0.61463 0.18571 0.0
C283 C 0.59766 0.62413 0.17609 0.0
C284 C 0.6021 0.63228 0.14663 0.0
C285 C 0.62945 0.64275 0.13735 0.0
C286 C 0.65303 0.6453 0.15738 0.0
C287 C 0.64853 0.63663 0.18686 0.0
C288 C 0.62115 0.62634 0.19613 0.0
C289 C 0.54425 0.59393 0.28616 0.0
C290 C 0.54672 0.68435 0.27405 0.0
C291 C 0.45742 0.64823 0.32513 0.0
C292 C 0.44092 0.63217 0.34857 0.0
C293 C 0.45462 0.61034 0.36842 0.0
C294 C 0.43958 0.59944 0.39307 0.0
C295 C 0.4107 0.61033 0.39839 0.0
C296 C 0.39659 0.63063 0.37755 0.0
C297 C 0.41155 0.64148 0.35303 0.0
C298 C 0.4785 0.66684 0.22229 0.0
C299 C 0.47492 0.5822 0.23562 0.0
O300 O 0.54833 0.63752 0.18729 0.0
O301 O 0.56717 0.59439 0.20764 0.0
O302 O 0.51994 0.59753 0.27287 0.0
O303 O 0.56515 0.60558 0.27058 0.0
O304 O 0.5561 0.66875 0.25095 0.0
O305 O 0.52254 0.67667 0.2878 0.0
O306 O 0.48605 0.64418 0.32503 0.0
O307 O 0.4456 0.64996 0.29882 0.0
O308 O 0.50262 0.66492 0.23611 0.0
O309 O 0.45761 0.65515 0.23786 0.0
O310 O 0.47428 0.58999 0.26334 0.0
O311 O 0.49348 0.59589 0.21752 0.0
H312 H 0.58423 0.63099 0.13083 0.0
H313 H 0.63185 0.64961 0.11461 0.0
H314 H 0.66619 0.63778 0.20288 0.0
H315 H 0.61829 0.62036 0.21903 0.0
H316 H 0.47727 0.60263 0.36558 0.0
H317 H 0.45107 0.58387 0.40873 0.0
H318 H 0.37418 0.63903 0.38071 0.0
H319 H 0.40045 0.65823 0.33812 0.0
Sm320 Sm 0.22487 0.50705 0.13914 0.0
Sm321 Sm 0.27028 0.4528 0.12781 0.0
C322 C 0.18806 0.55699 0.1338 0.0
C323 C 0.15783 0.56542 0.12306 0.0
C324 C 0.13721 0.57838 0.14246 0.0
C325 C 0.10924 0.58855 0.13249 0.0
C326 C 0.10115 0.58632 0.10271 0.0
C327 C 0.12166 0.57271 0.08339 0.0
C328 C 0.14962 0.56237 0.09342 0.0
C329 C 0.22036 0.45701 0.17732 0.0
C330 C 0.21033 0.45207 0.08992 0.0
C331 C 0.30912 0.4042 0.13002 0.0
C332 C 0.32005 0.37618 0.14767 0.0
C333 C 0.31045 0.34546 0.14124 0.0
C334 C 0.32354 0.31849 0.15494 0.0
C335 C 0.34675 0.32151 0.17526 0.0
C336 C 0.35561 0.35233 0.18245 0.0
C337 C 0.34251 0.37928 0.1688 0.0
C338 C 0.27694 0.50943 0.0962 0.0
C339 C 0.28389 0.50151 0.17892 0.0
O340 O 0.20774 0.54942 0.11426 0.0
O341 O 0.19073 0.53972 0.15781 0.0
O342 O 0.22578 0.45381 0.15029 0.0
O343 O 0.21482 0.48654 0.18385 0.0
O344 O 0.20502 0.48146 0.09886 0.0
O345 O 0.23241 0.43444 0.10047 0.0
O346 O 0.28329 0.4028 0.11736 0.0
O347 O 0.31472 0.43269 0.1394 0.0
O348 O 0.27001 0.50562 0.12216 0.0
O349 O 0.28324 0.48178 0.08514 0.0
O350 O 0.28171 0.47084 0.17379 0.0
O351 O 0.26672 0.52248 0.16436 0.0
H352 H 0.14289 0.58105 0.16539 0.0
H353 H 0.09398 0.59829 0.1482 0.0
H354 H 0.1165 0.57086 0.06028 0.0
H355 H 0.16494 0.55254 0.0778 0.0
H356 H 0.2935 0.34212 0.1248 0.0
H357 H 0.31633 0.2952 0.14858 0.0
H358 H 0.37313 0.35563 0.19829 0.0
H359 H 0.35063 0.40249 0.1742 0.0
Sm360 Sm 0.73178 0.97994 0.88198 0.0
Sm361 Sm 0.77083 0.03825 0.88356 0.0
C362 C 0.70438 0.9251 0.88328 0.0
C363 C 0.6742 0.91416 0.88782 0.0
C364 C 0.66914 0.89113 0.90955 0.0
C365 C 0.64076 0.88052 0.91443 0.0
C366 C 0.61688 0.89257 0.89748 0.0
C367 C 0.62197 0.9158 0.87584 0.0
C368 C 0.65031 0.92661 0.87113 0.0
C369 C 0.71343 0.02989 0.84562 0.0
C370 C 0.71356 0.0351 0.92745 0.0
C371 C 0.791 0.0966 0.87757 0.0
C372 C 0.81439 0.11597 0.86497 0.0
C373 C 0.80693 0.1461 0.85304 0.0
C374 C 0.82875 0.16649 0.84358 0.0
C375 C 0.85857 0.15718 0.84597 0.0
C376 C 0.86589 0.12635 0.85676 0.0
C377 C 0.84402 0.10594 0.86617 0.0
C378 C 0.79125 0.98789 0.91804 0.0
C379 C 0.79587 0.97907 0.84779 0.0
O380 O 0.71748 0.93695 0.90614 0.0
O381 O 0.70957 0.94078 0.85905 0.0
O382 O 0.73964 0.01989 0.84915 0.0
O383 O 0.69588 0.01327 0.86146 0.0
O384 O 0.71122 0.00457 0.92174 0.0
O385 O 0.73204 0.0531 0.91312 0.0
O386 O 0.77207 0.08448 0.85934 0.0
O387 O 0.79782 0.0777 0.8998 0.0
O388 O 0.76464 0.99665 0.91465 0.0
O389 O 0.80845 0.00841 0.90606 0.0
O390 O 0.79691 0.01026 0.85006 0.0
O391 O 0.7748 0.96233 0.85977 0.0
H392 H 0.68722 0.88123 0.92272 0.0
H393 H 0.6376 0.86236 0.93104 0.0
H394 H 0.60397 0.92576 0.86263 0.0
H395 H 0.65347 0.94466 0.85443 0.0
H396 H 0.78417 0.1543 0.8519 0.0
H397 H 0.82231 0.19009 0.83567 0.0
H398 H 0.88862 0.11821 0.85846 0.0
H399 H 0.85033 0.08267 0.87502 0.0
Sm400 Sm 0.75669 0.96427 0.40152 0.0
Sm401 Sm 0.81094 1.00366 0.388 0.0
C402 C 0.71027 0.92751 0.40189 0.0
C403 C 0.69499 0.90417 0.38342 0.0
C404 C 0.68527 0.91165 0.35475 0.0
C405 C 0.66863 0.89002 0.33887 0.0
C406 C 0.66219 0.86013 0.351 0.0
C407 C 0.67317 0.85207 0.37906 0.0
C408 C 0.68917 0.87398 0.39519 0.0
C409 C 0.80035 0.9604 0.44381 0.0
C410 C 0.80008 0.94202 0.34735 0.0
C411 C 0.86539 0.02428 0.38276 0.0
C412 C 0.88959 0.04108 0.39758 0.0
C413 C 0.90488 0.02754 0.42188 0.0
C414 C 0.92994 0.04189 0.43325 0.0
C415 C 0.94029 0.07012 0.42065 0.0
C416 C 0.92447 0.08403 0.39686 0.0
C417 C 0.89952 0.06962 0.38543 0.0
C418 C 0.75985 0.0253 0.36053 0.0
C419 C 0.76399 0.03229 0.43289 0.0
O420 O 0.7089 0.95763 0.39394 0.0
O421 O 0.73598 0.91851 0.4126 0.0
O422 O 0.80429 0.96029 0.4165 0.0
O423 O 0.77257 0.96174 0.44964 0.0
O424 O 0.77854 0.93446 0.36504 0.0
O425 O 0.81455 0.96855 0.35029 0.0
O426 O 0.85914 0.99588 0.39236 0.0
O427 O 0.84213 0.04089 0.37402 0.0
O428 O 0.76767 0.99639 0.36388 0.0
O429 O 0.7803 0.04379 0.36989 0.0
O430 O 0.79254 0.02751 0.42916 0.0
O431 O 0.74443 0.01375 0.42043 0.0
H432 H 0.69011 0.93434 0.34474 0.0
H433 H 0.66057 0.89674 0.31718 0.0
H434 H 0.66835 0.8293 0.38901 0.0
H435 H 0.69654 0.86755 0.41718 0.0
H436 H 0.89793 0.00548 0.43175 0.0
H437 H 0.94135 0.03074 0.4518 0.0
H438 H 0.93196 0.10551 0.38634 0.0
H439 H 0.88846 0.08035 0.36647 0.0
Sm440 Sm 0.3081 0.47476 0.62749 0.0
Sm441 Sm 0.25894 0.52389 0.61829 0.0
C442 C 0.34618 0.42655 0.62091 0.0
C443 C 0.3774 0.41922 0.61553 0.0
C444 C 0.38507 0.39097 0.60121 0.0
C445 C 0.4145 0.38306 0.59592 0.0
C446 C 0.4369 0.40329 0.6049 0.0
C447 C 0.42907 0.43189 0.61894 0.0
C448 C 0.39954 0.43985 0.62414 0.0
C449 C 0.3144 0.52506 0.66415 0.0
C450 C 0.31416 0.53113 0.57618 0.0
C451 C 0.21662 0.56815 0.62281 0.0
C452 C 0.20741 0.59477 0.64191 0.0
C453 C 0.21572 0.62603 0.63546 0.0
C454 C 0.20481 0.65162 0.6517 0.0
C455 C 0.18516 0.64657 0.67463 0.0
C456 C 0.17753 0.61521 0.68164 0.0
C457 C 0.18846 0.5896 0.66543 0.0
C458 C 0.25258 0.46695 0.58828 0.0
C459 C 0.25407 0.4769 0.67171 0.0
O460 O 0.33124 0.43987 0.59917 0.0
O461 O 0.33925 0.43821 0.64643 0.0
O462 O 0.30534 0.52795 0.63775 0.0
O463 O 0.3231 0.49607 0.67032 0.0
O464 O 0.32312 0.50257 0.58579 0.0
O465 O 0.2914 0.54603 0.58757 0.0
O466 O 0.24012 0.57187 0.60717 0.0
O467 O 0.21455 0.53917 0.63313 0.0
O468 O 0.26163 0.47082 0.61375 0.0
O469 O 0.24409 0.49424 0.57711 0.0
O470 O 0.25511 0.50749 0.66588 0.0
O471 O 0.26895 0.45663 0.65508 0.0
H472 H 0.36825 0.37481 0.59433 0.0
H473 H 0.41972 0.36067 0.58545 0.0
H474 H 0.44577 0.44814 0.62586 0.0
H475 H 0.39402 0.46196 0.63495 0.0
H476 H 0.23002 0.6309 0.61729 0.0
H477 H 0.21081 0.67549 0.64543 0.0
H478 H 0.16265 0.61049 0.69937 0.0
H479 H 0.18149 0.56585 0.67093 0.0
H480 H 0.17392 0.32034 0.51222 0.0
H481 H 0.24381 0.26054 0.55063 0.0
H482 H 0.26863 0.30841 0.56786 0.0
H483 H 0.22277 0.38535 0.48812 0.0
H484 H 0.19576 0.41614 0.49583 0.0
H485 H 0.1842 0.37732 0.48482 0.0
H486 H 0.15299 0.373 0.53158 0.0
H487 H 0.16454 0.41167 0.5428 0.0
H488 H 0.17031 0.37775 0.56692 0.0
H489 H 0.28048 0.36025 0.58834 0.0
H490 H 0.28398 0.41498 0.60503 0.0
H491 H 0.21206 0.44489 0.54717 0.0
C492 C 0.19475 0.31744 0.52375 0.0
C493 C 0.20699 0.28674 0.5302 0.0
C494 C 0.23412 0.28379 0.54547 0.0
C495 C 0.24835 0.31084 0.55532 0.0
C496 C 0.23552 0.3407 0.54907 0.0
C497 C 0.20969 0.34435 0.53312 0.0
C498 C 0.20056 0.37937 0.53002 0.0
C499 C 0.20084 0.39018 0.49778 0.0
C500 C 0.17031 0.38581 0.54365 0.0
C501 C 0.22484 0.39472 0.54761 0.0
C502 C 0.24446 0.37166 0.55855 0.0
C503 C 0.26629 0.37874 0.57871 0.0
C504 C 0.2684 0.41015 0.58778 0.0
C505 C 0.24983 0.43473 0.57587 0.0
C506 C 0.22763 0.42692 0.55541 0.0
H507 H 0.85321 0.99238 0.85677 0.0
H508 H 0.79624 0.92663 0.81285 0.0
H509 H 0.83999 0.89742 0.79398 0.0
H510 H 0.91019 0.99591 0.80395 0.0
H511 H 0.93957 0.99594 0.83078 0.0
H512 H 0.90387 0.01217 0.83973 0.0
H513 H 0.90199 0.97405 0.88471 0.0
H514 H 0.93773 0.95774 0.87589 0.0
H515 H 0.90712 0.9318 0.87965 0.0
H516 H 0.8898 0.87725 0.77844 0.0
H517 H 0.94193 0.86419 0.77061 0.0
H518 H 0.96697 0.94009 0.82822 0.0
C519 C 0.85 0.97208 0.84281 0.0
C520 C 0.82148 0.96208 0.83552 0.0
C521 C 0.81798 0.9348 0.81821 0.0
C522 C 0.84265 0.91813 0.80749 0.0
C523 C 0.87053 0.92866 0.81505 0.0
C524 C 0.87433 0.95469 0.83271 0.0
C525 C 0.9066 0.96005 0.83891 0.0
C526 C 0.91558 0.99297 0.82766 0.0
C527 C 0.91377 0.95564 0.87174 0.0
C528 C 0.92049 0.93354 0.82121 0.0
C529 C 0.89924 0.91586 0.80753 0.0
C530 C 0.90658 0.89086 0.78914 0.0
C531 C 0.93636 0.8838 0.78454 0.0
C532 C 0.9585 0.9013 0.79847 0.0
C533 C 0.95043 0.92626 0.81735 0.0
H534 H 0.35075 0.64364 0.99654 0.0
H535 H 0.32544 0.71031 0.06409 0.0
H536 H 0.29944 0.66758 0.08978 0.0
H537 H 0.28441 0.59631 0.99638 0.0
H538 H 0.30434 0.55909 0.9919 0.0
H539 H 0.31876 0.59539 0.97723 0.0
H540 H 0.36732 0.58489 1.00632 0.0
H541 H 0.3531 0.54859 0.02109 0.0
H542 H 0.3662 0.5787 0.04541 0.0
H543 H 0.27757 0.61862 0.10847 0.0
H544 H 0.26384 0.5649 0.12237 0.0
H545 H 0.30518 0.52716 0.04451 0.0
C546 C 0.33919 0.64938 0.01644 0.0
C547 C 0.33957 0.68046 0.02811 0.0
C548 C 0.32513 0.68679 0.05467 0.0
C549 C 0.31027 0.6627 0.06933 0.0
C550 C 0.31042 0.63234 0.05731 0.0
C551 C 0.3247 0.62542 0.03165 0.0
C552 C 0.32335 0.59013 0.02484 0.0
C553 C 0.30672 0.58493 0.99586 0.0
C554 C 0.35434 0.57467 0.0244 0.0
C555 C 0.30607 0.57825 0.05078 0.0
C556 C 0.29865 0.6033 0.06889 0.0
C557 C 0.28319 0.59886 0.09446 0.0
C558 C 0.27548 0.56802 0.10211 0.0
C559 C 0.28335 0.54158 0.08454 0.0
C560 C 0.29862 0.54684 0.05825 0.0
H561 H 0.5904 0.02209 0.30494 0.0
H562 H 0.59176 0.12492 0.31279 0.0
H563 H 0.64201 0.12139 0.33144 0.0
H564 H 0.63537 0.00767 0.3725 0.0
H565 H 0.65538 0.97379 0.35872 0.0
H566 H 0.61834 0.98226 0.34609 0.0
H567 H 0.63455 0.98403 0.29236 0.0
H568 H 0.67177 0.9745 0.30382 0.0
H569 H 0.6638 0.00964 0.28177 0.0
H570 H 0.6926 0.10889 0.3449 0.0
H571 H 0.74161 0.08683 0.35767 0.0
H572 H 0.71091 0.99129 0.34329 0.0
C573 C 0.60128 0.0437 0.3109 0.0
C574 C 0.58707 0.07388 0.30675 0.0
C575 C 0.60209 0.1016 0.31494 0.0
C576 C 0.63079 0.09989 0.32581 0.0
C577 C 0.64455 0.07018 0.32871 0.0
C578 C 0.63045 0.04244 0.32197 0.0
C579 C 0.65105 0.01378 0.32767 0.0
C580 C 0.63934 0.99313 0.3527 0.0
C581 C 0.65556 0.99434 0.29973 0.0
C582 C 0.67912 0.03013 0.33698 0.0
C583 C 0.67442 0.06268 0.3377 0.0
C584 C 0.69661 0.0834 0.34485 0.0
C585 C 0.72446 0.07061 0.35187 0.0
C586 C 0.73012 0.03735 0.35165 0.0
C587 C 0.70713 0.01679 0.34393 0.0
H588 H 0.68596 0.20408 0.44683 0.0
H589 H 0.73722 0.2155 0.5265 0.0
H590 H 0.75788 0.16085 0.52169 0.0
H591 H 0.66811 0.12161 0.46071 0.0
H592 H 0.67047 0.11045 0.42282 0.0
H593 H 0.6601 0.15069 0.43218 0.0
H594 H 0.70238 0.17167 0.40073 0.0
H595 H 0.71303 0.13155 0.39143 0.0
H596 H 0.73947 0.15721 0.40785 0.0
H597 H 0.77527 0.10649 0.50674 0.0
H598 H 0.7867 0.05476 0.48363 0.0
H599 H 0.72094 0.07588 0.41621 0.0
C600 C 0.70176 0.19509 0.46304 0.0
C601 C 0.71042 0.21408 0.48683 0.0
C602 C 0.73058 0.20136 0.508 0.0
C603 C 0.74233 0.17034 0.5055 0.0
C604 C 0.73326 0.15207 0.48197 0.0
C605 C 0.71327 0.16381 0.46121 0.0
C606 C 0.70697 0.13891 0.43831 0.0
C607 C 0.67448 0.12988 0.43854 0.0
C608 C 0.71601 0.15054 0.40778 0.0
C609 C 0.72684 0.11153 0.44927 0.0
C610 C 0.74196 0.1198 0.47438 0.0
C611 C 0.7632 0.0995 0.4874 0.0
C612 C 0.76952 0.07018 0.4742 0.0
C613 C 0.75425 0.06113 0.44861 0.0
C614 C 0.73231 0.08188 0.43628 0.0
H615 H 0.09169 0.41626 0.69352 0.0
H616 H 0.08841 0.47488 0.7709 0.0
H617 H 0.13964 0.49025 0.7629 0.0
H618 H 0.16335 0.38588 0.70534 0.0
H619 H 0.17399 0.38606 0.66748 0.0
H620 H 0.13595 0.38218 0.67682 0.0
H621 H 0.1214 0.43131 0.64451 0.0
H622 H 0.15924 0.43466 0.63429 0.0
H623 H 0.13989 0.4682 0.64993 0.0
H624 H 0.19168 0.49691 0.74847 0.0
H625 H 0.2399 0.49994 0.72469 0.0
H626 H 0.21102 0.43518 0.65778 0.0
C627 C 0.10141 0.43334 0.70805 0.0
C628 C 0.08591 0.44499 0.73251 0.0
C629 C 0.09976 0.46621 0.75177 0.0
C630 C 0.12893 0.47478 0.74757 0.0
C631 C 0.14409 0.46172 0.72411 0.0
C632 C 0.13075 0.44189 0.70434 0.0
C633 C 0.15246 0.43039 0.68156 0.0
C634 C 0.15667 0.39396 0.6829 0.0
C635 C 0.14267 0.44184 0.65075 0.0
C636 C 0.18005 0.44679 0.6917 0.0
C637 C 0.17465 0.46464 0.71636 0.0
C638 C 0.19624 0.48289 0.72928 0.0
C639 C 0.22367 0.48415 0.71587 0.0
C640 C 0.22943 0.46705 0.69 0.0
C641 C 0.20758 0.44746 0.67821 0.0
H642 H 0.77327 0.92671 0.90801 0.0
H643 H 0.83492 0.98097 0.95868 0.0
H644 H 0.85522 0.93102 0.98117 0.0
H645 H 0.75955 0.86471 0.96145 0.0
H646 H 0.75917 0.83322 0.93502 0.0
H647 H 0.74834 0.87323 0.92411 0.0
H648 H 0.78719 0.87208 0.88333 0.0
H649 H 0.79821 0.83205 0.89405 0.0
H650 H 0.82505 0.86275 0.8927 0.0
H651 H 0.86794 0.87573 0.99892 0.0
H652 H 0.87529 0.81857 1.00831 0.0
H653 H 0.80836 0.79808 0.94353 0.0
C654 C 0.79055 0.92807 0.92431 0.0
C655 C 0.80196 0.9578 0.93233 0.0
C656 C 0.82558 0.9585 0.95268 0.0
C657 C 0.83723 0.93025 0.9655 0.0
C658 C 0.82553 0.90133 0.95717 0.0
C659 C 0.80299 0.89992 0.93675 0.0
C660 C 0.79578 0.8655 0.93036 0.0
C661 C 0.76381 0.85877 0.93821 0.0
C662 C 0.80193 0.85764 0.8982 0.0
C663 C 0.81736 0.84778 0.9509 0.0
C664 C 0.83409 0.86909 0.96623 0.0
C665 C 0.85498 0.85886 0.987 0.0
C666 C 0.85885 0.82611 0.99241 0.0
C667 C 0.84228 0.80357 0.97704 0.0
C668 C 0.82145 0.81467 0.95566 0.0
H669 H 0.43394 0.59466 0.1923 0.0
H670 H 0.46134 0.52499 0.25843 0.0
H671 H 0.41462 0.49729 0.25171 0.0
H672 H 0.36145 0.60228 0.2158 0.0
H673 H 0.34496 0.60743 0.17989 0.0
H674 H 0.38227 0.61893 0.18635 0.0
H675 H 0.39963 0.58246 0.14432 0.0
H676 H 0.36236 0.5711 0.13771 0.0
H677 H 0.39059 0.54099 0.1449 0.0
H678 H 0.36378 0.47964 0.24084 0.0
H679 H 0.3133 0.47024 0.22321 0.0
H680 H 0.31683 0.55366 0.16662 0.0
C681 C 0.43054 0.57284 0.20437 0.0
C682 C 0.45151 0.56138 0.22529 0.0
C683 C 0.44581 0.53357 0.24177 0.0
C684 C 0.41923 0.51791 0.2383 0.0
C685 C 0.39836 0.53067 0.21857 0.0
C686 C 0.40375 0.55728 0.20157 0.0
C687 C 0.37665 0.56741 0.18365 0.0
C688 C 0.36569 0.60101 0.19192 0.0
C689 C 0.38267 0.56534 0.15069 0.0
C690 C 0.35527 0.5424 0.19332 0.0
C691 C 0.36833 0.52143 0.21341 0.0
C692 C 0.35331 0.49591 0.22513 0.0
C693 C 0.32456 0.49092 0.2152 0.0
C694 C 0.31097 0.51152 0.194 0.0
C695 C 0.32635 0.53803 0.18345 0.0
H696 H 0.54163 0.1486 0.35217 0.0
H697 H 0.57255 0.21994 0.29155 0.0
H698 H 0.59649 0.24756 0.33287 0.0
H699 H 0.52776 0.19802 0.41404 0.0
H700 H 0.54195 0.16928 0.44061 0.0
H701 H 0.5264 0.15606 0.40655 0.0
H702 H 0.57464 0.12448 0.39589 0.0
H703 H 0.59049 0.13775 0.42984 0.0
H704 H 0.60893 0.14486 0.39582 0.0
H705 H 0.61485 0.26821 0.38059 0.0
H706 H 0.62978 0.27967 0.43111 0.0
H707 H 0.5912 0.19208 0.46135 0.0
C708 C 0.55304 0.17039 0.34776 0.0
C709 C 0.5546 0.18288 0.3189 0.0
C710 C 0.5707 0.21052 0.31361 0.0
C711 C 0.5844 0.22618 0.3369 0.0
C712 C 0.58248 0.21323 0.36513 0.0
C713 C 0.56758 0.1857 0.37061 0.0
C714 C 0.57019 0.1759 0.40274 0.0
C715 C 0.53976 0.17476 0.41681 0.0
C716 C 0.58706 0.14385 0.40628 0.0
C717 C 0.58795 0.20295 0.4148 0.0
C718 C 0.59472 0.22413 0.39257 0.0
C719 C 0.60987 0.25169 0.39807 0.0
C720 C 0.61811 0.25802 0.42696 0.0
C721 C 0.61155 0.23683 0.45026 0.0
C722 C 0.59666 0.20858 0.444 0.0
H723 H 0.10491 0.23521 0.59194 0.0
H724 H 0.07735 0.31477 0.53564 0.0
H725 H 0.05632 0.34224 0.57834 0.0
H726 H 0.04253 0.23894 0.64304 0.0
H727 H 0.06556 0.22957 0.67455 0.0
H728 H 0.07525 0.21433 0.63916 0.0
H729 H 0.12624 0.23961 0.64382 0.0
H730 H 0.1167 0.25512 0.67909 0.0
H731 H 0.12845 0.28167 0.65053 0.0
H732 H 0.0419 0.36275 0.62673 0.0
H733 H 0.03508 0.37618 0.67823 0.0
H734 H 0.07302 0.28431 0.70505 0.0
C735 C 0.0937 0.25803 0.58844 0.0
C736 C 0.09232 0.27267 0.56029 0.0
C737 C 0.07838 0.30299 0.55686 0.0
C738 C 0.06637 0.31874 0.581 0.0
C739 C 0.06866 0.30396 0.6085 0.0
C740 C 0.08195 0.2743 0.61243 0.0
C741 C 0.08356 0.26498 0.64473 0.0
C742 C 0.06565 0.23518 0.65072 0.0
C743 C 0.11564 0.26006 0.65515 0.0
C744 C 0.06942 0.29428 0.6584 0.0
C745 C 0.06082 0.31623 0.6369 0.0
C746 C 0.04829 0.34565 0.64371 0.0
C747 C 0.04457 0.35304 0.67318 0.0
C748 C 0.05338 0.33127 0.69582 0.0
C749 C 0.06579 0.3013 0.68827 0.0
H750 H 0.95521 0.82989 0.82746 0.0
H751 H 0.02846 0.76233 0.82178 0.0
H752 H 0.017 0.74093 0.87085 0.0
H753 H 0.96718 0.84865 0.90124 0.0
H754 H 0.92897 0.8527 0.91065 0.0
H755 H 0.9402 0.86032 0.87363 0.0
H756 H 0.90416 0.81875 0.85422 0.0
H757 H 0.89219 0.81163 0.89108 0.0
H758 H 0.90557 0.77891 0.86938 0.0
H759 H 0.99896 0.72827 0.92073 0.0
H760 H 0.97332 0.72265 0.96775 0.0
H761 H 0.91408 0.80123 0.94313 0.0
C762 C 0.96809 0.8098 0.83615 0.0
C763 C 0.99226 0.79709 0.82067 0.0
C764 C 1.00952 0.77182 0.83317 0.0
C765 C 1.00331 0.75975 0.86107 0.0
C766 C 0.98008 0.77362 0.87631 0.0
C767 C 0.96255 0.79791 0.86428 0.0
C768 C 0.93996 0.80973 0.88601 0.0
C769 C 0.94436 0.84494 0.89331 0.0
C770 C 0.90861 0.80442 0.87449 0.0
C771 C 0.94753 0.78821 0.9121 0.0
C772 C 0.97071 0.76754 0.90592 0.0
C773 C 0.98096 0.74445 0.92596 0.0
C774 C 0.96647 0.7416 0.95265 0.0
C775 C 0.94234 0.76203 0.95923 0.0
C776 C 0.93316 0.78609 0.93898 0.0
H777 H 0.44085 0.64707 0.17919 0.0
H778 H 0.50897 0.71442 0.1967 0.0
H779 H 0.50415 0.73502 0.14574 0.0
H780 H 0.46786 0.62811 0.10632 0.0
H781 H 0.43139 0.62133 0.09233 0.0
H782 H 0.43991 0.61463 0.1306 0.0
H783 H 0.39596 0.65326 0.14266 0.0
H784 H 0.38902 0.66091 0.10429 0.0
H785 H 0.3958 0.69351 0.12851 0.0
H786 H 0.49006 0.74972 0.09314 0.0
H787 H 0.4729 0.75257 0.04142 0.0
H788 H 0.41932 0.67042 0.05615 0.0
C789 C 0.45461 0.66622 0.17228 0.0
C790 C 0.47502 0.67946 0.19194 0.0
C791 C 0.49304 0.70416 0.18201 0.0
C792 C 0.49041 0.71601 0.15314 0.0
C793 C 0.47025 0.70225 0.13417 0.0
C794 C 0.4531 0.67743 0.14318 0.0
C795 C 0.4351 0.66491 0.11779 0.0
C796 C 0.44408 0.63018 0.11137 0.0
C797 C 0.40201 0.66837 0.12368 0.0
C798 C 0.44423 0.68706 0.09326 0.0
C799 C 0.46421 0.70874 0.10328 0.0
C800 C 0.47484 0.73249 0.08497 0.0
C801 C 0.46501 0.73395 0.05566 0.0
C802 C 0.44536 0.71132 0.04473 0.0
C803 C 0.4349 0.68757 0.06381 0.0
H804 H 0.18162 0.39269 0.33469 0.0
H805 H 0.18382 0.29646 0.30155 0.0
H806 H 0.2002 0.31689 0.2534 0.0
H807 H 0.15188 0.42969 0.27126 0.0
H808 H 0.17281 0.46521 0.27511 0.0
H809 H 0.16369 0.44224 0.30702 0.0
H810 H 0.21889 0.43701 0.32156 0.0
H811 H 0.22818 0.46 0.28965 0.0
H812 H 0.24476 0.421 0.29571 0.0
H813 H 0.21356 0.34995 0.20717 0.0
H814 H 0.22241 0.39156 0.16921 0.0
H815 H 0.21046 0.46437 0.23472 0.0
C816 C 0.18554 0.37582 0.31736 0.0
C817 C 0.18123 0.34303 0.32179 0.0
C818 C 0.18714 0.32171 0.29865 0.0
C819 C 0.19636 0.33312 0.27123 0.0
C820 C 0.1998 0.36582 0.26747 0.0
C821 C 0.19469 0.38672 0.29012 0.0
C822 C 0.19879 0.42079 0.28072 0.0
C823 C 0.17009 0.44063 0.2837 0.0
C824 C 0.22417 0.43556 0.29793 0.0
C825 C 0.20655 0.41608 0.24906 0.0
C826 C 0.20728 0.38432 0.24158 0.0
C827 C 0.21319 0.37485 0.21294 0.0
C828 C 0.21817 0.39854 0.19153 0.0
C829 C 0.21697 0.43111 0.19904 0.0
C830 C 0.21146 0.43967 0.22823 0.0
H831 H 0.86361 0.91938 0.60389 0.0
H832 H 0.95017 0.91063 0.56581 0.0
H833 H 0.92944 0.92836 0.51794 0.0
H834 H 0.82452 0.88882 0.544 0.0
H835 H 0.79309 0.91544 0.54737 0.0
H836 H 0.81515 0.90486 0.57918 0.0
H837 H 0.82335 0.96455 0.58917 0.0
H838 H 0.80122 0.97533 0.5574 0.0
H839 H 0.83813 0.98935 0.56079 0.0
H840 H 0.89837 0.94254 0.47302 0.0
H841 H 0.8597 0.95362 0.43545 0.0
H842 H 0.7937 0.95388 0.50292 0.0
C843 C 0.87828 0.92139 0.58555 0.0
C844 C 0.9086 0.91367 0.58874 0.0
C845 C 0.92698 0.91687 0.56414 0.0
C846 C 0.91537 0.92676 0.53676 0.0
C847 C 0.88532 0.93363 0.5343 0.0
C848 C 0.86707 0.93133 0.55811 0.0
C849 C 0.8354 0.93895 0.54944 0.0
C850 C 0.8159 0.91031 0.55535 0.0
C851 C 0.82385 0.96883 0.56513 0.0
C852 C 0.83857 0.94519 0.51691 0.0
C853 C 0.86755 0.94215 0.50859 0.0
C854 C 0.87566 0.94539 0.47939 0.0
C855 C 0.85357 0.95176 0.45818 0.0
C856 C 0.82377 0.95497 0.46627 0.0
C857 C 0.81633 0.95185 0.49608 0.0
H858 H 0.32751 0.51739 0.72153 0.0
H859 H 0.30755 0.59051 0.65593 0.0
H860 H 0.31518 0.63201 0.69354 0.0
H861 H 0.29226 0.55701 0.78241 0.0
H862 H 0.3198 0.54248 0.80834 0.0
H863 H 0.31119 0.51946 0.7765 0.0
H864 H 0.36601 0.51877 0.76197 0.0
H865 H 0.37479 0.54184 0.79365 0.0
H866 H 0.38449 0.5559 0.75772 0.0
H867 H 0.32863 0.66517 0.73896 0.0
H868 H 0.34543 0.68634 0.78641 0.0
H869 H 0.35439 0.59002 0.82135 0.0
C870 C 0.32457 0.54213 0.71496 0.0
C871 C 0.31718 0.55081 0.68576 0.0
C872 C 0.31331 0.58341 0.67819 0.0
C873 C 0.31758 0.60705 0.69942 0.0
C874 C 0.32535 0.59752 0.72804 0.0
C875 C 0.32853 0.56572 0.73572 0.0
C876 C 0.33759 0.56119 0.7675 0.0
C877 C 0.31378 0.54403 0.7847 0.0
C878 C 0.36749 0.54338 0.77036 0.0
C879 C 0.33971 0.59545 0.77664 0.0
C880 C 0.33246 0.61619 0.75375 0.0
C881 C 0.33399 0.64905 0.75703 0.0
C882 C 0.34341 0.66088 0.7842 0.0
C883 C 0.35127 0.63992 0.80782 0.0
C884 C 0.34891 0.6068 0.80382 0.0
H885 H 0.63382 0.04303 0.08303 0.0
H886 H 0.62614 0.14535 0.06946 0.0
H887 H 0.64771 0.1396 0.02058 0.0
H888 H 0.70301 0.03192 0.04835 0.0
H889 H 0.69416 0.9946 0.03183 0.0
H890 H 0.67683 0.00639 0.06533 0.0
H891 H 0.62566 1.00022 0.04099 0.0
H892 H 0.64285 0.98844 1.00737 0.0
H893 H 0.61682 0.02153 1.00739 0.0
H894 H 0.67295 0.12355 0.97458 0.0
H895 H 0.69889 0.09796 0.9337 0.0
H896 H 0.68943 0.00562 0.97557 0.0
C897 C 0.63659 0.0642 0.06972 0.0
C898 C 0.62802 0.09467 0.08013 0.0
C899 C 0.63198 0.12172 0.0619 0.0
C900 C 0.64438 0.11872 0.0341 0.0
C901 C 0.65262 0.08846 0.02457 0.0
C902 C 0.64876 0.06161 0.04169 0.0
C903 C 0.65998 0.03195 0.02623 0.0
C904 C 0.68498 0.01524 0.044 0.0
C905 C 0.63482 0.00919 0.02014 0.0
C906 C 0.67119 0.04642 0.998 0.0
C907 C 0.6667 0.07907 0.99757 0.0
C908 C 0.67631 0.09796 0.97453 0.0
C909 C 0.6911 0.08319 0.9514 0.0
C910 C 0.69603 0.04976 0.95124 0.0
C911 C 0.68558 0.03116 0.97479 0.0
H912 H 0.7157 0.11716 0.68795 0.0
H913 H 0.6239 0.14246 0.70151 0.0
H914 H 0.62708 0.11858 0.75099 0.0
H915 H 0.71542 0.04213 0.7246 0.0
H916 H 0.75145 0.04509 0.74098 0.0
H917 H 0.74273 0.06575 0.70707 0.0
H918 H 0.75765 0.11895 0.73026 0.0
H919 H 0.76641 0.09842 0.76428 0.0
H920 H 0.7406 0.1317 0.76368 0.0
H921 H 0.63893 0.08947 0.79787 0.0
H922 H 0.65893 0.05701 0.83928 0.0
H923 H 0.7436 0.05109 0.7971 0.0
C924 C 0.69639 0.11811 0.70149 0.0
C925 C 0.66944 0.13161 0.69055 0.0
C926 C 0.64465 0.13188 0.70901 0.0
C927 C 0.64628 0.11856 0.73732 0.0
C928 C 0.67294 0.10509 0.74722 0.0
C929 C 0.69763 0.10483 0.72999 0.0
C930 C 0.72327 0.08773 0.74577 0.0
C931 C 0.73383 0.05844 0.72858 0.0
C932 C 0.74848 0.11057 0.75132 0.0
C933 C 0.70895 0.07802 0.7743 0.0
C934 C 0.67993 0.08847 0.77464 0.0
C935 C 0.6617 0.08142 0.79796 0.0
C936 C 0.67326 0.06292 0.8214 0.0
C937 C 0.70282 0.05164 0.82156 0.0
C938 C 0.721 0.0597 0.7978 0.0
H939 H 0.18351 0.48069 0.04159 0.0
H940 H 0.1941 0.39065 0.08847 0.0
H941 H 0.16505 0.36439 0.05027 0.0
H942 H 0.10866 0.46791 1.01102 0.0
H943 H 0.11698 0.48613 0.9763 0.0
H944 H 0.13502 0.49907 1.00927 0.0
H945 H 0.18567 0.48766 0.98594 0.0
H946 H 0.16781 0.47467 0.95299 0.0
H947 H 0.19402 0.44859 0.9719 0.0
H948 H 0.13846 0.34687 1.00597 0.0
H949 H 0.11797 0.33834 0.9566 0.0
H950 H 0.1264 0.43882 0.93624 0.0
C951 C 0.17902 0.45563 0.04406 0.0
C952 C 0.19073 0.43769 0.06807 0.0
C953 C 0.18523 0.40478 0.07025 0.0
C954 C 0.16863 0.3897 0.04876 0.0
C955 C 0.15787 0.40779 0.02504 0.0
C956 C 0.16289 0.44 0.0224 0.0
C957 C 0.15126 0.45306 0.99321 0.0
C958 C 0.1265 0.47802 0.99773 0.0
C959 C 0.17618 0.46679 0.97494 0.0
C960 C 0.13956 0.42302 0.9797 0.0
C961 C 0.14321 0.39736 0.99871 0.0
C962 C 0.13534 0.3668 0.99092 0.0
C963 C 0.1239 0.36215 0.96274 0.0
C964 C 0.12069 0.38784 0.94246 0.0
C965 C 0.12817 0.41879 0.95135 0.0
H966 H 0.82923 0.95732 0.29726 0.0
H967 H 0.78742 0.87896 0.34149 0.0
H968 H 0.79986 0.84382 0.30016 0.0
H969 H 0.80346 0.93854 0.22551 0.0
H970 H 0.83649 0.95055 0.20766 0.0
H971 H 0.82569 0.96886 0.2414 0.0
H972 H 0.87631 0.95304 0.26462 0.0
H973 H 0.88722 0.93454 0.23096 0.0
H974 H 0.88862 0.91191 0.26475 0.0
H975 H 0.81725 0.81724 0.25399 0.0
H976 H 0.83484 0.80211 0.2052 0.0
H977 H 0.86231 0.89901 0.18987 0.0
C978 C 0.82291 0.93269 0.29842 0.0
C979 C 0.80758 0.92079 0.32275 0.0
C980 C 0.79923 0.88857 0.32312 0.0
C981 C 0.80629 0.86842 0.2998 0.0
C982 C 0.82144 0.88093 0.27615 0.0
C983 C 0.8294 0.9124 0.27518 0.0
C984 C 0.84422 0.9204 0.24662 0.0
C985 C 0.82639 0.94611 0.22928 0.0
C986 C 0.87598 0.93057 0.25208 0.0
C987 C 0.84339 0.8885 0.23164 0.0
C988 C 0.83043 0.86598 0.24914 0.0
C989 C 0.82722 0.83477 0.24001 0.0
C990 C 0.83712 0.82647 0.21211 0.0
C991 C 0.84977 0.84937 0.19335 0.0
C992 C 0.85312 0.88073 0.20359 0.0
H993 H 0.35179 0.5061 0.53406 0.0
H994 H 0.31141 0.59444 0.5642 0.0
H995 H 0.33319 0.6234 0.5234 0.0
H996 H 0.42025 0.54158 0.50803 0.0
H997 H 0.42269 0.51648 0.47641 0.0
H998 H 0.40553 0.50222 0.50919 0.0
H999 H 0.35842 0.49064 0.4793 0.0
H1000 H 0.37537 0.505 0.44647 0.0
H1001 H 0.34075 0.52217 0.45787 0.0
H1002 H 0.35633 0.64299 0.47884 0.0
H1003 H 0.38128 0.65269 0.43236 0.0
H1004 H 0.40761 0.55273 0.42887 0.0
C1005 C 0.34795 0.53159 0.53225 0.0
C1006 C 0.32977 0.5479 0.55243 0.0
C1007 C 0.32503 0.58124 0.54906 0.0
C1008 C 0.3374 0.59804 0.52594 0.0
C1009 C 0.35463 0.58133 0.50618 0.0
C1010 C 0.36015 0.54893 0.50899 0.0
C1011 C 0.37877 0.537 0.48375 0.0
C1012 C 0.40859 0.52352 0.49503 0.0
C1013 C 0.36234 0.51224 0.46579 0.0
C1014 C 0.38235 0.56772 0.46629 0.0
C1015 C 0.36824 0.59288 0.47987 0.0
C1016 C 0.36755 0.62352 0.46797 0.0
C1017 C 0.38159 0.62873 0.44139 0.0
C1018 C 0.39617 0.60347 0.42674 0.0
C1019 C 0.39676 0.57255 0.43959 0.0
H1020 H 0.21945 0.20163 0.40488 0.0
H1021 H 0.24924 0.20429 0.49538 0.0
H1022 H 0.30012 0.19378 0.4801 0.0
H1023 H 0.26656 0.136 0.38562 0.0
H1024 H 0.27396 0.15026 0.34916 0.0
H1025 H 0.24 0.16145 0.36646 0.0
H1026 H 0.25111 0.22097 0.35825 0.0
H1027 H 0.28519 0.20992 0.34098 0.0
H1028 H 0.28522 0.23625 0.37182 0.0
H1029 H 0.3471 0.18165 0.4563 0.0
H1030 H 0.38788 0.16368 0.4254 0.0
H1031 H 0.329 0.16434 0.34977 0.0
C1032 C 0.23685 0.20036 0.42127 0.0
C1033 C 0.23055 0.20391 0.45132 0.0
C1034 C 0.25367 0.20158 0.47229 0.0
C1035 C 0.28267 0.1958 0.46382 0.0
C1036 C 0.2883 0.192 0.43422 0.0
C1037 C 0.26616 0.19383 0.41318 0.0
C1038 C 0.27838 0.18618 0.38316 0.0
C1039 C 0.26386 0.15672 0.37035 0.0
C1040 C 0.27476 0.21506 0.36232 0.0
C1041 C 0.3106 0.17936 0.39085 0.0
C1042 C 0.31573 0.18347 0.42039 0.0
C1043 C 0.34339 0.1782 0.43312 0.0
C1044 C 0.36641 0.16776 0.41537 0.0
C1045 C 0.36173 0.16211 0.38516 0.0
C1046 C 0.33344 0.16863 0.3727 0.0
H1047 H 0.08357 0.04016 0.60066 0.0
H1048 H 0.09137 0.11187 0.66767 0.0
H1049 H 0.07029 0.07519 0.70372 0.0
H1050 H 0.01349 0.00639 0.62808 0.0
H1051 H 0.02484 0.96635 0.61897 0.0
H1052 H 0.03721 0.99948 0.59741 0.0
H1053 H 0.09119 0.9807 0.6067 0.0
H1054 H 0.07907 0.94771 0.62843 0.0
H1055 H 0.10455 0.97522 0.64381 0.0
H1056 H 0.05499 0.0294 0.73358 0.0
H1057 H 0.04327 0.97756 0.75548 0.0
H1058 H 0.04275 0.93522 0.66933 0.0
C1059 C 0.08 0.04845 0.6227 0.0
C1060 C 0.08918 0.07885 0.63141 0.0
C1061 C 0.08479 0.08858 0.66062 0.0
C1062 C 0.07265 0.068 0.6812 0.0
C1063 C 0.06466 0.03789 0.67215 0.0
C1064 C 0.06774 0.02819 0.64355 0.0
C1065 C 0.05914 0.99377 0.64017 0.0
C1066 C 0.03205 0.99137 0.61996 0.0
C1067 C 0.08503 0.97315 0.62913 0.0
C1068 C 0.05182 0.98536 0.67156 0.0
C1069 C 0.05501 0.01132 0.68952 0.0
C1070 C 0.05186 0.00906 0.7197 0.0
C1071 C 0.04542 0.97945 0.73194 0.0
C1072 C 0.04201 0.9525 0.71405 0.0
C1073 C 0.04478 0.95561 0.6834 0.0
H1074 H 0.20043 0.85121 0.89948 0.0
H1075 H 0.20434 0.77652 0.83481 0.0
H1076 H 0.25027 0.75505 0.85799 0.0
H1077 H 0.27708 0.86439 0.9044 0.0
H1078 H 0.27695 0.8711 0.94329 0.0
H1079 H 0.24449 0.88023 0.92152 0.0
H1080 H 0.21419 0.84354 0.95488 0.0
H1081 H 0.24653 0.83441 0.97684 0.0
H1082 H 0.2262 0.8027 0.96073 0.0
H1083 H 0.29659 0.74169 0.88928 0.0
H1084 H 0.33784 0.73825 0.92555 0.0
H1085 H 0.30219 0.82152 0.96892 0.0
C1086 C 0.21061 0.83007 0.89033 0.0
C1087 C 0.19856 0.81556 0.8653 0.0
C1088 C 0.21319 0.78832 0.85378 0.0
C1089 C 0.23925 0.77583 0.8669 0.0
C1090 C 0.25048 0.79081 0.89156 0.0
C1091 C 0.2365 0.81732 0.90313 0.0
C1092 C 0.25285 0.82925 0.92966 0.0
C1093 C 0.26347 0.86325 0.92438 0.0
C1094 C 0.23381 0.82735 0.95715 0.0
C1095 C 0.27832 0.80542 0.93128 0.0
C1096 C 0.27671 0.78333 0.90919 0.0
C1097 C 0.29801 0.75896 0.90658 0.0
C1098 C 0.3214 0.75721 0.92711 0.0
C1099 C 0.32327 0.77972 0.94977 0.0
C1100 C 0.3014 0.80401 0.95175 0.0
H1101 H 0.50756 0.03689 0.17277 0.0
H1102 H 0.49573 0.99909 0.26051 0.0
H1103 H 0.48321 0.94718 0.24015 0.0
H1104 H 0.44659 0.99861 0.14126 0.0
H1105 H 0.46361 0.99053 0.10665 0.0
H1106 H 0.47486 0.024 0.12787 0.0
H1107 H 0.52874 1.00273 0.1273 0.0
H1108 H 0.51764 0.96918 0.10602 0.0
H1109 H 0.53734 0.96279 0.14017 0.0
H1110 H 0.46929 0.90047 0.21104 0.0
H1111 H 0.45211 0.86233 0.17461 0.0
H1112 H 0.47158 0.92937 0.10486 0.0
C1113 C 0.50282 0.01747 0.18761 0.0
C1114 C 0.50274 0.02199 0.21825 0.0
C1115 C 0.49583 0.99622 0.23698 0.0
C1116 C 0.48884 0.96655 0.22564 0.0
C1117 C 0.48863 0.96291 0.19542 0.0
C1118 C 0.49527 0.9876 0.17656 0.0
C1119 C 0.49117 0.97773 0.14491 0.0
C1120 C 0.46766 0.99898 0.12926 0.0
C1121 C 0.52047 0.97813 0.12864 0.0
C1122 C 0.48074 0.94393 0.14907 0.0
C1123 C 0.47989 0.93582 0.17841 0.0
C1124 C 0.47016 0.90637 0.18795 0.0
C1125 C 0.46063 0.88472 0.16701 0.0
C1126 C 0.46065 0.89256 0.13674 0.0
C1127 C 0.47122 0.92256 0.12778 0.0
H1128 H 0.85113 0.31383 0.65232 0.0
H1129 H 0.82514 0.41306 0.66326 0.0
H1130 H 0.77662 0.40263 0.6415 0.0
H1131 H 0.81752 0.30398 0.58397 0.0
H1132 H 0.80555 0.26405 0.5907 0.0
H1133 H 0.83734 0.2783 0.60974 0.0
H1134 H 0.81379 0.26473 0.65948 0.0
H1135 H 0.78191 0.25031 0.64056 0.0
H1136 H 0.7778 0.28086 0.66765 0.0
H1137 H 0.73334 0.38332 0.61415 0.0
H1138 H 0.69689 0.35569 0.58406 0.0
H1139 H 0.74907 0.26804 0.59219 0.0
C1140 C 0.83497 0.33317 0.65079 0.0
C1141 C 0.84203 0.36433 0.65943 0.0
C1142 C 0.82043 0.38911 0.65649 0.0
C1143 C 0.7927 0.38337 0.64434 0.0
C1144 C 0.78669 0.35262 0.63547 0.0
C1145 C 0.80704 0.32782 0.63875 0.0
C1146 C 0.79539 0.2974 0.62588 0.0
C1147 C 0.81513 0.28523 0.6011 0.0
C1148 C 0.79202 0.27181 0.64983 0.0
C1149 C 0.76568 0.30927 0.61415 0.0
C1150 C 0.76113 0.34119 0.62011 0.0
C1151 C 0.73639 0.35821 0.60977 0.0
C1152 C 0.71588 0.34234 0.5926 0.0
C1153 C 0.72004 0.3097 0.58606 0.0
C1154 C 0.74505 0.29283 0.59741 0.0
H1155 H 0.97723 0.48612 0.79178 0.0
H1156 H 0.99699 0.40395 0.84767 0.0
H1157 H 0.98071 0.43488 0.89082 0.0
H1158 H 0.99984 0.54668 0.84285 0.0
H1159 H 0.97063 0.57414 0.83161 0.0
H1160 H 0.98543 0.54598 0.80593 0.0
H1161 H 0.9333 0.52484 0.79637 0.0
H1162 H 0.91835 0.55288 0.82201 0.0
H1163 H 0.9121 0.51098 0.82679 0.0
H1164 H 0.95939 0.47495 0.92748 0.0
H1165 H 0.93605 0.51971 0.954 0.0
H1166 H 0.93008 0.5748 0.8731 0.0
C1167 C 0.97843 0.47461 0.81312 0.0
C1168 C 0.98834 0.44256 0.81638 0.0
C1169 C 0.98946 0.42845 0.84468 0.0
C1170 C 0.98026 0.44587 0.86927 0.0
C1171 C 0.97013 0.47736 0.86514 0.0
C1172 C 0.96932 0.49155 0.8377 0.0
C1173 C 0.95665 0.52523 0.83866 0.0
C1174 C 0.97951 0.54943 0.82921 0.0
C1175 C 0.92843 0.52867 0.81985 0.0
C1176 C 0.95009 0.52788 0.87094 0.0
C1177 C 0.95807 0.50011 0.88593 0.0
C1178 C 0.95322 0.49678 0.91588 0.0
C1179 C 0.93977 0.52231 0.93075 0.0
C1180 C 0.93122 0.55093 0.91573 0.0
C1181 C 0.93676 0.55358 0.88542 0.0
H1182 H 0.78631 0.67635 0.048 0.0
H1183 H 0.82337 0.73592 0.1154 0.0
H1184 H 0.78243 0.72332 0.14774 0.0
H1185 H 0.71124 0.69774 0.06055 0.0
H1186 H 0.69772 0.65848 0.05421 0.0
H1187 H 0.73059 0.67102 0.03647 0.0
H1188 H 0.75932 0.62209 0.05837 0.0
H1189 H 0.72649 0.6093 0.07607 0.0
H1190 H 0.75944 0.61519 0.0974 0.0
H1191 H 0.73656 0.70609 0.17233 0.0
H1192 H 0.68931 0.68475 0.1877 0.0
H1193 H 0.68204 0.63511 0.10519 0.0
C1194 C 0.786 0.68654 0.06964 0.0
C1195 C 0.80824 0.7072 0.07901 0.0
C1196 C 0.80672 0.72011 0.10752 0.0
C1197 C 0.7835 0.71307 0.12616 0.0
C1198 C 0.76185 0.69296 0.11614 0.0
C1199 C 0.76291 0.67975 0.08861 0.0
C1200 C 0.73645 0.65933 0.0831 0.0
C1201 C 0.71791 0.67244 0.05704 0.0
C1202 C 0.746 0.62441 0.07847 0.0
C1203 C 0.72029 0.66335 0.11173 0.0
C1204 C 0.7354 0.6828 0.13047 0.0
C1205 C 0.72468 0.69055 0.15795 0.0
C1206 C 0.69783 0.67809 0.16658 0.0
C1207 C 0.68185 0.65792 0.14787 0.0
C1208 C 0.69345 0.65056 0.12003 0.0
H1209 H 0.63715 0.46824 0.38549 0.0
H1210 H 0.55461 0.43721 0.4209 0.0
H1211 H 0.52801 0.47833 0.39097 0.0
H1212 H 0.61851 0.55262 0.38354 0.0
H1213 H 0.63734 0.5597 0.34973 0.0
H1214 H 0.6499 0.52799 0.37408 0.0
H1215 H 0.64525 0.48753 0.33205 0.0
H1216 H 0.6328 0.51913 0.30756 0.0
H1217 H 0.61071 0.48462 0.31267 0.0
H1218 H 0.51025 0.52294 0.35671 0.0
H1219 H 0.50277 0.56571 0.31948 0.0
H1220 H 0.5969 0.56832 0.30702 0.0
C1221 C 0.6135 0.47024 0.38723 0.0
C1222 C 0.59805 0.44934 0.40569 0.0
C1223 C 0.56701 0.45255 0.40675 0.0
C1224 C 0.55169 0.47605 0.38998 0.0
C1225 C 0.56765 0.4963 0.37218 0.0
C1226 C 0.59787 0.49355 0.37064 0.0
C1227 C 0.60978 0.51784 0.34933 0.0
C1228 C 0.63008 0.5409 0.36512 0.0
C1229 C 0.62556 0.50129 0.3239 0.0
C1230 C 0.58153 0.53461 0.33898 0.0
C1231 C 0.55747 0.52191 0.35252 0.0
C1232 C 0.52897 0.53306 0.34605 0.0
C1233 C 0.52493 0.5574 0.32489 0.0
C1234 C 0.54922 0.57041 0.31037 0.0
C1235 C 0.5779 0.55906 0.31788 0.0
H1236 H 0.4062 0.31319 0.18316 0.0
H1237 H 0.3244 0.26422 0.19382 0.0
H1238 H 0.35224 0.2159 0.21104 0.0
H1239 H 0.44715 0.24814 0.15588 0.0
H1240 H 0.48078 0.25825 0.17434 0.0
H1241 H 0.45411 0.28902 0.16449 0.0
H1242 H 0.45224 0.30703 0.21853 0.0
H1243 H 0.47903 0.27635 0.22853 0.0
H1244 H 0.44426 0.27841 0.24685 0.0
H1245 H 0.39074 0.17156 0.22603 0.0
H1246 H 0.4352 0.13703 0.23577 0.0
H1247 H 0.49006 0.21673 0.21512 0.0
C1248 C 0.39398 0.29259 0.18967 0.0
C1249 C 0.36302 0.29272 0.1873 0.0
C1250 C 0.34812 0.26475 0.19528 0.0
C1251 C 0.36376 0.23721 0.20524 0.0
C1252 C 0.39435 0.23791 0.2071 0.0
C1253 C 0.40918 0.26503 0.19953 0.0
C1254 C 0.44204 0.2597 0.20228 0.0
C1255 C 0.45688 0.26403 0.17248 0.0
C1256 C 0.45516 0.28167 0.22543 0.0
C1257 C 0.44355 0.22529 0.21238 0.0
C1258 C 0.41596 0.21292 0.21526 0.0
C1259 C 0.41241 0.18116 0.22388 0.0
C1260 C 0.43772 0.16169 0.22939 0.0
C1261 C 0.46608 0.17411 0.22612 0.0
C1262 C 0.46873 0.20638 0.21778 0.0
H1263 H 0.93615 0.30392 0.76536 0.0
H1264 H 1.00168 0.29698 0.8354 0.0
H1265 H 0.97675 0.25138 0.85649 0.0
H1266 H 0.87445 0.28429 0.8107 0.0
H1267 H 0.85636 0.26131 0.78308 0.0
H1268 H 0.87959 0.29337 0.77246 0.0
H1269 H 0.91039 0.25457 0.74093 0.0
H1270 H 0.88734 0.22233 0.75151 0.0
H1271 H 0.92649 0.21896 0.75757 0.0
H1272 H 0.94585 0.20668 0.87047 0.0
H1273 H 0.90831 0.1666 0.8782 0.0
H1274 H 0.86132 0.20116 0.80024 0.0
C1275 C 0.9452 0.29277 0.78511 0.0
C1276 C 0.97096 0.30423 0.79863 0.0
C1277 C 0.98198 0.28896 0.82456 0.0
C1278 C 0.96804 0.26283 0.83675 0.0
C1279 C 0.94288 0.2521 0.82298 0.0
C1280 C 0.93131 0.26657 0.79788 0.0
C1281 C 0.90344 0.25036 0.78816 0.0
C1282 C 0.87689 0.27373 0.78864 0.0
C1283 C 0.90715 0.23568 0.75773 0.0
C1284 C 0.9013 0.22471 0.81179 0.0
C1285 C 0.9245 0.22613 0.83143 0.0
C1286 C 0.9276 0.20519 0.8552 0.0
C1287 C 0.90624 0.18229 0.85926 0.0
C1288 C 0.88192 0.18043 0.83975 0.0
C1289 C 0.87957 0.20198 0.81561 0.0
H1290 H 0.07097 0.64005 0.12075 0.0
H1291 H 0.06499 0.56225 0.05957 0.0
H1292 H 0.01751 0.58487 0.04094 0.0
H1293 H 0.99378 0.64473 0.13837 0.0
H1294 H 0.99332 0.68749 0.14107 0.0
H1295 H 0.02654 0.66477 0.14941 0.0
H1296 H 0.05448 0.69801 0.11117 0.0
H1297 H 0.02136 0.7208 0.10272 0.0
H1298 H 0.04082 0.70063 0.07397 0.0
H1299 H 0.97018 0.61809 0.02802 0.0
H1300 H 0.929 0.65803 0.0229 0.0
H1301 H 0.96636 0.71146 0.09421 0.0
C1302 C 0.05957 0.62731 0.10379 0.0
C1303 C 0.07193 0.5992 0.09179 0.0
C1304 C 0.05632 0.58399 0.06901 0.0
C1305 C 0.02917 0.59657 0.05838 0.0
C1306 C 0.0177 0.62434 0.07077 0.0
C1307 C 0.0325 0.63939 0.09307 0.0
C1308 C 0.016 0.66914 0.10256 0.0
C1309 C 1.00687 0.66635 0.13476 0.0
C1310 C 0.03425 0.69889 0.09728 0.0
C1311 C 0.98961 0.66866 0.08212 0.0
C1312 C 0.9908 0.64276 0.06382 0.0
C1313 C 0.969 0.63828 0.04247 0.0
C1314 C 0.94564 0.66098 0.03973 0.0
C1315 C 0.94432 0.68766 0.05831 0.0
C1316 C 0.96653 0.69116 0.07983 0.0
H1317 H 0.67147 0.79673 0.33783 0.0
H1318 H 0.60731 0.8746 0.33004 0.0
H1319 H 0.57164 0.83829 0.30805 0.0
H1320 H 0.65103 0.75924 0.26796 0.0
H1321 H 0.65728 0.71937 0.28211 0.0
H1322 H 0.67817 0.75163 0.29646 0.0
H1323 H 0.66133 0.73752 0.34883 0.0
H1324 H 0.6403 0.70534 0.33465 0.0
H1325 H 0.62263 0.73574 0.35623 0.0
H1326 H 0.54151 0.79292 0.29176 0.0
H1327 H 0.52005 0.74212 0.27692 0.0
H1328 H 0.60442 0.69369 0.2907 0.0
C1329 C 0.64999 0.80609 0.33117 0.0
C1330 C 0.64207 0.83848 0.33557 0.0
C1331 C 0.61384 0.84997 0.32659 0.0
C1332 C 0.59343 0.82949 0.31421 0.0
C1333 C 0.60175 0.79766 0.31043 0.0
C1334 C 0.62951 0.78606 0.31812 0.0
C1335 C 0.63273 0.75079 0.31143 0.0
C1336 C 0.6562 0.74492 0.2881 0.0
C1337 C 0.63965 0.7312 0.33946 0.0
C1338 C 0.60222 0.74424 0.29953 0.0
C1339 C 0.58471 0.77166 0.29939 0.0
C1340 C 0.55513 0.77144 0.29127 0.0
C1341 C 0.54312 0.74251 0.28299 0.0
C1342 C 0.56069 0.71427 0.28239 0.0
C1343 C 0.5907 0.71515 0.29051 0.0
H1344 H 0.5706 0.31074 0.52902 0.0
H1345 H 0.62 0.32405 0.60951 0.0
H1346 H 0.58015 0.35919 0.62783 0.0
H1347 H 0.53476 0.39158 0.52471 0.0
H1348 H 0.50053 0.37623 0.51152 0.0
H1349 H 0.53474 0.35615 0.50287 0.0
H1350 H 0.51552 0.30377 0.52504 0.0
H1351 H 0.48141 0.32369 0.53394 0.0
H1352 H 0.5028 0.30328 0.56224 0.0
H1353 H 0.53346 0.38853 0.63937 0.0
H1354 H 0.48239 0.40862 0.64414 0.0
H1355 H 0.46222 0.37535 0.55676 0.0
C1356 C 0.57328 0.3218 0.55014 0.0
C1357 C 0.59842 0.31506 0.5678 0.0
C1358 C 0.60091 0.32914 0.59565 0.0
C1359 C 0.57846 0.34918 0.60618 0.0
C1360 C 0.55356 0.35477 0.58863 0.0
C1361 C 0.55079 0.34152 0.56119 0.0
C1362 C 0.52058 0.34885 0.54802 0.0
C1363 C 0.52279 0.36943 0.52013 0.0
C1364 C 0.50412 0.31807 0.54197 0.0
C1365 C 0.5066 0.36751 0.57265 0.0
C1366 C 0.52619 0.37111 0.59564 0.0
C1367 C 0.51802 0.38626 0.62136 0.0
C1368 C 0.48897 0.39772 0.62382 0.0
C1369 C 0.46828 0.39372 0.60081 0.0
C1370 C 0.47747 0.37873 0.57478 0.0
H1371 H 0.12735 0.65385 0.68889 0.0
H1372 H 0.21032 0.70194 0.69294 0.0
H1373 H 0.185 0.74946 0.71326 0.0
H1374 H 0.08479 0.719 0.66523 0.0
H1375 H 0.05291 0.70923 0.6861 0.0
H1376 H 0.07809 0.67815 0.67496 0.0
H1377 H 0.08503 0.65947 0.72898 0.0
H1378 H 0.05969 0.69046 0.74031 0.0
H1379 H 0.09611 0.68758 0.75621 0.0
H1380 H 0.1493 0.79347 0.72945 0.0
H1381 H 0.10657 0.82946 0.73932 0.0
H1382 H 0.04804 0.75133 0.7251 0.0
C1383 C 0.14041 0.67399 0.69482 0.0
C1384 C 0.17087 0.67406 0.68952 0.0
C1385 C 0.18693 0.70139 0.69672 0.0
C1386 C 0.17277 0.7284 0.70843 0.0
C1387 C 0.14258 0.72767 0.71292 0.0
C1388 C 0.12667 0.70103 0.70645 0.0
C1389 C 0.09422 0.7068 0.71134 0.0
C1390 C 0.07648 0.70309 0.68271 0.0
C1391 C 0.08312 0.68477 0.73566 0.0
C1392 C 0.09419 0.74106 0.72098 0.0
C1393 C 0.12225 0.75274 0.72205 0.0
C1394 C 0.12728 0.78443 0.72897 0.0
C1395 C 0.10295 0.8047 0.73453 0.0
C1396 C 0.0741 0.79312 0.73299 0.0
C1397 C 0.06987 0.76081 0.72661 0.0
H1398 H 0.48259 0.82241 0.98684 0.0
H1399 H 0.4448 0.79713 0.90293 0.0
H1400 H 0.4844 0.8248 0.87756 0.0
H1401 H 0.51082 0.90085 0.96434 0.0
H1402 H 0.54402 0.89545 0.98595 0.0
H1403 H 0.51067 0.87728 0.99758 0.0
H1404 H 0.53757 0.82217 0.99925 0.0
H1405 H 0.5709 0.8401 0.98744 0.0
H1406 H 0.55579 0.80785 0.967 0.0
H1407 H 0.5294 0.85188 0.86124 0.0
H1408 H 0.57811 0.87509 0.85492 0.0
H1409 H 0.58838 0.8812 0.94925 0.0
C1410 C 0.48231 0.82348 0.96314 0.0
C1411 C 0.46048 0.80803 0.94677 0.0
C1412 C 0.46127 0.809 0.91581 0.0
C1413 C 0.48361 0.82472 0.90122 0.0
C1414 C 0.50519 0.83913 0.91791 0.0
C1415 C 0.50483 0.83864 0.94818 0.0
C1416 C 0.53208 0.85363 0.9608 0.0
C1417 C 0.5239 0.88359 0.97819 0.0
C1418 C 0.55015 0.82949 0.97973 0.0
C1419 C 0.54798 0.86205 0.93291 0.0
C1420 C 0.53183 0.85391 0.90845 0.0
C1421 C 0.54215 0.85865 0.88021 0.0
C1422 C 0.56979 0.87195 0.87683 0.0
C1423 C 0.58699 0.88006 0.90156 0.0
C1424 C 0.57577 0.87513 0.92994 0.0
H1425 H 0.95139 0.13351 0.42833 0.0
H1426 H 0.99215 0.0393 0.43698 0.0
H1427 H 0.03879 0.06332 0.45229 0.0
H1428 H 1.01279 0.17153 0.39801 0.0
H1429 H 1.00647 0.20834 0.41704 0.0
H1430 H 0.97609 0.18348 0.40832 0.0
H1431 H 0.96188 0.18163 0.46306 0.0
H1432 H 0.99219 0.20656 0.47193 0.0
H1433 H 0.98888 0.16857 0.49015 0.0
H1434 H 0.08237 0.09871 0.46424 0.0
H1435 H 0.11749 0.14193 0.47289 0.0
H1436 H 0.04734 0.21198 0.45658 0.0
C1437 C 0.97009 0.11787 0.43346 0.0
C1438 C 0.96799 0.08446 0.43144 0.0
C1439 C 0.99301 0.06493 0.4387 0.0
C1440 C 0.01969 0.07837 0.44727 0.0
C1441 C 0.02105 0.11143 0.44867 0.0
C1442 C 0.99679 0.13085 0.44213 0.0
C1443 C 1.00392 0.16565 0.44483 0.0
C1444 C 0.99957 0.18327 0.41529 0.0
C1445 C 0.98563 0.18153 0.46893 0.0
C1446 C 0.03608 0.16287 0.45353 0.0
C1447 C 0.0457 0.13147 0.45571 0.0
C1448 C 0.07495 0.12336 0.46276 0.0
C1449 C 0.09477 0.148 0.46763 0.0
C1450 C 0.08516 0.18027 0.46549 0.0
C1451 C 0.05539 0.18755 0.4585 0.0
loop_
_geom_bond_atom_site_label_1
_geom_bond_atom_site_label_2
_geom_bond_distance
_geom_bond_site_symmetry_2
_ccdc_geom_bond_type
Sm0 C2 2.846 . S
Sm0 O20 2.543 . S
Sm0 O21 2.450 . S
Sm0 O22 2.681 . S
Sm0 O23 2.464 . S
Sm0 O24 2.396 . S
Sm0 O28 2.386 . S
Sm0 O31 2.408 . S
Sm1 C11 2.846 . S
Sm1 O22 2.386 . S
Sm1 O25 2.408 . S
Sm1 O26 2.543 . S
Sm1 O27 2.450 . S
Sm1 O28 2.681 . S
Sm1 O29 2.464 . S
Sm1 O30 2.396 . S
C2 Sm0 2.846 . S
C2 C3 1.506 . S
C2 O20 1.261 . S
C2 O21 1.242 . S
C3 C2 1.506 . S
C3 C4 1.358 . S
C3 C8 1.382 . S
C4 C3 1.358 . S
C4 C5 1.385 . S
C4 H32 0.930 . S
C5 C4 1.385 . S
C5 C6 1.395 . S
C5 H33 0.929 . S
C6 C5 1.395 . S
C6 C7 1.335 . S
C7 C6 1.335 . S
C7 C8 1.398 . S
C7 H34 0.930 . S
C8 C3 1.382 . S
C8 C7 1.398 . S
C8 H35 0.929 . S
C9 O22 1.271 . S
C9 O23 1.251 . S
C10 O24 1.252 . S
C10 O25 1.272 . S
C11 Sm1 2.846 . S
C11 C12 1.506 . S
C11 O26 1.261 . S
C11 O27 1.242 . S
C12 C11 1.506 . S
C12 C13 1.358 . S
C12 C17 1.382 . S
C13 C12 1.358 . S
C13 C14 1.385 . S
C13 H36 0.930 . S
C14 C13 1.385 . S
C14 C15 1.395 . S
C14 H37 0.929 . S
C15 C14 1.395 . S
C15 C16 1.335 . S
C16 C15 1.335 . S
C16 C17 1.398 . S
C16 H38 0.930 . S
C17 C12 1.382 . S
C17 C16 1.398 . S
C17 H39 0.929 . S
C18 O28 1.271 . S
C18 O29 1.251 . S
C19 O30 1.252 . S
C19 O31 1.272 . S
O20 Sm0 2.543 . S
O20 C2 1.261 . S
O21 Sm0 2.450 . S
O21 C2 1.242 . S
O22 Sm0 2.681 . S
O22 Sm1 2.386 . S
O22 C9 1.271 . S
O23 Sm0 2.464 . S
O23 C9 1.251 . S
O24 Sm0 2.396 . S
O24 C10 1.252 . S
O25 Sm1 2.408 . S
O25 C10 1.272 . S
O26 Sm1 2.543 . S
O26 C11 1.261 . S
O27 Sm1 2.450 . S
O27 C11 1.242 . S
O28 Sm0 2.386 . S
O28 Sm1 2.681 . S
O28 C18 1.271 . S
O29 Sm1 2.464 . S
O29 C18 1.251 . S
O30 Sm1 2.396 . S
O30 C19 1.252 . S
O31 Sm0 2.408 . S
O31 C19 1.272 . S
H32 C4 0.930 . S
H33 C5 0.929 . S
H34 C7 0.930 . S
H35 C8 0.929 . S
H36 C13 0.930 . S
H37 C14 0.929 . S
H38 C16 0.930 . S
H39 C17 0.929 . S
Sm40 C42 2.846 . S
Sm40 O60 2.543 . S
Sm40 O61 2.450 . S
Sm40 O62 2.681 1_655 S
Sm40 O63 2.464 1_655 S
Sm40 O64 2.396 1_655 S
Sm40 O68 2.386 . S
Sm40 O71 2.408 . S
Sm41 C51 2.846 . S
Sm41 O62 2.386 . S
Sm41 O65 2.408 . S
Sm41 O66 2.543 . S
Sm41 O67 2.450 . S
Sm41 O68 2.681 1_455 S
Sm41 O69 2.484 . S
Sm41 O70 2.396 . S
C42 Sm40 2.846 . S
C42 C43 1.506 . S
C42 O60 1.261 . S
C42 O61 1.242 . S
C43 C42 1.506 . S
C43 C44 1.358 . S
C43 C48 1.382 . S
C44 C43 1.358 . S
C44 C45 1.385 . S
C44 H72 0.930 . S
C45 C44 1.385 . S
C45 C46 1.395 . S
C45 H73 0.929 . S
C46 C45 1.395 . S
C46 C47 1.335 . S
C47 C46 1.335 . S
C47 C48 1.398 . S
C47 H74 0.930 . S
C48 C43 1.382 . S
C48 C47 1.398 . S
C48 H75 0.929 . S
C49 O62 1.271 . S
C49 O63 1.251 . S
C50 O64 1.252 . S
C50 O65 1.272 . S
C51 Sm41 2.846 . S
C51 C52 1.506 . S
C51 O66 1.261 . S
C51 O67 1.242 . S
C52 C51 1.506 . S
C52 C53 1.358 . S
C52 C57 1.382 . S
C53 C52 1.358 . S
C53 C54 1.385 . S
C53 H76 0.930 . S
C54 C53 1.385 . S
C54 C55 1.395 . S
C54 H77 0.929 . S
C55 C54 1.395 . S
C55 C56 1.335 . S
C56 C55 1.335 . S
C56 C57 1.398 . S
C56 H78 0.930 . S
C57 C52 1.382 . S
C57 C56 1.398 . S
C57 H79 0.929 . S
C58 O68 1.271 . S
C58 O69 1.231 1_655 S
C59 O70 1.252 1_655 S
C59 O71 1.272 . S
O60 Sm40 2.543 . S
O60 C42 1.261 . S
O61 Sm40 2.450 . S
O61 C42 1.242 . S
O62 Sm40 2.681 1_455 S
O62 Sm41 2.386 . S
O62 C49 1.271 . S
O63 Sm40 2.464 1_455 S
O63 C49 1.251 . S
O64 Sm40 2.396 1_455 S
O64 C50 1.252 . S
O65 Sm41 2.408 . S
O65 C50 1.272 . S
O66 Sm41 2.543 . S
O66 C51 1.261 . S
O67 Sm41 2.450 . S
O67 C51 1.242 . S
O68 Sm40 2.386 . S
O68 Sm41 2.681 1_655 S
O68 C58 1.271 . S
O69 Sm41 2.484 . S
O69 C58 1.231 1_455 S
O70 Sm41 2.396 . S
O70 C59 1.252 1_455 S
O71 Sm40 2.408 . S
O71 C59 1.272 . S
H72 C44 0.930 . S
H73 C45 0.929 . S
H74 C47 0.930 . S
H75 C48 0.929 . S
H76 C53 0.930 . S
H77 C54 0.929 . S
H78 C56 0.930 . S
H79 C57 0.929 . S
Sm80 C82 2.846 . S
Sm80 O100 2.543 . S
Sm80 O101 2.450 . S
Sm80 O102 2.681 1_554 S
Sm80 O103 2.464 1_554 S
Sm80 O104 2.396 1_554 S
Sm80 O108 2.386 . S
Sm80 O111 2.408 . S
Sm81 C91 2.846 . S
Sm81 O102 2.386 . S
Sm81 O105 2.408 . S
Sm81 O106 2.543 . S
Sm81 O107 2.450 . S
Sm81 O108 2.681 1_556 S
Sm81 O109 2.464 . S
Sm81 O110 2.396 . S
C82 Sm80 2.846 . S
C82 C83 1.506 . S
C82 O100 1.261 . S
C82 O101 1.242 . S
C83 C82 1.506 . S
C83 C84 1.358 . S
C83 C88 1.382 . S
C84 C83 1.358 . S
C84 C85 1.385 . S
C84 H112 0.930 . S
C85 C84 1.385 . S
C85 C86 1.395 . S
C85 H113 0.929 . S
C86 C85 1.395 . S
C86 C87 1.335 . S
C87 C86 1.335 . S
C87 C88 1.398 . S
C87 H114 0.930 . S
C88 C83 1.382 . S
C88 C87 1.398 . S
C88 H115 0.929 . S
C89 O102 1.271 . S
C89 O103 1.251 . S
C90 O104 1.252 . S
C90 O105 1.272 . S
C91 Sm81 2.846 . S
C91 C92 1.506 . S
C91 O106 1.261 . S
C91 O107 1.242 . S
C92 C91 1.506 . S
C92 C93 1.358 . S
C92 C97 1.382 . S
C93 C92 1.358 . S
C93 C94 1.385 . S
C93 H116 0.930 . S
C94 C93 1.385 . S
C94 C95 1.395 . S
C94 H117 0.929 . S
C95 C94 1.395 . S
C95 C96 1.335 . S
C96 C95 1.335 . S
C96 C97 1.398 . S
C96 H118 0.930 . S
C97 C92 1.382 . S
C97 C96 1.398 . S
C97 H119 0.929 . S
C98 O108 1.271 . S
C98 O109 1.251 1_554 S
C99 O110 1.252 1_554 S
C99 O111 1.272 . S
O100 Sm80 2.543 . S
O100 C82 1.261 . S
O101 Sm80 2.450 . S
O101 C82 1.242 . S
O102 Sm80 2.681 1_556 S
O102 Sm81 2.386 . S
O102 C89 1.271 . S
O103 Sm80 2.464 1_556 S
O103 C89 1.251 . S
O104 Sm80 2.396 1_556 S
O104 C90 1.252 . S
O105 Sm81 2.408 . S
O105 C90 1.272 . S
O106 Sm81 2.543 . S
O106 C91 1.261 . S
O107 Sm81 2.450 . S
O107 C91 1.242 . S
O108 Sm80 2.386 . S
O108 Sm81 2.681 1_554 S
O108 C98 1.271 . S
O109 Sm81 2.464 . S
O109 C98 1.251 1_556 S
O110 Sm81 2.396 . S
O110 C99 1.252 1_556 S
O111 Sm80 2.408 . S
O111 C99 1.272 . S
H112 C84 0.930 . S
H113 C85 0.929 . S
H114 C87 0.930 . S
H115 C88 0.929 . S
H116 C93 0.930 . S
H117 C94 0.929 . S
H118 C96 0.930 . S
H119 C97 0.929 . S
Sm120 C122 2.846 . S
Sm120 O140 2.543 . S
Sm120 O141 2.450 . S
Sm120 O142 2.681 . S
Sm120 O143 2.464 . S
Sm120 O144 2.396 . S
Sm120 O148 2.386 . S
Sm120 O151 2.408 . S
Sm121 C131 2.846 . S
Sm121 O142 2.386 . S
Sm121 O145 2.408 . S
Sm121 O146 2.543 . S
Sm121 O147 2.450 . S
Sm121 O148 2.681 . S
Sm121 O149 2.464 . S
Sm121 O150 2.396 . S
C122 Sm120 2.846 . S
C122 C123 1.506 . S
C122 O140 1.261 . S
C122 O141 1.242 . S
C123 C122 1.506 . S
C123 C124 1.358 . S
C123 C128 1.382 . S
C124 C123 1.358 . S
C124 C125 1.385 . S
C124 H152 0.930 . S
C125 C124 1.385 . S
C125 C126 1.395 . S
C125 H153 0.929 . S
C126 C125 1.395 . S
C126 C127 1.335 . S
C127 C126 1.335 . S
C127 C128 1.398 . S
C127 H154 0.930 . S
C128 C123 1.382 . S
C128 C127 1.398 . S
C128 H155 0.929 . S
C129 O142 1.271 . S
C129 O143 1.251 . S
C130 O144 1.252 . S
C130 O145 1.272 . S
C131 Sm121 2.846 . S
C131 C132 1.506 . S
C131 O146 1.261 . S
C131 O147 1.242 . S
C132 C131 1.506 . S
C132 C133 1.358 . S
C132 C137 1.382 . S
C133 C132 1.358 . S
C133 C134 1.385 . S
C133 H156 0.930 . S
C134 C133 1.385 . S
C134 C135 1.395 . S
C134 H157 0.929 . S
C135 C134 1.395 . S
C135 C136 1.335 . S
C136 C135 1.335 . S
C136 C137 1.398 . S
C136 H158 0.930 . S
C137 C132 1.382 . S
C137 C136 1.398 . S
C137 H159 0.929 . S
C138 O148 1.271 . S
C138 O149 1.251 . S
C139 O150 1.252 . S
C139 O151 1.272 . S
O140 Sm120 2.543 . S
O140 C122 1.261 . S
O141 Sm120 2.450 . S
O141 C122 1.242 . S
O142 Sm120 2.681 . S
O142 Sm121 2.386 . S
O142 C129 1.271 . S
O143 Sm120 2.464 . S
O143 C129 1.251 . S
O144 Sm120 2.396 . S
O144 C130 1.252 . S
O145 Sm121 2.408 . S
O145 C130 1.272 . S
O146 Sm121 2.543 . S
O146 C131 1.261 . S
O147 Sm121 2.450 . S
O147 C131 1.242 . S
O148 Sm120 2.386 . S
O148 Sm121 2.681 . S
O148 C138 1.271 . S
O149 Sm121 2.464 . S
O149 C138 1.251 . S
O150 Sm121 2.396 . S
O150 C139 1.252 . S
O151 Sm120 2.408 . S
O151 C139 1.272 . S
H152 C124 0.930 . S
H153 C125 0.929 . S
H154 C127 0.930 . S
H155 C128 0.929 . S
H156 C133 0.930 . S
H157 C134 0.929 . S
H158 C136 0.930 . S
H159 C137 0.929 . S
Sm160 C162 2.846 . S
Sm160 O180 2.543 . S
Sm160 O181 2.450 . S
Sm160 O182 2.681 . S
Sm160 O183 2.464 . S
Sm160 O184 2.396 . S
Sm160 O188 2.386 . S
Sm160 O191 2.408 . S
Sm161 C171 2.846 . S
Sm161 O182 2.386 . S
Sm161 O185 2.408 . S
Sm161 O186 2.543 . S
Sm161 O187 2.450 . S
Sm161 O188 2.681 . S
Sm161 O189 2.464 . S
Sm161 O190 2.396 . S
C162 Sm160 2.846 . S
C162 C163 1.506 . S
C162 O180 1.261 . S
C162 O181 1.242 . S
C163 C162 1.506 . S
C163 C164 1.358 . S
C163 C168 1.382 . S
C164 C163 1.358 . S
C164 C165 1.385 . S
C164 H192 0.930 . S
C165 C164 1.385 . S
C165 C166 1.395 . S
C165 H193 0.929 . S
C166 C165 1.395 . S
C166 C167 1.335 . S
C167 C166 1.335 . S
C167 C168 1.398 . S
C167 H194 0.930 . S
C168 C163 1.382 . S
C168 C167 1.398 . S
C168 H195 0.929 . S
C169 O182 1.271 . S
C169 O183 1.251 . S
C170 O184 1.252 . S
C170 O185 1.272 . S
C171 Sm161 2.846 . S
C171 C172 1.506 . S
C171 O186 1.261 . S
C171 O187 1.242 . S
C172 C171 1.506 . S
C172 C173 1.358 . S
C172 C177 1.382 . S
C173 C172 1.358 . S
C173 C174 1.385 . S
C173 H196 0.930 . S
C174 C173 1.385 . S
C174 C175 1.395 . S
C174 H197 0.929 . S
C175 C174 1.395 . S
C175 C176 1.335 . S
C176 C175 1.335 . S
C176 C177 1.398 . S
C176 H198 0.930 . S
C177 C172 1.382 . S
C177 C176 1.398 . S
C177 H199 0.929 . S
C178 O188 1.271 . S
C178 O189 1.251 . S
C179 O190 1.252 . S
C179 O191 1.272 . S
O180 Sm160 2.543 . S
O180 C162 1.261 . S
O181 Sm160 2.450 . S
O181 C162 1.242 . S
O182 Sm160 2.681 . S
O182 Sm161 2.386 . S
O182 C169 1.271 . S
O183 Sm160 2.464 . S
O183 C169 1.251 . S
O184 Sm160 2.396 . S
O184 C170 1.252 . S
O185 Sm161 2.408 . S
O185 C170 1.272 . S
O186 Sm161 2.543 . S
O186 C171 1.261 . S
O187 Sm161 2.450 . S
O187 C171 1.242 . S
O188 Sm160 2.386 . S
O188 Sm161 2.681 . S
O188 C178 1.271 . S
O189 Sm161 2.464 . S
O189 C178 1.251 . S
O190 Sm161 2.396 . S
O190 C179 1.252 . S
O191 Sm160 2.408 . S
O191 C179 1.272 . S
H192 C164 0.930 . S
H193 C165 0.929 . S
H194 C167 0.930 . S
H195 C168 0.929 . S
H196 C173 0.930 . S
H197 C174 0.929 . S
H198 C176 0.930 . S
H199 C177 0.929 . S
Sm200 C202 2.846 . S
Sm200 O220 2.543 . S
Sm200 O221 2.450 . S
Sm200 O222 2.681 . S
Sm200 O223 2.464 . S
Sm200 O224 2.396 . S
Sm200 O228 2.386 1_655 S
Sm200 O231 2.408 1_655 S
Sm201 C211 2.846 . S
Sm201 O222 2.386 1_455 S
Sm201 O225 2.408 1_455 S
Sm201 O226 2.543 . S
Sm201 O227 2.450 . S
Sm201 O228 2.681 . S
Sm201 O229 2.464 . S
Sm201 O230 2.396 . S
C202 Sm200 2.846 . S
C202 C203 1.506 . S
C202 O220 1.261 . S
C202 O221 1.242 . S
C203 C202 1.506 . S
C203 C204 1.358 . S
C203 C208 1.382 . S
C204 C203 1.358 . S
C204 C205 1.385 . S
C204 H232 0.930 . S
C205 C204 1.385 . S
C205 C206 1.395 . S
C205 H233 0.929 . S
C206 C205 1.395 . S
C206 C207 1.335 . S
C207 C206 1.335 . S
C207 C208 1.398 . S
C207 H234 0.930 . S
C208 C203 1.382 . S
C208 C207 1.398 . S
C208 H235 0.929 . S
C209 O222 1.271 . S
C209 O223 1.251 . S
C210 O224 1.252 . S
C210 O225 1.272 . S
C211 Sm201 2.846 . S
C211 C212 1.506 . S
C211 O226 1.261 . S
C211 O227 1.242 . S
C212 C211 1.506 . S
C212 C213 1.358 . S
C212 C217 1.382 . S
C213 C212 1.358 . S
C213 C214 1.385 . S
C213 H236 0.930 . S
C214 C213 1.385 . S
C214 C215 1.395 . S
C214 H237 0.929 . S
C215 C214 1.395 . S
C215 C216 1.335 . S
C216 C215 1.335 . S
C216 C217 1.398 . S
C216 H238 0.930 . S
C217 C212 1.382 . S
C217 C216 1.398 . S
C217 H239 0.929 . S
C218 O228 1.271 . S
C218 O229 1.251 . S
C219 O230 1.252 . S
C219 O231 1.272 . S
O220 Sm200 2.543 . S
O220 C202 1.261 . S
O221 Sm200 2.450 . S
O221 C202 1.242 . S
O222 Sm200 2.681 . S
O222 Sm201 2.386 1_655 S
O222 C209 1.271 . S
O223 Sm200 2.464 . S
O223 C209 1.251 . S
O224 Sm200 2.396 . S
O224 C210 1.252 . S
O225 Sm201 2.408 1_655 S
O225 C210 1.272 . S
O226 Sm201 2.543 . S
O226 C211 1.261 . S
O227 Sm201 2.450 . S
O227 C211 1.242 . S
O228 Sm200 2.386 1_455 S
O228 Sm201 2.681 . S
O228 C218 1.271 . S
O229 Sm201 2.464 . S
O229 C218 1.251 . S
O230 Sm201 2.396 . S
O230 C219 1.252 . S
O231 Sm200 2.408 1_455 S
O231 C219 1.272 . S
H232 C204 0.930 . S
H233 C205 0.929 . S
H234 C207 0.930 . S
H235 C208 0.929 . S
H236 C213 0.930 . S
H237 C214 0.929 . S
H238 C216 0.930 . S
H239 C217 0.929 . S
Sm240 C242 2.846 . S
Sm240 O260 2.543 . S
Sm240 O261 2.450 . S
Sm240 O262 2.681 . S
Sm240 O263 2.464 . S
Sm240 O264 2.396 . S
Sm240 O268 2.386 . S
Sm240 O271 2.408 1_554 S
Sm241 C251 2.846 . S
Sm241 O262 2.386 1_556 S
Sm241 O265 2.408 1_556 S
Sm241 O266 2.543 . S
Sm241 O267 2.450 . S
Sm241 O268 2.681 1_556 S
Sm241 O269 2.464 . S
Sm241 O270 2.396 . S
C242 Sm240 2.846 . S
C242 C243 1.506 . S
C242 O260 1.261 . S
C242 O261 1.242 . S
C243 C242 1.506 . S
C243 C244 1.358 . S
C243 C248 1.382 . S
C244 C243 1.358 . S
C244 C245 1.385 . S
C244 H272 0.930 . S
C245 C244 1.385 . S
C245 C246 1.395 . S
C245 H273 0.929 . S
C246 C245 1.395 . S
C246 C247 1.335 . S
C247 C246 1.335 . S
C247 C248 1.398 . S
C247 H274 0.930 . S
C248 C243 1.382 . S
C248 C247 1.398 . S
C248 H275 0.929 . S
C249 O262 1.271 . S
C249 O263 1.251 . S
C250 O264 1.252 . S
C250 O265 1.272 . S
C251 Sm241 2.846 . S
C251 C252 1.506 . S
C251 O266 1.261 . S
C251 O267 1.242 . S
C252 C251 1.506 . S
C252 C253 1.358 . S
C252 C257 1.382 . S
C253 C252 1.358 . S
C253 C254 1.385 . S
C253 H276 0.930 . S
C254 C253 1.385 . S
C254 C255 1.395 . S
C254 H277 0.929 . S
C255 C254 1.395 . S
C255 C256 1.335 . S
C256 C255 1.335 . S
C256 C257 1.398 . S
C256 H278 0.930 . S
C257 C252 1.382 . S
C257 C256 1.398 . S
C257 H279 0.929 . S
C258 O268 1.271 1_556 S
C258 O269 1.251 . S
C259 O270 1.252 . S
C259 O271 1.272 . S
O260 Sm240 2.543 . S
O260 C242 1.261 . S
O261 Sm240 2.450 . S
O261 C242 1.242 . S
O262 Sm240 2.681 . S
O262 Sm241 2.386 1_554 S
O262 C249 1.271 . S
O263 Sm240 2.464 . S
O263 C249 1.251 . S
O264 Sm240 2.396 . S
O264 C250 1.252 . S
O265 Sm241 2.408 1_554 S
O265 C250 1.272 . S
O266 Sm241 2.543 . S
O266 C251 1.261 . S
O267 Sm241 2.450 . S
O267 C251 1.242 . S
O268 Sm240 2.386 . S
O268 Sm241 2.681 1_554 S
O268 C258 1.271 1_554 S
O269 Sm241 2.464 . S
O269 C258 1.251 . S
O270 Sm241 2.396 . S
O270 C259 1.252 . S
O271 Sm240 2.408 1_556 S
O271 C259 1.272 . S
H272 C244 0.930 . S
H273 C245 0.929 . S
H274 C247 0.930 . S
H275 C248 0.929 . S
H276 C253 0.930 . S
H277 C254 0.929 . S
H278 C256 0.930 . S
H279 C257 0.929 . S
Sm280 C282 2.846 . S
Sm280 O300 2.543 . S
Sm280 O301 2.450 . S
Sm280 O302 2.681 . S
Sm280 O303 2.464 . S
Sm280 O304 2.396 . S
Sm280 O308 2.386 . S
Sm280 O311 2.408 . S
Sm281 C291 2.846 . S
Sm281 O302 2.386 . S
Sm281 O305 2.408 . S
Sm281 O306 2.543 . S
Sm281 O307 2.450 . S
Sm281 O308 2.681 . S
Sm281 O309 2.464 . S
Sm281 O310 2.396 . S
C282 Sm280 2.846 . S
C282 C283 1.506 . S
C282 O300 1.261 . S
C282 O301 1.242 . S
C283 C282 1.506 . S
C283 C284 1.358 . S
C283 C288 1.382 . S
C284 C283 1.358 . S
C284 C285 1.385 . S
C284 H312 0.930 . S
C285 C284 1.385 . S
C285 C286 1.395 . S
C285 H313 0.929 . S
C286 C285 1.395 . S
C286 C287 1.335 . S
C287 C286 1.335 . S
C287 C288 1.398 . S
C287 H314 0.930 . S
C288 C283 1.382 . S
C288 C287 1.398 . S
C288 H315 0.929 . S
C289 O302 1.271 . S
C289 O303 1.251 . S
C290 O304 1.252 . S
C290 O305 1.272 . S
C291 Sm281 2.846 . S
C291 C292 1.506 . S
C291 O306 1.261 . S
C291 O307 1.242 . S
C292 C291 1.506 . S
C292 C293 1.358 . S
C292 C297 1.382 . S
C293 C292 1.358 . S
C293 C294 1.385 . S
C293 H316 0.930 . S
C294 C293 1.385 . S
C294 C295 1.395 . S
C294 H317 0.929 . S
C295 C294 1.395 . S
C295 C296 1.335 . S
C296 C295 1.335 . S
C296 C297 1.398 . S
C296 H318 0.930 . S
C297 C292 1.382 . S
C297 C296 1.398 . S
C297 H319 0.929 . S
C298 O308 1.271 . S
C298 O309 1.251 . S
C299 O310 1.252 . S
C299 O311 1.272 . S
O300 Sm280 2.543 . S
O300 C282 1.261 . S
O301 Sm280 2.450 . S
O301 C282 1.242 . S
O302 Sm280 2.681 . S
O302 Sm281 2.386 . S
O302 C289 1.271 . S
O303 Sm280 2.464 . S
O303 C289 1.251 . S
O304 Sm280 2.396 . S
O304 C290 1.252 . S
O305 Sm281 2.408 . S
O305 C290 1.272 . S
O306 Sm281 2.543 . S
O306 C291 1.261 . S
O307 Sm281 2.450 . S
O307 C291 1.242 . S
O308 Sm280 2.386 . S
O308 Sm281 2.681 . S
O308 C298 1.271 . S
O309 Sm281 2.464 . S
O309 C298 1.251 . S
O310 Sm281 2.396 . S
O310 C299 1.252 . S
O311 Sm280 2.408 . S
O311 C299 1.272 . S
H312 C284 0.930 . S
H313 C285 0.929 . S
H314 C287 0.930 . S
H315 C288 0.929 . S
H316 C293 0.930 . S
H317 C294 0.929 . S
H318 C296 0.930 . S
H319 C297 0.929 . S
Sm320 C322 2.846 . S
Sm320 O340 2.543 . S
Sm320 O341 2.450 . S
Sm320 O342 2.681 . S
Sm320 O343 2.464 . S
Sm320 O344 2.396 . S
Sm320 O348 2.386 . S
Sm320 O351 2.408 . S
Sm321 C331 2.846 . S
Sm321 O342 2.386 . S
Sm321 O345 2.408 . S
Sm321 O346 2.543 . S
Sm321 O347 2.450 . S
Sm321 O348 2.681 . S
Sm321 O349 2.464 . S
Sm321 O350 2.396 . S
C322 Sm320 2.846 . S
C322 C323 1.506 . S
C322 O340 1.261 . S
C322 O341 1.242 . S
C323 C322 1.506 . S
C323 C324 1.358 . S
C323 C328 1.382 . S
C324 C323 1.358 . S
C324 C325 1.385 . S
C324 H352 0.930 . S
C325 C324 1.385 . S
C325 C326 1.395 . S
C325 H353 0.929 . S
C326 C325 1.395 . S
C326 C327 1.335 . S
C327 C326 1.335 . S
C327 C328 1.398 . S
C327 H354 0.930 . S
C328 C323 1.382 . S
C328 C327 1.398 . S
C328 H355 0.929 . S
C329 O342 1.271 . S
C329 O343 1.251 . S
C330 O344 1.252 . S
C330 O345 1.272 . S
C331 Sm321 2.846 . S
C331 C332 1.506 . S
C331 O346 1.261 . S
C331 O347 1.242 . S
C332 C331 1.506 . S
C332 C333 1.358 . S
C332 C337 1.382 . S
C333 C332 1.358 . S
C333 C334 1.385 . S
C333 H356 0.930 . S
C334 C333 1.385 . S
C334 C335 1.395 . S
C334 H357 0.929 . S
C335 C334 1.395 . S
C335 C336 1.335 . S
C336 C335 1.335 . S
C336 C337 1.398 . S
C336 H358 0.930 . S
C337 C332 1.382 . S
C337 C336 1.398 . S
C337 H359 0.929 . S
C338 O348 1.271 . S
C338 O349 1.251 . S
C339 O350 1.252 . S
C339 O351 1.272 . S
O340 Sm320 2.543 . S
O340 C322 1.261 . S
O341 Sm320 2.450 . S
O341 C322 1.242 . S
O342 Sm320 2.681 . S
O342 Sm321 2.386 . S
O342 C329 1.271 . S
O343 Sm320 2.464 . S
O343 C329 1.251 . S
O344 Sm320 2.396 . S
O344 C330 1.252 . S
O345 Sm321 2.408 . S
O345 C330 1.272 . S
O346 Sm321 2.543 . S
O346 C331 1.261 . S
O347 Sm321 2.450 . S
O347 C331 1.242 . S
O348 Sm320 2.386 . S
O348 Sm321 2.681 . S
O348 C338 1.271 . S
O349 Sm321 2.464 . S
O349 C338 1.251 . S
O350 Sm321 2.396 . S
O350 C339 1.252 . S
O351 Sm320 2.408 . S
O351 C339 1.272 . S
H352 C324 0.930 . S
H353 C325 0.929 . S
H354 C327 0.930 . S
H355 C328 0.929 . S
H356 C333 0.930 . S
H357 C334 0.929 . S
H358 C336 0.930 . S
H359 C337 0.929 . S
Sm360 C362 2.846 . S
Sm360 O380 2.543 . S
Sm360 O381 2.450 . S
Sm360 O382 2.681 1_565 S
Sm360 O383 2.464 1_565 S
Sm360 O384 2.396 1_565 S
Sm360 O388 2.386 . S
Sm360 O391 2.408 . S
Sm361 C371 2.846 . S
Sm361 O382 2.386 . S
Sm361 O385 2.408 . S
Sm361 O386 2.543 . S
Sm361 O387 2.450 . S
Sm361 O388 2.681 1_545 S
Sm361 O389 2.464 1_545 S
Sm361 O390 2.396 1_545 S
C362 Sm360 2.846 . S
C362 C363 1.506 . S
C362 O380 1.261 . S
C362 O381 1.242 . S
C363 C362 1.506 . S
C363 C364 1.358 . S
C363 C368 1.382 . S
C364 C363 1.358 . S
C364 C365 1.385 . S
C364 H392 0.930 . S
C365 C364 1.385 . S
C365 C366 1.395 . S
C365 H393 0.929 . S
C366 C365 1.395 . S
C366 C367 1.335 . S
C367 C366 1.335 . S
C367 C368 1.398 . S
C367 H394 0.930 . S
C368 C363 1.382 . S
C368 C367 1.398 . S
C368 H395 0.929 . S
C369 O382 1.271 . S
C369 O383 1.251 . S
C370 O384 1.252 . S
C370 O385 1.272 . S
C371 Sm361 2.846 . S
C371 C372 1.506 . S
C371 O386 1.261 . S
C371 O387 1.242 . S
C372 C371 1.506 . S
C372 C373 1.358 . S
C372 C377 1.382 . S
C373 C372 1.358 . S
C373 C374 1.385 . S
C373 H396 0.930 . S
C374 C373 1.385 . S
C374 C375 1.395 . S
C374 H397 0.929 . S
C375 C374 1.395 . S
C375 C376 1.335 . S
C376 C375 1.335 . S
C376 C377 1.398 . S
C376 H398 0.930 . S
C377 C372 1.382 . S
C377 C376 1.398 . S
C377 H399 0.929 . S
C378 O388 1.271 . S
C378 O389 1.251 . S
C379 O390 1.252 . S
C379 O391 1.272 . S
O380 Sm360 2.543 . S
O380 C362 1.261 . S
O381 Sm360 2.450 . S
O381 C362 1.242 . S
O382 Sm360 2.681 1_545 S
O382 Sm361 2.386 . S
O382 C369 1.271 . S
O383 Sm360 2.464 1_545 S
O383 C369 1.251 . S
O384 Sm360 2.396 1_545 S
O384 C370 1.252 . S
O385 Sm361 2.408 . S
O385 C370 1.272 . S
O386 Sm361 2.543 . S
O386 C371 1.261 . S
O387 Sm361 2.450 . S
O387 C371 1.242 . S
O388 Sm360 2.386 . S
O388 Sm361 2.681 1_565 S
O388 C378 1.271 . S
O389 Sm361 2.464 1_565 S
O389 C378 1.251 . S
O390 Sm361 2.396 1_565 S
O390 C379 1.252 . S
O391 Sm360 2.408 . S
O391 C379 1.272 . S
H392 C364 0.930 . S
H393 C365 0.929 . S
H394 C367 0.930 . S
H395 C368 0.929 . S
H396 C373 0.930 . S
H397 C374 0.929 . S
H398 C376 0.930 . S
H399 C377 0.929 . S
Sm400 C402 2.846 . S
Sm400 O420 2.543 . S
Sm400 O421 2.450 . S
Sm400 O422 2.681 . S
Sm400 O423 2.464 . S
Sm400 O424 2.396 . S
Sm400 O428 2.386 1_565 S
Sm400 O431 2.408 1_565 S
Sm401 C411 2.846 . S
Sm401 O422 2.386 1_545 S
Sm401 O425 2.408 1_545 S
Sm401 O426 2.543 . S
Sm401 O427 2.450 . S
Sm401 O428 2.681 . S
Sm401 O429 2.464 . S
Sm401 O430 2.396 . S
C402 Sm400 2.846 . S
C402 C403 1.506 . S
C402 O420 1.261 . S
C402 O421 1.242 . S
C403 C402 1.506 . S
C403 C404 1.358 . S
C403 C408 1.382 . S
C404 C403 1.358 . S
C404 C405 1.385 . S
C404 H432 0.930 . S
C405 C404 1.385 . S
C405 C406 1.395 . S
C405 H433 0.929 . S
C406 C405 1.395 . S
C406 C407 1.335 . S
C407 C406 1.335 . S
C407 C408 1.398 . S
C407 H434 0.930 . S
C408 C403 1.382 . S
C408 C407 1.398 . S
C408 H435 0.929 . S
C409 O422 1.271 . S
C409 O423 1.251 . S
C410 O424 1.252 . S
C410 O425 1.272 . S
C411 Sm401 2.846 . S
C411 C412 1.506 . S
C411 O426 1.261 . S
C411 O427 1.242 . S
C412 C411 1.506 . S
C412 C413 1.358 . S
C412 C417 1.382 . S
C413 C412 1.358 . S
C413 C414 1.385 . S
C413 H436 0.930 . S
C414 C413 1.385 . S
C414 C415 1.395 . S
C414 H437 0.929 . S
C415 C414 1.395 . S
C415 C416 1.335 . S
C416 C415 1.335 . S
C416 C417 1.398 . S
C416 H438 0.930 . S
C417 C412 1.382 . S
C417 C416 1.398 . S
C417 H439 0.929 . S
C418 O428 1.271 . S
C418 O429 1.251 . S
C419 O430 1.252 . S
C419 O431 1.272 . S
O420 Sm400 2.543 . S
O420 C402 1.261 . S
O421 Sm400 2.450 . S
O421 C402 1.242 . S
O422 Sm400 2.681 . S
O422 Sm401 2.386 1_565 S
O422 C409 1.271 . S
O423 Sm400 2.464 . S
O423 C409 1.251 . S
O424 Sm400 2.396 . S
O424 C410 1.252 . S
O425 Sm401 2.408 1_565 S
O425 C410 1.272 . S
O426 Sm401 2.543 . S
O426 C411 1.261 . S
O427 Sm401 2.450 . S
O427 C411 1.242 . S
O428 Sm400 2.386 1_545 S
O428 Sm401 2.681 . S
O428 C418 1.271 . S
O429 Sm401 2.464 . S
O429 C418 1.251 . S
O430 Sm401 2.396 . S
O430 C419 1.252 . S
O431 Sm400 2.408 1_545 S
O431 C419 1.272 . S
H432 C404 0.930 . S
H433 C405 0.929 . S
H434 C407 0.930 . S
H435 C408 0.929 . S
H436 C413 0.930 . S
H437 C414 0.929 . S
H438 C416 0.930 . S
H439 C417 0.929 . S
Sm440 C442 2.846 . S
Sm440 O460 2.543 . S
Sm440 O461 2.450 . S
Sm440 O462 2.681 . S
Sm440 O463 2.464 . S
Sm440 O464 2.396 . S
Sm440 O468 2.386 . S
Sm440 O471 2.408 . S
Sm441 C451 2.846 . S
Sm441 O462 2.386 . S
Sm441 O465 2.408 . S
Sm441 O466 2.543 . S
Sm441 O467 2.450 . S
Sm441 O468 2.681 . S
Sm441 O469 2.464 . S
Sm441 O470 2.396 . S
C442 Sm440 2.846 . S
C442 C443 1.506 . S
C442 O460 1.261 . S
C442 O461 1.242 . S
C443 C442 1.506 . S
C443 C444 1.358 . S
C443 C448 1.382 . S
C444 C443 1.358 . S
C444 C445 1.385 . S
C444 H472 0.930 . S
C445 C444 1.385 . S
C445 C446 1.395 . S
C445 H473 0.929 . S
C446 C445 1.395 . S
C446 C447 1.335 . S
C447 C446 1.335 . S
C447 C448 1.398 . S
C447 H474 0.930 . S
C448 C443 1.382 . S
C448 C447 1.398 . S
C448 H475 0.929 . S
C449 O462 1.271 . S
C449 O463 1.251 . S
C450 O464 1.252 . S
C450 O465 1.272 . S
C451 Sm441 2.846 . S
C451 C452 1.506 . S
C451 O466 1.261 . S
C451 O467 1.242 . S
C452 C451 1.506 . S
C452 C453 1.358 . S
C452 C457 1.382 . S
C453 C452 1.358 . S
C453 C454 1.385 . S
C453 H476 0.930 . S
C454 C453 1.385 . S
C454 C455 1.395 . S
C454 H477 0.929 . S
C455 C454 1.395 . S
C455 C456 1.335 . S
C456 C455 1.335 . S
C456 C457 1.398 . S
C456 H478 0.930 . S
C457 C452 1.382 . S
C457 C456 1.398 . S
C457 H479 0.929 . S
C458 O468 1.271 . S
C458 O469 1.251 . S
C459 O470 1.252 . S
C459 O471 1.272 . S
O460 Sm440 2.543 . S
O460 C442 1.261 . S
O461 Sm440 2.450 . S
O461 C442 1.242 . S
O462 Sm440 2.681 . S
O462 Sm441 2.386 . S
O462 C449 1.271 . S
O463 Sm440 2.464 . S
O463 C449 1.251 . S
O464 Sm440 2.396 . S
O464 C450 1.252 . S
O465 Sm441 2.408 . S
O465 C450 1.272 . S
O466 Sm441 2.543 . S
O466 C451 1.261 . S
O467 Sm441 2.450 . S
O467 C451 1.242 . S
O468 Sm440 2.386 . S
O468 Sm441 2.681 . S
O468 C458 1.271 . S
O469 Sm441 2.464 . S
O469 C458 1.251 . S
O470 Sm441 2.396 . S
O470 C459 1.252 . S
O471 Sm440 2.408 . S
O471 C459 1.272 . S
H472 C444 0.930 . S
H473 C445 0.929 . S
H474 C447 0.930 . S
H475 C448 0.929 . S
H476 C453 0.930 . S
H477 C454 0.929 . S
H478 C456 0.930 . S
H479 C457 0.929 . S
H480 C492 0.930 . S
H481 C494 0.930 . S
H482 C495 0.930 . S
H483 C499 0.959 . S
H484 C499 0.959 . S
H485 C499 0.961 . S
H486 C500 0.960 . S
H487 C500 0.961 . S
H488 C500 0.959 . S
H489 C503 0.929 . S
H490 C504 0.931 . S
H491 C506 0.930 . S
C492 H480 0.930 . S
C492 C493 1.399 . S
C492 C497 1.399 . S
C493 C492 1.399 . S
C493 C494 1.376 . S
C494 H481 0.930 . S
C494 C493 1.376 . S
C494 C495 1.388 . S
C495 H482 0.930 . S
C495 C494 1.388 . S
C495 C496 1.390 . S
C496 C495 1.390 . S
C496 C497 1.394 . S
C496 C502 1.465 . S
C497 C492 1.399 . S
C497 C496 1.394 . S
C497 C498 1.516 . S
C498 C497 1.516 . S
C498 C499 1.502 . S
C498 C500 1.561 . S
C498 C501 1.526 . S
C499 H483 0.959 . S
C499 H484 0.959 . S
C499 H485 0.961 . S
C499 C498 1.502 . S
C500 H486 0.960 . S
C500 H487 0.961 . S
C500 H488 0.959 . S
C500 C498 1.561 . S
C501 C498 1.526 . S
C501 C502 1.396 . S
C501 C506 1.390 . S
C502 C496 1.465 . S
C502 C501 1.396 . S
C502 C503 1.399 . S
C503 H489 0.929 . S
C503 C502 1.399 . S
C503 C504 1.385 . S
C504 H490 0.931 . S
C504 C503 1.385 . S
C504 C505 1.389 . S
C505 C504 1.389 . S
C505 C506 1.387 . S
C506 H491 0.930 . S
C506 C501 1.390 . S
C506 C505 1.387 . S
H507 C519 0.930 . S
H508 C521 0.930 . S
H509 C522 0.930 . S
H510 C526 0.959 1_545 S
H511 C526 0.959 . S
H512 C526 0.961 1_545 S
H513 C527 0.960 . S
H514 C527 0.961 . S
H515 C527 0.959 . S
H516 C530 0.929 . S
H517 C531 0.931 . S
H518 C533 0.930 . S
C519 H507 0.930 . S
C519 C520 1.399 . S
C519 C524 1.399 . S
C520 C519 1.399 . S
C520 C521 1.376 . S
C521 H508 0.930 . S
C521 C520 1.376 . S
C521 C522 1.388 . S
C522 H509 0.930 . S
C522 C521 1.388 . S
C522 C523 1.390 . S
C523 C522 1.390 . S
C523 C524 1.394 . S
C523 C529 1.465 . S
C524 C519 1.399 . S
C524 C523 1.394 . S
C524 C525 1.516 . S
C525 C524 1.516 . S
C525 C526 1.502 . S
C525 C527 1.561 . S
C525 C528 1.526 . S
C526 H510 0.959 1_565 S
C526 H511 0.959 . S
C526 H512 0.961 1_565 S
C526 C525 1.502 . S
C527 H513 0.960 . S
C527 H514 0.961 . S
C527 H515 0.959 . S
C527 C525 1.561 . S
C528 C525 1.526 . S
C528 C529 1.396 . S
C528 C533 1.390 . S
C529 C523 1.465 . S
C529 C528 1.396 . S
C529 C530 1.399 . S
C530 H516 0.929 . S
C530 C529 1.399 . S
C530 C531 1.385 . S
C531 H517 0.931 . S
C531 C530 1.385 . S
C531 C532 1.389 . S
C532 C531 1.389 . S
C532 C533 1.387 . S
C533 H518 0.930 . S
C533 C528 1.390 . S
C533 C532 1.387 . S
H534 C546 0.909 1_556 S
H535 C548 0.930 . S
H536 C549 0.930 . S
H537 C553 0.959 1_554 S
H538 C553 0.959 . S
H539 C553 0.961 . S
H540 C554 0.960 . S
H541 C554 0.961 . S
H542 C554 0.959 . S
H543 C557 0.929 . S
H544 C558 0.931 . S
H545 C560 0.930 . S
C546 H534 0.909 1_554 S
C546 C547 1.409 . S
C546 C551 1.410 . S
C547 C546 1.409 . S
C547 C548 1.376 . S
C548 H535 0.930 . S
C548 C547 1.376 . S
C548 C549 1.388 . S
C549 H536 0.930 . S
C549 C548 1.388 . S
C549 C550 1.390 . S
C550 C549 1.390 . S
C550 C551 1.394 . S
C550 C556 1.465 . S
C551 C546 1.410 . S
C551 C550 1.394 . S
C551 C552 1.516 . S
C552 C551 1.516 . S
C552 C553 1.502 1_554 S
C552 C554 1.561 1_554 S
C552 C555 1.526 . S
C553 H537 0.959 1_556 S
C553 H538 0.959 . S
C553 H539 0.961 . S
C553 C552 1.502 1_556 S
C554 H540 0.960 . S
C554 H541 0.961 . S
C554 H542 0.959 . S
C554 C552 1.561 1_556 S
C555 C552 1.526 . S
C555 C556 1.396 . S
C555 C560 1.390 . S
C556 C550 1.465 . S
C556 C555 1.396 . S
C556 C557 1.399 . S
C557 H543 0.929 . S
C557 C556 1.399 . S
C557 C558 1.385 . S
C558 H544 0.931 . S
C558 C557 1.385 . S
C558 C559 1.389 . S
C559 C558 1.389 . S
C559 C560 1.387 . S
C560 H545 0.930 . S
C560 C555 1.390 . S
C560 C559 1.387 . S
H561 C573 0.930 . S
H562 C575 0.930 . S
H563 C576 0.930 . S
H564 C580 0.959 . S
H565 C580 0.959 1_565 S
H566 C580 0.961 1_565 S
H567 C581 0.956 1_565 S
H568 C581 0.961 1_565 S
H569 C581 0.959 . S
H570 C584 0.929 . S
H571 C585 0.931 . S
H572 C587 0.930 . S
C573 H561 0.930 . S
C573 C574 1.399 . S
C573 C578 1.399 . S
C574 C573 1.399 . S
C574 C575 1.376 . S
C575 H562 0.930 . S
C575 C574 1.376 . S
C575 C576 1.388 . S
C576 H563 0.930 . S
C576 C575 1.388 . S
C576 C577 1.390 . S
C577 C576 1.390 . S
C577 C578 1.394 . S
C577 C583 1.465 . S
C578 C573 1.399 . S
C578 C577 1.394 . S
C578 C579 1.516 . S
C579 C578 1.516 . S
C579 C580 1.502 . S
C579 C581 1.561 . S
C579 C582 1.526 . S
C580 H564 0.959 . S
C580 H565 0.959 1_545 S
C580 H566 0.961 1_545 S
C580 C579 1.502 . S
C581 H567 0.956 1_545 S
C581 H568 0.961 1_545 S
C581 H569 0.959 . S
C581 C579 1.561 . S
C582 C579 1.526 . S
C582 C583 1.396 . S
C582 C587 1.390 . S
C583 C577 1.465 . S
C583 C582 1.396 . S
C583 C584 1.399 . S
C584 H570 0.929 . S
C584 C583 1.399 . S
C584 C585 1.385 . S
C585 H571 0.931 . S
C585 C584 1.385 . S
C585 C586 1.389 . S
C586 C585 1.389 . S
C586 C587 1.387 . S
C587 H572 0.930 . S
C587 C582 1.390 . S
C587 C586 1.387 . S
H588 C600 0.930 . S
H589 C602 0.930 . S
H590 C603 0.930 . S
H591 C607 0.959 . S
H592 C607 0.959 . S
H593 C607 0.961 . S
H594 C608 0.960 . S
H595 C608 0.961 . S
H596 C608 0.959 . S
H597 C611 0.929 . S
H598 C612 0.931 . S
H599 C614 0.930 . S
C600 H588 0.930 . S
C600 C601 1.399 . S
C600 C605 1.399 . S
C601 C600 1.399 . S
C601 C602 1.376 . S
C602 H589 0.930 . S
C602 C601 1.376 . S
C602 C603 1.388 . S
C603 H590 0.930 . S
C603 C602 1.388 . S
C603 C604 1.390 . S
C604 C603 1.390 . S
C604 C605 1.394 . S
C604 C610 1.465 . S
C605 C600 1.399 . S
C605 C604 1.394 . S
C605 C606 1.516 . S
C606 C605 1.516 . S
C606 C607 1.502 . S
C606 C608 1.561 . S
C606 C609 1.526 . S
C607 H591 0.959 . S
C607 H592 0.959 . S
C607 H593 0.961 . S
C607 C606 1.502 . S
C608 H594 0.960 . S
C608 H595 0.961 . S
C608 H596 0.959 . S
C608 C606 1.561 . S
C609 C606 1.526 . S
C609 C610 1.396 . S
C609 C614 1.390 . S
C610 C604 1.465 . S
C610 C609 1.396 . S
C610 C611 1.399 . S
C611 H597 0.929 . S
C611 C610 1.399 . S
C611 C612 1.385 . S
C612 H598 0.931 . S
C612 C611 1.385 . S
C612 C613 1.389 . S
C613 C612 1.389 . S
C613 C614 1.387 . S
C614 H599 0.930 . S
C614 C609 1.390 . S
C614 C613 1.387 . S
H615 C627 0.930 . S
H616 C629 0.930 . S
H617 C630 0.930 . S
H618 C634 0.959 . S
H619 C634 0.959 . S
H620 C634 0.961 . S
H621 C635 0.960 . S
H622 C635 0.961 . S
H623 C635 0.959 . S
H624 C638 0.929 . S
H625 C639 0.931 . S
H626 C641 0.930 . S
C627 H615 0.930 . S
C627 C628 1.399 . S
C627 C632 1.399 . S
C628 C627 1.399 . S
C628 C629 1.376 . S
C629 H616 0.930 . S
C629 C628 1.376 . S
C629 C630 1.388 . S
C630 H617 0.930 . S
C630 C629 1.388 . S
C630 C631 1.390 . S
C631 C630 1.390 . S
C631 C632 1.394 . S
C631 C637 1.465 . S
C632 C627 1.399 . S
C632 C631 1.394 . S
C632 C633 1.516 . S
C633 C632 1.516 . S
C633 C634 1.502 . S
C633 C635 1.561 . S
C633 C636 1.526 . S
C634 H618 0.959 . S
C634 H619 0.959 . S
C634 H620 0.961 . S
C634 C633 1.502 . S
C635 H621 0.960 . S
C635 H622 0.961 . S
C635 H623 0.959 . S
C635 C633 1.561 . S
C636 C633 1.526 . S
C636 C637 1.396 . S
C636 C641 1.390 . S
C637 C631 1.465 . S
C637 C636 1.396 . S
C637 C638 1.399 . S
C638 H624 0.929 . S
C638 C637 1.399 . S
C638 C639 1.385 . S
C639 H625 0.931 . S
C639 C638 1.385 . S
C639 C640 1.389 . S
C640 C639 1.389 . S
C640 C641 1.387 . S
C641 H626 0.930 . S
C641 C636 1.390 . S
C641 C640 1.387 . S
H642 C654 0.930 . S
H643 C656 0.930 . S
H644 C657 0.930 . S
H645 C661 0.959 . S
H646 C661 0.959 . S
H647 C661 0.961 . S
H648 C662 0.960 . S
H649 C662 0.961 . S
H650 C662 0.959 . S
H651 C665 0.930 . S
H652 C666 0.931 1_554 S
H653 C668 0.930 . S
C654 H642 0.930 . S
C654 C655 1.399 . S
C654 C659 1.399 . S
C655 C654 1.399 . S
C655 C656 1.376 . S
C656 H643 0.930 . S
C656 C655 1.376 . S
C656 C657 1.388 . S
C657 H644 0.930 . S
C657 C656 1.388 . S
C657 C658 1.390 . S
C658 C657 1.390 . S
C658 C659 1.394 . S
C658 C664 1.465 . S
C659 C654 1.399 . S
C659 C658 1.394 . S
C659 C660 1.516 . S
C660 C659 1.516 . S
C660 C661 1.502 . S
C660 C662 1.561 . S
C660 C663 1.526 . S
C661 H645 0.959 . S
C661 H646 0.959 . S
C661 H647 0.961 . S
C661 C660 1.502 . S
C662 H648 0.960 . S
C662 H649 0.961 . S
C662 H650 0.959 . S
C662 C660 1.561 . S
C663 C660 1.526 . S
C663 C664 1.396 . S
C663 C668 1.390 . S
C664 C658 1.465 . S
C664 C663 1.396 . S
C664 C665 1.399 . S
C665 H651 0.930 . S
C665 C664 1.399 . S
C665 C666 1.385 . S
C666 H652 0.931 1_556 S
C666 C665 1.385 . S
C666 C667 1.389 . S
C667 C666 1.389 . S
C667 C668 1.387 . S
C668 H653 0.930 . S
C668 C663 1.390 . S
C668 C667 1.387 . S
H669 C681 0.930 . S
H670 C683 0.930 . S
H671 C684 0.930 . S
H672 C688 0.959 . S
H673 C688 0.959 . S
H674 C688 0.961 . S
H675 C689 0.960 . S
H676 C689 0.961 . S
H677 C689 0.959 . S
H678 C692 0.929 . S
H679 C693 0.931 . S
H680 C695 0.930 . S
C681 H669 0.930 . S
C681 C682 1.399 . S
C681 C686 1.399 . S
C682 C681 1.399 . S
C682 C683 1.376 . S
C683 H670 0.930 . S
C683 C682 1.376 . S
C683 C684 1.388 . S
C684 H671 0.930 . S
C684 C683 1.388 . S
C684 C685 1.390 . S
C685 C684 1.390 . S
C685 C686 1.394 . S
C685 C691 1.465 . S
C686 C681 1.399 . S
C686 C685 1.394 . S
C686 C687 1.516 . S
C687 C686 1.516 . S
C687 C688 1.502 . S
C687 C689 1.561 . S
C687 C690 1.526 . S
C688 H672 0.959 . S
C688 H673 0.959 . S
C688 H674 0.961 . S
C688 C687 1.502 . S
C689 H675 0.960 . S
C689 H676 0.961 . S
C689 H677 0.959 . S
C689 C687 1.561 . S
C690 C687 1.526 . S
C690 C691 1.396 . S
C690 C695 1.390 . S
C691 C685 1.465 . S
C691 C690 1.396 . S
C691 C692 1.399 . S
C692 H678 0.929 . S
C692 C691 1.399 . S
C692 C693 1.385 . S
C693 H679 0.931 . S
C693 C692 1.385 . S
C693 C694 1.389 . S
C694 C693 1.389 . S
C694 C695 1.387 . S
C695 H680 0.930 . S
C695 C690 1.390 . S
C695 C694 1.387 . S
H696 C708 0.930 . S
H697 C710 0.930 . S
H698 C711 0.930 . S
H699 C715 0.959 . S
H700 C715 0.959 . S
H701 C715 0.961 . S
H702 C716 0.960 . S
H703 C716 0.961 . S
H704 C716 0.959 . S
H705 C719 0.929 . S
H706 C720 0.931 . S
H707 C722 0.930 . S
C708 H696 0.930 . S
C708 C709 1.399 . S
C708 C713 1.399 . S
C709 C708 1.399 . S
C709 C710 1.376 . S
C710 H697 0.930 . S
C710 C709 1.376 . S
C710 C711 1.388 . S
C711 H698 0.930 . S
C711 C710 1.388 . S
C711 C712 1.390 . S
C712 C711 1.390 . S
C712 C713 1.394 . S
C712 C718 1.465 . S
C713 C708 1.399 . S
C713 C712 1.394 . S
C713 C714 1.516 . S
C714 C713 1.516 . S
C714 C715 1.502 . S
C714 C716 1.561 . S
C714 C717 1.526 . S
C715 H699 0.959 . S
C715 H700 0.959 . S
C715 H701 0.961 . S
C715 C714 1.502 . S
C716 H702 0.960 . S
C716 H703 0.961 . S
C716 H704 0.959 . S
C716 C714 1.561 . S
C717 C714 1.526 . S
C717 C718 1.396 . S
C717 C722 1.390 . S
C718 C712 1.465 . S
C718 C717 1.396 . S
C718 C719 1.399 . S
C719 H705 0.929 . S
C719 C718 1.399 . S
C719 C720 1.385 . S
C720 H706 0.931 . S
C720 C719 1.385 . S
C720 C721 1.389 . S
C721 C720 1.389 . S
C721 C722 1.387 . S
C722 H707 0.930 . S
C722 C717 1.390 . S
C722 C721 1.387 . S
H723 C735 0.930 . S
H724 C737 0.930 . S
H725 C738 0.930 . S
H726 C742 0.959 1_655 S
H727 C742 0.959 . S
H728 C742 0.961 . S
H729 C743 0.960 . S
H730 C743 0.961 . S
H731 C743 0.959 . S
H732 C746 0.929 . S
H733 C747 0.931 . S
H734 C749 0.930 . S
C735 H723 0.930 . S
C735 C736 1.399 . S
C735 C740 1.399 . S
C736 C735 1.399 . S
C736 C737 1.376 . S
C737 H724 0.930 . S
C737 C736 1.376 . S
C737 C738 1.388 . S
C738 H725 0.930 . S
C738 C737 1.388 . S
C738 C739 1.390 . S
C739 C738 1.390 . S
C739 C740 1.394 . S
C739 C745 1.465 . S
C740 C735 1.399 . S
C740 C739 1.394 . S
C740 C741 1.516 . S
C741 C740 1.516 . S
C741 C742 1.502 . S
C741 C743 1.561 . S
C741 C744 1.526 . S
C742 H726 0.959 1_455 S
C742 H727 0.959 . S
C742 H728 0.961 . S
C742 C741 1.502 . S
C743 H729 0.960 . S
C743 H730 0.961 . S
C743 H731 0.959 . S
C743 C741 1.561 . S
C744 C741 1.526 . S
C744 C745 1.396 . S
C744 C749 1.390 . S
C745 C739 1.465 . S
C745 C744 1.396 . S
C745 C746 1.399 . S
C746 H732 0.929 . S
C746 C745 1.399 . S
C746 C747 1.385 . S
C747 H733 0.931 . S
C747 C746 1.385 . S
C747 C748 1.389 . S
C748 C747 1.389 . S
C748 C749 1.387 . S
C749 H734 0.930 . S
C749 C744 1.390 . S
C749 C748 1.387 . S
H750 C762 0.930 . S
H751 C764 0.930 . S
H752 C765 0.930 . S
H753 C769 0.959 . S
H754 C769 0.959 . S
H755 C769 0.961 . S
H756 C770 0.960 . S
H757 C770 0.961 . S
H758 C770 0.959 . S
H759 C773 0.929 1_455 S
H760 C774 0.931 . S
H761 C776 0.930 . S
C762 H750 0.930 . S
C762 C763 1.399 . S
C762 C767 1.399 . S
C763 C762 1.399 . S
C763 C764 1.376 1_655 S
C764 H751 0.930 . S
C764 C763 1.376 1_455 S
C764 C765 1.388 . S
C765 H752 0.930 . S
C765 C764 1.388 . S
C765 C766 1.390 1_455 S
C766 C765 1.390 1_655 S
C766 C767 1.394 . S
C766 C772 1.465 . S
C767 C762 1.399 . S
C767 C766 1.394 . S
C767 C768 1.516 . S
C768 C767 1.516 . S
C768 C769 1.502 . S
C768 C770 1.561 . S
C768 C771 1.526 . S
C769 H753 0.959 . S
C769 H754 0.959 . S
C769 H755 0.961 . S
C769 C768 1.502 . S
C770 H756 0.960 . S
C770 H757 0.961 . S
C770 H758 0.959 . S
C770 C768 1.561 . S
C771 C768 1.526 . S
C771 C772 1.396 . S
C771 C776 1.390 . S
C772 C766 1.465 . S
C772 C771 1.396 . S
C772 C773 1.399 . S
C773 H759 0.929 1_655 S
C773 C772 1.399 . S
C773 C774 1.385 . S
C774 H760 0.931 . S
C774 C773 1.385 . S
C774 C775 1.389 . S
C775 C774 1.389 . S
C775 C776 1.387 . S
C776 H761 0.930 . S
C776 C771 1.390 . S
C776 C775 1.387 . S
H777 C789 0.930 . S
H778 C791 0.930 . S
H779 C792 0.930 . S
H780 C796 0.959 . S
H781 C796 0.959 . S
H782 C796 0.961 . S
H783 C797 0.960 . S
H784 C797 0.961 . S
H785 C797 0.959 . S
H786 C800 0.929 . S
H787 C801 0.931 . S
H788 C803 0.930 . S
C789 H777 0.930 . S
C789 C790 1.399 . S
C789 C794 1.399 . S
C790 C789 1.399 . S
C790 C791 1.376 . S
C791 H778 0.930 . S
C791 C790 1.376 . S
C791 C792 1.388 . S
C792 H779 0.930 . S
C792 C791 1.388 . S
C792 C793 1.390 . S
C793 C792 1.390 . S
C793 C794 1.394 . S
C793 C799 1.465 . S
C794 C789 1.399 . S
C794 C793 1.394 . S
C794 C795 1.516 . S
C795 C794 1.516 . S
C795 C796 1.502 . S
C795 C797 1.561 . S
C795 C798 1.526 . S
C796 H780 0.959 . S
C796 H781 0.959 . S
C796 H782 0.961 . S
C796 C795 1.502 . S
C797 H783 0.960 . S
C797 H784 0.961 . S
C797 H785 0.959 . S
C797 C795 1.561 . S
C798 C795 1.526 . S
C798 C799 1.396 . S
C798 C803 1.390 . S
C799 C793 1.465 . S
C799 C798 1.396 . S
C799 C800 1.399 . S
C800 H786 0.929 . S
C800 C799 1.399 . S
C800 C801 1.385 . S
C801 H787 0.931 . S
C801 C800 1.385 . S
C801 C802 1.389 . S
C802 C801 1.389 . S
C802 C803 1.387 . S
C803 H788 0.930 . S
C803 C798 1.390 . S
C803 C802 1.387 . S
H804 C816 0.930 . S
H805 C818 0.930 . S
H806 C819 0.930 . S
H807 C823 0.959 . S
H808 C823 0.959 . S
H809 C823 0.961 . S
H810 C824 0.960 . S
H811 C824 0.961 . S
H812 C824 0.959 . S
H813 C827 0.929 . S
H814 C828 0.931 . S
H815 C830 0.930 . S
C816 H804 0.930 . S
C816 C817 1.399 . S
C816 C821 1.399 . S
C817 C816 1.399 . S
C817 C818 1.376 . S
C818 H805 0.930 . S
C818 C817 1.376 . S
C818 C819 1.388 . S
C819 H806 0.930 . S
C819 C818 1.388 . S
C819 C820 1.390 . S
C820 C819 1.390 . S
C820 C821 1.394 . S
C820 C826 1.465 . S
C821 C816 1.399 . S
C821 C820 1.394 . S
C821 C822 1.516 . S
C822 C821 1.516 . S
C822 C823 1.502 . S
C822 C824 1.561 . S
C822 C825 1.526 . S
C823 H807 0.959 . S
C823 H808 0.959 . S
C823 H809 0.961 . S
C823 C822 1.502 . S
C824 H810 0.960 . S
C824 H811 0.961 . S
C824 H812 0.959 . S
C824 C822 1.561 . S
C825 C822 1.526 . S
C825 C826 1.396 . S
C825 C830 1.390 . S
C826 C820 1.465 . S
C826 C825 1.396 . S
C826 C827 1.399 . S
C827 H813 0.929 . S
C827 C826 1.399 . S
C827 C828 1.385 . S
C828 H814 0.931 . S
C828 C827 1.385 . S
C828 C829 1.389 . S
C829 C828 1.389 . S
C829 C830 1.387 . S
C830 H815 0.930 . S
C830 C825 1.390 . S
C830 C829 1.387 . S
H831 C843 0.930 . S
H832 C845 0.930 . S
H833 C846 0.930 . S
H834 C850 0.975 . S
H835 C850 0.935 1_545 S
H836 C850 0.951 1_545 S
H837 C851 0.957 1_545 S
H838 C851 0.961 1_545 S
H839 C851 0.959 . S
H840 C854 0.929 . S
H841 C855 0.931 . S
H842 C857 0.930 . S
C843 H831 0.930 . S
C843 C844 1.399 . S
C843 C848 1.399 . S
C844 C843 1.399 . S
C844 C845 1.376 . S
C845 H832 0.930 . S
C845 C844 1.376 . S
C845 C846 1.388 . S
C846 H833 0.930 . S
C846 C845 1.388 . S
C846 C847 1.390 . S
C847 C846 1.390 . S
C847 C848 1.394 . S
C847 C853 1.465 . S
C848 C843 1.399 . S
C848 C847 1.394 . S
C848 C849 1.516 . S
C849 C848 1.516 . S
C849 C850 1.522 . S
C849 C851 1.561 . S
C849 C852 1.526 . S
C850 H834 0.975 . S
C850 H835 0.935 1_565 S
C850 H836 0.951 1_565 S
C850 C849 1.522 . S
C851 H837 0.957 1_565 S
C851 H838 0.961 1_565 S
C851 H839 0.959 . S
C851 C849 1.561 . S
C852 C849 1.526 . S
C852 C853 1.396 . S
C852 C857 1.390 . S
C853 C847 1.465 . S
C853 C852 1.396 . S
C853 C854 1.399 . S
C854 H840 0.929 . S
C854 C853 1.399 . S
C854 C855 1.385 . S
C855 H841 0.931 . S
C855 C854 1.385 . S
C855 C856 1.389 . S
C856 C855 1.389 . S
C856 C857 1.387 . S
C857 H842 0.930 . S
C857 C852 1.390 . S
C857 C856 1.387 . S
H858 C870 0.930 . S
H859 C872 0.930 . S
H860 C873 0.930 . S
H861 C877 0.959 . S
H862 C877 0.959 . S
H863 C877 0.961 . S
H864 C878 0.960 . S
H865 C878 0.961 . S
H866 C878 0.959 . S
H867 C881 0.929 . S
H868 C882 0.931 . S
H869 C884 0.930 . S
C870 H858 0.930 . S
C870 C871 1.399 . S
C870 C875 1.399 . S
C871 C870 1.399 . S
C871 C872 1.376 . S
C872 H859 0.930 . S
C872 C871 1.376 . S
C872 C873 1.388 . S
C873 H860 0.930 . S
C873 C872 1.388 . S
C873 C874 1.390 . S
C874 C873 1.390 . S
C874 C875 1.394 . S
C874 C880 1.465 . S
C875 C870 1.399 . S
C875 C874 1.394 . S
C875 C876 1.516 . S
C876 C875 1.516 . S
C876 C877 1.502 . S
C876 C878 1.561 . S
C876 C879 1.526 . S
C877 H861 0.959 . S
C877 H862 0.959 . S
C877 H863 0.961 . S
C877 C876 1.502 . S
C878 H864 0.960 . S
C878 H865 0.961 . S
C878 H866 0.959 . S
C878 C876 1.561 . S
C879 C876 1.526 . S
C879 C880 1.396 . S
C879 C884 1.390 . S
C880 C874 1.465 . S
C880 C879 1.396 . S
C880 C881 1.399 . S
C881 H867 0.929 . S
C881 C880 1.399 . S
C881 C882 1.385 . S
C882 H868 0.931 . S
C882 C881 1.385 . S
C882 C883 1.389 . S
C883 C882 1.389 . S
C883 C884 1.387 . S
C884 H869 0.930 . S
C884 C879 1.390 . S
C884 C883 1.387 . S
H885 C897 0.930 . S
H886 C899 0.930 . S
H887 C900 0.930 1_556 S
H888 C904 0.959 . S
H889 C904 0.959 1_565 S
H890 C904 0.961 . S
H891 C905 0.961 1_565 S
H892 C905 0.961 1_565 S
H893 C905 0.959 1_556 S
H894 C908 0.929 . S
H895 C909 0.931 . S
H896 C911 0.930 1_565 S
C897 H885 0.930 . S
C897 C898 1.399 . S
C897 C902 1.399 . S
C898 C897 1.399 . S
C898 C899 1.376 . S
C899 H886 0.930 . S
C899 C898 1.376 . S
C899 C900 1.388 . S
C900 H887 0.930 1_554 S
C900 C899 1.388 . S
C900 C901 1.390 . S
C901 C900 1.390 . S
C901 C902 1.394 . S
C901 C907 1.465 1_554 S
C902 C897 1.399 . S
C902 C901 1.394 . S
C902 C903 1.516 . S
C903 C902 1.516 . S
C903 C904 1.502 . S
C903 C905 1.561 . S
C903 C906 1.526 1_554 S
C904 H888 0.959 . S
C904 H889 0.959 1_545 S
C904 H890 0.961 . S
C904 C903 1.502 . S
C905 H891 0.961 1_545 S
C905 H892 0.961 1_545 S
C905 H893 0.959 1_554 S
C905 C903 1.561 . S
C906 C903 1.526 1_556 S
C906 C907 1.396 . S
C906 C911 1.390 . S
C907 C901 1.465 1_556 S
C907 C906 1.396 . S
C907 C908 1.399 . S
C908 H894 0.929 . S
C908 C907 1.399 . S
C908 C909 1.385 . S
C909 H895 0.931 . S
C909 C908 1.385 . S
C909 C910 1.389 . S
C910 C909 1.389 . S
C910 C911 1.387 . S
C911 H896 0.930 1_545 S
C911 C906 1.390 . S
C911 C910 1.387 . S
H912 C924 0.930 . S
H913 C926 0.930 . S
H914 C927 0.930 . S
H915 C931 0.959 . S
H916 C931 0.959 . S
H917 C931 0.961 . S
H918 C932 0.960 . S
H919 C932 0.961 . S
H920 C932 0.959 . S
H921 C935 0.929 . S
H922 C936 0.931 . S
H923 C938 0.930 . S
C924 H912 0.930 . S
C924 C925 1.399 . S
C924 C929 1.399 . S
C925 C924 1.399 . S
C925 C926 1.376 . S
C926 H913 0.930 . S
C926 C925 1.376 . S
C926 C927 1.388 . S
C927 H914 0.930 . S
C927 C926 1.388 . S
C927 C928 1.390 . S
C928 C927 1.390 . S
C928 C929 1.394 . S
C928 C934 1.465 . S
C929 C924 1.399 . S
C929 C928 1.394 . S
C929 C930 1.516 . S
C930 C929 1.516 . S
C930 C931 1.502 . S
C930 C932 1.561 . S
C930 C933 1.526 . S
C931 H915 0.959 . S
C931 H916 0.959 . S
C931 H917 0.961 . S
C931 C930 1.502 . S
C932 H918 0.960 . S
C932 H919 0.961 . S
C932 H920 0.959 . S
C932 C930 1.561 . S
C933 C930 1.526 . S
C933 C934 1.396 . S
C933 C938 1.390 . S
C934 C928 1.465 . S
C934 C933 1.396 . S
C934 C935 1.399 . S
C935 H921 0.929 . S
C935 C934 1.399 . S
C935 C936 1.385 . S
C936 H922 0.931 . S
C936 C935 1.385 . S
C936 C937 1.389 . S
C937 C936 1.389 . S
C937 C938 1.387 . S
C938 H923 0.930 . S
C938 C933 1.390 . S
C938 C937 1.387 . S
H939 C951 0.930 . S
H940 C953 0.930 . S
H941 C954 0.930 . S
H942 C958 0.959 . S
H943 C958 0.959 . S
H944 C958 0.961 . S
H945 C959 0.960 . S
H946 C959 0.961 . S
H947 C959 0.959 . S
H948 C962 0.929 . S
H949 C963 0.931 . S
H950 C965 0.930 . S
C951 H939 0.930 . S
C951 C952 1.399 . S
C951 C956 1.399 1_554 S
C952 C951 1.399 . S
C952 C953 1.376 . S
C953 H940 0.930 . S
C953 C952 1.376 . S
C953 C954 1.388 . S
C954 H941 0.930 . S
C954 C953 1.388 . S
C954 C955 1.390 1_554 S
C955 C954 1.390 1_556 S
C955 C956 1.394 . S
C955 C961 1.465 . S
C956 C951 1.399 1_556 S
C956 C955 1.394 . S
C956 C957 1.516 . S
C957 C956 1.516 . S
C957 C958 1.502 . S
C957 C959 1.561 . S
C957 C960 1.526 . S
C958 H942 0.959 . S
C958 H943 0.959 . S
C958 H944 0.961 . S
C958 C957 1.502 . S
C959 H945 0.960 . S
C959 H946 0.961 . S
C959 H947 0.959 . S
C959 C957 1.561 . S
C960 C957 1.526 . S
C960 C961 1.396 . S
C960 C965 1.390 . S
C961 C955 1.465 . S
C961 C960 1.396 . S
C961 C962 1.399 . S
C962 H948 0.929 . S
C962 C961 1.399 . S
C962 C963 1.385 . S
C963 H949 0.931 . S
C963 C962 1.385 . S
C963 C964 1.389 . S
C964 C963 1.389 . S
C964 C965 1.387 . S
C965 H950 0.930 . S
C965 C960 1.390 . S
C965 C964 1.387 . S
H966 C978 0.930 . S
H967 C980 0.930 . S
H968 C981 0.930 . S
H969 C985 0.959 . S
H970 C985 0.959 . S
H971 C985 0.961 . S
H972 C986 0.960 . S
H973 C986 0.961 . S
H974 C986 0.959 . S
H975 C989 0.929 . S
H976 C990 0.931 . S
H977 C992 0.930 . S
C978 H966 0.930 . S
C978 C979 1.399 . S
C978 C983 1.399 . S
C979 C978 1.399 . S
C979 C980 1.376 . S
C980 H967 0.930 . S
C980 C979 1.376 . S
C980 C981 1.388 . S
C981 H968 0.930 . S
C981 C980 1.388 . S
C981 C982 1.390 . S
C982 C981 1.390 . S
C982 C983 1.394 . S
C982 C988 1.465 . S
C983 C978 1.399 . S
C983 C982 1.394 . S
C983 C984 1.516 . S
C984 C983 1.516 . S
C984 C985 1.502 . S
C984 C986 1.561 . S
C984 C987 1.526 . S
C985 H969 0.959 . S
C985 H970 0.959 . S
C985 H971 0.961 . S
C985 C984 1.502 . S
C986 H972 0.960 . S
C986 H973 0.961 . S
C986 H974 0.959 . S
C986 C984 1.561 . S
C987 C984 1.526 . S
C987 C988 1.396 . S
C987 C992 1.390 . S
C988 C982 1.465 . S
C988 C987 1.396 . S
C988 C989 1.399 . S
C989 H975 0.929 . S
C989 C988 1.399 . S
C989 C990 1.385 . S
C990 H976 0.931 . S
C990 C989 1.385 . S
C990 C991 1.389 . S
C991 C990 1.389 . S
C991 C992 1.387 . S
C992 H977 0.930 . S
C992 C987 1.390 . S
C992 C991 1.387 . S
H993 C1005 0.930 . S
H994 C1007 0.930 . S
H995 C1008 0.930 . S
H996 C1012 0.959 . S
H997 C1012 0.959 . S
H998 C1012 0.961 . S
H999 C1013 0.960 . S
H1000 C1013 0.961 . S
H1001 C1013 0.959 . S
H1002 C1016 0.929 . S
H1003 C1017 0.931 . S
H1004 C1019 0.930 . S
C1005 H993 0.930 . S
C1005 C1006 1.399 . S
C1005 C1010 1.399 . S
C1006 C1005 1.399 . S
C1006 C1007 1.376 . S
C1007 H994 0.930 . S
C1007 C1006 1.376 . S
C1007 C1008 1.388 . S
C1008 H995 0.930 . S
C1008 C1007 1.388 . S
C1008 C1009 1.390 . S
C1009 C1008 1.390 . S
C1009 C1010 1.394 . S
C1009 C1015 1.465 . S
C1010 C1005 1.399 . S
C1010 C1009 1.394 . S
C1010 C1011 1.516 . S
C1011 C1010 1.516 . S
C1011 C1012 1.502 . S
C1011 C1013 1.561 . S
C1011 C1014 1.526 . S
C1012 H996 0.959 . S
C1012 H997 0.959 . S
C1012 H998 0.961 . S
C1012 C1011 1.502 . S
C1013 H999 0.960 . S
C1013 H1000 0.961 . S
C1013 H1001 0.959 . S
C1013 C1011 1.561 . S
C1014 C1011 1.526 . S
C1014 C1015 1.396 . S
C1014 C1019 1.390 . S
C1015 C1009 1.465 . S
C1015 C1014 1.396 . S
C1015 C1016 1.399 . S
C1016 H1002 0.929 . S
C1016 C1015 1.399 . S
C1016 C1017 1.385 . S
C1017 H1003 0.931 . S
C1017 C1016 1.385 . S
C1017 C1018 1.389 . S
C1018 C1017 1.389 . S
C1018 C1019 1.387 . S
C1019 H1004 0.930 . S
C1019 C1014 1.390 . S
C1019 C1018 1.387 . S
H1020 C1032 0.930 . S
H1021 C1034 0.930 . S
H1022 C1035 0.930 . S
H1023 C1039 0.959 . S
H1024 C1039 0.959 . S
H1025 C1039 0.961 . S
H1026 C1040 0.960 . S
H1027 C1040 0.961 . S
H1028 C1040 0.959 . S
H1029 C1043 0.929 . S
H1030 C1044 0.931 . S
H1031 C1046 0.930 . S
C1032 H1020 0.930 . S
C1032 C1033 1.399 . S
C1032 C1037 1.399 . S
C1033 C1032 1.399 . S
C1033 C1034 1.376 . S
C1034 H1021 0.930 . S
C1034 C1033 1.376 . S
C1034 C1035 1.388 . S
C1035 H1022 0.930 . S
C1035 C1034 1.388 . S
C1035 C1036 1.390 . S
C1036 C1035 1.390 . S
C1036 C1037 1.394 . S
C1036 C1042 1.465 . S
C1037 C1032 1.399 . S
C1037 C1036 1.394 . S
C1037 C1038 1.516 . S
C1038 C1037 1.516 . S
C1038 C1039 1.502 . S
C1038 C1040 1.561 . S
C1038 C1041 1.526 . S
C1039 H1023 0.959 . S
C1039 H1024 0.959 . S
C1039 H1025 0.961 . S
C1039 C1038 1.502 . S
C1040 H1026 0.960 . S
C1040 H1027 0.961 . S
C1040 H1028 0.959 . S
C1040 C1038 1.561 . S
C1041 C1038 1.526 . S
C1041 C1042 1.396 . S
C1041 C1046 1.390 . S
C1042 C1036 1.465 . S
C1042 C1041 1.396 . S
C1042 C1043 1.399 . S
C1043 H1029 0.929 . S
C1043 C1042 1.399 . S
C1043 C1044 1.385 . S
C1044 H1030 0.931 . S
C1044 C1043 1.385 . S
C1044 C1045 1.389 . S
C1045 C1044 1.389 . S
C1045 C1046 1.387 . S
C1046 H1031 0.930 . S
C1046 C1041 1.390 . S
C1046 C1045 1.387 . S
H1047 C1059 0.930 . S
H1048 C1061 0.930 . S
H1049 C1062 0.930 . S
H1050 C1066 0.959 . S
H1051 C1066 0.959 . S
H1052 C1066 0.961 . S
H1053 C1067 0.960 . S
H1054 C1067 0.961 1_565 S
H1055 C1067 0.959 . S
H1056 C1070 0.946 . S
H1057 C1071 0.931 . S
H1058 C1073 0.930 . S
C1059 H1047 0.930 . S
C1059 C1060 1.399 . S
C1059 C1064 1.399 . S
C1060 C1059 1.399 . S
C1060 C1061 1.376 . S
C1061 H1048 0.930 . S
C1061 C1060 1.376 . S
C1061 C1062 1.388 . S
C1062 H1049 0.930 . S
C1062 C1061 1.388 . S
C1062 C1063 1.390 . S
C1063 C1062 1.390 . S
C1063 C1064 1.394 . S
C1063 C1069 1.465 . S
C1064 C1059 1.399 . S
C1064 C1063 1.394 . S
C1064 C1065 1.516 . S
C1065 C1064 1.516 . S
C1065 C1066 1.502 . S
C1065 C1067 1.561 . S
C1065 C1068 1.526 . S
C1066 H1050 0.959 . S
C1066 H1051 0.959 . S
C1066 H1052 0.961 . S
C1066 C1065 1.502 . S
C1067 H1053 0.960 . S
C1067 H1054 0.961 1_545 S
C1067 H1055 0.959 . S
C1067 C1065 1.561 . S
C1068 C1065 1.526 . S
C1068 C1069 1.396 . S
C1068 C1073 1.390 1_545 S
C1069 C1063 1.465 . S
C1069 C1068 1.396 . S
C1069 C1070 1.417 . S
C1070 H1056 0.946 . S
C1070 C1069 1.417 . S
C1070 C1071 1.351 1_545 S
C1071 H1057 0.931 . S
C1071 C1070 1.351 1_565 S
C1071 C1072 1.389 . S
C1072 C1071 1.389 . S
C1072 C1073 1.387 . S
C1073 H1058 0.930 . S
C1073 C1068 1.390 1_565 S
C1073 C1072 1.387 . S
H1074 C1086 0.930 . S
H1075 C1088 0.930 . S
H1076 C1089 0.930 . S
H1077 C1093 0.959 . S
H1078 C1093 0.959 . S
H1079 C1093 0.961 . S
H1080 C1094 0.960 . S
H1081 C1094 0.961 . S
H1082 C1094 0.959 . S
H1083 C1097 0.929 . S
H1084 C1098 0.931 . S
H1085 C1100 0.930 . S
C1086 H1074 0.930 . S
C1086 C1087 1.399 . S
C1086 C1091 1.399 . S
C1087 C1086 1.399 . S
C1087 C1088 1.376 . S
C1088 H1075 0.930 . S
C1088 C1087 1.376 . S
C1088 C1089 1.388 . S
C1089 H1076 0.930 . S
C1089 C1088 1.388 . S
C1089 C1090 1.390 . S
C1090 C1089 1.390 . S
C1090 C1091 1.394 . S
C1090 C1096 1.465 . S
C1091 C1086 1.399 . S
C1091 C1090 1.394 . S
C1091 C1092 1.516 . S
C1092 C1091 1.516 . S
C1092 C1093 1.502 . S
C1092 C1094 1.561 . S
C1092 C1095 1.526 . S
C1093 H1077 0.959 . S
C1093 H1078 0.959 . S
C1093 H1079 0.961 . S
C1093 C1092 1.502 . S
C1094 H1080 0.960 . S
C1094 H1081 0.961 . S
C1094 H1082 0.959 . S
C1094 C1092 1.561 . S
C1095 C1092 1.526 . S
C1095 C1096 1.396 . S
C1095 C1100 1.390 . S
C1096 C1090 1.465 . S
C1096 C1095 1.396 . S
C1096 C1097 1.399 . S
C1097 H1083 0.929 . S
C1097 C1096 1.399 . S
C1097 C1098 1.385 . S
C1098 H1084 0.931 . S
C1098 C1097 1.385 . S
C1098 C1099 1.389 . S
C1099 C1098 1.389 . S
C1099 C1100 1.387 . S
C1100 H1085 0.930 . S
C1100 C1095 1.390 . S
C1100 C1099 1.387 . S
H1101 C1113 0.930 . S
H1102 C1115 0.930 . S
H1103 C1116 0.930 1_565 S
H1104 C1120 0.959 . S
H1105 C1120 0.959 . S
H1106 C1120 0.961 . S
H1107 C1121 0.960 . S
H1108 C1121 0.961 . S
H1109 C1121 0.959 1_565 S
H1110 C1124 0.929 . S
H1111 C1125 0.931 . S
H1112 C1127 0.930 . S
C1113 H1101 0.930 . S
C1113 C1114 1.399 . S
C1113 C1118 1.399 . S
C1114 C1113 1.399 . S
C1114 C1115 1.376 . S
C1115 H1102 0.930 . S
C1115 C1114 1.376 . S
C1115 C1116 1.388 . S
C1116 H1103 0.930 1_545 S
C1116 C1115 1.388 . S
C1116 C1117 1.390 . S
C1117 C1116 1.390 . S
C1117 C1118 1.394 . S
C1117 C1123 1.465 1_545 S
C1118 C1113 1.399 . S
C1118 C1117 1.394 . S
C1118 C1119 1.516 . S
C1119 C1118 1.516 . S
C1119 C1120 1.502 . S
C1119 C1121 1.561 . S
C1119 C1122 1.526 1_545 S
C1120 H1104 0.959 . S
C1120 H1105 0.959 . S
C1120 H1106 0.961 . S
C1120 C1119 1.502 . S
C1121 H1107 0.960 . S
C1121 H1108 0.961 . S
C1121 H1109 0.959 1_545 S
C1121 C1119 1.561 . S
C1122 C1119 1.526 1_565 S
C1122 C1123 1.396 . S
C1122 C1127 1.390 . S
C1123 C1117 1.465 1_565 S
C1123 C1122 1.396 . S
C1123 C1124 1.399 . S
C1124 H1110 0.929 . S
C1124 C1123 1.399 . S
C1124 C1125 1.385 . S
C1125 H1111 0.931 . S
C1125 C1124 1.385 . S
C1125 C1126 1.389 . S
C1126 C1125 1.389 . S
C1126 C1127 1.387 . S
C1127 H1112 0.930 . S
C1127 C1122 1.390 . S
C1127 C1126 1.387 . S
H1128 C1140 0.930 . S
H1129 C1142 0.930 . S
H1130 C1143 0.930 . S
H1131 C1147 0.959 . S
H1132 C1147 0.959 . S
H1133 C1147 0.961 . S
H1134 C1148 0.960 . S
H1135 C1148 0.961 . S
H1136 C1148 0.959 . S
H1137 C1151 0.929 . S
H1138 C1152 0.931 . S
H1139 C1154 0.930 . S
C1140 H1128 0.930 . S
C1140 C1141 1.399 . S
C1140 C1145 1.399 . S
C1141 C1140 1.399 . S
C1141 C1142 1.376 . S
C1142 H1129 0.930 . S
C1142 C1141 1.376 . S
C1142 C1143 1.388 . S
C1143 H1130 0.930 . S
C1143 C1142 1.388 . S
C1143 C1144 1.390 . S
C1144 C1143 1.390 . S
C1144 C1145 1.394 . S
C1144 C1150 1.465 . S
C1145 C1140 1.399 . S
C1145 C1144 1.394 . S
C1145 C1146 1.516 . S
C1146 C1145 1.516 . S
C1146 C1147 1.502 . S
C1146 C1148 1.561 . S
C1146 C1149 1.526 . S
C1147 H1131 0.959 . S
C1147 H1132 0.959 . S
C1147 H1133 0.961 . S
C1147 C1146 1.502 . S
C1148 H1134 0.960 . S
C1148 H1135 0.961 . S
C1148 H1136 0.959 . S
C1148 C1146 1.561 . S
C1149 C1146 1.526 . S
C1149 C1150 1.396 . S
C1149 C1154 1.390 . S
C1150 C1144 1.465 . S
C1150 C1149 1.396 . S
C1150 C1151 1.399 . S
C1151 H1137 0.929 . S
C1151 C1150 1.399 . S
C1151 C1152 1.385 . S
C1152 H1138 0.931 . S
C1152 C1151 1.385 . S
C1152 C1153 1.389 . S
C1153 C1152 1.389 . S
C1153 C1154 1.387 . S
C1154 H1139 0.930 . S
C1154 C1149 1.390 . S
C1154 C1153 1.387 . S
H1155 C1167 0.930 . S
H1156 C1169 0.930 . S
H1157 C1170 0.930 . S
H1158 C1174 0.959 . S
H1159 C1174 0.959 . S
H1160 C1174 0.961 1_455 S
H1161 C1175 0.960 . S
H1162 C1175 0.961 . S
H1163 C1175 0.959 . S
H1164 C1178 0.929 . S
H1165 C1179 0.931 . S
H1166 C1181 0.930 . S
C1167 H1155 0.930 . S
C1167 C1168 1.399 . S
C1167 C1172 1.399 . S
C1168 C1167 1.399 . S
C1168 C1169 1.376 . S
C1169 H1156 0.930 . S
C1169 C1168 1.376 . S
C1169 C1170 1.388 . S
C1170 H1157 0.930 . S
C1170 C1169 1.388 . S
C1170 C1171 1.390 . S
C1171 C1170 1.390 . S
C1171 C1172 1.394 . S
C1171 C1177 1.465 . S
C1172 C1167 1.399 . S
C1172 C1171 1.394 . S
C1172 C1173 1.516 . S
C1173 C1172 1.516 . S
C1173 C1174 1.502 . S
C1173 C1175 1.561 . S
C1173 C1176 1.526 . S
C1174 H1158 0.959 . S
C1174 H1159 0.959 . S
C1174 H1160 0.961 1_655 S
C1174 C1173 1.502 . S
C1175 H1161 0.960 . S
C1175 H1162 0.961 . S
C1175 H1163 0.959 . S
C1175 C1173 1.561 . S
C1176 C1173 1.526 . S
C1176 C1177 1.396 . S
C1176 C1181 1.390 . S
C1177 C1171 1.465 . S
C1177 C1176 1.396 . S
C1177 C1178 1.399 . S
C1178 H1164 0.929 . S
C1178 C1177 1.399 . S
C1178 C1179 1.385 . S
C1179 H1165 0.931 . S
C1179 C1178 1.385 . S
C1179 C1180 1.389 . S
C1180 C1179 1.389 . S
C1180 C1181 1.387 . S
C1181 H1166 0.930 . S
C1181 C1176 1.390 . S
C1181 C1180 1.387 . S
H1182 C1194 0.930 . S
H1183 C1196 0.930 . S
H1184 C1197 0.930 . S
H1185 C1201 0.959 . S
H1186 C1201 0.959 . S
H1187 C1201 0.961 . S
H1188 C1202 0.960 . S
H1189 C1202 0.961 . S
H1190 C1202 0.959 . S
H1191 C1205 0.929 . S
H1192 C1206 0.931 . S
H1193 C1208 0.930 . S
C1194 H1182 0.930 . S
C1194 C1195 1.399 . S
C1194 C1199 1.399 . S
C1195 C1194 1.399 . S
C1195 C1196 1.376 . S
C1196 H1183 0.930 . S
C1196 C1195 1.376 . S
C1196 C1197 1.388 . S
C1197 H1184 0.930 . S
C1197 C1196 1.388 . S
C1197 C1198 1.390 . S
C1198 C1197 1.390 . S
C1198 C1199 1.394 . S
C1198 C1204 1.465 . S
C1199 C1194 1.399 . S
C1199 C1198 1.394 . S
C1199 C1200 1.516 . S
C1200 C1199 1.516 . S
C1200 C1201 1.502 . S
C1200 C1202 1.561 . S
C1200 C1203 1.526 . S
C1201 H1185 0.959 . S
C1201 H1186 0.959 . S
C1201 H1187 0.961 . S
C1201 C1200 1.502 . S
C1202 H1188 0.960 . S
C1202 H1189 0.961 . S
C1202 H1190 0.959 . S
C1202 C1200 1.561 . S
C1203 C1200 1.526 . S
C1203 C1204 1.396 . S
C1203 C1208 1.390 . S
C1204 C1198 1.465 . S
C1204 C1203 1.396 . S
C1204 C1205 1.399 . S
C1205 H1191 0.929 . S
C1205 C1204 1.399 . S
C1205 C1206 1.385 . S
C1206 H1192 0.931 . S
C1206 C1205 1.385 . S
C1206 C1207 1.389 . S
C1207 C1206 1.389 . S
C1207 C1208 1.387 . S
C1208 H1193 0.930 . S
C1208 C1203 1.390 . S
C1208 C1207 1.387 . S
H1209 C1221 0.930 . S
H1210 C1223 0.930 . S
H1211 C1224 0.930 . S
H1212 C1228 0.959 . S
H1213 C1228 0.959 . S
H1214 C1228 0.961 . S
H1215 C1229 0.960 . S
H1216 C1229 0.961 . S
H1217 C1229 0.959 . S
H1218 C1232 0.929 . S
H1219 C1233 0.931 . S
H1220 C1235 0.930 . S
C1221 H1209 0.930 . S
C1221 C1222 1.399 . S
C1221 C1226 1.399 . S
C1222 C1221 1.399 . S
C1222 C1223 1.376 . S
C1223 H1210 0.930 . S
C1223 C1222 1.376 . S
C1223 C1224 1.388 . S
C1224 H1211 0.930 . S
C1224 C1223 1.388 . S
C1224 C1225 1.390 . S
C1225 C1224 1.390 . S
C1225 C1226 1.394 . S
C1225 C1231 1.465 . S
C1226 C1221 1.399 . S
C1226 C1225 1.394 . S
C1226 C1227 1.516 . S
C1227 C1226 1.516 . S
C1227 C1228 1.502 . S
C1227 C1229 1.561 . S
C1227 C1230 1.526 . S
C1228 H1212 0.959 . S
C1228 H1213 0.959 . S
C1228 H1214 0.961 . S
C1228 C1227 1.502 . S
C1229 H1215 0.960 . S
C1229 H1216 0.961 . S
C1229 H1217 0.959 . S
C1229 C1227 1.561 . S
C1230 C1227 1.526 . S
C1230 C1231 1.396 . S
C1230 C1235 1.390 . S
C1231 C1225 1.465 . S
C1231 C1230 1.396 . S
C1231 C1232 1.399 . S
C1232 H1218 0.929 . S
C1232 C1231 1.399 . S
C1232 C1233 1.385 . S
C1233 H1219 0.931 . S
C1233 C1232 1.385 . S
C1233 C1234 1.389 . S
C1234 C1233 1.389 . S
C1234 C1235 1.387 . S
C1235 H1220 0.930 . S
C1235 C1230 1.390 . S
C1235 C1234 1.387 . S
H1236 C1248 0.930 . S
H1237 C1250 0.930 . S
H1238 C1251 0.930 . S
H1239 C1255 0.959 . S
H1240 C1255 0.959 . S
H1241 C1255 0.961 . S
H1242 C1256 0.960 . S
H1243 C1256 0.961 . S
H1244 C1256 0.959 . S
H1245 C1259 0.929 . S
H1246 C1260 0.931 . S
H1247 C1262 0.930 . S
C1248 H1236 0.930 . S
C1248 C1249 1.399 . S
C1248 C1253 1.399 . S
C1249 C1248 1.399 . S
C1249 C1250 1.376 . S
C1250 H1237 0.930 . S
C1250 C1249 1.376 . S
C1250 C1251 1.388 . S
C1251 H1238 0.930 . S
C1251 C1250 1.388 . S
C1251 C1252 1.390 . S
C1252 C1251 1.390 . S
C1252 C1253 1.394 . S
C1252 C1258 1.465 . S
C1253 C1248 1.399 . S
C1253 C1252 1.394 . S
C1253 C1254 1.516 . S
C1254 C1253 1.516 . S
C1254 C1255 1.502 . S
C1254 C1256 1.561 . S
C1254 C1257 1.526 . S
C1255 H1239 0.959 . S
C1255 H1240 0.959 . S
C1255 H1241 0.961 . S
C1255 C1254 1.502 . S
C1256 H1242 0.960 . S
C1256 H1243 0.961 . S
C1256 H1244 0.959 . S
C1256 C1254 1.561 . S
C1257 C1254 1.526 . S
C1257 C1258 1.396 . S
C1257 C1262 1.390 . S
C1258 C1252 1.465 . S
C1258 C1257 1.396 . S
C1258 C1259 1.399 . S
C1259 H1245 0.929 . S
C1259 C1258 1.399 . S
C1259 C1260 1.385 . S
C1260 H1246 0.931 . S
C1260 C1259 1.385 . S
C1260 C1261 1.389 . S
C1261 C1260 1.389 . S
C1261 C1262 1.387 . S
C1262 H1247 0.930 . S
C1262 C1257 1.390 . S
C1262 C1261 1.387 . S
H1263 C1275 0.930 . S
H1264 C1277 0.930 . S
H1265 C1278 0.930 . S
H1266 C1282 0.959 . S
H1267 C1282 0.959 . S
H1268 C1282 0.961 . S
H1269 C1283 0.960 . S
H1270 C1283 0.961 . S
H1271 C1283 0.959 . S
H1272 C1286 0.929 . S
H1273 C1287 0.931 . S
H1274 C1289 0.930 . S
C1275 H1263 0.930 . S
C1275 C1276 1.399 . S
C1275 C1280 1.399 . S
C1276 C1275 1.399 . S
C1276 C1277 1.376 . S
C1277 H1264 0.930 . S
C1277 C1276 1.376 . S
C1277 C1278 1.388 . S
C1278 H1265 0.930 . S
C1278 C1277 1.388 . S
C1278 C1279 1.390 . S
C1279 C1278 1.390 . S
C1279 C1280 1.394 . S
C1279 C1285 1.465 . S
C1280 C1275 1.399 . S
C1280 C1279 1.394 . S
C1280 C1281 1.516 . S
C1281 C1280 1.516 . S
C1281 C1282 1.502 . S
C1281 C1283 1.561 . S
C1281 C1284 1.526 . S
C1282 H1266 0.959 . S
C1282 H1267 0.959 . S
C1282 H1268 0.961 . S
C1282 C1281 1.502 . S
C1283 H1269 0.960 . S
C1283 H1270 0.961 . S
C1283 H1271 0.959 . S
C1283 C1281 1.561 . S
C1284 C1281 1.526 . S
C1284 C1285 1.396 . S
C1284 C1289 1.390 . S
C1285 C1279 1.465 . S
C1285 C1284 1.396 . S
C1285 C1286 1.399 . S
C1286 H1272 0.929 . S
C1286 C1285 1.399 . S
C1286 C1287 1.385 . S
C1287 H1273 0.931 . S
C1287 C1286 1.385 . S
C1287 C1288 1.389 . S
C1288 C1287 1.389 . S
C1288 C1289 1.387 . S
C1289 H1274 0.930 . S
C1289 C1284 1.390 . S
C1289 C1288 1.387 . S
H1290 C1302 0.930 . S
H1291 C1304 0.930 . S
H1292 C1305 0.930 . S
H1293 C1309 0.959 1_554 S
H1294 C1309 0.959 . S
H1295 C1309 0.961 . S
H1296 C1310 0.960 1_455 S
H1297 C1310 0.961 1_556 S
H1298 C1310 0.959 . S
H1299 C1313 0.929 . S
H1300 C1314 0.931 . S
H1301 C1316 0.930 . S
C1302 H1290 0.930 . S
C1302 C1303 1.399 . S
C1302 C1307 1.399 . S
C1303 C1302 1.399 . S
C1303 C1304 1.376 . S
C1304 H1291 0.930 . S
C1304 C1303 1.376 . S
C1304 C1305 1.388 . S
C1305 H1292 0.930 . S
C1305 C1304 1.388 . S
C1305 C1306 1.390 . S
C1306 C1305 1.390 . S
C1306 C1307 1.394 . S
C1306 C1312 1.465 1_455 S
C1307 C1302 1.399 . S
C1307 C1306 1.394 . S
C1307 C1308 1.516 . S
C1308 C1307 1.516 . S
C1308 C1309 1.502 1_554 S
C1308 C1310 1.561 1_455 S
C1308 C1311 1.526 1_455 S
C1309 H1293 0.959 1_556 S
C1309 H1294 0.959 . S
C1309 H1295 0.961 . S
C1309 C1308 1.502 1_556 S
C1310 H1296 0.960 1_655 S
C1310 H1297 0.961 1_554 S
C1310 H1298 0.959 . S
C1310 C1308 1.561 1_655 S
C1311 C1308 1.526 1_655 S
C1311 C1312 1.396 . S
C1311 C1316 1.390 . S
C1312 C1306 1.465 1_655 S
C1312 C1311 1.396 . S
C1312 C1313 1.399 . S
C1313 H1299 0.929 . S
C1313 C1312 1.399 . S
C1313 C1314 1.385 . S
C1314 H1300 0.931 . S
C1314 C1313 1.385 . S
C1314 C1315 1.389 . S
C1315 C1314 1.389 . S
C1315 C1316 1.387 . S
C1316 H1301 0.930 . S
C1316 C1311 1.390 . S
C1316 C1315 1.387 . S
H1317 C1329 0.930 . S
H1318 C1331 0.930 . S
H1319 C1332 0.930 . S
H1320 C1336 0.959 . S
H1321 C1336 0.959 . S
H1322 C1336 0.961 . S
H1323 C1337 0.960 . S
H1324 C1337 0.961 . S
H1325 C1337 0.959 . S
H1326 C1340 0.929 . S
H1327 C1341 0.931 . S
H1328 C1343 0.930 . S
C1329 H1317 0.930 . S
C1329 C1330 1.399 . S
C1329 C1334 1.399 . S
C1330 C1329 1.399 . S
C1330 C1331 1.376 . S
C1331 H1318 0.930 . S
C1331 C1330 1.376 . S
C1331 C1332 1.388 . S
C1332 H1319 0.930 . S
C1332 C1331 1.388 . S
C1332 C1333 1.390 . S
C1333 C1332 1.390 . S
C1333 C1334 1.394 . S
C1333 C1339 1.465 . S
C1334 C1329 1.399 . S
C1334 C1333 1.394 . S
C1334 C1335 1.516 . S
C1335 C1334 1.516 . S
C1335 C1336 1.502 . S
C1335 C1337 1.561 . S
C1335 C1338 1.526 . S
C1336 H1320 0.959 . S
C1336 H1321 0.959 . S
C1336 H1322 0.961 . S
C1336 C1335 1.502 . S
C1337 H1323 0.960 . S
C1337 H1324 0.961 . S
C1337 H1325 0.959 . S
C1337 C1335 1.561 . S
C1338 C1335 1.526 . S
C1338 C1339 1.396 . S
C1338 C1343 1.390 . S
C1339 C1333 1.465 . S
C1339 C1338 1.396 . S
C1339 C1340 1.399 . S
C1340 H1326 0.929 . S
C1340 C1339 1.399 . S
C1340 C1341 1.385 . S
C1341 H1327 0.931 . S
C1341 C1340 1.385 . S
C1341 C1342 1.389 . S
C1342 C1341 1.389 . S
C1342 C1343 1.387 . S
C1343 H1328 0.930 . S
C1343 C1338 1.390 . S
C1343 C1342 1.387 . S
H1344 C1356 0.930 . S
H1345 C1358 0.930 . S
H1346 C1359 0.930 . S
H1347 C1363 0.959 . S
H1348 C1363 0.959 . S
H1349 C1363 0.961 . S
H1350 C1364 0.960 . S
H1351 C1364 0.961 . S
H1352 C1364 0.959 . S
H1353 C1367 0.929 . S
H1354 C1368 0.931 . S
H1355 C1370 0.930 . S
C1356 H1344 0.930 . S
C1356 C1357 1.399 . S
C1356 C1361 1.399 . S
C1357 C1356 1.399 . S
C1357 C1358 1.376 . S
C1358 H1345 0.930 . S
C1358 C1357 1.376 . S
C1358 C1359 1.388 . S
C1359 H1346 0.930 . S
C1359 C1358 1.388 . S
C1359 C1360 1.390 . S
C1360 C1359 1.390 . S
C1360 C1361 1.394 . S
C1360 C1366 1.465 . S
C1361 C1356 1.399 . S
C1361 C1360 1.394 . S
C1361 C1362 1.516 . S
C1362 C1361 1.516 . S
C1362 C1363 1.502 . S
C1362 C1364 1.561 . S
C1362 C1365 1.526 . S
C1363 H1347 0.959 . S
C1363 H1348 0.959 . S
C1363 H1349 0.961 . S
C1363 C1362 1.502 . S
C1364 H1350 0.960 . S
C1364 H1351 0.961 . S
C1364 H1352 0.959 . S
C1364 C1362 1.561 . S
C1365 C1362 1.526 . S
C1365 C1366 1.396 . S
C1365 C1370 1.390 . S
C1366 C1360 1.465 . S
C1366 C1365 1.396 . S
C1366 C1367 1.399 . S
C1367 H1353 0.929 . S
C1367 C1366 1.399 . S
C1367 C1368 1.385 . S
C1368 H1354 0.931 . S
C1368 C1367 1.385 . S
C1368 C1369 1.389 . S
C1369 C1368 1.389 . S
C1369 C1370 1.387 . S
C1370 H1355 0.930 . S
C1370 C1365 1.390 . S
C1370 C1369 1.387 . S
H1371 C1383 0.930 . S
H1372 C1385 0.930 . S
H1373 C1386 0.930 . S
H1374 C1390 0.959 . S
H1375 C1390 0.959 . S
H1376 C1390 0.961 . S
H1377 C1391 0.960 . S
H1378 C1391 0.961 . S
H1379 C1391 0.959 . S
H1380 C1394 0.929 . S
H1381 C1395 0.931 . S
H1382 C1397 0.930 . S
C1383 H1371 0.930 . S
C1383 C1384 1.399 . S
C1383 C1388 1.399 . S
C1384 C1383 1.399 . S
C1384 C1385 1.376 . S
C1385 H1372 0.930 . S
C1385 C1384 1.376 . S
C1385 C1386 1.388 . S
C1386 H1373 0.930 . S
C1386 C1385 1.388 . S
C1386 C1387 1.390 . S
C1387 C1386 1.390 . S
C1387 C1388 1.394 . S
C1387 C1393 1.465 . S
C1388 C1383 1.399 . S
C1388 C1387 1.394 . S
C1388 C1389 1.516 . S
C1389 C1388 1.516 . S
C1389 C1390 1.502 . S
C1389 C1391 1.561 . S
C1389 C1392 1.526 . S
C1390 H1374 0.959 . S
C1390 H1375 0.959 . S
C1390 H1376 0.961 . S
C1390 C1389 1.502 . S
C1391 H1377 0.960 . S
C1391 H1378 0.961 . S
C1391 H1379 0.959 . S
C1391 C1389 1.561 . S
C1392 C1389 1.526 . S
C1392 C1393 1.396 . S
C1392 C1397 1.390 . S
C1393 C1387 1.465 . S
C1393 C1392 1.396 . S
C1393 C1394 1.399 . S
C1394 H1380 0.929 . S
C1394 C1393 1.399 . S
C1394 C1395 1.385 . S
C1395 H1381 0.931 . S
C1395 C1394 1.385 . S
C1395 C1396 1.389 . S
C1396 C1395 1.389 . S
C1396 C1397 1.387 . S
C1397 H1382 0.930 . S
C1397 C1392 1.390 . S
C1397 C1396 1.387 . S
H1398 C1410 0.930 1_554 S
H1399 C1412 0.930 . S
H1400 C1413 0.930 . S
H1401 C1417 0.959 . S
H1402 C1417 0.959 1_554 S
H1403 C1417 0.961 1_554 S
H1404 C1418 0.960 1_554 S
H1405 C1418 0.961 . S
H1406 C1418 0.959 . S
H1407 C1421 0.929 . S
H1408 C1422 0.931 . S
H1409 C1424 0.930 . S
C1410 H1398 0.930 1_556 S
C1410 C1411 1.399 . S
C1410 C1415 1.399 . S
C1411 C1410 1.399 . S
C1411 C1412 1.376 . S
C1412 H1399 0.930 . S
C1412 C1411 1.376 . S
C1412 C1413 1.388 . S
C1413 H1400 0.930 . S
C1413 C1412 1.388 . S
C1413 C1414 1.390 . S
C1414 C1413 1.390 . S
C1414 C1415 1.394 . S
C1414 C1420 1.465 . S
C1415 C1410 1.399 . S
C1415 C1414 1.394 . S
C1415 C1416 1.516 . S
C1416 C1415 1.516 . S
C1416 C1417 1.502 . S
C1416 C1418 1.561 . S
C1416 C1419 1.526 . S
C1417 H1401 0.959 . S
C1417 H1402 0.959 1_556 S
C1417 H1403 0.961 1_556 S
C1417 C1416 1.502 . S
C1418 H1404 0.960 1_556 S
C1418 H1405 0.961 . S
C1418 H1406 0.959 . S
C1418 C1416 1.561 . S
C1419 C1416 1.526 . S
C1419 C1420 1.396 . S
C1419 C1424 1.390 . S
C1420 C1414 1.465 . S
C1420 C1419 1.396 . S
C1420 C1421 1.399 . S
C1421 H1407 0.929 . S
C1421 C1420 1.399 . S
C1421 C1422 1.385 . S
C1422 H1408 0.931 . S
C1422 C1421 1.385 . S
C1422 C1423 1.389 . S
C1423 C1422 1.389 . S
C1423 C1424 1.387 . S
C1424 H1409 0.930 . S
C1424 C1419 1.390 . S
C1424 C1423 1.387 . S
H1425 C1437 0.930 . S
H1426 C1439 0.930 . S
H1427 C1440 0.930 . S
H1428 C1444 0.959 . S
H1429 C1444 0.959 . S
H1430 C1444 0.961 . S
H1431 C1445 0.960 . S
H1432 C1445 0.961 . S
H1433 C1445 0.959 . S
H1434 C1448 0.929 . S
H1435 C1449 0.931 . S
H1436 C1451 0.930 . S
C1437 H1425 0.930 . S
C1437 C1438 1.399 . S
C1437 C1442 1.399 . S
C1438 C1437 1.399 . S
C1438 C1439 1.376 . S
C1439 H1426 0.930 . S
C1439 C1438 1.376 . S
C1439 C1440 1.388 . S
C1440 H1427 0.930 . S
C1440 C1439 1.388 . S
C1440 C1441 1.390 . S
C1441 C1440 1.390 . S
C1441 C1442 1.394 . S
C1441 C1447 1.465 . S
C1442 C1437 1.399 . S
C1442 C1441 1.394 . S
C1442 C1443 1.516 . S
C1443 C1442 1.516 . S
C1443 C1444 1.502 . S
C1443 C1445 1.561 . S
C1443 C1446 1.525 . S
C1444 H1428 0.959 . S
C1444 H1429 0.959 . S
C1444 H1430 0.961 . S
C1444 C1443 1.502 . S
C1445 H1431 0.960 . S
C1445 H1432 0.961 . S
C1445 H1433 0.959 . S
C1445 C1443 1.561 . S
C1446 C1443 1.525 . S
C1446 C1447 1.396 . S
C1446 C1451 1.390 1_655 S
C1447 C1441 1.465 . S
C1447 C1446 1.396 . S
C1447 C1448 1.399 1_655 S
C1448 H1434 0.929 . S
C1448 C1447 1.399 1_455 S
C1448 C1449 1.385 . S
C1449 H1435 0.931 . S
C1449 C1448 1.385 . S
C1449 C1450 1.389 . S
C1450 C1449 1.389 . S
C1450 C1451 1.387 . S
C1451 H1436 0.930 . S
C1451 C1446 1.390 1_455 S
C1451 C1450 1.387 . S
C493 C18 1.027 . S
C505 C458 1.054 . S
C520 C379 1.666 . S
C532 C58 1.742 . S
C547 C99 1.207 . S
C559 C338 1.302 . S
C574 C138 2.029 . S
C586 C418 2.024 . S
C601 C178 1.678 . S
C613 C419 1.644 . S
C628 C219 1.488 . S
C640 C459 1.506 . S
C655 C378 1.808 . S
C667 C258 1.809 . S
C682 C299 1.664 . S
C694 C339 1.712 . S
C709 C139 1.737 . S
C721 C179 1.756 . S
C736 C19 1.511 . S
C748 C218 1.613 . S
C763 C59 1.628 . S
C775 C259 1.638 . S
C790 C298 1.886 . S
C802 C98 1.895 . S
C817 C6 1.574 . S
C829 C329 1.529 . S
C844 C46 1.812 . S
C856 C409 1.729 . S
C871 C449 1.969 . S
C883 C95 1.918 . S
C898 C126 1.557 . S
C910 C370 1.501 . S
C925 C166 1.231 . S
C937 C369 1.137 . S
C952 C330 1.913 . S
C964 C215 1.858 . S
C979 C410 1.374 . S
C991 C246 1.367 . S
C1006 C450 2.641 . S
C1018 C295 2.574 . S
C1033 C10 2.730 . S
C1045 C135 2.673 . S
C1060 C15 2.008 . S
C1072 C50 2.026 . S
C1087 C55 2.265 . S
C1099 C89 2.241 . S
C1114 C130 1.683 . S
C1126 C86 1.722 . S
C1141 C206 1.464 . S
C1153 C170 1.420 . S
C1168 C209 1.300 . S
C1180 C255 1.294 . S
C1195 C250 1.448 . S
C1207 C286 1.497 . S
C1222 C175 0.811 . S
C1234 C289 0.927 . S
C1249 C335 0.826 . S
C1261 C129 0.836 . S
C1276 C210 1.628 . S
C1288 C375 1.639 . S
C1303 C326 1.355 . S
C1315 C249 1.303 . S
C1330 C406 1.814 . S
C1342 C290 1.789 . S
C1357 C169 1.193 . S
C1369 C446 1.342 . S
C1384 C455 1.713 . S
C1396 C49 1.623 . S
C1411 C90 1.481 . S
C1423 C366 1.537 . S
C1438 C415 1.748 . S
C1450 C9 1.769 . S
