# Generated by pormake.
# Topology bsn, (6)-cn, num edge types: 1
# Building blocks:
#     Node 0, Type 0, BuildingBlock: JUFBIX_clean_sbu_0, # of connection points: 6
#     Node 1, Type 0, BuildingBlock: JUFBIX_clean_sbu_0, # of connection points: 6
#     Node 2, Type 0, BuildingBlock: JUFBIX_clean_sbu_0, # of connection points: 6
#     Node 3, Type 0, BuildingBlock: JUFBIX_clean_sbu_0, # of connection points: 6
#     Edge 4, Type (0, 0), BuildingBlock: XIVTED_clean_linker_0, # of connection points: 2
#     Edge 5, Type (0, 0), BuildingBlock: XIVTED_clean_linker_0, # of connection points: 2
#     Edge 6, Type (0, 0), BuildingBlock: XIVTED_clean_linker_0, # of connection points: 2
#     Edge 7, Type (0, 0), BuildingBlock: XIVTED_clean_linker_0, # of connection points: 2
#     Edge 8, Type (0, 0), BuildingBlock: XIVTED_clean_linker_0, # of connection points: 2
#     Edge 9, Type (0, 0), BuildingBlock: XIVTED_clean_linker_0, # of connection points: 2
#     Edge 10, Type (0, 0), BuildingBlock: XIVTED_clean_linker_0, # of connection points: 2
#     Edge 11, Type (0, 0), BuildingBlock: XIVTED_clean_linker_0, # of connection points: 2
#     Edge 12, Type (0, 0), BuildingBlock: XIVTED_clean_linker_0, # of connection points: 2
#     Edge 13, Type (0, 0), BuildingBlock: XIVTED_clean_linker_0, # of connection points: 2
#     Edge 14, Type (0, 0), BuildingBlock: XIVTED_clean_linker_0, # of connection points: 2
#     Edge 15, Type (0, 0), BuildingBlock: XIVTED_clean_linker_0, # of connection points: 2
# Relax obj value: 0.098
# Max RMSD: 0.162
# Mean RMSD: 0.162
data_MOF--net-bsn--node1-JUFBIX_clean_sbu_0--edge1-XIVTED_clean_linker_0
_symmetry_space_group_name_H-M    P1
_symmetry_Int_Tables_number       1
_symmetry_cell_setting            triclinic
loop_
_symmetry_equiv_pos_as_xyz
'x, y, z'
_cell_length_a     28.966491
_cell_length_b     38.748883
_cell_length_c     15.111391
_cell_angle_alpha  87.39556
_cell_angle_beta   89.005917
_cell_angle_gamma 101.48916
loop_
_atom_site_label
_atom_site_type_symbol
_atom_site_fract_x
_atom_site_fract_y
_atom_site_fract_z
_atom_type_partial_charge
Co0 Co 0.02922 0.26936 0.31669 0.0
C1 C 0.03664 0.29797 0.48054 0.0
Co2 Co 0.04512 0.32789 0.30834 0.0
C3 C 0.02898 0.19504 0.36632 0.0
C4 C 0.9789 0.2024 0.26836 0.0
N5 N 1.01257 0.2203 0.31885 0.0
N6 N 1.00655 0.16213 0.34748 0.0
C7 C 0.97514 0.16689 0.28567 0.0
H8 H 0.05646 0.20075 0.41424 0.0
H9 H 0.95841 0.21446 0.22134 0.0
C10 C 0.0378 0.2993 0.14423 0.0
N11 N 0.0608 0.37694 0.30386 0.0
C12 C 0.04281 0.39986 0.35243 0.0
C13 C 0.09369 0.39739 0.24979 0.0
N14 N 0.06311 0.43386 0.33061 0.0
C15 C 0.09518 0.43224 0.26594 0.0
C16 C 0.12372 0.29656 0.30742 0.0
O17 O 0.02977 0.27054 0.1909 0.0
O18 O 0.04571 0.32832 0.18256 0.0
O19 O 0.10975 0.32566 0.30682 0.0
O20 O 0.09368 0.26771 0.31369 0.0
O21 O 0.04433 0.32681 0.43392 0.0
H22 H 0.11543 0.38754 0.20191 0.0
H23 H 1.015 0.39167 0.4022 0.0
O24 O 0.029 0.26884 0.4423 0.0
O25 O 0.96494 0.27162 0.31808 0.0
O26 O 0.9804 0.32942 0.30794 0.0
C27 C 0.95062 0.30047 0.31108 0.0
H28 H 0.95158 0.14618 0.25371 0.0
H29 H 0.11874 0.45458 0.23345 0.0
Co30 Co 1.02024 0.76062 0.60996 0.0
C31 C 0.0273 0.78921 0.77406 0.0
Co32 Co 0.03562 0.81915 0.60159 0.0
C33 C 1.02303 0.68868 0.5659 0.0
C34 C 0.97212 0.69103 0.6686 0.0
N35 N 1.00491 0.71155 0.61447 0.0
N36 N 1.0029 0.65466 0.5878 0.0
C37 C 0.97082 0.65621 0.65251 0.0
H38 H 0.05079 0.69694 0.51606 0.0
H39 H 0.95032 0.70082 0.71649 0.0
C40 C 0.02845 0.79053 0.43775 0.0
N41 N 0.05193 0.86822 0.59946 0.0
C42 C 0.03548 0.89343 0.55183 0.0
C43 C 0.08547 0.88619 0.6501 0.0
N44 N 0.05778 0.92637 0.57071 0.0
C45 C 0.08912 0.92169 0.63273 0.0
C46 C 0.1146 0.78845 0.60712 0.0
O47 O 1.02107 0.76169 0.48437 0.0
O48 O 0.03579 0.81966 0.47599 0.0
O49 O 0.1 0.81719 0.60004 0.0
O50 O 0.08504 0.75938 0.61042 0.0
O51 O 0.03512 0.81796 0.72739 0.0
H52 H 0.10597 0.87419 0.69721 0.0
H53 H 1.0081 0.88766 0.50373 0.0
O54 O 1.01961 0.76018 0.73573 0.0
O55 O 0.95552 0.76254 0.61141 0.0
O56 O 0.97106 0.8205 0.60471 0.0
C57 C 0.94125 0.79153 0.6109 0.0
H58 H 0.94736 0.63382 0.68505 0.0
H59 H 0.11258 0.94243 0.66473 0.0
Co60 Co 0.5177 0.76575 0.82441 0.0
C61 C 0.52616 0.79502 -0.01193 0.0
Co62 Co 0.53402 0.82422 0.81585 0.0
C63 C 0.51965 0.6921 0.87321 0.0
C64 C 0.46539 0.69825 0.78301 0.0
N65 N 0.50076 0.71678 0.8287 0.0
N66 N 0.49723 0.65891 0.85716 0.0
C67 C 0.46309 0.66287 0.80035 0.0
H68 H 0.54914 0.69842 0.91665 0.0
H69 H 0.44297 0.70977 0.73883 0.0
C70 C 0.52544 0.79489 0.65198 0.0
N71 N 0.55064 0.87322 0.80887 0.0
C72 C 0.53416 0.89719 0.8563 0.0
C73 C 0.58345 0.89252 0.75258 0.0
N74 N 0.55534 0.93071 0.83146 0.0
C75 C 0.58639 0.9277 0.76617 0.0
C76 C 0.61225 0.79243 0.81378 0.0
O77 O 0.51719 0.76616 0.69873 0.0
O78 O 0.53397 0.82391 0.69022 0.0
O79 O 0.59845 0.82157 0.81378 0.0
O80 O 0.58207 0.76368 0.81997 0.0
O81 O 0.53377 0.82386 0.94143 0.0
H82 H 0.60418 0.88165 0.7049 0.0
H83 H 0.50685 0.89011 0.90744 0.0
O84 O 0.51841 0.76589 0.94986 0.0
O85 O 0.45354 0.76844 0.82731 0.0
O86 O 0.46944 0.82627 0.81615 0.0
C87 C 0.43946 0.7974 0.82036 0.0
H88 H 0.43882 0.64172 0.77141 0.0
H89 H 0.61029 0.94932 0.73158 0.0
Co90 Co 0.5301 0.2614 0.10339 0.0
C91 C 0.53875 0.29073 0.26726 0.0
Co92 Co 0.54683 0.31986 0.09483 0.0
C93 C 0.52964 0.1884 0.06298 0.0
C94 C 0.48031 0.19317 0.16655 0.0
N95 N 0.51321 0.21242 0.11036 0.0
N96 N 0.50832 0.1549 0.08775 0.0
C97 C 0.47724 0.15798 0.15294 0.0
H98 H 0.55701 0.19544 0.01195 0.0
H99 H 0.4596 0.20408 0.21417 0.0
C100 C 0.53829 0.29059 0.93116 0.0
N101 N 0.56401 0.36882 0.09049 0.0
C102 C 0.54522 0.39354 0.04592 0.0
C103 C 0.5994 0.38731 0.1362 0.0
N104 N 0.56771 0.42671 0.06195 0.0
C105 C 0.60181 0.42271 0.11881 0.0
C106 C 0.62476 0.28791 0.0993 0.0
O107 O 0.5304 0.26175 -0.02219 0.0
O108 O 0.54627 0.31972 -0.03063 0.0
O109 O 0.61089 0.31695 0.09233 0.0
O110 O 0.59461 0.25913 0.10322 0.0
O111 O 0.54718 0.31946 0.22051 0.0
H112 H 0.62175 0.37575 0.18048 0.0
H113 H 0.51572 0.38724 0.00247 0.0
O114 O 0.53009 0.26171 0.22902 0.0
O115 O 0.46572 0.26427 0.10533 0.0
O116 O 0.48255 0.32216 0.09892 0.0
C117 C 0.45217 0.29351 0.10514 0.0
H118 H 0.45326 0.13639 0.18746 0.0
H119 H 0.6261 0.44384 0.14777 0.0
H120 H 1.02496 0.43993 0.49401 0.0
H121 H 0.04107 0.64863 0.42438 0.0
H122 H 0.07891 0.50028 0.25413 0.0
H123 H 0.98738 0.58827 0.66439 0.0
H124 H 0.05583 0.59472 0.36134 0.0
H125 H 1.0103 0.49386 0.55705 0.0
C126 C 0.03348 0.4644 0.45426 0.0
C127 C 0.05335 0.46538 0.36848 0.0
C128 C 0.04082 0.59328 0.42784 0.0
C129 C 0.03706 0.52755 0.44089 0.0
C130 C 0.03263 0.62417 0.46416 0.0
C131 C 1.01279 0.62317 0.54997 0.0
C132 C 0.0292 0.56103 0.47757 0.0
C133 C 1.00204 0.5904 0.59763 0.0
C134 C 1.02536 0.4953 0.49058 0.0
C135 C 0.06421 0.49815 0.32086 0.0
N136 N 1.01036 0.56076 0.56087 0.0
N137 N 0.05594 0.52782 0.35762 0.0
H138 H 0.68486 0.84923 0.7909 0.0
H139 H 0.86922 0.73432 0.63585 0.0
H140 H 0.65295 0.73549 0.78951 0.0
H141 H 0.89966 0.84816 0.63244 0.0
H142 H 0.7894 0.73418 0.68996 0.0
H143 H 0.7645 0.84914 0.73663 0.0
C144 C 0.69478 0.82418 0.78028 0.0
C145 C 0.66217 0.7923 0.79441 0.0
C146 C 0.81345 0.75919 0.67683 0.0
C147 C 0.75304 0.79208 0.7309 0.0
C148 C 0.85893 0.75932 0.64532 0.0
C149 C 0.89119 0.79132 0.62994 0.0
C150 C 0.80019 0.79128 0.69326 0.0
C151 C 0.87596 0.82288 0.64352 0.0
C152 C 0.74018 0.82418 0.74866 0.0
C153 C 0.67696 0.76068 0.77943 0.0
N154 N 0.83158 0.82204 0.675 0.0
N155 N 0.72131 0.76138 0.74792 0.0
H156 H 0.48346 0.43904 0.00512 0.0
H157 H 0.58152 0.64661 0.91387 0.0
H158 H 0.62776 0.49026 0.04314 0.0
H159 H 0.43721 0.59536 0.87615 0.0
H160 H 0.59903 0.5897 -0.03682 0.0
H161 H 0.466 0.49596 0.95581 0.0
C162 C 0.51157 0.46213 0.00251 0.0
C163 C 0.55712 0.45975 0.02884 0.0
C164 C 0.5635 0.59093 0.94413 0.0
C165 C 0.53726 0.52522 -0.02661 0.0
C166 C 0.55342 0.62351 0.91654 0.0
C167 C 0.50786 0.62588 0.89029 0.0
C168 C 0.52776 0.56043 0.94574 0.0
C169 C 0.47301 0.59482 0.89423 0.0
C170 C 0.50151 0.49472 -0.02507 0.0
C171 C 0.59197 0.4908 0.02498 0.0
N172 N 0.48369 0.56348 0.92123 0.0
N173 N 0.58131 0.52216 -0.00202 0.0
H174 H 0.90938 0.35616 0.26492 0.0
H175 H 0.6654 0.23198 0.14655 0.0
H176 H 0.87905 0.24291 0.31025 0.0
H177 H 0.69708 0.345 0.09668 0.0
H178 H 0.74444 0.23519 0.20353 0.0
H179 H 0.83055 0.35273 0.20699 0.0
C180 C 0.88588 0.33065 0.2641 0.0
C181 C 0.90084 0.29977 0.29199 0.0
C182 C 0.73417 0.25924 0.17946 0.0
C183 C 0.81115 0.29557 0.2242 0.0
C184 C 0.68923 0.25737 0.14613 0.0
C185 C 0.67458 0.28828 0.1174 0.0
C186 C 0.76447 0.29225 0.1841 0.0
C187 C 0.70684 0.32051 0.11864 0.0
C188 C 0.84106 0.32866 0.2302 0.0
C189 C 0.86902 0.2674 0.28911 0.0
N190 N 0.75016 0.32168 0.1522 0.0
N191 N 0.82576 0.26612 0.25512 0.0
H192 H 0.37918 0.23701 0.1289 0.0
H193 H 0.19619 0.35342 0.28168 0.0
H194 H 0.412 0.35079 0.12817 0.0
H195 H 0.16468 0.23957 0.28671 0.0
H196 H 0.27585 0.35302 0.22764 0.0
H197 H 0.29965 0.23763 0.18296 0.0
C198 C 0.36948 0.26217 0.139 0.0
C199 C 0.40231 0.29391 0.12436 0.0
C200 C 0.25161 0.32812 0.2411 0.0
C201 C 0.31158 0.29473 0.18762 0.0
C202 C 0.20621 0.32831 0.27258 0.0
C203 C 0.1737 0.29646 0.2884 0.0
C204 C 0.26452 0.29588 0.22516 0.0
C205 C 0.18859 0.26474 0.27528 0.0
C206 C 0.32414 0.26247 0.1705 0.0
C207 C 0.38781 0.32569 0.13867 0.0
N208 N 0.23289 0.26527 0.24384 0.0
N209 N 0.34352 0.32528 0.17009 0.0
H210 H 0.36698 0.74033 0.82845 0.0
H211 H 0.18619 0.84612 0.60332 0.0
H212 H 0.39878 0.85276 0.7685 0.0
H213 H 0.15597 0.73335 0.65786 0.0
H214 H 0.26462 0.849 0.66175 0.0
H215 H 0.28833 0.73772 0.77146 0.0
C216 C 0.35716 0.76459 0.80455 0.0
C217 C 0.38956 0.79681 0.80265 0.0
C218 C 0.24098 0.82359 0.66034 0.0
C219 C 0.2999 0.79385 0.73578 0.0
C220 C 0.19632 0.82186 0.62631 0.0
C221 C 0.16444 0.78943 0.62612 0.0
C222 C 0.25381 0.79269 0.69464 0.0
C223 C 0.17944 0.75889 0.65674 0.0
C224 C 0.31236 0.76301 0.77133 0.0
C225 C 0.37491 0.82737 0.77112 0.0
N226 N 0.22301 0.76132 0.69048 0.0
N227 N 0.33118 0.82509 0.73815 0.0
H228 H 0.57174 0.99596 0.74872 0.0
H229 H 0.49169 0.08963 0.17042 0.0
H230 H 0.52093 0.93998 -0.00411 0.0
H231 H 0.5428 0.14562 0.92341 0.0
H232 H 0.50205 1.03473 0.10767 0.0
H233 H 0.56133 0.05084 0.81148 0.0
C234 C 0.55858 0.99514 0.81638 0.0
C235 C 0.54748 0.96313 0.86713 0.0
C236 C 0.51103 0.059 0.06712 0.0
C237 C 0.53501 1.02623 0.93944 0.0
C238 C 0.5049 0.09045 0.1028 0.0
C239 C 0.51611 0.12247 0.05209 0.0
C240 C 0.52852 0.05935 -0.0202 0.0
C241 C 0.53404 0.12175 -0.03465 0.0
C242 C 0.55242 1.02658 0.85207 0.0
C243 C 0.52961 0.96384 0.95392 0.0
N244 N 0.53954 0.09072 0.93195 0.0
N245 N 0.52407 0.99486 -0.01268 0.0
H246 H 0.9775 0.94089 0.49968 0.0
H247 H 0.08686 0.14753 0.4182 0.0
H248 H 0.12048 0.9888 0.55899 0.0
H249 H 0.94383 0.09969 0.35902 0.0
H250 H 0.09966 0.08969 0.47185 0.0
H251 H 0.96468 0.99872 0.44585 0.0
C252 C 1.00628 0.96344 0.50087 0.0
C253 C 0.05003 0.95987 0.5346 0.0
C254 C 0.06546 0.09188 0.44709 0.0
C255 C 0.03551 1.02634 0.47394 0.0
C256 C 0.05806 0.12499 0.417 0.0
C257 C 1.0143 0.12859 0.38339 0.0
C258 C 0.02881 0.06209 0.44383 0.0
C259 C 0.97841 0.09822 0.38273 0.0
C260 C 0.99888 0.99655 0.47068 0.0
C261 C 0.0859 0.99025 0.53522 0.0
N262 N 0.98648 0.06636 0.41226 0.0
N263 N 0.07783 1.0221 0.50559 0.0
H264 H 1.02183 0.24173 0.04251 0.0
H265 H 0.05119 0.35557 0.58228 0.0
H266 H 0.05351 0.35557 0.02326 0.0
H267 H 1.02253 0.24172 0.60154 0.0
H268 H 0.05167 0.35608 0.74366 0.0
H269 H 1.02154 0.24124 0.88113 0.0
C270 C 0.02876 0.26665 0.00436 0.0
C271 C 0.03772 0.29877 0.04652 0.0
C272 C 0.04528 0.33098 0.71265 0.0
C273 C 0.03736 0.29836 0.86149 0.0
C274 C 0.04499 0.33065 0.62042 0.0
C275 C 0.03681 0.29852 0.57826 0.0
C276 C 0.03731 0.29897 0.76329 0.0
C277 C 0.02896 0.26709 0.63119 0.0
C278 C 0.02857 0.26634 0.91214 0.0
C279 C 0.04642 0.33021 -0.0064 0.0
N280 N 0.02941 0.26811 0.72094 0.0
N281 N 0.04601 0.32921 0.90383 0.0
H282 H 0.0428 0.84678 0.8758 0.0
H283 H 1.01444 0.73293 0.33599 0.0
H284 H 1.01204 0.73293 0.89501 0.0
H285 H 0.04204 0.84677 0.31677 0.0
H286 H 1.01396 0.73242 0.17461 0.0
H287 H 0.04309 0.84726 0.03718 0.0
C288 C 0.03608 0.82185 0.91394 0.0
C289 C 0.02738 0.78974 0.87178 0.0
C290 C 1.02012 0.75752 0.20563 0.0
C291 C 0.02773 0.79014 0.05681 0.0
C292 C 1.02041 0.75785 0.29786 0.0
C293 C 0.02829 0.78998 0.34003 0.0
C294 C 0.0278 0.78953 0.155 0.0
C295 C 0.03584 0.8214 0.28712 0.0
C296 C 0.03626 0.82217 0.00617 0.0
C297 C 1.01893 0.75829 0.92468 0.0
N298 N 0.03541 0.82038 0.19736 0.0
N299 N 1.01934 0.75929 0.01445 0.0
H300 H 0.54115 0.85244 0.09063 0.0
H301 H 0.50816 0.73749 0.54955 0.0
H302 H 0.51109 0.73857 0.10833 0.0
H303 H 0.54211 0.85132 0.53174 0.0
H304 H 0.5082 0.73738 0.38801 0.0
H305 H 0.54082 0.85255 0.25216 0.0
C306 C 0.53451 0.82744 0.12845 0.0
C307 C 0.52617 0.79543 0.08583 0.0
C308 C 0.51564 0.76239 0.4194 0.0
C309 C 0.52568 0.7954 0.27095 0.0
C310 C 0.51563 0.76248 0.51169 0.0
C311 C 0.52518 0.79448 0.55427 0.0
C312 C 0.52525 0.79452 0.36917 0.0
C313 C 0.53456 0.82603 0.50175 0.0
C314 C 0.53431 0.82753 0.22075 0.0
C315 C 0.5177 0.76387 0.13833 0.0
N316 N 0.53436 0.82524 0.41196 0.0
N317 N 0.51767 0.76466 0.22813 0.0
H318 H 0.55633 0.34812 0.36968 0.0
H319 H 0.52291 0.23317 0.82861 0.0
H320 H 0.52179 0.23431 0.3875 0.0
H321 H 0.55373 0.34704 0.8109 0.0
H322 H 0.52317 0.23307 0.66708 0.0
H323 H 0.55637 0.34823 0.53122 0.0
C324 C 0.54874 0.32314 0.40755 0.0
C325 C 0.539 0.29114 0.36497 0.0
C326 C 0.52986 0.25808 0.69849 0.0
C327 C 0.53903 0.2911 0.55006 0.0
C328 C 0.52971 0.25817 0.79078 0.0
C329 C 0.53828 0.29018 0.83341 0.0
C330 C 0.53867 0.29022 0.64829 0.0
C331 C 0.54694 0.32174 0.7809 0.0
C332 C 0.54877 0.32323 0.49984 0.0
C333 C 0.52948 0.2596 0.41749 0.0
N334 N 0.54691 0.32095 0.69111 0.0
N335 N 0.52974 0.26038 0.50728 0.0
loop_
_geom_bond_atom_site_label_1
_geom_bond_atom_site_label_2
_geom_bond_distance
_geom_bond_site_symmetry_2
_ccdc_geom_bond_type
Co0 N5 2.057 . S
Co0 O17 2.021 . S
Co0 O20 2.062 1_655 S
Co0 O24 2.117 1_655 S
Co0 O25 2.020 . S
C1 O21 1.259 . S
C1 O24 1.258 . S
Co2 N11 2.057 . S
Co2 O18 2.117 . S
Co2 O19 2.020 . S
Co2 O21 2.021 . S
Co2 O26 2.062 1_455 S
C3 N5 1.320 . S
C3 N6 1.342 1_655 S
C3 H8 0.929 1_655 S
C4 N5 1.375 . S
C4 C7 1.350 . S
C4 H9 0.930 . S
N5 Co0 2.057 . S
N5 C3 1.320 . S
N5 C4 1.375 . S
N6 C3 1.342 1_455 S
N6 C7 1.370 1_455 S
C7 C4 1.350 . S
C7 N6 1.370 1_655 S
C7 H28 0.931 . S
H8 C3 0.929 1_455 S
H9 C4 0.930 . S
C10 O17 1.259 1_455 S
C10 O18 1.258 . S
N11 Co2 2.057 . S
N11 C12 1.316 . S
N11 C13 1.375 . S
C12 N11 1.316 . S
C12 N14 1.347 . S
C12 H23 0.931 . S
C13 N11 1.375 . S
C13 C15 1.350 . S
C13 H22 0.930 . S
N14 C12 1.347 . S
N14 C15 1.373 . S
C15 C13 1.350 . S
C15 N14 1.373 . S
C15 H29 0.931 . S
C16 O19 1.256 . S
C16 O20 1.255 . S
O17 Co0 2.021 . S
O17 C10 1.259 1_655 S
O18 Co2 2.117 . S
O18 C10 1.258 . S
O19 Co2 2.020 . S
O19 C16 1.256 . S
O20 Co0 2.062 1_455 S
O20 C16 1.255 . S
O21 C1 1.259 . S
O21 Co2 2.021 . S
H22 C13 0.930 . S
H23 C12 0.931 . S
O24 Co0 2.117 1_455 S
O24 C1 1.258 . S
O25 Co0 2.020 . S
O25 C27 1.256 . S
O26 Co2 2.062 1_655 S
O26 C27 1.255 . S
C27 O25 1.256 . S
C27 O26 1.255 . S
H28 C7 0.931 . S
H29 C15 0.931 . S
Co30 N35 2.057 . S
Co30 O47 2.021 . S
Co30 O50 2.062 1_655 S
Co30 O54 2.117 1_655 S
Co30 O55 2.020 . S
C31 O51 1.259 . S
C31 O54 1.258 . S
Co32 N41 2.057 . S
Co32 O48 2.117 . S
Co32 O49 2.020 . S
Co32 O51 2.021 . S
Co32 O56 2.062 1_455 S
C33 N35 1.316 . S
C33 N36 1.347 . S
C33 H38 0.931 . S
C34 N35 1.375 . S
C34 C37 1.350 . S
C34 H39 0.930 . S
N35 Co30 2.057 . S
N35 C33 1.316 . S
N35 C34 1.375 . S
N36 C33 1.347 . S
N36 C37 1.373 . S
C37 C34 1.350 . S
C37 N36 1.373 . S
C37 H58 0.931 . S
H38 C33 0.931 . S
H39 C34 0.930 . S
C40 O47 1.259 1_455 S
C40 O48 1.258 . S
N41 Co32 2.057 . S
N41 C42 1.316 . S
N41 C43 1.375 . S
C42 N41 1.316 . S
C42 N44 1.347 . S
C42 H53 0.931 . S
C43 N41 1.375 . S
C43 C45 1.350 . S
C43 H52 0.930 . S
N44 C42 1.347 . S
N44 C45 1.373 . S
C45 C43 1.350 . S
C45 N44 1.373 . S
C45 H59 0.931 . S
C46 O49 1.256 . S
C46 O50 1.255 . S
O47 Co30 2.021 . S
O47 C40 1.259 1_655 S
O48 Co32 2.117 . S
O48 C40 1.258 . S
O49 Co32 2.020 . S
O49 C46 1.256 . S
O50 Co30 2.062 1_455 S
O50 C46 1.255 . S
O51 C31 1.259 . S
O51 Co32 2.021 . S
H52 C43 0.930 . S
H53 C42 0.931 . S
O54 Co30 2.117 1_455 S
O54 C31 1.258 . S
O55 Co30 2.020 . S
O55 C57 1.256 . S
O56 Co32 2.062 1_655 S
O56 C57 1.255 . S
C57 O55 1.256 . S
C57 O56 1.255 . S
H58 C37 0.931 . S
H59 C45 0.931 . S
Co60 N65 2.057 . S
Co60 O77 2.021 . S
Co60 O80 2.062 . S
Co60 O84 2.117 1_556 S
Co60 O85 2.020 . S
C61 O81 1.259 . S
C61 O84 1.258 . S
Co62 N71 2.057 . S
Co62 O78 2.117 . S
Co62 O79 2.020 . S
Co62 O81 2.021 1_556 S
Co62 O86 2.062 . S
C63 N65 1.316 . S
C63 N66 1.347 . S
C63 H68 0.931 . S
C64 N65 1.375 . S
C64 C67 1.350 . S
C64 H69 0.930 1_556 S
N65 Co60 2.057 . S
N65 C63 1.316 . S
N65 C64 1.375 . S
N66 C63 1.347 . S
N66 C67 1.373 . S
C67 C64 1.350 . S
C67 N66 1.373 . S
C67 H88 0.931 1_556 S
H68 C63 0.931 . S
H69 C64 0.930 1_554 S
C70 O77 1.259 . S
C70 O78 1.258 . S
N71 Co62 2.057 . S
N71 C72 1.316 . S
N71 C73 1.375 . S
C72 N71 1.316 . S
C72 N74 1.347 . S
C72 H83 0.931 . S
C73 N71 1.375 . S
C73 C75 1.350 . S
C73 H82 0.930 . S
N74 C72 1.347 . S
N74 C75 1.373 . S
C75 C73 1.350 . S
C75 N74 1.373 . S
C75 H89 0.931 . S
C76 O79 1.256 . S
C76 O80 1.255 . S
O77 Co60 2.021 . S
O77 C70 1.259 . S
O78 Co62 2.117 . S
O78 C70 1.258 . S
O79 Co62 2.020 . S
O79 C76 1.256 . S
O80 Co60 2.062 . S
O80 C76 1.255 . S
O81 C61 1.259 . S
O81 Co62 2.021 1_554 S
H82 C73 0.930 . S
H83 C72 0.931 . S
O84 Co60 2.117 1_554 S
O84 C61 1.258 . S
O85 Co60 2.020 . S
O85 C87 1.256 . S
O86 Co62 2.062 . S
O86 C87 1.255 . S
C87 O85 1.256 . S
C87 O86 1.255 . S
H88 C67 0.931 1_554 S
H89 C75 0.931 . S
Co90 N95 2.057 . S
Co90 O107 2.021 1_554 S
Co90 O110 2.062 . S
Co90 O114 2.117 . S
Co90 O115 2.020 . S
C91 O111 1.259 . S
C91 O114 1.258 . S
Co92 N101 2.057 . S
Co92 O108 2.117 1_554 S
Co92 O109 2.020 . S
Co92 O111 2.021 . S
Co92 O116 2.062 . S
C93 N95 1.316 . S
C93 N96 1.347 . S
C93 H98 0.931 . S
C94 N95 1.375 . S
C94 C97 1.350 . S
C94 H99 0.930 . S
N95 Co90 2.057 . S
N95 C93 1.316 . S
N95 C94 1.375 . S
N96 C93 1.347 . S
N96 C97 1.373 . S
C97 C94 1.350 . S
C97 N96 1.373 . S
C97 H118 0.931 . S
H98 C93 0.931 . S
H99 C94 0.930 . S
C100 O107 1.259 . S
C100 O108 1.258 . S
N101 Co92 2.057 . S
N101 C102 1.316 . S
N101 C103 1.375 . S
C102 N101 1.316 . S
C102 N104 1.347 . S
C102 H113 0.931 . S
C103 N101 1.375 . S
C103 C105 1.350 . S
C103 H112 0.930 1_554 S
N104 C102 1.347 . S
N104 C105 1.373 . S
C105 C103 1.350 . S
C105 N104 1.373 . S
C105 H119 0.931 1_554 S
C106 O109 1.256 . S
C106 O110 1.255 . S
O107 Co90 2.021 1_556 S
O107 C100 1.259 . S
O108 Co92 2.117 1_556 S
O108 C100 1.258 . S
O109 Co92 2.020 . S
O109 C106 1.256 . S
O110 Co90 2.062 . S
O110 C106 1.255 . S
O111 C91 1.259 . S
O111 Co92 2.021 . S
H112 C103 0.930 1_556 S
H113 C102 0.931 . S
O114 Co90 2.117 . S
O114 C91 1.258 . S
O115 Co90 2.020 . S
O115 C117 1.256 . S
O116 Co92 2.062 . S
O116 C117 1.255 . S
C117 O115 1.256 . S
C117 O116 1.255 . S
H118 C97 0.931 . S
H119 C105 0.931 1_556 S
H120 C126 0.930 . S
H121 C130 0.930 . S
H122 C135 0.929 . S
H123 C133 0.929 . S
H124 C128 0.929 . S
H125 C134 0.929 . S
C126 H120 0.930 . S
C126 C127 1.367 1_655 S
C126 C134 1.378 . S
C127 C126 1.367 1_455 S
C127 C135 1.433 . S
C128 H124 0.929 . S
C128 C130 1.378 . S
C128 C132 1.350 . S
C129 C132 1.463 . S
C129 C134 1.350 1_455 S
C129 N137 1.427 . S
C130 H121 0.930 . S
C130 C128 1.378 . S
C130 C131 1.367 . S
C131 C130 1.367 . S
C131 C133 1.433 1_455 S
C132 C128 1.350 . S
C132 C129 1.463 . S
C132 N136 1.427 1_455 S
C133 H123 0.929 . S
C133 C131 1.433 1_655 S
C133 N136 1.384 . S
C134 H125 0.929 . S
C134 C126 1.378 . S
C134 C129 1.350 1_655 S
C135 H122 0.929 . S
C135 C127 1.433 . S
C135 N137 1.384 . S
N136 C132 1.427 1_655 S
N136 C133 1.384 . S
N137 C129 1.427 . S
N137 C135 1.384 . S
H138 C144 0.930 . S
H139 C148 0.930 . S
H140 C153 0.929 . S
H141 C151 0.929 . S
H142 C146 0.929 . S
H143 C152 0.929 . S
C144 H138 0.930 . S
C144 C145 1.367 . S
C144 C152 1.378 . S
C145 C144 1.367 . S
C145 C153 1.433 . S
C146 H142 0.929 . S
C146 C148 1.378 . S
C146 C150 1.350 . S
C147 C150 1.463 . S
C147 C152 1.350 . S
C147 N155 1.427 . S
C148 H139 0.930 . S
C148 C146 1.378 . S
C148 C149 1.367 . S
C149 C148 1.367 . S
C149 C151 1.433 . S
C150 C146 1.350 . S
C150 C147 1.463 . S
C150 N154 1.427 . S
C151 H141 0.929 . S
C151 C149 1.433 . S
C151 N154 1.384 . S
C152 H143 0.929 . S
C152 C144 1.378 . S
C152 C147 1.350 . S
C153 H140 0.929 . S
C153 C145 1.433 . S
C153 N155 1.384 . S
N154 C150 1.427 . S
N154 C151 1.384 . S
N155 C147 1.427 . S
N155 C153 1.384 . S
H156 C162 0.930 . S
H157 C166 0.930 . S
H158 C171 0.929 . S
H159 C169 0.929 . S
H160 C164 0.929 . S
H161 C170 0.929 . S
C162 H156 0.930 . S
C162 C163 1.367 . S
C162 C170 1.378 1_554 S
C163 C162 1.367 . S
C163 C171 1.433 . S
C164 H160 0.929 . S
C164 C166 1.378 1_554 S
C164 C168 1.350 1_554 S
C165 C168 1.463 1_554 S
C165 C170 1.350 1_554 S
C165 N173 1.427 . S
C166 H157 0.930 . S
C166 C164 1.378 1_556 S
C166 C167 1.367 . S
C167 C166 1.367 . S
C167 C169 1.433 . S
C168 C164 1.350 1_556 S
C168 C165 1.463 1_556 S
C168 N172 1.427 . S
C169 H159 0.929 . S
C169 C167 1.433 . S
C169 N172 1.384 . S
C170 H161 0.929 . S
C170 C162 1.378 1_556 S
C170 C165 1.350 1_556 S
C171 H158 0.929 . S
C171 C163 1.433 . S
C171 N173 1.384 . S
N172 C168 1.427 . S
N172 C169 1.384 . S
N173 C165 1.427 . S
N173 C171 1.384 . S
H174 C180 0.930 . S
H175 C184 0.930 . S
H176 C189 0.929 . S
H177 C187 0.929 . S
H178 C182 0.929 . S
H179 C188 0.929 . S
C180 H174 0.930 . S
C180 C181 1.367 . S
C180 C188 1.378 . S
C181 C180 1.367 . S
C181 C189 1.433 . S
C182 H178 0.929 . S
C182 C184 1.378 . S
C182 C186 1.350 . S
C183 C186 1.463 . S
C183 C188 1.350 . S
C183 N191 1.427 . S
C184 H175 0.930 . S
C184 C182 1.378 . S
C184 C185 1.367 . S
C185 C184 1.367 . S
C185 C187 1.433 . S
C186 C182 1.350 . S
C186 C183 1.463 . S
C186 N190 1.427 . S
C187 H177 0.929 . S
C187 C185 1.433 . S
C187 N190 1.384 . S
C188 H179 0.929 . S
C188 C180 1.378 . S
C188 C183 1.350 . S
C189 H176 0.929 . S
C189 C181 1.433 . S
C189 N191 1.384 . S
N190 C186 1.427 . S
N190 C187 1.384 . S
N191 C183 1.427 . S
N191 C189 1.384 . S
H192 C198 0.930 . S
H193 C202 0.930 . S
H194 C207 0.929 . S
H195 C205 0.929 . S
H196 C200 0.929 . S
H197 C206 0.929 . S
C198 H192 0.930 . S
C198 C199 1.367 . S
C198 C206 1.378 . S
C199 C198 1.367 . S
C199 C207 1.433 . S
C200 H196 0.929 . S
C200 C202 1.378 . S
C200 C204 1.350 . S
C201 C204 1.463 . S
C201 C206 1.350 . S
C201 N209 1.427 . S
C202 H193 0.930 . S
C202 C200 1.378 . S
C202 C203 1.367 . S
C203 C202 1.367 . S
C203 C205 1.433 . S
C204 C200 1.350 . S
C204 C201 1.463 . S
C204 N208 1.427 . S
C205 H195 0.929 . S
C205 C203 1.433 . S
C205 N208 1.384 . S
C206 H197 0.929 . S
C206 C198 1.378 . S
C206 C201 1.350 . S
C207 H194 0.929 . S
C207 C199 1.433 . S
C207 N209 1.384 . S
N208 C204 1.427 . S
N208 C205 1.384 . S
N209 C201 1.427 . S
N209 C207 1.384 . S
H210 C216 0.930 . S
H211 C220 0.930 . S
H212 C225 0.929 . S
H213 C223 0.929 . S
H214 C218 0.929 . S
H215 C224 0.929 . S
C216 H210 0.930 . S
C216 C217 1.367 . S
C216 C224 1.378 . S
C217 C216 1.367 . S
C217 C225 1.433 . S
C218 H214 0.929 . S
C218 C220 1.378 . S
C218 C222 1.350 . S
C219 C222 1.463 . S
C219 C224 1.350 . S
C219 N227 1.427 . S
C220 H211 0.930 . S
C220 C218 1.378 . S
C220 C221 1.367 . S
C221 C220 1.367 . S
C221 C223 1.433 . S
C222 C218 1.350 . S
C222 C219 1.463 . S
C222 N226 1.427 . S
C223 H213 0.929 . S
C223 C221 1.433 . S
C223 N226 1.384 . S
C224 H215 0.929 . S
C224 C216 1.378 . S
C224 C219 1.350 . S
C225 H212 0.929 . S
C225 C217 1.433 . S
C225 N227 1.384 . S
N226 C222 1.427 . S
N226 C223 1.384 . S
N227 C219 1.427 . S
N227 C225 1.384 . S
H228 C234 0.930 . S
H229 C238 0.930 . S
H230 C243 0.929 . S
H231 C241 0.929 . S
H232 C236 0.933 . S
H233 C242 0.933 . S
C234 H228 0.930 . S
C234 C235 1.367 . S
C234 C242 1.378 . S
C235 C234 1.367 . S
C235 C243 1.433 1_556 S
C236 H232 0.933 . S
C236 C238 1.378 . S
C236 C240 1.350 . S
C237 C240 1.463 1_566 S
C237 C242 1.350 . S
C237 N245 1.427 1_556 S
C238 H229 0.930 . S
C238 C236 1.378 . S
C238 C239 1.367 . S
C239 C238 1.367 . S
C239 C241 1.433 1_554 S
C240 C236 1.350 . S
C240 C237 1.463 1_544 S
C240 N244 1.427 1_554 S
C241 H231 0.929 . S
C241 C239 1.433 1_556 S
C241 N244 1.384 . S
C242 H233 0.933 . S
C242 C234 1.378 . S
C242 C237 1.350 . S
C243 H230 0.929 . S
C243 C235 1.433 1_554 S
C243 N245 1.384 . S
N244 C240 1.427 1_556 S
N244 C241 1.384 . S
N245 C237 1.427 1_554 S
N245 C243 1.384 . S
H246 C252 0.930 . S
H247 C256 0.930 . S
H248 C261 0.929 . S
H249 C259 0.929 . S
H250 C254 0.929 . S
H251 C260 0.929 . S
C252 H246 0.930 . S
C252 C253 1.367 1_655 S
C252 C260 1.378 . S
C253 C252 1.367 1_455 S
C253 C261 1.433 . S
C254 H250 0.929 . S
C254 C256 1.378 . S
C254 C258 1.350 . S
C255 C258 1.463 1_565 S
C255 C260 1.350 1_455 S
C255 N263 1.427 . S
C256 H247 0.930 . S
C256 C254 1.378 . S
C256 C257 1.367 . S
C257 C256 1.367 . S
C257 C259 1.433 1_455 S
C258 C254 1.350 . S
C258 C255 1.463 1_545 S
C258 N262 1.427 1_455 S
C259 H249 0.929 . S
C259 C257 1.433 1_655 S
C259 N262 1.384 . S
C260 H251 0.929 . S
C260 C252 1.378 . S
C260 C255 1.350 1_655 S
C261 H248 0.929 . S
C261 C253 1.433 . S
C261 N263 1.384 . S
N262 C258 1.427 1_655 S
N262 C259 1.384 . S
N263 C255 1.427 . S
N263 C261 1.384 . S
H264 C270 0.930 . S
H265 C274 0.930 . S
H266 C279 0.929 . S
H267 C277 0.929 . S
H268 C272 0.929 . S
H269 C278 0.929 . S
C270 H264 0.930 . S
C270 C271 1.367 1_655 S
C270 C278 1.378 1_554 S
C271 C270 1.367 1_455 S
C271 C279 1.433 . S
C272 H268 0.929 . S
C272 C274 1.378 . S
C272 C276 1.350 . S
C273 C276 1.463 . S
C273 C278 1.350 1_455 S
C273 N281 1.427 . S
C274 H265 0.930 . S
C274 C272 1.378 . S
C274 C275 1.367 . S
C275 C274 1.367 . S
C275 C277 1.433 1_455 S
C276 C272 1.350 . S
C276 C273 1.463 . S
C276 N280 1.427 1_455 S
C277 H267 0.929 . S
C277 C275 1.433 1_655 S
C277 N280 1.384 . S
C278 H269 0.929 . S
C278 C270 1.378 1_556 S
C278 C273 1.350 1_655 S
C279 H266 0.929 . S
C279 C271 1.433 . S
C279 N281 1.384 1_554 S
N280 C276 1.427 1_655 S
N280 C277 1.384 . S
N281 C273 1.427 . S
N281 C279 1.384 1_556 S
H282 C288 0.930 . S
H283 C292 0.930 . S
H284 C297 0.929 . S
H285 C295 0.929 . S
H286 C290 0.929 . S
H287 C296 0.929 . S
C288 H282 0.930 . S
C288 C289 1.367 1_655 S
C288 C296 1.378 1_556 S
C289 C288 1.367 1_455 S
C289 C297 1.433 . S
C290 H286 0.929 . S
C290 C292 1.378 . S
C290 C294 1.350 . S
C291 C294 1.463 . S
C291 C296 1.350 1_455 S
C291 N299 1.427 . S
C292 H283 0.930 . S
C292 C290 1.378 . S
C292 C293 1.367 . S
C293 C292 1.367 . S
C293 C295 1.433 1_455 S
C294 C290 1.350 . S
C294 C291 1.463 . S
C294 N298 1.427 1_455 S
C295 H285 0.929 . S
C295 C293 1.433 1_655 S
C295 N298 1.384 . S
C296 H287 0.929 . S
C296 C288 1.378 1_554 S
C296 C291 1.350 1_655 S
C297 H284 0.929 . S
C297 C289 1.433 . S
C297 N299 1.384 1_556 S
N298 C294 1.427 1_655 S
N298 C295 1.384 . S
N299 C291 1.427 . S
N299 C297 1.384 1_554 S
H300 C306 0.930 . S
H301 C310 0.930 . S
H302 C315 0.929 . S
H303 C313 0.929 . S
H304 C308 0.929 . S
H305 C314 0.929 . S
C306 H300 0.930 . S
C306 C307 1.367 . S
C306 C314 1.378 . S
C307 C306 1.367 . S
C307 C315 1.433 . S
C308 H304 0.929 . S
C308 C310 1.378 . S
C308 C312 1.350 . S
C309 C312 1.463 . S
C309 C314 1.350 . S
C309 N317 1.427 . S
C310 H301 0.930 . S
C310 C308 1.378 . S
C310 C311 1.367 . S
C311 C310 1.367 . S
C311 C313 1.433 . S
C312 C308 1.350 . S
C312 C309 1.463 . S
C312 N316 1.427 . S
C313 H303 0.929 . S
C313 C311 1.433 . S
C313 N316 1.384 . S
C314 H305 0.929 . S
C314 C306 1.378 . S
C314 C309 1.350 . S
C315 H302 0.929 . S
C315 C307 1.433 . S
C315 N317 1.384 . S
N316 C312 1.427 . S
N316 C313 1.384 . S
N317 C309 1.427 . S
N317 C315 1.384 . S
H318 C324 0.930 . S
H319 C328 0.930 . S
H320 C333 0.929 . S
H321 C331 0.929 . S
H322 C326 0.929 . S
H323 C332 0.929 . S
C324 H318 0.930 . S
C324 C325 1.367 . S
C324 C332 1.378 . S
C325 C324 1.367 . S
C325 C333 1.433 . S
C326 H322 0.929 . S
C326 C328 1.378 . S
C326 C330 1.350 . S
C327 C330 1.463 . S
C327 C332 1.350 . S
C327 N335 1.427 . S
C328 H319 0.930 . S
C328 C326 1.378 . S
C328 C329 1.367 . S
C329 C328 1.367 . S
C329 C331 1.433 . S
C330 C326 1.350 . S
C330 C327 1.463 . S
C330 N334 1.427 . S
C331 H321 0.929 . S
C331 C329 1.433 . S
C331 N334 1.384 . S
C332 H323 0.929 . S
C332 C324 1.378 . S
C332 C327 1.350 . S
C333 H320 0.929 . S
C333 C325 1.433 . S
C333 N335 1.384 . S
N334 C330 1.427 . S
N334 C331 1.384 . S
N335 C327 1.427 . S
N335 C333 1.384 . S
C127 N14 1.839 . S
C131 N36 1.839 1_455 S
C145 C76 1.797 . S
C149 C57 1.797 . S
C163 N104 1.614 . S
C167 N66 1.614 . S
C181 C27 1.700 . S
C185 C106 1.700 . S
C199 C117 1.794 . S
C203 C16 1.794 . S
C217 C87 1.702 . S
C221 C46 1.702 . S
C235 N74 1.838 . S
C239 N96 1.838 . S
C253 N44 1.610 . S
C257 N6 1.616 . S
C271 C10 0.900 . S
C275 C1 0.900 . S
C289 C31 0.904 . S
C293 C40 0.904 . S
C307 C61 0.901 . S
C311 C70 0.901 . S
C325 C91 0.903 . S
C329 C100 0.903 . S
