# Generated by pormake.
# Topology sxb, (6)-cn, num edge types: 1
# Building blocks:
#     Node 0, Type 0, BuildingBlock: MIDCAF_clean_sbu_0, # of connection points: 6
#     Node 1, Type 0, BuildingBlock: MIDCAF_clean_sbu_0, # of connection points: 6
#     Node 2, Type 0, BuildingBlock: MIDCAF_clean_sbu_0, # of connection points: 6
#     Node 3, Type 0, BuildingBlock: MIDCAF_clean_sbu_0, # of connection points: 6
#     Edge 4, Type (0, 0), BuildingBlock: FUNLAD_clean_linker_1, # of connection points: 2
#     Edge 5, Type (0, 0), BuildingBlock: FUNLAD_clean_linker_1, # of connection points: 2
#     Edge 6, Type (0, 0), BuildingBlock: FUNLAD_clean_linker_1, # of connection points: 2
#     Edge 7, Type (0, 0), BuildingBlock: FUNLAD_clean_linker_1, # of connection points: 2
#     Edge 8, Type (0, 0), BuildingBlock: FUNLAD_clean_linker_1, # of connection points: 2
#     Edge 9, Type (0, 0), BuildingBlock: FUNLAD_clean_linker_1, # of connection points: 2
#     Edge 10, Type (0, 0), BuildingBlock: FUNLAD_clean_linker_1, # of connection points: 2
#     Edge 11, Type (0, 0), BuildingBlock: FUNLAD_clean_linker_1, # of connection points: 2
#     Edge 12, Type (0, 0), BuildingBlock: FUNLAD_clean_linker_1, # of connection points: 2
#     Edge 13, Type (0, 0), BuildingBlock: FUNLAD_clean_linker_1, # of connection points: 2
#     Edge 14, Type (0, 0), BuildingBlock: FUNLAD_clean_linker_1, # of connection points: 2
#     Edge 15, Type (0, 0), BuildingBlock: FUNLAD_clean_linker_1, # of connection points: 2
# Relax obj value: 0.308
# Max RMSD: 0.251
# Mean RMSD: 0.251
data_MOF--net-sxb--node1-MIDCAF_clean_sbu_0--edge1-FUNLAD_clean_linker_1
_symmetry_space_group_name_H-M    P1
_symmetry_Int_Tables_number       1
_symmetry_cell_setting            triclinic
loop_
_symmetry_equiv_pos_as_xyz
'x, y, z'
_cell_length_a     14.423839
_cell_length_b     28.442124
_cell_length_c     31.755267
_cell_angle_alpha  92.046892
_cell_angle_beta   89.949337
_cell_angle_gamma 90.162943
loop_
_atom_site_label
_atom_site_type_symbol
_atom_site_fract_x
_atom_site_fract_y
_atom_site_fract_z
_atom_type_partial_charge
Zn0 Zn 0.09527 0.27309 0.06021 0.0
Zn1 Zn 0.95482 0.12831 0.97851 0.0
Zn2 Zn 0.02485 0.19913 0.01845 0.0
C3 C 0.05031 0.09011 0.04316 0.0
C4 C 0.07099 0.16793 0.92088 0.0
O5 O 0.91109 0.24989 0.03567 0.0
O6 O 0.98054 0.30727 0.0726 0.0
C7 C 0.13143 0.1948 0.10831 0.0
O8 O 0.06037 0.1342 0.05314 0.0
O9 O 0.00621 0.07768 0.01037 0.0
O10 O 0.00927 0.13655 0.92255 0.0
O11 O 0.08904 0.19409 0.95393 0.0
O12 O 0.1504 0.23817 0.10731 0.0
O13 O 0.0861 0.17436 0.07777 0.0
O14 O 0.12767 0.23176 0.97812 0.0
O15 O 0.17154 0.29651 0.0135 0.0
C16 C 0.17518 0.27019 0.98074 0.0
O17 O 0.87575 0.21111 0.01096 0.0
O18 O 0.82331 0.14251 0.9855 0.0
C19 C 0.90766 0.28939 0.05699 0.0
C20 C 0.80869 0.18427 0.99812 0.0
Zn21 Zn 0.12995 0.00709 0.4631 0.0
Zn22 Zn 0.95599 0.1465 0.55225 0.0
Zn23 Zn 0.04869 0.07955 0.50832 0.0
C24 C 0.03541 0.18986 0.48438 0.0
C25 C 0.09445 0.11351 0.60512 0.0
O26 O 0.94553 0.0252 0.4855 0.0
O27 O 0.01911 0.96829 0.44987 0.0
C28 C 0.15153 0.09329 0.41989 0.0
O29 O 0.06739 0.14804 0.47712 0.0
O30 O 0.97982 0.19817 0.51442 0.0
O31 O 0.0341 0.14541 0.6035 0.0
O32 O 0.10778 0.08486 0.57331 0.0
O33 O 0.17292 0.05013 0.41825 0.0
O34 O 0.10671 0.111 0.45175 0.0
O35 O 0.15523 0.05053 0.54835 0.0
O36 O 0.20978 0.98924 0.51123 0.0
C37 C 0.20829 0.01437 0.5449 0.0
O38 O 0.90707 0.05668 0.51617 0.0
O39 O 0.83496 0.11293 0.55339 0.0
C40 C 0.94446 0.98596 0.46372 0.0
C41 C 0.83471 0.07261 0.53539 0.0
Zn42 Zn 0.55208 0.75709 0.03392 0.0
Zn43 Zn 0.39778 0.61044 0.96911 0.0
Zn44 Zn 0.47684 0.68538 0.99665 0.0
C45 C 0.50008 0.57868 0.03244 0.0
C46 C 0.50366 0.64386 0.90184 0.0
O47 O 0.36597 0.73882 0.01366 0.0
O48 O 0.44222 0.79136 0.05325 0.0
C49 C 0.59505 0.68595 0.08484 0.0
O50 O 0.51693 0.62332 0.03445 0.0
O51 O 0.44615 0.56177 0.00459 0.0
O52 O 0.4437 0.6134 0.91066 0.0
O53 O 0.53124 0.67416 0.93043 0.0
O54 O 0.62029 0.72796 0.08016 0.0
O55 O 0.54287 0.66509 0.05689 0.0
O56 O 0.57698 0.7128 0.95221 0.0
O57 O 0.61807 0.78014 0.98402 0.0
C58 C 0.62282 0.75174 0.95267 0.0
O59 O 0.32747 0.69869 0.99144 0.0
O60 O 0.26893 0.62782 0.97701 0.0
C61 C 0.36692 0.77636 0.03781 0.0
C62 C 0.25779 0.67126 0.98382 0.0
Zn63 Zn 0.54738 0.49322 0.42029 0.0
Zn64 Zn 0.41558 0.67718 0.53328 0.0
Zn65 Zn 0.4921 0.59923 0.49502 0.0
C66 C 0.50977 0.70603 0.46172 0.0
C67 C 0.548 0.63762 0.58773 0.0
O68 O 0.3806 0.54464 0.48535 0.0
O69 O 0.41468 0.48568 0.43851 0.0
C70 C 0.5741 0.59985 0.39811 0.0
O71 O 0.52846 0.66172 0.45834 0.0
O72 O 0.45787 0.72173 0.491 0.0
O73 O 0.48963 0.67054 0.58562 0.0
O74 O 0.55884 0.60861 0.55642 0.0
O75 O 0.57302 0.55536 0.39176 0.0
O76 O 0.5501 0.62002 0.4337 0.0
O77 O 0.55507 0.53778 0.48184 0.0
O78 O 0.64072 0.4776 0.46673 0.0
C79 C 0.6243 0.51298 0.49087 0.0
O80 O 0.34495 0.58994 0.50399 0.0
O81 O 0.2863 0.65515 0.53332 0.0
C82 C 0.35912 0.50635 0.4641 0.0
C83 C 0.27601 0.61355 0.51893 0.0
H84 H 0.24066 0.81329 0.01781 0.0
C85 C 0.28429 0.80626 0.04464 0.0
H86 H 0.32072 0.82487 0.10704 0.0
H87 H 0.26872 0.0417 0.08388 0.0
H88 H 0.42718 0.03596 0.10768 0.0
H89 H 0.49764 0.95871 0.11964 0.0
H90 H 0.41025 0.887 0.10785 0.0
C91 C 0.27665 0.83288 0.08052 0.0
C92 C 0.22837 0.87929 0.08164 0.0
C93 C 0.28064 0.92121 0.08977 0.0
C94 C 0.24 0.96595 0.08311 0.0
C95 C 0.29505 0.00695 0.08918 0.0
C96 C 0.38658 1.00417 0.10269 0.0
C97 C 0.42621 0.9607 0.10943 0.0
C98 C 0.37469 0.91963 0.10267 0.0
H99 H 0.10979 0.05935 0.10089 0.0
C100 C 0.09347 0.0529 0.06782 0.0
H101 H 0.09557 0.00578 0.01506 0.0
H102 H 0.10281 0.80745 0.07562 0.0
H103 H 0.93904 0.81408 0.05743 0.0
H104 H 0.87021 0.89108 0.04401 0.0
H105 H 0.96283 0.96245 0.04998 0.0
C106 C 0.1124 0.01113 0.04827 0.0
C107 C 0.1472 0.96853 0.06883 0.0
C108 C 0.09242 0.92709 0.06548 0.0
C109 C 0.13276 0.88247 0.07216 0.0
C110 C 0.07589 0.8419 0.06927 0.0
C111 C 0.98213 0.84523 0.05917 0.0
C112 C 0.94307 0.88871 0.05178 0.0
C113 C -0.00289 0.92931 0.05502 0.0
H114 H 0.62106 0.55713 0.06965 0.0
C115 C 0.55352 0.54587 0.0579 0.0
H116 H 0.46082 0.48938 0.04681 0.0
H117 H 0.79013 0.35663 0.99106 0.0
H118 H 0.71508 0.37021 0.92488 0.0
H119 H 0.58283 0.42448 0.92102 0.0
H120 H 0.5281 0.46719 0.98327 0.0
C121 C 0.52835 0.50028 0.05887 0.0
C122 C 0.59858 0.46271 0.06343 0.0
C123 C 0.62594 0.43572 0.02705 0.0
C124 C 0.69893 0.40247 0.02965 0.0
C125 C 0.73118 0.37989 0.99187 0.0
C126 C 0.68926 0.38774 0.95331 0.0
C127 C 0.61524 0.41852 0.9511 0.0
C128 C 0.5843 0.44269 0.98728 0.0
H129 H 0.75611 0.30029 0.05065 0.0
C130 C 0.8207 0.31657 0.06061 0.0
H131 H 0.88686 0.37918 0.08255 0.0
H132 H 0.55764 0.50635 0.13913 0.0
H133 H 0.62949 0.49152 0.20647 0.0
H134 H 0.75245 0.43189 0.21186 0.0
H135 H 0.80366 0.38636 0.15004 0.0
C136 C 0.8225 0.36271 0.07194 0.0
C137 C 0.74057 0.39419 0.06925 0.0
C138 C 0.71078 0.42016 0.10583 0.0
C139 C 0.64006 0.45465 0.10284 0.0
C140 C 0.61173 0.48009 0.13972 0.0
C141 C 0.65218 0.47182 0.17855 0.0
C142 C 0.72135 0.43821 0.18157 0.0
C143 C 0.7504 0.41248 0.1458 0.0
H144 H 0.06953 0.23122 0.42819 0.0
C145 C 0.07239 0.23051 0.46233 0.0
H146 H 0.10791 0.26412 0.51997 0.0
H147 H 0.33331 0.40431 0.39231 0.0
H148 H 0.40464 0.33554 0.36016 0.0
H149 H 0.35507 0.25599 0.37889 0.0
H150 H 0.23325 0.24505 0.42959 0.0
C151 C 0.10573 0.26711 0.48589 0.0
C152 C 0.12978 0.31426 0.46984 0.0
C153 C 0.20233 0.32006 0.44029 0.0
C154 C 0.23224 0.36618 0.43027 0.0
C155 C 0.30606 0.37065 0.40105 0.0
C156 C 0.34856 0.33126 0.3824 0.0
C157 C 0.32062 0.2865 0.39289 0.0
C158 C 0.24933 0.28076 0.4218 0.0
H159 H 0.26375 0.4719 0.50704 0.0
C160 C 0.27492 0.47957 0.47415 0.0
H161 H 0.24407 0.46319 0.41094 0.0
H162 H 0.98368 0.31594 0.52528 0.0
H163 H 0.9195 0.38456 0.56174 0.0
H164 H 0.97823 0.4637 0.54782 0.0
H165 H 0.09495 0.47548 0.49424 0.0
C166 C 0.23163 0.45407 0.4434 0.0
C167 C 0.19182 0.40648 0.45096 0.0
C168 C 0.11845 0.40055 0.48002 0.0
C169 C 0.08698 0.35454 0.48914 0.0
C170 C 0.0129 0.34981 0.51813 0.0
C171 C 0.97455 0.38894 0.53901 0.0
C172 C 0.00682 0.43363 0.53077 0.0
C173 C 0.07566 0.43973 0.50069 0.0
H174 H 0.79167 0.97847 0.46314 0.0
C175 C 0.85628 0.96033 0.4565 0.0
H176 H 0.91907 0.8961 0.43732 0.0
H177 H 0.52113 0.82018 0.51457 0.0
H178 H 0.56294 0.86117 0.57967 0.0
H179 H 0.70249 0.91128 0.58402 0.0
H180 H 0.80004 0.92081 0.52324 0.0
C181 C 0.85473 0.91433 0.4449 0.0
C182 C 0.76756 0.88596 0.44241 0.0
C183 C 0.71361 0.87881 0.47914 0.0
C184 C 0.63512 0.84839 0.477 0.0
C185 C 0.58172 0.84255 0.51404 0.0
C186 C 0.60514 0.86574 0.55189 0.0
C187 C 0.68347 0.89404 0.55431 0.0
C188 C 0.7381 0.89994 0.51873 0.0
H189 H 0.631 0.72942 0.42584 0.0
C190 C 0.56311 0.7402 0.43741 0.0
H191 H 0.47219 0.79654 0.45069 0.0
H192 H 0.85174 0.89396 0.36569 0.0
H193 H 0.80858 0.85302 0.30016 0.0
H194 H 0.67512 0.79848 0.29729 0.0
H195 H 0.58381 0.78473 0.35999 0.0
C196 C 0.54033 0.78614 0.43914 0.0
C197 C 0.61363 0.82313 0.43881 0.0
C198 C 0.66588 0.83107 0.402 0.0
C199 C 0.74274 0.86259 0.40375 0.0
C200 C 0.79336 0.87001 0.36632 0.0
C201 C 0.76908 0.84689 0.32846 0.0
C202 C 0.69396 0.81618 0.32682 0.0
C203 C 0.6425 0.80837 0.36305 0.0
H204 H 0.28196 0.31322 0.95304 0.0
C205 C 0.25207 0.27801 0.95169 0.0
H206 H 0.28075 0.20602 0.94327 0.0
H207 H 0.70574 0.28058 0.91017 0.0
H208 H 0.65489 0.29615 0.83916 0.0
H209 H 0.48935 0.29051 0.81989 0.0
H210 H 0.37378 0.26837 0.87151 0.0
C211 C 0.30793 0.24166 0.9422 0.0
C212 C 0.40686 0.2471 0.95332 0.0
C213 C 0.47224 0.26174 0.92328 0.0
C214 C 0.56726 0.26569 0.9346 0.0
C215 C 0.6325 0.27755 0.9034 0.0
C216 C 0.60417 0.28665 0.86254 0.0
C217 C 0.51093 0.28352 0.8517 0.0
C218 C 0.44537 0.27096 0.88156 0.0
H219 H 0.6589 0.17542 0.99887 0.0
C220 C 0.71396 0.20139 0.99616 0.0
H221 H 0.74792 0.26999 0.97796 0.0
H222 H 0.29991 0.21601 0.01913 0.0
H223 H 0.34791 0.21016 0.09168 0.0
H224 H 0.50873 0.22878 0.11303 0.0
H225 H 0.62282 0.2516 0.06109 0.0
C226 C 0.69331 0.24509 0.98493 0.0
C227 C 0.59513 0.25631 0.97625 0.0
C228 C 0.52782 0.2475 0.00744 0.0
C229 C 0.43439 0.24003 0.99558 0.0
C230 C 0.37076 0.22521 0.02659 0.0
C231 C 0.39766 0.22118 0.06843 0.0
C232 C 0.4882 0.23143 0.08042 0.0
C233 C 0.55295 0.24426 0.05036 0.0
H234 H 0.30715 0.03881 0.59246 0.0
C235 C 0.27947 0.00703 0.57703 0.0
H236 H 0.29893 0.93568 0.56176 0.0
H237 H 0.64571 0.0207 0.47661 0.0
H238 H 0.58055 0.96967 0.42169 0.0
H239 H 0.44847 0.91749 0.43649 0.0
H240 H 0.38036 0.91689 0.50628 0.0
C241 C 0.32954 0.96724 0.57611 0.0
C242 C 0.43172 0.97258 0.5748 0.0
C243 C 0.47552 0.96894 0.53487 0.0
C244 C 0.55503 0.99674 0.52704 0.0
C245 C 0.58962 0.9978 0.48529 0.0
C246 C 0.55175 0.9692 0.45316 0.0
C247 C 0.4771 0.94004 0.46143 0.0
C248 C 0.4383 0.94026 0.5016 0.0
H249 H 0.76391 1.00427 0.53213 0.0
C250 C 0.7545 0.04151 0.53924 0.0
H251 H 0.6628 0.09405 0.562 0.0
H252 H 0.38053 0.97265 0.65702 0.0
H253 H 0.46387 0.01114 0.71614 0.0
H254 H 0.60665 0.05618 0.70407 0.0
H255 H 0.66966 0.06251 0.63353 0.0
C256 C 0.67224 0.05716 0.55288 0.0
C257 C 0.59524 0.02409 0.5606 0.0
C258 C 0.56067 0.02055 0.60213 0.0
C259 C 0.47827 0.99479 0.60917 0.0
C260 C 0.44301 0.99235 0.65054 0.0
C261 C 0.48975 0.01412 0.68441 0.0
C262 C 0.57071 0.03936 0.67765 0.0
C263 C 0.60597 0.04282 0.63703 0.0
H264 H 0.72727 0.79365 0.92224 0.0
C265 C 0.70182 0.75777 0.92447 0.0
H266 H 0.73967 0.687 0.92705 0.0
H267 H 0.15659 0.78016 0.90168 0.0
H268 H 0.11005 0.79936 0.8309 0.0
H269 H 0.94781 0.78873 0.80764 0.0
H270 H 0.83143 0.75853 0.85509 0.0
C271 C 0.76349 0.72272 0.92216 0.0
C272 C 0.85937 0.73281 0.9362 0.0
C273 C 0.9255 0.7516 0.90845 0.0
C274 C 0.01886 0.75759 0.92186 0.0
C275 C 0.08477 0.77473 0.89311 0.0
C276 C 0.05886 0.78604 0.85242 0.0
C277 C 0.9675 0.78012 0.83934 0.0
C278 C 0.90133 0.76291 0.86686 0.0
H279 H 0.10847 0.66296 0.98283 0.0
C280 C 0.16368 0.68901 0.98118 0.0
H281 H 0.19775 0.75849 0.96594 0.0
H282 H 0.74689 0.70021 0.99954 0.0
H283 H 0.79274 0.68615 0.07125 0.0
H284 H 0.95245 0.70187 0.09518 0.0
H285 H 0.06851 0.73024 0.04669 0.0
C286 C 0.14309 0.73329 0.97172 0.0
C287 C 0.04483 0.74451 0.96283 0.0
C288 C 0.97614 0.73152 0.99213 0.0
C289 C 0.88375 0.72414 0.97857 0.0
C290 C 0.81815 0.70744 0.00793 0.0
C291 C 0.8433 0.69924 0.04938 0.0
C292 C 0.93339 0.70781 0.06284 0.0
C293 C -0.00072 0.72378 0.03469 0.0
H294 H 0.18042 0.55403 0.51116 0.0
C295 C 0.18502 0.59115 0.52006 0.0
H296 H 0.11063 0.6519 0.54041 0.0
H297 H 0.82864 0.48641 0.45312 0.0
H298 H 0.91392 0.4977 0.38864 0.0
H299 H 0.04362 0.55432 0.38679 0.0
H300 H 0.08941 0.59907 0.44973 0.0
C301 C 0.10787 0.61496 0.53049 0.0
C302 C 0.01756 0.59031 0.52939 0.0
C303 C -0.01211 0.56701 0.4915 0.0
C304 C 0.91057 0.53641 0.49211 0.0
C305 C 0.88558 0.51118 0.45442 0.0
C306 C 0.93407 0.51724 0.41707 0.0
C307 C 0.00722 0.54895 0.41606 0.0
C308 C 0.03356 0.57394 0.45261 0.0
H309 H 0.69533 0.5687 0.52699 0.0
C310 C 0.69458 0.53101 0.5203 0.0
H311 H 0.77309 0.46873 0.51943 0.0
H312 H 0.05243 0.6331 0.60665 0.0
H313 H 0.9599 0.62602 0.67006 0.0
H314 H 0.81973 0.57601 0.66991 0.0
H315 H 0.77219 0.53218 0.60635 0.0
C316 C 0.77076 0.50614 0.52773 0.0
C317 C 0.8589 0.53226 0.52979 0.0
C318 C 0.88508 0.55761 0.56702 0.0
C319 C 0.96525 0.58658 0.56694 0.0
C320 C -0.00839 0.6108 0.60481 0.0
C321 C 0.93913 0.60703 0.64145 0.0
C322 C 0.86022 0.57886 0.64137 0.0
C323 C 0.83342 0.55413 0.6047 0.0
H324 H 0.16753 0.16005 0.38639 0.0
C325 C 0.16899 0.12192 0.38269 0.0
H326 H 0.17469 0.063 0.34056 0.0
H327 H 0.038 0.22937 0.21272 0.0
H328 H 0.91068 0.24454 0.26106 0.0
H329 H 0.90121 0.20408 0.32832 0.0
H330 H 0.01927 0.1492 0.34796 0.0
C331 C 0.17456 0.10118 0.34387 0.0
C332 C 0.17958 0.12732 0.30393 0.0
C333 C 0.10717 0.15816 0.29232 0.0
C334 C 0.11034 0.17997 0.25265 0.0
C335 C 0.03867 0.21151 0.24224 0.0
C336 C 0.96491 0.22045 0.26962 0.0
C337 C 0.95974 0.19778 0.30752 0.0
C338 C 0.02918 0.16669 0.31871 0.0
H339 H 0.13376 0.13197 0.1476 0.0
C340 C 0.15265 0.16892 0.14674 0.0
H341 H 0.1984 0.22899 0.18211 0.0
H342 H 0.33038 0.07088 0.31592 0.0
H343 H 0.45267 0.05283 0.26552 0.0
H344 H 0.45288 0.08766 0.19546 0.0
H345 H 0.33106 0.14118 0.17555 0.0
C346 C 0.18361 0.1915 0.18204 0.0
C347 C 0.18258 0.16897 0.22364 0.0
C348 C 0.25372 0.13761 0.23474 0.0
C349 C 0.25279 0.11713 0.27501 0.0
C350 C 0.32628 0.08673 0.28552 0.0
C351 C 0.39729 0.07625 0.25694 0.0
C352 C 0.39749 0.0959 0.21752 0.0
C353 C 0.32701 0.12645 0.20646 0.0
H354 H 0.17175 0.20191 0.87805 0.0
C355 C 0.11955 0.17452 0.88028 0.0
H356 H 0.04608 0.11949 0.84869 0.0
H357 H 0.11547 0.22706 0.67579 0.0
H358 H 0.04141 0.2945 0.70863 0.0
H359 H 0.00942 0.29812 0.78489 0.0
H360 H 0.05189 0.23401 0.82861 0.0
C361 C 0.09657 0.14766 0.84591 0.0
C362 C 0.13805 0.15192 0.80315 0.0
C363 C 0.11525 0.19045 0.77802 0.0
C364 C 0.13388 0.18817 0.73385 0.0
C365 C 0.10558 0.22646 0.70943 0.0
C366 C 0.06209 0.26568 0.72788 0.0
C367 C 0.04406 0.26772 0.77078 0.0
C368 C 0.06939 0.23055 0.79561 0.0
H369 H 0.11416 0.07519 0.66278 0.0
C370 C 0.13734 0.10593 0.64635 0.0
H371 H 0.20086 0.17194 0.6498 0.0
H372 H 0.19939 0.07464 0.84314 0.0
H373 H 0.27437 0.00612 0.8108 0.0
H374 H 0.30891 1.00237 0.73482 0.0
H375 H 0.27348 0.06814 0.6909 0.0
C376 C 0.1791 0.14194 0.66759 0.0
C377 C 0.17529 0.14716 0.71479 0.0
C378 C 0.20481 0.11039 0.74072 0.0
C379 C 0.18501 0.11258 0.7847 0.0
C380 C 0.21175 0.0745 0.80951 0.0
C381 C 0.25549 0.03516 0.79144 0.0
C382 C 0.27558 0.03322 0.74867 0.0
C383 C 0.25289 0.07076 0.72366 0.0
H384 H 0.62474 0.66461 0.3679 0.0
C385 C 0.60037 0.62881 0.36208 0.0
H386 H 0.56678 0.57513 0.31716 0.0
H387 H 0.55326 0.75288 0.18958 0.0
H388 H 0.44966 0.79265 0.23899 0.0
H389 H 0.41812 0.76013 0.3085 0.0
H390 H 0.49072 0.6883 0.32918 0.0
C391 C 0.59147 0.61104 0.32228 0.0
C392 C 0.61881 0.63575 0.28347 0.0
C393 C 0.57356 0.67758 0.27165 0.0
C394 C 0.58958 0.69561 0.23096 0.0
C395 C 0.54384 0.73748 0.21994 0.0
C396 C 0.48374 0.76066 0.24795 0.0
C397 C 0.46608 0.74238 0.28709 0.0
C398 C 0.50937 0.70115 0.29877 0.0
H399 H 0.58542 0.62851 0.12979 0.0
C400 C 0.61471 0.66317 0.12501 0.0
H401 H 0.68089 0.72257 0.15346 0.0
H402 H 0.72622 0.55866 0.29781 0.0
H403 H 0.83125 0.51959 0.2483 0.0
H404 H 0.85367 0.54933 0.17697 0.0
H405 H 0.77194 0.61871 0.1549 0.0
C406 C 0.65464 0.68719 0.15762 0.0
C407 C 0.64733 0.67079 0.20157 0.0
C408 C 0.6955 0.63029 0.21396 0.0
C409 C 0.68186 0.613 0.25501 0.0
C410 C 0.73232 0.57283 0.26675 0.0
C411 C 0.79345 0.55026 0.23875 0.0
C412 C 0.8061 0.56701 0.1986 0.0
C413 C 0.75821 0.60666 0.18623 0.0
H414 H 0.65787 0.60819 0.62841 0.0
C415 C 0.59941 0.63209 0.62775 0.0
H416 H 0.51297 0.67938 0.66175 0.0
H417 H 0.63415 0.56816 0.82853 0.0
H418 H 0.60356 0.49366 0.79102 0.0
H419 H 0.57222 0.49104 0.71461 0.0
H420 H 0.57402 0.56201 0.67515 0.0
C421 C 0.57065 0.65499 0.6634 0.0
C422 C 0.61306 0.65178 0.70615 0.0
C423 C 0.60871 0.60957 0.72869 0.0
C424 C 0.62133 0.61128 0.77325 0.0
C425 C 0.62082 0.56874 0.79501 0.0
C426 C 0.60398 0.52586 0.77385 0.0
C427 C 0.58668 0.52439 0.73081 0.0
C428 C 0.58838 0.56562 0.70839 0.0
H429 H 0.48117 0.62989 0.83472 0.0
C430 C 0.53119 0.645 0.85703 0.0
H431 H 0.66538 0.67394 0.86295 0.0
H432 H 0.65146 0.736 0.67153 0.0
H433 H 0.68882 0.80954 0.70936 0.0
H434 H 0.6992 0.81314 0.787 0.0
H435 H 0.67299 0.74332 0.82725 0.0
C436 C 0.61332 0.65913 0.84199 0.0
C437 C 0.63153 0.65524 0.79547 0.0
C438 C 0.64731 0.69622 0.77253 0.0
C439 C 0.63926 0.69431 0.72781 0.0
C440 C 0.65488 0.73587 0.70559 0.0
C441 C 0.67675 0.77814 0.72688 0.0
C442 C 0.68271 0.78015 0.77059 0.0
C443 C 0.66764 0.73984 0.79333 0.0
loop_
_geom_bond_atom_site_label_1
_geom_bond_atom_site_label_2
_geom_bond_distance
_geom_bond_site_symmetry_2
_ccdc_geom_bond_type
Zn0 O6 1.920 . S
Zn0 O12 1.898 . S
Zn0 O15 1.905 . S
Zn1 O9 1.905 . S
Zn1 O10 1.898 1_655 S
Zn1 O18 1.920 . S
Zn2 O5 2.080 . S
Zn2 O8 2.114 . S
Zn2 O11 2.120 1_554 S
Zn2 O13 2.120 . S
Zn2 O14 2.114 . S
Zn2 O17 2.080 1_455 S
C3 O8 1.166 . S
C3 O9 1.182 1_454 S
C4 O10 1.167 . S
C4 O11 1.299 . S
O5 Zn2 2.080 . S
O5 C19 1.305 1_455 S
O6 Zn0 1.920 . S
O6 C19 1.234 1_455 S
C7 O12 1.167 . S
C7 O13 1.299 . S
O8 Zn2 2.114 . S
O8 C3 1.166 . S
O9 Zn1 1.905 . S
O9 C3 1.182 1_656 S
O10 Zn1 1.898 1_455 S
O10 C4 1.167 . S
O11 Zn2 2.120 1_556 S
O11 C4 1.299 . S
O12 Zn0 1.898 . S
O12 C7 1.167 . S
O13 Zn2 2.120 . S
O13 C7 1.299 . S
O14 Zn2 2.114 . S
O14 C16 1.166 . S
O15 Zn0 1.905 . S
O15 C16 1.182 . S
C16 O14 1.166 . S
C16 O15 1.182 . S
O17 Zn2 2.080 1_655 S
O17 C20 1.305 1_554 S
O18 Zn1 1.920 . S
O18 C20 1.234 . S
C19 O5 1.305 1_655 S
C19 O6 1.234 1_655 S
C20 O17 1.305 1_556 S
C20 O18 1.234 . S
Zn21 O27 1.920 1_545 S
Zn21 O33 1.898 . S
Zn21 O36 1.905 . S
Zn22 O30 1.905 . S
Zn22 O31 1.898 1_655 S
Zn22 O39 1.920 . S
Zn23 O26 2.080 . S
Zn23 O29 2.114 . S
Zn23 O32 2.120 . S
Zn23 O34 2.120 . S
Zn23 O35 2.114 . S
Zn23 O38 2.080 1_455 S
C24 O29 1.166 . S
C24 O30 1.182 1_455 S
C25 O31 1.167 . S
C25 O32 1.299 . S
O26 Zn23 2.080 . S
O26 C40 1.305 1_445 S
O27 Zn21 1.920 1_565 S
O27 C40 1.234 1_455 S
C28 O33 1.167 . S
C28 O34 1.299 . S
O29 Zn23 2.114 . S
O29 C24 1.166 . S
O30 Zn22 1.905 . S
O30 C24 1.182 1_655 S
O31 Zn22 1.898 1_455 S
O31 C25 1.167 . S
O32 Zn23 2.120 . S
O32 C25 1.299 . S
O33 Zn21 1.898 . S
O33 C28 1.167 . S
O34 Zn23 2.120 . S
O34 C28 1.299 . S
O35 Zn23 2.114 . S
O35 C37 1.166 . S
O36 Zn21 1.905 . S
O36 C37 1.182 . S
C37 O35 1.166 . S
C37 O36 1.182 . S
O38 Zn23 2.080 1_655 S
O38 C41 1.305 . S
O39 Zn22 1.920 . S
O39 C41 1.234 . S
C40 O26 1.305 1_665 S
C40 O27 1.234 1_655 S
C41 O38 1.305 . S
C41 O39 1.234 . S
Zn42 O48 1.920 . S
Zn42 O54 1.898 . S
Zn42 O57 1.905 . S
Zn43 O51 1.905 . S
Zn43 O52 1.898 . S
Zn43 O60 1.920 . S
Zn44 O47 2.080 . S
Zn44 O50 2.114 . S
Zn44 O53 2.120 1_554 S
Zn44 O55 2.120 . S
Zn44 O56 2.114 . S
Zn44 O59 2.080 . S
C45 O50 1.166 . S
C45 O51 1.182 1_554 S
C46 O52 1.167 . S
C46 O53 1.299 . S
O47 Zn44 2.080 . S
O47 C61 1.305 . S
O48 Zn42 1.920 . S
O48 C61 1.234 . S
C49 O54 1.167 . S
C49 O55 1.299 . S
O50 Zn44 2.114 . S
O50 C45 1.166 . S
O51 Zn43 1.905 . S
O51 C45 1.182 1_556 S
O52 Zn43 1.898 . S
O52 C46 1.167 . S
O53 Zn44 2.120 1_556 S
O53 C46 1.299 . S
O54 Zn42 1.898 . S
O54 C49 1.167 . S
O55 Zn44 2.120 . S
O55 C49 1.299 . S
O56 Zn44 2.114 . S
O56 C58 1.166 . S
O57 Zn42 1.905 . S
O57 C58 1.182 . S
C58 O56 1.166 . S
C58 O57 1.182 . S
O59 Zn44 2.080 . S
O59 C62 1.305 1_554 S
O60 Zn43 1.920 . S
O60 C62 1.234 . S
C61 O47 1.305 . S
C61 O48 1.234 . S
C62 O59 1.305 1_556 S
C62 O60 1.234 . S
Zn63 O69 1.920 . S
Zn63 O75 1.898 . S
Zn63 O78 1.905 . S
Zn64 O72 1.905 . S
Zn64 O73 1.898 . S
Zn64 O81 1.920 . S
Zn65 O68 2.080 . S
Zn65 O71 2.114 . S
Zn65 O74 2.120 . S
Zn65 O76 2.120 . S
Zn65 O77 2.114 . S
Zn65 O80 2.080 . S
C66 O71 1.166 . S
C66 O72 1.182 . S
C67 O73 1.167 . S
C67 O74 1.299 . S
O68 Zn65 2.080 . S
O68 C82 1.305 . S
O69 Zn63 1.920 . S
O69 C82 1.234 . S
C70 O75 1.167 . S
C70 O76 1.299 . S
O71 Zn65 2.114 . S
O71 C66 1.166 . S
O72 Zn64 1.905 . S
O72 C66 1.182 . S
O73 Zn64 1.898 . S
O73 C67 1.167 . S
O74 Zn65 2.120 . S
O74 C67 1.299 . S
O75 Zn63 1.898 . S
O75 C70 1.167 . S
O76 Zn65 2.120 . S
O76 C70 1.299 . S
O77 Zn65 2.114 . S
O77 C79 1.166 . S
O78 Zn63 1.905 . S
O78 C79 1.182 . S
C79 O77 1.166 . S
C79 O78 1.182 . S
O80 Zn65 2.080 . S
O80 C83 1.305 . S
O81 Zn64 1.920 . S
O81 C83 1.234 . S
C82 O68 1.305 . S
C82 O69 1.234 . S
C83 O80 1.305 . S
C83 O81 1.234 . S
H84 C85 0.951 . S
C85 H84 0.951 . S
C85 C91 1.265 . S
H86 C91 0.950 . S
H87 C95 0.949 1_545 S
H88 C96 0.950 . S
H89 C97 0.951 . S
H90 C98 0.951 . S
C91 C85 1.265 . S
C91 H86 0.950 . S
C91 C92 1.478 . S
C92 C91 1.478 . S
C92 C93 1.397 . S
C92 C109 1.394 1_554 S
C93 C92 1.397 . S
C93 C94 1.438 . S
C93 C98 1.429 . S
C94 C93 1.438 . S
C94 C95 1.428 . S
C94 C107 1.394 . S
C95 H87 0.949 1_565 S
C95 C94 1.428 . S
C95 C96 1.345 . S
C96 H88 0.950 . S
C96 C95 1.345 . S
C96 C97 1.424 . S
C97 H89 0.951 . S
C97 C96 1.424 . S
C97 C98 1.347 . S
C98 H90 0.951 . S
C98 C93 1.429 . S
C98 C97 1.347 . S
H99 C100 0.951 . S
C100 H99 0.951 . S
C100 C106 1.265 . S
H101 C106 0.950 . S
H102 C110 0.949 . S
H103 C111 0.950 . S
H104 C112 0.951 . S
H105 C113 0.951 1_545 S
C106 C100 1.265 . S
C106 H101 0.950 . S
C106 C107 1.478 1_545 S
C107 C94 1.394 . S
C107 C106 1.478 1_565 S
C107 C108 1.397 1_554 S
C108 C107 1.397 1_556 S
C108 C109 1.438 . S
C108 C113 1.429 . S
C109 C92 1.394 1_556 S
C109 C108 1.438 . S
C109 C110 1.428 . S
C110 H102 0.949 . S
C110 C109 1.428 . S
C110 C111 1.345 . S
C111 H103 0.950 . S
C111 C110 1.345 . S
C111 C112 1.424 . S
C112 H104 0.951 . S
C112 C111 1.424 . S
C112 C113 1.347 . S
C113 H105 0.951 1_565 S
C113 C108 1.429 . S
C113 C112 1.347 . S
H114 C115 0.951 . S
C115 H114 0.951 . S
C115 C121 1.265 . S
H116 C121 0.950 . S
H117 C125 0.949 . S
H118 C126 0.950 . S
H119 C127 0.951 . S
H120 C128 0.951 . S
C121 C115 1.265 . S
C121 H116 0.950 . S
C121 C122 1.478 . S
C122 C121 1.478 . S
C122 C123 1.397 1_554 S
C122 C139 1.394 . S
C123 C122 1.397 1_556 S
C123 C124 1.438 . S
C123 C128 1.429 . S
C124 C123 1.438 . S
C124 C125 1.428 . S
C124 C137 1.394 1_556 S
C125 H117 0.949 . S
C125 C124 1.428 . S
C125 C126 1.345 . S
C126 H118 0.950 . S
C126 C125 1.345 . S
C126 C127 1.424 . S
C127 H119 0.951 . S
C127 C126 1.424 . S
C127 C128 1.347 . S
C128 H120 0.951 . S
C128 C123 1.429 . S
C128 C127 1.347 . S
H129 C130 0.951 . S
C130 H129 0.951 . S
C130 C136 1.265 . S
H131 C136 0.950 . S
H132 C140 0.949 . S
H133 C141 0.950 . S
H134 C142 0.951 . S
H135 C143 0.951 . S
C136 C130 1.265 . S
C136 H131 0.950 . S
C136 C137 1.478 . S
C137 C124 1.394 1_554 S
C137 C136 1.478 . S
C137 C138 1.397 . S
C138 C137 1.397 . S
C138 C139 1.438 . S
C138 C143 1.429 . S
C139 C122 1.394 . S
C139 C138 1.438 . S
C139 C140 1.428 . S
C140 H132 0.949 . S
C140 C139 1.428 . S
C140 C141 1.345 . S
C141 H133 0.950 . S
C141 C140 1.345 . S
C141 C142 1.424 . S
C142 H134 0.951 . S
C142 C141 1.424 . S
C142 C143 1.347 . S
C143 H135 0.951 . S
C143 C138 1.429 . S
C143 C142 1.347 . S
H144 C145 0.951 . S
C145 H144 0.951 . S
C145 C151 1.265 . S
H146 C151 0.950 . S
H147 C155 0.949 . S
H148 C156 0.950 . S
H149 C157 0.951 . S
H150 C158 0.951 . S
C151 C145 1.265 . S
C151 H146 0.950 . S
C151 C152 1.478 . S
C152 C151 1.478 . S
C152 C153 1.397 . S
C152 C169 1.394 . S
C153 C152 1.397 . S
C153 C154 1.438 . S
C153 C158 1.429 . S
C154 C153 1.438 . S
C154 C155 1.428 . S
C154 C167 1.394 . S
C155 H147 0.949 . S
C155 C154 1.428 . S
C155 C156 1.345 . S
C156 H148 0.950 . S
C156 C155 1.345 . S
C156 C157 1.424 . S
C157 H149 0.951 . S
C157 C156 1.424 . S
C157 C158 1.347 . S
C158 H150 0.951 . S
C158 C153 1.429 . S
C158 C157 1.347 . S
H159 C160 0.951 . S
C160 H159 0.951 . S
C160 C166 1.265 . S
H161 C166 0.950 . S
H162 C170 0.949 . S
H163 C171 0.950 . S
H164 C172 0.951 . S
H165 C173 0.951 . S
C166 C160 1.265 . S
C166 H161 0.950 . S
C166 C167 1.478 . S
C167 C154 1.394 . S
C167 C166 1.478 . S
C167 C168 1.397 . S
C168 C167 1.397 . S
C168 C169 1.438 . S
C168 C173 1.429 . S
C169 C152 1.394 . S
C169 C168 1.438 . S
C169 C170 1.428 . S
C170 H162 0.949 . S
C170 C169 1.428 . S
C170 C171 1.345 . S
C171 H163 0.950 . S
C171 C170 1.345 . S
C171 C172 1.424 . S
C172 H164 0.951 . S
C172 C171 1.424 . S
C172 C173 1.347 . S
C173 H165 0.951 . S
C173 C168 1.429 . S
C173 C172 1.347 . S
H174 C175 0.951 . S
C175 H174 0.951 . S
C175 C181 1.265 . S
H176 C181 0.950 . S
H177 C185 0.949 . S
H178 C186 0.950 . S
H179 C187 0.951 . S
H180 C188 0.951 . S
C181 C175 1.265 . S
C181 H176 0.950 . S
C181 C182 1.478 . S
C182 C181 1.478 . S
C182 C183 1.397 . S
C182 C199 1.394 . S
C183 C182 1.397 . S
C183 C184 1.438 . S
C183 C188 1.429 . S
C184 C183 1.438 . S
C184 C185 1.428 . S
C184 C197 1.394 . S
C185 H177 0.949 . S
C185 C184 1.428 . S
C185 C186 1.345 . S
C186 H178 0.950 . S
C186 C185 1.345 . S
C186 C187 1.424 . S
C187 H179 0.951 . S
C187 C186 1.424 . S
C187 C188 1.347 . S
C188 H180 0.951 . S
C188 C183 1.429 . S
C188 C187 1.347 . S
H189 C190 0.951 . S
C190 H189 0.951 . S
C190 C196 1.265 . S
H191 C196 0.950 . S
H192 C200 0.949 . S
H193 C201 0.950 . S
H194 C202 0.951 . S
H195 C203 0.951 . S
C196 C190 1.265 . S
C196 H191 0.950 . S
C196 C197 1.478 . S
C197 C184 1.394 . S
C197 C196 1.478 . S
C197 C198 1.397 . S
C198 C197 1.397 . S
C198 C199 1.438 . S
C198 C203 1.429 . S
C199 C182 1.394 . S
C199 C198 1.438 . S
C199 C200 1.428 . S
C200 H192 0.949 . S
C200 C199 1.428 . S
C200 C201 1.345 . S
C201 H193 0.950 . S
C201 C200 1.345 . S
C201 C202 1.424 . S
C202 H194 0.951 . S
C202 C201 1.424 . S
C202 C203 1.347 . S
C203 H195 0.951 . S
C203 C198 1.429 . S
C203 C202 1.347 . S
H204 C205 0.951 . S
C205 H204 0.951 . S
C205 C211 1.265 . S
H206 C211 0.950 . S
H207 C215 0.949 . S
H208 C216 0.950 . S
H209 C217 0.951 . S
H210 C218 0.951 . S
C211 C205 1.265 . S
C211 H206 0.950 . S
C211 C212 1.478 . S
C212 C211 1.478 . S
C212 C213 1.397 . S
C212 C229 1.394 1_556 S
C213 C212 1.397 . S
C213 C214 1.438 . S
C213 C218 1.429 . S
C214 C213 1.438 . S
C214 C215 1.428 . S
C214 C227 1.394 . S
C215 H207 0.949 . S
C215 C214 1.428 . S
C215 C216 1.345 . S
C216 H208 0.950 . S
C216 C215 1.345 . S
C216 C217 1.424 . S
C217 H209 0.951 . S
C217 C216 1.424 . S
C217 C218 1.347 . S
C218 H210 0.951 . S
C218 C213 1.429 . S
C218 C217 1.347 . S
H219 C220 0.951 . S
C220 H219 0.951 . S
C220 C226 1.265 . S
H221 C226 0.950 . S
H222 C230 0.949 . S
H223 C231 0.950 . S
H224 C232 0.951 . S
H225 C233 0.951 . S
C226 C220 1.265 . S
C226 H221 0.950 . S
C226 C227 1.478 . S
C227 C214 1.394 . S
C227 C226 1.478 . S
C227 C228 1.397 1_556 S
C228 C227 1.397 1_554 S
C228 C229 1.438 . S
C228 C233 1.429 . S
C229 C212 1.394 1_554 S
C229 C228 1.438 . S
C229 C230 1.428 . S
C230 H222 0.949 . S
C230 C229 1.428 . S
C230 C231 1.345 . S
C231 H223 0.950 . S
C231 C230 1.345 . S
C231 C232 1.424 . S
C232 H224 0.951 . S
C232 C231 1.424 . S
C232 C233 1.347 . S
C233 H225 0.951 . S
C233 C228 1.429 . S
C233 C232 1.347 . S
H234 C235 0.951 . S
C235 H234 0.951 . S
C235 C241 1.265 . S
H236 C241 0.950 . S
H237 C245 0.949 . S
H238 C246 0.950 . S
H239 C247 0.951 . S
H240 C248 0.951 . S
C241 C235 1.265 . S
C241 H236 0.950 . S
C241 C242 1.478 . S
C242 C241 1.478 . S
C242 C243 1.397 . S
C242 C259 1.394 . S
C243 C242 1.397 . S
C243 C244 1.438 . S
C243 C248 1.429 1_545 S
C244 C243 1.438 . S
C244 C245 1.428 . S
C244 C257 1.394 . S
C245 H237 0.949 . S
C245 C244 1.428 . S
C245 C246 1.345 1_545 S
C246 H238 0.950 . S
C246 C245 1.345 1_565 S
C246 C247 1.424 . S
C247 H239 0.951 . S
C247 C246 1.424 . S
C247 C248 1.347 . S
C248 H240 0.951 . S
C248 C243 1.429 1_565 S
C248 C247 1.347 . S
H249 C250 0.951 . S
C250 H249 0.951 . S
C250 C256 1.265 . S
H251 C256 0.950 . S
H252 C260 0.949 . S
H253 C261 0.950 . S
H254 C262 0.951 . S
H255 C263 0.951 . S
C256 C250 1.265 . S
C256 H251 0.950 . S
C256 C257 1.478 . S
C257 C244 1.394 . S
C257 C256 1.478 . S
C257 C258 1.397 . S
C258 C257 1.397 . S
C258 C259 1.438 . S
C258 C263 1.429 . S
C259 C242 1.394 . S
C259 C258 1.438 . S
C259 C260 1.428 . S
C260 H252 0.949 . S
C260 C259 1.428 . S
C260 C261 1.345 . S
C261 H253 0.950 . S
C261 C260 1.345 . S
C261 C262 1.424 . S
C262 H254 0.951 . S
C262 C261 1.424 . S
C262 C263 1.347 . S
C263 H255 0.951 . S
C263 C258 1.429 . S
C263 C262 1.347 . S
H264 C265 0.951 . S
C265 H264 0.951 . S
C265 C271 1.265 . S
H266 C271 0.950 . S
H267 C275 0.949 . S
H268 C276 0.950 . S
H269 C277 0.951 . S
H270 C278 0.951 . S
C271 C265 1.265 . S
C271 H266 0.950 . S
C271 C272 1.478 . S
C272 C271 1.478 . S
C272 C273 1.397 . S
C272 C289 1.394 1_556 S
C273 C272 1.397 . S
C273 C274 1.438 1_655 S
C273 C278 1.429 . S
C274 C273 1.438 1_455 S
C274 C275 1.428 . S
C274 C287 1.394 . S
C275 H267 0.949 . S
C275 C274 1.428 . S
C275 C276 1.345 . S
C276 H268 0.950 . S
C276 C275 1.345 . S
C276 C277 1.424 1_455 S
C277 H269 0.951 . S
C277 C276 1.424 1_655 S
C277 C278 1.347 . S
C278 H270 0.951 . S
C278 C273 1.429 . S
C278 C277 1.347 . S
H279 C280 0.951 . S
C280 H279 0.951 . S
C280 C286 1.265 . S
H281 C286 0.950 . S
H282 C290 0.949 . S
H283 C291 0.950 . S
H284 C292 0.951 . S
H285 C293 0.951 . S
C286 C280 1.265 . S
C286 H281 0.950 . S
C286 C287 1.478 . S
C287 C274 1.394 . S
C287 C286 1.478 . S
C287 C288 1.397 1_556 S
C288 C287 1.397 1_554 S
C288 C289 1.438 1_455 S
C288 C293 1.429 . S
C289 C272 1.394 1_554 S
C289 C288 1.438 1_655 S
C289 C290 1.428 . S
C290 H282 0.949 . S
C290 C289 1.428 . S
C290 C291 1.345 . S
C291 H283 0.950 . S
C291 C290 1.345 . S
C291 C292 1.424 1_655 S
C292 H284 0.951 . S
C292 C291 1.424 1_455 S
C292 C293 1.347 . S
C293 H285 0.951 . S
C293 C288 1.429 . S
C293 C292 1.347 . S
H294 C295 0.951 . S
C295 H294 0.951 . S
C295 C301 1.265 . S
H296 C301 0.950 . S
H297 C305 0.949 . S
H298 C306 0.950 . S
H299 C307 0.951 . S
H300 C308 0.951 . S
C301 C295 1.265 . S
C301 H296 0.950 . S
C301 C302 1.478 . S
C302 C301 1.478 . S
C302 C303 1.397 . S
C302 C319 1.394 . S
C303 C302 1.397 . S
C303 C304 1.438 1_455 S
C303 C308 1.429 . S
C304 C303 1.438 1_655 S
C304 C305 1.428 . S
C304 C317 1.394 . S
C305 H297 0.949 . S
C305 C304 1.428 . S
C305 C306 1.345 . S
C306 H298 0.950 . S
C306 C305 1.345 . S
C306 C307 1.424 1_655 S
C307 H299 0.951 . S
C307 C306 1.424 1_455 S
C307 C308 1.347 . S
C308 H300 0.951 . S
C308 C303 1.429 . S
C308 C307 1.347 . S
H309 C310 0.951 . S
C310 H309 0.951 . S
C310 C316 1.265 . S
H311 C316 0.950 . S
H312 C320 0.949 . S
H313 C321 0.950 . S
H314 C322 0.951 1_655 S
H315 C323 0.951 . S
C316 C310 1.265 . S
C316 H311 0.950 . S
C316 C317 1.478 . S
C317 C304 1.394 . S
C317 C316 1.478 . S
C317 C318 1.397 . S
C318 C317 1.397 . S
C318 C319 1.438 1_655 S
C318 C323 1.429 . S
C319 C302 1.394 . S
C319 C318 1.438 1_455 S
C319 C320 1.428 . S
C320 H312 0.949 . S
C320 C319 1.428 . S
C320 C321 1.345 . S
C321 H313 0.950 . S
C321 C320 1.345 . S
C321 C322 1.424 . S
C322 H314 0.951 1_455 S
C322 C321 1.424 . S
C322 C323 1.347 1_455 S
C323 H315 0.951 . S
C323 C318 1.429 . S
C323 C322 1.347 1_655 S
H324 C325 0.951 . S
C325 H324 0.951 . S
C325 C331 1.265 . S
H326 C331 0.950 1_655 S
H327 C335 0.949 . S
H328 C336 0.950 . S
H329 C337 0.951 . S
H330 C338 0.951 . S
C331 C325 1.265 . S
C331 H326 0.950 1_455 S
C331 C332 1.478 . S
C332 C331 1.478 . S
C332 C333 1.397 . S
C332 C349 1.394 . S
C333 C332 1.397 . S
C333 C334 1.438 . S
C333 C338 1.429 1_455 S
C334 C333 1.438 . S
C334 C335 1.428 . S
C334 C347 1.394 . S
C335 H327 0.949 . S
C335 C334 1.428 . S
C335 C336 1.345 1_455 S
C336 H328 0.950 . S
C336 C335 1.345 1_655 S
C336 C337 1.424 . S
C337 H329 0.951 . S
C337 C336 1.424 . S
C337 C338 1.347 . S
C338 H330 0.951 . S
C338 C333 1.429 1_655 S
C338 C337 1.347 . S
H339 C340 0.951 1_655 S
C340 H339 0.951 1_455 S
C340 C346 1.265 . S
H341 C346 0.950 . S
H342 C350 0.949 . S
H343 C351 0.950 1_565 S
H344 C352 0.951 1_565 S
H345 C353 0.951 . S
C346 C340 1.265 . S
C346 H341 0.950 . S
C346 C347 1.478 . S
C347 C334 1.394 . S
C347 C346 1.478 . S
C347 C348 1.397 . S
C348 C347 1.397 . S
C348 C349 1.438 . S
C348 C353 1.429 . S
C349 C332 1.394 . S
C349 C348 1.438 . S
C349 C350 1.428 . S
C350 H342 0.949 . S
C350 C349 1.428 . S
C350 C351 1.345 . S
C351 H343 0.950 1_545 S
C351 C350 1.345 . S
C351 C352 1.424 . S
C352 H344 0.951 1_545 S
C352 C351 1.424 . S
C352 C353 1.347 . S
C353 H345 0.951 . S
C353 C348 1.429 . S
C353 C352 1.347 . S
H354 C355 0.951 . S
C355 H354 0.951 . S
C355 C361 1.265 . S
H356 C361 0.950 1_655 S
H357 C365 0.949 . S
H358 C366 0.950 . S
H359 C367 0.951 . S
H360 C368 0.951 . S
C361 C355 1.265 . S
C361 H356 0.950 1_455 S
C361 C362 1.478 . S
C362 C361 1.478 . S
C362 C363 1.397 . S
C362 C379 1.394 . S
C363 C362 1.397 . S
C363 C364 1.438 . S
C363 C368 1.429 1_455 S
C364 C363 1.438 . S
C364 C365 1.428 . S
C364 C377 1.394 . S
C365 H357 0.949 . S
C365 C364 1.428 . S
C365 C366 1.345 1_455 S
C366 H358 0.950 . S
C366 C365 1.345 1_655 S
C366 C367 1.424 . S
C367 H359 0.951 . S
C367 C366 1.424 . S
C367 C368 1.347 . S
C368 H360 0.951 . S
C368 C363 1.429 1_655 S
C368 C367 1.347 . S
H369 C370 0.951 1_655 S
C370 H369 0.951 1_455 S
C370 C376 1.265 . S
H371 C376 0.950 . S
H372 C380 0.949 . S
H373 C381 0.950 . S
H374 C382 0.951 . S
H375 C383 0.951 . S
C376 C370 1.265 . S
C376 H371 0.950 . S
C376 C377 1.478 . S
C377 C364 1.394 . S
C377 C376 1.478 . S
C377 C378 1.397 . S
C378 C377 1.397 . S
C378 C379 1.438 . S
C378 C383 1.429 . S
C379 C362 1.394 . S
C379 C378 1.438 . S
C379 C380 1.428 . S
C380 H372 0.949 . S
C380 C379 1.428 . S
C380 C381 1.345 . S
C381 H373 0.950 . S
C381 C380 1.345 . S
C381 C382 1.424 . S
C382 H374 0.951 . S
C382 C381 1.424 . S
C382 C383 1.347 . S
C383 H375 0.951 . S
C383 C378 1.429 . S
C383 C382 1.347 . S
H384 C385 0.951 . S
C385 H384 0.951 . S
C385 C391 1.265 . S
H386 C391 0.950 . S
H387 C395 0.949 . S
H388 C396 0.950 . S
H389 C397 0.951 . S
H390 C398 0.951 . S
C391 C385 1.265 . S
C391 H386 0.950 . S
C391 C392 1.478 . S
C392 C391 1.478 . S
C392 C393 1.397 . S
C392 C409 1.394 . S
C393 C392 1.397 . S
C393 C394 1.438 . S
C393 C398 1.429 . S
C394 C393 1.438 . S
C394 C395 1.428 . S
C394 C407 1.394 . S
C395 H387 0.949 . S
C395 C394 1.428 . S
C395 C396 1.345 . S
C396 H388 0.950 . S
C396 C395 1.345 . S
C396 C397 1.424 . S
C397 H389 0.951 . S
C397 C396 1.424 . S
C397 C398 1.347 . S
C398 H390 0.951 . S
C398 C393 1.429 . S
C398 C397 1.347 . S
H399 C400 0.951 . S
C400 H399 0.951 . S
C400 C406 1.265 . S
H401 C406 0.950 . S
H402 C410 0.949 . S
H403 C411 0.950 . S
H404 C412 0.951 . S
H405 C413 0.951 . S
C406 C400 1.265 . S
C406 H401 0.950 . S
C406 C407 1.478 . S
C407 C394 1.394 . S
C407 C406 1.478 . S
C407 C408 1.397 . S
C408 C407 1.397 . S
C408 C409 1.438 . S
C408 C413 1.429 . S
C409 C392 1.394 . S
C409 C408 1.438 . S
C409 C410 1.428 . S
C410 H402 0.949 . S
C410 C409 1.428 . S
C410 C411 1.345 . S
C411 H403 0.950 . S
C411 C410 1.345 . S
C411 C412 1.424 . S
C412 H404 0.951 . S
C412 C411 1.424 . S
C412 C413 1.347 . S
C413 H405 0.951 . S
C413 C408 1.429 . S
C413 C412 1.347 . S
H414 C415 0.951 . S
C415 H414 0.951 . S
C415 C421 1.265 . S
H416 C421 0.950 . S
H417 C425 0.949 . S
H418 C426 0.950 . S
H419 C427 0.951 . S
H420 C428 0.951 . S
C421 C415 1.265 . S
C421 H416 0.950 . S
C421 C422 1.478 . S
C422 C421 1.478 . S
C422 C423 1.397 . S
C422 C439 1.394 . S
C423 C422 1.397 . S
C423 C424 1.438 . S
C423 C428 1.429 . S
C424 C423 1.438 . S
C424 C425 1.428 . S
C424 C437 1.394 . S
C425 H417 0.949 . S
C425 C424 1.428 . S
C425 C426 1.345 . S
C426 H418 0.950 . S
C426 C425 1.345 . S
C426 C427 1.424 . S
C427 H419 0.951 . S
C427 C426 1.424 . S
C427 C428 1.347 . S
C428 H420 0.951 . S
C428 C423 1.429 . S
C428 C427 1.347 . S
H429 C430 0.951 . S
C430 H429 0.951 . S
C430 C436 1.265 . S
H431 C436 0.950 . S
H432 C440 0.949 . S
H433 C441 0.950 . S
H434 C442 0.951 . S
H435 C443 0.951 . S
C436 C430 1.265 . S
C436 H431 0.950 . S
C436 C437 1.478 . S
C437 C424 1.394 . S
C437 C436 1.478 . S
C437 C438 1.397 . S
C438 C437 1.397 . S
C438 C439 1.438 . S
C438 C443 1.429 . S
C439 C422 1.394 . S
C439 C438 1.438 . S
C439 C440 1.428 . S
C440 H432 0.949 . S
C440 C439 1.428 . S
C440 C441 1.345 . S
C441 H433 0.950 . S
C441 C440 1.345 . S
C441 C442 1.424 . S
C442 H434 0.951 . S
C442 C441 1.424 . S
C442 C443 1.347 . S
C443 H435 0.951 . S
C443 C438 1.429 . S
C443 C442 1.347 . S
C85 C61 1.514 . S
C100 C3 1.494 . S
C115 C45 1.496 . S
C130 C19 1.581 . S
C145 C24 1.473 . S
C160 C82 1.505 . S
C175 C40 1.586 . S
C190 C66 1.514 . S
C205 C16 0.678 1_556 S
C220 C20 0.559 . S
C235 C37 0.610 . S
C250 C41 0.682 . S
C265 C58 0.665 1_556 S
C280 C62 0.551 . S
C295 C83 0.718 . S
C310 C79 0.674 . S
C325 C28 1.400 . S
C340 C7 1.430 . S
C355 C4 1.388 . S
C370 C25 1.261 . S
C385 C70 1.407 . S
C400 C49 1.437 . S
C415 C67 1.381 . S
C430 C46 1.251 . S
