# Generated by pormake.
# Topology afw, (4)-cn, num edge types: 1
# Building blocks:
#     Node 0, Type 0, BuildingBlock: QUQFOY_clean_sbu_3, # of connection points: 4
#     Node 1, Type 0, BuildingBlock: QUQFOY_clean_sbu_3, # of connection points: 4
#     Node 2, Type 0, BuildingBlock: QUQFOY_clean_sbu_3, # of connection points: 4
#     Node 3, Type 0, BuildingBlock: QUQFOY_clean_sbu_3, # of connection points: 4
#     Node 4, Type 0, BuildingBlock: QUQFOY_clean_sbu_3, # of connection points: 4
#     Node 5, Type 0, BuildingBlock: QUQFOY_clean_sbu_3, # of connection points: 4
#     Node 6, Type 0, BuildingBlock: QUQFOY_clean_sbu_3, # of connection points: 4
#     Node 7, Type 0, BuildingBlock: QUQFOY_clean_sbu_3, # of connection points: 4
#     Node 8, Type 0, BuildingBlock: QUQFOY_clean_sbu_3, # of connection points: 4
#     Edge 9, Type (0, 0), BuildingBlock: OJICUG_clean_linker_0, # of connection points: 2
#     Edge 10, Type (0, 0), BuildingBlock: OJICUG_clean_linker_0, # of connection points: 2
#     Edge 11, Type (0, 0), BuildingBlock: OJICUG_clean_linker_0, # of connection points: 2
#     Edge 12, Type (0, 0), BuildingBlock: OJICUG_clean_linker_0, # of connection points: 2
#     Edge 13, Type (0, 0), BuildingBlock: OJICUG_clean_linker_0, # of connection points: 2
#     Edge 14, Type (0, 0), BuildingBlock: OJICUG_clean_linker_0, # of connection points: 2
#     Edge 15, Type (0, 0), BuildingBlock: OJICUG_clean_linker_0, # of connection points: 2
#     Edge 16, Type (0, 0), BuildingBlock: OJICUG_clean_linker_0, # of connection points: 2
#     Edge 17, Type (0, 0), BuildingBlock: OJICUG_clean_linker_0, # of connection points: 2
#     Edge 18, Type (0, 0), BuildingBlock: OJICUG_clean_linker_0, # of connection points: 2
#     Edge 19, Type (0, 0), BuildingBlock: OJICUG_clean_linker_0, # of connection points: 2
#     Edge 20, Type (0, 0), BuildingBlock: OJICUG_clean_linker_0, # of connection points: 2
#     Edge 21, Type (0, 0), BuildingBlock: OJICUG_clean_linker_0, # of connection points: 2
#     Edge 22, Type (0, 0), BuildingBlock: OJICUG_clean_linker_0, # of connection points: 2
#     Edge 23, Type (0, 0), BuildingBlock: OJICUG_clean_linker_0, # of connection points: 2
#     Edge 24, Type (0, 0), BuildingBlock: OJICUG_clean_linker_0, # of connection points: 2
#     Edge 25, Type (0, 0), BuildingBlock: OJICUG_clean_linker_0, # of connection points: 2
#     Edge 26, Type (0, 0), BuildingBlock: OJICUG_clean_linker_0, # of connection points: 2
# Relax obj value: 0.195
# Max RMSD: 0.208
# Mean RMSD: 0.200
data_MOF--net-afw--node1-QUQFOY_clean_sbu_3--edge1-OJICUG_clean_linker_0
_symmetry_space_group_name_H-M    P1
_symmetry_Int_Tables_number       1
_symmetry_cell_setting            triclinic
loop_
_symmetry_equiv_pos_as_xyz
'x, y, z'
_cell_length_a     33.721693
_cell_length_b     33.713432
_cell_length_c     25.280931
_cell_angle_alpha  90.174717
_cell_angle_beta   91.012918
_cell_angle_gamma 119.8569
loop_
_atom_site_label
_atom_site_type_symbol
_atom_site_fract_x
_atom_site_fract_y
_atom_site_fract_z
_atom_type_partial_charge
C0 C 0.04806 0.15557 0.053 0.0
O1 O 0.03342 0.15437 0.0992 0.0
Cd2 Cd -0.03044 0.16351 0.11671 0.0
O3 O 0.03231 0.16775 0.01389 0.0
Cd4 Cd -0.0223 0.19766 0.00296 0.0
C5 C 0.89596 0.08895 0.02046 0.0
O6 O -0.0123 0.23764 0.08711 0.0
O7 O 0.92267 0.213 0.04679 0.0
O8 O 0.03437 0.26016 0.95004 0.0
C9 C -0.04968 0.23779 0.08323 0.0
O10 O 0.90619 0.098 0.06947 0.0
C11 C 0.00545 0.25978 0.91691 0.0
O12 O 0.9181 0.11888 -0.01422 0.0
O13 O -0.03602 0.22904 0.9221 0.0
C14 C 0.86552 0.81645 0.94172 0.0
O15 O 0.85871 0.82424 0.89423 0.0
Cd16 Cd 0.78968 0.82215 0.86511 0.0
O17 O 0.83429 0.80479 -0.02424 0.0
Cd18 Cd 0.75401 0.7879 -0.01757 0.0
C19 C 0.79242 0.89995 0.95642 0.0
O20 O 0.73126 0.75004 0.89639 0.0
O21 O 0.6799 0.75819 0.93701 0.0
O22 O 0.75251 0.73218 0.04385 0.0
C23 C 0.69038 0.74192 0.89795 0.0
O24 O 0.79647 0.8904 0.90873 0.0
C25 C 0.7229 0.73258 0.07379 0.0
O26 O 0.77852 0.86923 -0.00832 0.0
O27 O 0.70864 0.76006 0.06245 0.0
C28 C 0.05055 0.88884 0.01498 0.0
O29 O 0.05897 0.89344 0.06445 0.0
Cd30 Cd 0.12964 0.95402 0.10124 0.0
O31 O 0.08163 0.91348 -0.01724 0.0
Cd32 Cd 0.16301 -0.02703 -0.01574 0.0
C33 C 0.13084 0.0442 0.03382 0.0
O34 O 0.19549 0.95798 0.0635 0.0
O35 O 0.22864 0.02769 0.03538 0.0
O36 O 0.18988 0.93129 0.93324 0.0
C37 C 0.22913 -0.00149 0.06656 0.0
O38 O 0.12812 0.02319 0.07666 0.0
C39 C 0.20285 0.95775 0.89395 0.0
O40 O 0.14001 0.0315 -0.00967 0.0
O41 O 0.19556 -0.00867 0.89489 0.0
C42 C 0.54211 0.40727 0.23994 0.0
O43 O 0.55028 0.42386 0.1938 0.0
Cd44 Cd 0.61278 0.49912 0.17742 0.0
O45 O 0.56211 0.43295 0.28006 0.0
Cd46 Cd 0.6144 0.516 0.29806 0.0
C47 C 0.69386 0.49252 0.25769 0.0
O48 O 0.60745 0.55803 0.22271 0.0
O49 O 0.67203 0.58923 0.26604 0.0
O50 O 0.55527 0.51551 0.35168 0.0
C51 C 0.64688 0.59271 0.23065 0.0
O52 O 0.67894 0.49534 0.21195 0.0
C53 C 0.58187 0.53839 0.38991 0.0
O54 O 0.67481 0.49571 0.29941 0.0
O55 O 0.62359 0.5489 0.38694 0.0
C56 C 0.54805 0.1428 0.24196 0.0
O57 O 0.53047 0.13441 0.19558 0.0
Cd58 Cd 0.45503 0.12112 0.17679 0.0
O59 O 0.52364 0.13824 0.28186 0.0
Cd60 Cd 0.44245 0.11126 0.30164 0.0
C61 C 0.46466 0.21238 0.25231 0.0
O62 O 0.40118 0.0596 0.22765 0.0
O63 O 0.3673 0.0908 0.26759 0.0
O64 O 0.44595 0.05655 0.36116 0.0
C65 C 0.36539 0.06253 0.23308 0.0
O66 O 0.46036 0.19253 0.20781 0.0
C67 C 0.42318 0.06149 0.39744 0.0
O68 O 0.46262 0.19207 0.29561 0.0
O69 O 0.41163 0.09179 0.39076 0.0
C70 C 0.80963 0.41318 0.25447 0.0
O71 O 0.81899 0.4048 0.20878 0.0
Cd72 Cd 0.83364 0.34375 0.1898 0.0
O73 O 0.81357 0.39271 0.2948 0.0
Cd74 Cd 0.84103 0.33818 0.31525 0.0
C75 C 0.74221 0.25988 0.25905 0.0
O76 O 0.89443 0.35078 0.24469 0.0
O77 O 0.86291 0.28479 0.28176 0.0
O78 O 0.89157 0.39214 0.38222 0.0
C79 C 0.89154 0.31197 0.24913 0.0
O80 O 0.76231 0.27616 0.21558 0.0
C81 C 0.88398 0.36221 0.41693 0.0
O82 O 0.76179 0.27779 0.30334 0.0
O83 O 0.85478 0.32095 0.40528 0.0
C84 C 0.38665 0.82978 0.70852 0.0
O85 O 0.37321 0.83083 0.75488 0.0
Cd86 Cd 0.30944 0.84067 0.77469 0.0
O87 O 0.3701 0.84019 0.66867 0.0
Cd88 Cd 0.3165 0.87008 0.65151 0.0
C89 C 0.23476 0.76193 0.68162 0.0
O90 O 0.32309 0.90941 0.73441 0.0
O91 O 0.26598 0.8974 0.68379 0.0
O92 O 0.3785 0.92905 0.60084 0.0
C93 C 0.28856 0.91431 0.72649 0.0
O94 O 0.24698 0.77397 0.72971 0.0
C95 C 0.35293 0.92835 0.56297 0.0
O96 O 0.25507 0.78957 0.64404 0.0
O97 O 0.3106 0.89886 0.56482 0.0
C98 C 0.19118 0.48196 0.62184 0.0
O99 O 0.18074 0.48196 0.57336 0.0
Cd100 Cd 0.11108 0.482 0.55118 0.0
O101 O 0.16248 0.47594 0.65729 0.0
Cd102 Cd 0.0829 0.45767 0.66958 0.0
C103 C 0.12658 0.56842 0.63866 0.0
O104 O 0.04626 0.41679 0.58781 0.0
O105 O 0.01183 0.44662 0.62987 0.0
O106 O 0.08217 0.39604 0.71856 0.0
C107 C 0.01125 0.42129 0.59234 0.0
O108 O 0.12573 0.55455 0.59145 0.0
C109 C 0.05918 0.39743 0.75691 0.0
O110 O 0.11417 0.54055 0.67709 0.0
O111 O 0.04717 0.42776 0.75566 0.0
C112 C 0.37921 0.5624 0.68916 0.0
O113 O 0.38925 0.56984 0.73823 0.0
Cd114 Cd 0.46282 0.62883 0.77151 0.0
O115 O 0.40969 0.58325 0.65484 0.0
Cd116 Cd 0.49221 0.63744 0.64801 0.0
C117 C 0.4678 0.71668 0.69498 0.0
O118 O 0.52154 0.62238 0.72972 0.0
O119 O 0.56762 0.68334 0.68738 0.0
O120 O 0.48952 0.5788 0.59008 0.0
C121 C 0.56081 0.65772 0.72673 0.0
O122 O 0.46529 0.69783 0.73937 0.0
C123 C 0.51567 0.60621 0.55566 0.0
O124 O 0.47443 0.70047 0.65237 0.0
O125 O 0.52933 0.64853 0.5626 0.0
C126 C 0.11986 0.1015 0.08394 0.0
C127 C 0.11897 0.08093 0.0352 0.0
H128 H 0.09919 0.14223 0.1274 0.0
C129 C 0.1015 0.09183 -0.00991 0.0
H130 H 0.13386 0.09449 0.11927 0.0
C131 C 0.08142 0.11943 -0.00522 0.0
C132 C 0.07867 0.1365 0.04463 0.0
H133 H 0.10053 0.0766 0.95195 0.0
H134 H 0.06534 0.12471 0.96014 0.0
C135 C 0.10004 0.129 0.08858 0.0
C136 C 0.82933 -0.01685 0.93415 0.0
C137 C 0.81053 0.94851 -0.02784 0.0
H138 H 0.87065 0.05471 0.91947 0.0
C139 C 0.81462 0.9612 0.02588 0.0
H140 H 0.82652 -0.0253 0.89238 0.0
C141 C 0.84006 0.00721 0.04144 0.0
C142 C 0.86192 0.04157 0.00363 0.0
H143 H 0.80033 0.9355 0.05623 0.0
H144 H 0.84445 0.01555 0.08332 0.0
C145 C 0.85472 0.02915 0.94971 0.0
C146 C 0.92145 0.82326 0.01274 0.0
C147 C 0.91164 0.82591 0.959 0.0
H148 H -0.02679 0.84043 0.07268 0.0
C149 C 0.94746 0.84235 0.92289 0.0
H150 H 0.89459 0.81026 0.04157 0.0
C151 C -0.00743 0.85951 0.94073 0.0
C152 C 0.00281 0.86067 -0.00493 0.0
H153 H 0.94106 0.84429 0.88111 0.0
H154 H 0.01958 0.87435 0.91217 0.0
C155 C -0.03341 0.84046 0.03061 0.0
C156 C 0.7835 0.46419 0.21464 0.0
C157 C 0.78801 0.44196 0.25931 0.0
H158 H 0.75074 0.49815 0.17944 0.0
C159 C 0.76655 0.44271 0.30627 0.0
H160 H 0.79999 0.46482 0.17802 0.0
C161 C 0.7381 0.46196 0.30709 0.0
C162 C 0.73062 0.48068 0.26095 0.0
H163 H 0.76951 0.42609 0.3415 0.0
H164 H 0.71991 0.45968 0.34286 0.0
C165 C 0.75512 0.48327 0.21545 0.0
C166 C 0.47418 0.28142 0.20479 0.0
C167 C 0.47667 0.26113 0.25236 0.0
H168 H 0.49207 0.34321 0.16379 0.0
C169 C 0.49507 0.28894 0.29786 0.0
H170 H 0.45962 0.26099 0.1691 0.0
C171 C 0.51374 0.33644 0.29478 0.0
C172 C 0.51431 0.35697 0.24615 0.0
H173 H 0.49733 0.27439 0.33516 0.0
H174 H 0.52992 0.35719 0.32987 0.0
C175 C 0.49273 0.3287 0.20173 0.0
C176 C 0.61958 0.18243 0.29825 0.0
C177 C 0.59831 0.16451 0.24872 0.0
H178 H 0.68203 0.22657 0.34057 0.0
C179 C 0.62576 0.17297 0.20432 0.0
H180 H 0.59947 0.17633 0.33335 0.0
C181 C 0.673 0.20182 0.20846 0.0
C182 C 0.69387 0.22282 0.2571 0.0
H183 H 0.61059 0.15931 0.16567 0.0
H184 H 0.69283 0.20935 0.1729 0.0
C185 C 0.66695 0.21131 0.30241 0.0
C186 C 0.41814 0.79074 0.65201 0.0
C187 C 0.41703 0.81027 0.70091 0.0
H188 H 0.43559 0.74563 0.61139 0.0
C189 C 0.44012 0.80516 0.74478 0.0
H190 H 0.40077 0.79418 0.61738 0.0
C191 C 0.46003 0.77764 0.74128 0.0
C192 C 0.45729 0.75442 0.69386 0.0
H193 H 0.44058 0.82032 0.7828 0.0
H194 H 0.47529 0.77243 0.77676 0.0
C195 C 0.43814 0.76296 0.64851 0.0
C196 C 0.19127 0.69654 0.61751 0.0
C197 C 0.20034 0.71344 0.66979 0.0
H198 H 0.16043 0.63756 0.56659 0.0
C199 C 0.17987 0.68246 0.71133 0.0
H200 H 0.2062 0.71937 0.58455 0.0
C201 C 0.15368 0.63544 0.70108 0.0
C202 C 0.14726 0.61828 0.64906 0.0
H203 H 0.18574 0.69424 0.75213 0.0
H204 H 0.14025 0.61249 0.7342 0.0
C205 C 0.165 0.6495 0.60726 0.0
C206 C 0.25009 0.49575 0.69205 0.0
C207 C 0.23838 0.49425 0.63809 0.0
H208 H 0.30372 0.51797 0.75059 0.0
C209 C 0.27316 0.50947 0.60073 0.0
H210 H 0.2241 0.48385 0.7219 0.0
C211 C 0.31893 0.52903 0.61725 0.0
C212 C 0.33085 0.53378 0.67147 0.0
H213 H 0.26532 0.5085 0.55885 0.0
H214 H 0.34504 0.54251 0.58754 0.0
C215 C 0.29582 0.5153 0.70856 0.0
C216 C 0.06269 0.3143 0.85398 0.0
C217 C 0.01915 0.29497 0.87596 0.0
H218 H 0.10914 0.36163 0.79819 0.0
C219 C -0.01065 0.31077 0.85998 0.0
H220 H 0.0863 0.30281 0.86586 0.0
C221 C 0.00301 0.34555 0.82273 0.0
C222 C 0.0461 0.36397 0.79974 0.0
H223 H -0.04424 0.2967 0.87687 0.0
H224 H -0.02055 0.35709 0.8108 0.0
C225 C 0.07574 0.34795 0.8155 0.0
C226 C 0.67242 0.7193 0.803 0.0
C227 C 0.6573 0.71688 0.85485 0.0
H228 H 0.65307 0.7025 0.72129 0.0
C229 C 0.61033 0.69144 0.86489 0.0
H230 H 0.7085 0.73875 0.79436 0.0
C231 C 0.5788 0.66947 0.82337 0.0
C232 C 0.59385 0.67389 0.77122 0.0
H233 H 0.59799 0.68889 0.90471 0.0
H234 H 0.54263 0.651 0.83172 0.0
C235 C 0.64084 0.69856 0.76135 0.0
C236 C 0.27759 0.92268 0.82203 0.0
C237 C 0.26983 0.92961 0.76907 0.0
H238 H 0.26146 0.92543 0.9029 0.0
C239 C 0.24153 0.94818 0.75728 0.0
H240 H 0.29902 0.90817 0.83219 0.0
C241 C 0.22085 0.95914 0.79799 0.0
C242 C 0.22707 0.9502 0.85072 0.0
H243 H 0.23511 0.95382 0.71663 0.0
H244 H 0.19876 -0.02704 0.78816 0.0
C245 C 0.25587 0.93226 0.8624 0.0
C246 C 0.31517 0.00222 0.16694 0.0
C247 C 0.32882 0.04428 0.19239 0.0
H248 H 0.27126 0.95384 0.10738 0.0
C249 C 0.30869 0.07033 0.17708 0.0
H250 H 0.33039 -0.01831 0.17822 0.0
C251 C 0.27635 0.05527 0.13592 0.0
C252 C 0.26258 0.01327 0.11047 0.0
H253 H 0.31894 0.10307 0.19585 0.0
H254 H 0.26189 0.07638 0.12415 0.0
C255 C 0.28151 -0.01364 0.12673 0.0
C256 C -0.03246 0.29829 0.15159 0.0
C257 C 0.9358 0.25767 0.12523 0.0
H258 H -0.02211 0.34834 0.21131 0.0
C259 C 0.88985 0.23541 0.1399 0.0
H260 H 0.00316 0.31599 0.14071 0.0
C261 C 0.87593 0.25294 0.18098 0.0
C262 C 0.90744 0.29373 0.20699 0.0
H263 H 0.86482 0.20393 0.12031 0.0
H264 H 0.8403 0.23498 0.19192 0.0
C265 C -0.04678 0.31672 0.1917 0.0
C266 C 0.71346 0.65325 0.18339 0.0
C267 C 0.66643 0.63101 0.19349 0.0
H268 H 0.76804 0.70261 0.13676 0.0
C269 C 0.63854 0.64457 0.16639 0.0
H270 H 0.7357 0.64332 0.2036 0.0
C271 C 0.65742 0.67956 0.12924 0.0
C272 C 0.70409 0.7003 0.11762 0.0
H273 H 0.60221 0.62795 0.17368 0.0
H274 H 0.63522 0.68899 0.108 0.0
C275 C 0.73198 0.68709 0.14518 0.0
C276 C -0.0396 0.36136 0.5267 0.0
C277 C -0.02491 0.404 0.5511 0.0
H278 H 0.91813 0.31381 0.4659 0.0
C279 C -0.04339 0.43111 0.53401 0.0
H280 H -0.02581 0.33991 0.53947 0.0
C281 C 0.9257 0.41686 0.49115 0.0
C282 C 0.91159 0.37457 0.46613 0.0
H283 H -0.03235 0.46424 0.55221 0.0
H284 H 0.91343 0.4392 0.47694 0.0
C285 C 0.9282 0.34636 0.48506 0.0
C286 C 0.59384 0.5984 0.45629 0.0
C287 C 0.5654 0.55494 0.4336 0.0
H288 H 0.59958 0.64946 0.51159 0.0
C289 C 0.52012 0.52895 0.45029 0.0
H290 H 0.62871 0.6193 0.4435 0.0
C291 C 0.50379 0.54578 0.48987 0.0
C292 C 0.53198 0.58954 0.51192 0.0
H293 H 0.4975 0.49546 0.43308 0.0
H294 H 0.46901 0.52477 0.5029 0.0
C295 C 0.57703 0.61586 0.4946 0.0
C296 C 0.34475 -0.01961 0.49957 0.0
C297 C 0.37121 0.96241 0.52065 0.0
H298 H 0.34146 0.02746 0.44532 0.0
C299 C 0.41584 -0.02115 0.50276 0.0
H300 H 0.31045 0.96864 0.51326 0.0
C301 C 0.43318 0.01172 0.4631 0.0
C302 C 0.4068 0.02991 0.4423 0.0
H303 H 0.43693 0.96563 0.5187 0.0
H304 H 0.46719 0.02296 0.44872 0.0
C305 C 0.36268 0.0144 0.46131 0.0
loop_
_geom_bond_atom_site_label_1
_geom_bond_atom_site_label_2
_geom_bond_distance
_geom_bond_site_symmetry_2
_ccdc_geom_bond_type
C0 O1 1.306 . S
C0 O3 1.160 1_554 S
O1 C0 1.306 . S
O1 Cd2 2.228 . S
Cd2 O1 2.228 . S
Cd2 O6 2.273 . S
Cd2 O10 2.277 1_455 S
O3 C0 1.160 1_556 S
O3 Cd4 2.203 1_556 S
Cd4 O3 2.203 1_554 S
Cd4 O6 2.411 . S
Cd4 O7 2.333 1_455 S
Cd4 O8 2.352 1_554 S
Cd4 O12 2.277 1_454 S
Cd4 O13 2.356 1_554 S
C5 O10 1.209 . S
C5 O12 1.226 1_554 S
O6 Cd2 2.273 . S
O6 Cd4 2.411 . S
O6 C9 1.320 1_455 S
O7 Cd4 2.333 1_655 S
O7 C9 1.214 . S
O8 Cd4 2.352 1_556 S
O8 C11 1.258 . S
C9 O6 1.320 1_655 S
C9 O7 1.214 . S
O10 Cd2 2.277 1_655 S
O10 C5 1.209 . S
C11 O8 1.258 . S
C11 O13 1.282 . S
O12 Cd4 2.277 1_656 S
O12 C5 1.226 1_556 S
O13 Cd4 2.356 1_556 S
O13 C11 1.282 . S
C14 O15 1.306 1_554 S
C14 O17 1.160 . S
O15 C14 1.306 1_556 S
O15 Cd16 2.228 . S
Cd16 O15 2.228 . S
Cd16 O20 2.273 . S
Cd16 O24 2.277 . S
O17 C14 1.160 . S
O17 Cd18 2.203 . S
Cd18 O17 2.203 . S
Cd18 O20 2.411 1_554 S
Cd18 O21 2.333 1_554 S
Cd18 O22 2.352 . S
Cd18 O26 2.277 . S
Cd18 O27 2.356 . S
C19 O24 1.209 1_554 S
C19 O26 1.226 . S
O20 Cd16 2.273 . S
O20 Cd18 2.411 1_556 S
O20 C23 1.320 . S
O21 Cd18 2.333 1_556 S
O21 C23 1.214 . S
O22 Cd18 2.352 . S
O22 C25 1.258 . S
C23 O20 1.320 . S
C23 O21 1.214 . S
O24 Cd16 2.277 . S
O24 C19 1.209 1_556 S
C25 O22 1.258 . S
C25 O27 1.282 . S
O26 Cd18 2.277 . S
O26 C19 1.226 . S
O27 Cd18 2.356 . S
O27 C25 1.282 . S
C28 O29 1.306 . S
C28 O31 1.160 1_554 S
O29 C28 1.306 . S
O29 Cd30 2.228 1_565 S
Cd30 O29 2.228 1_545 S
Cd30 O34 2.273 . S
Cd30 O38 2.277 . S
O31 C28 1.160 1_556 S
O31 Cd32 2.203 1_565 S
Cd32 O31 2.203 1_545 S
Cd32 O34 2.411 1_556 S
Cd32 O35 2.333 1_556 S
Cd32 O36 2.352 1_545 S
Cd32 O40 2.277 . S
Cd32 O41 2.356 . S
C33 O38 1.209 . S
C33 O40 1.226 1_554 S
O34 Cd30 2.273 . S
O34 Cd32 2.411 1_554 S
O34 C37 1.320 . S
O35 Cd32 2.333 1_554 S
O35 C37 1.214 . S
O36 Cd32 2.352 1_565 S
O36 C39 1.258 . S
C37 O34 1.320 . S
C37 O35 1.214 . S
O38 Cd30 2.277 . S
O38 C33 1.209 . S
C39 O36 1.258 . S
C39 O41 1.282 1_565 S
O40 Cd32 2.277 . S
O40 C33 1.226 1_556 S
O41 Cd32 2.356 . S
O41 C39 1.282 1_545 S
C42 O43 1.306 . S
C42 O45 1.160 . S
O43 C42 1.306 . S
O43 Cd44 2.228 . S
Cd44 O43 2.228 . S
Cd44 O48 2.273 . S
Cd44 O52 2.277 . S
O45 C42 1.160 . S
O45 Cd46 2.203 . S
Cd46 O45 2.203 . S
Cd46 O48 2.411 . S
Cd46 O49 2.333 . S
Cd46 O50 2.352 . S
Cd46 O54 2.277 . S
Cd46 O55 2.356 . S
C47 O52 1.209 . S
C47 O54 1.226 . S
O48 Cd44 2.273 . S
O48 Cd46 2.411 . S
O48 C51 1.320 . S
O49 Cd46 2.333 . S
O49 C51 1.214 . S
O50 Cd46 2.352 . S
O50 C53 1.258 . S
C51 O48 1.320 . S
C51 O49 1.214 . S
O52 Cd44 2.277 . S
O52 C47 1.209 . S
C53 O50 1.258 . S
C53 O55 1.282 . S
O54 Cd46 2.277 . S
O54 C47 1.226 . S
O55 Cd46 2.356 . S
O55 C53 1.282 . S
C56 O57 1.306 . S
C56 O59 1.160 . S
O57 C56 1.306 . S
O57 Cd58 2.228 . S
Cd58 O57 2.228 . S
Cd58 O62 2.273 . S
Cd58 O66 2.277 . S
O59 C56 1.160 . S
O59 Cd60 2.203 . S
Cd60 O59 2.203 . S
Cd60 O62 2.411 . S
Cd60 O63 2.333 . S
Cd60 O64 2.352 . S
Cd60 O68 2.277 . S
Cd60 O69 2.356 . S
C61 O66 1.209 . S
C61 O68 1.226 . S
O62 Cd58 2.273 . S
O62 Cd60 2.411 . S
O62 C65 1.320 . S
O63 Cd60 2.333 . S
O63 C65 1.214 . S
O64 Cd60 2.352 . S
O64 C67 1.258 . S
C65 O62 1.320 . S
C65 O63 1.214 . S
O66 Cd58 2.277 . S
O66 C61 1.209 . S
C67 O64 1.258 . S
C67 O69 1.282 . S
O68 Cd60 2.277 . S
O68 C61 1.226 . S
O69 Cd60 2.356 . S
O69 C67 1.282 . S
C70 O71 1.306 . S
C70 O73 1.160 . S
O71 C70 1.306 . S
O71 Cd72 2.228 . S
Cd72 O71 2.228 . S
Cd72 O76 2.273 . S
Cd72 O80 2.277 . S
O73 C70 1.160 . S
O73 Cd74 2.203 . S
Cd74 O73 2.203 . S
Cd74 O76 2.411 . S
Cd74 O77 2.333 . S
Cd74 O78 2.352 . S
Cd74 O82 2.277 . S
Cd74 O83 2.356 . S
C75 O80 1.209 . S
C75 O82 1.226 . S
O76 Cd72 2.273 . S
O76 Cd74 2.411 . S
O76 C79 1.320 . S
O77 Cd74 2.333 . S
O77 C79 1.214 . S
O78 Cd74 2.352 . S
O78 C81 1.258 . S
C79 O76 1.320 . S
C79 O77 1.214 . S
O80 Cd72 2.277 . S
O80 C75 1.209 . S
C81 O78 1.258 . S
C81 O83 1.282 . S
O82 Cd74 2.277 . S
O82 C75 1.226 . S
O83 Cd74 2.356 . S
O83 C81 1.282 . S
C84 O85 1.306 . S
C84 O87 1.160 . S
O85 C84 1.306 . S
O85 Cd86 2.228 . S
Cd86 O85 2.228 . S
Cd86 O90 2.273 . S
Cd86 O94 2.277 . S
O87 C84 1.160 . S
O87 Cd88 2.203 . S
Cd88 O87 2.203 . S
Cd88 O90 2.411 . S
Cd88 O91 2.333 . S
Cd88 O92 2.352 . S
Cd88 O96 2.277 . S
Cd88 O97 2.356 . S
C89 O94 1.209 . S
C89 O96 1.226 . S
O90 Cd86 2.273 . S
O90 Cd88 2.411 . S
O90 C93 1.320 . S
O91 Cd88 2.333 . S
O91 C93 1.214 . S
O92 Cd88 2.352 . S
O92 C95 1.258 . S
C93 O90 1.320 . S
C93 O91 1.214 . S
O94 Cd86 2.277 . S
O94 C89 1.209 . S
C95 O92 1.258 . S
C95 O97 1.282 . S
O96 Cd88 2.277 . S
O96 C89 1.226 . S
O97 Cd88 2.356 . S
O97 C95 1.282 . S
C98 O99 1.306 . S
C98 O101 1.160 . S
O99 C98 1.306 . S
O99 Cd100 2.228 . S
Cd100 O99 2.228 . S
Cd100 O104 2.273 . S
Cd100 O108 2.277 . S
O101 C98 1.160 . S
O101 Cd102 2.203 . S
Cd102 O101 2.203 . S
Cd102 O104 2.411 . S
Cd102 O105 2.333 . S
Cd102 O106 2.352 . S
Cd102 O110 2.277 . S
Cd102 O111 2.356 . S
C103 O108 1.209 . S
C103 O110 1.226 . S
O104 Cd100 2.273 . S
O104 Cd102 2.411 . S
O104 C107 1.320 . S
O105 Cd102 2.333 . S
O105 C107 1.214 . S
O106 Cd102 2.352 . S
O106 C109 1.258 . S
C107 O104 1.320 . S
C107 O105 1.214 . S
O108 Cd100 2.277 . S
O108 C103 1.209 . S
C109 O106 1.258 . S
C109 O111 1.282 . S
O110 Cd102 2.277 . S
O110 C103 1.226 . S
O111 Cd102 2.356 . S
O111 C109 1.282 . S
C112 O113 1.306 . S
C112 O115 1.160 . S
O113 C112 1.306 . S
O113 Cd114 2.228 . S
Cd114 O113 2.228 . S
Cd114 O118 2.273 . S
Cd114 O122 2.277 . S
O115 C112 1.160 . S
O115 Cd116 2.203 . S
Cd116 O115 2.203 . S
Cd116 O118 2.411 . S
Cd116 O119 2.333 . S
Cd116 O120 2.352 . S
Cd116 O124 2.277 . S
Cd116 O125 2.356 . S
C117 O122 1.209 . S
C117 O124 1.226 . S
O118 Cd114 2.273 . S
O118 Cd116 2.411 . S
O118 C121 1.320 . S
O119 Cd116 2.333 . S
O119 C121 1.214 . S
O120 Cd116 2.352 . S
O120 C123 1.258 . S
C121 O118 1.320 . S
C121 O119 1.214 . S
O122 Cd114 2.277 . S
O122 C117 1.209 . S
C123 O120 1.258 . S
C123 O125 1.282 . S
O124 Cd116 2.277 . S
O124 C117 1.226 . S
O125 Cd116 2.356 . S
O125 C123 1.282 . S
C126 C127 1.387 . S
C126 H130 0.950 . S
C126 C135 1.390 . S
C127 C126 1.387 . S
C127 C129 1.387 1_554 S
H128 C135 0.950 . S
C129 C127 1.387 1_556 S
C129 C131 1.390 . S
C129 H133 0.950 . S
H130 C126 0.950 . S
C131 C129 1.390 . S
C131 C132 1.387 1_556 S
C131 H134 0.950 . S
C132 C131 1.387 1_554 S
C132 C135 1.387 . S
H133 C129 0.950 . S
H134 C131 0.950 . S
C135 C126 1.390 . S
C135 H128 0.950 . S
C135 C132 1.387 . S
C136 C137 1.387 . S
C136 H140 0.950 1_554 S
C136 C145 1.388 1_564 S
C137 C136 1.387 . S
C137 C139 1.387 . S
H138 C145 0.958 . S
C139 C137 1.387 . S
C139 C141 1.390 1_565 S
C139 H143 0.950 . S
H140 C136 0.950 1_556 S
C141 C139 1.390 1_545 S
C141 C142 1.387 . S
C141 H144 0.950 . S
C142 C141 1.387 . S
C142 C145 1.381 1_554 S
H143 C139 0.950 . S
H144 C141 0.950 . S
C145 C136 1.388 1_546 S
C145 H138 0.958 . S
C145 C142 1.381 1_556 S
C146 C147 1.387 . S
C146 H150 0.950 . S
C146 C155 1.390 1_655 S
C147 C146 1.387 . S
C147 C149 1.387 1_554 S
H148 C155 0.950 . S
C149 C147 1.387 1_556 S
C149 C151 1.390 1_655 S
C149 H153 0.950 . S
H150 C146 0.950 . S
C151 C149 1.390 1_455 S
C151 C152 1.387 1_556 S
C151 H154 0.950 . S
C152 C151 1.387 1_554 S
C152 C155 1.387 . S
H153 C149 0.950 . S
H154 C151 0.950 . S
C155 C146 1.390 1_455 S
C155 H148 0.950 . S
C155 C152 1.387 . S
C156 C157 1.387 . S
C156 H160 0.950 . S
C156 C165 1.390 . S
C157 C156 1.387 . S
C157 C159 1.387 . S
H158 C165 0.950 . S
C159 C157 1.387 . S
C159 C161 1.390 . S
C159 H163 0.950 . S
H160 C156 0.950 . S
C161 C159 1.390 . S
C161 C162 1.387 . S
C161 H164 0.950 . S
C162 C161 1.387 . S
C162 C165 1.387 . S
H163 C159 0.950 . S
H164 C161 0.950 . S
C165 C156 1.390 . S
C165 H158 0.950 . S
C165 C162 1.387 . S
C166 C167 1.387 . S
C166 H170 0.950 . S
C166 C175 1.390 . S
C167 C166 1.387 . S
C167 C169 1.387 . S
H168 C175 0.950 . S
C169 C167 1.387 . S
C169 C171 1.390 . S
C169 H173 0.950 . S
H170 C166 0.950 . S
C171 C169 1.390 . S
C171 C172 1.387 . S
C171 H174 0.950 . S
C172 C171 1.387 . S
C172 C175 1.387 . S
H173 C169 0.950 . S
H174 C171 0.950 . S
C175 C166 1.390 . S
C175 H168 0.950 . S
C175 C172 1.387 . S
C176 C177 1.387 . S
C176 H180 0.950 . S
C176 C185 1.390 . S
C177 C176 1.387 . S
C177 C179 1.387 . S
H178 C185 0.950 . S
C179 C177 1.387 . S
C179 C181 1.390 . S
C179 H183 0.950 . S
H180 C176 0.950 . S
C181 C179 1.390 . S
C181 C182 1.387 . S
C181 H184 0.950 . S
C182 C181 1.387 . S
C182 C185 1.387 . S
H183 C179 0.950 . S
H184 C181 0.950 . S
C185 C176 1.390 . S
C185 H178 0.950 . S
C185 C182 1.387 . S
C186 C187 1.387 . S
C186 H190 0.950 . S
C186 C195 1.390 . S
C187 C186 1.387 . S
C187 C189 1.387 . S
H188 C195 0.950 . S
C189 C187 1.387 . S
C189 C191 1.390 . S
C189 H193 0.950 . S
H190 C186 0.950 . S
C191 C189 1.390 . S
C191 C192 1.387 . S
C191 H194 0.950 . S
C192 C191 1.387 . S
C192 C195 1.387 . S
H193 C189 0.950 . S
H194 C191 0.950 . S
C195 C186 1.390 . S
C195 H188 0.950 . S
C195 C192 1.387 . S
C196 C197 1.387 . S
C196 H200 0.950 . S
C196 C205 1.390 . S
C197 C196 1.387 . S
C197 C199 1.387 . S
H198 C205 0.950 . S
C199 C197 1.387 . S
C199 C201 1.390 . S
C199 H203 0.950 . S
H200 C196 0.950 . S
C201 C199 1.390 . S
C201 C202 1.387 . S
C201 H204 0.950 . S
C202 C201 1.387 . S
C202 C205 1.387 . S
H203 C199 0.950 . S
H204 C201 0.950 . S
C205 C196 1.390 . S
C205 H198 0.950 . S
C205 C202 1.387 . S
C206 C207 1.387 . S
C206 H210 0.950 . S
C206 C215 1.390 . S
C207 C206 1.387 . S
C207 C209 1.387 . S
H208 C215 0.950 . S
C209 C207 1.387 . S
C209 C211 1.390 . S
C209 H213 0.950 . S
H210 C206 0.950 . S
C211 C209 1.390 . S
C211 C212 1.387 . S
C211 H214 0.950 . S
C212 C211 1.387 . S
C212 C215 1.387 . S
H213 C209 0.950 . S
H214 C211 0.950 . S
C215 C206 1.390 . S
C215 H208 0.950 . S
C215 C212 1.387 . S
C216 C217 1.387 . S
C216 H220 0.950 . S
C216 C225 1.390 . S
C217 C216 1.387 . S
C217 C219 1.387 . S
H218 C225 0.950 . S
C219 C217 1.387 . S
C219 C221 1.390 . S
C219 H223 0.950 . S
H220 C216 0.950 . S
C221 C219 1.390 . S
C221 C222 1.387 . S
C221 H224 0.950 . S
C222 C221 1.387 . S
C222 C225 1.387 . S
H223 C219 0.950 . S
H224 C221 0.950 . S
C225 C216 1.390 . S
C225 H218 0.950 . S
C225 C222 1.387 . S
C226 C227 1.387 . S
C226 H230 0.950 . S
C226 C235 1.390 . S
C227 C226 1.387 . S
C227 C229 1.387 . S
H228 C235 0.950 . S
C229 C227 1.387 . S
C229 C231 1.390 . S
C229 H233 0.950 . S
H230 C226 0.950 . S
C231 C229 1.390 . S
C231 C232 1.387 . S
C231 H234 0.950 . S
C232 C231 1.387 . S
C232 C235 1.387 . S
H233 C229 0.950 . S
H234 C231 0.950 . S
C235 C226 1.390 . S
C235 H228 0.950 . S
C235 C232 1.387 . S
C236 C237 1.387 . S
C236 H240 0.950 . S
C236 C245 1.390 . S
C237 C236 1.387 . S
C237 C239 1.387 . S
H238 C245 0.950 . S
C239 C237 1.387 . S
C239 C241 1.390 . S
C239 H243 0.950 . S
H240 C236 0.950 . S
C241 C239 1.390 . S
C241 C242 1.387 . S
C241 H244 0.950 1_565 S
C242 C241 1.387 . S
C242 C245 1.387 . S
H243 C239 0.950 . S
H244 C241 0.950 1_545 S
C245 C236 1.390 . S
C245 H238 0.950 . S
C245 C242 1.387 . S
C246 C247 1.387 . S
C246 H250 0.950 . S
C246 C255 1.390 . S
C247 C246 1.387 . S
C247 C249 1.387 . S
H248 C255 0.950 . S
C249 C247 1.387 . S
C249 C251 1.390 . S
C249 H253 0.950 . S
H250 C246 0.950 . S
C251 C249 1.390 . S
C251 C252 1.387 . S
C251 H254 0.950 . S
C252 C251 1.387 . S
C252 C255 1.387 . S
H253 C249 0.950 . S
H254 C251 0.950 . S
C255 C246 1.390 . S
C255 H248 0.950 . S
C255 C252 1.387 . S
C256 C257 1.387 . S
C256 H260 0.950 1_655 S
C256 C265 1.390 . S
C257 C256 1.387 . S
C257 C259 1.387 . S
H258 C265 0.950 . S
C259 C257 1.387 . S
C259 C261 1.390 . S
C259 H263 0.950 . S
H260 C256 0.950 1_455 S
C261 C259 1.390 . S
C261 C262 1.387 . S
C261 H264 0.950 . S
C262 C261 1.387 . S
C262 C265 1.387 . S
H263 C259 0.950 . S
H264 C261 0.950 . S
C265 C256 1.390 . S
C265 H258 0.950 . S
C265 C262 1.387 . S
C266 C267 1.387 . S
C266 H270 0.950 . S
C266 C275 1.390 . S
C267 C266 1.387 . S
C267 C269 1.387 . S
H268 C275 0.950 . S
C269 C267 1.387 . S
C269 C271 1.390 . S
C269 H273 0.950 . S
H270 C266 0.950 . S
C271 C269 1.390 . S
C271 C272 1.387 . S
C271 H274 0.950 . S
C272 C271 1.387 . S
C272 C275 1.387 . S
H273 C269 0.950 . S
H274 C271 0.950 . S
C275 C266 1.390 . S
C275 H268 0.950 . S
C275 C272 1.387 . S
C276 C277 1.387 . S
C276 H280 0.950 . S
C276 C285 1.390 1_455 S
C277 C276 1.387 . S
C277 C279 1.387 . S
H278 C285 0.950 . S
C279 C277 1.387 . S
C279 C281 1.390 . S
C279 H283 0.950 . S
H280 C276 0.950 . S
C281 C279 1.390 . S
C281 C282 1.387 1_455 S
C281 H284 0.950 . S
C282 C281 1.387 1_655 S
C282 C285 1.387 . S
H283 C279 0.950 . S
H284 C281 0.950 . S
C285 C276 1.390 1_655 S
C285 H278 0.950 . S
C285 C282 1.387 . S
C286 C287 1.387 . S
C286 H290 0.950 . S
C286 C295 1.390 . S
C287 C286 1.387 . S
C287 C289 1.387 . S
H288 C295 0.950 . S
C289 C287 1.387 . S
C289 C291 1.390 . S
C289 H293 0.950 . S
H290 C286 0.950 . S
C291 C289 1.390 . S
C291 C292 1.387 . S
C291 H294 0.950 . S
C292 C291 1.387 . S
C292 C295 1.387 . S
H293 C289 0.950 . S
H294 C291 0.950 . S
C295 C286 1.390 . S
C295 H288 0.950 . S
C295 C292 1.387 . S
C296 C297 1.387 . S
C296 H300 0.950 . S
C296 C305 1.390 1_565 S
C297 C296 1.387 . S
C297 C299 1.387 1_565 S
H298 C305 0.950 . S
C299 C297 1.387 1_545 S
C299 C301 1.390 . S
C299 H303 0.950 1_545 S
H300 C296 0.950 . S
C301 C299 1.390 . S
C301 C302 1.387 . S
C301 H304 0.950 . S
C302 C301 1.387 . S
C302 C305 1.387 . S
H303 C299 0.950 1_565 S
H304 C301 0.950 . S
C305 C296 1.390 1_545 S
C305 H298 0.950 . S
C305 C302 1.387 . S
C127 C33 1.211 . S
C132 C0 1.210 . S
C137 C19 1.237 . S
C142 C5 1.233 . S
C147 C14 1.199 . S
C152 C28 1.204 . S
C157 C70 1.194 . S
C162 C47 1.199 . S
C167 C61 1.179 . S
C172 C42 1.176 . S
C177 C56 1.210 . S
C182 C75 1.218 . S
C187 C84 1.175 . S
C192 C117 1.184 . S
C197 C89 1.181 . S
C202 C103 1.181 . S
C207 C98 1.147 . S
C212 C112 1.156 . S
C217 C11 1.417 . S
C222 C109 1.416 . S
C227 C23 1.440 . S
C232 C121 1.440 . S
C237 C93 1.424 . S
C242 C39 1.426 . S
C247 C65 1.406 . S
C252 C37 1.407 . S
C257 C9 1.441 . S
C262 C79 1.442 . S
C267 C51 1.431 . S
C272 C25 1.439 . S
C277 C107 1.431 . S
C282 C81 1.427 . S
C287 C53 1.416 . S
C292 C123 1.415 . S
C297 C95 1.445 . S
C302 C67 1.444 . S
