# Generated by pormake.
# Topology gsi, (4)-cn, num edge types: 1
# Building blocks:
#     Node 0, Type 0, BuildingBlock: TATPOV_clean_sbu_0, # of connection points: 4
#     Node 1, Type 0, BuildingBlock: TATPOV_clean_sbu_0, # of connection points: 4
#     Node 2, Type 0, BuildingBlock: TATPOV_clean_sbu_0, # of connection points: 4
#     Node 3, Type 0, BuildingBlock: TATPOV_clean_sbu_0, # of connection points: 4
#     Node 4, Type 0, BuildingBlock: TATPOV_clean_sbu_0, # of connection points: 4
#     Node 5, Type 0, BuildingBlock: TATPOV_clean_sbu_0, # of connection points: 4
#     Node 6, Type 0, BuildingBlock: TATPOV_clean_sbu_0, # of connection points: 4
#     Node 7, Type 0, BuildingBlock: TATPOV_clean_sbu_0, # of connection points: 4
#     Node 8, Type 0, BuildingBlock: TATPOV_clean_sbu_0, # of connection points: 4
#     Node 9, Type 0, BuildingBlock: TATPOV_clean_sbu_0, # of connection points: 4
#     Node 10, Type 0, BuildingBlock: TATPOV_clean_sbu_0, # of connection points: 4
#     Node 11, Type 0, BuildingBlock: TATPOV_clean_sbu_0, # of connection points: 4
#     Node 12, Type 0, BuildingBlock: TATPOV_clean_sbu_0, # of connection points: 4
#     Node 13, Type 0, BuildingBlock: TATPOV_clean_sbu_0, # of connection points: 4
#     Node 14, Type 0, BuildingBlock: TATPOV_clean_sbu_0, # of connection points: 4
#     Node 15, Type 0, BuildingBlock: TATPOV_clean_sbu_0, # of connection points: 4
#     Edge 16, Type (0, 0), BuildingBlock: AJUNOK_clean_linker_0, # of connection points: 2
#     Edge 17, Type (0, 0), BuildingBlock: AJUNOK_clean_linker_0, # of connection points: 2
#     Edge 18, Type (0, 0), BuildingBlock: AJUNOK_clean_linker_0, # of connection points: 2
#     Edge 19, Type (0, 0), BuildingBlock: AJUNOK_clean_linker_0, # of connection points: 2
#     Edge 20, Type (0, 0), BuildingBlock: AJUNOK_clean_linker_0, # of connection points: 2
#     Edge 21, Type (0, 0), BuildingBlock: AJUNOK_clean_linker_0, # of connection points: 2
#     Edge 22, Type (0, 0), BuildingBlock: AJUNOK_clean_linker_0, # of connection points: 2
#     Edge 23, Type (0, 0), BuildingBlock: AJUNOK_clean_linker_0, # of connection points: 2
#     Edge 24, Type (0, 0), BuildingBlock: AJUNOK_clean_linker_0, # of connection points: 2
#     Edge 25, Type (0, 0), BuildingBlock: AJUNOK_clean_linker_0, # of connection points: 2
#     Edge 26, Type (0, 0), BuildingBlock: AJUNOK_clean_linker_0, # of connection points: 2
#     Edge 27, Type (0, 0), BuildingBlock: AJUNOK_clean_linker_0, # of connection points: 2
#     Edge 28, Type (0, 0), BuildingBlock: AJUNOK_clean_linker_0, # of connection points: 2
#     Edge 29, Type (0, 0), BuildingBlock: AJUNOK_clean_linker_0, # of connection points: 2
#     Edge 30, Type (0, 0), BuildingBlock: AJUNOK_clean_linker_0, # of connection points: 2
#     Edge 31, Type (0, 0), BuildingBlock: AJUNOK_clean_linker_0, # of connection points: 2
#     Edge 32, Type (0, 0), BuildingBlock: AJUNOK_clean_linker_0, # of connection points: 2
#     Edge 33, Type (0, 0), BuildingBlock: AJUNOK_clean_linker_0, # of connection points: 2
#     Edge 34, Type (0, 0), BuildingBlock: AJUNOK_clean_linker_0, # of connection points: 2
#     Edge 35, Type (0, 0), BuildingBlock: AJUNOK_clean_linker_0, # of connection points: 2
#     Edge 36, Type (0, 0), BuildingBlock: AJUNOK_clean_linker_0, # of connection points: 2
#     Edge 37, Type (0, 0), BuildingBlock: AJUNOK_clean_linker_0, # of connection points: 2
#     Edge 38, Type (0, 0), BuildingBlock: AJUNOK_clean_linker_0, # of connection points: 2
#     Edge 39, Type (0, 0), BuildingBlock: AJUNOK_clean_linker_0, # of connection points: 2
#     Edge 40, Type (0, 0), BuildingBlock: AJUNOK_clean_linker_0, # of connection points: 2
#     Edge 41, Type (0, 0), BuildingBlock: AJUNOK_clean_linker_0, # of connection points: 2
#     Edge 42, Type (0, 0), BuildingBlock: AJUNOK_clean_linker_0, # of connection points: 2
#     Edge 43, Type (0, 0), BuildingBlock: AJUNOK_clean_linker_0, # of connection points: 2
#     Edge 44, Type (0, 0), BuildingBlock: AJUNOK_clean_linker_0, # of connection points: 2
#     Edge 45, Type (0, 0), BuildingBlock: AJUNOK_clean_linker_0, # of connection points: 2
#     Edge 46, Type (0, 0), BuildingBlock: AJUNOK_clean_linker_0, # of connection points: 2
#     Edge 47, Type (0, 0), BuildingBlock: AJUNOK_clean_linker_0, # of connection points: 2
# Relax obj value: 0.038
# Max RMSD: 0.070
# Mean RMSD: 0.055
data_MOF--net-gsi--node1-TATPOV_clean_sbu_0--edge1-AJUNOK_clean_linker_0
_symmetry_space_group_name_H-M    P1
_symmetry_Int_Tables_number       1
_symmetry_cell_setting            triclinic
loop_
_symmetry_equiv_pos_as_xyz
'x, y, z'
_cell_length_a     31.101
_cell_length_b     32.411278
_cell_length_c     31.299528
_cell_angle_alpha  90.811345
_cell_angle_beta   89.439226
_cell_angle_gamma 93.538266
loop_
_atom_site_label
_atom_site_type_symbol
_atom_site_fract_x
_atom_site_fract_y
_atom_site_fract_z
_atom_type_partial_charge
Zn0 Zn 0.08634 0.13166 0.22391 0.0
Zn1 Zn 0.14223 0.12245 0.15882 0.0
O2 O 0.13015 0.06422 0.18435 0.0
O3 O 0.08364 0.07165 0.23692 0.0
O4 O 0.18426 0.11524 0.10976 0.0
O5 O 0.04466 0.15462 0.18364 0.0
O6 O 0.0936 0.15429 0.13231 0.0
C7 C 0.10745 0.04892 0.21519 0.0
C8 C 0.16952 0.17487 0.23626 0.0
O9 O 0.17751 0.15873 0.2 0.0
O10 O 0.1325 0.16903 0.2532 0.0
C11 C 0.21205 0.08801 0.10859 0.0
O12 O 0.21365 0.06186 0.14012 0.0
C13 C 0.05659 0.16339 0.14593 0.0
Zn14 Zn 0.91878 0.3251 0.22391 0.0
Zn15 Zn 0.8698 0.3378 0.15481 0.0
O16 O 0.88535 0.39608 0.18015 0.0
O17 O 0.92445 0.38587 0.23684 0.0
O18 O 0.83143 0.34588 0.10419 0.0
O19 O 0.96126 0.299 0.18489 0.0
O20 O 0.91788 0.30315 0.13005 0.0
C21 C 0.90629 0.41027 0.21263 0.0
C22 C 0.83281 0.28659 0.22932 0.0
O23 O 0.82931 0.3039 0.19343 0.0
O24 O 0.86824 0.29008 0.2491 0.0
C25 C 0.81006 0.37748 0.09824 0.0
O26 O 0.81343 0.40868 0.12545 0.0
C27 C 0.95248 0.2914 0.14607 0.0
Zn28 Zn 0.23821 0.87587 0.34906 0.0
Zn29 Zn 0.16083 0.84323 0.37468 0.0
O30 O 0.19272 0.85692 0.43162 0.0
O31 O 0.25257 0.89076 0.41006 0.0
O32 O 0.1018 0.81746 0.39049 0.0
O33 O 0.20934 0.91446 0.31099 0.0
O34 O 0.14616 0.89152 0.33623 0.0
C35 C 0.22841 0.87687 0.44 0.0
C36 C 0.22306 0.79215 0.32241 0.0
O37 O 0.18662 0.79717 0.33985 0.0
O38 O 0.25243 0.82094 0.32394 0.0
C39 C 0.09589 0.77913 0.3985 0.0
O40 O 0.12948 0.75654 0.4001 0.0
C41 C 0.16873 0.91538 0.31158 0.0
Zn42 Zn 0.78756 0.59424 0.33975 0.0
Zn43 Zn 0.86225 0.63169 0.36118 0.0
O44 O 0.83355 0.61659 0.41968 0.0
O45 O 0.7741 0.58103 0.40084 0.0
O46 O 0.92031 0.65994 0.37608 0.0
O47 O 0.81554 0.55519 0.30068 0.0
O48 O 0.8785 0.5828 0.32145 0.0
C49 C 0.79873 0.59591 0.42985 0.0
C50 C 0.79413 0.67791 0.31464 0.0
O51 O 0.8317 0.67746 0.33033 0.0
O52 O 0.76837 0.64625 0.31561 0.0
C53 C 0.92372 0.69711 0.38989 0.0
O54 O 0.88849 0.71675 0.39638 0.0
C55 C 0.8562 0.55643 0.29887 0.0
Zn56 Zn 0.43241 0.82867 0.72396 0.0
Zn57 Zn 0.38281 0.84492 0.65568 0.0
O58 O 0.3996 0.90277 0.68163 0.0
O59 O 0.43963 0.88935 0.73677 0.0
O60 O 0.3424 0.8522 0.60643 0.0
O61 O 0.47273 0.80196 0.68323 0.0
O62 O 0.42968 0.8103 0.62889 0.0
C63 C 0.42153 0.91521 0.71419 0.0
C64 C 0.34601 0.79365 0.73104 0.0
O65 O 0.34336 0.8115 0.69538 0.0
O66 O 0.3816 0.79503 0.75054 0.0
C67 C 0.32153 0.88371 0.59869 0.0
O68 O 0.32732 0.91716 0.62251 0.0
C69 C 0.46372 0.79663 0.64414 0.0
Zn70 Zn 0.90575 0.82391 0.81021 0.0
Zn71 Zn 0.85655 0.82821 0.87888 0.0
O72 O 0.91088 0.79861 0.89832 0.0
O73 O 0.9542 0.80266 0.84225 0.0
O74 O 0.81923 0.83209 0.93272 0.0
O75 O 0.90458 0.88334 0.79709 0.0
O76 O 0.86032 0.88716 0.8521 0.0
C77 C 0.94688 0.79192 0.88038 0.0
C78 C 0.82506 0.77559 0.80331 0.0
O79 O 0.8191 0.79015 0.84071 0.0
O80 O 0.86009 0.7845 0.78359 0.0
C81 C 0.80668 0.79802 0.94999 0.0
O82 O 0.81943 0.76359 0.93279 0.0
C83 C 0.87961 0.90394 0.81983 0.0
Zn84 Zn 0.11342 0.65288 0.7913 0.0
Zn85 Zn 0.15623 0.63671 0.86172 0.0
O86 O 0.10413 0.66781 0.88422 0.0
O87 O 0.06392 0.67157 0.82704 0.0
O88 O 0.18409 0.61924 0.91623 0.0
O89 O 0.11403 0.59507 0.7684 0.0
O90 O 0.14531 0.58122 0.82884 0.0
C91 C 0.0695 0.67764 0.86667 0.0
C92 C 0.1975 0.69659 0.79799 0.0
O93 O 0.20076 0.67576 0.83191 0.0
O94 O 0.16319 0.69305 0.77643 0.0
C95 C 0.22423 0.61631 0.92208 0.0
O96 O 0.25143 0.6255 0.89079 0.0
C97 C 0.13025 0.5694 0.79256 0.0
Zn98 Zn 0.74129 0.06892 0.67679 0.0
Zn99 Zn 0.82139 0.10926 0.66303 0.0
O100 O 0.83694 0.06031 0.69988 0.0
O101 O 0.77299 0.02934 0.71257 0.0
O102 O 0.87746 0.14414 0.65307 0.0
O103 O 0.73484 0.06421 0.61232 0.0
O104 O 0.79762 0.09808 0.60287 0.0
C105 C 0.81328 0.03246 0.71869 0.0
C106 C 0.74746 0.14942 0.71318 0.0
O107 O 0.7852 0.14833 0.69734 0.0
O108 O 0.72046 0.11897 0.70804 0.0
C109 C 0.88931 0.16879 0.68327 0.0
O110 O 0.86733 0.16768 0.71931 0.0
C111 C 0.76319 0.0807 0.58749 0.0
Zn112 Zn 0.09387 0.31486 0.75928 0.0
Zn113 Zn 0.13231 0.31744 0.68804 0.0
O114 O 0.07194 0.28697 0.6738 0.0
O115 O 0.0378 0.29611 0.73475 0.0
O116 O 0.16589 0.32173 0.63134 0.0
O117 O 0.1057 0.37279 0.77569 0.0
O118 O 0.13207 0.37913 0.71044 0.0
C119 C 0.0376 0.2828 0.69663 0.0
C120 C 0.16322 0.26449 0.76077 0.0
O121 O 0.17003 0.28037 0.72407 0.0
O122 O 0.13069 0.27352 0.78257 0.0
C123 C 0.17499 0.28883 0.6114 0.0
O124 O 0.16104 0.25313 0.62734 0.0
C125 C 0.12209 0.39527 0.7465 0.0
Zn126 Zn 0.59494 0.15192 0.28486 0.0
Zn127 Zn 0.63974 0.12562 0.35246 0.0
O128 O 0.58949 0.15519 0.38114 0.0
O129 O 0.5509 0.17254 0.32622 0.0
O130 O 0.67054 0.10271 0.40292 0.0
O131 O 0.58807 0.0944 0.25981 0.0
O132 O 0.62685 0.07447 0.31357 0.0
C133 C 0.5566 0.17132 0.36615 0.0
C134 C 0.68267 0.1883 0.29148 0.0
O135 O 0.68392 0.16566 0.32424 0.0
O136 O 0.64846 0.18835 0.26975 0.0
C137 C 0.70257 0.1225 0.4202 0.0
O138 O 0.71555 0.15885 0.40529 0.0
C139 C 0.60699 0.06652 0.27865 0.0
Zn140 Zn 0.59686 0.63889 0.72051 0.0
Zn141 Zn 0.64746 0.62257 0.65265 0.0
O142 O 0.63277 0.56729 0.68269 0.0
O143 O 0.59023 0.57973 0.73725 0.0
O144 O 0.68306 0.60657 0.6013 0.0
O145 O 0.55502 0.66257 0.68086 0.0
O146 O 0.59979 0.65554 0.62664 0.0
C147 C 0.61103 0.55459 0.71523 0.0
C148 C 0.68319 0.67839 0.72415 0.0
O149 O 0.68781 0.65995 0.68844 0.0
O150 O 0.64749 0.67471 0.74409 0.0
C151 C 0.72404 0.60965 0.5992 0.0
O152 O 0.7462 0.62389 0.6323 0.0
C153 C 0.56478 0.66807 0.64194 0.0
Zn154 Zn 0.72997 0.375 0.84829 0.0
Zn155 Zn 0.65213 0.34407 0.87188 0.0
O156 O 0.68365 0.35591 0.92947 0.0
O157 O 0.74365 0.39031 0.90919 0.0
O158 O 0.59225 0.31982 0.88664 0.0
O159 O 0.70325 0.4138 0.80916 0.0
O160 O 0.63914 0.39369 0.83455 0.0
C161 C 0.71904 0.37606 0.93857 0.0
C162 C 0.71383 0.29231 0.81971 0.0
O163 O 0.67693 0.2979 0.83592 0.0
O164 O 0.74399 0.32014 0.82339 0.0
C165 C 0.58552 0.2819 0.89601 0.0
O166 O 0.61873 0.25904 0.89952 0.0
C167 C 0.66285 0.41625 0.80964 0.0
Zn168 Zn 0.29478 0.06819 0.86333 0.0
Zn169 Zn 0.35695 0.1233 0.87414 0.0
O170 O 0.33196 0.10897 0.93468 0.0
O171 O 0.29007 0.05251 0.9249 0.0
O172 O 0.41076 0.16011 0.88575 0.0
O173 O 0.32564 0.03605 0.81998 0.0
O174 O 0.38202 0.07806 0.83486 0.0
C175 C 0.30734 0.0796 0.94981 0.0
C176 C 0.27574 0.14884 0.83403 0.0
O177 O 0.31523 0.15851 0.84199 0.0
O178 O 0.25963 0.11301 0.84228 0.0
C179 C 0.41333 0.19933 0.88926 0.0
O180 O 0.37808 0.21939 0.88629 0.0
C181 C 0.36483 0.04721 0.81424 0.0
Zn182 Zn 0.39247 0.31387 0.32462 0.0
Zn183 Zn 0.34645 0.32203 0.39443 0.0
O184 O 0.40025 0.29034 0.41313 0.0
O185 O 0.44003 0.28969 0.35447 0.0
O186 O 0.30942 0.32717 0.44883 0.0
O187 O 0.3962 0.37312 0.31124 0.0
O188 O 0.35292 0.38097 0.36655 0.0
C189 C 0.43453 0.28093 0.39337 0.0
C190 C 0.31015 0.27007 0.31965 0.0
O191 O 0.30646 0.28527 0.35707 0.0
O192 O 0.34466 0.27719 0.29851 0.0
C193 C 0.29195 0.29336 0.46295 0.0
O194 O 0.30133 0.25875 0.44366 0.0
C195 C 0.37347 0.39591 0.334 0.0
Zn196 Zn 0.24971 0.56583 0.18445 0.0
Zn197 Zn 0.33038 0.60329 0.17308 0.0
O198 O 0.34291 0.55304 0.20954 0.0
O199 O 0.27787 0.52395 0.22054 0.0
O200 O 0.38665 0.63782 0.1693 0.0
O201 O 0.24521 0.56288 0.11976 0.0
O202 O 0.30922 0.59472 0.11126 0.0
C203 C 0.31804 0.52551 0.22742 0.0
C204 C 0.25752 0.64556 0.22197 0.0
O205 O 0.29555 0.6433 0.20718 0.0
O206 O 0.22964 0.61606 0.21575 0.0
C207 C 0.41491 0.6436 0.13993 0.0
O208 O 0.41096 0.62275 0.10375 0.0
C209 C 0.27436 0.5787 0.09536 0.0
Zn210 Zn 0.59885 0.81752 0.24187 0.0
Zn211 Zn 0.63669 0.82247 0.16573 0.0
O212 O 0.58212 0.78258 0.15419 0.0
O213 O 0.55377 0.77736 0.21881 0.0
O214 O 0.67001 0.82623 0.10919 0.0
O215 O 0.58855 0.87725 0.24343 0.0
O216 O 0.62684 0.88346 0.18382 0.0
C217 C 0.55299 0.76742 0.1796 0.0
C218 C 0.68356 0.79027 0.24361 0.0
O219 O 0.68102 0.79702 0.20379 0.0
O220 O 0.6524 0.79785 0.26819 0.0
C221 C 0.68716 0.79358 0.09622 0.0
O222 O 0.67933 0.75956 0.11803 0.0
C223 C 0.60624 0.89957 0.21472 0.0
C224 C 0.24296 0.21013 0.23683 0.0
C225 C 0.20419 0.19959 0.2587 0.0
C226 C 0.27696 0.23253 0.25699 0.0
C227 C 0.27374 0.24538 0.29994 0.0
H228 H 0.24726 0.20112 0.20367 0.0
H229 H 0.30594 0.23997 0.23846 0.0
S230 S 0.17954 0.22476 0.37216 0.0
N231 N 0.16474 0.20307 0.32615 0.0
N232 N 0.2288 0.24528 0.36415 0.0
C233 C 0.23523 0.23492 0.32243 0.0
C234 C 0.20044 0.21206 0.30179 0.0
C235 C 0.75458 0.26443 0.2283 0.0
C236 C 0.79519 0.26216 0.24727 0.0
C237 C 0.71851 0.24092 0.24326 0.0
C238 C 0.72141 0.21394 0.27779 0.0
H239 H 0.75044 0.28449 0.20145 0.0
H240 H 0.68813 0.24382 0.22726 0.0
S241 S 0.82044 0.19645 0.33885 0.0
N242 N 0.83625 0.23094 0.30277 0.0
N243 N 0.7685 0.18636 0.33069 0.0
C244 C 0.76179 0.21156 0.29739 0.0
C245 C 0.79861 0.23574 0.28221 0.0
C246 C 0.27902 0.71439 0.25394 0.0
C247 C 0.24705 0.68231 0.2477 0.0
C248 C 0.27104 0.74927 0.27868 0.0
C249 C 0.23068 0.75368 0.29828 0.0
H250 H 0.31076 0.71277 0.2396 0.0
H251 H 0.29682 0.77305 0.28214 0.0
S252 S 0.13584 0.67829 0.29254 0.0
N253 N 0.17336 0.65689 0.26361 0.0
N254 N 0.15821 0.72273 0.3101 0.0
C255 C 0.19833 0.72176 0.2926 0.0
C256 C 0.2065 0.68605 0.26729 0.0
C257 C 0.75308 0.73981 0.3233 0.0
C258 C 0.77832 0.71549 0.29699 0.0
C259 C 0.7248 0.76664 0.30561 0.0
C260 C 0.72065 0.76968 0.26099 0.0
H261 H 0.75267 0.73565 0.35761 0.0
H262 H 0.70409 0.78304 0.3271 0.0
S263 S 0.78487 0.71616 0.17892 0.0
N264 N 0.80133 0.69875 0.22494 0.0
N265 N 0.74861 0.74967 0.19114 0.0
C266 C 0.74885 0.74819 0.23451 0.0
C267 C 0.77751 0.72076 0.2527 0.0
C268 C 0.31118 0.74481 0.78429 0.0
C269 C 0.3074 0.77094 0.74917 0.0
C270 C 0.27532 0.7216 0.80058 0.0
C271 C 0.23431 0.72366 0.78238 0.0
H272 H 0.34221 0.74157 0.79888 0.0
H273 H 0.28007 0.70125 0.82706 0.0
S274 S 0.20638 0.79023 0.6922 0.0
N275 N 0.25869 0.79946 0.69837 0.0
N276 N 0.19156 0.75608 0.7289 0.0
C277 C 0.22984 0.75072 0.74809 0.0
C278 C 0.26629 0.77426 0.73151 0.0
C279 C 0.71832 0.71489 0.7866 0.0
C280 C 0.71988 0.70319 0.7432 0.0
C281 C 0.75273 0.73769 0.80579 0.0
C282 C 0.79014 0.74983 0.78237 0.0
H283 H 0.69038 0.70617 0.80616 0.0
H284 H 0.7498 0.74593 0.83932 0.0
S285 S 0.80994 0.72807 0.66718 0.0
N286 N 0.76159 0.70624 0.67697 0.0
N287 N 0.82645 0.74882 0.71306 0.0
C288 C 0.79219 0.73834 0.73886 0.0
C289 C 0.75704 0.71514 0.71928 0.0
C290 C 0.75995 0.25272 0.7707 0.0
C291 C 0.72111 0.25484 0.79377 0.0
C292 C 0.76752 0.21895 0.74422 0.0
C293 C 0.73671 0.18556 0.73975 0.0
H294 H 0.78484 0.27756 0.77266 0.0
H295 H 0.79804 0.21916 0.72724 0.0
S296 S 0.62956 0.1756 0.79345 0.0
N297 N 0.6512 0.22055 0.81049 0.0
N298 N 0.66562 0.15661 0.7608 0.0
C299 C 0.69758 0.18713 0.76258 0.0
C300 C 0.68977 0.2218 0.78959 0.0
C301 C 0.23647 0.2373 0.76936 0.0
C302 C 0.19197 0.23457 0.7783 0.0
C303 C 0.26397 0.21011 0.78828 0.0
C304 C 0.24753 0.17895 0.81591 0.0
H305 H 0.25017 0.26098 0.74831 0.0
H306 H 0.29808 0.21305 0.78073 0.0
S307 S 0.13319 0.1586 0.84878 0.0
N308 N 0.13275 0.19803 0.81611 0.0
N309 N 0.18404 0.14722 0.85136 0.0
C310 C 0.20304 0.17589 0.82474 0.0
C311 C 0.17534 0.20361 0.80596 0.0
C312 C 0.17221 0.96079 0.24798 0.0
C313 C 0.14835 0.94421 0.28286 0.0
C314 C 0.15653 -0.00812 0.22305 0.0
C315 C 0.11656 0.00807 0.23235 0.0
H316 H 0.2041 0.95079 0.2407 0.0
H317 H 0.1774 0.00525 0.19834 0.0
S318 S 0.03806 0.97006 0.3152 0.0
N319 N 0.08009 0.94211 0.3216 0.0
N320 N 0.05063 0.00105 0.27495 0.0
C321 C 0.09067 -0.01077 0.26471 0.0
C322 C 0.10658 0.95722 0.28996 0.0
C323 C 0.86685 0.47478 0.21329 0.0
C324 C 0.90208 0.45355 0.22722 0.0
C325 C 0.85412 0.50995 0.23514 0.0
C326 C 0.8765 0.52567 0.2713 0.0
H327 H 0.84678 0.46244 0.18749 0.0
H328 H 0.82507 0.52366 0.22495 0.0
S329 S 0.97636 0.48688 0.31511 0.0
N330 N 0.96327 0.45462 0.27534 0.0
N331 N 0.93933 0.52128 0.31612 0.0
C332 C 0.9145 0.50758 0.28273 0.0
C333 C 0.92729 0.47135 0.26073 0.0
C334 C 0.2801 0.11963 1.01181 0.0
C335 C 0.2913 0.08147 0.99438 0.0
C336 C 0.25521 0.12151 0.04934 0.0
C337 C 0.24156 0.08542 0.07137 0.0
H338 H 0.28821 0.14804 0.9949 0.0
H339 H 0.2458 0.15141 0.06068 0.0
S340 S 0.26613 -0.02175 0.04122 0.0
N341 N 0.28914 0.00704 1.00324 0.0
N342 N 0.2438 0.01067 0.07469 0.0
C343 C 0.25488 0.04732 0.05575 0.0
C344 C 0.27936 0.04533 1.017 0.0
C345 C 0.76078 0.34257 0.04449 0.0
C346 C 0.78224 0.37905 0.06035 0.0
C347 C 0.73705 0.34252 1.00658 0.0
C348 C 0.73497 0.37874 0.98277 0.0
H349 H 0.76303 0.31366 0.06106 0.0
H350 H 0.72246 0.31349 0.99453 0.0
S351 S 0.78332 0.48268 1.01155 0.0
N352 N 0.79745 0.45282 0.05071 0.0
N353 N 0.75437 0.4523 0.97852 0.0
C354 C 0.755 0.41564 0.99898 0.0
C355 C 0.77823 0.41592 0.03808 0.0
C356 C 0.29238 0.91797 0.53523 0.0
C357 C 0.29268 0.8832 0.56148 0.0
C358 C 0.26944 0.91638 0.49683 0.0
C359 C 0.24492 0.88042 0.48408 0.0
H360 H 0.31179 0.94586 0.54326 0.0
H361 H 0.27199 0.94306 0.47628 0.0
S362 S 0.23121 0.78272 0.54426 0.0
N363 N 0.2641 0.81285 0.57388 0.0
N364 N 0.21976 0.81035 0.50236 0.0
C365 C 0.24269 0.84639 0.51148 0.0
C366 C 0.26696 0.84764 0.55001 0.0
C367 C 0.78492 0.62338 0.5474 0.0
C368 C 0.74619 0.60107 0.55829 0.0
C369 C 0.80331 0.61979 0.50646 0.0
C370 C 0.78381 0.59348 0.47508 0.0
H371 H 0.79999 0.64535 0.5699 0.0
H372 H 0.83184 0.63926 0.49883 0.0
S373 S 0.68637 0.52266 0.49066 0.0
N374 N 0.69195 0.54805 0.53654 0.0
N375 N 0.72662 0.54053 0.46004 0.0
C376 C 0.74684 0.56865 0.48687 0.0
C377 C 0.72797 0.57268 0.52831 0.0
C378 C 0.02287 0.26753 0.12223 0.0
C379 C 0.97784 0.26076 0.12394 0.0
C380 C 0.04953 0.23418 0.12126 0.0
C381 C 0.03172 0.19333 0.12351 0.0
H382 H 0.03753 0.29851 0.12648 0.0
H383 H 0.08392 0.24061 0.12493 0.0
S384 S 0.91599 0.15951 0.11996 0.0
N385 N 0.91676 0.21053 0.11989 0.0
N386 N 0.96694 0.14781 0.1204 0.0
C387 C 0.98699 0.18625 0.11969 0.0
C388 C 0.95992 0.22015 0.11934 0.0
C389 C 0.00422 0.69609 0.39292 0.0
C390 C 0.96702 0.71866 0.39574 0.0
C391 C 0.04558 0.71578 0.39539 0.0
C392 C 0.05162 0.759 0.40042 0.0
H393 H 0.00152 0.66287 0.38809 0.0
H394 H 0.07303 0.69694 0.39203 0.0
S395 S 0.96503 0.83237 0.41203 0.0
N396 N 0.93908 0.78672 0.40596 0.0
N397 N 0.01674 0.82362 0.41025 0.0
C398 C 0.01476 0.7819 0.40449 0.0
C399 C 0.97254 0.76179 0.40228 0.0
C400 C 0.49544 0.69195 0.61764 0.0
C401 C 0.54051 0.69809 0.61906 0.0
C402 C 0.46942 0.72574 0.61761 0.0
C403 C 0.48793 0.76634 0.62034 0.0
H404 H 0.48025 0.66126 0.62179 0.0
H405 H 0.43494 0.71992 0.62174 0.0
S406 S 0.60405 0.79839 0.6157 0.0
N407 N 0.60242 0.74734 0.61478 0.0
N408 N 0.55335 0.8109 0.61703 0.0
C409 C 0.53269 0.77272 0.6159 0.0
C410 C 0.55915 0.73838 0.61461 0.0
C411 C 0.87493 -0.00663 0.74425 0.0
C412 C 0.83218 0.00432 0.74926 0.0
C413 C 0.89156 0.96329 0.77016 0.0
C414 C 0.86624 0.94346 0.80241 0.0
H415 H 0.89498 0.00649 0.71875 0.0
H416 H 0.92377 0.95391 0.76328 0.0
S417 S 0.75491 0.96713 0.8336 0.0
N418 N 0.76679 -0.00262 0.79262 0.0
N419 N 0.7981 0.94115 0.84137 0.0
C420 C 0.82476 0.95696 0.8102 0.0
C421 C 0.80766 -0.01282 0.78349 0.0
C422 C 0.13624 0.49517 0.80968 0.0
C423 C 0.13131 0.52555 0.77889 0.0
C424 C 0.13471 0.45329 0.79832 0.0
C425 C 0.1288 0.44001 0.75562 0.0
H426 H 0.14006 0.50362 0.8431 0.0
H427 H 0.13751 0.43101 0.82348 0.0
S428 S 0.11806 0.50725 0.66209 0.0
N429 N 0.12291 0.53967 0.7032 0.0
N430 N 0.12047 0.46054 0.682 0.0
C431 C 0.12578 0.47001 0.72412 0.0
C432 C 0.1268 0.51286 0.73574 0.0
C433 C 0.72634 0.83059 0.03547 0.0
C434 C 0.71742 0.79411 0.05881 0.0
C435 C 0.75553 0.83184 1.00075 0.0
C436 C 0.77696 0.79664 0.98779 0.0
H437 H 0.7107 0.85852 0.04403 0.0
H438 H 0.76097 0.86058 0.98372 0.0
S439 S 0.76648 0.69371 0.03911 0.0
N440 N 0.73359 0.72207 0.06682 0.0
N441 N 0.78801 0.72446 1.00208 0.0
C442 C 0.76861 0.76007 1.01108 0.0
C443 C 0.73901 0.7588 0.04638 0.0
C444 C 0.21015 0.58423 0.99337 0.0
C445 C 0.23963 0.60338 0.96438 0.0
C446 C 0.22247 0.57431 0.03468 0.0
C447 C 0.26478 0.58349 0.0492 0.0
H448 H 0.17689 0.5774 0.98439 0.0
H449 H 0.19795 0.5607 0.05587 0.0
S450 S 0.35545 0.63062 0.98474 0.0
N451 N 0.31395 0.62874 0.95211 0.0
N452 N 0.33705 0.61051 0.03003 0.0
C453 C 0.29516 0.60109 0.01997 0.0
C454 C 0.28262 0.61091 0.97757 0.0
C455 C 0.69859 0.07826 0.48519 0.0
C456 C 0.72207 0.10703 0.45947 0.0
C457 C 0.71359 0.06777 0.52547 0.0
C458 C 0.75284 0.0854 0.54155 0.0
H459 H 0.66732 0.06525 0.47518 0.0
H460 H 0.69317 0.04709 0.54489 0.0
S461 S 0.83005 0.15685 0.48314 0.0
N462 N 0.78902 0.14896 0.45038 0.0
N463 N 0.81744 0.12916 0.52583 0.0
C464 C 0.77825 0.11169 0.51457 0.0
C465 C 0.76276 0.1226 0.47367 0.0
C466 C 0.22756 0.32666 0.56122 0.0
C467 C 0.20292 0.29028 0.5722 0.0
C468 C 0.25595 0.32769 0.52578 0.0
C469 C 0.26089 0.29239 0.4998 0.0
H470 H 0.22557 0.35443 0.58061 0.0
H471 H 0.27459 0.35624 0.51912 0.0
S472 S 0.20077 0.19038 0.51226 0.0
N473 N 0.1835 0.21879 0.55227 0.0
N474 N 0.23628 0.22066 0.48619 0.0
C475 C 0.23548 0.25617 0.50977 0.0
C476 C 0.20671 0.25513 0.54575 0.0
C477 C 0.05149 0.74542 0.89628 0.0
C478 C 0.03917 0.70342 0.88938 0.0
C479 C 0.0204 0.77487 0.90011 0.0
C480 C 0.97622 0.76295 0.89829 0.0
H481 H 0.08509 0.75616 0.89351 0.0
H482 H 0.03097 0.80736 0.89984 0.0
S483 S 0.92788 0.65596 0.88881 0.0
N484 N 0.98038 0.65077 0.88646 0.0
N485 N 0.92188 0.70592 0.8957 0.0
C486 C 0.96375 0.72056 0.8972 0.0
C487 C 0.99533 0.69074 0.89206 0.0
C488 C 0.95901 0.2664 0.70266 0.0
C489 C 0.9983 0.2584 0.68242 0.0
C490 C 0.92351 0.2379 0.70084 0.0
C491 C 0.92546 0.20033 0.67822 0.0
H492 H 0.95639 0.2939 0.72238 0.0
H493 H 0.89474 0.24478 0.71871 0.0
S494 S 0.01859 0.16672 0.61464 0.0
N495 N 0.03574 0.21186 0.63544 0.0
N496 N 0.96818 0.1584 0.63115 0.0
C497 C 0.96314 0.19336 0.65461 0.0
C498 C -0.00024 0.22244 0.65684 0.0
C499 C 0.48402 0.18142 0.39637 0.0
C500 C 0.52784 0.19457 0.39372 0.0
C501 C 0.45268 0.20971 0.40555 0.0
C502 C 0.46426 0.25211 0.41082 0.0
H503 H 0.47358 0.15013 0.38691 0.0
H504 H 0.41906 0.19931 0.40228 0.0
S505 S 0.57512 0.3005 0.4141 0.0
N506 N 0.58171 0.25111 0.40395 0.0
N507 N 0.52262 0.30463 0.41914 0.0
C508 C 0.50819 0.26453 0.41339 0.0
C509 C 0.54012 0.2356 0.40511 0.0
C510 C 0.59552 0.50098 0.77085 0.0
C511 C 0.61693 0.51306 0.73264 0.0
C512 C 0.6087 0.46775 0.79458 0.0
C513 C 0.64393 0.44578 0.78102 0.0
H514 H 0.5701 0.51884 0.78402 0.0
H515 H 0.59306 0.46102 0.82499 0.0
S516 S 0.70459 0.45861 0.67892 0.0
N517 N 0.67033 0.49552 0.67897 0.0
N518 N 0.69531 0.43348 0.7239 0.0
C519 C 0.66287 0.45484 0.74101 0.0
C520 C 0.6492 0.48831 0.71662 0.0
C521 C 0.42335 0.00084 0.79684 0.0
C522 C 0.38949 0.02377 0.78315 0.0
C523 C 0.43761 0.9683 0.77149 0.0
C524 C 0.41821 0.95772 0.73182 0.0
H525 H 0.43608 0.00549 0.82877 0.0
H526 H 0.46123 0.9491 0.78492 0.0
S527 S 0.33661 0.01688 0.67761 0.0
N528 N 0.34281 0.03973 0.72482 0.0
N529 N 0.37025 -0.02061 0.67651 0.0
C530 C 0.38858 -0.01555 0.71558 0.0
C531 C 0.37382 0.01718 0.74161 0.0
C532 C 0.49336 0.19926 0.89793 0.0
C533 C 0.45631 0.22181 0.89418 0.0
C534 C 0.53466 0.21908 0.89986 0.0
C535 C 0.54092 0.2624 0.898 0.0
H536 H 0.49069 0.1658 0.89868 0.0
H537 H 0.56195 0.2 0.90176 0.0
S538 S 0.4546 0.33626 0.891 0.0
N539 N 0.42859 0.2903 0.89082 0.0
N540 N 0.50617 0.32751 0.89436 0.0
C541 C 0.50412 0.28553 0.89554 0.0
C542 C 0.46192 0.26529 0.89368 0.0
C543 C 0.30645 0.47671 0.28825 0.0
C544 C 0.33496 0.49659 0.25863 0.0
C545 C 0.32037 0.44718 0.31644 0.0
C546 C 0.36325 0.43593 0.31571 0.0
H547 H 0.27268 0.48315 0.28898 0.0
H548 H 0.29662 0.4309 0.33659 0.0
S549 S 0.4521 0.48243 0.24862 0.0
N550 N 0.40922 0.50606 0.23382 0.0
N551 N 0.4352 0.4499 0.28622 0.0
C552 C 0.39274 0.45753 0.2884 0.0
C553 C 0.37866 0.48797 0.25998 0.0
C554 C 0.57004 0.00542 0.24217 0.0
C555 C 0.60795 0.0252 0.25866 0.0
C556 C 0.57007 0.96519 0.22504 0.0
C557 C 0.60834 0.94438 0.22222 0.0
H558 H 0.53989 0.0204 0.24428 0.0
H559 H 0.53981 0.94972 0.21527 0.0
S560 S 0.71659 -0.01584 0.25746 0.0
N561 N 0.68497 0.02193 0.2692 0.0
N562 N 0.68522 0.94692 0.2354 0.0
C563 C 0.64676 0.96468 0.23649 0.0
C564 C 0.64653 0.00502 0.25513 0.0
C565 C 0.47927 0.73483 0.18927 0.0
C566 C 0.5176 0.73791 0.16495 0.0
C567 C 0.44651 0.70467 0.18033 0.0
C568 C 0.45032 0.67598 0.14657 0.0
H569 H 0.47462 0.75565 0.21608 0.0
H570 H 0.41797 0.70381 0.20051 0.0
S571 S 0.54377 0.67121 0.07223 0.0
N572 N 0.5573 0.71029 0.10487 0.0
N573 N 0.49531 0.65325 0.08773 0.0
C574 C 0.48796 0.67929 0.12102 0.0
C575 C 0.52163 0.71034 0.13024 0.0
loop_
_geom_bond_atom_site_label_1
_geom_bond_atom_site_label_2
_geom_bond_distance
_geom_bond_site_symmetry_2
_ccdc_geom_bond_type
Zn0 O3 2.031 . S
Zn0 O5 2.049 . S
Zn0 O10 2.067 . S
Zn1 O2 1.962 . S
Zn1 O4 1.986 . S
Zn1 O6 1.996 . S
Zn1 O9 1.943 . S
O2 Zn1 1.962 . S
O2 C7 1.254 . S
O3 Zn0 2.031 . S
O3 C7 1.269 . S
O4 Zn1 1.986 . S
O4 C11 1.262 . S
O5 Zn0 2.049 . S
O5 C13 1.260 . S
O6 Zn1 1.996 . S
O6 C13 1.257 . S
C7 O2 1.254 . S
C7 O3 1.269 . S
C8 O9 1.249 . S
C8 O10 1.270 . S
O9 Zn1 1.943 . S
O9 C8 1.249 . S
O10 Zn0 2.067 . S
O10 C8 1.270 . S
C11 O4 1.262 . S
C11 O12 1.232 . S
O12 C11 1.232 . S
C13 O5 1.260 . S
C13 O6 1.257 . S
Zn14 O17 2.031 . S
Zn14 O19 2.049 . S
Zn14 O24 2.067 . S
Zn15 O16 1.962 . S
Zn15 O18 1.986 . S
Zn15 O20 1.996 . S
Zn15 O23 1.943 . S
O16 Zn15 1.962 . S
O16 C21 1.254 . S
O17 Zn14 2.031 . S
O17 C21 1.269 . S
O18 Zn15 1.986 . S
O18 C25 1.262 . S
O19 Zn14 2.049 . S
O19 C27 1.260 . S
O20 Zn15 1.996 . S
O20 C27 1.257 . S
C21 O16 1.254 . S
C21 O17 1.269 . S
C22 O23 1.249 . S
C22 O24 1.270 . S
O23 Zn15 1.943 . S
O23 C22 1.249 . S
O24 Zn14 2.067 . S
O24 C22 1.270 . S
C25 O18 1.262 . S
C25 O26 1.232 . S
O26 C25 1.232 . S
C27 O19 1.260 . S
C27 O20 1.257 . S
Zn28 O31 2.031 . S
Zn28 O33 2.049 . S
Zn28 O38 2.067 . S
Zn29 O30 1.962 . S
Zn29 O32 1.986 . S
Zn29 O34 1.996 . S
Zn29 O37 1.943 . S
O30 Zn29 1.962 . S
O30 C35 1.254 . S
O31 Zn28 2.031 . S
O31 C35 1.269 . S
O32 Zn29 1.986 . S
O32 C39 1.262 . S
O33 Zn28 2.049 . S
O33 C41 1.260 . S
O34 Zn29 1.996 . S
O34 C41 1.257 . S
C35 O30 1.254 . S
C35 O31 1.269 . S
C36 O37 1.249 . S
C36 O38 1.270 . S
O37 Zn29 1.943 . S
O37 C36 1.249 . S
O38 Zn28 2.067 . S
O38 C36 1.270 . S
C39 O32 1.262 . S
C39 O40 1.232 . S
O40 C39 1.232 . S
C41 O33 1.260 . S
C41 O34 1.257 . S
Zn42 O45 2.031 . S
Zn42 O47 2.049 . S
Zn42 O52 2.067 . S
Zn43 O44 1.962 . S
Zn43 O46 1.986 . S
Zn43 O48 1.996 . S
Zn43 O51 1.943 . S
O44 Zn43 1.962 . S
O44 C49 1.254 . S
O45 Zn42 2.031 . S
O45 C49 1.269 . S
O46 Zn43 1.986 . S
O46 C53 1.262 . S
O47 Zn42 2.049 . S
O47 C55 1.260 . S
O48 Zn43 1.996 . S
O48 C55 1.257 . S
C49 O44 1.254 . S
C49 O45 1.269 . S
C50 O51 1.249 . S
C50 O52 1.270 . S
O51 Zn43 1.943 . S
O51 C50 1.249 . S
O52 Zn42 2.067 . S
O52 C50 1.270 . S
C53 O46 1.262 . S
C53 O54 1.232 . S
O54 C53 1.232 . S
C55 O47 1.260 . S
C55 O48 1.257 . S
Zn56 O59 2.031 . S
Zn56 O61 2.049 . S
Zn56 O66 2.067 . S
Zn57 O58 1.962 . S
Zn57 O60 1.986 . S
Zn57 O62 1.996 . S
Zn57 O65 1.943 . S
O58 Zn57 1.962 . S
O58 C63 1.254 . S
O59 Zn56 2.031 . S
O59 C63 1.269 . S
O60 Zn57 1.986 . S
O60 C67 1.262 . S
O61 Zn56 2.049 . S
O61 C69 1.260 . S
O62 Zn57 1.996 . S
O62 C69 1.257 . S
C63 O58 1.254 . S
C63 O59 1.269 . S
C64 O65 1.249 . S
C64 O66 1.270 . S
O65 Zn57 1.943 . S
O65 C64 1.249 . S
O66 Zn56 2.067 . S
O66 C64 1.270 . S
C67 O60 1.262 . S
C67 O68 1.232 . S
O68 C67 1.232 . S
C69 O61 1.260 . S
C69 O62 1.257 . S
Zn70 O73 2.031 . S
Zn70 O75 2.049 . S
Zn70 O80 2.067 . S
Zn71 O72 1.962 . S
Zn71 O74 1.986 . S
Zn71 O76 1.996 . S
Zn71 O79 1.943 . S
O72 Zn71 1.962 . S
O72 C77 1.254 . S
O73 Zn70 2.031 . S
O73 C77 1.269 . S
O74 Zn71 1.986 . S
O74 C81 1.262 . S
O75 Zn70 2.049 . S
O75 C83 1.260 . S
O76 Zn71 1.996 . S
O76 C83 1.257 . S
C77 O72 1.254 . S
C77 O73 1.269 . S
C78 O79 1.249 . S
C78 O80 1.270 . S
O79 Zn71 1.943 . S
O79 C78 1.249 . S
O80 Zn70 2.067 . S
O80 C78 1.270 . S
C81 O74 1.262 . S
C81 O82 1.232 . S
O82 C81 1.232 . S
C83 O75 1.260 . S
C83 O76 1.257 . S
Zn84 O87 2.031 . S
Zn84 O89 2.049 . S
Zn84 O94 2.067 . S
Zn85 O86 1.962 . S
Zn85 O88 1.986 . S
Zn85 O90 1.996 . S
Zn85 O93 1.943 . S
O86 Zn85 1.962 . S
O86 C91 1.254 . S
O87 Zn84 2.031 . S
O87 C91 1.269 . S
O88 Zn85 1.986 . S
O88 C95 1.262 . S
O89 Zn84 2.049 . S
O89 C97 1.260 . S
O90 Zn85 1.996 . S
O90 C97 1.257 . S
C91 O86 1.254 . S
C91 O87 1.269 . S
C92 O93 1.249 . S
C92 O94 1.270 . S
O93 Zn85 1.943 . S
O93 C92 1.249 . S
O94 Zn84 2.067 . S
O94 C92 1.270 . S
C95 O88 1.262 . S
C95 O96 1.232 . S
O96 C95 1.232 . S
C97 O89 1.260 . S
C97 O90 1.257 . S
Zn98 O101 2.031 . S
Zn98 O103 2.049 . S
Zn98 O108 2.067 . S
Zn99 O100 1.962 . S
Zn99 O102 1.986 . S
Zn99 O104 1.996 . S
Zn99 O107 1.943 . S
O100 Zn99 1.962 . S
O100 C105 1.254 . S
O101 Zn98 2.031 . S
O101 C105 1.269 . S
O102 Zn99 1.986 . S
O102 C109 1.262 . S
O103 Zn98 2.049 . S
O103 C111 1.260 . S
O104 Zn99 1.996 . S
O104 C111 1.257 . S
C105 O100 1.254 . S
C105 O101 1.269 . S
C106 O107 1.249 . S
C106 O108 1.270 . S
O107 Zn99 1.943 . S
O107 C106 1.249 . S
O108 Zn98 2.067 . S
O108 C106 1.270 . S
C109 O102 1.262 . S
C109 O110 1.232 . S
O110 C109 1.232 . S
C111 O103 1.260 . S
C111 O104 1.257 . S
Zn112 O115 2.031 . S
Zn112 O117 2.049 . S
Zn112 O122 2.067 . S
Zn113 O114 1.962 . S
Zn113 O116 1.986 . S
Zn113 O118 1.996 . S
Zn113 O121 1.943 . S
O114 Zn113 1.962 . S
O114 C119 1.254 . S
O115 Zn112 2.031 . S
O115 C119 1.269 . S
O116 Zn113 1.986 . S
O116 C123 1.262 . S
O117 Zn112 2.049 . S
O117 C125 1.260 . S
O118 Zn113 1.996 . S
O118 C125 1.257 . S
C119 O114 1.254 . S
C119 O115 1.269 . S
C120 O121 1.249 . S
C120 O122 1.270 . S
O121 Zn113 1.943 . S
O121 C120 1.249 . S
O122 Zn112 2.067 . S
O122 C120 1.270 . S
C123 O116 1.262 . S
C123 O124 1.232 . S
O124 C123 1.232 . S
C125 O117 1.260 . S
C125 O118 1.257 . S
Zn126 O129 2.031 . S
Zn126 O131 2.049 . S
Zn126 O136 2.067 . S
Zn127 O128 1.962 . S
Zn127 O130 1.986 . S
Zn127 O132 1.996 . S
Zn127 O135 1.943 . S
O128 Zn127 1.962 . S
O128 C133 1.254 . S
O129 Zn126 2.031 . S
O129 C133 1.269 . S
O130 Zn127 1.986 . S
O130 C137 1.262 . S
O131 Zn126 2.049 . S
O131 C139 1.260 . S
O132 Zn127 1.996 . S
O132 C139 1.257 . S
C133 O128 1.254 . S
C133 O129 1.269 . S
C134 O135 1.249 . S
C134 O136 1.270 . S
O135 Zn127 1.943 . S
O135 C134 1.249 . S
O136 Zn126 2.067 . S
O136 C134 1.270 . S
C137 O130 1.262 . S
C137 O138 1.232 . S
O138 C137 1.232 . S
C139 O131 1.260 . S
C139 O132 1.257 . S
Zn140 O143 2.031 . S
Zn140 O145 2.049 . S
Zn140 O150 2.067 . S
Zn141 O142 1.962 . S
Zn141 O144 1.986 . S
Zn141 O146 1.996 . S
Zn141 O149 1.943 . S
O142 Zn141 1.962 . S
O142 C147 1.254 . S
O143 Zn140 2.031 . S
O143 C147 1.269 . S
O144 Zn141 1.986 . S
O144 C151 1.262 . S
O145 Zn140 2.049 . S
O145 C153 1.260 . S
O146 Zn141 1.996 . S
O146 C153 1.257 . S
C147 O142 1.254 . S
C147 O143 1.269 . S
C148 O149 1.249 . S
C148 O150 1.270 . S
O149 Zn141 1.943 . S
O149 C148 1.249 . S
O150 Zn140 2.067 . S
O150 C148 1.270 . S
C151 O144 1.262 . S
C151 O152 1.232 . S
O152 C151 1.232 . S
C153 O145 1.260 . S
C153 O146 1.257 . S
Zn154 O157 2.031 . S
Zn154 O159 2.049 . S
Zn154 O164 2.067 . S
Zn155 O156 1.962 . S
Zn155 O158 1.986 . S
Zn155 O160 1.996 . S
Zn155 O163 1.943 . S
O156 Zn155 1.962 . S
O156 C161 1.254 . S
O157 Zn154 2.031 . S
O157 C161 1.269 . S
O158 Zn155 1.986 . S
O158 C165 1.262 . S
O159 Zn154 2.049 . S
O159 C167 1.260 . S
O160 Zn155 1.996 . S
O160 C167 1.257 . S
C161 O156 1.254 . S
C161 O157 1.269 . S
C162 O163 1.249 . S
C162 O164 1.270 . S
O163 Zn155 1.943 . S
O163 C162 1.249 . S
O164 Zn154 2.067 . S
O164 C162 1.270 . S
C165 O158 1.262 . S
C165 O166 1.232 . S
O166 C165 1.232 . S
C167 O159 1.260 . S
C167 O160 1.257 . S
Zn168 O171 2.031 . S
Zn168 O173 2.049 . S
Zn168 O178 2.067 . S
Zn169 O170 1.962 . S
Zn169 O172 1.986 . S
Zn169 O174 1.996 . S
Zn169 O177 1.943 . S
O170 Zn169 1.962 . S
O170 C175 1.254 . S
O171 Zn168 2.031 . S
O171 C175 1.269 . S
O172 Zn169 1.986 . S
O172 C179 1.262 . S
O173 Zn168 2.049 . S
O173 C181 1.260 . S
O174 Zn169 1.996 . S
O174 C181 1.257 . S
C175 O170 1.254 . S
C175 O171 1.269 . S
C176 O177 1.249 . S
C176 O178 1.270 . S
O177 Zn169 1.943 . S
O177 C176 1.249 . S
O178 Zn168 2.067 . S
O178 C176 1.270 . S
C179 O172 1.262 . S
C179 O180 1.232 . S
O180 C179 1.232 . S
C181 O173 1.260 . S
C181 O174 1.257 . S
Zn182 O185 2.031 . S
Zn182 O187 2.049 . S
Zn182 O192 2.067 . S
Zn183 O184 1.962 . S
Zn183 O186 1.986 . S
Zn183 O188 1.996 . S
Zn183 O191 1.943 . S
O184 Zn183 1.962 . S
O184 C189 1.254 . S
O185 Zn182 2.031 . S
O185 C189 1.269 . S
O186 Zn183 1.986 . S
O186 C193 1.262 . S
O187 Zn182 2.049 . S
O187 C195 1.260 . S
O188 Zn183 1.996 . S
O188 C195 1.257 . S
C189 O184 1.254 . S
C189 O185 1.269 . S
C190 O191 1.249 . S
C190 O192 1.270 . S
O191 Zn183 1.943 . S
O191 C190 1.249 . S
O192 Zn182 2.067 . S
O192 C190 1.270 . S
C193 O186 1.262 . S
C193 O194 1.232 . S
O194 C193 1.232 . S
C195 O187 1.260 . S
C195 O188 1.257 . S
Zn196 O199 2.031 . S
Zn196 O201 2.049 . S
Zn196 O206 2.067 . S
Zn197 O198 1.962 . S
Zn197 O200 1.986 . S
Zn197 O202 1.996 . S
Zn197 O205 1.943 . S
O198 Zn197 1.962 . S
O198 C203 1.254 . S
O199 Zn196 2.031 . S
O199 C203 1.269 . S
O200 Zn197 1.986 . S
O200 C207 1.262 . S
O201 Zn196 2.049 . S
O201 C209 1.260 . S
O202 Zn197 1.996 . S
O202 C209 1.257 . S
C203 O198 1.254 . S
C203 O199 1.269 . S
C204 O205 1.249 . S
C204 O206 1.270 . S
O205 Zn197 1.943 . S
O205 C204 1.249 . S
O206 Zn196 2.067 . S
O206 C204 1.270 . S
C207 O200 1.262 . S
C207 O208 1.232 . S
O208 C207 1.232 . S
C209 O201 1.260 . S
C209 O202 1.257 . S
Zn210 O213 2.031 . S
Zn210 O215 2.049 . S
Zn210 O220 2.067 . S
Zn211 O212 1.962 . S
Zn211 O214 1.986 . S
Zn211 O216 1.996 . S
Zn211 O219 1.943 . S
O212 Zn211 1.962 . S
O212 C217 1.254 . S
O213 Zn210 2.031 . S
O213 C217 1.269 . S
O214 Zn211 1.986 . S
O214 C221 1.262 . S
O215 Zn210 2.049 . S
O215 C223 1.260 . S
O216 Zn211 1.996 . S
O216 C223 1.257 . S
C217 O212 1.254 . S
C217 O213 1.269 . S
C218 O219 1.249 . S
C218 O220 1.270 . S
O219 Zn211 1.943 . S
O219 C218 1.249 . S
O220 Zn210 2.067 . S
O220 C218 1.270 . S
C221 O214 1.262 . S
C221 O222 1.232 . S
O222 C221 1.232 . S
C223 O215 1.260 . S
C223 O216 1.257 . S
C224 C225 1.369 . S
C224 C226 1.419 . S
C224 H228 0.930 . S
C225 C224 1.369 . S
C225 C234 1.429 . S
C226 C224 1.419 . S
C226 C227 1.363 . S
C226 H229 0.929 . S
C227 C226 1.363 . S
C227 C233 1.428 . S
H228 C224 0.930 . S
H229 C226 0.929 . S
S230 N231 1.613 . S
S230 N232 1.610 . S
N231 S230 1.613 . S
N231 C234 1.350 . S
N232 S230 1.610 . S
N232 C233 1.351 . S
C233 C227 1.428 . S
C233 N232 1.351 . S
C233 C234 1.434 . S
C234 C225 1.429 . S
C234 N231 1.350 . S
C234 C233 1.434 . S
C235 C236 1.369 . S
C235 C237 1.419 . S
C235 H239 0.930 . S
C236 C235 1.369 . S
C236 C245 1.429 . S
C237 C235 1.419 . S
C237 C238 1.363 . S
C237 H240 0.929 . S
C238 C237 1.363 . S
C238 C244 1.428 . S
H239 C235 0.930 . S
H240 C237 0.929 . S
S241 N242 1.613 . S
S241 N243 1.610 . S
N242 S241 1.613 . S
N242 C245 1.350 . S
N243 S241 1.610 . S
N243 C244 1.351 . S
C244 C238 1.428 . S
C244 N243 1.351 . S
C244 C245 1.434 . S
C245 C236 1.429 . S
C245 N242 1.350 . S
C245 C244 1.434 . S
C246 C247 1.369 . S
C246 C248 1.419 . S
C246 H250 0.930 . S
C247 C246 1.369 . S
C247 C256 1.429 . S
C248 C246 1.419 . S
C248 C249 1.363 . S
C248 H251 0.929 . S
C249 C248 1.363 . S
C249 C255 1.428 . S
H250 C246 0.930 . S
H251 C248 0.929 . S
S252 N253 1.613 . S
S252 N254 1.610 . S
N253 S252 1.613 . S
N253 C256 1.350 . S
N254 S252 1.610 . S
N254 C255 1.351 . S
C255 C249 1.428 . S
C255 N254 1.351 . S
C255 C256 1.434 . S
C256 C247 1.429 . S
C256 N253 1.350 . S
C256 C255 1.434 . S
C257 C258 1.369 . S
C257 C259 1.419 . S
C257 H261 0.930 . S
C258 C257 1.369 . S
C258 C267 1.429 . S
C259 C257 1.419 . S
C259 C260 1.363 . S
C259 H262 0.929 . S
C260 C259 1.363 . S
C260 C266 1.428 . S
H261 C257 0.930 . S
H262 C259 0.929 . S
S263 N264 1.613 . S
S263 N265 1.610 . S
N264 S263 1.613 . S
N264 C267 1.350 . S
N265 S263 1.610 . S
N265 C266 1.351 . S
C266 C260 1.428 . S
C266 N265 1.351 . S
C266 C267 1.434 . S
C267 C258 1.429 . S
C267 N264 1.350 . S
C267 C266 1.434 . S
C268 C269 1.369 . S
C268 C270 1.419 . S
C268 H272 0.930 . S
C269 C268 1.369 . S
C269 C278 1.429 . S
C270 C268 1.419 . S
C270 C271 1.363 . S
C270 H273 0.929 . S
C271 C270 1.363 . S
C271 C277 1.428 . S
H272 C268 0.930 . S
H273 C270 0.929 . S
S274 N275 1.613 . S
S274 N276 1.610 . S
N275 S274 1.613 . S
N275 C278 1.350 . S
N276 S274 1.610 . S
N276 C277 1.351 . S
C277 C271 1.428 . S
C277 N276 1.351 . S
C277 C278 1.434 . S
C278 C269 1.429 . S
C278 N275 1.350 . S
C278 C277 1.434 . S
C279 C280 1.369 . S
C279 C281 1.419 . S
C279 H283 0.930 . S
C280 C279 1.369 . S
C280 C289 1.429 . S
C281 C279 1.419 . S
C281 C282 1.363 . S
C281 H284 0.929 . S
C282 C281 1.363 . S
C282 C288 1.428 . S
H283 C279 0.930 . S
H284 C281 0.929 . S
S285 N286 1.613 . S
S285 N287 1.610 . S
N286 S285 1.613 . S
N286 C289 1.350 . S
N287 S285 1.610 . S
N287 C288 1.351 . S
C288 C282 1.428 . S
C288 N287 1.351 . S
C288 C289 1.434 . S
C289 C280 1.429 . S
C289 N286 1.350 . S
C289 C288 1.434 . S
C290 C291 1.369 . S
C290 C292 1.419 . S
C290 H294 0.930 . S
C291 C290 1.369 . S
C291 C300 1.429 . S
C292 C290 1.419 . S
C292 C293 1.363 . S
C292 H295 0.929 . S
C293 C292 1.363 . S
C293 C299 1.428 . S
H294 C290 0.930 . S
H295 C292 0.929 . S
S296 N297 1.613 . S
S296 N298 1.610 . S
N297 S296 1.613 . S
N297 C300 1.350 . S
N298 S296 1.610 . S
N298 C299 1.351 . S
C299 C293 1.428 . S
C299 N298 1.351 . S
C299 C300 1.434 . S
C300 C291 1.429 . S
C300 N297 1.350 . S
C300 C299 1.434 . S
C301 C302 1.369 . S
C301 C303 1.419 . S
C301 H305 0.930 . S
C302 C301 1.369 . S
C302 C311 1.429 . S
C303 C301 1.419 . S
C303 C304 1.363 . S
C303 H306 0.929 . S
C304 C303 1.363 . S
C304 C310 1.428 . S
H305 C301 0.930 . S
H306 C303 0.929 . S
S307 N308 1.613 . S
S307 N309 1.610 . S
N308 S307 1.613 . S
N308 C311 1.350 . S
N309 S307 1.610 . S
N309 C310 1.351 . S
C310 C304 1.428 . S
C310 N309 1.351 . S
C310 C311 1.434 . S
C311 C302 1.429 . S
C311 N308 1.350 . S
C311 C310 1.434 . S
C312 C313 1.369 . S
C312 C314 1.419 1_565 S
C312 H316 0.930 . S
C313 C312 1.369 . S
C313 C322 1.429 . S
C314 C312 1.419 1_545 S
C314 C315 1.363 . S
C314 H317 0.929 . S
C315 C314 1.363 . S
C315 C321 1.428 . S
H316 C312 0.930 . S
H317 C314 0.929 . S
S318 N319 1.613 . S
S318 N320 1.610 1_565 S
N319 S318 1.613 . S
N319 C322 1.350 . S
N320 S318 1.610 1_545 S
N320 C321 1.351 . S
C321 C315 1.428 . S
C321 N320 1.351 . S
C321 C322 1.434 1_545 S
C322 C313 1.429 . S
C322 N319 1.350 . S
C322 C321 1.434 1_565 S
C323 C324 1.369 . S
C323 C325 1.419 . S
C323 H327 0.930 . S
C324 C323 1.369 . S
C324 C333 1.429 . S
C325 C323 1.419 . S
C325 C326 1.363 . S
C325 H328 0.929 . S
C326 C325 1.363 . S
C326 C332 1.428 . S
H327 C323 0.930 . S
H328 C325 0.929 . S
S329 N330 1.613 . S
S329 N331 1.610 . S
N330 S329 1.613 . S
N330 C333 1.350 . S
N331 S329 1.610 . S
N331 C332 1.351 . S
C332 C326 1.428 . S
C332 N331 1.351 . S
C332 C333 1.434 . S
C333 C324 1.429 . S
C333 N330 1.350 . S
C333 C332 1.434 . S
C334 C335 1.369 . S
C334 C336 1.419 1_556 S
C334 H338 0.930 . S
C335 C334 1.369 . S
C335 C344 1.429 . S
C336 C334 1.419 1_554 S
C336 C337 1.363 . S
C336 H339 0.929 . S
C337 C336 1.363 . S
C337 C343 1.428 1_554 S
H338 C334 0.930 . S
H339 C336 0.929 . S
S340 N341 1.613 . S
S340 N342 1.610 1_556 S
N341 S340 1.613 . S
N341 C344 1.350 . S
N342 S340 1.610 1_554 S
N342 C343 1.351 1_554 S
C343 C337 1.428 1_556 S
C343 N342 1.351 1_556 S
C343 C344 1.434 . S
C344 C335 1.429 . S
C344 N341 1.350 . S
C344 C343 1.434 . S
C345 C346 1.373 . S
C345 C347 1.413 1_554 S
C345 H349 0.932 . S
C346 C345 1.373 . S
C346 C355 1.429 . S
C347 C345 1.413 1_556 S
C347 C348 1.363 . S
C347 H350 0.929 . S
C348 C347 1.363 . S
C348 C354 1.428 . S
H349 C345 0.932 . S
H350 C347 0.929 . S
S351 N352 1.613 1_556 S
S351 N353 1.610 . S
N352 S351 1.613 1_554 S
N352 C355 1.350 . S
N353 S351 1.610 . S
N353 C354 1.351 . S
C354 C348 1.428 . S
C354 N353 1.351 . S
C354 C355 1.434 1_556 S
C355 C346 1.429 . S
C355 N352 1.350 . S
C355 C354 1.434 1_554 S
C356 C357 1.369 . S
C356 C358 1.419 . S
C356 H360 0.930 . S
C357 C356 1.369 . S
C357 C366 1.429 . S
C358 C356 1.419 . S
C358 C359 1.363 . S
C358 H361 0.929 . S
C359 C358 1.363 . S
C359 C365 1.428 . S
H360 C356 0.930 . S
H361 C358 0.929 . S
S362 N363 1.613 . S
S362 N364 1.610 . S
N363 S362 1.613 . S
N363 C366 1.350 . S
N364 S362 1.610 . S
N364 C365 1.351 . S
C365 C359 1.428 . S
C365 N364 1.351 . S
C365 C366 1.434 . S
C366 C357 1.429 . S
C366 N363 1.350 . S
C366 C365 1.434 . S
C367 C368 1.369 . S
C367 C369 1.419 . S
C367 H371 0.930 . S
C368 C367 1.369 . S
C368 C377 1.429 . S
C369 C367 1.419 . S
C369 C370 1.363 . S
C369 H372 0.929 . S
C370 C369 1.363 . S
C370 C376 1.428 . S
H371 C367 0.930 . S
H372 C369 0.929 . S
S373 N374 1.613 . S
S373 N375 1.610 . S
N374 S373 1.613 . S
N374 C377 1.350 . S
N375 S373 1.610 . S
N375 C376 1.351 . S
C376 C370 1.428 . S
C376 N375 1.351 . S
C376 C377 1.434 . S
C377 C368 1.429 . S
C377 N374 1.350 . S
C377 C376 1.434 . S
C378 C379 1.369 . S
C378 C380 1.419 1_655 S
C378 H382 0.930 . S
C379 C378 1.369 . S
C379 C388 1.429 . S
C380 C378 1.419 1_455 S
C380 C381 1.363 . S
C380 H383 0.929 . S
C381 C380 1.363 . S
C381 C387 1.431 . S
H382 C378 0.930 . S
H383 C380 0.929 . S
S384 N385 1.613 . S
S384 N386 1.610 . S
N385 S384 1.613 . S
N385 C388 1.350 . S
N386 S384 1.610 . S
N386 C387 1.351 1_655 S
C387 C381 1.431 . S
C387 N386 1.351 1_455 S
C387 C388 1.431 1_455 S
C388 C379 1.429 . S
C388 N385 1.350 . S
C388 C387 1.431 1_655 S
C389 C390 1.369 . S
C389 C391 1.419 1_655 S
C389 H393 0.930 1_655 S
C390 C389 1.369 . S
C390 C399 1.429 . S
C391 C389 1.419 1_455 S
C391 C392 1.363 . S
C391 H394 0.929 . S
C392 C391 1.363 . S
C392 C398 1.428 1_455 S
H393 C389 0.930 1_455 S
H394 C391 0.929 . S
S395 N396 1.613 . S
S395 N397 1.610 . S
N396 S395 1.613 . S
N396 C399 1.350 . S
N397 S395 1.610 . S
N397 C398 1.351 . S
C398 C392 1.428 1_655 S
C398 N397 1.351 . S
C398 C399 1.434 . S
C399 C390 1.429 . S
C399 N396 1.350 . S
C399 C398 1.434 . S
C400 C401 1.369 . S
C400 C402 1.419 . S
C400 H404 0.930 . S
C401 C400 1.369 . S
C401 C410 1.429 . S
C402 C400 1.419 . S
C402 C403 1.363 . S
C402 H405 0.929 . S
C403 C402 1.363 . S
C403 C409 1.428 . S
H404 C400 0.930 . S
H405 C402 0.929 . S
S406 N407 1.613 . S
S406 N408 1.610 . S
N407 S406 1.613 . S
N407 C410 1.350 . S
N408 S406 1.610 . S
N408 C409 1.351 . S
C409 C403 1.428 . S
C409 N408 1.351 . S
C409 C410 1.434 . S
C410 C401 1.429 . S
C410 N407 1.350 . S
C410 C409 1.434 . S
C411 C412 1.369 . S
C411 C413 1.419 1_545 S
C411 H415 0.930 . S
C412 C411 1.369 . S
C412 C421 1.429 . S
C413 C411 1.419 1_565 S
C413 C414 1.363 . S
C413 H416 0.929 . S
C414 C413 1.363 . S
C414 C420 1.428 1_565 S
H415 C411 0.930 . S
H416 C413 0.929 . S
S417 N418 1.613 . S
S417 N419 1.610 . S
N418 S417 1.613 . S
N418 C421 1.350 . S
N419 S417 1.610 . S
N419 C420 1.351 . S
C420 C414 1.428 1_545 S
C420 N419 1.351 . S
C420 C421 1.434 . S
C421 C412 1.429 . S
C421 N418 1.350 . S
C421 C420 1.434 . S
C422 C423 1.369 . S
C422 C424 1.419 . S
C422 H426 0.930 . S
C423 C422 1.369 . S
C423 C432 1.429 . S
C424 C422 1.419 . S
C424 C425 1.363 . S
C424 H427 0.929 . S
C425 C424 1.363 . S
C425 C431 1.428 . S
H426 C422 0.930 . S
H427 C424 0.929 . S
S428 N429 1.613 . S
S428 N430 1.610 . S
N429 S428 1.613 . S
N429 C432 1.350 . S
N430 S428 1.610 . S
N430 C431 1.351 . S
C431 C425 1.428 . S
C431 N430 1.351 . S
C431 C432 1.434 . S
C432 C423 1.429 . S
C432 N429 1.350 . S
C432 C431 1.434 . S
C433 C434 1.369 . S
C433 C435 1.419 1_554 S
C433 H437 0.927 1_554 S
C434 C433 1.369 . S
C434 C443 1.429 . S
C435 C433 1.419 1_556 S
C435 C436 1.363 . S
C435 H438 0.929 . S
C436 C435 1.363 . S
C436 C442 1.428 1_556 S
H437 C433 0.927 1_556 S
H438 C435 0.929 . S
S439 N440 1.613 . S
S439 N441 1.610 . S
N440 S439 1.613 . S
N440 C443 1.350 . S
N441 S439 1.610 . S
N441 C442 1.351 . S
C442 C436 1.428 1_554 S
C442 N441 1.351 . S
C442 C443 1.434 . S
C443 C434 1.429 . S
C443 N440 1.350 . S
C443 C442 1.434 . S
C444 C445 1.369 . S
C444 C446 1.419 1_556 S
C444 H448 0.930 . S
C445 C444 1.369 . S
C445 C454 1.429 1_556 S
C446 C444 1.419 1_554 S
C446 C447 1.363 . S
C446 H449 0.929 . S
C447 C446 1.363 . S
C447 C453 1.428 . S
H448 C444 0.930 . S
H449 C446 0.929 . S
S450 N451 1.613 . S
S450 N452 1.610 . S
N451 S450 1.613 . S
N451 C454 1.350 . S
N452 S450 1.610 . S
N452 C453 1.351 . S
C453 C447 1.428 . S
C453 N452 1.351 . S
C453 C454 1.434 . S
C454 C445 1.429 1_554 S
C454 N451 1.350 . S
C454 C453 1.434 . S
C455 C456 1.369 . S
C455 C457 1.419 . S
C455 H459 0.930 . S
C456 C455 1.369 . S
C456 C465 1.429 . S
C457 C455 1.419 . S
C457 C458 1.363 . S
C457 H460 0.929 . S
C458 C457 1.363 . S
C458 C464 1.428 . S
H459 C455 0.930 . S
H460 C457 0.929 . S
S461 N462 1.613 . S
S461 N463 1.610 . S
N462 S461 1.613 . S
N462 C465 1.350 . S
N463 S461 1.610 . S
N463 C464 1.351 . S
C464 C458 1.428 . S
C464 N463 1.351 . S
C464 C465 1.434 . S
C465 C456 1.429 . S
C465 N462 1.350 . S
C465 C464 1.434 . S
C466 C467 1.369 . S
C466 C468 1.419 . S
C466 H470 0.930 . S
C467 C466 1.369 . S
C467 C476 1.429 . S
C468 C466 1.419 . S
C468 C469 1.363 . S
C468 H471 0.929 . S
C469 C468 1.363 . S
C469 C475 1.428 . S
H470 C466 0.930 . S
H471 C468 0.929 . S
S472 N473 1.613 . S
S472 N474 1.610 . S
N473 S472 1.613 . S
N473 C476 1.350 . S
N474 S472 1.610 . S
N474 C475 1.351 . S
C475 C469 1.428 . S
C475 N474 1.351 . S
C475 C476 1.434 . S
C476 C467 1.429 . S
C476 N473 1.350 . S
C476 C475 1.434 . S
C477 C478 1.369 . S
C477 C479 1.419 . S
C477 H481 0.930 . S
C478 C477 1.369 . S
C478 C487 1.429 . S
C479 C477 1.419 . S
C479 C480 1.363 1_455 S
C479 H482 0.929 . S
C480 C479 1.363 1_655 S
C480 C486 1.428 . S
H481 C477 0.930 . S
H482 C479 0.929 . S
S483 N484 1.613 . S
S483 N485 1.610 . S
N484 S483 1.613 . S
N484 C487 1.350 1_655 S
N485 S483 1.610 . S
N485 C486 1.351 . S
C486 C480 1.428 . S
C486 N485 1.351 . S
C486 C487 1.434 1_655 S
C487 C478 1.429 . S
C487 N484 1.350 1_455 S
C487 C486 1.434 1_455 S
C488 C489 1.369 . S
C488 C490 1.419 1_455 S
C488 H492 0.930 . S
C489 C488 1.369 . S
C489 C498 1.429 . S
C490 C488 1.419 1_655 S
C490 C491 1.363 . S
C490 H493 0.929 . S
C491 C490 1.363 . S
C491 C497 1.428 1_655 S
H492 C488 0.930 . S
H493 C490 0.929 . S
S494 N495 1.613 . S
S494 N496 1.610 . S
N495 S494 1.613 . S
N495 C498 1.350 . S
N496 S494 1.610 . S
N496 C497 1.351 . S
C497 C491 1.428 1_455 S
C497 N496 1.351 . S
C497 C498 1.434 . S
C498 C489 1.429 . S
C498 N495 1.350 . S
C498 C497 1.434 . S
C499 C500 1.369 . S
C499 C501 1.419 . S
C499 H503 0.930 . S
C500 C499 1.369 . S
C500 C509 1.429 . S
C501 C499 1.419 . S
C501 C502 1.363 . S
C501 H504 0.929 . S
C502 C501 1.363 . S
C502 C508 1.428 . S
H503 C499 0.930 . S
H504 C501 0.929 . S
S505 N506 1.613 . S
S505 N507 1.610 . S
N506 S505 1.613 . S
N506 C509 1.350 . S
N507 S505 1.610 . S
N507 C508 1.351 . S
C508 C502 1.428 . S
C508 N507 1.351 . S
C508 C509 1.434 . S
C509 C500 1.429 . S
C509 N506 1.350 . S
C509 C508 1.434 . S
C510 C511 1.369 . S
C510 C512 1.419 . S
C510 H514 0.930 . S
C511 C510 1.369 . S
C511 C520 1.429 . S
C512 C510 1.419 . S
C512 C513 1.363 . S
C512 H515 0.929 . S
C513 C512 1.363 . S
C513 C519 1.428 . S
H514 C510 0.930 . S
H515 C512 0.929 . S
S516 N517 1.613 . S
S516 N518 1.610 . S
N517 S516 1.613 . S
N517 C520 1.350 . S
N518 S516 1.610 . S
N518 C519 1.351 . S
C519 C513 1.428 . S
C519 N518 1.351 . S
C519 C520 1.434 . S
C520 C511 1.429 . S
C520 N517 1.350 . S
C520 C519 1.434 . S
C521 C522 1.369 1_565 S
C521 C523 1.419 . S
C521 H525 0.930 . S
C522 C521 1.369 1_545 S
C522 C531 1.429 . S
C523 C521 1.419 . S
C523 C524 1.363 . S
C523 H526 0.929 . S
C524 C523 1.363 . S
C524 C530 1.451 . S
H525 C521 0.930 . S
H526 C523 0.929 . S
S527 N528 1.613 . S
S527 N529 1.610 . S
N528 S527 1.613 . S
N528 C531 1.350 . S
N529 S527 1.610 . S
N529 C530 1.346 1_545 S
C530 C524 1.451 . S
C530 N529 1.346 1_565 S
C530 C531 1.414 1_565 S
C531 C522 1.429 . S
C531 N528 1.350 . S
C531 C530 1.414 1_545 S
C532 C533 1.369 . S
C532 C534 1.419 . S
C532 H536 0.930 . S
C533 C532 1.369 . S
C533 C542 1.429 . S
C534 C532 1.419 . S
C534 C535 1.363 . S
C534 H537 0.929 . S
C535 C534 1.363 . S
C535 C541 1.428 . S
H536 C532 0.930 . S
H537 C534 0.929 . S
S538 N539 1.613 . S
S538 N540 1.610 . S
N539 S538 1.613 . S
N539 C542 1.350 . S
N540 S538 1.610 . S
N540 C541 1.351 . S
C541 C535 1.428 . S
C541 N540 1.351 . S
C541 C542 1.434 . S
C542 C533 1.429 . S
C542 N539 1.350 . S
C542 C541 1.434 . S
C543 C544 1.369 . S
C543 C545 1.419 . S
C543 H547 0.930 . S
C544 C543 1.369 . S
C544 C553 1.429 . S
C545 C543 1.419 . S
C545 C546 1.363 . S
C545 H548 0.929 . S
C546 C545 1.363 . S
C546 C552 1.428 . S
H547 C543 0.930 . S
H548 C545 0.929 . S
S549 N550 1.613 . S
S549 N551 1.610 . S
N550 S549 1.613 . S
N550 C553 1.350 . S
N551 S549 1.610 . S
N551 C552 1.351 . S
C552 C546 1.428 . S
C552 N551 1.351 . S
C552 C553 1.434 . S
C553 C544 1.429 . S
C553 N550 1.350 . S
C553 C552 1.434 . S
C554 C555 1.369 . S
C554 C556 1.419 1_545 S
C554 H558 0.930 . S
C555 C554 1.369 . S
C555 C564 1.429 . S
C556 C554 1.419 1_565 S
C556 C557 1.363 . S
C556 H559 0.929 . S
C557 C556 1.363 . S
C557 C563 1.428 . S
H558 C554 0.930 . S
H559 C556 0.929 . S
S560 N561 1.613 1_565 S
S560 N562 1.610 . S
N561 S560 1.613 1_545 S
N561 C564 1.350 . S
N562 S560 1.610 . S
N562 C563 1.351 . S
C563 C557 1.428 . S
C563 N562 1.351 . S
C563 C564 1.434 1_565 S
C564 C555 1.429 . S
C564 N561 1.350 . S
C564 C563 1.434 1_545 S
C565 C566 1.369 . S
C565 C567 1.419 . S
C565 H569 0.930 . S
C566 C565 1.369 . S
C566 C575 1.429 . S
C567 C565 1.419 . S
C567 C568 1.363 . S
C567 H570 0.929 . S
C568 C567 1.363 . S
C568 C574 1.428 . S
H569 C565 0.930 . S
H570 C567 0.929 . S
S571 N572 1.613 . S
S571 N573 1.610 . S
N572 S571 1.613 . S
N572 C575 1.350 . S
N573 S571 1.610 . S
N573 C574 1.351 . S
C574 C568 1.428 . S
C574 N573 1.351 . S
C574 C575 1.434 . S
C575 C566 1.429 . S
C575 N572 1.350 . S
C575 C574 1.434 . S
C225 C8 1.427 . S
C227 C190 1.423 . S
C236 C22 1.305 . S
C238 C134 1.286 . S
C247 C204 1.189 . S
C249 C36 1.191 . S
C258 C50 1.153 . S
C260 C218 1.156 . S
C269 C64 1.309 . S
C271 C92 1.288 . S
C280 C148 1.430 . S
C282 C78 1.420 . S
C291 C162 1.196 . S
C293 C106 1.191 . S
C302 C120 1.150 . S
C304 C176 1.157 . S
C313 C41 1.554 . S
C315 C7 1.642 . S
C324 C21 1.513 . S
C326 C55 1.457 . S
C335 C175 1.473 . S
C337 C11 1.482 . S
C346 C25 1.473 . S
C348 C161 1.469 . S
C357 C67 1.477 . S
C359 C35 1.469 . S
C368 C151 1.483 . S
C370 C49 1.473 . S
C379 C27 1.496 . S
C381 C13 1.501 . S
C390 C53 1.476 . S
C392 C39 1.478 . S
C401 C153 1.501 . S
C403 C69 1.498 . S
C412 C105 1.493 . S
C414 C83 1.354 . S
C423 C97 1.367 . S
C425 C125 1.350 . S
C434 C221 1.556 . S
C436 C81 1.558 . S
C445 C95 1.603 . S
C447 C209 1.469 . S
C456 C137 1.603 . S
C458 C111 1.468 . S
C467 C123 1.554 . S
C469 C193 1.556 . S
C478 C91 1.685 . S
C480 C77 1.686 . S
C489 C119 1.394 . S
C491 C109 1.393 . S
C500 C133 1.688 . S
C502 C189 1.687 . S
C511 C147 1.644 . S
C513 C167 1.546 . S
C522 C181 1.451 . S
C524 C63 1.517 . S
C533 C179 1.475 . S
C535 C165 1.478 . S
C544 C203 1.495 . S
C546 C195 1.342 . S
C555 C139 1.368 . S
C557 C223 1.358 . S
C566 C217 1.391 . S
C568 C207 1.390 . S
