# Generated by pormake.
# Topology wgq, (5)-cn, num edge types: 1
# Building blocks:
#     Node 0, Type 0, BuildingBlock: BEQFEK_clean_sbu_0, # of connection points: 5
#     Node 1, Type 0, BuildingBlock: BEQFEK_clean_sbu_0, # of connection points: 5
#     Node 2, Type 0, BuildingBlock: BEQFEK_clean_sbu_0, # of connection points: 5
#     Node 3, Type 0, BuildingBlock: BEQFEK_clean_sbu_0, # of connection points: 5
#     Node 4, Type 0, BuildingBlock: BEQFEK_clean_sbu_0, # of connection points: 5
#     Node 5, Type 0, BuildingBlock: BEQFEK_clean_sbu_0, # of connection points: 5
#     Node 6, Type 0, BuildingBlock: BEQFEK_clean_sbu_0, # of connection points: 5
#     Node 7, Type 0, BuildingBlock: BEQFEK_clean_sbu_0, # of connection points: 5
#     Node 8, Type 0, BuildingBlock: BEQFEK_clean_sbu_0, # of connection points: 5
#     Node 9, Type 0, BuildingBlock: BEQFEK_clean_sbu_0, # of connection points: 5
#     Node 10, Type 0, BuildingBlock: BEQFEK_clean_sbu_0, # of connection points: 5
#     Node 11, Type 0, BuildingBlock: BEQFEK_clean_sbu_0, # of connection points: 5
#     Node 12, Type 0, BuildingBlock: BEQFEK_clean_sbu_0, # of connection points: 5
#     Node 13, Type 0, BuildingBlock: BEQFEK_clean_sbu_0, # of connection points: 5
#     Node 14, Type 0, BuildingBlock: BEQFEK_clean_sbu_0, # of connection points: 5
#     Node 15, Type 0, BuildingBlock: BEQFEK_clean_sbu_0, # of connection points: 5
#     Node 16, Type 0, BuildingBlock: BEQFEK_clean_sbu_0, # of connection points: 5
#     Node 17, Type 0, BuildingBlock: BEQFEK_clean_sbu_0, # of connection points: 5
#     Node 18, Type 0, BuildingBlock: BEQFEK_clean_sbu_0, # of connection points: 5
#     Node 19, Type 0, BuildingBlock: BEQFEK_clean_sbu_0, # of connection points: 5
#     Node 20, Type 0, BuildingBlock: BEQFEK_clean_sbu_0, # of connection points: 5
#     Node 21, Type 0, BuildingBlock: BEQFEK_clean_sbu_0, # of connection points: 5
#     Node 22, Type 0, BuildingBlock: BEQFEK_clean_sbu_0, # of connection points: 5
#     Node 23, Type 0, BuildingBlock: BEQFEK_clean_sbu_0, # of connection points: 5
#     Node 24, Type 0, BuildingBlock: BEQFEK_clean_sbu_0, # of connection points: 5
#     Node 25, Type 0, BuildingBlock: BEQFEK_clean_sbu_0, # of connection points: 5
#     Node 26, Type 0, BuildingBlock: BEQFEK_clean_sbu_0, # of connection points: 5
#     Node 27, Type 0, BuildingBlock: BEQFEK_clean_sbu_0, # of connection points: 5
#     Node 28, Type 0, BuildingBlock: BEQFEK_clean_sbu_0, # of connection points: 5
#     Node 29, Type 0, BuildingBlock: BEQFEK_clean_sbu_0, # of connection points: 5
#     Node 30, Type 0, BuildingBlock: BEQFEK_clean_sbu_0, # of connection points: 5
#     Node 31, Type 0, BuildingBlock: BEQFEK_clean_sbu_0, # of connection points: 5
#     Edge 32, Type (0, 0), BuildingBlock: CIFDUS_clean_linker_0, # of connection points: 2
#     Edge 33, Type (0, 0), BuildingBlock: CIFDUS_clean_linker_0, # of connection points: 2
#     Edge 34, Type (0, 0), BuildingBlock: CIFDUS_clean_linker_0, # of connection points: 2
#     Edge 35, Type (0, 0), BuildingBlock: CIFDUS_clean_linker_0, # of connection points: 2
#     Edge 36, Type (0, 0), BuildingBlock: CIFDUS_clean_linker_0, # of connection points: 2
#     Edge 37, Type (0, 0), BuildingBlock: CIFDUS_clean_linker_0, # of connection points: 2
#     Edge 38, Type (0, 0), BuildingBlock: CIFDUS_clean_linker_0, # of connection points: 2
#     Edge 39, Type (0, 0), BuildingBlock: CIFDUS_clean_linker_0, # of connection points: 2
#     Edge 40, Type (0, 0), BuildingBlock: CIFDUS_clean_linker_0, # of connection points: 2
#     Edge 41, Type (0, 0), BuildingBlock: CIFDUS_clean_linker_0, # of connection points: 2
#     Edge 42, Type (0, 0), BuildingBlock: CIFDUS_clean_linker_0, # of connection points: 2
#     Edge 43, Type (0, 0), BuildingBlock: CIFDUS_clean_linker_0, # of connection points: 2
#     Edge 44, Type (0, 0), BuildingBlock: CIFDUS_clean_linker_0, # of connection points: 2
#     Edge 45, Type (0, 0), BuildingBlock: CIFDUS_clean_linker_0, # of connection points: 2
#     Edge 46, Type (0, 0), BuildingBlock: CIFDUS_clean_linker_0, # of connection points: 2
#     Edge 47, Type (0, 0), BuildingBlock: CIFDUS_clean_linker_0, # of connection points: 2
#     Edge 48, Type (0, 0), BuildingBlock: CIFDUS_clean_linker_0, # of connection points: 2
#     Edge 49, Type (0, 0), BuildingBlock: CIFDUS_clean_linker_0, # of connection points: 2
#     Edge 50, Type (0, 0), BuildingBlock: CIFDUS_clean_linker_0, # of connection points: 2
#     Edge 51, Type (0, 0), BuildingBlock: CIFDUS_clean_linker_0, # of connection points: 2
#     Edge 52, Type (0, 0), BuildingBlock: CIFDUS_clean_linker_0, # of connection points: 2
#     Edge 53, Type (0, 0), BuildingBlock: CIFDUS_clean_linker_0, # of connection points: 2
#     Edge 54, Type (0, 0), BuildingBlock: CIFDUS_clean_linker_0, # of connection points: 2
#     Edge 55, Type (0, 0), BuildingBlock: CIFDUS_clean_linker_0, # of connection points: 2
#     Edge 56, Type (0, 0), BuildingBlock: CIFDUS_clean_linker_0, # of connection points: 2
#     Edge 57, Type (0, 0), BuildingBlock: CIFDUS_clean_linker_0, # of connection points: 2
#     Edge 58, Type (0, 0), BuildingBlock: CIFDUS_clean_linker_0, # of connection points: 2
#     Edge 59, Type (0, 0), BuildingBlock: CIFDUS_clean_linker_0, # of connection points: 2
#     Edge 60, Type (0, 0), BuildingBlock: CIFDUS_clean_linker_0, # of connection points: 2
#     Edge 61, Type (0, 0), BuildingBlock: CIFDUS_clean_linker_0, # of connection points: 2
#     Edge 62, Type (0, 0), BuildingBlock: CIFDUS_clean_linker_0, # of connection points: 2
#     Edge 63, Type (0, 0), BuildingBlock: CIFDUS_clean_linker_0, # of connection points: 2
#     Edge 64, Type (0, 0), BuildingBlock: CIFDUS_clean_linker_0, # of connection points: 2
#     Edge 65, Type (0, 0), BuildingBlock: CIFDUS_clean_linker_0, # of connection points: 2
#     Edge 66, Type (0, 0), BuildingBlock: CIFDUS_clean_linker_0, # of connection points: 2
#     Edge 67, Type (0, 0), BuildingBlock: CIFDUS_clean_linker_0, # of connection points: 2
#     Edge 68, Type (0, 0), BuildingBlock: CIFDUS_clean_linker_0, # of connection points: 2
#     Edge 69, Type (0, 0), BuildingBlock: CIFDUS_clean_linker_0, # of connection points: 2
#     Edge 70, Type (0, 0), BuildingBlock: CIFDUS_clean_linker_0, # of connection points: 2
#     Edge 71, Type (0, 0), BuildingBlock: CIFDUS_clean_linker_0, # of connection points: 2
#     Edge 72, Type (0, 0), BuildingBlock: CIFDUS_clean_linker_0, # of connection points: 2
#     Edge 73, Type (0, 0), BuildingBlock: CIFDUS_clean_linker_0, # of connection points: 2
#     Edge 74, Type (0, 0), BuildingBlock: CIFDUS_clean_linker_0, # of connection points: 2
#     Edge 75, Type (0, 0), BuildingBlock: CIFDUS_clean_linker_0, # of connection points: 2
#     Edge 76, Type (0, 0), BuildingBlock: CIFDUS_clean_linker_0, # of connection points: 2
#     Edge 77, Type (0, 0), BuildingBlock: CIFDUS_clean_linker_0, # of connection points: 2
#     Edge 78, Type (0, 0), BuildingBlock: CIFDUS_clean_linker_0, # of connection points: 2
#     Edge 79, Type (0, 0), BuildingBlock: CIFDUS_clean_linker_0, # of connection points: 2
#     Edge 80, Type (0, 0), BuildingBlock: CIFDUS_clean_linker_0, # of connection points: 2
#     Edge 81, Type (0, 0), BuildingBlock: CIFDUS_clean_linker_0, # of connection points: 2
#     Edge 82, Type (0, 0), BuildingBlock: CIFDUS_clean_linker_0, # of connection points: 2
#     Edge 83, Type (0, 0), BuildingBlock: CIFDUS_clean_linker_0, # of connection points: 2
#     Edge 84, Type (0, 0), BuildingBlock: CIFDUS_clean_linker_0, # of connection points: 2
#     Edge 85, Type (0, 0), BuildingBlock: CIFDUS_clean_linker_0, # of connection points: 2
#     Edge 86, Type (0, 0), BuildingBlock: CIFDUS_clean_linker_0, # of connection points: 2
#     Edge 87, Type (0, 0), BuildingBlock: CIFDUS_clean_linker_0, # of connection points: 2
#     Edge 88, Type (0, 0), BuildingBlock: CIFDUS_clean_linker_0, # of connection points: 2
#     Edge 89, Type (0, 0), BuildingBlock: CIFDUS_clean_linker_0, # of connection points: 2
#     Edge 90, Type (0, 0), BuildingBlock: CIFDUS_clean_linker_0, # of connection points: 2
#     Edge 91, Type (0, 0), BuildingBlock: CIFDUS_clean_linker_0, # of connection points: 2
#     Edge 92, Type (0, 0), BuildingBlock: CIFDUS_clean_linker_0, # of connection points: 2
#     Edge 93, Type (0, 0), BuildingBlock: CIFDUS_clean_linker_0, # of connection points: 2
#     Edge 94, Type (0, 0), BuildingBlock: CIFDUS_clean_linker_0, # of connection points: 2
#     Edge 95, Type (0, 0), BuildingBlock: CIFDUS_clean_linker_0, # of connection points: 2
#     Edge 96, Type (0, 0), BuildingBlock: CIFDUS_clean_linker_0, # of connection points: 2
#     Edge 97, Type (0, 0), BuildingBlock: CIFDUS_clean_linker_0, # of connection points: 2
#     Edge 98, Type (0, 0), BuildingBlock: CIFDUS_clean_linker_0, # of connection points: 2
#     Edge 99, Type (0, 0), BuildingBlock: CIFDUS_clean_linker_0, # of connection points: 2
#     Edge 100, Type (0, 0), BuildingBlock: CIFDUS_clean_linker_0, # of connection points: 2
#     Edge 101, Type (0, 0), BuildingBlock: CIFDUS_clean_linker_0, # of connection points: 2
#     Edge 102, Type (0, 0), BuildingBlock: CIFDUS_clean_linker_0, # of connection points: 2
#     Edge 103, Type (0, 0), BuildingBlock: CIFDUS_clean_linker_0, # of connection points: 2
#     Edge 104, Type (0, 0), BuildingBlock: CIFDUS_clean_linker_0, # of connection points: 2
#     Edge 105, Type (0, 0), BuildingBlock: CIFDUS_clean_linker_0, # of connection points: 2
#     Edge 106, Type (0, 0), BuildingBlock: CIFDUS_clean_linker_0, # of connection points: 2
#     Edge 107, Type (0, 0), BuildingBlock: CIFDUS_clean_linker_0, # of connection points: 2
#     Edge 108, Type (0, 0), BuildingBlock: CIFDUS_clean_linker_0, # of connection points: 2
#     Edge 109, Type (0, 0), BuildingBlock: CIFDUS_clean_linker_0, # of connection points: 2
#     Edge 110, Type (0, 0), BuildingBlock: CIFDUS_clean_linker_0, # of connection points: 2
#     Edge 111, Type (0, 0), BuildingBlock: CIFDUS_clean_linker_0, # of connection points: 2
# Relax obj value: 0.083
# Max RMSD: 0.132
# Mean RMSD: 0.132
data_MOF--net-wgq--node1-BEQFEK_clean_sbu_0--edge1-CIFDUS_clean_linker_0
_symmetry_space_group_name_H-M    P1
_symmetry_Int_Tables_number       1
_symmetry_cell_setting            triclinic
loop_
_symmetry_equiv_pos_as_xyz
'x, y, z'
_cell_length_a     27.010427
_cell_length_b     27.023041
_cell_length_c     140.12117
_cell_angle_alpha  89.943236
_cell_angle_beta   89.954819
_cell_angle_gamma 89.999467
loop_
_atom_site_label
_atom_site_type_symbol
_atom_site_fract_x
_atom_site_fract_y
_atom_site_fract_z
_atom_type_partial_charge
Co0 Co 0.14353 0.08905 0.17263 0.0
Co1 Co 0.14216 0.09001 0.19504 0.0
C2 C 0.07115 0.02756 0.18321 0.0
O3 O 0.09 0.04143 0.1753 0.0
O4 O 0.08884 0.04185 0.19119 0.0
C5 C 0.14675 0.06503 0.15231 0.0
O6 O 0.12845 0.02155 0.15459 0.0
C7 C 0.15397 0.04842 0.21447 0.0
C8 C 0.15803 0.11673 0.22307 0.0
C9 C 0.15844 0.06553 0.22384 0.0
N10 N 0.15115 0.08774 0.20858 0.0
N11 N 0.15371 0.12838 0.21378 0.0
C12 C 0.15017 0.99612 0.21105 0.0
H13 H 0.13641 0.9947 0.20362 0.0
H14 H 0.18747 0.97895 0.21115 0.0
H15 H 0.12515 0.97448 0.21576 0.0
C16 C 0.24936 0.06928 0.1759 0.0
N17 N 0.20305 0.07595 0.17921 0.0
N18 N 0.20408 0.08033 0.18854 0.0
C19 C 0.25178 0.07856 0.19145 0.0
C20 C 0.28243 0.07154 0.18351 0.0
C21 C 0.26088 0.05869 0.16565 0.0
H22 H 0.23132 0.0353 0.16254 0.0
H23 H 0.29672 0.03906 0.16487 0.0
H24 H 0.26229 0.09402 0.16161 0.0
O25 O 0.11619 0.15363 0.17624 0.0
O26 O 0.11318 0.15562 0.19205 0.0
H27 H 0.30666 0.10094 0.20186 0.0
H28 H 0.26331 0.05408 0.20578 0.0
C29 C 0.2676 0.08843 0.20151 0.0
H30 H 0.24376 0.11738 0.2047 0.0
H31 H 0.15208 0.16416 0.21099 0.0
O32 O 0.15592 0.09625 0.15883 0.0
C33 C 0.10456 0.17531 0.18397 0.0
Co34 Co 0.19286 0.88318 0.42166 0.0
Co35 Co 0.1875 0.89735 0.44388 0.0
C36 C 0.24851 0.81626 0.43468 0.0
O37 O 0.24013 0.83186 0.42624 0.0
O38 O 0.23138 0.8389 0.44196 0.0
C39 C 0.18906 0.85102 0.40208 0.0
O40 O 0.17873 0.80754 0.40579 0.0
C41 C 0.2119 0.89948 0.46444 0.0
C42 C 0.15439 0.95013 0.46996 0.0
C43 C 0.19391 0.92091 0.47275 0.0
N44 N 0.18397 0.91504 0.45708 0.0
N45 N 0.14955 0.94513 0.46044 0.0
C46 C 0.25637 0.86694 0.46338 0.0
H47 H 0.24409 0.82786 0.46281 0.0
H48 H 0.27661 0.87665 0.45675 0.0
H49 H 0.28167 0.87061 0.46957 0.0
C50 C 0.21115 0.99117 0.42258 0.0
N51 N 0.20367 0.94716 0.42688 0.0
N52 N 0.20458 0.95319 0.43618 0.0
C53 C 0.21451 1.00123 0.4381 0.0
C54 C 0.21877 0.02721 0.42952 0.0
C55 C 0.20663 0.9989 0.41203 0.0
H56 H 0.17426 0.97807 0.40929 0.0
H57 H 0.24035 0.98449 0.40845 0.0
H58 H 0.2017 0.0385 0.41018 0.0
O59 O 0.12722 0.85651 0.42508 0.0
O60 O 0.12118 0.87109 0.44064 0.0
H61 H 0.1862 0.03205 0.45102 0.0
H62 H 0.24682 0.05429 0.44778 0.0
C63 C 0.22244 0.02125 0.44793 0.0
H64 H 0.23941 0.99262 0.45256 0.0
H65 H 0.12266 0.96219 0.45624 0.0
O66 O 0.19706 0.88742 0.40759 0.0
C67 C 0.10361 0.85344 0.43293 0.0
Co68 Co 0.3507 0.92644 0.66991 0.0
Co69 Co 0.34712 0.9194 0.69202 0.0
C70 C 0.42041 0.98515 0.68113 0.0
O71 O 0.40058 0.97741 0.67302 0.0
O72 O 0.40301 0.96519 0.68868 0.0
C73 C 0.34241 0.95807 0.65015 0.0
O74 O 0.34419 0.00377 0.65332 0.0
C75 C 0.34035 0.9604 0.71116 0.0
C76 C 0.33332 0.89312 0.72004 0.0
C77 C 0.33759 0.94418 0.72056 0.0
N78 N 0.33841 0.92076 0.70543 0.0
N79 N 0.33403 0.88065 0.71076 0.0
C80 C 0.34327 0.01235 0.70751 0.0
H81 H 0.32643 0.01471 0.70029 0.0
H82 H 0.32418 0.03826 0.71243 0.0
H83 H 0.38272 0.02334 0.70688 0.0
C84 C 0.2418 0.94377 0.6729 0.0
N85 N 0.28832 0.93651 0.67614 0.0
N86 N 0.2869 0.9314 0.68546 0.0
C87 C 0.23944 0.933 0.68843 0.0
C88 C 0.20881 0.94134 0.68058 0.0
C89 C 0.2299 0.95523 0.66271 0.0
H90 H 0.25714 0.98209 0.6599 0.0
H91 H 0.19251 0.97158 0.6619 0.0
H92 H 0.23256 0.92086 0.65841 0.0
O93 O 0.38216 0.86203 0.67347 0.0
O94 O 0.37138 0.85378 0.68907 0.0
H95 H 0.1845 0.90944 0.69879 0.0
H96 H 0.22967 0.95382 0.70302 0.0
C97 C 0.22387 0.92092 0.69842 0.0
H98 H 0.24688 0.89028 0.70123 0.0
H99 H 0.33248 0.84469 0.70806 0.0
O100 O 0.3433 0.92209 0.65597 0.0
C101 C 0.38727 0.83737 0.68116 0.0
Co102 Co 0.32449 0.09672 0.92005 0.0
Co103 Co 0.31473 0.10993 0.94212 0.0
C104 C 0.26098 0.17681 0.92839 0.0
O105 O 0.27825 0.1528 0.92131 0.0
O106 O 0.26942 0.16293 0.93696 0.0
C107 C 0.30785 0.09581 0.89976 0.0
O108 O 0.27614 0.13155 0.90149 0.0
C109 C 0.27305 0.10505 0.96159 0.0
C110 C 0.34158 0.10869 0.97018 0.0
C111 C 0.29058 0.10482 0.97094 0.0
N112 N 0.31206 0.10882 0.95568 0.0
N113 N 0.35281 0.1112 0.96086 0.0
C114 C 0.221 0.09853 0.95819 0.0
H115 H 0.22073 0.08519 0.95069 0.0
H116 H 0.20079 0.07207 0.96283 0.0
H117 H 0.20173 0.13477 0.95842 0.0
C118 C 0.2984 0.99355 0.92509 0.0
N119 N 0.30654 0.0411 0.92753 0.0
N120 N 0.30513 0.04536 0.93686 0.0
C121 C 0.29839 0.99997 0.94071 0.0
C122 C 0.29355 0.96532 0.93336 0.0
C123 C 0.29234 0.97655 0.91499 0.0
H124 H 0.27283 0.0053 0.91078 0.0
H125 H 0.27075 0.94171 0.91458 0.0
H126 H 0.32942 0.97059 0.91177 0.0
O127 O 0.38956 0.12499 0.9236 0.0
O128 O 0.38141 0.13394 0.93924 0.0
H129 H 0.32991 0.0135 0.95452 0.0
H130 H 0.31166 0.95028 0.95256 0.0
C131 C 0.30161 0.98944 0.95118 0.0
H132 H 0.26531 0.99732 0.95456 0.0
H133 H 0.38843 0.11399 0.95803 0.0
O134 O 0.33141 0.07634 0.90663 0.0
C135 C 0.40634 0.13921 0.93162 0.0
Co136 Co 0.15762 0.91128 0.32828 0.0
Co137 Co 0.15182 0.93506 0.30633 0.0
C138 C 0.08334 0.98451 0.31978 0.0
O139 O 0.10348 0.96098 0.32666 0.0
O140 O 0.10041 0.98126 0.31131 0.0
C141 C 0.17848 0.93821 0.34764 0.0
O142 O 0.18093 0.98316 0.34409 0.0
C143 C 0.14187 0.97252 0.28638 0.0
C144 C 0.19618 0.92462 0.27905 0.0
C145 C 0.16364 0.96346 0.27751 0.0
N146 N 0.16196 0.94145 0.29282 0.0
N147 N 0.19364 0.91239 0.28834 0.0
C148 C 0.09939 0.00618 0.28858 0.0
H149 H 0.07527 0.98906 0.29406 0.0
H150 H 0.11379 0.04164 0.29144 0.0
H151 H 0.07672 0.01351 0.28214 0.0
C152 C 0.26505 0.92607 0.32446 0.0
N153 N 0.21712 0.92695 0.32173 0.0
N154 N 0.21433 0.94113 0.31278 0.0
C155 C 0.26037 0.9524 0.30967 0.0
C156 C 0.29449 0.94226 0.31689 0.0
C157 C 0.28227 0.90557 0.33381 0.0
H158 H 0.25648 0.87644 0.33633 0.0
H159 H 0.28304 0.93573 0.33917 0.0
H160 H 0.31998 0.88959 0.33318 0.0
O161 O 0.12855 0.85006 0.3235 0.0
O162 O 0.12139 0.8683 0.30811 0.0
H163 H 0.28042 0.94789 0.29492 0.0
H164 H 0.30327 0.00196 0.3009 0.0
C165 C 0.27114 0.97656 0.30028 0.0
H166 H 0.2385 0.99778 0.29777 0.0
H167 H 0.214 0.88445 0.29166 0.0
O168 O 0.16952 0.90216 0.3421 0.0
C169 C 0.1136 0.83941 0.31515 0.0
Co170 Co 0.33157 0.90517 0.57631 0.0
Co171 Co 0.31502 0.90758 0.55423 0.0
C172 C 0.25966 0.83608 0.56603 0.0
O173 O 0.2816 0.85439 0.57325 0.0
O174 O 0.2658 0.85462 0.55772 0.0
C175 C 0.2936 0.92893 0.59451 0.0
O176 O 0.25434 0.9408 0.58947 0.0
C177 C 0.28156 0.91436 0.53403 0.0
C178 C 0.34077 0.96202 0.52814 0.0
C179 C 0.2971 0.93831 0.52579 0.0
N180 N 0.31466 0.92377 0.54097 0.0
N181 N 0.3502 0.9517 0.53734 0.0
C182 C 0.23461 0.88609 0.53552 0.0
H183 H 0.21648 0.89863 0.54221 0.0
H184 H 0.20887 0.89074 0.52942 0.0
H185 H 0.24358 0.84625 0.53638 0.0
C186 C 0.31951 0.01336 0.57401 0.0
N187 N 0.31991 0.96697 0.57048 0.0
N188 N 0.30832 0.96815 0.56138 0.0
C189 C 0.29798 0.01558 0.55894 0.0
C190 C 0.30481 0.04588 0.56689 0.0
C191 C 0.33779 0.02719 0.58374 0.0
H192 H 0.36505 0.99963 0.58634 0.0
H193 H 0.30615 0.02875 0.58877 0.0
H194 H 0.3554 0.0643 0.5836 0.0
O195 O 0.39383 0.8758 0.5721 0.0
O196 O 0.38051 0.87458 0.55645 0.0
H197 H 0.31157 0.04014 0.5447 0.0
H198 H 0.25611 0.06498 0.54994 0.0
C199 C 0.2795 0.03136 0.54935 0.0
H200 H 0.25773 1.00121 0.54602 0.0
H201 H 0.38028 0.96492 0.54126 0.0
O202 O 0.33177 0.91228 0.59029 0.0
C203 C 0.40678 0.86343 0.5637 0.0
Co204 Co 0.35802 0.08119 0.82387 0.0
Co205 Co 0.36352 0.07893 0.80164 0.0
C206 C 0.43223 0.01784 0.81405 0.0
O207 O 0.41177 0.03284 0.82172 0.0
O208 O 0.416 0.0309 0.80586 0.0
C209 C 0.35488 0.05849 0.84413 0.0
O210 O 0.38429 0.02107 0.84221 0.0
C211 C 0.35006 0.03919 0.78228 0.0
C212 C 0.35403 0.10774 0.77368 0.0
C213 C 0.34734 0.05705 0.77299 0.0
N214 N 0.35745 0.07776 0.78815 0.0
N215 N 0.35984 0.11856 0.78297 0.0
C216 C 0.34826 0.98651 0.78557 0.0
H217 H 0.36591 0.9826 0.79267 0.0
H218 H 0.3091 0.97465 0.78623 0.0
H219 H 0.36695 0.96201 0.78033 0.0
C220 C 0.25232 0.05933 0.81973 0.0
N221 N 0.29938 0.06734 0.81688 0.0
N222 N 0.30078 0.06968 0.80753 0.0
C223 C 0.25424 0.06565 0.80411 0.0
C224 C 0.22169 0.0584 0.81173 0.0
C225 C 0.23788 0.04993 0.82989 0.0
H226 H 0.26721 0.02827 0.83351 0.0
H227 H 0.20258 0.02913 0.83037 0.0
H228 H 0.2338 0.08584 0.83364 0.0
O229 O 0.38801 0.14589 0.8205 0.0
O230 O 0.39019 0.14424 0.80469 0.0
H231 H 0.26462 0.10305 0.79074 0.0
H232 H 0.20152 0.08576 0.79315 0.0
C233 C 0.24068 0.074 0.79388 0.0
H234 H 0.24618 0.03924 0.78982 0.0
H235 H 0.36534 0.15389 0.78578 0.0
O236 O 0.34075 0.08679 0.83744 0.0
C237 C 0.39947 0.16564 0.81255 0.0
Co238 Co 0.17439 0.08362 0.0758 0.0
Co239 Co 0.1818 0.08954 0.05352 0.0
C240 C 0.2368 0.16114 0.06567 0.0
O241 O 0.21941 0.14028 0.07313 0.0
O242 O 0.22836 0.14358 0.05738 0.0
C243 C 0.17643 0.10084 0.09606 0.0
O244 O 0.17947 0.1478 0.09369 0.0
C245 C 0.2159 0.08461 0.03339 0.0
C246 C 0.14527 0.06763 0.02613 0.0
C247 C 0.1951 0.07592 0.02448 0.0
N248 N 0.17994 0.08107 0.04 0.0
N249 N 0.1379 0.07086 0.0356 0.0
C250 C 0.26842 0.09837 0.03554 0.0
H251 H 0.27107 0.1182 0.04241 0.0
H252 H 0.29109 0.06425 0.03606 0.0
H253 H 0.2839 0.12178 0.02974 0.0
C254 C 0.19557 0.97877 0.07203 0.0
N255 N 0.18944 0.02558 0.06897 0.0
N256 N 0.19414 0.02714 0.05964 0.0
C257 C 0.20458 0.98096 0.05647 0.0
C258 C 0.20594 0.94862 0.06425 0.0
C259 C 0.18738 0.96287 0.08215 0.0
H260 H 0.21869 0.97593 0.08661 0.0
H261 H 0.18397 0.92212 0.08282 0.0
H262 H 0.15288 0.97996 0.0849 0.0
O263 O 0.10836 0.10801 0.07262 0.0
O264 O 0.11568 0.11731 0.05695 0.0
H265 H 0.17991 0.97153 0.04212 0.0
H266 H 0.23037 0.93096 0.04545 0.0
C267 C 0.2148 0.96868 0.04626 0.0
H268 H 0.24136 0.99583 0.04328 0.0
H269 H 0.10401 0.06638 0.03907 0.0
O270 O 0.1748 0.06832 0.08955 0.0
C271 C 0.09126 0.12276 0.06466 0.0
Co272 Co 0.8637 0.94672 0.82964 0.0
Co273 Co 0.85812 0.95182 0.80717 0.0
C274 C 0.93194 0.01194 0.81819 0.0
O275 O 0.91552 0.99735 0.82627 0.0
O276 O 0.91168 0.99849 0.8104 0.0
C277 C 0.85074 0.97753 0.84955 0.0
O278 O 0.85115 0.02304 0.84624 0.0
C279 C 0.85217 0.99019 0.78755 0.0
C280 C 0.82852 0.92353 0.77965 0.0
C281 C 0.84186 0.97268 0.77841 0.0
N282 N 0.84568 0.95293 0.79379 0.0
N283 N 0.83143 0.91326 0.78903 0.0
C284 C 0.86495 0.04179 0.79052 0.0
H285 H 0.9057 0.04673 0.79017 0.0
H286 H 0.853 0.04832 0.798 0.0
H287 H 0.84699 0.06929 0.78577 0.0
C288 C 0.7548 0.96052 0.82725 0.0
N289 N 0.80108 0.95739 0.82367 0.0
N290 N 0.79906 0.962 0.81433 0.0
C291 C 0.75166 0.97009 0.8117 0.0
C292 C 0.72166 0.9691 0.8198 0.0
C293 C 0.74224 0.95096 0.83749 0.0
H294 H 0.76587 0.92085 0.84034 0.0
H295 H 0.74928 0.98498 0.8417 0.0
H296 H 0.70288 0.94011 0.83836 0.0
O297 O 0.89254 0.88325 0.82552 0.0
O298 O 0.88823 0.88659 0.80972 0.0
H299 H 0.73388 0.94623 0.79758 0.0
H300 H 0.69981 1.00028 0.80143 0.0
C301 C 0.73617 0.98129 0.80167 0.0
H302 H 0.76406 0.0054 0.79822 0.0
H303 H 0.82422 0.87901 0.79218 0.0
O304 O 0.85592 0.94164 0.84377 0.0
C305 C 0.90131 0.8647 0.81735 0.0
Co306 Co 0.8179 0.1107 0.58028 0.0
Co307 Co 0.82387 0.11164 0.55778 0.0
C308 C 0.75608 0.18014 0.56864 0.0
O309 O 0.76963 0.16296 0.57672 0.0
O310 O 0.77178 0.16163 0.56084 0.0
C311 C 0.78371 0.10681 0.60017 0.0
O312 O 0.74223 0.12636 0.59704 0.0
C313 C 0.79095 0.09388 0.53798 0.0
C314 C 0.86045 0.10636 0.53001 0.0
C315 C 0.81076 0.0952 0.52881 0.0
N316 N 0.82737 0.10368 0.54425 0.0
N317 N 0.86882 0.11084 0.53942 0.0
C318 C 0.73796 0.08687 0.54079 0.0
H319 H 0.73128 0.10116 0.54809 0.0
H320 H 0.72912 0.04679 0.54075 0.0
H321 H 0.71314 0.10574 0.53563 0.0
C322 C 0.80451 0.0035 0.57659 0.0
N323 N 0.80949 0.0504 0.57345 0.0
N324 N 0.81605 0.05001 0.56416 0.0
C325 C 0.81807 0.00267 0.56113 0.0
C326 C 0.81049 0.9712 0.56891 0.0
C327 C 0.79198 0.9906 0.5867 0.0
H328 H 0.76655 0.01878 0.58969 0.0
H329 H 0.77379 0.95389 0.58719 0.0
H330 H 0.82635 0.99036 0.59103 0.0
O331 O 0.88314 0.14128 0.57749 0.0
O332 O 0.8858 0.14348 0.56166 0.0
H333 H 0.86024 0.01508 0.54836 0.0
H334 H 0.85 0.95083 0.55109 0.0
C335 C 0.83305 0.9882 0.55123 0.0
H336 H 0.79996 0.98841 0.54654 0.0
H337 H 0.90272 0.11969 0.54256 0.0
O338 O 0.81839 0.09772 0.59428 0.0
C339 C 0.90448 0.15378 0.56974 0.0
Co340 Co 0.65935 0.07852 0.32827 0.0
Co341 Co 0.65108 0.05439 0.3067 0.0
C342 C 0.58286 0.00596 0.31998 0.0
O343 O 0.603 0.03066 0.32671 0.0
O344 O 0.60049 0.00722 0.31153 0.0
C345 C 0.67923 0.05543 0.34799 0.0
O346 O 0.67772 0.00872 0.34542 0.0
C347 C 0.64712 0.01921 0.28654 0.0
C348 C 0.69276 0.0775 0.27979 0.0
C349 C 0.66714 0.03429 0.27784 0.0
N350 N 0.66131 0.0517 0.29328 0.0
N351 N 0.68808 0.0866 0.28915 0.0
C352 C 0.61266 0.97692 0.28838 0.0
H353 H 0.58642 0.98651 0.29416 0.0
H354 H 0.63444 0.9442 0.29068 0.0
H355 H 0.59127 0.96741 0.28188 0.0
C356 C 0.76611 0.06261 0.32431 0.0
N357 N 0.71798 0.06161 0.32176 0.0
N358 N 0.7143 0.04782 0.31282 0.0
C359 C 0.76002 0.03696 0.30951 0.0
C360 C 0.79486 0.04675 0.31663 0.0
C361 C 0.78406 0.08375 0.33356 0.0
H362 H 0.75885 0.11356 0.33599 0.0
H363 H 0.78443 0.05416 0.33905 0.0
H364 H 0.82194 0.09918 0.33284 0.0
O365 O 0.63412 0.14139 0.3238 0.0
O366 O 0.6194 0.12037 0.3088 0.0
H367 H 0.77619 0.04467 0.29464 0.0
H368 H 0.80308 0.9907 0.3001 0.0
C369 C 0.76977 0.01472 0.29991 0.0
H370 H 0.73752 0.99243 0.29757 0.0
H371 H 0.70375 0.11641 0.2928 0.0
O372 O 0.67249 0.08897 0.34181 0.0
C373 C 0.61561 0.15083 0.31569 0.0
Co374 Co 0.67568 0.88581 0.07908 0.0
Co375 Co 0.68787 0.8907 0.05671 0.0
C376 C 0.74456 0.81707 0.06804 0.0
O377 O 0.724 0.83161 0.07577 0.0
O378 O 0.73701 0.8394 0.06016 0.0
C379 C 0.70263 0.88435 0.09934 0.0
O380 O 0.74456 0.8643 0.09658 0.0
C381 C 0.72043 0.88711 0.03651 0.0
C382 C 0.67321 0.94506 0.03012 0.0
C383 C 0.71116 0.91229 0.02801 0.0
N384 N 0.69057 0.90558 0.04333 0.0
N385 N 0.66178 0.93943 0.0394 0.0
C386 C 0.75302 0.84295 0.03798 0.0
H387 H 0.73479 0.81643 0.04289 0.0
H388 H 0.78846 0.85495 0.04124 0.0
H389 H 0.76056 0.82352 0.03117 0.0
C390 C 0.6918 0.99365 0.07696 0.0
N391 N 0.68903 0.94777 0.07323 0.0
N392 N 0.69687 0.95008 0.06398 0.0
C393 C 0.70742 0.9975 0.06161 0.0
C394 C 0.70376 0.02698 0.06973 0.0
C395 C 0.67923 0.00546 0.08711 0.0
H396 H 0.64625 0.98392 0.08935 0.0
H397 H 0.71068 0.99471 0.09177 0.0
H398 H 0.67118 0.04537 0.0881 0.0
O399 O 0.61191 0.86053 0.07479 0.0
O400 O 0.62218 0.85859 0.05907 0.0
H401 H 0.69345 0.02621 0.04765 0.0
H402 H 0.75146 0.04532 0.05268 0.0
C403 C 0.7254 0.01377 0.052 0.0
H404 H 0.74442 0.98291 0.0483 0.0
H405 H 0.63474 0.95926 0.0431 0.0
O406 O 0.66997 0.89492 0.09314 0.0
C407 C 0.5967 0.84895 0.06651 0.0
Co408 Co 0.84768 0.06015 0.67362 0.0
Co409 Co 0.84654 0.08 0.69571 0.0
C410 C 0.9229 0.01347 0.68592 0.0
O411 O 0.90297 0.0155 0.67767 0.0
O412 O 0.90366 0.03585 0.69302 0.0
C413 C 0.86888 0.0485 0.65366 0.0
O414 O 0.91441 0.04264 0.65676 0.0
C415 C 0.83397 0.04992 0.71574 0.0
C416 C 0.83832 0.12183 0.72319 0.0
C417 C 0.83281 0.07149 0.72473 0.0
N418 N 0.83949 0.08596 0.7092 0.0
N419 N 0.84195 0.12885 0.7137 0.0
C420 C 0.83348 0.99592 0.71338 0.0
H421 H 0.84775 0.98957 0.70605 0.0
H422 H 0.79494 0.98189 0.71372 0.0
H423 H 0.85594 0.97492 0.71863 0.0
C424 C 0.74122 0.03749 0.67791 0.0
N425 N 0.78748 0.05008 0.68065 0.0
N426 N 0.78697 0.06009 0.68983 0.0
C427 C 0.74036 0.05574 0.69316 0.0
C428 C 0.70962 0.04068 0.68576 0.0
C429 C 0.72811 0.02159 0.668 0.0
H430 H 0.75885 0.99967 0.66489 0.0
H431 H 0.69371 0.99916 0.66794 0.0
H432 H 0.72255 0.05493 0.6635 0.0
O433 O 0.87524 0.12824 0.67543 0.0
O434 O 0.86698 0.14438 0.69089 0.0
H435 H 0.7464 0.10358 0.70534 0.0
H436 H 0.68473 0.08079 0.70318 0.0
C437 C 0.72463 0.07108 0.70298 0.0
H438 H 0.73125 0.04018 0.70802 0.0
H439 H 0.84677 0.16289 0.71031 0.0
O440 O 0.83423 0.05464 0.65969 0.0
C441 C 0.8804 0.15716 0.68255 0.0
Co442 Co 0.68892 0.081 0.42412 0.0
Co443 Co 0.69586 0.09542 0.44614 0.0
C444 C 0.75268 0.16085 0.43343 0.0
O445 O 0.73402 0.1377 0.42638 0.0
O446 O 0.74503 0.14628 0.44197 0.0
C447 C 0.69467 0.09388 0.40417 0.0
O448 O 0.69114 0.14088 0.40646 0.0
C449 C 0.72898 0.10128 0.46611 0.0
C450 C 0.66047 0.08218 0.47391 0.0
C451 C 0.70961 0.09527 0.47525 0.0
N452 N 0.69282 0.09253 0.45974 0.0
N453 N 0.65199 0.08115 0.46445 0.0
C454 C 0.78154 0.11125 0.46332 0.0
H455 H 0.78749 0.15183 0.46293 0.0
H456 H 0.78937 0.09536 0.45618 0.0
H457 H 0.80752 0.0953 0.46863 0.0
C458 C 0.69908 0.97744 0.42941 0.0
N459 N 0.69978 0.02555 0.43177 0.0
N460 N 0.70668 0.03033 0.44098 0.0
C461 C 0.71348 0.98468 0.44476 0.0
C462 C 0.70886 0.94926 0.4375 0.0
C463 C 0.68182 0.95936 0.41986 0.0
H464 H 0.71351 0.9591 0.41481 0.0
H465 H 0.66583 0.92163 0.42032 0.0
H466 H 0.65302 0.98455 0.41699 0.0
O467 O 0.62311 0.10686 0.4263 0.0
O468 O 0.63104 0.12425 0.44173 0.0
H469 H 0.68974 0.9734 0.45913 0.0
H470 H 0.74576 0.94057 0.45601 0.0
C471 C 0.7249 0.97558 0.45505 0.0
H472 H 0.74713 0.00654 0.45795 0.0
H473 H 0.61834 0.07255 0.4612 0.0
O474 O 0.69485 0.06159 0.41072 0.0
C475 C 0.60672 0.12632 0.43392 0.0
Co476 Co 0.63753 0.94707 0.17226 0.0
Co477 Co 0.65161 0.94059 0.19454 0.0
C478 C 0.57005 1.00173 0.18521 0.0
O479 O 0.5853 0.99514 0.17666 0.0
O480 O 0.59333 0.98346 0.19229 0.0
C481 C 0.61361 0.96034 0.15185 0.0
O482 O 0.57245 0.98202 0.1546 0.0
C483 C 0.65601 0.97115 0.21467 0.0
C484 C 0.70207 0.91169 0.22091 0.0
C485 C 0.67695 0.95481 0.22316 0.0
N486 N 0.66886 0.93944 0.20772 0.0
N487 N 0.69618 0.9039 0.2115 0.0
C488 C 0.62069 0.01322 0.21324 0.0
H489 H 0.58601 0.99881 0.21009 0.0
H490 H 0.63691 0.04011 0.20813 0.0
H491 H 0.61099 0.03209 0.21999 0.0
C492 C 0.74604 0.96537 0.17348 0.0
N493 N 0.70156 0.95787 0.17762 0.0
N494 N 0.70702 0.95817 0.18693 0.0
C495 C 0.75478 0.96805 0.18904 0.0
C496 C 0.78153 0.97242 0.18057 0.0
C497 C 0.75469 0.961 0.16295 0.0
H498 H 0.73565 0.92753 0.16023 0.0
H499 H 0.73871 0.99374 0.15929 0.0
H500 H 0.79457 0.95786 0.16119 0.0
O501 O 0.61006 0.88269 0.17616 0.0
O502 O 0.62667 0.87378 0.19158 0.0
H503 H 0.78237 0.94026 0.20229 0.0
H504 H 0.80746 0.99967 0.19893 0.0
C505 C 0.7736 0.97645 0.19895 0.0
H506 H 0.74495 0.99521 0.20331 0.0
H507 H 0.7107 0.87425 0.20764 0.0
O508 O 0.64394 0.94486 0.15811 0.0
C509 C 0.60757 0.85794 0.18388 0.0
Co510 Co 0.8095 0.90087 0.92295 0.0
Co511 Co 0.82679 0.90217 0.94518 0.0
C512 C 0.76049 0.82668 0.93512 0.0
O513 O 0.76336 0.84629 0.92684 0.0
O514 O 0.78283 0.84574 0.94222 0.0
C515 C 0.81423 0.87946 0.90305 0.0
O516 O 0.8225 0.83461 0.90632 0.0
C517 C 0.79062 0.91208 0.96486 0.0
C518 C 0.8604 0.91676 0.97301 0.0
C519 C 0.8093 0.91662 0.9741 0.0
N520 N 0.82888 0.91 0.95872 0.0
N521 N 0.87046 0.91284 0.96364 0.0
C522 C 0.73773 0.90771 0.96179 0.0
H523 H 0.73508 0.89352 0.95441 0.0
H524 H 0.72031 0.94488 0.9619 0.0
H525 H 0.71705 0.8829 0.96669 0.0
C526 C 0.78925 0.00795 0.92703 0.0
N527 N 0.79985 0.96132 0.92986 0.0
N528 N 0.80848 0.96158 0.93909 0.0
C529 C 0.80481 0.0082 0.9424 0.0
C530 C 0.79207 0.03937 0.9349 0.0
C531 C 0.77599 0.02171 0.91701 0.0
H532 H 0.75297 0.99217 0.91377 0.0
H533 H 0.75559 0.05732 0.91676 0.0
H534 H 0.81043 0.02522 0.91273 0.0
O535 O 0.87678 0.87254 0.92525 0.0
O536 O 0.89184 0.88064 0.94077 0.0
H537 H 0.85175 0.00264 0.95468 0.0
H538 H 0.82629 0.0634 0.95283 0.0
C539 C 0.8184 0.0232 0.95235 0.0
H540 H 0.78746 0.014 0.95724 0.0
H541 H 0.90573 0.91176 0.96059 0.0
O542 O 0.80573 0.91407 0.90897 0.0
C543 C 0.905 0.86687 0.93246 0.0
Co544 Co 0.65199 0.55392 0.66946 0.0
Co545 Co 0.64411 0.56337 0.69174 0.0
C546 C 0.5782 0.49466 0.68007 0.0
O547 O 0.60035 0.50301 0.67218 0.0
O548 O 0.59278 0.51457 0.68783 0.0
C549 C 0.67601 0.52751 0.64926 0.0
O550 O 0.67999 0.48043 0.65146 0.0
C551 C 0.64839 0.52735 0.7115 0.0
C552 C 0.65221 0.59736 0.71961 0.0
C553 C 0.65115 0.54639 0.72071 0.0
N554 N 0.64776 0.56534 0.70531 0.0
N555 N 0.64984 0.60707 0.7102 0.0
C556 C 0.64939 0.47429 0.70849 0.0
H557 H 0.66461 0.47103 0.70115 0.0
H558 H 0.67189 0.45186 0.71351 0.0
H559 H 0.61102 0.45965 0.70844 0.0
C560 C 0.759 0.5398 0.67455 0.0
N561 N 0.71098 0.547 0.67689 0.0
N562 N 0.70752 0.55267 0.68619 0.0
C563 C 0.75318 0.5504 0.69004 0.0
C564 C 0.78758 0.54183 0.68283 0.0
C565 C 0.77625 0.52796 0.66467 0.0
H566 H 0.76863 0.55988 0.65991 0.0
H567 H 0.75516 0.49575 0.66199 0.0
H568 H 0.81613 0.51864 0.66439 0.0
O569 O 0.61855 0.6179 0.672 0.0
O570 O 0.61622 0.62663 0.68772 0.0
H571 H 0.74211 0.59215 0.70285 0.0
H572 H 0.80366 0.56763 0.7016 0.0
C573 C 0.76387 0.55989 0.70036 0.0
H574 H 0.75271 0.52712 0.70463 0.0
H575 H 0.64994 0.64221 0.70711 0.0
O576 O 0.66597 0.55922 0.65565 0.0
C577 C 0.60614 0.64216 0.67939 0.0
Co578 Co 0.69389 0.40043 0.91894 0.0
Co579 Co 0.67895 0.39885 0.94133 0.0
C580 C 0.75086 0.33053 0.93071 0.0
O581 O 0.74411 0.35035 0.92255 0.0
O582 O 0.72931 0.34716 0.93817 0.0
C583 C 0.72822 0.4064 0.89901 0.0
O584 O 0.7702 0.38722 0.90197 0.0
C585 C 0.70909 0.41533 0.96148 0.0
C586 C 0.63876 0.40078 0.96903 0.0
C587 C 0.68799 0.41277 0.97056 0.0
N588 N 0.67381 0.40544 0.95497 0.0
N589 N 0.63186 0.39702 0.95955 0.0
C590 C 0.76231 0.42353 0.959 0.0
H591 H 0.77035 0.40934 0.95173 0.0
H592 H 0.77022 0.46381 0.95908 0.0
H593 H 0.78673 0.40522 0.9643 0.0
C594 C 0.7056 0.50727 0.9229 0.0
N595 N 0.69914 0.46043 0.92594 0.0
N596 N 0.68931 0.46072 0.93513 0.0
C597 C 0.68677 0.50807 0.93815 0.0
C598 C 0.69721 0.53958 0.93049 0.0
C599 C 0.72218 0.52008 0.913 0.0
H600 H 0.74793 0.49131 0.91033 0.0
H601 H 0.74139 0.55633 0.9128 0.0
H602 H 0.68952 0.52132 0.9082 0.0
O603 O 0.62954 0.36673 0.92125 0.0
O604 O 0.61739 0.36846 0.93693 0.0
H605 H 0.64211 0.49521 0.95059 0.0
H606 H 0.65182 0.55968 0.94783 0.0
C607 C 0.66934 0.52255 0.9479 0.0
H608 H 0.70139 0.52314 0.95284 0.0
H609 H 0.59861 0.38783 0.95621 0.0
O610 O 0.69381 0.41455 0.905 0.0
C611 C 0.60395 0.35571 0.92859 0.0
Co612 Co 0.84929 0.44496 0.16943 0.0
Co613 Co 0.84059 0.46565 0.19157 0.0
C614 C 0.91493 0.51896 0.17982 0.0
O615 O 0.90012 0.49577 0.17243 0.0
O616 O 0.89297 0.51404 0.18783 0.0
C617 C 0.83191 0.47543 0.15023 0.0
O618 O 0.8226 0.51796 0.15441 0.0
C619 C 0.84555 0.4963 0.21197 0.0
C620 C 0.78358 0.45325 0.21806 0.0
C621 C 0.82033 0.48677 0.22047 0.0
N622 N 0.82364 0.47065 0.20489 0.0
N623 N 0.78717 0.44446 0.20864 0.0
C624 C 0.89306 0.5241 0.21071 0.0
H625 H 0.91627 0.50588 0.20522 0.0
H626 H 0.88477 0.56231 0.20828 0.0
H627 H 0.91436 0.52563 0.21747 0.0
C628 C 0.74061 0.45897 0.17071 0.0
N629 N 0.78597 0.45824 0.17473 0.0
N630 N 0.78227 0.47106 0.18376 0.0
C631 C 0.7345 0.48295 0.1856 0.0
C632 C 0.70647 0.4752 0.1774 0.0
C633 C 0.72918 0.44028 0.1609 0.0
H634 H 0.75602 0.41126 0.15878 0.0
H635 H 0.73115 0.47137 0.15574 0.0
H636 H 0.69119 0.42467 0.16061 0.0
O637 O 0.87734 0.3842 0.17465 0.0
O638 O 0.87372 0.39987 0.19022 0.0
H639 H 0.70052 0.47641 0.19932 0.0
H640 H 0.68681 0.53304 0.19321 0.0
C641 C 0.71649 0.50567 0.19469 0.0
H642 H 0.74727 0.52424 0.1985 0.0
H643 H 0.76507 0.41995 0.20477 0.0
O644 O 0.84491 0.43869 0.15532 0.0
C645 C 0.88694 0.37254 0.18325 0.0
Co646 Co 0.83117 0.58446 0.42121 0.0
Co647 Co 0.82226 0.59522 0.44353 0.0
C648 C 0.76502 0.66123 0.43133 0.0
O649 O 0.78486 0.64079 0.42405 0.0
O650 O 0.77193 0.64402 0.43968 0.0
C651 C 0.82235 0.6031 0.40123 0.0
O652 O 0.81752 0.64881 0.40428 0.0
C653 C 0.79154 0.60286 0.46377 0.0
C654 C 0.84838 0.55655 0.47075 0.0
C655 C 0.80525 0.58276 0.47254 0.0
N656 N 0.82419 0.58772 0.45712 0.0
N657 N 0.85853 0.56085 0.46139 0.0
C658 C 0.75049 0.6386 0.46178 0.0
H659 H 0.76392 0.66791 0.45689 0.0
H660 H 0.71952 0.61884 0.45825 0.0
H661 H 0.73706 0.65666 0.46839 0.0
C662 C 0.82142 0.47851 0.42636 0.0
N663 N 0.8206 0.52695 0.42864 0.0
N664 N 0.81229 0.53169 0.43783 0.0
C665 C 0.80423 0.48639 0.4416 0.0
C666 C 0.81081 0.45062 0.43451 0.0
C667 C 0.83757 0.45989 0.41679 0.0
H668 H 0.86399 0.48624 0.41349 0.0
H669 H 0.80479 0.45676 0.41206 0.0
H670 H 0.85564 0.42315 0.41739 0.0
O671 O 0.89622 0.61197 0.42399 0.0
O672 O 0.88649 0.62657 0.43951 0.0
H673 H 0.81865 0.47234 0.45637 0.0
H674 H 0.76247 0.44469 0.45198 0.0
C675 C 0.78643 0.47798 0.45159 0.0
H676 H 0.76505 0.51044 0.45412 0.0
H677 H 0.88806 0.54405 0.45784 0.0
O678 O 0.82814 0.56862 0.40731 0.0
C679 C 0.91137 0.63069 0.43179 0.0
Co680 Co 0.65665 0.45484 0.8259 0.0
Co681 Co 0.6543 0.44396 0.80354 0.0
C682 C 0.58502 0.51278 0.81391 0.0
O683 O 0.60269 0.50102 0.82205 0.0
O684 O 0.60374 0.49612 0.8062 0.0
C685 C 0.63601 0.46277 0.84591 0.0
O686 O 0.59005 0.46646 0.84292 0.0
C687 C 0.66946 0.47231 0.78344 0.0
C688 C 0.66114 0.40031 0.77615 0.0
C689 C 0.66946 0.45018 0.77446 0.0
N690 N 0.66171 0.43703 0.79005 0.0
N691 N 0.65701 0.39408 0.78565 0.0
C692 C 0.67356 0.52619 0.78576 0.0
H693 H 0.65932 0.53377 0.79303 0.0
H694 H 0.7131 0.53725 0.78556 0.0
H695 H 0.65298 0.54871 0.78045 0.0
C696 C 0.76375 0.46871 0.82178 0.0
N697 N 0.71662 0.46251 0.81884 0.0
N698 N 0.71638 0.45421 0.80961 0.0
C699 C 0.76355 0.45243 0.80643 0.0
C700 C 0.7956 0.46194 0.81403 0.0
C701 C 0.77733 0.48257 0.83178 0.0
H702 H 0.74844 0.50695 0.83487 0.0
H703 H 0.81337 0.50221 0.83202 0.0
H704 H 0.77964 0.44858 0.83621 0.0
O705 O 0.62703 0.38843 0.82398 0.0
O706 O 0.62306 0.38309 0.80818 0.0
H707 H 0.75124 0.40701 0.7941 0.0
H708 H 0.81534 0.42006 0.7964 0.0
C709 C 0.77742 0.43576 0.79659 0.0
H710 H 0.77541 0.46771 0.79163 0.0
H711 H 0.65019 0.36059 0.78911 0.0
O712 O 0.6706 0.45921 0.8398 0.0
C713 C 0.61365 0.36584 0.81644 0.0
Co714 Co 0.82373 0.38345 0.07584 0.0
Co715 Co 0.80728 0.39118 0.05355 0.0
C716 C 0.75162 0.31742 0.06525 0.0
O717 O 0.77261 0.33329 0.0728 0.0
O718 O 0.75888 0.3382 0.05717 0.0
C719 C 0.79673 0.40075 0.09555 0.0
O720 O 0.75351 0.4135 0.09203 0.0
C721 C 0.76596 0.39907 0.03392 0.0
C722 C 0.83082 0.4276 0.02605 0.0
C723 C 0.78245 0.4117 0.02478 0.0
N724 N 0.80314 0.40653 0.04016 0.0
N725 N 0.84163 0.42388 0.0354 0.0
C726 C 0.71536 0.38265 0.0369 0.0
H727 H 0.7131 0.34172 0.03643 0.0
H728 H 0.70821 0.39348 0.04442 0.0
H729 H 0.68664 0.3992 0.03223 0.0
C730 C 0.81048 0.49224 0.07428 0.0
N731 N 0.81178 0.44667 0.07037 0.0
N732 N 0.80191 0.45006 0.0612 0.0
C733 C 0.79208 0.49794 0.05908 0.0
C734 C 0.79705 0.52636 0.06733 0.0
C735 C 0.82663 0.50395 0.08424 0.0
H736 H 0.85521 0.47729 0.08664 0.0
H737 H 0.79433 0.50191 0.08911 0.0
H738 H 0.84205 0.54197 0.08466 0.0
O739 O 0.88429 0.35408 0.07086 0.0
O740 O 0.87284 0.3576 0.05518 0.0
H741 H 0.80925 0.51903 0.04478 0.0
H742 H 0.75729 0.55189 0.04985 0.0
C743 C 0.77618 0.5155 0.04943 0.0
H744 H 0.75085 0.48805 0.04616 0.0
H745 H 0.87565 0.43237 0.03851 0.0
O746 O 0.83105 0.38695 0.08995 0.0
C747 C 0.89802 0.34397 0.06241 0.0
Co748 Co 0.85466 0.54866 0.32736 0.0
Co749 Co 0.8535 0.56556 0.30505 0.0
C750 C 0.92391 0.49356 0.31517 0.0
O751 O 0.9045 0.49889 0.3234 0.0
O752 O 0.90678 0.51625 0.30788 0.0
C753 C 0.85513 0.51345 0.3472 0.0
O754 O 0.8754 0.4727 0.34391 0.0
C755 C 0.83947 0.5355 0.28486 0.0
C756 C 0.83839 0.60834 0.2777 0.0
C757 C 0.83547 0.55796 0.27589 0.0
N758 N 0.84428 0.57111 0.29151 0.0
N759 N 0.84356 0.61449 0.28717 0.0
C760 C 0.8413 0.48146 0.28715 0.0
H761 H 0.85707 0.47529 0.29435 0.0
H762 H 0.80311 0.46635 0.28713 0.0
H763 H 0.86366 0.46135 0.28175 0.0
C764 C 0.74717 0.53454 0.32376 0.0
N765 N 0.79367 0.54291 0.32065 0.0
N766 N 0.79252 0.55313 0.31149 0.0
C767 C 0.74496 0.55383 0.30854 0.0
C768 C 0.71417 0.5417 0.31622 0.0
C769 C 0.73542 0.51758 0.33368 0.0
H770 H 0.76573 0.49381 0.3364 0.0
H771 H 0.7003 0.49632 0.33389 0.0
H772 H 0.73216 0.55029 0.33842 0.0
O773 O 0.88756 0.61344 0.32489 0.0
O774 O 0.88285 0.62787 0.30932 0.0
H775 H 0.75416 0.60122 0.29639 0.0
H776 H 0.69086 0.58493 0.29883 0.0
C777 C 0.72948 0.57101 0.29883 0.0
H778 H 0.73269 0.5398 0.29372 0.0
H779 H 0.84696 0.64839 0.29067 0.0
O780 O 0.84333 0.54773 0.34141 0.0
C781 C 0.89692 0.64033 0.31764 0.0
Co782 Co 0.69514 0.61587 0.57728 0.0
Co783 Co 0.68996 0.60487 0.55494 0.0
C784 C 0.75201 0.68334 0.5643 0.0
O785 O 0.74186 0.66831 0.57271 0.0
O786 O 0.73581 0.66057 0.557 0.0
C787 C 0.74028 0.59564 0.59536 0.0
O788 O 0.77927 0.58521 0.59012 0.0
C789 C 0.72262 0.59905 0.5349 0.0
C790 C 0.66344 0.55401 0.52836 0.0
C791 C 0.70794 0.57738 0.52637 0.0
N792 N 0.68883 0.58811 0.54165 0.0
N793 N 0.6534 0.56147 0.53766 0.0
C794 C 0.76557 0.63303 0.53654 0.0
H795 H 0.75164 0.6685 0.53943 0.0
H796 H 0.79082 0.61645 0.54191 0.0
H797 H 0.78617 0.64156 0.52991 0.0
C798 C 0.70632 0.50678 0.57576 0.0
N799 N 0.70346 0.55212 0.57176 0.0
N800 N 0.70563 0.54768 0.56243 0.0
C801 C 0.7133 0.49952 0.56023 0.0
C802 C 0.71385 0.47183 0.56863 0.0
C803 C 0.69428 0.49593 0.58599 0.0
H804 H 0.66826 0.52394 0.58885 0.0
H805 H 0.72877 0.49623 0.59027 0.0
H806 H 0.67709 0.45881 0.58673 0.0
O807 O 0.62908 0.64106 0.57426 0.0
O808 O 0.62416 0.63388 0.55845 0.0
H809 H 0.68568 0.4735 0.54688 0.0
H810 H 0.74364 0.44596 0.55041 0.0
C811 C 0.7219 0.48078 0.55033 0.0
H812 H 0.74214 0.50881 0.54607 0.0
H813 H 0.62259 0.54796 0.54133 0.0
O814 O 0.70105 0.61093 0.59131 0.0
C815 C 0.6059 0.64745 0.56645 0.0
Co816 Co 0.35159 0.42521 0.32154 0.0
Co817 Co 0.35112 0.41258 0.29932 0.0
C818 C 0.42704 0.47594 0.31027 0.0
O819 O 0.4061 0.47266 0.31843 0.0
O820 O 0.40849 0.45477 0.30297 0.0
C821 C 0.36489 0.43154 0.34225 0.0
O822 O 0.41085 0.44431 0.3404 0.0
C823 C 0.34035 0.45402 0.28012 0.0
C824 C 0.33378 0.38646 0.27136 0.0
C825 C 0.33373 0.43774 0.27078 0.0
N826 N 0.34351 0.41422 0.28585 0.0
N827 N 0.33972 0.37397 0.28057 0.0
C828 C 0.34528 0.50599 0.28368 0.0
H829 H 0.3623 0.50665 0.29087 0.0
H830 H 0.30796 0.52285 0.28428 0.0
H831 H 0.36799 0.5284 0.27869 0.0
C832 C 0.2452 0.44795 0.31754 0.0
N833 N 0.29168 0.43709 0.31466 0.0
N834 N 0.2914 0.42988 0.30539 0.0
C835 C 0.24479 0.43459 0.3021 0.0
C836 C 0.21374 0.44662 0.30966 0.0
C837 C 0.23168 0.46035 0.32761 0.0
H838 H 0.26191 0.48187 0.33099 0.0
H839 H 0.19682 0.48201 0.32793 0.0
H840 H 0.22671 0.42552 0.33171 0.0
O841 O 0.38134 0.35953 0.31839 0.0
O842 O 0.37121 0.34593 0.30288 0.0
H843 H 0.25031 0.38995 0.2895 0.0
H844 H 0.1894 0.4146 0.2916 0.0
C845 C 0.22958 0.42267 0.29208 0.0
H846 H 0.23833 0.45456 0.28739 0.0
H847 H 0.34093 0.33798 0.28327 0.0
O848 O 0.33539 0.42331 0.33538 0.0
C849 C 0.38657 0.33226 0.31103 0.0
Co850 Co 0.32333 0.58611 0.07087 0.0
Co851 Co 0.31631 0.58889 0.04875 0.0
C852 C 0.25633 0.65802 0.06025 0.0
O853 O 0.27484 0.63991 0.06787 0.0
O854 O 0.266 0.63941 0.05212 0.0
C855 C 0.32833 0.60481 0.09092 0.0
O856 O 0.33745 0.65052 0.08823 0.0
C857 C 0.27879 0.5831 0.02933 0.0
C858 C 0.34702 0.56777 0.0211 0.0
C859 C 0.29656 0.57531 0.0202 0.0
N860 N 0.31703 0.57981 0.0354 0.0
N861 N 0.35769 0.57054 0.03046 0.0
C862 C 0.22736 0.59704 0.03227 0.0
H863 H 0.2256 0.63778 0.0332 0.0
H864 H 0.21822 0.57971 0.03924 0.0
H865 H 0.19958 0.58619 0.02685 0.0
C866 C 0.31445 0.47837 0.06723 0.0
N867 N 0.31416 0.52576 0.06422 0.0
N868 N 0.30729 0.52681 0.05496 0.0
C869 C 0.30042 0.48007 0.0518 0.0
C870 C 0.30519 0.44729 0.05948 0.0
C871 C 0.32898 0.46342 0.07714 0.0
H872 H 0.29607 0.46556 0.08186 0.0
H873 H 0.34406 0.42526 0.07731 0.0
H874 H 0.35756 0.48906 0.07992 0.0
O875 O 0.38724 0.61604 0.0678 0.0
O876 O 0.38099 0.6204 0.052 0.0
H877 H 0.321 0.46739 0.03727 0.0
H878 H 0.26841 0.43119 0.04123 0.0
C879 C 0.287 0.46767 0.04172 0.0
H880 H 0.26151 0.49604 0.03886 0.0
H881 H 0.39278 0.56665 0.03348 0.0
O882 O 0.32064 0.57202 0.08462 0.0
C883 C 0.40401 0.62978 0.05973 0.0
Co884 Co 0.14773 0.58049 0.82064 0.0
Co885 Co 0.16243 0.58401 0.7984 0.0
C886 C 0.08333 0.52059 0.80802 0.0
O887 O 0.09872 0.53007 0.81643 0.0
O888 O 0.10545 0.53798 0.80068 0.0
C889 C 0.15289 0.55479 0.84115 0.0
O890 O 0.16131 0.50842 0.83885 0.0
C891 C 0.16385 0.55923 0.77776 0.0
C892 C 0.22473 0.60686 0.77261 0.0
C893 C 0.19094 0.57154 0.76963 0.0
N894 N 0.18202 0.58491 0.7852 0.0
N895 N 0.21779 0.61393 0.78202 0.0
C896 C 0.11757 0.52897 0.77831 0.0
H897 H 0.09063 0.54792 0.783 0.0
H898 H 0.1262 0.49225 0.78144 0.0
H899 H 0.10014 0.52418 0.77121 0.0
C900 C 0.2568 0.56728 0.82009 0.0
N901 N 0.2126 0.5721 0.81572 0.0
N902 N 0.21886 0.56956 0.80642 0.0
C903 C 0.26723 0.55994 0.80463 0.0
C904 C 0.29316 0.55884 0.81324 0.0
C905 C 0.26459 0.5753 0.83055 0.0
H906 H 0.25643 0.54049 0.83444 0.0
H907 H 0.30326 0.58654 0.8321 0.0
H908 H 0.2394 0.60465 0.83317 0.0
O909 O 0.1195 0.64273 0.81646 0.0
O910 O 0.13286 0.6506 0.80096 0.0
H911 H 0.30184 0.58109 0.79153 0.0
H912 H 0.31879 0.52057 0.79568 0.0
C913 C 0.28761 0.5471 0.79502 0.0
H914 H 0.25847 0.53038 0.79049 0.0
H915 H 0.23749 0.63868 0.78629 0.0
O916 O 0.14718 0.58696 0.83464 0.0
C917 C 0.11475 0.66681 0.80875 0.0
Co918 Co 0.18787 0.40843 0.57498 0.0
Co919 Co 0.19647 0.40451 0.55274 0.0
C920 C 0.25662 0.33685 0.56427 0.0
O921 O 0.23673 0.35413 0.57185 0.0
O922 O 0.24789 0.35612 0.55616 0.0
C923 C 0.2245 0.44509 0.59301 0.0
O924 O 0.26131 0.46267 0.58789 0.0
C925 C 0.22182 0.39358 0.53245 0.0
C926 C 0.1715 0.44802 0.52577 0.0
C927 C 0.2095 0.41519 0.52375 0.0
N928 N 0.19371 0.41418 0.53928 0.0
N929 N 0.16291 0.44578 0.53522 0.0
C930 C 0.25584 0.35075 0.53418 0.0
H931 H 0.23885 0.32505 0.53941 0.0
H932 H 0.29124 0.36451 0.53719 0.0
H933 H 0.26321 0.32978 0.52753 0.0
C934 C 0.19149 0.51715 0.57056 0.0
N935 N 0.19542 0.46905 0.56805 0.0
N936 N 0.2056 0.46649 0.55891 0.0
C937 C 0.21275 0.51261 0.55547 0.0
C938 C 0.20291 0.54689 0.56268 0.0
C939 C 0.1704 0.53378 0.57992 0.0
H940 H 0.14722 0.50416 0.58309 0.0
H941 H 0.20096 0.54247 0.58492 0.0
H942 H 0.14755 0.56755 0.57896 0.0
O943 O 0.12405 0.3785 0.57204 0.0
O944 O 0.13239 0.37268 0.5563 0.0
H945 H 0.20315 0.53165 0.54074 0.0
H946 H 0.25883 0.5555 0.54602 0.0
C947 C 0.2336 0.5231 0.54577 0.0
H948 H 0.25435 0.49056 0.54307 0.0
H949 H 0.13673 0.46665 0.53894 0.0
O950 O 0.19015 0.42092 0.58892 0.0
C951 C 0.10826 0.36413 0.56395 0.0
Co952 Co 0.34744 0.5966 0.1676 0.0
Co953 Co 0.34097 0.57894 0.18962 0.0
C954 C 0.41592 0.52581 0.17803 0.0
O955 O 0.40165 0.54835 0.17051 0.0
O956 O 0.393 0.53103 0.18591 0.0
C957 C 0.34128 0.57268 0.14748 0.0
O958 O 0.34107 0.52611 0.15018 0.0
C959 C 0.3457 0.54206 0.20938 0.0
C960 C 0.28618 0.58521 0.21629 0.0
C961 C 0.32065 0.54823 0.21797 0.0
N962 N 0.32557 0.5726 0.20287 0.0
N963 N 0.29078 0.59904 0.20711 0.0
C964 C 0.39157 0.51233 0.2076 0.0
H965 H 0.4175 0.53376 0.20307 0.0
H966 H 0.38157 0.47775 0.2038 0.0
H967 H 0.41094 0.50307 0.21434 0.0
C968 C 0.23942 0.5788 0.16901 0.0
N969 N 0.28497 0.58094 0.17291 0.0
N970 N 0.28195 0.57122 0.18209 0.0
C971 C 0.23436 0.56004 0.18422 0.0
C972 C 0.20559 0.56532 0.17603 0.0
C973 C 0.22821 0.59346 0.15894 0.0
H974 H 0.25184 0.62513 0.1568 0.0
H975 H 0.23637 0.56185 0.15414 0.0
H976 H 0.18881 0.60414 0.15808 0.0
O977 O 0.37022 0.65948 0.17251 0.0
O978 O 0.37287 0.64532 0.1881 0.0
H979 H 0.20412 0.57101 0.19816 0.0
H980 H 0.18586 0.51405 0.19262 0.0
C981 C 0.21723 0.54007 0.19362 0.0
H982 H 0.24782 0.52046 0.19729 0.0
H983 H 0.26986 0.62629 0.2037 0.0
O984 O 0.34327 0.60654 0.15372 0.0
C985 C 0.38147 0.67286 0.1809 0.0
Co986 Co 0.18388 0.60197 0.91706 0.0
Co987 Co 0.17768 0.60739 0.93923 0.0
C988 C 0.24451 0.67493 0.92862 0.0
O989 O 0.23271 0.65588 0.92059 0.0
O990 O 0.22798 0.65732 0.93641 0.0
C991 C 0.17429 0.61118 0.89689 0.0
O992 O 0.15159 0.65257 0.89913 0.0
C993 C 0.20605 0.60947 0.95916 0.0
C994 C 0.13558 0.59298 0.96654 0.0
C995 C 0.18501 0.60408 0.96813 0.0
N996 N 0.17062 0.60235 0.95261 0.0
N997 N 0.12852 0.59267 0.95704 0.0
C998 C 0.2595 0.61697 0.95671 0.0
H999 H 0.26783 0.60085 0.9496 0.0
H1000 H 0.28385 0.59964 0.96214 0.0
H1001 H 0.26748 0.65723 0.95641 0.0
C1002 C 0.18889 0.49413 0.92172 0.0
N1003 N 0.18843 0.5422 0.92433 0.0
N1004 N 0.18983 0.54486 0.93367 0.0
C1005 C 0.19382 0.49882 0.93733 0.0
C1006 C 0.19278 0.46455 0.92987 0.0
C1007 C 0.17994 0.47725 0.91169 0.0
H1008 H 0.15358 0.5026 0.90809 0.0
H1009 H 0.21541 0.478 0.90768 0.0
H1010 H 0.16442 0.43927 0.91149 0.0
O1011 O 0.11816 0.63336 0.91866 0.0
O1012 O 0.11639 0.638 0.93448 0.0
H1013 H 0.16429 0.48826 0.95134 0.0
H1014 H 0.21954 0.45244 0.94892 0.0
C1015 C 0.20087 0.48846 0.94774 0.0
H1016 H 0.2239 0.51776 0.95099 0.0
H1017 H 0.09506 0.5858 0.95356 0.0
O1018 O 0.19264 0.58473 0.90348 0.0
C1019 C 0.09755 0.64751 0.92636 0.0
Co1020 Co 0.14947 0.43529 0.66841 0.0
Co1021 Co 0.14456 0.42251 0.69074 0.0
C1022 C 0.07819 0.49388 0.67992 0.0
O1023 O 0.09882 0.48622 0.67185 0.0
O1024 O 0.0937 0.47269 0.68748 0.0
C1025 C 0.16961 0.47088 0.64875 0.0
O1026 O 0.17155 0.51643 0.652 0.0
C1027 C 0.15267 0.45144 0.71111 0.0
C1028 C 0.15729 0.37793 0.71796 0.0
C1029 C 0.15727 0.42818 0.71998 0.0
N1030 N 0.15064 0.41638 0.7043 0.0
N1031 N 0.15326 0.3726 0.70846 0.0
C1032 C 0.14834 0.5056 0.70904 0.0
H1033 H 0.13311 0.51193 0.70181 0.0
H1034 H 0.18567 0.52268 0.70929 0.0
H1035 H 0.1243 0.52387 0.71441 0.0
C1036 C 0.2574 0.44809 0.67315 0.0
N1037 N 0.20963 0.44015 0.67562 0.0
N1038 N 0.20719 0.43335 0.68491 0.0
C1039 C 0.25318 0.43569 0.68861 0.0
C1040 C 0.28678 0.44559 0.68132 0.0
C1041 C 0.27365 0.46117 0.66325 0.0
H1042 H 0.26375 0.43067 0.65832 0.0
H1043 H 0.25366 0.49484 0.66092 0.0
H1044 H 0.31391 0.46855 0.66281 0.0
O1045 O 0.11489 0.37109 0.67057 0.0
O1046 O 0.11421 0.36122 0.68629 0.0
H1047 H 0.24464 0.39232 0.70129 0.0
H1048 H 0.30516 0.41902 0.69996 0.0
C1049 C 0.26504 0.42557 0.69886 0.0
H1050 H 0.25319 0.45753 0.70327 0.0
H1051 H 0.15241 0.339 0.7048 0.0
O1052 O 0.16203 0.43515 0.65447 0.0
C1053 C 0.10251 0.34675 0.67797 0.0
Co1054 Co 0.33661 0.38845 0.41888 0.0
Co1055 Co 0.33097 0.39112 0.44127 0.0
C1056 C 0.27194 0.31782 0.42929 0.0
O1057 O 0.28716 0.33541 0.42135 0.0
O1058 O 0.28478 0.33693 0.43724 0.0
C1059 C 0.31844 0.39094 0.39815 0.0
O1060 O 0.2753 0.37047 0.39994 0.0
C1061 C 0.28737 0.40297 0.46052 0.0
C1062 C 0.35556 0.41158 0.46906 0.0
C1063 C 0.30441 0.40948 0.46984 0.0
N1064 N 0.3268 0.40144 0.45465 0.0
N1065 N 0.36733 0.4066 0.45981 0.0
C1066 C 0.2353 0.39593 0.45716 0.0
H1067 H 0.23454 0.38158 0.44976 0.0
H1068 H 0.21597 0.43215 0.45719 0.0
H1069 H 0.21525 0.37004 0.46195 0.0
C1070 C 0.31525 0.49613 0.42179 0.0
N1071 N 0.32176 0.44974 0.42515 0.0
N1072 N 0.32304 0.45123 0.43452 0.0
C1073 C 0.32019 0.4987 0.43742 0.0
C1074 C 0.31449 0.52924 0.42946 0.0
C1075 C 0.3078 0.50773 0.41145 0.0
H1076 H 0.28696 0.47735 0.40798 0.0
H1077 H 0.28695 0.54275 0.41049 0.0
H1078 H 0.3444 0.51098 0.4079 0.0
O1079 O 0.39974 0.35828 0.42344 0.0
O1080 O 0.39702 0.36461 0.43921 0.0
H1081 H 0.35953 0.49165 0.45061 0.0
H1082 H 0.34113 0.55371 0.44797 0.0
C1083 C 0.32955 0.51444 0.44751 0.0
H1084 H 0.29548 0.50873 0.4518 0.0
H1085 H 0.40317 0.40645 0.45701 0.0
O1086 O 0.34749 0.40075 0.40503 0.0
C1087 C 0.4188 0.35105 0.43164 0.0
H1088 H 0.18017 0.92565 0.25991 0.0
H1089 H 0.13655 0.06052 0.27411 0.0
H1090 H 0.12771 0.10173 0.25877 0.0
H1091 H 0.13488 0.10055 0.24136 0.0
H1092 H 0.19049 0.96929 0.22741 0.0
H1093 H 0.19208 0.92603 0.24256 0.0
C1094 C 0.16843 0.96402 0.25967 0.0
C1095 C 0.15693 0.98908 0.2682 0.0
C1096 C 0.16564 0.98832 0.25082 0.0
C1097 C 0.1429 0.03914 0.26771 0.0
C1098 C 0.13873 0.06317 0.25891 0.0
C1099 C 0.14733 0.06241 0.24158 0.0
C1100 C 0.16068 0.03801 0.23307 0.0
C1101 C 0.15015 0.03814 0.25043 0.0
C1102 C 0.17741 0.98878 0.23363 0.0
C1103 C 0.17917 0.964 0.24238 0.0
H1104 H 0.20807 0.99314 0.48569 0.0
H1105 H 0.21849 0.83523 0.48197 0.0
H1106 H 0.24776 0.82596 0.49842 0.0
H1107 H 0.27304 0.86356 0.51376 0.0
H1108 H 0.26786 0.022 0.51695 0.0
H1109 H 0.23329 0.03053 0.50089 0.0
C1110 C 0.21671 0.95675 0.48851 0.0
C1111 C 0.21188 0.91501 0.48264 0.0
C1112 C 0.23414 0.95189 0.4979 0.0
C1113 C 0.22303 0.86798 0.48633 0.0
C1114 C 0.23938 0.86266 0.49574 0.0
C1115 C 0.26363 0.89974 0.51094 0.0
C1116 C 0.27223 0.9421 0.51648 0.0
C1117 C 0.24541 0.9044 0.50158 0.0
C1118 C 0.26109 0.989 0.51276 0.0
C1119 C 0.24153 0.99386 0.50359 0.0
H1120 H 0.29381 0.92426 0.73745 0.0
H1121 H 0.3951 0.02605 0.72392 0.0
H1122 H 0.40557 0.07019 0.73891 0.0
H1123 H 0.38817 0.07844 0.75597 0.0
H1124 H 0.2881 0.97618 0.76967 0.0
H1125 H 0.27603 0.93282 0.75458 0.0
C1126 C 0.31795 0.95629 0.73778 0.0
C1127 C 0.3424 0.97269 0.7295 0.0
C1128 C 0.3248 0.98081 0.7465 0.0
C1129 C 0.37406 0.01385 0.73005 0.0
C1130 C 0.38074 0.0387 0.73867 0.0
C1131 C 0.3637 0.04665 0.75565 0.0
C1132 C 0.34005 0.02982 0.76397 0.0
C1133 C 0.35646 0.02237 0.74694 0.0
C1134 C 0.30823 0.98879 0.76346 0.0
C1135 C 0.30078 0.96438 0.75479 0.0
H1136 H 0.32421 0.06298 0.98712 0.0
H1137 H 0.19722 0.13898 0.97552 0.0
H1138 H 0.15596 0.13452 0.99099 0.0
H1139 H 0.15749 0.11211 0.00803 0.0
H1140 H 0.28562 0.03821 0.01962 0.0
H1141 H 0.3254 0.03979 0.00399 0.0
C1142 C 0.28741 0.07848 0.98796 0.0
C1143 C 0.26352 0.10037 0.9801 0.0
C1144 C 0.26447 0.0769 0.99692 0.0
C1145 C 0.21591 0.12036 0.98132 0.0
C1146 C 0.19252 0.11845 0.99022 0.0
C1147 C 0.1941 0.09631 0.00711 0.0
C1148 C 0.21914 0.07623 0.01501 0.0
C1149 C 0.21662 0.09712 0.99808 0.0
C1150 C 0.26633 0.05551 0.01373 0.0
C1151 C 0.28886 0.05587 0.00477 0.0
H1152 H 0.78916 0.95204 0.76251 0.0
H1153 H 0.90457 0.04827 0.77295 0.0
H1154 H 0.90995 0.08824 0.75743 0.0
H1155 H 0.88344 0.09472 0.7407 0.0
H1156 H 0.77156 0.99553 0.72997 0.0
H1157 H 0.76414 0.95706 0.7457 0.0
C1158 C 0.81542 0.98187 0.76141 0.0
C1159 C 0.8451 0.99818 0.76904 0.0
C1160 C 0.81954 0.00365 0.75234 0.0
C1161 C 0.87943 0.0364 0.76742 0.0
C1162 C 0.88318 0.05883 0.75846 0.0
C1163 C 0.85746 0.06465 0.74182 0.0
C1164 C 0.82868 0.04741 0.73417 0.0
C1165 C 0.85346 0.04273 0.75087 0.0
C1166 C 0.79513 0.00851 0.73569 0.0
C1167 C 0.79051 0.98686 0.7447 0.0
H1168 H 0.68955 0.04479 0.4915 0.0
H1169 H 0.78285 0.1608 0.48031 0.0
H1170 H 0.82263 0.16975 0.4958 0.0
H1171 H 0.83045 0.14542 0.5126 0.0
H1172 H 0.7361 0.03084 0.52397 0.0
H1173 H 0.69644 0.02137 0.50842 0.0
C1174 C 0.71865 0.072 0.49245 0.0
C1175 C 0.73421 0.10096 0.48465 0.0
C1176 C 0.74071 0.07769 0.50146 0.0
C1177 C 0.77153 0.13647 0.48603 0.0
C1178 C 0.79388 0.14213 0.49495 0.0
C1179 C 0.80118 0.11836 0.51168 0.0
C1180 C 0.78565 0.08953 0.51949 0.0
C1181 C 0.77885 0.11287 0.5027 0.0
C1182 C 0.74775 0.0546 0.51818 0.0
C1183 C 0.72542 0.04876 0.50925 0.0
H1184 H 0.67149 0.08082 0.26088 0.0
H1185 H 0.66097 0.93505 0.27333 0.0
H1186 H 0.66046 0.89817 0.25747 0.0
H1187 H 0.66591 0.90723 0.23999 0.0
H1188 H 0.68537 0.05248 0.22778 0.0
H1189 H 0.68006 0.08969 0.24361 0.0
C1190 C 0.66882 0.04096 0.26014 0.0
C1191 C 0.66456 0.01096 0.2683 0.0
C1192 C 0.67043 0.01992 0.25102 0.0
C1193 C 0.66189 0.95933 0.2672 0.0
C1194 C 0.66247 0.93808 0.25811 0.0
C1195 C 0.6688 0.94704 0.24083 0.0
C1196 C 0.67418 0.9773 0.23273 0.0
C1197 C 0.66695 0.96803 0.24997 0.0
C1198 C 0.67896 0.02868 0.23388 0.0
C1199 C 0.6765 0.0499 0.24293 0.0
H1200 H 0.84594 0.89068 0.99136 0.0
H1201 H 0.71437 0.95035 0.97817 0.0
H1202 H 0.6722 0.94994 0.99344 0.0
H1203 H 0.67262 0.93412 0.01068 0.0
H1204 H 0.80801 0.88647 0.02421 0.0
H1205 H 0.84835 0.8807 0.00873 0.0
C1206 C 0.80799 0.9036 0.99179 0.0
C1207 C 0.78299 0.91843 0.98344 0.0
C1208 C 0.78439 0.90524 0.00071 0.0
C1209 C 0.7341 0.93594 0.98425 0.0
C1210 C 0.70999 0.93658 0.99307 0.0
C1211 C 0.71091 0.92221 0.01025 0.0
C1212 C 0.73633 0.90841 0.01861 0.0
C1213 C 0.73472 0.92115 0.00134 0.0
C1214 C 0.78635 0.89439 0.01791 0.0
C1215 C 0.80988 0.89199 0.00904 0.0
H1216 H 0.70156 0.57292 0.73653 0.0
H1217 H 0.60086 0.46223 0.72583 0.0
H1218 H 0.59942 0.42205 0.74143 0.0
H1219 H 0.62401 0.42036 0.75829 0.0
H1220 H 0.72551 0.53047 0.76895 0.0
H1221 H 0.7286 0.5694 0.75327 0.0
C1222 C 0.67949 0.53984 0.73761 0.0
C1223 C 0.6521 0.5201 0.72998 0.0
C1224 C 0.67833 0.51731 0.74664 0.0
C1225 C 0.62354 0.47735 0.73148 0.0
C1226 C 0.62221 0.45467 0.74044 0.0
C1227 C 0.64697 0.45279 0.75718 0.0
C1228 C 0.67324 0.47333 0.76489 0.0
C1229 C 0.64919 0.47454 0.74809 0.0
C1230 C 0.70318 0.51505 0.76329 0.0
C1231 C 0.70551 0.537 0.75427 0.0
H1232 H 0.66654 0.36181 0.98667 0.0
H1233 H 0.76038 0.47855 0.97599 0.0
H1234 H 0.79662 0.48893 0.99184 0.0
H1235 H 0.80133 0.46511 0.00877 0.0
H1236 H 0.71004 0.34548 0.01917 0.0
H1237 H 0.67228 0.3371 0.00352 0.0
C1238 C 0.69497 0.38953 0.98781 0.0
C1239 C 0.71133 0.41873 0.98009 0.0
C1240 C 0.71551 0.39541 0.99696 0.0
C1241 C 0.74811 0.45452 0.9817 0.0
C1242 C 0.76846 0.46087 0.9908 0.0
C1243 C 0.77298 0.43731 0.00764 0.0
C1244 C 0.75751 0.40723 0.01532 0.0
C1245 C 0.75246 0.43148 -0.00151 0.0
C1246 C 0.72123 0.37094 0.01363 0.0
C1247 C 0.7001 0.36546 0.00458 0.0
H1248 H 0.86281 0.59966 0.25912 0.0
H1249 H 0.79463 0.46778 0.27057 0.0
H1250 H 0.78777 0.43357 0.25461 0.0
H1251 H 0.79875 0.44175 0.23727 0.0
H1252 H 0.85768 0.57769 0.22572 0.0
H1253 H 0.87042 0.60938 0.2418 0.0
C1254 C 0.84651 0.56332 0.25817 0.0
C1255 C 0.83089 0.53586 0.26619 0.0
C1256 C 0.84103 0.54445 0.24889 0.0
C1257 C 0.8093 0.48912 0.26471 0.0
C1258 C 0.80457 0.4697 0.2555 0.0
C1259 C 0.81461 0.47826 0.23826 0.0
C1260 C 0.82897 0.5064 0.23025 0.0
C1261 C 0.82023 0.49707 0.24754 0.0
C1262 C 0.84857 0.55401 0.23169 0.0
C1263 C 0.85515 0.57258 0.24092 0.0
H1264 H 0.6661 0.58512 0.50889 0.0
H1265 H 0.80693 0.56601 0.52288 0.0
H1266 H 0.84936 0.5693 0.50751 0.0
H1267 H 0.84645 0.57747 0.49008 0.0
H1268 H 0.70485 0.5863 0.47595 0.0
H1269 H 0.66284 0.58766 0.49133 0.0
C1270 C 0.70608 0.58178 0.50855 0.0
C1271 C 0.73354 0.57756 0.51703 0.0
C1272 C 0.73012 0.58231 0.49966 0.0
C1273 C 0.78518 0.57191 0.51649 0.0
C1274 C 0.80942 0.57315 0.50769 0.0
C1275 C 0.8064 0.57997 0.49036 0.0
C1276 C 0.77913 0.58421 0.48185 0.0
C1277 C 0.78229 0.57869 0.49924 0.0
C1278 C 0.72714 0.58605 0.48235 0.0
C1279 C 0.70292 0.58586 0.49117 0.0
H1280 H 0.35498 0.40586 0.253 0.0
H1281 H 0.29756 0.53296 0.26804 0.0
H1282 H 0.29218 0.57864 0.25318 0.0
H1283 H 0.30244 0.58242 0.23577 0.0
H1284 H 0.34816 0.45129 0.22057 0.0
H1285 H 0.35919 0.40745 0.23559 0.0
C1286 C 0.3413 0.4436 0.25307 0.0
C1287 C 0.32882 0.46636 0.26177 0.0
C1288 C 0.33625 0.46911 0.24441 0.0
C1289 C 0.31026 0.51501 0.26163 0.0
C1290 C 0.30626 0.54108 0.25305 0.0
C1291 C 0.31499 0.54429 0.23575 0.0
C1292 C 0.32677 0.52104 0.22707 0.0
C1293 C 0.3193 0.51854 0.24441 0.0
C1294 C 0.34167 0.47119 0.22715 0.0
C1295 C 0.34717 0.44571 0.23574 0.0
H1296 H 0.31474 0.63325 0.00505 0.0
H1297 H 0.21768 0.51852 0.01535 0.0
H1298 H 0.1732 0.51836 0.00011 0.0
H1299 H 0.16401 0.54938 0.98372 0.0
H1300 H 0.2589 0.66703 0.97375 0.0
H1301 H 0.30249 0.66751 0.98897 0.0
C1302 C 0.28372 0.60842 0.00391 0.0
C1303 C 0.26894 0.57624 0.01121 0.0
C1304 C 0.25839 0.60884 0.9952 0.0
C1305 C 0.2289 0.54408 0.00979 0.0
C1306 C 0.20375 0.54385 0.0011 0.0
C1307 C 0.19407 0.57527 0.98491 0.0
C1308 C 0.2094 0.60687 0.97752 0.0
C1309 C 0.21835 0.57594 0.99374 0.0
C1310 C 0.24787 0.64076 0.97918 0.0
C1311 C 0.27246 0.64148 0.98792 0.0
H1312 H 0.19117 0.52025 0.72574 0.0
H1313 H 0.13303 0.38222 0.73656 0.0
H1314 H 0.13987 0.41317 0.7528 0.0
H1315 H 0.16327 0.4787 0.76394 0.0
H1316 H 0.2127 0.61978 0.75309 0.0
H1317 H 0.20831 0.58813 0.73679 0.0
C1318 C 0.17819 0.49733 0.73154 0.0
C1319 C 0.16032 0.44924 0.72978 0.0
C1320 C 0.18099 0.51579 0.7409 0.0
C1321 C 0.14672 0.41949 0.73762 0.0
C1322 C 0.1505 0.43716 0.74694 0.0
C1323 C 0.1713 0.50326 0.75803 0.0
C1324 C 0.18662 0.55216 0.75976 0.0
C1325 C 0.16742 0.48529 0.74866 0.0
C1326 C 0.20018 0.58215 0.75197 0.0
C1327 C 0.1976 0.56412 0.74264 0.0
H1328 H 0.16739 0.42756 0.50637 0.0
H1329 H 0.30693 0.39439 0.51996 0.0
H1330 H 0.34631 0.38571 0.50448 0.0
H1331 H 0.34219 0.38996 0.48719 0.0
H1332 H 0.20623 0.43547 0.47353 0.0
H1333 H 0.16463 0.43672 0.48889 0.0
C1334 C 0.20635 0.4181 0.50593 0.0
C1335 C 0.23347 0.40922 0.51433 0.0
C1336 C 0.22951 0.41545 0.49698 0.0
C1337 C 0.28425 0.39839 0.51365 0.0
C1338 C 0.30715 0.39434 0.50478 0.0
C1339 C 0.30339 0.40019 0.48751 0.0
C1340 C 0.27732 0.41098 0.47907 0.0
C1341 C 0.28014 0.40289 0.49641 0.0
C1342 C 0.22716 0.42463 0.47973 0.0
C1343 C 0.20331 0.42616 0.48859 0.0
H1344 H 0.03787 0.20899 0.19705 0.0
H1345 H 0.09818 0.2393 0.1691 0.0
H1346 H 0.0339 0.30079 0.16629 0.0
H1347 H 0.95849 0.34236 0.17131 0.0
H1348 H 0.89814 0.31552 0.19935 0.0
H1349 H 0.96408 0.25519 0.20253 0.0
C1350 C 0.03759 0.2299 0.19044 0.0
C1351 C 0.07274 0.21956 0.18329 0.0
C1352 C 0.9998 0.26463 0.18878 0.0
C1353 C 0.07154 0.24655 0.17471 0.0
C1354 C 0.03455 0.28139 0.17306 0.0
C1355 C 0.95921 0.32278 0.17807 0.0
C1356 C 0.92283 0.33238 0.185 0.0
C1357 C 0.99785 0.28973 0.17994 0.0
C1358 C 0.92531 0.308 0.19385 0.0
C1359 C 0.9632 0.27393 0.19569 0.0
H1360 H 0.08232 0.77806 0.42099 0.0
H1361 H 0.03108 0.85046 0.4466 0.0
H1362 H 0.96937 0.7852 0.44896 0.0
H1363 H 0.9313 0.70676 0.44387 0.0
H1364 H 0.98451 0.63419 0.41841 0.0
H1365 H 0.04535 0.6998 0.41604 0.0
C1366 C 0.05704 0.78019 0.42699 0.0
C1367 C 0.06081 0.81948 0.43353 0.0
C1368 C 0.023 0.74181 0.42848 0.0
C1369 C 0.02853 0.82091 0.4414 0.0
C1370 C 0.99363 0.78335 0.44281 0.0
C1371 C 0.95686 0.70478 0.43791 0.0
C1372 C 0.95364 0.66537 0.43137 0.0
C1373 C 0.99107 0.74323 0.43647 0.0
C1374 C 0.98642 0.66392 0.42358 0.0
C1375 C 0.0209 0.70165 0.42217 0.0
H1376 H 0.45621 0.81061 0.66798 0.0
H1377 H 0.39301 0.76732 0.69506 0.0
H1378 H 0.4578 0.70555 0.69713 0.0
H1379 H 0.53409 0.66672 0.69169 0.0
H1380 H 0.59678 0.7068 0.66444 0.0
H1381 H 0.53094 0.76811 0.66209 0.0
C1382 C 0.45601 0.78695 0.67423 0.0
C1383 C 0.41988 0.79361 0.68136 0.0
C1384 C 0.49397 0.75206 0.67548 0.0
C1385 C 0.42042 0.76296 0.68947 0.0
C1386 C 0.45769 0.72794 0.69071 0.0
C1387 C 0.53387 0.68946 0.68531 0.0
C1388 C 0.57077 0.68322 0.67835 0.0
C1389 C 0.49521 0.72305 0.68387 0.0
C1390 C 0.56911 0.71168 0.66996 0.0
C1391 C 0.53129 0.7463 0.66858 0.0
H1392 H 0.44288 0.19719 0.91746 0.0
H1393 H 0.46662 0.15514 0.94683 0.0
H1394 H 0.52772 0.22101 0.9486 0.0
H1395 H 0.57099 0.29268 0.94209 0.0
H1396 H 0.54858 0.33516 0.91271 0.0
H1397 H 0.48911 0.26753 0.91072 0.0
C1398 C 0.46232 0.20169 0.92418 0.0
C1399 C 0.4505 0.17119 0.932 0.0
C1400 C 0.49639 0.24053 0.92522 0.0
C1401 C 0.4753 0.17803 0.9407 0.0
C1402 C 0.50983 0.21597 0.94175 0.0
C1403 C 0.55255 0.28771 0.93528 0.0
C1404 C 0.56346 0.31942 0.9276 0.0
C1405 C 0.51971 0.24811 0.93412 0.0
C1406 C 0.54025 0.3116 0.91876 0.0
C1407 C 0.50666 0.2727 0.9176 0.0
H1408 H 0.06081 0.79433 0.32909 0.0
H1409 H 0.08469 0.79388 0.29861 0.0
H1410 H 0.01671 0.73494 0.29664 0.0
H1411 H 0.94986 0.68497 0.30357 0.0
H1412 H 0.92574 0.68662 0.33404 0.0
H1413 H 0.99387 0.74512 0.33597 0.0
C1414 C 0.05182 0.78076 0.32201 0.0
C1415 C 0.07822 0.79809 0.31401 0.0
C1416 C 0.0119 0.74815 0.32091 0.0
C1417 C 0.06527 0.78079 0.30489 0.0
C1418 C 0.02613 0.74748 0.30376 0.0
C1419 C 0.95889 0.69871 0.31062 0.0
C1420 C 0.93244 0.68164 0.31865 0.0
C1421 C 0.99878 0.73148 0.31171 0.0
C1422 C 0.94526 0.69934 0.32774 0.0
C1423 C 0.98449 0.73244 0.32886 0.0
H1424 H 0.57102 0.7076 0.55236 0.0
H1425 H 0.5428 0.66062 0.58131 0.0
H1426 H 0.48097 0.72563 0.58312 0.0
H1427 H 0.4383 0.79803 0.57686 0.0
H1428 H 0.4637 0.84517 0.54784 0.0
H1429 H 0.52428 0.77841 0.54573 0.0
C1430 C 0.55045 0.71086 0.55898 0.0
C1431 C 0.5614 0.67922 0.56669 0.0
C1432 C 0.51562 0.74916 0.56005 0.0
C1433 C 0.535 0.68443 0.57527 0.0
C1434 C 0.49998 0.72187 0.57634 0.0
C1435 C 0.4576 0.79428 0.57011 0.0
C1436 C 0.44737 0.82719 0.56258 0.0
C1437 C 0.49093 0.75513 0.56887 0.0
C1438 C 0.47157 0.82076 0.55379 0.0
C1439 C 0.50582 0.78236 0.55256 0.0
H1440 H 0.4596 0.19871 0.82672 0.0
H1441 H 0.4142 0.22911 0.79775 0.0
H1442 H 0.47918 0.29127 0.79626 0.0
H1443 H 0.55032 0.33434 0.80289 0.0
H1444 H 0.59593 0.30604 0.83191 0.0
H1445 H 0.52991 0.24447 0.83359 0.0
C1446 C 0.46326 0.21969 0.82015 0.0
C1447 C 0.43199 0.20947 0.81236 0.0
C1448 C 0.50145 0.25463 0.81927 0.0
C1449 C 0.4377 0.23641 0.80385 0.0
C1450 C 0.4751 0.27162 0.80297 0.0
C1451 C 0.54643 0.31425 0.80956 0.0
C1452 C 0.5785 0.32419 0.81722 0.0
C1453 C 0.50773 0.28024 0.81055 0.0
C1454 C 0.57207 0.29861 0.82587 0.0
C1455 C 0.53409 0.26378 0.82686 0.0
H1456 H 0.06235 0.1886 0.05098 0.0
H1457 H 0.02266 0.13167 0.07878 0.0
H1458 H 0.96146 0.19716 0.08062 0.0
H1459 H 0.92291 0.27272 0.07486 0.0
H1460 H 0.95917 0.32969 0.04694 0.0
H1461 H 0.01912 0.26233 0.0447 0.0
C1462 C 0.03956 0.18985 0.05736 0.0
C1463 C 0.04723 0.15529 0.06475 0.0
C1464 C 0.00497 0.2283 0.05846 0.0
C1465 C 0.01761 0.15777 0.07299 0.0
C1466 C 0.9829 0.19547 0.07409 0.0
C1467 C 0.94443 0.27096 0.06832 0.0
C1468 C 0.93763 0.30686 0.06117 0.0
C1469 C 0.97727 0.23156 0.06699 0.0
C1470 C 0.96449 0.30296 0.05262 0.0
C1471 C 0.99836 0.26427 0.05131 0.0
H1472 H 0.05655 0.69566 0.82337 0.0
H1473 H 0.09226 0.73133 0.7941 0.0
H1474 H 0.02597 0.79338 0.79394 0.0
H1475 H 0.95766 0.83662 0.80217 0.0
H1476 H 0.92245 0.79803 0.83133 0.0
H1477 H 0.98824 0.73632 0.83133 0.0
C1478 C 0.05046 0.7172 0.81694 0.0
C1479 C 0.07979 0.70905 0.80877 0.0
C1480 C 0.01165 0.75136 0.81681 0.0
C1481 C 0.07063 0.73715 0.80052 0.0
C1482 C 0.03244 0.77225 0.8004 0.0
C1483 C 0.96375 0.81404 0.80846 0.0
C1484 C 0.93498 0.82176 0.81674 0.0
C1485 C 0.00238 0.77924 0.80848 0.0
C1486 C 0.94389 0.79273 0.82487 0.0
C1487 C 0.98176 0.75774 0.8249 0.0
H1488 H 0.94254 0.20748 0.55513 0.0
H1489 H 0.96068 0.17877 0.58526 0.0
H1490 H 0.0228 0.24429 0.58622 0.0
H1491 H 0.07058 0.31036 0.57858 0.0
H1492 H 0.05255 0.33877 0.54845 0.0
H1493 H 0.99044 0.27323 0.54749 0.0
C1494 C 0.9605 0.21497 0.56189 0.0
C1495 C 0.94711 0.18802 0.5701 0.0
C1496 C 0.99528 0.25331 0.56244 0.0
C1497 C 0.97045 0.19875 0.57882 0.0
C1498 C 0.00566 0.23647 0.57939 0.0
C1499 C 0.05252 0.30283 0.57182 0.0
C1500 C 0.06583 0.32975 0.56361 0.0
C1501 C 0.01782 0.26439 0.57128 0.0
C1502 C 0.04271 0.31882 0.55488 0.0
C1503 C 0.00751 0.28111 0.55431 0.0
H1504 H 0.46497 0.32333 0.32272 0.0
H1505 H 0.38873 0.25017 0.29966 0.0
H1506 H 0.4561 0.18983 0.29841 0.0
H1507 H 0.53715 0.15908 0.30375 0.0
H1508 H 0.6137 0.23417 0.32657 0.0
H1509 H 0.54625 0.29395 0.32779 0.0
C1510 C 0.46252 0.29351 0.31756 0.0
C1511 C 0.42154 0.2905 0.31141 0.0
C1512 C 0.50209 0.2604 0.31664 0.0
C1513 C 0.41961 0.25263 0.30457 0.0
C1514 C 0.45835 0.21859 0.30377 0.0
C1515 C 0.53959 0.18918 0.30884 0.0
C1516 C 0.58052 0.19246 0.31501 0.0
C1517 C 0.50011 0.22263 0.30968 0.0
C1518 C 0.5827 0.23111 0.3217 0.0
C1519 C 0.54394 0.26493 0.32248 0.0
H1520 H 0.5728 0.78627 0.05199 0.0
H1521 H 0.52442 0.83569 0.07978 0.0
H1522 H 0.46311 0.76966 0.08033 0.0
H1523 H 0.42597 0.69604 0.07335 0.0
H1524 H 0.47082 0.64713 0.04536 0.0
H1525 H 0.53182 0.71432 0.04454 0.0
C1526 C 0.54812 0.78324 0.05807 0.0
C1527 C 0.55325 0.81589 0.06584 0.0
C1528 C 0.5134 0.74453 0.05842 0.0
C1529 C 0.5213 0.81108 0.07371 0.0
C1530 C 0.48651 0.77307 0.07407 0.0
C1531 C 0.44967 0.6995 0.06713 0.0
C1532 C 0.44485 0.666 0.05952 0.0
C1533 C 0.48309 0.73898 0.06658 0.0
C1534 C 0.47457 0.67203 0.05137 0.0
C1535 C 0.50903 0.71065 0.05087 0.0
H1536 H 0.94865 0.1777 0.66876 0.0
H1537 H 0.88368 0.23566 0.69462 0.0
H1538 H 0.94844 0.29817 0.69556 0.0
H1539 H 0.02659 0.33185 0.68986 0.0
H1540 H 0.09156 0.27745 0.66379 0.0
H1541 H 0.024 0.21706 0.66219 0.0
C1542 C 0.94794 0.20482 0.67446 0.0
C1543 C 0.91152 0.20185 0.68164 0.0
C1544 C 0.98602 0.24012 0.67508 0.0
C1545 C 0.91136 0.23704 0.68902 0.0
C1546 C 0.94863 0.27249 0.68962 0.0
C1547 C 0.02636 0.3063 0.68388 0.0
C1548 C 0.06466 0.30781 0.67711 0.0
C1549 C 0.9869 0.27326 0.68287 0.0
C1550 C 0.0629 0.27604 0.6692 0.0
C1551 C 0.02415 0.24193 0.66825 0.0
H1552 H 0.43869 0.27149 0.42075 0.0
H1553 H 0.49038 0.35245 0.44531 0.0
H1554 H 0.55037 0.28696 0.44878 0.0
H1555 H 0.58685 0.20618 0.44495 0.0
H1556 H 0.53356 0.1246 0.42056 0.0
H1557 H 0.47403 0.1902 0.4171 0.0
C1558 C 0.46393 0.2753 0.42673 0.0
C1559 C 0.461 0.31707 0.43266 0.0
C1560 C 0.4968 0.23675 0.42888 0.0
C1561 C 0.49269 0.32089 0.44056 0.0
C1562 C 0.52648 0.28324 0.44261 0.0
C1563 C 0.56146 0.20223 0.439 0.0
C1564 C 0.5643 0.1604 0.43307 0.0
C1565 C 0.52828 0.24066 0.4369 0.0
C1566 C 0.53181 0.15631 0.42528 0.0
C1567 C 0.49819 0.19403 0.42323 0.0
H1568 H 0.52613 0.84778 0.17315 0.0
H1569 H 0.60601 0.77926 0.19631 0.0
H1570 H 0.53895 0.71879 0.19832 0.0
H1571 H 0.45824 0.68488 0.19314 0.0
H1572 H 0.37917 0.75608 0.17017 0.0
H1573 H 0.44475 0.81764 0.16868 0.0
C1574 C 0.52942 0.8191 0.17854 0.0
C1575 C 0.57151 0.81709 0.18441 0.0
C1576 C 0.49024 0.78604 0.17987 0.0
C1577 C 0.57433 0.78082 0.19158 0.0
C1578 C 0.53581 0.74671 0.1928 0.0
C1579 C 0.4548 0.71477 0.18801 0.0
C1580 C 0.41388 0.7163 0.18181 0.0
C1581 C 0.49342 0.74919 0.187 0.0
C1582 C 0.41023 0.75449 0.17505 0.0
C1583 C 0.44795 0.78926 0.17412 0.0
H1584 H 0.92661 0.8012 0.91832 0.0
H1585 H 0.98149 0.85944 0.945 0.0
H1586 H 0.04416 0.79468 0.94558 0.0
H1587 H 0.07971 0.71917 0.93913 0.0
H1588 H 0.02787 0.6608 0.91229 0.0
H1589 H 0.96657 0.7277 0.91125 0.0
C1590 C 0.95299 0.80041 0.92415 0.0
C1591 C 0.94927 0.83507 0.93163 0.0
C1592 C 0.98836 0.76235 0.92455 0.0
C1593 C 0.98349 0.83322 0.93917 0.0
C1594 C 0.01904 0.79594 0.93955 0.0
C1595 C 0.05454 0.72054 0.93311 0.0
C1596 C 0.05734 0.68438 0.92592 0.0
C1597 C 0.02085 0.75964 0.93243 0.0
C1598 C 0.0257 0.68774 0.918 0.0
C1599 C 0.99105 0.72617 0.91737 0.0
H1600 H 0.34515 0.02517 0.19589 0.0
H1601 H 0.34449 0.11295 0.17018 0.0
H1602 H 0.43361 0.10089 0.1684 0.0
H1603 H 0.51169 0.06091 0.17373 0.0
H1604 H 0.51202 0.98186 0.20054 0.0
H1605 H 0.42421 0.99707 0.20248 0.0
C1606 C 0.36454 0.0428 0.19002 0.0
C1607 C 0.33765 0.06885 0.18306 0.0
C1608 C 0.41624 0.03764 0.18926 0.0
C1609 C 0.36375 0.09102 0.17547 0.0
C1610 C 0.41496 0.08464 0.17449 0.0
C1611 C 0.49273 0.04793 0.18008 0.0
C1612 C 0.51891 0.02027 0.18695 0.0
C1613 C 0.4416 0.05724 0.18127 0.0
C1614 C 0.49347 0.00381 0.19516 0.0
C1615 C 0.44281 0.01198 0.19625 0.0
H1616 H 0.29411 0.24057 0.41794 0.0
H1617 H 0.20098 0.28273 0.44155 0.0
H1618 H 0.17422 0.19646 0.44348 0.0
H1619 H 0.18144 0.10798 0.43898 0.0
H1620 H 0.28349 0.06634 0.4167 0.0
H1621 H 0.30241 0.15316 0.41368 0.0
C1622 C 0.26697 0.23109 0.42335 0.0
C1623 C 0.24865 0.26815 0.42945 0.0
C1624 C 0.25392 0.18122 0.42473 0.0
C1625 C 0.21493 0.25497 0.43666 0.0
C1626 C 0.20002 0.20559 0.43782 0.0
C1627 C 0.20808 0.11795 0.43352 0.0
C1628 C 0.23056 0.08057 0.428 0.0
C1629 C 0.22009 0.16819 0.43202 0.0
C1630 C 0.26477 0.09426 0.42091 0.0
C1631 C 0.27584 0.14396 0.41921 0.0
H1632 H 0.97699 0.95577 0.67345 0.0
H1633 H 0.98563 0.0296 0.70075 0.0
H1634 H 0.07411 0.01478 0.70136 0.0
H1635 H 0.15051 0.98838 0.69353 0.0
H1636 H 0.14264 0.90399 0.66749 0.0
H1637 H 0.05307 0.91699 0.66684 0.0
C1638 C 0.99805 0.96771 0.67962 0.0
C1639 C 0.97431 0.99427 0.68698 0.0
C1640 C 0.04947 0.95845 0.68004 0.0
C1641 C 0.00243 0.00912 0.69495 0.0
C1642 C 0.05339 1.00105 0.69529 0.0
C1643 C 0.12923 0.97167 0.68783 0.0
C1644 C 0.15371 0.94613 0.68047 0.0
C1645 C 0.07747 0.97687 0.68778 0.0
C1646 C 0.1252 0.92542 0.67308 0.0
C1647 C 0.07377 0.93224 0.67277 0.0
H1648 H 0.22289 0.74646 0.94121 0.0
H1649 H 0.31273 0.71742 0.91639 0.0
H1650 H 0.33928 0.80451 0.91615 0.0
H1651 H 0.33309 0.88979 0.92263 0.0
H1652 H 0.23179 0.91857 0.94582 0.0
H1653 H 0.2145 0.83045 0.94722 0.0
C1654 C 0.24913 0.75879 0.93584 0.0
C1655 C 0.26664 0.72519 0.92893 0.0
C1656 C 0.26193 0.80904 0.93546 0.0
C1657 C 0.29928 0.74234 0.92186 0.0
C1658 C 0.31416 0.79217 0.9217 0.0
C1659 C 0.3068 0.87687 0.92792 0.0
C1660 C 0.28407 0.91105 0.93417 0.0
C1661 C 0.29496 0.82608 0.92837 0.0
C1662 C 0.25079 0.8933 0.94108 0.0
C1663 C 0.24048 0.84284 0.94183 0.0
H1664 H 0.35895 0.97373 0.33071 0.0
H1665 H 0.35489 0.91661 0.30199 0.0
H1666 H 0.44427 0.92708 0.30061 0.0
H1667 H 0.52319 0.95729 0.30721 0.0
H1668 H 0.52776 0.00886 0.33636 0.0
H1669 H 0.43942 0.99317 0.33804 0.0
C1670 C 0.37763 0.96256 0.32421 0.0
C1671 C 0.34971 0.94547 0.31639 0.0
C1672 C 0.42951 0.96713 0.32356 0.0
C1673 C 0.37489 0.93165 0.30801 0.0
C1674 C 0.42627 0.93697 0.30725 0.0
C1675 C 0.50521 0.96414 0.31401 0.0
C1676 C 0.53248 0.98483 0.3216 0.0
C1677 C 0.45395 0.95542 0.31493 0.0
C1678 C 0.50812 0.99312 0.33035 0.0
C1679 C 0.45728 0.98456 0.33131 0.0
H1680 H 0.33489 0.12171 0.5552 0.0
H1681 H 0.25347 0.09127 0.58102 0.0
H1682 H 0.23852 0.17941 0.58332 0.0
H1683 H 0.24347 0.26463 0.5775 0.0
H1684 H 0.31973 0.29593 0.55112 0.0
H1685 H 0.3424 0.20859 0.54962 0.0
C1686 C 0.31374 0.1345 0.5613 0.0
C1687 C 0.2955 0.09992 0.56795 0.0
C1688 C 0.30471 0.18557 0.56253 0.0
C1689 C 0.26858 0.11708 0.57587 0.0
C1690 C 0.25985 0.16755 0.57718 0.0
C1691 C 0.2662 0.25271 0.57155 0.0
C1692 C 0.28019 0.28708 0.56448 0.0
C1693 C 0.27743 0.20213 0.57053 0.0
C1694 C 0.30873 0.27046 0.55671 0.0
C1695 C 0.32131 0.22036 0.55579 0.0
H1696 H 0.14923 0.09473 0.82362 0.0
H1697 H 0.17152 0.00185 0.79894 0.0
H1698 H 0.08286 0.98674 0.79796 0.0
H1699 H 1.00014 0.99442 0.80468 0.0
H1700 H 0.97763 0.07554 0.8308 0.0
H1701 H 0.06519 0.10045 0.83073 0.0
C1702 C 0.13474 0.07077 0.81809 0.0
C1703 C 0.1672 0.04983 0.8113 0.0
C1704 C 0.08362 0.0602 0.81783 0.0
C1705 C 0.14751 0.01947 0.80411 0.0
C1706 C 0.09675 0.01043 0.80359 0.0
C1707 C 0.01401 0.0185 0.81026 0.0
C1708 C 0.98216 0.03396 0.81764 0.0
C1709 C 0.06458 0.0302 0.81045 0.0
C1710 C 1.00124 0.06375 0.82498 0.0
C1711 C 0.05134 0.07764 0.82497 0.0
H1712 H 0.2801 0.73127 0.0724 0.0
H1713 H 0.18605 0.69855 0.04839 0.0
H1714 H 0.16112 0.78587 0.0475 0.0
H1715 H 0.16946 0.87277 0.05321 0.0
H1716 H 0.2715 0.90434 0.07607 0.0
H1717 H 0.29009 0.81651 0.07773 0.0
C1718 C 0.25319 0.74293 0.06711 0.0
C1719 C 0.23405 0.7082 0.06061 0.0
C1720 C 0.24115 0.79333 0.06634 0.0
C1721 C 0.20063 0.7244 0.05358 0.0
C1722 C 0.18678 0.7744 0.05302 0.0
C1723 C 0.1961 0.86031 0.05848 0.0
C1724 C 0.21876 0.89504 0.06457 0.0
C1725 C 0.20753 0.80945 0.05926 0.0
C1726 C 0.25301 0.87834 0.07139 0.0
C1727 C 0.26369 0.82809 0.07235 0.0
H1728 H 0.5009 0.03423 0.82759 0.0
H1729 H 0.47637 0.95293 0.80156 0.0
H1730 H 0.56359 0.92727 0.80143 0.0
H1731 H 0.64819 0.9331 0.80819 0.0
H1732 H 0.67279 0.02492 0.83291 0.0
H1733 H 0.58422 0.04063 0.83418 0.0
C1734 C 0.51427 0.0099 0.822 0.0
C1735 C 0.48196 0.99479 0.81468 0.0
C1736 C 0.56475 0.99763 0.8217 0.0
C1737 C 0.50035 0.96453 0.80734 0.0
C1738 C 0.55028 0.95022 0.80723 0.0
C1739 C 0.63417 0.95686 0.81381 0.0
C1740 C 0.66724 0.97758 0.82048 0.0
C1741 C 0.58312 0.96754 0.81426 0.0
C1742 C 0.64826 0.00767 0.82779 0.0
C1743 C 0.59756 0.017 0.82849 0.0
H1744 H 0.80583 0.74022 0.57684 0.0
H1745 H 0.73917 0.74244 0.54883 0.0
H1746 H 0.75184 0.83103 0.54776 0.0
H1747 H 0.77214 0.90937 0.5555 0.0
H1748 H 0.84855 0.90828 0.58251 0.0
H1749 H 0.84008 0.81838 0.58339 0.0
C1750 C 0.79523 0.75992 0.57041 0.0
C1751 C 0.77143 0.73432 0.56296 0.0
C1752 C 0.80285 0.81147 0.56977 0.0
C1753 C 0.75806 0.76062 0.55466 0.0
C1754 C 0.76468 0.81168 0.55407 0.0
C1755 C 0.78828 0.88957 0.56146 0.0
C1756 C 0.80984 0.91598 0.56903 0.0
C1757 C 0.78566 0.83767 0.56169 0.0
C1758 C 0.8299 0.88929 0.57675 0.0
C1759 C 0.82572 0.83768 0.5772 0.0
H1760 H 0.85971 0.01598 0.33038 0.0
H1761 H 0.85483 0.07144 0.30153 0.0
H1762 H 0.94431 0.06134 0.30013 0.0
H1763 H 0.02361 0.03219 0.30683 0.0
H1764 H 0.0286 0.98356 0.33619 0.0
H1765 H 0.94019 0.99852 0.33779 0.0
C1766 C 0.87819 0.02699 0.32385 0.0
C1767 C 0.85005 0.04349 0.31601 0.0
C1768 C 0.93007 0.02299 0.32321 0.0
C1769 C 0.875 0.05689 0.30758 0.0
C1770 C 0.92644 0.05182 0.30681 0.0
C1771 C 0.00569 0.02583 0.31365 0.0
C1772 C 0.0331 0.00603 0.32132 0.0
C1773 C 0.95435 0.03422 0.31454 0.0
C1774 C 0.00885 0.99854 0.33011 0.0
C1775 C 0.95797 0.00665 0.33103 0.0
H1776 H 0.67156 0.10088 0.05785 0.0
H1777 H 0.75614 0.07496 0.08347 0.0
H1778 H 0.77104 0.16352 0.0851 0.0
H1779 H 0.76529 0.24716 0.07874 0.0
H1780 H 0.68918 0.27384 0.05216 0.0
H1781 H 0.66538 0.18631 0.05144 0.0
C1782 C 0.69347 0.11466 0.06375 0.0
C1783 C 0.71238 0.08126 0.07058 0.0
C1784 C 0.70316 0.16581 0.06449 0.0
C1785 C 0.7403 0.09981 0.07823 0.0
C1786 C 0.74908 0.15049 0.07914 0.0
C1787 C 0.74252 0.23431 0.07287 0.0
C1788 C 0.72861 0.2674 0.06556 0.0
C1789 C 0.73106 0.18374 0.07228 0.0
C1790 C 0.70002 0.24943 0.05793 0.0
C1791 C 0.68679 0.19925 0.05747 0.0
H1792 H 0.63533 0.06949 0.67363 0.0
H1793 H 0.66317 0.98646 0.69937 0.0
H1794 H 0.57507 0.96851 0.70095 0.0
H1795 H 0.49102 0.97196 0.69459 0.0
H1796 H 0.46271 0.04846 0.66812 0.0
H1797 H 0.5497 0.07384 0.6673 0.0
C1798 C 0.62204 0.04719 0.67953 0.0
C1799 C 0.65579 0.02943 0.68639 0.0
C1800 C 0.57114 0.03618 0.68031 0.0
C1801 C 0.63794 1.0011 0.69406 0.0
C1802 C 0.58754 0.9907 0.69496 0.0
C1803 C 0.50349 0.99512 0.68874 0.0
C1804 C 0.47013 0.00863 0.68147 0.0
C1805 C 0.55385 0.00777 0.68811 0.0
C1806 C 0.48744 0.03782 0.67385 0.0
C1807 C 0.53731 0.05199 0.67333 0.0
H1808 H 0.71456 0.71695 0.4446 0.0
H1809 H 0.77408 0.72229 0.41598 0.0
H1810 H 0.76469 0.81157 0.41573 0.0
H1811 H 0.74883 0.88858 0.42419 0.0
H1812 H 0.67776 0.88529 0.45175 0.0
H1813 H 0.68546 0.795 0.45212 0.0
C1814 C 0.72442 0.73749 0.43823 0.0
C1815 C 0.74566 0.71255 0.43037 0.0
C1816 C 0.71872 0.78938 0.43808 0.0
C1817 C 0.75768 0.74 0.42214 0.0
C1818 C 0.75293 0.79137 0.42203 0.0
C1819 C 0.73355 0.86833 0.43018 0.0
C1820 C 0.71298 0.89416 0.43795 0.0
C1821 C 0.73493 0.81648 0.43005 0.0
C1822 C 0.69509 0.86683 0.44577 0.0
C1823 C 0.69869 0.81501 0.44591 0.0
H1824 H 0.85985 0.93483 0.19068 0.0
H1825 H 0.82382 0.03606 0.16789 0.0
H1826 H 0.9113 0.05536 0.16577 0.0
H1827 H 0.99714 0.04836 0.17108 0.0
H1828 H 0.03294 0.95786 0.19546 0.0
H1829 H 0.94656 0.92965 0.19636 0.0
C1830 C 0.87113 0.96141 0.18531 0.0
C1831 C 0.83521 0.98354 0.17937 0.0
C1832 C 0.92152 0.97416 0.18442 0.0
C1833 C 0.85063 0.01753 0.17239 0.0
C1834 C 0.90068 0.02892 0.17122 0.0
C1835 C 0.9863 0.02157 0.17646 0.0
C1836 C 0.02153 0.00432 0.18307 0.0
C1837 C 0.93635 0.00781 0.17724 0.0
C1838 C 0.00658 0.97102 0.19021 0.0
C1839 C 0.95718 0.95522 0.19076 0.0
H1840 H 0.73201 0.25971 0.94381 0.0
H1841 H 0.81628 0.28714 0.91818 0.0
H1842 H 0.83768 0.19904 0.91725 0.0
H1843 H 0.82731 0.11294 0.92321 0.0
H1844 H 0.73567 0.08698 0.94793 0.0
H1845 H 0.722 0.17566 0.94969 0.0
C1846 C 0.7561 0.24684 0.93813 0.0
C1847 C 0.77303 0.28027 0.93114 0.0
C1848 C 0.76609 0.19605 0.93738 0.0
C1849 C 0.80319 0.26237 0.92371 0.0
C1850 C 0.81499 0.2119 0.92313 0.0
C1851 C 0.80407 0.12684 0.92892 0.0
C1852 C 0.7827 0.09347 0.93547 0.0
C1853 C 0.79559 0.17815 0.9298 0.0
C1854 C 0.75302 0.11195 0.94288 0.0
C1855 C 0.74516 0.16265 0.94389 0.0
H1856 H 0.00508 0.4741 0.69242 0.0
H1857 H 0.03835 0.56319 0.66767 0.0
H1858 H 0.95127 0.58897 0.66676 0.0
H1859 H 0.86435 0.58103 0.67241 0.0
H1860 H 0.83209 0.48222 0.6958 0.0
H1861 H 0.92011 0.46584 0.69791 0.0
C1862 C 0.99372 0.50011 0.68693 0.0
C1863 C 0.02846 0.51727 0.6802 0.0
C1864 C 0.94347 0.51251 0.68616 0.0
C1865 C 0.01252 0.54987 0.673 0.0
C1866 C 0.96266 0.56426 0.67244 0.0
C1867 C 0.87669 0.55561 0.6779 0.0
C1868 C 0.84164 0.53289 0.68395 0.0
C1869 C 0.92754 0.54481 0.67885 0.0
C1870 C 0.85824 0.5007 0.69114 0.0
C1871 C 0.90859 0.49112 0.69232 0.0
H1872 H 0.73158 0.60157 0.94431 0.0
H1873 H 0.66446 0.60242 0.9164 0.0
H1874 H 0.67529 0.69199 0.9154 0.0
H1875 H 0.70948 0.7697 0.92211 0.0
H1876 H 0.76633 0.76837 0.95093 0.0
H1877 H 0.75128 0.68013 0.95207 0.0
C1878 C 0.71797 0.62128 0.93811 0.0
C1879 C 0.69849 0.5948 0.93034 0.0
C1880 C 0.72211 0.6731 0.93776 0.0
C1881 C 0.68156 0.6214 0.92234 0.0
C1882 C 0.68713 0.67285 0.92181 0.0
C1883 C 0.71756 0.75035 0.92871 0.0
C1884 C 0.73989 0.77594 0.93633 0.0
C1885 C 0.7083 0.69908 0.92941 0.0
C1886 C 0.74956 0.75002 0.94487 0.0
C1887 C 0.74127 0.69921 0.94554 0.0
H1888 H 0.49061 0.53835 0.16525 0.0
H1889 H 0.4541 0.46238 0.19143 0.0
H1890 H 0.54091 0.43915 0.19351 0.0
H1891 H 0.6286 0.44615 0.18852 0.0
H1892 H 0.6644 0.52552 0.16273 0.0
H1893 H 0.57673 0.54166 0.15988 0.0
C1894 C 0.50129 0.51569 0.17131 0.0
C1895 C 0.46565 0.5022 0.17818 0.0
C1896 C 0.5515 0.50377 0.17261 0.0
C1897 C 0.48061 0.47335 0.18603 0.0
C1898 C 0.53039 0.46035 0.18727 0.0
C1899 C 0.61706 0.46709 0.18231 0.0
C1900 C 0.6529 0.48466 0.17585 0.0
C1901 C 0.56639 0.47654 0.18074 0.0
C1902 C 0.63749 0.51117 0.16775 0.0
C1903 C 0.58735 0.52052 0.16613 0.0
H1904 H 0.80006 0.22346 0.44598 0.0
H1905 H 0.7486 0.21326 0.41685 0.0
H1906 H 0.76111 0.30141 0.4147 0.0
H1907 H 0.77729 0.38294 0.42155 0.0
H1908 H 0.84077 0.39331 0.44972 0.0
H1909 H 0.83094 0.3043 0.45187 0.0
C1910 C 0.79269 0.24028 0.43909 0.0
C1911 C 0.77271 0.2114 0.43166 0.0
C1912 C 0.80055 0.2915 0.4378 0.0
C1913 C 0.76381 0.23411 0.42276 0.0
C1914 C 0.77052 0.28488 0.42151 0.0
C1915 C 0.79044 0.36588 0.42807 0.0
C1916 C 0.80865 0.39553 0.43553 0.0
C1917 C 0.78748 0.31417 0.42906 0.0
C1918 C 0.82455 0.37213 0.44397 0.0
C1919 C 0.81972 0.32088 0.44517 0.0
H1920 H 0.85624 0.49845 0.80013 0.0
H1921 H 0.86015 0.42687 0.82764 0.0
H1922 H 0.95014 0.43527 0.82806 0.0
H1923 H 0.02764 0.46793 0.82095 0.0
H1924 H 0.0228 0.53032 0.79259 0.0
H1925 H 0.93404 0.51751 0.79194 0.0
C1926 C 0.87666 0.48338 0.80612 0.0
C1927 C 0.85095 0.46311 0.81393 0.0
C1928 C 0.92867 0.48598 0.8061 0.0
C1929 C 0.8785 0.44449 0.82167 0.0
C1930 C 0.93019 0.4486 0.82186 0.0
C1931 C 0.00738 0.47756 0.81453 0.0
C1932 C 0.03238 0.50033 0.80686 0.0
C1933 C 0.9557 0.47004 0.81417 0.0
C1934 C 0.00522 0.51236 0.7986 0.0
C1935 C 0.95401 0.50566 0.79825 0.0
H1936 H 0.72905 0.73996 0.08006 0.0
H1937 H 0.81057 0.78157 0.05482 0.0
H1938 H 0.83503 0.69525 0.05237 0.0
H1939 H 0.82822 0.60646 0.05682 0.0
H1940 H 0.74109 0.56603 0.08141 0.0
H1941 H 0.72391 0.65289 0.08467 0.0
C1942 C 0.75322 0.73046 0.07415 0.0
C1943 C 0.7683 0.76744 0.06769 0.0
C1944 C 0.76546 0.68054 0.07257 0.0
C1945 C 0.7987 0.75399 0.05995 0.0
C1946 C 0.81234 0.70451 0.05849 0.0
C1947 C 0.8053 0.61682 0.06285 0.0
C1948 C 0.78614 0.57978 0.06889 0.0
C1949 C 0.7949 0.66721 0.06462 0.0
C1950 C 0.75687 0.59377 0.07673 0.0
C1951 C 0.7469 0.6435 0.07859 0.0
H1952 H 0.48285 0.525 0.32378 0.0
H1953 H 0.48815 0.46954 0.29487 0.0
H1954 H 0.57664 0.4842 0.29426 0.0
H1955 H 0.65405 0.50463 0.30235 0.0
H1956 H 0.64946 0.5706 0.33034 0.0
H1957 H 0.55989 0.55828 0.33099 0.0
C1958 C 0.50315 0.51707 0.31728 0.0
C1959 C 0.47846 0.49554 0.30945 0.0
C1960 C 0.55461 0.52615 0.31688 0.0
C1961 C 0.50569 0.48589 0.30106 0.0
C1962 C 0.55665 0.49392 0.3007 0.0
C1963 C 0.63352 0.51765 0.3085 0.0
C1964 C 0.65897 0.53771 0.31635 0.0
C1965 C 0.5817 0.51283 0.30863 0.0
C1966 C 0.63134 0.5534 0.32432 0.0
C1967 C 0.57987 0.547 0.32464 0.0
H1968 H 0.67717 0.39349 0.5582 0.0
H1969 H 0.77096 0.42874 0.58217 0.0
H1970 H 0.78397 0.34123 0.58528 0.0
H1971 H 0.77392 0.25511 0.58067 0.0
H1972 H 0.69133 0.21807 0.55537 0.0
H1973 H 0.66849 0.30546 0.5533 0.0
C1974 C 0.70082 0.38197 0.56404 0.0
C1975 C 0.72252 0.41785 0.57002 0.0
C1976 C 0.70982 0.33113 0.56559 0.0
C1977 C 0.75271 0.40212 0.57761 0.0
C1978 C 0.76047 0.35196 0.57937 0.0
C1979 C 0.74977 0.26588 0.57484 0.0
C1980 C 0.73338 0.23001 0.56831 0.0
C1981 C 0.73946 0.3162 0.57339 0.0
C1982 C 0.70366 0.24491 0.56059 0.0
C1983 C 0.69108 0.29492 0.55936 0.0
H1984 H 0.14052 0.41146 0.32141 0.0
H1985 H 0.16582 0.5043 0.29684 0.0
H1986 H 0.07723 0.52012 0.2955 0.0
H1987 H 0.99362 0.51206 0.3018 0.0
H1988 H 0.96746 0.42639 0.32731 0.0
H1989 H 0.05507 0.40269 0.32773 0.0
C1990 C 0.12654 0.43541 0.31582 0.0
C1991 C 0.15968 0.45656 0.30921 0.0
C1992 C 0.07537 0.44522 0.31521 0.0
C1993 C 0.14103 0.48707 0.30193 0.0
C1994 C 0.09038 0.49622 0.30117 0.0
C1995 C 0.00665 0.48723 0.30735 0.0
C1996 C 0.97376 0.47063 0.31446 0.0
C1997 C 0.05727 0.47576 0.30779 0.0
C1998 C 0.99183 0.43936 0.3217 0.0
C1999 C 0.04203 0.4262 0.32199 0.0
H2000 H 0.29001 0.21542 0.05253 0.0
H2001 H 0.22685 0.22301 0.08083 0.0
H2002 H 0.24164 0.31157 0.08131 0.0
H2003 H 0.26404 0.38825 0.07312 0.0
H2004 H 0.33846 0.38131 0.04592 0.0
H2005 H 0.32598 0.29174 0.04544 0.0
C2006 C 0.2805 0.23627 0.05888 0.0
C2007 C 0.25689 0.21224 0.06659 0.0
C2008 C 0.28972 0.28769 0.05921 0.0
C2009 C 0.24513 0.24005 0.07478 0.0
C2010 C 0.25313 0.29104 0.07505 0.0
C2011 C 0.27889 0.36725 0.06719 0.0
C2012 C 0.30122 0.39206 0.05948 0.0
C2013 C 0.27417 0.31544 0.06721 0.0
C2014 C 0.31935 0.36374 0.05181 0.0
C2015 C 0.31289 0.31227 0.05159 0.0
H2016 H 0.37289 0.59376 0.80307 0.0
H2017 H 0.33441 0.50112 0.82705 0.0
H2018 H 0.42173 0.48619 0.83027 0.0
H2019 H 0.50874 0.49475 0.82575 0.0
H2020 H 0.54808 0.57721 0.80053 0.0
H2021 H 0.46108 0.60098 0.7983 0.0
C2022 C 0.38361 0.56997 0.80894 0.0
C2023 C 0.3469 0.54913 0.81488 0.0
C2024 C 0.43421 0.56003 0.81056 0.0
C2025 C 0.36168 0.5187 0.8225 0.0
C2026 C 0.41171 0.50985 0.82432 0.0
C2027 C 0.49849 0.51903 0.81991 0.0
C2028 C 0.53498 0.53521 0.81344 0.0
C2029 C 0.44828 0.53011 0.81839 0.0
C2030 C 0.52079 0.56507 0.8057 0.0
C2031 C 0.471 0.57821 0.80438 0.0
H2032 H 0.21666 0.77558 0.55245 0.0
H2033 H 0.25322 0.78253 0.58245 0.0
H2034 H 0.23941 0.69435 0.58402 0.0
H2035 H 0.22806 0.61368 0.57654 0.0
H2036 H 0.17775 0.60623 0.54737 0.0
H2037 H 0.18786 0.69543 0.54576 0.0
C2038 C 0.22033 0.75811 0.55939 0.0
C2039 C 0.23712 0.78604 0.56724 0.0
C2040 C 0.21162 0.70677 0.56034 0.0
C2041 C 0.24105 0.7624 0.5762 0.0
C2042 C 0.23349 0.71159 0.57712 0.0
C2043 C 0.21762 0.63128 0.5699 0.0
C2044 C 0.20363 0.60229 0.56202 0.0
C2045 C 0.22047 0.68313 0.56918 0.0
C2046 C 0.19117 0.6267 0.55345 0.0
C2047 C 0.19605 0.67814 0.55256 0.0
H2048 H 0.13134 0.59691 0.18783 0.0
H2049 H 0.15809 0.51578 0.16185 0.0
H2050 H 0.06942 0.50172 0.15996 0.0
H2051 H 0.98545 0.5068 0.16625 0.0
H2052 H 0.95804 0.58074 0.19303 0.0
H2053 H 0.04562 0.60377 0.194 0.0
C2054 C 0.1177 0.57594 0.18179 0.0
C2055 C 0.15133 0.5575 0.17497 0.0
C2056 C 0.06652 0.56698 0.18087 0.0
C2057 C 0.13302 0.531 0.16712 0.0
C2058 C 0.0823 0.52276 0.16606 0.0
C2059 C 0.99816 0.52892 0.17222 0.0
C2060 C 0.96486 0.5422 0.17954 0.0
C2061 C 0.04879 0.54011 0.17294 0.0
C2062 C 0.98262 0.57024 0.18727 0.0
C2063 C 0.03283 0.58303 0.18787 0.0
H2064 H 0.23942 0.40103 0.91772 0.0
H2065 H 0.15075 0.40291 0.94332 0.0
H2066 H 0.16248 0.31379 0.94519 0.0
H2067 H 0.20218 0.23534 0.93989 0.0
H2068 H 0.2789 0.23365 0.91283 0.0
H2069 H 0.26506 0.3218 0.91096 0.0
C2070 C 0.2213 0.38202 0.92357 0.0
C2071 C 0.19534 0.40932 0.93049 0.0
C2072 C 0.2256 0.33031 0.9243 0.0
C2073 C 0.17283 0.3835 0.93808 0.0
C2074 C 0.17889 0.33224 0.93909 0.0
C2075 C 0.21486 0.25409 0.93349 0.0
C2076 C 0.2419 0.2276 0.92657 0.0
C2077 C 0.20593 0.30525 0.93231 0.0
C2078 C 0.25779 0.25264 0.91829 0.0
C2079 C 0.25035 0.3034 0.91722 0.0
H2080 H 0.50241 0.51577 0.69185 0.0
H2081 H 0.54024 0.42603 0.66748 0.0
H2082 H 0.45321 0.40085 0.6659 0.0
H2083 H 0.36518 0.40847 0.67101 0.0
H2084 H 0.32891 0.50726 0.69415 0.0
H2085 H 0.41642 0.52459 0.69668 0.0
C2086 C 0.492 0.48978 0.68631 0.0
C2087 C 0.52805 0.4721 0.6799 0.0
C2088 C 0.44186 0.47766 0.68515 0.0
C2089 C 0.51337 0.43966 0.67259 0.0
C2090 C 0.46355 0.42562 0.67164 0.0
C2091 C 0.37655 0.43415 0.67653 0.0
C2092 C 0.34052 0.4564 0.68242 0.0
C2093 C 0.42724 0.44524 0.67776 0.0
C2094 C 0.35586 0.48912 0.68962 0.0
C2095 C 0.40592 0.49917 0.69105 0.0
H2096 H 0.30642 0.76154 0.42249 0.0
H2097 H 0.22993 0.7544 0.44953 0.0
H2098 H 0.24164 0.66525 0.45005 0.0
H2099 H 0.26576 0.58839 0.4421 0.0
H2100 H 0.35408 0.59499 0.41647 0.0
H2101 H 0.34347 0.68473 0.41589 0.0
C2102 C 0.2934 0.7406 0.4286 0.0
C2103 C 0.26711 0.76489 0.43592 0.0
C2104 C 0.30087 0.68896 0.42896 0.0
C2105 C 0.25061 0.73707 0.44381 0.0
C2106 C 0.25673 0.6858 0.44407 0.0
C2107 C 0.28403 0.60934 0.43652 0.0
C2108 C 0.31009 0.58441 0.42927 0.0
C2109 C 0.28067 0.66124 0.43658 0.0
C2110 C 0.3323 0.61264 0.42199 0.0
C2111 C 0.32695 0.66421 0.42172 0.0
H2112 H 0.18481 0.15914 0.11177 0.0
H2113 H 0.15851 0.0082 0.10306 0.0
H2114 H 0.1476 0.98355 0.11967 0.0
H2115 H 0.14326 0.0052 0.13668 0.0
H2116 H 0.17103 0.15598 0.14534 0.0
H2117 H 0.18365 0.18011 0.12877 0.0
C2118 C 0.17683 0.12083 0.1135 0.0
C2119 C 0.17222 0.08572 0.10618 0.0
C2120 C 0.17071 0.10679 0.12308 0.0
C2121 C 0.16219 0.03611 0.10856 0.0
C2122 C 0.15585 0.02192 0.11806 0.0
C2123 C 0.15213 0.0433 0.13494 0.0
C2124 C 0.1559 0.07869 0.14224 0.0
C2125 C 0.15963 0.05702 0.12538 0.0
C2126 C 0.16784 0.12789 0.13987 0.0
C2127 C 0.17503 0.14183 0.13039 0.0
H2128 H 0.17184 0.85065 0.35716 0.0
H2129 H 0.19933 0.00648 0.36145 0.0
H2130 H 0.20679 0.9928 0.37861 0.0
H2131 H 0.20303 0.93721 0.39242 0.0
H2132 H 0.17417 0.7816 0.38819 0.0
H2133 H 0.16996 0.79469 0.37096 0.0
C2134 C 0.17965 0.88165 0.36184 0.0
C2135 C 0.18482 0.92958 0.35801 0.0
C2136 C 0.18358 0.8736 0.37171 0.0
C2137 C 0.19501 0.96924 0.36419 0.0
C2138 C 0.19928 0.96146 0.37401 0.0
C2139 C 0.19602 0.90605 0.38774 0.0
C2140 C 0.18878 0.85849 0.39161 0.0
C2141 C 0.19325 0.91388 0.37785 0.0
C2142 C 0.17978 0.8186 0.38542 0.0
C2143 C 0.17732 0.82606 0.37556 0.0
H2144 H 0.34968 0.88301 0.60774 0.0
H2145 H 0.24221 0.99961 0.60422 0.0
H2146 H 0.24961 0.02097 0.62113 0.0
H2147 H 0.28742 0.00655 0.63695 0.0
H2148 H 0.3896 0.88543 0.64056 0.0
H2149 H 0.38393 0.86588 0.62358 0.0
C2150 C 0.32784 0.91302 0.6107 0.0
C2151 C 0.29564 0.93983 0.60479 0.0
C2152 C 0.33162 0.92442 0.62042 0.0
C2153 C 0.26706 0.97827 0.60868 0.0
C2154 C 0.27148 0.99067 0.61832 0.0
C2155 C 0.30857 0.97615 0.63396 0.0
C2156 C 0.33925 0.94773 0.63989 0.0
C2157 C 0.30383 0.96412 0.62425 0.0
C2158 C 0.36583 0.90777 0.63606 0.0
C2159 C 0.36259 0.89659 0.62638 0.0
H2160 H 0.27233 0.13602 0.88339 0.0
H2161 H 0.36708 0.01962 0.89398 0.0
H2162 H 0.3886 0.99641 0.87768 0.0
H2163 H 0.38338 0.01153 0.86043 0.0
H2164 H 0.2892 0.12873 0.84994 0.0
H2165 H 0.26462 0.14902 0.86618 0.0
C2166 C 0.29744 0.10537 0.88214 0.0
C2167 C 0.31829 0.07988 0.88989 0.0
C2168 C 0.31 0.09244 0.87276 0.0
C2169 C 0.35071 0.04015 0.88814 0.0
C2170 C 0.36308 0.0268 0.87882 0.0
C2171 C 0.3573 0.04132 0.86169 0.0
C2172 C 0.33853 0.06875 0.85398 0.0
C2173 C 0.34342 0.05309 0.87108 0.0
C2174 C 0.30459 0.10719 0.85575 0.0
C2175 C 0.29041 0.11886 0.86504 0.0
H2176 H 0.81458 0.96961 0.89419 0.0
H2177 H 0.82404 0.8128 0.88858 0.0
H2178 H 0.83568 0.82933 0.87161 0.0
H2179 H 0.84516 0.888 0.8584 0.0
H2180 H 0.83702 0.04494 0.8639 0.0
H2181 H 0.82303 0.02856 0.88085 0.0
C2182 C 0.81887 0.93902 0.88925 0.0
C2183 C 0.81844 0.88999 0.89268 0.0
C2184 C 0.8261 0.94878 0.87947 0.0
C2185 C 0.82428 0.85089 0.88617 0.0
C2186 C 0.83102 0.86029 0.87645 0.0
C2187 C 0.84036 0.91872 0.86329 0.0
C2188 C 0.84235 0.96767 0.85985 0.0
C2189 C 0.8324 0.90906 0.87303 0.0
C2190 C 0.83584 0.00689 0.86632 0.0
C2191 C 0.82776 0.99756 0.87603 0.0
H2192 H 0.86531 0.06818 0.60878 0.0
H2193 H 0.7173 0.12004 0.61472 0.0
H2194 H 0.72955 0.10388 0.63172 0.0
H2195 H 0.78341 0.07798 0.64498 0.0
H2196 H 0.93215 0.02834 0.63898 0.0
H2197 H 0.91823 0.04036 0.62193 0.0
C2198 C 0.8356 0.07586 0.61378 0.0
C2199 C 0.79051 0.09556 0.61046 0.0
C2200 C 0.84301 0.06685 0.62355 0.0
C2201 C 0.75245 0.10506 0.61706 0.0
C2202 C 0.75942 0.09581 0.62679 0.0
C2203 C 0.81268 0.0694 0.63994 0.0
C2204 C 0.85884 0.05239 0.64328 0.0
C2205 C 0.80469 0.07709 0.63013 0.0
C2206 C 0.89634 0.04163 0.63663 0.0
C2207 C 0.88844 0.04855 0.62687 0.0
H2208 H 0.69784 0.15291 0.38855 0.0
H2209 H 0.69411 0.99954 0.39719 0.0
H2210 H 0.69136 0.97377 0.38053 0.0
H2211 H 0.68612 0.99498 0.3635 0.0
H2212 H 0.68937 0.14868 0.35501 0.0
H2213 H 0.69643 0.17391 0.37161 0.0
C2214 C 0.69664 0.11384 0.38679 0.0
C2215 C 0.69583 0.07829 0.39409 0.0
C2216 C 0.69484 0.09924 0.37722 0.0
C2217 C 0.6946 0.02775 0.3917 0.0
C2218 C 0.69297 0.01292 0.38217 0.0
C2219 C 0.6887 0.03394 0.36528 0.0
C2220 C 0.68677 0.0698 0.35804 0.0
C2221 C 0.69249 0.04838 0.37487 0.0
C2222 C 0.69035 0.12021 0.36046 0.0
C2223 C 0.6944 0.13478 0.36995 0.0
H2224 H 0.69235 0.91193 0.14408 0.0
H2225 H 0.55828 0.98948 0.13647 0.0
H2226 H 0.5742 0.9731 0.1196 0.0
H2227 H 0.6254 0.9356 0.10703 0.0
H2228 H 0.75942 0.85809 0.11468 0.0
H2229 H 0.74416 0.87567 0.13152 0.0
C2230 C 0.66661 0.92546 0.13875 0.0
C2231 C 0.62406 0.95186 0.14158 0.0
C2232 C 0.67588 0.91576 0.12906 0.0
C2233 C 0.59124 0.969 0.13453 0.0
C2234 C 0.6003 0.95961 0.12487 0.0
C2235 C 0.65129 0.92245 0.11237 0.0
C2236 C 0.69344 0.89535 0.10957 0.0
C2237 C 0.64234 0.93277 0.12205 0.0
C2238 C 0.7267 0.87898 0.11661 0.0
C2239 C 0.71798 0.88901 0.12625 0.0
H2240 H 0.67635 0.62833 0.60879 0.0
H2241 H 0.79894 0.52842 0.60457 0.0
H2242 H 0.78873 0.49655 0.6208 0.0
H2243 H 0.74291 0.49547 0.63611 0.0
H2244 H 0.62376 0.59929 0.64044 0.0
H2245 H 0.63421 0.63083 0.62424 0.0
C2246 C 0.70109 0.59986 0.61145 0.0
C2247 C 0.73821 0.58069 0.60549 0.0
C2248 C 0.69519 0.58197 0.62078 0.0
C2249 C 0.77026 0.54407 0.60905 0.0
C2250 C 0.76419 0.52552 0.6183 0.0
C2251 C 0.71916 0.52475 0.63344 0.0
C2252 C 0.68227 0.54469 0.63936 0.0
C2253 C 0.72637 0.54378 0.62419 0.0
C2254 C 0.6523 0.58333 0.63596 0.0
C2255 C 0.65829 0.60143 0.62671 0.0
H2256 H 0.64404 0.44068 0.8907 0.0
H2257 H 0.79439 0.39787 0.88427 0.0
H2258 H 0.77994 0.4142 0.86733 0.0
H2259 H 0.72363 0.43766 0.85428 0.0
H2260 H 0.57263 0.47792 0.86079 0.0
H2261 H 0.58854 0.46581 0.87777 0.0
C2262 C 0.6738 0.43505 0.88561 0.0
C2263 C 0.72021 0.41786 0.88877 0.0
C2264 C 0.66511 0.44404 0.87589 0.0
C2265 C 0.75826 0.41089 0.88205 0.0
C2266 C 0.75003 0.42024 0.87236 0.0
C2267 C 0.69429 0.44417 0.85942 0.0
C2268 C 0.64694 0.4586 0.85625 0.0
C2269 C 0.70347 0.43642 0.86918 0.0
C2270 C 0.60935 0.46666 0.86301 0.0
C2271 C 0.61839 0.4597 0.87273 0.0
H2272 H 0.75852 0.46991 0.10746 0.0
H2273 H 0.85996 0.34682 0.1065 0.0
H2274 H 0.87965 0.35864 0.1234 0.0
H2275 H 0.86826 0.40439 0.13842 0.0
H2276 H 0.77127 0.5312 0.13903 0.0
H2277 H 0.7499 0.51784 0.12229 0.0
C2278 C 0.78462 0.44548 0.11099 0.0
C2279 C 0.80734 0.4072 0.10581 0.0
C2280 C 0.79685 0.45345 0.12061 0.0
C2281 C 0.84191 0.37644 0.11038 0.0
C2282 C 0.85319 0.38321 0.12002 0.0
C2283 C 0.84253 0.42913 0.13488 0.0
C2284 C 0.82133 0.46866 0.13996 0.0
C2285 C 0.831 0.42169 0.1252 0.0
C2286 C 0.78837 0.50068 0.13526 0.0
C2287 C 0.77591 0.49292 0.1257 0.0
H2288 H 0.82327 0.59656 0.35622 0.0
H2289 H 0.87167 0.44691 0.36163 0.0
H2290 H 0.86383 0.46063 0.37882 0.0
H2291 H 0.84604 0.51623 0.39235 0.0
H2292 H 0.80003 0.66651 0.38674 0.0
H2293 H 0.80405 0.65126 0.36962 0.0
C2294 C 0.83189 0.56677 0.36114 0.0
C2295 C 0.84816 0.52079 0.35762 0.0
C2296 C 0.82788 0.57507 0.371 0.0
C2297 C 0.85918 0.48272 0.36413 0.0
C2298 C 0.85474 0.49054 0.37397 0.0
C2299 C 0.83662 0.54555 0.38738 0.0
C2300 C 0.82289 0.59251 0.39085 0.0
C2301 C 0.83955 0.53673 0.37749 0.0
C2302 C 0.81094 0.63009 0.38429 0.0
C2303 C 0.8132 0.62142 0.37448 0.0
H2304 H 0.41634 0.44851 0.35867 0.0
H2305 H 0.27505 0.39701 0.34826 0.0
H2306 H 0.24804 0.38041 0.36456 0.0
H2307 H 0.26506 0.37848 0.38179 0.0
H2308 H 0.40608 0.4308 0.39219 0.0
H2309 H 0.43236 0.44907 0.37592 0.0
C2310 C 0.37958 0.43382 0.35996 0.0
C2311 C 0.34796 0.42386 0.35222 0.0
C2312 C 0.36415 0.42431 0.36937 0.0
C2313 C 0.3003 0.40502 0.35406 0.0
C2314 C 0.28477 0.39539 0.36339 0.0
C2315 C 0.30151 0.39393 0.38051 0.0
C2316 C 0.33356 0.40291 0.38823 0.0
C2317 C 0.31649 0.40455 0.37111 0.0
C2318 C 0.38061 0.42325 0.38641 0.0
C2319 C 0.39575 0.43378 0.37709 0.0
H2320 H 0.32853 0.51153 0.13223 0.0
H2321 H 0.34911 0.66503 0.13981 0.0
H2322 H 0.34651 0.68848 0.12304 0.0
H2323 H 0.33919 0.66565 0.10619 0.0
H2324 H 0.31779 0.51239 0.09855 0.0
H2325 H 0.31981 0.48882 0.11534 0.0
C2326 C 0.33246 0.55009 0.13021 0.0
C2327 C 0.33914 0.58635 0.13727 0.0
C2328 C 0.33076 0.56349 0.12053 0.0
C2329 C 0.34393 0.63624 0.13453 0.0
C2330 C 0.34248 0.64978 0.12493 0.0
C2331 C 0.3349 0.62711 0.1082 0.0
C2332 C 0.32845 0.59093 0.10112 0.0
C2333 C 0.33602 0.61373 0.11787 0.0
C2334 C 0.3228 0.54111 0.10385 0.0
C2335 C 0.324 0.52751 0.11346 0.0
H2336 H 0.18668 0.50487 0.8568 0.0
H2337 H 0.11852 0.64214 0.84804 0.0
H2338 H 0.11997 0.67184 0.86443 0.0
H2339 H 0.14065 0.65942 0.88121 0.0
H2340 H 0.20994 0.5231 0.89014 0.0
H2341 H 0.20824 0.49273 0.87374 0.0
C2342 C 0.1719 0.54112 0.8585 0.0
C2343 C 0.15246 0.57112 0.85121 0.0
C2344 C 0.1733 0.55837 0.86796 0.0
C2345 C 0.13384 0.61826 0.85351 0.0
C2346 C 0.13464 0.63537 0.86288 0.0
C2347 C 0.15552 0.62312 0.87958 0.0
C2348 C 0.17536 0.59366 0.8869 0.0
C2349 C 0.15442 0.60586 0.87015 0.0
C2350 C 0.19454 0.54668 0.88464 0.0
C2351 C 0.19345 0.52917 0.87526 0.0
H2352 H 0.22224 0.52325 0.63555 0.0
H2353 H 0.12983 0.39421 0.63898 0.0
H2354 H 0.13849 0.37505 0.62206 0.0
H2355 H 0.17203 0.39473 0.60628 0.0
H2356 H 0.26856 0.5206 0.6028 0.0
H2357 H 0.25896 0.54105 0.61972 0.0
C2358 C 0.20391 0.49112 0.63255 0.0
C2359 C 0.17521 0.46037 0.63847 0.0
C2360 C 0.21 0.47959 0.62283 0.0
C2361 C 0.15221 0.41839 0.63456 0.0
C2362 C 0.15708 0.40741 0.62488 0.0
C2363 C 0.19101 0.42662 0.60923 0.0
C2364 C 0.22079 0.45619 0.60331 0.0
C2365 C 0.18588 0.43769 0.61896 0.0
C2366 C 0.24559 0.4971 0.60724 0.0
C2367 C 0.23994 0.50894 0.6169 0.0
loop_
_geom_bond_atom_site_label_1
_geom_bond_atom_site_label_2
_geom_bond_distance
_geom_bond_site_symmetry_2
_ccdc_geom_bond_type
Co0 O3 1.970 . S
Co0 N17 1.989 . S
Co0 O25 1.967 . S
Co0 O32 1.920 . S
Co1 O4 1.966 . S
Co1 N10 2.022 . S
Co1 N18 1.993 . S
Co1 O26 1.941 . S
C2 O3 1.258 . S
C2 O4 1.263 . S
O3 Co0 1.970 . S
O3 C2 1.258 . S
O4 Co1 1.966 . S
O4 C2 1.263 . S
C5 O6 1.235 . S
C5 O32 1.289 . S
O6 C5 1.235 . S
C7 C9 1.400 . S
C7 N10 1.351 . S
C7 C12 1.501 1_545 S
C8 C9 1.387 . S
C8 N11 1.341 . S
C9 C7 1.400 . S
C9 C8 1.387 . S
N10 Co1 2.022 . S
N10 C7 1.351 . S
N10 N11 1.365 . S
N11 C8 1.341 . S
N11 N10 1.365 . S
N11 H31 0.862 . S
C12 C7 1.501 1_565 S
C12 H13 0.961 . S
C12 H14 0.961 . S
C12 H15 0.960 . S
H13 C12 0.961 . S
H14 C12 0.961 . S
H15 C12 0.960 . S
C16 N17 1.342 . S
C16 C20 1.401 . S
C16 C21 1.499 . S
N17 Co0 1.989 . S
N17 C16 1.342 . S
N17 N18 1.388 . S
N18 Co1 1.993 . S
N18 N17 1.388 . S
N18 C19 1.346 . S
C19 N18 1.346 . S
C19 C20 1.396 . S
C19 C29 1.510 . S
C20 C16 1.401 . S
C20 C19 1.396 . S
C21 C16 1.499 . S
C21 H22 0.959 . S
C21 H23 0.960 . S
C21 H24 0.961 . S
H22 C21 0.959 . S
H23 C21 0.960 . S
H24 C21 0.961 . S
O25 Co0 1.967 . S
O25 C33 1.258 . S
O26 Co1 1.941 . S
O26 C33 1.266 . S
H27 C29 0.959 . S
H28 C29 0.961 1_565 S
C29 C19 1.510 . S
C29 H27 0.959 . S
C29 H28 0.961 1_545 S
C29 H30 0.960 . S
H30 C29 0.960 . S
H31 N11 0.862 . S
O32 Co0 1.920 . S
O32 C5 1.289 . S
C33 O25 1.258 . S
C33 O26 1.266 . S
Co34 O37 1.970 . S
Co34 N51 1.989 . S
Co34 O59 1.967 . S
Co34 O66 1.920 . S
Co35 O38 1.966 . S
Co35 N44 2.022 . S
Co35 N52 1.993 . S
Co35 O60 1.941 . S
C36 O37 1.258 . S
C36 O38 1.263 . S
O37 Co34 1.970 . S
O37 C36 1.258 . S
O38 Co35 1.966 . S
O38 C36 1.263 . S
C39 O40 1.235 . S
C39 O66 1.289 . S
O40 C39 1.235 . S
C41 C43 1.400 . S
C41 N44 1.351 . S
C41 C46 1.501 . S
C42 C43 1.387 . S
C42 N45 1.341 . S
C43 C41 1.400 . S
C43 C42 1.387 . S
N44 Co35 2.022 . S
N44 C41 1.351 . S
N44 N45 1.365 . S
N45 C42 1.341 . S
N45 N44 1.365 . S
N45 H65 0.862 . S
C46 C41 1.501 . S
C46 H47 0.961 . S
C46 H48 0.961 . S
C46 H49 0.960 . S
H47 C46 0.961 . S
H48 C46 0.961 . S
H49 C46 0.960 . S
C50 N51 1.342 . S
C50 C54 1.401 . S
C50 C55 1.499 . S
N51 Co34 1.989 . S
N51 C50 1.342 . S
N51 N52 1.388 . S
N52 Co35 1.993 . S
N52 N51 1.388 . S
N52 C53 1.346 . S
C53 N52 1.346 . S
C53 C54 1.396 . S
C53 C63 1.510 . S
C54 C50 1.401 . S
C54 C53 1.396 . S
C55 C50 1.499 . S
C55 H56 0.959 . S
C55 H57 0.960 . S
C55 H58 0.961 1_565 S
H56 C55 0.959 . S
H57 C55 0.960 . S
H58 C55 0.961 1_545 S
O59 Co34 1.967 . S
O59 C67 1.258 . S
O60 Co35 1.941 . S
O60 C67 1.266 . S
H61 C63 0.959 . S
H62 C63 0.961 . S
C63 C53 1.510 . S
C63 H61 0.959 . S
C63 H62 0.961 . S
C63 H64 0.960 . S
H64 C63 0.960 . S
H65 N45 0.862 . S
O66 Co34 1.920 . S
O66 C39 1.289 . S
C67 O59 1.258 . S
C67 O60 1.266 . S
Co68 O71 1.970 . S
Co68 N85 1.989 . S
Co68 O93 1.967 . S
Co68 O100 1.920 . S
Co69 O72 1.966 . S
Co69 N78 2.022 . S
Co69 N86 1.993 . S
Co69 O94 1.941 . S
C70 O71 1.258 . S
C70 O72 1.263 . S
O71 Co68 1.970 . S
O71 C70 1.258 . S
O72 Co69 1.966 . S
O72 C70 1.263 . S
C73 O74 1.235 . S
C73 O100 1.289 . S
O74 C73 1.235 . S
C75 C77 1.400 . S
C75 N78 1.351 . S
C75 C80 1.501 1_565 S
C76 C77 1.387 . S
C76 N79 1.341 . S
C77 C75 1.400 . S
C77 C76 1.387 . S
N78 Co69 2.022 . S
N78 C75 1.351 . S
N78 N79 1.365 . S
N79 C76 1.341 . S
N79 N78 1.365 . S
N79 H99 0.862 . S
C80 C75 1.501 1_545 S
C80 H81 0.961 . S
C80 H82 0.961 . S
C80 H83 0.960 . S
H81 C80 0.961 . S
H82 C80 0.961 . S
H83 C80 0.960 . S
C84 N85 1.342 . S
C84 C88 1.401 . S
C84 C89 1.499 . S
N85 Co68 1.989 . S
N85 C84 1.342 . S
N85 N86 1.388 . S
N86 Co69 1.993 . S
N86 N85 1.388 . S
N86 C87 1.346 . S
C87 N86 1.346 . S
C87 C88 1.396 . S
C87 C97 1.510 . S
C88 C84 1.401 . S
C88 C87 1.396 . S
C89 C84 1.499 . S
C89 H90 0.959 . S
C89 H91 0.960 . S
C89 H92 0.961 . S
H90 C89 0.959 . S
H91 C89 0.960 . S
H92 C89 0.961 . S
O93 Co68 1.967 . S
O93 C101 1.258 . S
O94 Co69 1.941 . S
O94 C101 1.266 . S
H95 C97 0.959 . S
H96 C97 0.961 1_545 S
C97 C87 1.510 . S
C97 H95 0.959 . S
C97 H96 0.961 1_565 S
C97 H98 0.960 . S
H98 C97 0.960 . S
H99 N79 0.862 . S
O100 Co68 1.920 . S
O100 C73 1.289 . S
C101 O93 1.258 . S
C101 O94 1.266 . S
Co102 O105 1.970 . S
Co102 N119 1.989 . S
Co102 O127 1.967 . S
Co102 O134 1.920 . S
Co103 O106 1.966 . S
Co103 N112 2.022 . S
Co103 N120 1.993 . S
Co103 O128 1.941 . S
C104 O105 1.258 . S
C104 O106 1.263 . S
O105 Co102 1.970 . S
O105 C104 1.258 . S
O106 Co103 1.966 . S
O106 C104 1.263 . S
C107 O108 1.235 . S
C107 O134 1.289 . S
O108 C107 1.235 . S
C109 C111 1.400 . S
C109 N112 1.351 . S
C109 C114 1.501 . S
C110 C111 1.387 . S
C110 N113 1.341 . S
C111 C109 1.400 . S
C111 C110 1.387 . S
N112 Co103 2.022 . S
N112 C109 1.351 . S
N112 N113 1.365 . S
N113 C110 1.341 . S
N113 N112 1.365 . S
N113 H133 0.862 . S
C114 C109 1.501 . S
C114 H115 0.961 . S
C114 H116 0.961 . S
C114 H117 0.960 . S
H115 C114 0.961 . S
H116 C114 0.961 . S
H117 C114 0.960 . S
C118 N119 1.342 . S
C118 C122 1.401 . S
C118 C123 1.499 . S
N119 Co102 1.989 . S
N119 C118 1.342 . S
N119 N120 1.388 . S
N120 Co103 1.993 . S
N120 N119 1.388 . S
N120 C121 1.346 . S
C121 N120 1.346 . S
C121 C122 1.396 . S
C121 C131 1.510 . S
C122 C118 1.401 . S
C122 C121 1.396 . S
C123 C118 1.499 . S
C123 H124 0.959 . S
C123 H125 0.960 . S
C123 H126 0.961 1_545 S
H124 C123 0.959 . S
H125 C123 0.960 . S
H126 C123 0.961 1_565 S
O127 Co102 1.967 . S
O127 C135 1.258 . S
O128 Co103 1.941 . S
O128 C135 1.266 . S
H129 C131 0.959 . S
H130 C131 0.961 . S
C131 C121 1.510 . S
C131 H129 0.959 . S
C131 H130 0.961 . S
C131 H132 0.960 . S
H132 C131 0.960 . S
H133 N113 0.862 . S
O134 Co102 1.920 . S
O134 C107 1.289 . S
C135 O127 1.258 . S
C135 O128 1.266 . S
Co136 O139 1.970 . S
Co136 N153 1.989 . S
Co136 O161 1.967 . S
Co136 O168 1.920 . S
Co137 O140 1.966 . S
Co137 N146 2.022 . S
Co137 N154 1.993 . S
Co137 O162 1.941 . S
C138 O139 1.258 . S
C138 O140 1.263 . S
O139 Co136 1.970 . S
O139 C138 1.258 . S
O140 Co137 1.966 . S
O140 C138 1.263 . S
C141 O142 1.235 . S
C141 O168 1.289 . S
O142 C141 1.235 . S
C143 C145 1.400 . S
C143 N146 1.351 . S
C143 C148 1.501 1_565 S
C144 C145 1.387 . S
C144 N147 1.341 . S
C145 C143 1.400 . S
C145 C144 1.387 . S
N146 Co137 2.022 . S
N146 C143 1.351 . S
N146 N147 1.365 . S
N147 C144 1.341 . S
N147 N146 1.365 . S
N147 H167 0.862 . S
C148 C143 1.501 1_545 S
C148 H149 0.961 . S
C148 H150 0.961 . S
C148 H151 0.960 . S
H149 C148 0.961 . S
H150 C148 0.961 . S
H151 C148 0.960 . S
C152 N153 1.342 . S
C152 C156 1.401 . S
C152 C157 1.499 . S
N153 Co136 1.989 . S
N153 C152 1.342 . S
N153 N154 1.388 . S
N154 Co137 1.993 . S
N154 N153 1.388 . S
N154 C155 1.346 . S
C155 N154 1.346 . S
C155 C156 1.396 . S
C155 C165 1.510 . S
C156 C152 1.401 . S
C156 C155 1.396 . S
C157 C152 1.499 . S
C157 H158 0.959 . S
C157 H159 0.960 . S
C157 H160 0.961 . S
H158 C157 0.959 . S
H159 C157 0.960 . S
H160 C157 0.961 . S
O161 Co136 1.967 . S
O161 C169 1.258 . S
O162 Co137 1.941 . S
O162 C169 1.266 . S
H163 C165 0.959 . S
H164 C165 0.961 1_545 S
C165 C155 1.510 . S
C165 H163 0.959 . S
C165 H164 0.961 1_565 S
C165 H166 0.960 . S
H166 C165 0.960 . S
H167 N147 0.862 . S
O168 Co136 1.920 . S
O168 C141 1.289 . S
C169 O161 1.258 . S
C169 O162 1.266 . S
Co170 O173 1.970 . S
Co170 N187 1.989 . S
Co170 O195 1.967 . S
Co170 O202 1.920 . S
Co171 O174 1.966 . S
Co171 N180 2.022 . S
Co171 N188 1.993 . S
Co171 O196 1.941 . S
C172 O173 1.258 . S
C172 O174 1.263 . S
O173 Co170 1.970 . S
O173 C172 1.258 . S
O174 Co171 1.966 . S
O174 C172 1.263 . S
C175 O176 1.235 . S
C175 O202 1.289 . S
O176 C175 1.235 . S
C177 C179 1.400 . S
C177 N180 1.351 . S
C177 C182 1.501 . S
C178 C179 1.387 . S
C178 N181 1.341 . S
C179 C177 1.400 . S
C179 C178 1.387 . S
N180 Co171 2.022 . S
N180 C177 1.351 . S
N180 N181 1.365 . S
N181 C178 1.341 . S
N181 N180 1.365 . S
N181 H201 0.862 . S
C182 C177 1.501 . S
C182 H183 0.961 . S
C182 H184 0.961 . S
C182 H185 0.960 . S
H183 C182 0.961 . S
H184 C182 0.961 . S
H185 C182 0.960 . S
C186 N187 1.342 . S
C186 C190 1.401 . S
C186 C191 1.499 . S
N187 Co170 1.989 . S
N187 C186 1.342 . S
N187 N188 1.388 . S
N188 Co171 1.993 . S
N188 N187 1.388 . S
N188 C189 1.346 . S
C189 N188 1.346 . S
C189 C190 1.396 . S
C189 C199 1.510 . S
C190 C186 1.401 . S
C190 C189 1.396 . S
C191 C186 1.499 . S
C191 H192 0.959 . S
C191 H193 0.960 . S
C191 H194 0.961 1_565 S
H192 C191 0.959 . S
H193 C191 0.960 . S
H194 C191 0.961 1_545 S
O195 Co170 1.967 . S
O195 C203 1.258 . S
O196 Co171 1.941 . S
O196 C203 1.266 . S
H197 C199 0.959 . S
H198 C199 0.961 . S
C199 C189 1.510 . S
C199 H197 0.959 . S
C199 H198 0.961 . S
C199 H200 0.960 . S
H200 C199 0.960 . S
H201 N181 0.862 . S
O202 Co170 1.920 . S
O202 C175 1.289 . S
C203 O195 1.258 . S
C203 O196 1.266 . S
Co204 O207 1.970 . S
Co204 N221 1.989 . S
Co204 O229 1.967 . S
Co204 O236 1.920 . S
Co205 O208 1.966 . S
Co205 N214 2.022 . S
Co205 N222 1.993 . S
Co205 O230 1.941 . S
C206 O207 1.258 . S
C206 O208 1.263 . S
O207 Co204 1.970 . S
O207 C206 1.258 . S
O208 Co205 1.966 . S
O208 C206 1.263 . S
C209 O210 1.235 . S
C209 O236 1.289 . S
O210 C209 1.235 . S
C211 C213 1.400 . S
C211 N214 1.351 . S
C211 C216 1.501 1_545 S
C212 C213 1.387 . S
C212 N215 1.341 . S
C213 C211 1.400 . S
C213 C212 1.387 . S
N214 Co205 2.022 . S
N214 C211 1.351 . S
N214 N215 1.365 . S
N215 C212 1.341 . S
N215 N214 1.365 . S
N215 H235 0.862 . S
C216 C211 1.501 1_565 S
C216 H217 0.961 . S
C216 H218 0.961 . S
C216 H219 0.960 . S
H217 C216 0.961 . S
H218 C216 0.961 . S
H219 C216 0.960 . S
C220 N221 1.342 . S
C220 C224 1.401 . S
C220 C225 1.499 . S
N221 Co204 1.989 . S
N221 C220 1.342 . S
N221 N222 1.388 . S
N222 Co205 1.993 . S
N222 N221 1.388 . S
N222 C223 1.346 . S
C223 N222 1.346 . S
C223 C224 1.396 . S
C223 C233 1.510 . S
C224 C220 1.401 . S
C224 C223 1.396 . S
C225 C220 1.499 . S
C225 H226 0.959 . S
C225 H227 0.960 . S
C225 H228 0.961 . S
H226 C225 0.959 . S
H227 C225 0.960 . S
H228 C225 0.961 . S
O229 Co204 1.967 . S
O229 C237 1.258 . S
O230 Co205 1.941 . S
O230 C237 1.266 . S
H231 C233 0.959 . S
H232 C233 0.961 1_565 S
C233 C223 1.510 . S
C233 H231 0.959 . S
C233 H232 0.961 1_545 S
C233 H234 0.960 . S
H234 C233 0.960 . S
H235 N215 0.862 . S
O236 Co204 1.920 . S
O236 C209 1.289 . S
C237 O229 1.258 . S
C237 O230 1.266 . S
Co238 O241 1.970 . S
Co238 N255 1.989 . S
Co238 O263 1.967 . S
Co238 O270 1.920 . S
Co239 O242 1.966 . S
Co239 N248 2.022 . S
Co239 N256 1.993 . S
Co239 O264 1.941 . S
C240 O241 1.258 . S
C240 O242 1.263 . S
O241 Co238 1.970 . S
O241 C240 1.258 . S
O242 Co239 1.966 . S
O242 C240 1.263 . S
C243 O244 1.235 . S
C243 O270 1.289 . S
O244 C243 1.235 . S
C245 C247 1.400 . S
C245 N248 1.351 . S
C245 C250 1.501 . S
C246 C247 1.387 . S
C246 N249 1.341 . S
C247 C245 1.400 . S
C247 C246 1.387 . S
N248 Co239 2.022 . S
N248 C245 1.351 . S
N248 N249 1.365 . S
N249 C246 1.341 . S
N249 N248 1.365 . S
N249 H269 0.862 . S
C250 C245 1.501 . S
C250 H251 0.961 . S
C250 H252 0.961 . S
C250 H253 0.960 . S
H251 C250 0.961 . S
H252 C250 0.961 . S
H253 C250 0.960 . S
C254 N255 1.342 . S
C254 C258 1.401 . S
C254 C259 1.499 . S
N255 Co238 1.989 . S
N255 C254 1.342 . S
N255 N256 1.388 . S
N256 Co239 1.993 . S
N256 N255 1.388 . S
N256 C257 1.346 . S
C257 N256 1.346 . S
C257 C258 1.396 . S
C257 C267 1.510 . S
C258 C254 1.401 . S
C258 C257 1.396 . S
C259 C254 1.499 . S
C259 H260 0.959 . S
C259 H261 0.960 . S
C259 H262 0.961 1_545 S
H260 C259 0.959 . S
H261 C259 0.960 . S
H262 C259 0.961 1_565 S
O263 Co238 1.967 . S
O263 C271 1.258 . S
O264 Co239 1.941 . S
O264 C271 1.266 . S
H265 C267 0.959 . S
H266 C267 0.961 . S
C267 C257 1.510 . S
C267 H265 0.959 . S
C267 H266 0.961 . S
C267 H268 0.960 . S
H268 C267 0.960 . S
H269 N249 0.862 . S
O270 Co238 1.920 . S
O270 C243 1.289 . S
C271 O263 1.258 . S
C271 O264 1.266 . S
Co272 O275 1.970 . S
Co272 N289 1.989 . S
Co272 O297 1.967 . S
Co272 O304 1.920 . S
Co273 O276 1.966 . S
Co273 N282 2.022 . S
Co273 N290 1.993 . S
Co273 O298 1.941 . S
C274 O275 1.258 . S
C274 O276 1.263 . S
O275 Co272 1.970 . S
O275 C274 1.258 . S
O276 Co273 1.966 . S
O276 C274 1.263 . S
C277 O278 1.235 . S
C277 O304 1.289 . S
O278 C277 1.235 . S
C279 C281 1.400 . S
C279 N282 1.351 . S
C279 C284 1.501 1_565 S
C280 C281 1.387 . S
C280 N283 1.341 . S
C281 C279 1.400 . S
C281 C280 1.387 . S
N282 Co273 2.022 . S
N282 C279 1.351 . S
N282 N283 1.365 . S
N283 C280 1.341 . S
N283 N282 1.365 . S
N283 H303 0.862 . S
C284 C279 1.501 1_545 S
C284 H285 0.961 . S
C284 H286 0.961 . S
C284 H287 0.960 . S
H285 C284 0.961 . S
H286 C284 0.961 . S
H287 C284 0.960 . S
C288 N289 1.342 . S
C288 C292 1.401 . S
C288 C293 1.499 . S
N289 Co272 1.989 . S
N289 C288 1.342 . S
N289 N290 1.388 . S
N290 Co273 1.993 . S
N290 N289 1.388 . S
N290 C291 1.346 . S
C291 N290 1.346 . S
C291 C292 1.396 . S
C291 C301 1.510 . S
C292 C288 1.401 . S
C292 C291 1.396 . S
C293 C288 1.499 . S
C293 H294 0.959 . S
C293 H295 0.960 . S
C293 H296 0.961 . S
H294 C293 0.959 . S
H295 C293 0.960 . S
H296 C293 0.961 . S
O297 Co272 1.967 . S
O297 C305 1.258 . S
O298 Co273 1.941 . S
O298 C305 1.266 . S
H299 C301 0.959 . S
H300 C301 0.961 1_545 S
C301 C291 1.510 . S
C301 H299 0.959 . S
C301 H300 0.961 1_565 S
C301 H302 0.960 . S
H302 C301 0.960 . S
H303 N283 0.862 . S
O304 Co272 1.920 . S
O304 C277 1.289 . S
C305 O297 1.258 . S
C305 O298 1.266 . S
Co306 O309 1.970 . S
Co306 N323 1.989 . S
Co306 O331 1.967 . S
Co306 O338 1.920 . S
Co307 O310 1.966 . S
Co307 N316 2.022 . S
Co307 N324 1.993 . S
Co307 O332 1.941 . S
C308 O309 1.258 . S
C308 O310 1.263 . S
O309 Co306 1.970 . S
O309 C308 1.258 . S
O310 Co307 1.966 . S
O310 C308 1.263 . S
C311 O312 1.235 . S
C311 O338 1.289 . S
O312 C311 1.235 . S
C313 C315 1.400 . S
C313 N316 1.351 . S
C313 C318 1.501 . S
C314 C315 1.387 . S
C314 N317 1.341 . S
C315 C313 1.400 . S
C315 C314 1.387 . S
N316 Co307 2.022 . S
N316 C313 1.351 . S
N316 N317 1.365 . S
N317 C314 1.341 . S
N317 N316 1.365 . S
N317 H337 0.862 . S
C318 C313 1.501 . S
C318 H319 0.961 . S
C318 H320 0.961 . S
C318 H321 0.960 . S
H319 C318 0.961 . S
H320 C318 0.961 . S
H321 C318 0.960 . S
C322 N323 1.342 . S
C322 C326 1.401 . S
C322 C327 1.499 . S
N323 Co306 1.989 . S
N323 C322 1.342 . S
N323 N324 1.388 . S
N324 Co307 1.993 . S
N324 N323 1.388 . S
N324 C325 1.346 . S
C325 N324 1.346 . S
C325 C326 1.396 . S
C325 C335 1.510 . S
C326 C322 1.401 . S
C326 C325 1.396 . S
C327 C322 1.499 . S
C327 H328 0.959 . S
C327 H329 0.960 . S
C327 H330 0.961 1_545 S
H328 C327 0.959 . S
H329 C327 0.960 . S
H330 C327 0.961 1_565 S
O331 Co306 1.967 . S
O331 C339 1.258 . S
O332 Co307 1.941 . S
O332 C339 1.266 . S
H333 C335 0.959 . S
H334 C335 0.961 . S
C335 C325 1.510 . S
C335 H333 0.959 . S
C335 H334 0.961 . S
C335 H336 0.960 . S
H336 C335 0.960 . S
H337 N317 0.862 . S
O338 Co306 1.920 . S
O338 C311 1.289 . S
C339 O331 1.258 . S
C339 O332 1.266 . S
Co340 O343 1.970 . S
Co340 N357 1.989 . S
Co340 O365 1.967 . S
Co340 O372 1.920 . S
Co341 O344 1.966 . S
Co341 N350 2.022 . S
Co341 N358 1.993 . S
Co341 O366 1.941 . S
C342 O343 1.258 . S
C342 O344 1.263 . S
O343 Co340 1.970 . S
O343 C342 1.258 . S
O344 Co341 1.966 . S
O344 C342 1.263 . S
C345 O346 1.235 . S
C345 O372 1.289 . S
O346 C345 1.235 . S
C347 C349 1.400 . S
C347 N350 1.351 . S
C347 C352 1.501 1_545 S
C348 C349 1.387 . S
C348 N351 1.341 . S
C349 C347 1.400 . S
C349 C348 1.387 . S
N350 Co341 2.022 . S
N350 C347 1.351 . S
N350 N351 1.365 . S
N351 C348 1.341 . S
N351 N350 1.365 . S
N351 H371 0.862 . S
C352 C347 1.501 1_565 S
C352 H353 0.961 . S
C352 H354 0.961 . S
C352 H355 0.960 . S
H353 C352 0.961 . S
H354 C352 0.961 . S
H355 C352 0.960 . S
C356 N357 1.342 . S
C356 C360 1.401 . S
C356 C361 1.499 . S
N357 Co340 1.989 . S
N357 C356 1.342 . S
N357 N358 1.388 . S
N358 Co341 1.993 . S
N358 N357 1.388 . S
N358 C359 1.346 . S
C359 N358 1.346 . S
C359 C360 1.396 . S
C359 C369 1.510 . S
C360 C356 1.401 . S
C360 C359 1.396 . S
C361 C356 1.499 . S
C361 H362 0.959 . S
C361 H363 0.960 . S
C361 H364 0.961 . S
H362 C361 0.959 . S
H363 C361 0.960 . S
H364 C361 0.961 . S
O365 Co340 1.967 . S
O365 C373 1.258 . S
O366 Co341 1.941 . S
O366 C373 1.266 . S
H367 C369 0.959 . S
H368 C369 0.961 1_565 S
C369 C359 1.510 . S
C369 H367 0.959 . S
C369 H368 0.961 1_545 S
C369 H370 0.960 . S
H370 C369 0.960 . S
H371 N351 0.862 . S
O372 Co340 1.920 . S
O372 C345 1.289 . S
C373 O365 1.258 . S
C373 O366 1.266 . S
Co374 O377 1.970 . S
Co374 N391 1.989 . S
Co374 O399 1.967 . S
Co374 O406 1.920 . S
Co375 O378 1.966 . S
Co375 N384 2.022 . S
Co375 N392 1.993 . S
Co375 O400 1.941 . S
C376 O377 1.258 . S
C376 O378 1.263 . S
O377 Co374 1.970 . S
O377 C376 1.258 . S
O378 Co375 1.966 . S
O378 C376 1.263 . S
C379 O380 1.235 . S
C379 O406 1.289 . S
O380 C379 1.235 . S
C381 C383 1.400 . S
C381 N384 1.351 . S
C381 C386 1.501 . S
C382 C383 1.387 . S
C382 N385 1.341 . S
C383 C381 1.400 . S
C383 C382 1.387 . S
N384 Co375 2.022 . S
N384 C381 1.351 . S
N384 N385 1.365 . S
N385 C382 1.341 . S
N385 N384 1.365 . S
N385 H405 0.862 . S
C386 C381 1.501 . S
C386 H387 0.961 . S
C386 H388 0.961 . S
C386 H389 0.960 . S
H387 C386 0.961 . S
H388 C386 0.961 . S
H389 C386 0.960 . S
C390 N391 1.342 . S
C390 C394 1.401 . S
C390 C395 1.499 . S
N391 Co374 1.989 . S
N391 C390 1.342 . S
N391 N392 1.388 . S
N392 Co375 1.993 . S
N392 N391 1.388 . S
N392 C393 1.346 . S
C393 N392 1.346 . S
C393 C394 1.396 . S
C393 C403 1.510 . S
C394 C390 1.401 . S
C394 C393 1.396 . S
C395 C390 1.499 . S
C395 H396 0.959 . S
C395 H397 0.960 . S
C395 H398 0.961 1_565 S
H396 C395 0.959 . S
H397 C395 0.960 . S
H398 C395 0.961 1_545 S
O399 Co374 1.967 . S
O399 C407 1.258 . S
O400 Co375 1.941 . S
O400 C407 1.266 . S
H401 C403 0.959 . S
H402 C403 0.961 . S
C403 C393 1.510 . S
C403 H401 0.959 . S
C403 H402 0.961 . S
C403 H404 0.960 . S
H404 C403 0.960 . S
H405 N385 0.862 . S
O406 Co374 1.920 . S
O406 C379 1.289 . S
C407 O399 1.258 . S
C407 O400 1.266 . S
Co408 O411 1.970 . S
Co408 N425 1.989 . S
Co408 O433 1.967 . S
Co408 O440 1.920 . S
Co409 O412 1.966 . S
Co409 N418 2.022 . S
Co409 N426 1.993 . S
Co409 O434 1.941 . S
C410 O411 1.258 . S
C410 O412 1.263 . S
O411 Co408 1.970 . S
O411 C410 1.258 . S
O412 Co409 1.966 . S
O412 C410 1.263 . S
C413 O414 1.235 . S
C413 O440 1.289 . S
O414 C413 1.235 . S
C415 C417 1.400 . S
C415 N418 1.351 . S
C415 C420 1.501 1_545 S
C416 C417 1.387 . S
C416 N419 1.341 . S
C417 C415 1.400 . S
C417 C416 1.387 . S
N418 Co409 2.022 . S
N418 C415 1.351 . S
N418 N419 1.365 . S
N419 C416 1.341 . S
N419 N418 1.365 . S
N419 H439 0.862 . S
C420 C415 1.501 1_565 S
C420 H421 0.961 . S
C420 H422 0.961 . S
C420 H423 0.960 . S
H421 C420 0.961 . S
H422 C420 0.961 . S
H423 C420 0.960 . S
C424 N425 1.342 . S
C424 C428 1.401 . S
C424 C429 1.499 . S
N425 Co408 1.989 . S
N425 C424 1.342 . S
N425 N426 1.388 . S
N426 Co409 1.993 . S
N426 N425 1.388 . S
N426 C427 1.346 . S
C427 N426 1.346 . S
C427 C428 1.396 . S
C427 C437 1.510 . S
C428 C424 1.401 . S
C428 C427 1.396 . S
C429 C424 1.499 . S
C429 H430 0.959 . S
C429 H431 0.960 . S
C429 H432 0.961 . S
H430 C429 0.959 . S
H431 C429 0.960 . S
H432 C429 0.961 . S
O433 Co408 1.967 . S
O433 C441 1.258 . S
O434 Co409 1.941 . S
O434 C441 1.266 . S
H435 C437 0.959 . S
H436 C437 0.961 1_565 S
C437 C427 1.510 . S
C437 H435 0.959 . S
C437 H436 0.961 1_545 S
C437 H438 0.960 . S
H438 C437 0.960 . S
H439 N419 0.862 . S
O440 Co408 1.920 . S
O440 C413 1.289 . S
C441 O433 1.258 . S
C441 O434 1.266 . S
Co442 O445 1.970 . S
Co442 N459 1.989 . S
Co442 O467 1.967 . S
Co442 O474 1.920 . S
Co443 O446 1.966 . S
Co443 N452 2.022 . S
Co443 N460 1.993 . S
Co443 O468 1.941 . S
C444 O445 1.258 . S
C444 O446 1.263 . S
O445 Co442 1.970 . S
O445 C444 1.258 . S
O446 Co443 1.966 . S
O446 C444 1.263 . S
C447 O448 1.235 . S
C447 O474 1.289 . S
O448 C447 1.235 . S
C449 C451 1.400 . S
C449 N452 1.351 . S
C449 C454 1.501 . S
C450 C451 1.387 . S
C450 N453 1.341 . S
C451 C449 1.400 . S
C451 C450 1.387 . S
N452 Co443 2.022 . S
N452 C449 1.351 . S
N452 N453 1.365 . S
N453 C450 1.341 . S
N453 N452 1.365 . S
N453 H473 0.862 . S
C454 C449 1.501 . S
C454 H455 0.961 . S
C454 H456 0.961 . S
C454 H457 0.960 . S
H455 C454 0.961 . S
H456 C454 0.961 . S
H457 C454 0.960 . S
C458 N459 1.342 . S
C458 C462 1.401 . S
C458 C463 1.499 . S
N459 Co442 1.989 . S
N459 C458 1.342 . S
N459 N460 1.388 . S
N460 Co443 1.993 . S
N460 N459 1.388 . S
N460 C461 1.346 . S
C461 N460 1.346 . S
C461 C462 1.396 . S
C461 C471 1.510 . S
C462 C458 1.401 . S
C462 C461 1.396 . S
C463 C458 1.499 . S
C463 H464 0.959 . S
C463 H465 0.960 . S
C463 H466 0.961 1_545 S
H464 C463 0.959 . S
H465 C463 0.960 . S
H466 C463 0.961 1_565 S
O467 Co442 1.967 . S
O467 C475 1.258 . S
O468 Co443 1.941 . S
O468 C475 1.266 . S
H469 C471 0.959 . S
H470 C471 0.961 . S
C471 C461 1.510 . S
C471 H469 0.959 . S
C471 H470 0.961 . S
C471 H472 0.960 . S
H472 C471 0.960 . S
H473 N453 0.862 . S
O474 Co442 1.920 . S
O474 C447 1.289 . S
C475 O467 1.258 . S
C475 O468 1.266 . S
Co476 O479 1.970 . S
Co476 N493 1.989 . S
Co476 O501 1.967 . S
Co476 O508 1.920 . S
Co477 O480 1.966 . S
Co477 N486 2.022 . S
Co477 N494 1.993 . S
Co477 O502 1.941 . S
C478 O479 1.258 . S
C478 O480 1.263 . S
O479 Co476 1.970 . S
O479 C478 1.258 . S
O480 Co477 1.966 . S
O480 C478 1.263 . S
C481 O482 1.235 . S
C481 O508 1.289 . S
O482 C481 1.235 . S
C483 C485 1.400 . S
C483 N486 1.351 . S
C483 C488 1.501 1_565 S
C484 C485 1.387 . S
C484 N487 1.341 . S
C485 C483 1.400 . S
C485 C484 1.387 . S
N486 Co477 2.022 . S
N486 C483 1.351 . S
N486 N487 1.365 . S
N487 C484 1.341 . S
N487 N486 1.365 . S
N487 H507 0.862 . S
C488 C483 1.501 1_545 S
C488 H489 0.961 . S
C488 H490 0.961 . S
C488 H491 0.960 . S
H489 C488 0.961 . S
H490 C488 0.961 . S
H491 C488 0.960 . S
C492 N493 1.342 . S
C492 C496 1.401 . S
C492 C497 1.499 . S
N493 Co476 1.989 . S
N493 C492 1.342 . S
N493 N494 1.388 . S
N494 Co477 1.993 . S
N494 N493 1.388 . S
N494 C495 1.346 . S
C495 N494 1.346 . S
C495 C496 1.396 . S
C495 C505 1.510 . S
C496 C492 1.401 . S
C496 C495 1.396 . S
C497 C492 1.499 . S
C497 H498 0.959 . S
C497 H499 0.960 . S
C497 H500 0.961 . S
H498 C497 0.959 . S
H499 C497 0.960 . S
H500 C497 0.961 . S
O501 Co476 1.967 . S
O501 C509 1.258 . S
O502 Co477 1.941 . S
O502 C509 1.266 . S
H503 C505 0.959 . S
H504 C505 0.961 1_545 S
C505 C495 1.510 . S
C505 H503 0.959 . S
C505 H504 0.961 1_565 S
C505 H506 0.960 . S
H506 C505 0.960 . S
H507 N487 0.862 . S
O508 Co476 1.920 . S
O508 C481 1.289 . S
C509 O501 1.258 . S
C509 O502 1.266 . S
Co510 O513 1.970 . S
Co510 N527 1.989 . S
Co510 O535 1.967 . S
Co510 O542 1.920 . S
Co511 O514 1.966 . S
Co511 N520 2.022 . S
Co511 N528 1.993 . S
Co511 O536 1.941 . S
C512 O513 1.258 . S
C512 O514 1.263 . S
O513 Co510 1.970 . S
O513 C512 1.258 . S
O514 Co511 1.966 . S
O514 C512 1.263 . S
C515 O516 1.235 . S
C515 O542 1.289 . S
O516 C515 1.235 . S
C517 C519 1.400 . S
C517 N520 1.351 . S
C517 C522 1.501 . S
C518 C519 1.387 . S
C518 N521 1.341 . S
C519 C517 1.400 . S
C519 C518 1.387 . S
N520 Co511 2.022 . S
N520 C517 1.351 . S
N520 N521 1.365 . S
N521 C518 1.341 . S
N521 N520 1.365 . S
N521 H541 0.862 . S
C522 C517 1.501 . S
C522 H523 0.961 . S
C522 H524 0.961 . S
C522 H525 0.960 . S
H523 C522 0.961 . S
H524 C522 0.961 . S
H525 C522 0.960 . S
C526 N527 1.342 . S
C526 C530 1.401 . S
C526 C531 1.499 . S
N527 Co510 1.989 . S
N527 C526 1.342 . S
N527 N528 1.388 . S
N528 Co511 1.993 . S
N528 N527 1.388 . S
N528 C529 1.346 . S
C529 N528 1.346 . S
C529 C530 1.396 . S
C529 C539 1.510 . S
C530 C526 1.401 . S
C530 C529 1.396 . S
C531 C526 1.499 . S
C531 H532 0.959 . S
C531 H533 0.960 . S
C531 H534 0.961 1_565 S
H532 C531 0.959 . S
H533 C531 0.960 . S
H534 C531 0.961 1_545 S
O535 Co510 1.967 . S
O535 C543 1.258 . S
O536 Co511 1.941 . S
O536 C543 1.266 . S
H537 C539 0.959 . S
H538 C539 0.961 . S
C539 C529 1.510 . S
C539 H537 0.959 . S
C539 H538 0.961 . S
C539 H540 0.960 . S
H540 C539 0.960 . S
H541 N521 0.862 . S
O542 Co510 1.920 . S
O542 C515 1.289 . S
C543 O535 1.258 . S
C543 O536 1.266 . S
Co544 O547 1.970 . S
Co544 N561 1.989 . S
Co544 O569 1.967 . S
Co544 O576 1.920 . S
Co545 O548 1.966 . S
Co545 N554 2.022 . S
Co545 N562 1.993 . S
Co545 O570 1.941 . S
C546 O547 1.258 . S
C546 O548 1.263 . S
O547 Co544 1.970 . S
O547 C546 1.258 . S
O548 Co545 1.966 . S
O548 C546 1.263 . S
C549 O550 1.235 . S
C549 O576 1.289 . S
O550 C549 1.235 . S
C551 C553 1.400 . S
C551 N554 1.351 . S
C551 C556 1.501 . S
C552 C553 1.387 . S
C552 N555 1.341 . S
C553 C551 1.400 . S
C553 C552 1.387 . S
N554 Co545 2.022 . S
N554 C551 1.351 . S
N554 N555 1.365 . S
N555 C552 1.341 . S
N555 N554 1.365 . S
N555 H575 0.862 . S
C556 C551 1.501 . S
C556 H557 0.961 . S
C556 H558 0.961 . S
C556 H559 0.960 . S
H557 C556 0.961 . S
H558 C556 0.961 . S
H559 C556 0.960 . S
C560 N561 1.342 . S
C560 C564 1.401 . S
C560 C565 1.499 . S
N561 Co544 1.989 . S
N561 C560 1.342 . S
N561 N562 1.388 . S
N562 Co545 1.993 . S
N562 N561 1.388 . S
N562 C563 1.346 . S
C563 N562 1.346 . S
C563 C564 1.396 . S
C563 C573 1.510 . S
C564 C560 1.401 . S
C564 C563 1.396 . S
C565 C560 1.499 . S
C565 H566 0.959 . S
C565 H567 0.960 . S
C565 H568 0.961 . S
H566 C565 0.959 . S
H567 C565 0.960 . S
H568 C565 0.961 . S
O569 Co544 1.967 . S
O569 C577 1.258 . S
O570 Co545 1.941 . S
O570 C577 1.266 . S
H571 C573 0.959 . S
H572 C573 0.961 . S
C573 C563 1.510 . S
C573 H571 0.959 . S
C573 H572 0.961 . S
C573 H574 0.960 . S
H574 C573 0.960 . S
H575 N555 0.862 . S
O576 Co544 1.920 . S
O576 C549 1.289 . S
C577 O569 1.258 . S
C577 O570 1.266 . S
Co578 O581 1.970 . S
Co578 N595 1.989 . S
Co578 O603 1.967 . S
Co578 O610 1.920 . S
Co579 O582 1.966 . S
Co579 N588 2.022 . S
Co579 N596 1.993 . S
Co579 O604 1.941 . S
C580 O581 1.258 . S
C580 O582 1.263 . S
O581 Co578 1.970 . S
O581 C580 1.258 . S
O582 Co579 1.966 . S
O582 C580 1.263 . S
C583 O584 1.235 . S
C583 O610 1.289 . S
O584 C583 1.235 . S
C585 C587 1.400 . S
C585 N588 1.351 . S
C585 C590 1.501 . S
C586 C587 1.387 . S
C586 N589 1.341 . S
C587 C585 1.400 . S
C587 C586 1.387 . S
N588 Co579 2.022 . S
N588 C585 1.351 . S
N588 N589 1.365 . S
N589 C586 1.341 . S
N589 N588 1.365 . S
N589 H609 0.862 . S
C590 C585 1.501 . S
C590 H591 0.961 . S
C590 H592 0.961 . S
C590 H593 0.960 . S
H591 C590 0.961 . S
H592 C590 0.961 . S
H593 C590 0.960 . S
C594 N595 1.342 . S
C594 C598 1.401 . S
C594 C599 1.499 . S
N595 Co578 1.989 . S
N595 C594 1.342 . S
N595 N596 1.388 . S
N596 Co579 1.993 . S
N596 N595 1.388 . S
N596 C597 1.346 . S
C597 N596 1.346 . S
C597 C598 1.396 . S
C597 C607 1.510 . S
C598 C594 1.401 . S
C598 C597 1.396 . S
C599 C594 1.499 . S
C599 H600 0.959 . S
C599 H601 0.960 . S
C599 H602 0.961 . S
H600 C599 0.959 . S
H601 C599 0.960 . S
H602 C599 0.961 . S
O603 Co578 1.967 . S
O603 C611 1.258 . S
O604 Co579 1.941 . S
O604 C611 1.266 . S
H605 C607 0.959 . S
H606 C607 0.961 . S
C607 C597 1.510 . S
C607 H605 0.959 . S
C607 H606 0.961 . S
C607 H608 0.960 . S
H608 C607 0.960 . S
H609 N589 0.862 . S
O610 Co578 1.920 . S
O610 C583 1.289 . S
C611 O603 1.258 . S
C611 O604 1.266 . S
Co612 O615 1.970 . S
Co612 N629 1.989 . S
Co612 O637 1.967 . S
Co612 O644 1.920 . S
Co613 O616 1.966 . S
Co613 N622 2.022 . S
Co613 N630 1.993 . S
Co613 O638 1.941 . S
C614 O615 1.258 . S
C614 O616 1.263 . S
O615 Co612 1.970 . S
O615 C614 1.258 . S
O616 Co613 1.966 . S
O616 C614 1.263 . S
C617 O618 1.235 . S
C617 O644 1.289 . S
O618 C617 1.235 . S
C619 C621 1.400 . S
C619 N622 1.351 . S
C619 C624 1.501 . S
C620 C621 1.387 . S
C620 N623 1.341 . S
C621 C619 1.400 . S
C621 C620 1.387 . S
N622 Co613 2.022 . S
N622 C619 1.351 . S
N622 N623 1.365 . S
N623 C620 1.341 . S
N623 N622 1.365 . S
N623 H643 0.862 . S
C624 C619 1.501 . S
C624 H625 0.961 . S
C624 H626 0.961 . S
C624 H627 0.960 . S
H625 C624 0.961 . S
H626 C624 0.961 . S
H627 C624 0.960 . S
C628 N629 1.342 . S
C628 C632 1.401 . S
C628 C633 1.499 . S
N629 Co612 1.989 . S
N629 C628 1.342 . S
N629 N630 1.388 . S
N630 Co613 1.993 . S
N630 N629 1.388 . S
N630 C631 1.346 . S
C631 N630 1.346 . S
C631 C632 1.396 . S
C631 C641 1.510 . S
C632 C628 1.401 . S
C632 C631 1.396 . S
C633 C628 1.499 . S
C633 H634 0.959 . S
C633 H635 0.960 . S
C633 H636 0.961 . S
H634 C633 0.959 . S
H635 C633 0.960 . S
H636 C633 0.961 . S
O637 Co612 1.967 . S
O637 C645 1.258 . S
O638 Co613 1.941 . S
O638 C645 1.266 . S
H639 C641 0.959 . S
H640 C641 0.961 . S
C641 C631 1.510 . S
C641 H639 0.959 . S
C641 H640 0.961 . S
C641 H642 0.960 . S
H642 C641 0.960 . S
H643 N623 0.862 . S
O644 Co612 1.920 . S
O644 C617 1.289 . S
C645 O637 1.258 . S
C645 O638 1.266 . S
Co646 O649 1.970 . S
Co646 N663 1.989 . S
Co646 O671 1.967 . S
Co646 O678 1.920 . S
Co647 O650 1.966 . S
Co647 N656 2.022 . S
Co647 N664 1.993 . S
Co647 O672 1.941 . S
C648 O649 1.258 . S
C648 O650 1.263 . S
O649 Co646 1.970 . S
O649 C648 1.258 . S
O650 Co647 1.966 . S
O650 C648 1.263 . S
C651 O652 1.235 . S
C651 O678 1.289 . S
O652 C651 1.235 . S
C653 C655 1.400 . S
C653 N656 1.351 . S
C653 C658 1.501 . S
C654 C655 1.387 . S
C654 N657 1.341 . S
C655 C653 1.400 . S
C655 C654 1.387 . S
N656 Co647 2.022 . S
N656 C653 1.351 . S
N656 N657 1.365 . S
N657 C654 1.341 . S
N657 N656 1.365 . S
N657 H677 0.862 . S
C658 C653 1.501 . S
C658 H659 0.961 . S
C658 H660 0.961 . S
C658 H661 0.960 . S
H659 C658 0.961 . S
H660 C658 0.961 . S
H661 C658 0.960 . S
C662 N663 1.342 . S
C662 C666 1.401 . S
C662 C667 1.499 . S
N663 Co646 1.989 . S
N663 C662 1.342 . S
N663 N664 1.388 . S
N664 Co647 1.993 . S
N664 N663 1.388 . S
N664 C665 1.346 . S
C665 N664 1.346 . S
C665 C666 1.396 . S
C665 C675 1.510 . S
C666 C662 1.401 . S
C666 C665 1.396 . S
C667 C662 1.499 . S
C667 H668 0.959 . S
C667 H669 0.960 . S
C667 H670 0.961 . S
H668 C667 0.959 . S
H669 C667 0.960 . S
H670 C667 0.961 . S
O671 Co646 1.967 . S
O671 C679 1.258 . S
O672 Co647 1.941 . S
O672 C679 1.266 . S
H673 C675 0.959 . S
H674 C675 0.961 . S
C675 C665 1.510 . S
C675 H673 0.959 . S
C675 H674 0.961 . S
C675 H676 0.960 . S
H676 C675 0.960 . S
H677 N657 0.862 . S
O678 Co646 1.920 . S
O678 C651 1.289 . S
C679 O671 1.258 . S
C679 O672 1.266 . S
Co680 O683 1.970 . S
Co680 N697 1.989 . S
Co680 O705 1.967 . S
Co680 O712 1.920 . S
Co681 O684 1.966 . S
Co681 N690 2.022 . S
Co681 N698 1.993 . S
Co681 O706 1.941 . S
C682 O683 1.258 . S
C682 O684 1.263 . S
O683 Co680 1.970 . S
O683 C682 1.258 . S
O684 Co681 1.966 . S
O684 C682 1.263 . S
C685 O686 1.235 . S
C685 O712 1.289 . S
O686 C685 1.235 . S
C687 C689 1.400 . S
C687 N690 1.351 . S
C687 C692 1.501 . S
C688 C689 1.387 . S
C688 N691 1.341 . S
C689 C687 1.400 . S
C689 C688 1.387 . S
N690 Co681 2.022 . S
N690 C687 1.351 . S
N690 N691 1.365 . S
N691 C688 1.341 . S
N691 N690 1.365 . S
N691 H711 0.862 . S
C692 C687 1.501 . S
C692 H693 0.961 . S
C692 H694 0.961 . S
C692 H695 0.960 . S
H693 C692 0.961 . S
H694 C692 0.961 . S
H695 C692 0.960 . S
C696 N697 1.342 . S
C696 C700 1.401 . S
C696 C701 1.499 . S
N697 Co680 1.989 . S
N697 C696 1.342 . S
N697 N698 1.388 . S
N698 Co681 1.993 . S
N698 N697 1.388 . S
N698 C699 1.346 . S
C699 N698 1.346 . S
C699 C700 1.396 . S
C699 C709 1.510 . S
C700 C696 1.401 . S
C700 C699 1.396 . S
C701 C696 1.499 . S
C701 H702 0.959 . S
C701 H703 0.960 . S
C701 H704 0.961 . S
H702 C701 0.959 . S
H703 C701 0.960 . S
H704 C701 0.961 . S
O705 Co680 1.967 . S
O705 C713 1.258 . S
O706 Co681 1.941 . S
O706 C713 1.266 . S
H707 C709 0.959 . S
H708 C709 0.961 . S
C709 C699 1.510 . S
C709 H707 0.959 . S
C709 H708 0.961 . S
C709 H710 0.960 . S
H710 C709 0.960 . S
H711 N691 0.862 . S
O712 Co680 1.920 . S
O712 C685 1.289 . S
C713 O705 1.258 . S
C713 O706 1.266 . S
Co714 O717 1.970 . S
Co714 N731 1.989 . S
Co714 O739 1.967 . S
Co714 O746 1.920 . S
Co715 O718 1.966 . S
Co715 N724 2.022 . S
Co715 N732 1.993 . S
Co715 O740 1.941 . S
C716 O717 1.258 . S
C716 O718 1.263 . S
O717 Co714 1.970 . S
O717 C716 1.258 . S
O718 Co715 1.966 . S
O718 C716 1.263 . S
C719 O720 1.235 . S
C719 O746 1.289 . S
O720 C719 1.235 . S
C721 C723 1.400 . S
C721 N724 1.351 . S
C721 C726 1.501 . S
C722 C723 1.387 . S
C722 N725 1.341 . S
C723 C721 1.400 . S
C723 C722 1.387 . S
N724 Co715 2.022 . S
N724 C721 1.351 . S
N724 N725 1.365 . S
N725 C722 1.341 . S
N725 N724 1.365 . S
N725 H745 0.862 . S
C726 C721 1.501 . S
C726 H727 0.961 . S
C726 H728 0.961 . S
C726 H729 0.960 . S
H727 C726 0.961 . S
H728 C726 0.961 . S
H729 C726 0.960 . S
C730 N731 1.342 . S
C730 C734 1.401 . S
C730 C735 1.499 . S
N731 Co714 1.989 . S
N731 C730 1.342 . S
N731 N732 1.388 . S
N732 Co715 1.993 . S
N732 N731 1.388 . S
N732 C733 1.346 . S
C733 N732 1.346 . S
C733 C734 1.396 . S
C733 C743 1.510 . S
C734 C730 1.401 . S
C734 C733 1.396 . S
C735 C730 1.499 . S
C735 H736 0.959 . S
C735 H737 0.960 . S
C735 H738 0.961 . S
H736 C735 0.959 . S
H737 C735 0.960 . S
H738 C735 0.961 . S
O739 Co714 1.967 . S
O739 C747 1.258 . S
O740 Co715 1.941 . S
O740 C747 1.266 . S
H741 C743 0.959 . S
H742 C743 0.961 . S
C743 C733 1.510 . S
C743 H741 0.959 . S
C743 H742 0.961 . S
C743 H744 0.960 . S
H744 C743 0.960 . S
H745 N725 0.862 . S
O746 Co714 1.920 . S
O746 C719 1.289 . S
C747 O739 1.258 . S
C747 O740 1.266 . S
Co748 O751 1.970 . S
Co748 N765 1.989 . S
Co748 O773 1.967 . S
Co748 O780 1.920 . S
Co749 O752 1.966 . S
Co749 N758 2.022 . S
Co749 N766 1.993 . S
Co749 O774 1.941 . S
C750 O751 1.258 . S
C750 O752 1.263 . S
O751 Co748 1.970 . S
O751 C750 1.258 . S
O752 Co749 1.966 . S
O752 C750 1.263 . S
C753 O754 1.235 . S
C753 O780 1.289 . S
O754 C753 1.235 . S
C755 C757 1.400 . S
C755 N758 1.351 . S
C755 C760 1.501 . S
C756 C757 1.387 . S
C756 N759 1.341 . S
C757 C755 1.400 . S
C757 C756 1.387 . S
N758 Co749 2.022 . S
N758 C755 1.351 . S
N758 N759 1.365 . S
N759 C756 1.341 . S
N759 N758 1.365 . S
N759 H779 0.862 . S
C760 C755 1.501 . S
C760 H761 0.961 . S
C760 H762 0.961 . S
C760 H763 0.960 . S
H761 C760 0.961 . S
H762 C760 0.961 . S
H763 C760 0.960 . S
C764 N765 1.342 . S
C764 C768 1.401 . S
C764 C769 1.499 . S
N765 Co748 1.989 . S
N765 C764 1.342 . S
N765 N766 1.388 . S
N766 Co749 1.993 . S
N766 N765 1.388 . S
N766 C767 1.346 . S
C767 N766 1.346 . S
C767 C768 1.396 . S
C767 C777 1.510 . S
C768 C764 1.401 . S
C768 C767 1.396 . S
C769 C764 1.499 . S
C769 H770 0.959 . S
C769 H771 0.960 . S
C769 H772 0.961 . S
H770 C769 0.959 . S
H771 C769 0.960 . S
H772 C769 0.961 . S
O773 Co748 1.967 . S
O773 C781 1.258 . S
O774 Co749 1.941 . S
O774 C781 1.266 . S
H775 C777 0.959 . S
H776 C777 0.961 . S
C777 C767 1.510 . S
C777 H775 0.959 . S
C777 H776 0.961 . S
C777 H778 0.960 . S
H778 C777 0.960 . S
H779 N759 0.862 . S
O780 Co748 1.920 . S
O780 C753 1.289 . S
C781 O773 1.258 . S
C781 O774 1.266 . S
Co782 O785 1.970 . S
Co782 N799 1.989 . S
Co782 O807 1.967 . S
Co782 O814 1.920 . S
Co783 O786 1.966 . S
Co783 N792 2.022 . S
Co783 N800 1.993 . S
Co783 O808 1.941 . S
C784 O785 1.258 . S
C784 O786 1.263 . S
O785 Co782 1.970 . S
O785 C784 1.258 . S
O786 Co783 1.966 . S
O786 C784 1.263 . S
C787 O788 1.235 . S
C787 O814 1.289 . S
O788 C787 1.235 . S
C789 C791 1.400 . S
C789 N792 1.351 . S
C789 C794 1.501 . S
C790 C791 1.387 . S
C790 N793 1.341 . S
C791 C789 1.400 . S
C791 C790 1.387 . S
N792 Co783 2.022 . S
N792 C789 1.351 . S
N792 N793 1.365 . S
N793 C790 1.341 . S
N793 N792 1.365 . S
N793 H813 0.862 . S
C794 C789 1.501 . S
C794 H795 0.961 . S
C794 H796 0.961 . S
C794 H797 0.960 . S
H795 C794 0.961 . S
H796 C794 0.961 . S
H797 C794 0.960 . S
C798 N799 1.342 . S
C798 C802 1.401 . S
C798 C803 1.499 . S
N799 Co782 1.989 . S
N799 C798 1.342 . S
N799 N800 1.388 . S
N800 Co783 1.993 . S
N800 N799 1.388 . S
N800 C801 1.346 . S
C801 N800 1.346 . S
C801 C802 1.396 . S
C801 C811 1.510 . S
C802 C798 1.401 . S
C802 C801 1.396 . S
C803 C798 1.499 . S
C803 H804 0.959 . S
C803 H805 0.960 . S
C803 H806 0.961 . S
H804 C803 0.959 . S
H805 C803 0.960 . S
H806 C803 0.961 . S
O807 Co782 1.967 . S
O807 C815 1.258 . S
O808 Co783 1.941 . S
O808 C815 1.266 . S
H809 C811 0.959 . S
H810 C811 0.961 . S
C811 C801 1.510 . S
C811 H809 0.959 . S
C811 H810 0.961 . S
C811 H812 0.960 . S
H812 C811 0.960 . S
H813 N793 0.862 . S
O814 Co782 1.920 . S
O814 C787 1.289 . S
C815 O807 1.258 . S
C815 O808 1.266 . S
Co816 O819 1.970 . S
Co816 N833 1.989 . S
Co816 O841 1.967 . S
Co816 O848 1.920 . S
Co817 O820 1.966 . S
Co817 N826 2.022 . S
Co817 N834 1.993 . S
Co817 O842 1.941 . S
C818 O819 1.258 . S
C818 O820 1.263 . S
O819 Co816 1.970 . S
O819 C818 1.258 . S
O820 Co817 1.966 . S
O820 C818 1.263 . S
C821 O822 1.235 . S
C821 O848 1.289 . S
O822 C821 1.235 . S
C823 C825 1.400 . S
C823 N826 1.351 . S
C823 C828 1.501 . S
C824 C825 1.387 . S
C824 N827 1.341 . S
C825 C823 1.400 . S
C825 C824 1.387 . S
N826 Co817 2.022 . S
N826 C823 1.351 . S
N826 N827 1.365 . S
N827 C824 1.341 . S
N827 N826 1.365 . S
N827 H847 0.862 . S
C828 C823 1.501 . S
C828 H829 0.961 . S
C828 H830 0.961 . S
C828 H831 0.960 . S
H829 C828 0.961 . S
H830 C828 0.961 . S
H831 C828 0.960 . S
C832 N833 1.342 . S
C832 C836 1.401 . S
C832 C837 1.499 . S
N833 Co816 1.989 . S
N833 C832 1.342 . S
N833 N834 1.388 . S
N834 Co817 1.993 . S
N834 N833 1.388 . S
N834 C835 1.346 . S
C835 N834 1.346 . S
C835 C836 1.396 . S
C835 C845 1.510 . S
C836 C832 1.401 . S
C836 C835 1.396 . S
C837 C832 1.499 . S
C837 H838 0.959 . S
C837 H839 0.960 . S
C837 H840 0.961 . S
H838 C837 0.959 . S
H839 C837 0.960 . S
H840 C837 0.961 . S
O841 Co816 1.967 . S
O841 C849 1.258 . S
O842 Co817 1.941 . S
O842 C849 1.266 . S
H843 C845 0.959 . S
H844 C845 0.961 . S
C845 C835 1.510 . S
C845 H843 0.959 . S
C845 H844 0.961 . S
C845 H846 0.960 . S
H846 C845 0.960 . S
H847 N827 0.862 . S
O848 Co816 1.920 . S
O848 C821 1.289 . S
C849 O841 1.258 . S
C849 O842 1.266 . S
Co850 O853 1.970 . S
Co850 N867 1.989 . S
Co850 O875 1.967 . S
Co850 O882 1.920 . S
Co851 O854 1.966 . S
Co851 N860 2.022 . S
Co851 N868 1.993 . S
Co851 O876 1.941 . S
C852 O853 1.258 . S
C852 O854 1.263 . S
O853 Co850 1.970 . S
O853 C852 1.258 . S
O854 Co851 1.966 . S
O854 C852 1.263 . S
C855 O856 1.235 . S
C855 O882 1.289 . S
O856 C855 1.235 . S
C857 C859 1.400 . S
C857 N860 1.351 . S
C857 C862 1.501 . S
C858 C859 1.387 . S
C858 N861 1.341 . S
C859 C857 1.400 . S
C859 C858 1.387 . S
N860 Co851 2.022 . S
N860 C857 1.351 . S
N860 N861 1.365 . S
N861 C858 1.341 . S
N861 N860 1.365 . S
N861 H881 0.862 . S
C862 C857 1.501 . S
C862 H863 0.961 . S
C862 H864 0.961 . S
C862 H865 0.960 . S
H863 C862 0.961 . S
H864 C862 0.961 . S
H865 C862 0.960 . S
C866 N867 1.342 . S
C866 C870 1.401 . S
C866 C871 1.499 . S
N867 Co850 1.989 . S
N867 C866 1.342 . S
N867 N868 1.388 . S
N868 Co851 1.993 . S
N868 N867 1.388 . S
N868 C869 1.346 . S
C869 N868 1.346 . S
C869 C870 1.396 . S
C869 C879 1.510 . S
C870 C866 1.401 . S
C870 C869 1.396 . S
C871 C866 1.499 . S
C871 H872 0.959 . S
C871 H873 0.960 . S
C871 H874 0.961 . S
H872 C871 0.959 . S
H873 C871 0.960 . S
H874 C871 0.961 . S
O875 Co850 1.967 . S
O875 C883 1.258 . S
O876 Co851 1.941 . S
O876 C883 1.266 . S
H877 C879 0.959 . S
H878 C879 0.961 . S
C879 C869 1.510 . S
C879 H877 0.959 . S
C879 H878 0.961 . S
C879 H880 0.960 . S
H880 C879 0.960 . S
H881 N861 0.862 . S
O882 Co850 1.920 . S
O882 C855 1.289 . S
C883 O875 1.258 . S
C883 O876 1.266 . S
Co884 O887 1.970 . S
Co884 N901 1.989 . S
Co884 O909 1.967 . S
Co884 O916 1.920 . S
Co885 O888 1.966 . S
Co885 N894 2.022 . S
Co885 N902 1.993 . S
Co885 O910 1.941 . S
C886 O887 1.258 . S
C886 O888 1.263 . S
O887 Co884 1.970 . S
O887 C886 1.258 . S
O888 Co885 1.966 . S
O888 C886 1.263 . S
C889 O890 1.235 . S
C889 O916 1.289 . S
O890 C889 1.235 . S
C891 C893 1.400 . S
C891 N894 1.351 . S
C891 C896 1.501 . S
C892 C893 1.387 . S
C892 N895 1.341 . S
C893 C891 1.400 . S
C893 C892 1.387 . S
N894 Co885 2.022 . S
N894 C891 1.351 . S
N894 N895 1.365 . S
N895 C892 1.341 . S
N895 N894 1.365 . S
N895 H915 0.862 . S
C896 C891 1.501 . S
C896 H897 0.961 . S
C896 H898 0.961 . S
C896 H899 0.960 . S
H897 C896 0.961 . S
H898 C896 0.961 . S
H899 C896 0.960 . S
C900 N901 1.342 . S
C900 C904 1.401 . S
C900 C905 1.499 . S
N901 Co884 1.989 . S
N901 C900 1.342 . S
N901 N902 1.388 . S
N902 Co885 1.993 . S
N902 N901 1.388 . S
N902 C903 1.346 . S
C903 N902 1.346 . S
C903 C904 1.396 . S
C903 C913 1.510 . S
C904 C900 1.401 . S
C904 C903 1.396 . S
C905 C900 1.499 . S
C905 H906 0.959 . S
C905 H907 0.960 . S
C905 H908 0.961 . S
H906 C905 0.959 . S
H907 C905 0.960 . S
H908 C905 0.961 . S
O909 Co884 1.967 . S
O909 C917 1.258 . S
O910 Co885 1.941 . S
O910 C917 1.266 . S
H911 C913 0.959 . S
H912 C913 0.961 . S
C913 C903 1.510 . S
C913 H911 0.959 . S
C913 H912 0.961 . S
C913 H914 0.960 . S
H914 C913 0.960 . S
H915 N895 0.862 . S
O916 Co884 1.920 . S
O916 C889 1.289 . S
C917 O909 1.258 . S
C917 O910 1.266 . S
Co918 O921 1.970 . S
Co918 N935 1.989 . S
Co918 O943 1.967 . S
Co918 O950 1.920 . S
Co919 O922 1.966 . S
Co919 N928 2.022 . S
Co919 N936 1.993 . S
Co919 O944 1.941 . S
C920 O921 1.258 . S
C920 O922 1.263 . S
O921 Co918 1.970 . S
O921 C920 1.258 . S
O922 Co919 1.966 . S
O922 C920 1.263 . S
C923 O924 1.235 . S
C923 O950 1.289 . S
O924 C923 1.235 . S
C925 C927 1.400 . S
C925 N928 1.351 . S
C925 C930 1.501 . S
C926 C927 1.387 . S
C926 N929 1.341 . S
C927 C925 1.400 . S
C927 C926 1.387 . S
N928 Co919 2.022 . S
N928 C925 1.351 . S
N928 N929 1.365 . S
N929 C926 1.341 . S
N929 N928 1.365 . S
N929 H949 0.862 . S
C930 C925 1.501 . S
C930 H931 0.961 . S
C930 H932 0.961 . S
C930 H933 0.960 . S
H931 C930 0.961 . S
H932 C930 0.961 . S
H933 C930 0.960 . S
C934 N935 1.342 . S
C934 C938 1.401 . S
C934 C939 1.499 . S
N935 Co918 1.989 . S
N935 C934 1.342 . S
N935 N936 1.388 . S
N936 Co919 1.993 . S
N936 N935 1.388 . S
N936 C937 1.346 . S
C937 N936 1.346 . S
C937 C938 1.396 . S
C937 C947 1.510 . S
C938 C934 1.401 . S
C938 C937 1.396 . S
C939 C934 1.499 . S
C939 H940 0.959 . S
C939 H941 0.960 . S
C939 H942 0.961 . S
H940 C939 0.959 . S
H941 C939 0.960 . S
H942 C939 0.961 . S
O943 Co918 1.967 . S
O943 C951 1.258 . S
O944 Co919 1.941 . S
O944 C951 1.266 . S
H945 C947 0.959 . S
H946 C947 0.961 . S
C947 C937 1.510 . S
C947 H945 0.959 . S
C947 H946 0.961 . S
C947 H948 0.960 . S
H948 C947 0.960 . S
H949 N929 0.862 . S
O950 Co918 1.920 . S
O950 C923 1.289 . S
C951 O943 1.258 . S
C951 O944 1.266 . S
Co952 O955 1.970 . S
Co952 N969 1.989 . S
Co952 O977 1.967 . S
Co952 O984 1.920 . S
Co953 O956 1.966 . S
Co953 N962 2.022 . S
Co953 N970 1.993 . S
Co953 O978 1.941 . S
C954 O955 1.258 . S
C954 O956 1.263 . S
O955 Co952 1.970 . S
O955 C954 1.258 . S
O956 Co953 1.966 . S
O956 C954 1.263 . S
C957 O958 1.235 . S
C957 O984 1.289 . S
O958 C957 1.235 . S
C959 C961 1.400 . S
C959 N962 1.351 . S
C959 C964 1.501 . S
C960 C961 1.387 . S
C960 N963 1.341 . S
C961 C959 1.400 . S
C961 C960 1.387 . S
N962 Co953 2.022 . S
N962 C959 1.351 . S
N962 N963 1.365 . S
N963 C960 1.341 . S
N963 N962 1.365 . S
N963 H983 0.862 . S
C964 C959 1.501 . S
C964 H965 0.961 . S
C964 H966 0.961 . S
C964 H967 0.960 . S
H965 C964 0.961 . S
H966 C964 0.961 . S
H967 C964 0.960 . S
C968 N969 1.342 . S
C968 C972 1.401 . S
C968 C973 1.499 . S
N969 Co952 1.989 . S
N969 C968 1.342 . S
N969 N970 1.388 . S
N970 Co953 1.993 . S
N970 N969 1.388 . S
N970 C971 1.346 . S
C971 N970 1.346 . S
C971 C972 1.396 . S
C971 C981 1.510 . S
C972 C968 1.401 . S
C972 C971 1.396 . S
C973 C968 1.499 . S
C973 H974 0.959 . S
C973 H975 0.960 . S
C973 H976 0.961 . S
H974 C973 0.959 . S
H975 C973 0.960 . S
H976 C973 0.961 . S
O977 Co952 1.967 . S
O977 C985 1.258 . S
O978 Co953 1.941 . S
O978 C985 1.266 . S
H979 C981 0.959 . S
H980 C981 0.961 . S
C981 C971 1.510 . S
C981 H979 0.959 . S
C981 H980 0.961 . S
C981 H982 0.960 . S
H982 C981 0.960 . S
H983 N963 0.862 . S
O984 Co952 1.920 . S
O984 C957 1.289 . S
C985 O977 1.258 . S
C985 O978 1.266 . S
Co986 O989 1.970 . S
Co986 N1003 1.989 . S
Co986 O1011 1.967 . S
Co986 O1018 1.920 . S
Co987 O990 1.966 . S
Co987 N996 2.022 . S
Co987 N1004 1.993 . S
Co987 O1012 1.941 . S
C988 O989 1.258 . S
C988 O990 1.263 . S
O989 Co986 1.970 . S
O989 C988 1.258 . S
O990 Co987 1.966 . S
O990 C988 1.263 . S
C991 O992 1.235 . S
C991 O1018 1.289 . S
O992 C991 1.235 . S
C993 C995 1.400 . S
C993 N996 1.351 . S
C993 C998 1.501 . S
C994 C995 1.387 . S
C994 N997 1.341 . S
C995 C993 1.400 . S
C995 C994 1.387 . S
N996 Co987 2.022 . S
N996 C993 1.351 . S
N996 N997 1.365 . S
N997 C994 1.341 . S
N997 N996 1.365 . S
N997 H1017 0.862 . S
C998 C993 1.501 . S
C998 H999 0.961 . S
C998 H1000 0.961 . S
C998 H1001 0.960 . S
H999 C998 0.961 . S
H1000 C998 0.961 . S
H1001 C998 0.960 . S
C1002 N1003 1.342 . S
C1002 C1006 1.401 . S
C1002 C1007 1.499 . S
N1003 Co986 1.989 . S
N1003 C1002 1.342 . S
N1003 N1004 1.388 . S
N1004 Co987 1.993 . S
N1004 N1003 1.388 . S
N1004 C1005 1.346 . S
C1005 N1004 1.346 . S
C1005 C1006 1.396 . S
C1005 C1015 1.510 . S
C1006 C1002 1.401 . S
C1006 C1005 1.396 . S
C1007 C1002 1.499 . S
C1007 H1008 0.959 . S
C1007 H1009 0.960 . S
C1007 H1010 0.961 . S
H1008 C1007 0.959 . S
H1009 C1007 0.960 . S
H1010 C1007 0.961 . S
O1011 Co986 1.967 . S
O1011 C1019 1.258 . S
O1012 Co987 1.941 . S
O1012 C1019 1.266 . S
H1013 C1015 0.959 . S
H1014 C1015 0.961 . S
C1015 C1005 1.510 . S
C1015 H1013 0.959 . S
C1015 H1014 0.961 . S
C1015 H1016 0.960 . S
H1016 C1015 0.960 . S
H1017 N997 0.862 . S
O1018 Co986 1.920 . S
O1018 C991 1.289 . S
C1019 O1011 1.258 . S
C1019 O1012 1.266 . S
Co1020 O1023 1.970 . S
Co1020 N1037 1.989 . S
Co1020 O1045 1.967 . S
Co1020 O1052 1.920 . S
Co1021 O1024 1.966 . S
Co1021 N1030 2.022 . S
Co1021 N1038 1.993 . S
Co1021 O1046 1.941 . S
C1022 O1023 1.258 . S
C1022 O1024 1.263 . S
O1023 Co1020 1.970 . S
O1023 C1022 1.258 . S
O1024 Co1021 1.966 . S
O1024 C1022 1.263 . S
C1025 O1026 1.235 . S
C1025 O1052 1.289 . S
O1026 C1025 1.235 . S
C1027 C1029 1.400 . S
C1027 N1030 1.351 . S
C1027 C1032 1.501 . S
C1028 C1029 1.387 . S
C1028 N1031 1.341 . S
C1029 C1027 1.400 . S
C1029 C1028 1.387 . S
N1030 Co1021 2.022 . S
N1030 C1027 1.351 . S
N1030 N1031 1.365 . S
N1031 C1028 1.341 . S
N1031 N1030 1.365 . S
N1031 H1051 0.862 . S
C1032 C1027 1.501 . S
C1032 H1033 0.961 . S
C1032 H1034 0.961 . S
C1032 H1035 0.960 . S
H1033 C1032 0.961 . S
H1034 C1032 0.961 . S
H1035 C1032 0.960 . S
C1036 N1037 1.342 . S
C1036 C1040 1.401 . S
C1036 C1041 1.499 . S
N1037 Co1020 1.989 . S
N1037 C1036 1.342 . S
N1037 N1038 1.388 . S
N1038 Co1021 1.993 . S
N1038 N1037 1.388 . S
N1038 C1039 1.346 . S
C1039 N1038 1.346 . S
C1039 C1040 1.396 . S
C1039 C1049 1.510 . S
C1040 C1036 1.401 . S
C1040 C1039 1.396 . S
C1041 C1036 1.499 . S
C1041 H1042 0.959 . S
C1041 H1043 0.960 . S
C1041 H1044 0.961 . S
H1042 C1041 0.959 . S
H1043 C1041 0.960 . S
H1044 C1041 0.961 . S
O1045 Co1020 1.967 . S
O1045 C1053 1.258 . S
O1046 Co1021 1.941 . S
O1046 C1053 1.266 . S
H1047 C1049 0.959 . S
H1048 C1049 0.961 . S
C1049 C1039 1.510 . S
C1049 H1047 0.959 . S
C1049 H1048 0.961 . S
C1049 H1050 0.960 . S
H1050 C1049 0.960 . S
H1051 N1031 0.862 . S
O1052 Co1020 1.920 . S
O1052 C1025 1.289 . S
C1053 O1045 1.258 . S
C1053 O1046 1.266 . S
Co1054 O1057 1.970 . S
Co1054 N1071 1.989 . S
Co1054 O1079 1.967 . S
Co1054 O1086 1.920 . S
Co1055 O1058 1.966 . S
Co1055 N1064 2.022 . S
Co1055 N1072 1.993 . S
Co1055 O1080 1.941 . S
C1056 O1057 1.258 . S
C1056 O1058 1.263 . S
O1057 Co1054 1.970 . S
O1057 C1056 1.258 . S
O1058 Co1055 1.966 . S
O1058 C1056 1.263 . S
C1059 O1060 1.235 . S
C1059 O1086 1.289 . S
O1060 C1059 1.235 . S
C1061 C1063 1.400 . S
C1061 N1064 1.351 . S
C1061 C1066 1.501 . S
C1062 C1063 1.387 . S
C1062 N1065 1.341 . S
C1063 C1061 1.400 . S
C1063 C1062 1.387 . S
N1064 Co1055 2.022 . S
N1064 C1061 1.351 . S
N1064 N1065 1.365 . S
N1065 C1062 1.341 . S
N1065 N1064 1.365 . S
N1065 H1085 0.862 . S
C1066 C1061 1.501 . S
C1066 H1067 0.961 . S
C1066 H1068 0.961 . S
C1066 H1069 0.960 . S
H1067 C1066 0.961 . S
H1068 C1066 0.961 . S
H1069 C1066 0.960 . S
C1070 N1071 1.342 . S
C1070 C1074 1.401 . S
C1070 C1075 1.499 . S
N1071 Co1054 1.989 . S
N1071 C1070 1.342 . S
N1071 N1072 1.388 . S
N1072 Co1055 1.993 . S
N1072 N1071 1.388 . S
N1072 C1073 1.346 . S
C1073 N1072 1.346 . S
C1073 C1074 1.396 . S
C1073 C1083 1.510 . S
C1074 C1070 1.401 . S
C1074 C1073 1.396 . S
C1075 C1070 1.499 . S
C1075 H1076 0.959 . S
C1075 H1077 0.960 . S
C1075 H1078 0.961 . S
H1076 C1075 0.959 . S
H1077 C1075 0.960 . S
H1078 C1075 0.961 . S
O1079 Co1054 1.967 . S
O1079 C1087 1.258 . S
O1080 Co1055 1.941 . S
O1080 C1087 1.266 . S
H1081 C1083 0.959 . S
H1082 C1083 0.961 . S
C1083 C1073 1.510 . S
C1083 H1081 0.959 . S
C1083 H1082 0.961 . S
C1083 H1084 0.960 . S
H1084 C1083 0.960 . S
H1085 N1065 0.862 . S
O1086 Co1054 1.920 . S
O1086 C1059 1.289 . S
C1087 O1079 1.258 . S
C1087 O1080 1.266 . S
H1088 C1094 0.930 . S
H1089 C1097 0.930 . S
H1090 C1098 0.930 . S
H1091 C1099 0.930 . S
H1092 C1102 0.930 . S
H1093 C1103 0.930 . S
C1094 H1088 0.930 . S
C1094 C1095 1.355 1_565 S
C1094 C1096 1.415 . S
C1095 C1094 1.355 1_545 S
C1095 C1097 1.419 . S
C1096 C1094 1.415 . S
C1096 C1101 1.425 1_565 S
C1096 C1103 1.409 . S
C1097 H1089 0.930 . S
C1097 C1095 1.419 . S
C1097 C1098 1.362 . S
C1098 H1090 0.930 . S
C1098 C1097 1.362 . S
C1098 C1101 1.409 . S
C1099 H1091 0.930 . S
C1099 C1100 1.355 1_545 S
C1099 C1101 1.415 . S
C1100 C1099 1.355 1_565 S
C1100 C1102 1.419 . S
C1101 C1096 1.425 1_545 S
C1101 C1098 1.409 . S
C1101 C1099 1.415 . S
C1102 H1092 0.930 . S
C1102 C1100 1.419 . S
C1102 C1103 1.362 . S
C1103 H1093 0.930 . S
C1103 C1096 1.409 . S
C1103 C1102 1.362 . S
H1104 C1110 0.930 . S
H1105 C1113 0.930 . S
H1106 C1114 0.930 . S
H1107 C1115 0.930 . S
H1108 C1118 0.930 . S
H1109 C1119 0.930 . S
C1110 H1104 0.930 . S
C1110 C1111 1.355 . S
C1110 C1112 1.415 . S
C1111 C1110 1.355 . S
C1111 C1113 1.419 . S
C1112 C1110 1.415 . S
C1112 C1117 1.425 . S
C1112 C1119 1.409 . S
C1113 H1105 0.930 . S
C1113 C1111 1.419 . S
C1113 C1114 1.362 . S
C1114 H1106 0.930 . S
C1114 C1113 1.362 . S
C1114 C1117 1.409 . S
C1115 H1107 0.930 . S
C1115 C1116 1.355 . S
C1115 C1117 1.415 . S
C1116 C1115 1.355 . S
C1116 C1118 1.419 . S
C1117 C1112 1.425 . S
C1117 C1114 1.409 . S
C1117 C1115 1.415 . S
C1118 H1108 0.930 . S
C1118 C1116 1.419 . S
C1118 C1119 1.362 . S
C1119 H1109 0.930 . S
C1119 C1112 1.409 . S
C1119 C1118 1.362 . S
H1120 C1126 0.930 . S
H1121 C1129 0.930 . S
H1122 C1130 0.930 . S
H1123 C1131 0.930 . S
H1124 C1134 0.930 . S
H1125 C1135 0.930 . S
C1126 H1120 0.930 . S
C1126 C1127 1.355 1_565 S
C1126 C1128 1.415 . S
C1127 C1126 1.355 1_545 S
C1127 C1129 1.419 . S
C1128 C1126 1.415 . S
C1128 C1133 1.425 1_565 S
C1128 C1135 1.409 . S
C1129 H1121 0.930 . S
C1129 C1127 1.419 . S
C1129 C1130 1.362 . S
C1130 H1122 0.930 . S
C1130 C1129 1.362 . S
C1130 C1133 1.409 . S
C1131 H1123 0.930 . S
C1131 C1132 1.355 1_545 S
C1131 C1133 1.415 . S
C1132 C1131 1.355 1_565 S
C1132 C1134 1.419 . S
C1133 C1128 1.425 1_545 S
C1133 C1130 1.409 . S
C1133 C1131 1.415 . S
C1134 H1124 0.930 . S
C1134 C1132 1.419 . S
C1134 C1135 1.362 . S
C1135 H1125 0.930 . S
C1135 C1128 1.409 . S
C1135 C1134 1.362 . S
H1136 C1142 0.930 . S
H1137 C1145 0.930 . S
H1138 C1146 0.930 . S
H1139 C1147 0.930 . S
H1140 C1150 0.930 . S
H1141 C1151 0.930 . S
C1142 H1136 0.930 . S
C1142 C1143 1.355 . S
C1142 C1144 1.415 . S
C1143 C1142 1.355 . S
C1143 C1145 1.419 . S
C1144 C1142 1.415 . S
C1144 C1149 1.425 1_556 S
C1144 C1151 1.409 1_556 S
C1145 H1137 0.930 . S
C1145 C1143 1.419 . S
C1145 C1146 1.362 . S
C1146 H1138 0.930 . S
C1146 C1145 1.362 . S
C1146 C1149 1.409 1_556 S
C1147 H1139 0.930 . S
C1147 C1148 1.355 . S
C1147 C1149 1.415 . S
C1148 C1147 1.355 . S
C1148 C1150 1.419 . S
C1149 C1144 1.425 1_554 S
C1149 C1146 1.409 1_554 S
C1149 C1147 1.415 . S
C1150 H1140 0.930 . S
C1150 C1148 1.419 . S
C1150 C1151 1.362 . S
C1151 H1141 0.930 . S
C1151 C1144 1.409 1_554 S
C1151 C1150 1.362 . S
H1152 C1158 0.930 . S
H1153 C1161 0.930 . S
H1154 C1162 0.930 . S
H1155 C1163 0.930 . S
H1156 C1166 0.930 . S
H1157 C1167 0.930 . S
C1158 H1152 0.930 . S
C1158 C1159 1.355 1_545 S
C1158 C1160 1.415 . S
C1159 C1158 1.355 1_565 S
C1159 C1161 1.419 . S
C1160 C1158 1.415 . S
C1160 C1165 1.425 1_545 S
C1160 C1167 1.409 . S
C1161 H1153 0.930 . S
C1161 C1159 1.419 . S
C1161 C1162 1.362 . S
C1162 H1154 0.930 . S
C1162 C1161 1.362 . S
C1162 C1165 1.409 . S
C1163 H1155 0.930 . S
C1163 C1164 1.355 1_565 S
C1163 C1165 1.415 . S
C1164 C1163 1.355 1_545 S
C1164 C1166 1.419 . S
C1165 C1160 1.425 1_565 S
C1165 C1162 1.409 . S
C1165 C1163 1.415 . S
C1166 H1156 0.930 . S
C1166 C1164 1.419 . S
C1166 C1167 1.362 . S
C1167 H1157 0.930 . S
C1167 C1160 1.409 . S
C1167 C1166 1.362 . S
H1168 C1174 0.930 . S
H1169 C1177 0.930 . S
H1170 C1178 0.930 . S
H1171 C1179 0.930 . S
H1172 C1182 0.930 . S
H1173 C1183 0.930 . S
C1174 H1168 0.930 . S
C1174 C1175 1.355 . S
C1174 C1176 1.415 . S
C1175 C1174 1.355 . S
C1175 C1177 1.419 . S
C1176 C1174 1.415 . S
C1176 C1181 1.425 . S
C1176 C1183 1.409 . S
C1177 H1169 0.930 . S
C1177 C1175 1.419 . S
C1177 C1178 1.362 . S
C1178 H1170 0.930 . S
C1178 C1177 1.362 . S
C1178 C1181 1.409 . S
C1179 H1171 0.930 . S
C1179 C1180 1.355 . S
C1179 C1181 1.415 . S
C1180 C1179 1.355 . S
C1180 C1182 1.419 . S
C1181 C1176 1.425 . S
C1181 C1178 1.409 . S
C1181 C1179 1.415 . S
C1182 H1172 0.930 . S
C1182 C1180 1.419 . S
C1182 C1183 1.362 . S
C1183 H1173 0.930 . S
C1183 C1176 1.409 . S
C1183 C1182 1.362 . S
H1184 C1190 0.930 . S
H1185 C1193 0.930 . S
H1186 C1194 0.930 . S
H1187 C1195 0.930 . S
H1188 C1198 0.930 . S
H1189 C1199 0.930 . S
C1190 H1184 0.930 . S
C1190 C1191 1.355 1_545 S
C1190 C1192 1.415 . S
C1191 C1190 1.355 1_565 S
C1191 C1193 1.419 . S
C1192 C1190 1.415 . S
C1192 C1197 1.425 1_545 S
C1192 C1199 1.409 . S
C1193 H1185 0.930 . S
C1193 C1191 1.419 . S
C1193 C1194 1.362 . S
C1194 H1186 0.930 . S
C1194 C1193 1.362 . S
C1194 C1197 1.409 . S
C1195 H1187 0.930 . S
C1195 C1196 1.355 1_565 S
C1195 C1197 1.415 . S
C1196 C1195 1.355 1_545 S
C1196 C1198 1.419 . S
C1197 C1192 1.425 1_565 S
C1197 C1194 1.409 . S
C1197 C1195 1.415 . S
C1198 H1188 0.930 . S
C1198 C1196 1.419 . S
C1198 C1199 1.362 . S
C1199 H1189 0.930 . S
C1199 C1192 1.409 . S
C1199 C1198 1.362 . S
H1200 C1206 0.930 . S
H1201 C1209 0.930 . S
H1202 C1210 0.930 . S
H1203 C1211 0.930 . S
H1204 C1214 0.930 . S
H1205 C1215 0.930 . S
C1206 H1200 0.930 . S
C1206 C1207 1.355 . S
C1206 C1208 1.415 . S
C1207 C1206 1.355 . S
C1207 C1209 1.419 . S
C1208 C1206 1.415 . S
C1208 C1213 1.425 1_556 S
C1208 C1215 1.409 1_556 S
C1209 H1201 0.930 . S
C1209 C1207 1.419 . S
C1209 C1210 1.362 . S
C1210 H1202 0.930 . S
C1210 C1209 1.362 . S
C1210 C1213 1.409 1_556 S
C1211 H1203 0.930 . S
C1211 C1212 1.355 . S
C1211 C1213 1.415 . S
C1212 C1211 1.355 . S
C1212 C1214 1.419 . S
C1213 C1208 1.425 1_554 S
C1213 C1210 1.409 1_554 S
C1213 C1211 1.415 . S
C1214 H1204 0.930 . S
C1214 C1212 1.419 . S
C1214 C1215 1.362 . S
C1215 H1205 0.930 . S
C1215 C1208 1.409 1_554 S
C1215 C1214 1.362 . S
H1216 C1222 0.930 . S
H1217 C1225 0.930 . S
H1218 C1226 0.930 . S
H1219 C1227 0.930 . S
H1220 C1230 0.930 . S
H1221 C1231 0.930 . S
C1222 H1216 0.930 . S
C1222 C1223 1.355 . S
C1222 C1224 1.415 . S
C1223 C1222 1.355 . S
C1223 C1225 1.419 . S
C1224 C1222 1.415 . S
C1224 C1229 1.425 . S
C1224 C1231 1.409 . S
C1225 H1217 0.930 . S
C1225 C1223 1.419 . S
C1225 C1226 1.362 . S
C1226 H1218 0.930 . S
C1226 C1225 1.362 . S
C1226 C1229 1.409 . S
C1227 H1219 0.930 . S
C1227 C1228 1.355 . S
C1227 C1229 1.415 . S
C1228 C1227 1.355 . S
C1228 C1230 1.419 . S
C1229 C1224 1.425 . S
C1229 C1226 1.409 . S
C1229 C1227 1.415 . S
C1230 H1220 0.930 . S
C1230 C1228 1.419 . S
C1230 C1231 1.362 . S
C1231 H1221 0.930 . S
C1231 C1224 1.409 . S
C1231 C1230 1.362 . S
H1232 C1238 0.930 . S
H1233 C1241 0.930 . S
H1234 C1242 0.930 . S
H1235 C1243 0.930 . S
H1236 C1246 0.930 . S
H1237 C1247 0.930 . S
C1238 H1232 0.930 . S
C1238 C1239 1.355 . S
C1238 C1240 1.415 . S
C1239 C1238 1.355 . S
C1239 C1241 1.419 . S
C1240 C1238 1.415 . S
C1240 C1245 1.425 1_556 S
C1240 C1247 1.409 1_556 S
C1241 H1233 0.930 . S
C1241 C1239 1.419 . S
C1241 C1242 1.362 . S
C1242 H1234 0.930 . S
C1242 C1241 1.362 . S
C1242 C1245 1.409 1_556 S
C1243 H1235 0.930 . S
C1243 C1244 1.355 . S
C1243 C1245 1.415 . S
C1244 C1243 1.355 . S
C1244 C1246 1.419 . S
C1245 C1240 1.425 1_554 S
C1245 C1242 1.409 1_554 S
C1245 C1243 1.415 . S
C1246 H1236 0.930 . S
C1246 C1244 1.419 . S
C1246 C1247 1.362 . S
C1247 H1237 0.930 . S
C1247 C1240 1.409 1_554 S
C1247 C1246 1.362 . S
H1248 C1254 0.930 . S
H1249 C1257 0.930 . S
H1250 C1258 0.930 . S
H1251 C1259 0.930 . S
H1252 C1262 0.930 . S
H1253 C1263 0.930 . S
C1254 H1248 0.930 . S
C1254 C1255 1.355 . S
C1254 C1256 1.415 . S
C1255 C1254 1.355 . S
C1255 C1257 1.419 . S
C1256 C1254 1.415 . S
C1256 C1261 1.425 . S
C1256 C1263 1.409 . S
C1257 H1249 0.930 . S
C1257 C1255 1.419 . S
C1257 C1258 1.362 . S
C1258 H1250 0.930 . S
C1258 C1257 1.362 . S
C1258 C1261 1.409 . S
C1259 H1251 0.930 . S
C1259 C1260 1.355 . S
C1259 C1261 1.415 . S
C1260 C1259 1.355 . S
C1260 C1262 1.419 . S
C1261 C1256 1.425 . S
C1261 C1258 1.409 . S
C1261 C1259 1.415 . S
C1262 H1252 0.930 . S
C1262 C1260 1.419 . S
C1262 C1263 1.362 . S
C1263 H1253 0.930 . S
C1263 C1256 1.409 . S
C1263 C1262 1.362 . S
H1264 C1270 0.930 . S
H1265 C1273 0.930 . S
H1266 C1274 0.930 . S
H1267 C1275 0.930 . S
H1268 C1278 0.930 . S
H1269 C1279 0.930 . S
C1270 H1264 0.930 . S
C1270 C1271 1.355 . S
C1270 C1272 1.415 . S
C1271 C1270 1.355 . S
C1271 C1273 1.419 . S
C1272 C1270 1.415 . S
C1272 C1277 1.425 . S
C1272 C1279 1.409 . S
C1273 H1265 0.930 . S
C1273 C1271 1.419 . S
C1273 C1274 1.362 . S
C1274 H1266 0.930 . S
C1274 C1273 1.362 . S
C1274 C1277 1.409 . S
C1275 H1267 0.930 . S
C1275 C1276 1.355 . S
C1275 C1277 1.415 . S
C1276 C1275 1.355 . S
C1276 C1278 1.419 . S
C1277 C1272 1.425 . S
C1277 C1274 1.409 . S
C1277 C1275 1.415 . S
C1278 H1268 0.930 . S
C1278 C1276 1.419 . S
C1278 C1279 1.362 . S
C1279 H1269 0.930 . S
C1279 C1272 1.409 . S
C1279 C1278 1.362 . S
H1280 C1286 0.930 . S
H1281 C1289 0.930 . S
H1282 C1290 0.930 . S
H1283 C1291 0.930 . S
H1284 C1294 0.930 . S
H1285 C1295 0.930 . S
C1286 H1280 0.930 . S
C1286 C1287 1.355 . S
C1286 C1288 1.415 . S
C1287 C1286 1.355 . S
C1287 C1289 1.419 . S
C1288 C1286 1.415 . S
C1288 C1293 1.425 . S
C1288 C1295 1.409 . S
C1289 H1281 0.930 . S
C1289 C1287 1.419 . S
C1289 C1290 1.362 . S
C1290 H1282 0.930 . S
C1290 C1289 1.362 . S
C1290 C1293 1.409 . S
C1291 H1283 0.930 . S
C1291 C1292 1.355 . S
C1291 C1293 1.415 . S
C1292 C1291 1.355 . S
C1292 C1294 1.419 . S
C1293 C1288 1.425 . S
C1293 C1290 1.409 . S
C1293 C1291 1.415 . S
C1294 H1284 0.930 . S
C1294 C1292 1.419 . S
C1294 C1295 1.362 . S
C1295 H1285 0.930 . S
C1295 C1288 1.409 . S
C1295 C1294 1.362 . S
H1296 C1302 0.930 . S
H1297 C1305 0.930 . S
H1298 C1306 0.930 . S
H1299 C1307 0.930 . S
H1300 C1310 0.930 . S
H1301 C1311 0.930 . S
C1302 H1296 0.930 . S
C1302 C1303 1.355 . S
C1302 C1304 1.415 . S
C1303 C1302 1.355 . S
C1303 C1305 1.419 . S
C1304 C1302 1.415 . S
C1304 C1309 1.425 1_554 S
C1304 C1311 1.409 1_554 S
C1305 H1297 0.930 . S
C1305 C1303 1.419 . S
C1305 C1306 1.362 . S
C1306 H1298 0.930 . S
C1306 C1305 1.362 . S
C1306 C1309 1.409 1_554 S
C1307 H1299 0.930 . S
C1307 C1308 1.355 . S
C1307 C1309 1.415 . S
C1308 C1307 1.355 . S
C1308 C1310 1.419 . S
C1309 C1304 1.425 1_556 S
C1309 C1306 1.409 1_556 S
C1309 C1307 1.415 . S
C1310 H1300 0.930 . S
C1310 C1308 1.419 . S
C1310 C1311 1.362 . S
C1311 H1301 0.930 . S
C1311 C1304 1.409 1_556 S
C1311 C1310 1.362 . S
H1312 C1318 0.930 . S
H1313 C1321 0.930 . S
H1314 C1322 0.930 . S
H1315 C1323 0.930 . S
H1316 C1326 0.930 . S
H1317 C1327 0.930 . S
C1318 H1312 0.930 . S
C1318 C1319 1.355 . S
C1318 C1320 1.415 . S
C1319 C1318 1.355 . S
C1319 C1321 1.419 . S
C1320 C1318 1.415 . S
C1320 C1325 1.425 . S
C1320 C1327 1.409 . S
C1321 H1313 0.930 . S
C1321 C1319 1.419 . S
C1321 C1322 1.362 . S
C1322 H1314 0.930 . S
C1322 C1321 1.362 . S
C1322 C1325 1.409 . S
C1323 H1315 0.930 . S
C1323 C1324 1.355 . S
C1323 C1325 1.415 . S
C1324 C1323 1.355 . S
C1324 C1326 1.419 . S
C1325 C1320 1.425 . S
C1325 C1322 1.409 . S
C1325 C1323 1.415 . S
C1326 H1316 0.930 . S
C1326 C1324 1.419 . S
C1326 C1327 1.362 . S
C1327 H1317 0.930 . S
C1327 C1320 1.409 . S
C1327 C1326 1.362 . S
H1328 C1334 0.930 . S
H1329 C1337 0.930 . S
H1330 C1338 0.930 . S
H1331 C1339 0.930 . S
H1332 C1342 0.930 . S
H1333 C1343 0.930 . S
C1334 H1328 0.930 . S
C1334 C1335 1.355 . S
C1334 C1336 1.415 . S
C1335 C1334 1.355 . S
C1335 C1337 1.419 . S
C1336 C1334 1.415 . S
C1336 C1341 1.425 . S
C1336 C1343 1.409 . S
C1337 H1329 0.930 . S
C1337 C1335 1.419 . S
C1337 C1338 1.362 . S
C1338 H1330 0.930 . S
C1338 C1337 1.362 . S
C1338 C1341 1.409 . S
C1339 H1331 0.930 . S
C1339 C1340 1.355 . S
C1339 C1341 1.415 . S
C1340 C1339 1.355 . S
C1340 C1342 1.419 . S
C1341 C1336 1.425 . S
C1341 C1338 1.409 . S
C1341 C1339 1.415 . S
C1342 H1332 0.930 . S
C1342 C1340 1.419 . S
C1342 C1343 1.362 . S
C1343 H1333 0.930 . S
C1343 C1336 1.409 . S
C1343 C1342 1.362 . S
H1344 C1350 0.930 . S
H1345 C1353 0.930 . S
H1346 C1354 0.930 . S
H1347 C1355 0.930 . S
H1348 C1358 0.930 . S
H1349 C1359 0.930 . S
C1350 H1344 0.930 . S
C1350 C1351 1.355 . S
C1350 C1352 1.415 1_455 S
C1351 C1350 1.355 . S
C1351 C1353 1.419 . S
C1352 C1350 1.415 1_655 S
C1352 C1357 1.425 1_655 S
C1352 C1359 1.409 . S
C1353 H1345 0.930 . S
C1353 C1351 1.419 . S
C1353 C1354 1.362 . S
C1354 H1346 0.930 . S
C1354 C1353 1.362 . S
C1354 C1357 1.409 . S
C1355 H1347 0.930 . S
C1355 C1356 1.355 . S
C1355 C1357 1.415 1_655 S
C1356 C1355 1.355 . S
C1356 C1358 1.419 . S
C1357 C1352 1.425 1_455 S
C1357 C1354 1.409 . S
C1357 C1355 1.415 1_455 S
C1358 H1348 0.930 . S
C1358 C1356 1.419 . S
C1358 C1359 1.362 . S
C1359 H1349 0.930 . S
C1359 C1352 1.409 . S
C1359 C1358 1.362 . S
H1360 C1366 0.930 . S
H1361 C1369 0.930 . S
H1362 C1370 0.930 . S
H1363 C1371 0.930 . S
H1364 C1374 0.930 . S
H1365 C1375 0.930 . S
C1366 H1360 0.930 . S
C1366 C1367 1.355 . S
C1366 C1368 1.415 1_455 S
C1367 C1366 1.355 . S
C1367 C1369 1.419 . S
C1368 C1366 1.415 1_655 S
C1368 C1373 1.425 1_655 S
C1368 C1375 1.409 . S
C1369 H1361 0.930 . S
C1369 C1367 1.419 . S
C1369 C1370 1.362 . S
C1370 H1362 0.930 . S
C1370 C1369 1.362 . S
C1370 C1373 1.409 . S
C1371 H1363 0.930 . S
C1371 C1372 1.355 . S
C1371 C1373 1.415 1_655 S
C1372 C1371 1.355 . S
C1372 C1374 1.419 . S
C1373 C1368 1.425 1_455 S
C1373 C1370 1.409 . S
C1373 C1371 1.415 1_455 S
C1374 H1364 0.930 . S
C1374 C1372 1.419 . S
C1374 C1375 1.362 . S
C1375 H1365 0.930 . S
C1375 C1368 1.409 . S
C1375 C1374 1.362 . S
H1376 C1382 0.930 . S
H1377 C1385 0.930 . S
H1378 C1386 0.930 . S
H1379 C1387 0.930 . S
H1380 C1390 0.930 . S
H1381 C1391 0.930 . S
C1382 H1376 0.930 . S
C1382 C1383 1.355 . S
C1382 C1384 1.415 . S
C1383 C1382 1.355 . S
C1383 C1385 1.419 . S
C1384 C1382 1.415 . S
C1384 C1389 1.425 . S
C1384 C1391 1.409 . S
C1385 H1377 0.930 . S
C1385 C1383 1.419 . S
C1385 C1386 1.362 . S
C1386 H1378 0.930 . S
C1386 C1385 1.362 . S
C1386 C1389 1.409 . S
C1387 H1379 0.930 . S
C1387 C1388 1.355 . S
C1387 C1389 1.415 . S
C1388 C1387 1.355 . S
C1388 C1390 1.419 . S
C1389 C1384 1.425 . S
C1389 C1386 1.409 . S
C1389 C1387 1.415 . S
C1390 H1380 0.930 . S
C1390 C1388 1.419 . S
C1390 C1391 1.362 . S
C1391 H1381 0.930 . S
C1391 C1384 1.409 . S
C1391 C1390 1.362 . S
H1392 C1398 0.930 . S
H1393 C1401 0.930 . S
H1394 C1402 0.930 . S
H1395 C1403 0.930 . S
H1396 C1406 0.930 . S
H1397 C1407 0.930 . S
C1398 H1392 0.930 . S
C1398 C1399 1.355 . S
C1398 C1400 1.415 . S
C1399 C1398 1.355 . S
C1399 C1401 1.419 . S
C1400 C1398 1.415 . S
C1400 C1405 1.425 . S
C1400 C1407 1.409 . S
C1401 H1393 0.930 . S
C1401 C1399 1.419 . S
C1401 C1402 1.362 . S
C1402 H1394 0.930 . S
C1402 C1401 1.362 . S
C1402 C1405 1.409 . S
C1403 H1395 0.930 . S
C1403 C1404 1.355 . S
C1403 C1405 1.415 . S
C1404 C1403 1.355 . S
C1404 C1406 1.419 . S
C1405 C1400 1.425 . S
C1405 C1402 1.409 . S
C1405 C1403 1.415 . S
C1406 H1396 0.930 . S
C1406 C1404 1.419 . S
C1406 C1407 1.362 . S
C1407 H1397 0.930 . S
C1407 C1400 1.409 . S
C1407 C1406 1.362 . S
H1408 C1414 0.930 . S
H1409 C1417 0.930 . S
H1410 C1418 0.930 . S
H1411 C1419 0.930 . S
H1412 C1422 0.930 . S
H1413 C1423 0.930 . S
C1414 H1408 0.930 . S
C1414 C1415 1.355 . S
C1414 C1416 1.415 . S
C1415 C1414 1.355 . S
C1415 C1417 1.419 . S
C1416 C1414 1.415 . S
C1416 C1421 1.425 1_455 S
C1416 C1423 1.409 . S
C1417 H1409 0.930 . S
C1417 C1415 1.419 . S
C1417 C1418 1.362 1_455 S
C1418 H1410 0.930 . S
C1418 C1417 1.362 1_655 S
C1418 C1421 1.409 . S
C1419 H1411 0.930 . S
C1419 C1420 1.355 . S
C1419 C1421 1.415 . S
C1420 C1419 1.355 . S
C1420 C1422 1.419 . S
C1421 C1416 1.425 1_655 S
C1421 C1418 1.409 . S
C1421 C1419 1.415 . S
C1422 H1412 0.930 . S
C1422 C1420 1.419 . S
C1422 C1423 1.362 1_655 S
C1423 H1413 0.930 . S
C1423 C1416 1.409 . S
C1423 C1422 1.362 1_455 S
H1424 C1430 0.930 . S
H1425 C1433 0.930 . S
H1426 C1434 0.930 . S
H1427 C1435 0.930 . S
H1428 C1438 0.930 . S
H1429 C1439 0.930 . S
C1430 H1424 0.930 . S
C1430 C1431 1.355 . S
C1430 C1432 1.415 . S
C1431 C1430 1.355 . S
C1431 C1433 1.419 . S
C1432 C1430 1.415 . S
C1432 C1437 1.425 . S
C1432 C1439 1.409 . S
C1433 H1425 0.930 . S
C1433 C1431 1.419 . S
C1433 C1434 1.362 . S
C1434 H1426 0.930 . S
C1434 C1433 1.362 . S
C1434 C1437 1.409 . S
C1435 H1427 0.930 . S
C1435 C1436 1.355 . S
C1435 C1437 1.415 . S
C1436 C1435 1.355 . S
C1436 C1438 1.419 . S
C1437 C1432 1.425 . S
C1437 C1434 1.409 . S
C1437 C1435 1.415 . S
C1438 H1428 0.930 . S
C1438 C1436 1.419 . S
C1438 C1439 1.362 . S
C1439 H1429 0.930 . S
C1439 C1432 1.409 . S
C1439 C1438 1.362 . S
H1440 C1446 0.930 . S
H1441 C1449 0.930 . S
H1442 C1450 0.930 . S
H1443 C1451 0.930 . S
H1444 C1454 0.930 . S
H1445 C1455 0.930 . S
C1446 H1440 0.930 . S
C1446 C1447 1.355 . S
C1446 C1448 1.415 . S
C1447 C1446 1.355 . S
C1447 C1449 1.419 . S
C1448 C1446 1.415 . S
C1448 C1453 1.425 . S
C1448 C1455 1.409 . S
C1449 H1441 0.930 . S
C1449 C1447 1.419 . S
C1449 C1450 1.362 . S
C1450 H1442 0.930 . S
C1450 C1449 1.362 . S
C1450 C1453 1.409 . S
C1451 H1443 0.930 . S
C1451 C1452 1.355 . S
C1451 C1453 1.415 . S
C1452 C1451 1.355 . S
C1452 C1454 1.419 . S
C1453 C1448 1.425 . S
C1453 C1450 1.409 . S
C1453 C1451 1.415 . S
C1454 H1444 0.930 . S
C1454 C1452 1.419 . S
C1454 C1455 1.362 . S
C1455 H1445 0.930 . S
C1455 C1448 1.409 . S
C1455 C1454 1.362 . S
H1456 C1462 0.929 . S
H1457 C1465 0.930 . S
H1458 C1466 0.930 . S
H1459 C1467 0.928 1_455 S
H1460 C1470 0.930 . S
H1461 C1471 0.930 . S
C1462 H1456 0.929 . S
C1462 C1463 1.355 . S
C1462 C1464 1.415 1_455 S
C1463 C1462 1.355 . S
C1463 C1465 1.419 . S
C1464 C1462 1.415 1_655 S
C1464 C1469 1.425 1_655 S
C1464 C1471 1.409 . S
C1465 H1457 0.930 . S
C1465 C1463 1.419 . S
C1465 C1466 1.362 . S
C1466 H1458 0.930 . S
C1466 C1465 1.362 . S
C1466 C1469 1.409 . S
C1467 H1459 0.928 1_655 S
C1467 C1468 1.355 . S
C1467 C1469 1.415 1_655 S
C1468 C1467 1.355 . S
C1468 C1470 1.419 . S
C1469 C1464 1.425 1_455 S
C1469 C1466 1.409 . S
C1469 C1467 1.415 1_455 S
C1470 H1460 0.930 . S
C1470 C1468 1.419 . S
C1470 C1471 1.362 . S
C1471 H1461 0.930 . S
C1471 C1464 1.409 . S
C1471 C1470 1.362 . S
H1472 C1478 0.930 . S
H1473 C1481 0.930 . S
H1474 C1482 0.930 . S
H1475 C1483 0.930 . S
H1476 C1486 0.930 . S
H1477 C1487 0.930 . S
C1478 H1472 0.930 . S
C1478 C1479 1.355 . S
C1478 C1480 1.415 1_455 S
C1479 C1478 1.355 . S
C1479 C1481 1.419 . S
C1480 C1478 1.415 1_655 S
C1480 C1485 1.425 1_655 S
C1480 C1487 1.409 . S
C1481 H1473 0.930 . S
C1481 C1479 1.419 . S
C1481 C1482 1.362 . S
C1482 H1474 0.930 . S
C1482 C1481 1.362 . S
C1482 C1485 1.409 . S
C1483 H1475 0.930 . S
C1483 C1484 1.355 . S
C1483 C1485 1.415 1_655 S
C1484 C1483 1.355 . S
C1484 C1486 1.419 . S
C1485 C1480 1.425 1_455 S
C1485 C1482 1.409 . S
C1485 C1483 1.415 1_455 S
C1486 H1476 0.930 . S
C1486 C1484 1.419 . S
C1486 C1487 1.362 . S
C1487 H1477 0.930 . S
C1487 C1480 1.409 . S
C1487 C1486 1.362 . S
H1488 C1494 0.930 . S
H1489 C1497 0.930 . S
H1490 C1498 0.930 1_455 S
H1491 C1499 0.930 . S
H1492 C1502 0.930 . S
H1493 C1503 0.931 . S
C1494 H1488 0.930 . S
C1494 C1495 1.355 . S
C1494 C1496 1.415 . S
C1495 C1494 1.355 . S
C1495 C1497 1.419 . S
C1496 C1494 1.415 . S
C1496 C1501 1.425 1_655 S
C1496 C1503 1.410 . S
C1497 H1489 0.930 . S
C1497 C1495 1.419 . S
C1497 C1498 1.362 . S
C1498 H1490 0.930 1_655 S
C1498 C1497 1.362 . S
C1498 C1501 1.409 1_655 S
C1499 H1491 0.930 . S
C1499 C1500 1.355 . S
C1499 C1501 1.415 . S
C1500 C1499 1.355 . S
C1500 C1502 1.419 . S
C1501 C1496 1.425 1_455 S
C1501 C1498 1.409 1_455 S
C1501 C1499 1.415 . S
C1502 H1492 0.930 . S
C1502 C1500 1.419 . S
C1502 C1503 1.361 1_455 S
C1503 H1493 0.931 . S
C1503 C1496 1.410 . S
C1503 C1502 1.361 1_655 S
H1504 C1510 0.930 . S
H1505 C1513 0.930 . S
H1506 C1514 0.930 . S
H1507 C1515 0.930 . S
H1508 C1518 0.930 . S
H1509 C1519 0.930 . S
C1510 H1504 0.930 . S
C1510 C1511 1.355 . S
C1510 C1512 1.415 . S
C1511 C1510 1.355 . S
C1511 C1513 1.419 . S
C1512 C1510 1.415 . S
C1512 C1517 1.425 . S
C1512 C1519 1.409 . S
C1513 H1505 0.930 . S
C1513 C1511 1.419 . S
C1513 C1514 1.362 . S
C1514 H1506 0.930 . S
C1514 C1513 1.362 . S
C1514 C1517 1.409 . S
C1515 H1507 0.930 . S
C1515 C1516 1.355 . S
C1515 C1517 1.415 . S
C1516 C1515 1.355 . S
C1516 C1518 1.419 . S
C1517 C1512 1.425 . S
C1517 C1514 1.409 . S
C1517 C1515 1.415 . S
C1518 H1508 0.930 . S
C1518 C1516 1.419 . S
C1518 C1519 1.362 . S
C1519 H1509 0.930 . S
C1519 C1512 1.409 . S
C1519 C1518 1.362 . S
H1520 C1526 0.930 . S
H1521 C1529 0.930 . S
H1522 C1530 0.930 . S
H1523 C1531 0.930 . S
H1524 C1534 0.930 . S
H1525 C1535 0.930 . S
C1526 H1520 0.930 . S
C1526 C1527 1.355 . S
C1526 C1528 1.415 . S
C1527 C1526 1.355 . S
C1527 C1529 1.419 . S
C1528 C1526 1.415 . S
C1528 C1533 1.425 . S
C1528 C1535 1.409 . S
C1529 H1521 0.930 . S
C1529 C1527 1.419 . S
C1529 C1530 1.362 . S
C1530 H1522 0.930 . S
C1530 C1529 1.362 . S
C1530 C1533 1.409 . S
C1531 H1523 0.930 . S
C1531 C1532 1.355 . S
C1531 C1533 1.415 . S
C1532 C1531 1.355 . S
C1532 C1534 1.419 . S
C1533 C1528 1.425 . S
C1533 C1530 1.409 . S
C1533 C1531 1.415 . S
C1534 H1524 0.930 . S
C1534 C1532 1.419 . S
C1534 C1535 1.362 . S
C1535 H1525 0.930 . S
C1535 C1528 1.409 . S
C1535 C1534 1.362 . S
H1536 C1542 0.930 . S
H1537 C1545 0.930 . S
H1538 C1546 0.930 . S
H1539 C1547 0.930 . S
H1540 C1550 0.930 . S
H1541 C1551 0.930 . S
C1542 H1536 0.930 . S
C1542 C1543 1.355 . S
C1542 C1544 1.415 1_655 S
C1543 C1542 1.355 . S
C1543 C1545 1.419 . S
C1544 C1542 1.415 1_455 S
C1544 C1549 1.425 1_455 S
C1544 C1551 1.409 . S
C1545 H1537 0.930 . S
C1545 C1543 1.419 . S
C1545 C1546 1.362 . S
C1546 H1538 0.930 . S
C1546 C1545 1.362 . S
C1546 C1549 1.409 . S
C1547 H1539 0.930 . S
C1547 C1548 1.355 . S
C1547 C1549 1.415 1_455 S
C1548 C1547 1.355 . S
C1548 C1550 1.419 . S
C1549 C1544 1.425 1_655 S
C1549 C1546 1.409 . S
C1549 C1547 1.415 1_655 S
C1550 H1540 0.930 . S
C1550 C1548 1.419 . S
C1550 C1551 1.362 . S
C1551 H1541 0.930 . S
C1551 C1544 1.409 . S
C1551 C1550 1.362 . S
H1552 C1558 0.930 . S
H1553 C1561 0.930 . S
H1554 C1562 0.930 . S
H1555 C1563 0.930 . S
H1556 C1566 0.930 . S
H1557 C1567 0.930 . S
C1558 H1552 0.930 . S
C1558 C1559 1.355 . S
C1558 C1560 1.415 . S
C1559 C1558 1.355 . S
C1559 C1561 1.419 . S
C1560 C1558 1.415 . S
C1560 C1565 1.425 . S
C1560 C1567 1.409 . S
C1561 H1553 0.930 . S
C1561 C1559 1.419 . S
C1561 C1562 1.362 . S
C1562 H1554 0.930 . S
C1562 C1561 1.362 . S
C1562 C1565 1.409 . S
C1563 H1555 0.930 . S
C1563 C1564 1.355 . S
C1563 C1565 1.415 . S
C1564 C1563 1.355 . S
C1564 C1566 1.419 . S
C1565 C1560 1.425 . S
C1565 C1562 1.409 . S
C1565 C1563 1.415 . S
C1566 H1556 0.930 . S
C1566 C1564 1.419 . S
C1566 C1567 1.362 . S
C1567 H1557 0.930 . S
C1567 C1560 1.409 . S
C1567 C1566 1.362 . S
H1568 C1574 0.930 . S
H1569 C1577 0.930 . S
H1570 C1578 0.930 . S
H1571 C1579 0.930 . S
H1572 C1582 0.930 . S
H1573 C1583 0.930 . S
C1574 H1568 0.930 . S
C1574 C1575 1.355 . S
C1574 C1576 1.415 . S
C1575 C1574 1.355 . S
C1575 C1577 1.419 . S
C1576 C1574 1.415 . S
C1576 C1581 1.425 . S
C1576 C1583 1.409 . S
C1577 H1569 0.930 . S
C1577 C1575 1.419 . S
C1577 C1578 1.362 . S
C1578 H1570 0.930 . S
C1578 C1577 1.362 . S
C1578 C1581 1.409 . S
C1579 H1571 0.930 . S
C1579 C1580 1.355 . S
C1579 C1581 1.415 . S
C1580 C1579 1.355 . S
C1580 C1582 1.419 . S
C1581 C1576 1.425 . S
C1581 C1578 1.409 . S
C1581 C1579 1.415 . S
C1582 H1572 0.930 . S
C1582 C1580 1.419 . S
C1582 C1583 1.362 . S
C1583 H1573 0.930 . S
C1583 C1576 1.409 . S
C1583 C1582 1.362 . S
H1584 C1590 0.930 . S
H1585 C1593 0.930 . S
H1586 C1594 0.922 1_455 S
H1587 C1595 0.930 . S
H1588 C1598 0.930 . S
H1589 C1599 0.925 1_655 S
C1590 H1584 0.930 . S
C1590 C1591 1.355 . S
C1590 C1592 1.415 . S
C1591 C1590 1.355 . S
C1591 C1593 1.419 . S
C1592 C1590 1.415 . S
C1592 C1597 1.425 1_655 S
C1592 C1599 1.406 1_655 S
C1593 H1585 0.930 . S
C1593 C1591 1.419 . S
C1593 C1594 1.375 . S
C1594 H1586 0.922 1_655 S
C1594 C1593 1.375 . S
C1594 C1597 1.405 1_655 S
C1595 H1587 0.930 . S
C1595 C1596 1.355 . S
C1595 C1597 1.415 . S
C1596 C1595 1.355 . S
C1596 C1598 1.419 . S
C1597 C1592 1.425 1_455 S
C1597 C1594 1.405 1_455 S
C1597 C1595 1.415 . S
C1598 H1588 0.930 . S
C1598 C1596 1.419 . S
C1598 C1599 1.370 . S
C1599 H1589 0.925 1_455 S
C1599 C1592 1.406 1_455 S
C1599 C1598 1.370 . S
H1600 C1606 0.930 1_565 S
H1601 C1609 0.930 . S
H1602 C1610 0.930 . S
H1603 C1611 0.930 . S
H1604 C1614 0.930 . S
H1605 C1615 0.930 . S
C1606 H1600 0.930 1_545 S
C1606 C1607 1.355 . S
C1606 C1608 1.413 1_545 S
C1607 C1606 1.355 . S
C1607 C1609 1.419 . S
C1608 C1606 1.413 1_565 S
C1608 C1613 1.422 1_565 S
C1608 C1615 1.414 . S
C1609 H1601 0.930 . S
C1609 C1607 1.419 . S
C1609 C1610 1.362 . S
C1610 H1602 0.930 . S
C1610 C1609 1.362 . S
C1610 C1613 1.409 . S
C1611 H1603 0.930 . S
C1611 C1612 1.355 1_545 S
C1611 C1613 1.415 . S
C1612 C1611 1.355 1_565 S
C1612 C1614 1.419 . S
C1613 C1608 1.422 1_545 S
C1613 C1610 1.409 . S
C1613 C1611 1.415 . S
C1614 H1604 0.930 . S
C1614 C1612 1.419 . S
C1614 C1615 1.362 . S
C1615 H1605 0.930 . S
C1615 C1608 1.414 . S
C1615 C1614 1.362 . S
H1616 C1622 0.930 . S
H1617 C1625 0.930 . S
H1618 C1626 0.930 . S
H1619 C1627 0.930 . S
H1620 C1630 0.930 . S
H1621 C1631 0.930 . S
C1622 H1616 0.930 . S
C1622 C1623 1.355 . S
C1622 C1624 1.415 . S
C1623 C1622 1.355 . S
C1623 C1625 1.419 . S
C1624 C1622 1.415 . S
C1624 C1629 1.425 . S
C1624 C1631 1.409 . S
C1625 H1617 0.930 . S
C1625 C1623 1.419 . S
C1625 C1626 1.362 . S
C1626 H1618 0.930 . S
C1626 C1625 1.362 . S
C1626 C1629 1.409 . S
C1627 H1619 0.930 . S
C1627 C1628 1.355 . S
C1627 C1629 1.415 . S
C1628 C1627 1.355 . S
C1628 C1630 1.419 . S
C1629 C1624 1.425 . S
C1629 C1626 1.409 . S
C1629 C1627 1.415 . S
C1630 H1620 0.930 . S
C1630 C1628 1.419 . S
C1630 C1631 1.362 . S
C1631 H1621 0.930 . S
C1631 C1624 1.409 . S
C1631 C1630 1.362 . S
H1632 C1638 0.930 . S
H1633 C1641 0.930 . S
H1634 C1642 0.930 . S
H1635 C1643 0.930 1_545 S
H1636 C1646 0.930 . S
H1637 C1647 0.930 . S
C1638 H1632 0.930 . S
C1638 C1639 1.355 1_565 S
C1638 C1640 1.415 . S
C1639 C1638 1.355 1_545 S
C1639 C1641 1.419 . S
C1640 C1638 1.415 . S
C1640 C1645 1.425 1_565 S
C1640 C1647 1.409 . S
C1641 H1633 0.930 . S
C1641 C1639 1.419 . S
C1641 C1642 1.362 . S
C1642 H1634 0.930 . S
C1642 C1641 1.362 . S
C1642 C1645 1.409 . S
C1643 H1635 0.930 1_565 S
C1643 C1644 1.355 . S
C1643 C1645 1.415 1_565 S
C1644 C1643 1.355 . S
C1644 C1646 1.419 . S
C1645 C1640 1.425 1_545 S
C1645 C1642 1.409 . S
C1645 C1643 1.415 1_545 S
C1646 H1636 0.930 . S
C1646 C1644 1.419 . S
C1646 C1647 1.362 . S
C1647 H1637 0.930 . S
C1647 C1640 1.409 . S
C1647 C1646 1.362 . S
H1648 C1654 0.930 . S
H1649 C1657 0.930 . S
H1650 C1658 0.930 . S
H1651 C1659 0.930 . S
H1652 C1662 0.930 . S
H1653 C1663 0.930 . S
C1654 H1648 0.930 . S
C1654 C1655 1.355 . S
C1654 C1656 1.415 . S
C1655 C1654 1.355 . S
C1655 C1657 1.419 . S
C1656 C1654 1.415 . S
C1656 C1661 1.425 . S
C1656 C1663 1.409 . S
C1657 H1649 0.930 . S
C1657 C1655 1.419 . S
C1657 C1658 1.362 . S
C1658 H1650 0.930 . S
C1658 C1657 1.362 . S
C1658 C1661 1.409 . S
C1659 H1651 0.930 . S
C1659 C1660 1.355 . S
C1659 C1661 1.415 . S
C1660 C1659 1.355 . S
C1660 C1662 1.419 . S
C1661 C1656 1.425 . S
C1661 C1658 1.409 . S
C1661 C1659 1.415 . S
C1662 H1652 0.930 . S
C1662 C1660 1.419 . S
C1662 C1663 1.362 . S
C1663 H1653 0.930 . S
C1663 C1656 1.409 . S
C1663 C1662 1.362 . S
H1664 C1670 0.930 . S
H1665 C1673 0.930 . S
H1666 C1674 0.930 . S
H1667 C1675 0.930 . S
H1668 C1678 0.930 . S
H1669 C1679 0.930 . S
C1670 H1664 0.930 . S
C1670 C1671 1.355 1_545 S
C1670 C1672 1.415 . S
C1671 C1670 1.355 1_565 S
C1671 C1673 1.419 . S
C1672 C1670 1.415 . S
C1672 C1677 1.425 1_545 S
C1672 C1679 1.409 . S
C1673 H1665 0.930 . S
C1673 C1671 1.419 . S
C1673 C1674 1.362 . S
C1674 H1666 0.930 . S
C1674 C1673 1.362 . S
C1674 C1677 1.409 . S
C1675 H1667 0.930 . S
C1675 C1676 1.355 1_565 S
C1675 C1677 1.415 . S
C1676 C1675 1.355 1_545 S
C1676 C1678 1.419 . S
C1677 C1672 1.425 1_565 S
C1677 C1674 1.409 . S
C1677 C1675 1.415 . S
C1678 H1668 0.930 . S
C1678 C1676 1.419 . S
C1678 C1679 1.362 . S
C1679 H1669 0.930 . S
C1679 C1672 1.409 . S
C1679 C1678 1.362 . S
H1680 C1686 0.930 . S
H1681 C1689 0.930 . S
H1682 C1690 0.930 . S
H1683 C1691 0.930 . S
H1684 C1694 0.930 . S
H1685 C1695 0.930 . S
C1686 H1680 0.930 . S
C1686 C1687 1.355 . S
C1686 C1688 1.415 . S
C1687 C1686 1.355 . S
C1687 C1689 1.419 . S
C1688 C1686 1.415 . S
C1688 C1693 1.425 . S
C1688 C1695 1.409 . S
C1689 H1681 0.930 . S
C1689 C1687 1.419 . S
C1689 C1690 1.362 . S
C1690 H1682 0.930 . S
C1690 C1689 1.362 . S
C1690 C1693 1.409 . S
C1691 H1683 0.930 . S
C1691 C1692 1.355 . S
C1691 C1693 1.415 . S
C1692 C1691 1.355 . S
C1692 C1694 1.419 . S
C1693 C1688 1.425 . S
C1693 C1690 1.409 . S
C1693 C1691 1.415 . S
C1694 H1684 0.930 . S
C1694 C1692 1.419 . S
C1694 C1695 1.362 . S
C1695 H1685 0.930 . S
C1695 C1688 1.409 . S
C1695 C1694 1.362 . S
H1696 C1702 0.930 . S
H1697 C1705 0.930 . S
H1698 C1706 0.930 . S
H1699 C1707 0.930 . S
H1700 C1710 0.930 . S
H1701 C1711 0.930 . S
C1702 H1696 0.930 . S
C1702 C1703 1.355 . S
C1702 C1704 1.415 . S
C1703 C1702 1.355 . S
C1703 C1705 1.419 1_545 S
C1704 C1702 1.415 . S
C1704 C1709 1.425 1_545 S
C1704 C1711 1.409 . S
C1705 H1697 0.930 . S
C1705 C1703 1.419 1_565 S
C1705 C1706 1.362 . S
C1706 H1698 0.930 . S
C1706 C1705 1.362 . S
C1706 C1709 1.409 . S
C1707 H1699 0.930 . S
C1707 C1708 1.355 . S
C1707 C1709 1.415 . S
C1708 C1707 1.355 . S
C1708 C1710 1.419 1_565 S
C1709 C1704 1.425 1_565 S
C1709 C1706 1.409 . S
C1709 C1707 1.415 . S
C1710 H1700 0.930 . S
C1710 C1708 1.419 1_545 S
C1710 C1711 1.362 . S
C1711 H1701 0.930 . S
C1711 C1704 1.409 . S
C1711 C1710 1.362 . S
H1712 C1718 0.930 . S
H1713 C1721 0.930 . S
H1714 C1722 0.930 . S
H1715 C1723 0.930 . S
H1716 C1726 0.930 . S
H1717 C1727 0.930 . S
C1718 H1712 0.930 . S
C1718 C1719 1.355 . S
C1718 C1720 1.415 . S
C1719 C1718 1.355 . S
C1719 C1721 1.419 . S
C1720 C1718 1.415 . S
C1720 C1725 1.425 . S
C1720 C1727 1.409 . S
C1721 H1713 0.930 . S
C1721 C1719 1.419 . S
C1721 C1722 1.362 . S
C1722 H1714 0.930 . S
C1722 C1721 1.362 . S
C1722 C1725 1.409 . S
C1723 H1715 0.930 . S
C1723 C1724 1.355 . S
C1723 C1725 1.415 . S
C1724 C1723 1.355 . S
C1724 C1726 1.419 . S
C1725 C1720 1.425 . S
C1725 C1722 1.409 . S
C1725 C1723 1.415 . S
C1726 H1716 0.930 . S
C1726 C1724 1.419 . S
C1726 C1727 1.362 . S
C1727 H1717 0.930 . S
C1727 C1720 1.409 . S
C1727 C1726 1.362 . S
H1728 C1734 0.930 . S
H1729 C1737 0.930 . S
H1730 C1738 0.930 . S
H1731 C1739 0.930 . S
H1732 C1742 0.930 . S
H1733 C1743 0.930 . S
C1734 H1728 0.930 . S
C1734 C1735 1.355 . S
C1734 C1736 1.415 . S
C1735 C1734 1.355 . S
C1735 C1737 1.419 1_545 S
C1736 C1734 1.415 . S
C1736 C1741 1.425 1_545 S
C1736 C1743 1.409 . S
C1737 H1729 0.930 . S
C1737 C1735 1.419 1_565 S
C1737 C1738 1.362 . S
C1738 H1730 0.930 . S
C1738 C1737 1.362 . S
C1738 C1741 1.409 . S
C1739 H1731 0.930 . S
C1739 C1740 1.355 . S
C1739 C1741 1.415 . S
C1740 C1739 1.355 . S
C1740 C1742 1.419 1_565 S
C1741 C1736 1.425 1_565 S
C1741 C1738 1.409 . S
C1741 C1739 1.415 . S
C1742 H1732 0.930 . S
C1742 C1740 1.419 1_545 S
C1742 C1743 1.362 . S
C1743 H1733 0.930 . S
C1743 C1736 1.409 . S
C1743 C1742 1.362 . S
H1744 C1750 0.930 . S
H1745 C1753 0.930 . S
H1746 C1754 0.930 . S
H1747 C1755 0.930 . S
H1748 C1758 0.930 . S
H1749 C1759 0.930 . S
C1750 H1744 0.930 . S
C1750 C1751 1.355 . S
C1750 C1752 1.415 . S
C1751 C1750 1.355 . S
C1751 C1753 1.419 . S
C1752 C1750 1.415 . S
C1752 C1757 1.425 . S
C1752 C1759 1.409 . S
C1753 H1745 0.930 . S
C1753 C1751 1.419 . S
C1753 C1754 1.362 . S
C1754 H1746 0.930 . S
C1754 C1753 1.362 . S
C1754 C1757 1.409 . S
C1755 H1747 0.930 . S
C1755 C1756 1.355 . S
C1755 C1757 1.415 . S
C1756 C1755 1.355 . S
C1756 C1758 1.419 . S
C1757 C1752 1.425 . S
C1757 C1754 1.409 . S
C1757 C1755 1.415 . S
C1758 H1748 0.930 . S
C1758 C1756 1.419 . S
C1758 C1759 1.362 . S
C1759 H1749 0.930 . S
C1759 C1752 1.409 . S
C1759 C1758 1.362 . S
H1760 C1766 0.930 . S
H1761 C1769 0.930 . S
H1762 C1770 0.930 . S
H1763 C1771 0.930 . S
H1764 C1774 0.930 . S
H1765 C1775 0.930 . S
C1766 H1760 0.930 . S
C1766 C1767 1.355 1_565 S
C1766 C1768 1.415 . S
C1767 C1766 1.355 1_545 S
C1767 C1769 1.419 . S
C1768 C1766 1.415 . S
C1768 C1773 1.425 1_565 S
C1768 C1775 1.409 . S
C1769 H1761 0.930 . S
C1769 C1767 1.419 . S
C1769 C1770 1.362 . S
C1770 H1762 0.930 . S
C1770 C1769 1.362 . S
C1770 C1773 1.409 . S
C1771 H1763 0.930 . S
C1771 C1772 1.355 1_545 S
C1771 C1773 1.415 . S
C1772 C1771 1.355 1_565 S
C1772 C1774 1.419 . S
C1773 C1768 1.425 1_545 S
C1773 C1770 1.409 . S
C1773 C1771 1.415 . S
C1774 H1764 0.930 . S
C1774 C1772 1.419 . S
C1774 C1775 1.362 . S
C1775 H1765 0.930 . S
C1775 C1768 1.409 . S
C1775 C1774 1.362 . S
H1776 C1782 0.930 . S
H1777 C1785 0.930 . S
H1778 C1786 0.930 . S
H1779 C1787 0.930 . S
H1780 C1790 0.930 . S
H1781 C1791 0.930 . S
C1782 H1776 0.930 . S
C1782 C1783 1.355 . S
C1782 C1784 1.415 . S
C1783 C1782 1.355 . S
C1783 C1785 1.419 . S
C1784 C1782 1.415 . S
C1784 C1789 1.425 . S
C1784 C1791 1.409 . S
C1785 H1777 0.930 . S
C1785 C1783 1.419 . S
C1785 C1786 1.362 . S
C1786 H1778 0.930 . S
C1786 C1785 1.362 . S
C1786 C1789 1.409 . S
C1787 H1779 0.930 . S
C1787 C1788 1.355 . S
C1787 C1789 1.415 . S
C1788 C1787 1.355 . S
C1788 C1790 1.419 . S
C1789 C1784 1.425 . S
C1789 C1786 1.409 . S
C1789 C1787 1.415 . S
C1790 H1780 0.930 . S
C1790 C1788 1.419 . S
C1790 C1791 1.362 . S
C1791 H1781 0.930 . S
C1791 C1784 1.409 . S
C1791 C1790 1.362 . S
H1792 C1798 0.930 . S
H1793 C1801 0.930 . S
H1794 C1802 0.930 . S
H1795 C1803 0.930 . S
H1796 C1806 0.930 . S
H1797 C1807 0.930 . S
C1798 H1792 0.930 . S
C1798 C1799 1.355 . S
C1798 C1800 1.415 . S
C1799 C1798 1.355 . S
C1799 C1801 1.419 1_545 S
C1800 C1798 1.415 . S
C1800 C1805 1.425 1_545 S
C1800 C1807 1.409 . S
C1801 H1793 0.930 . S
C1801 C1799 1.419 1_565 S
C1801 C1802 1.362 . S
C1802 H1794 0.930 . S
C1802 C1801 1.362 . S
C1802 C1805 1.409 . S
C1803 H1795 0.930 . S
C1803 C1804 1.355 . S
C1803 C1805 1.415 . S
C1804 C1803 1.355 . S
C1804 C1806 1.419 1_565 S
C1805 C1800 1.425 1_565 S
C1805 C1802 1.409 . S
C1805 C1803 1.415 . S
C1806 H1796 0.930 . S
C1806 C1804 1.419 1_545 S
C1806 C1807 1.362 . S
C1807 H1797 0.930 . S
C1807 C1800 1.409 . S
C1807 C1806 1.362 . S
H1808 C1814 0.930 . S
H1809 C1817 0.930 . S
H1810 C1818 0.930 . S
H1811 C1819 0.930 . S
H1812 C1822 0.930 . S
H1813 C1823 0.930 . S
C1814 H1808 0.930 . S
C1814 C1815 1.355 . S
C1814 C1816 1.415 . S
C1815 C1814 1.355 . S
C1815 C1817 1.419 . S
C1816 C1814 1.415 . S
C1816 C1821 1.425 . S
C1816 C1823 1.409 . S
C1817 H1809 0.930 . S
C1817 C1815 1.419 . S
C1817 C1818 1.362 . S
C1818 H1810 0.930 . S
C1818 C1817 1.362 . S
C1818 C1821 1.409 . S
C1819 H1811 0.930 . S
C1819 C1820 1.355 . S
C1819 C1821 1.415 . S
C1820 C1819 1.355 . S
C1820 C1822 1.419 . S
C1821 C1816 1.425 . S
C1821 C1818 1.409 . S
C1821 C1819 1.415 . S
C1822 H1812 0.930 . S
C1822 C1820 1.419 . S
C1822 C1823 1.362 . S
C1823 H1813 0.930 . S
C1823 C1816 1.409 . S
C1823 C1822 1.362 . S
H1824 C1830 0.930 . S
H1825 C1833 0.930 . S
H1826 C1834 0.930 . S
H1827 C1835 0.930 . S
H1828 C1838 0.930 . S
H1829 C1839 0.930 . S
C1830 H1824 0.930 . S
C1830 C1831 1.355 . S
C1830 C1832 1.415 . S
C1831 C1830 1.355 . S
C1831 C1833 1.419 1_565 S
C1832 C1830 1.415 . S
C1832 C1837 1.425 1_565 S
C1832 C1839 1.409 . S
C1833 H1825 0.930 . S
C1833 C1831 1.419 1_545 S
C1833 C1834 1.362 . S
C1834 H1826 0.930 . S
C1834 C1833 1.362 . S
C1834 C1837 1.409 . S
C1835 H1827 0.930 . S
C1835 C1836 1.355 . S
C1835 C1837 1.415 . S
C1836 C1835 1.355 . S
C1836 C1838 1.419 1_545 S
C1837 C1832 1.425 1_545 S
C1837 C1834 1.409 . S
C1837 C1835 1.415 . S
C1838 H1828 0.930 . S
C1838 C1836 1.419 1_565 S
C1838 C1839 1.362 . S
C1839 H1829 0.930 . S
C1839 C1832 1.409 . S
C1839 C1838 1.362 . S
H1840 C1846 0.930 . S
H1841 C1849 0.930 . S
H1842 C1850 0.930 . S
H1843 C1851 0.930 . S
H1844 C1854 0.930 . S
H1845 C1855 0.930 . S
C1846 H1840 0.930 . S
C1846 C1847 1.355 . S
C1846 C1848 1.415 . S
C1847 C1846 1.355 . S
C1847 C1849 1.419 . S
C1848 C1846 1.415 . S
C1848 C1853 1.425 . S
C1848 C1855 1.409 . S
C1849 H1841 0.930 . S
C1849 C1847 1.419 . S
C1849 C1850 1.362 . S
C1850 H1842 0.930 . S
C1850 C1849 1.362 . S
C1850 C1853 1.409 . S
C1851 H1843 0.930 . S
C1851 C1852 1.355 . S
C1851 C1853 1.415 . S
C1852 C1851 1.355 . S
C1852 C1854 1.419 . S
C1853 C1848 1.425 . S
C1853 C1850 1.409 . S
C1853 C1851 1.415 . S
C1854 H1844 0.930 . S
C1854 C1852 1.419 . S
C1854 C1855 1.362 . S
C1855 H1845 0.930 . S
C1855 C1848 1.409 . S
C1855 C1854 1.362 . S
H1856 C1862 0.930 . S
H1857 C1865 0.930 . S
H1858 C1866 0.930 . S
H1859 C1867 0.930 . S
H1860 C1870 0.930 . S
H1861 C1871 0.930 . S
C1862 H1856 0.930 . S
C1862 C1863 1.355 . S
C1862 C1864 1.415 . S
C1863 C1862 1.355 . S
C1863 C1865 1.419 . S
C1864 C1862 1.415 . S
C1864 C1869 1.425 . S
C1864 C1871 1.409 . S
C1865 H1857 0.930 . S
C1865 C1863 1.419 . S
C1865 C1866 1.362 . S
C1866 H1858 0.930 . S
C1866 C1865 1.362 . S
C1866 C1869 1.409 . S
C1867 H1859 0.930 . S
C1867 C1868 1.355 . S
C1867 C1869 1.415 . S
C1868 C1867 1.355 . S
C1868 C1870 1.419 . S
C1869 C1864 1.425 . S
C1869 C1866 1.409 . S
C1869 C1867 1.415 . S
C1870 H1860 0.930 . S
C1870 C1868 1.419 . S
C1870 C1871 1.362 . S
C1871 H1861 0.930 . S
C1871 C1864 1.409 . S
C1871 C1870 1.362 . S
H1872 C1878 0.930 . S
H1873 C1881 0.930 . S
H1874 C1882 0.930 . S
H1875 C1883 0.930 . S
H1876 C1886 0.930 . S
H1877 C1887 0.930 . S
C1878 H1872 0.930 . S
C1878 C1879 1.355 . S
C1878 C1880 1.415 . S
C1879 C1878 1.355 . S
C1879 C1881 1.419 . S
C1880 C1878 1.415 . S
C1880 C1885 1.425 . S
C1880 C1887 1.409 . S
C1881 H1873 0.930 . S
C1881 C1879 1.419 . S
C1881 C1882 1.362 . S
C1882 H1874 0.930 . S
C1882 C1881 1.362 . S
C1882 C1885 1.409 . S
C1883 H1875 0.930 . S
C1883 C1884 1.355 . S
C1883 C1885 1.415 . S
C1884 C1883 1.355 . S
C1884 C1886 1.419 . S
C1885 C1880 1.425 . S
C1885 C1882 1.409 . S
C1885 C1883 1.415 . S
C1886 H1876 0.930 . S
C1886 C1884 1.419 . S
C1886 C1887 1.362 . S
C1887 H1877 0.930 . S
C1887 C1880 1.409 . S
C1887 C1886 1.362 . S
H1888 C1894 0.930 . S
H1889 C1897 0.930 . S
H1890 C1898 0.930 . S
H1891 C1899 0.930 . S
H1892 C1902 0.930 . S
H1893 C1903 0.930 . S
C1894 H1888 0.930 . S
C1894 C1895 1.355 . S
C1894 C1896 1.415 . S
C1895 C1894 1.355 . S
C1895 C1897 1.419 . S
C1896 C1894 1.415 . S
C1896 C1901 1.425 . S
C1896 C1903 1.409 . S
C1897 H1889 0.930 . S
C1897 C1895 1.419 . S
C1897 C1898 1.362 . S
C1898 H1890 0.930 . S
C1898 C1897 1.362 . S
C1898 C1901 1.409 . S
C1899 H1891 0.930 . S
C1899 C1900 1.355 . S
C1899 C1901 1.415 . S
C1900 C1899 1.355 . S
C1900 C1902 1.419 . S
C1901 C1896 1.425 . S
C1901 C1898 1.409 . S
C1901 C1899 1.415 . S
C1902 H1892 0.930 . S
C1902 C1900 1.419 . S
C1902 C1903 1.362 . S
C1903 H1893 0.930 . S
C1903 C1896 1.409 . S
C1903 C1902 1.362 . S
H1904 C1910 0.930 . S
H1905 C1913 0.930 . S
H1906 C1914 0.930 . S
H1907 C1915 0.930 . S
H1908 C1918 0.930 . S
H1909 C1919 0.930 . S
C1910 H1904 0.930 . S
C1910 C1911 1.355 . S
C1910 C1912 1.415 . S
C1911 C1910 1.355 . S
C1911 C1913 1.419 . S
C1912 C1910 1.415 . S
C1912 C1917 1.425 . S
C1912 C1919 1.409 . S
C1913 H1905 0.930 . S
C1913 C1911 1.419 . S
C1913 C1914 1.362 . S
C1914 H1906 0.930 . S
C1914 C1913 1.362 . S
C1914 C1917 1.409 . S
C1915 H1907 0.930 . S
C1915 C1916 1.355 . S
C1915 C1917 1.415 . S
C1916 C1915 1.355 . S
C1916 C1918 1.419 . S
C1917 C1912 1.425 . S
C1917 C1914 1.409 . S
C1917 C1915 1.415 . S
C1918 H1908 0.930 . S
C1918 C1916 1.419 . S
C1918 C1919 1.362 . S
C1919 H1909 0.930 . S
C1919 C1912 1.409 . S
C1919 C1918 1.362 . S
H1920 C1926 0.930 . S
H1921 C1929 0.930 . S
H1922 C1930 0.930 . S
H1923 C1931 0.930 . S
H1924 C1934 0.930 . S
H1925 C1935 0.930 . S
C1926 H1920 0.930 . S
C1926 C1927 1.355 . S
C1926 C1928 1.415 . S
C1927 C1926 1.355 . S
C1927 C1929 1.419 . S
C1928 C1926 1.415 . S
C1928 C1933 1.425 . S
C1928 C1935 1.409 . S
C1929 H1921 0.930 . S
C1929 C1927 1.419 . S
C1929 C1930 1.362 . S
C1930 H1922 0.930 . S
C1930 C1929 1.362 . S
C1930 C1933 1.409 . S
C1931 H1923 0.930 . S
C1931 C1932 1.355 . S
C1931 C1933 1.415 . S
C1932 C1931 1.355 . S
C1932 C1934 1.419 . S
C1933 C1928 1.425 . S
C1933 C1930 1.409 . S
C1933 C1931 1.415 . S
C1934 H1924 0.930 . S
C1934 C1932 1.419 . S
C1934 C1935 1.362 . S
C1935 H1925 0.930 . S
C1935 C1928 1.409 . S
C1935 C1934 1.362 . S
H1936 C1942 0.930 . S
H1937 C1945 0.930 . S
H1938 C1946 0.930 . S
H1939 C1947 0.930 . S
H1940 C1950 0.930 . S
H1941 C1951 0.930 . S
C1942 H1936 0.930 . S
C1942 C1943 1.355 . S
C1942 C1944 1.415 . S
C1943 C1942 1.355 . S
C1943 C1945 1.419 . S
C1944 C1942 1.415 . S
C1944 C1949 1.425 . S
C1944 C1951 1.409 . S
C1945 H1937 0.930 . S
C1945 C1943 1.419 . S
C1945 C1946 1.362 . S
C1946 H1938 0.930 . S
C1946 C1945 1.362 . S
C1946 C1949 1.409 . S
C1947 H1939 0.930 . S
C1947 C1948 1.355 . S
C1947 C1949 1.415 . S
C1948 C1947 1.355 . S
C1948 C1950 1.419 . S
C1949 C1944 1.425 . S
C1949 C1946 1.409 . S
C1949 C1947 1.415 . S
C1950 H1940 0.930 . S
C1950 C1948 1.419 . S
C1950 C1951 1.362 . S
C1951 H1941 0.930 . S
C1951 C1944 1.409 . S
C1951 C1950 1.362 . S
H1952 C1958 0.930 . S
H1953 C1961 0.930 . S
H1954 C1962 0.930 . S
H1955 C1963 0.930 . S
H1956 C1966 0.930 . S
H1957 C1967 0.930 . S
C1958 H1952 0.930 . S
C1958 C1959 1.355 . S
C1958 C1960 1.415 . S
C1959 C1958 1.355 . S
C1959 C1961 1.419 . S
C1960 C1958 1.415 . S
C1960 C1965 1.425 . S
C1960 C1967 1.409 . S
C1961 H1953 0.930 . S
C1961 C1959 1.419 . S
C1961 C1962 1.362 . S
C1962 H1954 0.930 . S
C1962 C1961 1.362 . S
C1962 C1965 1.409 . S
C1963 H1955 0.930 . S
C1963 C1964 1.355 . S
C1963 C1965 1.415 . S
C1964 C1963 1.355 . S
C1964 C1966 1.419 . S
C1965 C1960 1.425 . S
C1965 C1962 1.409 . S
C1965 C1963 1.415 . S
C1966 H1956 0.930 . S
C1966 C1964 1.419 . S
C1966 C1967 1.362 . S
C1967 H1957 0.930 . S
C1967 C1960 1.409 . S
C1967 C1966 1.362 . S
H1968 C1974 0.930 . S
H1969 C1977 0.930 . S
H1970 C1978 0.930 . S
H1971 C1979 0.930 . S
H1972 C1982 0.930 . S
H1973 C1983 0.930 . S
C1974 H1968 0.930 . S
C1974 C1975 1.355 . S
C1974 C1976 1.415 . S
C1975 C1974 1.355 . S
C1975 C1977 1.419 . S
C1976 C1974 1.415 . S
C1976 C1981 1.425 . S
C1976 C1983 1.409 . S
C1977 H1969 0.930 . S
C1977 C1975 1.419 . S
C1977 C1978 1.362 . S
C1978 H1970 0.930 . S
C1978 C1977 1.362 . S
C1978 C1981 1.409 . S
C1979 H1971 0.930 . S
C1979 C1980 1.355 . S
C1979 C1981 1.415 . S
C1980 C1979 1.355 . S
C1980 C1982 1.419 . S
C1981 C1976 1.425 . S
C1981 C1978 1.409 . S
C1981 C1979 1.415 . S
C1982 H1972 0.930 . S
C1982 C1980 1.419 . S
C1982 C1983 1.362 . S
C1983 H1973 0.930 . S
C1983 C1976 1.409 . S
C1983 C1982 1.362 . S
H1984 C1990 0.930 . S
H1985 C1993 0.930 . S
H1986 C1994 0.930 . S
H1987 C1995 0.930 . S
H1988 C1998 0.930 . S
H1989 C1999 0.930 . S
C1990 H1984 0.930 . S
C1990 C1991 1.355 . S
C1990 C1992 1.415 . S
C1991 C1990 1.355 . S
C1991 C1993 1.419 . S
C1992 C1990 1.415 . S
C1992 C1997 1.425 . S
C1992 C1999 1.409 . S
C1993 H1985 0.930 . S
C1993 C1991 1.419 . S
C1993 C1994 1.362 . S
C1994 H1986 0.930 . S
C1994 C1993 1.362 . S
C1994 C1997 1.409 . S
C1995 H1987 0.930 . S
C1995 C1996 1.355 . S
C1995 C1997 1.415 . S
C1996 C1995 1.355 . S
C1996 C1998 1.419 . S
C1997 C1992 1.425 . S
C1997 C1994 1.409 . S
C1997 C1995 1.415 . S
C1998 H1988 0.930 . S
C1998 C1996 1.419 . S
C1998 C1999 1.362 . S
C1999 H1989 0.930 . S
C1999 C1992 1.409 . S
C1999 C1998 1.362 . S
H2000 C2006 0.930 . S
H2001 C2009 0.930 . S
H2002 C2010 0.930 . S
H2003 C2011 0.930 . S
H2004 C2014 0.930 . S
H2005 C2015 0.930 . S
C2006 H2000 0.930 . S
C2006 C2007 1.355 . S
C2006 C2008 1.415 . S
C2007 C2006 1.355 . S
C2007 C2009 1.419 . S
C2008 C2006 1.415 . S
C2008 C2013 1.425 . S
C2008 C2015 1.409 . S
C2009 H2001 0.930 . S
C2009 C2007 1.419 . S
C2009 C2010 1.362 . S
C2010 H2002 0.930 . S
C2010 C2009 1.362 . S
C2010 C2013 1.409 . S
C2011 H2003 0.930 . S
C2011 C2012 1.355 . S
C2011 C2013 1.415 . S
C2012 C2011 1.355 . S
C2012 C2014 1.419 . S
C2013 C2008 1.425 . S
C2013 C2010 1.409 . S
C2013 C2011 1.415 . S
C2014 H2004 0.930 . S
C2014 C2012 1.419 . S
C2014 C2015 1.362 . S
C2015 H2005 0.930 . S
C2015 C2008 1.409 . S
C2015 C2014 1.362 . S
H2016 C2022 0.930 . S
H2017 C2025 0.930 . S
H2018 C2026 0.930 . S
H2019 C2027 0.930 . S
H2020 C2030 0.930 . S
H2021 C2031 0.930 . S
C2022 H2016 0.930 . S
C2022 C2023 1.355 . S
C2022 C2024 1.415 . S
C2023 C2022 1.355 . S
C2023 C2025 1.419 . S
C2024 C2022 1.415 . S
C2024 C2029 1.425 . S
C2024 C2031 1.409 . S
C2025 H2017 0.930 . S
C2025 C2023 1.419 . S
C2025 C2026 1.362 . S
C2026 H2018 0.930 . S
C2026 C2025 1.362 . S
C2026 C2029 1.409 . S
C2027 H2019 0.930 . S
C2027 C2028 1.355 . S
C2027 C2029 1.415 . S
C2028 C2027 1.355 . S
C2028 C2030 1.419 . S
C2029 C2024 1.425 . S
C2029 C2026 1.409 . S
C2029 C2027 1.415 . S
C2030 H2020 0.930 . S
C2030 C2028 1.419 . S
C2030 C2031 1.362 . S
C2031 H2021 0.930 . S
C2031 C2024 1.409 . S
C2031 C2030 1.362 . S
H2032 C2038 0.930 . S
H2033 C2041 0.930 . S
H2034 C2042 0.930 . S
H2035 C2043 0.930 . S
H2036 C2046 0.930 . S
H2037 C2047 0.930 . S
C2038 H2032 0.930 . S
C2038 C2039 1.355 . S
C2038 C2040 1.415 . S
C2039 C2038 1.355 . S
C2039 C2041 1.419 . S
C2040 C2038 1.415 . S
C2040 C2045 1.425 . S
C2040 C2047 1.409 . S
C2041 H2033 0.930 . S
C2041 C2039 1.419 . S
C2041 C2042 1.362 . S
C2042 H2034 0.930 . S
C2042 C2041 1.362 . S
C2042 C2045 1.409 . S
C2043 H2035 0.930 . S
C2043 C2044 1.355 . S
C2043 C2045 1.415 . S
C2044 C2043 1.355 . S
C2044 C2046 1.419 . S
C2045 C2040 1.425 . S
C2045 C2042 1.409 . S
C2045 C2043 1.415 . S
C2046 H2036 0.930 . S
C2046 C2044 1.419 . S
C2046 C2047 1.362 . S
C2047 H2037 0.930 . S
C2047 C2040 1.409 . S
C2047 C2046 1.362 . S
H2048 C2054 0.930 . S
H2049 C2057 0.930 . S
H2050 C2058 0.930 . S
H2051 C2059 0.930 . S
H2052 C2062 0.930 . S
H2053 C2063 0.930 . S
C2054 H2048 0.930 . S
C2054 C2055 1.355 . S
C2054 C2056 1.415 . S
C2055 C2054 1.355 . S
C2055 C2057 1.419 . S
C2056 C2054 1.415 . S
C2056 C2061 1.425 . S
C2056 C2063 1.409 . S
C2057 H2049 0.930 . S
C2057 C2055 1.419 . S
C2057 C2058 1.362 . S
C2058 H2050 0.930 . S
C2058 C2057 1.362 . S
C2058 C2061 1.409 . S
C2059 H2051 0.930 . S
C2059 C2060 1.355 . S
C2059 C2061 1.415 . S
C2060 C2059 1.355 . S
C2060 C2062 1.419 . S
C2061 C2056 1.425 . S
C2061 C2058 1.409 . S
C2061 C2059 1.415 . S
C2062 H2052 0.930 . S
C2062 C2060 1.419 . S
C2062 C2063 1.362 . S
C2063 H2053 0.930 . S
C2063 C2056 1.409 . S
C2063 C2062 1.362 . S
H2064 C2070 0.930 . S
H2065 C2073 0.930 . S
H2066 C2074 0.930 . S
H2067 C2075 0.930 . S
H2068 C2078 0.930 . S
H2069 C2079 0.930 . S
C2070 H2064 0.930 . S
C2070 C2071 1.355 . S
C2070 C2072 1.415 . S
C2071 C2070 1.355 . S
C2071 C2073 1.419 . S
C2072 C2070 1.415 . S
C2072 C2077 1.425 . S
C2072 C2079 1.409 . S
C2073 H2065 0.930 . S
C2073 C2071 1.419 . S
C2073 C2074 1.362 . S
C2074 H2066 0.930 . S
C2074 C2073 1.362 . S
C2074 C2077 1.409 . S
C2075 H2067 0.930 . S
C2075 C2076 1.355 . S
C2075 C2077 1.415 . S
C2076 C2075 1.355 . S
C2076 C2078 1.419 . S
C2077 C2072 1.425 . S
C2077 C2074 1.409 . S
C2077 C2075 1.415 . S
C2078 H2068 0.930 . S
C2078 C2076 1.419 . S
C2078 C2079 1.362 . S
C2079 H2069 0.930 . S
C2079 C2072 1.409 . S
C2079 C2078 1.362 . S
H2080 C2086 0.930 . S
H2081 C2089 0.930 . S
H2082 C2090 0.930 . S
H2083 C2091 0.930 . S
H2084 C2094 0.930 . S
H2085 C2095 0.930 . S
C2086 H2080 0.930 . S
C2086 C2087 1.355 . S
C2086 C2088 1.415 . S
C2087 C2086 1.355 . S
C2087 C2089 1.419 . S
C2088 C2086 1.415 . S
C2088 C2093 1.425 . S
C2088 C2095 1.409 . S
C2089 H2081 0.930 . S
C2089 C2087 1.419 . S
C2089 C2090 1.362 . S
C2090 H2082 0.930 . S
C2090 C2089 1.362 . S
C2090 C2093 1.409 . S
C2091 H2083 0.930 . S
C2091 C2092 1.355 . S
C2091 C2093 1.415 . S
C2092 C2091 1.355 . S
C2092 C2094 1.419 . S
C2093 C2088 1.425 . S
C2093 C2090 1.409 . S
C2093 C2091 1.415 . S
C2094 H2084 0.930 . S
C2094 C2092 1.419 . S
C2094 C2095 1.362 . S
C2095 H2085 0.930 . S
C2095 C2088 1.409 . S
C2095 C2094 1.362 . S
H2096 C2102 0.930 . S
H2097 C2105 0.930 . S
H2098 C2106 0.930 . S
H2099 C2107 0.930 . S
H2100 C2110 0.930 . S
H2101 C2111 0.930 . S
C2102 H2096 0.930 . S
C2102 C2103 1.355 . S
C2102 C2104 1.415 . S
C2103 C2102 1.355 . S
C2103 C2105 1.419 . S
C2104 C2102 1.415 . S
C2104 C2109 1.425 . S
C2104 C2111 1.409 . S
C2105 H2097 0.930 . S
C2105 C2103 1.419 . S
C2105 C2106 1.362 . S
C2106 H2098 0.930 . S
C2106 C2105 1.362 . S
C2106 C2109 1.409 . S
C2107 H2099 0.930 . S
C2107 C2108 1.355 . S
C2107 C2109 1.415 . S
C2108 C2107 1.355 . S
C2108 C2110 1.419 . S
C2109 C2104 1.425 . S
C2109 C2106 1.409 . S
C2109 C2107 1.415 . S
C2110 H2100 0.930 . S
C2110 C2108 1.419 . S
C2110 C2111 1.362 . S
C2111 H2101 0.930 . S
C2111 C2104 1.409 . S
C2111 C2110 1.362 . S
H2112 C2118 0.930 . S
H2113 C2121 0.930 . S
H2114 C2122 0.930 . S
H2115 C2123 0.930 . S
H2116 C2126 0.930 . S
H2117 C2127 0.930 . S
C2118 H2112 0.930 . S
C2118 C2119 1.355 . S
C2118 C2120 1.415 . S
C2119 C2118 1.355 . S
C2119 C2121 1.419 . S
C2120 C2118 1.415 . S
C2120 C2125 1.425 . S
C2120 C2127 1.409 . S
C2121 H2113 0.930 . S
C2121 C2119 1.419 . S
C2121 C2122 1.362 . S
C2122 H2114 0.930 . S
C2122 C2121 1.362 . S
C2122 C2125 1.409 . S
C2123 H2115 0.930 . S
C2123 C2124 1.355 . S
C2123 C2125 1.415 . S
C2124 C2123 1.355 . S
C2124 C2126 1.419 . S
C2125 C2120 1.425 . S
C2125 C2122 1.409 . S
C2125 C2123 1.415 . S
C2126 H2116 0.930 . S
C2126 C2124 1.419 . S
C2126 C2127 1.362 . S
C2127 H2117 0.930 . S
C2127 C2120 1.409 . S
C2127 C2126 1.362 . S
H2128 C2134 0.930 . S
H2129 C2137 0.930 1_545 S
H2130 C2138 0.930 1_545 S
H2131 C2139 0.930 . S
H2132 C2142 0.930 . S
H2133 C2143 0.930 . S
C2134 H2128 0.930 . S
C2134 C2135 1.355 . S
C2134 C2136 1.415 . S
C2135 C2134 1.355 . S
C2135 C2137 1.419 . S
C2136 C2134 1.415 . S
C2136 C2141 1.425 . S
C2136 C2143 1.409 . S
C2137 H2129 0.930 1_565 S
C2137 C2135 1.419 . S
C2137 C2138 1.362 . S
C2138 H2130 0.930 1_565 S
C2138 C2137 1.362 . S
C2138 C2141 1.409 . S
C2139 H2131 0.930 . S
C2139 C2140 1.355 . S
C2139 C2141 1.415 . S
C2140 C2139 1.355 . S
C2140 C2142 1.419 . S
C2141 C2136 1.425 . S
C2141 C2138 1.409 . S
C2141 C2139 1.415 . S
C2142 H2132 0.930 . S
C2142 C2140 1.419 . S
C2142 C2143 1.362 . S
C2143 H2133 0.930 . S
C2143 C2136 1.409 . S
C2143 C2142 1.362 . S
H2144 C2150 0.930 . S
H2145 C2153 0.930 . S
H2146 C2154 0.930 . S
H2147 C2155 0.930 . S
H2148 C2158 0.930 . S
H2149 C2159 0.930 . S
C2150 H2144 0.930 . S
C2150 C2151 1.355 . S
C2150 C2152 1.415 . S
C2151 C2150 1.355 . S
C2151 C2153 1.419 . S
C2152 C2150 1.415 . S
C2152 C2157 1.425 . S
C2152 C2159 1.409 . S
C2153 H2145 0.930 . S
C2153 C2151 1.419 . S
C2153 C2154 1.362 . S
C2154 H2146 0.930 . S
C2154 C2153 1.362 . S
C2154 C2157 1.409 . S
C2155 H2147 0.930 . S
C2155 C2156 1.355 . S
C2155 C2157 1.415 . S
C2156 C2155 1.355 . S
C2156 C2158 1.419 . S
C2157 C2152 1.425 . S
C2157 C2154 1.409 . S
C2157 C2155 1.415 . S
C2158 H2148 0.930 . S
C2158 C2156 1.419 . S
C2158 C2159 1.362 . S
C2159 H2149 0.930 . S
C2159 C2152 1.409 . S
C2159 C2158 1.362 . S
H2160 C2166 0.930 . S
H2161 C2169 0.930 . S
H2162 C2170 0.930 . S
H2163 C2171 0.930 . S
H2164 C2174 0.930 . S
H2165 C2175 0.930 . S
C2166 H2160 0.930 . S
C2166 C2167 1.355 . S
C2166 C2168 1.415 . S
C2167 C2166 1.355 . S
C2167 C2169 1.419 . S
C2168 C2166 1.415 . S
C2168 C2173 1.425 . S
C2168 C2175 1.409 . S
C2169 H2161 0.930 . S
C2169 C2167 1.419 . S
C2169 C2170 1.362 . S
C2170 H2162 0.930 . S
C2170 C2169 1.362 . S
C2170 C2173 1.409 . S
C2171 H2163 0.930 . S
C2171 C2172 1.355 . S
C2171 C2173 1.415 . S
C2172 C2171 1.355 . S
C2172 C2174 1.419 . S
C2173 C2168 1.425 . S
C2173 C2170 1.409 . S
C2173 C2171 1.415 . S
C2174 H2164 0.930 . S
C2174 C2172 1.419 . S
C2174 C2175 1.362 . S
C2175 H2165 0.930 . S
C2175 C2168 1.409 . S
C2175 C2174 1.362 . S
H2176 C2182 0.930 . S
H2177 C2185 0.930 . S
H2178 C2186 0.930 . S
H2179 C2187 0.930 . S
H2180 C2190 0.930 1_545 S
H2181 C2191 0.930 . S
C2182 H2176 0.930 . S
C2182 C2183 1.355 . S
C2182 C2184 1.415 . S
C2183 C2182 1.355 . S
C2183 C2185 1.419 . S
C2184 C2182 1.415 . S
C2184 C2189 1.425 . S
C2184 C2191 1.409 . S
C2185 H2177 0.930 . S
C2185 C2183 1.419 . S
C2185 C2186 1.362 . S
C2186 H2178 0.930 . S
C2186 C2185 1.362 . S
C2186 C2189 1.409 . S
C2187 H2179 0.930 . S
C2187 C2188 1.355 . S
C2187 C2189 1.415 . S
C2188 C2187 1.355 . S
C2188 C2190 1.419 . S
C2189 C2184 1.425 . S
C2189 C2186 1.409 . S
C2189 C2187 1.415 . S
C2190 H2180 0.930 1_565 S
C2190 C2188 1.419 . S
C2190 C2191 1.362 . S
C2191 H2181 0.930 . S
C2191 C2184 1.409 . S
C2191 C2190 1.362 . S
H2192 C2198 0.930 . S
H2193 C2201 0.930 . S
H2194 C2202 0.930 . S
H2195 C2203 0.930 . S
H2196 C2206 0.930 . S
H2197 C2207 0.930 . S
C2198 H2192 0.930 . S
C2198 C2199 1.355 . S
C2198 C2200 1.415 . S
C2199 C2198 1.355 . S
C2199 C2201 1.419 . S
C2200 C2198 1.415 . S
C2200 C2205 1.425 . S
C2200 C2207 1.409 . S
C2201 H2193 0.930 . S
C2201 C2199 1.419 . S
C2201 C2202 1.362 . S
C2202 H2194 0.930 . S
C2202 C2201 1.362 . S
C2202 C2205 1.409 . S
C2203 H2195 0.930 . S
C2203 C2204 1.355 . S
C2203 C2205 1.415 . S
C2204 C2203 1.355 . S
C2204 C2206 1.419 . S
C2205 C2200 1.425 . S
C2205 C2202 1.409 . S
C2205 C2203 1.415 . S
C2206 H2196 0.930 . S
C2206 C2204 1.419 . S
C2206 C2207 1.362 . S
C2207 H2197 0.930 . S
C2207 C2200 1.409 . S
C2207 C2206 1.362 . S
H2208 C2214 0.930 . S
H2209 C2217 0.930 . S
H2210 C2218 0.930 . S
H2211 C2219 0.930 . S
H2212 C2222 0.930 . S
H2213 C2223 0.930 . S
C2214 H2208 0.930 . S
C2214 C2215 1.355 . S
C2214 C2216 1.415 . S
C2215 C2214 1.355 . S
C2215 C2217 1.419 . S
C2216 C2214 1.415 . S
C2216 C2221 1.425 . S
C2216 C2223 1.409 . S
C2217 H2209 0.930 . S
C2217 C2215 1.419 . S
C2217 C2218 1.362 . S
C2218 H2210 0.930 . S
C2218 C2217 1.362 . S
C2218 C2221 1.409 . S
C2219 H2211 0.930 . S
C2219 C2220 1.355 . S
C2219 C2221 1.415 . S
C2220 C2219 1.355 . S
C2220 C2222 1.419 . S
C2221 C2216 1.425 . S
C2221 C2218 1.409 . S
C2221 C2219 1.415 . S
C2222 H2212 0.930 . S
C2222 C2220 1.419 . S
C2222 C2223 1.362 . S
C2223 H2213 0.930 . S
C2223 C2216 1.409 . S
C2223 C2222 1.362 . S
H2224 C2230 0.930 . S
H2225 C2233 0.930 . S
H2226 C2234 0.930 . S
H2227 C2235 0.930 . S
H2228 C2238 0.930 . S
H2229 C2239 0.930 . S
C2230 H2224 0.930 . S
C2230 C2231 1.355 . S
C2230 C2232 1.415 . S
C2231 C2230 1.355 . S
C2231 C2233 1.419 . S
C2232 C2230 1.415 . S
C2232 C2237 1.425 . S
C2232 C2239 1.409 . S
C2233 H2225 0.930 . S
C2233 C2231 1.419 . S
C2233 C2234 1.362 . S
C2234 H2226 0.930 . S
C2234 C2233 1.362 . S
C2234 C2237 1.409 . S
C2235 H2227 0.930 . S
C2235 C2236 1.355 . S
C2235 C2237 1.415 . S
C2236 C2235 1.355 . S
C2236 C2238 1.419 . S
C2237 C2232 1.425 . S
C2237 C2234 1.409 . S
C2237 C2235 1.415 . S
C2238 H2228 0.930 . S
C2238 C2236 1.419 . S
C2238 C2239 1.362 . S
C2239 H2229 0.930 . S
C2239 C2232 1.409 . S
C2239 C2238 1.362 . S
H2240 C2246 0.930 . S
H2241 C2249 0.930 . S
H2242 C2250 0.930 . S
H2243 C2251 0.930 . S
H2244 C2254 0.930 . S
H2245 C2255 0.930 . S
C2246 H2240 0.930 . S
C2246 C2247 1.355 . S
C2246 C2248 1.415 . S
C2247 C2246 1.355 . S
C2247 C2249 1.419 . S
C2248 C2246 1.415 . S
C2248 C2253 1.425 . S
C2248 C2255 1.409 . S
C2249 H2241 0.930 . S
C2249 C2247 1.419 . S
C2249 C2250 1.362 . S
C2250 H2242 0.930 . S
C2250 C2249 1.362 . S
C2250 C2253 1.409 . S
C2251 H2243 0.930 . S
C2251 C2252 1.355 . S
C2251 C2253 1.415 . S
C2252 C2251 1.355 . S
C2252 C2254 1.419 . S
C2253 C2248 1.425 . S
C2253 C2250 1.409 . S
C2253 C2251 1.415 . S
C2254 H2244 0.930 . S
C2254 C2252 1.419 . S
C2254 C2255 1.362 . S
C2255 H2245 0.930 . S
C2255 C2248 1.409 . S
C2255 C2254 1.362 . S
H2256 C2262 0.930 . S
H2257 C2265 0.930 . S
H2258 C2266 0.930 . S
H2259 C2267 0.930 . S
H2260 C2270 0.930 . S
H2261 C2271 0.930 . S
C2262 H2256 0.930 . S
C2262 C2263 1.355 . S
C2262 C2264 1.415 . S
C2263 C2262 1.355 . S
C2263 C2265 1.419 . S
C2264 C2262 1.415 . S
C2264 C2269 1.425 . S
C2264 C2271 1.409 . S
C2265 H2257 0.930 . S
C2265 C2263 1.419 . S
C2265 C2266 1.362 . S
C2266 H2258 0.930 . S
C2266 C2265 1.362 . S
C2266 C2269 1.409 . S
C2267 H2259 0.930 . S
C2267 C2268 1.355 . S
C2267 C2269 1.415 . S
C2268 C2267 1.355 . S
C2268 C2270 1.419 . S
C2269 C2264 1.425 . S
C2269 C2266 1.409 . S
C2269 C2267 1.415 . S
C2270 H2260 0.930 . S
C2270 C2268 1.419 . S
C2270 C2271 1.362 . S
C2271 H2261 0.930 . S
C2271 C2264 1.409 . S
C2271 C2270 1.362 . S
H2272 C2278 0.930 . S
H2273 C2281 0.930 . S
H2274 C2282 0.930 . S
H2275 C2283 0.930 . S
H2276 C2286 0.930 . S
H2277 C2287 0.930 . S
C2278 H2272 0.930 . S
C2278 C2279 1.355 . S
C2278 C2280 1.415 . S
C2279 C2278 1.355 . S
C2279 C2281 1.419 . S
C2280 C2278 1.415 . S
C2280 C2285 1.425 . S
C2280 C2287 1.409 . S
C2281 H2273 0.930 . S
C2281 C2279 1.419 . S
C2281 C2282 1.362 . S
C2282 H2274 0.930 . S
C2282 C2281 1.362 . S
C2282 C2285 1.409 . S
C2283 H2275 0.930 . S
C2283 C2284 1.355 . S
C2283 C2285 1.415 . S
C2284 C2283 1.355 . S
C2284 C2286 1.419 . S
C2285 C2280 1.425 . S
C2285 C2282 1.409 . S
C2285 C2283 1.415 . S
C2286 H2276 0.930 . S
C2286 C2284 1.419 . S
C2286 C2287 1.362 . S
C2287 H2277 0.930 . S
C2287 C2280 1.409 . S
C2287 C2286 1.362 . S
H2288 C2294 0.930 . S
H2289 C2297 0.930 . S
H2290 C2298 0.930 . S
H2291 C2299 0.930 . S
H2292 C2302 0.930 . S
H2293 C2303 0.930 . S
C2294 H2288 0.930 . S
C2294 C2295 1.355 . S
C2294 C2296 1.415 . S
C2295 C2294 1.355 . S
C2295 C2297 1.419 . S
C2296 C2294 1.415 . S
C2296 C2301 1.425 . S
C2296 C2303 1.409 . S
C2297 H2289 0.930 . S
C2297 C2295 1.419 . S
C2297 C2298 1.362 . S
C2298 H2290 0.930 . S
C2298 C2297 1.362 . S
C2298 C2301 1.409 . S
C2299 H2291 0.930 . S
C2299 C2300 1.355 . S
C2299 C2301 1.415 . S
C2300 C2299 1.355 . S
C2300 C2302 1.419 . S
C2301 C2296 1.425 . S
C2301 C2298 1.409 . S
C2301 C2299 1.415 . S
C2302 H2292 0.930 . S
C2302 C2300 1.419 . S
C2302 C2303 1.362 . S
C2303 H2293 0.930 . S
C2303 C2296 1.409 . S
C2303 C2302 1.362 . S
H2304 C2310 0.930 . S
H2305 C2313 0.930 . S
H2306 C2314 0.930 . S
H2307 C2315 0.930 . S
H2308 C2318 0.930 . S
H2309 C2319 0.930 . S
C2310 H2304 0.930 . S
C2310 C2311 1.355 . S
C2310 C2312 1.415 . S
C2311 C2310 1.355 . S
C2311 C2313 1.419 . S
C2312 C2310 1.415 . S
C2312 C2317 1.425 . S
C2312 C2319 1.409 . S
C2313 H2305 0.930 . S
C2313 C2311 1.419 . S
C2313 C2314 1.362 . S
C2314 H2306 0.930 . S
C2314 C2313 1.362 . S
C2314 C2317 1.409 . S
C2315 H2307 0.930 . S
C2315 C2316 1.355 . S
C2315 C2317 1.415 . S
C2316 C2315 1.355 . S
C2316 C2318 1.419 . S
C2317 C2312 1.425 . S
C2317 C2314 1.409 . S
C2317 C2315 1.415 . S
C2318 H2308 0.930 . S
C2318 C2316 1.419 . S
C2318 C2319 1.362 . S
C2319 H2309 0.930 . S
C2319 C2312 1.409 . S
C2319 C2318 1.362 . S
H2320 C2326 0.930 . S
H2321 C2329 0.930 . S
H2322 C2330 0.930 . S
H2323 C2331 0.930 . S
H2324 C2334 0.930 . S
H2325 C2335 0.930 . S
C2326 H2320 0.930 . S
C2326 C2327 1.355 . S
C2326 C2328 1.415 . S
C2327 C2326 1.355 . S
C2327 C2329 1.419 . S
C2328 C2326 1.415 . S
C2328 C2333 1.425 . S
C2328 C2335 1.409 . S
C2329 H2321 0.930 . S
C2329 C2327 1.419 . S
C2329 C2330 1.362 . S
C2330 H2322 0.930 . S
C2330 C2329 1.362 . S
C2330 C2333 1.409 . S
C2331 H2323 0.930 . S
C2331 C2332 1.355 . S
C2331 C2333 1.415 . S
C2332 C2331 1.355 . S
C2332 C2334 1.419 . S
C2333 C2328 1.425 . S
C2333 C2330 1.409 . S
C2333 C2331 1.415 . S
C2334 H2324 0.930 . S
C2334 C2332 1.419 . S
C2334 C2335 1.362 . S
C2335 H2325 0.930 . S
C2335 C2328 1.409 . S
C2335 C2334 1.362 . S
H2336 C2342 0.930 . S
H2337 C2345 0.930 . S
H2338 C2346 0.930 . S
H2339 C2347 0.930 . S
H2340 C2350 0.930 . S
H2341 C2351 0.930 . S
C2342 H2336 0.930 . S
C2342 C2343 1.355 . S
C2342 C2344 1.415 . S
C2343 C2342 1.355 . S
C2343 C2345 1.419 . S
C2344 C2342 1.415 . S
C2344 C2349 1.425 . S
C2344 C2351 1.409 . S
C2345 H2337 0.930 . S
C2345 C2343 1.419 . S
C2345 C2346 1.362 . S
C2346 H2338 0.930 . S
C2346 C2345 1.362 . S
C2346 C2349 1.409 . S
C2347 H2339 0.930 . S
C2347 C2348 1.355 . S
C2347 C2349 1.415 . S
C2348 C2347 1.355 . S
C2348 C2350 1.419 . S
C2349 C2344 1.425 . S
C2349 C2346 1.409 . S
C2349 C2347 1.415 . S
C2350 H2340 0.930 . S
C2350 C2348 1.419 . S
C2350 C2351 1.362 . S
C2351 H2341 0.930 . S
C2351 C2344 1.409 . S
C2351 C2350 1.362 . S
H2352 C2358 0.930 . S
H2353 C2361 0.930 . S
H2354 C2362 0.930 . S
H2355 C2363 0.930 . S
H2356 C2366 0.930 . S
H2357 C2367 0.930 . S
C2358 H2352 0.930 . S
C2358 C2359 1.355 . S
C2358 C2360 1.415 . S
C2359 C2358 1.355 . S
C2359 C2361 1.419 . S
C2360 C2358 1.415 . S
C2360 C2365 1.425 . S
C2360 C2367 1.409 . S
C2361 H2353 0.930 . S
C2361 C2359 1.419 . S
C2361 C2362 1.362 . S
C2362 H2354 0.930 . S
C2362 C2361 1.362 . S
C2362 C2365 1.409 . S
C2363 H2355 0.930 . S
C2363 C2364 1.355 . S
C2363 C2365 1.415 . S
C2364 C2363 1.355 . S
C2364 C2366 1.419 . S
C2365 C2360 1.425 . S
C2365 C2362 1.409 . S
C2365 C2363 1.415 . S
C2366 H2356 0.930 . S
C2366 C2364 1.419 . S
C2366 C2367 1.362 . S
C2367 H2357 0.930 . S
C2367 C2360 1.409 . S
C2367 C2366 1.362 . S
C1095 C145 1.455 1_545 S
C1100 C9 1.458 1_565 S
C1111 C43 1.407 . S
C1116 C179 1.394 . S
C1127 C77 1.458 1_545 S
C1132 C213 1.459 1_565 S
C1143 C111 1.452 . S
C1148 C247 1.445 . S
C1159 C281 1.375 . S
C1164 C417 1.366 . S
C1175 C451 1.379 . S
C1180 C315 1.369 . S
C1191 C349 1.449 1_565 S
C1196 C485 1.440 1_545 S
C1207 C519 1.456 . S
C1212 C383 1.450 . S
C1223 C553 1.428 . S
C1228 C689 1.415 . S
C1239 C587 1.358 . S
C1244 C723 1.363 . S
C1255 C757 1.452 . S
C1260 C621 1.457 . S
C1271 C791 1.454 . S
C1276 C655 1.458 . S
C1287 C825 1.459 . S
C1292 C961 1.458 . S
C1303 C859 1.447 . S
C1308 C995 1.454 . S
C1319 C1029 1.360 . S
C1324 C893 1.357 . S
C1335 C927 1.458 . S
C1340 C1063 1.452 . S
C1351 C33 0.865 . S
C1356 C645 0.860 . S
C1367 C67 0.743 . S
C1372 C679 0.752 . S
C1383 C101 0.867 . S
C1388 C577 0.863 . S
C1399 C135 0.751 . S
C1404 C611 0.760 . S
C1415 C169 0.733 . S
C1420 C781 0.738 . S
C1431 C815 0.844 . S
C1436 C203 0.834 . S
C1447 C237 0.863 . S
C1452 C713 0.866 . S
C1463 C271 0.731 . S
C1468 C747 0.733 . S
C1479 C917 0.861 . S
C1484 C305 0.865 . S
C1495 C339 0.849 . S
C1500 C951 0.840 . S
C1511 C849 0.733 . S
C1516 C373 0.737 . S
C1527 C407 0.868 . S
C1532 C883 0.865 . S
C1543 C441 0.827 . S
C1548 C1053 0.837 . S
C1559 C1087 0.812 . S
C1564 C475 0.824 . S
C1575 C509 0.826 . S
C1580 C985 0.837 . S
C1591 C543 0.799 . S
C1596 C1019 0.811 . S
C1607 C20 1.458 . S
C1612 C478 1.435 . S
C1623 C1056 1.464 . S
C1628 C54 1.452 1_545 S
C1639 C410 1.444 1_455 S
C1644 C88 1.453 . S
C1655 C988 1.468 . S
C1660 C122 1.457 1_565 S
C1671 C156 1.465 . S
C1676 C342 1.434 . S
C1687 C190 1.454 1_545 S
C1692 C920 1.440 . S
C1703 C224 1.454 . S
C1708 C274 1.468 1_455 S
C1719 C852 1.468 . S
C1724 C258 1.454 1_565 S
C1735 C206 1.463 . S
C1740 C292 1.451 . S
C1751 C784 1.433 . S
C1756 C326 1.461 1_565 S
C1767 C360 1.466 . S
C1772 C138 1.434 1_655 S
C1783 C394 1.451 1_545 S
C1788 C716 1.462 . S
C1799 C428 1.460 . S
C1804 C70 1.467 . S
C1815 C648 1.433 . S
C1820 C462 1.464 1_565 S
C1831 C496 1.457 . S
C1836 C2 1.469 1_655 S
C1847 C580 1.468 . S
C1852 C530 1.454 1_545 S
C1863 C1022 1.469 1_655 S
C1868 C564 1.458 . S
C1879 C598 1.461 . S
C1884 C512 1.432 . S
C1895 C954 1.454 . S
C1900 C632 1.450 . S
C1911 C444 1.435 . S
C1916 C666 1.466 . S
C1927 C700 1.465 . S
C1932 C886 1.433 1_655 S
C1943 C376 1.467 . S
C1948 C734 1.454 . S
C1959 C818 1.436 . S
C1964 C768 1.457 . S
C1975 C802 1.453 . S
C1980 C308 1.440 . S
C1991 C836 1.460 . S
C1996 C750 1.468 1_455 S
C2007 C240 1.440 . S
C2012 C870 1.468 . S
C2023 C904 1.454 . S
C2028 C682 1.468 . S
C2039 C172 1.436 . S
C2044 C938 1.467 . S
C2055 C972 1.455 . S
C2060 C614 1.468 1_455 S
C2071 C1006 1.469 . S
C2076 C104 1.442 . S
C2087 C546 1.467 . S
C2092 C1040 1.453 . S
C2103 C36 1.433 . S
C2108 C1074 1.464 . S
C2119 C243 1.586 . S
C2124 C5 1.597 . S
C2135 C141 1.607 . S
C2140 C39 1.616 . S
C2151 C175 1.592 . S
C2156 C73 1.612 . S
C2167 C107 1.586 . S
C2172 C209 1.596 . S
C2183 C515 1.614 . S
C2188 C277 1.611 . S
C2199 C311 1.605 . S
C2204 C413 1.616 . S
C2215 C447 1.590 . S
C2220 C345 1.590 . S
C2231 C481 1.609 . S
C2236 C379 1.615 . S
C2247 C787 1.588 . S
C2252 C549 1.607 . S
C2263 C583 1.607 . S
C2268 C685 1.617 . S
C2279 C719 1.612 . S
C2284 C617 1.592 . S
C2295 C753 1.606 . S
C2300 C651 1.617 . S
C2311 C821 1.602 . S
C2316 C1059 1.587 . S
C2327 C957 1.599 . S
C2332 C855 1.587 . S
C2343 C889 1.589 . S
C2348 C991 1.592 . S
C2359 C1025 1.615 . S
C2364 C923 1.598 . S
