# Generated by pormake.
# Topology snx, (6)-cn, num edge types: 1
# Building blocks:
#     Node 0, Type 0, BuildingBlock: MIDCAF_clean_sbu_0, # of connection points: 6
#     Node 1, Type 0, BuildingBlock: MIDCAF_clean_sbu_0, # of connection points: 6
#     Node 2, Type 0, BuildingBlock: MIDCAF_clean_sbu_0, # of connection points: 6
#     Node 3, Type 0, BuildingBlock: MIDCAF_clean_sbu_0, # of connection points: 6
#     Node 4, Type 0, BuildingBlock: MIDCAF_clean_sbu_0, # of connection points: 6
#     Node 5, Type 0, BuildingBlock: MIDCAF_clean_sbu_0, # of connection points: 6
#     Edge 6, Type (0, 0), BuildingBlock: EZIPEK_clean_linker_0, # of connection points: 2
#     Edge 7, Type (0, 0), BuildingBlock: EZIPEK_clean_linker_0, # of connection points: 2
#     Edge 8, Type (0, 0), BuildingBlock: EZIPEK_clean_linker_0, # of connection points: 2
#     Edge 9, Type (0, 0), BuildingBlock: EZIPEK_clean_linker_0, # of connection points: 2
#     Edge 10, Type (0, 0), BuildingBlock: EZIPEK_clean_linker_0, # of connection points: 2
#     Edge 11, Type (0, 0), BuildingBlock: EZIPEK_clean_linker_0, # of connection points: 2
#     Edge 12, Type (0, 0), BuildingBlock: EZIPEK_clean_linker_0, # of connection points: 2
#     Edge 13, Type (0, 0), BuildingBlock: EZIPEK_clean_linker_0, # of connection points: 2
#     Edge 14, Type (0, 0), BuildingBlock: EZIPEK_clean_linker_0, # of connection points: 2
#     Edge 15, Type (0, 0), BuildingBlock: EZIPEK_clean_linker_0, # of connection points: 2
#     Edge 16, Type (0, 0), BuildingBlock: EZIPEK_clean_linker_0, # of connection points: 2
#     Edge 17, Type (0, 0), BuildingBlock: EZIPEK_clean_linker_0, # of connection points: 2
#     Edge 18, Type (0, 0), BuildingBlock: EZIPEK_clean_linker_0, # of connection points: 2
#     Edge 19, Type (0, 0), BuildingBlock: EZIPEK_clean_linker_0, # of connection points: 2
#     Edge 20, Type (0, 0), BuildingBlock: EZIPEK_clean_linker_0, # of connection points: 2
#     Edge 21, Type (0, 0), BuildingBlock: EZIPEK_clean_linker_0, # of connection points: 2
#     Edge 22, Type (0, 0), BuildingBlock: EZIPEK_clean_linker_0, # of connection points: 2
#     Edge 23, Type (0, 0), BuildingBlock: EZIPEK_clean_linker_0, # of connection points: 2
# Relax obj value: 0.219
# Max RMSD: 0.238
# Mean RMSD: 0.238
data_MOF--net-snx--node1-MIDCAF_clean_sbu_0--edge1-EZIPEK_clean_linker_0
_symmetry_space_group_name_H-M    P1
_symmetry_Int_Tables_number       1
_symmetry_cell_setting            triclinic
loop_
_symmetry_equiv_pos_as_xyz
'x, y, z'
_cell_length_a     24.639846
_cell_length_b     25.015275
_cell_length_c     18.183132
_cell_angle_alpha  90.286773
_cell_angle_beta   89.939049
_cell_angle_gamma 119.7005
loop_
_atom_site_label
_atom_site_type_symbol
_atom_site_fract_x
_atom_site_fract_y
_atom_site_fract_z
_atom_type_partial_charge
Zn0 Zn 0.09764 0.35992 0.16045 0.0
Zn1 Zn 0.2846 0.34823 0.22701 0.0
Zn2 Zn 0.18752 0.34833 0.19171 0.0
C3 C 0.24034 0.27506 0.10321 0.0
C4 C 0.21239 0.29346 0.3423 0.0
O5 O 0.21435 0.44875 0.19089 0.0
O6 O 0.124 0.44643 0.17932 0.0
C7 C 0.10109 0.29466 0.04639 0.0
O8 O 0.20256 0.29668 0.10295 0.0
O9 O 0.27621 0.28515 0.15716 0.0
O10 O 0.26927 0.31712 0.32584 0.0
O11 O 0.17446 0.30063 0.3001 0.0
O12 O 0.08192 0.33204 0.05908 0.0
O13 O 0.14097 0.2923 0.09025 0.0
O14 O 0.12157 0.30617 0.28291 0.0
O15 O 0.03783 0.30146 0.23239 0.0
C16 C 0.06318 0.28986 0.28546 0.0
O17 O 0.26812 0.44495 0.18617 0.0
O18 O 0.35064 0.43478 0.20881 0.0
C19 C 0.18209 0.47663 0.1895 0.0
C20 C 0.3279 0.46845 0.19186 0.0
Zn21 Zn 0.743 0.09848 0.69382 0.0
Zn22 Zn 0.94005 0.28104 0.69741 0.0
Zn23 Zn 0.8395 0.17877 0.68964 0.0
C24 C 0.93842 0.22647 0.56221 0.0
C25 C 0.94934 0.21359 0.80966 0.0
O26 O 0.76415 0.20586 0.69376 0.0
O27 O 0.68307 0.12108 0.65247 0.0
C28 C 0.78765 0.06634 0.57991 0.0
O29 O 0.88497 0.18366 0.58471 0.0
O30 O 0.97094 0.27341 0.60134 0.0
O31 O 0.97899 0.26597 0.7808 0.0
O32 O 0.89516 0.17332 0.78443 0.0
O33 O 0.75785 0.03981 0.63692 0.0
O34 O 0.82496 0.12501 0.58429 0.0
O35 O 0.83252 0.11485 0.78051 0.0
O36 O 0.73251 0.07972 0.79805 0.0
C37 C 0.78152 0.07856 0.81472 0.0
O38 O 0.82102 0.25776 0.70246 0.0
O39 O 0.91306 0.34271 0.70868 0.0
C40 C 0.70669 0.1766 0.67174 0.0
C41 C 0.85433 0.31692 0.70829 0.0
Zn42 Zn 0.65604 0.93457 0.20597 0.0
Zn43 Zn 0.68346 0.72213 0.14158 0.0
Zn44 Zn 0.66845 0.83112 0.18724 0.0
C45 C 0.72258 0.77 0.29453 0.0
C46 C 0.77315 0.84702 0.05914 0.0
O47 O 0.56644 0.79899 0.1907 0.0
O48 O 0.56344 0.88465 0.21446 0.0
C49 C 0.72821 0.92465 0.32253 0.0
O50 O 0.71177 0.81449 0.28118 0.0
O51 O 0.71269 0.72865 0.24691 0.0
O52 O 0.72775 0.81415 0.10171 0.0
O53 O 0.72735 0.81648 0.10275 0.0
O54 O 0.70896 0.95817 0.29412 0.0
O55 O 0.7151 0.87265 0.29313 0.0
O56 O 0.70641 0.89955 0.1005 0.0
O57 O 0.69443 0.9804 0.1147 0.0
C58 C 0.71475 0.95116 0.07808 0.0
O59 O 0.5746 0.74845 0.17833 0.0
O60 O 0.58892 0.67243 0.13604 0.0
C61 C 0.53545 0.82717 0.20363 0.0
C62 C 0.55284 0.6918 0.15823 0.0
Zn63 Zn 0.92785 0.65321 0.65982 0.0
Zn64 Zn 0.72271 0.64869 0.71758 0.0
Zn65 Zn 0.82976 0.6529 0.69134 0.0
C66 C 0.76802 0.71047 0.58503 0.0
C67 C 0.80091 0.71174 0.83447 0.0
O68 O 0.80904 0.55602 0.69268 0.0
O69 O 0.90195 0.56512 0.67459 0.0
C70 C 0.91632 0.71037 0.54412 0.0
O71 O 0.81137 0.69727 0.59828 0.0
O72 O 0.72454 0.69703 0.63066 0.0
O73 O 0.74505 0.68992 0.81377 0.0
O74 O 0.84014 0.70361 0.79575 0.0
O75 O 0.94935 0.6873 0.56299 0.0
O76 O 0.86935 0.70205 0.58392 0.0
O77 O 0.8964 0.70038 0.78372 0.0
O78 O 0.98283 0.71198 0.73244 0.0
C79 C 0.95578 0.72059 0.78611 0.0
O80 O 0.75224 0.55453 0.69126 0.0
O81 O 0.66579 0.55868 0.71167 0.0
C82 C 0.84444 0.53182 0.68763 0.0
C83 C 0.69227 0.52762 0.69822 0.0
Zn84 Zn 0.28631 0.9178 0.21018 0.0
Zn85 Zn 0.08922 0.72585 0.18233 0.0
Zn86 Zn 0.17805 0.82268 0.19662 0.0
C87 C 0.09435 0.77363 0.05208 0.0
C88 C 0.05063 0.77574 0.28479 0.0
O89 O 0.25707 0.8006 0.20335 0.0
O90 O 0.34565 0.88736 0.22214 0.0
C91 C 0.2376 0.92986 0.07645 0.0
O92 O 0.13429 0.82126 0.0887 0.0
O93 O 0.0735 0.72078 0.07891 0.0
O94 O 0.02716 0.74121 0.22989 0.0
O95 O 0.11062 0.8108 0.28797 0.0
O96 O 0.28667 0.95517 0.11497 0.0
O97 O 0.19011 0.87905 0.09763 0.0
O98 O 0.16877 0.87147 0.29437 0.0
O99 O 0.26456 0.95137 0.29559 0.0
C100 C 0.21006 0.92354 0.32189 0.0
O101 O 0.20102 0.74672 0.20141 0.0
O102 O 0.10999 0.66358 0.22077 0.0
C103 C 0.31697 0.82987 0.21309 0.0
C104 C 0.16843 0.68839 0.21371 0.0
Zn105 Zn 0.35065 0.26304 0.70487 0.0
Zn106 Zn 0.36272 0.07654 0.672 0.0
Zn107 Zn 0.34822 0.17009 0.68787 0.0
C108 C 0.28085 0.07111 0.56069 0.0
C109 C 0.30122 0.05963 0.80503 0.0
O110 O 0.44616 0.24919 0.68477 0.0
O111 O 0.4319 0.32811 0.6638 0.0
C112 C 0.26389 0.21425 0.60376 0.0
O113 O 0.29075 0.12245 0.58928 0.0
O114 O 0.30795 0.04369 0.58629 0.0
O115 O 0.32556 0.03553 0.76559 0.0
O116 O 0.30437 0.11062 0.78545 0.0
O117 O 0.26978 0.24363 0.66212 0.0
O118 O 0.29263 0.183 0.59786 0.0
O119 O 0.30638 0.16788 0.79742 0.0
O120 O 0.34481 0.26797 0.80921 0.0
C121 C 0.31455 0.2148 0.83575 0.0
O122 O 0.45001 0.19622 0.67892 0.0
O123 O 0.45314 0.11049 0.65916 0.0
C124 C 0.46864 0.30708 0.67202 0.0
C125 C 0.48131 0.16802 0.66783 0.0
C126 C 0.22516 0.58228 0.14122 0.0
C127 C 0.21019 0.54351 0.20286 0.0
C128 C 0.19813 0.61852 0.27793 0.0
C129 C 0.19758 0.64882 0.21262 0.0
N130 N 0.21507 0.66352 0.08177 0.0
N131 N 0.19168 0.52689 0.33244 0.0
C132 C 0.21443 0.63316 0.14434 0.0
C133 C 0.20122 0.5633 0.27261 0.0
N134 N 0.24748 0.56869 0.07938 0.0
N135 N 0.19471 0.64236 0.34439 0.0
H136 H 0.1964 0.48767 0.32957 0.0
H137 H 0.17787 0.53438 0.38375 0.0
H138 H 0.1926 0.68293 0.3487 0.0
H139 H 0.19911 0.62523 0.3947 0.0
H140 H 0.26393 0.59729 0.03371 0.0
H141 H 0.25487 0.53104 0.07721 0.0
H142 H 0.22022 0.65001 0.02921 0.0
H143 H 0.20746 0.70096 0.08195 0.0
C144 C 0.63885 0.20596 0.60087 0.0
C145 C 0.6666 0.20549 0.66899 0.0
C146 C 0.58261 0.21006 0.7357 0.0
C147 C 0.55052 0.20094 0.66811 0.0
N148 N 0.55487 0.21164 0.53715 0.0
N149 N 0.6779 0.22932 0.79835 0.0
C150 C 0.58156 0.20688 0.60074 0.0
C151 C 0.64322 0.21601 0.7355 0.0
N152 N 0.66582 0.202 0.53692 0.0
N153 N 0.55298 0.20816 0.79998 0.0
H154 H 0.72192 0.23305 0.79938 0.0
H155 H 0.66587 0.24199 0.84767 0.0
H156 H 0.50929 0.20533 0.80103 0.0
H157 H 0.57033 0.20745 0.85188 0.0
H158 H 0.64534 0.19579 0.48529 0.0
H159 H 0.70908 0.20382 0.53619 0.0
H160 H 0.57613 0.21967 0.48583 0.0
H161 H 0.51292 0.21252 0.53732 0.0
C162 C 0.39863 0.55365 0.10757 0.0
C163 C 0.37146 0.53469 0.17807 0.0
C164 C 0.45472 0.62963 0.23309 0.0
C165 C 0.48482 0.64644 0.16339 0.0
N166 N 0.47631 0.63593 0.03185 0.0
N167 N 0.36057 0.56192 0.30165 0.0
C168 C 0.45341 0.61215 0.09967 0.0
C169 C 0.39504 0.57558 0.23864 0.0
N170 N 0.37368 0.51436 0.04908 0.0
N171 N 0.48496 0.66216 0.29477 0.0
H172 H 0.317 0.52225 0.30648 0.0
H173 H 0.37203 0.5923 0.34583 0.0
H174 H 0.52838 0.70205 0.29357 0.0
H175 H 0.46872 0.64778 0.34792 0.0
H176 H 0.39525 0.52193 -0.00205 0.0
H177 H 0.33195 0.47258 0.05283 0.0
H178 H 0.45327 0.61586 -0.01718 0.0
H179 H 0.51584 0.67918 0.02522 0.0
C180 C 0.82936 0.44592 0.76933 0.0
C181 C 0.81989 0.46543 0.6999 0.0
C182 C 0.80783 0.37194 0.64155 0.0
C183 C 0.8253 0.35642 0.70904 0.0
N184 N 0.83319 0.36562 0.84047 0.0
N185 N 0.78006 0.44004 0.57683 0.0
C186 C 0.82896 0.38901 0.77435 0.0
C187 C 0.80161 0.42548 0.63839 0.0
N188 N 0.84212 0.48366 0.82909 0.0
N189 N 0.80199 0.33825 0.57969 0.0
H190 H 0.77609 0.47963 0.57405 0.0
H191 H 0.76129 0.4109 0.53158 0.0
H192 H 0.80526 0.29828 0.5808 0.0
H193 H 0.79612 0.35073 0.52706 0.0
H194 H 0.85627 0.47594 0.87992 0.0
H195 H 0.83971 0.52414 0.82692 0.0
H196 H 0.83214 0.38462 0.89111 0.0
H197 H 0.83264 0.32372 0.84438 0.0
C198 C 0.43298 0.78635 0.14032 0.0
C199 C 0.46621 0.7944 0.20655 0.0
C200 C 0.379 0.78989 0.27656 0.0
C201 C 0.35435 0.7982 0.21015 0.0
N202 N 0.35092 0.79592 0.07797 0.0
N203 N 0.46791 0.79244 0.33834 0.0
C204 C 0.37812 0.79187 0.14154 0.0
C205 C 0.43727 0.79084 0.27511 0.0
N206 N 0.45563 0.77598 0.07655 0.0
N207 N 0.34722 0.78303 0.34056 0.0
H208 H 0.50955 0.79099 0.33751 0.0
H209 H 0.45317 0.79617 0.39078 0.0
H210 H 0.30445 0.78226 0.34144 0.0
H211 H 0.36021 0.77341 0.39104 0.0
H212 H 0.4321 0.7658 0.02648 0.0
H213 H 0.49605 0.77236 0.07564 0.0
H214 H 0.3693 0.79812 0.02583 0.0
H215 H 0.31013 0.79887 0.07788 0.0
C216 C 0.62483 0.43907 0.61596 0.0
C217 C 0.65192 0.46053 0.68628 0.0
C218 C 0.56777 0.36872 0.74407 0.0
C219 C 0.53692 0.35069 0.67483 0.0
N220 N 0.54304 0.35653 0.54313 0.0
N221 N 0.66258 0.43805 0.81148 0.0
C222 C 0.56817 0.38183 0.60995 0.0
C223 C 0.62795 0.42219 0.74837 0.0
N224 N 0.65176 0.47528 0.55591 0.0
N225 N 0.53765 0.33759 0.8062 0.0
H226 H 0.70676 0.47724 0.8146 0.0
H227 H 0.65059 0.41001 0.85762 0.0
H228 H 0.49391 0.29795 0.80509 0.0
H229 H 0.55448 0.35239 0.8592 0.0
H230 H 0.6312 0.46641 0.50406 0.0
H231 H 0.69497 0.51562 0.55889 0.0
H232 H 0.5652 0.37422 0.49318 0.0
H233 H 0.50174 0.3144 0.53828 0.0
C234 C 0.22886 0.18269 0.92997 0.0
C235 C 0.29341 0.211 0.91231 0.0
C236 C 0.31938 0.28216 0.01431 0.0
C237 C 0.25562 0.25245 0.03563 0.0
N238 N 0.15122 0.16638 0.02309 0.0
N239 N 0.4001 0.27151 -0.04739 0.0
C240 C 0.21061 0.19981 -0.0034 0.0
C241 C 0.33848 0.25438 -0.03922 0.0
N242 N 0.18521 0.1424 0.88172 0.0
N243 N 0.36104 0.33937 0.04089 0.0
H244 H 0.41542 0.25222 0.91226 0.0
H245 H 0.43436 0.29981 -0.00971 0.0
H246 H 0.34812 0.36484 0.07497 0.0
H247 H 0.40676 0.36471 0.02165 0.0
H248 H 0.13751 0.12627 0.88744 0.0
H249 H 0.19716 0.12736 0.83404 0.0
H250 H 0.1179 0.12465 0.00015 0.0
H251 H 0.13682 0.17837 0.07136 0.0
C252 C 0.98865 0.19858 0.45977 0.0
C253 C 0.9581 0.23041 0.48528 0.0
C254 C 1.00037 0.30235 0.38377 0.0
C255 C 0.02764 0.26839 0.35459 0.0
N256 N 0.03571 0.17622 0.35536 0.0
N257 N 0.91917 0.29986 0.46054 0.0
C258 C 0.01836 0.21399 0.38979 0.0
C259 C 0.95842 0.27776 0.44305 0.0
N260 N 0.99025 0.15484 0.5028 0.0
N261 N 0.01768 0.36003 0.35842 0.0
H262 H 0.88722 0.28207 0.50376 0.0
H263 H 0.91382 0.33089 0.42754 0.0
H264 H 0.05203 0.38236 0.31857 0.0
H265 H 1.00329 0.38863 0.38307 0.0
H266 H 0.0176 0.13485 0.49064 0.0
H267 H 0.96639 0.14099 0.55271 0.0
H268 H 0.02505 0.13322 0.37557 0.0
H269 H 0.05591 0.18571 0.30319 0.0
C270 C 0.71497 0.97746 0.8747 0.0
C271 C 0.77456 0.03073 0.86838 0.0
C272 C 0.80191 0.01509 -0.0086 0.0
C273 C 0.7381 0.97154 0.00349 0.0
N274 N 0.63447 0.9045 -0.0443 0.0
N275 N 0.88156 0.06608 0.89845 0.0
C276 C 0.69502 0.94941 -0.05572 0.0
C277 C 0.82092 0.04015 0.92003 0.0
N278 N 0.67919 0.95295 0.81312 0.0
N279 N 0.84377 0.0333 0.04799 0.0
H280 H 0.89428 0.07697 0.84354 0.0
H281 H 0.91684 0.06848 0.93225 0.0
H282 H 0.8315 0.01418 0.10042 0.0
H283 H 0.88982 0.06872 0.04305 0.0
H284 H 0.63713 0.91156 0.81226 0.0
H285 H 0.69561 0.97107 0.76095 0.0
H286 H 0.59906 0.89182 0.91695 0.0
H287 H 0.6187 0.88147 0.0056 0.0
C288 C 0.79128 0.8002 0.40757 0.0
C289 C 0.73512 0.75882 0.37055 0.0
C290 C 0.70689 0.68437 0.46961 0.0
C291 C 0.75979 0.72757 0.51011 0.0
N292 N 0.84839 0.8294 0.5233 0.0
N293 N 0.63195 0.66932 0.37526 0.0
C294 C 0.80115 0.78641 0.4807 0.0
C295 C 0.69071 0.70318 0.40422 0.0
N296 N 0.83561 0.85137 0.37223 0.0
N297 N 0.67315 0.62455 0.49223 0.0
H298 H 0.61713 0.68245 0.32845 0.0
H299 H 0.59587 0.6318 0.4021 0.0
H300 H 0.68403 0.60812 0.53933 0.0
H301 H 0.63832 0.58983 0.46026 0.0
H302 H 0.88011 0.88003 0.39342 0.0
H303 H 0.82924 0.86291 0.31912 0.0
H304 H 0.87644 0.87509 0.50778 0.0
H305 H 0.85675 0.82019 0.57673 0.0
C306 C 1.00313 0.79248 0.89558 0.0
C307 C 0.9915 0.73902 0.85558 0.0
C308 C 0.07047 0.7315 0.92774 0.0
C309 C 0.07306 0.77638 -0.02292 0.0
N310 N 0.03901 0.84867 0.01082 0.0
N311 N 1.00294 0.64838 0.84763 0.0
C312 C 0.03918 0.80741 -0.03839 0.0
C313 C 0.02216 0.70593 0.87555 0.0
N314 N 0.98134 0.82944 0.86979 0.0
N315 N 0.11318 0.71191 0.93259 0.0
H316 H 0.96407 0.62537 0.81332 0.0
H317 H 0.02091 0.62075 0.86567 0.0
H318 H 0.14981 0.73061 -0.0294 0.0
H319 H 0.11586 0.68228 0.89405 0.0
H320 H 0.99294 0.87184 0.89332 0.0
H321 H 0.9557 0.81963 0.82115 0.0
H322 H 0.00944 0.86714 0.00609 0.0
H323 H 0.06617 0.86202 0.0584 0.0
C324 C 0.19347 0.97453 0.51222 0.0
C325 C 0.235 0.03822 0.50099 0.0
C326 C 0.2189 0.02038 0.369 0.0
C327 C 0.19664 0.95675 0.38081 0.0
N328 N 0.15742 0.87158 0.46527 0.0
N329 N 0.28314 0.12358 0.41723 0.0
C330 C 0.18028 0.93277 0.45277 0.0
C331 C 0.24499 0.06218 0.42893 0.0
N332 N 0.16987 0.95439 0.5808 0.0
N333 N 0.21755 0.04043 0.29973 0.0
H334 H 0.30229 0.15531 0.46011 0.0
H335 H 0.29764 0.14252 0.36514 0.0
H336 H 0.19829 0.00975 0.25561 0.0
H337 H 0.22942 0.08566 0.28801 0.0
H338 H 0.13614 0.90906 0.59193 0.0
H339 H 0.17992 0.98508 0.62464 0.0
H340 H 0.15131 0.85293 0.51773 0.0
H341 H 0.14716 0.83979 0.42299 0.0
C342 C 0.80029 0.76309 0.02846 0.0
C343 C 0.80235 0.81933 0.01184 0.0
C344 C 0.83641 0.81555 0.88659 0.0
C345 C 0.82061 0.75354 0.89856 0.0
N346 N 0.79496 0.66958 -0.01902 0.0
N347 N 0.85157 0.91134 0.93942 0.0
C348 C 0.80617 0.72815 -0.02987 0.0
C349 C 0.83038 0.84974 -0.05456 0.0
N350 N 0.79776 0.74611 0.10006 0.0
N351 N 0.8523 0.83983 0.81754 0.0
H352 H 0.85032 0.93725 -0.01625 0.0
H353 H 0.8763 0.93775 0.89441 0.0
H354 H 0.85901 0.81641 0.77397 0.0
H355 H 0.85663 0.88187 0.80257 0.0
H356 H 0.80019 0.7076 0.1167 0.0
H357 H 0.80079 0.77518 0.14314 0.0
H358 H 0.77698 0.64538 0.02963 0.0
H359 H 0.80207 0.64464 0.93955 0.0
C360 C 0.97601 0.79798 0.45876 0.0
C361 C 0.92761 0.73662 0.46986 0.0
C362 C 0.95971 0.70301 0.36229 0.0
C363 C 0.00793 0.76466 0.34816 0.0
N364 N 0.04543 0.87272 0.36984 0.0
N365 N 0.85771 0.63889 0.41591 0.0
C366 C 0.01099 0.81317 0.39211 0.0
C367 C 0.91299 0.69291 0.41393 0.0
N368 N 0.9905 0.84053 0.51327 0.0
N369 N 0.96189 0.65353 0.33337 0.0
H370 H 0.82411 0.63076 0.45605 0.0
H371 H 0.84358 0.60608 0.37395 0.0
H372 H 1.00046 0.65726 0.30519 0.0
H373 H 0.92942 0.60825 0.34684 0.0
H374 H 0.02956 0.88444 0.51132 0.0
H375 H 0.96439 0.83004 0.56165 0.0
H376 H 0.04563 0.90922 0.39799 0.0
H377 H 0.06859 0.88447 0.31943 0.0
C378 C 0.22401 0.92953 0.93841 0.0
C379 C 0.23764 0.96074 0.00702 0.0
C380 C 0.29017 0.05913 -0.05686 0.0
C381 C 0.27119 0.02815 0.87459 0.0
N382 N 0.20254 0.93393 0.80961 0.0
N383 N 0.2651 0.05533 0.07202 0.0
C384 C 0.23144 0.96333 0.87327 0.0
C385 C 0.26365 0.02559 0.0083 0.0
N386 N 0.21098 0.86989 0.93392 0.0
N387 N 0.33838 0.11815 -0.05255 0.0
H388 H 0.24483 0.03168 0.12057 0.0
H389 H 0.28025 0.10236 0.07383 0.0
H390 H 0.36433 0.1422 0.90176 0.0
H391 H 0.35705 0.14018 -0.00251 0.0
H392 H 0.20615 0.84742 0.88386 0.0
H393 H 0.21226 0.8454 -0.02064 0.0
H394 H 0.1698 0.88707 0.80771 0.0
H395 H 0.20639 0.95778 0.76115 0.0
C396 C 0.24978 0.29119 0.52983 0.0
C397 C 0.23598 0.22902 0.5399 0.0
C398 C 0.18129 0.20201 0.4219 0.0
C399 C 0.19413 0.26359 0.41443 0.0
N400 N 0.21662 0.35789 0.47374 0.0
N401 N 0.16881 0.12242 0.50712 0.0
C402 C 0.21817 0.30415 0.47431 0.0
C403 C 0.19506 0.18314 0.48977 0.0
N404 N 0.29778 0.339 0.56672 0.0
N405 N 0.15985 0.16297 0.36303 0.0
H406 H 0.17616 0.10787 0.55794 0.0
H407 H 0.13526 0.08749 0.47412 0.0
H408 H 0.14936 0.17601 0.31294 0.0
H409 H 0.15578 0.11945 0.36334 0.0
H410 H 0.31138 0.3849 0.55639 0.0
H411 H 0.32984 0.33415 0.59921 0.0
H412 H 0.23097 0.38808 0.51852 0.0
H413 H 0.19484 0.3682 0.43122 0.0
C414 C 0.95698 0.19977 -0.05471 0.0
C415 C 0.98034 0.20302 0.87328 0.0
C416 C 0.08658 0.24455 0.92209 0.0
C417 C 0.06345 0.24526 -0.00715 0.0
N418 N 0.97653 0.20027 0.0761 0.0
N419 N 0.06144 0.20606 0.79663 0.0
C420 C 0.99818 0.21332 0.00565 0.0
C421 C 0.0432 0.21676 0.86336 0.0
N422 N 0.89758 0.18911 -0.0441 0.0
N423 N 0.14943 0.27468 0.90996 0.0
H424 H 0.02979 0.18604 0.75324 0.0
H425 H 0.10556 0.21145 0.78701 0.0
H426 H 0.18158 0.29567 -0.04745 0.0
H427 H 0.16925 0.28113 0.85785 0.0
H428 H 0.8807 0.19311 0.00698 0.0
H429 H 0.86609 0.17927 0.9129 0.0
H430 H 0.92926 0.17466 0.08921 0.0
H431 H 1.00689 0.21036 0.12066 0.0
C432 C 0.81163 0.00762 0.39336 0.0
C433 C 0.76139 0.94667 0.39338 0.0
C434 C 0.72644 0.96471 0.51114 0.0
C435 C 0.77639 0.02743 0.51151 0.0
N436 N 0.84355 0.11105 0.43141 0.0
N437 N 0.68541 0.86134 0.46244 0.0
C438 C 0.81433 0.04996 0.44761 0.0
C439 C 0.7248 0.92318 0.45671 0.0
N440 N 0.85439 0.02557 0.33799 0.0
N441 N 0.67478 0.94715 0.55416 0.0
H442 H 0.68243 0.83076 0.42141 0.0
H443 H 0.66138 0.84048 0.51058 0.0
H444 H 0.66528 0.97865 0.58061 0.0
H445 H 0.63583 0.9032 0.5527 0.0
H446 H 0.8952 0.06824 0.33734 0.0
H447 H 0.85124 0.99463 0.29709 0.0
H448 H 0.8677 0.12909 0.38249 0.0
H449 H 0.83343 0.14151 0.45909 0.0
loop_
_geom_bond_atom_site_label_1
_geom_bond_atom_site_label_2
_geom_bond_distance
_geom_bond_site_symmetry_2
_ccdc_geom_bond_type
Zn0 O6 1.920 . S
Zn0 O12 1.898 . S
Zn0 O15 1.905 . S
Zn1 O9 1.905 . S
Zn1 O10 1.898 . S
Zn1 O18 1.920 . S
Zn2 O5 2.080 . S
Zn2 O8 2.114 . S
Zn2 O11 2.120 . S
Zn2 O13 2.120 . S
Zn2 O14 2.114 . S
Zn2 O17 2.080 . S
C3 O8 1.166 . S
C3 O9 1.182 . S
C4 O10 1.167 . S
C4 O11 1.299 . S
O5 Zn2 2.080 . S
O5 C19 1.305 . S
O6 Zn0 1.920 . S
O6 C19 1.234 . S
C7 O12 1.167 . S
C7 O13 1.299 . S
O8 Zn2 2.114 . S
O8 C3 1.166 . S
O9 Zn1 1.905 . S
O9 C3 1.182 . S
O10 Zn1 1.898 . S
O10 C4 1.167 . S
O11 Zn2 2.120 . S
O11 C4 1.299 . S
O12 Zn0 1.898 . S
O12 C7 1.167 . S
O13 Zn2 2.120 . S
O13 C7 1.299 . S
O14 Zn2 2.114 . S
O14 C16 1.166 . S
O15 Zn0 1.905 . S
O15 C16 1.182 . S
C16 O14 1.166 . S
C16 O15 1.182 . S
O17 Zn2 2.080 . S
O17 C20 1.305 . S
O18 Zn1 1.920 . S
O18 C20 1.234 . S
C19 O5 1.305 . S
C19 O6 1.234 . S
C20 O17 1.305 . S
C20 O18 1.234 . S
Zn21 O27 1.920 . S
Zn21 O33 1.898 . S
Zn21 O36 1.905 . S
Zn22 O30 1.905 . S
Zn22 O31 1.898 . S
Zn22 O39 1.920 . S
Zn23 O26 2.080 . S
Zn23 O29 2.114 . S
Zn23 O32 2.120 . S
Zn23 O34 2.120 . S
Zn23 O35 2.114 . S
Zn23 O38 2.080 . S
C24 O29 1.166 . S
C24 O30 1.182 . S
C25 O31 1.167 . S
C25 O32 1.299 . S
O26 Zn23 2.080 . S
O26 C40 1.305 . S
O27 Zn21 1.920 . S
O27 C40 1.234 . S
C28 O33 1.167 . S
C28 O34 1.299 . S
O29 Zn23 2.114 . S
O29 C24 1.166 . S
O30 Zn22 1.905 . S
O30 C24 1.182 . S
O31 Zn22 1.898 . S
O31 C25 1.167 . S
O32 Zn23 2.120 . S
O32 C25 1.299 . S
O33 Zn21 1.898 . S
O33 C28 1.167 . S
O34 Zn23 2.120 . S
O34 C28 1.299 . S
O35 Zn23 2.114 . S
O35 C37 1.166 . S
O36 Zn21 1.905 . S
O36 C37 1.182 . S
C37 O35 1.166 . S
C37 O36 1.182 . S
O38 Zn23 2.080 . S
O38 C41 1.305 . S
O39 Zn22 1.920 . S
O39 C41 1.234 . S
C40 O26 1.305 . S
C40 O27 1.234 . S
C41 O38 1.305 . S
C41 O39 1.234 . S
Zn42 O48 1.920 . S
Zn42 O54 1.898 . S
Zn42 O57 1.905 . S
Zn43 O51 1.905 . S
Zn43 O52 1.898 . S
Zn43 O60 1.920 . S
Zn44 O47 2.080 . S
Zn44 O50 2.114 . S
Zn44 O53 2.120 . S
Zn44 O55 2.120 . S
Zn44 O56 2.114 . S
Zn44 O59 2.080 . S
C45 O50 1.166 . S
C45 O51 1.182 . S
C46 O52 1.167 . S
C46 O53 1.299 . S
O47 Zn44 2.080 . S
O47 C61 1.305 . S
O48 Zn42 1.920 . S
O48 C61 1.234 . S
C49 O54 1.167 . S
C49 O55 1.299 . S
O50 Zn44 2.114 . S
O50 C45 1.166 . S
O51 Zn43 1.905 . S
O51 C45 1.182 . S
O52 Zn43 1.898 . S
O52 C46 1.167 . S
O53 Zn44 2.120 . S
O53 C46 1.299 . S
O54 Zn42 1.898 . S
O54 C49 1.167 . S
O55 Zn44 2.120 . S
O55 C49 1.299 . S
O56 Zn44 2.114 . S
O56 C58 1.166 . S
O57 Zn42 1.905 . S
O57 C58 1.182 . S
C58 O56 1.166 . S
C58 O57 1.182 . S
O59 Zn44 2.080 . S
O59 C62 1.305 . S
O60 Zn43 1.920 . S
O60 C62 1.234 . S
C61 O47 1.305 . S
C61 O48 1.234 . S
C62 O59 1.305 . S
C62 O60 1.234 . S
Zn63 O69 1.920 . S
Zn63 O75 1.898 . S
Zn63 O78 1.905 . S
Zn64 O72 1.905 . S
Zn64 O73 1.898 . S
Zn64 O81 1.920 . S
Zn65 O68 2.080 . S
Zn65 O71 2.114 . S
Zn65 O74 2.120 . S
Zn65 O76 2.120 . S
Zn65 O77 2.114 . S
Zn65 O80 2.080 . S
C66 O71 1.166 . S
C66 O72 1.182 . S
C67 O73 1.167 . S
C67 O74 1.299 . S
O68 Zn65 2.080 . S
O68 C82 1.305 . S
O69 Zn63 1.920 . S
O69 C82 1.234 . S
C70 O75 1.167 . S
C70 O76 1.299 . S
O71 Zn65 2.114 . S
O71 C66 1.166 . S
O72 Zn64 1.905 . S
O72 C66 1.182 . S
O73 Zn64 1.898 . S
O73 C67 1.167 . S
O74 Zn65 2.120 . S
O74 C67 1.299 . S
O75 Zn63 1.898 . S
O75 C70 1.167 . S
O76 Zn65 2.120 . S
O76 C70 1.299 . S
O77 Zn65 2.114 . S
O77 C79 1.166 . S
O78 Zn63 1.905 . S
O78 C79 1.182 . S
C79 O77 1.166 . S
C79 O78 1.182 . S
O80 Zn65 2.080 . S
O80 C83 1.305 . S
O81 Zn64 1.920 . S
O81 C83 1.234 . S
C82 O68 1.305 . S
C82 O69 1.234 . S
C83 O80 1.305 . S
C83 O81 1.234 . S
Zn84 O90 1.920 . S
Zn84 O96 1.898 . S
Zn84 O99 1.905 . S
Zn85 O93 1.905 . S
Zn85 O94 1.898 . S
Zn85 O102 1.920 . S
Zn86 O89 2.080 . S
Zn86 O92 2.114 . S
Zn86 O95 2.120 . S
Zn86 O97 2.120 . S
Zn86 O98 2.114 . S
Zn86 O101 2.080 . S
C87 O92 1.166 . S
C87 O93 1.182 . S
C88 O94 1.167 . S
C88 O95 1.299 . S
O89 Zn86 2.080 . S
O89 C103 1.305 . S
O90 Zn84 1.920 . S
O90 C103 1.234 . S
C91 O96 1.167 . S
C91 O97 1.299 . S
O92 Zn86 2.114 . S
O92 C87 1.166 . S
O93 Zn85 1.905 . S
O93 C87 1.182 . S
O94 Zn85 1.898 . S
O94 C88 1.167 . S
O95 Zn86 2.120 . S
O95 C88 1.299 . S
O96 Zn84 1.898 . S
O96 C91 1.167 . S
O97 Zn86 2.120 . S
O97 C91 1.299 . S
O98 Zn86 2.114 . S
O98 C100 1.166 . S
O99 Zn84 1.905 . S
O99 C100 1.182 . S
C100 O98 1.166 . S
C100 O99 1.182 . S
O101 Zn86 2.080 . S
O101 C104 1.305 . S
O102 Zn85 1.920 . S
O102 C104 1.234 . S
C103 O89 1.305 . S
C103 O90 1.234 . S
C104 O101 1.305 . S
C104 O102 1.234 . S
Zn105 O111 1.920 . S
Zn105 O117 1.898 . S
Zn105 O120 1.905 . S
Zn106 O114 1.905 . S
Zn106 O115 1.898 . S
Zn106 O123 1.920 . S
Zn107 O110 2.080 . S
Zn107 O113 2.114 . S
Zn107 O116 2.120 . S
Zn107 O118 2.120 . S
Zn107 O119 2.114 . S
Zn107 O122 2.080 . S
C108 O113 1.166 . S
C108 O114 1.182 . S
C109 O115 1.167 . S
C109 O116 1.299 . S
O110 Zn107 2.080 . S
O110 C124 1.305 . S
O111 Zn105 1.920 . S
O111 C124 1.234 . S
C112 O117 1.167 . S
C112 O118 1.299 . S
O113 Zn107 2.114 . S
O113 C108 1.166 . S
O114 Zn106 1.905 . S
O114 C108 1.182 . S
O115 Zn106 1.898 . S
O115 C109 1.167 . S
O116 Zn107 2.120 . S
O116 C109 1.299 . S
O117 Zn105 1.898 . S
O117 C112 1.167 . S
O118 Zn107 2.120 . S
O118 C112 1.299 . S
O119 Zn107 2.114 . S
O119 C121 1.166 . S
O120 Zn105 1.905 . S
O120 C121 1.182 . S
C121 O119 1.166 . S
C121 O120 1.182 . S
O122 Zn107 2.080 . S
O122 C125 1.305 . S
O123 Zn106 1.920 . S
O123 C125 1.234 . S
C124 O110 1.305 . S
C124 O111 1.234 . S
C125 O122 1.305 . S
C125 O123 1.234 . S
C126 C127 1.363 . S
C126 C132 1.379 . S
C126 N134 1.356 . S
C127 C126 1.363 . S
C127 C133 1.363 . S
C128 C129 1.363 . S
C128 C133 1.379 . S
C128 N135 1.356 . S
C129 C128 1.363 . S
C129 C132 1.363 . S
N130 C132 1.356 . S
N130 H142 0.984 . S
N130 H143 0.985 . S
N131 C133 1.356 . S
N131 H136 0.984 . S
N131 H137 0.985 . S
C132 C126 1.379 . S
C132 C129 1.363 . S
C132 N130 1.356 . S
C133 C127 1.363 . S
C133 C128 1.379 . S
C133 N131 1.356 . S
N134 C126 1.356 . S
N134 H140 0.984 . S
N134 H141 0.984 . S
N135 C128 1.356 . S
N135 H138 0.984 . S
N135 H139 0.985 . S
H136 N131 0.984 . S
H137 N131 0.985 . S
H138 N135 0.984 . S
H139 N135 0.985 . S
H140 N134 0.984 . S
H141 N134 0.984 . S
H142 N130 0.984 . S
H143 N130 0.985 . S
C144 C145 1.363 . S
C144 C150 1.379 . S
C144 N152 1.356 . S
C145 C144 1.363 . S
C145 C151 1.363 . S
C146 C147 1.363 . S
C146 C151 1.379 . S
C146 N153 1.356 . S
C147 C146 1.363 . S
C147 C150 1.363 . S
N148 C150 1.356 . S
N148 H160 0.984 . S
N148 H161 0.985 . S
N149 C151 1.356 . S
N149 H154 0.984 . S
N149 H155 0.985 . S
C150 C144 1.379 . S
C150 C147 1.363 . S
C150 N148 1.356 . S
C151 C145 1.363 . S
C151 C146 1.379 . S
C151 N149 1.356 . S
N152 C144 1.356 . S
N152 H158 0.984 . S
N152 H159 0.984 . S
N153 C146 1.356 . S
N153 H156 0.984 . S
N153 H157 0.985 . S
H154 N149 0.984 . S
H155 N149 0.985 . S
H156 N153 0.984 . S
H157 N153 0.985 . S
H158 N152 0.984 . S
H159 N152 0.984 . S
H160 N148 0.984 . S
H161 N148 0.985 . S
C162 C163 1.363 . S
C162 C168 1.379 . S
C162 N170 1.356 . S
C163 C162 1.363 . S
C163 C169 1.363 . S
C164 C165 1.363 . S
C164 C169 1.379 . S
C164 N171 1.356 . S
C165 C164 1.363 . S
C165 C168 1.363 . S
N166 C168 1.356 . S
N166 H178 0.984 . S
N166 H179 0.985 . S
N167 C169 1.356 . S
N167 H172 0.984 . S
N167 H173 0.985 . S
C168 C162 1.379 . S
C168 C165 1.363 . S
C168 N166 1.356 . S
C169 C163 1.363 . S
C169 C164 1.379 . S
C169 N167 1.356 . S
N170 C162 1.356 . S
N170 H176 0.984 . S
N170 H177 0.984 . S
N171 C164 1.356 . S
N171 H174 0.984 . S
N171 H175 0.985 . S
H172 N167 0.984 . S
H173 N167 0.985 . S
H174 N171 0.984 . S
H175 N171 0.985 . S
H176 N170 0.984 . S
H177 N170 0.984 . S
H178 N166 0.984 . S
H179 N166 0.985 . S
C180 C181 1.363 . S
C180 C186 1.379 . S
C180 N188 1.356 . S
C181 C180 1.363 . S
C181 C187 1.363 . S
C182 C183 1.363 . S
C182 C187 1.379 . S
C182 N189 1.356 . S
C183 C182 1.363 . S
C183 C186 1.363 . S
N184 C186 1.356 . S
N184 H196 0.984 . S
N184 H197 0.985 . S
N185 C187 1.356 . S
N185 H190 0.984 . S
N185 H191 0.985 . S
C186 C180 1.379 . S
C186 C183 1.363 . S
C186 N184 1.356 . S
C187 C181 1.363 . S
C187 C182 1.379 . S
C187 N185 1.356 . S
N188 C180 1.356 . S
N188 H194 0.984 . S
N188 H195 0.984 . S
N189 C182 1.356 . S
N189 H192 0.984 . S
N189 H193 0.985 . S
H190 N185 0.984 . S
H191 N185 0.985 . S
H192 N189 0.984 . S
H193 N189 0.985 . S
H194 N188 0.984 . S
H195 N188 0.984 . S
H196 N184 0.984 . S
H197 N184 0.985 . S
C198 C199 1.363 . S
C198 C204 1.379 . S
C198 N206 1.356 . S
C199 C198 1.363 . S
C199 C205 1.363 . S
C200 C201 1.363 . S
C200 C205 1.379 . S
C200 N207 1.356 . S
C201 C200 1.363 . S
C201 C204 1.363 . S
N202 C204 1.356 . S
N202 H214 0.984 . S
N202 H215 0.985 . S
N203 C205 1.356 . S
N203 H208 0.984 . S
N203 H209 0.985 . S
C204 C198 1.379 . S
C204 C201 1.363 . S
C204 N202 1.356 . S
C205 C199 1.363 . S
C205 C200 1.379 . S
C205 N203 1.356 . S
N206 C198 1.356 . S
N206 H212 0.984 . S
N206 H213 0.984 . S
N207 C200 1.356 . S
N207 H210 0.984 . S
N207 H211 0.985 . S
H208 N203 0.984 . S
H209 N203 0.985 . S
H210 N207 0.984 . S
H211 N207 0.985 . S
H212 N206 0.984 . S
H213 N206 0.984 . S
H214 N202 0.984 . S
H215 N202 0.985 . S
C216 C217 1.363 . S
C216 C222 1.379 . S
C216 N224 1.356 . S
C217 C216 1.363 . S
C217 C223 1.363 . S
C218 C219 1.363 . S
C218 C223 1.379 . S
C218 N225 1.356 . S
C219 C218 1.363 . S
C219 C222 1.363 . S
N220 C222 1.356 . S
N220 H232 0.984 . S
N220 H233 0.985 . S
N221 C223 1.356 . S
N221 H226 0.984 . S
N221 H227 0.985 . S
C222 C216 1.379 . S
C222 C219 1.363 . S
C222 N220 1.356 . S
C223 C217 1.363 . S
C223 C218 1.379 . S
C223 N221 1.356 . S
N224 C216 1.356 . S
N224 H230 0.984 . S
N224 H231 0.984 . S
N225 C218 1.356 . S
N225 H228 0.984 . S
N225 H229 0.985 . S
H226 N221 0.984 . S
H227 N221 0.985 . S
H228 N225 0.984 . S
H229 N225 0.985 . S
H230 N224 0.984 . S
H231 N224 0.984 . S
H232 N220 0.984 . S
H233 N220 0.985 . S
C234 C235 1.363 . S
C234 C240 1.379 1_556 S
C234 N242 1.356 . S
C235 C234 1.363 . S
C235 C241 1.363 . S
C236 C237 1.363 . S
C236 C241 1.379 1_554 S
C236 N243 1.356 . S
C237 C236 1.363 . S
C237 C240 1.363 . S
N238 C240 1.356 . S
N238 H250 0.984 . S
N238 H251 0.985 . S
N239 C241 1.356 . S
N239 H244 0.984 . S
N239 H245 0.985 . S
C240 C234 1.379 1_554 S
C240 C237 1.363 . S
C240 N238 1.356 . S
C241 C235 1.363 . S
C241 C236 1.379 1_556 S
C241 N239 1.356 . S
N242 C234 1.356 . S
N242 H248 0.984 . S
N242 H249 0.984 . S
N243 C236 1.356 . S
N243 H246 0.984 . S
N243 H247 0.985 . S
H244 N239 0.984 . S
H245 N239 0.985 . S
H246 N243 0.984 . S
H247 N243 0.985 . S
H248 N242 0.984 . S
H249 N242 0.984 . S
H250 N238 0.984 . S
H251 N238 0.985 . S
C252 C253 1.363 . S
C252 C258 1.379 1_655 S
C252 N260 1.356 . S
C253 C252 1.363 . S
C253 C259 1.363 . S
C254 C255 1.363 . S
C254 C259 1.379 1_455 S
C254 N261 1.356 . S
C255 C254 1.363 . S
C255 C258 1.363 . S
N256 C258 1.356 . S
N256 H268 0.984 . S
N256 H269 0.985 . S
N257 C259 1.356 . S
N257 H262 0.984 . S
N257 H263 0.985 . S
C258 C252 1.379 1_455 S
C258 C255 1.363 . S
C258 N256 1.356 . S
C259 C253 1.363 . S
C259 C254 1.379 1_655 S
C259 N257 1.356 . S
N260 C252 1.356 . S
N260 H266 0.984 . S
N260 H267 0.984 . S
N261 C254 1.356 . S
N261 H264 0.984 . S
N261 H265 0.985 . S
H262 N257 0.984 . S
H263 N257 0.985 . S
H264 N261 0.984 . S
H265 N261 0.985 . S
H266 N260 0.984 . S
H267 N260 0.984 . S
H268 N256 0.984 . S
H269 N256 0.985 . S
C270 C271 1.363 1_565 S
C270 C276 1.379 1_556 S
C270 N278 1.356 . S
C271 C270 1.363 1_545 S
C271 C277 1.363 . S
C272 C273 1.363 1_545 S
C272 C277 1.379 1_554 S
C272 N279 1.356 . S
C273 C272 1.363 1_565 S
C273 C276 1.363 . S
N274 C276 1.356 . S
N274 H286 0.984 1_554 S
N274 H287 0.985 . S
N275 C277 1.356 . S
N275 H280 0.984 . S
N275 H281 0.985 1_556 S
C276 C270 1.379 1_554 S
C276 C273 1.363 . S
C276 N274 1.356 . S
C277 C271 1.363 . S
C277 C272 1.379 1_556 S
C277 N275 1.356 . S
N278 C270 1.356 . S
N278 H284 0.984 . S
N278 H285 0.984 1_565 S
N279 C272 1.356 . S
N279 H282 0.984 1_545 S
N279 H283 0.985 . S
H280 N275 0.984 . S
H281 N275 0.985 1_554 S
H282 N279 0.984 1_565 S
H283 N279 0.985 . S
H284 N278 0.984 . S
H285 N278 0.984 1_545 S
H286 N274 0.984 1_556 S
H287 N274 0.985 . S
C288 C289 1.363 . S
C288 C294 1.379 . S
C288 N296 1.356 . S
C289 C288 1.363 . S
C289 C295 1.363 . S
C290 C291 1.363 . S
C290 C295 1.379 . S
C290 N297 1.356 . S
C291 C290 1.363 . S
C291 C294 1.363 . S
N292 C294 1.356 . S
N292 H304 0.984 . S
N292 H305 0.985 . S
N293 C295 1.356 . S
N293 H298 0.984 . S
N293 H299 0.985 . S
C294 C288 1.379 . S
C294 C291 1.363 . S
C294 N292 1.356 . S
C295 C289 1.363 . S
C295 C290 1.379 . S
C295 N293 1.356 . S
N296 C288 1.356 . S
N296 H302 0.984 . S
N296 H303 0.984 . S
N297 C290 1.356 . S
N297 H300 0.984 . S
N297 H301 0.985 . S
H298 N293 0.984 . S
H299 N293 0.985 . S
H300 N297 0.984 . S
H301 N297 0.985 . S
H302 N296 0.984 . S
H303 N296 0.984 . S
H304 N292 0.984 . S
H305 N292 0.985 . S
C306 C307 1.363 . S
C306 C312 1.379 1_656 S
C306 N314 1.356 . S
C307 C306 1.363 . S
C307 C313 1.363 . S
C308 C309 1.363 . S
C308 C313 1.379 1_454 S
C308 N315 1.356 . S
C309 C308 1.363 . S
C309 C312 1.363 . S
N310 C312 1.356 . S
N310 H322 0.984 . S
N310 H323 0.985 . S
N311 C313 1.356 . S
N311 H316 0.984 . S
N311 H317 0.985 . S
C312 C306 1.379 1_454 S
C312 C309 1.363 . S
C312 N310 1.356 . S
C313 C307 1.363 . S
C313 C308 1.379 1_656 S
C313 N311 1.356 . S
N314 C306 1.356 . S
N314 H320 0.984 . S
N314 H321 0.984 . S
N315 C308 1.356 . S
N315 H318 0.984 . S
N315 H319 0.985 . S
H316 N311 0.984 . S
H317 N311 0.985 . S
H318 N315 0.984 . S
H319 N315 0.985 . S
H320 N314 0.984 . S
H321 N314 0.984 . S
H322 N310 0.984 . S
H323 N310 0.985 . S
C324 C325 1.363 1_565 S
C324 C330 1.379 . S
C324 N332 1.356 . S
C325 C324 1.363 1_545 S
C325 C331 1.363 . S
C326 C327 1.363 1_545 S
C326 C331 1.379 . S
C326 N333 1.356 . S
C327 C326 1.363 1_565 S
C327 C330 1.363 . S
N328 C330 1.356 . S
N328 H340 0.984 . S
N328 H341 0.985 . S
N329 C331 1.356 . S
N329 H334 0.984 . S
N329 H335 0.985 . S
C330 C324 1.379 . S
C330 C327 1.363 . S
C330 N328 1.356 . S
C331 C325 1.363 . S
C331 C326 1.379 . S
C331 N329 1.356 . S
N332 C324 1.356 . S
N332 H338 0.984 . S
N332 H339 0.984 . S
N333 C326 1.356 . S
N333 H336 0.984 . S
N333 H337 0.985 . S
H334 N329 0.984 . S
H335 N329 0.985 . S
H336 N333 0.984 . S
H337 N333 0.985 . S
H338 N332 0.984 . S
H339 N332 0.984 . S
H340 N328 0.984 . S
H341 N328 0.985 . S
C342 C343 1.363 . S
C342 C348 1.379 . S
C342 N350 1.356 . S
C343 C342 1.363 . S
C343 C349 1.363 1_554 S
C344 C345 1.363 . S
C344 C349 1.379 . S
C344 N351 1.356 . S
C345 C344 1.363 . S
C345 C348 1.363 1_556 S
N346 C348 1.356 . S
N346 H358 0.984 . S
N346 H359 0.985 . S
N347 C349 1.356 . S
N347 H352 0.984 . S
N347 H353 0.985 . S
C348 C342 1.379 . S
C348 C345 1.363 1_554 S
C348 N346 1.356 . S
C349 C343 1.363 1_556 S
C349 C344 1.379 . S
C349 N347 1.356 . S
N350 C342 1.356 . S
N350 H356 0.984 . S
N350 H357 0.984 . S
N351 C344 1.356 . S
N351 H354 0.984 . S
N351 H355 0.985 . S
H352 N347 0.984 . S
H353 N347 0.985 . S
H354 N351 0.984 . S
H355 N351 0.985 . S
H356 N350 0.984 . S
H357 N350 0.984 . S
H358 N346 0.984 . S
H359 N346 0.985 . S
C360 C361 1.363 . S
C360 C366 1.379 1_655 S
C360 N368 1.356 . S
C361 C360 1.363 . S
C361 C367 1.363 . S
C362 C363 1.363 . S
C362 C367 1.379 1_455 S
C362 N369 1.356 . S
C363 C362 1.363 . S
C363 C366 1.363 . S
N364 C366 1.356 . S
N364 H376 0.984 . S
N364 H377 0.985 . S
N365 C367 1.356 . S
N365 H370 0.984 . S
N365 H371 0.985 . S
C366 C360 1.379 1_455 S
C366 C363 1.363 . S
C366 N364 1.356 . S
C367 C361 1.363 . S
C367 C362 1.379 1_655 S
C367 N365 1.356 . S
N368 C360 1.356 . S
N368 H374 0.984 . S
N368 H375 0.984 . S
N369 C362 1.356 . S
N369 H372 0.984 . S
N369 H373 0.985 . S
H370 N365 0.984 . S
H371 N365 0.985 . S
H372 N369 0.984 . S
H373 N369 0.985 . S
H374 N368 0.984 . S
H375 N368 0.984 . S
H376 N364 0.984 . S
H377 N364 0.985 . S
C378 C379 1.363 1_556 S
C378 C384 1.379 1_565 S
C378 N386 1.356 . S
C379 C378 1.363 1_554 S
C379 C385 1.363 . S
C380 C381 1.363 1_554 S
C380 C385 1.379 1_545 S
C380 N387 1.356 . S
C381 C380 1.363 1_556 S
C381 C384 1.363 . S
N382 C384 1.356 . S
N382 H394 0.984 1_545 S
N382 H395 0.985 . S
N383 C385 1.356 . S
N383 H388 0.984 . S
N383 H389 0.985 1_565 S
C384 C378 1.379 1_545 S
C384 C381 1.363 . S
C384 N382 1.356 . S
C385 C379 1.363 . S
C385 C380 1.379 1_565 S
C385 N383 1.356 . S
N386 C378 1.356 . S
N386 H392 0.984 . S
N386 H393 0.984 1_556 S
N387 C380 1.356 . S
N387 H390 0.984 1_554 S
N387 H391 0.985 . S
H388 N383 0.984 . S
H389 N383 0.985 1_545 S
H390 N387 0.984 1_556 S
H391 N387 0.985 . S
H392 N386 0.984 . S
H393 N386 0.984 1_554 S
H394 N382 0.984 1_565 S
H395 N382 0.985 . S
C396 C397 1.363 . S
C396 C402 1.379 . S
C396 N404 1.356 . S
C397 C396 1.363 . S
C397 C403 1.363 . S
C398 C399 1.363 . S
C398 C403 1.379 . S
C398 N405 1.356 . S
C399 C398 1.363 . S
C399 C402 1.363 . S
N400 C402 1.356 . S
N400 H412 0.984 . S
N400 H413 0.985 . S
N401 C403 1.356 . S
N401 H406 0.984 . S
N401 H407 0.985 . S
C402 C396 1.379 . S
C402 C399 1.363 . S
C402 N400 1.356 . S
C403 C397 1.363 . S
C403 C398 1.379 . S
C403 N401 1.356 . S
N404 C396 1.356 . S
N404 H410 0.984 . S
N404 H411 0.984 . S
N405 C398 1.356 . S
N405 H408 0.984 . S
N405 H409 0.985 . S
H406 N401 0.984 . S
H407 N401 0.985 . S
H408 N405 0.984 . S
H409 N405 0.985 . S
H410 N404 0.984 . S
H411 N404 0.984 . S
H412 N400 0.984 . S
H413 N400 0.985 . S
C414 C415 1.363 1_554 S
C414 C420 1.371 1_655 S
C414 N422 1.356 . S
C415 C414 1.363 1_556 S
C415 C421 1.370 . S
C416 C417 1.363 1_556 S
C416 C421 1.371 1_455 S
C416 N423 1.356 . S
C417 C416 1.363 1_554 S
C417 C420 1.370 . S
N418 C420 1.360 . S
N418 H430 0.984 1_455 S
N418 H431 0.985 . S
N419 C421 1.360 . S
N419 H424 0.984 . S
N419 H425 0.985 1_655 S
C420 C414 1.371 1_455 S
C420 C417 1.370 . S
C420 N418 1.360 . S
C421 C415 1.370 . S
C421 C416 1.371 1_655 S
C421 N419 1.360 . S
N422 C414 1.356 . S
N422 H428 0.984 . S
N422 H429 0.984 . S
N423 C416 1.356 . S
N423 H426 0.984 . S
N423 H427 0.985 . S
H424 N419 0.984 . S
H425 N419 0.985 1_455 S
H426 N423 0.984 . S
H427 N423 0.985 . S
H428 N422 0.984 . S
H429 N422 0.984 . S
H430 N418 0.984 1_655 S
H431 N418 0.985 . S
C432 C433 1.363 . S
C432 C438 1.379 1_565 S
C432 N440 1.356 . S
C433 C432 1.363 . S
C433 C439 1.363 . S
C434 C435 1.363 . S
C434 C439 1.379 1_545 S
C434 N441 1.356 . S
C435 C434 1.363 . S
C435 C438 1.363 . S
N436 C438 1.356 . S
N436 H448 0.984 . S
N436 H449 0.985 . S
N437 C439 1.356 . S
N437 H442 0.984 . S
N437 H443 0.985 . S
C438 C432 1.379 1_545 S
C438 C435 1.363 . S
C438 N436 1.356 . S
C439 C433 1.363 . S
C439 C434 1.379 1_565 S
C439 N437 1.356 . S
N440 C432 1.356 . S
N440 H446 0.984 . S
N440 H447 0.984 . S
N441 C434 1.356 . S
N441 H444 0.984 . S
N441 H445 0.985 . S
H442 N437 0.984 . S
H443 N437 0.985 . S
H444 N441 0.984 . S
H445 N441 0.985 . S
H446 N440 0.984 . S
H447 N440 0.984 . S
H448 N436 0.984 . S
H449 N436 0.985 . S
C127 C19 1.479 . S
C129 C104 1.479 . S
C145 C40 1.479 . S
C147 C125 1.479 . S
C163 C20 1.479 . S
C165 C62 1.479 . S
C181 C82 1.479 . S
C183 C41 1.479 . S
C199 C61 1.479 . S
C201 C103 1.479 . S
C217 C83 1.479 . S
C219 C124 1.479 . S
C235 C121 1.499 . S
C237 C3 1.499 . S
C253 C24 1.499 . S
C255 C16 1.499 . S
C271 C37 1.499 . S
C273 C58 1.499 . S
C289 C45 1.499 . S
C291 C66 1.499 . S
C307 C79 1.499 . S
C309 C87 1.499 . S
C325 C108 1.499 . S
C327 C100 1.499 . S
C343 C46 1.231 . S
C345 C67 1.231 . S
C361 C70 1.231 . S
C363 C88 1.231 . S
C379 C91 1.231 . S
C381 C109 1.231 . S
C397 C112 1.231 . S
C399 C4 1.231 . S
C415 C25 1.231 . S
C417 C7 1.231 . S
C433 C49 1.231 . S
C435 C28 1.231 . S
