# Generated by pormake.
# Topology qtz-x, (6)-cn, num edge types: 1
# Building blocks:
#     Node 0, Type 0, BuildingBlock: GEDQOX_clean_sbu_0, # of connection points: 6
#     Node 1, Type 0, BuildingBlock: GEDQOX_clean_sbu_0, # of connection points: 6
#     Node 2, Type 0, BuildingBlock: GEDQOX_clean_sbu_0, # of connection points: 6
#     Edge 3, Type (0, 0), BuildingBlock: FUNLAD_clean_linker_0, # of connection points: 2
#     Edge 4, Type (0, 0), BuildingBlock: FUNLAD_clean_linker_0, # of connection points: 2
#     Edge 5, Type (0, 0), BuildingBlock: FUNLAD_clean_linker_0, # of connection points: 2
#     Edge 6, Type (0, 0), BuildingBlock: FUNLAD_clean_linker_0, # of connection points: 2
#     Edge 7, Type (0, 0), BuildingBlock: FUNLAD_clean_linker_0, # of connection points: 2
#     Edge 8, Type (0, 0), BuildingBlock: FUNLAD_clean_linker_0, # of connection points: 2
#     Edge 9, Type (0, 0), BuildingBlock: FUNLAD_clean_linker_0, # of connection points: 2
#     Edge 10, Type (0, 0), BuildingBlock: FUNLAD_clean_linker_0, # of connection points: 2
#     Edge 11, Type (0, 0), BuildingBlock: FUNLAD_clean_linker_0, # of connection points: 2
# Relax obj value: 0.185
# Max RMSD: 0.249
# Mean RMSD: 0.224
data_MOF--net-qtz-x--node1-GEDQOX_clean_sbu_0--edge1-FUNLAD_clean_linker_0
_symmetry_space_group_name_H-M    P1
_symmetry_Int_Tables_number       1
_symmetry_cell_setting            triclinic
loop_
_symmetry_equiv_pos_as_xyz
'x, y, z'
_cell_length_a     17.110095
_cell_length_b     17.26443
_cell_length_c     60.628697
_cell_angle_alpha  71.175265
_cell_angle_beta   112.20231
_cell_angle_gamma 120.96886
loop_
_atom_site_label
_atom_site_type_symbol
_atom_site_fract_x
_atom_site_fract_y
_atom_site_fract_z
_atom_type_partial_charge
Nd0 Nd 0.1731 0.71879 0.18261 0.0
Nd1 Nd 0.98623 0.59315 0.19294 0.0
C2 C 0.31596 0.84483 0.16418 0.0
C3 C 0.34777 0.85107 0.14391 0.0
C4 C 0.37132 0.93157 0.12692 0.0
C5 C 0.39655 0.93632 0.1069 0.0
C6 C 0.3993 0.86075 0.10367 0.0
C7 C 0.3761 0.7804 0.12079 0.0
C8 C 0.35003 0.77537 0.14062 0.0
C9 C 0.12692 0.53615 0.18887 0.0
C10 C 0.98273 0.65866 0.13707 0.0
C11 C 0.84582 0.45878 0.2114 0.0
C12 C 0.82911 0.42168 0.23571 0.0
C13 C 0.90084 0.4135 0.2561 0.0
C14 C 0.88491 0.38062 0.2791 0.0
C15 C 0.79668 0.35476 0.28221 0.0
C16 C 0.72482 0.36255 0.2617 0.0
C17 C 0.74102 0.39586 0.23871 0.0
C18 C 1.02962 0.77529 0.18523 0.0
C19 C 0.17727 0.66624 0.23787 0.0
O20 O 0.23601 0.84856 0.15829 0.0
O21 O 0.3237 0.78282 0.18303 0.0
O22 O 0.2108 0.59814 0.19701 0.0
O23 O 0.07156 0.57158 0.17713 0.0
O24 O 0.06883 0.72142 0.14519 0.0
O25 O 0.93625 0.5903 0.15212 0.0
O26 O 0.90901 0.447 0.20755 0.0
O27 O 0.85102 0.54034 0.20198 0.0
O28 O 0.94604 0.71206 0.17715 0.0
O29 O 0.08613 0.74138 0.19761 0.0
O30 O 0.09396 0.59751 0.23073 0.0
O31 O 0.21765 0.73444 0.22191 0.0
H32 H 0.36928 -0.00954 0.12901 0.0
H33 H 0.4146 -0.00072 0.09406 0.0
H34 H 0.37624 0.72065 0.11859 0.0
H35 H 0.33057 0.71177 0.1532 0.0
H36 H 0.96925 0.43238 0.25427 0.0
H37 H 0.94143 0.37436 0.29441 0.0
H38 H 0.65641 0.34423 0.26346 0.0
H39 H 0.6848 0.40194 0.22325 0.0
Nd40 Nd 0.69162 0.93311 0.53935 0.0
Nd41 Nd 0.79369 0.14915 0.55008 0.0
C42 C 0.65648 0.78241 0.52734 0.0
C43 C 0.61691 0.75221 0.50359 0.0
C44 C 0.65303 0.81066 0.48379 0.0
C45 C 0.60874 0.78614 0.46078 0.0
C46 C 0.52709 0.70278 0.45698 0.0
C47 C 0.49241 0.64331 0.47691 0.0
C48 C 0.53702 0.66779 0.49999 0.0
C49 C 0.56247 -0.00717 0.53452 0.0
C50 C 0.73621 0.11149 0.49474 0.0
C51 C 0.82443 0.30323 0.5592 0.0
C52 C 0.85483 0.3382 0.58165 0.0
C53 C 0.82953 0.27798 0.60252 0.0
C54 C 0.86118 0.31102 0.62401 0.0
C55 C 0.9193 0.40478 0.62509 0.0
C56 C 0.94532 0.4648 0.60422 0.0
C57 C 0.91312 0.43168 0.58264 0.0
C58 C 0.9233 0.09084 0.55439 0.0
C59 C 0.75051 0.97222 0.59488 0.0
O60 O 0.74057 0.85213 0.53098 0.0
O61 O 0.59791 0.78698 0.53531 0.0
O62 O 0.53763 0.91228 0.5308 0.0
O63 O 0.65096 0.03585 0.53923 0.0
O64 O 0.71305 0.023 0.50258 0.0
O65 O 0.76035 0.16992 0.50874 0.0
O66 O 0.74051 0.23375 0.55486 0.0
O67 O 0.88805 0.29457 0.55455 0.0
O68 O 0.94771 0.17106 0.55828 0.0
O69 O 0.83473 0.04717 0.54966 0.0
O70 O 0.77285 0.06046 0.58681 0.0
O71 O 0.72583 0.91269 0.58103 0.0
H72 H 0.71401 0.87666 0.48589 0.0
H73 H 0.63662 0.83412 0.4458 0.0
H74 H 0.43025 0.57819 0.47463 0.0
H75 H 0.50766 0.62178 0.51495 0.0
H76 H 0.78565 0.20528 0.60225 0.0
H77 H 0.84103 0.26301 0.63989 0.0
H78 H 0.98941 0.53746 0.6045 0.0
H79 H 0.93395 0.47896 0.56675 0.0
Nd80 Nd 0.90143 0.75062 0.87158 0.0
Nd81 Nd 0.7511 0.81232 0.85983 0.0
C82 C 0.04062 0.72903 0.8701 0.0
C83 C 0.04163 0.69806 0.85038 0.0
C84 C 0.12631 0.7243 0.84535 0.0
C85 C 0.1242 0.70452 0.82437 0.0
C86 C 0.03731 0.65948 0.80813 0.0
C87 C 0.95305 0.63115 0.81374 0.0
C88 C 0.9552 0.65049 0.83456 0.0
C89 C 0.72177 0.61159 0.8684 0.0
C90 C 0.80148 0.811 0.81419 0.0
C91 C 0.60571 0.82923 0.85956 0.0
C92 C 0.57047 0.82619 0.87874 0.0
C93 C 0.56889 0.76052 0.89977 0.0
C94 C 0.54355 0.76321 0.91877 0.0
C95 C 0.51979 0.83196 0.91726 0.0
C96 C 0.51916 0.89626 0.89591 0.0
C97 C 0.54432 0.89334 0.87685 0.0
C98 C 0.93025 0.95102 0.86192 0.0
C99 C 0.85761 0.75785 0.91695 0.0
O100 O 0.04027 0.80876 0.86414 0.0
O101 O 0.97881 0.6679 0.88226 0.0
O102 O 0.79551 0.60526 0.88418 0.0
O103 O 0.74463 0.68696 0.85438 0.0
O104 O 0.87438 0.80052 0.83042 0.0
O105 O 0.73401 0.8073 0.82075 0.0
O106 O 0.59941 0.75232 0.85792 0.0
O107 O 0.68637 0.89931 0.85718 0.0
O108 O 0.85593 0.95614 0.84602 0.0
O109 O 0.9082 0.87692 0.87651 0.0
O110 O 0.77904 0.75917 0.90134 0.0
O111 O 0.92645 0.76933 0.90945 0.0
H112 H 0.1936 0.76229 0.8572 0.0
H113 H 0.19015 0.72725 0.82042 0.0
H114 H 0.88508 0.59494 0.80182 0.0
H115 H 0.88892 0.63061 0.83794 0.0
H116 H 0.58888 0.70796 0.90175 0.0
H117 H 0.54323 0.71164 0.93474 0.0
H118 H 0.5022 0.95067 0.8942 0.0
H119 H 0.54567 0.94499 0.86085 0.0
C120 C 0.97837 0.89843 0.17366 0.0
C121 C 0.04983 0.86996 0.18478 0.0
C122 C 0.99625 -0.01328 0.17417 0.0
C123 C 0.08624 0.04846 0.18591 0.0
C124 C 0.15814 0.02038 0.19644 0.0
C125 C 0.14014 0.93207 0.19598 0.0
C126 C 0.10895 0.143 0.18721 0.0
C127 C 0.04377 0.16932 0.18477 0.0
C128 C 0.06713 0.26369 0.18642 0.0
C129 C 0.99622 0.29312 0.17585 0.0
C130 C 1.01513 0.38126 0.17683 0.0
C131 C 0.10535 0.44173 0.18859 0.0
H132 H 0.21281 0.30328 0.20787 0.0
C133 C 0.17575 0.41187 0.19969 0.0
C134 C 0.15695 0.32384 0.19869 0.0
H135 H 0.2457 0.45671 0.20912 0.0
H136 H 0.90828 0.85225 0.16466 0.0
H137 H 0.93955 0.00614 0.16508 0.0
H138 H 0.22838 0.06657 0.20538 0.0
H139 H 0.19681 0.91223 0.20458 0.0
H140 H 0.18304 0.192 0.19074 0.0
H141 H 0.96961 0.12053 0.18115 0.0
H142 H 0.9261 0.24813 0.16653 0.0
H143 H 0.9593 0.40226 0.16822 0.0
C144 C 0.40161 -0.01764 0.52257 0.0
C145 C 0.49609 0.02011 0.53616 0.0
C146 C 0.33466 -0.00124 0.52569 0.0
C147 C 0.36047 0.05237 0.54283 0.0
C148 C 0.45568 0.09163 0.55604 0.0
C149 C 0.5226 0.07502 0.5529 0.0
C150 C 0.29098 0.06963 0.54733 0.0
C151 C 0.19662 0.01539 0.542 0.0
C152 C 0.12688 0.03255 0.54641 0.0
C153 C 1.03161 -0.00771 0.53332 0.0
C154 C 0.96429 0.00856 0.53636 0.0
C155 C 0.99038 0.06414 0.55288 0.0
H156 H 0.22397 0.1172 0.57436 0.0
C157 C 0.08497 0.10299 0.56633 0.0
C158 C 0.15238 0.08695 0.56331 0.0
H159 H 0.10714 0.14669 0.57911 0.0
H160 H 0.37919 0.93923 0.50962 0.0
H161 H 0.26316 0.96943 0.51454 0.0
H162 H 0.47792 0.13316 0.56938 0.0
H163 H 0.59367 0.10127 0.56442 0.0
H164 H 0.31986 0.12894 0.55571 0.0
H165 H 0.16786 0.956 0.53366 0.0
H166 H 1.00959 0.95018 0.52014 0.0
H167 H 0.89318 -0.01849 0.52492 0.0
C168 C 0.04569 0.10534 0.84665 0.0
C169 C 1.02762 0.02409 0.86342 0.0
C170 C 0.13795 0.17491 0.84812 0.0
C171 C 0.21405 0.16462 0.86655 0.0
C172 C 0.19569 0.08244 0.88302 0.0
C173 C 0.10343 0.013 0.88156 0.0
C174 C 0.31349 0.23651 0.86891 0.0
C175 C 0.33806 0.32591 0.85991 0.0
C176 C 0.43761 0.39767 0.8625 0.0
C177 C 0.45692 0.47955 0.8459 0.0
C178 C 0.54935 0.54902 0.84772 0.0
C179 C 0.62427 0.5383 0.86637 0.0
H180 H 0.50096 0.32722 0.89507 0.0
C181 C 0.60522 0.45721 0.88321 0.0
C182 C 0.51284 0.38763 0.88137 0.0
H183 H 0.66167 0.44771 0.89793 0.0
H184 H 0.98852 0.1151 0.8323 0.0
H185 H 0.14896 0.23556 0.83452 0.0
H186 H 0.25288 0.07216 0.89723 0.0
H187 H 0.09151 0.95069 0.89464 0.0
H188 H 0.36806 0.21424 0.87882 0.0
H189 H 0.28364 0.34834 0.84994 0.0
H190 H 0.40036 0.48957 0.83132 0.0
H191 H 0.56209 0.61104 0.83451 0.0
C192 C 0.55154 0.82107 0.96185 0.0
C193 C 0.49911 0.83828 0.9382 0.0
C194 C 0.53307 0.82724 0.98162 0.0
C195 C 0.46217 0.852 0.97825 0.0
C196 C 0.40933 0.86853 0.9546 0.0
C197 C 0.42764 0.86202 0.93481 0.0
C198 C 0.43892 0.8584 0.99878 0.0
C199 C 0.49623 0.86413 1.02138 0.0
C200 C 0.47056 0.8657 0.04203 0.0
C201 C 0.51142 0.83226 0.06542 0.0
C202 C 0.48864 0.83112 0.08538 0.0
C203 C 0.42548 0.86482 0.08245 0.0
H204 H 0.37762 0.92976 1.02144 0.0
C205 C 0.38633 0.90061 0.05913 0.0
C206 C 0.40844 0.90093 0.03909 0.0
H207 H 0.33737 0.92698 0.05633 0.0
H208 H 0.60776 0.80349 0.96516 0.0
H209 H 0.57401 0.81108 0.99939 0.0
H210 H 0.35358 0.88669 0.95139 0.0
H211 H 0.38494 0.87447 0.91687 0.0
H212 H 0.37121 0.85754 0.99499 0.0
H213 H 0.56381 0.86456 1.02547 0.0
H214 H 0.56027 0.80566 0.06825 0.0
H215 H 0.52091 0.80425 0.10317 0.0
C216 C 0.71216 0.08834 0.45331 0.0
C217 C 0.73926 0.14759 0.46907 0.0
C218 C 0.7212 0.12275 0.42963 0.0
C219 C 0.75715 0.21755 0.42102 0.0
C220 C 0.78322 0.27653 0.43669 0.0
C221 C 0.77404 0.24212 0.46035 0.0
C222 C 0.77346 0.258 0.39644 0.0
C223 C 0.72932 0.21113 0.37776 0.0
C224 C 0.74781 0.25134 0.35341 0.0
C225 C 0.67855 0.21084 0.33339 0.0
C226 C 0.69396 0.24475 0.31033 0.0
C227 C 0.77968 0.31956 0.30673 0.0
H228 H 0.8903 0.35775 0.36481 0.0
C229 C 0.84944 0.35974 0.32678 0.0
C230 C 0.83387 0.32606 0.34984 0.0
H231 H 0.91615 0.41769 0.32466 0.0
H232 H 0.68542 0.01518 0.45934 0.0
H233 H 0.70253 0.07479 0.41849 0.0
H234 H 0.81169 0.34984 0.43067 0.0
H235 H 0.79611 0.29007 0.47192 0.0
H236 H 0.82188 0.33027 0.39356 0.0
H237 H 0.6746 0.14125 0.37994 0.0
H238 H 0.61206 0.15258 0.33559 0.0
H239 H 0.63925 0.2112 0.29538 0.0
C240 C 0.71584 0.82053 0.7697 0.0
C241 C 0.7984 0.8281 0.78825 0.0
C242 C 0.7156 0.83757 0.74536 0.0
C243 C 0.79838 0.86375 0.73915 0.0
C244 C 0.88039 0.87114 0.75769 0.0
C245 C 0.88023 0.85261 0.78187 0.0
C246 C 0.80442 0.89064 0.71367 0.0
C247 C 0.73283 0.85246 0.69498 0.0
C248 C 0.7419 0.88262 0.66967 0.0
C249 C 0.69156 0.81935 0.65351 0.0
C250 C 0.69686 0.84721 0.62943 0.0
C251 C 0.75097 0.93953 0.62084 0.0
H252 H 0.83511 0.02589 0.67281 0.0
C253 C 0.80132 0.00266 0.63706 0.0
C254 C 0.79713 0.97464 0.66113 0.0
H255 H 0.84349 0.07442 0.63112 0.0
H256 H 0.6516 0.8016 0.77397 0.0
H257 H 0.65157 0.8329 0.73146 0.0
H258 H 0.94523 0.89159 0.75347 0.0
H259 H 0.94528 0.85919 0.79557 0.0
H260 H 0.87277 0.94135 0.71043 0.0
H261 H 0.66721 0.79534 0.6984 0.0
H262 H 0.6479 0.74816 0.65954 0.0
H263 H 0.65641 0.79698 0.61738 0.0
C264 C 0.7961 0.72412 0.95258 0.0
C265 C 0.87015 0.74531 0.9433 0.0
C266 C 0.80979 0.71356 0.97752 0.0
C267 C 0.89809 0.72437 0.99365 0.0
C268 C 0.9716 0.74555 0.98429 0.0
C269 C 0.9578 0.75532 0.95953 0.0
C270 C 0.91928 0.71989 1.02011 0.0
C271 C 0.8546 0.67515 0.03307 0.0
C272 C 0.88258 0.67347 0.05966 0.0
C273 C 0.83195 0.59608 0.07463 0.0
C274 C 0.862 0.59143 0.09985 0.0
C275 C 0.94282 0.66464 0.11048 0.0
H276 H 0.99883 0.81065 0.05938 0.0
C277 C 0.99014 0.74375 0.09532 0.0
C278 C 0.9603 0.74829 0.07031 0.0
H279 H 0.05166 0.80231 0.10275 0.0
H280 H 0.72773 0.71614 0.94059 0.0
H281 H 0.75198 0.69925 0.98397 0.0
H282 H 0.04055 0.75494 0.99621 0.0
H283 H 1.01663 0.77188 0.95313 0.0
H284 H 0.99352 0.75228 1.02959 0.0
H285 H 0.78101 0.63477 1.02446 0.0
H286 H 0.77093 0.53794 0.06688 0.0
H287 H 0.82367 0.52969 0.11098 0.0
C288 C 0.1833 0.59828 0.28166 0.0
C289 C 0.22461 0.66887 0.26397 0.0
C290 C 0.22843 0.60183 0.30625 0.0
C291 C 0.3159 0.6766 0.3137 0.0
C292 C 0.3573 0.74642 0.29596 0.0
C293 C 0.31229 0.74284 0.27145 0.0
C294 C 0.36778 0.68437 0.33955 0.0
C295 C 0.32818 0.6369 0.35823 0.0
C296 C 0.38089 0.65021 0.38376 0.0
C297 C 0.3303 0.62799 0.40034 0.0
C298 C 0.37742 0.64311 0.42421 0.0
C299 C 0.47643 0.68037 0.43212 0.0
H300 H 0.52135 0.69882 0.3801 0.0
C301 C 0.52689 0.69959 0.41578 0.0
C302 C 0.47979 0.68428 0.39193 0.0
H303 H 0.60303 0.72644 0.42144 0.0
H304 H 0.11621 0.54 0.27655 0.0
H305 H 0.1949 0.54521 0.3192 0.0
H306 H 0.42478 0.80458 0.30106 0.0
H307 H 0.34651 0.7984 0.25838 0.0
H308 H 0.441 0.73572 0.34309 0.0
H309 H 0.25314 0.59108 0.35475 0.0
H310 H 0.2541 0.60086 0.39466 0.0
H311 H 0.33639 0.62812 0.43627 0.0
C312 C 0.08786 0.60679 0.78407 0.0
C313 C 1.03261 0.6434 0.78499 0.0
C314 C 0.07489 0.58259 0.76256 0.0
C315 C 1.00678 0.59533 0.7416 0.0
C316 C 0.95446 0.63516 0.74242 0.0
C317 C 0.96755 0.65944 0.76379 0.0
C318 C 0.98209 0.56131 0.71917 0.0
C319 C 0.03993 0.54589 0.71296 0.0
C320 C 1.00888 0.50813 0.69069 0.0
C321 C 0.07399 0.53624 0.67761 0.0
C322 C 0.0451 0.50308 0.65622 0.0
C323 C 0.9509 0.43979 0.64782 0.0
H324 H 0.86369 0.41828 0.69254 0.0
C325 C 0.88647 0.40987 0.66129 0.0
C326 C 0.91508 0.44354 0.6825 0.0
H327 H 0.81342 0.36123 0.65526 0.0
H328 H 0.13799 0.59312 0.8002 0.0
H329 H 0.11526 0.55039 0.76277 0.0
H330 H 0.90177 0.64596 0.72655 0.0
H331 H 0.92519 0.68918 0.76384 0.0
H332 H 0.91299 0.55021 0.7069 0.0
H333 H 0.11248 0.56498 0.72366 0.0
H334 H 0.14688 0.58507 0.68373 0.0
H335 H 0.09655 0.52629 0.64636 0.0
loop_
_geom_bond_atom_site_label_1
_geom_bond_atom_site_label_2
_geom_bond_distance
_geom_bond_site_symmetry_2
_ccdc_geom_bond_type
Nd0 C2 2.836 . S
Nd0 O20 2.500 . S
Nd0 O21 2.492 . S
Nd0 O22 2.487 . S
Nd0 O23 2.682 1_455 S
Nd0 O24 2.410 1_455 S
Nd0 O29 2.414 . S
Nd0 O31 2.424 . S
Nd1 C11 2.836 . S
Nd1 O23 2.414 . S
Nd1 O25 2.424 . S
Nd1 O26 2.500 . S
Nd1 O27 2.492 . S
Nd1 O28 2.487 . S
Nd1 O29 2.682 1_655 S
Nd1 O30 2.410 1_655 S
C2 Nd0 2.836 . S
C2 C3 1.498 . S
C2 O20 1.258 . S
C2 O21 1.239 . S
C3 C2 1.498 . S
C3 C4 1.366 . S
C3 C8 1.407 . S
C4 C3 1.366 . S
C4 C5 1.392 . S
C4 H32 0.930 . S
C5 C4 1.392 . S
C5 C6 1.398 . S
C5 H33 0.929 . S
C6 C5 1.398 . S
C6 C7 1.352 . S
C7 C6 1.352 . S
C7 C8 1.384 . S
C7 H34 0.930 . S
C8 C3 1.407 . S
C8 C7 1.384 . S
C8 H35 0.929 . S
C9 O22 1.241 . S
C9 O23 1.273 1_455 S
C10 O24 1.251 . S
C10 O25 1.268 . S
C11 Nd1 2.836 . S
C11 C12 1.498 . S
C11 O26 1.258 . S
C11 O27 1.239 . S
C12 C11 1.498 . S
C12 C13 1.366 . S
C12 C17 1.407 . S
C13 C12 1.366 . S
C13 C14 1.392 . S
C13 H36 0.930 . S
C14 C13 1.392 . S
C14 C15 1.398 . S
C14 H37 0.929 . S
C15 C14 1.398 . S
C15 C16 1.352 . S
C16 C15 1.352 . S
C16 C17 1.384 . S
C16 H38 0.930 . S
C17 C12 1.407 . S
C17 C16 1.384 . S
C17 H39 0.929 . S
C18 O28 1.241 . S
C18 O29 1.273 1_655 S
C19 O30 1.251 . S
C19 O31 1.268 . S
O20 Nd0 2.500 . S
O20 C2 1.258 . S
O21 Nd0 2.492 . S
O21 C2 1.239 . S
O22 Nd0 2.487 . S
O22 C9 1.241 . S
O23 Nd0 2.682 1_655 S
O23 Nd1 2.414 . S
O23 C9 1.273 1_655 S
O24 Nd0 2.410 1_655 S
O24 C10 1.251 . S
O25 Nd1 2.424 . S
O25 C10 1.268 . S
O26 Nd1 2.500 . S
O26 C11 1.258 . S
O27 Nd1 2.492 . S
O27 C11 1.239 . S
O28 Nd1 2.487 . S
O28 C18 1.241 . S
O29 Nd0 2.414 . S
O29 Nd1 2.682 1_455 S
O29 C18 1.273 1_455 S
O30 Nd1 2.410 1_455 S
O30 C19 1.251 . S
O31 Nd0 2.424 . S
O31 C19 1.268 . S
H32 C4 0.930 . S
H33 C5 0.929 . S
H34 C7 0.930 . S
H35 C8 0.929 . S
H36 C13 0.930 . S
H37 C14 0.929 . S
H38 C16 0.930 . S
H39 C17 0.929 . S
Nd40 C42 2.836 . S
Nd40 O60 2.500 . S
Nd40 O61 2.492 . S
Nd40 O62 2.487 . S
Nd40 O63 2.682 1_565 S
Nd40 O64 2.410 1_565 S
Nd40 O69 2.414 . S
Nd40 O71 2.424 . S
Nd41 C51 2.836 . S
Nd41 O63 2.414 . S
Nd41 O65 2.424 . S
Nd41 O66 2.500 . S
Nd41 O67 2.492 . S
Nd41 O68 2.487 . S
Nd41 O69 2.682 1_545 S
Nd41 O70 2.410 . S
C42 Nd40 2.836 . S
C42 C43 1.498 . S
C42 O60 1.258 . S
C42 O61 1.239 . S
C43 C42 1.498 . S
C43 C44 1.366 . S
C43 C48 1.407 . S
C44 C43 1.366 . S
C44 C45 1.392 . S
C44 H72 0.930 . S
C45 C44 1.392 . S
C45 C46 1.398 . S
C45 H73 0.929 . S
C46 C45 1.398 . S
C46 C47 1.352 . S
C47 C46 1.352 . S
C47 C48 1.384 . S
C47 H74 0.930 . S
C48 C43 1.407 . S
C48 C47 1.384 . S
C48 H75 0.929 . S
C49 O62 1.241 . S
C49 O63 1.273 1_565 S
C50 O64 1.251 . S
C50 O65 1.268 . S
C51 Nd41 2.836 . S
C51 C52 1.498 . S
C51 O66 1.258 . S
C51 O67 1.239 . S
C52 C51 1.498 . S
C52 C53 1.366 . S
C52 C57 1.407 . S
C53 C52 1.366 . S
C53 C54 1.392 . S
C53 H76 0.930 . S
C54 C53 1.392 . S
C54 C55 1.398 . S
C54 H77 0.929 . S
C55 C54 1.398 . S
C55 C56 1.352 . S
C56 C55 1.352 . S
C56 C57 1.384 . S
C56 H78 0.930 1_655 S
C57 C52 1.407 . S
C57 C56 1.384 . S
C57 H79 0.929 1_655 S
C58 O68 1.241 . S
C58 O69 1.273 1_545 S
C59 O70 1.251 1_565 S
C59 O71 1.268 . S
O60 Nd40 2.500 . S
O60 C42 1.258 . S
O61 Nd40 2.492 . S
O61 C42 1.239 . S
O62 Nd40 2.487 . S
O62 C49 1.241 . S
O63 Nd40 2.682 1_545 S
O63 Nd41 2.414 . S
O63 C49 1.273 1_545 S
O64 Nd40 2.410 1_545 S
O64 C50 1.251 . S
O65 Nd41 2.424 . S
O65 C50 1.268 . S
O66 Nd41 2.500 . S
O66 C51 1.258 . S
O67 Nd41 2.492 . S
O67 C51 1.239 . S
O68 Nd41 2.487 . S
O68 C58 1.241 . S
O69 Nd40 2.414 . S
O69 Nd41 2.682 1_565 S
O69 C58 1.273 1_565 S
O70 Nd41 2.410 . S
O70 C59 1.251 1_545 S
O71 Nd40 2.424 . S
O71 C59 1.268 . S
H72 C44 0.930 . S
H73 C45 0.929 . S
H74 C47 0.930 . S
H75 C48 0.929 . S
H76 C53 0.930 . S
H77 C54 0.929 . S
H78 C56 0.930 1_455 S
H79 C57 0.929 1_455 S
Nd80 C82 2.836 . S
Nd80 O100 2.500 . S
Nd80 O101 2.492 . S
Nd80 O102 2.487 . S
Nd80 O103 2.682 . S
Nd80 O104 2.410 . S
Nd80 O109 2.414 . S
Nd80 O111 2.424 . S
Nd81 C91 2.836 . S
Nd81 O103 2.414 . S
Nd81 O105 2.424 . S
Nd81 O106 2.500 . S
Nd81 O107 2.492 1_565 S
Nd81 O108 2.487 1_565 S
Nd81 O109 2.682 . S
Nd81 O110 2.410 . S
C82 Nd80 2.836 . S
C82 C83 1.498 . S
C82 O100 1.258 . S
C82 O101 1.239 . S
C83 C82 1.498 . S
C83 C84 1.370 . S
C83 C88 1.407 . S
C84 C83 1.370 . S
C84 C85 1.387 1_655 S
C84 H112 0.931 1_655 S
C85 C84 1.387 1_455 S
C85 C86 1.398 1_455 S
C85 H113 0.929 . S
C86 C85 1.398 1_655 S
C86 C87 1.352 . S
C87 C86 1.352 . S
C87 C88 1.384 . S
C87 H114 0.930 . S
C88 C83 1.407 . S
C88 C87 1.384 . S
C88 H115 0.929 . S
C89 O102 1.241 . S
C89 O103 1.273 . S
C90 O104 1.251 . S
C90 O105 1.268 . S
C91 Nd81 2.836 . S
C91 C92 1.498 . S
C91 O106 1.258 . S
C91 O107 1.239 1_565 S
C92 C91 1.498 . S
C92 C93 1.366 . S
C92 C97 1.407 1_565 S
C93 C92 1.366 . S
C93 C94 1.392 . S
C93 H116 0.930 . S
C94 C93 1.392 . S
C94 C95 1.398 1_565 S
C94 H117 0.929 . S
C95 C94 1.398 1_545 S
C95 C96 1.352 . S
C96 C95 1.352 . S
C96 C97 1.384 . S
C96 H118 0.930 . S
C97 C92 1.407 1_545 S
C97 C96 1.384 . S
C97 H119 0.929 . S
C98 O108 1.241 . S
C98 O109 1.273 1_545 S
C99 O110 1.251 . S
C99 O111 1.268 . S
O100 Nd80 2.500 . S
O100 C82 1.258 . S
O101 Nd80 2.492 . S
O101 C82 1.239 . S
O102 Nd80 2.487 . S
O102 C89 1.241 . S
O103 Nd80 2.682 . S
O103 Nd81 2.414 . S
O103 C89 1.273 . S
O104 Nd80 2.410 . S
O104 C90 1.251 . S
O105 Nd81 2.424 . S
O105 C90 1.268 . S
O106 Nd81 2.500 . S
O106 C91 1.258 . S
O107 Nd81 2.492 1_545 S
O107 C91 1.239 1_545 S
O108 Nd81 2.487 1_545 S
O108 C98 1.241 . S
O109 Nd80 2.414 . S
O109 Nd81 2.682 . S
O109 C98 1.273 1_565 S
O110 Nd81 2.410 . S
O110 C99 1.251 . S
O111 Nd80 2.424 . S
O111 C99 1.268 . S
H112 C84 0.931 1_455 S
H113 C85 0.929 . S
H114 C87 0.930 . S
H115 C88 0.929 . S
H116 C93 0.930 . S
H117 C94 0.929 . S
H118 C96 0.930 . S
H119 C97 0.929 . S
C120 C121 1.386 . S
C120 C122 1.383 1_565 S
C120 H136 0.951 . S
C121 C120 1.386 . S
C121 C125 1.383 . S
C122 C120 1.383 1_545 S
C122 C123 1.402 . S
C122 H137 0.951 . S
C123 C122 1.402 . S
C123 C124 1.375 1_545 S
C123 C126 1.481 . S
C124 C123 1.375 1_565 S
C124 C125 1.367 . S
C124 H138 0.951 . S
C125 C121 1.383 . S
C125 C124 1.367 . S
C125 H139 0.950 1_655 S
C126 C123 1.481 . S
C126 C127 1.297 . S
C126 H140 0.950 . S
C127 C126 1.297 . S
C127 C128 1.479 . S
C127 H141 0.950 . S
C128 C127 1.479 . S
C128 C129 1.375 . S
C128 C134 1.404 . S
C129 C128 1.375 . S
C129 C130 1.369 . S
C129 H142 0.950 . S
C130 C129 1.369 . S
C130 C131 1.392 . S
C130 H143 0.951 . S
C131 C130 1.392 . S
C131 C133 1.384 . S
H132 C134 0.949 . S
C133 C131 1.384 . S
C133 C134 1.385 . S
C133 H135 0.950 . S
C134 C128 1.404 . S
C134 H132 0.949 . S
C134 C133 1.385 . S
H135 C133 0.950 . S
H136 C120 0.951 . S
H137 C122 0.951 . S
H138 C124 0.951 . S
H139 C125 0.950 1_455 S
H140 C126 0.950 . S
H141 C127 0.950 . S
H142 C129 0.950 . S
H143 C130 0.951 . S
C144 C145 1.387 . S
C144 C146 1.383 . S
C144 H160 0.951 . S
C145 C144 1.387 . S
C145 C149 1.375 1_565 S
C146 C144 1.383 . S
C146 C147 1.402 . S
C146 H161 0.951 . S
C147 C146 1.402 . S
C147 C148 1.375 1_565 S
C147 C150 1.481 . S
C148 C147 1.375 1_545 S
C148 C149 1.367 . S
C148 H162 0.951 . S
C149 C145 1.375 1_545 S
C149 C148 1.367 . S
C149 H163 0.950 . S
C150 C147 1.481 . S
C150 C151 1.297 . S
C150 H164 0.950 1_565 S
C151 C150 1.297 . S
C151 C152 1.479 . S
C151 H165 0.950 . S
C152 C151 1.479 . S
C152 C153 1.375 . S
C152 C158 1.404 . S
C153 C152 1.375 . S
C153 C154 1.369 1_455 S
C153 H166 0.950 1_455 S
C154 C153 1.369 1_655 S
C154 C155 1.392 . S
C154 H167 0.951 . S
C155 C154 1.392 . S
C155 C157 1.384 1_665 S
H156 C158 0.949 1_545 S
C157 C155 1.384 1_445 S
C157 C158 1.385 1_545 S
C157 H159 0.950 . S
C158 C152 1.404 . S
C158 H156 0.949 1_565 S
C158 C157 1.385 1_565 S
H159 C157 0.950 . S
H160 C144 0.951 . S
H161 C146 0.951 . S
H162 C148 0.951 . S
H163 C149 0.950 . S
H164 C150 0.950 1_545 S
H165 C151 0.950 . S
H166 C153 0.950 1_655 S
H167 C154 0.951 . S
C168 C169 1.386 . S
C168 C170 1.383 . S
C168 H184 0.951 . S
C169 C168 1.386 . S
C169 C173 1.383 . S
C170 C168 1.383 . S
C170 C171 1.402 . S
C170 H185 0.951 . S
C171 C170 1.402 . S
C171 C172 1.375 . S
C171 C174 1.481 . S
C172 C171 1.375 . S
C172 C173 1.367 . S
C172 H186 0.951 . S
C173 C169 1.383 . S
C173 C172 1.367 . S
C173 H187 0.950 . S
C174 C171 1.481 . S
C174 C175 1.297 . S
C174 H188 0.950 . S
C175 C174 1.297 . S
C175 C176 1.479 . S
C175 H189 0.950 . S
C176 C175 1.479 . S
C176 C177 1.375 . S
C176 C182 1.404 . S
C177 C176 1.375 . S
C177 C178 1.369 . S
C177 H190 0.950 . S
C178 C177 1.369 . S
C178 C179 1.392 . S
C178 H191 0.951 . S
C179 C178 1.392 . S
C179 C181 1.384 . S
H180 C182 0.949 . S
C181 C179 1.384 . S
C181 C182 1.385 . S
C181 H183 0.950 . S
C182 C176 1.404 . S
C182 H180 0.949 . S
C182 C181 1.385 . S
H183 C181 0.950 . S
H184 C168 0.951 . S
H185 C170 0.951 . S
H186 C172 0.951 . S
H187 C173 0.950 . S
H188 C174 0.950 . S
H189 C175 0.950 . S
H190 C177 0.950 . S
H191 C178 0.951 . S
C192 C193 1.386 . S
C192 C194 1.383 . S
C192 H208 0.951 . S
C193 C192 1.386 . S
C193 C197 1.383 . S
C194 C192 1.383 . S
C194 C195 1.402 . S
C194 H209 0.951 1_545 S
C195 C194 1.402 . S
C195 C196 1.375 . S
C195 C198 1.481 . S
C196 C195 1.375 . S
C196 C197 1.367 . S
C196 H210 0.951 . S
C197 C193 1.383 . S
C197 C196 1.367 . S
C197 H211 0.950 . S
C198 C195 1.481 . S
C198 C199 1.297 . S
C198 H212 0.950 . S
C199 C198 1.297 . S
C199 C200 1.481 1_546 S
C199 H213 0.950 1_556 S
C200 C199 1.481 1_564 S
C200 C201 1.375 . S
C200 C206 1.407 1_554 S
C201 C200 1.375 . S
C201 C202 1.369 . S
C201 H214 0.950 . S
C202 C201 1.369 . S
C202 C203 1.392 . S
C202 H215 0.951 . S
C203 C202 1.392 . S
C203 C205 1.384 . S
H204 C206 0.988 1_545 S
C205 C203 1.384 . S
C205 C206 1.344 1_554 S
C205 H207 0.950 . S
C206 C200 1.407 1_556 S
C206 H204 0.988 1_565 S
C206 C205 1.344 1_556 S
H207 C205 0.950 . S
H208 C192 0.951 . S
H209 C194 0.951 1_565 S
H210 C196 0.951 . S
H211 C197 0.950 . S
H212 C198 0.950 . S
H213 C199 0.950 1_554 S
H214 C201 0.950 . S
H215 C202 0.951 . S
C216 C217 1.386 . S
C216 C218 1.383 . S
C216 H232 0.951 . S
C217 C216 1.386 . S
C217 C221 1.383 . S
C218 C216 1.383 . S
C218 C219 1.402 . S
C218 H233 0.951 . S
C219 C218 1.402 . S
C219 C220 1.375 . S
C219 C222 1.481 . S
C220 C219 1.375 . S
C220 C221 1.367 . S
C220 H234 0.951 . S
C221 C217 1.383 . S
C221 C220 1.367 . S
C221 H235 0.950 . S
C222 C219 1.481 . S
C222 C223 1.297 . S
C222 H236 0.950 . S
C223 C222 1.297 . S
C223 C224 1.479 . S
C223 H237 0.950 . S
C224 C223 1.479 . S
C224 C225 1.375 . S
C224 C230 1.404 . S
C225 C224 1.375 . S
C225 C226 1.369 . S
C225 H238 0.950 . S
C226 C225 1.369 . S
C226 C227 1.392 . S
C226 H239 0.951 . S
C227 C226 1.392 . S
C227 C229 1.384 . S
H228 C230 0.949 . S
C229 C227 1.384 . S
C229 C230 1.385 . S
C229 H231 0.950 . S
C230 C224 1.404 . S
C230 H228 0.949 . S
C230 C229 1.385 . S
H231 C229 0.950 . S
H232 C216 0.951 . S
H233 C218 0.951 . S
H234 C220 0.951 . S
H235 C221 0.950 . S
H236 C222 0.950 . S
H237 C223 0.950 . S
H238 C225 0.950 . S
H239 C226 0.951 . S
C240 C241 1.386 . S
C240 C242 1.383 . S
C240 H256 0.951 . S
C241 C240 1.386 . S
C241 C245 1.383 . S
C242 C240 1.383 . S
C242 C243 1.402 . S
C242 H257 0.951 . S
C243 C242 1.402 . S
C243 C244 1.375 . S
C243 C246 1.481 . S
C244 C243 1.375 . S
C244 C245 1.367 . S
C244 H258 0.951 . S
C245 C241 1.383 . S
C245 C244 1.367 . S
C245 H259 0.950 . S
C246 C243 1.481 . S
C246 C247 1.297 . S
C246 H260 0.950 . S
C247 C246 1.297 . S
C247 C248 1.479 . S
C247 H261 0.950 . S
C248 C247 1.479 . S
C248 C249 1.375 . S
C248 C254 1.404 . S
C249 C248 1.375 . S
C249 C250 1.369 . S
C249 H262 0.950 . S
C250 C249 1.369 . S
C250 C251 1.392 . S
C250 H263 0.951 . S
C251 C250 1.392 . S
C251 C253 1.384 . S
H252 C254 0.949 . S
C253 C251 1.384 . S
C253 C254 1.385 . S
C253 H255 0.950 . S
C254 C248 1.404 . S
C254 H252 0.949 . S
C254 C253 1.385 . S
H255 C253 0.950 . S
H256 C240 0.951 . S
H257 C242 0.951 . S
H258 C244 0.951 . S
H259 C245 0.950 . S
H260 C246 0.950 . S
H261 C247 0.950 . S
H262 C249 0.950 . S
H263 C250 0.951 . S
C264 C265 1.386 . S
C264 C266 1.383 . S
C264 H280 0.951 . S
C265 C264 1.386 . S
C265 C269 1.383 . S
C266 C264 1.383 . S
C266 C267 1.402 . S
C266 H281 0.951 . S
C267 C266 1.402 . S
C267 C268 1.375 . S
C267 C270 1.481 . S
C268 C267 1.375 . S
C268 C269 1.367 . S
C268 H282 0.951 1_655 S
C269 C265 1.383 . S
C269 C268 1.367 . S
C269 H283 0.950 . S
C270 C267 1.481 . S
C270 C271 1.297 . S
C270 H284 0.950 . S
C271 C270 1.297 . S
C271 C272 1.479 1_556 S
C271 H285 0.950 . S
C272 C271 1.479 1_554 S
C272 C273 1.375 . S
C272 C278 1.404 . S
C273 C272 1.375 . S
C273 C274 1.369 . S
C273 H286 0.950 . S
C274 C273 1.369 . S
C274 C275 1.392 . S
C274 H287 0.951 . S
C275 C274 1.392 . S
C275 C277 1.384 . S
H276 C278 0.949 . S
C277 C275 1.384 . S
C277 C278 1.385 . S
C277 H279 0.950 . S
C278 C272 1.404 . S
C278 H276 0.949 . S
C278 C277 1.385 . S
H279 C277 0.950 . S
H280 C264 0.951 . S
H281 C266 0.951 . S
H282 C268 0.951 1_455 S
H283 C269 0.950 . S
H284 C270 0.950 . S
H285 C271 0.950 . S
H286 C273 0.950 . S
H287 C274 0.951 . S
C288 C289 1.386 . S
C288 C290 1.383 . S
C288 H304 0.951 . S
C289 C288 1.386 . S
C289 C293 1.383 . S
C290 C288 1.383 . S
C290 C291 1.402 . S
C290 H305 0.951 . S
C291 C290 1.402 . S
C291 C292 1.375 . S
C291 C294 1.481 . S
C292 C291 1.375 . S
C292 C293 1.367 . S
C292 H306 0.951 . S
C293 C289 1.383 . S
C293 C292 1.367 . S
C293 H307 0.950 . S
C294 C291 1.481 . S
C294 C295 1.297 . S
C294 H308 0.950 . S
C295 C294 1.297 . S
C295 C296 1.479 . S
C295 H309 0.950 . S
C296 C295 1.479 . S
C296 C297 1.375 . S
C296 C302 1.404 . S
C297 C296 1.375 . S
C297 C298 1.369 . S
C297 H310 0.950 . S
C298 C297 1.369 . S
C298 C299 1.392 . S
C298 H311 0.951 . S
C299 C298 1.392 . S
C299 C301 1.384 . S
H300 C302 0.949 . S
C301 C299 1.384 . S
C301 C302 1.385 . S
C301 H303 0.950 . S
C302 C296 1.404 . S
C302 H300 0.949 . S
C302 C301 1.385 . S
H303 C301 0.950 . S
H304 C288 0.951 . S
H305 C290 0.951 . S
H306 C292 0.951 . S
H307 C293 0.950 . S
H308 C294 0.950 . S
H309 C295 0.950 . S
H310 C297 0.950 . S
H311 C298 0.951 . S
C312 C313 1.386 1_455 S
C312 C314 1.383 . S
C312 H328 0.951 . S
C313 C312 1.386 1_655 S
C313 C317 1.383 . S
C314 C312 1.383 . S
C314 C315 1.402 1_455 S
C314 H329 0.951 . S
C315 C314 1.402 1_655 S
C315 C316 1.375 . S
C315 C318 1.481 . S
C316 C315 1.375 . S
C316 C317 1.367 . S
C316 H330 0.951 . S
C317 C313 1.383 . S
C317 C316 1.367 . S
C317 H331 0.950 . S
C318 C315 1.481 . S
C318 C319 1.297 . S
C318 H332 0.950 . S
C319 C318 1.297 . S
C319 C320 1.479 . S
C319 H333 0.950 1_655 S
C320 C319 1.479 . S
C320 C321 1.375 1_655 S
C320 C326 1.404 . S
C321 C320 1.375 1_455 S
C321 C322 1.369 . S
C321 H334 0.950 . S
C322 C321 1.369 . S
C322 C323 1.392 1_455 S
C322 H335 0.951 . S
C323 C322 1.392 1_655 S
C323 C325 1.384 . S
H324 C326 0.949 . S
C325 C323 1.384 . S
C325 C326 1.385 . S
C325 H327 0.950 . S
C326 C320 1.404 . S
C326 H324 0.949 . S
C326 C325 1.385 . S
H327 C325 0.950 . S
H328 C312 0.951 . S
H329 C314 0.951 . S
H330 C316 0.951 . S
H331 C317 0.950 . S
H332 C318 0.950 . S
H333 C319 0.950 1_455 S
H334 C321 0.950 . S
H335 C322 0.951 . S
C121 C18 1.346 . S
C131 C9 1.416 1_655 S
C145 C49 1.493 . S
C155 C58 1.508 1_565 S
C169 C98 1.202 1_455 S
C179 C89 1.275 . S
C193 C95 0.981 . S
C203 C6 0.977 . S
C217 C50 1.942 . S
C227 C15 1.915 . S
C241 C90 2.372 . S
C251 C59 2.338 . S
C265 C99 2.254 . S
C275 C10 2.214 . S
C289 C19 1.505 . S
C299 C46 1.478 . S
C313 C86 0.890 . S
C323 C55 0.972 . S
