# Generated by pormake.
# Topology smm, (6)-cn, num edge types: 1
# Building blocks:
#     Node 0, Type 0, BuildingBlock: BETFEN_clean_sbu_0, # of connection points: 6
#     Node 1, Type 0, BuildingBlock: BETFEN_clean_sbu_0, # of connection points: 6
#     Node 2, Type 0, BuildingBlock: BETFEN_clean_sbu_0, # of connection points: 6
#     Node 3, Type 0, BuildingBlock: BETFEN_clean_sbu_0, # of connection points: 6
#     Node 4, Type 0, BuildingBlock: BETFEN_clean_sbu_0, # of connection points: 6
#     Node 5, Type 0, BuildingBlock: BETFEN_clean_sbu_0, # of connection points: 6
#     Node 6, Type 0, BuildingBlock: BETFEN_clean_sbu_0, # of connection points: 6
#     Node 7, Type 0, BuildingBlock: BETFEN_clean_sbu_0, # of connection points: 6
#     Node 8, Type 0, BuildingBlock: BETFEN_clean_sbu_0, # of connection points: 6
#     Edge 9, Type (0, 0), BuildingBlock: EZIPEK_clean_linker_0, # of connection points: 2
#     Edge 10, Type (0, 0), BuildingBlock: EZIPEK_clean_linker_0, # of connection points: 2
#     Edge 11, Type (0, 0), BuildingBlock: EZIPEK_clean_linker_0, # of connection points: 2
#     Edge 12, Type (0, 0), BuildingBlock: EZIPEK_clean_linker_0, # of connection points: 2
#     Edge 13, Type (0, 0), BuildingBlock: EZIPEK_clean_linker_0, # of connection points: 2
#     Edge 14, Type (0, 0), BuildingBlock: EZIPEK_clean_linker_0, # of connection points: 2
#     Edge 15, Type (0, 0), BuildingBlock: EZIPEK_clean_linker_0, # of connection points: 2
#     Edge 16, Type (0, 0), BuildingBlock: EZIPEK_clean_linker_0, # of connection points: 2
#     Edge 17, Type (0, 0), BuildingBlock: EZIPEK_clean_linker_0, # of connection points: 2
#     Edge 18, Type (0, 0), BuildingBlock: EZIPEK_clean_linker_0, # of connection points: 2
#     Edge 19, Type (0, 0), BuildingBlock: EZIPEK_clean_linker_0, # of connection points: 2
#     Edge 20, Type (0, 0), BuildingBlock: EZIPEK_clean_linker_0, # of connection points: 2
#     Edge 21, Type (0, 0), BuildingBlock: EZIPEK_clean_linker_0, # of connection points: 2
#     Edge 22, Type (0, 0), BuildingBlock: EZIPEK_clean_linker_0, # of connection points: 2
#     Edge 23, Type (0, 0), BuildingBlock: EZIPEK_clean_linker_0, # of connection points: 2
#     Edge 24, Type (0, 0), BuildingBlock: EZIPEK_clean_linker_0, # of connection points: 2
#     Edge 25, Type (0, 0), BuildingBlock: EZIPEK_clean_linker_0, # of connection points: 2
#     Edge 26, Type (0, 0), BuildingBlock: EZIPEK_clean_linker_0, # of connection points: 2
#     Edge 27, Type (0, 0), BuildingBlock: EZIPEK_clean_linker_0, # of connection points: 2
#     Edge 28, Type (0, 0), BuildingBlock: EZIPEK_clean_linker_0, # of connection points: 2
#     Edge 29, Type (0, 0), BuildingBlock: EZIPEK_clean_linker_0, # of connection points: 2
#     Edge 30, Type (0, 0), BuildingBlock: EZIPEK_clean_linker_0, # of connection points: 2
#     Edge 31, Type (0, 0), BuildingBlock: EZIPEK_clean_linker_0, # of connection points: 2
#     Edge 32, Type (0, 0), BuildingBlock: EZIPEK_clean_linker_0, # of connection points: 2
#     Edge 33, Type (0, 0), BuildingBlock: EZIPEK_clean_linker_0, # of connection points: 2
#     Edge 34, Type (0, 0), BuildingBlock: EZIPEK_clean_linker_0, # of connection points: 2
#     Edge 35, Type (0, 0), BuildingBlock: EZIPEK_clean_linker_0, # of connection points: 2
# Relax obj value: 0.151
# Max RMSD: 0.212
# Mean RMSD: 0.178
data_MOF--net-smm--node1-BETFEN_clean_sbu_0--edge1-EZIPEK_clean_linker_0
_symmetry_space_group_name_H-M    P1
_symmetry_Int_Tables_number       1
_symmetry_cell_setting            triclinic
loop_
_symmetry_equiv_pos_as_xyz
'x, y, z'
_cell_length_a     47.380832
_cell_length_b     65.348792
_cell_length_c     10.579913
_cell_angle_alpha  93.200929
_cell_angle_beta   94.39339
_cell_angle_gamma 123.0672
loop_
_atom_site_label
_atom_site_type_symbol
_atom_site_fract_x
_atom_site_fract_y
_atom_site_fract_z
_atom_type_partial_charge
Pr0 Pr 0.10902 0.24872 0.06768 0.0
Pr1 Pr 1.03811 0.20092 0.06387 0.0
C2 C 0.1635 0.28995 0.00131 0.0
C3 C 0.18295 0.31654 -0.01502 0.0
C4 C 0.19955 0.33486 0.09031 0.0
C5 C 0.22199 0.3596 0.07224 0.0
C6 C 0.22841 0.36643 0.94876 0.0
C7 C 0.21098 0.3483 0.84354 0.0
C8 C 0.18853 0.32363 0.86148 0.0
C9 C 0.09151 0.23586 0.31068 0.0
C10 C 1.03978 0.25315 0.07175 0.0
C11 C 0.99155 0.15507 0.11372 0.0
C12 C 0.99185 0.13217 0.11135 0.0
C13 C 0.97751 0.11451 0.00273 0.0
C14 C 0.97944 0.09372 -0.0012 0.0
C15 C 0.99576 0.09006 0.10331 0.0
C16 C 1.00972 0.10747 0.21222 0.0
C17 C 1.0077 0.12815 0.21647 0.0
C18 C 1.05629 0.21425 0.82456 0.0
C19 C 0.10737 0.19692 0.06965 0.0
O20 O 0.13635 0.27456 0.92082 0.0
O21 O 0.16194 0.28322 0.11624 0.0
O22 O 0.07156 0.23363 0.21651 0.0
O23 O 0.12259 0.24735 0.28381 0.0
O24 O 1.02083 0.2293 0.08846 0.0
O25 O 0.07216 0.26355 0.05228 0.0
O26 O 1.01235 0.17304 0.20339 0.0
O27 O 0.9898 0.16301 0.00406 0.0
O28 O 0.07589 0.21544 0.91713 0.0
O29 O 1.02549 0.20485 0.85222 0.0
O30 O 0.12666 0.22076 0.05761 0.0
O31 O 0.07465 0.18642 0.07813 0.0
H32 H 0.19608 0.33003 0.18675 0.0
H33 H 0.23522 0.37332 0.1547 0.0
H34 H 0.2156 0.35317 0.74759 0.0
H35 H 0.17648 0.30993 0.77859 0.0
H36 H 0.96502 0.11685 0.92008 0.0
H37 H 0.96833 0.08053 0.91389 0.0
H38 H 1.0223 0.10507 0.29437 0.0
H39 H 1.01897 0.14115 0.30211 0.0
Pr40 Pr 0.97697 0.83812 -0.01452 0.0
Pr41 Pr 0.97049 0.88521 -0.01991 0.0
C42 C 0.96043 0.78983 0.00702 0.0
C43 C 0.94972 0.76207 0.0098 0.0
C44 C 0.93197 0.74393 0.90141 0.0
C45 C 0.92004 0.71833 0.90355 0.0
C46 C 0.92432 0.70837 0.01477 0.0
C47 C 0.94222 0.72654 0.12343 0.0
C48 C 0.95449 0.7523 0.12096 0.0
C49 C 0.98208 0.85642 0.75175 0.0
C50 C 0.89981 0.83405 0.94205 0.0
C51 C 0.9688 0.92544 0.94243 0.0
C52 C 0.97899 0.95107 -0.01318 0.0
C53 C 0.96017 0.95502 0.06943 0.0
C54 C 0.96704 0.97861 0.10098 0.0
C55 C 0.99433 0.99985 0.05725 0.0
C56 C 1.0109 0.99512 0.96451 0.0
C57 C 1.00396 0.97143 0.93249 0.0
C58 C 0.96726 0.86695 0.21721 0.0
C59 C 1.05073 0.90003 0.00773 0.0
O60 O 0.98006 0.80855 0.09602 0.0
O61 O 0.95181 0.79716 0.9073 0.0
O62 O 0.96166 0.85466 0.82794 0.0
O63 O 0.99829 0.84655 0.79062 0.0
O64 O 0.91598 0.85454 0.88897 0.0
O65 O 0.9179 0.82615 -0.0003 0.0
O66 O 0.99051 0.92157 0.89502 0.0
O67 O 0.94761 0.90758 0.00449 0.0
O68 O 0.9866 0.86854 0.13757 0.0
O69 O 0.95158 0.87724 0.18111 0.0
O70 O 1.03837 0.8756 0.01582 0.0
O71 O 1.02956 0.90709 -0.00829 0.0
H72 H 0.92685 0.7495 0.8127 0.0
H73 H 0.90679 0.70603 0.8162 0.0
H74 H 0.94647 0.72077 0.21285 0.0
H75 H 0.96733 0.76459 0.20857 0.0
H76 H 0.93903 0.93965 0.10662 0.0
H77 H 0.94948 0.97953 0.15618 0.0
H78 H 1.02836 1.00922 0.91043 0.0
H79 H 1.01739 0.96893 0.86119 0.0
Pr80 Pr 0.27033 1.03529 -0.01199 0.0
Pr81 Pr 0.23571 0.06326 0.0164 0.0
C82 C 0.305 1.01494 0.92026 0.0
C83 C 0.33439 1.01211 0.93196 0.0
C84 C 0.34389 1.00543 0.04405 0.0
C85 C 0.36776 0.9989 0.04605 0.0
C86 C 0.38263 0.99877 0.93608 0.0
C87 C 0.37414 1.00634 0.82569 0.0
C88 C 0.35033 1.01288 0.82367 0.0
C89 C 0.26529 0.04579 0.2415 0.0
C90 C 0.32211 0.09892 0.01537 0.0
C91 C 0.20432 0.08789 0.04463 0.0
C92 C 0.18644 0.10132 0.05488 0.0
C93 C 0.16739 0.10183 0.94694 0.0
C94 C 0.15421 0.11674 0.95099 0.0
C95 C 0.15975 0.13192 0.0628 0.0
C96 C 0.17812 0.13103 0.17166 0.0
C97 C 0.19121 0.11602 0.1678 0.0
C98 C 0.24582 0.05442 0.76773 0.0
C99 C 0.18597 0.99874 0.00169 0.0
O100 O 0.30707 1.0332 0.86643 0.0
O101 O 0.28456 1.00757 0.00785 0.0
O102 O 0.27278 0.06053 0.15843 0.0
O103 O 0.26069 1.02533 0.19406 0.0
O104 O 0.29457 0.09862 0.0397 0.0
O105 O 0.31895 0.07745 -0.01117 0.0
O106 O 0.22107 0.08559 0.14112 0.0
O107 O 0.20188 0.0757 0.93773 0.0
O108 O 0.23438 1.03869 0.84575 0.0
O109 O 0.25388 0.07562 0.81994 0.0
O110 O 0.21244 0.99992 0.95804 0.0
O111 O 0.18958 1.02018 0.04176 0.0
H112 H 0.33201 1.00441 0.12903 0.0
H113 H 0.3737 0.99306 0.13224 0.0
H114 H 0.38505 1.0063 0.73942 0.0
H115 H 0.34332 1.0176 0.7354 0.0
H116 H 0.16324 0.09107 0.85764 0.0
H117 H 0.14007 0.11672 0.86552 0.0
H118 H 0.18287 0.14233 0.25965 0.0
H119 H 0.20594 0.11649 0.2527 0.0
Pr120 Pr 0.7879 0.5417 0.01953 0.0
Pr121 Pr 0.847 0.53581 0.0169 0.0
C122 C 0.73675 0.54434 0.08865 0.0
C123 C 0.7389 0.5645 0.16546 0.0
C124 C 0.71016 0.56525 0.17372 0.0
C125 C 0.71307 0.58495 0.24664 0.0
C126 C 0.74477 0.604 0.31068 0.0
C127 C 0.77357 0.60338 0.30066 0.0
C128 C 0.77056 0.5836 0.22941 0.0
C129 C 0.80691 0.54091 0.77932 0.0
C130 C 0.8607 0.59595 0.02477 0.0
C131 C 0.89685 0.52694 -0.0068 0.0
C132 C 0.90408 0.50721 0.01125 0.0
C133 C 0.88649 0.48841 0.08982 0.0
C134 C 0.89446 0.47061 0.10726 0.0
C135 C 0.92037 0.47095 0.04715 0.0
C136 C 0.93781 0.48975 0.96857 0.0
C137 C 0.92981 0.50746 0.95097 0.0
C138 C 0.82435 0.53381 0.25233 0.0
C139 C 0.76644 0.48278 -0.00584 0.0
O140 O 0.74831 0.53304 0.1504 0.0
O141 O 0.74726 0.54938 0.97683 0.0
O142 O 0.80496 0.52679 0.85958 0.0
O143 O 0.79571 0.55414 0.81651 0.0
O144 O 0.8731 0.58167 0.00088 0.0
O145 O 0.82928 0.58467 0.05342 0.0
O146 O 0.87448 0.5231 0.89807 0.0
O147 O 0.89549 0.5386 0.09483 0.0
O148 O 0.82929 0.54957 0.17813 0.0
O149 O 0.83219 0.51898 0.20805 0.0
O150 O 0.75582 0.49775 0.00563 0.0
O151 O 0.79954 0.49253 -0.01101 0.0
H152 H 0.68564 0.55068 0.12434 0.0
H153 H 0.69068 0.58535 0.25359 0.0
H154 H 0.79814 0.618 0.34951 0.0
H155 H 0.79294 0.58314 0.22482 0.0
H156 H 0.86653 0.48748 0.13812 0.0
H157 H 0.88029 0.45649 0.16808 0.0
H158 H 0.95783 0.49076 0.92039 0.0
H159 H 0.94403 0.52156 0.89013 0.0
Pr160 Pr 0.5424 0.19731 0.05053 0.0
Pr161 Pr 0.54561 0.24718 0.04168 0.0
C162 C 0.5551 0.16334 0.11253 0.0
C163 C 0.54796 0.14343 0.19017 0.0
C164 C 0.5561 0.12672 0.14855 0.0
C165 C 0.55523 0.11019 0.22886 0.0
C166 C 0.54603 0.11006 0.3518 0.0
C167 C 0.53609 0.12586 0.39133 0.0
C168 C 0.53722 0.14258 0.31109 0.0
C169 C 0.52985 0.20755 0.80714 0.0
C170 C 0.4677 0.18922 0.04816 0.0
C171 C 0.57036 0.29597 0.01094 0.0
C172 C 0.60184 0.32236 0.00437 0.0
C173 C 0.61806 0.33989 0.11476 0.0
C174 C 0.64493 0.3649 0.10996 0.0
C175 C 0.65737 0.37409 -0.0056 0.0
C176 C 0.64146 0.35654 0.88386 0.0
C177 C 0.61438 0.33147 0.88856 0.0
C178 C 0.53717 0.2301 0.28053 0.0
C179 C 0.61777 0.2471 0.0412 0.0
O180 O 0.57086 0.18553 0.17267 0.0
O181 O 0.53262 0.15907 0.01708 0.0
O182 O 0.55193 0.22314 0.89568 0.0
O183 O 0.51486 0.18543 0.84013 0.0
O184 O 0.48283 0.21225 0.00851 0.0
O185 O 0.48715 0.18185 0.09273 0.0
O186 O 0.55759 0.27839 0.91498 0.0
O187 O 0.56598 0.2869 0.1202 0.0
O188 O 0.55519 0.22873 0.2022 0.0
O189 O 0.52581 0.24302 0.23934 0.0
O190 O 0.59893 0.22301 0.01624 0.0
O191 O 0.60398 0.25974 0.06559 0.0
H192 H 0.56464 0.12722 0.05594 0.0
H193 H 0.56294 0.09811 0.19699 0.0
H194 H 0.529 0.12599 0.48615 0.0
H195 H 0.53105 0.15546 0.34522 0.0
H196 H 0.60948 0.33439 0.2063 0.0
H197 H 0.6558 0.37729 0.19782 0.0
H198 H 0.64975 0.36233 0.79233 0.0
H199 H 0.60292 0.31925 0.80022 0.0
Pr200 Pr 1.0097 0.37811 0.14991 0.0
Pr201 Pr 0.93204 0.33769 0.09344 0.0
C202 C 0.07357 0.41377 0.25309 0.0
C203 C 0.10905 0.43245 0.31166 0.0
C204 C 0.12356 0.45762 0.30395 0.0
C205 C 0.15746 0.47512 0.35527 0.0
C206 C 0.17789 0.46782 0.41316 0.0
C207 C 0.16331 0.44261 0.4209 0.0
C208 C 0.12918 0.42516 0.37205 0.0
C209 C 0.98619 0.36119 0.89255 0.0
C210 C 0.98913 0.3201 0.09956 0.0
C211 C 0.86481 0.3026 0.0244 0.0
C212 C 0.83 0.29757 0.0316 0.0
C213 C 0.80779 0.27958 0.10589 0.0
C214 C 0.77434 0.27338 0.10804 0.0
C215 C 0.76197 0.28491 0.03549 0.0
C216 C 0.78417 0.30314 0.96236 0.0
C217 C 0.81769 0.30936 0.96019 0.0
C218 C 0.95709 0.35677 0.34916 0.0
C219 C 0.95439 0.39607 0.10929 0.0
O220 O 1.05367 0.39427 0.30848 0.0
O221 O 1.05993 0.41517 0.14421 0.0
O222 O 0.97053 0.36515 0.97114 0.0
O223 O 1.01594 0.3673 0.94471 0.0
O224 O 0.95708 0.31366 0.06799 0.0
O225 O 1.01343 0.34336 0.14014 0.0
O226 O 0.88425 0.31828 0.94858 0.0
O227 O 0.88206 0.30364 0.12995 0.0
O228 O 0.97127 0.3511 0.27199 0.0
O229 O 0.9281 0.35176 0.29606 0.0
O230 O 0.9851 0.40218 0.15941 0.0
O231 O 0.93046 0.37288 0.06604 0.0
H232 H 0.10868 0.46377 0.25794 0.0
H233 H 0.16802 0.49439 0.34747 0.0
H234 H 0.17847 0.43642 0.46382 0.0
H235 H 0.11876 0.40587 0.37862 0.0
H236 H 0.81616 0.26994 0.16119 0.0
H237 H 0.75788 0.25925 0.16505 0.0
H238 H 0.77537 0.31234 0.90541 0.0
H239 H 0.83381 0.32321 0.90126 0.0
Pr240 Pr 0.53704 0.95685 0.94358 0.0
Pr241 Pr 0.4704 0.90925 0.94063 0.0
C242 C 0.58356 1.00085 0.87558 0.0
C243 C 0.5797 1.0187 0.80879 0.0
C244 C 0.56612 1.03098 0.86544 0.0
C245 C 0.55981 0.04606 0.79658 0.0
C246 C 0.5667 0.04894 0.66989 0.0
C247 C 0.58041 1.0369 0.61331 0.0
C248 C 0.58698 1.02199 0.6823 0.0
C249 C 0.52167 0.94328 0.18611 0.0
C250 C 0.46455 0.95624 0.93731 0.0
C251 C 0.42077 0.86527 -0.00399 0.0
C252 C 0.41855 0.84204 -0.00388 0.0
C253 C 0.38993 0.82061 0.93019 0.0
C254 C 0.39042 0.79964 0.90603 0.0
C255 C 0.41948 0.8 0.94807 0.0
C256 C 0.44731 0.82085 0.02089 0.0
C257 C 0.44689 0.84184 0.04472 0.0
C258 C 0.48551 0.92356 0.69801 0.0
C259 C 0.54216 0.9086 0.9505 0.0
O260 O 0.57298 0.98012 0.80663 0.0
O261 O 0.57554 0.99786 -0.00808 0.0
O262 O 0.50111 0.94169 0.09662 0.0
O263 O 0.55229 0.95366 0.15498 0.0
O264 O 0.44901 0.93369 0.9685 0.0
O265 O 0.49618 0.96757 0.90939 0.0
O266 O 0.4431 0.88297 0.0837 0.0
O267 O 0.42082 0.87258 0.88329 0.0
O268 O 0.50602 0.92467 0.78596 0.0
O269 O 0.45513 0.91318 0.73072 0.0
O270 O 0.56008 0.93251 0.94069 0.0
O271 O 0.50899 0.89647 0.95561 0.0
H272 H 0.55983 1.02867 0.96212 0.0
H273 H 0.54925 0.05529 0.84155 0.0
H274 H 0.58593 1.039 0.51561 0.0
H275 H 0.59716 1.01262 0.63586 0.0
H276 H 0.36803 0.82053 0.89134 0.0
H277 H 0.36882 0.78353 0.84944 0.0
H278 H 0.4699 0.82126 0.0532 0.0
H279 H 0.46941 0.85823 0.09525 0.0
Pr280 Pr 0.4041 0.57408 0.68182 0.0
Pr281 Pr 0.37627 0.60542 0.65017 0.0
C282 C 0.40926 0.53833 0.77092 0.0
C283 C 0.38334 0.51334 0.80187 0.0
C284 C 0.37932 0.4924 0.73664 0.0
C285 C 0.35401 0.46877 0.76181 0.0
C286 C 0.3323 0.46563 0.85307 0.0
C287 C 0.33637 0.4865 0.91901 0.0
C288 C 0.36153 0.51008 0.89353 0.0
C289 C 0.40389 0.58629 0.43488 0.0
C290 C 0.31918 0.54691 0.59398 0.0
C291 C 0.36395 0.63873 0.57794 0.0
C292 C 0.37802 0.66448 0.62074 0.0
C293 C 0.35614 0.6726 0.62202 0.0
C294 C 0.36817 0.69621 0.67734 0.0
C295 C 0.40216 0.71183 0.73148 0.0
C296 C 0.42441 0.70407 0.72691 0.0
C297 C 0.41233 0.68039 0.67209 0.0
C298 C 0.37889 0.5937 0.8991 0.0
C299 C 0.46142 0.63453 0.72579 0.0
O300 O 0.41382 0.5569 0.84468 0.0
O301 O 0.40975 0.54179 0.65018 0.0
O302 O 0.38019 0.58012 0.50304 0.0
O303 O 0.42813 0.58484 0.49141 0.0
O304 O 0.32541 0.56867 0.57642 0.0
O305 O 0.34383 0.54466 0.64338 0.0
O306 O 0.38388 0.63402 0.52206 0.0
O307 O 0.34709 0.62339 0.65931 0.0
O308 O 0.40148 0.59998 0.82674 0.0
O309 O 0.35415 0.59482 0.8463 0.0
O310 O 0.45709 0.61268 0.73022 0.0
O311 O 0.43511 0.63616 0.69625 0.0
H312 H 0.39563 0.49432 0.66546 0.0
H313 H 0.35131 0.4529 0.71006 0.0
H314 H 0.31996 0.48451 -0.01013 0.0
H315 H 0.3637 0.52574 0.94532 0.0
H316 H 0.32958 0.66043 0.58372 0.0
H317 H 0.35088 0.70216 0.68037 0.0
H318 H 0.45073 0.7161 0.76846 0.0
H319 H 0.42953 0.67434 0.67287 0.0
Pr320 Pr 0.67886 0.7372 0.87372 0.0
Pr321 Pr 0.67078 0.77992 0.90273 0.0
C322 C 0.67644 0.69576 0.81548 0.0
C323 C 0.69369 0.68677 0.74626 0.0
C324 C 0.67624 0.6616 0.70653 0.0
C325 C 0.69168 0.65243 0.63806 0.0
C326 C 0.72471 0.66837 0.60876 0.0
C327 C 0.74246 0.69363 0.64926 0.0
C328 C 0.72687 0.70286 0.71762 0.0
C329 C 0.68265 0.75442 0.12511 0.0
C330 C 0.74971 0.78784 0.90101 0.0
C331 C 0.66847 0.8202 0.96556 0.0
C332 C 0.64687 0.83069 0.9647 0.0
C333 C 0.62438 0.827 0.85783 0.0
C334 C 0.60576 0.83811 0.85861 0.0
C335 C 0.60714 0.8524 0.9688 0.0
C336 C 0.63289 0.85802 0.06942 0.0
C337 C 0.65137 0.84687 0.06902 0.0
C338 C 0.66462 0.76204 0.65147 0.0
C339 C 0.59973 0.723 0.84999 0.0
O340 O 0.65893 0.70204 0.74586 0.0
O341 O 0.69341 0.71066 0.92012 0.0
O342 O 0.66104 0.75107 0.03548 0.0
O343 O 0.70252 0.74811 0.08793 0.0
O344 O 0.73209 0.79619 0.95231 0.0
O345 O 0.73273 0.76642 0.83093 0.0
O346 O 0.66377 0.80422 0.04467 0.0
O347 O 0.67683 0.81572 0.85747 0.0
O348 O 0.68708 0.76569 0.73855 0.0
O349 O 0.64521 0.76863 0.69144 0.0
O350 O 0.62 0.71575 0.82773 0.0
O351 O 0.61223 0.7464 0.89099 0.0
H352 H 0.65061 0.64906 0.72796 0.0
H353 H 0.67782 0.63288 0.60724 0.0
H354 H 0.76804 0.70605 0.62714 0.0
H355 H 0.74051 0.72242 0.74757 0.0
H356 H 0.62168 0.81592 0.77196 0.0
H357 H 0.59126 0.83588 0.76931 0.0
H358 H 0.64025 0.87174 0.14877 0.0
H359 H 0.67012 0.85155 0.14998 0.0
C360 C 0.24527 0.40742 0.8766 0.0
C361 C 0.25493 0.39226 0.92916 0.0
C362 C 0.31498 0.42625 0.94577 0.0
C363 C 0.3055 0.44046 0.88069 0.0
N364 N 0.26186 0.44337 0.7675 0.0
N365 N 0.29914 0.38577 -0.00553 0.0
C366 C 0.27066 0.43073 0.84177 0.0
C367 C 0.28986 0.4013 0.95872 0.0
N368 N 0.21187 0.39978 0.86296 0.0
N369 N 0.34788 0.43685 -0.00111 0.0
H370 H 0.28163 0.36736 0.00486 0.0
H371 H 0.32412 0.39053 0.00309 0.0
H372 H 0.36699 0.4551 -0.00778 0.0
H373 H 0.35562 0.42828 0.05934 0.0
H374 H 0.20355 0.41099 0.83802 0.0
H375 H 0.19267 0.38284 0.88741 0.0
H376 H 0.23721 0.43615 0.72496 0.0
H377 H 0.27969 0.46035 0.73919 0.0
C378 C 0.8479 0.83675 0.9628 0.0
C379 C 0.86142 0.82189 0.94637 0.0
C380 C 0.80243 0.78574 0.93968 0.0
C381 C 0.7885 0.80043 0.92824 0.0
N382 N 0.80078 0.84106 0.90905 0.0
N383 N 0.84817 0.78084 0.89683 0.0
C384 C 0.81205 0.82628 0.93443 0.0
C385 C 0.8377 0.79597 0.92879 0.0
N386 N 0.86896 0.86075 0.01346 0.0
N387 N 0.78251 0.76216 0.96816 0.0
H388 H 0.87315 0.78734 0.88348 0.0
H389 H 0.83124 0.76199 0.87056 0.0
H390 H 0.75789 0.75464 -0.00983 0.0
H391 H 0.79196 0.75135 -0.01281 0.0
H392 H 0.86022 0.8719 0.03655 0.0
H393 H 0.89417 0.86829 0.04957 0.0
H394 H 0.81722 0.8597 0.90015 0.0
H395 H 0.77524 0.83434 0.88416 0.0
C396 C 0.39127 0.96496 0.86789 0.0
C397 C 0.40465 0.98867 0.93292 0.0
C398 C 0.4579 0.99157 0.00226 0.0
C399 C 0.44527 0.96852 0.92974 0.0
N400 N 0.40297 0.93657 0.76787 0.0
N401 N 0.45301 1.02648 0.04255 0.0
C402 C 0.4128 0.95618 0.85534 0.0
C403 C 0.4387 1.00255 -0.00574 0.0
N404 N 0.35755 0.95033 0.82142 0.0
N405 N 0.48739 1.00245 0.08396 0.0
H406 H 0.43963 1.03493 0.04009 0.0
H407 H 0.47879 1.03849 0.0749 0.0
H408 H 0.50204 0.99507 0.09351 0.0
H409 H 0.49591 1.01772 0.14993 0.0
H410 H 0.34548 0.93186 0.78643 0.0
H411 H 0.34084 0.95593 0.8283 0.0
H412 H 0.38128 0.92844 0.70133 0.0
H413 H 0.41836 0.93012 0.75217 0.0
C414 C 0.41623 0.15404 0.14737 0.0
C415 C 0.42821 0.16914 0.04434 0.0
C416 C 0.36845 0.14017 0.92963 0.0
C417 C 0.35821 0.12379 0.0266 0.0
N418 N 0.3756 0.115 0.22399 0.0
N419 N 0.4141 0.17324 0.82802 0.0
C420 C 0.38315 0.13084 0.13385 0.0
C421 C 0.40359 0.16136 0.93365 0.0
N422 N 0.43619 0.1623 0.26261 0.0
N423 N 0.34442 0.13548 0.83195 0.0
H424 H 0.43868 0.18841 0.82683 0.0
H425 H 0.39934 0.16707 0.73922 0.0
H426 H 0.31953 0.12011 0.82344 0.0
H427 H 0.34836 0.14765 0.76537 0.0
H428 H 0.42788 0.15433 0.34592 0.0
H429 H 0.46002 0.17864 0.27869 0.0
H430 H 0.39363 0.11687 0.29482 0.0
H431 H 0.35167 0.09887 0.22268 0.0
C432 C 0.98799 0.28262 -0.01184 0.0
C433 C 0.99913 0.30106 0.0942 0.0
C434 C 1.03886 0.28957 0.17758 0.0
C435 C 1.02519 0.26937 0.07978 0.0
N436 N 0.98259 0.24513 0.89951 0.0
N437 N 1.02837 0.31584 0.30878 0.0
C438 C 0.99823 0.26533 -0.01156 0.0
C439 C 1.02263 0.30269 0.19394 0.0
N440 N 0.96938 0.28248 0.88262 0.0
N441 N 0.06795 0.29688 0.25502 0.0
H442 H 1.01545 0.32418 0.32886 0.0
H443 H 1.04255 0.31579 0.38893 0.0
H444 H 0.08108 0.28838 0.24776 0.0
H445 H 0.08091 0.313 0.31823 0.0
H446 H 0.96357 0.27145 0.79719 0.0
H447 H 0.96262 0.29512 0.87577 0.0
H448 H 0.96047 0.2395 0.83976 0.0
H449 H 0.99034 0.23299 0.89164 0.0
C450 C 0.87411 0.66088 0.97389 0.0
C451 C 0.90916 0.6795 0.01693 0.0
C452 C 0.91392 0.64355 0.0688 0.0
C453 C 0.87964 0.62498 0.01388 0.0
N454 N 0.83138 0.61888 0.88056 0.0
N455 N 0.96349 0.68612 0.08512 0.0
C456 C 0.86119 0.63467 0.95751 0.0
C457 C 0.92917 0.66999 0.05895 0.0
N458 N 0.85197 0.66793 0.95375 0.0
N459 N 0.93199 0.63619 0.13561 0.0
H460 H 0.97548 0.70482 0.07674 0.0
H461 H 0.98021 0.68065 0.10278 0.0
H462 H 0.92224 0.61774 0.14422 0.0
H463 H 0.95531 0.64839 0.19075 0.0
H464 H 0.82573 0.65546 0.93669 0.0
H465 H 0.85939 0.6862 0.96907 0.0
H466 H 0.81834 0.62474 0.82626 0.0
H467 H 0.82208 0.6004 0.85767 0.0
C468 C 0.26374 0.5076 0.62933 0.0
C469 C 0.28429 0.52462 0.54561 0.0
C470 C 0.23705 0.50065 0.37067 0.0
C471 C 0.21494 0.48654 0.45902 0.0
N472 N 0.20657 0.47902 0.67798 0.0
N473 N 0.28865 0.5381 0.33486 0.0
C474 C 0.22816 0.49054 0.58984 0.0
C475 C 0.27034 0.52137 0.41593 0.0
N476 N 0.27794 0.50754 0.74643 0.0
N477 N 0.2268 0.49363 0.24255 0.0
H478 H 0.31384 0.55263 0.35892 0.0
H479 H 0.27812 0.53839 0.24539 0.0
H480 H 0.20311 0.47812 0.20546 0.0
H481 H 0.24304 0.50153 0.17357 0.0
H482 H 0.26486 0.49403 0.80598 0.0
H483 H 0.30367 0.51938 0.77877 0.0
H484 H 0.21416 0.4832 0.77608 0.0
H485 H 0.18039 0.46696 0.65394 0.0
C486 C 0.75046 0.64411 0.59756 0.0
C487 C 0.73992 0.65785 0.53498 0.0
C488 C 0.744 0.64186 0.32794 0.0
C489 C 0.74755 0.62451 0.38927 0.0
N490 N 0.75355 0.60832 0.58218 0.0
N491 N 0.72669 0.67052 0.3418 0.0
C492 C 0.75131 0.62568 0.52437 0.0
C493 C 0.73733 0.65733 0.40039 0.0
N494 N 0.75914 0.64858 0.72701 0.0
N495 N 0.74711 0.64349 0.20089 0.0
H496 H 0.72259 0.68265 0.39234 0.0
H497 H 0.72026 0.66855 0.24353 0.0
H498 H 0.75214 0.63236 0.14565 0.0
H499 H 0.74782 0.65724 0.15313 0.0
H500 H 0.76987 0.6407 0.77754 0.0
H501 H 0.7586 0.66208 0.78228 0.0
H502 H 0.75254 0.60666 0.67928 0.0
H503 H 0.75406 0.59437 0.53196 0.0
C504 C 0.58048 0.10547 0.52608 0.0
C505 C 0.54978 0.09479 0.44197 0.0
C506 C 0.52833 0.05483 0.52118 0.0
C507 C 0.56021 0.06501 0.5963 0.0
N508 N 0.61765 0.09917 0.66504 0.0
N509 N 0.49522 0.05936 0.35143 0.0
C510 C 0.5865 0.09016 0.59796 0.0
C511 C 0.52382 0.06946 0.43763 0.0
N512 N 0.60378 0.13033 0.53773 0.0
N513 N 0.50228 1.03128 0.53164 0.0
H514 H 0.49046 0.06976 0.29298 0.0
H515 H 0.47702 1.04056 0.33244 0.0
H516 H 0.50493 1.02004 0.59079 0.0
H517 H 0.47743 1.02338 0.48942 0.0
H518 H 0.62476 0.13971 0.60764 0.0
H519 H 0.60108 0.14205 0.48277 0.0
H520 H 0.63919 0.11641 0.65816 0.0
H521 H 0.62267 0.08878 0.7226 0.0
C522 C 0.15983 0.16899 -0.00859 0.0
C523 C 0.14667 0.1488 0.0653 0.0
C524 C 0.11148 0.16216 0.15428 0.0
C525 C 0.12185 0.18082 0.0701 0.0
N526 N 0.15047 0.19717 0.88558 0.0
N527 N 0.10419 0.12346 0.19714 0.0
C528 C 0.14466 0.18296 -0.01728 0.0
C529 C 0.12086 0.14467 0.14096 0.0
N530 N 0.18761 0.17539 0.93152 0.0
N531 N 0.09385 0.1616 0.25173 0.0
H532 H 0.10985 0.11014 0.18859 0.0
H533 H 0.08256 0.11794 0.24105 0.0
H534 H 0.08696 0.17403 0.26855 0.0
H535 H 0.08905 0.15035 0.32408 0.0
H536 H 0.20068 0.19146 0.888 0.0
H537 H 0.19958 0.16593 0.93601 0.0
H538 H 0.16379 0.19731 0.81136 0.0
H539 H 0.13888 0.20668 0.87045 0.0
C540 C 0.98434 1.02979 0.18658 0.0
C541 C 1.00196 1.02577 0.09567 0.0
C542 C 1.0227 0.06723 0.03454 0.0
C543 C 0.99821 0.06801 0.10077 0.0
N544 N 0.95478 0.04907 0.24026 0.0
N545 N 1.05713 0.05044 0.02646 0.0
C546 C 0.97888 0.04906 0.17735 0.0
C547 C 1.02674 0.04716 0.04343 0.0
N548 N 0.97816 1.01823 0.29422 0.0
N549 N 1.04253 0.08574 0.96438 0.0
H550 H 1.06373 1.03871 0.06054 0.0
H551 H 0.07749 0.06656 -0.00029 0.0
H552 H 1.04184 0.10139 0.96125 0.0
H553 H 1.05822 0.08479 0.90378 0.0
H554 H 0.96824 1.02214 0.36953 0.0
H555 H 0.98783 1.00761 0.3155 0.0
H556 H 0.93798 1.03435 0.28752 0.0
H557 H 0.94974 0.06271 0.23605 0.0
C558 C 0.10432 0.94138 0.12341 0.0
C559 C 0.08919 0.9224 0.01692 0.0
C560 C 0.13586 0.95385 0.898 0.0
C561 C 0.15196 0.97246 0.00672 0.0
N562 N 0.15316 0.98042 0.23238 0.0
N563 N 0.09507 0.91078 0.80702 0.0
C564 C 0.13642 0.96511 0.12158 0.0
C565 C 0.10663 0.92884 0.90621 0.0
N566 N 0.08739 0.93695 0.22773 0.0
N567 N 0.14723 0.96046 0.78289 0.0
H568 H 0.0742 0.89293 0.81003 0.0
H569 H 0.10768 0.91273 0.72774 0.0
H570 H 0.16714 0.97818 0.77134 0.0
H571 H 0.13509 0.94927 0.69677 0.0
H572 H 0.09355 0.95051 0.30145 0.0
H573 H 1.06588 0.91975 0.23707 0.0
H574 H 0.14592 0.97547 0.32198 0.0
H575 H 0.17621 0.99733 0.23622 0.0
C576 C 0.94404 0.45075 0.18472 0.0
C577 C 0.92909 0.45169 0.06453 0.0
C578 C 0.93495 0.41849 0.97198 0.0
C579 C 0.94665 0.41583 0.09453 0.0
N580 N 0.95673 0.42726 0.3217 0.0
N581 N 0.9048 0.43278 0.84858 0.0
C582 C 0.94976 0.43146 0.2019 0.0
C583 C 0.92308 0.43451 0.95968 0.0
N584 N 0.95397 0.46885 0.28217 0.0
N585 N 0.93657 0.4065 0.86551 0.0
H586 H 0.89534 0.44376 0.83597 0.0
H587 H 0.89624 0.41891 0.77357 0.0
H588 H 0.94585 0.39527 0.86934 0.0
H589 H 0.93203 0.40966 0.77303 0.0
H590 H 0.96833 0.47091 0.36728 0.0
H591 H 0.95048 0.48317 0.27364 0.0
H592 H 0.95572 0.43607 0.40465 0.0
H593 H 0.96044 0.41326 0.33826 0.0
C594 C 0.7082 0.44247 0.90587 0.0
C595 C 0.73983 0.45438 -0.01225 0.0
C596 C 0.71931 0.41292 0.0599 0.0
C597 C 0.68621 0.40179 -0.0102 0.0
N598 N 0.6485 0.4088 0.86288 0.0
N599 N 0.77191 0.45019 0.1605 0.0
C600 C 0.68067 0.41742 0.91721 0.0
C601 C 0.74437 0.43929 0.06896 0.0
N602 N 0.7047 0.45474 0.81206 0.0
N603 N 0.72755 0.39815 0.11503 0.0
H604 H 0.79025 0.46902 0.17253 0.0
H605 H 0.77487 0.44097 0.23215 0.0
H606 H 0.71065 0.37913 0.10902 0.0
H607 H 0.75206 0.40439 0.15531 0.0
H608 H 0.68402 0.44649 0.74072 0.0
H609 H 0.7242 0.47235 0.79684 0.0
H610 H 0.64181 0.4199 0.82129 0.0
H611 H 0.62775 0.39118 0.87065 0.0
C612 C 0.67937 0.27362 0.14691 0.0
C613 C 0.65546 0.25998 0.03627 0.0
C614 C 0.70128 0.26283 0.92496 0.0
C615 C 0.72548 0.27728 0.03365 0.0
N616 N 0.73864 0.30052 0.23877 0.0
N617 N 0.64553 0.2471 0.81077 0.0
C618 C 0.71479 0.28391 0.14181 0.0
C619 C 0.66706 0.25625 0.9226 0.0
N620 N 0.66815 0.27583 0.25882 0.0
N621 N 0.7106 0.25448 0.82554 0.0
H622 H 0.62081 0.24293 0.80493 0.0
H623 H 0.65314 0.24611 0.72211 0.0
H624 H 0.73524 0.25885 0.82312 0.0
H625 H 0.69334 0.24159 0.75039 0.0
H626 H 0.68351 0.2828 0.34641 0.0
H627 H 0.64279 0.26915 0.26592 0.0
H628 H 0.73309 0.30818 0.31397 0.0
H629 H 0.76459 0.30831 0.23838 0.0
C630 C 0.55998 0.85862 0.8712 0.0
C631 C 0.58513 0.86352 0.97347 0.0
C632 C 0.57874 0.8962 0.06868 0.0
C633 C 0.55888 0.89431 0.95547 0.0
N634 N 0.53269 0.87422 0.74271 0.0
N635 N 0.59209 0.87309 0.20158 0.0
C636 C 0.55012 0.87563 0.85517 0.0
C637 C 0.58782 0.87872 0.08244 0.0
N638 N 0.54072 0.83575 0.80458 0.0
N639 N 0.58868 0.91443 0.16514 0.0
H640 H 0.59043 0.85678 0.21514 0.0
H641 H 0.59121 0.882 0.28454 0.0
H642 H 0.58221 0.92729 0.16033 0.0
H643 H 0.60572 0.91788 0.24473 0.0
H644 H 0.52035 0.83043 0.73544 0.0
H645 H 0.54144 0.82107 0.83436 0.0
H646 H 0.52841 0.86249 0.66204 0.0
H647 H 0.5256 0.8865 0.727 0.0
C648 C 0.42592 0.75634 0.72411 0.0
C649 C 0.41377 0.73613 0.79608 0.0
C650 C 0.41076 0.7594 0.97745 0.0
C651 C 0.42175 0.77929 0.90381 0.0
N652 N 0.44722 0.7995 0.72162 0.0
N653 N 0.402 0.71957 -0.00244 0.0
C654 C 0.43193 0.77869 0.78178 0.0
C655 C 0.40874 0.73811 0.92541 0.0
N656 N 0.43024 0.75371 0.59921 0.0
N657 N 0.40093 0.76056 0.09442 0.0
H658 H 0.39994 0.70357 0.96117 0.0
H659 H 0.40109 0.72073 0.09548 0.0
H660 H 0.4033 0.77631 0.13698 0.0
H661 H 0.38895 0.74569 0.14696 0.0
H662 H 0.43504 0.76664 0.5365 0.0
H663 H 0.4274 0.73785 0.55573 0.0
H664 H 0.45792 0.80095 0.63759 0.0
H665 H 0.45168 0.81617 0.76096 0.0
C666 C 0.54076 0.70083 0.72437 0.0
C667 C 0.5622 0.70304 0.83282 0.0
C668 C 0.51598 0.66199 0.88093 0.0
C669 C 0.49621 0.65827 0.76292 0.0
N670 N 0.49122 0.67433 0.56789 0.0
N671 N 0.57066 0.68546 0.01403 0.0
C672 C 0.50884 0.67791 0.68441 0.0
C673 C 0.54978 0.68351 0.91088 0.0
N674 N 0.55097 0.72072 0.65906 0.0
N675 N 0.50185 0.64562 0.96826 0.0
H676 H 0.59407 0.70169 0.04589 0.0
H677 H 0.56551 0.67081 0.06456 0.0
H678 H 0.47719 0.63 0.9524 0.0
H679 H 0.51324 0.64862 0.06148 0.0
H680 H 0.53538 0.72155 0.58762 0.0
H681 H 0.57428 0.73739 0.68418 0.0
H682 H 0.50079 0.68643 0.49919 0.0
H683 H 0.46782 0.65833 0.53479 0.0
C684 C 0.08125 0.20957 0.63135 0.0
C685 C 1.06585 0.22001 0.69438 0.0
C686 C 1.06339 0.23847 0.50148 0.0
C687 C 0.08219 0.23026 0.44249 0.0
N688 N 0.11392 0.2112 0.46329 0.0
N689 N 1.04886 0.24868 0.69928 0.0
C690 C 0.09285 0.21698 0.51153 0.0
C691 C 1.05862 0.23556 0.63198 0.0
N692 N 0.08292 0.19136 0.68154 0.0
N693 N 1.05004 0.24919 0.43452 0.0
H694 H 1.04586 0.24759 0.79569 0.0
H695 H 1.04713 0.26255 0.6635 0.0
H696 H 1.05459 0.2536 0.34266 0.0
H697 H 1.03235 0.25225 0.4676 0.0
H698 H 0.0904 0.18114 0.63276 0.0
H699 H 0.07351 0.18461 0.76619 0.0
H700 H 0.12583 0.20446 0.517 0.0
H701 H 0.12139 0.21449 0.37269 0.0
C702 C 0.99817 0.88293 0.57322 0.0
C703 C 0.97795 0.85945 0.61557 0.0
C704 C 0.95539 0.84056 0.39425 0.0
C705 C 0.97283 0.86427 0.35299 0.0
N706 N 1.00925 0.90841 0.40149 0.0
N707 N 0.93394 0.81624 0.57002 0.0
C708 C 0.99378 0.88559 0.44209 0.0
C709 C 0.95557 0.83834 0.52704 0.0
N710 N 1.02233 0.90252 0.65771 0.0
N711 N 0.93946 0.82016 0.3065 0.0
H712 H 0.93359 0.81376 0.66657 0.0
H713 H 0.91443 0.80082 0.51104 0.0
H714 H 0.93942 0.82122 0.20878 0.0
H715 H 0.92924 0.80239 0.33023 0.0
H716 H 1.04069 0.91947 0.63116 0.0
H717 H 1.02559 0.90127 0.75458 0.0
H718 H 1.0213 0.92468 0.46302 0.0
H719 H 1.00864 0.91117 0.30544 0.0
C720 C 0.24312 0.06422 0.54441 0.0
C721 C 0.24726 0.04975 0.62972 0.0
C722 C 0.2707 1.03737 0.46675 0.0
C723 C 0.26575 0.05136 0.38068 0.0
N724 N 0.26171 0.08637 0.3615 0.0
N725 N 0.2544 1.01611 0.6535 0.0
C726 C 0.25608 0.0672 0.42572 0.0
C727 C 0.25797 1.03442 0.58603 0.0
N728 N 0.2244 0.07363 0.57265 0.0
N729 N 0.29043 1.02879 0.43937 0.0
H730 H 0.24317 1.0119 0.7369 0.0
H731 H 0.25871 1.00297 0.61816 0.0
H732 H 0.30361 1.03319 0.36003 0.0
H733 H 0.29777 1.02055 0.5039 0.0
H734 H 0.21776 0.08229 0.50835 0.0
H735 H 0.21155 0.06977 0.65277 0.0
H736 H 0.2578 0.0997 0.39729 0.0
H737 H 0.27515 0.09129 0.28337 0.0
C738 C 0.84807 0.55222 0.47737 0.0
C739 C 0.81952 0.53584 0.38656 0.0
C740 C 0.78247 0.52245 0.55431 0.0
C741 C 0.81137 0.53767 0.64573 0.0
N742 N 0.87217 0.56232 0.69931 0.0
N743 N 0.7611 0.50156 0.33965 0.0
C744 C 0.84437 0.55122 0.60882 0.0
C745 C 0.78711 0.5198 0.42521 0.0
N746 N 0.87866 0.5687 0.43815 0.0
N747 N 0.75062 0.51077 0.59053 0.0
H748 H 0.76364 0.49913 0.24424 0.0
H749 H 0.73801 0.48764 0.3652 0.0
H750 H 0.74625 0.51136 0.6854 0.0
H751 H 0.72851 0.5018 0.52586 0.0
H752 H 0.89932 0.5829 0.4995 0.0
H753 H 0.88275 0.56941 0.34258 0.0
H754 H 0.89697 0.5706 0.67813 0.0
H755 H 0.87012 0.5608 0.79597 0.0
C756 C 0.50879 0.22134 0.48232 0.0
C757 C 0.53475 0.22294 0.41399 0.0
C758 C 0.55332 0.21002 0.5995 0.0
C759 C 0.53112 0.2124 0.67188 0.0
N760 N 0.49324 0.22587 0.6894 0.0
N761 N 0.5881 0.22518 0.43017 0.0
C762 C 0.51066 0.21985 0.61566 0.0
C763 C 0.55871 0.21886 0.47795 0.0
N764 N 0.48131 0.22006 0.42076 0.0
N765 N 0.56978 0.1997 0.64708 0.0
H766 H 0.59607 0.23441 0.35047 0.0
H767 H 0.60723 0.22441 0.48044 0.0
H768 H 0.56775 0.19399 0.73795 0.0
H769 H 0.58319 0.19502 0.59192 0.0
H770 H 0.46068 0.2167 0.46632 0.0
H771 H 0.47633 0.21871 0.32216 0.0
H772 H 0.48075 0.23392 0.65507 0.0
H773 H 0.49424 0.22519 0.78759 0.0
C774 C 0.94661 0.33635 0.54848 0.0
C775 C 0.96457 0.35809 0.48823 0.0
C776 C 0.9975 0.3819 0.69299 0.0
C777 C 0.97843 0.36029 0.75385 0.0
N778 N 0.93133 0.31818 0.74587 0.0
N779 N 1.00514 0.40174 0.49929 0.0
C780 C 0.95189 0.33788 0.68341 0.0
C781 C 0.98961 0.38093 0.55941 0.0
N782 N 0.92552 0.31409 0.47615 0.0
N783 N 1.02303 0.40332 0.76326 0.0
H784 H 1.00092 0.40144 0.40091 0.0
H785 H 1.02096 0.41948 0.54607 0.0
H786 H 1.02749 0.40546 0.86261 0.0
H787 H 1.04065 0.41892 0.72393 0.0
H788 H 0.91478 0.2973 0.513 0.0
H789 H 0.9208 0.31213 0.37689 0.0
H790 H 0.90911 0.30224 0.70195 0.0
H791 H 0.93503 0.31843 0.84439 0.0
C792 C 0.49724 0.94912 0.51535 0.0
C793 C 0.49326 0.92805 0.56473 0.0
C794 C 0.50821 0.91703 0.36612 0.0
C795 C 0.51312 0.93848 0.31824 0.0
N796 N 0.5176 0.97696 0.35226 0.0
N797 N 0.48711 0.88907 0.52855 0.0
C798 C 0.50887 0.95502 0.394 0.0
C799 C 0.49684 0.91127 0.48802 0.0
N800 N 0.48849 0.9629 0.58236 0.0
N801 N 0.51509 0.90242 0.29577 0.0
H802 H 0.47739 0.88393 0.61483 0.0
H803 H 0.48582 0.87484 0.47326 0.0
H804 H 0.5223 0.90566 0.20478 0.0
H805 H 0.51585 0.88807 0.32966 0.0
H806 H 0.48718 0.97691 0.54662 0.0
H807 H 0.47934 0.95884 0.67003 0.0
H808 H 0.5188 0.99112 0.40791 0.0
H809 H 0.52647 0.98195 0.26458 0.0
C810 C 0.41324 0.61237 0.11575 0.0
C811 C 0.38469 0.59208 0.03755 0.0
C812 C 0.37184 0.56701 0.21558 0.0
C813 C 0.39945 0.58756 0.29518 0.0
N814 N 0.45183 0.62733 0.31313 0.0
N815 N 0.33326 0.55164 0.01854 0.0
C816 C 0.42178 0.60955 0.24289 0.0
C817 C 0.36298 0.56983 0.08908 0.0
N818 N 0.43075 0.63483 0.07134 0.0
N819 N 0.35576 0.54435 0.25795 0.0
H820 H 0.32588 0.5532 0.92627 0.0
H821 H 0.3146 0.536 0.05493 0.0
H822 H 0.3624 0.54152 0.34851 0.0
H823 H 0.33803 0.52809 0.2001 0.0
H824 H 0.44954 0.65099 0.12744 0.0
H825 H 0.42442 0.63788 -0.0191 0.0
H826 H 0.47096 0.64274 0.27681 0.0
H827 H 0.45916 0.62546 0.40485 0.0
C828 C 0.69177 0.78176 0.46221 0.0
C829 C 0.66851 0.76022 0.516 0.0
C830 C 0.65668 0.73479 0.31618 0.0
C831 C 0.67805 0.75646 0.25964 0.0
N832 N 0.71224 0.80065 0.27015 0.0
N833 N 0.62416 0.71706 0.49099 0.0
C834 C 0.69456 0.78 0.33014 0.0
C835 C 0.64954 0.73694 0.44204 0.0
N836 N 0.71157 0.80377 0.53781 0.0
N837 N 0.6439 0.7122 0.25077 0.0
H838 H 0.61823 0.71807 0.58297 0.0
H839 H 0.60707 0.70014 0.4372 0.0
H840 H 0.64815 0.70984 0.15739 0.0
H841 H 0.63124 0.69586 0.29202 0.0
H842 H 0.73181 0.81947 0.50771 0.0
H843 H 0.70923 0.80607 0.63394 0.0
H844 H 0.72158 0.81831 0.31259 0.0
H845 H 0.71548 0.80002 0.17407 0.0
loop_
_geom_bond_atom_site_label_1
_geom_bond_atom_site_label_2
_geom_bond_distance
_geom_bond_site_symmetry_2
_ccdc_geom_bond_type
Pr0 C2 2.880 . S
Pr0 O20 2.562 . S
Pr0 O21 2.490 . S
Pr0 O22 2.695 . S
Pr0 O23 2.512 . S
Pr0 O25 2.437 . S
Pr0 O28 2.436 1_554 S
Pr0 O30 2.438 . S
Pr1 C11 2.880 . S
Pr1 O22 2.436 1_655 S
Pr1 O24 2.438 . S
Pr1 O26 2.562 . S
Pr1 O27 2.490 1_554 S
Pr1 O28 2.695 1_654 S
Pr1 O29 2.512 1_554 S
Pr1 O31 2.437 1_655 S
C2 Pr0 2.880 . S
C2 C3 1.491 . S
C2 O20 1.254 . S
C2 O21 1.225 . S
C3 C2 1.491 . S
C3 C4 1.392 . S
C3 C8 1.356 . S
C4 C3 1.392 . S
C4 C5 1.368 . S
C4 H32 0.929 . S
C5 C4 1.368 . S
C5 C6 1.386 . S
C5 H33 0.929 . S
C6 C5 1.386 . S
C6 C7 1.373 . S
C7 C6 1.373 . S
C7 C8 1.409 . S
C7 H34 0.931 1_554 S
C8 C3 1.356 . S
C8 C7 1.409 . S
C8 H35 0.930 1_554 S
C9 O22 1.270 . S
C9 O23 1.248 . S
C10 O24 1.267 1_455 S
C10 O25 1.278 . S
C11 Pr1 2.880 . S
C11 C12 1.491 . S
C11 O26 1.254 . S
C11 O27 1.225 1_554 S
C12 C11 1.491 . S
C12 C13 1.392 1_554 S
C12 C17 1.356 . S
C13 C12 1.392 1_556 S
C13 C14 1.368 . S
C13 H36 0.929 . S
C14 C13 1.368 . S
C14 C15 1.386 1_556 S
C14 H37 0.929 . S
C15 C14 1.386 1_554 S
C15 C16 1.373 . S
C16 C15 1.373 . S
C16 C17 1.409 . S
C16 H38 0.931 . S
C17 C12 1.356 . S
C17 C16 1.409 . S
C17 H39 0.930 . S
C18 O28 1.270 . S
C18 O29 1.248 1_455 S
C19 O30 1.267 . S
C19 O31 1.278 . S
O20 Pr0 2.562 . S
O20 C2 1.254 . S
O21 Pr0 2.490 . S
O21 C2 1.225 . S
O22 Pr0 2.695 . S
O22 Pr1 2.436 1_455 S
O22 C9 1.270 . S
O23 Pr0 2.512 . S
O23 C9 1.248 . S
O24 Pr1 2.438 . S
O24 C10 1.267 1_655 S
O25 Pr0 2.437 . S
O25 C10 1.278 . S
O26 Pr1 2.562 . S
O26 C11 1.254 . S
O27 Pr1 2.490 1_556 S
O27 C11 1.225 1_556 S
O28 Pr0 2.436 1_556 S
O28 Pr1 2.695 1_456 S
O28 C18 1.270 . S
O29 Pr1 2.512 1_556 S
O29 C18 1.248 1_655 S
O30 Pr0 2.438 . S
O30 C19 1.267 . S
O31 Pr1 2.437 1_455 S
O31 C19 1.278 . S
H32 C4 0.929 . S
H33 C5 0.929 . S
H34 C7 0.931 1_556 S
H35 C8 0.930 1_556 S
H36 C13 0.929 . S
H37 C14 0.929 . S
H38 C16 0.931 . S
H39 C17 0.930 . S
Pr40 C42 2.880 . S
Pr40 O60 2.562 . S
Pr40 O61 2.490 1_554 S
Pr40 O62 2.695 1_554 S
Pr40 O63 2.512 1_554 S
Pr40 O65 2.437 1_554 S
Pr40 O68 2.436 . S
Pr40 O70 2.438 . S
Pr41 C51 2.880 . S
Pr41 O62 2.436 1_554 S
Pr41 O64 2.438 . S
Pr41 O66 2.562 1_554 S
Pr41 O67 2.490 . S
Pr41 O68 2.695 . S
Pr41 O69 2.512 . S
Pr41 O71 2.437 . S
C42 Pr40 2.880 . S
C42 C43 1.491 . S
C42 O60 1.254 . S
C42 O61 1.225 1_554 S
C43 C42 1.491 . S
C43 C44 1.392 1_554 S
C43 C48 1.356 . S
C44 C43 1.392 1_556 S
C44 C45 1.368 . S
C44 H72 0.929 . S
C45 C44 1.368 . S
C45 C46 1.386 1_556 S
C45 H73 0.929 . S
C46 C45 1.386 1_554 S
C46 C47 1.373 . S
C47 C46 1.373 . S
C47 C48 1.409 . S
C47 H74 0.931 . S
C48 C43 1.356 . S
C48 C47 1.409 . S
C48 H75 0.930 . S
C49 O62 1.270 . S
C49 O63 1.248 . S
C50 O64 1.267 1_556 S
C50 O65 1.278 . S
C51 Pr41 2.880 . S
C51 C52 1.491 . S
C51 O66 1.254 1_554 S
C51 O67 1.225 . S
C52 C51 1.491 . S
C52 C53 1.392 . S
C52 C57 1.356 1_554 S
C53 C52 1.392 . S
C53 C54 1.368 . S
C53 H76 0.929 . S
C54 C53 1.368 . S
C54 C55 1.386 . S
C54 H77 0.929 . S
C55 C54 1.386 . S
C55 C56 1.373 1_554 S
C56 C55 1.373 1_556 S
C56 C57 1.409 . S
C56 H78 0.931 . S
C57 C52 1.356 1_556 S
C57 C56 1.409 . S
C57 H79 0.930 . S
C58 O68 1.270 . S
C58 O69 1.248 . S
C59 O70 1.267 . S
C59 O71 1.278 . S
O60 Pr40 2.562 . S
O60 C42 1.254 . S
O61 Pr40 2.490 1_556 S
O61 C42 1.225 1_556 S
O62 Pr40 2.695 1_556 S
O62 Pr41 2.436 1_556 S
O62 C49 1.270 . S
O63 Pr40 2.512 1_556 S
O63 C49 1.248 . S
O64 Pr41 2.438 . S
O64 C50 1.267 1_554 S
O65 Pr40 2.437 1_556 S
O65 C50 1.278 . S
O66 Pr41 2.562 1_556 S
O66 C51 1.254 1_556 S
O67 Pr41 2.490 . S
O67 C51 1.225 . S
O68 Pr40 2.436 . S
O68 Pr41 2.695 . S
O68 C58 1.270 . S
O69 Pr41 2.512 . S
O69 C58 1.248 . S
O70 Pr40 2.438 . S
O70 C59 1.267 . S
O71 Pr41 2.437 . S
O71 C59 1.278 . S
H72 C44 0.929 . S
H73 C45 0.929 . S
H74 C47 0.931 . S
H75 C48 0.930 . S
H76 C53 0.929 . S
H77 C54 0.929 . S
H78 C56 0.931 . S
H79 C57 0.930 . S
Pr80 C82 2.880 1_554 S
Pr80 O100 2.562 1_554 S
Pr80 O101 2.490 . S
Pr80 O102 2.695 1_565 S
Pr80 O103 2.512 . S
Pr80 O105 2.437 1_565 S
Pr80 O108 2.436 1_564 S
Pr80 O110 2.438 . S
Pr81 C91 2.880 . S
Pr81 O102 2.436 . S
Pr81 O104 2.438 . S
Pr81 O106 2.562 . S
Pr81 O107 2.490 1_554 S
Pr81 O108 2.695 1_554 S
Pr81 O109 2.512 1_554 S
Pr81 O111 2.437 1_554 S
C82 Pr80 2.880 1_556 S
C82 C83 1.491 . S
C82 O100 1.254 . S
C82 O101 1.225 1_556 S
C83 C82 1.491 . S
C83 C84 1.392 1_556 S
C83 C88 1.356 . S
C84 C83 1.392 1_554 S
C84 C85 1.368 . S
C84 H112 0.929 . S
C85 C84 1.368 . S
C85 C86 1.386 1_554 S
C85 H113 0.929 . S
C86 C85 1.386 1_556 S
C86 C87 1.373 . S
C87 C86 1.373 . S
C87 C88 1.409 . S
C87 H114 0.931 . S
C88 C83 1.356 . S
C88 C87 1.409 . S
C88 H115 0.930 . S
C89 O102 1.270 . S
C89 O103 1.248 1_545 S
C90 O104 1.267 . S
C90 O105 1.278 . S
C91 Pr81 2.880 . S
C91 C92 1.491 . S
C91 O106 1.254 . S
C91 O107 1.225 1_554 S
C92 C91 1.491 . S
C92 C93 1.392 1_554 S
C92 C97 1.356 . S
C93 C92 1.392 1_556 S
C93 C94 1.368 . S
C93 H116 0.929 . S
C94 C93 1.368 . S
C94 C95 1.386 1_556 S
C94 H117 0.929 . S
C95 C94 1.386 1_554 S
C95 C96 1.373 . S
C96 C95 1.373 . S
C96 C97 1.409 . S
C96 H118 0.931 . S
C97 C92 1.356 . S
C97 C96 1.409 . S
C97 H119 0.930 . S
C98 O108 1.270 . S
C98 O109 1.248 . S
C99 O110 1.267 1_556 S
C99 O111 1.278 1_565 S
O100 Pr80 2.562 1_556 S
O100 C82 1.254 . S
O101 Pr80 2.490 . S
O101 C82 1.225 1_554 S
O102 Pr80 2.695 1_545 S
O102 Pr81 2.436 . S
O102 C89 1.270 . S
O103 Pr80 2.512 . S
O103 C89 1.248 1_565 S
O104 Pr81 2.438 . S
O104 C90 1.267 . S
O105 Pr80 2.437 1_545 S
O105 C90 1.278 . S
O106 Pr81 2.562 . S
O106 C91 1.254 . S
O107 Pr81 2.490 1_556 S
O107 C91 1.225 1_556 S
O108 Pr80 2.436 1_546 S
O108 Pr81 2.695 1_556 S
O108 C98 1.270 . S
O109 Pr81 2.512 1_556 S
O109 C98 1.248 . S
O110 Pr80 2.438 . S
O110 C99 1.267 1_554 S
O111 Pr81 2.437 1_556 S
O111 C99 1.278 1_545 S
H112 C84 0.929 . S
H113 C85 0.929 . S
H114 C87 0.931 . S
H115 C88 0.930 . S
H116 C93 0.929 . S
H117 C94 0.929 . S
H118 C96 0.931 . S
H119 C97 0.930 . S
Pr120 C122 2.880 . S
Pr120 O140 2.562 . S
Pr120 O141 2.490 . S
Pr120 O142 2.695 1_554 S
Pr120 O143 2.512 1_554 S
Pr120 O145 2.437 . S
Pr120 O148 2.436 . S
Pr120 O150 2.438 . S
Pr121 C131 2.880 . S
Pr121 O142 2.436 1_554 S
Pr121 O144 2.438 . S
Pr121 O146 2.562 1_554 S
Pr121 O147 2.490 . S
Pr121 O148 2.695 . S
Pr121 O149 2.512 . S
Pr121 O151 2.437 . S
C122 Pr120 2.880 . S
C122 C123 1.491 . S
C122 O140 1.254 . S
C122 O141 1.225 . S
C123 C122 1.491 . S
C123 C124 1.392 . S
C123 C128 1.356 . S
C124 C123 1.392 . S
C124 C125 1.368 . S
C124 H152 0.929 1_554 S
C125 C124 1.368 . S
C125 C126 1.386 . S
C125 H153 0.929 . S
C126 C125 1.386 . S
C126 C127 1.373 . S
C127 C126 1.373 . S
C127 C128 1.409 . S
C127 H154 0.931 . S
C128 C123 1.356 . S
C128 C127 1.409 . S
C128 H155 0.930 . S
C129 O142 1.270 . S
C129 O143 1.248 . S
C130 O144 1.267 . S
C130 O145 1.278 . S
C131 Pr121 2.880 . S
C131 C132 1.491 . S
C131 O146 1.254 1_554 S
C131 O147 1.225 . S
C132 C131 1.491 . S
C132 C133 1.392 . S
C132 C137 1.356 1_554 S
C133 C132 1.392 . S
C133 C134 1.368 . S
C133 H156 0.929 . S
C134 C133 1.368 . S
C134 C135 1.386 . S
C134 H157 0.929 . S
C135 C134 1.386 . S
C135 C136 1.373 1_554 S
C136 C135 1.373 1_556 S
C136 C137 1.409 . S
C136 H158 0.931 . S
C137 C132 1.356 1_556 S
C137 C136 1.409 . S
C137 H159 0.930 . S
C138 O148 1.270 . S
C138 O149 1.248 . S
C139 O150 1.267 . S
C139 O151 1.278 . S
O140 Pr120 2.562 . S
O140 C122 1.254 . S
O141 Pr120 2.490 . S
O141 C122 1.225 . S
O142 Pr120 2.695 1_556 S
O142 Pr121 2.436 1_556 S
O142 C129 1.270 . S
O143 Pr120 2.512 1_556 S
O143 C129 1.248 . S
O144 Pr121 2.438 . S
O144 C130 1.267 . S
O145 Pr120 2.437 . S
O145 C130 1.278 . S
O146 Pr121 2.562 1_556 S
O146 C131 1.254 1_556 S
O147 Pr121 2.490 . S
O147 C131 1.225 . S
O148 Pr120 2.436 . S
O148 Pr121 2.695 . S
O148 C138 1.270 . S
O149 Pr121 2.512 . S
O149 C138 1.248 . S
O150 Pr120 2.438 . S
O150 C139 1.267 . S
O151 Pr121 2.437 . S
O151 C139 1.278 . S
H152 C124 0.929 1_556 S
H153 C125 0.929 . S
H154 C127 0.931 . S
H155 C128 0.930 . S
H156 C133 0.929 . S
H157 C134 0.929 . S
H158 C136 0.931 . S
H159 C137 0.930 . S
Pr160 C162 2.880 . S
Pr160 O180 2.562 . S
Pr160 O181 2.490 . S
Pr160 O182 2.695 1_554 S
Pr160 O183 2.512 1_554 S
Pr160 O185 2.437 . S
Pr160 O188 2.436 . S
Pr160 O190 2.438 . S
Pr161 C171 2.880 . S
Pr161 O182 2.436 1_554 S
Pr161 O184 2.438 . S
Pr161 O186 2.562 1_554 S
Pr161 O187 2.490 . S
Pr161 O188 2.695 . S
Pr161 O189 2.512 . S
Pr161 O191 2.437 . S
C162 Pr160 2.880 . S
C162 C163 1.491 . S
C162 O180 1.254 . S
C162 O181 1.225 . S
C163 C162 1.491 . S
C163 C164 1.392 . S
C163 C168 1.356 . S
C164 C163 1.392 . S
C164 C165 1.368 . S
C164 H192 0.929 1_554 S
C165 C164 1.368 . S
C165 C166 1.386 . S
C165 H193 0.929 . S
C166 C165 1.386 . S
C166 C167 1.373 . S
C167 C166 1.373 . S
C167 C168 1.409 . S
C167 H194 0.931 . S
C168 C163 1.356 . S
C168 C167 1.409 . S
C168 H195 0.930 . S
C169 O182 1.270 . S
C169 O183 1.248 . S
C170 O184 1.267 . S
C170 O185 1.278 . S
C171 Pr161 2.880 . S
C171 C172 1.491 . S
C171 O186 1.254 1_554 S
C171 O187 1.225 . S
C172 C171 1.491 . S
C172 C173 1.392 . S
C172 C177 1.356 1_554 S
C173 C172 1.392 . S
C173 C174 1.368 . S
C173 H196 0.929 . S
C174 C173 1.368 . S
C174 C175 1.386 . S
C174 H197 0.929 . S
C175 C174 1.386 . S
C175 C176 1.373 1_554 S
C176 C175 1.373 1_556 S
C176 C177 1.409 . S
C176 H198 0.931 . S
C177 C172 1.356 1_556 S
C177 C176 1.409 . S
C177 H199 0.930 . S
C178 O188 1.270 . S
C178 O189 1.248 . S
C179 O190 1.267 . S
C179 O191 1.278 . S
O180 Pr160 2.562 . S
O180 C162 1.254 . S
O181 Pr160 2.490 . S
O181 C162 1.225 . S
O182 Pr160 2.695 1_556 S
O182 Pr161 2.436 1_556 S
O182 C169 1.270 . S
O183 Pr160 2.512 1_556 S
O183 C169 1.248 . S
O184 Pr161 2.438 . S
O184 C170 1.267 . S
O185 Pr160 2.437 . S
O185 C170 1.278 . S
O186 Pr161 2.562 1_556 S
O186 C171 1.254 1_556 S
O187 Pr161 2.490 . S
O187 C171 1.225 . S
O188 Pr160 2.436 . S
O188 Pr161 2.695 . S
O188 C178 1.270 . S
O189 Pr161 2.512 . S
O189 C178 1.248 . S
O190 Pr160 2.438 . S
O190 C179 1.267 . S
O191 Pr161 2.437 . S
O191 C179 1.278 . S
H192 C164 0.929 1_556 S
H193 C165 0.929 . S
H194 C167 0.931 . S
H195 C168 0.930 . S
H196 C173 0.929 . S
H197 C174 0.929 . S
H198 C176 0.931 . S
H199 C177 0.930 . S
Pr200 C202 2.880 1_655 S
Pr200 O220 2.562 1_655 S
Pr200 O221 2.490 1_655 S
Pr200 O222 2.695 . S
Pr200 O223 2.512 1_554 S
Pr200 O225 2.437 . S
Pr200 O228 2.436 . S
Pr200 O230 2.438 . S
Pr201 C211 2.880 . S
Pr201 O222 2.436 . S
Pr201 O224 2.438 . S
Pr201 O226 2.562 . S
Pr201 O227 2.490 . S
Pr201 O228 2.695 . S
Pr201 O229 2.512 . S
Pr201 O231 2.437 . S
C202 Pr200 2.880 1_455 S
C202 C203 1.491 . S
C202 O220 1.254 . S
C202 O221 1.225 . S
C203 C202 1.491 . S
C203 C204 1.392 . S
C203 C208 1.356 . S
C204 C203 1.392 . S
C204 C205 1.368 . S
C204 H232 0.929 . S
C205 C204 1.368 . S
C205 C206 1.386 . S
C205 H233 0.929 . S
C206 C205 1.386 . S
C206 C207 1.373 . S
C207 C206 1.373 . S
C207 C208 1.409 . S
C207 H234 0.931 . S
C208 C203 1.356 . S
C208 C207 1.409 . S
C208 H235 0.930 . S
C209 O222 1.270 1_556 S
C209 O223 1.248 . S
C210 O224 1.267 . S
C210 O225 1.278 . S
C211 Pr201 2.880 . S
C211 C212 1.491 . S
C211 O226 1.254 . S
C211 O227 1.225 . S
C212 C211 1.491 . S
C212 C213 1.392 . S
C212 C217 1.356 1_554 S
C213 C212 1.392 . S
C213 C214 1.368 . S
C213 H236 0.929 . S
C214 C213 1.368 . S
C214 C215 1.388 . S
C214 H237 0.929 . S
C215 C214 1.388 . S
C215 C216 1.371 1_554 S
C216 C215 1.371 1_556 S
C216 C217 1.409 . S
C216 H238 0.931 . S
C217 C212 1.356 1_556 S
C217 C216 1.409 . S
C217 H239 0.930 . S
C218 O228 1.270 . S
C218 O229 1.248 . S
C219 O230 1.267 . S
C219 O231 1.278 . S
O220 Pr200 2.562 1_455 S
O220 C202 1.254 . S
O221 Pr200 2.490 1_455 S
O221 C202 1.225 . S
O222 Pr200 2.695 . S
O222 Pr201 2.436 . S
O222 C209 1.270 1_554 S
O223 Pr200 2.512 1_556 S
O223 C209 1.248 . S
O224 Pr201 2.438 . S
O224 C210 1.267 . S
O225 Pr200 2.437 . S
O225 C210 1.278 . S
O226 Pr201 2.562 . S
O226 C211 1.254 . S
O227 Pr201 2.490 . S
O227 C211 1.225 . S
O228 Pr200 2.436 . S
O228 Pr201 2.695 . S
O228 C218 1.270 . S
O229 Pr201 2.512 . S
O229 C218 1.248 . S
O230 Pr200 2.438 . S
O230 C219 1.267 . S
O231 Pr201 2.437 . S
O231 C219 1.278 . S
H232 C204 0.929 . S
H233 C205 0.929 . S
H234 C207 0.931 . S
H235 C208 0.930 . S
H236 C213 0.929 . S
H237 C214 0.929 . S
H238 C216 0.931 . S
H239 C217 0.930 . S
Pr240 C242 2.880 . S
Pr240 O260 2.562 . S
Pr240 O261 2.490 . S
Pr240 O262 2.695 . S
Pr240 O263 2.512 1_556 S
Pr240 O265 2.437 . S
Pr240 O268 2.436 . S
Pr240 O270 2.438 . S
Pr241 C251 2.880 . S
Pr241 O262 2.436 . S
Pr241 O264 2.438 . S
Pr241 O266 2.562 . S
Pr241 O267 2.490 . S
Pr241 O268 2.695 . S
Pr241 O269 2.512 . S
Pr241 O271 2.437 . S
C242 Pr240 2.880 . S
C242 C243 1.491 . S
C242 O260 1.254 . S
C242 O261 1.225 . S
C243 C242 1.491 . S
C243 C244 1.392 . S
C243 C248 1.356 . S
C244 C243 1.392 . S
C244 C245 1.368 1_565 S
C244 H272 0.929 1_556 S
C245 C244 1.368 1_545 S
C245 C246 1.386 . S
C245 H273 0.929 . S
C246 C245 1.386 . S
C246 C247 1.373 . S
C247 C246 1.373 . S
C247 C248 1.409 1_545 S
C247 H274 0.931 . S
C248 C243 1.356 . S
C248 C247 1.409 1_565 S
C248 H275 0.930 . S
C249 O262 1.270 1_554 S
C249 O263 1.248 . S
C250 O264 1.267 . S
C250 O265 1.278 . S
C251 Pr241 2.880 . S
C251 C252 1.491 . S
C251 O266 1.254 . S
C251 O267 1.225 . S
C252 C251 1.491 . S
C252 C253 1.392 . S
C252 C257 1.356 . S
C253 C252 1.392 . S
C253 C254 1.368 . S
C253 H276 0.929 . S
C254 C253 1.368 . S
C254 C255 1.386 . S
C254 H277 0.929 . S
C255 C254 1.386 . S
C255 C256 1.373 . S
C256 C255 1.373 . S
C256 C257 1.409 . S
C256 H278 0.931 1_556 S
C257 C252 1.356 . S
C257 C256 1.409 . S
C257 H279 0.930 1_556 S
C258 O268 1.270 . S
C258 O269 1.248 . S
C259 O270 1.267 . S
C259 O271 1.278 . S
O260 Pr240 2.562 . S
O260 C242 1.254 . S
O261 Pr240 2.490 . S
O261 C242 1.225 . S
O262 Pr240 2.695 . S
O262 Pr241 2.436 . S
O262 C249 1.270 1_556 S
O263 Pr240 2.512 1_554 S
O263 C249 1.248 . S
O264 Pr241 2.438 . S
O264 C250 1.267 . S
O265 Pr240 2.437 . S
O265 C250 1.278 . S
O266 Pr241 2.562 . S
O266 C251 1.254 . S
O267 Pr241 2.490 . S
O267 C251 1.225 . S
O268 Pr240 2.436 . S
O268 Pr241 2.695 . S
O268 C258 1.270 . S
O269 Pr241 2.512 . S
O269 C258 1.248 . S
O270 Pr240 2.438 . S
O270 C259 1.267 . S
O271 Pr241 2.437 . S
O271 C259 1.278 . S
H272 C244 0.929 1_554 S
H273 C245 0.929 . S
H274 C247 0.931 . S
H275 C248 0.930 . S
H276 C253 0.929 . S
H277 C254 0.929 . S
H278 C256 0.931 1_554 S
H279 C257 0.930 1_554 S
Pr280 C282 2.880 . S
Pr280 O300 2.562 . S
Pr280 O301 2.490 . S
Pr280 O302 2.695 . S
Pr280 O303 2.512 . S
Pr280 O305 2.437 . S
Pr280 O308 2.436 . S
Pr280 O310 2.438 . S
Pr281 C291 2.880 . S
Pr281 O302 2.436 . S
Pr281 O304 2.438 . S
Pr281 O306 2.562 . S
Pr281 O307 2.490 . S
Pr281 O308 2.695 . S
Pr281 O309 2.512 1_556 S
Pr281 O311 2.437 . S
C282 Pr280 2.880 . S
C282 C283 1.491 . S
C282 O300 1.254 . S
C282 O301 1.225 . S
C283 C282 1.491 . S
C283 C284 1.392 . S
C283 C288 1.356 . S
C284 C283 1.392 . S
C284 C285 1.368 . S
C284 H312 0.929 . S
C285 C284 1.368 . S
C285 C286 1.386 . S
C285 H313 0.929 . S
C286 C285 1.386 . S
C286 C287 1.373 . S
C287 C286 1.373 . S
C287 C288 1.409 . S
C287 H314 0.931 1_556 S
C288 C283 1.356 . S
C288 C287 1.409 . S
C288 H315 0.930 1_556 S
C289 O302 1.270 . S
C289 O303 1.248 . S
C290 O304 1.267 . S
C290 O305 1.278 . S
C291 Pr281 2.880 . S
C291 C292 1.491 . S
C291 O306 1.254 . S
C291 O307 1.225 . S
C292 C291 1.491 . S
C292 C293 1.392 . S
C292 C297 1.356 . S
C293 C292 1.392 . S
C293 C294 1.368 . S
C293 H316 0.929 1_556 S
C294 C293 1.368 . S
C294 C295 1.386 . S
C294 H317 0.929 1_556 S
C295 C294 1.386 . S
C295 C296 1.373 . S
C296 C295 1.373 . S
C296 C297 1.409 . S
C296 H318 0.931 . S
C297 C292 1.356 . S
C297 C296 1.409 . S
C297 H319 0.930 . S
C298 O308 1.270 1_554 S
C298 O309 1.248 . S
C299 O310 1.267 . S
C299 O311 1.278 . S
O300 Pr280 2.562 . S
O300 C282 1.254 . S
O301 Pr280 2.490 . S
O301 C282 1.225 . S
O302 Pr280 2.695 . S
O302 Pr281 2.436 . S
O302 C289 1.270 . S
O303 Pr280 2.512 . S
O303 C289 1.248 . S
O304 Pr281 2.438 . S
O304 C290 1.267 . S
O305 Pr280 2.437 . S
O305 C290 1.278 . S
O306 Pr281 2.562 . S
O306 C291 1.254 . S
O307 Pr281 2.490 . S
O307 C291 1.225 . S
O308 Pr280 2.436 . S
O308 Pr281 2.695 . S
O308 C298 1.270 1_556 S
O309 Pr281 2.512 1_554 S
O309 C298 1.248 . S
O310 Pr280 2.438 . S
O310 C299 1.267 . S
O311 Pr281 2.437 . S
O311 C299 1.278 . S
H312 C284 0.929 . S
H313 C285 0.929 . S
H314 C287 0.931 1_554 S
H315 C288 0.930 1_554 S
H316 C293 0.929 1_554 S
H317 C294 0.929 1_554 S
H318 C296 0.931 . S
H319 C297 0.930 . S
Pr320 C322 2.880 . S
Pr320 O340 2.562 . S
Pr320 O341 2.490 . S
Pr320 O342 2.695 . S
Pr320 O343 2.512 1_556 S
Pr320 O345 2.437 . S
Pr320 O348 2.436 . S
Pr320 O350 2.438 . S
Pr321 C331 2.880 . S
Pr321 O342 2.436 . S
Pr321 O344 2.438 . S
Pr321 O346 2.562 . S
Pr321 O347 2.490 . S
Pr321 O348 2.695 . S
Pr321 O349 2.512 . S
Pr321 O351 2.437 . S
C322 Pr320 2.880 . S
C322 C323 1.491 . S
C322 O340 1.254 . S
C322 O341 1.225 . S
C323 C322 1.491 . S
C323 C324 1.392 . S
C323 C328 1.356 . S
C324 C323 1.392 . S
C324 C325 1.368 . S
C324 H352 0.929 . S
C325 C324 1.368 . S
C325 C326 1.386 . S
C325 H353 0.929 . S
C326 C325 1.386 . S
C326 C327 1.373 . S
C327 C326 1.373 . S
C327 C328 1.409 . S
C327 H354 0.931 . S
C328 C323 1.356 . S
C328 C327 1.409 . S
C328 H355 0.930 . S
C329 O342 1.270 1_554 S
C329 O343 1.248 . S
C330 O344 1.267 . S
C330 O345 1.278 . S
C331 Pr321 2.880 . S
C331 C332 1.491 . S
C331 O346 1.254 . S
C331 O347 1.225 . S
C332 C331 1.491 . S
C332 C333 1.392 . S
C332 C337 1.356 . S
C333 C332 1.392 . S
C333 C334 1.368 . S
C333 H356 0.929 . S
C334 C333 1.368 . S
C334 C335 1.386 . S
C334 H357 0.929 . S
C335 C334 1.386 . S
C335 C336 1.373 1_556 S
C336 C335 1.373 1_554 S
C336 C337 1.409 1_554 S
C336 H358 0.931 . S
C337 C332 1.356 . S
C337 C336 1.409 1_556 S
C337 H359 0.930 1_556 S
C338 O348 1.270 . S
C338 O349 1.248 . S
C339 O350 1.267 . S
C339 O351 1.278 . S
O340 Pr320 2.562 . S
O340 C322 1.254 . S
O341 Pr320 2.490 . S
O341 C322 1.225 . S
O342 Pr320 2.695 . S
O342 Pr321 2.436 . S
O342 C329 1.270 1_556 S
O343 Pr320 2.512 1_554 S
O343 C329 1.248 . S
O344 Pr321 2.438 . S
O344 C330 1.267 . S
O345 Pr320 2.437 . S
O345 C330 1.278 . S
O346 Pr321 2.562 . S
O346 C331 1.254 . S
O347 Pr321 2.490 . S
O347 C331 1.225 . S
O348 Pr320 2.436 . S
O348 Pr321 2.695 . S
O348 C338 1.270 . S
O349 Pr321 2.512 . S
O349 C338 1.248 . S
O350 Pr320 2.438 . S
O350 C339 1.267 . S
O351 Pr321 2.437 . S
O351 C339 1.278 . S
H352 C324 0.929 . S
H353 C325 0.929 . S
H354 C327 0.931 . S
H355 C328 0.930 . S
H356 C333 0.929 . S
H357 C334 0.929 . S
H358 C336 0.931 . S
H359 C337 0.930 1_554 S
C360 C361 1.363 1_556 S
C360 C366 1.379 . S
C360 N368 1.356 1_556 S
C361 C360 1.363 1_554 S
C361 C367 1.363 . S
C362 C363 1.363 . S
C362 C367 1.379 1_556 S
C362 N369 1.356 . S
C363 C362 1.363 . S
C363 C366 1.363 . S
N364 C366 1.356 . S
N364 H376 0.984 . S
N364 H377 0.985 . S
N365 C367 1.356 . S
N365 H370 0.984 . S
N365 H371 0.985 . S
C366 C360 1.379 . S
C366 C363 1.363 . S
C366 N364 1.356 . S
C367 C361 1.363 . S
C367 C362 1.379 1_554 S
C367 N365 1.356 . S
N368 C360 1.356 1_554 S
N368 H374 0.984 1_554 S
N368 H375 0.984 . S
N369 C362 1.356 . S
N369 H372 0.984 . S
N369 H373 0.985 . S
H370 N365 0.984 . S
H371 N365 0.985 . S
H372 N369 0.984 . S
H373 N369 0.985 . S
H374 N368 0.984 1_556 S
H375 N368 0.984 . S
H376 N364 0.984 . S
H377 N364 0.985 . S
C378 C379 1.363 . S
C378 C384 1.379 . S
C378 N386 1.356 . S
C379 C378 1.363 . S
C379 C385 1.363 . S
C380 C381 1.363 . S
C380 C385 1.379 . S
C380 N387 1.356 . S
C381 C380 1.363 . S
C381 C384 1.363 . S
N382 C384 1.356 . S
N382 H394 0.984 . S
N382 H395 0.985 . S
N383 C385 1.356 . S
N383 H388 0.984 . S
N383 H389 0.985 . S
C384 C378 1.379 . S
C384 C381 1.363 . S
C384 N382 1.356 . S
C385 C379 1.363 . S
C385 C380 1.379 . S
C385 N383 1.356 . S
N386 C378 1.356 . S
N386 H392 0.984 . S
N386 H393 0.984 . S
N387 C380 1.356 . S
N387 H390 0.984 . S
N387 H391 0.985 . S
H388 N383 0.984 . S
H389 N383 0.985 . S
H390 N387 0.984 . S
H391 N387 0.985 . S
H392 N386 0.984 . S
H393 N386 0.984 . S
H394 N382 0.984 . S
H395 N382 0.985 . S
C396 C397 1.363 . S
C396 C402 1.379 . S
C396 N404 1.356 . S
C397 C396 1.363 . S
C397 C403 1.363 1_556 S
C398 C399 1.363 . S
C398 C403 1.379 1_556 S
C398 N405 1.356 1_556 S
C399 C398 1.363 . S
C399 C402 1.363 . S
N400 C402 1.356 . S
N400 H412 0.984 . S
N400 H413 0.985 . S
N401 C403 1.356 . S
N401 H406 0.984 . S
N401 H407 0.985 . S
C402 C396 1.379 . S
C402 C399 1.363 . S
C402 N400 1.356 . S
C403 C397 1.363 1_554 S
C403 C398 1.379 1_554 S
C403 N401 1.356 . S
N404 C396 1.356 . S
N404 H410 0.984 . S
N404 H411 0.984 . S
N405 C398 1.356 1_554 S
N405 H408 0.984 1_554 S
N405 H409 0.985 . S
H406 N401 0.984 . S
H407 N401 0.985 . S
H408 N405 0.984 1_556 S
H409 N405 0.985 . S
H410 N404 0.984 . S
H411 N404 0.984 . S
H412 N400 0.984 . S
H413 N400 0.985 . S
C414 C415 1.363 . S
C414 C420 1.379 . S
C414 N422 1.356 . S
C415 C414 1.363 . S
C415 C421 1.363 1_554 S
C416 C417 1.363 1_556 S
C416 C421 1.379 . S
C416 N423 1.356 . S
C417 C416 1.363 1_554 S
C417 C420 1.363 . S
N418 C420 1.356 . S
N418 H430 0.984 . S
N418 H431 0.985 . S
N419 C421 1.356 . S
N419 H424 0.984 . S
N419 H425 0.985 . S
C420 C414 1.379 . S
C420 C417 1.363 . S
C420 N418 1.356 . S
C421 C415 1.363 1_556 S
C421 C416 1.379 . S
C421 N419 1.356 . S
N422 C414 1.356 . S
N422 H428 0.984 . S
N422 H429 0.984 . S
N423 C416 1.356 . S
N423 H426 0.984 . S
N423 H427 0.985 . S
H424 N419 0.984 . S
H425 N419 0.985 . S
H426 N423 0.984 . S
H427 N423 0.985 . S
H428 N422 0.984 . S
H429 N422 0.984 . S
H430 N418 0.984 . S
H431 N418 0.985 . S
C432 C433 1.363 . S
C432 C438 1.379 . S
C432 N440 1.356 . S
C433 C432 1.363 . S
C433 C439 1.339 1_655 S
C434 C435 1.363 1_455 S
C434 C439 1.399 . S
C434 N441 1.356 . S
C435 C434 1.363 1_655 S
C435 C438 1.363 . S
N436 C438 1.356 1_556 S
N436 H448 0.984 . S
N436 H449 0.985 . S
N437 C439 1.352 . S
N437 H442 0.984 . S
N437 H443 0.985 . S
C438 C432 1.379 . S
C438 C435 1.363 . S
C438 N436 1.356 1_554 S
C439 C433 1.339 1_455 S
C439 C434 1.399 . S
C439 N437 1.352 . S
N440 C432 1.356 . S
N440 H446 0.984 1_554 S
N440 H447 0.984 . S
N441 C434 1.356 . S
N441 H444 0.984 . S
N441 H445 0.985 . S
H442 N437 0.984 . S
H443 N437 0.985 . S
H444 N441 0.984 . S
H445 N441 0.985 . S
H446 N440 0.984 1_556 S
H447 N440 0.984 . S
H448 N436 0.984 . S
H449 N436 0.985 . S
C450 C451 1.363 1_556 S
C450 C456 1.379 1_556 S
C450 N458 1.356 . S
C451 C450 1.363 1_554 S
C451 C457 1.363 . S
C452 C453 1.363 . S
C452 C457 1.379 . S
C452 N459 1.356 . S
C453 C452 1.363 . S
C453 C456 1.363 . S
N454 C456 1.356 1_556 S
N454 H466 0.984 . S
N454 H467 0.985 1_556 S
N455 C457 1.356 . S
N455 H460 0.984 . S
N455 H461 0.985 . S
C456 C450 1.379 1_554 S
C456 C453 1.363 . S
C456 N454 1.356 1_554 S
C457 C451 1.363 . S
C457 C452 1.379 . S
C457 N455 1.356 . S
N458 C450 1.356 . S
N458 H464 0.984 . S
N458 H465 0.984 . S
N459 C452 1.356 . S
N459 H462 0.984 . S
N459 H463 0.985 . S
H460 N455 0.984 . S
H461 N455 0.985 . S
H462 N459 0.984 . S
H463 N459 0.985 . S
H464 N458 0.984 . S
H465 N458 0.984 . S
H466 N454 0.984 . S
H467 N454 0.985 1_554 S
C468 C469 1.363 . S
C468 C474 1.379 . S
C468 N476 1.356 . S
C469 C468 1.363 . S
C469 C475 1.363 . S
C470 C471 1.363 . S
C470 C475 1.379 . S
C470 N477 1.356 . S
C471 C470 1.363 . S
C471 C474 1.363 . S
N472 C474 1.356 . S
N472 H484 0.984 . S
N472 H485 0.985 . S
N473 C475 1.356 . S
N473 H478 0.984 . S
N473 H479 0.985 . S
C474 C468 1.379 . S
C474 C471 1.363 . S
C474 N472 1.356 . S
C475 C469 1.363 . S
C475 C470 1.379 . S
C475 N473 1.356 . S
N476 C468 1.356 . S
N476 H482 0.984 . S
N476 H483 0.984 . S
N477 C470 1.356 . S
N477 H480 0.984 . S
N477 H481 0.985 . S
H478 N473 0.984 . S
H479 N473 0.985 . S
H480 N477 0.984 . S
H481 N477 0.985 . S
H482 N476 0.984 . S
H483 N476 0.984 . S
H484 N472 0.984 . S
H485 N472 0.985 . S
C486 C487 1.363 . S
C486 C492 1.379 . S
C486 N494 1.356 . S
C487 C486 1.363 . S
C487 C493 1.363 . S
C488 C489 1.363 . S
C488 C493 1.379 . S
C488 N495 1.356 . S
C489 C488 1.363 . S
C489 C492 1.363 . S
N490 C492 1.356 . S
N490 H502 0.984 . S
N490 H503 0.985 . S
N491 C493 1.356 . S
N491 H496 0.984 . S
N491 H497 0.985 . S
C492 C486 1.379 . S
C492 C489 1.363 . S
C492 N490 1.356 . S
C493 C487 1.363 . S
C493 C488 1.379 . S
C493 N491 1.356 . S
N494 C486 1.356 . S
N494 H500 0.984 . S
N494 H501 0.984 . S
N495 C488 1.356 . S
N495 H498 0.984 . S
N495 H499 0.985 . S
H496 N491 0.984 . S
H497 N491 0.985 . S
H498 N495 0.984 . S
H499 N495 0.985 . S
H500 N494 0.984 . S
H501 N494 0.984 . S
H502 N490 0.984 . S
H503 N490 0.985 . S
C504 C505 1.363 . S
C504 C510 1.379 . S
C504 N512 1.356 . S
C505 C504 1.363 . S
C505 C511 1.363 . S
C506 C507 1.363 . S
C506 C511 1.379 . S
C506 N513 1.356 . S
C507 C506 1.363 . S
C507 C510 1.363 . S
N508 C510 1.356 . S
N508 H520 0.984 . S
N508 H521 0.985 . S
N509 C511 1.356 . S
N509 H514 0.984 . S
N509 H515 0.971 1_545 S
C510 C504 1.379 . S
C510 C507 1.363 . S
C510 N508 1.356 . S
C511 C505 1.363 . S
C511 C506 1.379 . S
C511 N509 1.356 . S
N512 C504 1.356 . S
N512 H518 0.984 . S
N512 H519 0.984 . S
N513 C506 1.356 . S
N513 H516 0.984 . S
N513 H517 0.985 1_545 S
H514 N509 0.984 . S
H515 N509 0.971 1_565 S
H516 N513 0.984 . S
H517 N513 0.985 1_565 S
H518 N512 0.984 . S
H519 N512 0.984 . S
H520 N508 0.984 . S
H521 N508 0.985 . S
C522 C523 1.363 . S
C522 C528 1.379 . S
C522 N530 1.356 1_554 S
C523 C522 1.363 . S
C523 C529 1.363 . S
C524 C525 1.363 . S
C524 C529 1.379 . S
C524 N531 1.356 . S
C525 C524 1.363 . S
C525 C528 1.363 . S
N526 C528 1.356 1_556 S
N526 H538 0.984 . S
N526 H539 0.985 . S
N527 C529 1.356 . S
N527 H532 0.984 . S
N527 H533 0.985 . S
C528 C522 1.379 . S
C528 C525 1.363 . S
C528 N526 1.356 1_554 S
C529 C523 1.363 . S
C529 C524 1.379 . S
C529 N527 1.356 . S
N530 C522 1.356 1_556 S
N530 H536 0.984 . S
N530 H537 0.984 . S
N531 C524 1.356 . S
N531 H534 0.984 . S
N531 H535 0.985 . S
H532 N527 0.984 . S
H533 N527 0.985 . S
H534 N531 0.984 . S
H535 N531 0.985 . S
H536 N530 0.984 . S
H537 N530 0.984 . S
H538 N526 0.984 . S
H539 N526 0.985 . S
C540 C541 1.363 . S
C540 C546 1.379 . S
C540 N548 1.356 . S
C541 C540 1.363 . S
C541 C547 1.363 1_554 S
C542 C543 1.363 1_556 S
C542 C547 1.379 1_545 S
C542 N549 1.356 . S
C543 C542 1.363 1_554 S
C543 C546 1.363 1_545 S
N544 C546 1.356 . S
N544 H556 0.984 . S
N544 H557 0.985 1_565 S
N545 C547 1.356 . S
N545 H550 0.984 . S
N545 H551 0.985 . S
C546 C540 1.379 . S
C546 C543 1.363 1_565 S
C546 N544 1.356 . S
C547 C541 1.363 1_556 S
C547 C542 1.379 1_565 S
C547 N545 1.356 . S
N548 C540 1.356 . S
N548 H554 0.984 . S
N548 H555 0.984 . S
N549 C542 1.356 . S
N549 H552 0.984 . S
N549 H553 0.985 . S
H550 N545 0.984 . S
H551 N545 0.985 . S
H552 N549 0.984 . S
H553 N549 0.985 . S
H554 N548 0.984 . S
H555 N548 0.984 . S
H556 N544 0.984 . S
H557 N544 0.985 1_545 S
C558 C559 1.363 . S
C558 C564 1.379 . S
C558 N566 1.356 1_455 S
C559 C558 1.363 . S
C559 C565 1.363 1_554 S
C560 C561 1.363 1_556 S
C560 C565 1.379 . S
C560 N567 1.356 . S
C561 C560 1.363 1_554 S
C561 C564 1.363 . S
N562 C564 1.356 . S
N562 H574 0.984 . S
N562 H575 0.985 . S
N563 C565 1.356 . S
N563 H568 0.984 . S
N563 H569 0.985 . S
C564 C558 1.379 . S
C564 C561 1.363 . S
C564 N562 1.356 . S
C565 C559 1.363 1_556 S
C565 C560 1.379 . S
C565 N563 1.356 . S
N566 C558 1.356 1_655 S
N566 H572 0.984 . S
N566 H573 0.984 . S
N567 C560 1.356 . S
N567 H570 0.984 . S
N567 H571 0.985 . S
H568 N563 0.984 . S
H569 N563 0.985 . S
H570 N567 0.984 . S
H571 N567 0.985 . S
H572 N566 0.984 . S
H573 N566 0.984 . S
H574 N562 0.984 . S
H575 N562 0.985 . S
C576 C577 1.363 . S
C576 C582 1.379 . S
C576 N584 1.356 . S
C577 C576 1.363 . S
C577 C583 1.363 . S
C578 C579 1.363 . S
C578 C583 1.379 . S
C578 N585 1.356 . S
C579 C578 1.363 . S
C579 C582 1.363 . S
N580 C582 1.356 . S
N580 H592 0.984 . S
N580 H593 0.985 . S
N581 C583 1.356 1_556 S
N581 H586 0.984 . S
N581 H587 0.985 . S
C582 C576 1.379 . S
C582 C579 1.363 . S
C582 N580 1.356 . S
C583 C577 1.363 . S
C583 C578 1.379 . S
C583 N581 1.356 1_554 S
N584 C576 1.356 . S
N584 H590 0.984 . S
N584 H591 0.984 . S
N585 C578 1.356 . S
N585 H588 0.984 . S
N585 H589 0.985 1_554 S
H586 N581 0.984 . S
H587 N581 0.985 . S
H588 N585 0.984 . S
H589 N585 0.985 1_556 S
H590 N584 0.984 . S
H591 N584 0.984 . S
H592 N580 0.984 . S
H593 N580 0.985 . S
C594 C595 1.363 1_556 S
C594 C600 1.379 . S
C594 N602 1.356 . S
C595 C594 1.363 1_554 S
C595 C601 1.363 . S
C596 C597 1.363 . S
C596 C601 1.379 . S
C596 N603 1.356 . S
C597 C596 1.363 . S
C597 C600 1.363 1_554 S
N598 C600 1.356 . S
N598 H610 0.984 . S
N598 H611 0.985 . S
N599 C601 1.356 . S
N599 H604 0.984 . S
N599 H605 0.985 . S
C600 C594 1.379 . S
C600 C597 1.363 1_556 S
C600 N598 1.356 . S
C601 C595 1.363 . S
C601 C596 1.379 . S
C601 N599 1.356 . S
N602 C594 1.356 . S
N602 H608 0.984 . S
N602 H609 0.984 . S
N603 C596 1.356 . S
N603 H606 0.984 . S
N603 H607 0.985 . S
H604 N599 0.984 . S
H605 N599 0.985 . S
H606 N603 0.984 . S
H607 N603 0.985 . S
H608 N602 0.984 . S
H609 N602 0.984 . S
H610 N598 0.984 . S
H611 N598 0.985 . S
C612 C613 1.363 . S
C612 C618 1.379 . S
C612 N620 1.356 . S
C613 C612 1.363 . S
C613 C619 1.363 1_554 S
C614 C615 1.363 1_556 S
C614 C619 1.379 . S
C614 N621 1.356 . S
C615 C614 1.363 1_554 S
C615 C618 1.363 . S
N616 C618 1.356 . S
N616 H628 0.984 . S
N616 H629 0.985 . S
N617 C619 1.356 . S
N617 H622 0.984 1_556 S
N617 H623 0.985 . S
C618 C612 1.379 . S
C618 C615 1.363 . S
C618 N616 1.356 . S
C619 C613 1.363 1_556 S
C619 C614 1.379 . S
C619 N617 1.356 . S
N620 C612 1.356 . S
N620 H626 0.984 . S
N620 H627 0.984 . S
N621 C614 1.356 . S
N621 H624 0.984 . S
N621 H625 0.985 . S
H622 N617 0.984 1_554 S
H623 N617 0.985 . S
H624 N621 0.984 . S
H625 N621 0.985 . S
H626 N620 0.984 . S
H627 N620 0.984 . S
H628 N616 0.984 . S
H629 N616 0.985 . S
C630 C631 1.363 . S
C630 C636 1.379 . S
C630 N638 1.356 . S
C631 C630 1.363 . S
C631 C637 1.365 . S
C632 C633 1.363 . S
C632 C637 1.379 . S
C632 N639 1.356 1_556 S
C633 C632 1.363 . S
C633 C636 1.363 . S
N634 C636 1.356 . S
N634 H646 0.984 . S
N634 H647 0.985 . S
N635 C637 1.354 1_554 S
N635 H640 0.984 . S
N635 H641 0.985 . S
C636 C630 1.379 . S
C636 C633 1.363 . S
C636 N634 1.356 . S
C637 C631 1.365 . S
C637 C632 1.379 . S
C637 N635 1.354 1_556 S
N638 C630 1.356 . S
N638 H644 0.984 . S
N638 H645 0.984 . S
N639 C632 1.356 1_554 S
N639 H642 0.984 . S
N639 H643 0.985 . S
H640 N635 0.984 . S
H641 N635 0.985 . S
H642 N639 0.984 . S
H643 N639 0.985 . S
H644 N638 0.984 . S
H645 N638 0.984 . S
H646 N634 0.984 . S
H647 N634 0.985 . S
C648 C649 1.363 . S
C648 C654 1.379 . S
C648 N656 1.356 . S
C649 C648 1.363 . S
C649 C655 1.363 . S
C650 C651 1.363 . S
C650 C655 1.379 . S
C650 N657 1.356 1_556 S
C651 C650 1.363 . S
C651 C654 1.363 . S
N652 C654 1.356 . S
N652 H664 0.984 . S
N652 H665 0.985 . S
N653 C655 1.356 . S
N653 H658 0.984 . S
N653 H659 0.985 1_556 S
C654 C648 1.379 . S
C654 C651 1.363 . S
C654 N652 1.356 . S
C655 C649 1.363 . S
C655 C650 1.379 . S
C655 N653 1.356 . S
N656 C648 1.356 . S
N656 H662 0.984 . S
N656 H663 0.984 . S
N657 C650 1.356 1_554 S
N657 H660 0.984 . S
N657 H661 0.985 . S
H658 N653 0.984 . S
H659 N653 0.985 1_554 S
H660 N657 0.984 . S
H661 N657 0.985 . S
H662 N656 0.984 . S
H663 N656 0.984 . S
H664 N652 0.984 . S
H665 N652 0.985 . S
C666 C667 1.363 . S
C666 C672 1.379 . S
C666 N674 1.356 . S
C667 C666 1.363 . S
C667 C673 1.363 . S
C668 C669 1.363 . S
C668 C673 1.379 . S
C668 N675 1.356 1_556 S
C669 C668 1.363 . S
C669 C672 1.363 . S
N670 C672 1.356 . S
N670 H682 0.984 . S
N670 H683 0.985 . S
N671 C673 1.356 . S
N671 H676 0.984 . S
N671 H677 0.985 1_556 S
C672 C666 1.379 . S
C672 C669 1.363 . S
C672 N670 1.356 . S
C673 C667 1.363 . S
C673 C668 1.379 . S
C673 N671 1.356 . S
N674 C666 1.356 . S
N674 H680 0.984 . S
N674 H681 0.984 . S
N675 C668 1.356 1_554 S
N675 H678 0.984 . S
N675 H679 0.985 . S
H676 N671 0.984 . S
H677 N671 0.985 1_554 S
H678 N675 0.984 . S
H679 N675 0.985 . S
H680 N674 0.984 . S
H681 N674 0.984 . S
H682 N670 0.984 . S
H683 N670 0.985 . S
C684 C685 1.363 . S
C684 C690 1.379 . S
C684 N692 1.356 . S
C685 C684 1.363 . S
C685 C691 1.363 . S
C686 C687 1.363 . S
C686 C691 1.379 . S
C686 N693 1.356 . S
C687 C686 1.363 . S
C687 C690 1.363 . S
N688 C690 1.356 . S
N688 H700 0.984 . S
N688 H701 0.985 . S
N689 C691 1.356 . S
N689 H694 0.984 . S
N689 H695 0.985 . S
C690 C684 1.379 . S
C690 C687 1.363 . S
C690 N688 1.356 . S
C691 C685 1.363 . S
C691 C686 1.379 . S
C691 N689 1.356 . S
N692 C684 1.356 . S
N692 H698 0.984 . S
N692 H699 0.984 . S
N693 C686 1.356 . S
N693 H696 0.984 . S
N693 H697 0.985 . S
H694 N689 0.984 . S
H695 N689 0.985 . S
H696 N693 0.984 . S
H697 N693 0.985 . S
H698 N692 0.984 . S
H699 N692 0.984 . S
H700 N688 0.984 . S
H701 N688 0.985 . S
C702 C703 1.363 . S
C702 C708 1.379 . S
C702 N710 1.356 . S
C703 C702 1.363 . S
C703 C709 1.363 . S
C704 C705 1.363 . S
C704 C709 1.379 . S
C704 N711 1.356 . S
C705 C704 1.363 . S
C705 C708 1.363 . S
N706 C708 1.356 . S
N706 H718 0.984 . S
N706 H719 0.985 . S
N707 C709 1.356 . S
N707 H712 0.984 . S
N707 H713 0.985 . S
C708 C702 1.379 . S
C708 C705 1.363 . S
C708 N706 1.356 . S
C709 C703 1.363 . S
C709 C704 1.379 . S
C709 N707 1.356 . S
N710 C702 1.356 . S
N710 H716 0.984 . S
N710 H717 0.984 . S
N711 C704 1.356 . S
N711 H714 0.984 . S
N711 H715 0.985 . S
H712 N707 0.984 . S
H713 N707 0.985 . S
H714 N711 0.984 . S
H715 N711 0.985 . S
H716 N710 0.984 . S
H717 N710 0.984 . S
H718 N706 0.984 . S
H719 N706 0.985 . S
C720 C721 1.363 . S
C720 C726 1.379 . S
C720 N728 1.356 . S
C721 C720 1.363 . S
C721 C727 1.356 1_545 S
C722 C723 1.415 . S
C722 C727 1.374 1_545 S
C722 N729 1.322 1_545 S
C723 C722 1.415 . S
C723 C726 1.363 . S
N724 C726 1.356 . S
N724 H736 0.984 . S
N724 H737 0.985 . S
N725 C727 1.363 . S
N725 H730 0.984 . S
N725 H731 0.985 . S
C726 C720 1.379 . S
C726 C723 1.363 . S
C726 N724 1.356 . S
C727 C721 1.356 1_565 S
C727 C722 1.374 1_565 S
C727 N725 1.363 . S
N728 C720 1.356 . S
N728 H734 0.984 . S
N728 H735 0.984 . S
N729 C722 1.322 1_565 S
N729 H732 0.984 . S
N729 H733 0.985 . S
H730 N725 0.984 . S
H731 N725 0.985 . S
H732 N729 0.984 . S
H733 N729 0.985 . S
H734 N728 0.984 . S
H735 N728 0.984 . S
H736 N724 0.984 . S
H737 N724 0.985 . S
C738 C739 1.363 . S
C738 C744 1.379 . S
C738 N746 1.356 . S
C739 C738 1.363 . S
C739 C745 1.363 . S
C740 C741 1.363 . S
C740 C745 1.379 . S
C740 N747 1.356 . S
C741 C740 1.363 . S
C741 C744 1.363 . S
N742 C744 1.356 . S
N742 H754 0.984 . S
N742 H755 0.985 . S
N743 C745 1.356 . S
N743 H748 0.984 . S
N743 H749 0.985 . S
C744 C738 1.379 . S
C744 C741 1.363 . S
C744 N742 1.356 . S
C745 C739 1.363 . S
C745 C740 1.379 . S
C745 N743 1.356 . S
N746 C738 1.356 . S
N746 H752 0.984 . S
N746 H753 0.984 . S
N747 C740 1.356 . S
N747 H750 0.984 . S
N747 H751 0.985 . S
H748 N743 0.984 . S
H749 N743 0.985 . S
H750 N747 0.984 . S
H751 N747 0.985 . S
H752 N746 0.984 . S
H753 N746 0.984 . S
H754 N742 0.984 . S
H755 N742 0.985 . S
C756 C757 1.363 . S
C756 C762 1.379 . S
C756 N764 1.356 . S
C757 C756 1.363 . S
C757 C763 1.363 . S
C758 C759 1.363 . S
C758 C763 1.379 . S
C758 N765 1.356 . S
C759 C758 1.363 . S
C759 C762 1.363 . S
N760 C762 1.356 . S
N760 H772 0.984 . S
N760 H773 0.985 . S
N761 C763 1.356 . S
N761 H766 0.984 . S
N761 H767 0.985 . S
C762 C756 1.379 . S
C762 C759 1.363 . S
C762 N760 1.356 . S
C763 C757 1.363 . S
C763 C758 1.379 . S
C763 N761 1.356 . S
N764 C756 1.356 . S
N764 H770 0.984 . S
N764 H771 0.984 . S
N765 C758 1.356 . S
N765 H768 0.984 . S
N765 H769 0.985 . S
H766 N761 0.984 . S
H767 N761 0.985 . S
H768 N765 0.984 . S
H769 N765 0.985 . S
H770 N764 0.984 . S
H771 N764 0.984 . S
H772 N760 0.984 . S
H773 N760 0.985 . S
C774 C775 1.363 . S
C774 C780 1.379 . S
C774 N782 1.356 . S
C775 C774 1.363 . S
C775 C781 1.363 . S
C776 C777 1.363 . S
C776 C781 1.379 . S
C776 N783 1.356 . S
C777 C776 1.363 . S
C777 C780 1.363 . S
N778 C780 1.356 . S
N778 H790 0.984 . S
N778 H791 0.985 . S
N779 C781 1.356 . S
N779 H784 0.984 . S
N779 H785 0.985 . S
C780 C774 1.379 . S
C780 C777 1.363 . S
C780 N778 1.356 . S
C781 C775 1.363 . S
C781 C776 1.379 . S
C781 N779 1.356 . S
N782 C774 1.356 . S
N782 H788 0.984 . S
N782 H789 0.984 . S
N783 C776 1.356 . S
N783 H786 0.984 . S
N783 H787 0.985 . S
H784 N779 0.984 . S
H785 N779 0.985 . S
H786 N783 0.984 . S
H787 N783 0.985 . S
H788 N782 0.984 . S
H789 N782 0.984 . S
H790 N778 0.984 . S
H791 N778 0.985 . S
C792 C793 1.363 . S
C792 C798 1.379 . S
C792 N800 1.356 . S
C793 C792 1.363 . S
C793 C799 1.363 . S
C794 C795 1.363 . S
C794 C799 1.379 . S
C794 N801 1.356 . S
C795 C794 1.363 . S
C795 C798 1.363 . S
N796 C798 1.356 . S
N796 H808 0.984 . S
N796 H809 0.985 . S
N797 C799 1.356 . S
N797 H802 0.984 . S
N797 H803 0.985 . S
C798 C792 1.379 . S
C798 C795 1.363 . S
C798 N796 1.356 . S
C799 C793 1.363 . S
C799 C794 1.379 . S
C799 N797 1.356 . S
N800 C792 1.356 . S
N800 H806 0.984 . S
N800 H807 0.984 . S
N801 C794 1.356 . S
N801 H804 0.984 . S
N801 H805 0.985 . S
H802 N797 0.984 . S
H803 N797 0.985 . S
H804 N801 0.984 . S
H805 N801 0.985 . S
H806 N800 0.984 . S
H807 N800 0.984 . S
H808 N796 0.984 . S
H809 N796 0.985 . S
C810 C811 1.363 . S
C810 C816 1.379 . S
C810 N818 1.356 . S
C811 C810 1.363 . S
C811 C817 1.363 . S
C812 C813 1.363 . S
C812 C817 1.379 . S
C812 N819 1.356 . S
C813 C812 1.363 . S
C813 C816 1.363 . S
N814 C816 1.356 . S
N814 H826 0.984 . S
N814 H827 0.985 . S
N815 C817 1.356 . S
N815 H820 0.984 . S
N815 H821 0.985 . S
C816 C810 1.379 . S
C816 C813 1.363 . S
C816 N814 1.356 . S
C817 C811 1.363 . S
C817 C812 1.379 . S
C817 N815 1.356 . S
N818 C810 1.356 . S
N818 H824 0.984 . S
N818 H825 0.984 . S
N819 C812 1.356 . S
N819 H822 0.984 . S
N819 H823 0.985 . S
H820 N815 0.984 . S
H821 N815 0.985 . S
H822 N819 0.984 . S
H823 N819 0.985 . S
H824 N818 0.984 . S
H825 N818 0.984 . S
H826 N814 0.984 . S
H827 N814 0.985 . S
C828 C829 1.363 . S
C828 C834 1.379 . S
C828 N836 1.356 . S
C829 C828 1.363 . S
C829 C835 1.363 . S
C830 C831 1.363 . S
C830 C835 1.379 . S
C830 N837 1.356 . S
C831 C830 1.363 . S
C831 C834 1.363 . S
N832 C834 1.356 . S
N832 H844 0.984 . S
N832 H845 0.985 . S
N833 C835 1.356 . S
N833 H838 0.984 . S
N833 H839 0.985 . S
C834 C828 1.379 . S
C834 C831 1.363 . S
C834 N832 1.356 . S
C835 C829 1.363 . S
C835 C830 1.379 . S
C835 N833 1.356 . S
N836 C828 1.356 . S
N836 H842 0.984 . S
N836 H843 0.984 . S
N837 C830 1.356 . S
N837 H840 0.984 . S
N837 H841 0.985 . S
H838 N833 0.984 . S
H839 N833 0.985 . S
H840 N837 0.984 . S
H841 N837 0.985 . S
H842 N836 0.984 . S
H843 N836 0.984 . S
H844 N832 0.984 . S
H845 N832 0.985 . S
C361 C6 1.696 . S
C363 C286 1.692 . S
C379 C50 2.644 . S
C381 C330 2.731 . S
C397 C86 1.738 . S
C399 C250 1.746 . S
C415 C170 3.153 . S
C417 C90 3.114 . S
C433 C210 2.919 . S
C435 C10 2.975 1_655 S
C451 C46 2.583 . S
C453 C130 2.539 . S
C469 C290 2.399 . S
C471 C206 2.325 . S
C487 C326 1.864 . S
C489 C126 1.894 . S
C505 C166 2.279 . S
C507 C246 2.319 . S
C523 C95 2.052 . S
C525 C19 2.178 . S
C541 C55 1.575 . S
C543 C15 1.574 . S
C559 C59 3.473 1_455 S
C561 C99 3.399 1_554 S
C577 C135 1.957 . S
C579 C219 1.968 . S
C595 C139 1.976 . S
C597 C175 2.017 . S
C613 C179 1.775 . S
C615 C215 1.764 . S
C631 C335 2.082 . S
C633 C259 2.156 . S
C649 C295 1.004 . S
C651 C255 1.026 . S
C667 C339 2.244 . S
C669 C299 2.359 . S
C685 C18 1.150 . S
C687 C9 1.150 . S
C703 C49 1.120 . S
C705 C58 1.120 . S
C721 C98 1.118 . S
C723 C89 1.118 . S
C739 C138 1.180 . S
C741 C129 1.180 . S
C757 C178 1.198 . S
C759 C169 1.198 . S
C775 C218 1.119 . S
C777 C209 1.119 . S
C793 C258 1.191 . S
C795 C249 1.191 . S
C811 C298 1.159 . S
C813 C289 1.159 . S
C829 C338 1.140 . S
C831 C329 1.140 . S
