# Generated by pormake.
# Topology whz, (6)-cn, num edge types: 1
# Building blocks:
#     Node 0, Type 0, BuildingBlock: BETDEL_clean_sbu_0, # of connection points: 6
#     Node 1, Type 0, BuildingBlock: BETDEL_clean_sbu_0, # of connection points: 6
#     Node 2, Type 0, BuildingBlock: BETDEL_clean_sbu_0, # of connection points: 6
#     Node 3, Type 0, BuildingBlock: BETDEL_clean_sbu_0, # of connection points: 6
#     Node 4, Type 0, BuildingBlock: BETDEL_clean_sbu_0, # of connection points: 6
#     Node 5, Type 0, BuildingBlock: BETDEL_clean_sbu_0, # of connection points: 6
#     Node 6, Type 0, BuildingBlock: BETDEL_clean_sbu_0, # of connection points: 6
#     Node 7, Type 0, BuildingBlock: BETDEL_clean_sbu_0, # of connection points: 6
#     Node 8, Type 0, BuildingBlock: BETDEL_clean_sbu_0, # of connection points: 6
#     Node 9, Type 0, BuildingBlock: BETDEL_clean_sbu_0, # of connection points: 6
#     Node 10, Type 0, BuildingBlock: BETDEL_clean_sbu_0, # of connection points: 6
#     Node 11, Type 0, BuildingBlock: BETDEL_clean_sbu_0, # of connection points: 6
#     Node 12, Type 0, BuildingBlock: BETDEL_clean_sbu_0, # of connection points: 6
#     Node 13, Type 0, BuildingBlock: BETDEL_clean_sbu_0, # of connection points: 6
#     Node 14, Type 0, BuildingBlock: BETDEL_clean_sbu_0, # of connection points: 6
#     Node 15, Type 0, BuildingBlock: BETDEL_clean_sbu_0, # of connection points: 6
#     Edge 16, Type (0, 0), BuildingBlock: XUDNAN_clean_linker_2, # of connection points: 2
#     Edge 17, Type (0, 0), BuildingBlock: XUDNAN_clean_linker_2, # of connection points: 2
#     Edge 18, Type (0, 0), BuildingBlock: XUDNAN_clean_linker_2, # of connection points: 2
#     Edge 19, Type (0, 0), BuildingBlock: XUDNAN_clean_linker_2, # of connection points: 2
#     Edge 20, Type (0, 0), BuildingBlock: XUDNAN_clean_linker_2, # of connection points: 2
#     Edge 21, Type (0, 0), BuildingBlock: XUDNAN_clean_linker_2, # of connection points: 2
#     Edge 22, Type (0, 0), BuildingBlock: XUDNAN_clean_linker_2, # of connection points: 2
#     Edge 23, Type (0, 0), BuildingBlock: XUDNAN_clean_linker_2, # of connection points: 2
#     Edge 24, Type (0, 0), BuildingBlock: XUDNAN_clean_linker_2, # of connection points: 2
#     Edge 25, Type (0, 0), BuildingBlock: XUDNAN_clean_linker_2, # of connection points: 2
#     Edge 26, Type (0, 0), BuildingBlock: XUDNAN_clean_linker_2, # of connection points: 2
#     Edge 27, Type (0, 0), BuildingBlock: XUDNAN_clean_linker_2, # of connection points: 2
#     Edge 28, Type (0, 0), BuildingBlock: XUDNAN_clean_linker_2, # of connection points: 2
#     Edge 29, Type (0, 0), BuildingBlock: XUDNAN_clean_linker_2, # of connection points: 2
#     Edge 30, Type (0, 0), BuildingBlock: XUDNAN_clean_linker_2, # of connection points: 2
#     Edge 31, Type (0, 0), BuildingBlock: XUDNAN_clean_linker_2, # of connection points: 2
#     Edge 32, Type (0, 0), BuildingBlock: XUDNAN_clean_linker_2, # of connection points: 2
#     Edge 33, Type (0, 0), BuildingBlock: XUDNAN_clean_linker_2, # of connection points: 2
#     Edge 34, Type (0, 0), BuildingBlock: XUDNAN_clean_linker_2, # of connection points: 2
#     Edge 35, Type (0, 0), BuildingBlock: XUDNAN_clean_linker_2, # of connection points: 2
#     Edge 36, Type (0, 0), BuildingBlock: XUDNAN_clean_linker_2, # of connection points: 2
#     Edge 37, Type (0, 0), BuildingBlock: XUDNAN_clean_linker_2, # of connection points: 2
#     Edge 38, Type (0, 0), BuildingBlock: XUDNAN_clean_linker_2, # of connection points: 2
#     Edge 39, Type (0, 0), BuildingBlock: XUDNAN_clean_linker_2, # of connection points: 2
#     Edge 40, Type (0, 0), BuildingBlock: XUDNAN_clean_linker_2, # of connection points: 2
#     Edge 41, Type (0, 0), BuildingBlock: XUDNAN_clean_linker_2, # of connection points: 2
#     Edge 42, Type (0, 0), BuildingBlock: XUDNAN_clean_linker_2, # of connection points: 2
#     Edge 43, Type (0, 0), BuildingBlock: XUDNAN_clean_linker_2, # of connection points: 2
#     Edge 44, Type (0, 0), BuildingBlock: XUDNAN_clean_linker_2, # of connection points: 2
#     Edge 45, Type (0, 0), BuildingBlock: XUDNAN_clean_linker_2, # of connection points: 2
#     Edge 46, Type (0, 0), BuildingBlock: XUDNAN_clean_linker_2, # of connection points: 2
#     Edge 47, Type (0, 0), BuildingBlock: XUDNAN_clean_linker_2, # of connection points: 2
#     Edge 48, Type (0, 0), BuildingBlock: XUDNAN_clean_linker_2, # of connection points: 2
#     Edge 49, Type (0, 0), BuildingBlock: XUDNAN_clean_linker_2, # of connection points: 2
#     Edge 50, Type (0, 0), BuildingBlock: XUDNAN_clean_linker_2, # of connection points: 2
#     Edge 51, Type (0, 0), BuildingBlock: XUDNAN_clean_linker_2, # of connection points: 2
#     Edge 52, Type (0, 0), BuildingBlock: XUDNAN_clean_linker_2, # of connection points: 2
#     Edge 53, Type (0, 0), BuildingBlock: XUDNAN_clean_linker_2, # of connection points: 2
#     Edge 54, Type (0, 0), BuildingBlock: XUDNAN_clean_linker_2, # of connection points: 2
#     Edge 55, Type (0, 0), BuildingBlock: XUDNAN_clean_linker_2, # of connection points: 2
#     Edge 56, Type (0, 0), BuildingBlock: XUDNAN_clean_linker_2, # of connection points: 2
#     Edge 57, Type (0, 0), BuildingBlock: XUDNAN_clean_linker_2, # of connection points: 2
#     Edge 58, Type (0, 0), BuildingBlock: XUDNAN_clean_linker_2, # of connection points: 2
#     Edge 59, Type (0, 0), BuildingBlock: XUDNAN_clean_linker_2, # of connection points: 2
#     Edge 60, Type (0, 0), BuildingBlock: XUDNAN_clean_linker_2, # of connection points: 2
#     Edge 61, Type (0, 0), BuildingBlock: XUDNAN_clean_linker_2, # of connection points: 2
#     Edge 62, Type (0, 0), BuildingBlock: XUDNAN_clean_linker_2, # of connection points: 2
#     Edge 63, Type (0, 0), BuildingBlock: XUDNAN_clean_linker_2, # of connection points: 2
# Relax obj value: 0.474
# Max RMSD: 0.273
# Mean RMSD: 0.273
data_MOF--net-whz--node1-BETDEL_clean_sbu_0--edge1-XUDNAN_clean_linker_2
_symmetry_space_group_name_H-M    P1
_symmetry_Int_Tables_number       1
_symmetry_cell_setting            triclinic
loop_
_symmetry_equiv_pos_as_xyz
'x, y, z'
_cell_length_a     33.984266
_cell_length_b     33.957395
_cell_length_c     55.237101
_cell_angle_alpha  90.006861
_cell_angle_beta   90.191823
_cell_angle_gamma 90.198691
loop_
_atom_site_label
_atom_site_type_symbol
_atom_site_fract_x
_atom_site_fract_y
_atom_site_fract_z
_atom_type_partial_charge
Dy0 Dy 0.31012 0.17438 0.15669 0.0
C1 C 0.28987 0.13319 0.05774 0.0
C2 C 0.32633 0.19583 0.20288 0.0
Dy3 Dy 0.30821 0.14767 0.10676 0.0
O4 O 0.31877 0.21977 0.18525 0.0
O5 O 0.32509 0.15971 0.19524 0.0
O6 O 0.25582 0.20747 0.15145 0.0
O7 O 0.29696 0.20752 0.12284 0.0
C8 C 0.26424 0.22174 0.13039 0.0
C9 C 0.34369 0.09829 0.14026 0.0
O10 O 0.35862 0.19211 0.10449 0.0
O11 O 0.37189 0.18782 0.14508 0.0
O12 O 0.32238 0.12379 0.0689 0.0
O13 O 0.26722 0.14997 0.07359 0.0
O14 O 0.35859 0.1054 0.119 0.0
O15 O 0.31262 0.11701 0.14138 0.0
O16 O 0.2588 0.13511 0.16173 0.0
O17 O 0.24779 0.12543 0.12084 0.0
C18 C 0.38205 0.1997 0.12323 0.0
C19 C 0.23637 0.12174 0.14395 0.0
Dy20 Dy 0.6053 0.56274 0.40981 0.0
C21 C 0.63939 0.54291 0.30901 0.0
C22 C 0.58561 0.56876 0.45708 0.0
Dy23 Dy 0.6345 0.56328 0.35824 0.0
O24 O 0.56086 0.56876 0.43916 0.0
O25 O 0.62132 0.5672 0.44894 0.0
O26 O 0.57212 0.50873 0.40185 0.0
O27 O 0.57534 0.55214 0.37494 0.0
C28 C 0.55981 0.5191 0.38062 0.0
C29 C 0.6809 0.59968 0.3925 0.0
O30 O 0.59804 0.61978 0.35745 0.0
O31 O 0.59051 0.62488 0.39907 0.0
O32 O 0.60788 0.54425 0.32221 0.0
O33 O 0.66897 0.55344 0.32277 0.0
O34 O 0.6808 0.61036 0.36973 0.0
O35 O 0.66116 0.5689 0.39387 0.0
O36 O 0.64604 0.51203 0.41271 0.0
O37 O 0.65326 0.50155 0.37155 0.0
C38 C 0.5853 0.63914 0.37692 0.0
C39 C 0.65805 0.48984 0.39453 0.0
Dy40 Dy 0.22348 0.8457 0.65607 0.0
C41 C 0.25258 0.88753 0.5574 0.0
C42 C 0.20069 0.81937 0.69992 0.0
Dy43 Dy 0.23179 0.87991 0.60637 0.0
O44 O 0.19771 0.79968 0.67993 0.0
O45 O 0.21671 0.85352 0.69596 0.0
O46 O 0.27528 0.8087 0.65202 0.0
O47 O 0.24002 0.81841 0.62104 0.0
C48 C 0.27134 0.80179 0.62912 0.0
C49 C 0.19451 0.92603 0.64067 0.0
O50 O 0.17291 0.84898 0.60176 0.0
O51 O 0.16127 0.8399 0.64244 0.0
O52 O 0.25038 0.9164 0.57299 0.0
O53 O 0.24338 0.85536 0.56877 0.0
O54 O 0.18746 0.92903 0.61743 0.0
O55 O 0.22311 0.90361 0.64266 0.0
O56 O 0.27678 0.88284 0.66296 0.0
O57 O 0.2928 0.89225 0.62253 0.0
C58 C 0.14949 0.83756 0.61967 0.0
C59 C 0.30194 0.89457 0.64607 0.0
Dy60 Dy 0.92147 0.45964 0.90819 0.0
C61 C 0.88433 0.4909 0.80848 0.0
C62 C 0.93559 0.4412 0.9551 0.0
Dy63 Dy 0.89452 0.47224 0.8577 0.0
O64 O 0.96191 0.44174 0.93811 0.0
O65 O 0.90124 0.44899 0.94604 0.0
O66 O 0.95453 0.51549 0.90783 0.0
O67 O 0.95298 0.48266 0.87567 0.0
C68 C 0.96686 0.51365 0.88577 0.0
C69 C 0.83868 0.44442 0.8902 0.0
O70 O 0.931 0.41611 0.8527 0.0
O71 O 0.94515 0.40353 0.89308 0.0
O72 O 0.87758 0.45672 0.81853 0.0
O73 O 0.89673 0.51455 0.8254 0.0
O74 O 0.83147 0.46892 0.87265 0.0
O75 O 0.874 0.43455 0.88784 0.0
O76 O 0.87846 0.50871 0.91366 0.0
O77 O 0.88187 0.53148 0.87452 0.0
C78 C 0.94695 0.39351 0.86996 0.0
C79 C 0.87156 0.53645 0.89745 0.0
Dy80 Dy 0.72483 0.88255 0.93269 0.0
C81 C 0.70347 0.82419 0.83916 0.0
C82 C 0.7442 0.8986 0.98118 0.0
Dy83 Dy 0.72045 0.84996 0.88434 0.0
O84 O 0.71223 0.9093 0.9699 0.0
O85 O 0.76599 0.87991 0.96568 0.0
O86 O 0.67913 0.92898 0.91954 0.0
O87 O 0.72191 0.90917 0.89671 0.0
C88 C 0.6928 0.93094 0.89755 0.0
C89 C 0.7628 0.80314 0.91302 0.0
O90 O 0.77473 0.88501 0.87755 0.0
O91 O 0.78609 0.90005 0.91784 0.0
O92 O 0.71548 0.80227 0.85686 0.0
O93 O 0.70081 0.86055 0.84621 0.0
O94 O 0.77342 0.81596 0.89198 0.0
O95 O 0.73086 0.82013 0.91952 0.0
O96 O 0.67097 0.84312 0.93692 0.0
O97 O 0.658 0.83958 0.89627 0.0
C98 C 0.7979 0.89951 0.89471 0.0
C99 C 0.64702 0.83323 0.91882 0.0
Dy100 Dy 0.40148 0.47688 0.68343 0.0
C101 C 0.45533 0.44334 0.58973 0.0
C102 C 0.3955 0.49507 0.73302 0.0
Dy103 Dy 0.43358 0.45812 0.63611 0.0
O104 O 0.42742 0.49287 0.72024 0.0
O105 O 0.36607 0.48666 0.7186 0.0
O106 O 0.34085 0.4739 0.66387 0.0
O107 O 0.38436 0.43464 0.65511 0.0
C108 C 0.35031 0.4451 0.64943 0.0
C109 C 0.48887 0.4918 0.66467 0.0
O110 O 0.39803 0.51259 0.62715 0.0
O111 O 0.39359 0.53634 0.66619 0.0
O112 O 0.47318 0.43089 0.60891 0.0
O113 O 0.42463 0.46357 0.5959 0.0
O114 O 0.49372 0.4614 0.65108 0.0
O115 O 0.45295 0.50224 0.66357 0.0
O116 O 0.43591 0.41893 0.68981 0.0
O117 O 0.43343 0.39741 0.65056 0.0
C118 C 0.38869 0.54103 0.64254 0.0
C119 C 0.44271 0.39091 0.67335 0.0
Dy120 Dy 0.81483 0.1471 0.43265 0.0
C121 C 0.83339 0.20691 0.33811 0.0
C122 C 0.79506 0.13375 0.48147 0.0
Dy123 Dy 0.81663 0.17695 0.38228 0.0
O124 O 0.82877 0.12631 0.47125 0.0
O125 O 0.77204 0.14801 0.46479 0.0
O126 O 0.85921 0.09771 0.42177 0.0
O127 O 0.82117 0.11999 0.39698 0.0
C128 C 0.85052 0.0987 0.39876 0.0
C129 C 0.77236 0.22354 0.41007 0.0
O130 O 0.76694 0.13474 0.37702 0.0
O131 O 0.75426 0.12815 0.41806 0.0
O132 O 0.81844 0.17222 0.34183 0.0
O133 O 0.839 0.22476 0.3585 0.0
O134 O 0.7627 0.21003 0.38901 0.0
O135 O 0.80484 0.20787 0.41699 0.0
O136 O 0.86659 0.19001 0.43453 0.0
O137 O 0.87954 0.18405 0.39403 0.0
C138 C 0.74393 0.12289 0.39491 0.0
C139 C 0.89016 0.19636 0.41577 0.0
Dy140 Dy 0.13155 0.56446 0.18225 0.0
C141 C 0.0666 0.56624 0.0882 0.0
C142 C 0.14024 0.54732 0.23183 0.0
Dy143 Dy 0.102 0.55973 0.13197 0.0
O144 O 0.10838 0.55863 0.22082 0.0
O145 O 0.16822 0.54664 0.21572 0.0
O146 O 0.17659 0.61165 0.16916 0.0
O147 O 0.15932 0.5663 0.14681 0.0
C148 C 0.17927 0.59701 0.1473 0.0
C149 C 0.05624 0.51861 0.16224 0.0
O150 O 0.14457 0.51072 0.12879 0.0
O151 O 0.1476 0.50117 0.17022 0.0
O152 O 0.10217 0.55329 0.09153 0.0
O153 O 0.05165 0.57703 0.10862 0.0
O154 O 0.07 0.50592 0.14199 0.0
O155 O 0.0715 0.55218 0.16693 0.0
O156 O 0.09869 0.62314 0.18097 0.0
O157 O 0.09775 0.6248 0.13925 0.0
C158 C 0.15496 0.48903 0.1476 0.0
C159 C 0.09133 0.64217 0.16036 0.0
Dy160 Dy 0.81276 0.69242 0.65328 0.0
C161 C 0.79129 0.63457 0.55808 0.0
C162 C 0.82531 0.73169 0.69532 0.0
Dy163 Dy 0.81105 0.65202 0.60626 0.0
O164 O 0.81764 0.69436 0.69365 0.0
O165 O 0.82647 0.7472 0.67396 0.0
O166 O 0.75973 0.72464 0.64256 0.0
O167 O 0.80317 0.71567 0.6163 0.0
C168 C 0.77032 0.73264 0.62069 0.0
C169 C 0.84348 0.60844 0.64381 0.0
O170 O 0.86544 0.69001 0.60159 0.0
O171 O 0.87647 0.69767 0.6423 0.0
O172 O 0.82331 0.62384 0.56936 0.0
O173 O 0.76973 0.65373 0.57346 0.0
O174 O 0.85288 0.60369 0.62109 0.0
O175 O 0.81496 0.63152 0.64405 0.0
O176 O 0.75715 0.6586 0.65996 0.0
O177 O 0.75019 0.63582 0.62053 0.0
C178 C 0.88861 0.70138 0.6197 0.0
C179 C 0.73632 0.64051 0.6429 0.0
Dy180 Dy 0.09973 0.06391 0.90206 0.0
C181 C 0.15524 0.03855 0.80594 0.0
C182 C 0.06297 0.08259 0.94371 0.0
Dy183 Dy 0.13795 0.05932 0.85409 0.0
O184 O 0.04711 0.0839 0.92244 0.0
O185 O 0.09919 0.07073 0.94234 0.0
O186 O 0.06664 1.01025 0.8936 0.0
O187 O 0.07472 0.05163 0.86572 0.0
C188 C 0.05734 0.01942 0.87162 0.0
C189 C 0.18203 0.09477 0.89058 0.0
O190 O 0.09944 0.11318 0.84894 0.0
O191 O 0.09604 0.12687 0.88951 0.0
O192 O 0.16491 0.07133 0.81679 0.0
O193 O 0.13703 0.01674 0.82174 0.0
O194 O 0.1872 0.10215 0.86761 0.0
O195 O 0.15923 0.06617 0.89134 0.0
O196 O 0.1369 1.01128 0.91013 0.0
O197 O 0.15428 0.99939 0.87019 0.0
C198 C 0.0901 0.13756 0.8668 0.0
C199 C 0.15311 0.98842 0.89343 0.0
Dy200 Dy 0.71689 0.35392 0.15529 0.0
C201 C 0.73358 0.40507 0.05823 0.0
C202 C 0.71104 0.3295 0.2018 0.0
Dy203 Dy 0.71558 0.38708 0.1067 0.0
O204 O 0.71363 0.30647 0.18318 0.0
O205 O 0.70971 0.36588 0.19476 0.0
O206 O 0.76798 0.31833 0.14431 0.0
O207 O 0.72152 0.32464 0.11971 0.0
C208 C 0.7537 0.30635 0.12389 0.0
C209 C 0.6857 0.43412 0.14304 0.0
O210 O 0.6587 0.35138 0.1046 0.0
O211 O 0.65267 0.3477 0.14608 0.0
O212 O 0.70904 0.42391 0.07214 0.0
O213 O 0.74806 0.37625 0.0709 0.0
O214 O 0.66975 0.4314 0.12158 0.0
O215 O 0.71584 0.41339 0.14293 0.0
O216 O 0.7708 0.3896 0.15994 0.0
O217 O 0.77831 0.40432 0.11947 0.0
C218 C 0.6376 0.34276 0.12415 0.0
C219 C 0.7921 0.40431 0.14219 0.0
Dy220 Dy 0.43151 0.96968 0.40593 0.0
C221 C 0.39422 0.9999 0.3078 0.0
C222 C 0.46127 0.94568 0.44877 0.0
Dy223 Dy 0.40099 0.97476 0.35609 0.0
O224 O 0.42568 0.95883 0.44575 0.0
O225 O 0.48035 0.94662 0.42857 0.0
O226 O 0.46805 0.02175 0.40057 0.0
O227 O 0.46193 0.98201 0.37135 0.0
C228 C 0.47832 1.01406 0.37856 0.0
C229 C 0.35211 0.94136 0.39038 0.0
O230 O 0.43505 0.91714 0.35279 0.0
O231 O 0.43303 0.90654 0.39378 0.0
O232 O 0.36799 0.97912 0.3195 0.0
O233 O 0.42318 1.00666 0.32264 0.0
O234 O 0.35457 0.9279 0.36824 0.0
O235 O 0.37373 0.97078 0.39158 0.0
O236 O 0.39645 0.0238 0.41256 0.0
O237 O 0.38311 0.03537 0.37193 0.0
C238 C 0.4409 0.8938 0.37176 0.0
C239 C 0.38251 0.0469 0.3952 0.0
Dy240 Dy 0.22209 0.38708 0.43264 0.0
C241 C 0.20876 0.3131 0.34199 0.0
C242 C 0.24812 0.39807 0.48063 0.0
Dy243 Dy 0.22074 0.35207 0.38409 0.0
O244 O 0.2227 0.42042 0.46934 0.0
O245 O 0.2585 0.37064 0.46558 0.0
O246 O 0.1771 0.43355 0.41885 0.0
O247 O 0.21923 0.41152 0.396 0.0
C248 C 0.18988 0.4333 0.39653 0.0
C249 C 0.26233 0.30781 0.41494 0.0
O250 O 0.27346 0.38915 0.37731 0.0
O251 O 0.28282 0.40525 0.41765 0.0
O252 O 0.20412 0.29847 0.36339 0.0
O253 O 0.21844 0.3501 0.34355 0.0
O254 O 0.27409 0.31963 0.39398 0.0
O255 O 0.22955 0.3245 0.41993 0.0
O256 O 0.16479 0.35222 0.43536 0.0
O257 O 0.15668 0.35118 0.39401 0.0
C258 C 0.29534 0.40481 0.39469 0.0
C259 C 0.14257 0.34506 0.41598 0.0
Dy260 Dy 0.89435 0.96697 0.18495 0.0
C261 C 0.94064 0.98652 0.08792 0.0
C262 C 0.88506 0.98243 0.23451 0.0
Dy263 Dy 0.92151 0.98167 0.13512 0.0
O264 O 0.87433 0.95016 0.22332 0.0
O265 O 0.9007 1.00575 0.21853 0.0
O266 O 0.85028 0.92035 0.17029 0.0
O267 O 0.86553 0.9683 0.14954 0.0
C268 C 0.84818 0.93597 0.14871 0.0
C269 C 0.9686 0.01717 0.16722 0.0
O270 O 0.88253 0.03395 0.13638 0.0
O271 O 0.86497 0.02648 0.17658 0.0
O272 O 0.96572 0.98418 0.10557 0.0
O273 O 0.90494 0.98458 0.09599 0.0
O274 O 0.95236 0.03409 0.14879 0.0
O275 O 0.95378 0.98277 0.16984 0.0
O276 O 0.93673 0.91514 0.18179 0.0
O277 O 0.93847 0.91793 0.14005 0.0
C278 C 0.86426 0.04672 0.15585 0.0
C279 C 0.94733 0.89965 0.16062 0.0
Dy280 Dy 0.30829 0.64813 0.933 0.0
C281 C 0.31894 0.69601 0.83555 0.0
C282 C 0.28926 0.64219 0.98217 0.0
Dy283 Dy 0.3111 0.67649 0.88276 0.0
O284 O 0.29211 0.61263 0.96715 0.0
O285 O 0.29753 0.67408 0.97028 0.0
O286 O 0.35633 0.60332 0.92114 0.0
O287 O 0.31203 0.61907 0.89781 0.0
C288 C 0.34227 0.59878 0.89925 0.0
C289 C 0.26764 0.72438 0.91023 0.0
O290 O 0.25783 0.63814 0.87923 0.0
O291 O 0.24537 0.63454 0.92022 0.0
O292 O 0.3179 0.72074 0.85338 0.0
O293 O 0.31812 0.66027 0.84381 0.0
O294 O 0.25817 0.71175 0.88892 0.0
O295 O 0.29986 0.70827 0.91697 0.0
O296 O 0.3661 0.68075 0.93535 0.0
O297 O 0.37424 0.6892 0.8942 0.0
C298 C 0.23419 0.62867 0.89732 0.0
C299 C 0.38769 0.69262 0.91672 0.0
Dy300 Dy 0.63865 0.05901 0.68309 0.0
C301 C 0.5714 0.0604 0.58887 0.0
C302 C 0.64647 0.04078 0.73223 0.0
Dy303 Dy 0.59642 0.06708 0.63521 0.0
O304 O 0.67496 0.03975 0.71634 0.0
O305 O 0.61475 0.05221 0.7211 0.0
O306 O 0.68741 0.1017 0.6698 0.0
O307 O 0.65663 0.06776 0.64559 0.0
C308 C 0.68068 0.0956 0.64673 0.0
C309 C 0.54809 0.04429 0.67118 0.0
O310 O 0.6215 1.00609 0.63106 0.0
O311 O 0.65459 0.99931 0.66781 0.0
O312 O 0.54977 0.05538 0.60779 0.0
O313 O 0.60659 0.07083 0.59524 0.0
O314 O 0.54137 0.07304 0.65632 0.0
O315 O 0.58331 0.0328 0.66793 0.0
O316 O 0.60489 0.11674 0.68647 0.0
O317 O 0.59723 0.13054 0.64581 0.0
C318 C 0.64446 0.98572 0.646 0.0
C319 C 0.59467 0.14136 0.66877 0.0
H320 H 0.31782 0.26979 0.21978 0.0
H321 H 0.32372 0.14773 0.24228 0.0
H322 H 0.29122 0.16484 0.28083 0.0
H323 H 0.33032 0.31411 0.28216 0.0
H324 H 0.29683 0.35327 0.27451 0.0
H325 H 0.32745 0.3319 0.25146 0.0
H326 H 0.2647 0.31802 0.226 0.0
H327 H 0.23366 0.3372 0.24949 0.0
H328 H 0.22613 0.28774 0.23852 0.0
H329 H 0.24708 0.19277 0.31225 0.0
H330 H 0.20951 0.23328 0.34099 0.0
H331 H 0.23314 0.33726 0.2976 0.0
C332 C 0.31387 0.247 0.23328 0.0
C333 C 0.32228 0.20733 0.22815 0.0
C334 C 0.31675 0.17814 0.24601 0.0
C335 C 0.2982 0.18759 0.2678 0.0
C336 C 0.28648 0.22643 0.27127 0.0
C337 C 0.29545 0.25599 0.25498 0.0
C338 C 0.27764 0.29488 0.26227 0.0
C339 C 0.30998 0.32533 0.26795 0.0
C340 C 0.24883 0.31033 0.24292 0.0
C341 C 0.25618 0.28227 0.28481 0.0
C342 C 0.26142 0.24265 0.28958 0.0
C343 C 0.24337 0.22397 0.309 0.0
C344 C 0.22163 0.24709 0.32497 0.0
C345 C 0.21884 0.2883 0.32143 0.0
C346 C 0.23481 0.30578 0.30059 0.0
H347 H 0.43175 0.48617 0.55065 0.0
H348 H 0.52639 0.41311 0.57825 0.0
H349 H 0.57152 0.44145 0.54816 0.0
H350 H 0.46485 0.482 0.48548 0.0
H351 H 0.44955 0.53205 0.48019 0.0
H352 H 0.42329 0.50175 0.50153 0.0
H353 H 0.43454 0.55469 0.53453 0.0
H354 H 0.46215 0.58482 0.51381 0.0
H355 H 0.48403 0.56971 0.54208 0.0
H356 H 0.60861 0.48597 0.52124 0.0
H357 H 0.63225 0.52966 0.48881 0.0
H358 H 0.51334 0.5724 0.47757 0.0
C359 C 0.46145 0.47485 0.54956 0.0
C360 C 0.47592 0.44797 0.56679 0.0
C361 C 0.51495 0.43387 0.56513 0.0
C362 C 0.54089 0.45007 0.54832 0.0
C363 C 0.52677 0.47935 0.53306 0.0
C364 C 0.48764 0.49038 0.53269 0.0
C365 C 0.48042 0.52306 0.51466 0.0
C366 C 0.45291 0.50888 0.49424 0.0
C367 C 0.46434 0.56025 0.52703 0.0
C368 C 0.52188 0.52951 0.50568 0.0
C369 C 0.54818 0.50436 0.51681 0.0
C370 C 0.58831 0.50541 0.51203 0.0
C371 C 0.60157 0.53091 0.49397 0.0
C372 C 0.57451 0.55435 0.48092 0.0
C373 C 0.53454 0.5549 0.48752 0.0
H374 H 0.23509 0.84596 0.74081 0.0
H375 H 0.16796 0.74869 0.71069 0.0
H376 H 0.19105 0.70577 0.74373 0.0
H377 H 0.316 0.79718 0.75171 0.0
H378 H 0.33005 0.81938 0.78011 0.0
H379 H 0.3002 0.84641 0.75901 0.0
H380 H 0.2462 0.85663 0.79104 0.0
H381 H 0.27584 0.83092 0.81302 0.0
H382 H 0.22618 0.81479 0.80685 0.0
H383 H 0.23254 0.67087 0.77327 0.0
H384 H 0.27735 0.64879 0.80542 0.0
H385 H 0.32006 0.76822 0.81487 0.0
C386 C 0.22335 0.81634 0.74204 0.0
C387 C 0.2 0.8003 0.72343 0.0
C388 C 0.18587 0.76122 0.72503 0.0
C389 C 0.19904 0.73664 0.74357 0.0
C390 C 0.22563 0.75218 0.76025 0.0
C391 C 0.23655 0.79145 0.76024 0.0
C392 C 0.26859 0.79978 0.77856 0.0
C393 C 0.30588 0.81667 0.76661 0.0
C394 C 0.25331 0.82715 0.79858 0.0
C395 C 0.27544 0.75864 0.78786 0.0
C396 C 0.25031 0.73172 0.77711 0.0
C397 C 0.25206 0.69168 0.78208 0.0
C398 C 0.2785 0.67917 0.79982 0.0
C399 C 0.30277 0.70664 0.81205 0.0
C400 C 0.30218 0.74661 0.80543 0.0
H401 H 1.00758 0.43529 0.97583 0.0
H402 H 0.88693 0.46974 0.98973 0.0
H403 H 0.90821 0.50498 0.02632 0.0
H404 H 0.04176 0.43037 0.04115 0.0
H405 H 0.08879 0.45115 0.03305 0.0
H406 H 0.06254 0.42045 1.01179 0.0
H407 H 0.06727 0.47679 0.98019 0.0
H408 H 0.09166 0.50839 1.00168 0.0
H409 H 0.04679 0.5243 0.98728 0.0
H410 H 0.94307 0.54678 0.05587 0.0
H411 H 0.989 0.58189 0.08292 0.0
H412 H 0.08761 0.52327 0.04868 0.0
C413 C 0.98548 0.4485 0.98732 0.0
C414 C 0.94558 0.44908 0.98036 0.0
C415 C 0.91744 0.46771 0.99526 0.0
C416 C 0.92936 0.48844 1.01585 0.0
C417 C 0.96937 0.49013 0.02107 0.0
C418 C 0.99699 0.46986 1.00767 0.0
C419 C 0.03845 0.47982 1.01566 0.0
C420 C 0.05909 0.44328 0.02604 0.0
C421 C 0.06242 0.49842 0.99496 0.0
C422 C 0.02975 0.50965 0.03515 0.0
C423 C 0.98974 0.5152 0.03791 0.0
C424 C 0.97445 0.54225 0.05421 0.0
C425 C 1.00077 0.56245 0.0692 0.0
C426 C 0.04167 0.55509 0.06778 0.0
C427 C 0.05645 0.52955 0.04996 0.0
H428 H 0.72698 0.75315 0.82245 0.0
H429 H 0.69039 0.86928 0.79952 0.0
H430 H 0.72545 0.86037 0.76066 0.0
H431 H 0.81955 0.75438 0.80091 0.0
H432 H 0.82133 0.70446 0.78986 0.0
H433 H 0.78903 0.71688 0.81441 0.0
H434 H 0.72828 0.69059 0.79096 0.0
H435 H 0.76069 0.67571 0.76694 0.0
H436 H 0.71938 0.7072 0.76043 0.0
H437 H 0.77489 0.84366 0.72904 0.0
H438 H 0.81532 0.81076 0.69805 0.0
H439 H 0.81501 0.7036 0.7408 0.0
C440 C 0.72491 0.77599 0.80882 0.0
C441 C 0.70774 0.81268 0.81396 0.0
C442 C 0.70502 0.84178 0.79584 0.0
C443 C 0.72483 0.83693 0.77393 0.0
C444 C 0.74555 0.80211 0.7705 0.0
C445 C 0.74394 0.77128 0.78681 0.0
C446 C 0.76865 0.73687 0.77875 0.0
C447 C 0.80158 0.72765 0.79708 0.0
C448 C 0.7427 0.70045 0.77396 0.0
C449 C 0.78516 0.75363 0.75564 0.0
C450 C 0.77216 0.79159 0.7515 0.0
C451 C 0.78442 0.81358 0.73167 0.0
C452 C 0.8077 0.79487 0.71438 0.0
C453 C 0.81699 0.75453 0.71695 0.0
C454 C 0.80784 0.73442 0.73845 0.0
H455 H 0.71633 0.25523 0.21985 0.0
H456 H 0.74263 0.37757 0.23559 0.0
H457 H 0.78585 0.35753 0.2691 0.0
H458 H 0.71503 0.22241 0.28282 0.0
H459 H 0.73663 0.17553 0.2754 0.0
H460 H 0.70675 0.20075 0.25343 0.0
H461 H 0.76477 0.19651 0.22306 0.0
H462 H 0.79542 0.17309 0.24547 0.0
H463 H 0.81168 0.21786 0.23104 0.0
H464 H 0.82952 0.32484 0.29825 0.0
H465 H 0.85666 0.28191 0.32999 0.0
H466 H 0.80148 0.18049 0.29596 0.0
C467 C 0.7303 0.27771 0.23087 0.0
C468 C 0.72601 0.31797 0.22546 0.0
C469 C 0.7449 0.34671 0.23994 0.0
C470 C 0.77021 0.33555 0.25859 0.0
C471 C 0.77589 0.29555 0.26245 0.0
C472 C 0.75551 0.26705 0.24964 0.0
C473 C 0.76564 0.22614 0.25832 0.0
C474 C 0.72884 0.20498 0.26809 0.0
C475 C 0.78556 0.202 0.23827 0.0
C476 C 0.79441 0.23631 0.27829 0.0
C477 C 0.80077 0.27647 0.27979 0.0
C478 C 0.82481 0.29334 0.29738 0.0
C479 C 0.84034 0.26871 0.31517 0.0
C480 C 0.83077 0.22816 0.31531 0.0
C481 C 0.80957 0.21136 0.29596 0.0
H482 H 1.01392 0.99338 0.06986 0.0
H483 H 0.89106 0.0166 0.05387 0.0
H484 H 0.91049 0.05316 1.01713 0.0
H485 H 0.05065 0.08813 0.05077 0.0
H486 H 0.09523 0.06835 0.03809 0.0
H487 H 0.07193 0.04404 0.06325 0.0
H488 H 0.06769 0.97857 0.03918 0.0
H489 H 0.09242 1.0022 1.01439 0.0
H490 H 0.04549 0.97853 1.00948 0.0
H491 H 0.94315 0.08578 0.98231 0.0
H492 H 0.98631 0.10334 0.94813 0.0
H493 H 0.08737 0.06028 0.98818 0.0
C494 C 0.99112 1.00571 0.05841 0.0
C495 C 0.95109 1.00177 0.06422 0.0
C496 C 0.9219 0.01853 0.04917 0.0
C497 C 0.93267 0.03999 0.02864 0.0
C498 C 0.9726 0.0446 0.02387 0.0
C499 C 1.00133 0.02749 0.03813 0.0
C500 C 0.04204 0.0352 0.02851 0.0
C501 C 0.06638 0.06045 0.04621 0.0
C502 C 0.06312 0.99632 0.02252 0.0
C503 C 0.03164 0.05811 1.00604 0.0
C504 C 0.99152 0.06409 1.004 0.0
C505 C 0.97465 0.08182 0.9838 0.0
C506 C 0.99933 0.0918 0.96458 0.0
C507 C 0.04002 0.08342 0.96585 0.0
C508 C 0.05656 0.06804 0.98714 0.0
H509 H 0.43177 0.96555 0.49223 0.0
H510 H 0.53621 0.92171 0.45672 0.0
H511 H 0.57636 0.9419 0.49178 0.0
H512 H 0.46722 0.04774 0.51008 0.0
H513 H 0.44495 0.05194 0.53954 0.0
H514 H 0.42151 0.02275 0.51653 0.0
H515 H 0.42198 0.96083 0.54373 0.0
H516 H 0.44317 0.9903 0.56758 0.0
H517 H 0.46715 0.94563 0.5581 0.0
H518 H 0.60611 0.98328 0.52358 0.0
H519 H 0.62286 0.02916 0.55674 0.0
H520 H 0.49873 0.0461 0.5713 0.0
C521 C 0.46253 0.95777 0.4926 0.0
C522 C 0.48105 0.94233 0.47205 0.0
C523 C 0.52168 0.9336 0.47253 0.0
C524 C 0.54469 0.94504 0.4923 0.0
C525 C 0.52614 0.96417 0.51135 0.0
C526 C 0.48573 0.96909 0.51215 0.0
C527 C 0.47362 0.99518 0.53293 0.0
C528 C 0.45049 0.03153 0.52421 0.0
C529 C 0.45011 0.97155 0.55171 0.0
C530 C 0.51364 1.00656 0.54246 0.0
C531 C 0.54353 0.98817 0.52993 0.0
C532 C 0.58303 0.99701 0.53402 0.0
C533 C 0.59223 0.02384 0.55238 0.0
C534 C 0.56193 0.04129 0.5661 0.0
C535 C 0.52228 0.03312 0.56083 0.0
H536 H 0.15708 0.12106 0.93516 0.0
H537 H 0.26301 0.09287 0.89566 0.0
H538 H 0.302 0.10001 0.93358 0.0
H539 H 0.20437 0.19522 0.97585 0.0
H540 H 0.17383 0.18189 1.0012 0.0
H541 H 0.15529 0.17662 0.97076 0.0
H542 H 0.1399 0.10423 0.97945 0.0
H543 H 0.15946 0.10781 1.00965 0.0
H544 H 0.1784 0.07127 0.98909 0.0
H545 H 0.32861 0.10412 0.97779 0.0
H546 H 0.34118 0.11207 0.02172 0.0
H547 H 0.21858 0.14146 0.03266 0.0
C548 C 0.18861 0.11704 0.93441 0.0
C549 C 0.2069 0.10668 0.91214 0.0
C550 C 0.24826 0.10158 0.91215 0.0
C551 C 0.2706 0.10523 0.93379 0.0
C552 C 0.25151 0.11465 0.95551 0.0
C553 C 0.21144 0.1214 0.95581 0.0
C554 C 0.19797 0.1316 0.98144 0.0
C555 C 0.18192 0.17384 0.98236 0.0
C556 C 0.16714 0.10189 0.99046 0.0
C557 C 0.23629 0.12822 0.99578 0.0
C558 C 0.26688 0.11836 0.98048 0.0
C559 C 0.30479 0.11231 0.9897 0.0
C560 C 0.31169 0.11677 1.01485 0.0
C561 C 0.28113 0.1276 0.03098 0.0
C562 C 0.24284 0.13341 0.02103 0.0
H563 H 0.70342 0.52324 0.27905 0.0
H564 H 0.57631 0.53308 0.27901 0.0
H565 H 0.57413 0.51039 0.23656 0.0
H566 H 0.71835 0.55335 0.21519 0.0
H567 H 0.75738 0.51846 0.21032 0.0
H568 H 0.74934 0.53854 0.2401 0.0
H569 H 0.74325 0.46828 0.25726 0.0
H570 H 0.75044 0.44767 0.22757 0.0
H571 H 0.70699 0.43513 0.24479 0.0
H572 H 0.58562 0.48556 0.19297 0.0
H573 H 0.60965 0.45658 0.15445 0.0
H574 H 0.72859 0.4584 0.18292 0.0
C575 C 0.67518 0.52112 0.27001 0.0
C576 C 0.63999 0.53047 0.28266 0.0
C577 C 0.60375 0.52643 0.26999 0.0
C578 C 0.60219 0.51356 0.24569 0.0
C579 C 0.63717 0.50435 0.2338 0.0
C580 C 0.67304 0.50786 0.24558 0.0
C581 C 0.70607 0.49406 0.22898 0.0
C582 C 0.73447 0.52814 0.22332 0.0
C583 C 0.72802 0.45917 0.24032 0.0
C584 C 0.68323 0.48154 0.20633 0.0
C585 C 0.64353 0.4885 0.20927 0.0
C586 C 0.61671 0.48 0.1906 0.0
C587 C 0.6306 0.46365 0.16863 0.0
C588 C 0.671 0.45511 0.16538 0.0
C589 C 0.69747 0.46446 0.18467 0.0
H590 H 0.28227 0.9508 0.53001 0.0
H591 H 0.24834 0.82802 0.5243 0.0
H592 H 0.26669 0.82807 0.48106 0.0
H593 H 0.24973 0.98122 0.46952 0.0
H594 H 0.29111 1.01368 0.46487 0.0
H595 H 0.27344 1.00445 0.49507 0.0
H596 H 0.34305 0.98232 0.50789 0.0
H597 H 0.36118 0.99048 0.47769 0.0
H598 H 0.36643 0.94276 0.49172 0.0
H599 H 0.2903 0.84156 0.43698 0.0
H600 H 0.3191 0.86687 0.39855 0.0
H601 H 0.33875 0.97985 0.43307 0.0
C602 C 0.27836 0.92403 0.51962 0.0
C603 C 0.26347 0.88941 0.53086 0.0
C604 C 0.25947 0.85501 0.51639 0.0
C605 C 0.26981 0.85474 0.49163 0.0
C606 C 0.28447 0.88915 0.4811 0.0
C607 C 0.2888 0.92318 0.49472 0.0
C608 C 0.3068 0.95575 0.47929 0.0
C609 C 0.27858 0.99085 0.47706 0.0
C610 C 0.34675 0.96864 0.48977 0.0
C611 C 0.31178 0.93489 0.45501 0.0
C612 C 0.29856 0.89651 0.45625 0.0
C613 C 0.30062 0.87169 0.43593 0.0
C614 C 0.31687 0.8863 0.41401 0.0
C615 C 0.33125 0.92541 0.41245 0.0
C616 C 0.32816 0.94976 0.4334 0.0
H617 H 0.84571 0.63015 0.69171 0.0
H618 H 0.86717 0.52994 0.64557 0.0
H619 H 0.87928 0.48878 0.68214 0.0
H620 H 0.92083 0.60832 0.73651 0.0
H621 H 0.89198 0.62594 0.76158 0.0
H622 H 0.88494 0.6466 0.73186 0.0
H623 H 0.81075 0.62937 0.73357 0.0
H624 H 0.81769 0.60923 0.76344 0.0
H625 H 0.79585 0.57947 0.7399 0.0
H626 H 0.88385 0.45726 0.72554 0.0
H627 H 0.88871 0.44115 0.76926 0.0
H628 H 0.86955 0.56378 0.78705 0.0
C629 C 0.85292 0.59966 0.68923 0.0
C630 C 0.85507 0.58359 0.6655 0.0
C631 C 0.86544 0.54334 0.66332 0.0
C632 C 0.87212 0.51963 0.68414 0.0
C633 C 0.86904 0.53651 0.70728 0.0
C634 C 0.86033 0.57597 0.70981 0.0
C635 C 0.85964 0.58767 0.73651 0.0
C636 C 0.89124 0.61898 0.74193 0.0
C637 C 0.81855 0.6023 0.74378 0.0
C638 C 0.86926 0.54864 0.74884 0.0
C639 C 0.87391 0.51927 0.7317 0.0
C640 C 0.88078 0.48035 0.73891 0.0
C641 C 0.88337 0.47135 0.76392 0.0
C642 C 0.88 0.50105 0.78187 0.0
C643 C 0.87287 0.5403 0.77396 0.0
H644 H 0.87442 0.90731 0.10481 0.0
H645 H 0.76821 0.94007 0.14272 0.0
H646 H 0.7302 0.93333 0.10449 0.0
H647 H 0.85507 0.95658 0.04991 0.0
H648 H 0.87457 0.91915 0.03027 0.0
H649 H 0.89303 0.92384 0.06071 0.0
H650 H 0.87559 0.85102 0.06928 0.0
H651 H 0.85751 0.84595 0.03872 0.0
H652 H 0.82611 0.83374 0.06388 0.0
H653 H 0.70491 0.92976 0.06051 0.0
H654 H 0.69311 0.92222 1.01653 0.0
H655 H 0.81461 0.88754 1.00673 0.0
C656 C 0.84291 0.91189 0.1052 0.0
C657 C 0.82415 0.92329 0.12711 0.0
C658 C 0.7831 0.93018 0.12653 0.0
C659 C 0.76134 0.92681 0.10473 0.0
C660 C 0.78078 0.91611 0.0834 0.0
C661 C 0.82059 0.90791 0.08358 0.0
C662 C 0.83442 0.89709 0.05812 0.0
C663 C 0.8662 0.92589 0.04924 0.0
C664 C 0.84929 0.85441 0.05746 0.0
C665 C 0.79655 0.90153 0.04343 0.0
C666 C 0.76599 0.91274 0.05838 0.0
C667 C 0.72863 0.92046 0.04883 0.0
C668 C 0.7222 0.91628 0.02367 0.0
C669 C 0.75269 0.90409 1.00789 0.0
C670 C 0.79044 0.89661 1.01814 0.0
H671 H 0.30167 0.57038 0.85984 0.0
H672 H 0.42007 0.57982 0.88855 0.0
H673 H 0.44605 0.55229 0.85004 0.0
H674 H 0.31788 0.47655 0.82683 0.0
H675 H 0.28576 0.49032 0.80224 0.0
H676 H 0.27685 0.50883 0.83231 0.0
H677 H 0.27905 0.58014 0.81609 0.0
H678 H 0.28761 0.56174 0.786 0.0
H679 H 0.32164 0.59648 0.79922 0.0
H680 H 0.45907 0.52845 0.80603 0.0
H681 H 0.45808 0.50715 0.76327 0.0
H682 H 0.33062 0.51026 0.7633 0.0
C683 C 0.33311 0.56608 0.85823 0.0
C684 C 0.3588 0.57726 0.87755 0.0
C685 C 0.39967 0.57119 0.8744 0.0
C686 C 0.41465 0.55571 0.85241 0.0
C687 C 0.38848 0.54563 0.83364 0.0
C688 C 0.34842 0.54998 0.83659 0.0
C689 C 0.3264 0.53692 0.81375 0.0
C690 C 0.30017 0.50102 0.8191 0.0
C691 C 0.30221 0.57088 0.80315 0.0
C692 C 0.36018 0.52594 0.79698 0.0
C693 C 0.3958 0.531 0.80887 0.0
C694 C 0.43121 0.52413 0.79684 0.0
C695 C 0.43032 0.51202 0.77235 0.0
C696 C 0.39434 0.50662 0.75957 0.0
C697 C 0.35873 0.51361 0.77235 0.0
H698 H 0.72284 0.14245 0.50521 0.0
H699 H 0.84482 0.11246 0.51846 0.0
H700 H 0.83038 0.10398 0.56206 0.0
H701 H 0.70661 0.19599 0.56185 0.0
H702 H 0.6572 0.17766 0.56574 0.0
H703 H 0.67734 0.18294 0.53576 0.0
H704 H 0.66301 0.10932 0.52675 0.0
H705 H 0.6419 0.10474 0.55642 0.0
H706 H 0.68117 0.07236 0.54733 0.0
H707 H 0.80194 0.09885 0.60556 0.0
H708 H 0.76155 0.09175 0.64273 0.0
H709 H 0.6577 0.12348 0.60175 0.0
C710 C 0.74657 0.13421 0.51728 0.0
C711 C 0.78523 0.12828 0.50806 0.0
C712 C 0.81508 0.11726 0.52475 0.0
C713 C 0.80711 0.11247 0.54972 0.0
C714 C 0.76886 0.11857 0.55822 0.0
C715 C 0.73899 0.12898 0.5424 0.0
C716 C 0.70011 0.13244 0.55604 0.0
C717 C 0.68439 0.17478 0.55477 0.0
C718 C 0.66976 0.10293 0.54605 0.0
C719 C 0.71253 0.12187 0.58187 0.0
C720 C 0.75247 0.11456 0.58285 0.0
C721 C 0.77065 0.10453 0.60483 0.0
C722 C 0.7475 0.10091 0.62604 0.0
C723 C 0.70625 0.10685 0.62541 0.0
C724 C 0.68896 0.11807 0.60292 0.0
H725 H 0.22486 0.43784 0.35175 0.0
H726 H 0.12217 0.4786 0.39057 0.0
H727 H 0.09914 0.51255 0.35321 0.0
H728 H 0.24064 0.52586 0.31609 0.0
H729 H 0.25619 0.49931 0.28955 0.0
H730 H 0.2641 0.47858 0.31919 0.0
H731 H 0.22663 0.41566 0.30638 0.0
H732 H 0.21831 0.43603 0.27671 0.0
H733 H 0.17724 0.41952 0.29465 0.0
H734 H 0.08657 0.54076 0.31014 0.0
H735 H 0.0863 0.5617 0.26727 0.0
H736 H 0.19861 0.50439 0.25648 0.0
C737 C 0.1975 0.45397 0.35254 0.0
C738 C 0.17538 0.45539 0.37444 0.0
C739 C 0.13981 0.477 0.37432 0.0
C740 C 0.1265 0.49635 0.35304 0.0
C741 C 0.14906 0.49419 0.33182 0.0
C742 C 0.18398 0.47358 0.33153 0.0
C743 C 0.20298 0.47564 0.30652 0.0
C744 C 0.24337 0.49607 0.30793 0.0
C745 C 0.20648 0.43426 0.29541 0.0
C746 C 0.17341 0.50071 0.29256 0.0
C747 C 0.14238 0.5109 0.30749 0.0
C748 C 0.11095 0.53305 0.29853 0.0
C749 C 0.11107 0.54491 0.274 0.0
C750 C 0.14254 0.53528 0.25823 0.0
C751 C 0.17426 0.51288 0.26791 0.0
H752 H 0.72305 0.65319 0.53238 0.0
H753 H 0.83903 0.60291 0.52313 0.0
H754 H 0.82594 0.59481 0.47927 0.0
H755 H 0.67259 0.58927 0.49061 0.0
H756 H 0.63989 0.6274 0.47995 0.0
H757 H 0.66014 0.63 0.51001 0.0
H758 H 0.68711 0.69957 0.49977 0.0
H759 H 0.66803 0.69579 0.46936 0.0
H760 H 0.71957 0.70571 0.47429 0.0
H761 H 0.79955 0.59185 0.4354 0.0
H762 H 0.76009 0.58729 0.39762 0.0
H763 H 0.66006 0.63657 0.43507 0.0
C764 C 0.74575 0.64051 0.52113 0.0
C765 C 0.78227 0.62874 0.53148 0.0
C766 C 0.81089 0.61217 0.5159 0.0
C767 C 0.80373 0.60763 0.49081 0.0
C768 C 0.7676 0.61969 0.48116 0.0
C769 C 0.73893 0.63551 0.49594 0.0
C770 C 0.70196 0.64458 0.48122 0.0
C771 C 0.66653 0.62139 0.49102 0.0
C772 C 0.69369 0.68906 0.48117 0.0
C773 C 0.7138 0.63045 0.45601 0.0
C774 C 0.75217 0.61706 0.45625 0.0
C775 C 0.76959 0.60253 0.43511 0.0
C776 C 0.74709 0.6005 0.41353 0.0
C777 C 0.70727 0.61263 0.41296 0.0
C778 C 0.69073 0.62807 0.43462 0.0
H779 H 0.14061 0.96829 0.78082 0.0
H780 H 0.18414 0.08711 0.77038 0.0
H781 H 0.19331 0.07346 0.72673 0.0
H782 H 0.20774 0.9201 0.73905 0.0
H783 H 0.1704 0.88539 0.72959 0.0
H784 H 0.16827 0.90681 0.75925 0.0
H785 H 0.09681 0.92858 0.74843 0.0
H786 H 0.10161 0.90921 0.7182 0.0
H787 H 0.08889 0.96017 0.72265 0.0
H788 H 0.19764 0.04621 0.68288 0.0
H789 H 0.20363 1.00635 0.64537 0.0
H790 H 0.16032 0.90426 0.68398 0.0
C791 C 0.15206 0.99148 0.76936 0.0
C792 C 0.16156 0.02901 0.77938 0.0
C793 C 0.17659 0.0582 0.76347 0.0
C794 C 0.18177 0.0507 0.73847 0.0
C795 C 0.17201 1.01358 0.72916 0.0
C796 C 0.15778 0.98432 0.74424 0.0
C797 C 0.15084 0.9465 0.72985 0.0
C798 C 0.17588 0.91275 0.74005 0.0
C799 C 0.10692 0.93547 0.72979 0.0
C800 C 0.16434 0.95859 0.7045 0.0
C801 C 0.17557 0.99774 0.70435 0.0
C802 C 0.18878 1.01558 0.68294 0.0
C803 C 0.19167 0.99279 0.6615 0.0
C804 C 0.18187 0.9522 0.66135 0.0
C805 C 0.16767 0.93526 0.68328 0.0
H806 H 0.7822 0.36547 0.02521 0.0
H807 H 0.70874 0.46892 0.03217 0.0
H808 H 0.72562 0.48846 0.99035 0.0
H809 H 0.85856 0.40781 0.99148 0.0
H810 H 0.86697 0.36818 0.97046 0.0
H811 H 0.84768 0.35805 1.00018 0.0
H812 H 0.78676 0.32346 0.98329 0.0
H813 H 0.8058 0.33024 0.95315 0.0
H814 H 0.75715 0.34736 0.96053 0.0
H815 H 0.75065 0.4974 0.94708 0.0
H816 H 0.78364 0.49633 0.90726 0.0
H817 H 0.843 0.38833 0.92731 0.0
C818 C 0.76955 0.39217 1.0179 0.0
C819 C 0.74395 0.41565 0.03234 0.0
C820 C 0.72823 0.45031 0.02179 0.0
C821 C 0.7377 0.46167 0.9979 0.0
C822 C 0.76295 0.4381 0.98423 0.0
C823 C 0.77856 0.40389 0.9938 0.0
C824 C 0.80498 0.38394 0.97507 0.0
C825 C 0.84707 0.37922 0.98484 0.0
C826 C 0.78764 0.34387 0.96757 0.0
C827 C 0.80321 0.41314 0.95396 0.0
C828 C 0.77799 0.44368 0.95948 0.0
C829 C 0.77046 0.47359 0.94269 0.0
C830 C 0.78926 0.47264 0.91991 0.0
C831 C 0.81614 0.44237 0.91383 0.0
C832 C 0.8228 0.41204 0.93124 0.0
H833 H 0.30452 0.05795 0.17584 0.0
H834 H 0.4215 0.09646 0.15561 0.0
H835 H 0.44668 0.07428 0.19566 0.0
H836 H 0.30534 0.08356 0.23748 0.0
H837 H 0.27996 0.04025 0.24784 0.0
H838 H 0.2723 0.05776 0.21741 0.0
H839 H 0.29228 0.98923 0.20109 0.0
H840 H 0.30039 0.97214 0.2316 0.0
H841 H 0.33921 0.96873 0.20956 0.0
H842 H 0.45749 0.05359 0.23996 0.0
H843 H 0.45533 0.03034 0.28222 0.0
H844 H 0.33191 1.0005 0.27369 0.0
C845 C 0.33568 0.06091 0.17963 0.0
C846 C 0.36116 0.07868 0.16227 0.0
C847 C 0.40154 0.08236 0.16819 0.0
C848 C 0.41596 0.07011 0.19108 0.0
C849 C 0.38989 0.05339 0.20789 0.0
C850 C 0.35069 0.04791 0.20217 0.0
C851 C 0.32892 0.02841 0.22325 0.0
C852 C 0.2946 0.05404 0.23199 0.0
C853 C 0.31434 0.98718 0.21593 0.0
C854 C 0.36143 0.02572 0.24234 0.0
C855 C 0.3964 0.04012 0.23296 0.0
C856 C 0.43033 0.04188 0.24723 0.0
C857 C 0.42874 0.0286 0.2714 0.0
C858 C 0.39359 1.01322 0.28161 0.0
C859 C 0.35943 1.0117 0.26661 0.0
H860 H 0.29936 0.48589 0.6164 0.0
H861 H 0.36079 0.37551 0.62756 0.0
H862 H 0.34043 0.35316 0.58718 0.0
H863 H 0.21588 0.4429 0.58084 0.0
H864 H 0.21263 0.48381 0.56014 0.0
H865 H 0.23001 0.49159 0.59066 0.0
H866 H 0.29286 0.52337 0.57377 0.0
H867 H 0.27707 0.51465 0.5431 0.0
H868 H 0.3238 0.49594 0.55341 0.0
H869 H 0.31749 0.34252 0.5452 0.0
H870 H 0.29051 0.34286 0.50398 0.0
H871 H 0.24074 0.45865 0.51649 0.0
C872 C 0.30771 0.4567 0.61051 0.0
C873 C 0.33158 0.4323 0.62571 0.0
C874 C 0.3425 0.39478 0.61672 0.0
C875 C 0.33109 0.38173 0.5936 0.0
C876 C 0.3084 0.4063 0.57901 0.0
C877 C 0.29642 0.44292 0.58698 0.0
C878 C 0.27263 0.46315 0.56677 0.0
C879 C 0.23026 0.47082 0.5751 0.0
C880 C 0.29282 0.50155 0.5588 0.0
C881 C 0.27352 0.43225 0.54641 0.0
C882 C 0.29454 0.39985 0.55417 0.0
C883 C 0.30074 0.36765 0.53902 0.0
C884 C 0.28518 0.36819 0.51542 0.0
C885 C 0.26309 0.40053 0.50655 0.0
C886 C 0.25714 0.43319 0.52251 0.0
H887 H 0.89441 0.05412 0.25808 0.0
H888 H 0.8656 0.93183 0.27178 0.0
H889 H 0.85932 0.94654 0.31562 0.0
H890 H 0.95013 0.07178 0.31371 0.0
H891 H 0.93164 0.12104 0.31765 0.0
H892 H 0.93588 0.10051 0.28768 0.0
H893 H 0.86133 0.11279 0.27928 0.0
H894 H 0.85931 0.13558 0.30856 0.0
H895 H 0.82578 0.09601 0.3012 0.0
H896 H 0.85663 0.97589 0.35941 0.0
H897 H 0.85001 0.01732 0.3963 0.0
H898 H 0.87646 0.12099 0.35375 0.0
C899 C 0.88692 0.03033 0.2703 0.0
C900 C 0.88075 0.99157 0.26122 0.0
C901 C 0.8706 0.96165 0.27804 0.0
C902 C 0.86711 0.9698 0.30311 0.0
C903 C 0.87348 1.00827 0.31146 0.0
C904 C 0.88275 0.03813 0.29539 0.0
C905 C 0.88636 0.07734 0.30869 0.0
C906 C 0.92851 0.09362 0.30681 0.0
C907 C 0.85634 0.10713 0.29885 0.0
C908 C 0.87693 0.06527 0.33467 0.0
C909 C 0.87047 0.02512 0.33606 0.0
C910 C 0.86174 1.00731 0.35834 0.0
C911 C 0.85847 0.03104 0.37939 0.0
C912 C 0.86338 0.07245 0.37824 0.0
C913 C 0.87303 0.08941 0.35544 0.0
H914 H 0.19027 0.55791 0.10456 0.0
H915 H 0.21674 0.66931 0.13936 0.0
H916 H 0.24872 0.6923 0.10134 0.0
H917 H 0.28005 0.5496 0.07011 0.0
H918 H 0.25596 0.52773 0.04425 0.0
H919 H 0.23608 0.52051 0.07412 0.0
H920 H 0.16925 0.54779 0.05969 0.0
H921 H 0.18864 0.55568 0.02979 0.0
H922 H 0.16692 0.59602 0.04616 0.0
H923 H 0.2758 0.70343 0.05791 0.0
H924 H 0.29674 0.70151 1.01513 0.0
H925 H 0.25379 0.58161 1.00899 0.0
C926 C 0.20287 0.58717 0.1044 0.0
C927 C 0.20087 0.61177 0.12526 0.0
C928 C 0.21796 0.64978 0.12389 0.0
C929 C 0.2361 0.66305 0.10225 0.0
C930 C 0.23719 0.63797 0.08203 0.0
C931 C 0.22111 0.60067 0.08307 0.0
C932 C 0.2257 0.57923 0.05898 0.0
C933 C 0.25095 0.54207 0.06205 0.0
C934 C 0.18522 0.5691 0.04801 0.0
C935 C 0.24695 0.6102 0.04392 0.0
C936 C 0.25315 0.64396 0.05753 0.0
C937 C 0.27123 0.67697 0.04733 0.0
C938 C 0.28309 0.67557 0.02288 0.0
C939 C 0.2774 0.64133 1.00849 0.0
C940 C 0.25914 0.60811 1.0194 0.0
H941 H 0.71019 1.01502 0.7609 0.0
H942 H 0.58518 0.03952 0.76379 0.0
H943 H 0.58359 0.0183 0.80647 0.0
H944 H 0.70902 0.93117 0.79398 0.0
H945 H 0.75203 0.93683 0.81298 0.0
H946 H 0.74975 0.96026 0.78374 0.0
H947 H 0.75942 0.02959 0.79955 0.0
H948 H 0.7676 1.00889 0.82919 0.0
H949 H 0.73112 0.04672 0.82497 0.0
H950 H 0.59506 0.99247 0.84977 0.0
H951 H 0.61842 0.96131 0.88794 0.0
H952 H 0.73507 0.95138 0.85714 0.0
C953 C 0.6826 0.01637 0.7706 0.0
C954 C 0.64776 0.02918 0.75866 0.0
C955 C 0.61234 0.03005 0.77224 0.0
C956 C 0.61112 0.01807 0.79668 0.0
C957 C 0.64569 1.00537 0.80788 0.0
C958 C 0.68091 1.00476 0.79532 0.0
C959 C 0.71354 0.98851 0.81147 0.0
C960 C 0.73226 0.95197 0.79993 0.0
C961 C 0.74477 0.02033 0.8166 0.0
C962 C 0.69081 0.97835 0.83451 0.0
C963 C 0.65191 0.98934 0.83235 0.0
C964 C 0.62553 0.9838 0.85157 0.0
C965 C 0.63904 0.96623 0.87334 0.0
C966 C 0.67853 0.95372 0.87578 0.0
C967 C 0.70458 0.96035 0.85598 0.0
H968 H 0.45131 0.19867 0.09474 0.0
H969 H 0.38979 0.26513 0.14986 0.0
H970 H 0.44589 0.3108 0.15312 0.0
H971 H 0.54624 0.20609 0.12251 0.0
H972 H 0.57375 0.21153 0.09486 0.0
H973 H 0.52743 0.18557 0.09466 0.0
H974 H 0.50136 0.23222 0.06131 0.0
H975 H 0.54768 0.25831 0.06139 0.0
H976 H 0.50245 0.28469 0.06625 0.0
H977 H 0.5094 0.34644 0.15349 0.0
H978 H 0.57761 0.37063 0.15076 0.0
H979 H 0.60219 0.2839 0.09525 0.0
C980 C 0.44942 0.22343 0.10701 0.0
C981 C 0.4156 0.22853 0.12185 0.0
C982 C 0.41498 0.26068 0.1382 0.0
C983 C 0.44682 0.28689 0.14019 0.0
C984 C 0.47983 0.2809 0.12579 0.0
C985 C 0.48161 0.25012 0.10944 0.0
C986 C 0.52211 0.24971 0.09732 0.0
C987 C 0.54365 0.21091 0.10266 0.0
C988 C 0.51816 0.25664 0.06993 0.0
C989 C 0.54265 0.28459 0.10968 0.0
C990 C 0.51729 0.30205 0.12595 0.0
C991 C 0.52934 0.33332 0.14059 0.0
C992 C 0.56829 0.34693 0.1389 0.0
C993 C 0.59534 0.32982 0.12256 0.0
C994 C 0.58206 0.29837 0.10748 0.0
H995 H 0.59233 0.71116 0.35074 0.0
H996 H 0.51557 0.6459 0.39898 0.0
H997 H 0.46902 0.70108 0.39931 0.0
H998 H 0.57719 0.80518 0.37973 0.0
H999 H 0.57777 0.83396 0.35231 0.0
H1000 H 0.60434 0.78819 0.35378 0.0
H1001 H 0.56649 0.76297 0.31613 0.0
H1002 H 0.53969 0.80866 0.31462 0.0
H1003 H 0.51344 0.76253 0.31631 0.0
H1004 H 0.43173 0.76334 0.39684 0.0
H1005 H 0.4071 0.83116 0.39318 0.0
H1006 H 0.50577 0.86112 0.34706 0.0
C1007 C 0.5654 0.70838 0.36101 0.0
C1008 C 0.55766 0.67363 0.37474 0.0
C1009 C 0.52239 0.67184 0.38834 0.0
C1010 C 0.49553 0.70313 0.38858 0.0
C1011 C 0.50398 0.73694 0.37527 0.0
C1012 C 0.53807 0.74015 0.3618 0.0
C1013 C 0.54041 0.78136 0.3505 0.0
C1014 C 0.57711 0.80348 0.35962 0.0
C1015 C 0.53999 0.77871 0.32273 0.0
C1016 C 0.50262 0.80053 0.35991 0.0
C1017 C 0.48212 0.77387 0.374 0.0
C1018 C 0.44735 0.78431 0.38565 0.0
C1019 C 0.43343 0.82305 0.38339 0.0
C1020 C 0.45376 0.85158 0.36946 0.0
C1021 C 0.48876 0.83985 0.35725 0.0
H1022 H 0.94414 0.7298 0.65252 0.0
H1023 H 0.92234 0.71756 0.57544 0.0
H1024 H 0.9851 0.75186 0.56695 0.0
H1025 H 0.98774 0.82654 0.65014 0.0
H1026 H 0.02374 0.81673 0.67339 0.0
H1027 H 0.97736 0.79086 0.67345 0.0
H1028 H 1.01397 0.72415 0.67333 0.0
H1029 H 0.06045 0.74982 0.67341 0.0
H1030 H 0.04967 0.71427 0.65005 0.0
H1031 H 0.0513 0.78906 0.56684 0.0
H1032 H 0.11469 0.82262 0.57524 0.0
H1033 H 0.09372 0.81048 0.65233 0.0
C1034 C 0.95255 0.73408 0.63381 0.0
C1035 C 0.92783 0.72062 0.61466 0.0
C1036 C 0.94039 0.72725 0.59051 0.0
C1037 C 0.97613 0.7469 0.58548 0.0
C1038 C 0.99954 0.75999 0.60474 0.0
C1039 C 0.98828 0.75364 0.62845 0.0
C1040 C 0.01882 0.77049 0.64589 0.0
C1041 C 1.00083 0.80309 0.66165 0.0
C1042 C 0.03679 0.73773 0.6616 0.0
C1043 C 0.04902 0.78732 0.62835 0.0
C1044 C 0.03734 0.78109 0.60467 0.0
C1045 C 0.06058 0.794 0.58536 0.0
C1046 C 0.09666 0.81324 0.59032 0.0
C1047 C 0.10966 0.81961 0.61445 0.0
C1048 C 0.08499 0.80647 0.63363 0.0
H1049 H 0.98051 0.33969 0.9013 0.0
H1050 H 0.9616 0.36099 0.82471 0.0
H1051 H 0.99697 0.29909 0.81524 0.0
H1052 H 0.07795 0.29931 0.89643 0.0
H1053 H 0.07048 0.26351 0.92008 0.0
H1054 H 0.04386 0.30928 0.92058 0.0
H1055 H 0.97794 0.27095 0.92238 0.0
H1056 H 1.00435 0.22508 0.92195 0.0
H1057 H 0.96697 0.23463 0.8995 0.0
H1058 H 0.03538 0.2329 0.81449 0.0
H1059 H 0.07065 0.17046 0.8225 0.0
H1060 H 0.06402 0.19324 0.89964 0.0
C1061 C 0.98368 0.33157 0.88246 0.0
C1062 C 0.96798 0.35575 0.86376 0.0
C1063 C 0.9731 0.34337 0.83944 0.0
C1064 C 0.99329 0.30811 0.83389 0.0
C1065 C 1.00839 0.28516 0.8528 0.0
C1066 C 1.00366 0.29653 0.87663 0.0
C1067 C 0.02225 0.26677 0.89376 0.0
C1068 C 0.05561 0.28586 0.90858 0.0
C1069 C 0.99102 0.24826 0.91037 0.0
C1070 C 0.03826 0.23671 0.87596 0.0
C1071 C 0.03009 0.24775 0.85238 0.0
C1072 C 0.04185 0.22423 0.83293 0.0
C1073 C 0.06204 0.18868 0.83766 0.0
C1074 C 0.07053 0.17653 0.86171 0.0
C1075 C 0.05841 0.20136 0.881 0.0
H1076 H 0.59079 0.80792 0.88547 0.0
H1077 H 0.61481 0.81126 0.96264 0.0
H1078 H 0.55255 0.77542 0.97021 0.0
H1079 H 0.48509 0.82189 0.88969 0.0
H1080 H 0.47388 0.78901 0.86497 0.0
H1081 H 0.52013 0.81509 0.86563 0.0
H1082 H 0.55734 0.74899 0.86219 0.0
H1083 H 0.51121 0.72269 0.86163 0.0
H1084 H 0.54798 0.7106 0.88399 0.0
H1085 H 0.48714 0.7379 0.9694 0.0
H1086 H 0.42426 0.70432 0.96061 0.0
H1087 H 0.44143 0.72503 0.88382 0.0
C1088 C 0.58299 0.80133 0.90402 0.0
C1089 C 0.60821 0.81277 0.92348 0.0
C1090 C 0.59641 0.80318 0.94738 0.0
C1091 C 0.56095 0.78265 0.95186 0.0
C1092 C 0.53706 0.77166 0.9323 0.0
C1093 C 0.54754 0.78083 0.90883 0.0
C1094 C 0.51653 0.76566 0.89103 0.0
C1095 C 0.4978 0.79996 0.877 0.0
C1096 C 0.53434 0.73518 0.87369 0.0
C1097 C 0.48694 0.74648 0.9081 0.0
C1098 C 0.49946 0.75023 0.93184 0.0
C1099 C 0.4772 0.73493 0.95086 0.0
C1100 C 0.4413 0.7157 0.94562 0.0
C1101 C 0.42731 0.71161 0.92148 0.0
C1102 C 0.45092 0.72728 0.9025 0.0
H1103 H 0.46566 0.33367 0.64139 0.0
H1104 H 0.47004 0.36298 0.7178 0.0
H1105 H 0.5101 0.30302 0.72529 0.0
H1106 H 0.45922 0.2281 0.64768 0.0
H1107 H 0.48983 0.21899 0.62171 0.0
H1108 H 0.46047 0.26297 0.62308 0.0
H1109 H 0.52299 0.30538 0.61644 0.0
H1110 H 0.55262 0.26156 0.61527 0.0
H1111 H 0.56432 0.29993 0.63669 0.0
H1112 H 0.55132 0.23822 0.72367 0.0
H1113 H 0.58734 0.17713 0.71351 0.0
H1114 H 0.55706 0.19312 0.63782 0.0
C1115 C 0.4745 0.32752 0.65986 0.0
C1116 C 0.46409 0.35328 0.67907 0.0
C1117 C 0.4771 0.34381 0.70278 0.0
C1118 C 0.50008 0.30979 0.70716 0.0
C1119 C 0.51017 0.28546 0.68764 0.0
C1120 C 0.49761 0.29411 0.66445 0.0
C1121 C 0.51284 0.26417 0.64634 0.0
C1122 C 0.47855 0.24226 0.63398 0.0
C1123 C 0.53979 0.28395 0.62758 0.0
C1124 C 0.53598 0.23696 0.66284 0.0
C1125 C 0.53413 0.24954 0.68663 0.0
C1126 C 0.55289 0.22843 0.70506 0.0
C1127 C 0.57347 0.19366 0.69908 0.0
C1128 C 0.57558 0.18007 0.6748 0.0
C1129 C 0.55665 0.20256 0.65654 0.0
H1130 H 0.10863 0.2853 0.44464 0.0
H1131 H 0.08151 0.37271 0.38989 0.0
H1132 H 1.014 0.3467 0.38669 0.0
H1133 H 0.05542 0.20703 0.41673 0.0
H1134 H 0.0371 0.18521 0.44423 0.0
H1135 H 0.08245 0.21283 0.44465 0.0
H1136 H 0.05482 0.25807 0.47815 0.0
H1137 H 1.00941 0.23044 0.47792 0.0
H1138 H 1.0087 0.28298 0.47329 0.0
H1139 H 0.95177 0.30881 0.38613 0.0
H1140 H 0.89688 0.26167 0.38892 0.0
H1141 H 0.95988 0.19636 0.44419 0.0
C1142 C 0.08803 0.29962 0.43255 0.0
C1143 C 0.10045 0.33173 0.41777 0.0
C1144 C 0.07285 0.34855 0.40155 0.0
C1145 C 0.0343 0.33388 0.39958 0.0
C1146 C 0.02317 0.30189 0.41384 0.0
C1147 C 0.04896 0.28488 0.43014 0.0
C1148 C 0.0294 0.24912 0.44209 0.0
C1149 C 0.05247 0.21131 0.43659 0.0
C1150 C 0.02535 0.25554 0.4695 0.0
C1151 C 0.98901 0.24854 0.42969 0.0
C1152 C 0.9864 0.27954 0.41354 0.0
C1153 C 0.95333 0.28474 0.39893 0.0
C1154 C 0.9222 0.25764 0.40063 0.0
C1155 C 0.92356 0.22543 0.4169 0.0
C1156 C 0.95747 0.22106 0.43189 0.0
H1157 H 0.04448 0.68499 0.19392 0.0
H1158 H 0.10288 0.69483 0.12435 0.0
H1159 H 0.07393 0.7601 0.1184 0.0
H1160 H 0.95458 0.73241 0.17573 0.0
H1161 H 0.94696 0.75907 0.20353 0.0
H1162 H 0.97382 0.7134 0.20383 0.0
H1163 H 0.03297 0.74825 0.22424 0.0
H1164 H 1.00619 0.79401 0.22413 0.0
H1165 H 0.05404 0.79138 0.21026 0.0
H1166 H 0.03616 0.82185 0.11763 0.0
H1167 H 0.99429 0.8796 0.12313 0.0
H1168 H 0.95865 0.83607 0.19374 0.0
C1169 C 0.05176 0.70127 0.17769 0.0
C1170 C 0.07636 0.68412 0.1596 0.0
C1171 C 0.08428 0.70658 0.13849 0.0
C1172 C 0.06788 0.744 0.13488 0.0
C1173 C 0.04325 0.75957 0.15254 0.0
C1174 C 0.03532 0.73936 0.17368 0.0
C1175 C 1.0068 0.76353 0.18922 0.0
C1176 C 0.96825 0.74073 0.19332 0.0
C1177 C 0.02616 0.77497 0.21341 0.0
C1178 C 0.99988 0.79997 0.17333 0.0
C1179 C 0.02137 0.79653 0.15226 0.0
C1180 C 0.01944 0.82499 0.13416 0.0
C1181 C 0.99516 0.85787 0.13748 0.0
C1182 C 0.97269 0.8631 0.15887 0.0
C1183 C 0.97545 0.83351 0.17721 0.0
H1184 H 0.20633 0.25979 0.15468 0.0
H1185 H 0.29038 0.27705 0.09663 0.0
H1186 H 0.27134 0.34773 0.09471 0.0
H1187 H 0.13149 0.32831 0.13544 0.0
H1188 H 0.12144 0.34433 0.16591 0.0
H1189 H 0.13883 0.29508 0.16049 0.0
H1190 H 0.1967 0.30725 0.19028 0.0
H1191 H 0.17982 0.3567 0.19556 0.0
H1192 H 0.22938 0.34835 0.18531 0.0
H1193 H 0.24295 0.4174 0.1003 0.0
H1194 H 0.20954 0.4787 0.11253 0.0
H1195 H 0.14954 0.41604 0.17002 0.0
C1196 C 0.22052 0.27807 0.1412 0.0
C1197 C 0.24976 0.26252 0.12557 0.0
C1198 C 0.26761 0.28796 0.10851 0.0
C1199 C 0.25711 0.32821 0.10748 0.0
C1200 C 0.22921 0.34263 0.12387 0.0
C1201 C 0.21131 0.31815 0.14044 0.0
C1202 C 0.18417 0.34079 0.15721 0.0
C1203 C 0.14145 0.32626 0.15459 0.0
C1204 C 0.19837 0.3381 0.18364 0.0
C1205 C 0.18901 0.38217 0.14741 0.0
C1206 C 0.21487 0.38258 0.12805 0.0
C1207 C 0.22295 0.41723 0.11551 0.0
C1208 C 0.20381 0.45196 0.12264 0.0
C1209 C 0.17725 0.45231 0.14243 0.0
C1210 C 0.17023 0.41691 0.15516 0.0
H1211 H 0.34962 0.4447 0.42342 0.0
H1212 H 0.32712 0.40811 0.3493 0.0
H1213 H 0.38937 0.4386 0.33648 0.0
H1214 H 0.39566 0.53919 0.40857 0.0
H1215 H 0.43167 0.53569 0.43251 0.0
H1216 H 0.38418 0.51263 0.43593 0.0
H1217 H 0.41779 0.44603 0.44448 0.0
H1218 H 0.46556 0.46827 0.44084 0.0
H1219 H 0.45194 0.42619 0.42277 0.0
H1220 H 0.45732 0.47028 0.33184 0.0
H1221 H 0.52479 0.49808 0.33707 0.0
H1222 H 0.50096 0.51574 0.41336 0.0
C1223 C 0.35761 0.44332 0.40448 0.0
C1224 C 0.33317 0.42389 0.38748 0.0
C1225 C 0.34508 0.42274 0.36283 0.0
C1226 C 0.38048 0.44015 0.35525 0.0
C1227 C 0.40391 0.45903 0.37242 0.0
C1228 C 0.39291 0.46077 0.39653 0.0
C1229 C 0.4241 0.48149 0.41151 0.0
C1230 C 0.40792 0.51951 0.42279 0.0
C1231 C 0.44082 0.45383 0.43105 0.0
C1232 C 0.45442 0.49048 0.39217 0.0
C1233 C 0.44238 0.47758 0.36966 0.0
C1234 C 0.46686 0.48093 0.34937 0.0
C1235 C 0.505 0.49694 0.35239 0.0
C1236 C 0.51806 0.50918 0.3755 0.0
C1237 C 0.49183 0.50676 0.39537 0.0
H1238 H 0.33689 0.76902 0.64709 0.0
H1239 H 0.24655 0.74919 0.59287 0.0
H1240 H 0.27153 0.68086 0.58713 0.0
H1241 H 0.41486 0.70493 0.62302 0.0
H1242 H 0.42843 0.68877 0.65298 0.0
H1243 H 0.40875 0.73745 0.64852 0.0
H1244 H 0.35453 0.72266 0.68013 0.0
H1245 H 0.37356 0.67383 0.68445 0.0
H1246 H 0.32279 0.68056 0.67589 0.0
H1247 H 0.30502 0.61143 0.59054 0.0
H1248 H 0.33847 0.55029 0.60403 0.0
H1249 H 0.39911 0.61591 0.6601 0.0
C1250 C 0.32291 0.75083 0.6334 0.0
C1251 C 0.28998 0.7648 0.62018 0.0
C1252 C 0.27227 0.73959 0.60284 0.0
C1253 C 0.28617 0.70059 0.59967 0.0
C1254 C 0.31748 0.68724 0.61413 0.0
C1255 C 0.33544 0.71195 0.63069 0.0
C1256 C 0.36488 0.69017 0.64639 0.0
C1257 C 0.40671 0.70629 0.64248 0.0
C1258 C 0.35322 0.69191 0.67329 0.0
C1259 C 0.36068 0.6489 0.63644 0.0
C1260 C 0.334 0.64771 0.61743 0.0
C1261 C 0.32582 0.61238 0.60541 0.0
C1262 C 0.34497 0.57774 0.61317 0.0
C1263 C 0.37113 0.57827 0.63323 0.0
C1264 C 0.37906 0.61448 0.64484 0.0
H1265 H 1.00961 0.56179 0.91544 0.0
H1266 H 1.01435 0.5048 0.8452 0.0
H1267 H 0.08291 0.52938 0.84016 0.0
H1268 H 0.06911 0.64764 0.9018 0.0
H1269 H 0.09268 0.6476 0.93109 0.0
H1270 H 0.04341 0.62856 0.92781 0.0
H1271 H 0.06551 0.56254 0.94679 0.0
H1272 H 0.11494 0.58111 0.94996 0.0
H1273 H 0.10597 0.53602 0.93359 0.0
H1274 H 0.15212 0.55955 0.8438 0.0
H1275 H 0.21514 0.59046 0.85542 0.0
H1276 H 0.16599 0.62334 0.92492 0.0
C1277 C 0.02465 0.55477 0.89874 0.0
C1278 C 1.00622 0.53148 0.88054 0.0
C1279 C 0.02752 0.52282 0.85924 0.0
C1280 C 0.06655 0.53657 0.85633 0.0
C1281 C 0.084 0.55856 0.875 0.0
C1282 C 0.0636 0.56746 0.89582 0.0
C1283 C 0.08932 0.58958 0.91388 0.0
C1284 C 0.07263 0.63079 0.91893 0.0
C1285 C 0.09423 0.56589 0.93744 0.0
C1286 C 0.12769 0.59202 0.90003 0.0
C1287 C 0.12391 0.57426 0.87755 0.0
C1288 C 0.15522 0.5734 0.86135 0.0
C1289 C 0.191 0.59119 0.86817 0.0
C1290 C 0.19579 0.6094 0.89117 0.0
C1291 C 0.16355 0.60947 0.90733 0.0
H1292 H 0.77666 0.74786 0.87887 0.0
H1293 H 0.77073 0.76244 0.9568 0.0
H1294 H 0.79497 0.69354 0.9618 0.0
H1295 H 0.74855 0.64476 0.87564 0.0
H1296 H 0.78215 0.63554 0.85111 0.0
H1297 H 0.7605 0.68354 0.8546 0.0
H1298 H 0.83027 0.7148 0.85551 0.0
H1299 H 0.85189 0.66685 0.85221 0.0
H1300 H 0.86573 0.69771 0.87742 0.0
H1301 H 0.82471 0.62305 0.95705 0.0
H1302 H 0.85544 0.56067 0.94394 0.0
H1303 H 0.84354 0.59665 0.86892 0.0
C1304 C 0.78 0.7368 0.89716 0.0
C1305 C 0.77188 0.76083 0.91754 0.0
C1306 C 0.77645 0.7446 0.94096 0.0
C1307 C 0.79038 0.70558 0.94388 0.0
C1308 C 0.79932 0.68334 0.92318 0.0
C1309 C 0.79395 0.69863 0.90029 0.0
C1310 C 0.80733 0.67046 0.88074 0.0
C1311 C 0.77256 0.65782 0.86458 0.0
C1312 C 0.84079 0.68854 0.86559 0.0
C1313 C 0.8219 0.63664 0.89606 0.0
C1314 C 0.81676 0.64422 0.92049 0.0
C1315 C 0.82864 0.61705 0.93797 0.0
C1316 C 0.84617 0.58163 0.9303 0.0
C1317 C 0.85218 0.57366 0.90534 0.0
C1318 C 0.83961 0.6017 0.88812 0.0
H1319 H 0.70246 0.57044 0.62888 0.0
H1320 H 0.68132 0.67479 0.67196 0.0
H1321 H 0.61552 0.64894 0.68319 0.0
H1322 H 0.60405 0.55489 0.60696 0.0
H1323 H 0.60637 0.50207 0.60976 0.0
H1324 H 0.65063 0.52998 0.60446 0.0
H1325 H 0.6823 0.49918 0.64278 0.0
H1326 H 0.63802 0.47134 0.64824 0.0
H1327 H 0.65749 0.50328 0.67146 0.0
H1328 H 0.54902 0.61158 0.68787 0.0
H1329 H 0.49252 0.56459 0.68783 0.0
H1330 H 0.56206 0.4828 0.64557 0.0
C1331 C 0.68382 0.58794 0.64052 0.0
C1332 C 0.69677 0.62484 0.64931 0.0
C1333 C 0.67189 0.64647 0.66496 0.0
C1334 C 0.63443 0.63204 0.67141 0.0
C1335 C 0.62251 0.59539 0.66254 0.0
C1336 C 0.64686 0.57344 0.64771 0.0
C1337 C 0.62823 0.53414 0.64155 0.0
C1338 C 0.62194 0.53005 0.61405 0.0
C1339 C 0.65298 0.49997 0.65161 0.0
C1340 C 0.58939 0.5376 0.65479 0.0
C1341 C 0.58615 0.57321 0.66663 0.0
C1342 C 0.5516 0.58336 0.67892 0.0
C1343 C 0.51965 0.55651 0.6789 0.0
C1344 C 0.52274 0.51971 0.66703 0.0
C1345 C 0.55851 0.51034 0.65519 0.0
H1346 H 0.76089 0.27931 0.37538 0.0
H1347 H 0.75867 0.26325 0.45328 0.0
H1348 H 0.73185 0.3311 0.45766 0.0
H1349 H 0.78669 0.38411 0.37496 0.0
H1350 H 0.75589 0.39404 0.34905 0.0
H1351 H 0.77815 0.34629 0.35262 0.0
H1352 H 0.70953 0.31357 0.34946 0.0
H1353 H 0.68688 0.3611 0.34614 0.0
H1354 H 0.67111 0.32838 0.36993 0.0
H1355 H 0.70027 0.39881 0.45267 0.0
H1356 H 0.66945 0.46065 0.44007 0.0
H1357 H 0.69112 0.43189 0.36465 0.0
C1358 C 0.75526 0.29002 0.39351 0.0
C1359 C 0.76189 0.26573 0.41412 0.0
C1360 C 0.75424 0.28128 0.43734 0.0
C1361 C 0.7388 0.3197 0.43989 0.0
C1362 C 0.7315 0.3422 0.41905 0.0
C1363 C 0.73991 0.32793 0.39631 0.0
C1364 C 0.72809 0.35699 0.37662 0.0
C1365 C 0.76437 0.3712 0.36248 0.0
C1366 C 0.69706 0.33892 0.35954 0.0
C1367 C 0.71076 0.38994 0.39171 0.0
C1368 C 0.7133 0.38085 0.41614 0.0
C1369 C 0.69851 0.40616 0.43363 0.0
C1370 C 0.68086 0.44145 0.42613 0.0
C1371 C 0.67767 0.45173 0.4012 0.0
C1372 C 0.69304 0.42532 0.38379 0.0
H1373 H 0.84781 0.44407 0.11368 0.0
H1374 H 0.82327 0.40771 0.18759 0.0
H1375 H 0.88433 0.43869 0.20139 0.0
H1376 H 0.95178 0.42716 0.11645 0.0
H1377 H 0.96466 0.46953 0.09843 0.0
H1378 H 0.91764 0.44594 0.09426 0.0
H1379 H 0.88327 0.51265 0.10193 0.0
H1380 H 0.93028 0.53618 0.10664 0.0
H1381 H 0.89294 0.53905 0.12966 0.0
H1382 H 0.95041 0.47076 0.20773 0.0
H1383 H 0.01803 0.49856 0.20455 0.0
H1384 H 0.99956 0.51602 0.12758 0.0
C1385 C 0.85523 0.44276 0.13274 0.0
C1386 C 0.83022 0.42328 0.14937 0.0
C1387 C 0.84143 0.4223 0.17423 0.0
C1388 C 0.87624 0.44004 0.18244 0.0
C1389 C 0.90008 0.45905 0.16574 0.0
C1390 C 0.89023 0.46051 0.14138 0.0
C1391 C 0.92213 0.48169 0.12722 0.0
C1392 C 0.94012 0.45444 0.10797 0.0
C1393 C 0.90618 0.51965 0.11569 0.0
C1394 C 0.95142 0.49091 0.14735 0.0
C1395 C 0.93807 0.47798 0.1695 0.0
C1396 C 0.96109 0.48147 0.19051 0.0
C1397 C 0.9993 0.49753 0.18866 0.0
C1398 C 1.01392 0.50974 0.16598 0.0
C1399 C 0.98907 0.50726 0.14529 0.0
H1400 H 0.78773 0.79922 0.64489 0.0
H1401 H 0.7245 0.75604 0.58216 0.0
H1402 H 0.68777 0.8191 0.58004 0.0
H1403 H 0.70427 0.83709 0.67221 0.0
H1404 H 0.72975 0.87732 0.68679 0.0
H1405 H 0.75567 0.83285 0.67943 0.0
H1406 H 0.80663 0.87473 0.65525 0.0
H1407 H 0.77969 0.91884 0.66233 0.0
H1408 H 0.78948 0.90633 0.63122 0.0
H1409 H 0.6516 0.88389 0.58873 0.0
H1410 H 0.62195 0.94415 0.60558 0.0
H1411 H 0.70534 0.94143 0.66523 0.0
C1412 C 0.76774 0.80391 0.62987 0.0
C1413 C 0.76017 0.77326 0.61304 0.0
C1414 C 0.73203 0.77963 0.59455 0.0
C1415 C 0.71061 0.81519 0.59351 0.0
C1416 C 0.71719 0.84379 0.61138 0.0
C1417 C 0.74534 0.83846 0.62915 0.0
C1418 C 0.74332 0.87065 0.64821 0.0
C1419 C 0.73262 0.85348 0.67313 0.0
C1420 C 0.78209 0.89404 0.6493 0.0
C1421 C 0.70995 0.89544 0.63837 0.0
C1422 C 0.69524 0.87956 0.6171 0.0
C1423 C 0.66327 0.8966 0.60523 0.0
C1424 C 0.64645 0.93084 0.61509 0.0
C1425 C 0.66111 0.94779 0.63687 0.0
C1426 C 0.69322 0.92941 0.64864 0.0
H1427 H 0.84618 0.95537 0.91757 0.0
H1428 H 0.83708 0.88243 0.85325 0.0
H1429 H 0.89837 0.91125 0.83758 0.0
H1430 H 0.88551 0.04227 0.88667 0.0
H1431 H 0.91838 0.05536 0.91108 0.0
H1432 H 0.87309 0.02963 0.91741 0.0
H1433 H 0.91183 0.97444 0.93934 0.0
H1434 H 0.95693 1.00059 0.93346 0.0
H1435 H 0.95148 0.95017 0.92376 0.0
H1436 H 0.96399 0.94491 0.82972 0.0
H1437 H 0.02887 0.97874 0.83204 0.0
H1438 H 0.99335 0.03361 0.89924 0.0
C1439 C 0.85719 0.94539 0.90026 0.0
C1440 C 0.8365 0.91647 0.88674 0.0
C1441 C 0.85201 0.90459 0.86403 0.0
C1442 C 0.88692 0.92089 0.85485 0.0
C1443 C 0.9063 0.94967 0.86833 0.0
C1444 C 0.89202 0.96187 0.89057 0.0
C1445 C 0.9191 0.99281 0.90155 0.0
C1446 C 0.89773 0.03236 0.90433 0.0
C1447 C 0.93583 0.97864 0.92596 0.0
C1448 C 0.95099 0.99533 0.88231 0.0
C1449 C 0.9431 0.97033 0.86322 0.0
C1450 C 0.97011 0.96524 0.84435 0.0
C1451 C 1.00674 0.98496 0.84556 0.0
C1452 C 1.01582 1.00977 0.86535 0.0
C1453 C 0.9868 1.01588 0.88342 0.0
H1454 H 0.88727 0.1166 0.1358 0.0
H1455 H 0.78718 0.05859 0.16871 0.0
H1456 H 0.74524 0.11598 0.15823 0.0
H1457 H 0.86286 0.21411 0.1582 0.0
H1458 H 0.88157 0.23852 0.13162 0.0
H1459 H 0.90208 0.19215 0.14099 0.0
H1460 H 0.88709 0.16375 0.09838 0.0
H1461 H 0.86541 0.20975 0.08916 0.0
H1462 H 0.83737 0.16474 0.08692 0.0
H1463 H 0.7137 0.17976 0.14224 0.0
H1464 H 0.69896 0.2489 0.13145 0.0
H1465 H 0.82099 0.26726 0.11217 0.0
C1466 C 0.85656 0.11619 0.141 0.0
C1467 C 0.84042 0.08316 0.15312 0.0
C1468 C 0.80021 0.08375 0.15969 0.0
C1469 C 0.77611 0.11603 0.1535 0.0
C1470 C 0.79278 0.14783 0.14104 0.0
C1471 C 0.83242 0.14857 0.13554 0.0
C1472 C 0.84395 0.18743 0.12389 0.0
C1473 C 0.8744 0.20935 0.13962 0.0
C1474 C 0.85937 0.18101 0.09805 0.0
C1475 C 0.80465 0.20859 0.12358 0.0
C1476 C 0.77525 0.1849 0.13298 0.0
C1477 C 0.73657 0.19839 0.13482 0.0
C1478 C 0.72824 0.2376 0.12819 0.0
C1479 C 0.75853 0.26329 0.12025 0.0
C1480 C 0.79695 0.24802 0.11733 0.0
H1481 H 0.51379 0.07894 0.39618 0.0
H1482 H 0.53297 0.9824 0.34627 0.0
H1483 H 0.60355 1.00186 0.34338 0.0
H1484 H 0.58593 0.14967 0.37263 0.0
H1485 H 0.59967 0.16538 0.40267 0.0
H1486 H 0.55035 0.14818 0.39675 0.0
H1487 H 0.55793 0.09669 0.43104 0.0
H1488 H 0.60751 0.11303 0.43674 0.0
H1489 H 0.5979 0.06198 0.42991 0.0
H1490 H 0.67385 0.03098 0.34858 0.0
H1491 H 0.73539 0.06435 0.36162 0.0
H1492 H 0.6695 0.13483 0.4126 0.0
C1493 C 0.53246 0.06236 0.38405 0.0
C1494 C 0.51764 0.02931 0.37121 0.0
C1495 C 0.54337 1.00821 0.3559 0.0
C1496 C 0.58358 0.01892 0.35438 0.0
C1497 C 0.59749 0.05041 0.3685 0.0
C1498 C 0.57243 0.07173 0.38303 0.0
C1499 C 0.59452 0.10142 0.3985 0.0
C1500 C 0.58187 0.14366 0.39225 0.0
C1501 C 0.58914 0.09274 0.42565 0.0
C1502 C 0.63632 0.09365 0.39061 0.0
C1503 C 0.63751 0.06467 0.37296 0.0
C1504 C 0.67302 0.05344 0.36247 0.0
C1505 C 0.70783 0.07246 0.37004 0.0
C1506 C 0.70719 0.10163 0.38841 0.0
C1507 C 0.67093 0.11205 0.39891 0.0
H1508 H 0.25895 0.24744 0.38289 0.0
H1509 H 0.29024 0.27403 0.45722 0.0
H1510 H 0.32153 0.2081 0.46074 0.0
H1511 H 0.24267 0.13962 0.38959 0.0
H1512 H 0.26436 0.12967 0.36049 0.0
H1513 H 0.23906 0.17544 0.36561 0.0
H1514 H 0.30138 0.21367 0.35222 0.0
H1515 H 0.32689 0.168 0.34743 0.0
H1516 H 0.34745 0.20465 0.36746 0.0
H1517 H 0.35545 0.14191 0.45428 0.0
H1518 H 0.38656 0.08106 0.43989 0.0
H1519 H 0.33614 0.09932 0.36845 0.0
C1520 C 0.27109 0.2389 0.40025 0.0
C1521 C 0.27132 0.26568 0.42004 0.0
C1522 C 0.28867 0.25373 0.44212 0.0
C1523 C 0.30687 0.21647 0.44411 0.0
C1524 C 0.30761 0.19163 0.42381 0.0
C1525 C 0.28976 0.20231 0.40236 0.0
C1526 C 0.29731 0.17212 0.38254 0.0
C1527 C 0.25854 0.15308 0.37407 0.0
C1528 C 0.31958 0.19073 0.36116 0.0
C1529 C 0.32289 0.14275 0.396 0.0
C1530 C 0.32813 0.15442 0.41984 0.0
C1531 C 0.35117 0.13252 0.43573 0.0
C1532 C 0.36888 0.09783 0.42725 0.0
C1533 C 0.36401 0.08496 0.40291 0.0
C1534 C 0.34068 0.10811 0.3871 0.0
H1535 H 0.01935 0.031 0.13025 0.0
H1536 H 1.0151 0.0214 0.2085 0.0
H1537 H 0.08522 0.04283 0.21055 0.0
H1538 H 0.12278 0.99879 0.12272 0.0
H1539 H 0.12998 0.03249 0.0979 0.0
H1540 H 0.08195 1.01167 0.10345 0.0
H1541 H 0.05361 0.08266 0.10533 0.0
H1542 H 0.10188 0.10307 0.10058 0.0
H1543 H 0.0739 0.11722 0.12684 0.0
H1544 H 0.15369 0.0707 0.20371 0.0
H1545 H 0.2148 0.10144 0.18975 0.0
H1546 H 0.1738 0.09439 0.11526 0.0
C1547 C 0.0332 0.03278 0.1479 0.0
C1548 C 1.01167 0.02454 0.16934 0.0
C1549 C 0.03104 0.02725 0.19193 0.0
C1550 C 0.07077 0.03951 0.19318 0.0
C1551 C 0.09062 0.04852 0.17164 0.0
C1552 C 0.07248 0.04489 0.14941 0.0
C1553 C 0.09934 0.05802 0.12895 0.0
C1554 C 0.1091 0.02318 0.11226 0.0
C1555 C 0.08109 0.09228 0.1146 0.0
C1556 C 0.1353 0.07125 0.14313 0.0
C1557 C 0.12976 0.06491 0.16769 0.0
C1558 C 0.15827 0.07551 0.18456 0.0
C1559 C 0.19303 0.09323 0.17629 0.0
C1560 C 0.19945 0.10075 0.15125 0.0
C1561 C 0.17011 0.08907 0.13445 0.0
H1562 H 0.19237 0.93318 0.86576 0.0
H1563 H 0.15604 0.95786 0.93945 0.0
H1564 H 0.18623 0.8957 0.9531 0.0
H1565 H 0.17274 0.83122 0.86783 0.0
H1566 H 0.21437 0.81641 0.85001 0.0
H1567 H 0.19281 0.86421 0.84542 0.0
H1568 H 0.25918 0.89843 0.85324 0.0
H1569 H 0.28242 0.8513 0.85743 0.0
H1570 H 0.28611 0.88829 0.88072 0.0
H1571 H 0.21853 0.82727 0.95842 0.0
H1572 H 0.24684 0.76003 0.95368 0.0
H1573 H 0.26317 0.78283 0.87716 0.0
C1574 C 0.19094 0.92574 0.88479 0.0
C1575 C 0.17176 0.95075 0.90144 0.0
C1576 C 0.17053 0.93945 0.92621 0.0
C1577 C 0.18776 0.90412 0.93423 0.0
C1578 C 0.20647 0.88015 0.91736 0.0
C1579 C 0.20812 0.89062 0.89314 0.0
C1580 C 0.22851 0.85917 0.87844 0.0
C1581 C 0.20042 0.84176 0.85929 0.0
C1582 C 0.26629 0.87528 0.86677 0.0
C1583 C 0.23782 0.82935 0.89804 0.0
C1584 C 0.22509 0.84171 0.92046 0.0
C1585 C 0.22897 0.81756 0.94094 0.0
C1586 C 0.24531 0.77953 0.93819 0.0
C1587 C 0.25738 0.76619 0.91515 0.0
C1588 C 0.25436 0.79209 0.89511 0.0
H1589 H 0.36097 0.92968 0.61862 0.0
H1590 H 0.3301 0.89937 0.69253 0.0
H1591 H 0.39145 0.93008 0.70715 0.0
H1592 H 0.4673 0.91397 0.62528 0.0
H1593 H 0.47979 0.95507 0.60612 0.0
H1594 H 0.43435 0.92858 0.6013 0.0
H1595 H 0.39554 0.99387 0.6052 0.0
H1596 H 0.44078 0.02045 0.61018 0.0
H1597 H 0.40164 0.02357 0.63202 0.0
H1598 H 0.45611 0.96797 0.71427 0.0
H1599 H 0.51627 1.01003 0.71227 0.0
H1600 H 0.50476 1.01404 0.63421 0.0
C1601 C 0.36725 0.9291 0.63785 0.0
C1602 C 0.34035 0.91189 0.6543 0.0
C1603 C 0.34991 0.91224 0.67939 0.0
C1604 C 0.38491 0.92961 0.68797 0.0
C1605 C 0.41059 0.94659 0.67134 0.0
C1606 C 0.4022 0.94636 0.64678 0.0
C1607 C 0.43403 0.96781 0.63277 0.0
C1608 C 0.45511 0.93968 0.61533 0.0
C1609 C 0.41697 1.00354 0.61925 0.0
C1610 C 0.46113 0.98059 0.65325 0.0
C1611 C 0.44744 0.96797 0.67541 0.0
C1612 C 0.46723 0.9777 0.69693 0.0
C1613 C 0.50145 1.00144 0.6957 0.0
C1614 C 0.51535 1.01521 0.67314 0.0
C1615 C 0.49506 1.00392 0.65175 0.0
loop_
_geom_bond_atom_site_label_1
_geom_bond_atom_site_label_2
_geom_bond_distance
_geom_bond_site_symmetry_2
_ccdc_geom_bond_type
Dy0 O4 2.398 . S
Dy0 O5 2.491 . S
Dy0 O6 2.403 . S
Dy0 O7 2.664 . S
Dy0 O11 2.326 . S
Dy0 O15 2.310 . S
Dy0 O16 2.351 . S
C1 O12 1.185 . S
C1 O13 1.355 . S
C2 O4 1.185 . S
C2 O5 1.355 . S
Dy3 O7 2.310 . S
Dy3 O10 2.351 . S
Dy3 O12 2.398 . S
Dy3 O13 2.491 . S
Dy3 O14 2.403 . S
Dy3 O15 2.664 . S
Dy3 O17 2.326 . S
O4 Dy0 2.398 . S
O4 C2 1.185 . S
O5 Dy0 2.491 . S
O5 C2 1.355 . S
O6 Dy0 2.403 . S
O6 C8 1.254 . S
O7 Dy0 2.664 . S
O7 Dy3 2.310 . S
O7 C8 1.268 . S
C8 O6 1.254 . S
C8 O7 1.268 . S
C9 O14 1.254 . S
C9 O15 1.268 . S
O10 Dy3 2.351 . S
O10 C18 1.249 . S
O11 Dy0 2.326 . S
O11 C18 1.267 . S
O12 C1 1.185 . S
O12 Dy3 2.398 . S
O13 C1 1.355 . S
O13 Dy3 2.491 . S
O14 Dy3 2.403 . S
O14 C9 1.254 . S
O15 Dy0 2.310 . S
O15 Dy3 2.664 . S
O15 C9 1.268 . S
O16 Dy0 2.351 . S
O16 C19 1.249 . S
O17 Dy3 2.326 . S
O17 C19 1.267 . S
C18 O10 1.249 . S
C18 O11 1.267 . S
C19 O16 1.249 . S
C19 O17 1.267 . S
Dy20 O24 2.398 . S
Dy20 O25 2.491 . S
Dy20 O26 2.403 . S
Dy20 O27 2.664 . S
Dy20 O31 2.326 . S
Dy20 O35 2.310 . S
Dy20 O36 2.351 . S
C21 O32 1.185 . S
C21 O33 1.355 . S
C22 O24 1.185 . S
C22 O25 1.355 . S
Dy23 O27 2.310 . S
Dy23 O30 2.351 . S
Dy23 O32 2.398 . S
Dy23 O33 2.491 . S
Dy23 O34 2.403 . S
Dy23 O35 2.664 . S
Dy23 O37 2.326 . S
O24 Dy20 2.398 . S
O24 C22 1.185 . S
O25 Dy20 2.491 . S
O25 C22 1.355 . S
O26 Dy20 2.403 . S
O26 C28 1.254 . S
O27 Dy20 2.664 . S
O27 Dy23 2.310 . S
O27 C28 1.268 . S
C28 O26 1.254 . S
C28 O27 1.268 . S
C29 O34 1.254 . S
C29 O35 1.268 . S
O30 Dy23 2.351 . S
O30 C38 1.249 . S
O31 Dy20 2.326 . S
O31 C38 1.267 . S
O32 C21 1.185 . S
O32 Dy23 2.398 . S
O33 C21 1.355 . S
O33 Dy23 2.491 . S
O34 Dy23 2.403 . S
O34 C29 1.254 . S
O35 Dy20 2.310 . S
O35 Dy23 2.664 . S
O35 C29 1.268 . S
O36 Dy20 2.351 . S
O36 C39 1.249 . S
O37 Dy23 2.326 . S
O37 C39 1.267 . S
C38 O30 1.249 . S
C38 O31 1.267 . S
C39 O36 1.249 . S
C39 O37 1.267 . S
Dy40 O44 2.398 . S
Dy40 O45 2.491 . S
Dy40 O46 2.403 . S
Dy40 O47 2.664 . S
Dy40 O51 2.326 . S
Dy40 O55 2.310 . S
Dy40 O56 2.351 . S
C41 O52 1.185 . S
C41 O53 1.355 . S
C42 O44 1.185 . S
C42 O45 1.355 . S
Dy43 O47 2.310 . S
Dy43 O50 2.351 . S
Dy43 O52 2.398 . S
Dy43 O53 2.491 . S
Dy43 O54 2.403 . S
Dy43 O55 2.664 . S
Dy43 O57 2.326 . S
O44 Dy40 2.398 . S
O44 C42 1.185 . S
O45 Dy40 2.491 . S
O45 C42 1.355 . S
O46 Dy40 2.403 . S
O46 C48 1.254 . S
O47 Dy40 2.664 . S
O47 Dy43 2.310 . S
O47 C48 1.268 . S
C48 O46 1.254 . S
C48 O47 1.268 . S
C49 O54 1.254 . S
C49 O55 1.268 . S
O50 Dy43 2.351 . S
O50 C58 1.249 . S
O51 Dy40 2.326 . S
O51 C58 1.267 . S
O52 C41 1.185 . S
O52 Dy43 2.398 . S
O53 C41 1.355 . S
O53 Dy43 2.491 . S
O54 Dy43 2.403 . S
O54 C49 1.254 . S
O55 Dy40 2.310 . S
O55 Dy43 2.664 . S
O55 C49 1.268 . S
O56 Dy40 2.351 . S
O56 C59 1.249 . S
O57 Dy43 2.326 . S
O57 C59 1.267 . S
C58 O50 1.249 . S
C58 O51 1.267 . S
C59 O56 1.249 . S
C59 O57 1.267 . S
Dy60 O64 2.398 . S
Dy60 O65 2.491 . S
Dy60 O66 2.403 . S
Dy60 O67 2.664 . S
Dy60 O71 2.326 . S
Dy60 O75 2.310 . S
Dy60 O76 2.351 . S
C61 O72 1.185 . S
C61 O73 1.355 . S
C62 O64 1.185 . S
C62 O65 1.355 . S
Dy63 O67 2.310 . S
Dy63 O70 2.351 . S
Dy63 O72 2.398 . S
Dy63 O73 2.491 . S
Dy63 O74 2.403 . S
Dy63 O75 2.664 . S
Dy63 O77 2.326 . S
O64 Dy60 2.398 . S
O64 C62 1.185 . S
O65 Dy60 2.491 . S
O65 C62 1.355 . S
O66 Dy60 2.403 . S
O66 C68 1.254 . S
O67 Dy60 2.664 . S
O67 Dy63 2.310 . S
O67 C68 1.268 . S
C68 O66 1.254 . S
C68 O67 1.268 . S
C69 O74 1.254 . S
C69 O75 1.268 . S
O70 Dy63 2.351 . S
O70 C78 1.249 . S
O71 Dy60 2.326 . S
O71 C78 1.267 . S
O72 C61 1.185 . S
O72 Dy63 2.398 . S
O73 C61 1.355 . S
O73 Dy63 2.491 . S
O74 Dy63 2.403 . S
O74 C69 1.254 . S
O75 Dy60 2.310 . S
O75 Dy63 2.664 . S
O75 C69 1.268 . S
O76 Dy60 2.351 . S
O76 C79 1.249 . S
O77 Dy63 2.326 . S
O77 C79 1.267 . S
C78 O70 1.249 . S
C78 O71 1.267 . S
C79 O76 1.249 . S
C79 O77 1.267 . S
Dy80 O84 2.398 . S
Dy80 O85 2.491 . S
Dy80 O86 2.403 . S
Dy80 O87 2.664 . S
Dy80 O91 2.326 . S
Dy80 O95 2.310 . S
Dy80 O96 2.351 . S
C81 O92 1.185 . S
C81 O93 1.355 . S
C82 O84 1.185 . S
C82 O85 1.355 . S
Dy83 O87 2.310 . S
Dy83 O90 2.351 . S
Dy83 O92 2.398 . S
Dy83 O93 2.491 . S
Dy83 O94 2.403 . S
Dy83 O95 2.664 . S
Dy83 O97 2.326 . S
O84 Dy80 2.398 . S
O84 C82 1.185 . S
O85 Dy80 2.491 . S
O85 C82 1.355 . S
O86 Dy80 2.403 . S
O86 C88 1.254 . S
O87 Dy80 2.664 . S
O87 Dy83 2.310 . S
O87 C88 1.268 . S
C88 O86 1.254 . S
C88 O87 1.268 . S
C89 O94 1.254 . S
C89 O95 1.268 . S
O90 Dy83 2.351 . S
O90 C98 1.249 . S
O91 Dy80 2.326 . S
O91 C98 1.267 . S
O92 C81 1.185 . S
O92 Dy83 2.398 . S
O93 C81 1.355 . S
O93 Dy83 2.491 . S
O94 Dy83 2.403 . S
O94 C89 1.254 . S
O95 Dy80 2.310 . S
O95 Dy83 2.664 . S
O95 C89 1.268 . S
O96 Dy80 2.351 . S
O96 C99 1.249 . S
O97 Dy83 2.326 . S
O97 C99 1.267 . S
C98 O90 1.249 . S
C98 O91 1.267 . S
C99 O96 1.249 . S
C99 O97 1.267 . S
Dy100 O104 2.398 . S
Dy100 O105 2.491 . S
Dy100 O106 2.403 . S
Dy100 O107 2.664 . S
Dy100 O111 2.326 . S
Dy100 O115 2.310 . S
Dy100 O116 2.351 . S
C101 O112 1.185 . S
C101 O113 1.355 . S
C102 O104 1.185 . S
C102 O105 1.355 . S
Dy103 O107 2.310 . S
Dy103 O110 2.351 . S
Dy103 O112 2.398 . S
Dy103 O113 2.491 . S
Dy103 O114 2.403 . S
Dy103 O115 2.664 . S
Dy103 O117 2.326 . S
O104 Dy100 2.398 . S
O104 C102 1.185 . S
O105 Dy100 2.491 . S
O105 C102 1.355 . S
O106 Dy100 2.403 . S
O106 C108 1.254 . S
O107 Dy100 2.664 . S
O107 Dy103 2.310 . S
O107 C108 1.268 . S
C108 O106 1.254 . S
C108 O107 1.268 . S
C109 O114 1.254 . S
C109 O115 1.268 . S
O110 Dy103 2.351 . S
O110 C118 1.249 . S
O111 Dy100 2.326 . S
O111 C118 1.267 . S
O112 C101 1.185 . S
O112 Dy103 2.398 . S
O113 C101 1.355 . S
O113 Dy103 2.491 . S
O114 Dy103 2.403 . S
O114 C109 1.254 . S
O115 Dy100 2.310 . S
O115 Dy103 2.664 . S
O115 C109 1.268 . S
O116 Dy100 2.351 . S
O116 C119 1.249 . S
O117 Dy103 2.326 . S
O117 C119 1.267 . S
C118 O110 1.249 . S
C118 O111 1.267 . S
C119 O116 1.249 . S
C119 O117 1.267 . S
Dy120 O124 2.398 . S
Dy120 O125 2.491 . S
Dy120 O126 2.403 . S
Dy120 O127 2.664 . S
Dy120 O131 2.326 . S
Dy120 O135 2.310 . S
Dy120 O136 2.351 . S
C121 O132 1.185 . S
C121 O133 1.355 . S
C122 O124 1.185 . S
C122 O125 1.355 . S
Dy123 O127 2.310 . S
Dy123 O130 2.351 . S
Dy123 O132 2.398 . S
Dy123 O133 2.491 . S
Dy123 O134 2.403 . S
Dy123 O135 2.664 . S
Dy123 O137 2.326 . S
O124 Dy120 2.398 . S
O124 C122 1.185 . S
O125 Dy120 2.491 . S
O125 C122 1.355 . S
O126 Dy120 2.403 . S
O126 C128 1.254 . S
O127 Dy120 2.664 . S
O127 Dy123 2.310 . S
O127 C128 1.268 . S
C128 O126 1.254 . S
C128 O127 1.268 . S
C129 O134 1.254 . S
C129 O135 1.268 . S
O130 Dy123 2.351 . S
O130 C138 1.249 . S
O131 Dy120 2.326 . S
O131 C138 1.267 . S
O132 C121 1.185 . S
O132 Dy123 2.398 . S
O133 C121 1.355 . S
O133 Dy123 2.491 . S
O134 Dy123 2.403 . S
O134 C129 1.254 . S
O135 Dy120 2.310 . S
O135 Dy123 2.664 . S
O135 C129 1.268 . S
O136 Dy120 2.351 . S
O136 C139 1.249 . S
O137 Dy123 2.326 . S
O137 C139 1.267 . S
C138 O130 1.249 . S
C138 O131 1.267 . S
C139 O136 1.249 . S
C139 O137 1.267 . S
Dy140 O144 2.398 . S
Dy140 O145 2.491 . S
Dy140 O146 2.403 . S
Dy140 O147 2.664 . S
Dy140 O151 2.326 . S
Dy140 O155 2.310 . S
Dy140 O156 2.351 . S
C141 O152 1.185 . S
C141 O153 1.355 . S
C142 O144 1.185 . S
C142 O145 1.355 . S
Dy143 O147 2.310 . S
Dy143 O150 2.351 . S
Dy143 O152 2.398 . S
Dy143 O153 2.491 . S
Dy143 O154 2.403 . S
Dy143 O155 2.664 . S
Dy143 O157 2.326 . S
O144 Dy140 2.398 . S
O144 C142 1.185 . S
O145 Dy140 2.491 . S
O145 C142 1.355 . S
O146 Dy140 2.403 . S
O146 C148 1.254 . S
O147 Dy140 2.664 . S
O147 Dy143 2.310 . S
O147 C148 1.268 . S
C148 O146 1.254 . S
C148 O147 1.268 . S
C149 O154 1.254 . S
C149 O155 1.268 . S
O150 Dy143 2.351 . S
O150 C158 1.249 . S
O151 Dy140 2.326 . S
O151 C158 1.267 . S
O152 C141 1.185 . S
O152 Dy143 2.398 . S
O153 C141 1.355 . S
O153 Dy143 2.491 . S
O154 Dy143 2.403 . S
O154 C149 1.254 . S
O155 Dy140 2.310 . S
O155 Dy143 2.664 . S
O155 C149 1.268 . S
O156 Dy140 2.351 . S
O156 C159 1.249 . S
O157 Dy143 2.326 . S
O157 C159 1.267 . S
C158 O150 1.249 . S
C158 O151 1.267 . S
C159 O156 1.249 . S
C159 O157 1.267 . S
Dy160 O164 2.398 . S
Dy160 O165 2.491 . S
Dy160 O166 2.403 . S
Dy160 O167 2.664 . S
Dy160 O171 2.326 . S
Dy160 O175 2.310 . S
Dy160 O176 2.351 . S
C161 O172 1.185 . S
C161 O173 1.355 . S
C162 O164 1.185 . S
C162 O165 1.355 . S
Dy163 O167 2.310 . S
Dy163 O170 2.351 . S
Dy163 O172 2.398 . S
Dy163 O173 2.491 . S
Dy163 O174 2.403 . S
Dy163 O175 2.664 . S
Dy163 O177 2.326 . S
O164 Dy160 2.398 . S
O164 C162 1.185 . S
O165 Dy160 2.491 . S
O165 C162 1.355 . S
O166 Dy160 2.403 . S
O166 C168 1.254 . S
O167 Dy160 2.664 . S
O167 Dy163 2.310 . S
O167 C168 1.268 . S
C168 O166 1.254 . S
C168 O167 1.268 . S
C169 O174 1.254 . S
C169 O175 1.268 . S
O170 Dy163 2.351 . S
O170 C178 1.249 . S
O171 Dy160 2.326 . S
O171 C178 1.267 . S
O172 C161 1.185 . S
O172 Dy163 2.398 . S
O173 C161 1.355 . S
O173 Dy163 2.491 . S
O174 Dy163 2.403 . S
O174 C169 1.254 . S
O175 Dy160 2.310 . S
O175 Dy163 2.664 . S
O175 C169 1.268 . S
O176 Dy160 2.351 . S
O176 C179 1.249 . S
O177 Dy163 2.326 . S
O177 C179 1.267 . S
C178 O170 1.249 . S
C178 O171 1.267 . S
C179 O176 1.249 . S
C179 O177 1.267 . S
Dy180 O184 2.398 . S
Dy180 O185 2.491 . S
Dy180 O186 2.403 1_545 S
Dy180 O187 2.664 . S
Dy180 O191 2.326 . S
Dy180 O195 2.310 . S
Dy180 O196 2.351 1_545 S
C181 O192 1.185 . S
C181 O193 1.355 . S
C182 O184 1.185 . S
C182 O185 1.355 . S
Dy183 O187 2.310 . S
Dy183 O190 2.351 . S
Dy183 O192 2.398 . S
Dy183 O193 2.491 . S
Dy183 O194 2.403 . S
Dy183 O195 2.664 . S
Dy183 O197 2.326 1_545 S
O184 Dy180 2.398 . S
O184 C182 1.185 . S
O185 Dy180 2.491 . S
O185 C182 1.355 . S
O186 Dy180 2.403 1_565 S
O186 C188 1.254 . S
O187 Dy180 2.664 . S
O187 Dy183 2.310 . S
O187 C188 1.268 1_545 S
C188 O186 1.254 . S
C188 O187 1.268 1_565 S
C189 O194 1.254 . S
C189 O195 1.268 . S
O190 Dy183 2.351 . S
O190 C198 1.249 . S
O191 Dy180 2.326 . S
O191 C198 1.267 . S
O192 C181 1.185 . S
O192 Dy183 2.398 . S
O193 C181 1.355 . S
O193 Dy183 2.491 . S
O194 Dy183 2.403 . S
O194 C189 1.254 . S
O195 Dy180 2.310 . S
O195 Dy183 2.664 . S
O195 C189 1.268 . S
O196 Dy180 2.351 1_565 S
O196 C199 1.249 . S
O197 Dy183 2.326 1_565 S
O197 C199 1.267 . S
C198 O190 1.249 . S
C198 O191 1.267 . S
C199 O196 1.249 . S
C199 O197 1.267 . S
Dy200 O204 2.398 . S
Dy200 O205 2.491 . S
Dy200 O206 2.403 . S
Dy200 O207 2.664 . S
Dy200 O211 2.326 . S
Dy200 O215 2.310 . S
Dy200 O216 2.351 . S
C201 O212 1.185 . S
C201 O213 1.355 . S
C202 O204 1.185 . S
C202 O205 1.355 . S
Dy203 O207 2.310 . S
Dy203 O210 2.351 . S
Dy203 O212 2.398 . S
Dy203 O213 2.491 . S
Dy203 O214 2.403 . S
Dy203 O215 2.664 . S
Dy203 O217 2.326 . S
O204 Dy200 2.398 . S
O204 C202 1.185 . S
O205 Dy200 2.491 . S
O205 C202 1.355 . S
O206 Dy200 2.403 . S
O206 C208 1.254 . S
O207 Dy200 2.664 . S
O207 Dy203 2.310 . S
O207 C208 1.268 . S
C208 O206 1.254 . S
C208 O207 1.268 . S
C209 O214 1.254 . S
C209 O215 1.268 . S
O210 Dy203 2.351 . S
O210 C218 1.249 . S
O211 Dy200 2.326 . S
O211 C218 1.267 . S
O212 C201 1.185 . S
O212 Dy203 2.398 . S
O213 C201 1.355 . S
O213 Dy203 2.491 . S
O214 Dy203 2.403 . S
O214 C209 1.254 . S
O215 Dy200 2.310 . S
O215 Dy203 2.664 . S
O215 C209 1.268 . S
O216 Dy200 2.351 . S
O216 C219 1.249 . S
O217 Dy203 2.326 . S
O217 C219 1.267 . S
C218 O210 1.249 . S
C218 O211 1.267 . S
C219 O216 1.249 . S
C219 O217 1.267 . S
Dy220 O224 2.398 . S
Dy220 O225 2.491 . S
Dy220 O226 2.403 1_565 S
Dy220 O227 2.664 . S
Dy220 O231 2.326 . S
Dy220 O235 2.310 . S
Dy220 O236 2.351 1_565 S
C221 O232 1.185 . S
C221 O233 1.355 . S
C222 O224 1.185 . S
C222 O225 1.355 . S
Dy223 O227 2.310 . S
Dy223 O230 2.351 . S
Dy223 O232 2.398 . S
Dy223 O233 2.491 . S
Dy223 O234 2.403 . S
Dy223 O235 2.664 . S
Dy223 O237 2.326 1_565 S
O224 Dy220 2.398 . S
O224 C222 1.185 . S
O225 Dy220 2.491 . S
O225 C222 1.355 . S
O226 Dy220 2.403 1_545 S
O226 C228 1.254 . S
O227 Dy220 2.664 . S
O227 Dy223 2.310 . S
O227 C228 1.268 1_565 S
C228 O226 1.254 . S
C228 O227 1.268 1_545 S
C229 O234 1.254 . S
C229 O235 1.268 . S
O230 Dy223 2.351 . S
O230 C238 1.249 . S
O231 Dy220 2.326 . S
O231 C238 1.267 . S
O232 C221 1.185 . S
O232 Dy223 2.398 . S
O233 C221 1.355 . S
O233 Dy223 2.491 . S
O234 Dy223 2.403 . S
O234 C229 1.254 . S
O235 Dy220 2.310 . S
O235 Dy223 2.664 . S
O235 C229 1.268 . S
O236 Dy220 2.351 1_545 S
O236 C239 1.249 . S
O237 Dy223 2.326 1_545 S
O237 C239 1.267 . S
C238 O230 1.249 . S
C238 O231 1.267 . S
C239 O236 1.249 . S
C239 O237 1.267 . S
Dy240 O244 2.398 . S
Dy240 O245 2.491 . S
Dy240 O246 2.403 . S
Dy240 O247 2.664 . S
Dy240 O251 2.326 . S
Dy240 O255 2.310 . S
Dy240 O256 2.351 . S
C241 O252 1.185 . S
C241 O253 1.355 . S
C242 O244 1.185 . S
C242 O245 1.355 . S
Dy243 O247 2.310 . S
Dy243 O250 2.351 . S
Dy243 O252 2.398 . S
Dy243 O253 2.491 . S
Dy243 O254 2.403 . S
Dy243 O255 2.664 . S
Dy243 O257 2.326 . S
O244 Dy240 2.398 . S
O244 C242 1.185 . S
O245 Dy240 2.491 . S
O245 C242 1.355 . S
O246 Dy240 2.403 . S
O246 C248 1.254 . S
O247 Dy240 2.664 . S
O247 Dy243 2.310 . S
O247 C248 1.268 . S
C248 O246 1.254 . S
C248 O247 1.268 . S
C249 O254 1.254 . S
C249 O255 1.268 . S
O250 Dy243 2.351 . S
O250 C258 1.249 . S
O251 Dy240 2.326 . S
O251 C258 1.267 . S
O252 C241 1.185 . S
O252 Dy243 2.398 . S
O253 C241 1.355 . S
O253 Dy243 2.491 . S
O254 Dy243 2.403 . S
O254 C249 1.254 . S
O255 Dy240 2.310 . S
O255 Dy243 2.664 . S
O255 C249 1.268 . S
O256 Dy240 2.351 . S
O256 C259 1.249 . S
O257 Dy243 2.326 . S
O257 C259 1.267 . S
C258 O250 1.249 . S
C258 O251 1.267 . S
C259 O256 1.249 . S
C259 O257 1.267 . S
Dy260 O264 2.398 . S
Dy260 O265 2.491 . S
Dy260 O266 2.403 . S
Dy260 O267 2.664 . S
Dy260 O271 2.326 1_565 S
Dy260 O275 2.310 . S
Dy260 O276 2.351 . S
C261 O272 1.185 . S
C261 O273 1.355 . S
C262 O264 1.185 . S
C262 O265 1.355 . S
Dy263 O267 2.310 . S
Dy263 O270 2.351 1_565 S
Dy263 O272 2.398 . S
Dy263 O273 2.491 . S
Dy263 O274 2.403 1_565 S
Dy263 O275 2.664 . S
Dy263 O277 2.326 . S
O264 Dy260 2.398 . S
O264 C262 1.185 . S
O265 Dy260 2.491 . S
O265 C262 1.355 . S
O266 Dy260 2.403 . S
O266 C268 1.254 . S
O267 Dy260 2.664 . S
O267 Dy263 2.310 . S
O267 C268 1.268 . S
C268 O266 1.254 . S
C268 O267 1.268 . S
C269 O274 1.254 . S
C269 O275 1.268 1_545 S
O270 Dy263 2.351 1_545 S
O270 C278 1.249 . S
O271 Dy260 2.326 1_545 S
O271 C278 1.267 . S
O272 C261 1.185 . S
O272 Dy263 2.398 . S
O273 C261 1.355 . S
O273 Dy263 2.491 . S
O274 Dy263 2.403 1_545 S
O274 C269 1.254 . S
O275 Dy260 2.310 . S
O275 Dy263 2.664 . S
O275 C269 1.268 1_565 S
O276 Dy260 2.351 . S
O276 C279 1.249 . S
O277 Dy263 2.326 . S
O277 C279 1.267 . S
C278 O270 1.249 . S
C278 O271 1.267 . S
C279 O276 1.249 . S
C279 O277 1.267 . S
Dy280 O284 2.398 . S
Dy280 O285 2.491 . S
Dy280 O286 2.403 . S
Dy280 O287 2.664 . S
Dy280 O291 2.326 . S
Dy280 O295 2.310 . S
Dy280 O296 2.351 . S
C281 O292 1.185 . S
C281 O293 1.355 . S
C282 O284 1.185 . S
C282 O285 1.355 . S
Dy283 O287 2.310 . S
Dy283 O290 2.351 . S
Dy283 O292 2.398 . S
Dy283 O293 2.491 . S
Dy283 O294 2.403 . S
Dy283 O295 2.664 . S
Dy283 O297 2.326 . S
O284 Dy280 2.398 . S
O284 C282 1.185 . S
O285 Dy280 2.491 . S
O285 C282 1.355 . S
O286 Dy280 2.403 . S
O286 C288 1.254 . S
O287 Dy280 2.664 . S
O287 Dy283 2.310 . S
O287 C288 1.268 . S
C288 O286 1.254 . S
C288 O287 1.268 . S
C289 O294 1.254 . S
C289 O295 1.268 . S
O290 Dy283 2.351 . S
O290 C298 1.249 . S
O291 Dy280 2.326 . S
O291 C298 1.267 . S
O292 C281 1.185 . S
O292 Dy283 2.398 . S
O293 C281 1.355 . S
O293 Dy283 2.491 . S
O294 Dy283 2.403 . S
O294 C289 1.254 . S
O295 Dy280 2.310 . S
O295 Dy283 2.664 . S
O295 C289 1.268 . S
O296 Dy280 2.351 . S
O296 C299 1.249 . S
O297 Dy283 2.326 . S
O297 C299 1.267 . S
C298 O290 1.249 . S
C298 O291 1.267 . S
C299 O296 1.249 . S
C299 O297 1.267 . S
Dy300 O304 2.398 . S
Dy300 O305 2.491 . S
Dy300 O306 2.403 . S
Dy300 O307 2.664 . S
Dy300 O311 2.326 1_545 S
Dy300 O315 2.310 . S
Dy300 O316 2.351 . S
C301 O312 1.185 . S
C301 O313 1.355 . S
C302 O304 1.185 . S
C302 O305 1.355 . S
Dy303 O307 2.310 . S
Dy303 O310 2.351 1_545 S
Dy303 O312 2.398 . S
Dy303 O313 2.491 . S
Dy303 O314 2.403 1_545 S
Dy303 O315 2.664 . S
Dy303 O317 2.326 . S
O304 Dy300 2.398 . S
O304 C302 1.185 . S
O305 Dy300 2.491 . S
O305 C302 1.355 . S
O306 Dy300 2.403 . S
O306 C308 1.254 . S
O307 Dy300 2.664 . S
O307 Dy303 2.310 . S
O307 C308 1.268 . S
C308 O306 1.254 . S
C308 O307 1.268 . S
C309 O314 1.254 . S
C309 O315 1.268 1_565 S
O310 Dy303 2.351 1_565 S
O310 C318 1.249 . S
O311 Dy300 2.326 1_565 S
O311 C318 1.267 . S
O312 C301 1.185 . S
O312 Dy303 2.398 . S
O313 C301 1.355 . S
O313 Dy303 2.491 . S
O314 Dy303 2.403 1_565 S
O314 C309 1.254 . S
O315 Dy300 2.310 . S
O315 Dy303 2.664 . S
O315 C309 1.268 1_545 S
O316 Dy300 2.351 . S
O316 C319 1.249 . S
O317 Dy303 2.326 . S
O317 C319 1.267 . S
C318 O310 1.249 . S
C318 O311 1.267 . S
C319 O316 1.249 . S
C319 O317 1.267 . S
H320 C332 0.930 . S
H321 C334 0.930 . S
H322 C335 0.930 . S
H323 C339 0.959 . S
H324 C339 0.959 . S
H325 C339 0.961 . S
H326 C340 0.960 . S
H327 C340 0.961 . S
H328 C340 0.959 . S
H329 C343 0.929 . S
H330 C344 0.931 . S
H331 C346 0.930 . S
C332 H320 0.930 . S
C332 C333 1.399 . S
C332 C337 1.399 . S
C333 C332 1.399 . S
C333 C334 1.376 . S
C334 H321 0.930 . S
C334 C333 1.376 . S
C334 C335 1.388 . S
C335 H322 0.930 . S
C335 C334 1.388 . S
C335 C336 1.390 . S
C336 C335 1.390 . S
C336 C337 1.394 . S
C336 C342 1.465 . S
C337 C332 1.399 . S
C337 C336 1.394 . S
C337 C338 1.516 . S
C338 C337 1.516 . S
C338 C339 1.502 . S
C338 C340 1.561 . S
C338 C341 1.526 . S
C339 H323 0.959 . S
C339 H324 0.959 . S
C339 H325 0.961 . S
C339 C338 1.502 . S
C340 H326 0.960 . S
C340 H327 0.961 . S
C340 H328 0.959 . S
C340 C338 1.561 . S
C341 C338 1.526 . S
C341 C342 1.396 . S
C341 C346 1.390 . S
C342 C336 1.465 . S
C342 C341 1.396 . S
C342 C343 1.399 . S
C343 H329 0.929 . S
C343 C342 1.399 . S
C343 C344 1.385 . S
C344 H330 0.931 . S
C344 C343 1.385 . S
C344 C345 1.389 . S
C345 C344 1.389 . S
C345 C346 1.387 . S
C346 H331 0.930 . S
C346 C341 1.390 . S
C346 C345 1.387 . S
H347 C359 0.930 . S
H348 C361 0.930 . S
H349 C362 0.930 . S
H350 C366 0.959 . S
H351 C366 0.959 . S
H352 C366 0.961 . S
H353 C367 0.960 . S
H354 C367 0.961 . S
H355 C367 0.959 . S
H356 C370 0.929 . S
H357 C371 0.931 . S
H358 C373 0.930 . S
C359 H347 0.930 . S
C359 C360 1.399 . S
C359 C364 1.399 . S
C360 C359 1.399 . S
C360 C361 1.376 . S
C361 H348 0.930 . S
C361 C360 1.376 . S
C361 C362 1.388 . S
C362 H349 0.930 . S
C362 C361 1.388 . S
C362 C363 1.390 . S
C363 C362 1.390 . S
C363 C364 1.394 . S
C363 C369 1.465 . S
C364 C359 1.399 . S
C364 C363 1.394 . S
C364 C365 1.516 . S
C365 C364 1.516 . S
C365 C366 1.502 . S
C365 C367 1.561 . S
C365 C368 1.526 . S
C366 H350 0.959 . S
C366 H351 0.959 . S
C366 H352 0.961 . S
C366 C365 1.502 . S
C367 H353 0.960 . S
C367 H354 0.961 . S
C367 H355 0.959 . S
C367 C365 1.561 . S
C368 C365 1.526 . S
C368 C369 1.396 . S
C368 C373 1.390 . S
C369 C363 1.465 . S
C369 C368 1.396 . S
C369 C370 1.399 . S
C370 H356 0.929 . S
C370 C369 1.399 . S
C370 C371 1.385 . S
C371 H357 0.931 . S
C371 C370 1.385 . S
C371 C372 1.389 . S
C372 C371 1.389 . S
C372 C373 1.387 . S
C373 H358 0.930 . S
C373 C368 1.390 . S
C373 C372 1.387 . S
H374 C386 0.930 . S
H375 C388 0.930 . S
H376 C389 0.930 . S
H377 C393 0.959 . S
H378 C393 0.959 . S
H379 C393 0.961 . S
H380 C394 0.960 . S
H381 C394 0.961 . S
H382 C394 0.959 . S
H383 C397 0.929 . S
H384 C398 0.931 . S
H385 C400 0.930 . S
C386 H374 0.930 . S
C386 C387 1.399 . S
C386 C391 1.399 . S
C387 C386 1.399 . S
C387 C388 1.376 . S
C388 H375 0.930 . S
C388 C387 1.376 . S
C388 C389 1.388 . S
C389 H376 0.930 . S
C389 C388 1.388 . S
C389 C390 1.390 . S
C390 C389 1.390 . S
C390 C391 1.394 . S
C390 C396 1.465 . S
C391 C386 1.399 . S
C391 C390 1.394 . S
C391 C392 1.516 . S
C392 C391 1.516 . S
C392 C393 1.502 . S
C392 C394 1.561 . S
C392 C395 1.526 . S
C393 H377 0.959 . S
C393 H378 0.959 . S
C393 H379 0.961 . S
C393 C392 1.502 . S
C394 H380 0.960 . S
C394 H381 0.961 . S
C394 H382 0.959 . S
C394 C392 1.561 . S
C395 C392 1.526 . S
C395 C396 1.396 . S
C395 C400 1.390 . S
C396 C390 1.465 . S
C396 C395 1.396 . S
C396 C397 1.399 . S
C397 H383 0.929 . S
C397 C396 1.399 . S
C397 C398 1.385 . S
C398 H384 0.931 . S
C398 C397 1.385 . S
C398 C399 1.389 . S
C399 C398 1.389 . S
C399 C400 1.387 . S
C400 H385 0.930 . S
C400 C395 1.390 . S
C400 C399 1.387 . S
H401 C413 0.938 . S
H402 C415 0.930 . S
H403 C416 0.930 . S
H404 C420 0.959 1_655 S
H405 C420 0.959 . S
H406 C420 0.961 . S
H407 C421 0.960 1_556 S
H408 C421 0.961 . S
H409 C421 0.959 1_556 S
H410 C424 0.929 1_556 S
H411 C425 0.931 . S
H412 C427 0.930 . S
C413 H401 0.938 . S
C413 C414 1.399 . S
C413 C418 1.393 1_655 S
C414 C413 1.399 . S
C414 C415 1.376 . S
C415 H402 0.930 . S
C415 C414 1.376 . S
C415 C416 1.388 . S
C416 H403 0.930 . S
C416 C415 1.388 . S
C416 C417 1.390 . S
C417 C416 1.390 . S
C417 C418 1.386 1_655 S
C417 C423 1.467 1_556 S
C418 C413 1.393 1_455 S
C418 C417 1.386 1_455 S
C418 C419 1.530 1_556 S
C419 C418 1.530 1_554 S
C419 C420 1.502 . S
C419 C421 1.561 . S
C419 C422 1.526 . S
C420 H404 0.959 1_455 S
C420 H405 0.959 . S
C420 H406 0.961 . S
C420 C419 1.502 . S
C421 H407 0.960 1_554 S
C421 H408 0.961 . S
C421 H409 0.959 1_554 S
C421 C419 1.561 . S
C422 C419 1.526 . S
C422 C423 1.393 1_455 S
C422 C427 1.390 . S
C423 C417 1.467 1_554 S
C423 C422 1.393 1_655 S
C423 C424 1.400 . S
C424 H410 0.929 1_554 S
C424 C423 1.400 . S
C424 C425 1.385 1_655 S
C425 H411 0.931 . S
C425 C424 1.385 1_455 S
C425 C426 1.389 . S
C426 C425 1.389 . S
C426 C427 1.387 . S
C427 H412 0.930 . S
C427 C422 1.390 . S
C427 C426 1.387 . S
H428 C440 0.930 . S
H429 C442 0.930 . S
H430 C443 0.930 . S
H431 C447 0.959 . S
H432 C447 0.959 . S
H433 C447 0.961 . S
H434 C448 0.960 . S
H435 C448 0.961 . S
H436 C448 0.959 . S
H437 C451 0.929 . S
H438 C452 0.931 . S
H439 C454 0.930 . S
C440 H428 0.930 . S
C440 C441 1.399 . S
C440 C445 1.399 . S
C441 C440 1.399 . S
C441 C442 1.376 . S
C442 H429 0.930 . S
C442 C441 1.376 . S
C442 C443 1.388 . S
C443 H430 0.930 . S
C443 C442 1.388 . S
C443 C444 1.390 . S
C444 C443 1.390 . S
C444 C445 1.394 . S
C444 C450 1.465 . S
C445 C440 1.399 . S
C445 C444 1.394 . S
C445 C446 1.516 . S
C446 C445 1.516 . S
C446 C447 1.502 . S
C446 C448 1.561 . S
C446 C449 1.526 . S
C447 H431 0.959 . S
C447 H432 0.959 . S
C447 H433 0.961 . S
C447 C446 1.502 . S
C448 H434 0.960 . S
C448 H435 0.961 . S
C448 H436 0.959 . S
C448 C446 1.561 . S
C449 C446 1.526 . S
C449 C450 1.396 . S
C449 C454 1.390 . S
C450 C444 1.465 . S
C450 C449 1.396 . S
C450 C451 1.399 . S
C451 H437 0.929 . S
C451 C450 1.399 . S
C451 C452 1.385 . S
C452 H438 0.931 . S
C452 C451 1.385 . S
C452 C453 1.389 . S
C453 C452 1.389 . S
C453 C454 1.387 . S
C454 H439 0.930 . S
C454 C449 1.390 . S
C454 C453 1.387 . S
H455 C467 0.930 . S
H456 C469 0.930 . S
H457 C470 0.930 . S
H458 C474 0.959 . S
H459 C474 0.959 . S
H460 C474 0.961 . S
H461 C475 0.960 . S
H462 C475 0.961 . S
H463 C475 0.959 . S
H464 C478 0.929 . S
H465 C479 0.931 . S
H466 C481 0.930 . S
C467 H455 0.930 . S
C467 C468 1.399 . S
C467 C472 1.399 . S
C468 C467 1.399 . S
C468 C469 1.376 . S
C469 H456 0.930 . S
C469 C468 1.376 . S
C469 C470 1.388 . S
C470 H457 0.930 . S
C470 C469 1.388 . S
C470 C471 1.390 . S
C471 C470 1.390 . S
C471 C472 1.394 . S
C471 C477 1.465 . S
C472 C467 1.399 . S
C472 C471 1.394 . S
C472 C473 1.516 . S
C473 C472 1.516 . S
C473 C474 1.502 . S
C473 C475 1.561 . S
C473 C476 1.526 . S
C474 H458 0.959 . S
C474 H459 0.959 . S
C474 H460 0.961 . S
C474 C473 1.502 . S
C475 H461 0.960 . S
C475 H462 0.961 . S
C475 H463 0.959 . S
C475 C473 1.561 . S
C476 C473 1.526 . S
C476 C477 1.396 . S
C476 C481 1.390 . S
C477 C471 1.465 . S
C477 C476 1.396 . S
C477 C478 1.399 . S
C478 H464 0.929 . S
C478 C477 1.399 . S
C478 C479 1.385 . S
C479 H465 0.931 . S
C479 C478 1.385 . S
C479 C480 1.389 . S
C480 C479 1.389 . S
C480 C481 1.387 . S
C481 H466 0.930 . S
C481 C476 1.390 . S
C481 C480 1.387 . S
H482 C494 0.930 1_455 S
H483 C496 0.930 . S
H484 C497 0.928 1_545 S
H485 C501 0.959 1_554 S
H486 C501 0.959 . S
H487 C501 0.961 1_554 S
H488 C502 0.960 . S
H489 C502 0.961 . S
H490 C502 0.959 1_655 S
H491 C505 0.929 . S
H492 C506 0.940 . S
H493 C508 0.930 . S
C494 H482 0.930 1_655 S
C494 C495 1.399 . S
C494 C499 1.401 . S
C495 C494 1.399 . S
C495 C496 1.376 . S
C496 H483 0.930 . S
C496 C495 1.376 . S
C496 C497 1.390 . S
C497 H484 0.928 1_565 S
C497 C496 1.390 . S
C497 C498 1.390 . S
C498 C497 1.390 . S
C498 C499 1.402 . S
C498 C504 1.465 1_564 S
C499 C494 1.401 . S
C499 C498 1.402 . S
C499 C500 1.507 1_654 S
C500 C499 1.507 1_456 S
C500 C501 1.502 . S
C500 C502 1.561 . S
C500 C503 1.526 1_565 S
C501 H485 0.959 1_556 S
C501 H486 0.959 . S
C501 H487 0.961 1_556 S
C501 C500 1.502 . S
C502 H488 0.960 . S
C502 H489 0.961 . S
C502 H490 0.959 1_455 S
C502 C500 1.561 . S
C503 C500 1.526 1_545 S
C503 C504 1.396 1_455 S
C503 C508 1.390 . S
C504 C498 1.465 1_546 S
C504 C503 1.396 1_655 S
C504 C505 1.399 . S
C505 H491 0.929 . S
C505 C504 1.399 . S
C505 C506 1.401 . S
C506 H492 0.940 . S
C506 C505 1.401 . S
C506 C507 1.365 1_655 S
C507 C506 1.365 1_455 S
C507 C508 1.387 . S
C508 H493 0.930 . S
C508 C503 1.390 . S
C508 C507 1.387 . S
H509 C521 0.930 . S
H510 C523 0.930 . S
H511 C524 0.930 . S
H512 C528 0.959 1_545 S
H513 C528 0.959 1_545 S
H514 C528 0.961 . S
H515 C529 0.960 . S
H516 C529 0.961 . S
H517 C529 0.959 . S
H518 C532 0.929 . S
H519 C533 0.931 . S
H520 C535 0.930 . S
C521 H509 0.930 . S
C521 C522 1.399 . S
C521 C526 1.399 . S
C522 C521 1.399 . S
C522 C523 1.376 . S
C523 H510 0.930 . S
C523 C522 1.376 . S
C523 C524 1.388 . S
C524 H511 0.930 . S
C524 C523 1.388 . S
C524 C525 1.390 . S
C525 C524 1.390 . S
C525 C526 1.394 . S
C525 C531 1.465 1_565 S
C526 C521 1.399 . S
C526 C525 1.394 . S
C526 C527 1.516 . S
C527 C526 1.516 . S
C527 C528 1.502 . S
C527 C529 1.561 . S
C527 C530 1.526 1_565 S
C528 H512 0.959 1_565 S
C528 H513 0.959 1_565 S
C528 H514 0.961 . S
C528 C527 1.502 . S
C529 H515 0.960 . S
C529 H516 0.961 . S
C529 H517 0.959 . S
C529 C527 1.561 . S
C530 C527 1.526 1_545 S
C530 C531 1.396 . S
C530 C535 1.390 . S
C531 C525 1.465 1_545 S
C531 C530 1.396 . S
C531 C532 1.399 . S
C532 H518 0.929 . S
C532 C531 1.399 . S
C532 C533 1.385 . S
C533 H519 0.931 . S
C533 C532 1.385 . S
C533 C534 1.389 . S
C534 C533 1.389 . S
C534 C535 1.387 . S
C535 H520 0.930 . S
C535 C530 1.390 . S
C535 C534 1.387 . S
H536 C548 0.930 . S
H537 C550 0.930 . S
H538 C551 0.930 1_565 S
H539 C555 0.959 . S
H540 C555 0.959 . S
H541 C555 0.961 . S
H542 C556 0.960 . S
H543 C556 0.961 1_554 S
H544 C556 0.959 1_554 S
H545 C559 0.929 1_565 S
H546 C560 0.931 . S
H547 C562 0.930 . S
C548 H536 0.930 . S
C548 C549 1.399 . S
C548 C553 1.399 . S
C549 C548 1.399 . S
C549 C550 1.376 . S
C550 H537 0.930 . S
C550 C549 1.376 . S
C550 C551 1.388 . S
C551 H538 0.930 1_545 S
C551 C550 1.388 . S
C551 C552 1.390 . S
C552 C551 1.390 . S
C552 C553 1.394 . S
C552 C558 1.465 1_556 S
C553 C548 1.399 . S
C553 C552 1.394 . S
C553 C554 1.516 . S
C554 C553 1.516 . S
C554 C555 1.502 . S
C554 C556 1.561 . S
C554 C557 1.526 1_556 S
C555 H539 0.959 . S
C555 H540 0.959 . S
C555 H541 0.961 . S
C555 C554 1.502 . S
C556 H542 0.960 . S
C556 H543 0.961 1_556 S
C556 H544 0.959 1_556 S
C556 C554 1.561 . S
C557 C554 1.526 1_554 S
C557 C558 1.396 . S
C557 C562 1.390 . S
C558 C552 1.465 1_554 S
C558 C557 1.396 . S
C558 C559 1.399 . S
C559 H545 0.929 1_545 S
C559 C558 1.399 . S
C559 C560 1.385 . S
C560 H546 0.931 . S
C560 C559 1.385 . S
C560 C561 1.389 . S
C561 C560 1.389 . S
C561 C562 1.387 . S
C562 H547 0.930 . S
C562 C557 1.390 . S
C562 C561 1.387 . S
H563 C575 0.930 . S
H564 C577 0.930 . S
H565 C578 0.930 . S
H566 C582 0.959 . S
H567 C582 0.959 . S
H568 C582 0.961 . S
H569 C583 0.960 . S
H570 C583 0.961 . S
H571 C583 0.959 . S
H572 C586 0.929 . S
H573 C587 0.931 . S
H574 C589 0.930 . S
C575 H563 0.930 . S
C575 C576 1.399 . S
C575 C580 1.399 . S
C576 C575 1.399 . S
C576 C577 1.376 . S
C577 H564 0.930 . S
C577 C576 1.376 . S
C577 C578 1.388 . S
C578 H565 0.930 . S
C578 C577 1.388 . S
C578 C579 1.390 . S
C579 C578 1.390 . S
C579 C580 1.394 . S
C579 C585 1.465 . S
C580 C575 1.399 . S
C580 C579 1.394 . S
C580 C581 1.516 . S
C581 C580 1.516 . S
C581 C582 1.502 . S
C581 C583 1.561 . S
C581 C584 1.526 . S
C582 H566 0.959 . S
C582 H567 0.959 . S
C582 H568 0.961 . S
C582 C581 1.502 . S
C583 H569 0.960 . S
C583 H570 0.961 . S
C583 H571 0.959 . S
C583 C581 1.561 . S
C584 C581 1.526 . S
C584 C585 1.396 . S
C584 C589 1.390 . S
C585 C579 1.465 . S
C585 C584 1.396 . S
C585 C586 1.399 . S
C586 H572 0.929 . S
C586 C585 1.399 . S
C586 C587 1.385 . S
C587 H573 0.931 . S
C587 C586 1.385 . S
C587 C588 1.389 . S
C588 C587 1.389 . S
C588 C589 1.387 . S
C589 H574 0.930 . S
C589 C584 1.390 . S
C589 C588 1.387 . S
H590 C602 0.930 . S
H591 C604 0.930 . S
H592 C605 0.930 . S
H593 C609 0.959 . S
H594 C609 0.959 . S
H595 C609 0.961 . S
H596 C610 0.960 . S
H597 C610 0.961 1_545 S
H598 C610 0.959 . S
H599 C613 0.929 . S
H600 C614 0.931 . S
H601 C616 0.930 . S
C602 H590 0.930 . S
C602 C603 1.399 . S
C602 C607 1.399 . S
C603 C602 1.399 . S
C603 C604 1.376 . S
C604 H591 0.930 . S
C604 C603 1.376 . S
C604 C605 1.388 . S
C605 H592 0.930 . S
C605 C604 1.388 . S
C605 C606 1.390 . S
C606 C605 1.390 . S
C606 C607 1.394 . S
C606 C612 1.465 . S
C607 C602 1.399 . S
C607 C606 1.394 . S
C607 C608 1.516 . S
C608 C607 1.516 . S
C608 C609 1.502 1_565 S
C608 C610 1.561 . S
C608 C611 1.526 . S
C609 H593 0.959 . S
C609 H594 0.959 . S
C609 H595 0.961 . S
C609 C608 1.502 1_545 S
C610 H596 0.960 . S
C610 H597 0.961 1_565 S
C610 H598 0.959 . S
C610 C608 1.561 . S
C611 C608 1.526 . S
C611 C612 1.396 . S
C611 C616 1.390 . S
C612 C606 1.465 . S
C612 C611 1.396 . S
C612 C613 1.399 . S
C613 H599 0.929 . S
C613 C612 1.399 . S
C613 C614 1.385 . S
C614 H600 0.931 . S
C614 C613 1.385 . S
C614 C615 1.389 . S
C615 C614 1.389 . S
C615 C616 1.387 . S
C616 H601 0.930 . S
C616 C611 1.390 . S
C616 C615 1.387 . S
H617 C629 0.930 . S
H618 C631 0.930 . S
H619 C632 0.930 . S
H620 C636 0.959 . S
H621 C636 0.959 . S
H622 C636 0.961 . S
H623 C637 0.960 . S
H624 C637 0.961 . S
H625 C637 0.959 . S
H626 C640 0.929 . S
H627 C641 0.931 . S
H628 C643 0.930 . S
C629 H617 0.930 . S
C629 C630 1.399 . S
C629 C634 1.399 . S
C630 C629 1.399 . S
C630 C631 1.376 . S
C631 H618 0.930 . S
C631 C630 1.376 . S
C631 C632 1.388 . S
C632 H619 0.930 . S
C632 C631 1.388 . S
C632 C633 1.390 . S
C633 C632 1.390 . S
C633 C634 1.394 . S
C633 C639 1.465 . S
C634 C629 1.399 . S
C634 C633 1.394 . S
C634 C635 1.516 . S
C635 C634 1.516 . S
C635 C636 1.502 . S
C635 C637 1.561 . S
C635 C638 1.526 . S
C636 H620 0.959 . S
C636 H621 0.959 . S
C636 H622 0.961 . S
C636 C635 1.502 . S
C637 H623 0.960 . S
C637 H624 0.961 . S
C637 H625 0.959 . S
C637 C635 1.561 . S
C638 C635 1.526 . S
C638 C639 1.396 . S
C638 C643 1.390 . S
C639 C633 1.465 . S
C639 C638 1.396 . S
C639 C640 1.399 . S
C640 H626 0.929 . S
C640 C639 1.399 . S
C640 C641 1.385 . S
C641 H627 0.931 . S
C641 C640 1.385 . S
C641 C642 1.389 . S
C642 C641 1.389 . S
C642 C643 1.387 . S
C643 H628 0.930 . S
C643 C638 1.390 . S
C643 C642 1.387 . S
H644 C656 0.930 . S
H645 C658 0.930 . S
H646 C659 0.939 . S
H647 C663 0.959 1_556 S
H648 C663 0.959 1_556 S
H649 C663 0.961 . S
H650 C664 0.960 . S
H651 C664 0.961 . S
H652 C664 0.959 . S
H653 C667 0.929 . S
H654 C668 0.931 . S
H655 C670 0.930 . S
C656 H644 0.930 . S
C656 C657 1.399 . S
C656 C661 1.399 . S
C657 C656 1.399 . S
C657 C658 1.376 . S
C658 H645 0.930 . S
C658 C657 1.376 . S
C658 C659 1.388 . S
C659 H646 0.939 . S
C659 C658 1.388 . S
C659 C660 1.390 . S
C660 C659 1.390 . S
C660 C661 1.394 . S
C660 C666 1.454 1_554 S
C661 C656 1.399 . S
C661 C660 1.394 . S
C661 C662 1.516 . S
C662 C661 1.516 . S
C662 C663 1.502 . S
C662 C664 1.561 . S
C662 C665 1.526 1_554 S
C663 H647 0.959 1_554 S
C663 H648 0.959 1_554 S
C663 H649 0.961 . S
C663 C662 1.502 . S
C664 H650 0.960 . S
C664 H651 0.961 . S
C664 H652 0.959 . S
C664 C662 1.561 . S
C665 C662 1.526 1_556 S
C665 C666 1.401 . S
C665 C670 1.390 . S
C666 C660 1.454 1_556 S
C666 C665 1.401 . S
C666 C667 1.405 . S
C667 H653 0.929 . S
C667 C666 1.405 . S
C667 C668 1.385 . S
C668 H654 0.931 . S
C668 C667 1.385 . S
C668 C669 1.389 . S
C669 C668 1.389 . S
C669 C670 1.387 . S
C670 H655 0.930 . S
C670 C665 1.390 . S
C670 C669 1.387 . S
H671 C683 0.930 . S
H672 C685 0.930 . S
H673 C686 0.930 . S
H674 C690 0.959 . S
H675 C690 0.959 . S
H676 C690 0.961 . S
H677 C691 0.960 . S
H678 C691 0.961 . S
H679 C691 0.959 . S
H680 C694 0.929 . S
H681 C695 0.931 . S
H682 C697 0.930 . S
C683 H671 0.930 . S
C683 C684 1.399 . S
C683 C688 1.399 . S
C684 C683 1.399 . S
C684 C685 1.376 . S
C685 H672 0.930 . S
C685 C684 1.376 . S
C685 C686 1.388 . S
C686 H673 0.930 . S
C686 C685 1.388 . S
C686 C687 1.390 . S
C687 C686 1.390 . S
C687 C688 1.394 . S
C687 C693 1.465 . S
C688 C683 1.399 . S
C688 C687 1.394 . S
C688 C689 1.516 . S
C689 C688 1.516 . S
C689 C690 1.502 . S
C689 C691 1.561 . S
C689 C692 1.526 . S
C690 H674 0.959 . S
C690 H675 0.959 . S
C690 H676 0.961 . S
C690 C689 1.502 . S
C691 H677 0.960 . S
C691 H678 0.961 . S
C691 H679 0.959 . S
C691 C689 1.561 . S
C692 C689 1.526 . S
C692 C693 1.396 . S
C692 C697 1.390 . S
C693 C687 1.465 . S
C693 C692 1.396 . S
C693 C694 1.399 . S
C694 H680 0.929 . S
C694 C693 1.399 . S
C694 C695 1.385 . S
C695 H681 0.931 . S
C695 C694 1.385 . S
C695 C696 1.389 . S
C696 C695 1.389 . S
C696 C697 1.387 . S
C697 H682 0.930 . S
C697 C692 1.390 . S
C697 C696 1.387 . S
H698 C710 0.930 . S
H699 C712 0.930 . S
H700 C713 0.930 . S
H701 C717 0.959 . S
H702 C717 0.959 . S
H703 C717 0.961 . S
H704 C718 0.960 . S
H705 C718 0.961 . S
H706 C718 0.959 . S
H707 C721 0.906 1_565 S
H708 C722 0.931 . S
H709 C724 0.930 . S
C710 H698 0.930 . S
C710 C711 1.399 . S
C710 C715 1.399 . S
C711 C710 1.399 . S
C711 C712 1.376 . S
C712 H699 0.930 . S
C712 C711 1.376 . S
C712 C713 1.388 . S
C713 H700 0.930 . S
C713 C712 1.388 . S
C713 C714 1.390 . S
C714 C713 1.390 . S
C714 C715 1.394 . S
C714 C720 1.465 . S
C715 C710 1.399 . S
C715 C714 1.394 . S
C715 C716 1.516 . S
C716 C715 1.516 . S
C716 C717 1.502 . S
C716 C718 1.561 . S
C716 C719 1.526 . S
C717 H701 0.959 . S
C717 H702 0.959 . S
C717 H703 0.961 . S
C717 C716 1.502 . S
C718 H704 0.960 . S
C718 H705 0.961 . S
C718 H706 0.959 . S
C718 C716 1.561 . S
C719 C716 1.526 . S
C719 C720 1.396 . S
C719 C724 1.390 . S
C720 C714 1.465 . S
C720 C719 1.396 . S
C720 C721 1.399 . S
C721 H707 0.906 1_545 S
C721 C720 1.399 . S
C721 C722 1.385 . S
C722 H708 0.931 . S
C722 C721 1.385 . S
C722 C723 1.389 . S
C723 C722 1.389 . S
C723 C724 1.387 . S
C724 H709 0.930 . S
C724 C719 1.390 . S
C724 C723 1.387 . S
H725 C737 0.930 . S
H726 C739 0.930 . S
H727 C740 0.930 . S
H728 C744 0.959 . S
H729 C744 0.959 . S
H730 C744 0.961 . S
H731 C745 0.960 . S
H732 C745 0.961 . S
H733 C745 0.959 . S
H734 C748 0.929 . S
H735 C749 0.931 . S
H736 C751 0.930 . S
C737 H725 0.930 . S
C737 C738 1.399 . S
C737 C742 1.399 . S
C738 C737 1.399 . S
C738 C739 1.376 . S
C739 H726 0.930 . S
C739 C738 1.376 . S
C739 C740 1.388 . S
C740 H727 0.930 . S
C740 C739 1.388 . S
C740 C741 1.390 . S
C741 C740 1.390 . S
C741 C742 1.394 . S
C741 C747 1.465 . S
C742 C737 1.399 . S
C742 C741 1.394 . S
C742 C743 1.516 . S
C743 C742 1.516 . S
C743 C744 1.502 . S
C743 C745 1.561 . S
C743 C746 1.526 . S
C744 H728 0.959 . S
C744 H729 0.959 . S
C744 H730 0.961 . S
C744 C743 1.502 . S
C745 H731 0.960 . S
C745 H732 0.961 . S
C745 H733 0.959 . S
C745 C743 1.561 . S
C746 C743 1.526 . S
C746 C747 1.396 . S
C746 C751 1.390 . S
C747 C741 1.465 . S
C747 C746 1.396 . S
C747 C748 1.399 . S
C748 H734 0.929 . S
C748 C747 1.399 . S
C748 C749 1.385 . S
C749 H735 0.931 . S
C749 C748 1.385 . S
C749 C750 1.389 . S
C750 C749 1.389 . S
C750 C751 1.387 . S
C751 H736 0.930 . S
C751 C746 1.390 . S
C751 C750 1.387 . S
H752 C764 0.930 . S
H753 C766 0.930 . S
H754 C767 0.930 . S
H755 C771 0.959 . S
H756 C771 0.959 . S
H757 C771 0.961 . S
H758 C772 0.960 . S
H759 C772 0.961 . S
H760 C772 0.959 . S
H761 C775 0.929 . S
H762 C776 0.931 . S
H763 C778 0.930 . S
C764 H752 0.930 . S
C764 C765 1.399 . S
C764 C769 1.399 . S
C765 C764 1.399 . S
C765 C766 1.376 . S
C766 H753 0.930 . S
C766 C765 1.376 . S
C766 C767 1.388 . S
C767 H754 0.930 . S
C767 C766 1.388 . S
C767 C768 1.390 . S
C768 C767 1.390 . S
C768 C769 1.394 . S
C768 C774 1.465 . S
C769 C764 1.399 . S
C769 C768 1.394 . S
C769 C770 1.516 . S
C770 C769 1.516 . S
C770 C771 1.502 . S
C770 C772 1.561 . S
C770 C773 1.526 . S
C771 H755 0.959 . S
C771 H756 0.959 . S
C771 H757 0.961 . S
C771 C770 1.502 . S
C772 H758 0.960 . S
C772 H759 0.961 . S
C772 H760 0.959 . S
C772 C770 1.561 . S
C773 C770 1.526 . S
C773 C774 1.396 . S
C773 C778 1.390 . S
C774 C768 1.465 . S
C774 C773 1.396 . S
C774 C775 1.399 . S
C775 H761 0.929 . S
C775 C774 1.399 . S
C775 C776 1.385 . S
C776 H762 0.931 . S
C776 C775 1.385 . S
C776 C777 1.389 . S
C777 C776 1.389 . S
C777 C778 1.387 . S
C778 H763 0.930 . S
C778 C773 1.390 . S
C778 C777 1.387 . S
H779 C791 0.930 . S
H780 C793 0.930 . S
H781 C794 0.930 . S
H782 C798 0.959 1_565 S
H783 C798 0.959 . S
H784 C798 0.961 . S
H785 C799 0.960 . S
H786 C799 0.961 . S
H787 C799 0.959 . S
H788 C802 0.929 . S
H789 C803 0.931 . S
H790 C805 0.930 . S
C791 H779 0.930 . S
C791 C792 1.399 1_545 S
C791 C796 1.399 1_545 S
C792 C791 1.399 1_565 S
C792 C793 1.376 . S
C793 H780 0.930 . S
C793 C792 1.376 . S
C793 C794 1.388 . S
C794 H781 0.930 . S
C794 C793 1.388 . S
C794 C795 1.390 . S
C795 C794 1.390 . S
C795 C796 1.394 . S
C795 C801 1.465 . S
C796 C791 1.399 1_565 S
C796 C795 1.394 . S
C796 C797 1.516 1_565 S
C797 C796 1.516 1_545 S
C797 C798 1.502 . S
C797 C799 1.561 . S
C797 C800 1.526 1_545 S
C798 H782 0.959 1_545 S
C798 H783 0.959 . S
C798 H784 0.961 . S
C798 C797 1.502 . S
C799 H785 0.960 . S
C799 H786 0.961 . S
C799 H787 0.959 . S
C799 C797 1.561 . S
C800 C797 1.526 1_565 S
C800 C801 1.396 . S
C800 C805 1.390 . S
C801 C795 1.465 . S
C801 C800 1.396 . S
C801 C802 1.399 . S
C802 H788 0.929 . S
C802 C801 1.399 . S
C802 C803 1.385 . S
C803 H789 0.931 . S
C803 C802 1.385 . S
C803 C804 1.389 . S
C804 C803 1.389 . S
C804 C805 1.387 . S
C805 H790 0.930 . S
C805 C800 1.390 . S
C805 C804 1.387 . S
H806 C818 0.930 . S
H807 C820 0.930 . S
H808 C821 0.930 . S
H809 C825 0.959 1_554 S
H810 C825 0.963 . S
H811 C825 0.956 1_554 S
H812 C826 0.929 1_554 S
H813 C826 0.961 . S
H814 C826 0.959 . S
H815 C829 0.929 . S
H816 C830 0.931 . S
H817 C832 0.930 . S
C818 H806 0.930 . S
C818 C819 1.399 . S
C818 C823 1.399 . S
C819 C818 1.399 . S
C819 C820 1.376 . S
C820 H807 0.930 . S
C820 C819 1.376 . S
C820 C821 1.388 . S
C821 H808 0.930 . S
C821 C820 1.388 . S
C821 C822 1.385 1_554 S
C822 C821 1.385 1_556 S
C822 C823 1.390 1_556 S
C822 C828 1.473 . S
C823 C818 1.399 . S
C823 C822 1.390 1_554 S
C823 C824 1.516 1_554 S
C824 C823 1.516 1_556 S
C824 C825 1.503 . S
C824 C826 1.561 . S
C824 C827 1.526 . S
C825 H809 0.959 1_556 S
C825 H810 0.963 . S
C825 H811 0.956 1_556 S
C825 C824 1.503 . S
C826 H812 0.929 1_556 S
C826 H813 0.961 . S
C826 H814 0.959 . S
C826 C824 1.561 . S
C827 C824 1.526 . S
C827 C828 1.396 . S
C827 C832 1.390 . S
C828 C822 1.473 . S
C828 C827 1.396 . S
C828 C829 1.399 . S
C829 H815 0.929 . S
C829 C828 1.399 . S
C829 C830 1.385 . S
C830 H816 0.931 . S
C830 C829 1.385 . S
C830 C831 1.389 . S
C831 C830 1.389 . S
C831 C832 1.387 . S
C832 H817 0.930 . S
C832 C827 1.390 . S
C832 C831 1.387 . S
H833 C845 0.930 . S
H834 C847 0.930 . S
H835 C848 0.930 . S
H836 C852 0.959 . S
H837 C852 0.959 . S
H838 C852 0.961 . S
H839 C853 0.960 . S
H840 C853 0.961 . S
H841 C853 0.959 . S
H842 C856 0.929 . S
H843 C857 0.931 . S
H844 C859 0.930 1_565 S
C845 H833 0.930 . S
C845 C846 1.399 . S
C845 C850 1.399 . S
C846 C845 1.399 . S
C846 C847 1.376 . S
C847 H834 0.930 . S
C847 C846 1.376 . S
C847 C848 1.388 . S
C848 H835 0.930 . S
C848 C847 1.388 . S
C848 C849 1.390 . S
C849 C848 1.390 . S
C849 C850 1.394 . S
C849 C855 1.465 . S
C850 C845 1.399 . S
C850 C849 1.394 . S
C850 C851 1.516 . S
C851 C850 1.516 . S
C851 C852 1.502 . S
C851 C853 1.561 1_545 S
C851 C854 1.526 . S
C852 H836 0.959 . S
C852 H837 0.959 . S
C852 H838 0.961 . S
C852 C851 1.502 . S
C853 H839 0.960 . S
C853 H840 0.961 . S
C853 H841 0.959 . S
C853 C851 1.561 1_565 S
C854 C851 1.526 . S
C854 C855 1.396 . S
C854 C859 1.390 . S
C855 C849 1.465 . S
C855 C854 1.396 . S
C855 C856 1.399 . S
C856 H842 0.929 . S
C856 C855 1.399 . S
C856 C857 1.385 . S
C857 H843 0.931 . S
C857 C856 1.385 . S
C857 C858 1.389 . S
C858 C857 1.389 . S
C858 C859 1.387 . S
C859 H844 0.930 1_545 S
C859 C854 1.390 . S
C859 C858 1.387 . S
H860 C872 0.930 . S
H861 C874 0.930 . S
H862 C875 0.930 . S
H863 C879 0.959 . S
H864 C879 0.959 . S
H865 C879 0.961 . S
H866 C880 0.960 . S
H867 C880 0.961 . S
H868 C880 0.959 . S
H869 C883 0.929 . S
H870 C884 0.931 . S
H871 C886 0.930 . S
C872 H860 0.930 . S
C872 C873 1.399 . S
C872 C877 1.399 . S
C873 C872 1.399 . S
C873 C874 1.376 . S
C874 H861 0.930 . S
C874 C873 1.376 . S
C874 C875 1.388 . S
C875 H862 0.930 . S
C875 C874 1.388 . S
C875 C876 1.390 . S
C876 C875 1.390 . S
C876 C877 1.394 . S
C876 C882 1.465 . S
C877 C872 1.399 . S
C877 C876 1.394 . S
C877 C878 1.516 . S
C878 C877 1.516 . S
C878 C879 1.502 . S
C878 C880 1.561 . S
C878 C881 1.526 . S
C879 H863 0.959 . S
C879 H864 0.959 . S
C879 H865 0.961 . S
C879 C878 1.502 . S
C880 H866 0.960 . S
C880 H867 0.961 . S
C880 H868 0.959 . S
C880 C878 1.561 . S
C881 C878 1.526 . S
C881 C882 1.396 . S
C881 C886 1.390 . S
C882 C876 1.465 . S
C882 C881 1.396 . S
C882 C883 1.399 . S
C883 H869 0.929 . S
C883 C882 1.399 . S
C883 C884 1.385 . S
C884 H870 0.931 . S
C884 C883 1.385 . S
C884 C885 1.389 . S
C885 C884 1.389 . S
C885 C886 1.387 . S
C886 H871 0.930 . S
C886 C881 1.390 . S
C886 C885 1.387 . S
H887 C899 0.930 . S
H888 C901 0.930 . S
H889 C902 0.930 . S
H890 C906 0.959 . S
H891 C906 0.959 . S
H892 C906 0.961 . S
H893 C907 0.960 . S
H894 C907 0.961 . S
H895 C907 0.959 . S
H896 C910 0.929 1_565 S
H897 C911 0.931 . S
H898 C913 0.930 . S
C899 H887 0.930 . S
C899 C900 1.399 . S
C899 C904 1.399 . S
C900 C899 1.399 . S
C900 C901 1.376 1_545 S
C901 H888 0.930 . S
C901 C900 1.376 1_565 S
C901 C902 1.388 . S
C902 H889 0.930 . S
C902 C901 1.388 . S
C902 C903 1.390 1_565 S
C903 C902 1.390 1_545 S
C903 C904 1.394 . S
C903 C909 1.465 . S
C904 C899 1.399 . S
C904 C903 1.394 . S
C904 C905 1.516 . S
C905 C904 1.516 . S
C905 C906 1.502 . S
C905 C907 1.561 . S
C905 C908 1.526 . S
C906 H890 0.959 . S
C906 H891 0.959 . S
C906 H892 0.961 . S
C906 C905 1.502 . S
C907 H893 0.960 . S
C907 H894 0.961 . S
C907 H895 0.959 . S
C907 C905 1.561 . S
C908 C905 1.526 . S
C908 C909 1.396 . S
C908 C913 1.390 . S
C909 C903 1.465 . S
C909 C908 1.396 . S
C909 C910 1.399 . S
C910 H896 0.929 1_545 S
C910 C909 1.399 . S
C910 C911 1.385 . S
C911 H897 0.931 . S
C911 C910 1.385 . S
C911 C912 1.389 . S
C912 C911 1.389 . S
C912 C913 1.387 . S
C913 H898 0.930 . S
C913 C908 1.390 . S
C913 C912 1.387 . S
H914 C926 0.930 . S
H915 C928 0.930 . S
H916 C929 0.930 . S
H917 C933 0.959 . S
H918 C933 0.959 . S
H919 C933 0.961 . S
H920 C934 0.960 . S
H921 C934 0.961 1_556 S
H922 C934 0.959 1_556 S
H923 C937 0.929 . S
H924 C938 0.931 . S
H925 C940 0.930 . S
C926 H914 0.930 . S
C926 C927 1.399 . S
C926 C931 1.399 . S
C927 C926 1.399 . S
C927 C928 1.376 . S
C928 H915 0.930 . S
C928 C927 1.376 . S
C928 C929 1.388 . S
C929 H916 0.930 . S
C929 C928 1.388 . S
C929 C930 1.390 . S
C930 C929 1.390 . S
C930 C931 1.394 . S
C930 C936 1.465 1_554 S
C931 C926 1.399 . S
C931 C930 1.394 . S
C931 C932 1.516 . S
C932 C931 1.516 . S
C932 C933 1.502 . S
C932 C934 1.561 . S
C932 C935 1.526 1_554 S
C933 H917 0.959 . S
C933 H918 0.959 . S
C933 H919 0.961 . S
C933 C932 1.502 . S
C934 H920 0.960 . S
C934 H921 0.961 1_554 S
C934 H922 0.959 1_554 S
C934 C932 1.561 . S
C935 C932 1.526 1_556 S
C935 C936 1.396 . S
C935 C940 1.390 . S
C936 C930 1.465 1_556 S
C936 C935 1.396 . S
C936 C937 1.399 . S
C937 H923 0.929 . S
C937 C936 1.399 . S
C937 C938 1.385 . S
C938 H924 0.931 . S
C938 C937 1.385 . S
C938 C939 1.389 . S
C939 C938 1.389 . S
C939 C940 1.387 . S
C940 H925 0.930 . S
C940 C935 1.390 . S
C940 C939 1.387 . S
H941 C953 0.930 . S
H942 C955 0.930 . S
H943 C956 0.930 . S
H944 C960 0.959 . S
H945 C960 0.959 . S
H946 C960 0.961 . S
H947 C961 0.960 . S
H948 C961 0.961 . S
H949 C961 0.959 . S
H950 C964 0.929 . S
H951 C965 0.931 . S
H952 C967 0.930 . S
C953 H941 0.930 . S
C953 C954 1.399 1_545 S
C953 C958 1.399 1_545 S
C954 C953 1.399 1_565 S
C954 C955 1.376 . S
C955 H942 0.930 . S
C955 C954 1.376 . S
C955 C956 1.388 . S
C956 H943 0.930 . S
C956 C955 1.388 . S
C956 C957 1.390 . S
C957 C956 1.390 . S
C957 C958 1.394 . S
C957 C963 1.465 . S
C958 C953 1.399 1_565 S
C958 C957 1.394 . S
C958 C959 1.516 . S
C959 C958 1.516 . S
C959 C960 1.502 . S
C959 C961 1.561 1_565 S
C959 C962 1.526 . S
C960 H944 0.959 . S
C960 H945 0.959 . S
C960 H946 0.961 . S
C960 C959 1.502 . S
C961 H947 0.960 . S
C961 H948 0.961 . S
C961 H949 0.959 . S
C961 C959 1.561 1_545 S
C962 C959 1.526 . S
C962 C963 1.396 . S
C962 C967 1.390 . S
C963 C957 1.465 . S
C963 C962 1.396 . S
C963 C964 1.399 . S
C964 H950 0.929 . S
C964 C963 1.399 . S
C964 C965 1.385 . S
C965 H951 0.931 . S
C965 C964 1.385 . S
C965 C966 1.389 . S
C966 C965 1.389 . S
C966 C967 1.387 . S
C967 H952 0.930 . S
C967 C962 1.390 . S
C967 C966 1.387 . S
H968 C980 0.930 . S
H969 C982 0.930 . S
H970 C983 0.930 . S
H971 C987 0.959 . S
H972 C987 0.959 . S
H973 C987 0.961 . S
H974 C988 0.960 . S
H975 C988 0.961 . S
H976 C988 0.959 . S
H977 C991 0.929 . S
H978 C992 0.931 . S
H979 C994 0.930 . S
C980 H968 0.930 . S
C980 C981 1.399 . S
C980 C985 1.399 . S
C981 C980 1.399 . S
C981 C982 1.376 . S
C982 H969 0.930 . S
C982 C981 1.376 . S
C982 C983 1.388 . S
C983 H970 0.930 . S
C983 C982 1.388 . S
C983 C984 1.390 . S
C984 C983 1.390 . S
C984 C985 1.394 . S
C984 C990 1.465 . S
C985 C980 1.399 . S
C985 C984 1.394 . S
C985 C986 1.516 . S
C986 C985 1.516 . S
C986 C987 1.502 . S
C986 C988 1.561 . S
C986 C989 1.526 . S
C987 H971 0.959 . S
C987 H972 0.959 . S
C987 H973 0.961 . S
C987 C986 1.502 . S
C988 H974 0.960 . S
C988 H975 0.961 . S
C988 H976 0.959 . S
C988 C986 1.561 . S
C989 C986 1.526 . S
C989 C990 1.396 . S
C989 C994 1.390 . S
C990 C984 1.465 . S
C990 C989 1.396 . S
C990 C991 1.399 . S
C991 H977 0.929 . S
C991 C990 1.399 . S
C991 C992 1.385 . S
C992 H978 0.931 . S
C992 C991 1.385 . S
C992 C993 1.389 . S
C993 C992 1.389 . S
C993 C994 1.387 . S
C994 H979 0.930 . S
C994 C989 1.390 . S
C994 C993 1.387 . S
H995 C1007 0.930 . S
H996 C1009 0.930 . S
H997 C1010 0.930 . S
H998 C1014 0.959 . S
H999 C1014 0.959 . S
H1000 C1014 0.961 . S
H1001 C1015 0.960 . S
H1002 C1015 0.961 . S
H1003 C1015 0.959 . S
H1004 C1018 0.929 . S
H1005 C1019 0.931 . S
H1006 C1021 0.930 . S
C1007 H995 0.930 . S
C1007 C1008 1.399 . S
C1007 C1012 1.399 . S
C1008 C1007 1.399 . S
C1008 C1009 1.376 . S
C1009 H996 0.930 . S
C1009 C1008 1.376 . S
C1009 C1010 1.388 . S
C1010 H997 0.930 . S
C1010 C1009 1.388 . S
C1010 C1011 1.390 . S
C1011 C1010 1.390 . S
C1011 C1012 1.394 . S
C1011 C1017 1.465 . S
C1012 C1007 1.399 . S
C1012 C1011 1.394 . S
C1012 C1013 1.516 . S
C1013 C1012 1.516 . S
C1013 C1014 1.502 . S
C1013 C1015 1.561 . S
C1013 C1016 1.526 . S
C1014 H998 0.959 . S
C1014 H999 0.959 . S
C1014 H1000 0.961 . S
C1014 C1013 1.502 . S
C1015 H1001 0.960 . S
C1015 H1002 0.961 . S
C1015 H1003 0.959 . S
C1015 C1013 1.561 . S
C1016 C1013 1.526 . S
C1016 C1017 1.396 . S
C1016 C1021 1.390 . S
C1017 C1011 1.465 . S
C1017 C1016 1.396 . S
C1017 C1018 1.399 . S
C1018 H1004 0.929 . S
C1018 C1017 1.399 . S
C1018 C1019 1.385 . S
C1019 H1005 0.931 . S
C1019 C1018 1.385 . S
C1019 C1020 1.389 . S
C1020 C1019 1.389 . S
C1020 C1021 1.387 . S
C1021 H1006 0.930 . S
C1021 C1016 1.390 . S
C1021 C1020 1.387 . S
H1022 C1034 0.930 . S
H1023 C1036 0.930 . S
H1024 C1037 0.930 . S
H1025 C1041 0.959 . S
H1026 C1041 0.959 . S
H1027 C1041 0.961 . S
H1028 C1042 0.956 1_655 S
H1029 C1042 0.964 . S
H1030 C1042 0.961 . S
H1031 C1045 0.929 . S
H1032 C1046 0.931 . S
H1033 C1048 0.930 . S
C1034 H1022 0.930 . S
C1034 C1035 1.399 . S
C1034 C1039 1.399 . S
C1035 C1034 1.399 . S
C1035 C1036 1.376 . S
C1036 H1023 0.930 . S
C1036 C1035 1.376 . S
C1036 C1037 1.388 . S
C1037 H1024 0.930 . S
C1037 C1036 1.388 . S
C1037 C1038 1.390 . S
C1038 C1037 1.390 . S
C1038 C1039 1.394 . S
C1038 C1044 1.465 1_655 S
C1039 C1034 1.399 . S
C1039 C1038 1.394 . S
C1039 C1040 1.516 . S
C1040 C1039 1.516 . S
C1040 C1041 1.502 . S
C1040 C1042 1.560 1_655 S
C1040 C1043 1.526 1_655 S
C1041 H1025 0.959 . S
C1041 H1026 0.959 . S
C1041 H1027 0.961 . S
C1041 C1040 1.502 . S
C1042 H1028 0.956 1_455 S
C1042 H1029 0.964 . S
C1042 H1030 0.961 . S
C1042 C1040 1.560 1_455 S
C1043 C1040 1.526 1_455 S
C1043 C1044 1.396 . S
C1043 C1048 1.390 . S
C1044 C1038 1.465 1_455 S
C1044 C1043 1.396 . S
C1044 C1045 1.399 . S
C1045 H1031 0.929 . S
C1045 C1044 1.399 . S
C1045 C1046 1.385 . S
C1046 H1032 0.931 . S
C1046 C1045 1.385 . S
C1046 C1047 1.389 . S
C1047 C1046 1.389 . S
C1047 C1048 1.387 . S
C1048 H1033 0.930 . S
C1048 C1043 1.390 . S
C1048 C1047 1.387 . S
H1049 C1061 0.930 . S
H1050 C1063 0.930 . S
H1051 C1064 0.930 . S
H1052 C1068 0.959 . S
H1053 C1068 0.959 . S
H1054 C1068 0.961 . S
H1055 C1069 0.960 . S
H1056 C1069 0.961 . S
H1057 C1069 0.959 . S
H1058 C1072 0.929 . S
H1059 C1073 0.931 . S
H1060 C1075 0.930 1_655 S
C1061 H1049 0.930 . S
C1061 C1062 1.399 . S
C1061 C1066 1.399 . S
C1062 C1061 1.399 . S
C1062 C1063 1.376 1_655 S
C1063 H1050 0.930 . S
C1063 C1062 1.376 1_455 S
C1063 C1064 1.388 . S
C1064 H1051 0.930 . S
C1064 C1063 1.388 . S
C1064 C1065 1.390 . S
C1065 C1064 1.390 . S
C1065 C1066 1.394 1_455 S
C1065 C1071 1.465 . S
C1066 C1061 1.399 . S
C1066 C1065 1.394 1_655 S
C1066 C1067 1.516 . S
C1067 C1066 1.516 . S
C1067 C1068 1.502 . S
C1067 C1069 1.561 . S
C1067 C1070 1.526 . S
C1068 H1052 0.959 . S
C1068 H1053 0.959 . S
C1068 H1054 0.961 . S
C1068 C1067 1.502 . S
C1069 H1055 0.960 . S
C1069 H1056 0.961 . S
C1069 H1057 0.959 . S
C1069 C1067 1.561 . S
C1070 C1067 1.526 . S
C1070 C1071 1.396 1_655 S
C1070 C1075 1.390 1_655 S
C1071 C1065 1.465 . S
C1071 C1070 1.396 1_455 S
C1071 C1072 1.399 . S
C1072 H1058 0.929 . S
C1072 C1071 1.399 . S
C1072 C1073 1.385 . S
C1073 H1059 0.931 . S
C1073 C1072 1.385 . S
C1073 C1074 1.389 . S
C1074 C1073 1.389 . S
C1074 C1075 1.387 . S
C1075 H1060 0.930 1_455 S
C1075 C1070 1.390 1_455 S
C1075 C1074 1.387 . S
H1076 C1088 0.930 . S
H1077 C1090 0.930 . S
H1078 C1091 0.930 . S
H1079 C1095 0.959 . S
H1080 C1095 0.959 . S
H1081 C1095 0.961 . S
H1082 C1096 0.960 . S
H1083 C1096 0.961 . S
H1084 C1096 0.959 . S
H1085 C1099 0.929 . S
H1086 C1100 0.931 . S
H1087 C1102 0.930 . S
C1088 H1076 0.930 . S
C1088 C1089 1.399 . S
C1088 C1093 1.399 . S
C1089 C1088 1.399 . S
C1089 C1090 1.376 . S
C1090 H1077 0.930 . S
C1090 C1089 1.376 . S
C1090 C1091 1.388 . S
C1091 H1078 0.930 . S
C1091 C1090 1.388 . S
C1091 C1092 1.390 . S
C1092 C1091 1.390 . S
C1092 C1093 1.394 . S
C1092 C1098 1.465 . S
C1093 C1088 1.399 . S
C1093 C1092 1.394 . S
C1093 C1094 1.516 . S
C1094 C1093 1.516 . S
C1094 C1095 1.502 . S
C1094 C1096 1.561 . S
C1094 C1097 1.526 . S
C1095 H1079 0.959 . S
C1095 H1080 0.959 . S
C1095 H1081 0.961 . S
C1095 C1094 1.502 . S
C1096 H1082 0.960 . S
C1096 H1083 0.961 . S
C1096 H1084 0.959 . S
C1096 C1094 1.561 . S
C1097 C1094 1.526 . S
C1097 C1098 1.396 . S
C1097 C1102 1.390 . S
C1098 C1092 1.465 . S
C1098 C1097 1.396 . S
C1098 C1099 1.399 . S
C1099 H1085 0.929 . S
C1099 C1098 1.399 . S
C1099 C1100 1.385 . S
C1100 H1086 0.931 . S
C1100 C1099 1.385 . S
C1100 C1101 1.389 . S
C1101 C1100 1.389 . S
C1101 C1102 1.387 . S
C1102 H1087 0.930 . S
C1102 C1097 1.390 . S
C1102 C1101 1.387 . S
H1103 C1115 0.930 . S
H1104 C1117 0.930 . S
H1105 C1118 0.930 . S
H1106 C1122 0.959 . S
H1107 C1122 0.959 . S
H1108 C1122 0.961 . S
H1109 C1123 0.960 . S
H1110 C1123 0.961 . S
H1111 C1123 0.959 . S
H1112 C1126 0.929 . S
H1113 C1127 0.931 . S
H1114 C1129 0.930 . S
C1115 H1103 0.930 . S
C1115 C1116 1.399 . S
C1115 C1120 1.399 . S
C1116 C1115 1.399 . S
C1116 C1117 1.376 . S
C1117 H1104 0.930 . S
C1117 C1116 1.376 . S
C1117 C1118 1.388 . S
C1118 H1105 0.930 . S
C1118 C1117 1.388 . S
C1118 C1119 1.390 . S
C1119 C1118 1.390 . S
C1119 C1120 1.394 . S
C1119 C1125 1.465 . S
C1120 C1115 1.399 . S
C1120 C1119 1.394 . S
C1120 C1121 1.516 . S
C1121 C1120 1.516 . S
C1121 C1122 1.502 . S
C1121 C1123 1.561 . S
C1121 C1124 1.526 . S
C1122 H1106 0.959 . S
C1122 H1107 0.959 . S
C1122 H1108 0.961 . S
C1122 C1121 1.502 . S
C1123 H1109 0.960 . S
C1123 H1110 0.961 . S
C1123 H1111 0.959 . S
C1123 C1121 1.561 . S
C1124 C1121 1.526 . S
C1124 C1125 1.396 . S
C1124 C1129 1.390 . S
C1125 C1119 1.465 . S
C1125 C1124 1.396 . S
C1125 C1126 1.399 . S
C1126 H1112 0.929 . S
C1126 C1125 1.399 . S
C1126 C1127 1.385 . S
C1127 H1113 0.931 . S
C1127 C1126 1.385 . S
C1127 C1128 1.389 . S
C1128 C1127 1.389 . S
C1128 C1129 1.387 . S
C1129 H1114 0.930 . S
C1129 C1124 1.390 . S
C1129 C1128 1.387 . S
H1130 C1142 0.930 . S
H1131 C1144 0.930 . S
H1132 C1145 0.930 . S
H1133 C1149 0.959 . S
H1134 C1149 0.979 . S
H1135 C1149 0.961 . S
H1136 C1150 0.960 1_455 S
H1137 C1150 0.961 . S
H1138 C1150 0.959 . S
H1139 C1153 0.929 . S
H1140 C1154 0.931 . S
H1141 C1156 0.930 . S
C1142 H1130 0.930 . S
C1142 C1143 1.399 . S
C1142 C1147 1.399 . S
C1143 C1142 1.399 . S
C1143 C1144 1.376 . S
C1144 H1131 0.930 . S
C1144 C1143 1.376 . S
C1144 C1145 1.388 . S
C1145 H1132 0.930 . S
C1145 C1144 1.388 . S
C1145 C1146 1.390 . S
C1146 C1145 1.390 . S
C1146 C1147 1.394 . S
C1146 C1152 1.465 1_455 S
C1147 C1142 1.399 . S
C1147 C1146 1.394 . S
C1147 C1148 1.516 . S
C1148 C1147 1.516 . S
C1148 C1149 1.502 . S
C1148 C1150 1.561 1_455 S
C1148 C1151 1.526 1_455 S
C1149 H1133 0.959 . S
C1149 H1134 0.979 . S
C1149 H1135 0.961 . S
C1149 C1148 1.502 . S
C1150 H1136 0.960 1_655 S
C1150 H1137 0.961 . S
C1150 H1138 0.959 . S
C1150 C1148 1.561 1_655 S
C1151 C1148 1.526 1_655 S
C1151 C1152 1.396 . S
C1151 C1156 1.390 . S
C1152 C1146 1.465 1_655 S
C1152 C1151 1.396 . S
C1152 C1153 1.399 . S
C1153 H1139 0.929 . S
C1153 C1152 1.399 . S
C1153 C1154 1.385 . S
C1154 H1140 0.931 . S
C1154 C1153 1.385 . S
C1154 C1155 1.389 . S
C1155 C1154 1.389 . S
C1155 C1156 1.387 . S
C1156 H1141 0.930 . S
C1156 C1151 1.390 . S
C1156 C1155 1.387 . S
H1157 C1169 0.930 . S
H1158 C1171 0.930 . S
H1159 C1172 0.930 . S
H1160 C1176 0.959 . S
H1161 C1176 0.959 . S
H1162 C1176 0.961 . S
H1163 C1177 0.960 . S
H1164 C1177 0.961 . S
H1165 C1177 0.959 . S
H1166 C1180 0.929 1_455 S
H1167 C1181 0.931 . S
H1168 C1183 0.930 . S
C1169 H1157 0.930 . S
C1169 C1170 1.399 . S
C1169 C1174 1.399 . S
C1170 C1169 1.399 . S
C1170 C1171 1.376 . S
C1171 H1158 0.930 . S
C1171 C1170 1.376 . S
C1171 C1172 1.388 . S
C1172 H1159 0.930 . S
C1172 C1171 1.388 . S
C1172 C1173 1.390 . S
C1173 C1172 1.390 . S
C1173 C1174 1.394 . S
C1173 C1179 1.472 . S
C1174 C1169 1.399 . S
C1174 C1173 1.394 . S
C1174 C1175 1.516 1_455 S
C1175 C1174 1.516 1_655 S
C1175 C1176 1.502 . S
C1175 C1177 1.561 1_655 S
C1175 C1178 1.526 . S
C1176 H1160 0.959 . S
C1176 H1161 0.959 . S
C1176 H1162 0.961 . S
C1176 C1175 1.502 . S
C1177 H1163 0.960 . S
C1177 H1164 0.961 . S
C1177 H1165 0.959 . S
C1177 C1175 1.561 1_455 S
C1178 C1175 1.526 . S
C1178 C1179 1.390 1_655 S
C1178 C1183 1.390 . S
C1179 C1173 1.472 . S
C1179 C1178 1.390 1_455 S
C1179 C1180 1.398 1_455 S
C1180 H1166 0.929 1_655 S
C1180 C1179 1.398 1_655 S
C1180 C1181 1.385 . S
C1181 H1167 0.931 . S
C1181 C1180 1.385 . S
C1181 C1182 1.389 . S
C1182 C1181 1.389 . S
C1182 C1183 1.387 . S
C1183 H1168 0.930 . S
C1183 C1178 1.390 . S
C1183 C1182 1.387 . S
H1184 C1196 0.930 . S
H1185 C1198 0.930 . S
H1186 C1199 0.930 . S
H1187 C1203 0.959 . S
H1188 C1203 0.959 . S
H1189 C1203 0.961 . S
H1190 C1204 0.960 . S
H1191 C1204 0.961 . S
H1192 C1204 0.959 . S
H1193 C1207 0.929 . S
H1194 C1208 0.931 . S
H1195 C1210 0.930 . S
C1196 H1184 0.930 . S
C1196 C1197 1.399 . S
C1196 C1201 1.399 . S
C1197 C1196 1.399 . S
C1197 C1198 1.376 . S
C1198 H1185 0.930 . S
C1198 C1197 1.376 . S
C1198 C1199 1.388 . S
C1199 H1186 0.930 . S
C1199 C1198 1.388 . S
C1199 C1200 1.390 . S
C1200 C1199 1.390 . S
C1200 C1201 1.394 . S
C1200 C1206 1.465 . S
C1201 C1196 1.399 . S
C1201 C1200 1.394 . S
C1201 C1202 1.516 . S
C1202 C1201 1.516 . S
C1202 C1203 1.502 . S
C1202 C1204 1.561 . S
C1202 C1205 1.526 . S
C1203 H1187 0.959 . S
C1203 H1188 0.959 . S
C1203 H1189 0.961 . S
C1203 C1202 1.502 . S
C1204 H1190 0.960 . S
C1204 H1191 0.961 . S
C1204 H1192 0.959 . S
C1204 C1202 1.561 . S
C1205 C1202 1.526 . S
C1205 C1206 1.396 . S
C1205 C1210 1.390 . S
C1206 C1200 1.465 . S
C1206 C1205 1.396 . S
C1206 C1207 1.399 . S
C1207 H1193 0.929 . S
C1207 C1206 1.399 . S
C1207 C1208 1.385 . S
C1208 H1194 0.931 . S
C1208 C1207 1.385 . S
C1208 C1209 1.389 . S
C1209 C1208 1.389 . S
C1209 C1210 1.387 . S
C1210 H1195 0.930 . S
C1210 C1205 1.390 . S
C1210 C1209 1.387 . S
H1211 C1223 0.930 . S
H1212 C1225 0.930 . S
H1213 C1226 0.930 . S
H1214 C1230 0.959 . S
H1215 C1230 0.959 . S
H1216 C1230 0.961 . S
H1217 C1231 0.960 . S
H1218 C1231 0.961 . S
H1219 C1231 0.959 . S
H1220 C1234 0.929 . S
H1221 C1235 0.931 . S
H1222 C1237 0.930 . S
C1223 H1211 0.930 . S
C1223 C1224 1.399 . S
C1223 C1228 1.399 . S
C1224 C1223 1.399 . S
C1224 C1225 1.376 . S
C1225 H1212 0.930 . S
C1225 C1224 1.376 . S
C1225 C1226 1.388 . S
C1226 H1213 0.930 . S
C1226 C1225 1.388 . S
C1226 C1227 1.390 . S
C1227 C1226 1.390 . S
C1227 C1228 1.394 . S
C1227 C1233 1.465 . S
C1228 C1223 1.399 . S
C1228 C1227 1.394 . S
C1228 C1229 1.516 . S
C1229 C1228 1.516 . S
C1229 C1230 1.502 . S
C1229 C1231 1.561 . S
C1229 C1232 1.526 . S
C1230 H1214 0.959 . S
C1230 H1215 0.959 . S
C1230 H1216 0.961 . S
C1230 C1229 1.502 . S
C1231 H1217 0.960 . S
C1231 H1218 0.961 . S
C1231 H1219 0.959 . S
C1231 C1229 1.561 . S
C1232 C1229 1.526 . S
C1232 C1233 1.396 . S
C1232 C1237 1.390 . S
C1233 C1227 1.465 . S
C1233 C1232 1.396 . S
C1233 C1234 1.399 . S
C1234 H1220 0.929 . S
C1234 C1233 1.399 . S
C1234 C1235 1.385 . S
C1235 H1221 0.931 . S
C1235 C1234 1.385 . S
C1235 C1236 1.389 . S
C1236 C1235 1.389 . S
C1236 C1237 1.387 . S
C1237 H1222 0.930 . S
C1237 C1232 1.390 . S
C1237 C1236 1.387 . S
H1238 C1250 0.930 . S
H1239 C1252 0.930 . S
H1240 C1253 0.930 . S
H1241 C1257 0.959 . S
H1242 C1257 0.959 . S
H1243 C1257 0.961 . S
H1244 C1258 0.960 . S
H1245 C1258 0.961 . S
H1246 C1258 0.959 . S
H1247 C1261 0.929 . S
H1248 C1262 0.931 . S
H1249 C1264 0.930 . S
C1250 H1238 0.930 . S
C1250 C1251 1.399 . S
C1250 C1255 1.399 . S
C1251 C1250 1.399 . S
C1251 C1252 1.376 . S
C1252 H1239 0.930 . S
C1252 C1251 1.376 . S
C1252 C1253 1.388 . S
C1253 H1240 0.930 . S
C1253 C1252 1.388 . S
C1253 C1254 1.390 . S
C1254 C1253 1.390 . S
C1254 C1255 1.394 . S
C1254 C1260 1.465 . S
C1255 C1250 1.399 . S
C1255 C1254 1.394 . S
C1255 C1256 1.516 . S
C1256 C1255 1.516 . S
C1256 C1257 1.502 . S
C1256 C1258 1.561 . S
C1256 C1259 1.526 . S
C1257 H1241 0.959 . S
C1257 H1242 0.959 . S
C1257 H1243 0.961 . S
C1257 C1256 1.502 . S
C1258 H1244 0.960 . S
C1258 H1245 0.961 . S
C1258 H1246 0.959 . S
C1258 C1256 1.561 . S
C1259 C1256 1.526 . S
C1259 C1260 1.396 . S
C1259 C1264 1.390 . S
C1260 C1254 1.465 . S
C1260 C1259 1.396 . S
C1260 C1261 1.399 . S
C1261 H1247 0.929 . S
C1261 C1260 1.399 . S
C1261 C1262 1.385 . S
C1262 H1248 0.931 . S
C1262 C1261 1.385 . S
C1262 C1263 1.389 . S
C1263 C1262 1.389 . S
C1263 C1264 1.387 . S
C1264 H1249 0.930 . S
C1264 C1259 1.390 . S
C1264 C1263 1.387 . S
H1265 C1277 0.930 1_655 S
H1266 C1279 0.930 . S
H1267 C1280 0.930 . S
H1268 C1284 0.959 . S
H1269 C1284 0.959 . S
H1270 C1284 0.961 . S
H1271 C1285 0.960 . S
H1272 C1285 0.961 . S
H1273 C1285 0.959 . S
H1274 C1288 0.929 . S
H1275 C1289 0.931 . S
H1276 C1291 0.930 . S
C1277 H1265 0.930 1_455 S
C1277 C1278 1.399 1_455 S
C1277 C1282 1.399 . S
C1278 C1277 1.399 1_655 S
C1278 C1279 1.376 1_655 S
C1279 H1266 0.930 . S
C1279 C1278 1.376 1_455 S
C1279 C1280 1.388 . S
C1280 H1267 0.930 . S
C1280 C1279 1.388 . S
C1280 C1281 1.390 . S
C1281 C1280 1.390 . S
C1281 C1282 1.394 . S
C1281 C1287 1.465 . S
C1282 C1277 1.399 . S
C1282 C1281 1.394 . S
C1282 C1283 1.516 . S
C1283 C1282 1.516 . S
C1283 C1284 1.502 . S
C1283 C1285 1.561 . S
C1283 C1286 1.526 . S
C1284 H1268 0.959 . S
C1284 H1269 0.959 . S
C1284 H1270 0.961 . S
C1284 C1283 1.502 . S
C1285 H1271 0.960 . S
C1285 H1272 0.961 . S
C1285 H1273 0.959 . S
C1285 C1283 1.561 . S
C1286 C1283 1.526 . S
C1286 C1287 1.396 . S
C1286 C1291 1.390 . S
C1287 C1281 1.465 . S
C1287 C1286 1.396 . S
C1287 C1288 1.399 . S
C1288 H1274 0.929 . S
C1288 C1287 1.399 . S
C1288 C1289 1.385 . S
C1289 H1275 0.931 . S
C1289 C1288 1.385 . S
C1289 C1290 1.389 . S
C1290 C1289 1.389 . S
C1290 C1291 1.387 . S
C1291 H1276 0.930 . S
C1291 C1286 1.390 . S
C1291 C1290 1.387 . S
H1292 C1304 0.930 . S
H1293 C1306 0.930 . S
H1294 C1307 0.930 . S
H1295 C1311 0.959 . S
H1296 C1311 0.959 . S
H1297 C1311 0.961 . S
H1298 C1312 0.960 . S
H1299 C1312 0.961 . S
H1300 C1312 0.959 . S
H1301 C1315 0.929 . S
H1302 C1316 0.931 . S
H1303 C1318 0.930 . S
C1304 H1292 0.930 . S
C1304 C1305 1.399 . S
C1304 C1309 1.399 . S
C1305 C1304 1.399 . S
C1305 C1306 1.376 . S
C1306 H1293 0.930 . S
C1306 C1305 1.376 . S
C1306 C1307 1.388 . S
C1307 H1294 0.930 . S
C1307 C1306 1.388 . S
C1307 C1308 1.390 . S
C1308 C1307 1.390 . S
C1308 C1309 1.394 . S
C1308 C1314 1.465 . S
C1309 C1304 1.399 . S
C1309 C1308 1.394 . S
C1309 C1310 1.516 . S
C1310 C1309 1.516 . S
C1310 C1311 1.502 . S
C1310 C1312 1.561 . S
C1310 C1313 1.526 . S
C1311 H1295 0.959 . S
C1311 H1296 0.959 . S
C1311 H1297 0.961 . S
C1311 C1310 1.502 . S
C1312 H1298 0.960 . S
C1312 H1299 0.961 . S
C1312 H1300 0.959 . S
C1312 C1310 1.561 . S
C1313 C1310 1.526 . S
C1313 C1314 1.396 . S
C1313 C1318 1.390 . S
C1314 C1308 1.465 . S
C1314 C1313 1.396 . S
C1314 C1315 1.399 . S
C1315 H1301 0.929 . S
C1315 C1314 1.399 . S
C1315 C1316 1.385 . S
C1316 H1302 0.931 . S
C1316 C1315 1.385 . S
C1316 C1317 1.389 . S
C1317 C1316 1.389 . S
C1317 C1318 1.387 . S
C1318 H1303 0.930 . S
C1318 C1313 1.390 . S
C1318 C1317 1.387 . S
H1319 C1331 0.930 . S
H1320 C1333 0.930 . S
H1321 C1334 0.930 . S
H1322 C1338 0.959 . S
H1323 C1338 0.959 . S
H1324 C1338 0.961 . S
H1325 C1339 0.960 . S
H1326 C1339 0.961 . S
H1327 C1339 0.959 . S
H1328 C1342 0.929 . S
H1329 C1343 0.931 . S
H1330 C1345 0.930 . S
C1331 H1319 0.930 . S
C1331 C1332 1.399 . S
C1331 C1336 1.399 . S
C1332 C1331 1.399 . S
C1332 C1333 1.376 . S
C1333 H1320 0.930 . S
C1333 C1332 1.376 . S
C1333 C1334 1.388 . S
C1334 H1321 0.930 . S
C1334 C1333 1.388 . S
C1334 C1335 1.390 . S
C1335 C1334 1.390 . S
C1335 C1336 1.394 . S
C1335 C1341 1.465 . S
C1336 C1331 1.399 . S
C1336 C1335 1.394 . S
C1336 C1337 1.516 . S
C1337 C1336 1.516 . S
C1337 C1338 1.502 . S
C1337 C1339 1.561 . S
C1337 C1340 1.526 . S
C1338 H1322 0.959 . S
C1338 H1323 0.959 . S
C1338 H1324 0.961 . S
C1338 C1337 1.502 . S
C1339 H1325 0.960 . S
C1339 H1326 0.961 . S
C1339 H1327 0.959 . S
C1339 C1337 1.561 . S
C1340 C1337 1.526 . S
C1340 C1341 1.396 . S
C1340 C1345 1.390 . S
C1341 C1335 1.465 . S
C1341 C1340 1.396 . S
C1341 C1342 1.399 . S
C1342 H1328 0.929 . S
C1342 C1341 1.399 . S
C1342 C1343 1.385 . S
C1343 H1329 0.931 . S
C1343 C1342 1.385 . S
C1343 C1344 1.389 . S
C1344 C1343 1.389 . S
C1344 C1345 1.387 . S
C1345 H1330 0.930 . S
C1345 C1340 1.390 . S
C1345 C1344 1.387 . S
H1346 C1358 0.930 . S
H1347 C1360 0.930 . S
H1348 C1361 0.930 . S
H1349 C1365 0.959 . S
H1350 C1365 0.959 . S
H1351 C1365 0.961 . S
H1352 C1366 0.960 . S
H1353 C1366 0.961 . S
H1354 C1366 0.959 . S
H1355 C1369 0.929 . S
H1356 C1370 0.931 . S
H1357 C1372 0.930 . S
C1358 H1346 0.930 . S
C1358 C1359 1.399 . S
C1358 C1363 1.399 . S
C1359 C1358 1.399 . S
C1359 C1360 1.376 . S
C1360 H1347 0.930 . S
C1360 C1359 1.376 . S
C1360 C1361 1.388 . S
C1361 H1348 0.930 . S
C1361 C1360 1.388 . S
C1361 C1362 1.390 . S
C1362 C1361 1.390 . S
C1362 C1363 1.394 . S
C1362 C1368 1.465 . S
C1363 C1358 1.399 . S
C1363 C1362 1.394 . S
C1363 C1364 1.516 . S
C1364 C1363 1.516 . S
C1364 C1365 1.502 . S
C1364 C1366 1.561 . S
C1364 C1367 1.526 . S
C1365 H1349 0.959 . S
C1365 H1350 0.959 . S
C1365 H1351 0.961 . S
C1365 C1364 1.502 . S
C1366 H1352 0.960 . S
C1366 H1353 0.961 . S
C1366 H1354 0.959 . S
C1366 C1364 1.561 . S
C1367 C1364 1.526 . S
C1367 C1368 1.396 . S
C1367 C1372 1.390 . S
C1368 C1362 1.465 . S
C1368 C1367 1.396 . S
C1368 C1369 1.399 . S
C1369 H1355 0.929 . S
C1369 C1368 1.399 . S
C1369 C1370 1.385 . S
C1370 H1356 0.931 . S
C1370 C1369 1.385 . S
C1370 C1371 1.389 . S
C1371 C1370 1.389 . S
C1371 C1372 1.387 . S
C1372 H1357 0.930 . S
C1372 C1367 1.390 . S
C1372 C1371 1.387 . S
H1373 C1385 0.930 . S
H1374 C1387 0.930 . S
H1375 C1388 0.930 . S
H1376 C1392 0.959 . S
H1377 C1392 0.959 . S
H1378 C1392 0.961 . S
H1379 C1393 0.960 . S
H1380 C1393 0.961 . S
H1381 C1393 0.959 . S
H1382 C1396 0.929 . S
H1383 C1397 0.931 1_455 S
H1384 C1399 0.930 . S
C1385 H1373 0.930 . S
C1385 C1386 1.399 . S
C1385 C1390 1.399 . S
C1386 C1385 1.399 . S
C1386 C1387 1.376 . S
C1387 H1374 0.930 . S
C1387 C1386 1.376 . S
C1387 C1388 1.388 . S
C1388 H1375 0.930 . S
C1388 C1387 1.388 . S
C1388 C1389 1.390 . S
C1389 C1388 1.390 . S
C1389 C1390 1.394 . S
C1389 C1395 1.465 . S
C1390 C1385 1.399 . S
C1390 C1389 1.394 . S
C1390 C1391 1.516 . S
C1391 C1390 1.516 . S
C1391 C1392 1.502 . S
C1391 C1393 1.561 . S
C1391 C1394 1.526 . S
C1392 H1376 0.959 . S
C1392 H1377 0.959 . S
C1392 H1378 0.961 . S
C1392 C1391 1.502 . S
C1393 H1379 0.960 . S
C1393 H1380 0.961 . S
C1393 H1381 0.959 . S
C1393 C1391 1.561 . S
C1394 C1391 1.526 . S
C1394 C1395 1.396 . S
C1394 C1399 1.390 . S
C1395 C1389 1.465 . S
C1395 C1394 1.396 . S
C1395 C1396 1.399 . S
C1396 H1382 0.929 . S
C1396 C1395 1.399 . S
C1396 C1397 1.385 . S
C1397 H1383 0.931 1_655 S
C1397 C1396 1.385 . S
C1397 C1398 1.389 1_655 S
C1398 C1397 1.389 1_455 S
C1398 C1399 1.387 1_455 S
C1399 H1384 0.930 . S
C1399 C1394 1.390 . S
C1399 C1398 1.387 1_655 S
H1400 C1412 0.930 . S
H1401 C1414 0.930 . S
H1402 C1415 0.930 . S
H1403 C1419 0.959 . S
H1404 C1419 0.959 . S
H1405 C1419 0.961 . S
H1406 C1420 0.960 . S
H1407 C1420 0.961 . S
H1408 C1420 0.959 . S
H1409 C1423 0.929 . S
H1410 C1424 0.931 . S
H1411 C1426 0.930 . S
C1412 H1400 0.930 . S
C1412 C1413 1.399 . S
C1412 C1417 1.399 . S
C1413 C1412 1.399 . S
C1413 C1414 1.376 . S
C1414 H1401 0.930 . S
C1414 C1413 1.376 . S
C1414 C1415 1.388 . S
C1415 H1402 0.930 . S
C1415 C1414 1.388 . S
C1415 C1416 1.390 . S
C1416 C1415 1.390 . S
C1416 C1417 1.394 . S
C1416 C1422 1.465 . S
C1417 C1412 1.399 . S
C1417 C1416 1.394 . S
C1417 C1418 1.516 . S
C1418 C1417 1.516 . S
C1418 C1419 1.502 . S
C1418 C1420 1.561 . S
C1418 C1421 1.526 . S
C1419 H1403 0.959 . S
C1419 H1404 0.959 . S
C1419 H1405 0.961 . S
C1419 C1418 1.502 . S
C1420 H1406 0.960 . S
C1420 H1407 0.961 . S
C1420 H1408 0.959 . S
C1420 C1418 1.561 . S
C1421 C1418 1.526 . S
C1421 C1422 1.396 . S
C1421 C1426 1.390 . S
C1422 C1416 1.465 . S
C1422 C1421 1.396 . S
C1422 C1423 1.399 . S
C1423 H1409 0.929 . S
C1423 C1422 1.399 . S
C1423 C1424 1.385 . S
C1424 H1410 0.931 . S
C1424 C1423 1.385 . S
C1424 C1425 1.389 . S
C1425 C1424 1.389 . S
C1425 C1426 1.387 . S
C1426 H1411 0.930 . S
C1426 C1421 1.390 . S
C1426 C1425 1.387 . S
H1427 C1439 0.930 . S
H1428 C1441 0.930 . S
H1429 C1442 0.930 . S
H1430 C1446 0.959 1_545 S
H1431 C1446 0.959 1_545 S
H1432 C1446 0.961 . S
H1433 C1447 0.960 . S
H1434 C1447 0.961 . S
H1435 C1447 0.959 . S
H1436 C1450 0.929 . S
H1437 C1451 0.931 . S
H1438 C1453 0.930 . S
C1439 H1427 0.930 . S
C1439 C1440 1.399 . S
C1439 C1444 1.399 . S
C1440 C1439 1.399 . S
C1440 C1441 1.376 . S
C1441 H1428 0.930 . S
C1441 C1440 1.376 . S
C1441 C1442 1.388 . S
C1442 H1429 0.930 . S
C1442 C1441 1.388 . S
C1442 C1443 1.390 . S
C1443 C1442 1.390 . S
C1443 C1444 1.394 . S
C1443 C1449 1.465 . S
C1444 C1439 1.399 . S
C1444 C1443 1.394 . S
C1444 C1445 1.516 . S
C1445 C1444 1.516 . S
C1445 C1446 1.502 . S
C1445 C1447 1.561 . S
C1445 C1448 1.526 . S
C1446 H1430 0.959 1_565 S
C1446 H1431 0.959 1_565 S
C1446 H1432 0.961 . S
C1446 C1445 1.502 . S
C1447 H1433 0.960 . S
C1447 H1434 0.961 . S
C1447 H1435 0.959 . S
C1447 C1445 1.561 . S
C1448 C1445 1.526 . S
C1448 C1449 1.396 . S
C1448 C1453 1.390 . S
C1449 C1443 1.465 . S
C1449 C1448 1.396 . S
C1449 C1450 1.399 . S
C1450 H1436 0.929 . S
C1450 C1449 1.399 . S
C1450 C1451 1.385 1_655 S
C1451 H1437 0.931 . S
C1451 C1450 1.385 1_455 S
C1451 C1452 1.389 . S
C1452 C1451 1.389 . S
C1452 C1453 1.387 1_455 S
C1453 H1438 0.930 . S
C1453 C1448 1.390 . S
C1453 C1452 1.387 1_655 S
H1454 C1466 0.930 . S
H1455 C1468 0.930 . S
H1456 C1469 0.930 . S
H1457 C1473 0.959 . S
H1458 C1473 0.959 . S
H1459 C1473 0.961 . S
H1460 C1474 0.960 . S
H1461 C1474 0.961 . S
H1462 C1474 0.959 . S
H1463 C1477 0.929 . S
H1464 C1478 0.931 . S
H1465 C1480 0.930 . S
C1466 H1454 0.930 . S
C1466 C1467 1.399 . S
C1466 C1471 1.399 . S
C1467 C1466 1.399 . S
C1467 C1468 1.376 . S
C1468 H1455 0.930 . S
C1468 C1467 1.376 . S
C1468 C1469 1.388 . S
C1469 H1456 0.930 . S
C1469 C1468 1.388 . S
C1469 C1470 1.390 . S
C1470 C1469 1.390 . S
C1470 C1471 1.394 . S
C1470 C1476 1.465 . S
C1471 C1466 1.399 . S
C1471 C1470 1.394 . S
C1471 C1472 1.516 . S
C1472 C1471 1.516 . S
C1472 C1473 1.502 . S
C1472 C1474 1.561 . S
C1472 C1475 1.526 . S
C1473 H1457 0.959 . S
C1473 H1458 0.959 . S
C1473 H1459 0.961 . S
C1473 C1472 1.502 . S
C1474 H1460 0.960 . S
C1474 H1461 0.961 . S
C1474 H1462 0.959 . S
C1474 C1472 1.561 . S
C1475 C1472 1.526 . S
C1475 C1476 1.396 . S
C1475 C1480 1.390 . S
C1476 C1470 1.465 . S
C1476 C1475 1.396 . S
C1476 C1477 1.399 . S
C1477 H1463 0.929 . S
C1477 C1476 1.399 . S
C1477 C1478 1.385 . S
C1478 H1464 0.931 . S
C1478 C1477 1.385 . S
C1478 C1479 1.389 . S
C1479 C1478 1.389 . S
C1479 C1480 1.387 . S
C1480 H1465 0.930 . S
C1480 C1475 1.390 . S
C1480 C1479 1.387 . S
H1481 C1493 0.930 . S
H1482 C1495 0.930 1_565 S
H1483 C1496 0.930 . S
H1484 C1500 0.959 . S
H1485 C1500 0.959 . S
H1486 C1500 0.961 . S
H1487 C1501 0.960 . S
H1488 C1501 0.961 . S
H1489 C1501 0.959 . S
H1490 C1504 0.929 . S
H1491 C1505 0.931 . S
H1492 C1507 0.930 . S
C1493 H1481 0.930 . S
C1493 C1494 1.399 . S
C1493 C1498 1.399 . S
C1494 C1493 1.399 . S
C1494 C1495 1.376 . S
C1495 H1482 0.930 1_545 S
C1495 C1494 1.376 . S
C1495 C1496 1.388 . S
C1496 H1483 0.930 . S
C1496 C1495 1.388 . S
C1496 C1497 1.390 . S
C1497 C1496 1.390 . S
C1497 C1498 1.394 . S
C1497 C1503 1.465 . S
C1498 C1493 1.399 . S
C1498 C1497 1.394 . S
C1498 C1499 1.516 . S
C1499 C1498 1.516 . S
C1499 C1500 1.502 . S
C1499 C1501 1.561 . S
C1499 C1502 1.526 . S
C1500 H1484 0.959 . S
C1500 H1485 0.959 . S
C1500 H1486 0.961 . S
C1500 C1499 1.502 . S
C1501 H1487 0.960 . S
C1501 H1488 0.961 . S
C1501 H1489 0.959 . S
C1501 C1499 1.561 . S
C1502 C1499 1.526 . S
C1502 C1503 1.396 . S
C1502 C1507 1.390 . S
C1503 C1497 1.465 . S
C1503 C1502 1.396 . S
C1503 C1504 1.399 . S
C1504 H1490 0.929 . S
C1504 C1503 1.399 . S
C1504 C1505 1.385 . S
C1505 H1491 0.931 . S
C1505 C1504 1.385 . S
C1505 C1506 1.389 . S
C1506 C1505 1.389 . S
C1506 C1507 1.387 . S
C1507 H1492 0.930 . S
C1507 C1502 1.390 . S
C1507 C1506 1.387 . S
H1508 C1520 0.930 . S
H1509 C1522 0.930 . S
H1510 C1523 0.930 . S
H1511 C1527 0.959 . S
H1512 C1527 0.959 . S
H1513 C1527 0.961 . S
H1514 C1528 0.960 . S
H1515 C1528 0.961 . S
H1516 C1528 0.959 . S
H1517 C1531 0.929 . S
H1518 C1532 0.931 . S
H1519 C1534 0.930 . S
C1520 H1508 0.930 . S
C1520 C1521 1.399 . S
C1520 C1525 1.399 . S
C1521 C1520 1.399 . S
C1521 C1522 1.376 . S
C1522 H1509 0.930 . S
C1522 C1521 1.376 . S
C1522 C1523 1.388 . S
C1523 H1510 0.930 . S
C1523 C1522 1.388 . S
C1523 C1524 1.390 . S
C1524 C1523 1.390 . S
C1524 C1525 1.394 . S
C1524 C1530 1.465 . S
C1525 C1520 1.399 . S
C1525 C1524 1.394 . S
C1525 C1526 1.516 . S
C1526 C1525 1.516 . S
C1526 C1527 1.502 . S
C1526 C1528 1.561 . S
C1526 C1529 1.526 . S
C1527 H1511 0.959 . S
C1527 H1512 0.959 . S
C1527 H1513 0.961 . S
C1527 C1526 1.502 . S
C1528 H1514 0.960 . S
C1528 H1515 0.961 . S
C1528 H1516 0.959 . S
C1528 C1526 1.561 . S
C1529 C1526 1.526 . S
C1529 C1530 1.396 . S
C1529 C1534 1.390 . S
C1530 C1524 1.465 . S
C1530 C1529 1.396 . S
C1530 C1531 1.399 . S
C1531 H1517 0.929 . S
C1531 C1530 1.399 . S
C1531 C1532 1.385 . S
C1532 H1518 0.931 . S
C1532 C1531 1.385 . S
C1532 C1533 1.389 . S
C1533 C1532 1.389 . S
C1533 C1534 1.387 . S
C1534 H1519 0.930 . S
C1534 C1529 1.390 . S
C1534 C1533 1.387 . S
H1535 C1547 0.930 1_565 S
H1536 C1549 0.930 . S
H1537 C1550 0.930 . S
H1538 C1554 0.959 . S
H1539 C1554 0.959 . S
H1540 C1554 0.961 . S
H1541 C1555 0.960 . S
H1542 C1555 0.961 . S
H1543 C1555 0.959 . S
H1544 C1558 0.929 . S
H1545 C1559 0.931 . S
H1546 C1561 0.930 . S
C1547 H1535 0.930 1_545 S
C1547 C1548 1.399 1_455 S
C1547 C1552 1.399 . S
C1548 C1547 1.399 1_655 S
C1548 C1549 1.376 . S
C1549 H1536 0.930 . S
C1549 C1548 1.376 . S
C1549 C1550 1.388 1_655 S
C1550 H1537 0.930 . S
C1550 C1549 1.388 1_455 S
C1550 C1551 1.390 . S
C1551 C1550 1.390 . S
C1551 C1552 1.394 . S
C1551 C1557 1.465 . S
C1552 C1547 1.399 . S
C1552 C1551 1.394 . S
C1552 C1553 1.516 . S
C1553 C1552 1.516 . S
C1553 C1554 1.502 1_545 S
C1553 C1555 1.561 . S
C1553 C1556 1.526 . S
C1554 H1538 0.959 . S
C1554 H1539 0.959 . S
C1554 H1540 0.961 . S
C1554 C1553 1.502 1_565 S
C1555 H1541 0.960 . S
C1555 H1542 0.961 . S
C1555 H1543 0.959 . S
C1555 C1553 1.561 . S
C1556 C1553 1.526 . S
C1556 C1557 1.396 . S
C1556 C1561 1.390 . S
C1557 C1551 1.465 . S
C1557 C1556 1.396 . S
C1557 C1558 1.399 . S
C1558 H1544 0.929 . S
C1558 C1557 1.399 . S
C1558 C1559 1.385 . S
C1559 H1545 0.931 . S
C1559 C1558 1.385 . S
C1559 C1560 1.389 . S
C1560 C1559 1.389 . S
C1560 C1561 1.387 . S
C1561 H1546 0.930 . S
C1561 C1556 1.390 . S
C1561 C1560 1.387 . S
H1562 C1574 0.930 . S
H1563 C1576 0.930 . S
H1564 C1577 0.930 . S
H1565 C1581 0.959 . S
H1566 C1581 0.959 . S
H1567 C1581 0.961 . S
H1568 C1582 0.960 . S
H1569 C1582 0.961 . S
H1570 C1582 0.959 . S
H1571 C1585 0.929 . S
H1572 C1586 0.931 . S
H1573 C1588 0.930 . S
C1574 H1562 0.930 . S
C1574 C1575 1.399 . S
C1574 C1579 1.399 . S
C1575 C1574 1.399 . S
C1575 C1576 1.376 . S
C1576 H1563 0.930 . S
C1576 C1575 1.376 . S
C1576 C1577 1.388 . S
C1577 H1564 0.930 . S
C1577 C1576 1.388 . S
C1577 C1578 1.390 . S
C1578 C1577 1.390 . S
C1578 C1579 1.394 . S
C1578 C1584 1.465 . S
C1579 C1574 1.399 . S
C1579 C1578 1.394 . S
C1579 C1580 1.516 . S
C1580 C1579 1.516 . S
C1580 C1581 1.502 . S
C1580 C1582 1.561 . S
C1580 C1583 1.526 . S
C1581 H1565 0.959 . S
C1581 H1566 0.959 . S
C1581 H1567 0.961 . S
C1581 C1580 1.502 . S
C1582 H1568 0.960 . S
C1582 H1569 0.961 . S
C1582 H1570 0.959 . S
C1582 C1580 1.561 . S
C1583 C1580 1.526 . S
C1583 C1584 1.396 . S
C1583 C1588 1.390 . S
C1584 C1578 1.465 . S
C1584 C1583 1.396 . S
C1584 C1585 1.399 . S
C1585 H1571 0.929 . S
C1585 C1584 1.399 . S
C1585 C1586 1.385 . S
C1586 H1572 0.931 . S
C1586 C1585 1.385 . S
C1586 C1587 1.389 . S
C1587 C1586 1.389 . S
C1587 C1588 1.387 . S
C1588 H1573 0.930 . S
C1588 C1583 1.390 . S
C1588 C1587 1.387 . S
H1589 C1601 0.930 . S
H1590 C1603 0.930 . S
H1591 C1604 0.930 . S
H1592 C1608 0.959 . S
H1593 C1608 0.959 . S
H1594 C1608 0.961 . S
H1595 C1609 0.960 . S
H1596 C1609 0.961 . S
H1597 C1609 0.959 . S
H1598 C1612 0.929 . S
H1599 C1613 0.931 1_545 S
H1600 C1615 0.930 . S
C1601 H1589 0.930 . S
C1601 C1602 1.399 . S
C1601 C1606 1.399 . S
C1602 C1601 1.399 . S
C1602 C1603 1.376 . S
C1603 H1590 0.930 . S
C1603 C1602 1.376 . S
C1603 C1604 1.388 . S
C1604 H1591 0.930 . S
C1604 C1603 1.388 . S
C1604 C1605 1.390 . S
C1605 C1604 1.390 . S
C1605 C1606 1.394 . S
C1605 C1611 1.465 . S
C1606 C1601 1.399 . S
C1606 C1605 1.394 . S
C1606 C1607 1.516 . S
C1607 C1606 1.516 . S
C1607 C1608 1.502 . S
C1607 C1609 1.561 . S
C1607 C1610 1.526 . S
C1608 H1592 0.959 . S
C1608 H1593 0.959 . S
C1608 H1594 0.961 . S
C1608 C1607 1.502 . S
C1609 H1595 0.960 . S
C1609 H1596 0.961 . S
C1609 H1597 0.959 . S
C1609 C1607 1.561 . S
C1610 C1607 1.526 . S
C1610 C1611 1.396 . S
C1610 C1615 1.390 . S
C1611 C1605 1.465 . S
C1611 C1610 1.396 . S
C1611 C1612 1.399 . S
C1612 H1598 0.929 . S
C1612 C1611 1.399 . S
C1612 C1613 1.385 . S
C1613 H1599 0.931 1_565 S
C1613 C1612 1.385 . S
C1613 C1614 1.389 . S
C1614 C1613 1.389 . S
C1614 C1615 1.387 . S
C1615 H1600 0.930 . S
C1615 C1610 1.390 . S
C1615 C1614 1.387 . S
C333 C2 0.697 . S
C345 C241 0.872 . S
C360 C101 0.913 . S
C372 C22 0.669 . S
C387 C42 0.906 . S
C399 C281 0.718 . S
C414 C62 0.671 . S
C426 C141 0.919 . S
C441 C81 0.767 . S
C453 C162 0.871 . S
C468 C202 0.722 . S
C480 C121 0.846 . S
C495 C261 0.719 . S
C507 C182 0.902 . S
C522 C222 0.819 . S
C534 C301 0.827 . S
C549 C189 1.716 . S
C561 C1 1.724 . S
C576 C21 1.667 . S
C588 C209 1.747 . S
C603 C41 1.671 . S
C615 C229 1.738 . S
C630 C169 1.737 . S
C642 C61 1.696 . S
C657 C268 1.737 . S
C669 C82 1.714 . S
C684 C288 1.746 . S
C696 C102 1.674 . S
C711 C122 1.724 . S
C723 C308 1.716 . S
C738 C248 1.742 . S
C750 C142 1.667 . S
C765 C161 1.707 . S
C777 C29 1.731 . S
C792 C181 1.724 1_565 S
C804 C49 1.712 . S
C819 C201 1.701 . S
C831 C69 1.734 . S
C846 C9 1.739 . S
C858 C221 1.670 1_545 S
C873 C108 1.719 . S
C885 C242 1.682 . S
C900 C262 1.716 1_545 S
C912 C128 1.736 . S
C927 C148 1.722 . S
C939 C282 1.678 . S
C954 C302 1.670 1_565 S
C966 C88 1.728 . S
C981 C18 2.485 . S
C993 C218 2.491 . S
C1008 C38 2.484 . S
C1020 C238 2.490 . S
C1035 C178 2.472 . S
C1047 C58 2.465 . S
C1062 C78 2.470 . S
C1074 C198 2.481 . S
C1089 C99 2.464 . S
C1101 C299 2.465 . S
C1116 C119 2.465 . S
C1128 C319 2.467 . S
C1143 C259 2.488 . S
C1155 C139 2.487 . S
C1170 C159 2.489 . S
C1182 C279 2.488 . S
C1197 C8 1.411 . S
C1209 C158 1.498 . S
C1224 C258 1.534 . S
C1236 C28 1.363 . S
C1251 C48 1.402 . S
C1263 C118 1.500 . S
C1278 C68 1.406 . S
C1290 C298 1.499 . S
C1305 C89 1.395 . S
C1317 C79 1.507 . S
C1332 C179 1.548 . S
C1344 C109 1.292 . S
C1359 C129 1.406 . S
C1371 C39 1.503 . S
C1386 C219 1.498 . S
C1398 C149 1.424 . S
C1413 C168 1.421 . S
C1425 C318 1.498 . S
C1440 C98 1.510 . S
C1452 C188 1.415 . S
C1467 C278 1.535 . S
C1479 C208 1.303 . S
C1494 C228 1.413 . S
C1506 C138 1.498 . S
C1521 C249 1.410 . S
C1533 C239 1.502 . S
C1548 C269 1.386 . S
C1560 C19 1.510 . S
C1575 C199 1.499 . S
C1587 C289 1.424 . S
C1602 C59 1.501 . S
C1614 C309 1.419 . S
