# Generated by pormake.
# Topology wne, (6)-cn, num edge types: 1
# Building blocks:
#     Node 0, Type 0, BuildingBlock: VOLQOD_clean_sbu_1, # of connection points: 6
#     Node 1, Type 0, BuildingBlock: VOLQOD_clean_sbu_1, # of connection points: 6
#     Node 2, Type 0, BuildingBlock: VOLQOD_clean_sbu_1, # of connection points: 6
#     Node 3, Type 0, BuildingBlock: VOLQOD_clean_sbu_1, # of connection points: 6
#     Node 4, Type 0, BuildingBlock: VOLQOD_clean_sbu_1, # of connection points: 6
#     Node 5, Type 0, BuildingBlock: VOLQOD_clean_sbu_1, # of connection points: 6
#     Node 6, Type 0, BuildingBlock: VOLQOD_clean_sbu_1, # of connection points: 6
#     Node 7, Type 0, BuildingBlock: VOLQOD_clean_sbu_1, # of connection points: 6
#     Node 8, Type 0, BuildingBlock: VOLQOD_clean_sbu_1, # of connection points: 6
#     Node 9, Type 0, BuildingBlock: VOLQOD_clean_sbu_1, # of connection points: 6
#     Node 10, Type 0, BuildingBlock: VOLQOD_clean_sbu_1, # of connection points: 6
#     Node 11, Type 0, BuildingBlock: VOLQOD_clean_sbu_1, # of connection points: 6
#     Node 12, Type 0, BuildingBlock: VOLQOD_clean_sbu_1, # of connection points: 6
#     Node 13, Type 0, BuildingBlock: VOLQOD_clean_sbu_1, # of connection points: 6
#     Node 14, Type 0, BuildingBlock: VOLQOD_clean_sbu_1, # of connection points: 6
#     Node 15, Type 0, BuildingBlock: VOLQOD_clean_sbu_1, # of connection points: 6
#     Node 16, Type 0, BuildingBlock: VOLQOD_clean_sbu_1, # of connection points: 6
#     Node 17, Type 0, BuildingBlock: VOLQOD_clean_sbu_1, # of connection points: 6
#     Node 18, Type 0, BuildingBlock: VOLQOD_clean_sbu_1, # of connection points: 6
#     Node 19, Type 0, BuildingBlock: VOLQOD_clean_sbu_1, # of connection points: 6
#     Node 20, Type 0, BuildingBlock: VOLQOD_clean_sbu_1, # of connection points: 6
#     Node 21, Type 0, BuildingBlock: VOLQOD_clean_sbu_1, # of connection points: 6
#     Node 22, Type 0, BuildingBlock: VOLQOD_clean_sbu_1, # of connection points: 6
#     Node 23, Type 0, BuildingBlock: VOLQOD_clean_sbu_1, # of connection points: 6
#     Node 24, Type 0, BuildingBlock: VOLQOD_clean_sbu_1, # of connection points: 6
#     Node 25, Type 0, BuildingBlock: VOLQOD_clean_sbu_1, # of connection points: 6
#     Node 26, Type 0, BuildingBlock: VOLQOD_clean_sbu_1, # of connection points: 6
#     Node 27, Type 0, BuildingBlock: VOLQOD_clean_sbu_1, # of connection points: 6
#     Node 28, Type 0, BuildingBlock: VOLQOD_clean_sbu_1, # of connection points: 6
#     Node 29, Type 0, BuildingBlock: VOLQOD_clean_sbu_1, # of connection points: 6
#     Node 30, Type 0, BuildingBlock: VOLQOD_clean_sbu_1, # of connection points: 6
#     Node 31, Type 0, BuildingBlock: VOLQOD_clean_sbu_1, # of connection points: 6
#     Node 32, Type 0, BuildingBlock: VOLQOD_clean_sbu_1, # of connection points: 6
#     Node 33, Type 0, BuildingBlock: VOLQOD_clean_sbu_1, # of connection points: 6
#     Node 34, Type 0, BuildingBlock: VOLQOD_clean_sbu_1, # of connection points: 6
#     Node 35, Type 0, BuildingBlock: VOLQOD_clean_sbu_1, # of connection points: 6
#     Edge 36, Type (0, 0), BuildingBlock: KIFKEQ_clean_linker_1, # of connection points: 2
#     Edge 37, Type (0, 0), BuildingBlock: KIFKEQ_clean_linker_1, # of connection points: 2
#     Edge 38, Type (0, 0), BuildingBlock: KIFKEQ_clean_linker_1, # of connection points: 2
#     Edge 39, Type (0, 0), BuildingBlock: KIFKEQ_clean_linker_1, # of connection points: 2
#     Edge 40, Type (0, 0), BuildingBlock: KIFKEQ_clean_linker_1, # of connection points: 2
#     Edge 41, Type (0, 0), BuildingBlock: KIFKEQ_clean_linker_1, # of connection points: 2
#     Edge 42, Type (0, 0), BuildingBlock: KIFKEQ_clean_linker_1, # of connection points: 2
#     Edge 43, Type (0, 0), BuildingBlock: KIFKEQ_clean_linker_1, # of connection points: 2
#     Edge 44, Type (0, 0), BuildingBlock: KIFKEQ_clean_linker_1, # of connection points: 2
#     Edge 45, Type (0, 0), BuildingBlock: KIFKEQ_clean_linker_1, # of connection points: 2
#     Edge 46, Type (0, 0), BuildingBlock: KIFKEQ_clean_linker_1, # of connection points: 2
#     Edge 47, Type (0, 0), BuildingBlock: KIFKEQ_clean_linker_1, # of connection points: 2
#     Edge 48, Type (0, 0), BuildingBlock: KIFKEQ_clean_linker_1, # of connection points: 2
#     Edge 49, Type (0, 0), BuildingBlock: KIFKEQ_clean_linker_1, # of connection points: 2
#     Edge 50, Type (0, 0), BuildingBlock: KIFKEQ_clean_linker_1, # of connection points: 2
#     Edge 51, Type (0, 0), BuildingBlock: KIFKEQ_clean_linker_1, # of connection points: 2
#     Edge 52, Type (0, 0), BuildingBlock: KIFKEQ_clean_linker_1, # of connection points: 2
#     Edge 53, Type (0, 0), BuildingBlock: KIFKEQ_clean_linker_1, # of connection points: 2
#     Edge 54, Type (0, 0), BuildingBlock: KIFKEQ_clean_linker_1, # of connection points: 2
#     Edge 55, Type (0, 0), BuildingBlock: KIFKEQ_clean_linker_1, # of connection points: 2
#     Edge 56, Type (0, 0), BuildingBlock: KIFKEQ_clean_linker_1, # of connection points: 2
#     Edge 57, Type (0, 0), BuildingBlock: KIFKEQ_clean_linker_1, # of connection points: 2
#     Edge 58, Type (0, 0), BuildingBlock: KIFKEQ_clean_linker_1, # of connection points: 2
#     Edge 59, Type (0, 0), BuildingBlock: KIFKEQ_clean_linker_1, # of connection points: 2
#     Edge 60, Type (0, 0), BuildingBlock: KIFKEQ_clean_linker_1, # of connection points: 2
#     Edge 61, Type (0, 0), BuildingBlock: KIFKEQ_clean_linker_1, # of connection points: 2
#     Edge 62, Type (0, 0), BuildingBlock: KIFKEQ_clean_linker_1, # of connection points: 2
#     Edge 63, Type (0, 0), BuildingBlock: KIFKEQ_clean_linker_1, # of connection points: 2
#     Edge 64, Type (0, 0), BuildingBlock: KIFKEQ_clean_linker_1, # of connection points: 2
#     Edge 65, Type (0, 0), BuildingBlock: KIFKEQ_clean_linker_1, # of connection points: 2
#     Edge 66, Type (0, 0), BuildingBlock: KIFKEQ_clean_linker_1, # of connection points: 2
#     Edge 67, Type (0, 0), BuildingBlock: KIFKEQ_clean_linker_1, # of connection points: 2
#     Edge 68, Type (0, 0), BuildingBlock: KIFKEQ_clean_linker_1, # of connection points: 2
#     Edge 69, Type (0, 0), BuildingBlock: KIFKEQ_clean_linker_1, # of connection points: 2
#     Edge 70, Type (0, 0), BuildingBlock: KIFKEQ_clean_linker_1, # of connection points: 2
#     Edge 71, Type (0, 0), BuildingBlock: KIFKEQ_clean_linker_1, # of connection points: 2
#     Edge 72, Type (0, 0), BuildingBlock: KIFKEQ_clean_linker_1, # of connection points: 2
#     Edge 73, Type (0, 0), BuildingBlock: KIFKEQ_clean_linker_1, # of connection points: 2
#     Edge 74, Type (0, 0), BuildingBlock: KIFKEQ_clean_linker_1, # of connection points: 2
#     Edge 75, Type (0, 0), BuildingBlock: KIFKEQ_clean_linker_1, # of connection points: 2
#     Edge 76, Type (0, 0), BuildingBlock: KIFKEQ_clean_linker_1, # of connection points: 2
#     Edge 77, Type (0, 0), BuildingBlock: KIFKEQ_clean_linker_1, # of connection points: 2
#     Edge 78, Type (0, 0), BuildingBlock: KIFKEQ_clean_linker_1, # of connection points: 2
#     Edge 79, Type (0, 0), BuildingBlock: KIFKEQ_clean_linker_1, # of connection points: 2
#     Edge 80, Type (0, 0), BuildingBlock: KIFKEQ_clean_linker_1, # of connection points: 2
#     Edge 81, Type (0, 0), BuildingBlock: KIFKEQ_clean_linker_1, # of connection points: 2
#     Edge 82, Type (0, 0), BuildingBlock: KIFKEQ_clean_linker_1, # of connection points: 2
#     Edge 83, Type (0, 0), BuildingBlock: KIFKEQ_clean_linker_1, # of connection points: 2
#     Edge 84, Type (0, 0), BuildingBlock: KIFKEQ_clean_linker_1, # of connection points: 2
#     Edge 85, Type (0, 0), BuildingBlock: KIFKEQ_clean_linker_1, # of connection points: 2
#     Edge 86, Type (0, 0), BuildingBlock: KIFKEQ_clean_linker_1, # of connection points: 2
#     Edge 87, Type (0, 0), BuildingBlock: KIFKEQ_clean_linker_1, # of connection points: 2
#     Edge 88, Type (0, 0), BuildingBlock: KIFKEQ_clean_linker_1, # of connection points: 2
#     Edge 89, Type (0, 0), BuildingBlock: KIFKEQ_clean_linker_1, # of connection points: 2
#     Edge 90, Type (0, 0), BuildingBlock: KIFKEQ_clean_linker_1, # of connection points: 2
#     Edge 91, Type (0, 0), BuildingBlock: KIFKEQ_clean_linker_1, # of connection points: 2
#     Edge 92, Type (0, 0), BuildingBlock: KIFKEQ_clean_linker_1, # of connection points: 2
#     Edge 93, Type (0, 0), BuildingBlock: KIFKEQ_clean_linker_1, # of connection points: 2
#     Edge 94, Type (0, 0), BuildingBlock: KIFKEQ_clean_linker_1, # of connection points: 2
#     Edge 95, Type (0, 0), BuildingBlock: KIFKEQ_clean_linker_1, # of connection points: 2
#     Edge 96, Type (0, 0), BuildingBlock: KIFKEQ_clean_linker_1, # of connection points: 2
#     Edge 97, Type (0, 0), BuildingBlock: KIFKEQ_clean_linker_1, # of connection points: 2
#     Edge 98, Type (0, 0), BuildingBlock: KIFKEQ_clean_linker_1, # of connection points: 2
#     Edge 99, Type (0, 0), BuildingBlock: KIFKEQ_clean_linker_1, # of connection points: 2
#     Edge 100, Type (0, 0), BuildingBlock: KIFKEQ_clean_linker_1, # of connection points: 2
#     Edge 101, Type (0, 0), BuildingBlock: KIFKEQ_clean_linker_1, # of connection points: 2
#     Edge 102, Type (0, 0), BuildingBlock: KIFKEQ_clean_linker_1, # of connection points: 2
#     Edge 103, Type (0, 0), BuildingBlock: KIFKEQ_clean_linker_1, # of connection points: 2
#     Edge 104, Type (0, 0), BuildingBlock: KIFKEQ_clean_linker_1, # of connection points: 2
#     Edge 105, Type (0, 0), BuildingBlock: KIFKEQ_clean_linker_1, # of connection points: 2
#     Edge 106, Type (0, 0), BuildingBlock: KIFKEQ_clean_linker_1, # of connection points: 2
#     Edge 107, Type (0, 0), BuildingBlock: KIFKEQ_clean_linker_1, # of connection points: 2
#     Edge 108, Type (0, 0), BuildingBlock: KIFKEQ_clean_linker_1, # of connection points: 2
#     Edge 109, Type (0, 0), BuildingBlock: KIFKEQ_clean_linker_1, # of connection points: 2
#     Edge 110, Type (0, 0), BuildingBlock: KIFKEQ_clean_linker_1, # of connection points: 2
#     Edge 111, Type (0, 0), BuildingBlock: KIFKEQ_clean_linker_1, # of connection points: 2
#     Edge 112, Type (0, 0), BuildingBlock: KIFKEQ_clean_linker_1, # of connection points: 2
#     Edge 113, Type (0, 0), BuildingBlock: KIFKEQ_clean_linker_1, # of connection points: 2
#     Edge 114, Type (0, 0), BuildingBlock: KIFKEQ_clean_linker_1, # of connection points: 2
#     Edge 115, Type (0, 0), BuildingBlock: KIFKEQ_clean_linker_1, # of connection points: 2
#     Edge 116, Type (0, 0), BuildingBlock: KIFKEQ_clean_linker_1, # of connection points: 2
#     Edge 117, Type (0, 0), BuildingBlock: KIFKEQ_clean_linker_1, # of connection points: 2
#     Edge 118, Type (0, 0), BuildingBlock: KIFKEQ_clean_linker_1, # of connection points: 2
#     Edge 119, Type (0, 0), BuildingBlock: KIFKEQ_clean_linker_1, # of connection points: 2
#     Edge 120, Type (0, 0), BuildingBlock: KIFKEQ_clean_linker_1, # of connection points: 2
#     Edge 121, Type (0, 0), BuildingBlock: KIFKEQ_clean_linker_1, # of connection points: 2
#     Edge 122, Type (0, 0), BuildingBlock: KIFKEQ_clean_linker_1, # of connection points: 2
#     Edge 123, Type (0, 0), BuildingBlock: KIFKEQ_clean_linker_1, # of connection points: 2
#     Edge 124, Type (0, 0), BuildingBlock: KIFKEQ_clean_linker_1, # of connection points: 2
#     Edge 125, Type (0, 0), BuildingBlock: KIFKEQ_clean_linker_1, # of connection points: 2
#     Edge 126, Type (0, 0), BuildingBlock: KIFKEQ_clean_linker_1, # of connection points: 2
#     Edge 127, Type (0, 0), BuildingBlock: KIFKEQ_clean_linker_1, # of connection points: 2
#     Edge 128, Type (0, 0), BuildingBlock: KIFKEQ_clean_linker_1, # of connection points: 2
#     Edge 129, Type (0, 0), BuildingBlock: KIFKEQ_clean_linker_1, # of connection points: 2
#     Edge 130, Type (0, 0), BuildingBlock: KIFKEQ_clean_linker_1, # of connection points: 2
#     Edge 131, Type (0, 0), BuildingBlock: KIFKEQ_clean_linker_1, # of connection points: 2
#     Edge 132, Type (0, 0), BuildingBlock: KIFKEQ_clean_linker_1, # of connection points: 2
#     Edge 133, Type (0, 0), BuildingBlock: KIFKEQ_clean_linker_1, # of connection points: 2
#     Edge 134, Type (0, 0), BuildingBlock: KIFKEQ_clean_linker_1, # of connection points: 2
#     Edge 135, Type (0, 0), BuildingBlock: KIFKEQ_clean_linker_1, # of connection points: 2
#     Edge 136, Type (0, 0), BuildingBlock: KIFKEQ_clean_linker_1, # of connection points: 2
#     Edge 137, Type (0, 0), BuildingBlock: KIFKEQ_clean_linker_1, # of connection points: 2
#     Edge 138, Type (0, 0), BuildingBlock: KIFKEQ_clean_linker_1, # of connection points: 2
#     Edge 139, Type (0, 0), BuildingBlock: KIFKEQ_clean_linker_1, # of connection points: 2
#     Edge 140, Type (0, 0), BuildingBlock: KIFKEQ_clean_linker_1, # of connection points: 2
#     Edge 141, Type (0, 0), BuildingBlock: KIFKEQ_clean_linker_1, # of connection points: 2
#     Edge 142, Type (0, 0), BuildingBlock: KIFKEQ_clean_linker_1, # of connection points: 2
#     Edge 143, Type (0, 0), BuildingBlock: KIFKEQ_clean_linker_1, # of connection points: 2
# Relax obj value: 0.169
# Max RMSD: 0.145
# Mean RMSD: 0.145
data_MOF--net-wne--node1-VOLQOD_clean_sbu_1--edge1-KIFKEQ_clean_linker_1
_symmetry_space_group_name_H-M    P1
_symmetry_Int_Tables_number       1
_symmetry_cell_setting            triclinic
loop_
_symmetry_equiv_pos_as_xyz
'x, y, z'
_cell_length_a     69.73858
_cell_length_b     69.611351
_cell_length_c     44.402859
_cell_angle_alpha  89.860804
_cell_angle_beta   90.006986
_cell_angle_gamma 120.00842
loop_
_atom_site_label
_atom_site_type_symbol
_atom_site_fract_x
_atom_site_fract_y
_atom_site_fract_z
_atom_type_partial_charge
O0 O 0.26178 0.20133 0.02854 0.0
Zn1 Zn 0.2496 0.19843 0.07035 0.0
O2 O 0.21804 0.17848 0.07219 0.0
Zn3 Zn 0.21063 0.15494 0.10158 0.0
Zn4 Zn 0.20825 0.16706 0.03169 0.0
Zn5 Zn 0.20336 0.19403 0.08559 0.0
O6 O 0.19458 0.15684 0.13884 0.0
O7 O 0.19354 0.18745 0.12878 0.0
O8 O 0.26575 0.18808 0.09654 0.0
O9 O 0.23852 0.15745 0.11717 0.0
O10 O 0.19484 0.1253 0.0812 0.0
O11 O 0.19913 0.13496 0.03269 0.0
O12 O 0.18056 0.16784 0.02119 0.0
O13 O 0.25655 0.22874 0.08238 0.0
O14 O 0.17666 0.18512 0.0607 0.0
O15 O 0.22362 0.22658 0.08275 0.0
C16 C 0.25331 0.19518 1.00251 0.0
C17 C 0.1902 0.17182 0.14676 0.0
C18 C 0.19322 0.12031 0.05335 0.0
C19 C 0.25901 0.17123 0.1136 0.0
C20 C 0.16967 0.17496 0.03582 0.0
C21 C 0.24464 0.2378 0.08413 0.0
O22 O 0.23241 0.1828 0.99926 0.0
O23 O 0.76058 0.05368 0.04049 0.0
Zn24 Zn 0.762 0.03965 0.07946 0.0
O25 O 0.78619 0.03351 0.08086 0.0
Zn26 Zn 0.80799 0.05161 0.11105 0.0
Zn27 Zn 0.79848 0.0388 0.04032 0.0
Zn28 Zn 0.77592 0.00319 0.09275 0.0
O29 O 0.81118 0.0342 0.14558 0.0
O30 O 0.78407 0.00032 0.1353 0.0
O31 O 0.7643 0.06025 0.11241 0.0
O32 O 0.79742 0.06991 0.13142 0.0
O33 O 0.8372 0.07229 0.09136 0.0
O34 O 0.82922 0.06422 0.04285 0.0
O35 O 0.80106 0.01275 0.02571 0.0
O36 O 0.73368 0.01108 0.08276 0.0
O37 O 0.78872 -0.00988 0.06529 0.0
O38 O 0.7431 0.98521 0.08994 0.0
C39 C 0.76843 0.05451 0.01436 0.0
C40 C 0.79901 0.01392 0.15302 0.0
C41 C 0.84268 0.07562 0.06364 0.0
C42 C 0.77994 0.07132 0.13084 0.0
C43 C 0.79753 -0.00489 0.03925 0.0
C44 C 0.72855 -0.0091 0.08617 0.0
O45 O 0.78204 0.04761 0.00984 0.0
O46 O 0.91578 0.70332 0.0338 0.0
Zn47 Zn 0.9254 0.71782 0.07455 0.0
O48 O 0.93551 0.74932 0.07313 0.0
Zn49 Zn 0.9182 0.75658 0.10041 0.0
Zn50 Zn 0.93354 0.75718 0.03139 0.0
Zn51 Zn 0.96562 0.7663 0.08717 0.0
O52 O 0.93468 0.77306 0.13834 0.0
O53 O 0.96825 0.7789 0.12859 0.0
O54 O 0.89919 0.70182 0.10165 0.0
O55 O 0.89247 0.72861 0.1151 0.0
O56 O 0.90534 0.77245 0.0781 0.0
O57 O 0.91155 0.76768 0.03021 0.0
O58 O 0.96255 0.78342 0.01784 0.0
O59 O 0.94989 0.7132 0.08898 0.0
O60 O -0.01665 0.79084 0.05883 0.0
O61 O 0.97907 0.74724 0.09075 0.0
C62 C 0.91627 0.71038 0.00717 0.0
C63 C 0.9547 0.78036 0.14626 0.0
C64 C 0.90276 0.77413 0.05 0.0
C65 C 0.88734 0.70833 0.11501 0.0
C66 C -0.01947 0.79549 0.03207 0.0
C67 C 0.97049 0.72634 0.09307 0.0
O68 O 0.92348 0.73095 1.00212 0.0
O69 O 0.19547 0.27531 0.47761 0.0
Zn70 Zn 0.19726 0.2605 0.43959 0.0
O71 O 0.17401 0.23008 0.43555 0.0
Zn72 Zn 0.15383 0.22678 0.4033 0.0
Zn73 Zn 0.16023 0.22194 0.47492 0.0
Zn74 Zn 0.18519 0.21051 0.42539 0.0
O75 O 0.15413 0.20806 0.36849 0.0
O76 O 0.18106 0.20165 0.38155 0.0
O77 O 0.19723 0.27906 0.40522 0.0
O78 O 0.16435 0.25642 0.3847 0.0
O79 O 0.12295 0.21462 0.41972 0.0
O80 O 0.1287 0.21265 0.46879 0.0
O81 O 0.1596 0.19479 0.49094 0.0
O82 O 0.22551 0.26041 0.44285 0.0
O83 O 0.16932 0.18296 0.45031 0.0
O84 O 0.21748 0.22549 0.43523 0.0
C85 C 0.18646 0.26742 0.50297 0.0
C86 C 0.16708 0.20065 0.36227 0.0
C87 C 0.11592 0.2099 0.44674 0.0
C88 C 0.18211 0.27513 0.38613 0.0
C89 C 0.16136 0.17987 0.47683 0.0
C90 C 0.23112 0.24561 0.44174 0.0
O91 O 0.17342 0.24664 0.50637 0.0
O92 O 0.69397 0.92672 0.47761 0.0
Zn93 Zn 0.7095 0.93551 0.43705 0.0
O94 O 0.74034 0.94382 0.43971 0.0
Zn95 Zn 0.74777 0.92713 0.41178 0.0
Zn96 Zn 0.74612 0.93866 0.4808 0.0
Zn97 Zn 0.7588 0.97452 0.42868 0.0
O98 O 0.76593 0.94501 0.37584 0.0
O99 O 0.77143 0.97836 0.38681 0.0
O100 O 0.69326 0.9098 0.40922 0.0
O101 O 0.71984 0.90305 0.39477 0.0
O102 O 0.76194 0.91205 0.43311 0.0
O103 O 0.75292 0.91407 0.48061 0.0
O104 O 0.77404 0.96506 0.49591 0.0
O105 O 0.7074 0.96136 0.42202 0.0
O106 O 0.78374 -0.01131 0.4575 0.0
O107 O 0.7414 -0.00988 0.42826 0.0
C108 C 0.70022 0.92568 0.50424 0.0
C109 C 0.7734 0.96527 0.36879 0.0
C110 C 0.76057 0.90653 0.46073 0.0
C111 C 0.69971 0.89829 0.39477 0.0
C112 C 0.78764 0.98332 0.48324 0.0
C113 C 0.72101 0.98215 0.42206 0.0
O114 O 0.72011 0.93037 0.50933 0.0
O115 O 0.04909 0.76505 0.46945 0.0
Zn116 Zn 0.03609 0.7688 0.43031 0.0
O117 O 0.0265 0.7904 0.43272 0.0
Zn118 Zn 0.04247 0.81481 0.40465 0.0
Zn119 Zn 0.03073 0.80029 0.47415 0.0
Zn120 Zn -0.00421 0.77762 0.42195 0.0
O121 O 0.02377 0.81511 0.36961 0.0
O122 O -0.00854 0.78537 0.37968 0.0
O123 O 0.05893 0.7772 0.3984 0.0
O124 O 0.06598 0.81096 0.38523 0.0
O125 O 0.05771 0.84383 0.42673 0.0
O126 O 0.05384 0.83213 0.47428 0.0
O127 O 0.00349 0.79931 0.49052 0.0
O128 O 0.01 0.73948 0.42119 0.0
O129 O -0.01855 0.78871 0.45032 0.0
O130 O -0.01901 0.74461 0.42412 0.0
C131 C 0.04869 0.77121 0.49632 0.0
C132 C 0.00391 0.80124 0.36212 0.0
C133 C 0.06206 0.84759 0.45469 0.0
C134 C 0.06996 0.79505 0.38345 0.0
C135 C -0.01403 0.796 0.47716 0.0
C136 C -0.01081 0.73198 0.42134 0.0
O137 O 0.0408 0.78384 0.50203 0.0
O138 O 0.69476 0.78575 0.97193 0.0
Zn139 Zn 0.70644 0.78514 0.93096 0.0
O140 O 0.73853 0.80134 0.92957 0.0
Zn141 Zn 0.74894 0.82564 0.9004 0.0
Zn142 Zn 0.74944 0.81224 0.9701 0.0
Zn143 Zn 0.74903 0.78174 0.91636 0.0
O144 O 0.76379 0.82109 0.86407 0.0
O145 O 0.76279 0.78959 0.87536 0.0
O146 O 0.69405 0.79798 0.90234 0.0
O147 O 0.72347 0.82815 0.88441 0.0
O148 O 0.76946 0.85453 0.92017 0.0
O149 O 0.76744 0.84546 0.9687 0.0
O150 O 0.7707 0.8025 0.98364 0.0
O151 O 0.6942 0.75314 0.92136 0.0
O152 O 0.77157 0.78294 0.94478 0.0
O153 O 0.7243 0.75052 0.91426 0.0
C154 C 0.70348 0.79228 0.99775 0.0
C155 C 0.76776 0.80564 0.85734 0.0
C156 C 0.77472 0.85984 0.94759 0.0
C157 C 0.70262 0.81545 0.88625 0.0
C158 C 0.77829 0.79141 0.97067 0.0
C159 C 0.70337 0.74168 0.91596 0.0
O160 O 0.72446 0.80221 1.00114 0.0
O161 O 0.19442 0.907 0.96846 0.0
Zn162 Zn 0.19463 0.92029 0.92836 0.0
O163 O 0.17877 0.93652 0.92906 0.0
Zn164 Zn 0.15457 0.92409 0.90008 0.0
Zn165 Zn 0.16741 0.93461 0.9698 0.0
Zn166 Zn 0.19876 0.96708 0.9175 0.0
O167 O 0.15949 0.94476 0.86539 0.0
O168 O 0.19165 0.97444 0.87641 0.0
O169 O 0.18124 0.89568 0.89899 0.0
O170 O 0.15168 0.89657 0.88224 0.0
O171 O 0.12552 0.91491 0.91989 0.0
O172 O 0.13428 0.91916 0.96853 0.0
O173 O 0.17691 0.96504 0.9854 0.0
O174 O 0.22646 0.9399 0.91884 0.0
O175 O 0.19657 0.98711 0.94756 0.0
O176 O 0.23011 0.97341 0.91647 0.0
C177 C 0.18731 0.90773 0.99454 0.0
C178 C 0.17527 0.96403 0.85872 0.0
C179 C 0.12002 0.91316 0.94749 0.0
C180 C 0.16378 0.88771 0.88311 0.0
C181 C 0.18783 0.98423 0.97356 0.0
C182 C 0.23846 0.96081 0.91618 0.0
O183 O 0.17682 0.91812 0.99904 0.0
O184 O 0.06255 0.27973 0.98138 0.0
Zn185 Zn 0.05164 0.26803 0.94018 0.0
O186 O 0.03429 0.2359 0.94001 0.0
Zn187 Zn 0.04722 0.224 0.91213 0.0
Zn188 Zn 0.03383 0.22515 0.98088 0.0
Zn189 Zn 0.00459 0.22667 0.92616 0.0
O190 O 0.02846 0.21049 0.87536 0.0
O191 O -0.00206 0.21156 0.88575 0.0
O192 O 0.07822 0.27876 0.91424 0.0
O193 O 0.07682 0.24793 0.89801 0.0
O194 O 0.05231 0.20139 0.93229 0.0
O195 O 0.04621 0.20461 0.98065 0.0
O196 O 0.00262 0.20705 0.99553 0.0
O197 O 0.03395 0.282 0.92773 0.0
O198 O -0.01749 0.20636 0.95628 0.0
O199 O 0.00037 0.25283 0.92191 0.0
C200 C 0.06126 0.27119 0.00716 0.0
C201 C 0.00917 0.20654 0.86816 0.0
C202 C 0.05195 0.196 0.95975 0.0
C203 C 0.08662 0.26895 0.89989 0.0
C204 C -0.01604 0.20057 0.98301 0.0
C205 C 0.01342 0.27371 0.92235 0.0
O206 O 0.05093 0.2502 0.01079 0.0
O207 O 0.76882 0.69618 0.53623 0.0
Zn208 Zn 0.76905 0.70974 0.57619 0.0
O209 O 0.78769 0.74164 0.57581 0.0
Zn210 Zn 0.81177 0.75124 0.60469 0.0
Zn211 Zn 0.79821 0.75073 0.53477 0.0
Zn212 Zn 0.77085 0.75524 0.58778 0.0
O213 O 0.80888 0.76791 0.64011 0.0
O214 O 0.77726 0.76682 0.62999 0.0
O215 O 0.77984 0.69619 0.60615 0.0
O216 O 0.81142 0.72465 0.6225 0.0
O217 O 0.84093 0.7695 0.58385 0.0
O218 O 0.8311 0.76541 0.53555 0.0
O219 O 0.79181 0.77426 0.51971 0.0
O220 O 0.73757 0.70107 0.58423 0.0
O221 O 0.77811 0.78078 0.56115 0.0
O222 O 0.73867 0.73356 0.58435 0.0
C223 C 0.7755 0.70403 0.50998 0.0
C224 C 0.79352 0.77184 0.64749 0.0
C225 C 0.84589 0.77276 0.55598 0.0
C226 C 0.79737 0.70399 0.62191 0.0
C227 C 0.78539 0.7857 0.53437 0.0
C228 C 0.72789 0.71246 0.58469 0.0
O229 O 0.78628 0.72492 0.50537 0.0
O230 O 0.26501 0.06876 0.52852 0.0
Zn231 Zn 0.2533 0.05773 0.57003 0.0
O232 O 0.22138 0.04313 0.57148 0.0
Zn233 Zn 0.21165 0.05765 0.60011 0.0
Zn234 Zn 0.21068 0.04276 0.53093 0.0
Zn235 Zn 0.20945 0.01316 0.58513 0.0
O236 O 0.19921 0.03994 0.63866 0.0
O237 O 0.19966 0.00908 0.6282 0.0
O238 O 0.26658 0.08433 0.59622 0.0
O239 O 0.23764 0.08652 0.61285 0.0
O240 O 0.1897 0.06427 0.58032 0.0
O241 O 0.19364 0.05869 0.53188 0.0
O242 O 0.18859 0.01192 0.51792 0.0
O243 O 0.26397 0.0367 0.5808 0.0
O244 O 0.18366 -0.0072 0.56017 0.0
O245 O 0.23242 0.0044 0.58169 0.0
C246 C 0.25622 0.06683 0.5028 0.0
C247 C 0.19603 0.02095 0.64647 0.0
C248 C 0.18533 0.06494 0.55258 0.0
C249 C 0.25844 0.0944 0.61055 0.0
C250 C 0.17822 -0.00582 0.53327 0.0
C251 C 0.25347 0.01559 0.58203 0.0
O252 O 0.23526 0.05668 0.49967 0.0
O253 O 0.8987 0.18728 0.54232 0.0
Zn254 Zn 0.91159 0.18839 0.58299 0.0
O255 O 0.927 0.17172 0.58378 0.0
Zn256 Zn 0.91366 0.14831 0.61384 0.0
Zn257 Zn 0.92555 0.15951 0.5439 0.0
Zn258 Zn 0.95748 0.19095 0.5951 0.0
O259 O 0.9327 0.155 0.65072 0.0
O260 O 0.96405 0.1848 0.63704 0.0
O261 O 0.88625 0.17556 0.61128 0.0
O262 O 0.88478 0.14466 0.62757 0.0
O263 O 0.9072 0.1193 0.59659 0.0
O264 O 0.91238 0.12658 0.54747 0.0
O265 O 0.95583 0.17077 0.52701 0.0
O266 O 0.93178 0.22046 0.59207 0.0
O267 O 0.9777 0.18866 0.56565 0.0
O268 O 0.96449 0.22235 0.59425 0.0
C269 C 0.89861 0.1785 0.51721 0.0
C270 C 0.95243 0.17011 0.65655 0.0
C271 C 0.90685 0.11311 0.56957 0.0
C272 C 0.87671 0.15746 0.62598 0.0
C273 C 0.97493 0.18124 0.53889 0.0
C274 C 0.95275 0.23162 0.59418 0.0
O275 O 0.90826 0.16718 0.51404 0.0
O276 O 0.92734 0.53245 0.37465 0.0
Zn277 Zn 0.91228 0.52902 0.41479 0.0
O278 O 0.88082 0.50812 0.41333 0.0
Zn279 Zn 0.87282 0.48409 0.4419 0.0
Zn280 Zn 0.87352 0.49727 0.37218 0.0
Zn281 Zn 0.86421 0.52225 0.42505 0.0
O282 O 0.8553 0.48489 0.47784 0.0
O283 O 0.85186 0.51407 0.46711 0.0
O284 O 0.92747 0.51964 0.44437 0.0
O285 O 0.90026 0.48671 0.45922 0.0
O286 O 0.85769 0.45483 0.42101 0.0
O287 O 0.86337 0.4649 0.37272 0.0
O288 O 0.84743 0.49934 0.35721 0.0
O289 O 0.91717 0.55878 0.42574 0.0
O290 O 0.83934 0.51374 0.39651 0.0
O291 O 0.88359 0.55508 0.42459 0.0
C292 C 0.92034 0.52573 0.34811 0.0
C293 C 0.84905 0.49861 0.48508 0.0
C294 C 0.85664 0.45005 0.39318 0.0
C295 C 0.92053 0.50178 0.45933 0.0
C296 C 0.83499 0.5053 0.37027 0.0
C297 C 0.9045 0.567 0.42703 0.0
O298 O 0.89975 0.51282 0.34307 0.0
O299 O 0.42465 0.38462 0.37357 0.0
Zn300 Zn 0.42925 0.37401 0.41386 0.0
O301 O 0.45095 0.36434 0.41217 0.0
Zn302 Zn 0.47551 0.38178 0.43943 0.0
Zn303 Zn 0.46075 0.36699 0.37039 0.0
Zn304 Zn 0.4381 0.33394 0.42562 0.0
O305 O 0.47631 0.36473 0.4763 0.0
O306 O 0.44882 0.33098 0.46644 0.0
O307 O 0.43882 0.39948 0.44196 0.0
O308 O 0.47252 0.40683 0.45533 0.0
O309 O 0.50422 0.39552 0.41694 0.0
O310 O 0.49323 0.3886 0.36914 0.0
O311 O 0.45747 0.33817 0.35564 0.0
O312 O 0.40018 0.34896 0.42729 0.0
O313 O 0.44463 0.31663 0.39618 0.0
O314 O 0.40553 0.32009 0.42982 0.0
C315 C 0.43161 0.38488 0.34699 0.0
C316 C 0.46404 0.34449 0.48389 0.0
C317 C 0.50845 0.39773 0.38884 0.0
C318 C 0.45701 0.41142 0.45563 0.0
C319 C 0.45172 0.31994 0.3692 0.0
C320 C 0.39295 0.32838 0.43161 0.0
O321 O 0.44508 0.37789 0.34177 0.0
O322 O 0.57803 0.03978 0.37035 0.0
Zn323 Zn 0.59094 0.0539 0.41048 0.0
O324 O 0.60075 0.08516 0.41177 0.0
Zn325 Zn 0.58487 0.0915 0.44258 0.0
Zn326 Zn 0.59649 0.0934 0.37148 0.0
Zn327 Zn 0.63163 0.1024 0.42252 0.0
O328 O 0.60392 0.10885 0.47809 0.0
O329 O 0.63635 0.11259 0.46573 0.0
O330 O 0.56761 0.03709 0.4411 0.0
O331 O 0.56158 0.06307 0.46027 0.0
O332 O 0.56954 0.10645 0.42409 0.0
O333 O 0.5749 0.10401 0.37505 0.0
O334 O 0.62405 0.11983 0.35623 0.0
O335 O 0.61686 0.04998 0.41701 0.0
O336 O 0.64611 0.12928 0.39632 0.0
O337 O 0.64615 0.08407 0.41722 0.0
C338 C 0.57773 0.04751 0.34448 0.0
C339 C 0.62394 0.11492 0.48461 0.0
C340 C 0.56647 0.10941 0.39659 0.0
C341 C 0.55706 0.043 0.45854 0.0
C342 C 0.64162 0.13334 0.37012 0.0
C343 C 0.63771 0.06308 0.41737 0.0
O344 O 0.5853 0.06824 0.34063 0.0
O345 O 0.8643 0.60326 0.8111 0.0
Zn346 Zn 0.8589 0.58828 0.77055 0.0
O347 O 0.83799 0.55683 0.77286 0.0
Zn348 Zn 0.81342 0.54891 0.74557 0.0
Zn349 Zn 0.82805 0.54962 0.81449 0.0
Zn350 Zn 0.85159 0.53999 0.75999 0.0
O351 O 0.81378 0.53209 0.70854 0.0
O352 O 0.84229 0.52742 0.71827 0.0
O353 O 0.84808 0.60367 0.74341 0.0
O354 O 0.81479 0.57641 0.73023 0.0
O355 O 0.78482 0.53263 0.76767 0.0
O356 O 0.79571 0.53953 0.81553 0.0
O357 O 0.82981 0.52301 0.82844 0.0
O358 O 0.88782 0.59292 0.75567 0.0
O359 O 0.84366 0.51507 0.78839 0.0
O360 O 0.88427 0.55933 0.75817 0.0
C361 C 0.85807 0.59645 0.83791 0.0
C362 C 0.8269 0.52525 0.70074 0.0
C363 C 0.78051 0.53194 0.79563 0.0
C364 C 0.82965 0.59678 0.7301 0.0
C365 C 0.83546 0.51053 0.8148 0.0
C366 C 0.89592 0.58014 0.75388 0.0
O367 O 0.84468 0.57594 0.84333 0.0
O368 O 0.35932 0.25724 0.8038 0.0
Zn369 Zn 0.37683 0.26761 0.76456 0.0
O370 O 0.40732 0.27485 0.76905 0.0
Zn371 Zn 0.41454 0.25751 0.74186 0.0
Zn372 Zn 0.41162 0.26984 0.81083 0.0
Zn373 Zn 0.42737 0.30533 0.75861 0.0
O374 O 0.43402 0.27509 0.70644 0.0
O375 O 0.44023 0.30873 0.71714 0.0
O376 O 0.36105 0.24321 0.73472 0.0
O377 O 0.38668 0.23442 0.72302 0.0
O378 O 0.42653 0.241 0.76489 0.0
O379 O 0.41718 0.24446 0.81176 0.0
O380 O 0.4389 0.29605 0.82804 0.0
O381 O 0.37675 0.29473 0.75033 0.0
O382 O 0.45199 0.31849 0.78821 0.0
O383 O 0.41135 0.32231 0.75752 0.0
C384 C 0.36494 0.25638 0.83088 0.0
C385 C 0.442 0.29543 0.69932 0.0
C386 C 0.42415 0.23572 0.79269 0.0
C387 C 0.36705 0.23105 0.72102 0.0
C388 C 0.45394 0.31344 0.81514 0.0
C389 C 0.39121 0.3153 0.7507 0.0
O390 O 0.38482 0.26176 0.83728 0.0
O391 O 0.7183 0.10734 0.81601 0.0
Zn392 Zn 0.70453 0.10709 0.77624 0.0
O393 O 0.69589 0.12927 0.77324 0.0
Zn394 Zn 0.71332 0.15143 0.74297 0.0
Zn395 Zn 0.69902 0.14135 0.81347 0.0
Zn396 Zn 0.66566 0.11633 0.7605 0.0
O397 O 0.69514 0.15263 0.70783 0.0
O398 O 0.66289 0.12245 0.71698 0.0
O399 O 0.72599 0.11065 0.74437 0.0
O400 O 0.73368 0.14283 0.72364 0.0
O401 O 0.73221 0.18103 0.7629 0.0
O402 O 0.72397 0.17224 0.81132 0.0
O403 O 0.67238 0.14397 0.82468 0.0
O404 O 0.67777 0.07748 0.77325 0.0
O405 O 0.65108 0.12932 0.78442 0.0
O406 O 0.64967 0.08364 0.76705 0.0
C407 C 0.71632 0.11361 0.84212 0.0
C408 C 0.67558 0.13836 0.69962 0.0
C409 C 0.73509 0.18618 0.79075 0.0
C410 C 0.73654 0.1262 0.72551 0.0
C411 C 0.65512 0.13941 0.80948 0.0
C412 C 0.65714 0.07049 0.77095 0.0
O413 O 0.70688 0.12513 0.8458 0.0
O414 O 0.35477 0.10623 0.30134 0.0
Zn415 Zn 0.3686 0.1055 0.26185 0.0
O416 O 0.40068 0.12358 0.2629 0.0
Zn417 Zn 0.41112 0.14737 0.23322 0.0
Zn418 Zn 0.4095 0.1355 0.30333 0.0
Zn419 Zn 0.4137 0.10559 0.25299 0.0
O420 O 0.42818 0.14355 0.19936 0.0
O421 O 0.42779 0.11253 0.21189 0.0
O422 O 0.35602 0.11636 0.23032 0.0
O423 O 0.38533 0.14741 0.21414 0.0
O424 O 0.42919 0.17712 0.25245 0.0
O425 O 0.42546 0.16856 0.30122 0.0
O426 O 0.43147 0.12813 0.32064 0.0
O427 O 0.359 0.07362 0.25455 0.0
O428 O 0.43673 0.11035 0.28299 0.0
O429 O 0.39083 0.07357 0.25405 0.0
C430 C 0.36258 0.11385 0.32729 0.0
C431 C 0.43288 0.12847 0.19358 0.0
C432 C 0.43282 0.18279 0.27999 0.0
C433 C 0.36462 0.13379 0.21412 0.0
C434 C 0.44149 0.11887 0.30914 0.0
C435 C 0.36979 0.06334 0.25356 0.0
O436 O 0.38341 0.12486 0.33184 0.0
O437 O 0.85425 0.23246 0.31608 0.0
Zn438 Zn 0.85555 0.2462 0.27568 0.0
O439 O 0.84034 0.2631 0.27669 0.0
Zn440 Zn 0.81584 0.25124 0.24861 0.0
Zn441 Zn 0.83022 0.26283 0.31743 0.0
Zn442 Zn 0.86022 0.29309 0.26472 0.0
O443 O 0.82227 0.27051 0.21172 0.0
O444 O 0.8552 0.29937 0.22211 0.0
O445 O 0.84072 0.22108 0.24674 0.0
O446 O 0.81018 0.22177 0.23416 0.0
O447 O 0.78811 0.24636 0.26883 0.0
O448 O 0.79738 0.24849 0.31713 0.0
O449 O 0.84014 0.29355 0.332 0.0
O450 O 0.88816 0.26581 0.26737 0.0
O451 O 0.85695 0.31395 0.29164 0.0
O452 O 0.8909 0.29904 0.26899 0.0
C453 C 0.84831 0.2347 0.34232 0.0
C454 C 0.83896 0.28899 0.20421 0.0
C455 C 0.78308 0.24447 0.29666 0.0
C456 C 0.82195 0.2125 0.23375 0.0
C457 C 0.84946 0.31208 0.31824 0.0
C458 C 0.89971 0.28688 0.26841 0.0
O459 O 0.83957 0.24673 0.3468 0.0
O460 O 0.7261 0.60671 0.30942 0.0
Zn461 Zn 0.71373 0.59606 0.26831 0.0
O462 O 0.69801 0.56397 0.26588 0.0
Zn463 Zn 0.71165 0.5544 0.23553 0.0
Zn464 Zn 0.69831 0.5522 0.30568 0.0
Zn465 Zn 0.66781 0.55339 0.25369 0.0
O466 O 0.69201 0.54051 0.19937 0.0
O467 O 0.66204 0.54231 0.21098 0.0
O468 O 0.73916 0.60942 0.24012 0.0
O469 O 0.73927 0.58042 0.21959 0.0
O470 O 0.72046 0.53361 0.25363 0.0
O471 O 0.71396 0.53485 0.30252 0.0
O472 O 0.66762 0.53006 0.31916 0.0
O473 O 0.69366 0.60825 0.26043 0.0
O474 O 0.64698 0.52877 0.28032 0.0
O475 O 0.66074 0.57764 0.25712 0.0
C476 C 0.7241 0.59745 0.33483 0.0
C477 C 0.67299 0.53754 0.19251 0.0
C478 C 0.7209 0.528 0.28082 0.0
C479 C 0.74779 0.60126 0.22289 0.0
C480 C 0.64898 0.52179 0.30595 0.0
C481 C 0.67268 0.59864 0.25843 0.0
O482 O 0.71313 0.57638 0.33759 0.0
O483 O 0.44635 0.03287 0.86493 0.0
Zn484 Zn 0.44731 0.04366 0.90706 0.0
O485 O 0.46182 0.07583 0.90862 0.0
Zn486 Zn 0.48678 0.0876 0.93625 0.0
Zn487 Zn 0.47109 0.08754 0.86781 0.0
Zn488 Zn 0.44188 0.08489 0.92439 0.0
O489 O 0.48164 0.09942 0.97526 0.0
O490 O 0.44963 0.09756 0.96583 0.0
O491 O 0.46404 0.03281 0.93157 0.0
O492 O 0.49342 0.06386 0.94739 0.0
O493 O 0.51371 0.11122 0.91597 0.0
O494 O 0.50415 0.10789 0.86758 0.0
O495 O 0.45863 0.10696 0.85614 0.0
O496 O 0.41545 0.02957 0.91998 0.0
O497 O 0.44147 0.10761 0.89796 0.0
O498 O 0.41159 0.05908 0.92688 0.0
C499 C 0.45204 0.042 0.83914 0.0
C500 C 0.46579 0.10235 0.98336 0.0
C501 C 0.5185 0.11673 0.88849 0.0
C502 C 0.48266 0.04286 0.94496 0.0
C503 C 0.44811 0.11422 0.87127 0.0
C504 C 0.40351 0.03819 0.92582 0.0
O505 O 0.46157 0.06305 0.83624 0.0
O506 O 0.9363 0.40571 0.8795 0.0
Zn507 Zn 0.92471 0.39421 0.92085 0.0
O508 O 0.89263 0.37583 0.92124 0.0
Zn509 Zn 0.87981 0.38751 0.94973 0.0
Zn510 Zn 0.8818 0.37544 0.88073 0.0
Zn511 Zn 0.88409 0.34607 0.93404 0.0
O512 O 0.86774 0.3685 0.98702 0.0
O513 O 0.8697 0.33868 0.97484 0.0
O514 O 0.93438 0.4209 0.94638 0.0
O515 O 0.90285 0.41772 0.96289 0.0
O516 O 0.85643 0.3918 0.93014 0.0
O517 O 0.86139 0.38785 0.88153 0.0
O518 O 0.86383 0.34448 0.8659 0.0
O519 O 0.93952 0.37707 0.93302 0.0
O520 O 0.86377 0.32383 0.90411 0.0
O521 O 0.91078 0.34293 0.93725 0.0
C522 C 0.92745 0.40351 0.85379 0.0
C523 C 0.86465 0.34931 0.99344 0.0
C524 C 0.85192 0.39248 0.90252 0.0
C525 C 0.92382 0.4286 0.96048 0.0
C526 C 0.85771 0.32565 0.87772 0.0
C527 C 0.93153 0.35638 0.93741 0.0
O528 O 0.90651 0.39221 0.85049 0.0
O529 O 0.5648 0.53136 0.86351 0.0
Zn530 Zn 0.57697 0.53231 0.90458 0.0
O531 O 0.59226 0.51556 0.90695 0.0
Zn532 Zn 0.57833 0.49159 0.93632 0.0
Zn533 Zn 0.59182 0.50401 0.86687 0.0
Zn534 Zn 0.62231 0.53464 0.92027 0.0
O535 O 0.5975 0.4958 0.97259 0.0
O536 O 0.62766 0.52779 0.96236 0.0
O537 O 0.55167 0.52019 0.93298 0.0
O538 O 0.55131 0.49062 0.95268 0.0
O539 O 0.56871 0.46217 0.91704 0.0
O540 O 0.57417 0.47088 0.86837 0.0
O541 O 0.62235 0.51126 0.85472 0.0
O542 O 0.5975 0.56447 0.91292 0.0
O543 O 0.64298 0.5312 0.89324 0.0
O544 O 0.62987 0.56619 0.91957 0.0
C545 C 0.56755 0.52507 0.83784 0.0
C546 C 0.61652 0.51155 0.98007 0.0
C547 C 0.56714 0.45654 0.8895 0.0
C548 C 0.54306 0.50321 0.95001 0.0
C549 C 0.64095 0.52177 0.86801 0.0
C550 C 0.61828 0.57557 0.91734 0.0
O551 O 0.57871 0.51523 0.83491 0.0
O552 O 0.59514 0.88016 0.70211 0.0
Zn553 Zn 0.58117 0.87357 0.74352 0.0
O554 O 0.55039 0.85053 0.74303 0.0
Zn555 Zn 0.54494 0.82717 0.77185 0.0
Zn556 Zn 0.54297 0.83944 0.70201 0.0
Zn557 Zn 0.53193 0.86241 0.75554 0.0
O558 O 0.52758 0.82673 0.80876 0.0
O559 O 0.52031 0.8534 0.79767 0.0
O560 O 0.59911 0.86501 0.76937 0.0
O561 O 0.5737 0.83243 0.78797 0.0
O562 O 0.53084 0.79766 0.75121 0.0
O563 O 0.53394 0.80745 0.70284 0.0
O564 O 0.51573 0.8398 0.68763 0.0
O565 O 0.58335 0.90117 0.75987 0.0
O566 O 0.50659 0.85248 0.72779 0.0
O567 O 0.54895 0.89532 0.75655 0.0
C568 C 0.58848 0.87175 0.6761 0.0
C569 C 0.51958 0.83899 0.81599 0.0
C570 C 0.52867 0.79279 0.72332 0.0
C571 C 0.59368 0.84798 0.78561 0.0
C572 C 0.50247 0.84434 0.7014 0.0
C573 C 0.56945 0.9079 0.76174 0.0
O574 O 0.5687 0.85584 0.67226 0.0
O575 O 0.09903 0.72118 0.69686 0.0
Zn576 Zn 0.0995 0.70931 0.73802 0.0
O577 O 0.11994 0.69832 0.74116 0.0
Zn578 Zn 0.14231 0.71436 0.77173 0.0
Zn579 Zn 0.13262 0.7012 0.70124 0.0
Zn580 Zn 0.10483 0.6677 0.75378 0.0
O581 O 0.14023 0.69575 0.80826 0.0
O582 O 0.1102 0.66385 0.79751 0.0
O583 O 0.10669 0.73358 0.76709 0.0
O584 O 0.13748 0.73802 0.78841 0.0
O585 O 0.17262 0.7297 0.75307 0.0
O586 O 0.16466 0.72359 0.70417 0.0
O587 O 0.13185 0.67307 0.68954 0.0
O588 O 0.06903 0.68461 0.74521 0.0
O589 O 0.11535 0.65112 0.7289 0.0
O590 O 0.07227 0.65446 0.74843 0.0
C591 C 0.10627 0.71974 0.67117 0.0
C592 C 0.12543 0.6762 0.81586 0.0
C593 C 0.17853 0.73263 0.7255 0.0
C594 C 0.12273 0.74351 0.78532 0.0
C595 C 0.12542 0.65496 0.70378 0.0
C596 C 0.06048 0.66367 0.74707 0.0
O597 O 0.11849 0.71101 0.66837 0.0
O598 O 0.24356 0.36725 0.70412 0.0
Zn599 Zn 0.2584 0.38174 0.7433 0.0
O600 O 0.2673 0.41285 0.74542 0.0
Zn601 Zn 0.25086 0.41795 0.7766 0.0
Zn602 Zn 0.26244 0.421 0.70544 0.0
Zn603 Zn 0.29819 0.43114 0.75614 0.0
O604 O 0.26977 0.43682 0.81105 0.0
O605 O 0.30265 0.44133 0.79955 0.0
O606 O 0.23741 0.36426 0.77626 0.0
O607 O 0.23022 0.38924 0.79626 0.0
O608 O 0.23314 0.43052 0.75865 0.0
O609 O 0.24021 0.43072 0.70967 0.0
O610 O 0.28975 0.44749 0.68959 0.0
O611 O 0.28543 0.37934 0.74588 0.0
O612 O 0.31207 0.45795 0.72947 0.0
O613 O 0.31372 0.41383 0.75006 0.0
C614 C 0.24291 0.37506 0.67846 0.0
C615 C 0.28983 0.44344 0.81798 0.0
C616 C 0.23045 0.43429 0.73134 0.0
C617 C 0.22719 0.36967 0.79503 0.0
C618 C 0.30736 0.46141 0.70304 0.0
C619 C 0.30612 0.39306 0.74727 0.0
O620 O 0.25084 0.39585 0.67471 0.0
O621 O 0.53574 0.94462 0.14611 0.0
Zn622 Zn 0.53595 0.92909 0.10784 0.0
O623 O 0.51137 0.8991 0.10491 0.0
Zn624 Zn 0.49106 0.89641 0.0732 0.0
Zn625 Zn 0.49781 0.89159 0.1446 0.0
Zn626 Zn 0.5208 0.87821 0.09428 0.0
O627 O 0.48946 0.87683 0.03859 0.0
O628 O 0.51494 0.86824 0.05098 0.0
O629 O 0.53588 0.94776 0.0734 0.0
O630 O 0.50241 0.92582 0.05388 0.0
O631 O 0.46061 0.88513 0.08998 0.0
O632 O 0.46603 0.88199 0.13883 0.0
O633 O 0.4974 0.86461 0.16157 0.0
O634 O 0.56364 0.92747 0.10846 0.0
O635 O 0.50516 0.85152 0.12047 0.0
O636 O 0.55323 0.89189 0.1012 0.0
C637 C 0.52587 0.93757 0.17123 0.0
C638 C 0.50109 0.86799 0.03214 0.0
C639 C 0.4534 0.87982 0.11681 0.0
C640 C 0.52064 0.9441 0.05462 0.0
C641 C 0.4982 0.84914 0.14746 0.0
C642 C 0.56808 0.91184 0.10638 0.0
O643 O 0.51145 0.91715 0.17489 0.0
O644 O 0.0228 0.58078 0.14949 0.0
Zn645 Zn 0.03704 0.59783 0.11167 0.0
O646 O 0.06712 0.60447 0.10634 0.0
Zn647 Zn 0.06966 0.58747 0.07368 0.0
Zn648 Zn 0.0753 0.59808 0.14531 0.0
Zn649 Zn 0.08621 0.63499 0.09514 0.0
O650 O 0.09016 0.60603 0.03981 0.0
O651 O 0.09478 0.63905 0.05104 0.0
O652 O 0.01791 0.58038 0.07732 0.0
O653 O 0.04029 0.57123 0.05357 0.0
O654 O 0.07722 0.56504 0.09004 0.0
O655 O 0.0771 0.57069 0.13956 0.0
O656 O 0.10574 0.62289 0.1574 0.0
O657 O 0.0374 0.62625 0.11602 0.0
O658 O 0.11365 0.6466 0.11939 0.0
O659 O 0.07175 0.65277 0.10495 0.0
C660 C 0.03108 0.58165 0.1753 0.0
C661 C 0.09678 0.62614 0.03266 0.0
C662 C 0.0783 0.55985 0.11728 0.0
C663 C 0.02174 0.57043 0.05624 0.0
C664 C 0.11915 0.64071 0.14354 0.0
C665 C 0.05207 0.6466 0.11338 0.0
O666 O 0.05203 0.59078 0.17866 0.0
O667 O 0.38158 0.43973 0.14978 0.0
Zn668 Zn 0.37091 0.44264 0.10882 0.0
O669 O 0.35914 0.46249 0.10886 0.0
Zn670 Zn 0.37484 0.48644 0.08024 0.0
Zn671 Zn 0.36165 0.47369 0.1496 0.0
Zn672 Zn 0.3287 0.44711 0.09601 0.0
O673 O 0.3571 0.48415 0.04295 0.0
O674 O 0.32507 0.45401 0.0529 0.0
O675 O 0.39634 0.45295 0.08065 0.0
O676 O 0.40097 0.48533 0.065 0.0
O677 O 0.3869 0.51577 0.10039 0.0
O678 O 0.38357 0.50624 0.14885 0.0
O679 O 0.33308 0.47191 0.16186 0.0
O680 O 0.3473 0.41244 0.09734 0.0
O681 O 0.31135 0.45589 0.12229 0.0
O682 O 0.31645 0.41445 0.09822 0.0
C683 C 0.38 0.4459 0.17617 0.0
C684 C 0.33765 0.46953 0.03496 0.0
C685 C 0.39076 0.52091 0.1281 0.0
C686 C 0.40704 0.4709 0.06584 0.0
C687 C 0.31492 0.46533 0.14783 0.0
C688 C 0.32632 0.40332 0.09612 0.0
O689 O 0.37149 0.45821 0.18046 0.0
O690 O 0.02235 0.44177 0.65111 0.0
Zn691 Zn 0.03376 0.44051 0.61028 0.0
O692 O 0.06581 0.45791 0.60839 0.0
Zn693 Zn 0.07501 0.48154 0.5787 0.0
Zn694 Zn 0.07686 0.46979 0.64844 0.0
Zn695 Zn 0.07769 0.43943 0.59575 0.0
O696 O 0.08953 0.47702 0.54246 0.0
O697 O 0.09091 0.44678 0.5541 0.0
O698 O 0.02022 0.45253 0.58233 0.0
O699 O 0.04884 0.483 0.56349 0.0
O700 O 0.09592 0.51081 0.59698 0.0
O701 O 0.09559 0.50276 0.64557 0.0
O702 O 0.09719 0.45961 0.66391 0.0
O703 O 0.02265 0.40845 0.6015 0.0
O704 O 0.10065 0.44206 0.62445 0.0
O705 O 0.05401 0.40784 0.59601 0.0
C706 C 0.03125 0.45042 0.67617 0.0
C707 C 0.09461 0.46236 0.53578 0.0
C708 C 0.1023 0.51667 0.62393 0.0
C709 C 0.0281 0.46995 0.56619 0.0
C710 C 0.10597 0.4496 0.65106 0.0
C711 C 0.03301 0.39793 0.59765 0.0
O712 O 0.05224 0.46159 0.67903 0.0
O713 O 0.52323 0.57918 0.63534 0.0
Zn714 Zn 0.52086 0.59031 0.59459 0.0
O715 O 0.5029 0.60434 0.5951 0.0
Zn716 Zn 0.47777 0.58941 0.56752 0.0
Zn717 Zn 0.49333 0.60372 0.6364 0.0
Zn718 Zn 0.5204 0.63467 0.58187 0.0
O719 O 0.48092 0.60807 0.53056 0.0
O720 O 0.51168 0.63952 0.54085 0.0
O721 O 0.50727 0.56391 0.56841 0.0
O722 O 0.47596 0.56143 0.55216 0.0
O723 O 0.44919 0.58032 0.58959 0.0
O724 O 0.46048 0.58646 0.63728 0.0
O725 O 0.50148 0.63412 0.65073 0.0
O726 O 0.55189 0.61139 0.58155 0.0
O727 O 0.51772 0.65498 0.61051 0.0
O728 O 0.55216 0.64341 0.57984 0.0
C729 C 0.51665 0.58043 0.66156 0.0
C730 C 0.49571 0.6277 0.52322 0.0
C731 C 0.44508 0.57918 0.61773 0.0
C732 C 0.48918 0.55386 0.55393 0.0
C733 C 0.51048 0.65277 0.6373 0.0
C734 C 0.56215 0.63238 0.57852 0.0
O735 O 0.5053 0.58992 0.66589 0.0
O736 O 0.39076 0.94429 0.63715 0.0
Zn737 Zn 0.37778 0.93142 0.59668 0.0
O738 O 0.36308 0.89925 0.5969 0.0
Zn739 Zn 0.37691 0.88912 0.56778 0.0
Zn740 Zn 0.36477 0.88946 0.63756 0.0
Zn741 Zn 0.33251 0.88688 0.58494 0.0
O742 O 0.35764 0.87428 0.53167 0.0
O743 O 0.3263 0.87326 0.54345 0.0
O744 O 0.40296 0.94419 0.56781 0.0
O745 O 0.40478 0.9148 0.55236 0.0
O746 O 0.38542 0.8686 0.58699 0.0
O747 O 0.37996 0.87151 0.63576 0.0
O748 O 0.3345 0.86843 0.65357 0.0
O749 O 0.3566 0.94197 0.58685 0.0
O750 O 0.31281 0.86393 0.61444 0.0
O751 O 0.32439 0.91047 0.58454 0.0
C752 C 0.39055 0.93615 0.66292 0.0
C753 C 0.33792 0.8693 0.52512 0.0
C754 C 0.38628 0.86378 0.6144 0.0
C755 C 0.41249 0.93565 0.55313 0.0
C756 C 0.31556 0.85898 0.64108 0.0
C757 C 0.33563 0.93155 0.58428 0.0
O758 O 0.38087 0.9152 0.66695 0.0
O759 O 0.10574 0.36693 0.21098 0.0
Zn760 Zn 0.10797 0.37941 0.25216 0.0
O761 O 0.12339 0.41155 0.25129 0.0
Zn762 Zn 0.14841 0.42344 0.27883 0.0
Zn763 Zn 0.1331 0.42162 0.21015 0.0
Zn764 Zn 0.10374 0.42169 0.26481 0.0
O765 O 0.14302 0.43614 0.31655 0.0
O766 O 0.11198 0.43602 0.3055 0.0
O767 O 0.12451 0.3687 0.27682 0.0
O768 O 0.15455 0.3995 0.29161 0.0
O769 O 0.17582 0.44632 0.25824 0.0
O770 O 0.16595 0.44201 0.20999 0.0
O771 O 0.11983 0.43953 0.19473 0.0
O772 O 0.07679 0.36629 0.26676 0.0
O773 O 0.10282 0.44264 0.23516 0.0
O774 O 0.07312 0.39614 0.26865 0.0
C775 C 0.11333 0.37509 0.18514 0.0
C776 C 0.12774 0.44025 0.32361 0.0
C777 C 0.1805 0.45111 0.23055 0.0
C778 C 0.14321 0.37847 0.28995 0.0
C779 C 0.109 0.44734 0.20787 0.0
C780 C 0.06492 0.37524 0.27038 0.0
O781 O 0.12481 0.39602 0.18118 0.0
O782 O 0.60415 0.73762 0.19916 0.0
Zn783 Zn 0.59144 0.72586 0.24008 0.0
O784 O 0.55934 0.71078 0.24011 0.0
Zn785 Zn 0.54845 0.72437 0.26866 0.0
Zn786 Zn 0.54956 0.71158 0.19911 0.0
Zn787 Zn 0.54766 0.68058 0.25315 0.0
O788 O 0.53302 0.70505 0.30485 0.0
O789 O 0.53406 0.67452 0.29448 0.0
O790 O 0.60352 0.75193 0.26714 0.0
O791 O 0.57384 0.75229 0.28473 0.0
O792 O 0.52818 0.73269 0.24799 0.0
O793 O 0.53308 0.72825 0.19953 0.0
O794 O 0.52721 0.68094 0.18519 0.0
O795 O 0.60267 0.70536 0.25183 0.0
O796 O 0.5247 0.66026 0.22479 0.0
O797 O 0.57138 0.67295 0.25392 0.0
C798 C 0.59605 0.73615 0.17304 0.0
C799 C 0.52896 0.68567 0.31207 0.0
C800 C 0.52465 0.73435 0.22024 0.0
C801 C 0.59473 0.76085 0.28263 0.0
C802 C 0.51854 0.66228 0.19862 0.0
C803 C 0.59239 0.68434 0.25458 0.0
O804 O 0.57514 0.726 0.16896 0.0
O805 O 0.23628 0.85783 0.19571 0.0
Zn806 Zn 0.24542 0.85539 0.23737 0.0
O807 O 0.25883 0.83692 0.23854 0.0
Zn808 Zn 0.24405 0.81333 0.26819 0.0
Zn809 Zn 0.25748 0.82504 0.19816 0.0
Zn810 Zn 0.28901 0.85477 0.25149 0.0
O811 O 0.26206 0.81845 0.30616 0.0
O812 O 0.29407 0.84782 0.29366 0.0
O813 O 0.21796 0.84203 0.2617 0.0
O814 O 0.21578 0.81146 0.28083 0.0
O815 O 0.236 0.78402 0.24989 0.0
O816 O 0.24195 0.79172 0.20086 0.0
O817 O 0.28818 0.83436 0.18331 0.0
O818 O 0.26619 0.88652 0.25046 0.0
O819 O 0.30877 0.8509 0.22358 0.0
O820 O 0.29812 0.88676 0.25099 0.0
C821 C 0.23547 0.84903 0.17037 0.0
C822 C 0.28183 0.8331 0.31275 0.0
C823 C 0.23537 0.77793 0.22271 0.0
C824 C 0.20783 0.82421 0.27693 0.0
C825 C 0.30672 0.84354 0.19691 0.0
C826 C 0.28719 0.89685 0.25243 0.0
O827 O 0.2424 0.83528 0.16739 0.0
H828 H 0.18104 0.10195 0.99771 0.0
H829 H 0.19154 0.08736 0.08898 0.0
H830 H 0.17822 0.06745 0.98078 0.0
H831 H 0.18896 0.05284 0.07176 0.0
H832 H 0.21069 0.02749 0.95605 0.0
H833 H 0.20864 0.05842 0.97756 0.0
H834 H 0.16454 0.01547 0.04697 0.0
H835 H 0.16667 0.98425 0.02559 0.0
C836 C 0.18241 0.09122 0.01424 0.0
C837 C 0.18692 0.09754 0.04457 0.0
C838 C 0.18091 0.07155 1.00451 0.0
C839 C 0.18394 0.05786 0.02489 0.0
C840 C 0.18666 0.06321 0.05563 0.0
C841 C 0.18812 0.08294 0.06543 0.0
C842 C 0.20067 0.02459 0.97603 0.0
C843 C 0.18867 0.00337 0.98893 0.0
C844 C 0.19936 0.04227 0.98818 0.0
C845 C 0.18603 0.03914 0.01348 0.0
C846 C 0.17483 0.01822 0.02733 0.0
C847 C 0.1761 0.00042 0.01511 0.0
H848 H 0.94153 0.18653 0.96582 0.0
H849 H -0.01982 0.1791 0.03637 0.0
H850 H 0.90783 0.15717 0.98852 0.0
H851 H 0.94623 0.1494 0.05885 0.0
H852 H 0.87445 0.10796 0.09957 0.0
H853 H 0.90918 0.14023 0.08299 0.0
H854 H 0.89494 0.11657 0.99134 0.0
H855 H 0.86053 0.08471 0.0075 0.0
C856 C 0.94284 0.17877 0.9863 0.0
C857 C 0.96354 0.18486 0.99901 0.0
C858 C 0.92355 0.16194 0.99922 0.0
C859 C 0.92457 0.15083 0.02506 0.0
C860 C 0.94508 0.15776 0.0389 0.0
C861 C 0.96446 0.17467 0.02595 0.0
C862 C 0.87887 0.10959 0.07594 0.0
C863 C 0.86464 0.09392 0.0548 0.0
C864 C 0.89869 0.12802 0.06652 0.0
C865 C 0.90441 0.131 0.03586 0.0
C866 C 0.8906 0.11491 0.01502 0.0
C867 C 0.87095 0.09658 0.02435 0.0
H868 H 0.80207 0.81266 0.02109 0.0
H869 H 0.79556 0.76603 0.95202 0.0
H870 H 0.83428 0.81189 0.04129 0.0
H871 H 0.82733 0.76508 0.97243 0.0
H872 H 0.87369 0.7801 0.0845 0.0
H873 H 0.84394 0.78591 0.06655 0.0
H874 H 0.86744 0.79095 0.97524 0.0
H875 H 0.89689 0.78472 0.99295 0.0
C876 C 0.80734 0.80209 0.01043 0.0
C877 C 0.79638 0.78952 0.98484 0.0
C878 C 0.82577 0.80169 0.02197 0.0
C879 C 0.83348 0.78874 0.00807 0.0
C880 C 0.82208 0.77567 0.98311 0.0
C881 C 0.80375 0.77607 0.97159 0.0
C882 C 0.87275 0.78285 0.06065 0.0
C883 C 0.88738 0.78157 0.04005 0.0
C884 C 0.85574 0.78622 0.05043 0.0
C885 C 0.85318 0.78843 0.01949 0.0
C886 C 0.86875 0.78873 0.99917 0.0
C887 C 0.88567 0.78528 0.00933 0.0
H888 H 0.97666 0.17136 0.47953 0.0
H889 H 0.01709 0.19862 0.55921 0.0
H890 H 0.00901 0.17548 0.45207 0.0
H891 H 0.04897 0.20262 0.53183 0.0
H892 H 0.0863 0.21843 0.41758 0.0
H893 H 0.04954 0.20932 0.43645 0.0
H894 H 0.0564 0.17238 0.50982 0.0
H895 H 0.09281 0.18153 0.49143 0.0
C896 C -0.00761 0.17825 0.49113 0.0
C897 C -0.00568 0.18448 0.52162 0.0
C898 C 0.0108 0.18065 0.47538 0.0
C899 C 0.0312 0.18903 0.4901 0.0
C900 C 0.03322 0.19574 0.52024 0.0
C901 C 0.01499 0.19353 0.53584 0.0
C902 C 0.07961 0.20792 0.43727 0.0
C903 C 0.09244 0.20111 0.45356 0.0
C904 C 0.05869 0.2027 0.44797 0.0
C905 C 0.05058 0.19059 0.47483 0.0
C906 C 0.06261 0.18212 0.48938 0.0
C907 C 0.08339 0.18739 0.47889 0.0
H908 H 0.75355 0.88618 0.51506 0.0
H909 H 0.78253 0.89035 0.42742 0.0
H910 H 0.76301 0.85866 0.53045 0.0
H911 H 0.79273 0.86299 0.44341 0.0
H912 H 0.77776 0.79207 0.47579 0.0
H913 H 0.77482 0.82342 0.45606 0.0
H914 H 0.79461 0.85555 0.54284 0.0
H915 H 0.7964 0.82394 0.56266 0.0
C916 C 0.76224 0.88145 0.49918 0.0
C917 C 0.76734 0.89048 0.47004 0.0
C918 C 0.76782 0.86576 0.5081 0.0
C919 C 0.77888 0.85888 0.48825 0.0
C920 C 0.78413 0.86794 0.45911 0.0
C921 C 0.77837 0.88363 0.45004 0.0
C922 C 0.78172 0.80603 0.49036 0.0
C923 C 0.78678 0.80553 0.52081 0.0
C924 C 0.78017 0.82398 0.4791 0.0
C925 C 0.78404 0.84169 0.49813 0.0
C926 C 0.79087 0.84183 0.52791 0.0
C927 C 0.79196 0.8238 0.53923 0.0
H928 H 0.07652 0.88677 0.4241 0.0
H929 H 0.08302 0.85936 0.50847 0.0
H930 H 0.10279 0.92409 0.44207 0.0
H931 H 0.10957 0.89607 0.52572 0.0
H932 H 0.14191 0.96322 0.56256 0.0
H933 H 0.11153 0.9293 0.54207 0.0
H934 H 0.14181 0.94697 0.45379 0.0
H935 H 0.17174 0.98166 0.47425 0.0
C936 C 0.08357 0.88872 0.44639 0.0
C937 C 0.07762 0.87021 0.46497 0.0
C938 C 0.09863 0.91002 0.45661 0.0
C939 C 0.10804 0.91303 0.48543 0.0
C940 C 0.10215 0.89442 0.50375 0.0
C941 C 0.08702 0.87331 0.49375 0.0
C942 C 0.14194 0.95991 0.53873 0.0
C943 C 0.15925 0.97472 0.52001 0.0
C944 C 0.12461 0.9405 0.527 0.0
C945 C 0.12454 0.93525 0.49646 0.0
C946 C 0.14136 0.95061 0.47739 0.0
C947 C 0.15854 0.97035 0.48908 0.0
H948 H 0.79468 0.95796 0.06353 0.0
H949 H 0.81246 -0.00328 0.98146 0.0
H950 H 0.7978 0.9292 0.03803 0.0
H951 H 0.81645 0.96788 0.95581 0.0
H952 H 0.80316 0.8779 0.9946 0.0
H953 H 0.81845 0.91549 0.01393 0.0
H954 H 0.7897 0.93181 0.93874 0.0
H955 H 0.77567 0.89473 0.91865 0.0
C956 C 0.79972 0.96056 0.04011 0.0
C957 C 0.8028 0.9794 0.02433 0.0
C958 C 0.80186 0.94413 0.02551 0.0
C959 C 0.80732 0.94614 0.99476 0.0
C960 C 0.81193 0.96571 0.97942 0.0
C961 C 0.80967 0.98222 0.9941 0.0
C962 C 0.80071 0.8898 0.98185 0.0
C963 C 0.78782 0.88339 0.95561 0.0
C964 C 0.8094 0.91128 0.99289 0.0
C965 C 0.80472 0.92645 0.97838 0.0
C966 C 0.79369 0.92062 0.9505 0.0
C967 C 0.78546 0.89928 0.93908 0.0
H968 H 0.10141 0.91817 0.99846 0.0
H969 H 0.08555 0.88177 0.91488 0.0
H970 H 0.06409 0.89317 0.01689 0.0
H971 H 0.04859 0.85612 0.93379 0.0
H972 H -0.01874 0.81292 0.97608 0.0
H973 H 0.01204 0.84605 0.95317 0.0
H974 H 0.05117 0.85591 0.03323 0.0
H975 H 0.02075 0.82364 0.05611 0.0
C976 C 0.08979 0.90505 0.98386 0.0
C977 C 0.09643 0.90154 0.95558 0.0
C978 C 0.06848 0.8907 0.9944 0.0
C979 C 0.05365 0.87231 0.97712 0.0
C980 C 0.05961 0.87012 0.94764 0.0
C981 C 0.08084 0.88475 0.93686 0.0
C982 C -0.00359 0.82233 0.98878 0.0
C983 C -0.0014 0.81556 0.01783 0.0
C984 C 0.01398 0.84128 0.9757 0.0
C985 C 0.03393 0.85374 0.99151 0.0
C986 C 0.03585 0.84708 0.02069 0.0
C987 C 0.01843 0.82831 0.03369 0.0
H988 H 0.14777 0.15278 0.98456 0.0
H989 H 0.14266 0.18784 0.06168 0.0
H990 H 0.11272 0.14788 0.96543 0.0
H991 H 0.10841 0.18349 0.04241 0.0
H992 H 0.04674 0.1737 0.01251 0.0
H993 H 0.07022 0.15941 0.03056 0.0
H994 H 0.10271 0.17348 0.94381 0.0
H995 H 0.07867 0.18673 0.92545 0.0
C996 C 0.13916 0.15933 0.99747 0.0
C997 C 0.14816 0.171 0.02438 0.0
C998 C 0.11907 0.15644 0.98659 0.0
C999 C 0.10771 0.16516 1.00246 0.0
C1000 C 0.1164 0.17607 0.02991 0.0
C1001 C 0.13631 0.17891 0.04075 0.0
C1002 C 0.05843 0.17305 0.99706 0.0
C1003 C 0.06141 0.18198 0.96794 0.0
C1004 C 0.07188 0.16491 0.00737 0.0
C1005 C 0.0888 0.16604 0.98892 0.0
C1006 C 0.0899 0.17243 0.95865 0.0
C1007 C 0.07619 0.18021 0.94818 0.0
H1008 H 0.96629 0.81781 0.45472 0.0
H1009 H 0.97098 0.78499 0.53459 0.0
H1010 H 0.93624 0.82102 0.47749 0.0
H1011 H 0.93983 0.78663 0.55676 0.0
H1012 H 0.88277 0.79071 0.59208 0.0
H1013 H 0.92097 0.80453 0.57612 0.0
H1014 H 0.89949 0.79293 0.4832 0.0
H1015 H 0.86199 0.78022 0.49887 0.0
C1016 C 0.96089 0.81144 0.47731 0.0
C1017 C 0.9704 0.80074 0.49281 0.0
C1018 C 0.94371 0.81322 0.49032 0.0
C1019 C 0.93523 0.80355 0.51859 0.0
C1020 C 0.946 0.79437 0.53503 0.0
C1021 C 0.96367 0.7932 0.52229 0.0
C1022 C 0.88637 0.79159 0.56822 0.0
C1023 C 0.86932 0.784 0.54676 0.0
C1024 C 0.90822 0.79943 0.55911 0.0
C1025 C 0.9133 0.79968 0.52842 0.0
C1026 C 0.89636 0.79336 0.507 0.0
C1027 C 0.87468 0.78576 0.51604 0.0
H1028 H 0.16462 0.0807 0.58929 0.0
H1029 H 0.17539 0.07158 0.49575 0.0
H1030 H 0.14843 0.10317 0.57393 0.0
H1031 H 0.16048 0.09463 0.48062 0.0
H1032 H 0.13885 0.13886 0.45248 0.0
H1033 H 0.13359 0.10444 0.47452 0.0
H1034 H 0.16565 0.13984 0.55619 0.0
H1035 H 0.16919 0.17363 0.53478 0.0
C1036 C 0.16325 0.08322 0.56548 0.0
C1037 C 0.17186 0.07491 0.54376 0.0
C1038 C 0.15403 0.09613 0.55668 0.0
C1039 C 0.15352 0.10113 0.52608 0.0
C1040 C 0.16033 0.09108 0.50439 0.0
C1041 C 0.16924 0.07802 0.51313 0.0
C1042 C 0.14419 0.13898 0.47543 0.0
C1043 C 0.1549 0.15878 0.49181 0.0
C1044 C 0.14124 0.11936 0.48806 0.0
C1045 C 0.14981 0.11947 0.51678 0.0
C1046 C 0.15873 0.139 0.53409 0.0
C1047 C 0.16103 0.15847 0.52175 0.0
H1048 H 0.87547 0.07888 0.60254 0.0
H1049 H 0.91528 0.09384 0.52204 0.0
H1050 H 0.85037 0.04198 0.58354 0.0
H1051 H 0.89077 0.05637 0.50363 0.0
H1052 H 0.82115 0.02161 0.46038 0.0
H1053 H 0.85526 0.04769 0.48448 0.0
H1054 H 0.83741 0.00527 0.56303 0.0
H1055 H 0.80248 0.97896 0.53881 0.0
C1056 C 0.87942 0.07389 0.5814 0.0
C1057 C 0.89676 0.08934 0.56316 0.0
C1058 C 0.8651 0.05264 0.57059 0.0
C1059 C 0.86819 0.04659 0.5416 0.0
C1060 C 0.88761 0.06092 0.52563 0.0
C1061 C 0.90163 0.08232 0.53613 0.0
C1062 C 0.82445 0.01764 0.4827 0.0
C1063 C 0.80889 -0.00159 0.4979 0.0
C1064 C 0.84429 0.03247 0.49637 0.0
C1065 C 0.84918 0.02847 0.52562 0.0
C1066 C 0.83405 0.00878 0.54048 0.0
C1067 C 0.81405 -0.00618 0.52669 0.0
H1068 H 0.85329 0.41665 0.42923 0.0
H1069 H 0.84511 0.43194 0.33729 0.0
H1070 H 0.84982 0.38169 0.41264 0.0
H1071 H 0.84118 0.39683 0.32093 0.0
H1072 H 0.87189 0.35476 0.29848 0.0
H1073 H 0.86993 0.38619 0.3182 0.0
H1074 H 0.82589 0.34483 0.38884 0.0
H1075 H 0.82807 0.31319 0.36934 0.0
C1076 C 0.85017 0.41229 0.40563 0.0
C1077 C 0.84991 0.42719 0.38443 0.0
C1078 C 0.84816 0.39228 0.39618 0.0
C1079 C 0.84575 0.38689 0.36546 0.0
C1080 C 0.84363 0.40093 0.34467 0.0
C1081 C 0.84576 0.42095 0.35405 0.0
C1082 C 0.86187 0.35233 0.31831 0.0
C1083 C 0.85002 0.33147 0.33224 0.0
C1084 C 0.86059 0.37029 0.32943 0.0
C1085 C 0.84737 0.36776 0.35462 0.0
C1086 C 0.83613 0.34715 0.3693 0.0
C1087 C 0.83744 0.3291 0.35817 0.0
H1088 H 0.64704 0.49931 0.35769 0.0
H1089 H 0.60657 0.50169 0.2855 0.0
H1090 H 0.61459 0.4669 0.37877 0.0
H1091 H 0.57437 0.46975 0.30679 0.0
H1092 H 0.52507 0.40116 0.33238 0.0
H1093 H 0.56072 0.42998 0.31349 0.0
H1094 H 0.5788 0.45764 0.40291 0.0
H1095 H 0.54327 0.42849 0.42208 0.0
C1096 C 0.63124 0.49303 0.34643 0.0
C1097 C 0.62937 0.503 0.31986 0.0
C1098 C 0.61272 0.47451 0.35851 0.0
C1099 C 0.5921 0.46568 0.34415 0.0
C1100 C 0.5902 0.47589 0.31791 0.0
C1101 C 0.60863 0.49433 0.30588 0.0
C1102 C 0.53677 0.41318 0.34812 0.0
C1103 C 0.53125 0.41282 0.3786 0.0
C1104 C 0.55713 0.42971 0.33727 0.0
C1105 C 0.57227 0.44625 0.35665 0.0
C1106 C 0.56741 0.44505 0.38751 0.0
C1107 C 0.54705 0.4284 0.39843 0.0
H1108 H 0.45764 0.13631 0.36499 0.0
H1109 H 0.46726 0.10225 0.29013 0.0
H1110 H 0.4903 0.13902 0.3898 0.0
H1111 H 0.49945 0.10496 0.31486 0.0
H1112 H 0.53197 0.10597 0.42995 0.0
H1113 H 0.5021 0.11162 0.41138 0.0
H1114 H 0.53743 0.13711 0.3276 0.0
H1115 H 0.56697 0.13115 0.34577 0.0
C1116 C 0.46661 0.12933 0.35392 0.0
C1117 C 0.45999 0.1192 0.3255 0.0
C1118 C 0.48524 0.13093 0.3681 0.0
C1119 C 0.49752 0.12263 0.35386 0.0
C1120 C 0.49054 0.11201 0.32591 0.0
C1121 C 0.47197 0.11029 0.31189 0.0
C1122 C 0.53359 0.11337 0.40792 0.0
C1123 C 0.5514 0.11762 0.38892 0.0
C1124 C 0.51657 0.11663 0.39738 0.0
C1125 C 0.51738 0.12429 0.36788 0.0
C1126 C 0.5363 0.1307 0.3502 0.0
C1127 C 0.55314 0.1273 0.36058 0.0
H1128 H 0.74567 0.52479 0.75996 0.0
H1129 H 0.76367 0.52218 0.85252 0.0
H1130 H 0.71016 0.51966 0.77668 0.0
H1131 H 0.72795 0.51654 0.86906 0.0
H1132 H 0.68354 0.54573 0.88714 0.0
H1133 H 0.71528 0.54378 0.86897 0.0
H1134 H 0.67425 0.49549 0.8023 0.0
H1135 H 0.64224 0.49764 0.82023 0.0
C1136 C 0.74183 0.52256 0.78379 0.0
C1137 C 0.75761 0.52438 0.80502 0.0
C1138 C 0.72147 0.51955 0.79332 0.0
C1139 C 0.71659 0.51819 0.82416 0.0
C1140 C 0.7316 0.51811 0.84516 0.0
C1141 C 0.75198 0.52126 0.83569 0.0
C1142 C 0.68122 0.53472 0.86855 0.0
C1143 C 0.66038 0.52177 0.85519 0.0
C1144 C 0.69937 0.53344 0.85836 0.0
C1145 C 0.69707 0.51915 0.83465 0.0
C1146 C 0.67639 0.50659 0.82069 0.0
C1147 C 0.65814 0.50788 0.8309 0.0
H1148 H 0.44693 0.12404 0.81185 0.0
H1149 H 0.44212 0.14419 0.90222 0.0
H1150 H 0.44108 0.15338 0.79149 0.0
H1151 H 0.43748 0.17397 0.88219 0.0
H1152 H 0.40511 0.20866 0.84046 0.0
H1153 H 0.41037 0.1786 0.8576 0.0
H1154 H 0.45776 0.1928 0.78601 0.0
H1155 H 0.45149 0.2224 0.7678 0.0
C1156 C 0.44475 0.13483 0.82728 0.0
C1157 C 0.44467 0.13172 0.85854 0.0
C1158 C 0.44158 0.15169 0.81569 0.0
C1159 C 0.43862 0.16588 0.83523 0.0
C1160 C 0.43908 0.16297 0.86648 0.0
C1161 C 0.44183 0.14594 0.87799 0.0
C1162 C 0.41673 0.20544 0.82844 0.0
C1163 C 0.4281 0.21797 0.80303 0.0
C1164 C 0.41981 0.18825 0.83832 0.0
C1165 C 0.43472 0.1835 0.82343 0.0
C1166 C 0.44601 0.19593 0.79779 0.0
C1167 C 0.44257 0.21295 0.78751 0.0
H1168 H 0.74081 0.20436 0.84624 0.0
H1169 H 0.76916 0.21789 0.75668 0.0
H1170 H 0.77212 0.23847 0.86423 0.0
H1171 H 0.80082 0.25235 0.7751 0.0
H1172 H 0.84129 0.28272 0.89539 0.0
H1173 H 0.81228 0.24967 0.87106 0.0
H1174 H 0.80966 0.28975 0.79856 0.0
H1175 H 0.83896 0.32301 0.82264 0.0
C1176 C 0.75367 0.21468 0.83032 0.0
C1177 C 0.75268 0.2083 0.80012 0.0
C1178 C 0.77165 0.23413 0.84071 0.0
C1179 C 0.78902 0.24766 0.82115 0.0
C1180 C 0.78761 0.24202 0.79057 0.0
C1181 C 0.76952 0.2224 0.78009 0.0
C1182 C 0.83475 0.28452 0.87411 0.0
C1183 C 0.84214 0.3055 0.8612 0.0
C1184 C 0.81812 0.26562 0.86025 0.0
C1185 C 0.80858 0.26734 0.83328 0.0
C1186 C 0.8168 0.28809 0.81938 0.0
C1187 C 0.83347 0.30707 0.83327 0.0
H1188 H 0.45778 0.2022 0.32948 0.0
H1189 H 0.43259 0.21634 0.24863 0.0
H1190 H 0.46882 0.23907 0.34856 0.0
H1191 H 0.44275 0.25293 0.26824 0.0
H1192 H 0.44095 0.27954 0.39192 0.0
H1193 H 0.44307 0.24982 0.36726 0.0
H1194 H 0.46942 0.29015 0.28721 0.0
H1195 H 0.46688 0.3202 0.31194 0.0
C1196 C 0.455 0.21339 0.31559 0.0
C1197 C 0.44393 0.20638 0.28796 0.0
C1198 C 0.46124 0.23444 0.32649 0.0
C1199 C 0.45606 0.24859 0.31025 0.0
C1200 C 0.44696 0.24237 0.28126 0.0
C1201 C 0.44105 0.2214 0.27009 0.0
C1202 C 0.44733 0.28225 0.36912 0.0
C1203 C 0.45362 0.30221 0.35384 0.0
C1204 C 0.44882 0.26525 0.35509 0.0
C1205 C 0.45673 0.26777 0.32543 0.0
C1206 C 0.46328 0.2878 0.31011 0.0
C1207 C 0.46179 0.30494 0.32424 0.0
H1208 H 0.6619 0.17389 0.3957 0.0
H1209 H 0.65608 0.13974 0.3123 0.0
H1210 H 0.69222 0.20792 0.37462 0.0
H1211 H 0.68746 0.17314 0.29176 0.0
H1212 H 0.74693 0.23151 0.26012 0.0
H1213 H 0.70814 0.21031 0.27527 0.0
H1214 H 0.72844 0.21569 0.36844 0.0
H1215 H 0.76661 0.23746 0.35356 0.0
C1216 C 0.6671 0.17383 0.37272 0.0
C1217 C 0.65727 0.15429 0.35574 0.0
C1218 C 0.68441 0.19324 0.36064 0.0
C1219 C 0.69272 0.19312 0.33183 0.0
C1220 C 0.68148 0.17394 0.31396 0.0
C1221 C 0.66368 0.1547 0.32577 0.0
C1222 C 0.74298 0.22861 0.28388 0.0
C1223 C 0.75981 0.23557 0.3056 0.0
C1224 C 0.72078 0.21642 0.29254 0.0
C1225 C 0.71514 0.21089 0.32298 0.0
C1226 C 0.732 0.2197 0.34479 0.0
C1227 C 0.75406 0.23201 0.33619 0.0
H1228 H 0.71209 0.49992 0.32799 0.0
H1229 H 0.75436 0.52744 0.25005 0.0
H1230 H 0.7359 0.48627 0.34688 0.0
H1231 H 0.77873 0.5147 0.26953 0.0
H1232 H 0.80359 0.5132 0.39347 0.0
H1233 H 0.77173 0.51058 0.36831 0.0
H1234 H 0.78813 0.48717 0.28761 0.0
H1235 H 0.82074 0.49027 0.31288 0.0
C1236 C 0.72624 0.50263 0.31463 0.0
C1237 C 0.73179 0.51519 0.28803 0.0
C1238 C 0.73986 0.49486 0.32542 0.0
C1239 C 0.7595 0.50001 0.31012 0.0
C1240 C 0.76372 0.51047 0.28184 0.0
C1241 C 0.74983 0.51789 0.27075 0.0
C1242 C 0.80041 0.50732 0.37044 0.0
C1243 C 0.81489 0.50224 0.35504 0.0
C1244 C 0.78188 0.50548 0.35611 0.0
C1245 C 0.77729 0.49846 0.32603 0.0
C1246 C 0.79132 0.49267 0.3108 0.0
C1247 C 0.80997 0.49449 0.32524 0.0
H1248 H 0.65639 0.16036 0.86251 0.0
H1249 H 0.61758 0.13264 0.78177 0.0
H1250 H 0.62726 0.16638 0.88287 0.0
H1251 H 0.58855 0.13772 0.80224 0.0
H1252 H 0.53491 0.14174 0.83747 0.0
H1253 H 0.57292 0.15863 0.81922 0.0
H1254 H 0.59217 0.14078 0.90267 0.0
H1255 H 0.55476 0.12529 0.92137 0.0
C1256 C 0.64179 0.15575 0.84903 0.0
C1257 C 0.63902 0.14548 0.82091 0.0
C1258 C 0.62514 0.15924 0.86063 0.0
C1259 C 0.60544 0.15236 0.84436 0.0
C1260 C 0.60354 0.14358 0.81535 0.0
C1261 C 0.62013 0.14026 0.80375 0.0
C1262 C 0.54749 0.1421 0.85218 0.0
C1263 C 0.54183 0.13158 0.88037 0.0
C1264 C 0.56923 0.15174 0.84177 0.0
C1265 C 0.58541 0.15032 0.85903 0.0
C1266 C 0.58021 0.14217 0.88866 0.0
C1267 C 0.55862 0.13303 0.89933 0.0
H1268 H 0.81527 0.49268 0.86898 0.0
H1269 H 0.84692 0.48131 0.79275 0.0
H1270 H 0.80965 0.45833 0.89219 0.0
H1271 H 0.84181 0.44771 0.81598 0.0
H1272 H 0.8282 0.38585 0.85109 0.0
H1273 H 0.81581 0.41047 0.83117 0.0
H1274 H 0.83413 0.44701 0.91481 0.0
H1275 H 0.84548 0.42182 0.93511 0.0
C1276 C 0.82098 0.48288 0.85717 0.0
C1277 C 0.83175 0.48983 0.82917 0.0
C1278 C 0.81766 0.46319 0.87039 0.0
C1279 C 0.82503 0.45017 0.85579 0.0
C1280 C 0.83536 0.45698 0.82753 0.0
C1281 C 0.83862 0.47651 0.81437 0.0
C1282 C 0.82878 0.39866 0.86554 0.0
C1283 C 0.83834 0.40238 0.89426 0.0
C1284 C 0.82179 0.41279 0.85414 0.0
C1285 C 0.82477 0.43113 0.87105 0.0
C1286 C 0.8317 0.4331 0.90115 0.0
C1287 C 0.83831 0.41869 0.91276 0.0
H1288 H 0.55917 0.43867 0.83336 0.0
H1289 H 0.54883 0.42066 0.9277 0.0
H1290 H 0.53548 0.40035 0.81972 0.0
H1291 H 0.52549 0.38176 0.91388 0.0
H1292 H 0.45676 0.32894 0.87204 0.0
H1293 H 0.48882 0.36113 0.89382 0.0
H1294 H 0.52846 0.36368 0.8173 0.0
H1295 H 0.49597 0.33244 0.79487 0.0
C1296 C 0.55224 0.42645 0.85124 0.0
C1297 C 0.55555 0.43279 0.88161 0.0
C1298 C 0.5388 0.40432 0.8434 0.0
C1299 C 0.52849 0.38791 0.86574 0.0
C1300 C 0.53295 0.39405 0.89617 0.0
C1301 C 0.54636 0.41632 0.90405 0.0
C1302 C 0.47252 0.33612 0.86039 0.0
C1303 C 0.47398 0.32875 0.83162 0.0
C1304 C 0.49094 0.35446 0.87288 0.0
C1305 C 0.51109 0.36531 0.85691 0.0
C1306 C 0.513 0.35613 0.8297 0.0
C1307 C 0.4945 0.33823 0.81692 0.0
H1308 H 0.51115 0.77418 0.66936 0.0
H1309 H 0.52919 0.75978 0.75622 0.0
H1310 H 0.50417 0.73846 0.65074 0.0
H1311 H 0.52256 0.72402 0.73721 0.0
H1312 H 0.53082 0.69517 0.61651 0.0
H1313 H 0.53189 0.7271 0.63981 0.0
H1314 H 0.49444 0.68671 0.71561 0.0
H1315 H 0.49353 0.65441 0.69237 0.0
C1316 C 0.51342 0.76327 0.68455 0.0
C1317 C 0.52112 0.76988 0.71402 0.0
C1318 C 0.50946 0.74287 0.67388 0.0
C1319 C 0.51331 0.72879 0.69239 0.0
C1320 C 0.5195 0.73464 0.72254 0.0
C1321 C 0.52333 0.75509 0.73334 0.0
C1322 C 0.5228 0.69299 0.63815 0.0
C1323 C 0.51195 0.67222 0.6525 0.0
C1324 C 0.52328 0.71127 0.65138 0.0
C1325 C 0.51289 0.7092 0.6792 0.0
C1326 C 0.50251 0.68864 0.69407 0.0
C1327 C 0.502 0.67022 0.68077 0.0
H1328 H 0.20979 0.76654 0.75963 0.0
H1329 H 0.19925 0.7345 0.67304 0.0
H1330 H 0.24508 0.79719 0.74158 0.0
H1331 H 0.23445 0.76483 0.65536 0.0
H1332 H 0.27306 0.83561 0.62128 0.0
H1333 H 0.24225 0.80363 0.64483 0.0
H1334 H 0.28379 0.80881 0.7201 0.0
H1335 H 0.31499 0.84122 0.69656 0.0
C1336 C 0.21529 0.76576 0.7371 0.0
C1337 C 0.20163 0.74844 0.71748 0.0
C1338 C 0.23545 0.78325 0.72682 0.0
C1339 C 0.24209 0.7835 0.69692 0.0
C1340 C 0.22935 0.76521 0.6783 0.0
C1341 C 0.20927 0.74787 0.68845 0.0
C1342 C 0.27572 0.83008 0.6429 0.0
C1343 C 0.29654 0.84084 0.65692 0.0
C1344 C 0.2581 0.81165 0.65626 0.0
C1345 C 0.26087 0.80357 0.68392 0.0
C1346 C 0.28137 0.81473 0.69865 0.0
C1347 C 0.29914 0.83323 0.68517 0.0
H1348 H 0.12422 0.46598 0.70643 0.0
H1349 H 0.12765 0.42895 0.63045 0.0
H1350 H 0.15594 0.46548 0.72929 0.0
H1351 H 0.15896 0.42847 0.65331 0.0
H1352 H 0.19652 0.43085 0.76628 0.0
H1353 H 0.16615 0.43637 0.74953 0.0
H1354 H 0.19832 0.45955 0.66329 0.0
H1355 H 0.22838 0.4539 0.67965 0.0
C1356 C 0.13158 0.45761 0.69476 0.0
C1357 C 0.12362 0.44772 0.66648 0.0
C1358 C 0.14966 0.45734 0.70785 0.0
C1359 C 0.16001 0.44734 0.69268 0.0
C1360 C 0.15152 0.43676 0.66505 0.0
C1361 C 0.13351 0.43693 0.65208 0.0
C1362 C 0.19729 0.43758 0.744 0.0
C1363 C 0.21448 0.44148 0.72397 0.0
C1364 C 0.17999 0.44076 0.7345 0.0
C1365 C 0.17982 0.4479 0.70498 0.0
C1366 C 0.19793 0.45354 0.68595 0.0
C1367 C 0.21509 0.45032 0.69533 0.0
H1368 H 0.31199 0.83661 0.13727 0.0
H1369 H 0.34635 0.85584 0.2227 0.0
H1370 H 0.34588 0.84161 0.11314 0.0
H1371 H 0.37965 0.86095 0.19878 0.0
H1372 H 0.43004 0.84972 0.15977 0.0
H1373 H 0.39201 0.83668 0.17488 0.0
H1374 H 0.38523 0.87493 0.10316 0.0
H1375 H 0.42345 0.88758 0.08731 0.0
C1376 C 0.32666 0.84177 0.15086 0.0
C1377 C 0.32653 0.84583 0.18185 0.0
C1378 C 0.34596 0.84468 0.13706 0.0
C1379 C 0.36516 0.85138 0.15424 0.0
C1380 C 0.36491 0.85532 0.18514 0.0
C1381 C 0.34584 0.85257 0.19879 0.0
C1382 C 0.42035 0.85513 0.14698 0.0
C1383 C 0.42971 0.87009 0.12293 0.0
C1384 C 0.39861 0.8476 0.15553 0.0
C1385 C 0.38597 0.85519 0.14051 0.0
C1386 C 0.39472 0.86886 0.11502 0.0
C1387 C 0.41654 0.8762 0.10613 0.0
H1388 H 0.05239 0.52715 0.15533 0.0
H1389 H 0.10758 0.54846 0.09437 0.0
H1390 H 0.05765 0.49704 0.17313 0.0
H1391 H 0.11383 0.51892 0.11342 0.0
H1392 H 0.1111 0.45493 0.14697 0.0
H1393 H 0.10116 0.47952 0.12029 0.0
H1394 H 0.08552 0.49855 0.20541 0.0
H1395 H 0.09462 0.47371 0.23168 0.0
C1396 C 0.06556 0.52518 0.14564 0.0
C1397 C 0.07981 0.54009 0.12392 0.0
C1398 C 0.06868 0.50809 0.15591 0.0
C1399 C 0.08653 0.50601 0.14528 0.0
C1400 C 0.09993 0.52011 0.12202 0.0
C1401 C 0.09645 0.53701 0.1112 0.0
C1402 C 0.10545 0.46435 0.15986 0.0
C1403 C 0.10348 0.4623 0.19138 0.0
C1404 C 0.09982 0.47843 0.14461 0.0
C1405 C 0.09225 0.4907 0.1607 0.0
C1406 C 0.09066 0.48883 0.19223 0.0
C1407 C 0.09605 0.4747 0.20735 0.0
H1408 H 0.49398 0.66061 0.14935 0.0
H1409 H 0.50064 0.61959 0.21719 0.0
H1410 H 0.4603 0.62812 0.13081 0.0
H1411 H 0.46746 0.58753 0.19861 0.0
H1412 H 0.41839 0.55492 0.09087 0.0
H1413 H 0.44866 0.59108 0.10621 0.0
H1414 H 0.4274 0.57567 0.19886 0.0
H1415 H 0.39746 0.5394 0.18377 0.0
C1416 C 0.48842 0.64468 0.16005 0.0
C1417 C 0.4998 0.64266 0.18489 0.0
C1418 C 0.46916 0.62618 0.14952 0.0
C1419 C 0.46109 0.60553 0.16379 0.0
C1420 C 0.47298 0.60342 0.1878 0.0
C1421 C 0.49211 0.62177 0.19825 0.0
C1422 C 0.41989 0.55944 0.11443 0.0
C1423 C 0.40591 0.54417 0.13626 0.0
C1424 C 0.43717 0.58016 0.12314 0.0
C1425 C 0.44057 0.58585 0.15373 0.0
C1426 C 0.42539 0.57137 0.17518 0.0
C1427 C 0.40824 0.55067 0.16654 0.0
H1428 H 0.14403 0.65536 0.64917 0.0
H1429 H 0.11693 0.61626 0.73016 0.0
H1430 H 0.1483 0.62552 0.62733 0.0
H1431 H 0.12068 0.58662 0.70829 0.0
H1432 H 0.12911 0.53516 0.67246 0.0
H1433 H 0.14425 0.57316 0.69002 0.0
H1434 H 0.12058 0.58918 0.6091 0.0
H1435 H 0.10634 0.55156 0.59107 0.0
C1436 C 0.13919 0.64053 0.6624 0.0
C1437 C 0.12974 0.63796 0.69115 0.0
C1438 C 0.1417 0.62352 0.64993 0.0
C1439 C 0.13487 0.60376 0.66608 0.0
C1440 C 0.12652 0.60178 0.69542 0.0
C1441 C 0.12402 0.61868 0.70781 0.0
C1442 C 0.12775 0.54703 0.65809 0.0
C1443 C 0.11598 0.54035 0.6309 0.0
C1444 C 0.13642 0.56874 0.66809 0.0
C1445 C 0.133 0.58391 0.65134 0.0
C1446 C 0.12348 0.57788 0.62255 0.0
C1447 C 0.11514 0.55625 0.61231 0.0
H1448 H 0.43101 0.57153 0.6758 0.0
H1449 H 0.40685 0.56013 0.58415 0.0
H1450 H 0.3943 0.54653 0.69394 0.0
H1451 H 0.36932 0.53566 0.60264 0.0
H1452 H 0.32069 0.46632 0.64475 0.0
H1453 H 0.35111 0.49934 0.62181 0.0
H1454 H 0.35793 0.53623 0.70335 0.0
H1455 H 0.32869 0.50262 0.7268 0.0
C1456 C 0.41771 0.56412 0.6595 0.0
C1457 C 0.42196 0.56741 0.62846 0.0
C1458 C 0.39644 0.54989 0.66999 0.0
C1459 C 0.37874 0.53882 0.64976 0.0
C1460 C 0.38266 0.54354 0.6188 0.0
C1461 C 0.40413 0.55764 0.6082 0.0
C1462 C 0.3286 0.48163 0.65747 0.0
C1463 C 0.32294 0.48199 0.68765 0.0
C1464 C 0.34587 0.50064 0.64429 0.0
C1465 C 0.35733 0.52041 0.66093 0.0
C1466 C 0.35 0.52113 0.69022 0.0
C1467 C 0.33325 0.50196 0.70366 0.0
H1468 H 0.47045 0.85077 0.72567 0.0
H1469 H 0.48726 0.8279 0.64474 0.0
H1470 H 0.43769 0.84671 0.70166 0.0
H1471 H 0.45361 0.82316 0.62064 0.0
H1472 H 0.41873 0.86191 0.58298 0.0
H1473 H 0.44313 0.84921 0.60216 0.0
H1474 H 0.40194 0.82301 0.68146 0.0
H1475 H 0.37823 0.83688 0.6629 0.0
C1476 C 0.46698 0.84453 0.70282 0.0
C1477 C 0.48169 0.84004 0.68693 0.0
C1478 C 0.44791 0.84184 0.68915 0.0
C1479 C 0.44292 0.83445 0.65925 0.0
C1480 C 0.4571 0.82899 0.64367 0.0
C1481 C 0.47635 0.83176 0.65742 0.0
C1482 C 0.41457 0.85289 0.60412 0.0
C1483 C 0.39708 0.85094 0.62198 0.0
C1484 C 0.42846 0.84544 0.61502 0.0
C1485 C 0.42479 0.83566 0.64372 0.0
C1486 C 0.40555 0.83113 0.65968 0.0
C1487 C 0.39198 0.83902 0.6491 0.0
H1488 H 0.21681 0.45987 0.26375 0.0
H1489 H 0.19696 0.47251 0.17713 0.0
H1490 H 0.25324 0.47093 0.24374 0.0
H1491 H 0.23386 0.48453 0.15739 0.0
H1492 H 0.27403 0.45213 0.12508 0.0
H1493 H 0.24551 0.45811 0.14597 0.0
H1494 H 0.28865 0.49488 0.21984 0.0
H1495 H 0.31739 0.48841 0.19909 0.0
C1496 C 0.22053 0.46592 0.24078 0.0
C1497 C 0.20387 0.4646 0.22163 0.0
C1498 C 0.2415 0.47239 0.22933 0.0
C1499 C 0.24613 0.47789 0.19872 0.0
C1500 C 0.23045 0.47966 0.18084 0.0
C1501 C 0.20937 0.47286 0.19214 0.0
C1502 C 0.27759 0.46162 0.14568 0.0
C1503 C 0.29788 0.46953 0.16064 0.0
C1504 C 0.26131 0.46538 0.15744 0.0
C1505 C 0.26492 0.47723 0.1844 0.0
C1506 C 0.28542 0.48567 0.19904 0.0
C1507 C 0.30179 0.48186 0.18725 0.0
H1508 H 0.51625 0.74326 0.16365 0.0
H1509 H 0.50399 0.74973 0.25754 0.0
H1510 H 0.50122 0.76656 0.14964 0.0
H1511 H 0.48803 0.77263 0.24329 0.0
H1512 H 0.50738 0.84348 0.20517 0.0
H1513 H 0.50536 0.8101 0.22591 0.0
H1514 H 0.472 0.77409 0.14527 0.0
H1515 H 0.47537 0.80794 0.12397 0.0
C1516 C 0.50982 0.74921 0.18129 0.0
C1517 C 0.51182 0.7451 0.21174 0.0
C1518 C 0.50089 0.76241 0.17322 0.0
C1519 C 0.49356 0.77165 0.1954 0.0
C1520 C 0.49389 0.76606 0.22574 0.0
C1521 C 0.503 0.75293 0.23387 0.0
C1522 C 0.49914 0.82824 0.19232 0.0
C1523 C 0.49207 0.82823 0.16279 0.0
C1524 C 0.49779 0.80904 0.20423 0.0
C1525 C 0.48899 0.78955 0.18689 0.0
C1526 C 0.47949 0.78902 0.15878 0.0
C1527 C 0.48136 0.80832 0.14661 0.0
H1528 H 0.20278 0.7439 0.2546 0.0
H1529 H 0.24405 0.75832 0.17576 0.0
H1530 H 0.1794 0.7061 0.23739 0.0
H1531 H 0.2215 0.71998 0.1593 0.0
H1532 H 0.13502 0.64036 0.20019 0.0
H1533 H 0.16928 0.66962 0.22255 0.0
H1534 H 0.18662 0.70462 0.13733 0.0
H1535 H 0.15339 0.67537 0.11511 0.0
C1536 C 0.20731 0.73871 0.23411 0.0
C1537 C 0.22477 0.75411 0.216 0.0
C1538 C 0.19401 0.71692 0.22433 0.0
C1539 C 0.19821 0.71009 0.19651 0.0
C1540 C 0.21736 0.7249 0.18034 0.0
C1541 C 0.23032 0.74683 0.18974 0.0
C1542 C 0.14651 0.65407 0.18616 0.0
C1543 C 0.14125 0.65587 0.15613 0.0
C1544 C 0.16608 0.67086 0.19897 0.0
C1545 C 0.18061 0.68968 0.18193 0.0
C1546 C 0.17609 0.69038 0.15123 0.0
C1547 C 0.15673 0.67366 0.1385 0.0
H1548 H 0.30247 0.18833 0.09886 0.0
H1549 H 0.25203 0.14402 0.16139 0.0
H1550 H 0.32856 0.17875 0.12095 0.0
H1551 H 0.27831 0.13509 0.18418 0.0
H1552 H 0.32191 0.10558 0.19775 0.0
H1553 H 0.29689 0.11499 0.17201 0.0
H1554 H 0.34924 0.18348 0.16615 0.0
H1555 H 0.37447 0.17391 0.19084 0.0
C1556 C 0.29707 0.1768 0.1176 0.0
C1557 C 0.27524 0.16684 0.12838 0.0
C1558 C 0.31201 0.17134 0.13025 0.0
C1559 C 0.3054 0.15603 0.1541 0.0
C1560 C 0.28371 0.14654 0.16534 0.0
C1561 C 0.26873 0.15179 0.15248 0.0
C1562 C 0.3281 0.12259 0.1907 0.0
C1563 C 0.35006 0.13904 0.19641 0.0
C1564 C 0.31376 0.12801 0.17616 0.0
C1565 C 0.32106 0.15002 0.16744 0.0
C1566 C 0.34321 0.16634 0.17237 0.0
C1567 C 0.35763 0.16086 0.18659 0.0
H1568 H 0.79635 0.08225 0.18719 0.0
H1569 H 0.76187 0.09723 0.11853 0.0
H1570 H 0.80275 0.1149 0.21534 0.0
H1571 H 0.76904 0.13052 0.1461 0.0
H1572 H 0.78006 0.18568 0.21216 0.0
H1573 H 0.76494 0.14844 0.19138 0.0
H1574 H 0.82875 0.15309 0.20206 0.0
H1575 H 0.84367 0.18984 0.22335 0.0
C1576 C 0.78981 0.09238 0.17846 0.0
C1577 C 0.779 0.08761 0.15058 0.0
C1578 C 0.79357 0.11108 0.19442 0.0
C1579 C 0.78696 0.12554 0.18241 0.0
C1580 C 0.77435 0.11966 0.15583 0.0
C1581 C 0.77026 0.10067 0.14006 0.0
C1582 C 0.79085 0.17873 0.20999 0.0
C1583 C 0.81306 0.19065 0.21946 0.0
C1584 C 0.78216 0.15743 0.19817 0.0
C1585 C 0.79556 0.14777 0.19561 0.0
C1586 C 0.81784 0.15987 0.20457 0.0
C1587 C 0.82647 0.18104 0.21647 0.0
H1588 H 0.77531 0.64504 0.23411 0.0
H1589 H 0.76683 0.5916 0.17589 0.0
H1590 H 0.80939 0.67027 0.20811 0.0
H1591 H 0.80075 0.61718 0.14913 0.0
H1592 H 0.87452 0.66541 0.12983 0.0
H1593 H 0.84074 0.6389 0.15609 0.0
H1594 H 0.82005 0.68794 0.15969 0.0
H1595 H 0.85392 0.71453 0.13446 0.0
C1596 C 0.78063 0.63872 0.21558 0.0
C1597 C 0.76836 0.61639 0.2069 0.0
C1598 C 0.80011 0.6532 0.20061 0.0
C1599 C 0.8076 0.64571 0.17645 0.0
C1600 C 0.79545 0.62333 0.16789 0.0
C1601 C 0.77601 0.60875 0.18308 0.0
C1602 C 0.86273 0.67048 0.13628 0.0
C1603 C 0.86691 0.69207 0.13035 0.0
C1604 C 0.84337 0.65529 0.15113 0.0
C1605 C 0.82787 0.66143 0.16007 0.0
C1606 C 0.83192 0.6829 0.15363 0.0
C1607 C 0.8513 0.69809 0.13907 0.0
H1608 H 0.12164 0.33371 0.29658 0.0
H1609 H 0.18521 0.39274 0.31068 0.0
H1610 H 0.13637 0.31107 0.31534 0.0
H1611 H 0.2002 0.36976 0.32897 0.0
H1612 H 0.20116 0.31895 0.39982 0.0
H1613 H 0.19545 0.3463 0.37289 0.0
H1614 H 0.16207 0.29888 0.3016 0.0
H1615 H 0.16692 0.27134 0.3292 0.0
C1616 C 0.13883 0.34185 0.30348 0.0
C1617 C 0.15225 0.365 0.30219 0.0
C1618 C 0.14737 0.32884 0.31391 0.0
C1619 C 0.16957 0.33864 0.32308 0.0
C1620 C 0.18304 0.36181 0.32198 0.0
C1621 C 0.17443 0.37491 0.31161 0.0
C1622 C 0.19316 0.31467 0.37799 0.0
C1623 C 0.184 0.29302 0.36677 0.0
C1624 C 0.18995 0.33031 0.36254 0.0
C1625 C 0.1778 0.32446 0.33557 0.0
C1626 C 0.1709 0.30356 0.32282 0.0
C1627 C 0.17375 0.28787 0.33848 0.0
H1628 H 0.63786 0.7898 0.27012 0.0
H1629 H 0.58422 0.77939 0.3293 0.0
H1630 H 0.66243 0.82413 0.29603 0.0
H1631 H 0.60916 0.81354 0.35603 0.0
H1632 H 0.65718 0.88657 0.37962 0.0
H1633 H 0.63093 0.85396 0.35102 0.0
H1634 H 0.67961 0.83298 0.34475 0.0
H1635 H 0.70586 0.86561 0.37226 0.0
C1636 C 0.63137 0.7948 0.28882 0.0
C1637 C 0.60924 0.78184 0.29798 0.0
C1638 C 0.64545 0.81442 0.30367 0.0
C1639 C 0.63775 0.82132 0.32826 0.0
C1640 C 0.61546 0.80867 0.33699 0.0
C1641 C 0.60125 0.7891 0.32185 0.0
C1642 C 0.66221 0.87497 0.37203 0.0
C1643 C 0.68359 0.87868 0.37795 0.0
C1644 C 0.64719 0.85631 0.35581 0.0
C1645 C 0.65333 0.84109 0.34548 0.0
C1646 C 0.6746 0.84471 0.35182 0.0
C1647 C 0.6896 0.86336 0.36773 0.0
H1648 H 0.18641 0.79499 0.32259 0.0
H1649 H 0.18036 0.83938 0.26002 0.0
H1650 H 0.15125 0.78632 0.34553 0.0
H1651 H 0.14489 0.8301 0.28219 0.0
H1652 H 0.0798 0.76323 0.36673 0.0
H1653 H 0.11166 0.76851 0.33747 0.0
H1654 H 0.13376 0.83845 0.32916 0.0
H1655 H 0.10172 0.83312 0.35739 0.0
C1656 C 0.17742 0.80265 0.31353 0.0
C1657 C 0.18619 0.81808 0.28987 0.0
C1658 C 0.15723 0.79756 0.32647 0.0
C1659 C 0.14543 0.80763 0.3157 0.0
C1660 C 0.15386 0.82242 0.2913 0.0
C1661 C 0.17414 0.82772 0.27862 0.0
C1662 C 0.09139 0.77968 0.3584 0.0
C1663 C 0.08837 0.79779 0.36444 0.0
C1664 C 0.10963 0.7827 0.34178 0.0
C1665 C 0.12517 0.80388 0.33114 0.0
C1666 C 0.12185 0.82186 0.33665 0.0
C1667 C 0.10356 0.81882 0.353 0.0
H1668 H 0.65969 0.78779 0.87144 0.0
H1669 H 0.71227 0.85609 0.86458 0.0
H1670 H 0.63442 0.79732 0.8471 0.0
H1671 H 0.68662 0.86585 0.84107 0.0
H1672 H 0.63764 0.86763 0.7718 0.0
H1673 H 0.66515 0.8607 0.79573 0.0
H1674 H 0.61588 0.81718 0.86012 0.0
H1675 H 0.58834 0.8234 0.83555 0.0
C1676 C 0.6658 0.80488 0.86484 0.0
C1677 C 0.68786 0.82124 0.87006 0.0
C1678 C 0.6513 0.81038 0.85109 0.0
C1679 C 0.65846 0.83241 0.84267 0.0
C1680 C 0.68069 0.84872 0.84722 0.0
C1681 C 0.69533 0.84315 0.86071 0.0
C1682 C 0.63282 0.85673 0.79122 0.0
C1683 C 0.61086 0.84577 0.80162 0.0
C1684 C 0.64855 0.85283 0.80496 0.0
C1685 C 0.64254 0.83812 0.82947 0.0
C1686 C 0.62082 0.8281 0.84072 0.0
C1687 C 0.60509 0.83174 0.82678 0.0
H1688 H 0.10539 0.76978 0.77095 0.0
H1689 H 0.1459 0.76071 0.8368 0.0
H1690 H 0.11426 0.8049 0.79441 0.0
H1691 H 0.15412 0.79534 0.86082 0.0
H1692 H 0.18909 0.86957 0.86856 0.0
H1693 H 0.17691 0.83365 0.84568 0.0
H1694 H 0.11023 0.82253 0.83944 0.0
H1695 H 0.12258 0.85891 0.86155 0.0
C1696 C 0.11579 0.77508 0.79081 0.0
C1697 C 0.12527 0.7628 0.80186 0.0
C1698 C 0.12082 0.79512 0.80424 0.0
C1699 C 0.1352 0.80297 0.82904 0.0
C1700 C 0.14349 0.78994 0.84118 0.0
C1701 C 0.13869 0.77009 0.82758 0.0
C1702 C 0.17186 0.85952 0.86213 0.0
C1703 C 0.15674 0.86691 0.86696 0.0
C1704 C 0.16485 0.8389 0.84929 0.0
C1705 C 0.14255 0.82519 0.84135 0.0
C1706 C 0.12753 0.83283 0.84532 0.0
C1707 C 0.1346 0.85361 0.85794 0.0
H1708 H 0.11414 0.25479 0.87815 0.0
H1709 H 0.10864 0.31346 0.8906 0.0
H1710 H 0.15113 0.27767 0.85686 0.0
H1711 H 0.14501 0.33602 0.8687 0.0
H1712 H 0.21554 0.37576 0.85075 0.0
H1713 H 0.18334 0.34947 0.87969 0.0
H1714 H 0.16806 0.29951 0.81162 0.0
H1715 H 0.20092 0.32564 0.78335 0.0
C1716 C 0.12077 0.27252 0.87618 0.0
C1717 C 0.10855 0.28237 0.88606 0.0
C1718 C 0.14191 0.28557 0.86405 0.0
C1719 C 0.15105 0.30863 0.86152 0.0
C1720 C 0.13868 0.31837 0.87114 0.0
C1721 C 0.11771 0.3054 0.88341 0.0
C1722 C 0.20552 0.35901 0.84236 0.0
C1723 C 0.21034 0.35274 0.81467 0.0
C1724 C 0.18708 0.34401 0.8588 0.0
C1725 C 0.17291 0.32266 0.84749 0.0
C1726 C 0.17871 0.31586 0.8209 0.0
C1727 C 0.19744 0.3308 0.80467 0.0
H1728 H 0.7778 0.65939 0.61449 0.0
H1729 H 0.82717 0.71376 0.66741 0.0
H1730 H 0.78604 0.63386 0.64094 0.0
H1731 H 0.83487 0.68796 0.69478 0.0
H1732 H 0.85941 0.63901 0.71251 0.0
H1733 H 0.85152 0.66528 0.68686 0.0
H1734 H 0.78153 0.61713 0.68922 0.0
H1735 H 0.78946 0.59067 0.71371 0.0
C1736 C 0.79022 0.66584 0.63207 0.0
C1737 C 0.80184 0.68855 0.63894 0.0
C1738 C 0.79488 0.65119 0.64731 0.0
C1739 C 0.81104 0.6589 0.67 0.0
C1740 C 0.82254 0.6816 0.67709 0.0
C1741 C 0.81804 0.69633 0.66157 0.0
C1742 C 0.84236 0.63408 0.70748 0.0
C1743 C 0.82506 0.61278 0.71486 0.0
C1744 C 0.83783 0.64915 0.693 0.0
C1745 C 0.81591 0.64323 0.68599 0.0
C1746 C 0.79862 0.62202 0.69381 0.0
C1747 C 0.80316 0.60689 0.70792 0.0
H1748 H 0.2494 0.11522 0.65575 0.0
H1749 H 0.30166 0.12194 0.59656 0.0
H1750 H 0.27552 0.14964 0.6809 0.0
H1751 H 0.32746 0.15661 0.62087 0.0
H1752 H 0.3721 0.19796 0.69717 0.0
H1753 H 0.34522 0.16605 0.66903 0.0
H1754 H 0.29857 0.18963 0.6751 0.0
H1755 H 0.3254 0.22147 0.70431 0.0
C1756 C 0.26638 0.12421 0.64789 0.0
C1757 C 0.27363 0.11579 0.62456 0.0
C1758 C 0.28128 0.14396 0.66213 0.0
C1759 C 0.30355 0.15567 0.65301 0.0
C1760 C 0.3105 0.14767 0.62882 0.0
C1761 C 0.29572 0.12785 0.61488 0.0
C1762 C 0.35617 0.19646 0.69241 0.0
C1763 C 0.35085 0.21222 0.70296 0.0
C1764 C 0.34081 0.17822 0.6761 0.0
C1765 C 0.31986 0.17544 0.66969 0.0
C1766 C 0.31454 0.19128 0.67997 0.0
C1767 C 0.32991 0.20952 0.69656 0.0
H1768 H 0.84583 0.11616 0.64573 0.0
H1769 H 0.85915 0.18369 0.63771 0.0
H1770 H 0.80915 0.10495 0.66605 0.0
H1771 H 0.82302 0.17268 0.6587 0.0
H1772 H 0.75214 0.14683 0.67182 0.0
H1773 H 0.78455 0.15137 0.64491 0.0
H1774 H 0.79256 0.11026 0.71114 0.0
H1775 H 0.75959 0.10502 0.73738 0.0
C1776 C 0.841 0.12861 0.64859 0.0
C1777 C 0.85525 0.15078 0.64008 0.0
C1778 C 0.82004 0.12219 0.66013 0.0
C1779 C 0.81315 0.13787 0.66349 0.0
C1780 C 0.82764 0.16009 0.65554 0.0
C1781 C 0.84842 0.16645 0.64382 0.0
C1782 C 0.76063 0.13847 0.68028 0.0
C1783 C 0.7537 0.12592 0.70688 0.0
C1784 C 0.77919 0.14112 0.665 0.0
C1785 C 0.79133 0.13159 0.67638 0.0
C1786 C 0.78349 0.11776 0.70183 0.0
C1787 C 0.76468 0.11483 0.7169 0.0
H1788 H 0.96306 0.5322 0.4745 0.0
H1789 H 0.91381 0.46264 0.48208 0.0
H1790 H -0.01054 0.52533 0.50163 0.0
H1791 H 0.94031 0.45569 0.50808 0.0
H1792 H -0.01526 0.45385 0.57959 0.0
H1793 H 0.95907 0.46288 0.55525 0.0
H1794 H 0.01081 0.50702 0.49409 0.0
H1795 H 0.03682 0.49858 0.51929 0.0
C1796 C 0.95791 0.51547 0.48189 0.0
C1797 C 0.93639 0.49797 0.4763 0.0
C1798 C 0.97304 0.51152 0.49723 0.0
C1799 C 0.96692 0.48999 0.50696 0.0
C1800 C 0.94538 0.47254 0.50135 0.0
C1801 C 0.93022 0.47651 0.48633 0.0
C1802 C -0.00937 0.46546 0.56092 0.0
C1803 C 0.0127 0.47541 0.55114 0.0
C1804 C 0.97592 0.47059 0.54695 0.0
C1805 C -0.01709 0.48553 0.52266 0.0
C1806 C 0.00505 0.49564 0.51302 0.0
C1807 C 0.01987 0.49071 0.52727 0.0
H1808 H 0.45917 0.53233 0.50897 0.0
H1809 H 0.5054 0.52692 0.56838 0.0
H1810 H 0.4504 0.4971 0.48557 0.0
H1811 H 0.49608 0.49161 0.54597 0.0
H1812 H 0.49618 0.4453 0.47551 0.0
H1813 H 0.50288 0.47944 0.49909 0.0
H1814 H 0.43292 0.45739 0.4949 0.0
H1815 H 0.42626 0.42331 0.47016 0.0
C1816 C 0.46729 0.52353 0.51714 0.0
C1817 C 0.48318 0.53245 0.54013 0.0
C1818 C 0.46218 0.50334 0.50393 0.0
C1819 C 0.47273 0.49175 0.51379 0.0
C1820 C 0.48809 0.50043 0.53741 0.0
C1821 C 0.49338 0.52064 0.55028 0.0
C1822 C 0.48219 0.44763 0.47974 0.0
C1823 C 0.46068 0.43161 0.4711 0.0
C1824 C 0.48601 0.46718 0.49336 0.0
C1825 C 0.46839 0.471 0.49901 0.0
C1826 C 0.44684 0.45496 0.49051 0.0
C1827 C 0.44302 0.43543 0.47655 0.0
H1828 H 0.53815 0.04908 0.50836 0.0
H1829 H 0.53283 -0.00117 0.44638 0.0
H1830 H 0.50371 0.02203 0.53236 0.0
H1831 H 0.49792 0.97196 0.46963 0.0
H1832 H 0.44357 0.92542 0.53464 0.0
H1833 H 0.48015 0.95076 0.51423 0.0
H1834 H 0.46557 0.00424 0.51742 0.0
H1835 H 0.42939 0.97916 0.53879 0.0
C1836 C 0.52965 0.03221 0.5 0.0
C1837 C 0.53796 0.02605 0.47537 0.0
C1838 C 0.50988 0.01678 0.51357 0.0
C1839 C 0.49795 -0.00497 0.50246 0.0
C1840 C 0.50683 -0.01141 0.47876 0.0
C1841 C 0.52678 0.00397 0.46542 0.0
C1842 C 0.44816 0.94257 0.53078 0.0
C1843 C 0.43372 0.95039 0.53839 0.0
C1844 C 0.46908 0.95705 0.51911 0.0
C1845 C 0.47579 0.97951 0.51459 0.0
C1846 C 0.46107 0.98713 0.52141 0.0
C1847 C 0.44028 0.97274 0.53337 0.0
H1848 H 0.50925 0.93904 0.99601 0.0
H1849 H 0.53758 -0.01207 0.06657 0.0
H1850 H 0.50528 0.96545 0.96432 0.0
H1851 H 0.53262 0.01416 0.03552 0.0
H1852 H 0.52392 0.05848 0.9691 0.0
H1853 H 0.53928 0.03677 0.99058 0.0
H1854 H 0.47802 0.97646 0.97113 0.0
H1855 H 0.46297 -0.00207 0.94907 0.0
C1856 C 0.51501 0.95565 1.00441 0.0
C1857 C 0.52333 0.9615 0.03372 0.0
C1858 C 0.51264 0.97069 0.98642 0.0
C1859 C 0.51804 -0.00841 0.99781 0.0
C1860 C 0.52833 -0.00185 0.02613 0.0
C1861 C 0.53112 0.98318 0.04395 0.0
C1862 C 0.51381 0.04057 0.96927 0.0
C1863 C 0.49218 0.02989 0.95755 0.0
C1864 C 0.52263 0.02818 0.98153 0.0
C1865 C 0.50994 0.00494 0.9823 0.0
C1866 C 0.48844 -0.00567 0.9702 0.0
C1867 C 0.47969 0.00666 0.95786 0.0
H1868 H 0.90699 0.45373 0.98293 0.0
H1869 H 0.96847 0.45487 0.96444 0.0
H1870 H 0.92783 0.49212 1.00023 0.0
H1871 H -0.01095 0.49271 0.98221 0.0
H1872 H 0.0249 0.56226 0.99748 0.0
H1873 H -0.00212 0.53006 0.96923 0.0
H1874 H 0.95161 0.51172 0.04323 0.0
H1875 H 0.97832 0.54452 0.07082 0.0
C1876 C 0.92491 0.46212 0.98269 0.0
C1877 C 0.93612 0.4513 0.97241 0.0
C1878 C 0.93678 0.48408 0.99244 0.0
C1879 C 0.96002 0.4955 0.99204 0.0
C1880 C 0.97114 0.48458 0.98191 0.0
C1881 C 0.95934 0.46276 0.97212 0.0
C1882 C 0.00864 0.55173 0.00715 0.0
C1883 C 0.00372 0.55541 0.03643 0.0
C1884 C -0.00675 0.5333 0.99113 0.0
C1885 C 0.973 0.51806 1.00451 0.0
C1886 C 0.96713 0.52316 0.03241 0.0
C1887 C -0.01758 0.54189 0.04823 0.0
H1888 H 0.41998 0.44117 0.05052 0.0
H1889 H 0.43917 0.51054 0.04408 0.0
H1890 H 0.45284 0.44855 0.02198 0.0
H1891 H 0.47226 0.518 0.01654 0.0
H1892 H 0.51506 0.51903 0.93974 0.0
H1893 H 0.48175 0.51042 0.96769 0.0
H1894 H 0.49276 0.46745 0.02689 0.0
H1895 H 0.52574 0.47547 0.99825 0.0
C1896 C 0.43131 0.458 0.04322 0.0
C1897 C 0.42701 0.47526 0.04931 0.0
C1898 C 0.45013 0.46223 0.02703 0.0
C1899 C 0.465 0.48382 0.01698 0.0
C1900 C 0.46084 0.50111 0.02351 0.0
C1901 C 0.44195 0.49685 0.03938 0.0
C1902 C 0.51037 0.50775 0.95873 0.0
C1903 C 0.52297 0.49796 0.96693 0.0
C1904 C 0.49137 0.5029 0.97479 0.0
C1905 C 0.48479 0.48838 0.99953 0.0
C1906 C 0.49733 0.47849 0.00766 0.0
C1907 C 0.51624 0.48317 0.99138 0.0
H1908 H 0.24484 0.20254 0.94419 0.0
H1909 H 0.29625 0.20521 1.00109 0.0
H1910 H 0.27124 0.21814 0.9025 0.0
H1911 H 0.32217 0.21936 0.95946 0.0
H1912 H 0.31994 0.22955 0.82561 0.0
H1913 H 0.29249 0.21393 0.86584 0.0
H1914 H 0.34402 0.25016 0.93138 0.0
H1915 H 0.37141 0.2645 0.89129 0.0
C1916 C 0.26169 0.20613 0.94763 0.0
C1917 C 0.26846 0.20281 0.97604 0.0
C1918 C 0.2769 0.21503 0.92367 0.0
C1919 C 0.29917 0.22043 0.92738 0.0
C1920 C 0.30553 0.21625 0.95565 0.0
C1921 C 0.29052 0.20785 0.97962 0.0
C1922 C 0.32535 0.23418 0.84865 0.0
C1923 C 0.34793 0.24817 0.85521 0.0
C1924 C 0.30954 0.2253 0.87184 0.0
C1925 C 0.31582 0.23046 0.90225 0.0
C1926 C 0.3384 0.2451 0.90853 0.0
C1927 C 0.35421 0.25358 0.88544 0.0
H1928 H 0.75214 0.08284 0.01815 0.0
H1929 H 0.76901 0.0474 0.95362 0.0
H1930 H 0.74074 0.09837 0.97756 0.0
H1931 H 0.75633 0.06179 0.91287 0.0
H1932 H 0.75014 0.10476 0.8422 0.0
H1933 H 0.76349 0.09177 0.88354 0.0
H1934 H 0.71424 0.09235 0.94219 0.0
H1935 H 0.7019 0.10675 0.90091 0.0
C1936 C 0.75321 0.07817 0.99522 0.0
C1937 C 0.76154 0.06388 0.98916 0.0
C1938 C 0.74646 0.08697 0.97181 0.0
C1939 C 0.74743 0.08143 0.94158 0.0
C1940 C 0.75569 0.06697 0.93563 0.0
C1941 C 0.76287 0.05852 0.95906 0.0
C1942 C 0.74227 0.10227 0.86402 0.0
C1943 C 0.72494 0.10679 0.86824 0.0
C1944 C 0.7498 0.09456 0.8878 0.0
C1945 C 0.73989 0.09062 0.91648 0.0
C1946 C 0.72264 0.09542 0.92073 0.0
C1947 C 0.71542 0.10362 0.89699 0.0
H1948 H 0.8624 0.58955 0.8979 0.0
H1949 H 0.8727 0.64081 0.83433 0.0
H1950 H 0.87721 0.61699 0.93806 0.0
H1951 H 0.88607 0.66804 0.87451 0.0
H1952 H 0.92715 0.71738 0.947 0.0
H1953 H 0.91395 0.69 0.90667 0.0
H1954 H 0.87167 0.63912 0.97029 0.0
H1955 H 0.88606 0.66622 0.01055 0.0
C1956 C 0.86757 0.60666 0.89259 0.0
C1957 C 0.86641 0.61294 0.86286 0.0
C1958 C 0.87596 0.6225 0.91572 0.0
C1959 C 0.88296 0.64505 0.90995 0.0
C1960 C 0.88146 0.65113 0.88011 0.0
C1961 C 0.87356 0.63539 0.85693 0.0
C1962 C 0.91506 0.70031 0.95228 0.0
C1963 C 0.90777 0.69402 0.98205 0.0
C1964 C 0.9073 0.68452 0.92906 0.0
C1965 C 0.89159 0.66203 0.93482 0.0
C1966 C 0.88411 0.65597 0.96469 0.0
C1967 C 0.89225 0.67163 0.98792 0.0
H1968 H 0.19892 0.31134 0.502 0.0
H1969 H 0.18758 0.25821 0.56271 0.0
H1970 H 0.21054 0.3371 0.54399 0.0
H1971 H 0.20069 0.28413 0.60462 0.0
H1972 H 0.25279 0.38371 0.6185 0.0
H1973 H 0.23847 0.3577 0.57674 0.0
H1974 H 0.19531 0.30557 0.63833 0.0
H1975 H 0.21093 0.33135 0.68011 0.0
C1976 C 0.19902 0.3052 0.52441 0.0
C1977 C 0.19228 0.28271 0.52902 0.0
C1978 C 0.20594 0.32006 0.54859 0.0
C1979 C 0.2069 0.31302 0.57808 0.0
C1980 C 0.19989 0.29035 0.58259 0.0
C1981 C 0.19243 0.27539 0.55846 0.0
C1982 C 0.2402 0.36669 0.62302 0.0
C1983 C 0.23309 0.3596 0.65264 0.0
C1984 C 0.23179 0.35168 0.59898 0.0
C1985 C 0.21559 0.32924 0.60376 0.0
C1986 C 0.20811 0.32242 0.63348 0.0
C1987 C 0.21693 0.3373 0.65756 0.0
H1988 H 0.63166 0.90547 0.67651 0.0
H1989 H 0.58165 0.8574 0.61721 0.0
H1990 H 0.65823 0.9188 0.6353 0.0
H1991 H 0.60847 0.87053 0.57597 0.0
H1992 H 0.65637 0.91399 0.50159 0.0
H1993 H 0.62943 0.90155 0.54245 0.0
H1994 H 0.67969 0.90783 0.60496 0.0
H1995 H 0.70678 0.92069 0.56418 0.0
C1996 C 0.62628 0.89769 0.65468 0.0
C1997 C 0.6044 0.88028 0.65034 0.0
C1998 C 0.64164 0.90528 0.63101 0.0
C1999 C 0.63564 0.89571 0.60221 0.0
C2000 C 0.61368 0.87848 0.59772 0.0
C2001 C 0.59828 0.87086 0.62145 0.0
C2002 C 0.66175 0.9128 0.52405 0.0
C2003 C 0.68386 0.91842 0.52946 0.0
C2004 C 0.6462 0.90549 0.54751 0.0
C2005 C 0.65227 0.9036 0.57713 0.0
C2006 C 0.67441 0.90933 0.58257 0.0
C2007 C 0.68997 0.91662 0.55909 0.0
H2008 H 0.07802 0.75587 0.49284 0.0
H2009 H 0.03939 0.76922 0.55645 0.0
H2010 H 0.09329 0.74444 0.53397 0.0
H2011 H 0.05348 0.7566 0.59737 0.0
H2012 H 0.09584 0.7525 0.66985 0.0
H2013 H 0.08329 0.7654 0.62753 0.0
H2014 H 0.08796 0.71794 0.56977 0.0
H2015 H 0.10191 0.70605 0.61217 0.0
C2016 C 0.0726 0.75614 0.51562 0.0
C2017 C 0.05756 0.76361 0.52133 0.0
C2018 C 0.08127 0.74942 0.53931 0.0
C2019 C 0.07485 0.74961 0.56938 0.0
C2020 C 0.05944 0.75672 0.57484 0.0
C2021 C 0.05113 0.76383 0.55124 0.0
C2022 C 0.09433 0.74491 0.64804 0.0
C2023 C 0.09982 0.72818 0.64445 0.0
C2024 C 0.08687 0.75217 0.62368 0.0
C2025 C 0.08412 0.74256 0.59496 0.0
C2026 C 0.09002 0.72602 0.59128 0.0
C2027 C 0.09796 0.71908 0.61565 0.0
H2028 H 0.58756 0.72671 0.11288 0.0
H2029 H 0.63965 0.7682 0.17481 0.0
H2030 H 0.61381 0.74148 0.0712 0.0
H2031 H 0.66565 0.7838 0.13318 0.0
H2032 H 0.66073 0.78342 0.99793 0.0
H2033 H 0.63503 0.77178 0.04003 0.0
H2034 H 0.68628 0.77602 0.09919 0.0
H2035 H 0.71227 0.78876 0.05713 0.0
C2036 C 0.60454 0.73924 0.11753 0.0
C2037 C 0.6115 0.74616 0.1472 0.0
C2038 C 0.61965 0.74785 0.09358 0.0
C2039 C 0.64203 0.76389 0.09862 0.0
C2040 C 0.64876 0.77116 0.12831 0.0
C2041 C 0.63376 0.76231 0.15225 0.0
C2042 C 0.66658 0.78208 0.02001 0.0
C2043 C 0.68857 0.78699 0.02414 0.0
C2044 C 0.65174 0.77518 0.04419 0.0
C2045 C 0.65834 0.77263 0.07317 0.0
C2046 C 0.68054 0.77803 0.07739 0.0
C2047 C 0.6955 0.78529 0.05323 0.0
H2048 H 0.17145 0.90108 0.05259 0.0
H2049 H 0.21437 0.88983 0.99411 0.0
H2050 H 0.18087 0.88452 0.0944 0.0
H2051 H 0.22437 0.87409 0.03595 0.0
H2052 H 0.22691 0.83203 0.11267 0.0
H2053 H 0.21298 0.84393 0.07017 0.0
H2054 H 0.21117 0.89354 0.1265 0.0
H2055 H 0.22422 0.88128 0.16876 0.0
C2056 C 0.1829 0.89511 0.04864 0.0
C2057 C 0.1922 0.89691 0.01998 0.0
C2058 C 0.18842 0.8857 0.07266 0.0
C2059 C 0.20353 0.87804 0.06871 0.0
C2060 C 0.21245 0.87947 0.03986 0.0
C2061 C 0.20681 0.88869 0.01584 0.0
C2062 C 0.2234 0.84538 0.11595 0.0
C2063 C 0.22671 0.85564 0.14419 0.0
C2064 C 0.2155 0.85229 0.09155 0.0
C2065 C 0.21085 0.86971 0.09481 0.0
C2066 C 0.21408 0.87981 0.12314 0.0
C2067 C 0.22179 0.87284 0.14744 0.0
H2068 H 0.13124 0.38447 0.12824 0.0
H2069 H 0.08301 0.33088 0.18357 0.0
H2070 H 0.12116 0.35913 0.08567 0.0
H2071 H 0.07234 0.30589 0.14095 0.0
H2072 H 0.06722 0.26075 0.06491 0.0
H2073 H 0.0823 0.2858 0.10786 0.0
H2074 H 0.0918 0.34056 0.05137 0.0
H2075 H 0.07767 0.31587 0.00854 0.0
C2076 C 0.11847 0.36732 0.13131 0.0
C2077 C 0.10791 0.35976 0.1593 0.0
C2078 C 0.11259 0.35278 0.10686 0.0
C2079 C 0.09583 0.3304 0.10973 0.0
C2080 C 0.08556 0.32284 0.13791 0.0
C2081 C 0.09159 0.33728 0.16237 0.0
C2082 C 0.07271 0.27817 0.06167 0.0
C2083 C 0.07118 0.28625 0.03327 0.0
C2084 C 0.08125 0.29255 0.08633 0.0
C2085 C 0.08826 0.31527 0.0832 0.0
C2086 C 0.08699 0.32331 0.05464 0.0
C2087 C 0.07869 0.30904 0.03002 0.0
H2088 H 0.77537 0.71251 0.44975 0.0
H2089 H 0.76305 0.6601 0.51257 0.0
H2090 H 0.76403 0.68623 0.40835 0.0
H2091 H 0.75274 0.63397 0.47112 0.0
H2092 H 0.71111 0.58814 0.39389 0.0
H2093 H 0.72457 0.61379 0.43631 0.0
H2094 H 0.77339 0.66481 0.37828 0.0
H2095 H 0.75915 0.63952 0.33585 0.0
C2096 C 0.77057 0.69544 0.45466 0.0
C2097 C 0.77003 0.68841 0.48447 0.0
C2098 C 0.76417 0.68031 0.43087 0.0
C2099 C 0.75741 0.65783 0.4362 0.0
C2100 C 0.75739 0.65098 0.46605 0.0
C2101 C 0.76346 0.66603 0.48986 0.0
C2102 C 0.72486 0.60477 0.39036 0.0
C2103 C 0.73394 0.61185 0.3615 0.0
C2104 C 0.73267 0.61952 0.41471 0.0
C2105 C 0.74998 0.64159 0.41082 0.0
C2106 C 0.75966 0.64823 0.38212 0.0
C2107 C 0.75162 0.63363 0.35777 0.0
H2108 H 0.29887 0.10081 0.50146 0.0
H2109 H 0.2469 0.05315 0.44416 0.0
H2110 H 0.32416 0.11415 0.45885 0.0
H2111 H 0.27249 0.06556 0.40167 0.0
H2112 H 0.31891 0.10212 0.32458 0.0
H2113 H 0.29298 0.09292 0.36618 0.0
H2114 H 0.34499 0.1042 0.42902 0.0
H2115 H 0.37106 0.11454 0.38749 0.0
C2116 C 0.29288 0.09313 0.47969 0.0
C2117 C 0.27092 0.07587 0.47619 0.0
C2118 C 0.30745 0.10065 0.45523 0.0
C2119 C 0.3006 0.0908 0.42669 0.0
C2120 C 0.2784 0.07383 0.4231 0.0
C2121 C 0.26369 0.06659 0.44751 0.0
C2122 C 0.32481 0.10279 0.34734 0.0
C2123 C 0.34705 0.10908 0.35273 0.0
C2124 C 0.30988 0.09734 0.37125 0.0
C2125 C 0.31672 0.09767 0.40117 0.0
C2126 C 0.33908 0.10415 0.40646 0.0
C2127 C 0.35408 0.10997 0.38259 0.0
H2128 H 0.90795 0.1783 0.45738 0.0
H2129 H 0.86575 0.18881 0.51811 0.0
H2130 H 0.89397 0.19016 0.41521 0.0
H2131 H 0.85085 0.19954 0.47594 0.0
H2132 H 0.85099 0.24528 0.40201 0.0
H2133 H 0.86129 0.22956 0.44367 0.0
H2134 H 0.86486 0.1831 0.38265 0.0
H2135 H 0.85564 0.19966 0.34081 0.0
C2136 C 0.89531 0.18267 0.4616 0.0
C2137 C 0.8881 0.18281 0.49107 0.0
C2138 C 0.88718 0.18941 0.43739 0.0
C2139 C 0.87137 0.19609 0.44205 0.0
C2140 C 0.86342 0.19513 0.47146 0.0
C2141 C 0.87183 0.18878 0.49567 0.0
C2142 C 0.85381 0.2316 0.39756 0.0
C2143 C 0.85263 0.22383 0.36808 0.0
C2144 C 0.85961 0.22244 0.42151 0.0
C2145 C 0.86401 0.205 0.41669 0.0
C2146 C 0.86209 0.19678 0.38725 0.0
C2147 C 0.85664 0.20619 0.36324 0.0
H2148 H 0.03917 0.59386 0.23488 0.0
H2149 H -0.01185 0.54834 0.17471 0.0
H2150 H 0.01264 0.58053 0.27641 0.0
H2151 H 0.96198 0.53398 0.21619 0.0
H2152 H 0.91287 0.5275 0.28775 0.0
H2153 H 0.93986 0.54095 0.24698 0.0
H2154 H -0.00835 0.55308 0.31068 0.0
H2155 H 0.96479 0.5409 0.35146 0.0
C2156 C 0.02238 0.58071 0.23067 0.0
C2157 C 0.01577 0.57228 0.20146 0.0
C2158 C 0.00708 0.57293 0.25454 0.0
C2159 C -0.01514 0.55617 0.24995 0.0
C2160 C 0.97861 0.54729 0.22077 0.0
C2161 C -0.00625 0.55539 0.19689 0.0
C2162 C 0.93003 0.53304 0.29299 0.0
C2163 C 0.93663 0.53315 0.3229 0.0
C2164 C 0.9456 0.54065 0.26952 0.0
C2165 C 0.9682 0.54815 0.27517 0.0
C2166 C 0.97464 0.54794 0.30519 0.0
C2167 C 0.95914 0.54075 0.32869 0.0
H2168 H 0.43034 0.37661 0.28637 0.0
H2169 H 0.41601 0.41379 0.35122 0.0
H2170 H 0.41747 0.39107 0.24597 0.0
H2171 H 0.40448 0.42943 0.3109 0.0
H2172 H 0.36627 0.43966 0.23526 0.0
H2173 H 0.37806 0.42445 0.27616 0.0
H2174 H 0.42503 0.42082 0.21617 0.0
H2175 H 0.41215 0.4346 0.17522 0.0
C2176 C 0.42467 0.3881 0.29195 0.0
C2177 C 0.42417 0.39396 0.32206 0.0
C2178 C 0.41741 0.3966 0.2687 0.0
C2179 C 0.4099 0.41166 0.27479 0.0
C2180 C 0.40963 0.41761 0.30503 0.0
C2181 C 0.41644 0.40873 0.32829 0.0
C2182 C 0.37915 0.43564 0.23094 0.0
C2183 C 0.38816 0.43825 0.20193 0.0
C2184 C 0.38606 0.42698 0.25448 0.0
C2185 C 0.40253 0.42114 0.24979 0.0
C2186 C 0.41191 0.42441 0.22081 0.0
C2187 C 0.40466 0.43258 0.19723 0.0
H2188 H 0.59022 0.05562 0.28517 0.0
H2189 H 0.54512 0.00412 0.34546 0.0
H2190 H 0.57751 0.02919 0.24378 0.0
H2191 H 0.53105 0.97799 0.30394 0.0
H2192 H 0.52466 0.92921 0.23171 0.0
H2193 H 0.53696 0.95576 0.27285 0.0
H2194 H 0.55153 0.00846 0.20905 0.0
H2195 H 0.54078 0.98201 0.16802 0.0
C2196 C 0.57725 0.0387 0.28941 0.0
C2197 C 0.56877 0.03196 0.31861 0.0
C2198 C 0.56977 0.02345 0.26557 0.0
C2199 C 0.55314 0.00112 0.27009 0.0
C2200 C 0.54425 -0.0053 0.29933 0.0
C2201 C 0.55216 0.0098 0.32325 0.0
C2202 C 0.53045 0.94648 0.22658 0.0
C2203 C 0.53179 0.95348 0.19659 0.0
C2204 C 0.53741 0.96182 0.25026 0.0
C2205 C 0.54538 0.98458 0.24472 0.0
C2206 C 0.54612 -0.00865 0.21457 0.0
C2207 C 0.53971 0.97609 0.19089 0.0
H2208 H 0.42173 0.98017 0.66038 0.0
H2209 H 0.38394 0.92709 0.7234 0.0
H2210 H 0.43876 0.0059 0.70194 0.0
H2211 H 0.4001 0.95302 0.76507 0.0
H2212 H 0.44421 -0.00045 0.83668 0.0
H2213 H 0.43142 0.97435 0.79404 0.0
H2214 H 0.43222 0.02587 0.73848 0.0
H2215 H 0.44614 0.05138 0.78096 0.0
C2216 C 0.41696 0.974 0.68317 0.0
C2217 C 0.40143 0.95153 0.68854 0.0
C2218 C 0.42664 -0.01115 0.70708 0.0
C2219 C 0.42083 0.98174 0.7371 0.0
C2220 C 0.40539 0.95916 0.74241 0.0
C2221 C 0.39596 0.94423 0.71847 0.0
C2222 C 0.44188 0.00557 0.81524 0.0
C2223 C 0.44616 0.02748 0.81225 0.0
C2224 C 0.43431 -0.00898 0.79077 0.0
C2225 C 0.43042 -0.00218 0.76267 0.0
C2226 C 0.43524 0.01998 0.75953 0.0
C2227 C 0.44318 0.03466 0.78395 0.0
H2228 H 0.04109 0.45144 0.73605 0.0
H2229 H -0.01163 0.44095 0.67534 0.0
H2230 H 0.0158 0.44179 0.7786 0.0
H2231 H 0.96336 0.43246 0.71779 0.0
H2232 H 0.91788 0.39108 0.79486 0.0
H2233 H 0.94323 0.4042 0.75225 0.0
H2234 H -0.0047 0.45165 0.80999 0.0
H2235 H 0.97017 0.43765 0.85282 0.0
C2236 C 0.0242 0.44748 0.73188 0.0
C2237 C 0.01668 0.44676 0.70236 0.0
C2238 C 0.00966 0.44204 0.75629 0.0
C2239 C -0.01264 0.43614 0.75177 0.0
C2240 C -0.01981 0.43633 0.72222 0.0
C2241 C -0.00541 0.44137 0.69783 0.0
C2242 C 0.93468 0.40447 0.79835 0.0
C2243 C 0.94204 0.41323 0.82723 0.0
C2244 C 0.94926 0.41211 0.77386 0.0
C2245 C 0.97148 0.42897 0.77754 0.0
C2246 C 0.97852 0.43831 0.80631 0.0
C2247 C 0.96404 0.43041 0.83087 0.0
H2248 H 0.52995 0.54964 0.65962 0.0
H2249 H 0.51693 0.58947 0.72161 0.0
H2250 H 0.5405 0.53424 0.70142 0.0
H2251 H 0.52853 0.57495 0.7634 0.0
H2252 H 0.53286 0.53261 0.83633 0.0
H2253 H 0.51915 0.54414 0.7937 0.0
H2254 H 0.56852 0.54248 0.73654 0.0
H2255 H 0.58144 0.52981 0.77912 0.0
C2256 C 0.52948 0.55523 0.68221 0.0
C2257 C 0.5226 0.5708 0.68728 0.0
C2258 C 0.53569 0.54649 0.70623 0.0
C2259 C 0.5355 0.55333 0.73597 0.0
C2260 C 0.52852 0.5689 0.74097 0.0
C2261 C 0.52198 0.57738 0.71696 0.0
C2262 C 0.54065 0.53451 0.81458 0.0
C2263 C 0.55829 0.53036 0.81112 0.0
C2264 C 0.53291 0.54134 0.79011 0.0
C2265 C 0.54285 0.54459 0.76158 0.0
C2266 C 0.56021 0.53992 0.758 0.0
C2267 C 0.56772 0.53272 0.78245 0.0
H2268 H 0.1935 0.18521 0.33986 0.0
H2269 H 0.14058 0.19724 0.31451 0.0
H2270 H 0.19608 0.17533 0.28803 0.0
H2271 H 0.14288 0.18691 0.2628 0.0
H2272 H 0.18696 0.14535 0.1949 0.0
H2273 H 0.17837 0.149 0.24723 0.0
H2274 H 0.16874 0.20352 0.2218 0.0
H2275 H 0.17685 0.19964 0.16973 0.0
C2276 C 0.18216 0.18543 0.32337 0.0
C2277 C 0.16696 0.19224 0.33143 0.0
C2278 C 0.18356 0.17962 0.2936 0.0
C2279 C 0.1698 0.18046 0.2711 0.0
C2280 C 0.154 0.18642 0.27941 0.0
C2281 C 0.15259 0.19223 0.30916 0.0
C2282 C 0.18269 0.15789 0.20041 0.0
C2283 C 0.18271 0.17225 0.17802 0.0
C2284 C 0.17792 0.1601 0.23047 0.0
C2285 C 0.17295 0.17663 0.23884 0.0
C2286 C 0.17222 0.19043 0.21623 0.0
C2287 C 0.17703 0.18828 0.18629 0.0
H2288 H 0.77521 0.97212 0.17671 0.0
H2289 H 0.82572 0.03882 0.19972 0.0
H2290 H 0.7731 0.96097 0.229 0.0
H2291 H 0.82401 0.02746 0.25215 0.0
H2292 H 0.78793 0.00651 0.34461 0.0
H2293 H 0.79802 0.01815 0.29263 0.0
H2294 H 0.79019 0.9541 0.27121 0.0
H2295 H 0.77947 0.94219 0.32323 0.0
C2296 C 0.78623 0.98434 0.1928 0.0
C2297 C 0.80048 0.00646 0.18394 0.0
C2298 C 0.78511 0.97788 0.22288 0.0
C2299 C 0.79825 -0.00667 0.24498 0.0
C2300 C 0.81336 0.01519 0.23586 0.0
C2301 C 0.81446 0.02168 0.20571 0.0
C2302 C 0.78864 -0.00504 0.32898 0.0
C2303 C 0.78262 0.97329 0.33815 0.0
C2304 C 0.79459 0.00171 0.29909 0.0
C2305 C 0.79478 0.98703 0.27754 0.0
C2306 C 0.78985 0.96573 0.28705 0.0
C2307 C 0.78383 0.95893 0.31696 0.0
H2308 H 0.9295 0.78038 0.19397 0.0
H2309 H -0.00355 0.79846 0.16962 0.0
H2310 H 0.94086 0.78907 0.24655 0.0
H2311 H 0.0076 0.80659 0.22195 0.0
H2312 H 0.02622 0.83104 0.3166 0.0
H2313 H 0.01402 0.82997 0.26481 0.0
H2314 H 0.95107 0.77225 0.28623 0.0
H2315 H 0.96301 0.77362 0.338 0.0
C2316 C 0.94668 0.78649 0.1997 0.0
C2317 C 0.96199 0.78855 0.17748 0.0
C2318 C 0.95317 0.79131 0.22993 0.0
C2319 C 0.97513 0.79837 0.23866 0.0
C2320 C -0.00938 0.80144 0.21617 0.0
C2321 C -0.01585 0.79661 0.18604 0.0
C2322 C 0.00965 0.81833 0.3104 0.0
C2323 C -0.0043 0.80233 0.33154 0.0
C2324 C 0.00269 0.81762 0.2806 0.0
C2325 C -0.0184 0.80091 0.27114 0.0
C2326 C 0.96732 0.78552 0.29265 0.0
C2327 C 0.97426 0.78623 0.32241 0.0
H2328 H 0.82152 0.77866 0.69482 0.0
H2329 H 0.76614 0.78641 0.66816 0.0
H2330 H 0.8195 0.79094 0.74562 0.0
H2331 H 0.76401 0.79837 0.71883 0.0
H2332 H 0.77273 0.83178 0.80826 0.0
H2333 H 0.78289 0.82755 0.75706 0.0
H2334 H 0.79257 0.77392 0.78699 0.0
H2335 H 0.78273 0.77826 0.83803 0.0
C2336 C 0.80909 0.78321 0.69966 0.0
C2337 C 0.79386 0.78134 0.67747 0.0
C2338 C 0.80788 0.79016 0.72879 0.0
C2339 C 0.79154 0.79554 0.73628 0.0
C2340 C 0.77695 0.79459 0.71374 0.0
C2341 C 0.77806 0.78753 0.68471 0.0
C2342 C 0.7774 0.81935 0.80401 0.0
C2343 C 0.77669 0.80521 0.8272 0.0
C2344 C 0.7831 0.81685 0.77465 0.0
C2345 C 0.78838 0.80029 0.76793 0.0
C2346 C 0.78879 0.78696 0.79143 0.0
C2347 C 0.78297 0.78936 0.8207 0.0
H2348 H 0.20531 0.0052 0.83686 0.0
H2349 H 0.14536 0.9449 0.81292 0.0
H2350 H 0.20745 0.01947 0.78599 0.0
H2351 H 0.14748 0.95931 0.76222 0.0
H2352 H 0.18047 0.97893 0.66772 0.0
H2353 H 0.17302 0.96622 0.7197 0.0
H2354 H 0.18905 0.03181 0.74843 0.0
H2355 H 0.19668 0.0447 0.69614 0.0
C2356 C 0.19242 -0.0049 0.82092 0.0
C2357 C 0.17528 0.97379 0.82895 0.0
C2358 C 0.19358 0.00336 0.79181 0.0
C2359 C 0.17772 -0.00955 0.77004 0.0
C2360 C 0.16011 0.96953 0.7784 0.0
C2361 C 0.15886 0.96133 0.80752 0.0
C2362 C 0.1822 -0.00936 0.68502 0.0
C2363 C 0.18929 0.01287 0.67775 0.0
C2364 C 0.17778 0.98329 0.71483 0.0
C2365 C 0.18048 -0.00198 0.73819 0.0
C2366 C 0.18699 0.02013 0.73092 0.0
C2367 C 0.19122 0.02746 0.70096 0.0
H2368 H 0.93054 0.14571 0.70638 0.0
H2369 H -0.00553 0.19834 0.6765 0.0
H2370 H 0.94409 0.1513 0.75807 0.0
H2371 H 0.00785 0.204 0.72819 0.0
H2372 H 0.03034 0.19879 0.82187 0.0
H2373 H 0.01671 0.18673 0.77087 0.0
H2374 H 0.95431 0.18155 0.79508 0.0
H2375 H 0.96777 0.1934 0.84613 0.0
C2376 C 0.94755 0.15828 0.71073 0.0
C2377 C 0.96137 0.1717 0.68729 0.0
C2378 C 0.95525 0.16155 0.74039 0.0
C2379 C 0.97697 0.17818 0.74721 0.0
C2380 C -0.00892 0.19092 0.72362 0.0
C2381 C -0.01664 0.18775 0.694 0.0
C2382 C 0.01361 0.19483 0.81646 0.0
C2383 C 0.0002 0.19722 0.83807 0.0
C2384 C 0.00586 0.18802 0.78718 0.0
C2385 C -0.0155 0.1833 0.77894 0.0
C2386 C 0.97079 0.18486 0.80083 0.0
C2387 C 0.97857 0.1918 0.83005 0.0
H2388 H 0.85196 0.50888 0.67675 0.0
H2389 H 0.79916 0.52188 0.65454 0.0
H2390 H 0.85335 0.49901 0.62466 0.0
H2391 H 0.80027 0.51152 0.60235 0.0
H2392 H 0.8443 0.47065 0.53184 0.0
H2393 H 0.8349 0.4731 0.58409 0.0
H2394 H 0.82574 0.52824 0.56066 0.0
H2395 H 0.83465 0.52553 0.50848 0.0
C2396 C 0.84036 0.50927 0.66088 0.0
C2397 C 0.82559 0.5164 0.66989 0.0
C2398 C 0.84106 0.50344 0.63096 0.0
C2399 C 0.82701 0.50458 0.60918 0.0
C2400 C 0.81156 0.51077 0.61843 0.0
C2401 C 0.81083 0.51658 0.64843 0.0
C2402 C 0.83991 0.48305 0.53772 0.0
C2403 C 0.84044 0.49801 0.51591 0.0
C2404 C 0.83466 0.48455 0.56775 0.0
C2405 C 0.82977 0.50101 0.57671 0.0
C2406 C 0.82922 0.51523 0.5546 0.0
C2407 C 0.83447 0.51375 0.52462 0.0
H2408 H 0.49248 0.36875 0.52963 0.0
H2409 H 0.43946 0.30291 0.50795 0.0
H2410 H 0.49193 0.35708 0.58168 0.0
H2411 H 0.43848 0.29151 0.55986 0.0
H2412 H 0.44581 0.27155 0.65273 0.0
H2413 H 0.4557 0.2834 0.60049 0.0
H2414 H 0.46782 0.34877 0.62386 0.0
H2415 H 0.45864 0.33719 0.67596 0.0
C2416 C 0.48088 0.35174 0.53582 0.0
C2417 C 0.4659 0.33686 0.51455 0.0
C2418 C 0.48045 0.34507 0.56576 0.0
C2419 C 0.46501 0.32338 0.57519 0.0
C2420 C 0.45078 0.30826 0.55352 0.0
C2421 C 0.45125 0.31488 0.52364 0.0
C2422 C 0.45101 0.28858 0.64683 0.0
C2423 C 0.4512 0.30332 0.66861 0.0
C2424 C 0.45652 0.29534 0.61679 0.0
C2425 C 0.46232 0.317 0.60774 0.0
C2426 C 0.46366 0.33204 0.62988 0.0
C2427 C 0.45823 0.32531 0.65988 0.0
H2428 H 0.60166 0.11968 0.53235 0.0
H2429 H 0.6654 0.12848 0.50695 0.0
H2430 H 0.61438 0.12912 0.58422 0.0
H2431 H 0.6779 0.13746 0.55884 0.0
H2432 H 0.69958 0.1654 0.65243 0.0
H2433 H 0.68755 0.16354 0.60029 0.0
H2434 H 0.62227 0.11062 0.62448 0.0
H2435 H 0.63408 0.11272 0.67641 0.0
C2436 C 0.61845 0.12384 0.53771 0.0
C2437 C 0.63242 0.12312 0.51542 0.0
C2438 C 0.62571 0.12913 0.56753 0.0
C2439 C 0.64711 0.13387 0.57583 0.0
C2440 C 0.6614 0.13412 0.55327 0.0
C2441 C 0.65415 0.12881 0.52347 0.0
C2442 C 0.68257 0.15361 0.64671 0.0
C2443 C 0.66786 0.13913 0.66866 0.0
C2444 C 0.67571 0.15244 0.61676 0.0
C2445 C 0.65396 0.13685 0.60809 0.0
C2446 C 0.63906 0.12301 0.63032 0.0
C2447 C 0.64591 0.12412 0.66016 0.0
H2448 H 0.44627 0.09978 0.17382 0.0
H2449 H 0.44196 0.15713 0.14633 0.0
H2450 H 0.45812 0.09696 0.12321 0.0
H2451 H 0.45407 0.15439 0.09583 0.0
H2452 H 0.43905 0.11754 1.00408 0.0
H2453 H 0.43523 0.12705 0.05546 0.0
H2454 H 0.48742 0.11486 0.08394 0.0
H2455 H 0.4912 0.10509 0.03221 0.0
C2456 C 0.44818 0.11201 0.15716 0.0
C2457 C 0.44288 0.12851 0.16408 0.0
C2458 C 0.45513 0.11047 0.12818 0.0
C2459 C 0.45685 0.12534 0.10547 0.0
C2460 C 0.4526 0.1425 0.11277 0.0
C2461 C 0.44575 0.14411 0.14176 0.0
C2462 C 0.44991 0.11709 0.02117 0.0
C2463 C 0.46532 0.11038 0.01406 0.0
C2464 C 0.44782 0.12273 0.05062 0.0
C2465 C 0.461 0.12169 0.07377 0.0
C2466 C 0.47692 0.11565 0.06658 0.0
C2467 C 0.47916 0.11017 0.03695 0.0
H2468 H 0.86876 0.33027 0.18301 0.0
H2469 H 0.81132 0.26859 0.15646 0.0
H2470 H 0.87181 0.3446 0.13205 0.0
H2471 H 0.81439 0.28306 0.10546 0.0
H2472 H 0.85057 0.30694 0.01244 0.0
H2473 H 0.84179 0.29256 0.0637 0.0
H2474 H 0.85219 0.3558 0.09476 0.0
H2475 H 0.8611 0.37034 0.04342 0.0
C2476 C 0.85667 0.31983 0.16639 0.0
C2477 C 0.83988 0.29822 0.17379 0.0
C2478 C 0.85832 0.32812 0.13724 0.0
C2479 C 0.84334 0.31494 0.11477 0.0
C2480 C 0.82627 0.29352 0.12228 0.0
C2481 C 0.82448 0.28529 0.15153 0.0
C2482 C 0.85072 0.31773 0.0301 0.0
C2483 C 0.8567 0.33985 0.02384 0.0
C2484 C 0.84556 0.30943 0.05946 0.0
C2485 C 0.84643 0.3231 0.08325 0.0
C2486 C 0.85163 0.34497 0.07688 0.0
C2487 C 0.85659 0.35323 0.04745 0.0
H2488 H 0.69421 0.53235 0.14396 0.0
H2489 H 0.63155 0.52532 0.17154 0.0
H2490 H 0.68055 0.52297 0.09242 0.0
H2491 H 0.61805 0.51611 0.12001 0.0
H2492 H 0.65822 0.53934 1.00134 0.0
H2493 H 0.67148 0.5425 0.05283 0.0
H2494 H 0.60797 0.4878 0.07967 0.0
H2495 H 0.59455 0.48466 0.0281 0.0
C2496 C 0.67745 0.52857 0.13915 0.0
C2497 C 0.66403 0.52974 0.16188 0.0
C2498 C 0.66969 0.52331 0.10957 0.0
C2499 C 0.64828 0.5189 0.10214 0.0
C2500 C 0.63455 0.51922 0.12508 0.0
C2501 C 0.64236 0.52464 0.15459 0.0
C2502 C 0.64713 0.52781 0.01811 0.0
C2503 C 0.62526 0.51184 0.0106 0.0
C2504 C 0.65479 0.52954 0.0476 0.0
C2505 C 0.64074 0.51545 0.07032 0.0
C2506 C 0.6191 0.49903 0.06268 0.0
C2507 C 0.61147 0.49716 0.03309 0.0
H2508 H 0.50331 0.8642 0.83967 0.0
H2509 H 0.51824 0.81284 0.86338 0.0
H2510 H 0.49582 0.86761 0.89213 0.0
H2511 H 0.51006 0.81582 0.91605 0.0
H2512 H 0.52702 0.85271 0.00776 0.0
H2513 H 0.52777 0.84213 0.9558 0.0
H2514 H 0.47254 0.85162 0.93496 0.0
H2515 H 0.47221 0.86287 0.98679 0.0
C2516 C 0.50456 0.85327 0.85598 0.0
C2517 C 0.5116 0.83837 0.84722 0.0
C2518 C 0.50011 0.85515 0.88618 0.0
C2519 C 0.50248 0.84211 0.9085 0.0
C2520 C 0.50844 0.82641 0.89956 0.0
C2521 C 0.51296 0.82456 0.86929 0.0
C2522 C 0.51484 0.85229 0.99222 0.0
C2523 C 0.49971 0.85888 1.00147 0.0
C2524 C 0.51518 0.84606 0.96237 0.0
C2525 C 0.50032 0.84615 0.941 0.0
C2526 C 0.48451 0.85175 0.95062 0.0
C2527 C 0.48424 0.85809 0.98044 0.0
H2528 H 0.09994 0.60238 0.98556 0.0
H2529 H 0.11221 0.66778 0.00906 0.0
H2530 H 0.10984 0.61433 0.93341 0.0
H2531 H 0.12173 0.67956 0.95687 0.0
H2532 H 0.15186 0.69941 0.86369 0.0
H2533 H 0.14807 0.6875 0.91618 0.0
H2534 H 0.09318 0.62344 0.89188 0.0
H2535 H 0.09716 0.63515 0.83948 0.0
C2536 C 0.10496 0.61937 0.97973 0.0
C2537 C 0.10514 0.63406 1.00161 0.0
C2538 C 0.11049 0.62618 0.94973 0.0
C2539 C 0.11644 0.64787 0.9408 0.0
C2540 C 0.11746 0.6628 0.96291 0.0
C2541 C 0.11187 0.65599 0.9929 0.0
C2542 C 0.13918 0.68268 0.86945 0.0
C2543 C 0.12476 0.6683 0.84726 0.0
C2544 C 0.1369 0.6759 0.89963 0.0
C2545 C 0.12023 0.65454 0.90838 0.0
C2546 C 0.10636 0.63992 0.886 0.0
C2547 C 0.10857 0.64671 0.85588 0.0
H2548 H 0.29682 0.44205 0.01063 0.0
H2549 H 0.36167 0.49648 0.98783 0.0
H2550 H 0.28582 0.43895 0.95806 0.0
H2551 H 0.35049 0.49354 0.93516 0.0
H2552 H 0.33112 0.45797 0.84188 0.0
H2553 H 0.34251 0.46712 0.89422 0.0
H2554 H 0.27784 0.45695 0.91679 0.0
H2555 H 0.26629 0.44747 0.86456 0.0
C2556 C 0.30865 0.4536 0.99451 0.0
C2557 C 0.33019 0.46944 1.00354 0.0
C2558 C 0.30229 0.45189 0.96431 0.0
C2559 C 0.3173 0.46594 0.9423 0.0
C2560 C 0.33861 0.48227 0.95146 0.0
C2561 C 0.34496 0.48405 0.98172 0.0
C2562 C 0.31939 0.45796 0.85789 0.0
C2563 C 0.29771 0.45179 0.84894 0.0
C2564 C 0.32598 0.46332 0.88793 0.0
C2565 C 0.31104 0.46261 0.90981 0.0
C2566 C 0.28966 0.45733 0.90063 0.0
C2567 C 0.28308 0.45202 0.87059 0.0
H2568 H 0.10842 0.43456 0.51379 0.0
H2569 H 0.10148 0.49092 0.48917 0.0
H2570 H 0.11995 0.43289 0.46255 0.0
H2571 H 0.11328 0.48934 0.43802 0.0
H2572 H 0.10022 0.45454 0.34459 0.0
H2573 H 0.09572 0.46296 0.39634 0.0
H2574 H 0.14915 0.45246 0.42408 0.0
H2575 H 0.15356 0.44376 0.37218 0.0
C2576 C 0.10963 0.44678 0.4976 0.0
C2577 C 0.10379 0.46273 0.50555 0.0
C2578 C 0.1164 0.44591 0.46826 0.0
C2579 C 0.11742 0.46092 0.44621 0.0
C2580 C 0.1124 0.47738 0.45444 0.0
C2581 C 0.10571 0.47832 0.48379 0.0
C2582 C 0.11123 0.45431 0.3616 0.0
C2583 C 0.12712 0.44828 0.35426 0.0
C2584 C 0.10873 0.45927 0.39127 0.0
C2585 C 0.122 0.45825 0.41432 0.0
C2586 C 0.13852 0.45313 0.40683 0.0
C2587 C 0.14112 0.44828 0.37707 0.0
H2588 H 0.52021 0.70612 0.35847 0.0
H2589 H 0.516 0.6441 0.33371 0.0
H2590 H 0.50781 0.69187 0.4093 0.0
H2591 H 0.50394 0.63007 0.38451 0.0
H2592 H 0.52105 0.67022 0.503 0.0
H2593 H 0.52515 0.68366 0.45153 0.0
H2594 H 0.47453 0.61863 0.42252 0.0
H2595 H 0.47058 0.60499 0.47423 0.0
C2596 C 0.51643 0.68938 0.36373 0.0
C2597 C 0.51932 0.67635 0.34204 0.0
C2598 C 0.5094 0.68125 0.39291 0.0
C2599 C 0.505 0.65987 0.40102 0.0
C2600 C 0.50696 0.64651 0.37896 0.0
C2601 C 0.51406 0.65465 0.34985 0.0
C2602 C 0.51054 0.65881 0.48578 0.0
C2603 C 0.49564 0.63645 0.49274 0.0
C2604 C 0.51279 0.66659 0.45624 0.0
C2605 C 0.50027 0.65219 0.43286 0.0
C2606 C 0.48461 0.63007 0.44 0.0
C2607 C 0.48225 0.62229 0.46966 0.0
H2608 H 0.29662 0.85666 0.50293 0.0
H2609 H 0.35866 0.86082 0.47893 0.0
H2610 H 0.28301 0.84468 0.45197 0.0
H2611 H 0.34487 0.8485 0.42808 0.0
H2612 H 0.32397 0.85979 0.3333 0.0
H2613 H 0.33689 0.86532 0.3851 0.0
H2614 H 0.27188 0.8149 0.41467 0.0
H2615 H 0.25876 0.80952 0.36267 0.0
C2616 C 0.30726 0.85474 0.48694 0.0
C2617 C 0.32883 0.85992 0.49502 0.0
C2618 C 0.29939 0.84771 0.45774 0.0
C2619 C 0.31289 0.84574 0.4359 0.0
C2620 C 0.33416 0.85015 0.44427 0.0
C2621 C 0.34202 0.85712 0.47348 0.0
C2622 C 0.31245 0.84966 0.35074 0.0
C2623 C 0.29026 0.83432 0.34379 0.0
C2624 C 0.31992 0.85275 0.38048 0.0
C2625 C 0.30539 0.84064 0.40407 0.0
C2626 C 0.28341 0.82469 0.39704 0.0
C2627 C 0.27594 0.82151 0.36721 0.0
H2628 H 0.28654 0.26553 0.10335 0.0
H2629 H 0.22734 0.26443 0.07171 0.0
H2630 H 0.30537 0.30572 0.10638 0.0
H2631 H 0.2465 0.30482 0.07368 0.0
H2632 H 0.28285 0.37614 0.11051 0.0
H2633 H 0.26219 0.3357 0.10846 0.0
H2634 H 0.31969 0.33602 0.07133 0.0
H2635 H 0.34048 0.3762 0.07441 0.0
C2636 C 0.27761 0.27392 0.09691 0.0
C2637 C 0.25557 0.26196 0.08711 0.0
C2638 C 0.28841 0.29691 0.09848 0.0
C2639 C 0.27746 0.30836 0.08988 0.0
C2640 C 0.25526 0.29638 0.08066 0.0
C2641 C 0.24434 0.27331 0.07943 0.0
C2642 C 0.29097 0.36751 0.10178 0.0
C2643 C 0.31328 0.37918 0.09291 0.0
C2644 C 0.27916 0.34442 0.10052 0.0
C2645 C 0.28945 0.33277 0.09007 0.0
C2646 C 0.31152 0.34456 0.08021 0.0
C2647 C 0.32338 0.36755 0.08181 0.0
H2648 H 0.60067 0.94618 0.13688 0.0
H2649 H 0.58756 0.89021 0.08075 0.0
H2650 H 0.64028 0.96009 0.13247 0.0
H2651 H 0.62756 0.90453 0.07618 0.0
H2652 H 0.69498 -0.00654 0.05994 0.0
H2653 H 0.65552 0.96837 0.06736 0.0
H2654 H 0.6694 0.92516 0.12138 0.0
H2655 H 0.70932 0.9503 0.11383 0.0
C2656 C 0.60627 0.93663 0.12417 0.0
C2657 C 0.59124 0.91745 0.1086 0.0
C2658 C 0.62882 0.94447 0.12189 0.0
C2659 C 0.63658 0.93331 0.1039 0.0
C2660 C 0.62166 0.91316 0.09033 0.0
C2661 C 0.59894 0.90512 0.09285 0.0
C2662 C 0.68967 0.97845 0.07298 0.0
C2663 C 0.70507 0.97396 0.08681 0.0
C2664 C 0.66719 0.96411 0.07703 0.0
C2665 C 0.65983 0.94518 0.09506 0.0
C2666 C 0.675 0.93975 0.10731 0.0
C2667 C 0.69766 0.95409 0.10304 0.0
H2668 H 0.95788 0.68304 0.10268 0.0
H2669 H 0.01527 0.74907 0.10236 0.0
H2670 H -0.01871 0.66766 0.11508 0.0
H2671 H 0.03874 0.73348 0.11532 0.0
H2672 H 0.06766 0.6868 0.08614 0.0
H2673 H 0.05021 0.7097 0.08756 0.0
H2674 H 0.00466 0.66661 0.15578 0.0
H2675 H 0.02159 0.6434 0.1536 0.0
C2676 C 0.97544 0.69428 0.10551 0.0
C2677 C -0.01527 0.71721 0.10132 0.0
C2678 C -0.01115 0.68552 0.11299 0.0
C2679 C 0.01177 0.69948 0.11649 0.0
C2680 C 0.0211 0.72244 0.11274 0.0
C2681 C 0.00765 0.73126 0.1053 0.0
C2682 C 0.05431 0.68265 0.10197 0.0
C2683 C 0.04546 0.66312 0.11913 0.0
C2684 C 0.04442 0.69577 0.10291 0.0
C2685 C 0.02581 0.68954 0.12129 0.0
C2686 C 0.01865 0.67139 0.1409 0.0
C2687 C 0.0283 0.65815 0.13964 0.0
H2688 H 0.36208 0.34064 0.44081 0.0
H2689 H 0.37073 0.28326 0.43887 0.0
H2690 H 0.32294 0.31677 0.45028 0.0
H2691 H 0.33124 0.25925 0.44896 0.0
H2692 H 0.257 0.27525 0.48348 0.0
H2693 H 0.29696 0.29211 0.48841 0.0
H2694 H 0.29703 0.24863 0.41908 0.0
H2695 H 0.25674 0.23112 0.41506 0.0
C2696 C 0.35567 0.32295 0.44273 0.0
C2697 C 0.36944 0.31382 0.43885 0.0
C2698 C 0.33327 0.30927 0.44852 0.0
C2699 C 0.32417 0.28619 0.45065 0.0
C2700 C 0.33793 0.27701 0.44738 0.0
C2701 C 0.36046 0.29075 0.44162 0.0
C2702 C 0.26556 0.26899 0.46982 0.0
C2703 C 0.25413 0.25238 0.44836 0.0
C2704 C 0.28833 0.27858 0.47265 0.0
C2705 C 0.30003 0.27201 0.45359 0.0
C2706 C 0.28834 0.25396 0.43405 0.0
C2707 C 0.26539 0.24406 0.4316 0.0
H2708 H 0.68583 0.9736 0.38734 0.0
H2709 H 0.73717 0.02445 0.44238 0.0
H2710 H 0.66817 -0.00402 0.38256 0.0
H2711 H 0.71897 0.04665 0.43841 0.0
H2712 H 0.68265 0.08429 0.40824 0.0
H2713 H 0.70574 0.067 0.4048 0.0
H2714 H 0.64828 0.00298 0.42281 0.0
H2715 H 0.62536 0.01987 0.42575 0.0
C2716 C 0.6934 -0.01034 0.39822 0.0
C2717 C 0.71251 -0.00284 0.41578 0.0
C2718 C 0.68332 0.00244 0.39549 0.0
C2719 C 0.69197 0.02273 0.41073 0.0
C2720 C 0.71201 0.03103 0.42648 0.0
C2721 C 0.72232 0.01832 0.42887 0.0
C2722 C 0.67504 0.06654 0.41151 0.0
C2723 C 0.65218 0.05339 0.41696 0.0
C2724 C 0.68822 0.05671 0.40952 0.0
C2725 C 0.67865 0.03366 0.41293 0.0
C2726 C 0.65595 0.02071 0.4192 0.0
C2727 C 0.64286 0.03044 0.42111 0.0
H2728 H 0.94584 0.70798 0.43886 0.0
H2729 H -0.0005 0.70176 0.40052 0.0
H2730 H 0.92332 0.66754 0.44219 0.0
H2731 H 0.97697 0.66168 0.40325 0.0
H2732 H 0.94561 0.5958 0.44763 0.0
H2733 H 0.96424 0.63603 0.44642 0.0
H2734 H 0.90514 0.633 0.41068 0.0
H2735 H 0.88615 0.59249 0.41255 0.0
C2736 C 0.95265 0.69798 0.43072 0.0
C2737 C 0.97449 0.70791 0.41989 0.0
C2738 C 0.9398 0.67493 0.43262 0.0
C2739 C 0.94866 0.66166 0.42359 0.0
C2740 C 0.97002 0.67162 0.41118 0.0
C2741 C -0.01715 0.69453 0.40947 0.0
C2742 C 0.93651 0.6037 0.43977 0.0
C2743 C 0.91459 0.59111 0.42971 0.0
C2744 C 0.94719 0.62668 0.43897 0.0
C2745 C 0.93622 0.63748 0.4278 0.0
C2746 C 0.91391 0.62498 0.41932 0.0
C2747 C 0.90311 0.60187 0.42036 0.0
H2748 H 0.66052 0.60397 0.93521 0.0
H2749 H 0.60144 0.60217 0.90149 0.0
H2750 H 0.68005 0.64422 0.93357 0.0
H2751 H 0.62127 0.6426 0.89914 0.0
H2752 H 0.71592 0.71289 0.89506 0.0
H2753 H 0.69419 0.67262 0.89478 0.0
H2754 H 0.63819 0.67538 0.93143 0.0
H2755 H 0.65975 0.71577 0.93096 0.0
C2756 C 0.6517 0.61217 0.92743 0.0
C2757 C 0.62949 0.59993 0.91833 0.0
C2758 C 0.66294 0.63522 0.92628 0.0
C2759 C 0.65225 0.64649 0.9158 0.0
C2760 C 0.62987 0.63431 0.90743 0.0
C2761 C 0.61855 0.61119 0.90875 0.0
C2762 C 0.69892 0.70492 0.90284 0.0
C2763 C 0.68959 0.71745 0.91329 0.0
C2764 C 0.68653 0.68187 0.90284 0.0
C2765 C 0.66463 0.67091 0.91353 0.0
C2766 C 0.65501 0.68342 0.92294 0.0
C2767 C 0.66737 0.70653 0.92274 0.0
H2768 H 0.26226 0.93979 0.92455 0.0
H2769 H 0.26942 0.00415 0.90634 0.0
H2770 H 0.30229 0.95685 0.92916 0.0
H2771 H 0.30941 0.02104 0.91022 0.0
H2772 H 0.37531 0.04837 0.95402 0.0
H2773 H 0.33512 0.02813 0.95149 0.0
H2774 H 0.337 0.97632 0.90037 0.0
H2775 H 0.3774 -0.00359 0.90356 0.0
C2776 C 0.27238 0.95752 0.92109 0.0
C2777 C 0.26269 0.97069 0.91538 0.0
C2778 C 0.29529 0.96725 0.9237 0.0
C2779 C 0.30888 -0.00972 0.92055 0.0
C2780 C 0.29925 0.00329 0.91353 0.0
C2781 C 0.27637 -0.0064 0.91106 0.0
C2782 C 0.36713 0.0325 0.94263 0.0
C2783 C 0.37941 0.02404 0.92868 0.0
C2784 C 0.34415 0.02101 0.94096 0.0
C2785 C 0.33302 0.00096 0.92509 0.0
C2786 C 0.3452 -0.00821 0.91271 0.0
C2787 C 0.36828 0.00324 0.91458 0.0
H2788 H 0.97483 0.37582 0.91954 0.0
H2789 H 0.92165 0.31599 0.95909 0.0
H2790 H -0.00328 0.35745 0.91383 0.0
H2791 H 0.94357 0.29792 0.95385 0.0
H2792 H 0.97209 0.26283 0.90359 0.0
H2793 H 0.95434 0.2851 0.90836 0.0
H2794 H 0.01532 0.33992 0.94195 0.0
H2795 H 0.03335 0.31775 0.93669 0.0
C2796 C 0.96804 0.35896 0.92764 0.0
C2797 C 0.94643 0.34718 0.93933 0.0
C2798 C -0.01947 0.34847 0.92429 0.0
C2799 C 0.97155 0.32614 0.93269 0.0
C2800 C 0.95059 0.31496 0.94636 0.0
C2801 C 0.93813 0.32535 0.94957 0.0
C2802 C -0.01817 0.27973 0.91158 0.0
C2803 C 0.004 0.28843 0.92018 0.0
C2804 C 0.97162 0.29241 0.91452 0.0
C2805 C -0.01665 0.31399 0.92626 0.0
C2806 C 0.00592 0.32328 0.93298 0.0
C2807 C 0.0162 0.31058 0.92992 0.0
H2808 H 0.69896 0.66979 0.60115 0.0
H2809 H 0.70225 0.7291 0.56505 0.0
H2810 H 0.65872 0.65048 0.59769 0.0
H2811 H 0.66221 0.70959 0.5602 0.0
H2812 H 0.59015 0.67609 0.58934 0.0
H2813 H 0.63025 0.69536 0.59048 0.0
H2814 H 0.62916 0.63538 0.56226 0.0
H2815 H 0.5888 0.61575 0.5625 0.0
C2816 C 0.69105 0.67863 0.59234 0.0
C2817 C 0.70363 0.70095 0.58359 0.0
C2818 C 0.66805 0.66754 0.59008 0.0
C2819 C 0.65729 0.67849 0.57856 0.0
C2820 C 0.66997 0.70079 0.56965 0.0
C2821 C 0.6929 0.71197 0.57238 0.0
C2822 C 0.59846 0.66706 0.58307 0.0
C2823 C 0.58639 0.64441 0.57594 0.0
C2824 C 0.62147 0.67813 0.58362 0.0
C2825 C 0.63289 0.66688 0.57657 0.0
C2826 C 0.62081 0.64438 0.5684 0.0
C2827 C 0.59773 0.63319 0.56829 0.0
H2828 H 0.35247 0.97499 0.56835 0.0
H2829 H 0.29235 0.91642 0.59696 0.0
H2830 H 0.33281 -0.00425 0.5669 0.0
H2831 H 0.27305 0.93727 0.59689 0.0
H2832 H 0.23856 0.97316 0.56467 0.0
H2833 H 0.25898 0.95341 0.56335 0.0
H2834 H 0.3166 0.01108 0.5994 0.0
H2835 H 0.29634 0.03126 0.59932 0.0
C2836 C 0.33509 0.96661 0.57443 0.0
C2837 C 0.32387 0.94409 0.58258 0.0
C2838 C 0.32388 0.97851 0.57382 0.0
C2839 C 0.30137 0.96814 0.58175 0.0
C2840 C 0.29026 0.94563 0.59003 0.0
C2841 C 0.30134 0.93369 0.59019 0.0
C2842 C 0.25557 0.9816 0.57241 0.0
C2843 C 0.26586 0.00367 0.58229 0.0
C2844 C 0.26726 0.97026 0.57175 0.0
C2845 C 0.28936 0.98062 0.58148 0.0
C2846 C 0.29968 0.00274 0.59137 0.0
C2847 C 0.28806 0.01423 0.59156 0.0
H2848 H -0.0105 0.37073 0.58298 0.0
H2849 H 0.04868 0.37036 0.61098 0.0
H2850 H 0.96943 0.33021 0.58169 0.0
H2851 H 0.02855 0.33019 0.6112 0.0
H2852 H -0.00504 0.26044 0.57746 0.0
H2853 H 0.01352 0.30059 0.57704 0.0
H2854 H 0.9546 0.29797 0.61308 0.0
H2855 H 0.9356 0.25749 0.61201 0.0
C2856 C -0.00187 0.36196 0.58901 0.0
C2857 C 0.02066 0.3736 0.59673 0.0
C2858 C -0.01336 0.33881 0.5885 0.0
C2859 C -0.00256 0.32699 0.59616 0.0
C2860 C 0.01988 0.33876 0.60442 0.0
C2861 C 0.03141 0.3618 0.60441 0.0
C2862 C -0.01401 0.26843 0.58541 0.0
C2863 C 0.96392 0.25592 0.59499 0.0
C2864 C -0.00335 0.29146 0.58528 0.0
C2865 C -0.01439 0.30249 0.59531 0.0
C2866 C 0.96347 0.28995 0.60487 0.0
C2867 C 0.95264 0.26682 0.60449 0.0
H2868 H 0.92227 0.61848 0.7241 0.0
H2869 H 0.92274 0.56381 0.7698 0.0
H2870 H 0.96231 0.63708 0.71883 0.0
H2871 H 0.963 0.58287 0.76562 0.0
H2872 H 0.03562 0.61929 0.73536 0.0
H2873 H -0.00473 0.59723 0.73244 0.0
H2874 H -0.00911 0.65515 0.7561 0.0
H2875 H 0.03087 0.67717 0.75811 0.0
C2876 C 0.93098 0.61045 0.73293 0.0
C2877 C 0.9196 0.58997 0.74781 0.0
C2878 C 0.95385 0.62109 0.72999 0.0
C2879 C 0.96572 0.6116 0.74238 0.0
C2880 C 0.95422 0.5905 0.75577 0.0
C2881 C 0.93124 0.57967 0.7583 0.0
C2882 C 0.02596 0.62722 0.73997 0.0
C2883 C 0.0363 0.64993 0.74679 0.0
C2884 C 0.00294 0.61463 0.73829 0.0
C2885 C -0.00996 0.62459 0.74361 0.0
C2886 C 0.00045 0.64718 0.75105 0.0
C2887 C 0.02334 0.65975 0.75246 0.0
H2888 H 0.40484 0.3555 0.77663 0.0
H2889 H 0.36163 0.31071 0.7083 0.0
H2890 H 0.38706 0.37802 0.77112 0.0
H2891 H 0.34462 0.33361 0.70176 0.0
H2892 H 0.29514 0.34991 0.7438 0.0
H2893 H 0.3196 0.33498 0.73904 0.0
H2894 H 0.37635 0.40125 0.73958 0.0
H2895 H 0.35159 0.41653 0.74493 0.0
C2896 C 0.39202 0.35093 0.75982 0.0
C2897 C 0.38404 0.33119 0.74345 0.0
C2898 C 0.38199 0.36384 0.75651 0.0
C2899 C 0.36417 0.35718 0.73651 0.0
C2900 C 0.35794 0.33872 0.7179 0.0
C2901 C 0.36761 0.32564 0.72163 0.0
C2902 C 0.31279 0.36142 0.74279 0.0
C2903 C 0.32143 0.38441 0.7447 0.0
C2904 C 0.32682 0.35284 0.73972 0.0
C2905 C 0.34982 0.36702 0.73833 0.0
C2906 C 0.35863 0.39004 0.74046 0.0
C2907 C 0.34449 0.39871 0.74355 0.0
H2908 H 0.66779 0.03809 0.77377 0.0
H2909 H 0.61179 0.04887 0.77418 0.0
H2910 H 0.64303 -0.00135 0.77776 0.0
H2911 H 0.58674 0.00884 0.77896 0.0
H2912 H 0.55662 0.93594 0.73887 0.0
H2913 H 0.57527 0.97607 0.74659 0.0
H2914 H 0.618 0.9709 0.81277 0.0
H2915 H 0.60017 0.93115 0.80376 0.0
C2916 C 0.65017 0.03205 0.77504 0.0
C2917 C 0.64173 0.04657 0.77359 0.0
C2918 C 0.63596 0.00941 0.77769 0.0
C2919 C 0.61299 0.00075 0.7792 0.0
C2920 C 0.60442 0.01518 0.77788 0.0
C2921 C 0.61873 0.038 0.7751 0.0
C2922 C 0.56975 0.94347 0.75541 0.0
C2923 C 0.57754 0.93089 0.77013 0.0
C2924 C 0.58027 0.96631 0.76002 0.0
C2925 C 0.59837 0.97655 0.77978 0.0
C2926 C 0.60448 0.96344 0.79679 0.0
C2927 C 0.59436 0.9408 0.79165 0.0
H2928 H 0.38529 0.03605 0.2702 0.0
H2929 H 0.32688 0.03574 0.23697 0.0
H2930 H 0.36503 -0.0042 0.27209 0.0
H2931 H 0.30679 -0.00469 0.23748 0.0
H2932 H 0.27105 0.92377 0.26937 0.0
H2933 H 0.29107 0.96421 0.27068 0.0
H2934 H 0.35025 0.96499 0.23962 0.0
H2935 H 0.33059 0.92478 0.23967 0.0
C2936 C 0.36819 0.02733 0.26289 0.0
C2937 C 0.35766 0.03897 0.25333 0.0
C2938 C 0.35658 0.00426 0.26388 0.0
C2939 C 0.33431 -0.00766 0.25485 0.0
C2940 C 0.32382 0.00402 0.24508 0.0
C2941 C 0.33536 0.02714 0.24454 0.0
C2942 C 0.28838 0.93265 0.26307 0.0
C2943 C 0.2993 0.92118 0.25454 0.0
C2944 C 0.2998 0.95578 0.26359 0.0
C2945 C 0.32224 0.96781 0.25519 0.0
C2946 C 0.3331 0.95625 0.24678 0.0
C2947 C 0.3218 0.93318 0.24669 0.0
H2948 H 0.92538 0.32377 0.30032 0.0
H2949 H 0.92801 0.27404 0.24531 0.0
H2950 H 0.96531 0.34324 0.30553 0.0
H2951 H 0.96852 0.29432 0.24917 0.0
H2952 H 0.04104 0.33014 0.27874 0.0
H2953 H 0.00076 0.30691 0.28161 0.0
H2954 H -0.00548 0.36539 0.27212 0.0
H2955 H 0.03431 0.38844 0.27043 0.0
C2956 C 0.93462 0.31714 0.28908 0.0
C2957 C 0.92379 0.29772 0.27186 0.0
C2958 C 0.95747 0.32829 0.29205 0.0
C2959 C 0.97009 0.32057 0.27726 0.0
C2960 C 0.9592 0.30061 0.26094 0.0
C2961 C 0.93612 0.28912 0.25849 0.0
C2962 C 0.031 0.33799 0.27767 0.0
C2963 C 0.04084 0.36112 0.27443 0.0
C2964 C 0.00798 0.32469 0.27909 0.0
C2965 C -0.00551 0.33432 0.27718 0.0
C2966 C 0.00443 0.35746 0.27432 0.0
C2967 C 0.0273 0.3707 0.27318 0.0
H2968 H 0.57713 0.64094 0.24297 0.0
H2969 H 0.6358 0.70115 0.27074 0.0
H2970 H 0.59743 0.62121 0.24453 0.0
H2971 H 0.65609 0.68097 0.27367 0.0
H2972 H 0.68993 0.64198 0.24179 0.0
H2973 H 0.67108 0.66359 0.24224 0.0
H2974 H 0.61268 0.60715 0.27945 0.0
H2975 H 0.63106 0.58542 0.27752 0.0
C2976 C 0.59432 0.64989 0.2499 0.0
C2977 C 0.60488 0.67255 0.2569 0.0
C2978 C 0.60594 0.63853 0.25095 0.0
C2979 C 0.62831 0.64946 0.25954 0.0
C2980 C 0.63891 0.67216 0.26668 0.0
C2981 C 0.6273 0.68367 0.26519 0.0
C2982 C 0.67304 0.63428 0.24997 0.0
C2983 C 0.66178 0.61199 0.25916 0.0
C2984 C 0.66233 0.64667 0.25048 0.0
C2985 C 0.64033 0.63701 0.26063 0.0
C2986 C 0.62942 0.61491 0.27076 0.0
C2987 C 0.63996 0.60246 0.26972 0.0
loop_
_geom_bond_atom_site_label_1
_geom_bond_atom_site_label_2
_geom_bond_distance
_geom_bond_site_symmetry_2
_ccdc_geom_bond_type
O0 Zn1 1.953 . S
O0 C16 1.225 . S
Zn1 O0 1.953 . S
Zn1 O2 1.949 . S
Zn1 O8 1.919 . S
Zn1 O13 1.924 . S
O2 Zn1 1.949 . S
O2 Zn3 1.923 . S
O2 Zn4 1.950 . S
O2 Zn5 1.945 . S
Zn3 O2 1.923 . S
Zn3 O6 1.933 . S
Zn3 O9 1.941 . S
Zn3 O10 1.965 . S
Zn4 O2 1.950 . S
Zn4 O11 1.938 . S
Zn4 O12 1.906 . S
Zn4 O22 1.951 1_554 S
Zn5 O2 1.945 . S
Zn5 O7 1.932 . S
Zn5 O14 1.977 . S
Zn5 O15 1.910 . S
O6 Zn3 1.933 . S
O6 C17 1.226 . S
O7 Zn5 1.932 . S
O7 C17 1.307 . S
O8 Zn1 1.919 . S
O8 C19 1.253 . S
O9 Zn3 1.941 . S
O9 C19 1.283 . S
O10 Zn3 1.965 . S
O10 C18 1.303 . S
O11 Zn4 1.938 . S
O11 C18 1.247 . S
O12 Zn4 1.906 . S
O12 C20 1.304 . S
O13 Zn1 1.924 . S
O13 C21 1.311 . S
O14 Zn5 1.977 . S
O14 C20 1.272 . S
O15 Zn5 1.910 . S
O15 C21 1.231 . S
C16 O0 1.225 . S
C16 O22 1.298 1_554 S
C17 O6 1.226 . S
C17 O7 1.307 . S
C18 O10 1.303 . S
C18 O11 1.247 . S
C19 O8 1.253 . S
C19 O9 1.283 . S
C20 O12 1.304 . S
C20 O14 1.272 . S
C21 O13 1.311 . S
C21 O15 1.231 . S
O22 Zn4 1.951 1_556 S
O22 C16 1.298 1_556 S
O23 Zn24 1.953 . S
O23 C39 1.225 . S
Zn24 O23 1.953 . S
Zn24 O25 1.949 . S
Zn24 O31 1.919 . S
Zn24 O36 1.924 . S
O25 Zn24 1.949 . S
O25 Zn26 1.923 . S
O25 Zn27 1.950 . S
O25 Zn28 1.945 . S
Zn26 O25 1.923 . S
Zn26 O29 1.933 . S
Zn26 O32 1.941 . S
Zn26 O33 1.965 . S
Zn27 O25 1.950 . S
Zn27 O34 1.938 . S
Zn27 O35 1.906 . S
Zn27 O45 1.951 1_554 S
Zn28 O25 1.945 . S
Zn28 O30 1.932 . S
Zn28 O37 1.977 1_545 S
Zn28 O38 1.910 . S
O29 Zn26 1.933 . S
O29 C40 1.226 . S
O30 Zn28 1.932 . S
O30 C40 1.307 . S
O31 Zn24 1.919 . S
O31 C42 1.253 . S
O32 Zn26 1.941 . S
O32 C42 1.283 . S
O33 Zn26 1.965 . S
O33 C41 1.303 . S
O34 Zn27 1.938 . S
O34 C41 1.247 . S
O35 Zn27 1.906 . S
O35 C43 1.285 1_545 S
O36 Zn24 1.924 . S
O36 C44 1.311 . S
O37 Zn28 1.977 1_565 S
O37 C43 1.262 . S
O38 Zn28 1.910 . S
O38 C44 1.231 . S
C39 O23 1.225 . S
C39 O45 1.298 1_554 S
C40 O29 1.226 . S
C40 O30 1.307 . S
C41 O33 1.303 . S
C41 O34 1.247 . S
C42 O31 1.253 . S
C42 O32 1.283 . S
C43 O35 1.285 1_565 S
C43 O37 1.262 . S
C44 O36 1.311 . S
C44 O38 1.231 . S
O45 Zn27 1.951 1_556 S
O45 C39 1.298 1_556 S
O46 Zn47 1.953 . S
O46 C62 1.225 . S
Zn47 O46 1.953 . S
Zn47 O48 1.949 . S
Zn47 O54 1.919 . S
Zn47 O59 1.924 . S
O48 Zn47 1.949 . S
O48 Zn49 1.923 . S
O48 Zn50 1.950 . S
O48 Zn51 1.945 . S
Zn49 O48 1.923 . S
Zn49 O52 1.933 . S
Zn49 O55 1.941 . S
Zn49 O56 1.965 . S
Zn50 O48 1.950 . S
Zn50 O57 1.938 . S
Zn50 O58 1.906 . S
Zn50 O68 1.951 1_554 S
Zn51 O48 1.945 . S
Zn51 O53 1.932 . S
Zn51 O60 1.977 1_655 S
Zn51 O61 1.910 . S
O52 Zn49 1.933 . S
O52 C63 1.226 . S
O53 Zn51 1.932 . S
O53 C63 1.307 . S
O54 Zn47 1.919 . S
O54 C65 1.253 . S
O55 Zn49 1.941 . S
O55 C65 1.283 . S
O56 Zn49 1.965 . S
O56 C64 1.303 . S
O57 Zn50 1.938 . S
O57 C64 1.247 . S
O58 Zn50 1.906 . S
O58 C66 1.281 1_655 S
O59 Zn47 1.924 . S
O59 C67 1.311 . S
O60 Zn51 1.977 1_455 S
O60 C66 1.284 . S
O61 Zn51 1.910 . S
O61 C67 1.231 . S
C62 O46 1.225 . S
C62 O68 1.298 1_554 S
C63 O52 1.226 . S
C63 O53 1.307 . S
C64 O56 1.303 . S
C64 O57 1.247 . S
C65 O54 1.253 . S
C65 O55 1.283 . S
C66 O58 1.281 1_455 S
C66 O60 1.284 . S
C67 O59 1.311 . S
C67 O61 1.231 . S
O68 Zn50 1.951 1_556 S
O68 C62 1.298 1_556 S
O69 Zn70 1.953 . S
O69 C85 1.225 . S
Zn70 O69 1.953 . S
Zn70 O71 1.949 . S
Zn70 O77 1.919 . S
Zn70 O82 1.924 . S
O71 Zn70 1.949 . S
O71 Zn72 1.923 . S
O71 Zn73 1.950 . S
O71 Zn74 1.945 . S
Zn72 O71 1.923 . S
Zn72 O75 1.933 . S
Zn72 O78 1.941 . S
Zn72 O79 1.965 . S
Zn73 O71 1.950 . S
Zn73 O80 1.938 . S
Zn73 O81 1.906 . S
Zn73 O91 1.953 . S
Zn74 O71 1.945 . S
Zn74 O76 1.932 . S
Zn74 O83 1.977 . S
Zn74 O84 1.910 . S
O75 Zn72 1.933 . S
O75 C86 1.226 . S
O76 Zn74 1.932 . S
O76 C86 1.307 . S
O77 Zn70 1.919 . S
O77 C88 1.253 . S
O78 Zn72 1.941 . S
O78 C88 1.283 . S
O79 Zn72 1.965 . S
O79 C87 1.303 . S
O80 Zn73 1.938 . S
O80 C87 1.247 . S
O81 Zn73 1.906 . S
O81 C89 1.304 . S
O82 Zn70 1.924 . S
O82 C90 1.311 . S
O83 Zn74 1.977 . S
O83 C89 1.272 . S
O84 Zn74 1.910 . S
O84 C90 1.231 . S
C85 O69 1.225 . S
C85 O91 1.298 . S
C86 O75 1.226 . S
C86 O76 1.307 . S
C87 O79 1.303 . S
C87 O80 1.247 . S
C88 O77 1.253 . S
C88 O78 1.283 . S
C89 O81 1.304 . S
C89 O83 1.272 . S
C90 O82 1.311 . S
C90 O84 1.231 . S
O91 Zn73 1.953 . S
O91 C85 1.298 . S
O92 Zn93 1.953 . S
O92 C108 1.225 . S
Zn93 O92 1.953 . S
Zn93 O94 1.949 . S
Zn93 O100 1.919 . S
Zn93 O105 1.924 . S
O94 Zn93 1.949 . S
O94 Zn95 1.923 . S
O94 Zn96 1.950 . S
O94 Zn97 1.945 . S
Zn95 O94 1.923 . S
Zn95 O98 1.933 . S
Zn95 O101 1.941 . S
Zn95 O102 1.965 . S
Zn96 O94 1.950 . S
Zn96 O103 1.938 . S
Zn96 O104 1.906 . S
Zn96 O114 1.953 . S
Zn97 O94 1.945 . S
Zn97 O99 1.932 . S
Zn97 O106 1.977 1_565 S
Zn97 O107 1.910 . S
O98 Zn95 1.933 . S
O98 C109 1.226 . S
O99 Zn97 1.932 . S
O99 C109 1.307 . S
O100 Zn93 1.919 . S
O100 C111 1.253 . S
O101 Zn95 1.941 . S
O101 C111 1.283 . S
O102 Zn95 1.965 . S
O102 C110 1.303 . S
O103 Zn96 1.938 . S
O103 C110 1.247 . S
O104 Zn96 1.906 . S
O104 C112 1.281 1_565 S
O105 Zn93 1.924 . S
O105 C113 1.311 . S
O106 Zn97 1.977 1_545 S
O106 C112 1.284 . S
O107 Zn97 1.910 . S
O107 C113 1.231 . S
C108 O92 1.225 . S
C108 O114 1.298 . S
C109 O98 1.226 . S
C109 O99 1.307 . S
C110 O102 1.303 . S
C110 O103 1.247 . S
C111 O100 1.253 . S
C111 O101 1.283 . S
C112 O104 1.281 1_545 S
C112 O106 1.284 . S
C113 O105 1.311 . S
C113 O107 1.231 . S
O114 Zn96 1.953 . S
O114 C108 1.298 . S
O115 Zn116 1.953 . S
O115 C131 1.225 . S
Zn116 O115 1.953 . S
Zn116 O117 1.949 . S
Zn116 O123 1.919 . S
Zn116 O128 1.924 . S
O117 Zn116 1.949 . S
O117 Zn118 1.923 . S
O117 Zn119 1.950 . S
O117 Zn120 1.945 . S
Zn118 O117 1.923 . S
Zn118 O121 1.933 . S
Zn118 O124 1.941 . S
Zn118 O125 1.965 . S
Zn119 O117 1.950 . S
Zn119 O126 1.938 . S
Zn119 O127 1.906 . S
Zn119 O137 1.953 . S
Zn120 O117 1.945 . S
Zn120 O122 1.932 . S
Zn120 O129 1.977 1_455 S
Zn120 O130 1.910 . S
O121 Zn118 1.933 . S
O121 C132 1.226 . S
O122 Zn120 1.932 . S
O122 C132 1.307 . S
O123 Zn116 1.919 . S
O123 C134 1.253 . S
O124 Zn118 1.941 . S
O124 C134 1.283 . S
O125 Zn118 1.965 . S
O125 C133 1.303 . S
O126 Zn119 1.938 . S
O126 C133 1.247 . S
O127 Zn119 1.906 . S
O127 C135 1.285 1_455 S
O128 Zn116 1.924 . S
O128 C136 1.311 . S
O129 Zn120 1.977 1_655 S
O129 C135 1.262 . S
O130 Zn120 1.910 . S
O130 C136 1.231 . S
C131 O115 1.225 . S
C131 O137 1.298 . S
C132 O121 1.226 . S
C132 O122 1.307 . S
C133 O125 1.303 . S
C133 O126 1.247 . S
C134 O123 1.253 . S
C134 O124 1.283 . S
C135 O127 1.285 1_655 S
C135 O129 1.262 . S
C136 O128 1.311 . S
C136 O130 1.231 . S
O137 Zn119 1.953 . S
O137 C131 1.298 . S
O138 Zn139 1.953 . S
O138 C154 1.225 . S
Zn139 O138 1.953 . S
Zn139 O140 1.949 . S
Zn139 O146 1.919 . S
Zn139 O151 1.924 . S
O140 Zn139 1.949 . S
O140 Zn141 1.923 . S
O140 Zn142 1.950 . S
O140 Zn143 1.945 . S
Zn141 O140 1.923 . S
Zn141 O144 1.933 . S
Zn141 O147 1.941 . S
Zn141 O148 1.965 . S
Zn142 O140 1.950 . S
Zn142 O149 1.938 . S
Zn142 O150 1.906 . S
Zn142 O160 1.951 1_556 S
Zn143 O140 1.945 . S
Zn143 O145 1.932 . S
Zn143 O152 1.977 . S
Zn143 O153 1.910 . S
O144 Zn141 1.933 . S
O144 C155 1.226 . S
O145 Zn143 1.932 . S
O145 C155 1.307 . S
O146 Zn139 1.919 . S
O146 C157 1.253 . S
O147 Zn141 1.941 . S
O147 C157 1.283 . S
O148 Zn141 1.965 . S
O148 C156 1.303 . S
O149 Zn142 1.938 . S
O149 C156 1.247 . S
O150 Zn142 1.906 . S
O150 C158 1.304 . S
O151 Zn139 1.924 . S
O151 C159 1.311 . S
O152 Zn143 1.977 . S
O152 C158 1.272 . S
O153 Zn143 1.910 . S
O153 C159 1.231 . S
C154 O138 1.225 . S
C154 O160 1.298 1_556 S
C155 O144 1.226 . S
C155 O145 1.307 . S
C156 O148 1.303 . S
C156 O149 1.247 . S
C157 O146 1.253 . S
C157 O147 1.283 . S
C158 O150 1.304 . S
C158 O152 1.272 . S
C159 O151 1.311 . S
C159 O153 1.231 . S
O160 Zn142 1.951 1_554 S
O160 C154 1.298 1_554 S
O161 Zn162 1.953 . S
O161 C177 1.225 . S
Zn162 O161 1.953 . S
Zn162 O163 1.949 . S
Zn162 O169 1.919 . S
Zn162 O174 1.924 . S
O163 Zn162 1.949 . S
O163 Zn164 1.923 . S
O163 Zn165 1.950 . S
O163 Zn166 1.945 . S
Zn164 O163 1.923 . S
Zn164 O167 1.933 . S
Zn164 O170 1.941 . S
Zn164 O171 1.965 . S
Zn165 O163 1.950 . S
Zn165 O172 1.938 . S
Zn165 O173 1.906 . S
Zn165 O183 1.951 1_556 S
Zn166 O163 1.945 . S
Zn166 O168 1.932 . S
Zn166 O175 1.977 1_565 S
Zn166 O176 1.910 . S
O167 Zn164 1.933 . S
O167 C178 1.226 . S
O168 Zn166 1.932 . S
O168 C178 1.307 . S
O169 Zn162 1.919 . S
O169 C180 1.253 . S
O170 Zn164 1.941 . S
O170 C180 1.283 . S
O171 Zn164 1.965 . S
O171 C179 1.303 . S
O172 Zn165 1.938 . S
O172 C179 1.247 . S
O173 Zn165 1.906 . S
O173 C181 1.285 1_565 S
O174 Zn162 1.924 . S
O174 C182 1.311 . S
O175 Zn166 1.977 1_545 S
O175 C181 1.262 . S
O176 Zn166 1.910 . S
O176 C182 1.231 . S
C177 O161 1.225 . S
C177 O183 1.298 1_556 S
C178 O167 1.226 . S
C178 O168 1.307 . S
C179 O171 1.303 . S
C179 O172 1.247 . S
C180 O169 1.253 . S
C180 O170 1.283 . S
C181 O173 1.285 1_545 S
C181 O175 1.262 . S
C182 O174 1.311 . S
C182 O176 1.231 . S
O183 Zn165 1.951 1_554 S
O183 C177 1.298 1_554 S
O184 Zn185 1.953 . S
O184 C200 1.225 . S
Zn185 O184 1.953 . S
Zn185 O186 1.949 . S
Zn185 O192 1.919 . S
Zn185 O197 1.924 . S
O186 Zn185 1.949 . S
O186 Zn187 1.923 . S
O186 Zn188 1.950 . S
O186 Zn189 1.945 . S
Zn187 O186 1.923 . S
Zn187 O190 1.933 . S
Zn187 O193 1.941 . S
Zn187 O194 1.965 . S
Zn188 O186 1.950 . S
Zn188 O195 1.938 . S
Zn188 O196 1.906 . S
Zn188 O206 1.951 1_556 S
Zn189 O186 1.945 . S
Zn189 O191 1.932 . S
Zn189 O198 1.977 1_455 S
Zn189 O199 1.910 . S
O190 Zn187 1.933 . S
O190 C201 1.226 . S
O191 Zn189 1.932 . S
O191 C201 1.307 . S
O192 Zn185 1.919 . S
O192 C203 1.253 . S
O193 Zn187 1.941 . S
O193 C203 1.283 . S
O194 Zn187 1.965 . S
O194 C202 1.303 . S
O195 Zn188 1.938 . S
O195 C202 1.247 . S
O196 Zn188 1.906 . S
O196 C204 1.281 1_455 S
O197 Zn185 1.924 . S
O197 C205 1.311 . S
O198 Zn189 1.977 1_655 S
O198 C204 1.284 . S
O199 Zn189 1.910 . S
O199 C205 1.231 . S
C200 O184 1.225 . S
C200 O206 1.298 1_556 S
C201 O190 1.226 . S
C201 O191 1.307 . S
C202 O194 1.303 . S
C202 O195 1.247 . S
C203 O192 1.253 . S
C203 O193 1.283 . S
C204 O196 1.281 1_655 S
C204 O198 1.284 . S
C205 O197 1.311 . S
C205 O199 1.231 . S
O206 Zn188 1.951 1_554 S
O206 C200 1.298 1_554 S
O207 Zn208 1.953 . S
O207 C223 1.225 . S
Zn208 O207 1.953 . S
Zn208 O209 1.949 . S
Zn208 O215 1.919 . S
Zn208 O220 1.924 . S
O209 Zn208 1.949 . S
O209 Zn210 1.923 . S
O209 Zn211 1.950 . S
O209 Zn212 1.945 . S
Zn210 O209 1.923 . S
Zn210 O213 1.933 . S
Zn210 O216 1.941 . S
Zn210 O217 1.965 . S
Zn211 O209 1.950 . S
Zn211 O218 1.938 . S
Zn211 O219 1.906 . S
Zn211 O229 1.953 . S
Zn212 O209 1.945 . S
Zn212 O214 1.932 . S
Zn212 O221 1.977 . S
Zn212 O222 1.910 . S
O213 Zn210 1.933 . S
O213 C224 1.226 . S
O214 Zn212 1.932 . S
O214 C224 1.307 . S
O215 Zn208 1.919 . S
O215 C226 1.253 . S
O216 Zn210 1.941 . S
O216 C226 1.283 . S
O217 Zn210 1.965 . S
O217 C225 1.303 . S
O218 Zn211 1.938 . S
O218 C225 1.247 . S
O219 Zn211 1.906 . S
O219 C227 1.304 . S
O220 Zn208 1.924 . S
O220 C228 1.311 . S
O221 Zn212 1.977 . S
O221 C227 1.272 . S
O222 Zn212 1.910 . S
O222 C228 1.231 . S
C223 O207 1.225 . S
C223 O229 1.298 . S
C224 O213 1.226 . S
C224 O214 1.307 . S
C225 O217 1.303 . S
C225 O218 1.247 . S
C226 O215 1.253 . S
C226 O216 1.283 . S
C227 O219 1.304 . S
C227 O221 1.272 . S
C228 O220 1.311 . S
C228 O222 1.231 . S
O229 Zn211 1.953 . S
O229 C223 1.298 . S
O230 Zn231 1.953 . S
O230 C246 1.225 . S
Zn231 O230 1.953 . S
Zn231 O232 1.949 . S
Zn231 O238 1.919 . S
Zn231 O243 1.924 . S
O232 Zn231 1.949 . S
O232 Zn233 1.923 . S
O232 Zn234 1.950 . S
O232 Zn235 1.945 . S
Zn233 O232 1.923 . S
Zn233 O236 1.933 . S
Zn233 O239 1.941 . S
Zn233 O240 1.965 . S
Zn234 O232 1.950 . S
Zn234 O241 1.938 . S
Zn234 O242 1.906 . S
Zn234 O252 1.953 . S
Zn235 O232 1.945 . S
Zn235 O237 1.932 . S
Zn235 O244 1.977 1_545 S
Zn235 O245 1.910 . S
O236 Zn233 1.933 . S
O236 C247 1.226 . S
O237 Zn235 1.932 . S
O237 C247 1.307 . S
O238 Zn231 1.919 . S
O238 C249 1.253 . S
O239 Zn233 1.941 . S
O239 C249 1.283 . S
O240 Zn233 1.965 . S
O240 C248 1.303 . S
O241 Zn234 1.938 . S
O241 C248 1.247 . S
O242 Zn234 1.906 . S
O242 C250 1.281 1_545 S
O243 Zn231 1.924 . S
O243 C251 1.311 . S
O244 Zn235 1.977 1_565 S
O244 C250 1.284 . S
O245 Zn235 1.910 . S
O245 C251 1.231 . S
C246 O230 1.225 . S
C246 O252 1.298 . S
C247 O236 1.226 . S
C247 O237 1.307 . S
C248 O240 1.303 . S
C248 O241 1.247 . S
C249 O238 1.253 . S
C249 O239 1.283 . S
C250 O242 1.281 1_565 S
C250 O244 1.284 . S
C251 O243 1.311 . S
C251 O245 1.231 . S
O252 Zn234 1.953 . S
O252 C246 1.298 . S
O253 Zn254 1.953 . S
O253 C269 1.225 . S
Zn254 O253 1.953 . S
Zn254 O255 1.949 . S
Zn254 O261 1.919 . S
Zn254 O266 1.924 . S
O255 Zn254 1.949 . S
O255 Zn256 1.923 . S
O255 Zn257 1.950 . S
O255 Zn258 1.945 . S
Zn256 O255 1.923 . S
Zn256 O259 1.933 . S
Zn256 O262 1.941 . S
Zn256 O263 1.965 . S
Zn257 O255 1.950 . S
Zn257 O264 1.938 . S
Zn257 O265 1.906 . S
Zn257 O275 1.953 . S
Zn258 O255 1.945 . S
Zn258 O260 1.932 . S
Zn258 O267 1.977 1_655 S
Zn258 O268 1.910 . S
O259 Zn256 1.933 . S
O259 C270 1.226 . S
O260 Zn258 1.932 . S
O260 C270 1.307 . S
O261 Zn254 1.919 . S
O261 C272 1.253 . S
O262 Zn256 1.941 . S
O262 C272 1.283 . S
O263 Zn256 1.965 . S
O263 C271 1.303 . S
O264 Zn257 1.938 . S
O264 C271 1.247 . S
O265 Zn257 1.906 . S
O265 C273 1.285 1_655 S
O266 Zn254 1.924 . S
O266 C274 1.311 . S
O267 Zn258 1.977 1_455 S
O267 C273 1.262 . S
O268 Zn258 1.910 . S
O268 C274 1.231 . S
C269 O253 1.225 . S
C269 O275 1.298 . S
C270 O259 1.226 . S
C270 O260 1.307 . S
C271 O263 1.303 . S
C271 O264 1.247 . S
C272 O261 1.253 . S
C272 O262 1.283 . S
C273 O265 1.285 1_455 S
C273 O267 1.262 . S
C274 O266 1.311 . S
C274 O268 1.231 . S
O275 Zn257 1.953 . S
O275 C269 1.298 . S
O276 Zn277 1.953 . S
O276 C292 1.225 . S
Zn277 O276 1.953 . S
Zn277 O278 1.949 . S
Zn277 O284 1.919 . S
Zn277 O289 1.924 . S
O278 Zn277 1.949 . S
O278 Zn279 1.923 . S
O278 Zn280 1.950 . S
O278 Zn281 1.945 . S
Zn279 O278 1.923 . S
Zn279 O282 1.933 . S
Zn279 O285 1.941 . S
Zn279 O286 1.965 . S
Zn280 O278 1.950 . S
Zn280 O287 1.938 . S
Zn280 O288 1.906 . S
Zn280 O298 1.953 . S
Zn281 O278 1.945 . S
Zn281 O283 1.932 . S
Zn281 O290 1.977 . S
Zn281 O291 1.910 . S
O282 Zn279 1.933 . S
O282 C293 1.226 . S
O283 Zn281 1.932 . S
O283 C293 1.307 . S
O284 Zn277 1.919 . S
O284 C295 1.253 . S
O285 Zn279 1.941 . S
O285 C295 1.283 . S
O286 Zn279 1.965 . S
O286 C294 1.303 . S
O287 Zn280 1.938 . S
O287 C294 1.247 . S
O288 Zn280 1.906 . S
O288 C296 1.304 . S
O289 Zn277 1.924 . S
O289 C297 1.311 . S
O290 Zn281 1.977 . S
O290 C296 1.272 . S
O291 Zn281 1.910 . S
O291 C297 1.231 . S
C292 O276 1.225 . S
C292 O298 1.298 . S
C293 O282 1.226 . S
C293 O283 1.307 . S
C294 O286 1.303 . S
C294 O287 1.247 . S
C295 O284 1.253 . S
C295 O285 1.283 . S
C296 O288 1.304 . S
C296 O290 1.272 . S
C297 O289 1.311 . S
C297 O291 1.231 . S
O298 Zn280 1.953 . S
O298 C292 1.298 . S
O299 Zn300 1.953 . S
O299 C315 1.225 . S
Zn300 O299 1.953 . S
Zn300 O301 1.949 . S
Zn300 O307 1.919 . S
Zn300 O312 1.924 . S
O301 Zn300 1.949 . S
O301 Zn302 1.923 . S
O301 Zn303 1.950 . S
O301 Zn304 1.945 . S
Zn302 O301 1.923 . S
Zn302 O305 1.933 . S
Zn302 O308 1.941 . S
Zn302 O309 1.965 . S
Zn303 O301 1.950 . S
Zn303 O310 1.938 . S
Zn303 O311 1.906 . S
Zn303 O321 1.953 . S
Zn304 O301 1.945 . S
Zn304 O306 1.932 . S
Zn304 O313 1.977 . S
Zn304 O314 1.910 . S
O305 Zn302 1.933 . S
O305 C316 1.226 . S
O306 Zn304 1.932 . S
O306 C316 1.307 . S
O307 Zn300 1.919 . S
O307 C318 1.253 . S
O308 Zn302 1.941 . S
O308 C318 1.283 . S
O309 Zn302 1.965 . S
O309 C317 1.303 . S
O310 Zn303 1.938 . S
O310 C317 1.247 . S
O311 Zn303 1.906 . S
O311 C319 1.304 . S
O312 Zn300 1.924 . S
O312 C320 1.311 . S
O313 Zn304 1.977 . S
O313 C319 1.272 . S
O314 Zn304 1.910 . S
O314 C320 1.231 . S
C315 O299 1.225 . S
C315 O321 1.298 . S
C316 O305 1.226 . S
C316 O306 1.307 . S
C317 O309 1.303 . S
C317 O310 1.247 . S
C318 O307 1.253 . S
C318 O308 1.283 . S
C319 O311 1.304 . S
C319 O313 1.272 . S
C320 O312 1.311 . S
C320 O314 1.231 . S
O321 Zn303 1.953 . S
O321 C315 1.298 . S
O322 Zn323 1.953 . S
O322 C338 1.225 . S
Zn323 O322 1.953 . S
Zn323 O324 1.949 . S
Zn323 O330 1.919 . S
Zn323 O335 1.924 . S
O324 Zn323 1.949 . S
O324 Zn325 1.923 . S
O324 Zn326 1.950 . S
O324 Zn327 1.945 . S
Zn325 O324 1.923 . S
Zn325 O328 1.933 . S
Zn325 O331 1.941 . S
Zn325 O332 1.965 . S
Zn326 O324 1.950 . S
Zn326 O333 1.938 . S
Zn326 O334 1.906 . S
Zn326 O344 1.953 . S
Zn327 O324 1.945 . S
Zn327 O329 1.932 . S
Zn327 O336 1.977 . S
Zn327 O337 1.910 . S
O328 Zn325 1.933 . S
O328 C339 1.226 . S
O329 Zn327 1.932 . S
O329 C339 1.307 . S
O330 Zn323 1.919 . S
O330 C341 1.253 . S
O331 Zn325 1.941 . S
O331 C341 1.283 . S
O332 Zn325 1.965 . S
O332 C340 1.303 . S
O333 Zn326 1.938 . S
O333 C340 1.247 . S
O334 Zn326 1.906 . S
O334 C342 1.304 . S
O335 Zn323 1.924 . S
O335 C343 1.311 . S
O336 Zn327 1.977 . S
O336 C342 1.272 . S
O337 Zn327 1.910 . S
O337 C343 1.231 . S
C338 O322 1.225 . S
C338 O344 1.298 . S
C339 O328 1.226 . S
C339 O329 1.307 . S
C340 O332 1.303 . S
C340 O333 1.247 . S
C341 O330 1.253 . S
C341 O331 1.283 . S
C342 O334 1.304 . S
C342 O336 1.272 . S
C343 O335 1.311 . S
C343 O337 1.231 . S
O344 Zn326 1.953 . S
O344 C338 1.298 . S
O345 Zn346 1.953 . S
O345 C361 1.225 . S
Zn346 O345 1.953 . S
Zn346 O347 1.949 . S
Zn346 O353 1.919 . S
Zn346 O358 1.924 . S
O347 Zn346 1.949 . S
O347 Zn348 1.923 . S
O347 Zn349 1.950 . S
O347 Zn350 1.945 . S
Zn348 O347 1.923 . S
Zn348 O351 1.933 . S
Zn348 O354 1.941 . S
Zn348 O355 1.965 . S
Zn349 O347 1.950 . S
Zn349 O356 1.938 . S
Zn349 O357 1.906 . S
Zn349 O367 1.953 . S
Zn350 O347 1.945 . S
Zn350 O352 1.932 . S
Zn350 O359 1.977 . S
Zn350 O360 1.910 . S
O351 Zn348 1.933 . S
O351 C362 1.226 . S
O352 Zn350 1.932 . S
O352 C362 1.307 . S
O353 Zn346 1.919 . S
O353 C364 1.253 . S
O354 Zn348 1.941 . S
O354 C364 1.283 . S
O355 Zn348 1.965 . S
O355 C363 1.303 . S
O356 Zn349 1.938 . S
O356 C363 1.247 . S
O357 Zn349 1.906 . S
O357 C365 1.304 . S
O358 Zn346 1.924 . S
O358 C366 1.311 . S
O359 Zn350 1.977 . S
O359 C365 1.272 . S
O360 Zn350 1.910 . S
O360 C366 1.231 . S
C361 O345 1.225 . S
C361 O367 1.298 . S
C362 O351 1.226 . S
C362 O352 1.307 . S
C363 O355 1.303 . S
C363 O356 1.247 . S
C364 O353 1.253 . S
C364 O354 1.283 . S
C365 O357 1.304 . S
C365 O359 1.272 . S
C366 O358 1.311 . S
C366 O360 1.231 . S
O367 Zn349 1.953 . S
O367 C361 1.298 . S
O368 Zn369 1.953 . S
O368 C384 1.225 . S
Zn369 O368 1.953 . S
Zn369 O370 1.949 . S
Zn369 O376 1.919 . S
Zn369 O381 1.924 . S
O370 Zn369 1.949 . S
O370 Zn371 1.923 . S
O370 Zn372 1.950 . S
O370 Zn373 1.945 . S
Zn371 O370 1.923 . S
Zn371 O374 1.933 . S
Zn371 O377 1.941 . S
Zn371 O378 1.965 . S
Zn372 O370 1.950 . S
Zn372 O379 1.938 . S
Zn372 O380 1.906 . S
Zn372 O390 1.953 . S
Zn373 O370 1.945 . S
Zn373 O375 1.932 . S
Zn373 O382 1.977 . S
Zn373 O383 1.910 . S
O374 Zn371 1.933 . S
O374 C385 1.226 . S
O375 Zn373 1.932 . S
O375 C385 1.307 . S
O376 Zn369 1.919 . S
O376 C387 1.253 . S
O377 Zn371 1.941 . S
O377 C387 1.283 . S
O378 Zn371 1.965 . S
O378 C386 1.303 . S
O379 Zn372 1.938 . S
O379 C386 1.247 . S
O380 Zn372 1.906 . S
O380 C388 1.304 . S
O381 Zn369 1.924 . S
O381 C389 1.311 . S
O382 Zn373 1.977 . S
O382 C388 1.272 . S
O383 Zn373 1.910 . S
O383 C389 1.231 . S
C384 O368 1.225 . S
C384 O390 1.298 . S
C385 O374 1.226 . S
C385 O375 1.307 . S
C386 O378 1.303 . S
C386 O379 1.247 . S
C387 O376 1.253 . S
C387 O377 1.283 . S
C388 O380 1.304 . S
C388 O382 1.272 . S
C389 O381 1.311 . S
C389 O383 1.231 . S
O390 Zn372 1.953 . S
O390 C384 1.298 . S
O391 Zn392 1.953 . S
O391 C407 1.225 . S
Zn392 O391 1.953 . S
Zn392 O393 1.949 . S
Zn392 O399 1.919 . S
Zn392 O404 1.924 . S
O393 Zn392 1.949 . S
O393 Zn394 1.923 . S
O393 Zn395 1.950 . S
O393 Zn396 1.945 . S
Zn394 O393 1.923 . S
Zn394 O397 1.933 . S
Zn394 O400 1.941 . S
Zn394 O401 1.965 . S
Zn395 O393 1.950 . S
Zn395 O402 1.938 . S
Zn395 O403 1.906 . S
Zn395 O413 1.953 . S
Zn396 O393 1.945 . S
Zn396 O398 1.932 . S
Zn396 O405 1.977 . S
Zn396 O406 1.910 . S
O397 Zn394 1.933 . S
O397 C408 1.226 . S
O398 Zn396 1.932 . S
O398 C408 1.307 . S
O399 Zn392 1.919 . S
O399 C410 1.253 . S
O400 Zn394 1.941 . S
O400 C410 1.283 . S
O401 Zn394 1.965 . S
O401 C409 1.303 . S
O402 Zn395 1.938 . S
O402 C409 1.247 . S
O403 Zn395 1.906 . S
O403 C411 1.304 . S
O404 Zn392 1.924 . S
O404 C412 1.311 . S
O405 Zn396 1.977 . S
O405 C411 1.272 . S
O406 Zn396 1.910 . S
O406 C412 1.231 . S
C407 O391 1.225 . S
C407 O413 1.298 . S
C408 O397 1.226 . S
C408 O398 1.307 . S
C409 O401 1.303 . S
C409 O402 1.247 . S
C410 O399 1.253 . S
C410 O400 1.283 . S
C411 O403 1.304 . S
C411 O405 1.272 . S
C412 O404 1.311 . S
C412 O406 1.231 . S
O413 Zn395 1.953 . S
O413 C407 1.298 . S
O414 Zn415 1.953 . S
O414 C430 1.225 . S
Zn415 O414 1.953 . S
Zn415 O416 1.949 . S
Zn415 O422 1.919 . S
Zn415 O427 1.924 . S
O416 Zn415 1.949 . S
O416 Zn417 1.923 . S
O416 Zn418 1.950 . S
O416 Zn419 1.945 . S
Zn417 O416 1.923 . S
Zn417 O420 1.933 . S
Zn417 O423 1.941 . S
Zn417 O424 1.965 . S
Zn418 O416 1.950 . S
Zn418 O425 1.938 . S
Zn418 O426 1.906 . S
Zn418 O436 1.953 . S
Zn419 O416 1.945 . S
Zn419 O421 1.932 . S
Zn419 O428 1.977 . S
Zn419 O429 1.910 . S
O420 Zn417 1.933 . S
O420 C431 1.226 . S
O421 Zn419 1.932 . S
O421 C431 1.307 . S
O422 Zn415 1.919 . S
O422 C433 1.253 . S
O423 Zn417 1.941 . S
O423 C433 1.283 . S
O424 Zn417 1.965 . S
O424 C432 1.303 . S
O425 Zn418 1.938 . S
O425 C432 1.247 . S
O426 Zn418 1.906 . S
O426 C434 1.304 . S
O427 Zn415 1.924 . S
O427 C435 1.311 . S
O428 Zn419 1.977 . S
O428 C434 1.272 . S
O429 Zn419 1.910 . S
O429 C435 1.231 . S
C430 O414 1.225 . S
C430 O436 1.298 . S
C431 O420 1.226 . S
C431 O421 1.307 . S
C432 O424 1.303 . S
C432 O425 1.247 . S
C433 O422 1.253 . S
C433 O423 1.283 . S
C434 O426 1.304 . S
C434 O428 1.272 . S
C435 O427 1.311 . S
C435 O429 1.231 . S
O436 Zn418 1.953 . S
O436 C430 1.298 . S
O437 Zn438 1.953 . S
O437 C453 1.225 . S
Zn438 O437 1.953 . S
Zn438 O439 1.949 . S
Zn438 O445 1.919 . S
Zn438 O450 1.924 . S
O439 Zn438 1.949 . S
O439 Zn440 1.923 . S
O439 Zn441 1.950 . S
O439 Zn442 1.945 . S
Zn440 O439 1.923 . S
Zn440 O443 1.933 . S
Zn440 O446 1.941 . S
Zn440 O447 1.965 . S
Zn441 O439 1.950 . S
Zn441 O448 1.938 . S
Zn441 O449 1.906 . S
Zn441 O459 1.953 . S
Zn442 O439 1.945 . S
Zn442 O444 1.932 . S
Zn442 O451 1.977 . S
Zn442 O452 1.910 . S
O443 Zn440 1.933 . S
O443 C454 1.226 . S
O444 Zn442 1.932 . S
O444 C454 1.307 . S
O445 Zn438 1.919 . S
O445 C456 1.253 . S
O446 Zn440 1.941 . S
O446 C456 1.283 . S
O447 Zn440 1.965 . S
O447 C455 1.303 . S
O448 Zn441 1.938 . S
O448 C455 1.247 . S
O449 Zn441 1.906 . S
O449 C457 1.304 . S
O450 Zn438 1.924 . S
O450 C458 1.311 . S
O451 Zn442 1.977 . S
O451 C457 1.272 . S
O452 Zn442 1.910 . S
O452 C458 1.231 . S
C453 O437 1.225 . S
C453 O459 1.298 . S
C454 O443 1.226 . S
C454 O444 1.307 . S
C455 O447 1.303 . S
C455 O448 1.247 . S
C456 O445 1.253 . S
C456 O446 1.283 . S
C457 O449 1.304 . S
C457 O451 1.272 . S
C458 O450 1.311 . S
C458 O452 1.231 . S
O459 Zn441 1.953 . S
O459 C453 1.298 . S
O460 Zn461 1.953 . S
O460 C476 1.225 . S
Zn461 O460 1.953 . S
Zn461 O462 1.949 . S
Zn461 O468 1.919 . S
Zn461 O473 1.924 . S
O462 Zn461 1.949 . S
O462 Zn463 1.923 . S
O462 Zn464 1.950 . S
O462 Zn465 1.945 . S
Zn463 O462 1.923 . S
Zn463 O466 1.933 . S
Zn463 O469 1.941 . S
Zn463 O470 1.965 . S
Zn464 O462 1.950 . S
Zn464 O471 1.938 . S
Zn464 O472 1.906 . S
Zn464 O482 1.953 . S
Zn465 O462 1.945 . S
Zn465 O467 1.932 . S
Zn465 O474 1.977 . S
Zn465 O475 1.910 . S
O466 Zn463 1.933 . S
O466 C477 1.226 . S
O467 Zn465 1.932 . S
O467 C477 1.307 . S
O468 Zn461 1.919 . S
O468 C479 1.253 . S
O469 Zn463 1.941 . S
O469 C479 1.283 . S
O470 Zn463 1.965 . S
O470 C478 1.303 . S
O471 Zn464 1.938 . S
O471 C478 1.247 . S
O472 Zn464 1.906 . S
O472 C480 1.304 . S
O473 Zn461 1.924 . S
O473 C481 1.311 . S
O474 Zn465 1.977 . S
O474 C480 1.272 . S
O475 Zn465 1.910 . S
O475 C481 1.231 . S
C476 O460 1.225 . S
C476 O482 1.298 . S
C477 O466 1.226 . S
C477 O467 1.307 . S
C478 O470 1.303 . S
C478 O471 1.247 . S
C479 O468 1.253 . S
C479 O469 1.283 . S
C480 O472 1.304 . S
C480 O474 1.272 . S
C481 O473 1.311 . S
C481 O475 1.231 . S
O482 Zn464 1.953 . S
O482 C476 1.298 . S
O483 Zn484 1.953 . S
O483 C499 1.225 . S
Zn484 O483 1.953 . S
Zn484 O485 1.949 . S
Zn484 O491 1.919 . S
Zn484 O496 1.924 . S
O485 Zn484 1.949 . S
O485 Zn486 1.923 . S
O485 Zn487 1.950 . S
O485 Zn488 1.945 . S
Zn486 O485 1.923 . S
Zn486 O489 1.933 . S
Zn486 O492 1.941 . S
Zn486 O493 1.965 . S
Zn487 O485 1.950 . S
Zn487 O494 1.938 . S
Zn487 O495 1.906 . S
Zn487 O505 1.953 . S
Zn488 O485 1.945 . S
Zn488 O490 1.932 . S
Zn488 O497 1.977 . S
Zn488 O498 1.910 . S
O489 Zn486 1.933 . S
O489 C500 1.226 . S
O490 Zn488 1.932 . S
O490 C500 1.307 . S
O491 Zn484 1.919 . S
O491 C502 1.253 . S
O492 Zn486 1.941 . S
O492 C502 1.283 . S
O493 Zn486 1.965 . S
O493 C501 1.303 . S
O494 Zn487 1.938 . S
O494 C501 1.247 . S
O495 Zn487 1.906 . S
O495 C503 1.304 . S
O496 Zn484 1.924 . S
O496 C504 1.311 . S
O497 Zn488 1.977 . S
O497 C503 1.272 . S
O498 Zn488 1.910 . S
O498 C504 1.231 . S
C499 O483 1.225 . S
C499 O505 1.298 . S
C500 O489 1.226 . S
C500 O490 1.307 . S
C501 O493 1.303 . S
C501 O494 1.247 . S
C502 O491 1.253 . S
C502 O492 1.283 . S
C503 O495 1.304 . S
C503 O497 1.272 . S
C504 O496 1.311 . S
C504 O498 1.231 . S
O505 Zn487 1.953 . S
O505 C499 1.298 . S
O506 Zn507 1.953 . S
O506 C522 1.225 . S
Zn507 O506 1.953 . S
Zn507 O508 1.949 . S
Zn507 O514 1.919 . S
Zn507 O519 1.924 . S
O508 Zn507 1.949 . S
O508 Zn509 1.923 . S
O508 Zn510 1.950 . S
O508 Zn511 1.945 . S
Zn509 O508 1.923 . S
Zn509 O512 1.933 . S
Zn509 O515 1.941 . S
Zn509 O516 1.965 . S
Zn510 O508 1.950 . S
Zn510 O517 1.938 . S
Zn510 O518 1.906 . S
Zn510 O528 1.953 . S
Zn511 O508 1.945 . S
Zn511 O513 1.932 . S
Zn511 O520 1.977 . S
Zn511 O521 1.910 . S
O512 Zn509 1.933 . S
O512 C523 1.226 . S
O513 Zn511 1.932 . S
O513 C523 1.307 . S
O514 Zn507 1.919 . S
O514 C525 1.253 . S
O515 Zn509 1.941 . S
O515 C525 1.283 . S
O516 Zn509 1.965 . S
O516 C524 1.303 . S
O517 Zn510 1.938 . S
O517 C524 1.247 . S
O518 Zn510 1.906 . S
O518 C526 1.304 . S
O519 Zn507 1.924 . S
O519 C527 1.311 . S
O520 Zn511 1.977 . S
O520 C526 1.272 . S
O521 Zn511 1.910 . S
O521 C527 1.231 . S
C522 O506 1.225 . S
C522 O528 1.298 . S
C523 O512 1.226 . S
C523 O513 1.307 . S
C524 O516 1.303 . S
C524 O517 1.247 . S
C525 O514 1.253 . S
C525 O515 1.283 . S
C526 O518 1.304 . S
C526 O520 1.272 . S
C527 O519 1.311 . S
C527 O521 1.231 . S
O528 Zn510 1.953 . S
O528 C522 1.298 . S
O529 Zn530 1.953 . S
O529 C545 1.225 . S
Zn530 O529 1.953 . S
Zn530 O531 1.949 . S
Zn530 O537 1.919 . S
Zn530 O542 1.924 . S
O531 Zn530 1.949 . S
O531 Zn532 1.923 . S
O531 Zn533 1.950 . S
O531 Zn534 1.945 . S
Zn532 O531 1.923 . S
Zn532 O535 1.933 . S
Zn532 O538 1.941 . S
Zn532 O539 1.965 . S
Zn533 O531 1.950 . S
Zn533 O540 1.938 . S
Zn533 O541 1.906 . S
Zn533 O551 1.953 . S
Zn534 O531 1.945 . S
Zn534 O536 1.932 . S
Zn534 O543 1.977 . S
Zn534 O544 1.910 . S
O535 Zn532 1.933 . S
O535 C546 1.226 . S
O536 Zn534 1.932 . S
O536 C546 1.307 . S
O537 Zn530 1.919 . S
O537 C548 1.253 . S
O538 Zn532 1.941 . S
O538 C548 1.283 . S
O539 Zn532 1.965 . S
O539 C547 1.303 . S
O540 Zn533 1.938 . S
O540 C547 1.247 . S
O541 Zn533 1.906 . S
O541 C549 1.304 . S
O542 Zn530 1.924 . S
O542 C550 1.311 . S
O543 Zn534 1.977 . S
O543 C549 1.272 . S
O544 Zn534 1.910 . S
O544 C550 1.231 . S
C545 O529 1.225 . S
C545 O551 1.298 . S
C546 O535 1.226 . S
C546 O536 1.307 . S
C547 O539 1.303 . S
C547 O540 1.247 . S
C548 O537 1.253 . S
C548 O538 1.283 . S
C549 O541 1.304 . S
C549 O543 1.272 . S
C550 O542 1.311 . S
C550 O544 1.231 . S
O551 Zn533 1.953 . S
O551 C545 1.298 . S
O552 Zn553 1.953 . S
O552 C568 1.225 . S
Zn553 O552 1.953 . S
Zn553 O554 1.949 . S
Zn553 O560 1.919 . S
Zn553 O565 1.924 . S
O554 Zn553 1.949 . S
O554 Zn555 1.923 . S
O554 Zn556 1.950 . S
O554 Zn557 1.945 . S
Zn555 O554 1.923 . S
Zn555 O558 1.933 . S
Zn555 O561 1.941 . S
Zn555 O562 1.965 . S
Zn556 O554 1.950 . S
Zn556 O563 1.938 . S
Zn556 O564 1.906 . S
Zn556 O574 1.953 . S
Zn557 O554 1.945 . S
Zn557 O559 1.932 . S
Zn557 O566 1.977 . S
Zn557 O567 1.910 . S
O558 Zn555 1.933 . S
O558 C569 1.226 . S
O559 Zn557 1.932 . S
O559 C569 1.307 . S
O560 Zn553 1.919 . S
O560 C571 1.253 . S
O561 Zn555 1.941 . S
O561 C571 1.283 . S
O562 Zn555 1.965 . S
O562 C570 1.303 . S
O563 Zn556 1.938 . S
O563 C570 1.247 . S
O564 Zn556 1.906 . S
O564 C572 1.304 . S
O565 Zn553 1.924 . S
O565 C573 1.311 . S
O566 Zn557 1.977 . S
O566 C572 1.272 . S
O567 Zn557 1.910 . S
O567 C573 1.231 . S
C568 O552 1.225 . S
C568 O574 1.298 . S
C569 O558 1.226 . S
C569 O559 1.307 . S
C570 O562 1.303 . S
C570 O563 1.247 . S
C571 O560 1.253 . S
C571 O561 1.283 . S
C572 O564 1.304 . S
C572 O566 1.272 . S
C573 O565 1.311 . S
C573 O567 1.231 . S
O574 Zn556 1.953 . S
O574 C568 1.298 . S
O575 Zn576 1.953 . S
O575 C591 1.225 . S
Zn576 O575 1.953 . S
Zn576 O577 1.949 . S
Zn576 O583 1.919 . S
Zn576 O588 1.924 . S
O577 Zn576 1.949 . S
O577 Zn578 1.923 . S
O577 Zn579 1.950 . S
O577 Zn580 1.945 . S
Zn578 O577 1.923 . S
Zn578 O581 1.933 . S
Zn578 O584 1.941 . S
Zn578 O585 1.965 . S
Zn579 O577 1.950 . S
Zn579 O586 1.938 . S
Zn579 O587 1.906 . S
Zn579 O597 1.953 . S
Zn580 O577 1.945 . S
Zn580 O582 1.932 . S
Zn580 O589 1.977 . S
Zn580 O590 1.910 . S
O581 Zn578 1.933 . S
O581 C592 1.226 . S
O582 Zn580 1.932 . S
O582 C592 1.307 . S
O583 Zn576 1.919 . S
O583 C594 1.253 . S
O584 Zn578 1.941 . S
O584 C594 1.283 . S
O585 Zn578 1.965 . S
O585 C593 1.303 . S
O586 Zn579 1.938 . S
O586 C593 1.247 . S
O587 Zn579 1.906 . S
O587 C595 1.304 . S
O588 Zn576 1.924 . S
O588 C596 1.311 . S
O589 Zn580 1.977 . S
O589 C595 1.272 . S
O590 Zn580 1.910 . S
O590 C596 1.231 . S
C591 O575 1.225 . S
C591 O597 1.298 . S
C592 O581 1.226 . S
C592 O582 1.307 . S
C593 O585 1.303 . S
C593 O586 1.247 . S
C594 O583 1.253 . S
C594 O584 1.283 . S
C595 O587 1.304 . S
C595 O589 1.272 . S
C596 O588 1.311 . S
C596 O590 1.231 . S
O597 Zn579 1.953 . S
O597 C591 1.298 . S
O598 Zn599 1.953 . S
O598 C614 1.225 . S
Zn599 O598 1.953 . S
Zn599 O600 1.949 . S
Zn599 O606 1.919 . S
Zn599 O611 1.924 . S
O600 Zn599 1.949 . S
O600 Zn601 1.923 . S
O600 Zn602 1.950 . S
O600 Zn603 1.945 . S
Zn601 O600 1.923 . S
Zn601 O604 1.933 . S
Zn601 O607 1.941 . S
Zn601 O608 1.965 . S
Zn602 O600 1.950 . S
Zn602 O609 1.938 . S
Zn602 O610 1.906 . S
Zn602 O620 1.953 . S
Zn603 O600 1.945 . S
Zn603 O605 1.932 . S
Zn603 O612 1.977 . S
Zn603 O613 1.910 . S
O604 Zn601 1.933 . S
O604 C615 1.226 . S
O605 Zn603 1.932 . S
O605 C615 1.307 . S
O606 Zn599 1.919 . S
O606 C617 1.253 . S
O607 Zn601 1.941 . S
O607 C617 1.283 . S
O608 Zn601 1.965 . S
O608 C616 1.303 . S
O609 Zn602 1.938 . S
O609 C616 1.247 . S
O610 Zn602 1.906 . S
O610 C618 1.304 . S
O611 Zn599 1.924 . S
O611 C619 1.311 . S
O612 Zn603 1.977 . S
O612 C618 1.272 . S
O613 Zn603 1.910 . S
O613 C619 1.231 . S
C614 O598 1.225 . S
C614 O620 1.298 . S
C615 O604 1.226 . S
C615 O605 1.307 . S
C616 O608 1.303 . S
C616 O609 1.247 . S
C617 O606 1.253 . S
C617 O607 1.283 . S
C618 O610 1.304 . S
C618 O612 1.272 . S
C619 O611 1.311 . S
C619 O613 1.231 . S
O620 Zn602 1.953 . S
O620 C614 1.298 . S
O621 Zn622 1.953 . S
O621 C637 1.225 . S
Zn622 O621 1.953 . S
Zn622 O623 1.949 . S
Zn622 O629 1.919 . S
Zn622 O634 1.924 . S
O623 Zn622 1.949 . S
O623 Zn624 1.923 . S
O623 Zn625 1.950 . S
O623 Zn626 1.945 . S
Zn624 O623 1.923 . S
Zn624 O627 1.933 . S
Zn624 O630 1.941 . S
Zn624 O631 1.965 . S
Zn625 O623 1.950 . S
Zn625 O632 1.938 . S
Zn625 O633 1.906 . S
Zn625 O643 1.953 . S
Zn626 O623 1.945 . S
Zn626 O628 1.932 . S
Zn626 O635 1.977 . S
Zn626 O636 1.910 . S
O627 Zn624 1.933 . S
O627 C638 1.226 . S
O628 Zn626 1.932 . S
O628 C638 1.307 . S
O629 Zn622 1.919 . S
O629 C640 1.253 . S
O630 Zn624 1.941 . S
O630 C640 1.283 . S
O631 Zn624 1.965 . S
O631 C639 1.303 . S
O632 Zn625 1.938 . S
O632 C639 1.247 . S
O633 Zn625 1.906 . S
O633 C641 1.304 . S
O634 Zn622 1.924 . S
O634 C642 1.311 . S
O635 Zn626 1.977 . S
O635 C641 1.272 . S
O636 Zn626 1.910 . S
O636 C642 1.231 . S
C637 O621 1.225 . S
C637 O643 1.298 . S
C638 O627 1.226 . S
C638 O628 1.307 . S
C639 O631 1.303 . S
C639 O632 1.247 . S
C640 O629 1.253 . S
C640 O630 1.283 . S
C641 O633 1.304 . S
C641 O635 1.272 . S
C642 O634 1.311 . S
C642 O636 1.231 . S
O643 Zn625 1.953 . S
O643 C637 1.298 . S
O644 Zn645 1.953 . S
O644 C660 1.225 . S
Zn645 O644 1.953 . S
Zn645 O646 1.949 . S
Zn645 O652 1.919 . S
Zn645 O657 1.924 . S
O646 Zn645 1.949 . S
O646 Zn647 1.923 . S
O646 Zn648 1.950 . S
O646 Zn649 1.945 . S
Zn647 O646 1.923 . S
Zn647 O650 1.933 . S
Zn647 O653 1.941 . S
Zn647 O654 1.965 . S
Zn648 O646 1.950 . S
Zn648 O655 1.938 . S
Zn648 O656 1.906 . S
Zn648 O666 1.953 . S
Zn649 O646 1.945 . S
Zn649 O651 1.932 . S
Zn649 O658 1.977 . S
Zn649 O659 1.910 . S
O650 Zn647 1.933 . S
O650 C661 1.226 . S
O651 Zn649 1.932 . S
O651 C661 1.307 . S
O652 Zn645 1.919 . S
O652 C663 1.253 . S
O653 Zn647 1.941 . S
O653 C663 1.283 . S
O654 Zn647 1.965 . S
O654 C662 1.303 . S
O655 Zn648 1.938 . S
O655 C662 1.247 . S
O656 Zn648 1.906 . S
O656 C664 1.304 . S
O657 Zn645 1.924 . S
O657 C665 1.311 . S
O658 Zn649 1.977 . S
O658 C664 1.272 . S
O659 Zn649 1.910 . S
O659 C665 1.231 . S
C660 O644 1.225 . S
C660 O666 1.298 . S
C661 O650 1.226 . S
C661 O651 1.307 . S
C662 O654 1.303 . S
C662 O655 1.247 . S
C663 O652 1.253 . S
C663 O653 1.283 . S
C664 O656 1.304 . S
C664 O658 1.272 . S
C665 O657 1.311 . S
C665 O659 1.231 . S
O666 Zn648 1.953 . S
O666 C660 1.298 . S
O667 Zn668 1.953 . S
O667 C683 1.225 . S
Zn668 O667 1.953 . S
Zn668 O669 1.949 . S
Zn668 O675 1.919 . S
Zn668 O680 1.924 . S
O669 Zn668 1.949 . S
O669 Zn670 1.923 . S
O669 Zn671 1.950 . S
O669 Zn672 1.945 . S
Zn670 O669 1.923 . S
Zn670 O673 1.933 . S
Zn670 O676 1.941 . S
Zn670 O677 1.965 . S
Zn671 O669 1.950 . S
Zn671 O678 1.938 . S
Zn671 O679 1.906 . S
Zn671 O689 1.953 . S
Zn672 O669 1.945 . S
Zn672 O674 1.932 . S
Zn672 O681 1.977 . S
Zn672 O682 1.910 . S
O673 Zn670 1.933 . S
O673 C684 1.226 . S
O674 Zn672 1.932 . S
O674 C684 1.307 . S
O675 Zn668 1.919 . S
O675 C686 1.253 . S
O676 Zn670 1.941 . S
O676 C686 1.283 . S
O677 Zn670 1.965 . S
O677 C685 1.303 . S
O678 Zn671 1.938 . S
O678 C685 1.247 . S
O679 Zn671 1.906 . S
O679 C687 1.304 . S
O680 Zn668 1.924 . S
O680 C688 1.311 . S
O681 Zn672 1.977 . S
O681 C687 1.272 . S
O682 Zn672 1.910 . S
O682 C688 1.231 . S
C683 O667 1.225 . S
C683 O689 1.298 . S
C684 O673 1.226 . S
C684 O674 1.307 . S
C685 O677 1.303 . S
C685 O678 1.247 . S
C686 O675 1.253 . S
C686 O676 1.283 . S
C687 O679 1.304 . S
C687 O681 1.272 . S
C688 O680 1.311 . S
C688 O682 1.231 . S
O689 Zn671 1.953 . S
O689 C683 1.298 . S
O690 Zn691 1.953 . S
O690 C706 1.225 . S
Zn691 O690 1.953 . S
Zn691 O692 1.949 . S
Zn691 O698 1.919 . S
Zn691 O703 1.924 . S
O692 Zn691 1.949 . S
O692 Zn693 1.923 . S
O692 Zn694 1.950 . S
O692 Zn695 1.945 . S
Zn693 O692 1.923 . S
Zn693 O696 1.933 . S
Zn693 O699 1.941 . S
Zn693 O700 1.965 . S
Zn694 O692 1.950 . S
Zn694 O701 1.938 . S
Zn694 O702 1.906 . S
Zn694 O712 1.953 . S
Zn695 O692 1.945 . S
Zn695 O697 1.932 . S
Zn695 O704 1.977 . S
Zn695 O705 1.910 . S
O696 Zn693 1.933 . S
O696 C707 1.226 . S
O697 Zn695 1.932 . S
O697 C707 1.307 . S
O698 Zn691 1.919 . S
O698 C709 1.253 . S
O699 Zn693 1.941 . S
O699 C709 1.283 . S
O700 Zn693 1.965 . S
O700 C708 1.303 . S
O701 Zn694 1.938 . S
O701 C708 1.247 . S
O702 Zn694 1.906 . S
O702 C710 1.304 . S
O703 Zn691 1.924 . S
O703 C711 1.311 . S
O704 Zn695 1.977 . S
O704 C710 1.272 . S
O705 Zn695 1.910 . S
O705 C711 1.231 . S
C706 O690 1.225 . S
C706 O712 1.298 . S
C707 O696 1.226 . S
C707 O697 1.307 . S
C708 O700 1.303 . S
C708 O701 1.247 . S
C709 O698 1.253 . S
C709 O699 1.283 . S
C710 O702 1.304 . S
C710 O704 1.272 . S
C711 O703 1.311 . S
C711 O705 1.231 . S
O712 Zn694 1.953 . S
O712 C706 1.298 . S
O713 Zn714 1.953 . S
O713 C729 1.225 . S
Zn714 O713 1.953 . S
Zn714 O715 1.949 . S
Zn714 O721 1.919 . S
Zn714 O726 1.924 . S
O715 Zn714 1.949 . S
O715 Zn716 1.923 . S
O715 Zn717 1.950 . S
O715 Zn718 1.945 . S
Zn716 O715 1.923 . S
Zn716 O719 1.933 . S
Zn716 O722 1.941 . S
Zn716 O723 1.965 . S
Zn717 O715 1.950 . S
Zn717 O724 1.938 . S
Zn717 O725 1.906 . S
Zn717 O735 1.953 . S
Zn718 O715 1.945 . S
Zn718 O720 1.932 . S
Zn718 O727 1.977 . S
Zn718 O728 1.910 . S
O719 Zn716 1.933 . S
O719 C730 1.226 . S
O720 Zn718 1.932 . S
O720 C730 1.307 . S
O721 Zn714 1.919 . S
O721 C732 1.253 . S
O722 Zn716 1.941 . S
O722 C732 1.283 . S
O723 Zn716 1.965 . S
O723 C731 1.303 . S
O724 Zn717 1.938 . S
O724 C731 1.247 . S
O725 Zn717 1.906 . S
O725 C733 1.304 . S
O726 Zn714 1.924 . S
O726 C734 1.311 . S
O727 Zn718 1.977 . S
O727 C733 1.272 . S
O728 Zn718 1.910 . S
O728 C734 1.231 . S
C729 O713 1.225 . S
C729 O735 1.298 . S
C730 O719 1.226 . S
C730 O720 1.307 . S
C731 O723 1.303 . S
C731 O724 1.247 . S
C732 O721 1.253 . S
C732 O722 1.283 . S
C733 O725 1.304 . S
C733 O727 1.272 . S
C734 O726 1.311 . S
C734 O728 1.231 . S
O735 Zn717 1.953 . S
O735 C729 1.298 . S
O736 Zn737 1.953 . S
O736 C752 1.225 . S
Zn737 O736 1.953 . S
Zn737 O738 1.949 . S
Zn737 O744 1.919 . S
Zn737 O749 1.924 . S
O738 Zn737 1.949 . S
O738 Zn739 1.923 . S
O738 Zn740 1.950 . S
O738 Zn741 1.945 . S
Zn739 O738 1.923 . S
Zn739 O742 1.933 . S
Zn739 O745 1.941 . S
Zn739 O746 1.965 . S
Zn740 O738 1.950 . S
Zn740 O747 1.938 . S
Zn740 O748 1.906 . S
Zn740 O758 1.953 . S
Zn741 O738 1.945 . S
Zn741 O743 1.932 . S
Zn741 O750 1.977 . S
Zn741 O751 1.910 . S
O742 Zn739 1.933 . S
O742 C753 1.226 . S
O743 Zn741 1.932 . S
O743 C753 1.307 . S
O744 Zn737 1.919 . S
O744 C755 1.253 . S
O745 Zn739 1.941 . S
O745 C755 1.283 . S
O746 Zn739 1.965 . S
O746 C754 1.303 . S
O747 Zn740 1.938 . S
O747 C754 1.247 . S
O748 Zn740 1.906 . S
O748 C756 1.304 . S
O749 Zn737 1.924 . S
O749 C757 1.311 . S
O750 Zn741 1.977 . S
O750 C756 1.272 . S
O751 Zn741 1.910 . S
O751 C757 1.231 . S
C752 O736 1.225 . S
C752 O758 1.298 . S
C753 O742 1.226 . S
C753 O743 1.307 . S
C754 O746 1.303 . S
C754 O747 1.247 . S
C755 O744 1.253 . S
C755 O745 1.283 . S
C756 O748 1.304 . S
C756 O750 1.272 . S
C757 O749 1.311 . S
C757 O751 1.231 . S
O758 Zn740 1.953 . S
O758 C752 1.298 . S
O759 Zn760 1.953 . S
O759 C775 1.225 . S
Zn760 O759 1.953 . S
Zn760 O761 1.949 . S
Zn760 O767 1.919 . S
Zn760 O772 1.924 . S
O761 Zn760 1.949 . S
O761 Zn762 1.923 . S
O761 Zn763 1.950 . S
O761 Zn764 1.945 . S
Zn762 O761 1.923 . S
Zn762 O765 1.933 . S
Zn762 O768 1.941 . S
Zn762 O769 1.965 . S
Zn763 O761 1.950 . S
Zn763 O770 1.938 . S
Zn763 O771 1.906 . S
Zn763 O781 1.953 . S
Zn764 O761 1.945 . S
Zn764 O766 1.932 . S
Zn764 O773 1.977 . S
Zn764 O774 1.910 . S
O765 Zn762 1.933 . S
O765 C776 1.226 . S
O766 Zn764 1.932 . S
O766 C776 1.307 . S
O767 Zn760 1.919 . S
O767 C778 1.253 . S
O768 Zn762 1.941 . S
O768 C778 1.283 . S
O769 Zn762 1.965 . S
O769 C777 1.303 . S
O770 Zn763 1.938 . S
O770 C777 1.247 . S
O771 Zn763 1.906 . S
O771 C779 1.304 . S
O772 Zn760 1.924 . S
O772 C780 1.311 . S
O773 Zn764 1.977 . S
O773 C779 1.272 . S
O774 Zn764 1.910 . S
O774 C780 1.231 . S
C775 O759 1.225 . S
C775 O781 1.298 . S
C776 O765 1.226 . S
C776 O766 1.307 . S
C777 O769 1.303 . S
C777 O770 1.247 . S
C778 O767 1.253 . S
C778 O768 1.283 . S
C779 O771 1.304 . S
C779 O773 1.272 . S
C780 O772 1.311 . S
C780 O774 1.231 . S
O781 Zn763 1.953 . S
O781 C775 1.298 . S
O782 Zn783 1.953 . S
O782 C798 1.225 . S
Zn783 O782 1.953 . S
Zn783 O784 1.949 . S
Zn783 O790 1.919 . S
Zn783 O795 1.924 . S
O784 Zn783 1.949 . S
O784 Zn785 1.923 . S
O784 Zn786 1.950 . S
O784 Zn787 1.945 . S
Zn785 O784 1.923 . S
Zn785 O788 1.933 . S
Zn785 O791 1.941 . S
Zn785 O792 1.965 . S
Zn786 O784 1.950 . S
Zn786 O793 1.938 . S
Zn786 O794 1.906 . S
Zn786 O804 1.953 . S
Zn787 O784 1.945 . S
Zn787 O789 1.932 . S
Zn787 O796 1.977 . S
Zn787 O797 1.910 . S
O788 Zn785 1.933 . S
O788 C799 1.226 . S
O789 Zn787 1.932 . S
O789 C799 1.307 . S
O790 Zn783 1.919 . S
O790 C801 1.253 . S
O791 Zn785 1.941 . S
O791 C801 1.283 . S
O792 Zn785 1.965 . S
O792 C800 1.303 . S
O793 Zn786 1.938 . S
O793 C800 1.247 . S
O794 Zn786 1.906 . S
O794 C802 1.304 . S
O795 Zn783 1.924 . S
O795 C803 1.311 . S
O796 Zn787 1.977 . S
O796 C802 1.272 . S
O797 Zn787 1.910 . S
O797 C803 1.231 . S
C798 O782 1.225 . S
C798 O804 1.298 . S
C799 O788 1.226 . S
C799 O789 1.307 . S
C800 O792 1.303 . S
C800 O793 1.247 . S
C801 O790 1.253 . S
C801 O791 1.283 . S
C802 O794 1.304 . S
C802 O796 1.272 . S
C803 O795 1.311 . S
C803 O797 1.231 . S
O804 Zn786 1.953 . S
O804 C798 1.298 . S
O805 Zn806 1.953 . S
O805 C821 1.225 . S
Zn806 O805 1.953 . S
Zn806 O807 1.949 . S
Zn806 O813 1.919 . S
Zn806 O818 1.924 . S
O807 Zn806 1.949 . S
O807 Zn808 1.923 . S
O807 Zn809 1.950 . S
O807 Zn810 1.945 . S
Zn808 O807 1.923 . S
Zn808 O811 1.933 . S
Zn808 O814 1.941 . S
Zn808 O815 1.965 . S
Zn809 O807 1.950 . S
Zn809 O816 1.938 . S
Zn809 O817 1.906 . S
Zn809 O827 1.953 . S
Zn810 O807 1.945 . S
Zn810 O812 1.932 . S
Zn810 O819 1.977 . S
Zn810 O820 1.910 . S
O811 Zn808 1.933 . S
O811 C822 1.226 . S
O812 Zn810 1.932 . S
O812 C822 1.307 . S
O813 Zn806 1.919 . S
O813 C824 1.253 . S
O814 Zn808 1.941 . S
O814 C824 1.283 . S
O815 Zn808 1.965 . S
O815 C823 1.303 . S
O816 Zn809 1.938 . S
O816 C823 1.247 . S
O817 Zn809 1.906 . S
O817 C825 1.304 . S
O818 Zn806 1.924 . S
O818 C826 1.311 . S
O819 Zn810 1.977 . S
O819 C825 1.272 . S
O820 Zn810 1.910 . S
O820 C826 1.231 . S
C821 O805 1.225 . S
C821 O827 1.298 . S
C822 O811 1.226 . S
C822 O812 1.307 . S
C823 O815 1.303 . S
C823 O816 1.247 . S
C824 O813 1.253 . S
C824 O814 1.283 . S
C825 O817 1.304 . S
C825 O819 1.272 . S
C826 O818 1.311 . S
C826 O820 1.231 . S
O827 Zn809 1.953 . S
O827 C821 1.298 . S
H828 C836 0.950 . S
H829 C841 0.950 . S
H830 C838 0.950 1_556 S
H831 C840 0.950 . S
H832 C842 0.950 . S
H833 C844 0.950 . S
H834 C846 0.950 . S
H835 C847 0.950 . S
C836 H828 0.950 . S
C836 C837 1.386 . S
C836 C838 1.391 . S
C837 C836 1.386 . S
C837 C841 1.393 . S
C838 H830 0.950 1_554 S
C838 C836 1.391 . S
C838 C839 1.400 . S
C839 C838 1.400 . S
C839 C840 1.398 . S
C839 C845 1.491 1_554 S
C840 H831 0.950 . S
C840 C839 1.398 . S
C840 C841 1.391 . S
C841 H829 0.950 . S
C841 C837 1.393 . S
C841 C840 1.391 . S
C842 H832 0.950 . S
C842 C843 1.386 . S
C842 C844 1.391 . S
C843 C842 1.386 . S
C843 C847 1.393 . S
C844 H833 0.950 . S
C844 C842 1.391 . S
C844 C845 1.400 . S
C845 C839 1.491 1_556 S
C845 C844 1.400 . S
C845 C846 1.398 . S
C846 H834 0.950 . S
C846 C845 1.398 . S
C846 C847 1.391 . S
C847 H835 0.950 . S
C847 C843 1.393 . S
C847 C846 1.391 . S
H848 C856 0.950 . S
H849 C861 0.950 . S
H850 C858 0.950 . S
H851 C860 0.950 . S
H852 C862 0.950 . S
H853 C864 0.950 . S
H854 C866 0.950 . S
H855 C867 0.950 . S
C856 H848 0.950 . S
C856 C857 1.386 . S
C856 C858 1.391 . S
C857 C856 1.386 . S
C857 C861 1.393 . S
C858 H850 0.950 . S
C858 C856 1.391 . S
C858 C859 1.400 . S
C859 C858 1.400 . S
C859 C860 1.398 1_556 S
C859 C865 1.491 1_556 S
C860 H851 0.950 . S
C860 C859 1.398 1_554 S
C860 C861 1.391 1_554 S
C861 H849 0.950 . S
C861 C857 1.393 . S
C861 C860 1.391 1_556 S
C862 H852 0.950 . S
C862 C863 1.386 . S
C862 C864 1.391 . S
C863 C862 1.386 . S
C863 C867 1.393 . S
C864 H853 0.950 . S
C864 C862 1.391 . S
C864 C865 1.400 . S
C865 C859 1.491 1_554 S
C865 C864 1.400 . S
C865 C866 1.398 1_554 S
C866 H854 0.950 . S
C866 C865 1.398 1_556 S
C866 C867 1.391 1_556 S
C867 H855 0.950 . S
C867 C863 1.393 . S
C867 C866 1.391 1_554 S
H868 C876 0.950 . S
H869 C881 0.950 . S
H870 C878 0.950 . S
H871 C880 0.950 . S
H872 C882 0.950 . S
H873 C884 0.950 . S
H874 C886 0.950 . S
H875 C887 0.950 . S
C876 H868 0.950 . S
C876 C877 1.386 . S
C876 C878 1.391 . S
C877 C876 1.386 . S
C877 C881 1.393 . S
C878 H870 0.950 . S
C878 C876 1.391 . S
C878 C879 1.400 . S
C879 C878 1.400 . S
C879 C880 1.398 . S
C879 C885 1.491 1_556 S
C880 H871 0.950 . S
C880 C879 1.398 . S
C880 C881 1.391 . S
C881 H869 0.950 . S
C881 C877 1.393 . S
C881 C880 1.391 . S
C882 H872 0.950 . S
C882 C883 1.386 . S
C882 C884 1.391 . S
C883 C882 1.386 . S
C883 C887 1.393 . S
C884 H873 0.950 . S
C884 C882 1.391 . S
C884 C885 1.400 . S
C885 C879 1.491 1_554 S
C885 C884 1.400 . S
C885 C886 1.398 . S
C886 H874 0.950 . S
C886 C885 1.398 . S
C886 C887 1.391 . S
C887 H875 0.950 . S
C887 C883 1.393 . S
C887 C886 1.391 . S
H888 C896 0.950 . S
H889 C901 0.950 . S
H890 C898 0.950 . S
H891 C900 0.950 . S
H892 C902 0.950 . S
H893 C904 0.950 . S
H894 C906 0.950 . S
H895 C907 0.950 . S
C896 H888 0.950 . S
C896 C897 1.386 . S
C896 C898 1.391 . S
C897 C896 1.386 . S
C897 C901 1.393 . S
C898 H890 0.950 . S
C898 C896 1.391 . S
C898 C899 1.400 . S
C899 C898 1.400 . S
C899 C900 1.398 . S
C899 C905 1.491 . S
C900 H891 0.950 . S
C900 C899 1.398 . S
C900 C901 1.391 . S
C901 H889 0.950 . S
C901 C897 1.393 . S
C901 C900 1.391 . S
C902 H892 0.950 . S
C902 C903 1.386 . S
C902 C904 1.391 . S
C903 C902 1.386 . S
C903 C907 1.393 . S
C904 H893 0.950 . S
C904 C902 1.391 . S
C904 C905 1.400 . S
C905 C899 1.491 . S
C905 C904 1.400 . S
C905 C906 1.398 . S
C906 H894 0.950 . S
C906 C905 1.398 . S
C906 C907 1.391 . S
C907 H895 0.950 . S
C907 C903 1.393 . S
C907 C906 1.391 . S
H908 C916 0.950 . S
H909 C921 0.950 . S
H910 C918 0.950 . S
H911 C920 0.950 . S
H912 C922 0.950 . S
H913 C924 0.950 . S
H914 C926 0.950 . S
H915 C927 0.950 . S
C916 H908 0.950 . S
C916 C917 1.386 . S
C916 C918 1.391 . S
C917 C916 1.386 . S
C917 C921 1.393 . S
C918 H910 0.950 . S
C918 C916 1.391 . S
C918 C919 1.400 . S
C919 C918 1.400 . S
C919 C920 1.398 . S
C919 C925 1.491 . S
C920 H911 0.950 . S
C920 C919 1.398 . S
C920 C921 1.391 . S
C921 H909 0.950 . S
C921 C917 1.393 . S
C921 C920 1.391 . S
C922 H912 0.950 . S
C922 C923 1.386 . S
C922 C924 1.391 . S
C923 C922 1.386 . S
C923 C927 1.393 . S
C924 H913 0.950 . S
C924 C922 1.391 . S
C924 C925 1.400 . S
C925 C919 1.491 . S
C925 C924 1.400 . S
C925 C926 1.398 . S
C926 H914 0.950 . S
C926 C925 1.398 . S
C926 C927 1.391 . S
C927 H915 0.950 . S
C927 C923 1.393 . S
C927 C926 1.391 . S
H928 C936 0.950 . S
H929 C941 0.950 . S
H930 C938 0.950 . S
H931 C940 0.950 . S
H932 C942 0.950 . S
H933 C944 0.950 . S
H934 C946 0.950 . S
H935 C947 0.950 . S
C936 H928 0.950 . S
C936 C937 1.386 . S
C936 C938 1.391 . S
C937 C936 1.386 . S
C937 C941 1.393 . S
C938 H930 0.950 . S
C938 C936 1.391 . S
C938 C939 1.400 . S
C939 C938 1.400 . S
C939 C940 1.398 . S
C939 C945 1.491 . S
C940 H931 0.950 . S
C940 C939 1.398 . S
C940 C941 1.391 . S
C941 H929 0.950 . S
C941 C937 1.393 . S
C941 C940 1.391 . S
C942 H932 0.950 . S
C942 C943 1.386 . S
C942 C944 1.391 . S
C943 C942 1.386 . S
C943 C947 1.393 . S
C944 H933 0.950 . S
C944 C942 1.391 . S
C944 C945 1.400 . S
C945 C939 1.491 . S
C945 C944 1.400 . S
C945 C946 1.398 . S
C946 H934 0.950 . S
C946 C945 1.398 . S
C946 C947 1.391 . S
C947 H935 0.950 . S
C947 C943 1.393 . S
C947 C946 1.391 . S
H948 C956 0.950 . S
H949 C961 0.950 . S
H950 C958 0.950 1_556 S
H951 C960 0.950 . S
H952 C962 0.950 . S
H953 C964 0.950 1_554 S
H954 C966 0.950 . S
H955 C967 0.950 . S
C956 H948 0.950 . S
C956 C957 1.386 . S
C956 C958 1.391 . S
C957 C956 1.386 . S
C957 C961 1.393 . S
C958 H950 0.950 1_554 S
C958 C956 1.391 . S
C958 C959 1.400 . S
C959 C958 1.400 . S
C959 C960 1.398 . S
C959 C965 1.491 1_554 S
C960 H951 0.950 . S
C960 C959 1.398 . S
C960 C961 1.391 . S
C961 H949 0.950 . S
C961 C957 1.393 . S
C961 C960 1.391 . S
C962 H952 0.950 . S
C962 C963 1.386 . S
C962 C964 1.391 . S
C963 C962 1.386 . S
C963 C967 1.393 . S
C964 H953 0.950 1_556 S
C964 C962 1.391 . S
C964 C965 1.400 . S
C965 C959 1.491 1_556 S
C965 C964 1.400 . S
C965 C966 1.398 . S
C966 H954 0.950 . S
C966 C965 1.398 . S
C966 C967 1.391 . S
C967 H955 0.950 . S
C967 C963 1.393 . S
C967 C966 1.391 . S
H968 C976 0.950 1_554 S
H969 C981 0.950 . S
H970 C978 0.950 . S
H971 C980 0.950 . S
H972 C982 0.950 1_556 S
H973 C984 0.950 . S
H974 C986 0.950 . S
H975 C987 0.950 . S
C976 H968 0.950 1_556 S
C976 C977 1.386 . S
C976 C978 1.391 1_556 S
C977 C976 1.386 . S
C977 C981 1.393 . S
C978 H970 0.950 . S
C978 C976 1.391 1_554 S
C978 C979 1.400 1_554 S
C979 C978 1.400 1_556 S
C979 C980 1.398 . S
C979 C985 1.491 1_556 S
C980 H971 0.950 . S
C980 C979 1.398 . S
C980 C981 1.391 . S
C981 H969 0.950 . S
C981 C977 1.393 . S
C981 C980 1.391 . S
C982 H972 0.950 1_554 S
C982 C983 1.386 . S
C982 C984 1.391 1_554 S
C983 C982 1.386 . S
C983 C987 1.393 . S
C984 H973 0.950 . S
C984 C982 1.391 1_556 S
C984 C985 1.400 1_556 S
C985 C979 1.491 1_554 S
C985 C984 1.400 1_554 S
C985 C986 1.398 . S
C986 H974 0.950 . S
C986 C985 1.398 . S
C986 C987 1.391 . S
C987 H975 0.950 . S
C987 C983 1.393 . S
C987 C986 1.391 . S
H988 C996 0.944 1_556 S
H989 C1001 0.950 . S
H990 C998 0.950 . S
H991 C1000 0.950 . S
H992 C1002 0.950 1_554 S
H993 C1004 0.950 . S
H994 C1006 0.950 . S
H995 C1007 0.950 . S
C996 H988 0.944 1_554 S
C996 C997 1.386 . S
C996 C998 1.391 1_554 S
C997 C996 1.386 . S
C997 C1001 1.393 . S
C998 H990 0.950 . S
C998 C996 1.391 1_556 S
C998 C999 1.400 1_556 S
C999 C998 1.400 1_554 S
C999 C1000 1.398 . S
C999 C1005 1.491 1_554 S
C1000 H991 0.950 . S
C1000 C999 1.398 . S
C1000 C1001 1.391 . S
C1001 H989 0.950 . S
C1001 C997 1.393 . S
C1001 C1000 1.391 . S
C1002 H992 0.950 1_556 S
C1002 C1003 1.386 . S
C1002 C1004 1.391 1_556 S
C1003 C1002 1.386 . S
C1003 C1007 1.393 . S
C1004 H993 0.950 . S
C1004 C1002 1.391 1_554 S
C1004 C1005 1.400 1_554 S
C1005 C999 1.491 1_556 S
C1005 C1004 1.400 1_556 S
C1005 C1006 1.398 . S
C1006 H994 0.950 . S
C1006 C1005 1.398 . S
C1006 C1007 1.391 . S
C1007 H995 0.950 . S
C1007 C1003 1.393 . S
C1007 C1006 1.391 . S
H1008 C1016 0.950 . S
H1009 C1021 0.950 . S
H1010 C1018 0.950 . S
H1011 C1020 0.950 . S
H1012 C1022 0.950 . S
H1013 C1024 0.950 . S
H1014 C1026 0.950 . S
H1015 C1027 0.950 . S
C1016 H1008 0.950 . S
C1016 C1017 1.386 . S
C1016 C1018 1.391 . S
C1017 C1016 1.386 . S
C1017 C1021 1.393 . S
C1018 H1010 0.950 . S
C1018 C1016 1.391 . S
C1018 C1019 1.400 . S
C1019 C1018 1.400 . S
C1019 C1020 1.398 . S
C1019 C1025 1.491 . S
C1020 H1011 0.950 . S
C1020 C1019 1.398 . S
C1020 C1021 1.391 . S
C1021 H1009 0.950 . S
C1021 C1017 1.393 . S
C1021 C1020 1.391 . S
C1022 H1012 0.950 . S
C1022 C1023 1.386 . S
C1022 C1024 1.391 . S
C1023 C1022 1.386 . S
C1023 C1027 1.393 . S
C1024 H1013 0.950 . S
C1024 C1022 1.391 . S
C1024 C1025 1.400 . S
C1025 C1019 1.491 . S
C1025 C1024 1.400 . S
C1025 C1026 1.398 . S
C1026 H1014 0.950 . S
C1026 C1025 1.398 . S
C1026 C1027 1.391 . S
C1027 H1015 0.950 . S
C1027 C1023 1.393 . S
C1027 C1026 1.391 . S
H1028 C1036 0.950 . S
H1029 C1041 0.950 . S
H1030 C1038 0.950 . S
H1031 C1040 0.950 . S
H1032 C1042 0.950 . S
H1033 C1044 0.950 . S
H1034 C1046 0.950 . S
H1035 C1047 0.950 . S
C1036 H1028 0.950 . S
C1036 C1037 1.386 . S
C1036 C1038 1.391 . S
C1037 C1036 1.386 . S
C1037 C1041 1.393 . S
C1038 H1030 0.950 . S
C1038 C1036 1.391 . S
C1038 C1039 1.400 . S
C1039 C1038 1.400 . S
C1039 C1040 1.398 . S
C1039 C1045 1.491 . S
C1040 H1031 0.950 . S
C1040 C1039 1.398 . S
C1040 C1041 1.391 . S
C1041 H1029 0.950 . S
C1041 C1037 1.393 . S
C1041 C1040 1.391 . S
C1042 H1032 0.950 . S
C1042 C1043 1.386 . S
C1042 C1044 1.391 . S
C1043 C1042 1.386 . S
C1043 C1047 1.393 . S
C1044 H1033 0.950 . S
C1044 C1042 1.391 . S
C1044 C1045 1.400 . S
C1045 C1039 1.491 . S
C1045 C1044 1.400 . S
C1045 C1046 1.398 . S
C1046 H1034 0.950 . S
C1046 C1045 1.398 . S
C1046 C1047 1.391 . S
C1047 H1035 0.950 . S
C1047 C1043 1.393 . S
C1047 C1046 1.391 . S
H1048 C1056 0.950 . S
H1049 C1061 0.950 . S
H1050 C1058 0.950 . S
H1051 C1060 0.950 . S
H1052 C1062 0.950 . S
H1053 C1064 0.950 . S
H1054 C1066 0.950 . S
H1055 C1067 0.950 . S
C1056 H1048 0.950 . S
C1056 C1057 1.386 . S
C1056 C1058 1.391 . S
C1057 C1056 1.386 . S
C1057 C1061 1.393 . S
C1058 H1050 0.950 . S
C1058 C1056 1.391 . S
C1058 C1059 1.400 . S
C1059 C1058 1.400 . S
C1059 C1060 1.398 . S
C1059 C1065 1.491 . S
C1060 H1051 0.950 . S
C1060 C1059 1.398 . S
C1060 C1061 1.391 . S
C1061 H1049 0.950 . S
C1061 C1057 1.393 . S
C1061 C1060 1.391 . S
C1062 H1052 0.950 . S
C1062 C1063 1.386 . S
C1062 C1064 1.391 . S
C1063 C1062 1.386 . S
C1063 C1067 1.393 . S
C1064 H1053 0.950 . S
C1064 C1062 1.391 . S
C1064 C1065 1.400 . S
C1065 C1059 1.491 . S
C1065 C1064 1.400 . S
C1065 C1066 1.398 . S
C1066 H1054 0.950 . S
C1066 C1065 1.398 . S
C1066 C1067 1.391 . S
C1067 H1055 0.950 . S
C1067 C1063 1.393 . S
C1067 C1066 1.391 . S
H1068 C1076 0.950 . S
H1069 C1081 0.950 . S
H1070 C1078 0.950 . S
H1071 C1080 0.950 . S
H1072 C1082 0.950 . S
H1073 C1084 0.950 . S
H1074 C1086 0.950 . S
H1075 C1087 0.950 . S
C1076 H1068 0.950 . S
C1076 C1077 1.386 . S
C1076 C1078 1.391 . S
C1077 C1076 1.386 . S
C1077 C1081 1.393 . S
C1078 H1070 0.950 . S
C1078 C1076 1.391 . S
C1078 C1079 1.400 . S
C1079 C1078 1.400 . S
C1079 C1080 1.398 . S
C1079 C1085 1.491 . S
C1080 H1071 0.950 . S
C1080 C1079 1.398 . S
C1080 C1081 1.391 . S
C1081 H1069 0.950 . S
C1081 C1077 1.393 . S
C1081 C1080 1.391 . S
C1082 H1072 0.950 . S
C1082 C1083 1.386 . S
C1082 C1084 1.391 . S
C1083 C1082 1.386 . S
C1083 C1087 1.393 . S
C1084 H1073 0.950 . S
C1084 C1082 1.391 . S
C1084 C1085 1.400 . S
C1085 C1079 1.491 . S
C1085 C1084 1.400 . S
C1085 C1086 1.398 . S
C1086 H1074 0.950 . S
C1086 C1085 1.398 . S
C1086 C1087 1.391 . S
C1087 H1075 0.950 . S
C1087 C1083 1.393 . S
C1087 C1086 1.391 . S
H1088 C1096 0.950 . S
H1089 C1101 0.950 . S
H1090 C1098 0.950 . S
H1091 C1100 0.950 . S
H1092 C1102 0.950 . S
H1093 C1104 0.950 . S
H1094 C1106 0.950 . S
H1095 C1107 0.950 . S
C1096 H1088 0.950 . S
C1096 C1097 1.386 . S
C1096 C1098 1.391 . S
C1097 C1096 1.386 . S
C1097 C1101 1.393 . S
C1098 H1090 0.950 . S
C1098 C1096 1.391 . S
C1098 C1099 1.400 . S
C1099 C1098 1.400 . S
C1099 C1100 1.398 . S
C1099 C1105 1.491 . S
C1100 H1091 0.950 . S
C1100 C1099 1.398 . S
C1100 C1101 1.391 . S
C1101 H1089 0.950 . S
C1101 C1097 1.393 . S
C1101 C1100 1.391 . S
C1102 H1092 0.950 . S
C1102 C1103 1.386 . S
C1102 C1104 1.391 . S
C1103 C1102 1.386 . S
C1103 C1107 1.393 . S
C1104 H1093 0.950 . S
C1104 C1102 1.391 . S
C1104 C1105 1.400 . S
C1105 C1099 1.491 . S
C1105 C1104 1.400 . S
C1105 C1106 1.398 . S
C1106 H1094 0.950 . S
C1106 C1105 1.398 . S
C1106 C1107 1.391 . S
C1107 H1095 0.950 . S
C1107 C1103 1.393 . S
C1107 C1106 1.391 . S
H1108 C1116 0.950 . S
H1109 C1121 0.950 . S
H1110 C1118 0.950 . S
H1111 C1120 0.950 . S
H1112 C1122 0.950 . S
H1113 C1124 0.950 . S
H1114 C1126 0.950 . S
H1115 C1127 0.950 . S
C1116 H1108 0.950 . S
C1116 C1117 1.386 . S
C1116 C1118 1.391 . S
C1117 C1116 1.386 . S
C1117 C1121 1.393 . S
C1118 H1110 0.950 . S
C1118 C1116 1.391 . S
C1118 C1119 1.400 . S
C1119 C1118 1.400 . S
C1119 C1120 1.398 . S
C1119 C1125 1.491 . S
C1120 H1111 0.950 . S
C1120 C1119 1.398 . S
C1120 C1121 1.391 . S
C1121 H1109 0.950 . S
C1121 C1117 1.393 . S
C1121 C1120 1.391 . S
C1122 H1112 0.950 . S
C1122 C1123 1.386 . S
C1122 C1124 1.391 . S
C1123 C1122 1.386 . S
C1123 C1127 1.393 . S
C1124 H1113 0.950 . S
C1124 C1122 1.391 . S
C1124 C1125 1.400 . S
C1125 C1119 1.491 . S
C1125 C1124 1.400 . S
C1125 C1126 1.398 . S
C1126 H1114 0.950 . S
C1126 C1125 1.398 . S
C1126 C1127 1.391 . S
C1127 H1115 0.950 . S
C1127 C1123 1.393 . S
C1127 C1126 1.391 . S
H1128 C1136 0.950 . S
H1129 C1141 0.950 . S
H1130 C1138 0.950 . S
H1131 C1140 0.950 . S
H1132 C1142 0.950 . S
H1133 C1144 0.950 . S
H1134 C1146 0.950 . S
H1135 C1147 0.950 . S
C1136 H1128 0.950 . S
C1136 C1137 1.386 . S
C1136 C1138 1.391 . S
C1137 C1136 1.386 . S
C1137 C1141 1.393 . S
C1138 H1130 0.950 . S
C1138 C1136 1.391 . S
C1138 C1139 1.400 . S
C1139 C1138 1.400 . S
C1139 C1140 1.398 . S
C1139 C1145 1.491 . S
C1140 H1131 0.950 . S
C1140 C1139 1.398 . S
C1140 C1141 1.391 . S
C1141 H1129 0.950 . S
C1141 C1137 1.393 . S
C1141 C1140 1.391 . S
C1142 H1132 0.950 . S
C1142 C1143 1.386 . S
C1142 C1144 1.391 . S
C1143 C1142 1.386 . S
C1143 C1147 1.393 . S
C1144 H1133 0.950 . S
C1144 C1142 1.391 . S
C1144 C1145 1.400 . S
C1145 C1139 1.491 . S
C1145 C1144 1.400 . S
C1145 C1146 1.398 . S
C1146 H1134 0.950 . S
C1146 C1145 1.398 . S
C1146 C1147 1.391 . S
C1147 H1135 0.950 . S
C1147 C1143 1.393 . S
C1147 C1146 1.391 . S
H1148 C1156 0.950 . S
H1149 C1161 0.950 . S
H1150 C1158 0.950 . S
H1151 C1160 0.950 . S
H1152 C1162 0.950 . S
H1153 C1164 0.950 . S
H1154 C1166 0.950 . S
H1155 C1167 0.950 . S
C1156 H1148 0.950 . S
C1156 C1157 1.386 . S
C1156 C1158 1.391 . S
C1157 C1156 1.386 . S
C1157 C1161 1.393 . S
C1158 H1150 0.950 . S
C1158 C1156 1.391 . S
C1158 C1159 1.400 . S
C1159 C1158 1.400 . S
C1159 C1160 1.398 . S
C1159 C1165 1.491 . S
C1160 H1151 0.950 . S
C1160 C1159 1.398 . S
C1160 C1161 1.391 . S
C1161 H1149 0.950 . S
C1161 C1157 1.393 . S
C1161 C1160 1.391 . S
C1162 H1152 0.950 . S
C1162 C1163 1.386 . S
C1162 C1164 1.391 . S
C1163 C1162 1.386 . S
C1163 C1167 1.393 . S
C1164 H1153 0.950 . S
C1164 C1162 1.391 . S
C1164 C1165 1.400 . S
C1165 C1159 1.491 . S
C1165 C1164 1.400 . S
C1165 C1166 1.398 . S
C1166 H1154 0.950 . S
C1166 C1165 1.398 . S
C1166 C1167 1.391 . S
C1167 H1155 0.950 . S
C1167 C1163 1.393 . S
C1167 C1166 1.391 . S
H1168 C1176 0.950 . S
H1169 C1181 0.950 . S
H1170 C1178 0.950 . S
H1171 C1180 0.950 . S
H1172 C1182 0.950 . S
H1173 C1184 0.950 . S
H1174 C1186 0.950 . S
H1175 C1187 0.950 . S
C1176 H1168 0.950 . S
C1176 C1177 1.386 . S
C1176 C1178 1.391 . S
C1177 C1176 1.386 . S
C1177 C1181 1.393 . S
C1178 H1170 0.950 . S
C1178 C1176 1.391 . S
C1178 C1179 1.400 . S
C1179 C1178 1.400 . S
C1179 C1180 1.398 . S
C1179 C1185 1.491 . S
C1180 H1171 0.950 . S
C1180 C1179 1.398 . S
C1180 C1181 1.391 . S
C1181 H1169 0.950 . S
C1181 C1177 1.393 . S
C1181 C1180 1.391 . S
C1182 H1172 0.950 . S
C1182 C1183 1.386 . S
C1182 C1184 1.391 . S
C1183 C1182 1.386 . S
C1183 C1187 1.393 . S
C1184 H1173 0.950 . S
C1184 C1182 1.391 . S
C1184 C1185 1.400 . S
C1185 C1179 1.491 . S
C1185 C1184 1.400 . S
C1185 C1186 1.398 . S
C1186 H1174 0.950 . S
C1186 C1185 1.398 . S
C1186 C1187 1.391 . S
C1187 H1175 0.950 . S
C1187 C1183 1.393 . S
C1187 C1186 1.391 . S
H1188 C1196 0.950 . S
H1189 C1201 0.950 . S
H1190 C1198 0.950 . S
H1191 C1200 0.950 . S
H1192 C1202 0.950 . S
H1193 C1204 0.950 . S
H1194 C1206 0.950 . S
H1195 C1207 0.950 . S
C1196 H1188 0.950 . S
C1196 C1197 1.386 . S
C1196 C1198 1.391 . S
C1197 C1196 1.386 . S
C1197 C1201 1.393 . S
C1198 H1190 0.950 . S
C1198 C1196 1.391 . S
C1198 C1199 1.400 . S
C1199 C1198 1.400 . S
C1199 C1200 1.398 . S
C1199 C1205 1.491 . S
C1200 H1191 0.950 . S
C1200 C1199 1.398 . S
C1200 C1201 1.391 . S
C1201 H1189 0.950 . S
C1201 C1197 1.393 . S
C1201 C1200 1.391 . S
C1202 H1192 0.950 . S
C1202 C1203 1.386 . S
C1202 C1204 1.391 . S
C1203 C1202 1.386 . S
C1203 C1207 1.393 . S
C1204 H1193 0.950 . S
C1204 C1202 1.391 . S
C1204 C1205 1.400 . S
C1205 C1199 1.491 . S
C1205 C1204 1.400 . S
C1205 C1206 1.398 . S
C1206 H1194 0.950 . S
C1206 C1205 1.398 . S
C1206 C1207 1.391 . S
C1207 H1195 0.950 . S
C1207 C1203 1.393 . S
C1207 C1206 1.391 . S
H1208 C1216 0.950 . S
H1209 C1221 0.950 . S
H1210 C1218 0.950 . S
H1211 C1220 0.950 . S
H1212 C1222 0.950 . S
H1213 C1224 0.950 . S
H1214 C1226 0.950 . S
H1215 C1227 0.950 . S
C1216 H1208 0.950 . S
C1216 C1217 1.386 . S
C1216 C1218 1.391 . S
C1217 C1216 1.386 . S
C1217 C1221 1.393 . S
C1218 H1210 0.950 . S
C1218 C1216 1.391 . S
C1218 C1219 1.400 . S
C1219 C1218 1.400 . S
C1219 C1220 1.398 . S
C1219 C1225 1.491 . S
C1220 H1211 0.950 . S
C1220 C1219 1.398 . S
C1220 C1221 1.391 . S
C1221 H1209 0.950 . S
C1221 C1217 1.393 . S
C1221 C1220 1.391 . S
C1222 H1212 0.950 . S
C1222 C1223 1.386 . S
C1222 C1224 1.391 . S
C1223 C1222 1.386 . S
C1223 C1227 1.393 . S
C1224 H1213 0.950 . S
C1224 C1222 1.391 . S
C1224 C1225 1.400 . S
C1225 C1219 1.491 . S
C1225 C1224 1.400 . S
C1225 C1226 1.398 . S
C1226 H1214 0.950 . S
C1226 C1225 1.398 . S
C1226 C1227 1.391 . S
C1227 H1215 0.950 . S
C1227 C1223 1.393 . S
C1227 C1226 1.391 . S
H1228 C1236 0.950 . S
H1229 C1241 0.950 . S
H1230 C1238 0.950 . S
H1231 C1240 0.950 . S
H1232 C1242 0.950 . S
H1233 C1244 0.950 . S
H1234 C1246 0.950 . S
H1235 C1247 0.950 . S
C1236 H1228 0.950 . S
C1236 C1237 1.386 . S
C1236 C1238 1.391 . S
C1237 C1236 1.386 . S
C1237 C1241 1.393 . S
C1238 H1230 0.950 . S
C1238 C1236 1.391 . S
C1238 C1239 1.400 . S
C1239 C1238 1.400 . S
C1239 C1240 1.398 . S
C1239 C1245 1.491 . S
C1240 H1231 0.950 . S
C1240 C1239 1.398 . S
C1240 C1241 1.391 . S
C1241 H1229 0.950 . S
C1241 C1237 1.393 . S
C1241 C1240 1.391 . S
C1242 H1232 0.950 . S
C1242 C1243 1.386 . S
C1242 C1244 1.391 . S
C1243 C1242 1.386 . S
C1243 C1247 1.393 . S
C1244 H1233 0.950 . S
C1244 C1242 1.391 . S
C1244 C1245 1.400 . S
C1245 C1239 1.491 . S
C1245 C1244 1.400 . S
C1245 C1246 1.398 . S
C1246 H1234 0.950 . S
C1246 C1245 1.398 . S
C1246 C1247 1.391 . S
C1247 H1235 0.950 . S
C1247 C1243 1.393 . S
C1247 C1246 1.391 . S
H1248 C1256 0.950 . S
H1249 C1261 0.950 . S
H1250 C1258 0.950 . S
H1251 C1260 0.950 . S
H1252 C1262 0.950 . S
H1253 C1264 0.950 . S
H1254 C1266 0.950 . S
H1255 C1267 0.950 . S
C1256 H1248 0.950 . S
C1256 C1257 1.386 . S
C1256 C1258 1.391 . S
C1257 C1256 1.386 . S
C1257 C1261 1.393 . S
C1258 H1250 0.950 . S
C1258 C1256 1.391 . S
C1258 C1259 1.400 . S
C1259 C1258 1.400 . S
C1259 C1260 1.398 . S
C1259 C1265 1.491 . S
C1260 H1251 0.950 . S
C1260 C1259 1.398 . S
C1260 C1261 1.391 . S
C1261 H1249 0.950 . S
C1261 C1257 1.393 . S
C1261 C1260 1.391 . S
C1262 H1252 0.950 . S
C1262 C1263 1.386 . S
C1262 C1264 1.391 . S
C1263 C1262 1.386 . S
C1263 C1267 1.393 . S
C1264 H1253 0.950 . S
C1264 C1262 1.391 . S
C1264 C1265 1.400 . S
C1265 C1259 1.491 . S
C1265 C1264 1.400 . S
C1265 C1266 1.398 . S
C1266 H1254 0.950 . S
C1266 C1265 1.398 . S
C1266 C1267 1.391 . S
C1267 H1255 0.950 . S
C1267 C1263 1.393 . S
C1267 C1266 1.391 . S
H1268 C1276 0.950 . S
H1269 C1281 0.950 . S
H1270 C1278 0.950 . S
H1271 C1280 0.950 . S
H1272 C1282 0.950 . S
H1273 C1284 0.950 . S
H1274 C1286 0.950 . S
H1275 C1287 0.950 . S
C1276 H1268 0.950 . S
C1276 C1277 1.386 . S
C1276 C1278 1.391 . S
C1277 C1276 1.386 . S
C1277 C1281 1.393 . S
C1278 H1270 0.950 . S
C1278 C1276 1.391 . S
C1278 C1279 1.400 . S
C1279 C1278 1.400 . S
C1279 C1280 1.398 . S
C1279 C1285 1.491 . S
C1280 H1271 0.950 . S
C1280 C1279 1.398 . S
C1280 C1281 1.391 . S
C1281 H1269 0.950 . S
C1281 C1277 1.393 . S
C1281 C1280 1.391 . S
C1282 H1272 0.950 . S
C1282 C1283 1.386 . S
C1282 C1284 1.391 . S
C1283 C1282 1.386 . S
C1283 C1287 1.393 . S
C1284 H1273 0.950 . S
C1284 C1282 1.391 . S
C1284 C1285 1.400 . S
C1285 C1279 1.491 . S
C1285 C1284 1.400 . S
C1285 C1286 1.398 . S
C1286 H1274 0.950 . S
C1286 C1285 1.398 . S
C1286 C1287 1.391 . S
C1287 H1275 0.950 . S
C1287 C1283 1.393 . S
C1287 C1286 1.391 . S
H1288 C1296 0.950 . S
H1289 C1301 0.950 . S
H1290 C1298 0.950 . S
H1291 C1300 0.950 . S
H1292 C1302 0.950 . S
H1293 C1304 0.950 . S
H1294 C1306 0.950 . S
H1295 C1307 0.950 . S
C1296 H1288 0.950 . S
C1296 C1297 1.386 . S
C1296 C1298 1.391 . S
C1297 C1296 1.386 . S
C1297 C1301 1.393 . S
C1298 H1290 0.950 . S
C1298 C1296 1.391 . S
C1298 C1299 1.400 . S
C1299 C1298 1.400 . S
C1299 C1300 1.398 . S
C1299 C1305 1.491 . S
C1300 H1291 0.950 . S
C1300 C1299 1.398 . S
C1300 C1301 1.391 . S
C1301 H1289 0.950 . S
C1301 C1297 1.393 . S
C1301 C1300 1.391 . S
C1302 H1292 0.950 . S
C1302 C1303 1.386 . S
C1302 C1304 1.391 . S
C1303 C1302 1.386 . S
C1303 C1307 1.393 . S
C1304 H1293 0.950 . S
C1304 C1302 1.391 . S
C1304 C1305 1.400 . S
C1305 C1299 1.491 . S
C1305 C1304 1.400 . S
C1305 C1306 1.398 . S
C1306 H1294 0.950 . S
C1306 C1305 1.398 . S
C1306 C1307 1.391 . S
C1307 H1295 0.950 . S
C1307 C1303 1.393 . S
C1307 C1306 1.391 . S
H1308 C1316 0.950 . S
H1309 C1321 0.950 . S
H1310 C1318 0.950 . S
H1311 C1320 0.950 . S
H1312 C1322 0.950 . S
H1313 C1324 0.950 . S
H1314 C1326 0.950 . S
H1315 C1327 0.950 . S
C1316 H1308 0.950 . S
C1316 C1317 1.386 . S
C1316 C1318 1.391 . S
C1317 C1316 1.386 . S
C1317 C1321 1.393 . S
C1318 H1310 0.950 . S
C1318 C1316 1.391 . S
C1318 C1319 1.400 . S
C1319 C1318 1.400 . S
C1319 C1320 1.398 . S
C1319 C1325 1.491 . S
C1320 H1311 0.950 . S
C1320 C1319 1.398 . S
C1320 C1321 1.391 . S
C1321 H1309 0.950 . S
C1321 C1317 1.393 . S
C1321 C1320 1.391 . S
C1322 H1312 0.950 . S
C1322 C1323 1.386 . S
C1322 C1324 1.391 . S
C1323 C1322 1.386 . S
C1323 C1327 1.393 . S
C1324 H1313 0.950 . S
C1324 C1322 1.391 . S
C1324 C1325 1.400 . S
C1325 C1319 1.491 . S
C1325 C1324 1.400 . S
C1325 C1326 1.398 . S
C1326 H1314 0.950 . S
C1326 C1325 1.398 . S
C1326 C1327 1.391 . S
C1327 H1315 0.950 . S
C1327 C1323 1.393 . S
C1327 C1326 1.391 . S
H1328 C1336 0.950 . S
H1329 C1341 0.950 . S
H1330 C1338 0.950 . S
H1331 C1340 0.950 . S
H1332 C1342 0.950 . S
H1333 C1344 0.950 . S
H1334 C1346 0.950 . S
H1335 C1347 0.950 . S
C1336 H1328 0.950 . S
C1336 C1337 1.386 . S
C1336 C1338 1.391 . S
C1337 C1336 1.386 . S
C1337 C1341 1.393 . S
C1338 H1330 0.950 . S
C1338 C1336 1.391 . S
C1338 C1339 1.400 . S
C1339 C1338 1.400 . S
C1339 C1340 1.398 . S
C1339 C1345 1.491 . S
C1340 H1331 0.950 . S
C1340 C1339 1.398 . S
C1340 C1341 1.391 . S
C1341 H1329 0.950 . S
C1341 C1337 1.393 . S
C1341 C1340 1.391 . S
C1342 H1332 0.950 . S
C1342 C1343 1.386 . S
C1342 C1344 1.391 . S
C1343 C1342 1.386 . S
C1343 C1347 1.393 . S
C1344 H1333 0.950 . S
C1344 C1342 1.391 . S
C1344 C1345 1.400 . S
C1345 C1339 1.491 . S
C1345 C1344 1.400 . S
C1345 C1346 1.398 . S
C1346 H1334 0.950 . S
C1346 C1345 1.398 . S
C1346 C1347 1.391 . S
C1347 H1335 0.950 . S
C1347 C1343 1.393 . S
C1347 C1346 1.391 . S
H1348 C1356 0.950 . S
H1349 C1361 0.950 . S
H1350 C1358 0.950 . S
H1351 C1360 0.950 . S
H1352 C1362 0.950 . S
H1353 C1364 0.950 . S
H1354 C1366 0.950 . S
H1355 C1367 0.950 . S
C1356 H1348 0.950 . S
C1356 C1357 1.386 . S
C1356 C1358 1.391 . S
C1357 C1356 1.386 . S
C1357 C1361 1.393 . S
C1358 H1350 0.950 . S
C1358 C1356 1.391 . S
C1358 C1359 1.400 . S
C1359 C1358 1.400 . S
C1359 C1360 1.398 . S
C1359 C1365 1.491 . S
C1360 H1351 0.950 . S
C1360 C1359 1.398 . S
C1360 C1361 1.391 . S
C1361 H1349 0.950 . S
C1361 C1357 1.393 . S
C1361 C1360 1.391 . S
C1362 H1352 0.950 . S
C1362 C1363 1.386 . S
C1362 C1364 1.391 . S
C1363 C1362 1.386 . S
C1363 C1367 1.393 . S
C1364 H1353 0.950 . S
C1364 C1362 1.391 . S
C1364 C1365 1.400 . S
C1365 C1359 1.491 . S
C1365 C1364 1.400 . S
C1365 C1366 1.398 . S
C1366 H1354 0.950 . S
C1366 C1365 1.398 . S
C1366 C1367 1.391 . S
C1367 H1355 0.950 . S
C1367 C1363 1.393 . S
C1367 C1366 1.391 . S
H1368 C1376 0.950 . S
H1369 C1381 0.950 . S
H1370 C1378 0.950 . S
H1371 C1380 0.950 . S
H1372 C1382 0.950 . S
H1373 C1384 0.950 . S
H1374 C1386 0.950 . S
H1375 C1387 0.950 . S
C1376 H1368 0.950 . S
C1376 C1377 1.386 . S
C1376 C1378 1.391 . S
C1377 C1376 1.386 . S
C1377 C1381 1.393 . S
C1378 H1370 0.950 . S
C1378 C1376 1.391 . S
C1378 C1379 1.400 . S
C1379 C1378 1.400 . S
C1379 C1380 1.398 . S
C1379 C1385 1.491 . S
C1380 H1371 0.950 . S
C1380 C1379 1.398 . S
C1380 C1381 1.391 . S
C1381 H1369 0.950 . S
C1381 C1377 1.393 . S
C1381 C1380 1.391 . S
C1382 H1372 0.950 . S
C1382 C1383 1.386 . S
C1382 C1384 1.391 . S
C1383 C1382 1.386 . S
C1383 C1387 1.393 . S
C1384 H1373 0.950 . S
C1384 C1382 1.391 . S
C1384 C1385 1.400 . S
C1385 C1379 1.491 . S
C1385 C1384 1.400 . S
C1385 C1386 1.398 . S
C1386 H1374 0.950 . S
C1386 C1385 1.398 . S
C1386 C1387 1.391 . S
C1387 H1375 0.950 . S
C1387 C1383 1.393 . S
C1387 C1386 1.391 . S
H1388 C1396 0.950 . S
H1389 C1401 0.950 . S
H1390 C1398 0.950 . S
H1391 C1400 0.950 . S
H1392 C1402 0.950 . S
H1393 C1404 0.950 . S
H1394 C1406 0.950 . S
H1395 C1407 0.950 . S
C1396 H1388 0.950 . S
C1396 C1397 1.386 . S
C1396 C1398 1.391 . S
C1397 C1396 1.386 . S
C1397 C1401 1.393 . S
C1398 H1390 0.950 . S
C1398 C1396 1.391 . S
C1398 C1399 1.400 . S
C1399 C1398 1.400 . S
C1399 C1400 1.398 . S
C1399 C1405 1.491 . S
C1400 H1391 0.950 . S
C1400 C1399 1.398 . S
C1400 C1401 1.391 . S
C1401 H1389 0.950 . S
C1401 C1397 1.393 . S
C1401 C1400 1.391 . S
C1402 H1392 0.950 . S
C1402 C1403 1.386 . S
C1402 C1404 1.391 . S
C1403 C1402 1.386 . S
C1403 C1407 1.393 . S
C1404 H1393 0.950 . S
C1404 C1402 1.391 . S
C1404 C1405 1.400 . S
C1405 C1399 1.491 . S
C1405 C1404 1.400 . S
C1405 C1406 1.398 . S
C1406 H1394 0.950 . S
C1406 C1405 1.398 . S
C1406 C1407 1.391 . S
C1407 H1395 0.950 . S
C1407 C1403 1.393 . S
C1407 C1406 1.391 . S
H1408 C1416 0.950 . S
H1409 C1421 0.950 . S
H1410 C1418 0.950 . S
H1411 C1420 0.950 . S
H1412 C1422 0.950 . S
H1413 C1424 0.950 . S
H1414 C1426 0.950 . S
H1415 C1427 0.950 . S
C1416 H1408 0.950 . S
C1416 C1417 1.386 . S
C1416 C1418 1.391 . S
C1417 C1416 1.386 . S
C1417 C1421 1.393 . S
C1418 H1410 0.950 . S
C1418 C1416 1.391 . S
C1418 C1419 1.400 . S
C1419 C1418 1.400 . S
C1419 C1420 1.398 . S
C1419 C1425 1.491 . S
C1420 H1411 0.950 . S
C1420 C1419 1.398 . S
C1420 C1421 1.391 . S
C1421 H1409 0.950 . S
C1421 C1417 1.393 . S
C1421 C1420 1.391 . S
C1422 H1412 0.950 . S
C1422 C1423 1.386 . S
C1422 C1424 1.391 . S
C1423 C1422 1.386 . S
C1423 C1427 1.393 . S
C1424 H1413 0.950 . S
C1424 C1422 1.391 . S
C1424 C1425 1.400 . S
C1425 C1419 1.491 . S
C1425 C1424 1.400 . S
C1425 C1426 1.398 . S
C1426 H1414 0.950 . S
C1426 C1425 1.398 . S
C1426 C1427 1.391 . S
C1427 H1415 0.950 . S
C1427 C1423 1.393 . S
C1427 C1426 1.391 . S
H1428 C1436 0.950 . S
H1429 C1441 0.950 . S
H1430 C1438 0.950 . S
H1431 C1440 0.950 . S
H1432 C1442 0.950 . S
H1433 C1444 0.950 . S
H1434 C1446 0.950 . S
H1435 C1447 0.950 . S
C1436 H1428 0.950 . S
C1436 C1437 1.386 . S
C1436 C1438 1.391 . S
C1437 C1436 1.386 . S
C1437 C1441 1.393 . S
C1438 H1430 0.950 . S
C1438 C1436 1.391 . S
C1438 C1439 1.400 . S
C1439 C1438 1.400 . S
C1439 C1440 1.398 . S
C1439 C1445 1.491 . S
C1440 H1431 0.950 . S
C1440 C1439 1.398 . S
C1440 C1441 1.391 . S
C1441 H1429 0.950 . S
C1441 C1437 1.393 . S
C1441 C1440 1.391 . S
C1442 H1432 0.950 . S
C1442 C1443 1.386 . S
C1442 C1444 1.391 . S
C1443 C1442 1.386 . S
C1443 C1447 1.393 . S
C1444 H1433 0.950 . S
C1444 C1442 1.391 . S
C1444 C1445 1.400 . S
C1445 C1439 1.491 . S
C1445 C1444 1.400 . S
C1445 C1446 1.398 . S
C1446 H1434 0.950 . S
C1446 C1445 1.398 . S
C1446 C1447 1.391 . S
C1447 H1435 0.950 . S
C1447 C1443 1.393 . S
C1447 C1446 1.391 . S
H1448 C1456 0.950 . S
H1449 C1461 0.950 . S
H1450 C1458 0.950 . S
H1451 C1460 0.950 . S
H1452 C1462 0.950 . S
H1453 C1464 0.950 . S
H1454 C1466 0.950 . S
H1455 C1467 0.950 . S
C1456 H1448 0.950 . S
C1456 C1457 1.386 . S
C1456 C1458 1.391 . S
C1457 C1456 1.386 . S
C1457 C1461 1.393 . S
C1458 H1450 0.950 . S
C1458 C1456 1.391 . S
C1458 C1459 1.400 . S
C1459 C1458 1.400 . S
C1459 C1460 1.398 . S
C1459 C1465 1.491 . S
C1460 H1451 0.950 . S
C1460 C1459 1.398 . S
C1460 C1461 1.391 . S
C1461 H1449 0.950 . S
C1461 C1457 1.393 . S
C1461 C1460 1.391 . S
C1462 H1452 0.950 . S
C1462 C1463 1.386 . S
C1462 C1464 1.391 . S
C1463 C1462 1.386 . S
C1463 C1467 1.393 . S
C1464 H1453 0.950 . S
C1464 C1462 1.391 . S
C1464 C1465 1.400 . S
C1465 C1459 1.491 . S
C1465 C1464 1.400 . S
C1465 C1466 1.398 . S
C1466 H1454 0.950 . S
C1466 C1465 1.398 . S
C1466 C1467 1.391 . S
C1467 H1455 0.950 . S
C1467 C1463 1.393 . S
C1467 C1466 1.391 . S
H1468 C1476 0.950 . S
H1469 C1481 0.950 . S
H1470 C1478 0.950 . S
H1471 C1480 0.950 . S
H1472 C1482 0.950 . S
H1473 C1484 0.950 . S
H1474 C1486 0.950 . S
H1475 C1487 0.950 . S
C1476 H1468 0.950 . S
C1476 C1477 1.386 . S
C1476 C1478 1.391 . S
C1477 C1476 1.386 . S
C1477 C1481 1.393 . S
C1478 H1470 0.950 . S
C1478 C1476 1.391 . S
C1478 C1479 1.400 . S
C1479 C1478 1.400 . S
C1479 C1480 1.398 . S
C1479 C1485 1.491 . S
C1480 H1471 0.950 . S
C1480 C1479 1.398 . S
C1480 C1481 1.391 . S
C1481 H1469 0.950 . S
C1481 C1477 1.393 . S
C1481 C1480 1.391 . S
C1482 H1472 0.950 . S
C1482 C1483 1.386 . S
C1482 C1484 1.391 . S
C1483 C1482 1.386 . S
C1483 C1487 1.393 . S
C1484 H1473 0.950 . S
C1484 C1482 1.391 . S
C1484 C1485 1.400 . S
C1485 C1479 1.491 . S
C1485 C1484 1.400 . S
C1485 C1486 1.398 . S
C1486 H1474 0.950 . S
C1486 C1485 1.398 . S
C1486 C1487 1.391 . S
C1487 H1475 0.950 . S
C1487 C1483 1.393 . S
C1487 C1486 1.391 . S
H1488 C1496 0.950 . S
H1489 C1501 0.950 . S
H1490 C1498 0.950 . S
H1491 C1500 0.950 . S
H1492 C1502 0.950 . S
H1493 C1504 0.950 . S
H1494 C1506 0.950 . S
H1495 C1507 0.950 . S
C1496 H1488 0.950 . S
C1496 C1497 1.386 . S
C1496 C1498 1.391 . S
C1497 C1496 1.386 . S
C1497 C1501 1.393 . S
C1498 H1490 0.950 . S
C1498 C1496 1.391 . S
C1498 C1499 1.400 . S
C1499 C1498 1.400 . S
C1499 C1500 1.398 . S
C1499 C1505 1.491 . S
C1500 H1491 0.950 . S
C1500 C1499 1.398 . S
C1500 C1501 1.391 . S
C1501 H1489 0.950 . S
C1501 C1497 1.393 . S
C1501 C1500 1.391 . S
C1502 H1492 0.950 . S
C1502 C1503 1.386 . S
C1502 C1504 1.391 . S
C1503 C1502 1.386 . S
C1503 C1507 1.393 . S
C1504 H1493 0.950 . S
C1504 C1502 1.391 . S
C1504 C1505 1.400 . S
C1505 C1499 1.491 . S
C1505 C1504 1.400 . S
C1505 C1506 1.398 . S
C1506 H1494 0.950 . S
C1506 C1505 1.398 . S
C1506 C1507 1.391 . S
C1507 H1495 0.950 . S
C1507 C1503 1.393 . S
C1507 C1506 1.391 . S
H1508 C1516 0.950 . S
H1509 C1521 0.950 . S
H1510 C1518 0.950 . S
H1511 C1520 0.950 . S
H1512 C1522 0.950 . S
H1513 C1524 0.950 . S
H1514 C1526 0.950 . S
H1515 C1527 0.950 . S
C1516 H1508 0.950 . S
C1516 C1517 1.386 . S
C1516 C1518 1.391 . S
C1517 C1516 1.386 . S
C1517 C1521 1.393 . S
C1518 H1510 0.950 . S
C1518 C1516 1.391 . S
C1518 C1519 1.400 . S
C1519 C1518 1.400 . S
C1519 C1520 1.398 . S
C1519 C1525 1.491 . S
C1520 H1511 0.950 . S
C1520 C1519 1.398 . S
C1520 C1521 1.391 . S
C1521 H1509 0.950 . S
C1521 C1517 1.393 . S
C1521 C1520 1.391 . S
C1522 H1512 0.950 . S
C1522 C1523 1.386 . S
C1522 C1524 1.391 . S
C1523 C1522 1.386 . S
C1523 C1527 1.393 . S
C1524 H1513 0.950 . S
C1524 C1522 1.391 . S
C1524 C1525 1.400 . S
C1525 C1519 1.491 . S
C1525 C1524 1.400 . S
C1525 C1526 1.398 . S
C1526 H1514 0.950 . S
C1526 C1525 1.398 . S
C1526 C1527 1.391 . S
C1527 H1515 0.950 . S
C1527 C1523 1.393 . S
C1527 C1526 1.391 . S
H1528 C1536 0.950 . S
H1529 C1541 0.950 . S
H1530 C1538 0.950 . S
H1531 C1540 0.950 . S
H1532 C1542 0.950 . S
H1533 C1544 0.950 . S
H1534 C1546 0.950 . S
H1535 C1547 0.950 . S
C1536 H1528 0.950 . S
C1536 C1537 1.386 . S
C1536 C1538 1.391 . S
C1537 C1536 1.386 . S
C1537 C1541 1.393 . S
C1538 H1530 0.950 . S
C1538 C1536 1.391 . S
C1538 C1539 1.400 . S
C1539 C1538 1.400 . S
C1539 C1540 1.398 . S
C1539 C1545 1.491 . S
C1540 H1531 0.950 . S
C1540 C1539 1.398 . S
C1540 C1541 1.391 . S
C1541 H1529 0.950 . S
C1541 C1537 1.393 . S
C1541 C1540 1.391 . S
C1542 H1532 0.950 . S
C1542 C1543 1.386 . S
C1542 C1544 1.391 . S
C1543 C1542 1.386 . S
C1543 C1547 1.393 . S
C1544 H1533 0.950 . S
C1544 C1542 1.391 . S
C1544 C1545 1.400 . S
C1545 C1539 1.491 . S
C1545 C1544 1.400 . S
C1545 C1546 1.398 . S
C1546 H1534 0.950 . S
C1546 C1545 1.398 . S
C1546 C1547 1.391 . S
C1547 H1535 0.950 . S
C1547 C1543 1.393 . S
C1547 C1546 1.391 . S
H1548 C1556 0.950 . S
H1549 C1561 0.950 . S
H1550 C1558 0.950 . S
H1551 C1560 0.950 . S
H1552 C1562 0.950 . S
H1553 C1564 0.950 . S
H1554 C1566 0.950 . S
H1555 C1567 0.950 . S
C1556 H1548 0.950 . S
C1556 C1557 1.386 . S
C1556 C1558 1.391 . S
C1557 C1556 1.386 . S
C1557 C1561 1.393 . S
C1558 H1550 0.950 . S
C1558 C1556 1.391 . S
C1558 C1559 1.400 . S
C1559 C1558 1.400 . S
C1559 C1560 1.398 . S
C1559 C1565 1.491 . S
C1560 H1551 0.950 . S
C1560 C1559 1.398 . S
C1560 C1561 1.391 . S
C1561 H1549 0.950 . S
C1561 C1557 1.393 . S
C1561 C1560 1.391 . S
C1562 H1552 0.950 . S
C1562 C1563 1.386 . S
C1562 C1564 1.391 . S
C1563 C1562 1.386 . S
C1563 C1567 1.393 . S
C1564 H1553 0.950 . S
C1564 C1562 1.391 . S
C1564 C1565 1.400 . S
C1565 C1559 1.491 . S
C1565 C1564 1.400 . S
C1565 C1566 1.398 . S
C1566 H1554 0.950 . S
C1566 C1565 1.398 . S
C1566 C1567 1.391 . S
C1567 H1555 0.950 . S
C1567 C1563 1.393 . S
C1567 C1566 1.391 . S
H1568 C1576 0.950 . S
H1569 C1581 0.950 . S
H1570 C1578 0.950 . S
H1571 C1580 0.950 . S
H1572 C1582 0.950 . S
H1573 C1584 0.950 . S
H1574 C1586 0.950 . S
H1575 C1587 0.950 . S
C1576 H1568 0.950 . S
C1576 C1577 1.386 . S
C1576 C1578 1.391 . S
C1577 C1576 1.386 . S
C1577 C1581 1.393 . S
C1578 H1570 0.950 . S
C1578 C1576 1.391 . S
C1578 C1579 1.400 . S
C1579 C1578 1.400 . S
C1579 C1580 1.398 . S
C1579 C1585 1.491 . S
C1580 H1571 0.950 . S
C1580 C1579 1.398 . S
C1580 C1581 1.391 . S
C1581 H1569 0.950 . S
C1581 C1577 1.393 . S
C1581 C1580 1.391 . S
C1582 H1572 0.950 . S
C1582 C1583 1.386 . S
C1582 C1584 1.391 . S
C1583 C1582 1.386 . S
C1583 C1587 1.393 . S
C1584 H1573 0.950 . S
C1584 C1582 1.391 . S
C1584 C1585 1.400 . S
C1585 C1579 1.491 . S
C1585 C1584 1.400 . S
C1585 C1586 1.398 . S
C1586 H1574 0.950 . S
C1586 C1585 1.398 . S
C1586 C1587 1.391 . S
C1587 H1575 0.950 . S
C1587 C1583 1.393 . S
C1587 C1586 1.391 . S
H1588 C1596 0.950 . S
H1589 C1601 0.950 . S
H1590 C1598 0.950 . S
H1591 C1600 0.950 . S
H1592 C1602 0.950 . S
H1593 C1604 0.950 . S
H1594 C1606 0.950 . S
H1595 C1607 0.950 . S
C1596 H1588 0.950 . S
C1596 C1597 1.386 . S
C1596 C1598 1.391 . S
C1597 C1596 1.386 . S
C1597 C1601 1.393 . S
C1598 H1590 0.950 . S
C1598 C1596 1.391 . S
C1598 C1599 1.400 . S
C1599 C1598 1.400 . S
C1599 C1600 1.398 . S
C1599 C1605 1.491 . S
C1600 H1591 0.950 . S
C1600 C1599 1.398 . S
C1600 C1601 1.391 . S
C1601 H1589 0.950 . S
C1601 C1597 1.393 . S
C1601 C1600 1.391 . S
C1602 H1592 0.950 . S
C1602 C1603 1.386 . S
C1602 C1604 1.391 . S
C1603 C1602 1.386 . S
C1603 C1607 1.393 . S
C1604 H1593 0.950 . S
C1604 C1602 1.391 . S
C1604 C1605 1.400 . S
C1605 C1599 1.491 . S
C1605 C1604 1.400 . S
C1605 C1606 1.398 . S
C1606 H1594 0.950 . S
C1606 C1605 1.398 . S
C1606 C1607 1.391 . S
C1607 H1595 0.950 . S
C1607 C1603 1.393 . S
C1607 C1606 1.391 . S
H1608 C1616 0.950 . S
H1609 C1621 0.950 . S
H1610 C1618 0.950 . S
H1611 C1620 0.950 . S
H1612 C1622 0.950 . S
H1613 C1624 0.950 . S
H1614 C1626 0.950 . S
H1615 C1627 0.950 . S
C1616 H1608 0.950 . S
C1616 C1617 1.386 . S
C1616 C1618 1.391 . S
C1617 C1616 1.386 . S
C1617 C1621 1.393 . S
C1618 H1610 0.950 . S
C1618 C1616 1.391 . S
C1618 C1619 1.400 . S
C1619 C1618 1.400 . S
C1619 C1620 1.398 . S
C1619 C1625 1.491 . S
C1620 H1611 0.950 . S
C1620 C1619 1.398 . S
C1620 C1621 1.391 . S
C1621 H1609 0.950 . S
C1621 C1617 1.393 . S
C1621 C1620 1.391 . S
C1622 H1612 0.950 . S
C1622 C1623 1.386 . S
C1622 C1624 1.391 . S
C1623 C1622 1.386 . S
C1623 C1627 1.393 . S
C1624 H1613 0.950 . S
C1624 C1622 1.391 . S
C1624 C1625 1.400 . S
C1625 C1619 1.491 . S
C1625 C1624 1.400 . S
C1625 C1626 1.398 . S
C1626 H1614 0.950 . S
C1626 C1625 1.398 . S
C1626 C1627 1.391 . S
C1627 H1615 0.950 . S
C1627 C1623 1.393 . S
C1627 C1626 1.391 . S
H1628 C1636 0.950 . S
H1629 C1641 0.950 . S
H1630 C1638 0.950 . S
H1631 C1640 0.950 . S
H1632 C1642 0.950 . S
H1633 C1644 0.950 . S
H1634 C1646 0.950 . S
H1635 C1647 0.950 . S
C1636 H1628 0.950 . S
C1636 C1637 1.386 . S
C1636 C1638 1.391 . S
C1637 C1636 1.386 . S
C1637 C1641 1.393 . S
C1638 H1630 0.950 . S
C1638 C1636 1.391 . S
C1638 C1639 1.400 . S
C1639 C1638 1.400 . S
C1639 C1640 1.398 . S
C1639 C1645 1.491 . S
C1640 H1631 0.950 . S
C1640 C1639 1.398 . S
C1640 C1641 1.391 . S
C1641 H1629 0.950 . S
C1641 C1637 1.393 . S
C1641 C1640 1.391 . S
C1642 H1632 0.950 . S
C1642 C1643 1.386 . S
C1642 C1644 1.391 . S
C1643 C1642 1.386 . S
C1643 C1647 1.393 . S
C1644 H1633 0.950 . S
C1644 C1642 1.391 . S
C1644 C1645 1.400 . S
C1645 C1639 1.491 . S
C1645 C1644 1.400 . S
C1645 C1646 1.398 . S
C1646 H1634 0.950 . S
C1646 C1645 1.398 . S
C1646 C1647 1.391 . S
C1647 H1635 0.950 . S
C1647 C1643 1.393 . S
C1647 C1646 1.391 . S
H1648 C1656 0.950 . S
H1649 C1661 0.950 . S
H1650 C1658 0.950 . S
H1651 C1660 0.950 . S
H1652 C1662 0.950 . S
H1653 C1664 0.950 . S
H1654 C1666 0.950 . S
H1655 C1667 0.950 . S
C1656 H1648 0.950 . S
C1656 C1657 1.386 . S
C1656 C1658 1.391 . S
C1657 C1656 1.386 . S
C1657 C1661 1.393 . S
C1658 H1650 0.950 . S
C1658 C1656 1.391 . S
C1658 C1659 1.400 . S
C1659 C1658 1.400 . S
C1659 C1660 1.398 . S
C1659 C1665 1.491 . S
C1660 H1651 0.950 . S
C1660 C1659 1.398 . S
C1660 C1661 1.391 . S
C1661 H1649 0.950 . S
C1661 C1657 1.393 . S
C1661 C1660 1.391 . S
C1662 H1652 0.950 . S
C1662 C1663 1.386 . S
C1662 C1664 1.391 . S
C1663 C1662 1.386 . S
C1663 C1667 1.393 . S
C1664 H1653 0.950 . S
C1664 C1662 1.391 . S
C1664 C1665 1.400 . S
C1665 C1659 1.491 . S
C1665 C1664 1.400 . S
C1665 C1666 1.398 . S
C1666 H1654 0.950 . S
C1666 C1665 1.398 . S
C1666 C1667 1.391 . S
C1667 H1655 0.950 . S
C1667 C1663 1.393 . S
C1667 C1666 1.391 . S
H1668 C1676 0.950 . S
H1669 C1681 0.950 . S
H1670 C1678 0.950 . S
H1671 C1680 0.950 . S
H1672 C1682 0.950 . S
H1673 C1684 0.950 . S
H1674 C1686 0.950 . S
H1675 C1687 0.950 . S
C1676 H1668 0.950 . S
C1676 C1677 1.386 . S
C1676 C1678 1.391 . S
C1677 C1676 1.386 . S
C1677 C1681 1.393 . S
C1678 H1670 0.950 . S
C1678 C1676 1.391 . S
C1678 C1679 1.400 . S
C1679 C1678 1.400 . S
C1679 C1680 1.398 . S
C1679 C1685 1.491 . S
C1680 H1671 0.950 . S
C1680 C1679 1.398 . S
C1680 C1681 1.391 . S
C1681 H1669 0.950 . S
C1681 C1677 1.393 . S
C1681 C1680 1.391 . S
C1682 H1672 0.950 . S
C1682 C1683 1.386 . S
C1682 C1684 1.391 . S
C1683 C1682 1.386 . S
C1683 C1687 1.393 . S
C1684 H1673 0.950 . S
C1684 C1682 1.391 . S
C1684 C1685 1.400 . S
C1685 C1679 1.491 . S
C1685 C1684 1.400 . S
C1685 C1686 1.398 . S
C1686 H1674 0.950 . S
C1686 C1685 1.398 . S
C1686 C1687 1.391 . S
C1687 H1675 0.950 . S
C1687 C1683 1.393 . S
C1687 C1686 1.391 . S
H1688 C1696 0.950 . S
H1689 C1701 0.950 . S
H1690 C1698 0.950 . S
H1691 C1700 0.950 . S
H1692 C1702 0.950 . S
H1693 C1704 0.950 . S
H1694 C1706 0.950 . S
H1695 C1707 0.950 . S
C1696 H1688 0.950 . S
C1696 C1697 1.386 . S
C1696 C1698 1.391 . S
C1697 C1696 1.386 . S
C1697 C1701 1.393 . S
C1698 H1690 0.950 . S
C1698 C1696 1.391 . S
C1698 C1699 1.400 . S
C1699 C1698 1.400 . S
C1699 C1700 1.398 . S
C1699 C1705 1.491 . S
C1700 H1691 0.950 . S
C1700 C1699 1.398 . S
C1700 C1701 1.391 . S
C1701 H1689 0.950 . S
C1701 C1697 1.393 . S
C1701 C1700 1.391 . S
C1702 H1692 0.950 . S
C1702 C1703 1.386 . S
C1702 C1704 1.391 . S
C1703 C1702 1.386 . S
C1703 C1707 1.393 . S
C1704 H1693 0.950 . S
C1704 C1702 1.391 . S
C1704 C1705 1.400 . S
C1705 C1699 1.491 . S
C1705 C1704 1.400 . S
C1705 C1706 1.398 . S
C1706 H1694 0.950 . S
C1706 C1705 1.398 . S
C1706 C1707 1.391 . S
C1707 H1695 0.950 . S
C1707 C1703 1.393 . S
C1707 C1706 1.391 . S
H1708 C1716 0.950 . S
H1709 C1721 0.950 . S
H1710 C1718 0.950 . S
H1711 C1720 0.950 . S
H1712 C1722 0.950 . S
H1713 C1724 0.950 . S
H1714 C1726 0.950 . S
H1715 C1727 0.950 . S
C1716 H1708 0.950 . S
C1716 C1717 1.386 . S
C1716 C1718 1.391 . S
C1717 C1716 1.386 . S
C1717 C1721 1.393 . S
C1718 H1710 0.950 . S
C1718 C1716 1.391 . S
C1718 C1719 1.400 . S
C1719 C1718 1.400 . S
C1719 C1720 1.398 . S
C1719 C1725 1.491 . S
C1720 H1711 0.950 . S
C1720 C1719 1.398 . S
C1720 C1721 1.391 . S
C1721 H1709 0.950 . S
C1721 C1717 1.393 . S
C1721 C1720 1.391 . S
C1722 H1712 0.950 . S
C1722 C1723 1.386 . S
C1722 C1724 1.391 . S
C1723 C1722 1.386 . S
C1723 C1727 1.393 . S
C1724 H1713 0.950 . S
C1724 C1722 1.391 . S
C1724 C1725 1.400 . S
C1725 C1719 1.491 . S
C1725 C1724 1.400 . S
C1725 C1726 1.398 . S
C1726 H1714 0.950 . S
C1726 C1725 1.398 . S
C1726 C1727 1.391 . S
C1727 H1715 0.950 . S
C1727 C1723 1.393 . S
C1727 C1726 1.391 . S
H1728 C1736 0.950 . S
H1729 C1741 0.950 . S
H1730 C1738 0.950 . S
H1731 C1740 0.950 . S
H1732 C1742 0.950 . S
H1733 C1744 0.950 . S
H1734 C1746 0.950 . S
H1735 C1747 0.950 . S
C1736 H1728 0.950 . S
C1736 C1737 1.386 . S
C1736 C1738 1.391 . S
C1737 C1736 1.386 . S
C1737 C1741 1.393 . S
C1738 H1730 0.950 . S
C1738 C1736 1.391 . S
C1738 C1739 1.400 . S
C1739 C1738 1.400 . S
C1739 C1740 1.398 . S
C1739 C1745 1.491 . S
C1740 H1731 0.950 . S
C1740 C1739 1.398 . S
C1740 C1741 1.391 . S
C1741 H1729 0.950 . S
C1741 C1737 1.393 . S
C1741 C1740 1.391 . S
C1742 H1732 0.950 . S
C1742 C1743 1.386 . S
C1742 C1744 1.391 . S
C1743 C1742 1.386 . S
C1743 C1747 1.393 . S
C1744 H1733 0.950 . S
C1744 C1742 1.391 . S
C1744 C1745 1.400 . S
C1745 C1739 1.491 . S
C1745 C1744 1.400 . S
C1745 C1746 1.398 . S
C1746 H1734 0.950 . S
C1746 C1745 1.398 . S
C1746 C1747 1.391 . S
C1747 H1735 0.950 . S
C1747 C1743 1.393 . S
C1747 C1746 1.391 . S
H1748 C1756 0.950 . S
H1749 C1761 0.950 . S
H1750 C1758 0.950 . S
H1751 C1760 0.950 . S
H1752 C1762 0.950 . S
H1753 C1764 0.950 . S
H1754 C1766 0.950 . S
H1755 C1767 0.950 . S
C1756 H1748 0.950 . S
C1756 C1757 1.386 . S
C1756 C1758 1.391 . S
C1757 C1756 1.386 . S
C1757 C1761 1.393 . S
C1758 H1750 0.950 . S
C1758 C1756 1.391 . S
C1758 C1759 1.400 . S
C1759 C1758 1.400 . S
C1759 C1760 1.398 . S
C1759 C1765 1.491 . S
C1760 H1751 0.950 . S
C1760 C1759 1.398 . S
C1760 C1761 1.391 . S
C1761 H1749 0.950 . S
C1761 C1757 1.393 . S
C1761 C1760 1.391 . S
C1762 H1752 0.950 . S
C1762 C1763 1.386 . S
C1762 C1764 1.391 . S
C1763 C1762 1.386 . S
C1763 C1767 1.393 . S
C1764 H1753 0.950 . S
C1764 C1762 1.391 . S
C1764 C1765 1.400 . S
C1765 C1759 1.491 . S
C1765 C1764 1.400 . S
C1765 C1766 1.398 . S
C1766 H1754 0.950 . S
C1766 C1765 1.398 . S
C1766 C1767 1.391 . S
C1767 H1755 0.950 . S
C1767 C1763 1.393 . S
C1767 C1766 1.391 . S
H1768 C1776 0.950 . S
H1769 C1781 0.950 . S
H1770 C1778 0.950 . S
H1771 C1780 0.950 . S
H1772 C1782 0.950 . S
H1773 C1784 0.950 . S
H1774 C1786 0.950 . S
H1775 C1787 0.950 . S
C1776 H1768 0.950 . S
C1776 C1777 1.386 . S
C1776 C1778 1.391 . S
C1777 C1776 1.386 . S
C1777 C1781 1.393 . S
C1778 H1770 0.950 . S
C1778 C1776 1.391 . S
C1778 C1779 1.400 . S
C1779 C1778 1.400 . S
C1779 C1780 1.398 . S
C1779 C1785 1.491 . S
C1780 H1771 0.950 . S
C1780 C1779 1.398 . S
C1780 C1781 1.391 . S
C1781 H1769 0.950 . S
C1781 C1777 1.393 . S
C1781 C1780 1.391 . S
C1782 H1772 0.950 . S
C1782 C1783 1.386 . S
C1782 C1784 1.391 . S
C1783 C1782 1.386 . S
C1783 C1787 1.393 . S
C1784 H1773 0.950 . S
C1784 C1782 1.391 . S
C1784 C1785 1.400 . S
C1785 C1779 1.491 . S
C1785 C1784 1.400 . S
C1785 C1786 1.398 . S
C1786 H1774 0.950 . S
C1786 C1785 1.398 . S
C1786 C1787 1.391 . S
C1787 H1775 0.950 . S
C1787 C1783 1.393 . S
C1787 C1786 1.391 . S
H1788 C1796 0.950 . S
H1789 C1801 0.950 . S
H1790 C1798 0.950 . S
H1791 C1800 0.950 . S
H1792 C1802 0.950 . S
H1793 C1804 0.950 . S
H1794 C1806 0.950 . S
H1795 C1807 0.950 . S
C1796 H1788 0.950 . S
C1796 C1797 1.386 . S
C1796 C1798 1.391 . S
C1797 C1796 1.386 . S
C1797 C1801 1.393 . S
C1798 H1790 0.950 . S
C1798 C1796 1.391 . S
C1798 C1799 1.400 . S
C1799 C1798 1.400 . S
C1799 C1800 1.398 . S
C1799 C1805 1.491 1_655 S
C1800 H1791 0.950 . S
C1800 C1799 1.398 . S
C1800 C1801 1.391 . S
C1801 H1789 0.950 . S
C1801 C1797 1.393 . S
C1801 C1800 1.391 . S
C1802 H1792 0.950 . S
C1802 C1803 1.386 . S
C1802 C1804 1.391 . S
C1803 C1802 1.386 . S
C1803 C1807 1.393 . S
C1804 H1793 0.950 . S
C1804 C1802 1.391 . S
C1804 C1805 1.400 . S
C1805 C1799 1.491 1_455 S
C1805 C1804 1.400 . S
C1805 C1806 1.398 . S
C1806 H1794 0.950 . S
C1806 C1805 1.398 . S
C1806 C1807 1.391 . S
C1807 H1795 0.950 . S
C1807 C1803 1.393 . S
C1807 C1806 1.391 . S
H1808 C1816 0.950 . S
H1809 C1821 0.950 . S
H1810 C1818 0.950 . S
H1811 C1820 0.950 . S
H1812 C1822 0.950 . S
H1813 C1824 0.950 . S
H1814 C1826 0.950 . S
H1815 C1827 0.950 . S
C1816 H1808 0.950 . S
C1816 C1817 1.386 . S
C1816 C1818 1.391 . S
C1817 C1816 1.386 . S
C1817 C1821 1.393 . S
C1818 H1810 0.950 . S
C1818 C1816 1.391 . S
C1818 C1819 1.400 . S
C1819 C1818 1.400 . S
C1819 C1820 1.398 . S
C1819 C1825 1.491 . S
C1820 H1811 0.950 . S
C1820 C1819 1.398 . S
C1820 C1821 1.391 . S
C1821 H1809 0.950 . S
C1821 C1817 1.393 . S
C1821 C1820 1.391 . S
C1822 H1812 0.950 . S
C1822 C1823 1.386 . S
C1822 C1824 1.391 . S
C1823 C1822 1.386 . S
C1823 C1827 1.393 . S
C1824 H1813 0.950 . S
C1824 C1822 1.391 . S
C1824 C1825 1.400 . S
C1825 C1819 1.491 . S
C1825 C1824 1.400 . S
C1825 C1826 1.398 . S
C1826 H1814 0.950 . S
C1826 C1825 1.398 . S
C1826 C1827 1.391 . S
C1827 H1815 0.950 . S
C1827 C1823 1.393 . S
C1827 C1826 1.391 . S
H1828 C1836 0.950 . S
H1829 C1841 0.950 . S
H1830 C1838 0.950 . S
H1831 C1840 0.950 1_565 S
H1832 C1842 0.950 . S
H1833 C1844 0.950 . S
H1834 C1846 0.950 1_545 S
H1835 C1847 0.950 . S
C1836 H1828 0.950 . S
C1836 C1837 1.386 . S
C1836 C1838 1.391 . S
C1837 C1836 1.386 . S
C1837 C1841 1.393 . S
C1838 H1830 0.950 . S
C1838 C1836 1.391 . S
C1838 C1839 1.400 . S
C1839 C1838 1.400 . S
C1839 C1840 1.398 . S
C1839 C1845 1.491 1_545 S
C1840 H1831 0.950 1_545 S
C1840 C1839 1.398 . S
C1840 C1841 1.391 . S
C1841 H1829 0.950 . S
C1841 C1837 1.393 . S
C1841 C1840 1.391 . S
C1842 H1832 0.950 . S
C1842 C1843 1.386 . S
C1842 C1844 1.391 . S
C1843 C1842 1.386 . S
C1843 C1847 1.393 . S
C1844 H1833 0.950 . S
C1844 C1842 1.391 . S
C1844 C1845 1.400 . S
C1845 C1839 1.491 1_565 S
C1845 C1844 1.400 . S
C1845 C1846 1.398 . S
C1846 H1834 0.950 1_565 S
C1846 C1845 1.398 . S
C1846 C1847 1.391 . S
C1847 H1835 0.950 . S
C1847 C1843 1.393 . S
C1847 C1846 1.391 . S
H1848 C1856 0.950 1_556 S
H1849 C1861 0.950 . S
H1850 C1858 0.950 . S
H1851 C1860 0.950 . S
H1852 C1862 0.950 1_554 S
H1853 C1864 0.950 . S
H1854 C1866 0.950 . S
H1855 C1867 0.950 . S
C1856 H1848 0.950 1_554 S
C1856 C1857 1.386 . S
C1856 C1858 1.391 1_554 S
C1857 C1856 1.386 . S
C1857 C1861 1.393 . S
C1858 H1850 0.950 . S
C1858 C1856 1.391 1_556 S
C1858 C1859 1.400 1_556 S
C1859 C1858 1.400 1_554 S
C1859 C1860 1.398 . S
C1859 C1865 1.491 1_564 S
C1860 H1851 0.950 . S
C1860 C1859 1.398 . S
C1860 C1861 1.391 . S
C1861 H1849 0.950 . S
C1861 C1857 1.393 . S
C1861 C1860 1.391 . S
C1862 H1852 0.950 1_556 S
C1862 C1863 1.386 . S
C1862 C1864 1.391 1_556 S
C1863 C1862 1.386 . S
C1863 C1867 1.393 . S
C1864 H1853 0.950 . S
C1864 C1862 1.391 1_554 S
C1864 C1865 1.400 1_554 S
C1865 C1859 1.491 1_546 S
C1865 C1864 1.400 1_556 S
C1865 C1866 1.398 . S
C1866 H1854 0.950 . S
C1866 C1865 1.398 . S
C1866 C1867 1.391 . S
C1867 H1855 0.950 . S
C1867 C1863 1.393 . S
C1867 C1866 1.391 . S
H1868 C1876 0.950 . S
H1869 C1881 0.950 . S
H1870 C1878 0.950 . S
H1871 C1880 0.950 1_455 S
H1872 C1882 0.950 . S
H1873 C1884 0.950 . S
H1874 C1886 0.950 1_655 S
H1875 C1887 0.950 . S
C1876 H1868 0.950 . S
C1876 C1877 1.386 . S
C1876 C1878 1.391 . S
C1877 C1876 1.386 . S
C1877 C1881 1.393 . S
C1878 H1870 0.950 . S
C1878 C1876 1.391 . S
C1878 C1879 1.400 . S
C1879 C1878 1.400 . S
C1879 C1880 1.398 . S
C1879 C1885 1.491 1_656 S
C1880 H1871 0.950 1_655 S
C1880 C1879 1.398 . S
C1880 C1881 1.391 . S
C1881 H1869 0.950 . S
C1881 C1877 1.393 . S
C1881 C1880 1.391 . S
C1882 H1872 0.950 . S
C1882 C1883 1.386 . S
C1882 C1884 1.391 . S
C1883 C1882 1.386 . S
C1883 C1887 1.393 . S
C1884 H1873 0.950 . S
C1884 C1882 1.391 . S
C1884 C1885 1.400 . S
C1885 C1879 1.491 1_454 S
C1885 C1884 1.400 . S
C1885 C1886 1.398 . S
C1886 H1874 0.950 1_455 S
C1886 C1885 1.398 . S
C1886 C1887 1.391 . S
C1887 H1875 0.950 . S
C1887 C1883 1.393 . S
C1887 C1886 1.391 . S
H1888 C1896 0.950 . S
H1889 C1901 0.950 . S
H1890 C1898 0.950 . S
H1891 C1900 0.950 . S
H1892 C1902 0.950 . S
H1893 C1904 0.950 . S
H1894 C1906 0.950 . S
H1895 C1907 0.950 . S
C1896 H1888 0.950 . S
C1896 C1897 1.386 . S
C1896 C1898 1.391 . S
C1897 C1896 1.386 . S
C1897 C1901 1.393 . S
C1898 H1890 0.950 . S
C1898 C1896 1.391 . S
C1898 C1899 1.400 . S
C1899 C1898 1.400 . S
C1899 C1900 1.398 . S
C1899 C1905 1.491 1_554 S
C1900 H1891 0.950 . S
C1900 C1899 1.398 . S
C1900 C1901 1.391 . S
C1901 H1889 0.950 . S
C1901 C1897 1.393 . S
C1901 C1900 1.391 . S
C1902 H1892 0.950 . S
C1902 C1903 1.386 . S
C1902 C1904 1.391 . S
C1903 C1902 1.386 . S
C1903 C1907 1.393 . S
C1904 H1893 0.950 . S
C1904 C1902 1.391 . S
C1904 C1905 1.400 . S
C1905 C1899 1.491 1_556 S
C1905 C1904 1.400 . S
C1905 C1906 1.398 . S
C1906 H1894 0.950 . S
C1906 C1905 1.398 . S
C1906 C1907 1.391 . S
C1907 H1895 0.950 . S
C1907 C1903 1.393 . S
C1907 C1906 1.391 . S
H1908 C1916 0.950 . S
H1909 C1921 0.950 . S
H1910 C1918 0.950 . S
H1911 C1920 0.950 . S
H1912 C1922 0.950 . S
H1913 C1924 0.950 . S
H1914 C1926 0.950 . S
H1915 C1927 0.950 . S
C1916 H1908 0.950 . S
C1916 C1917 1.386 . S
C1916 C1918 1.391 . S
C1917 C1916 1.386 . S
C1917 C1921 1.393 . S
C1918 H1910 0.950 . S
C1918 C1916 1.391 . S
C1918 C1919 1.400 . S
C1919 C1918 1.400 . S
C1919 C1920 1.398 . S
C1919 C1925 1.491 . S
C1920 H1911 0.950 . S
C1920 C1919 1.398 . S
C1920 C1921 1.391 . S
C1921 H1909 0.950 . S
C1921 C1917 1.393 . S
C1921 C1920 1.391 . S
C1922 H1912 0.950 . S
C1922 C1923 1.386 . S
C1922 C1924 1.391 . S
C1923 C1922 1.386 . S
C1923 C1927 1.393 . S
C1924 H1913 0.950 . S
C1924 C1922 1.391 . S
C1924 C1925 1.400 . S
C1925 C1919 1.491 . S
C1925 C1924 1.400 . S
C1925 C1926 1.398 . S
C1926 H1914 0.950 . S
C1926 C1925 1.398 . S
C1926 C1927 1.391 . S
C1927 H1915 0.950 . S
C1927 C1923 1.393 . S
C1927 C1926 1.391 . S
H1928 C1936 0.950 . S
H1929 C1941 0.950 . S
H1930 C1938 0.950 . S
H1931 C1940 0.950 . S
H1932 C1942 0.950 . S
H1933 C1944 0.950 . S
H1934 C1946 0.950 . S
H1935 C1947 0.950 . S
C1936 H1928 0.950 . S
C1936 C1937 1.386 . S
C1936 C1938 1.391 . S
C1937 C1936 1.386 . S
C1937 C1941 1.393 . S
C1938 H1930 0.950 . S
C1938 C1936 1.391 . S
C1938 C1939 1.400 . S
C1939 C1938 1.400 . S
C1939 C1940 1.398 . S
C1939 C1945 1.491 . S
C1940 H1931 0.950 . S
C1940 C1939 1.398 . S
C1940 C1941 1.391 . S
C1941 H1929 0.950 . S
C1941 C1937 1.393 . S
C1941 C1940 1.391 . S
C1942 H1932 0.950 . S
C1942 C1943 1.386 . S
C1942 C1944 1.391 . S
C1943 C1942 1.386 . S
C1943 C1947 1.393 . S
C1944 H1933 0.950 . S
C1944 C1942 1.391 . S
C1944 C1945 1.400 . S
C1945 C1939 1.491 . S
C1945 C1944 1.400 . S
C1945 C1946 1.398 . S
C1946 H1934 0.950 . S
C1946 C1945 1.398 . S
C1946 C1947 1.391 . S
C1947 H1935 0.950 . S
C1947 C1943 1.393 . S
C1947 C1946 1.391 . S
H1948 C1956 0.950 . S
H1949 C1961 0.950 . S
H1950 C1958 0.950 . S
H1951 C1960 0.950 . S
H1952 C1962 0.950 . S
H1953 C1964 0.950 . S
H1954 C1966 0.950 . S
H1955 C1967 0.950 . S
C1956 H1948 0.950 . S
C1956 C1957 1.386 . S
C1956 C1958 1.391 . S
C1957 C1956 1.386 . S
C1957 C1961 1.393 . S
C1958 H1950 0.950 . S
C1958 C1956 1.391 . S
C1958 C1959 1.400 . S
C1959 C1958 1.400 . S
C1959 C1960 1.398 . S
C1959 C1965 1.491 . S
C1960 H1951 0.950 . S
C1960 C1959 1.398 . S
C1960 C1961 1.391 . S
C1961 H1949 0.950 . S
C1961 C1957 1.393 . S
C1961 C1960 1.391 . S
C1962 H1952 0.950 . S
C1962 C1963 1.386 . S
C1962 C1964 1.391 . S
C1963 C1962 1.386 . S
C1963 C1967 1.393 . S
C1964 H1953 0.950 . S
C1964 C1962 1.391 . S
C1964 C1965 1.400 . S
C1965 C1959 1.491 . S
C1965 C1964 1.400 . S
C1965 C1966 1.398 . S
C1966 H1954 0.950 . S
C1966 C1965 1.398 . S
C1966 C1967 1.391 . S
C1967 H1955 0.950 . S
C1967 C1963 1.393 . S
C1967 C1966 1.391 . S
H1968 C1976 0.950 . S
H1969 C1981 0.950 . S
H1970 C1978 0.950 . S
H1971 C1980 0.950 . S
H1972 C1982 0.950 . S
H1973 C1984 0.950 . S
H1974 C1986 0.950 . S
H1975 C1987 0.950 . S
C1976 H1968 0.950 . S
C1976 C1977 1.386 . S
C1976 C1978 1.391 . S
C1977 C1976 1.386 . S
C1977 C1981 1.393 . S
C1978 H1970 0.950 . S
C1978 C1976 1.391 . S
C1978 C1979 1.400 . S
C1979 C1978 1.400 . S
C1979 C1980 1.398 . S
C1979 C1985 1.491 . S
C1980 H1971 0.950 . S
C1980 C1979 1.398 . S
C1980 C1981 1.391 . S
C1981 H1969 0.950 . S
C1981 C1977 1.393 . S
C1981 C1980 1.391 . S
C1982 H1972 0.950 . S
C1982 C1983 1.386 . S
C1982 C1984 1.391 . S
C1983 C1982 1.386 . S
C1983 C1987 1.393 . S
C1984 H1973 0.950 . S
C1984 C1982 1.391 . S
C1984 C1985 1.400 . S
C1985 C1979 1.491 . S
C1985 C1984 1.400 . S
C1985 C1986 1.398 . S
C1986 H1974 0.950 . S
C1986 C1985 1.398 . S
C1986 C1987 1.391 . S
C1987 H1975 0.950 . S
C1987 C1983 1.393 . S
C1987 C1986 1.391 . S
H1988 C1996 0.950 . S
H1989 C2001 0.950 . S
H1990 C1998 0.950 . S
H1991 C2000 0.950 . S
H1992 C2002 0.950 . S
H1993 C2004 0.950 . S
H1994 C2006 0.950 . S
H1995 C2007 0.950 . S
C1996 H1988 0.950 . S
C1996 C1997 1.386 . S
C1996 C1998 1.391 . S
C1997 C1996 1.386 . S
C1997 C2001 1.393 . S
C1998 H1990 0.950 . S
C1998 C1996 1.391 . S
C1998 C1999 1.400 . S
C1999 C1998 1.400 . S
C1999 C2000 1.398 . S
C1999 C2005 1.491 . S
C2000 H1991 0.950 . S
C2000 C1999 1.398 . S
C2000 C2001 1.391 . S
C2001 H1989 0.950 . S
C2001 C1997 1.393 . S
C2001 C2000 1.391 . S
C2002 H1992 0.950 . S
C2002 C2003 1.386 . S
C2002 C2004 1.391 . S
C2003 C2002 1.386 . S
C2003 C2007 1.393 . S
C2004 H1993 0.950 . S
C2004 C2002 1.391 . S
C2004 C2005 1.400 . S
C2005 C1999 1.491 . S
C2005 C2004 1.400 . S
C2005 C2006 1.398 . S
C2006 H1994 0.950 . S
C2006 C2005 1.398 . S
C2006 C2007 1.391 . S
C2007 H1995 0.950 . S
C2007 C2003 1.393 . S
C2007 C2006 1.391 . S
H2008 C2016 0.950 . S
H2009 C2021 0.950 . S
H2010 C2018 0.950 . S
H2011 C2020 0.950 . S
H2012 C2022 0.950 . S
H2013 C2024 0.950 . S
H2014 C2026 0.950 . S
H2015 C2027 0.950 . S
C2016 H2008 0.950 . S
C2016 C2017 1.386 . S
C2016 C2018 1.391 . S
C2017 C2016 1.386 . S
C2017 C2021 1.393 . S
C2018 H2010 0.950 . S
C2018 C2016 1.391 . S
C2018 C2019 1.400 . S
C2019 C2018 1.400 . S
C2019 C2020 1.398 . S
C2019 C2025 1.491 . S
C2020 H2011 0.950 . S
C2020 C2019 1.398 . S
C2020 C2021 1.391 . S
C2021 H2009 0.950 . S
C2021 C2017 1.393 . S
C2021 C2020 1.391 . S
C2022 H2012 0.950 . S
C2022 C2023 1.386 . S
C2022 C2024 1.391 . S
C2023 C2022 1.386 . S
C2023 C2027 1.393 . S
C2024 H2013 0.950 . S
C2024 C2022 1.391 . S
C2024 C2025 1.400 . S
C2025 C2019 1.491 . S
C2025 C2024 1.400 . S
C2025 C2026 1.398 . S
C2026 H2014 0.950 . S
C2026 C2025 1.398 . S
C2026 C2027 1.391 . S
C2027 H2015 0.950 . S
C2027 C2023 1.393 . S
C2027 C2026 1.391 . S
H2028 C2036 0.950 . S
H2029 C2041 0.950 . S
H2030 C2038 0.950 . S
H2031 C2040 0.950 . S
H2032 C2042 0.950 . S
H2033 C2044 0.950 . S
H2034 C2046 0.950 . S
H2035 C2047 0.950 . S
C2036 H2028 0.950 . S
C2036 C2037 1.386 . S
C2036 C2038 1.391 . S
C2037 C2036 1.386 . S
C2037 C2041 1.393 . S
C2038 H2030 0.950 . S
C2038 C2036 1.391 . S
C2038 C2039 1.400 . S
C2039 C2038 1.400 . S
C2039 C2040 1.398 . S
C2039 C2045 1.491 . S
C2040 H2031 0.950 . S
C2040 C2039 1.398 . S
C2040 C2041 1.391 . S
C2041 H2029 0.950 . S
C2041 C2037 1.393 . S
C2041 C2040 1.391 . S
C2042 H2032 0.950 . S
C2042 C2043 1.386 . S
C2042 C2044 1.391 . S
C2043 C2042 1.386 . S
C2043 C2047 1.393 . S
C2044 H2033 0.950 . S
C2044 C2042 1.391 . S
C2044 C2045 1.400 . S
C2045 C2039 1.491 . S
C2045 C2044 1.400 . S
C2045 C2046 1.398 . S
C2046 H2034 0.950 . S
C2046 C2045 1.398 . S
C2046 C2047 1.391 . S
C2047 H2035 0.950 . S
C2047 C2043 1.393 . S
C2047 C2046 1.391 . S
H2048 C2056 0.950 . S
H2049 C2061 0.950 . S
H2050 C2058 0.950 . S
H2051 C2060 0.950 . S
H2052 C2062 0.950 . S
H2053 C2064 0.950 . S
H2054 C2066 0.950 . S
H2055 C2067 0.950 . S
C2056 H2048 0.950 . S
C2056 C2057 1.386 . S
C2056 C2058 1.391 . S
C2057 C2056 1.386 . S
C2057 C2061 1.393 . S
C2058 H2050 0.950 . S
C2058 C2056 1.391 . S
C2058 C2059 1.400 . S
C2059 C2058 1.400 . S
C2059 C2060 1.398 . S
C2059 C2065 1.491 . S
C2060 H2051 0.950 . S
C2060 C2059 1.398 . S
C2060 C2061 1.391 . S
C2061 H2049 0.950 . S
C2061 C2057 1.393 . S
C2061 C2060 1.391 . S
C2062 H2052 0.950 . S
C2062 C2063 1.386 . S
C2062 C2064 1.391 . S
C2063 C2062 1.386 . S
C2063 C2067 1.393 . S
C2064 H2053 0.950 . S
C2064 C2062 1.391 . S
C2064 C2065 1.400 . S
C2065 C2059 1.491 . S
C2065 C2064 1.400 . S
C2065 C2066 1.398 . S
C2066 H2054 0.950 . S
C2066 C2065 1.398 . S
C2066 C2067 1.391 . S
C2067 H2055 0.950 . S
C2067 C2063 1.393 . S
C2067 C2066 1.391 . S
H2068 C2076 0.950 . S
H2069 C2081 0.950 . S
H2070 C2078 0.950 . S
H2071 C2080 0.950 . S
H2072 C2082 0.950 . S
H2073 C2084 0.950 . S
H2074 C2086 0.950 . S
H2075 C2087 0.950 . S
C2076 H2068 0.950 . S
C2076 C2077 1.386 . S
C2076 C2078 1.391 . S
C2077 C2076 1.386 . S
C2077 C2081 1.393 . S
C2078 H2070 0.950 . S
C2078 C2076 1.391 . S
C2078 C2079 1.400 . S
C2079 C2078 1.400 . S
C2079 C2080 1.398 . S
C2079 C2085 1.491 . S
C2080 H2071 0.950 . S
C2080 C2079 1.398 . S
C2080 C2081 1.391 . S
C2081 H2069 0.950 . S
C2081 C2077 1.393 . S
C2081 C2080 1.391 . S
C2082 H2072 0.950 . S
C2082 C2083 1.386 . S
C2082 C2084 1.391 . S
C2083 C2082 1.386 . S
C2083 C2087 1.393 . S
C2084 H2073 0.950 . S
C2084 C2082 1.391 . S
C2084 C2085 1.400 . S
C2085 C2079 1.491 . S
C2085 C2084 1.400 . S
C2085 C2086 1.398 . S
C2086 H2074 0.950 . S
C2086 C2085 1.398 . S
C2086 C2087 1.391 . S
C2087 H2075 0.950 . S
C2087 C2083 1.393 . S
C2087 C2086 1.391 . S
H2088 C2096 0.950 . S
H2089 C2101 0.950 . S
H2090 C2098 0.950 . S
H2091 C2100 0.950 . S
H2092 C2102 0.950 . S
H2093 C2104 0.950 . S
H2094 C2106 0.950 . S
H2095 C2107 0.950 . S
C2096 H2088 0.950 . S
C2096 C2097 1.386 . S
C2096 C2098 1.391 . S
C2097 C2096 1.386 . S
C2097 C2101 1.393 . S
C2098 H2090 0.950 . S
C2098 C2096 1.391 . S
C2098 C2099 1.400 . S
C2099 C2098 1.400 . S
C2099 C2100 1.398 . S
C2099 C2105 1.491 . S
C2100 H2091 0.950 . S
C2100 C2099 1.398 . S
C2100 C2101 1.391 . S
C2101 H2089 0.950 . S
C2101 C2097 1.393 . S
C2101 C2100 1.391 . S
C2102 H2092 0.950 . S
C2102 C2103 1.386 . S
C2102 C2104 1.391 . S
C2103 C2102 1.386 . S
C2103 C2107 1.393 . S
C2104 H2093 0.950 . S
C2104 C2102 1.391 . S
C2104 C2105 1.400 . S
C2105 C2099 1.491 . S
C2105 C2104 1.400 . S
C2105 C2106 1.398 . S
C2106 H2094 0.950 . S
C2106 C2105 1.398 . S
C2106 C2107 1.391 . S
C2107 H2095 0.950 . S
C2107 C2103 1.393 . S
C2107 C2106 1.391 . S
H2108 C2116 0.950 . S
H2109 C2121 0.950 . S
H2110 C2118 0.950 . S
H2111 C2120 0.950 . S
H2112 C2122 0.950 . S
H2113 C2124 0.950 . S
H2114 C2126 0.950 . S
H2115 C2127 0.950 . S
C2116 H2108 0.950 . S
C2116 C2117 1.386 . S
C2116 C2118 1.391 . S
C2117 C2116 1.386 . S
C2117 C2121 1.393 . S
C2118 H2110 0.950 . S
C2118 C2116 1.391 . S
C2118 C2119 1.400 . S
C2119 C2118 1.400 . S
C2119 C2120 1.398 . S
C2119 C2125 1.491 . S
C2120 H2111 0.950 . S
C2120 C2119 1.398 . S
C2120 C2121 1.391 . S
C2121 H2109 0.950 . S
C2121 C2117 1.393 . S
C2121 C2120 1.391 . S
C2122 H2112 0.950 . S
C2122 C2123 1.386 . S
C2122 C2124 1.391 . S
C2123 C2122 1.386 . S
C2123 C2127 1.393 . S
C2124 H2113 0.950 . S
C2124 C2122 1.391 . S
C2124 C2125 1.400 . S
C2125 C2119 1.491 . S
C2125 C2124 1.400 . S
C2125 C2126 1.398 . S
C2126 H2114 0.950 . S
C2126 C2125 1.398 . S
C2126 C2127 1.391 . S
C2127 H2115 0.950 . S
C2127 C2123 1.393 . S
C2127 C2126 1.391 . S
H2128 C2136 0.950 . S
H2129 C2141 0.950 . S
H2130 C2138 0.950 . S
H2131 C2140 0.950 . S
H2132 C2142 0.950 . S
H2133 C2144 0.950 . S
H2134 C2146 0.950 . S
H2135 C2147 0.950 . S
C2136 H2128 0.950 . S
C2136 C2137 1.386 . S
C2136 C2138 1.391 . S
C2137 C2136 1.386 . S
C2137 C2141 1.393 . S
C2138 H2130 0.950 . S
C2138 C2136 1.391 . S
C2138 C2139 1.400 . S
C2139 C2138 1.400 . S
C2139 C2140 1.398 . S
C2139 C2145 1.491 . S
C2140 H2131 0.950 . S
C2140 C2139 1.398 . S
C2140 C2141 1.391 . S
C2141 H2129 0.950 . S
C2141 C2137 1.393 . S
C2141 C2140 1.391 . S
C2142 H2132 0.950 . S
C2142 C2143 1.386 . S
C2142 C2144 1.391 . S
C2143 C2142 1.386 . S
C2143 C2147 1.393 . S
C2144 H2133 0.950 . S
C2144 C2142 1.391 . S
C2144 C2145 1.400 . S
C2145 C2139 1.491 . S
C2145 C2144 1.400 . S
C2145 C2146 1.398 . S
C2146 H2134 0.950 . S
C2146 C2145 1.398 . S
C2146 C2147 1.391 . S
C2147 H2135 0.950 . S
C2147 C2143 1.393 . S
C2147 C2146 1.391 . S
H2148 C2156 0.950 . S
H2149 C2161 0.950 . S
H2150 C2158 0.950 . S
H2151 C2160 0.950 1_655 S
H2152 C2162 0.950 . S
H2153 C2164 0.950 . S
H2154 C2166 0.950 1_455 S
H2155 C2167 0.950 . S
C2156 H2148 0.950 . S
C2156 C2157 1.386 . S
C2156 C2158 1.391 . S
C2157 C2156 1.386 . S
C2157 C2161 1.393 . S
C2158 H2150 0.950 . S
C2158 C2156 1.391 . S
C2158 C2159 1.400 . S
C2159 C2158 1.400 . S
C2159 C2160 1.398 . S
C2159 C2165 1.491 1_455 S
C2160 H2151 0.950 1_455 S
C2160 C2159 1.398 . S
C2160 C2161 1.391 . S
C2161 H2149 0.950 . S
C2161 C2157 1.393 . S
C2161 C2160 1.391 . S
C2162 H2152 0.950 . S
C2162 C2163 1.386 . S
C2162 C2164 1.391 . S
C2163 C2162 1.386 . S
C2163 C2167 1.393 . S
C2164 H2153 0.950 . S
C2164 C2162 1.391 . S
C2164 C2165 1.400 . S
C2165 C2159 1.491 1_655 S
C2165 C2164 1.400 . S
C2165 C2166 1.398 . S
C2166 H2154 0.950 1_655 S
C2166 C2165 1.398 . S
C2166 C2167 1.391 . S
C2167 H2155 0.950 . S
C2167 C2163 1.393 . S
C2167 C2166 1.391 . S
H2168 C2176 0.950 . S
H2169 C2181 0.950 . S
H2170 C2178 0.950 . S
H2171 C2180 0.950 . S
H2172 C2182 0.950 . S
H2173 C2184 0.950 . S
H2174 C2186 0.950 . S
H2175 C2187 0.950 . S
C2176 H2168 0.950 . S
C2176 C2177 1.386 . S
C2176 C2178 1.391 . S
C2177 C2176 1.386 . S
C2177 C2181 1.393 . S
C2178 H2170 0.950 . S
C2178 C2176 1.391 . S
C2178 C2179 1.400 . S
C2179 C2178 1.400 . S
C2179 C2180 1.398 . S
C2179 C2185 1.491 . S
C2180 H2171 0.950 . S
C2180 C2179 1.398 . S
C2180 C2181 1.391 . S
C2181 H2169 0.950 . S
C2181 C2177 1.393 . S
C2181 C2180 1.391 . S
C2182 H2172 0.950 . S
C2182 C2183 1.386 . S
C2182 C2184 1.391 . S
C2183 C2182 1.386 . S
C2183 C2187 1.393 . S
C2184 H2173 0.950 . S
C2184 C2182 1.391 . S
C2184 C2185 1.400 . S
C2185 C2179 1.491 . S
C2185 C2184 1.400 . S
C2185 C2186 1.398 . S
C2186 H2174 0.950 . S
C2186 C2185 1.398 . S
C2186 C2187 1.391 . S
C2187 H2175 0.950 . S
C2187 C2183 1.393 . S
C2187 C2186 1.391 . S
H2188 C2196 0.950 . S
H2189 C2201 0.950 . S
H2190 C2198 0.950 . S
H2191 C2200 0.950 1_565 S
H2192 C2202 0.950 . S
H2193 C2204 0.950 . S
H2194 C2206 0.950 1_545 S
H2195 C2207 0.950 . S
C2196 H2188 0.950 . S
C2196 C2197 1.386 . S
C2196 C2198 1.391 . S
C2197 C2196 1.386 . S
C2197 C2201 1.393 . S
C2198 H2190 0.950 . S
C2198 C2196 1.391 . S
C2198 C2199 1.400 . S
C2199 C2198 1.400 . S
C2199 C2200 1.398 . S
C2199 C2205 1.491 1_545 S
C2200 H2191 0.950 1_545 S
C2200 C2199 1.398 . S
C2200 C2201 1.391 . S
C2201 H2189 0.950 . S
C2201 C2197 1.393 . S
C2201 C2200 1.391 . S
C2202 H2192 0.950 . S
C2202 C2203 1.386 . S
C2202 C2204 1.391 . S
C2203 C2202 1.386 . S
C2203 C2207 1.393 . S
C2204 H2193 0.950 . S
C2204 C2202 1.391 . S
C2204 C2205 1.400 . S
C2205 C2199 1.491 1_565 S
C2205 C2204 1.400 . S
C2205 C2206 1.398 . S
C2206 H2194 0.950 1_565 S
C2206 C2205 1.398 . S
C2206 C2207 1.391 . S
C2207 H2195 0.950 . S
C2207 C2203 1.393 . S
C2207 C2206 1.391 . S
H2208 C2216 0.950 . S
H2209 C2221 0.950 . S
H2210 C2218 0.950 1_545 S
H2211 C2220 0.950 . S
H2212 C2222 0.950 . S
H2213 C2224 0.950 1_565 S
H2214 C2226 0.950 . S
H2215 C2227 0.950 . S
C2216 H2208 0.950 . S
C2216 C2217 1.386 . S
C2216 C2218 1.391 . S
C2217 C2216 1.386 . S
C2217 C2221 1.393 . S
C2218 H2210 0.950 1_565 S
C2218 C2216 1.391 . S
C2218 C2219 1.400 . S
C2219 C2218 1.400 . S
C2219 C2220 1.398 . S
C2219 C2225 1.491 1_565 S
C2220 H2211 0.950 . S
C2220 C2219 1.398 . S
C2220 C2221 1.391 . S
C2221 H2209 0.950 . S
C2221 C2217 1.393 . S
C2221 C2220 1.391 . S
C2222 H2212 0.950 . S
C2222 C2223 1.386 . S
C2222 C2224 1.391 . S
C2223 C2222 1.386 . S
C2223 C2227 1.393 . S
C2224 H2213 0.950 1_545 S
C2224 C2222 1.391 . S
C2224 C2225 1.400 . S
C2225 C2219 1.491 1_545 S
C2225 C2224 1.400 . S
C2225 C2226 1.398 . S
C2226 H2214 0.950 . S
C2226 C2225 1.398 . S
C2226 C2227 1.391 . S
C2227 H2215 0.950 . S
C2227 C2223 1.393 . S
C2227 C2226 1.391 . S
H2228 C2236 0.950 . S
H2229 C2241 0.950 . S
H2230 C2238 0.950 . S
H2231 C2240 0.950 1_655 S
H2232 C2242 0.950 . S
H2233 C2244 0.950 . S
H2234 C2246 0.950 1_455 S
H2235 C2247 0.950 . S
C2236 H2228 0.950 . S
C2236 C2237 1.386 . S
C2236 C2238 1.391 . S
C2237 C2236 1.386 . S
C2237 C2241 1.393 . S
C2238 H2230 0.950 . S
C2238 C2236 1.391 . S
C2238 C2239 1.400 . S
C2239 C2238 1.400 . S
C2239 C2240 1.398 . S
C2239 C2245 1.491 1_455 S
C2240 H2231 0.950 1_455 S
C2240 C2239 1.398 . S
C2240 C2241 1.391 . S
C2241 H2229 0.950 . S
C2241 C2237 1.393 . S
C2241 C2240 1.391 . S
C2242 H2232 0.950 . S
C2242 C2243 1.386 . S
C2242 C2244 1.391 . S
C2243 C2242 1.386 . S
C2243 C2247 1.393 . S
C2244 H2233 0.950 . S
C2244 C2242 1.391 . S
C2244 C2245 1.400 . S
C2245 C2239 1.491 1_655 S
C2245 C2244 1.400 . S
C2245 C2246 1.398 . S
C2246 H2234 0.950 1_655 S
C2246 C2245 1.398 . S
C2246 C2247 1.391 . S
C2247 H2235 0.950 . S
C2247 C2243 1.393 . S
C2247 C2246 1.391 . S
H2248 C2256 0.950 . S
H2249 C2261 0.950 . S
H2250 C2258 0.950 . S
H2251 C2260 0.950 . S
H2252 C2262 0.950 . S
H2253 C2264 0.950 . S
H2254 C2266 0.950 . S
H2255 C2267 0.950 . S
C2256 H2248 0.950 . S
C2256 C2257 1.386 . S
C2256 C2258 1.391 . S
C2257 C2256 1.386 . S
C2257 C2261 1.393 . S
C2258 H2250 0.950 . S
C2258 C2256 1.391 . S
C2258 C2259 1.400 . S
C2259 C2258 1.400 . S
C2259 C2260 1.398 . S
C2259 C2265 1.491 . S
C2260 H2251 0.950 . S
C2260 C2259 1.398 . S
C2260 C2261 1.391 . S
C2261 H2249 0.950 . S
C2261 C2257 1.393 . S
C2261 C2260 1.391 . S
C2262 H2252 0.950 . S
C2262 C2263 1.386 . S
C2262 C2264 1.391 . S
C2263 C2262 1.386 . S
C2263 C2267 1.393 . S
C2264 H2253 0.950 . S
C2264 C2262 1.391 . S
C2264 C2265 1.400 . S
C2265 C2259 1.491 . S
C2265 C2264 1.400 . S
C2265 C2266 1.398 . S
C2266 H2254 0.950 . S
C2266 C2265 1.398 . S
C2266 C2267 1.391 . S
C2267 H2255 0.950 . S
C2267 C2263 1.393 . S
C2267 C2266 1.391 . S
H2268 C2276 0.950 . S
H2269 C2281 0.950 . S
H2270 C2278 0.950 . S
H2271 C2280 0.950 . S
H2272 C2282 0.950 . S
H2273 C2284 0.950 . S
H2274 C2286 0.950 . S
H2275 C2287 0.950 . S
C2276 H2268 0.950 . S
C2276 C2277 1.386 . S
C2276 C2278 1.391 . S
C2277 C2276 1.386 . S
C2277 C2281 1.393 . S
C2278 H2270 0.950 . S
C2278 C2276 1.391 . S
C2278 C2279 1.400 . S
C2279 C2278 1.400 . S
C2279 C2280 1.398 . S
C2279 C2285 1.491 . S
C2280 H2271 0.950 . S
C2280 C2279 1.398 . S
C2280 C2281 1.391 . S
C2281 H2269 0.950 . S
C2281 C2277 1.393 . S
C2281 C2280 1.391 . S
C2282 H2272 0.950 . S
C2282 C2283 1.386 . S
C2282 C2284 1.391 . S
C2283 C2282 1.386 . S
C2283 C2287 1.393 . S
C2284 H2273 0.950 . S
C2284 C2282 1.391 . S
C2284 C2285 1.400 . S
C2285 C2279 1.491 . S
C2285 C2284 1.400 . S
C2285 C2286 1.398 . S
C2286 H2274 0.950 . S
C2286 C2285 1.398 . S
C2286 C2287 1.391 . S
C2287 H2275 0.950 . S
C2287 C2283 1.393 . S
C2287 C2286 1.391 . S
H2288 C2296 0.950 . S
H2289 C2301 0.950 . S
H2290 C2298 0.950 . S
H2291 C2300 0.950 . S
H2292 C2302 0.950 . S
H2293 C2304 0.950 . S
H2294 C2306 0.950 . S
H2295 C2307 0.950 . S
C2296 H2288 0.950 . S
C2296 C2297 1.386 . S
C2296 C2298 1.391 1_545 S
C2297 C2296 1.386 . S
C2297 C2301 1.393 . S
C2298 H2290 0.950 . S
C2298 C2296 1.391 1_565 S
C2298 C2299 1.400 1_565 S
C2299 C2298 1.400 1_545 S
C2299 C2300 1.398 . S
C2299 C2305 1.491 1_545 S
C2300 H2291 0.950 . S
C2300 C2299 1.398 . S
C2300 C2301 1.391 . S
C2301 H2289 0.950 . S
C2301 C2297 1.393 . S
C2301 C2300 1.391 . S
C2302 H2292 0.950 . S
C2302 C2303 1.386 . S
C2302 C2304 1.391 1_565 S
C2303 C2302 1.386 . S
C2303 C2307 1.393 . S
C2304 H2293 0.950 . S
C2304 C2302 1.391 1_545 S
C2304 C2305 1.400 1_545 S
C2305 C2299 1.491 1_565 S
C2305 C2304 1.400 1_565 S
C2305 C2306 1.398 . S
C2306 H2294 0.950 . S
C2306 C2305 1.398 . S
C2306 C2307 1.391 . S
C2307 H2295 0.950 . S
C2307 C2303 1.393 . S
C2307 C2306 1.391 . S
H2308 C2316 0.950 . S
H2309 C2321 0.958 . S
H2310 C2318 0.950 . S
H2311 C2320 0.950 . S
H2312 C2322 0.950 . S
H2313 C2324 0.950 . S
H2314 C2326 0.950 . S
H2315 C2327 0.958 . S
C2316 H2308 0.950 . S
C2316 C2317 1.386 . S
C2316 C2318 1.391 . S
C2317 C2316 1.386 . S
C2317 C2321 1.377 1_655 S
C2318 H2310 0.950 . S
C2318 C2316 1.391 . S
C2318 C2319 1.400 . S
C2319 C2318 1.400 . S
C2319 C2320 1.398 1_655 S
C2319 C2325 1.491 1_655 S
C2320 H2311 0.950 . S
C2320 C2319 1.398 1_455 S
C2320 C2321 1.398 . S
C2321 H2309 0.958 . S
C2321 C2317 1.377 1_455 S
C2321 C2320 1.398 . S
C2322 H2312 0.950 . S
C2322 C2323 1.386 . S
C2322 C2324 1.391 . S
C2323 C2322 1.386 . S
C2323 C2327 1.378 1_455 S
C2324 H2313 0.950 . S
C2324 C2322 1.391 . S
C2324 C2325 1.400 . S
C2325 C2319 1.491 1_455 S
C2325 C2324 1.400 . S
C2325 C2326 1.398 1_455 S
C2326 H2314 0.950 . S
C2326 C2325 1.398 1_655 S
C2326 C2327 1.398 . S
C2327 H2315 0.958 . S
C2327 C2323 1.378 1_655 S
C2327 C2326 1.398 . S
H2328 C2336 0.950 . S
H2329 C2341 0.950 . S
H2330 C2338 0.950 . S
H2331 C2340 0.950 . S
H2332 C2342 0.950 . S
H2333 C2344 0.950 . S
H2334 C2346 0.950 . S
H2335 C2347 0.950 . S
C2336 H2328 0.950 . S
C2336 C2337 1.386 . S
C2336 C2338 1.391 . S
C2337 C2336 1.386 . S
C2337 C2341 1.393 . S
C2338 H2330 0.950 . S
C2338 C2336 1.391 . S
C2338 C2339 1.400 . S
C2339 C2338 1.400 . S
C2339 C2340 1.398 . S
C2339 C2345 1.491 . S
C2340 H2331 0.950 . S
C2340 C2339 1.398 . S
C2340 C2341 1.391 . S
C2341 H2329 0.950 . S
C2341 C2337 1.393 . S
C2341 C2340 1.391 . S
C2342 H2332 0.950 . S
C2342 C2343 1.386 . S
C2342 C2344 1.391 . S
C2343 C2342 1.386 . S
C2343 C2347 1.393 . S
C2344 H2333 0.950 . S
C2344 C2342 1.391 . S
C2344 C2345 1.400 . S
C2345 C2339 1.491 . S
C2345 C2344 1.400 . S
C2345 C2346 1.398 . S
C2346 H2334 0.950 . S
C2346 C2345 1.398 . S
C2346 C2347 1.391 . S
C2347 H2335 0.950 . S
C2347 C2343 1.393 . S
C2347 C2346 1.391 . S
H2348 C2356 0.950 . S
H2349 C2361 0.950 . S
H2350 C2358 0.950 . S
H2351 C2360 0.950 . S
H2352 C2362 0.950 . S
H2353 C2364 0.950 . S
H2354 C2366 0.950 . S
H2355 C2367 0.950 . S
C2356 H2348 0.950 . S
C2356 C2357 1.386 . S
C2356 C2358 1.391 . S
C2357 C2356 1.386 . S
C2357 C2361 1.393 . S
C2358 H2350 0.950 . S
C2358 C2356 1.391 . S
C2358 C2359 1.400 . S
C2359 C2358 1.400 . S
C2359 C2360 1.398 . S
C2359 C2365 1.491 1_565 S
C2360 H2351 0.950 . S
C2360 C2359 1.398 . S
C2360 C2361 1.391 . S
C2361 H2349 0.950 . S
C2361 C2357 1.393 . S
C2361 C2360 1.391 . S
C2362 H2352 0.950 . S
C2362 C2363 1.386 . S
C2362 C2364 1.391 . S
C2363 C2362 1.386 . S
C2363 C2367 1.393 . S
C2364 H2353 0.950 . S
C2364 C2362 1.391 . S
C2364 C2365 1.400 . S
C2365 C2359 1.491 1_545 S
C2365 C2364 1.400 . S
C2365 C2366 1.398 . S
C2366 H2354 0.950 . S
C2366 C2365 1.398 . S
C2366 C2367 1.391 . S
C2367 H2355 0.950 . S
C2367 C2363 1.393 . S
C2367 C2366 1.391 . S
H2368 C2376 0.950 . S
H2369 C2381 0.950 . S
H2370 C2378 0.950 . S
H2371 C2380 0.950 . S
H2372 C2382 0.950 . S
H2373 C2384 0.950 . S
H2374 C2386 0.950 . S
H2375 C2387 0.950 . S
C2376 H2368 0.950 . S
C2376 C2377 1.386 . S
C2376 C2378 1.391 . S
C2377 C2376 1.386 . S
C2377 C2381 1.393 1_655 S
C2378 H2370 0.950 . S
C2378 C2376 1.391 . S
C2378 C2379 1.400 . S
C2379 C2378 1.400 . S
C2379 C2380 1.398 1_655 S
C2379 C2385 1.491 1_655 S
C2380 H2371 0.950 . S
C2380 C2379 1.398 1_455 S
C2380 C2381 1.391 . S
C2381 H2369 0.950 . S
C2381 C2377 1.393 1_455 S
C2381 C2380 1.391 . S
C2382 H2372 0.950 . S
C2382 C2383 1.386 . S
C2382 C2384 1.391 . S
C2383 C2382 1.386 . S
C2383 C2387 1.393 1_455 S
C2384 H2373 0.950 . S
C2384 C2382 1.391 . S
C2384 C2385 1.400 . S
C2385 C2379 1.491 1_455 S
C2385 C2384 1.400 . S
C2385 C2386 1.398 1_455 S
C2386 H2374 0.950 . S
C2386 C2385 1.398 1_655 S
C2386 C2387 1.391 . S
C2387 H2375 0.950 . S
C2387 C2383 1.393 1_655 S
C2387 C2386 1.391 . S
H2388 C2396 0.950 . S
H2389 C2401 0.950 . S
H2390 C2398 0.950 . S
H2391 C2400 0.950 . S
H2392 C2402 0.950 . S
H2393 C2404 0.950 . S
H2394 C2406 0.950 . S
H2395 C2407 0.950 . S
C2396 H2388 0.950 . S
C2396 C2397 1.386 . S
C2396 C2398 1.391 . S
C2397 C2396 1.386 . S
C2397 C2401 1.393 . S
C2398 H2390 0.950 . S
C2398 C2396 1.391 . S
C2398 C2399 1.400 . S
C2399 C2398 1.400 . S
C2399 C2400 1.398 . S
C2399 C2405 1.491 . S
C2400 H2391 0.950 . S
C2400 C2399 1.398 . S
C2400 C2401 1.391 . S
C2401 H2389 0.950 . S
C2401 C2397 1.393 . S
C2401 C2400 1.391 . S
C2402 H2392 0.950 . S
C2402 C2403 1.386 . S
C2402 C2404 1.391 . S
C2403 C2402 1.386 . S
C2403 C2407 1.393 . S
C2404 H2393 0.950 . S
C2404 C2402 1.391 . S
C2404 C2405 1.400 . S
C2405 C2399 1.491 . S
C2405 C2404 1.400 . S
C2405 C2406 1.398 . S
C2406 H2394 0.950 . S
C2406 C2405 1.398 . S
C2406 C2407 1.391 . S
C2407 H2395 0.950 . S
C2407 C2403 1.393 . S
C2407 C2406 1.391 . S
H2408 C2416 0.950 . S
H2409 C2421 0.950 . S
H2410 C2418 0.950 . S
H2411 C2420 0.950 . S
H2412 C2422 0.950 . S
H2413 C2424 0.950 . S
H2414 C2426 0.950 . S
H2415 C2427 0.950 . S
C2416 H2408 0.950 . S
C2416 C2417 1.386 . S
C2416 C2418 1.391 . S
C2417 C2416 1.386 . S
C2417 C2421 1.393 . S
C2418 H2410 0.950 . S
C2418 C2416 1.391 . S
C2418 C2419 1.400 . S
C2419 C2418 1.400 . S
C2419 C2420 1.398 . S
C2419 C2425 1.491 . S
C2420 H2411 0.950 . S
C2420 C2419 1.398 . S
C2420 C2421 1.391 . S
C2421 H2409 0.950 . S
C2421 C2417 1.393 . S
C2421 C2420 1.391 . S
C2422 H2412 0.950 . S
C2422 C2423 1.386 . S
C2422 C2424 1.391 . S
C2423 C2422 1.386 . S
C2423 C2427 1.393 . S
C2424 H2413 0.950 . S
C2424 C2422 1.391 . S
C2424 C2425 1.400 . S
C2425 C2419 1.491 . S
C2425 C2424 1.400 . S
C2425 C2426 1.398 . S
C2426 H2414 0.950 . S
C2426 C2425 1.398 . S
C2426 C2427 1.391 . S
C2427 H2415 0.950 . S
C2427 C2423 1.393 . S
C2427 C2426 1.391 . S
H2428 C2436 0.950 . S
H2429 C2441 0.950 . S
H2430 C2438 0.950 . S
H2431 C2440 0.950 . S
H2432 C2442 0.950 . S
H2433 C2444 0.950 . S
H2434 C2446 0.950 . S
H2435 C2447 0.950 . S
C2436 H2428 0.950 . S
C2436 C2437 1.386 . S
C2436 C2438 1.391 . S
C2437 C2436 1.386 . S
C2437 C2441 1.393 . S
C2438 H2430 0.950 . S
C2438 C2436 1.391 . S
C2438 C2439 1.400 . S
C2439 C2438 1.400 . S
C2439 C2440 1.398 . S
C2439 C2445 1.491 . S
C2440 H2431 0.950 . S
C2440 C2439 1.398 . S
C2440 C2441 1.391 . S
C2441 H2429 0.950 . S
C2441 C2437 1.393 . S
C2441 C2440 1.391 . S
C2442 H2432 0.950 . S
C2442 C2443 1.386 . S
C2442 C2444 1.391 . S
C2443 C2442 1.386 . S
C2443 C2447 1.393 . S
C2444 H2433 0.950 . S
C2444 C2442 1.391 . S
C2444 C2445 1.400 . S
C2445 C2439 1.491 . S
C2445 C2444 1.400 . S
C2445 C2446 1.398 . S
C2446 H2434 0.950 . S
C2446 C2445 1.398 . S
C2446 C2447 1.391 . S
C2447 H2435 0.950 . S
C2447 C2443 1.393 . S
C2447 C2446 1.391 . S
H2448 C2456 0.950 . S
H2449 C2461 0.950 . S
H2450 C2458 0.950 . S
H2451 C2460 0.950 . S
H2452 C2462 0.950 . S
H2453 C2464 0.950 . S
H2454 C2466 0.950 . S
H2455 C2467 0.950 . S
C2456 H2448 0.950 . S
C2456 C2457 1.386 . S
C2456 C2458 1.391 . S
C2457 C2456 1.386 . S
C2457 C2461 1.393 . S
C2458 H2450 0.950 . S
C2458 C2456 1.391 . S
C2458 C2459 1.400 . S
C2459 C2458 1.400 . S
C2459 C2460 1.398 . S
C2459 C2465 1.491 . S
C2460 H2451 0.950 . S
C2460 C2459 1.398 . S
C2460 C2461 1.391 . S
C2461 H2449 0.950 . S
C2461 C2457 1.393 . S
C2461 C2460 1.391 . S
C2462 H2452 0.950 . S
C2462 C2463 1.386 . S
C2462 C2464 1.391 . S
C2463 C2462 1.386 . S
C2463 C2467 1.393 . S
C2464 H2453 0.950 . S
C2464 C2462 1.391 . S
C2464 C2465 1.400 . S
C2465 C2459 1.491 . S
C2465 C2464 1.400 . S
C2465 C2466 1.398 . S
C2466 H2454 0.950 . S
C2466 C2465 1.398 . S
C2466 C2467 1.391 . S
C2467 H2455 0.950 . S
C2467 C2463 1.393 . S
C2467 C2466 1.391 . S
H2468 C2476 0.950 . S
H2469 C2481 0.950 . S
H2470 C2478 0.950 . S
H2471 C2480 0.950 . S
H2472 C2482 0.954 . S
H2473 C2484 0.950 . S
H2474 C2486 0.950 . S
H2475 C2487 0.950 . S
C2476 H2468 0.950 . S
C2476 C2477 1.386 . S
C2476 C2478 1.391 . S
C2477 C2476 1.386 . S
C2477 C2481 1.393 . S
C2478 H2470 0.950 . S
C2478 C2476 1.391 . S
C2478 C2479 1.400 . S
C2479 C2478 1.400 . S
C2479 C2480 1.398 . S
C2479 C2485 1.491 . S
C2480 H2471 0.950 . S
C2480 C2479 1.398 . S
C2480 C2481 1.391 . S
C2481 H2469 0.950 . S
C2481 C2477 1.393 . S
C2481 C2480 1.391 . S
C2482 H2472 0.954 . S
C2482 C2483 1.386 . S
C2482 C2484 1.391 . S
C2483 C2482 1.386 . S
C2483 C2487 1.393 . S
C2484 H2473 0.950 . S
C2484 C2482 1.391 . S
C2484 C2485 1.400 . S
C2485 C2479 1.491 . S
C2485 C2484 1.400 . S
C2485 C2486 1.398 . S
C2486 H2474 0.950 . S
C2486 C2485 1.398 . S
C2486 C2487 1.391 . S
C2487 H2475 0.950 . S
C2487 C2483 1.393 . S
C2487 C2486 1.391 . S
H2488 C2496 0.950 . S
H2489 C2501 0.950 . S
H2490 C2498 0.950 . S
H2491 C2500 0.950 . S
H2492 C2502 0.950 . S
H2493 C2504 0.950 . S
H2494 C2506 0.950 . S
H2495 C2507 0.950 . S
C2496 H2488 0.950 . S
C2496 C2497 1.386 . S
C2496 C2498 1.391 . S
C2497 C2496 1.386 . S
C2497 C2501 1.393 . S
C2498 H2490 0.950 . S
C2498 C2496 1.391 . S
C2498 C2499 1.400 . S
C2499 C2498 1.400 . S
C2499 C2500 1.398 . S
C2499 C2505 1.491 . S
C2500 H2491 0.950 . S
C2500 C2499 1.398 . S
C2500 C2501 1.391 . S
C2501 H2489 0.950 . S
C2501 C2497 1.393 . S
C2501 C2500 1.391 . S
C2502 H2492 0.950 . S
C2502 C2503 1.386 . S
C2502 C2504 1.391 . S
C2503 C2502 1.386 . S
C2503 C2507 1.393 . S
C2504 H2493 0.950 . S
C2504 C2502 1.391 . S
C2504 C2505 1.400 . S
C2505 C2499 1.491 . S
C2505 C2504 1.400 . S
C2505 C2506 1.398 . S
C2506 H2494 0.950 . S
C2506 C2505 1.398 . S
C2506 C2507 1.391 . S
C2507 H2495 0.950 . S
C2507 C2503 1.393 . S
C2507 C2506 1.391 . S
H2508 C2516 0.950 . S
H2509 C2521 0.950 . S
H2510 C2518 0.950 . S
H2511 C2520 0.950 . S
H2512 C2522 0.976 . S
H2513 C2524 0.950 . S
H2514 C2526 0.950 . S
H2515 C2527 0.950 . S
C2516 H2508 0.950 . S
C2516 C2517 1.386 . S
C2516 C2518 1.391 . S
C2517 C2516 1.386 . S
C2517 C2521 1.393 . S
C2518 H2510 0.950 . S
C2518 C2516 1.391 . S
C2518 C2519 1.400 . S
C2519 C2518 1.400 . S
C2519 C2520 1.398 . S
C2519 C2525 1.491 . S
C2520 H2511 0.950 . S
C2520 C2519 1.398 . S
C2520 C2521 1.391 . S
C2521 H2509 0.950 . S
C2521 C2517 1.393 . S
C2521 C2520 1.391 . S
C2522 H2512 0.976 . S
C2522 C2523 1.386 . S
C2522 C2524 1.391 . S
C2523 C2522 1.386 . S
C2523 C2527 1.393 . S
C2524 H2513 0.950 . S
C2524 C2522 1.391 . S
C2524 C2525 1.400 . S
C2525 C2519 1.491 . S
C2525 C2524 1.400 . S
C2525 C2526 1.398 . S
C2526 H2514 0.950 . S
C2526 C2525 1.398 . S
C2526 C2527 1.391 . S
C2527 H2515 0.950 . S
C2527 C2523 1.393 . S
C2527 C2526 1.391 . S
H2528 C2536 0.950 . S
H2529 C2541 0.950 1_554 S
H2530 C2538 0.950 . S
H2531 C2540 0.950 . S
H2532 C2542 0.950 . S
H2533 C2544 0.950 . S
H2534 C2546 0.950 . S
H2535 C2547 0.950 . S
C2536 H2528 0.950 . S
C2536 C2537 1.386 . S
C2536 C2538 1.391 . S
C2537 C2536 1.386 . S
C2537 C2541 1.393 . S
C2538 H2530 0.950 . S
C2538 C2536 1.391 . S
C2538 C2539 1.400 . S
C2539 C2538 1.400 . S
C2539 C2540 1.398 . S
C2539 C2545 1.491 . S
C2540 H2531 0.950 . S
C2540 C2539 1.398 . S
C2540 C2541 1.391 . S
C2541 H2529 0.950 1_556 S
C2541 C2537 1.393 . S
C2541 C2540 1.391 . S
C2542 H2532 0.950 . S
C2542 C2543 1.386 . S
C2542 C2544 1.391 . S
C2543 C2542 1.386 . S
C2543 C2547 1.393 . S
C2544 H2533 0.950 . S
C2544 C2542 1.391 . S
C2544 C2545 1.400 . S
C2545 C2539 1.491 . S
C2545 C2544 1.400 . S
C2545 C2546 1.398 . S
C2546 H2534 0.950 . S
C2546 C2545 1.398 . S
C2546 C2547 1.391 . S
C2547 H2535 0.950 . S
C2547 C2543 1.393 . S
C2547 C2546 1.391 . S
H2548 C2556 0.950 . S
H2549 C2561 0.950 . S
H2550 C2558 0.950 . S
H2551 C2560 0.950 . S
H2552 C2562 0.950 . S
H2553 C2564 0.950 . S
H2554 C2566 0.950 . S
H2555 C2567 0.950 . S
C2556 H2548 0.950 . S
C2556 C2557 1.386 . S
C2556 C2558 1.391 . S
C2557 C2556 1.386 . S
C2557 C2561 1.393 . S
C2558 H2550 0.950 . S
C2558 C2556 1.391 . S
C2558 C2559 1.400 . S
C2559 C2558 1.400 . S
C2559 C2560 1.398 . S
C2559 C2565 1.491 . S
C2560 H2551 0.950 . S
C2560 C2559 1.398 . S
C2560 C2561 1.391 . S
C2561 H2549 0.950 . S
C2561 C2557 1.393 . S
C2561 C2560 1.391 . S
C2562 H2552 0.950 . S
C2562 C2563 1.386 . S
C2562 C2564 1.391 . S
C2563 C2562 1.386 . S
C2563 C2567 1.393 . S
C2564 H2553 0.950 . S
C2564 C2562 1.391 . S
C2564 C2565 1.400 . S
C2565 C2559 1.491 . S
C2565 C2564 1.400 . S
C2565 C2566 1.398 . S
C2566 H2554 0.950 . S
C2566 C2565 1.398 . S
C2566 C2567 1.391 . S
C2567 H2555 0.950 . S
C2567 C2563 1.393 . S
C2567 C2566 1.391 . S
H2568 C2576 0.950 . S
H2569 C2581 0.950 . S
H2570 C2578 0.950 . S
H2571 C2580 0.950 . S
H2572 C2582 0.950 . S
H2573 C2584 0.950 . S
H2574 C2586 0.950 . S
H2575 C2587 0.950 . S
C2576 H2568 0.950 . S
C2576 C2577 1.386 . S
C2576 C2578 1.391 . S
C2577 C2576 1.386 . S
C2577 C2581 1.393 . S
C2578 H2570 0.950 . S
C2578 C2576 1.391 . S
C2578 C2579 1.400 . S
C2579 C2578 1.400 . S
C2579 C2580 1.398 . S
C2579 C2585 1.491 . S
C2580 H2571 0.950 . S
C2580 C2579 1.398 . S
C2580 C2581 1.391 . S
C2581 H2569 0.950 . S
C2581 C2577 1.393 . S
C2581 C2580 1.391 . S
C2582 H2572 0.950 . S
C2582 C2583 1.386 . S
C2582 C2584 1.391 . S
C2583 C2582 1.386 . S
C2583 C2587 1.393 . S
C2584 H2573 0.950 . S
C2584 C2582 1.391 . S
C2584 C2585 1.400 . S
C2585 C2579 1.491 . S
C2585 C2584 1.400 . S
C2585 C2586 1.398 . S
C2586 H2574 0.950 . S
C2586 C2585 1.398 . S
C2586 C2587 1.391 . S
C2587 H2575 0.950 . S
C2587 C2583 1.393 . S
C2587 C2586 1.391 . S
H2588 C2596 0.950 . S
H2589 C2601 0.950 . S
H2590 C2598 0.950 . S
H2591 C2600 0.950 . S
H2592 C2602 0.950 . S
H2593 C2604 0.950 . S
H2594 C2606 0.950 . S
H2595 C2607 0.950 . S
C2596 H2588 0.950 . S
C2596 C2597 1.386 . S
C2596 C2598 1.391 . S
C2597 C2596 1.386 . S
C2597 C2601 1.393 . S
C2598 H2590 0.950 . S
C2598 C2596 1.391 . S
C2598 C2599 1.400 . S
C2599 C2598 1.400 . S
C2599 C2600 1.398 . S
C2599 C2605 1.491 . S
C2600 H2591 0.950 . S
C2600 C2599 1.398 . S
C2600 C2601 1.391 . S
C2601 H2589 0.950 . S
C2601 C2597 1.393 . S
C2601 C2600 1.391 . S
C2602 H2592 0.950 . S
C2602 C2603 1.386 . S
C2602 C2604 1.391 . S
C2603 C2602 1.386 . S
C2603 C2607 1.393 . S
C2604 H2593 0.950 . S
C2604 C2602 1.391 . S
C2604 C2605 1.400 . S
C2605 C2599 1.491 . S
C2605 C2604 1.400 . S
C2605 C2606 1.398 . S
C2606 H2594 0.950 . S
C2606 C2605 1.398 . S
C2606 C2607 1.391 . S
C2607 H2595 0.950 . S
C2607 C2603 1.393 . S
C2607 C2606 1.391 . S
H2608 C2616 0.950 . S
H2609 C2621 0.950 . S
H2610 C2618 0.950 . S
H2611 C2620 0.950 . S
H2612 C2622 0.950 . S
H2613 C2624 0.950 . S
H2614 C2626 0.950 . S
H2615 C2627 0.950 . S
C2616 H2608 0.950 . S
C2616 C2617 1.386 . S
C2616 C2618 1.391 . S
C2617 C2616 1.386 . S
C2617 C2621 1.393 . S
C2618 H2610 0.950 . S
C2618 C2616 1.391 . S
C2618 C2619 1.400 . S
C2619 C2618 1.400 . S
C2619 C2620 1.398 . S
C2619 C2625 1.491 . S
C2620 H2611 0.950 . S
C2620 C2619 1.398 . S
C2620 C2621 1.391 . S
C2621 H2609 0.950 . S
C2621 C2617 1.393 . S
C2621 C2620 1.391 . S
C2622 H2612 0.950 . S
C2622 C2623 1.386 . S
C2622 C2624 1.391 . S
C2623 C2622 1.386 . S
C2623 C2627 1.393 . S
C2624 H2613 0.950 . S
C2624 C2622 1.391 . S
C2624 C2625 1.400 . S
C2625 C2619 1.491 . S
C2625 C2624 1.400 . S
C2625 C2626 1.398 . S
C2626 H2614 0.950 . S
C2626 C2625 1.398 . S
C2626 C2627 1.391 . S
C2627 H2615 0.950 . S
C2627 C2623 1.393 . S
C2627 C2626 1.391 . S
H2628 C2636 0.950 . S
H2629 C2641 0.950 . S
H2630 C2638 0.950 . S
H2631 C2640 0.950 . S
H2632 C2642 0.950 . S
H2633 C2644 0.950 . S
H2634 C2646 0.950 . S
H2635 C2647 0.950 . S
C2636 H2628 0.950 . S
C2636 C2637 1.386 . S
C2636 C2638 1.391 . S
C2637 C2636 1.386 . S
C2637 C2641 1.393 . S
C2638 H2630 0.950 . S
C2638 C2636 1.391 . S
C2638 C2639 1.400 . S
C2639 C2638 1.400 . S
C2639 C2640 1.398 . S
C2639 C2645 1.491 . S
C2640 H2631 0.950 . S
C2640 C2639 1.398 . S
C2640 C2641 1.391 . S
C2641 H2629 0.950 . S
C2641 C2637 1.393 . S
C2641 C2640 1.391 . S
C2642 H2632 0.950 . S
C2642 C2643 1.386 . S
C2642 C2644 1.391 . S
C2643 C2642 1.386 . S
C2643 C2647 1.393 . S
C2644 H2633 0.950 . S
C2644 C2642 1.391 . S
C2644 C2645 1.400 . S
C2645 C2639 1.491 . S
C2645 C2644 1.400 . S
C2645 C2646 1.398 . S
C2646 H2634 0.950 . S
C2646 C2645 1.398 . S
C2646 C2647 1.391 . S
C2647 H2635 0.950 . S
C2647 C2643 1.393 . S
C2647 C2646 1.391 . S
H2648 C2656 0.950 . S
H2649 C2661 0.950 . S
H2650 C2658 0.950 1_545 S
H2651 C2660 0.950 . S
H2652 C2662 0.950 . S
H2653 C2664 0.950 . S
H2654 C2666 0.950 . S
H2655 C2667 0.950 . S
C2656 H2648 0.950 . S
C2656 C2657 1.386 . S
C2656 C2658 1.391 . S
C2657 C2656 1.386 . S
C2657 C2661 1.393 . S
C2658 H2650 0.950 1_565 S
C2658 C2656 1.391 . S
C2658 C2659 1.400 . S
C2659 C2658 1.400 . S
C2659 C2660 1.398 . S
C2659 C2665 1.491 . S
C2660 H2651 0.950 . S
C2660 C2659 1.398 . S
C2660 C2661 1.391 . S
C2661 H2649 0.950 . S
C2661 C2657 1.393 . S
C2661 C2660 1.391 . S
C2662 H2652 0.950 . S
C2662 C2663 1.386 1_565 S
C2662 C2664 1.391 . S
C2663 C2662 1.386 1_545 S
C2663 C2667 1.393 . S
C2664 H2653 0.950 . S
C2664 C2662 1.391 . S
C2664 C2665 1.400 . S
C2665 C2659 1.491 . S
C2665 C2664 1.400 . S
C2665 C2666 1.398 1_565 S
C2666 H2654 0.950 . S
C2666 C2665 1.398 1_545 S
C2666 C2667 1.391 . S
C2667 H2655 0.950 . S
C2667 C2663 1.393 . S
C2667 C2666 1.391 . S
H2668 C2676 0.950 . S
H2669 C2681 0.950 . S
H2670 C2678 0.950 . S
H2671 C2680 0.950 . S
H2672 C2682 0.950 . S
H2673 C2684 0.950 . S
H2674 C2686 0.950 . S
H2675 C2687 0.950 . S
C2676 H2668 0.950 . S
C2676 C2677 1.386 . S
C2676 C2678 1.391 . S
C2677 C2676 1.386 . S
C2677 C2681 1.393 1_655 S
C2678 H2670 0.950 . S
C2678 C2676 1.391 . S
C2678 C2679 1.400 1_655 S
C2679 C2678 1.400 1_455 S
C2679 C2680 1.398 . S
C2679 C2685 1.491 . S
C2680 H2671 0.950 . S
C2680 C2679 1.398 . S
C2680 C2681 1.391 . S
C2681 H2669 0.950 . S
C2681 C2677 1.393 1_455 S
C2681 C2680 1.391 . S
C2682 H2672 0.950 . S
C2682 C2683 1.386 . S
C2682 C2684 1.391 . S
C2683 C2682 1.386 . S
C2683 C2687 1.393 . S
C2684 H2673 0.950 . S
C2684 C2682 1.391 . S
C2684 C2685 1.400 . S
C2685 C2679 1.491 . S
C2685 C2684 1.400 . S
C2685 C2686 1.398 . S
C2686 H2674 0.950 . S
C2686 C2685 1.398 . S
C2686 C2687 1.391 . S
C2687 H2675 0.950 . S
C2687 C2683 1.393 . S
C2687 C2686 1.391 . S
H2688 C2696 0.950 . S
H2689 C2701 0.950 . S
H2690 C2698 0.950 . S
H2691 C2700 0.950 . S
H2692 C2702 0.950 . S
H2693 C2704 0.950 . S
H2694 C2706 0.950 . S
H2695 C2707 0.950 . S
C2696 H2688 0.950 . S
C2696 C2697 1.386 . S
C2696 C2698 1.391 . S
C2697 C2696 1.386 . S
C2697 C2701 1.393 . S
C2698 H2690 0.950 . S
C2698 C2696 1.391 . S
C2698 C2699 1.400 . S
C2699 C2698 1.400 . S
C2699 C2700 1.398 . S
C2699 C2705 1.491 . S
C2700 H2691 0.950 . S
C2700 C2699 1.398 . S
C2700 C2701 1.391 . S
C2701 H2689 0.950 . S
C2701 C2697 1.393 . S
C2701 C2700 1.391 . S
C2702 H2692 0.950 . S
C2702 C2703 1.386 . S
C2702 C2704 1.391 . S
C2703 C2702 1.386 . S
C2703 C2707 1.393 . S
C2704 H2693 0.950 . S
C2704 C2702 1.391 . S
C2704 C2705 1.400 . S
C2705 C2699 1.491 . S
C2705 C2704 1.400 . S
C2705 C2706 1.398 . S
C2706 H2694 0.950 . S
C2706 C2705 1.398 . S
C2706 C2707 1.391 . S
C2707 H2695 0.950 . S
C2707 C2703 1.393 . S
C2707 C2706 1.391 . S
H2708 C2716 0.950 . S
H2709 C2721 0.950 . S
H2710 C2718 0.950 . S
H2711 C2720 0.950 . S
H2712 C2722 0.950 . S
H2713 C2724 0.950 . S
H2714 C2726 0.950 1_565 S
H2715 C2727 0.950 . S
C2716 H2708 0.950 . S
C2716 C2717 1.386 . S
C2716 C2718 1.391 . S
C2717 C2716 1.386 . S
C2717 C2721 1.393 1_565 S
C2718 H2710 0.950 . S
C2718 C2716 1.391 . S
C2718 C2719 1.400 1_565 S
C2719 C2718 1.400 1_545 S
C2719 C2720 1.398 . S
C2719 C2725 1.491 . S
C2720 H2711 0.950 . S
C2720 C2719 1.398 . S
C2720 C2721 1.391 . S
C2721 H2709 0.950 . S
C2721 C2717 1.393 1_545 S
C2721 C2720 1.391 . S
C2722 H2712 0.950 . S
C2722 C2723 1.386 . S
C2722 C2724 1.391 . S
C2723 C2722 1.386 . S
C2723 C2727 1.393 . S
C2724 H2713 0.950 . S
C2724 C2722 1.391 . S
C2724 C2725 1.400 . S
C2725 C2719 1.491 . S
C2725 C2724 1.400 . S
C2725 C2726 1.398 . S
C2726 H2714 0.950 1_545 S
C2726 C2725 1.398 . S
C2726 C2727 1.391 . S
C2727 H2715 0.950 . S
C2727 C2723 1.393 . S
C2727 C2726 1.391 . S
H2728 C2736 0.950 . S
H2729 C2741 0.950 . S
H2730 C2738 0.950 . S
H2731 C2740 0.950 . S
H2732 C2742 0.950 . S
H2733 C2744 0.950 1_455 S
H2734 C2746 0.950 . S
H2735 C2747 0.950 . S
C2736 H2728 0.950 . S
C2736 C2737 1.386 1_655 S
C2736 C2738 1.391 . S
C2737 C2736 1.386 1_455 S
C2737 C2741 1.393 . S
C2738 H2730 0.950 . S
C2738 C2736 1.391 . S
C2738 C2739 1.400 . S
C2739 C2738 1.400 . S
C2739 C2740 1.398 1_655 S
C2739 C2745 1.491 . S
C2740 H2731 0.950 . S
C2740 C2739 1.398 1_455 S
C2740 C2741 1.391 . S
C2741 H2729 0.950 . S
C2741 C2737 1.393 . S
C2741 C2740 1.391 . S
C2742 H2732 0.950 . S
C2742 C2743 1.386 . S
C2742 C2744 1.391 . S
C2743 C2742 1.386 . S
C2743 C2747 1.393 . S
C2744 H2733 0.950 1_655 S
C2744 C2742 1.391 . S
C2744 C2745 1.400 . S
C2745 C2739 1.491 . S
C2745 C2744 1.400 . S
C2745 C2746 1.398 . S
C2746 H2734 0.950 . S
C2746 C2745 1.398 . S
C2746 C2747 1.391 . S
C2747 H2735 0.950 . S
C2747 C2743 1.393 . S
C2747 C2746 1.391 . S
H2748 C2756 0.950 . S
H2749 C2761 0.950 . S
H2750 C2758 0.950 . S
H2751 C2760 0.950 . S
H2752 C2762 0.950 . S
H2753 C2764 0.950 . S
H2754 C2766 0.950 . S
H2755 C2767 0.950 . S
C2756 H2748 0.950 . S
C2756 C2757 1.386 . S
C2756 C2758 1.391 . S
C2757 C2756 1.386 . S
C2757 C2761 1.393 . S
C2758 H2750 0.950 . S
C2758 C2756 1.391 . S
C2758 C2759 1.400 . S
C2759 C2758 1.400 . S
C2759 C2760 1.398 . S
C2759 C2765 1.491 . S
C2760 H2751 0.950 . S
C2760 C2759 1.398 . S
C2760 C2761 1.391 . S
C2761 H2749 0.950 . S
C2761 C2757 1.393 . S
C2761 C2760 1.391 . S
C2762 H2752 0.950 . S
C2762 C2763 1.386 . S
C2762 C2764 1.391 . S
C2763 C2762 1.386 . S
C2763 C2767 1.393 . S
C2764 H2753 0.950 . S
C2764 C2762 1.391 . S
C2764 C2765 1.400 . S
C2765 C2759 1.491 . S
C2765 C2764 1.400 . S
C2765 C2766 1.398 . S
C2766 H2754 0.950 . S
C2766 C2765 1.398 . S
C2766 C2767 1.391 . S
C2767 H2755 0.950 . S
C2767 C2763 1.393 . S
C2767 C2766 1.391 . S
H2768 C2776 0.950 . S
H2769 C2781 0.950 . S
H2770 C2778 0.950 . S
H2771 C2780 0.950 . S
H2772 C2782 0.950 . S
H2773 C2784 0.950 . S
H2774 C2786 0.950 . S
H2775 C2787 0.950 . S
C2776 H2768 0.950 . S
C2776 C2777 1.386 . S
C2776 C2778 1.391 . S
C2777 C2776 1.386 . S
C2777 C2781 1.393 1_565 S
C2778 H2770 0.950 . S
C2778 C2776 1.391 . S
C2778 C2779 1.400 1_565 S
C2779 C2778 1.400 1_545 S
C2779 C2780 1.398 . S
C2779 C2785 1.491 . S
C2780 H2771 0.950 . S
C2780 C2779 1.398 . S
C2780 C2781 1.391 . S
C2781 H2769 0.950 . S
C2781 C2777 1.393 1_545 S
C2781 C2780 1.391 . S
C2782 H2772 0.950 . S
C2782 C2783 1.386 . S
C2782 C2784 1.391 . S
C2783 C2782 1.386 . S
C2783 C2787 1.393 . S
C2784 H2773 0.950 . S
C2784 C2782 1.391 . S
C2784 C2785 1.400 . S
C2785 C2779 1.491 . S
C2785 C2784 1.400 . S
C2785 C2786 1.398 . S
C2786 H2774 0.950 . S
C2786 C2785 1.398 . S
C2786 C2787 1.391 . S
C2787 H2775 0.950 . S
C2787 C2783 1.393 . S
C2787 C2786 1.391 . S
H2788 C2796 0.950 . S
H2789 C2801 0.950 . S
H2790 C2798 0.950 . S
H2791 C2800 0.950 . S
H2792 C2802 0.950 . S
H2793 C2804 0.950 . S
H2794 C2806 0.950 . S
H2795 C2807 0.950 . S
C2796 H2788 0.950 . S
C2796 C2797 1.386 . S
C2796 C2798 1.391 . S
C2797 C2796 1.386 . S
C2797 C2801 1.393 . S
C2798 H2790 0.950 . S
C2798 C2796 1.391 . S
C2798 C2799 1.400 . S
C2799 C2798 1.400 . S
C2799 C2800 1.398 . S
C2799 C2805 1.491 . S
C2800 H2791 0.950 . S
C2800 C2799 1.398 . S
C2800 C2801 1.391 . S
C2801 H2789 0.950 . S
C2801 C2797 1.393 . S
C2801 C2800 1.391 . S
C2802 H2792 0.950 . S
C2802 C2803 1.386 1_655 S
C2802 C2804 1.391 . S
C2803 C2802 1.386 1_455 S
C2803 C2807 1.393 . S
C2804 H2793 0.950 . S
C2804 C2802 1.391 . S
C2804 C2805 1.400 . S
C2805 C2799 1.491 . S
C2805 C2804 1.400 . S
C2805 C2806 1.398 1_655 S
C2806 H2794 0.950 . S
C2806 C2805 1.398 1_455 S
C2806 C2807 1.391 . S
C2807 H2795 0.950 . S
C2807 C2803 1.393 . S
C2807 C2806 1.391 . S
H2808 C2816 0.950 . S
H2809 C2821 0.950 . S
H2810 C2818 0.950 . S
H2811 C2820 0.950 . S
H2812 C2822 0.950 . S
H2813 C2824 0.950 . S
H2814 C2826 0.950 . S
H2815 C2827 0.950 . S
C2816 H2808 0.950 . S
C2816 C2817 1.386 . S
C2816 C2818 1.391 . S
C2817 C2816 1.386 . S
C2817 C2821 1.393 . S
C2818 H2810 0.950 . S
C2818 C2816 1.391 . S
C2818 C2819 1.400 . S
C2819 C2818 1.400 . S
C2819 C2820 1.398 . S
C2819 C2825 1.491 . S
C2820 H2811 0.950 . S
C2820 C2819 1.398 . S
C2820 C2821 1.391 . S
C2821 H2809 0.950 . S
C2821 C2817 1.393 . S
C2821 C2820 1.391 . S
C2822 H2812 0.950 . S
C2822 C2823 1.386 . S
C2822 C2824 1.391 . S
C2823 C2822 1.386 . S
C2823 C2827 1.393 . S
C2824 H2813 0.950 . S
C2824 C2822 1.391 . S
C2824 C2825 1.400 . S
C2825 C2819 1.491 . S
C2825 C2824 1.400 . S
C2825 C2826 1.398 . S
C2826 H2814 0.950 . S
C2826 C2825 1.398 . S
C2826 C2827 1.391 . S
C2827 H2815 0.950 . S
C2827 C2823 1.393 . S
C2827 C2826 1.391 . S
H2828 C2836 0.950 . S
H2829 C2841 0.950 . S
H2830 C2838 0.950 1_545 S
H2831 C2840 0.950 . S
H2832 C2842 0.950 . S
H2833 C2844 0.950 . S
H2834 C2846 0.950 . S
H2835 C2847 0.950 . S
C2836 H2828 0.950 . S
C2836 C2837 1.386 . S
C2836 C2838 1.391 . S
C2837 C2836 1.386 . S
C2837 C2841 1.393 . S
C2838 H2830 0.950 1_565 S
C2838 C2836 1.391 . S
C2838 C2839 1.400 . S
C2839 C2838 1.400 . S
C2839 C2840 1.398 . S
C2839 C2845 1.491 . S
C2840 H2831 0.950 . S
C2840 C2839 1.398 . S
C2840 C2841 1.391 . S
C2841 H2829 0.950 . S
C2841 C2837 1.393 . S
C2841 C2840 1.391 . S
C2842 H2832 0.950 . S
C2842 C2843 1.386 1_565 S
C2842 C2844 1.391 . S
C2843 C2842 1.386 1_545 S
C2843 C2847 1.393 . S
C2844 H2833 0.950 . S
C2844 C2842 1.391 . S
C2844 C2845 1.400 . S
C2845 C2839 1.491 . S
C2845 C2844 1.400 . S
C2845 C2846 1.398 1_565 S
C2846 H2834 0.950 . S
C2846 C2845 1.398 1_545 S
C2846 C2847 1.391 . S
C2847 H2835 0.950 . S
C2847 C2843 1.393 . S
C2847 C2846 1.391 . S
H2848 C2856 0.950 . S
H2849 C2861 0.950 . S
H2850 C2858 0.950 1_655 S
H2851 C2860 0.950 . S
H2852 C2862 0.950 . S
H2853 C2864 0.950 . S
H2854 C2866 0.950 . S
H2855 C2867 0.950 . S
C2856 H2848 0.950 . S
C2856 C2857 1.386 . S
C2856 C2858 1.391 . S
C2857 C2856 1.386 . S
C2857 C2861 1.393 . S
C2858 H2850 0.950 1_455 S
C2858 C2856 1.391 . S
C2858 C2859 1.400 . S
C2859 C2858 1.400 . S
C2859 C2860 1.398 . S
C2859 C2865 1.491 . S
C2860 H2851 0.950 . S
C2860 C2859 1.398 . S
C2860 C2861 1.391 . S
C2861 H2849 0.950 . S
C2861 C2857 1.393 . S
C2861 C2860 1.391 . S
C2862 H2852 0.950 . S
C2862 C2863 1.386 1_455 S
C2862 C2864 1.391 . S
C2863 C2862 1.386 1_655 S
C2863 C2867 1.393 . S
C2864 H2853 0.950 . S
C2864 C2862 1.391 . S
C2864 C2865 1.400 . S
C2865 C2859 1.491 . S
C2865 C2864 1.400 . S
C2865 C2866 1.398 1_455 S
C2866 H2854 0.950 . S
C2866 C2865 1.398 1_655 S
C2866 C2867 1.391 . S
C2867 H2855 0.950 . S
C2867 C2863 1.393 . S
C2867 C2866 1.391 . S
H2868 C2876 0.950 . S
H2869 C2881 0.950 . S
H2870 C2878 0.950 . S
H2871 C2880 0.950 . S
H2872 C2882 0.950 . S
H2873 C2884 0.950 . S
H2874 C2886 0.950 . S
H2875 C2887 0.950 . S
C2876 H2868 0.950 . S
C2876 C2877 1.386 . S
C2876 C2878 1.391 . S
C2877 C2876 1.386 . S
C2877 C2881 1.393 . S
C2878 H2870 0.950 . S
C2878 C2876 1.391 . S
C2878 C2879 1.400 . S
C2879 C2878 1.400 . S
C2879 C2880 1.398 . S
C2879 C2885 1.491 1_655 S
C2880 H2871 0.950 . S
C2880 C2879 1.398 . S
C2880 C2881 1.391 . S
C2881 H2869 0.950 . S
C2881 C2877 1.393 . S
C2881 C2880 1.391 . S
C2882 H2872 0.950 . S
C2882 C2883 1.386 . S
C2882 C2884 1.391 . S
C2883 C2882 1.386 . S
C2883 C2887 1.393 . S
C2884 H2873 0.950 . S
C2884 C2882 1.391 . S
C2884 C2885 1.400 . S
C2885 C2879 1.491 1_455 S
C2885 C2884 1.400 . S
C2885 C2886 1.398 . S
C2886 H2874 0.950 . S
C2886 C2885 1.398 . S
C2886 C2887 1.391 . S
C2887 H2875 0.950 . S
C2887 C2883 1.393 . S
C2887 C2886 1.391 . S
H2888 C2896 0.950 . S
H2889 C2901 0.950 . S
H2890 C2898 0.950 . S
H2891 C2900 0.950 . S
H2892 C2902 0.950 . S
H2893 C2904 0.950 . S
H2894 C2906 0.950 . S
H2895 C2907 0.950 . S
C2896 H2888 0.950 . S
C2896 C2897 1.386 . S
C2896 C2898 1.391 . S
C2897 C2896 1.386 . S
C2897 C2901 1.393 . S
C2898 H2890 0.950 . S
C2898 C2896 1.391 . S
C2898 C2899 1.400 . S
C2899 C2898 1.400 . S
C2899 C2900 1.398 . S
C2899 C2905 1.491 . S
C2900 H2891 0.950 . S
C2900 C2899 1.398 . S
C2900 C2901 1.391 . S
C2901 H2889 0.950 . S
C2901 C2897 1.393 . S
C2901 C2900 1.391 . S
C2902 H2892 0.950 . S
C2902 C2903 1.386 . S
C2902 C2904 1.391 . S
C2903 C2902 1.386 . S
C2903 C2907 1.393 . S
C2904 H2893 0.950 . S
C2904 C2902 1.391 . S
C2904 C2905 1.400 . S
C2905 C2899 1.491 . S
C2905 C2904 1.400 . S
C2905 C2906 1.398 . S
C2906 H2894 0.950 . S
C2906 C2905 1.398 . S
C2906 C2907 1.391 . S
C2907 H2895 0.950 . S
C2907 C2903 1.393 . S
C2907 C2906 1.391 . S
H2908 C2916 0.950 . S
H2909 C2921 0.950 . S
H2910 C2918 0.950 . S
H2911 C2920 0.950 . S
H2912 C2922 0.950 . S
H2913 C2924 0.950 . S
H2914 C2926 0.950 . S
H2915 C2927 0.950 . S
C2916 H2908 0.950 . S
C2916 C2917 1.386 . S
C2916 C2918 1.391 . S
C2917 C2916 1.386 . S
C2917 C2921 1.393 . S
C2918 H2910 0.950 . S
C2918 C2916 1.391 . S
C2918 C2919 1.400 . S
C2919 C2918 1.400 . S
C2919 C2920 1.398 . S
C2919 C2925 1.491 1_545 S
C2920 H2911 0.950 . S
C2920 C2919 1.398 . S
C2920 C2921 1.391 . S
C2921 H2909 0.950 . S
C2921 C2917 1.393 . S
C2921 C2920 1.391 . S
C2922 H2912 0.950 . S
C2922 C2923 1.386 . S
C2922 C2924 1.391 . S
C2923 C2922 1.386 . S
C2923 C2927 1.393 . S
C2924 H2913 0.950 . S
C2924 C2922 1.391 . S
C2924 C2925 1.400 . S
C2925 C2919 1.491 1_565 S
C2925 C2924 1.400 . S
C2925 C2926 1.398 . S
C2926 H2914 0.950 . S
C2926 C2925 1.398 . S
C2926 C2927 1.391 . S
C2927 H2915 0.950 . S
C2927 C2923 1.393 . S
C2927 C2926 1.391 . S
H2928 C2936 0.950 . S
H2929 C2941 0.950 . S
H2930 C2938 0.950 . S
H2931 C2940 0.950 . S
H2932 C2942 0.950 . S
H2933 C2944 0.950 . S
H2934 C2946 0.950 . S
H2935 C2947 0.950 . S
C2936 H2928 0.950 . S
C2936 C2937 1.386 . S
C2936 C2938 1.391 . S
C2937 C2936 1.386 . S
C2937 C2941 1.393 . S
C2938 H2930 0.950 . S
C2938 C2936 1.391 . S
C2938 C2939 1.400 . S
C2939 C2938 1.400 . S
C2939 C2940 1.398 . S
C2939 C2945 1.491 1_545 S
C2940 H2931 0.950 . S
C2940 C2939 1.398 . S
C2940 C2941 1.391 . S
C2941 H2929 0.950 . S
C2941 C2937 1.393 . S
C2941 C2940 1.391 . S
C2942 H2932 0.950 . S
C2942 C2943 1.386 . S
C2942 C2944 1.391 . S
C2943 C2942 1.386 . S
C2943 C2947 1.393 . S
C2944 H2933 0.950 . S
C2944 C2942 1.391 . S
C2944 C2945 1.400 . S
C2945 C2939 1.491 1_565 S
C2945 C2944 1.400 . S
C2945 C2946 1.398 . S
C2946 H2934 0.950 . S
C2946 C2945 1.398 . S
C2946 C2947 1.391 . S
C2947 H2935 0.950 . S
C2947 C2943 1.393 . S
C2947 C2946 1.391 . S
H2948 C2956 0.950 . S
H2949 C2961 0.950 . S
H2950 C2958 0.950 . S
H2951 C2960 0.950 . S
H2952 C2962 0.950 . S
H2953 C2964 0.950 . S
H2954 C2966 0.950 . S
H2955 C2967 0.950 . S
C2956 H2948 0.950 . S
C2956 C2957 1.386 . S
C2956 C2958 1.391 . S
C2957 C2956 1.386 . S
C2957 C2961 1.393 . S
C2958 H2950 0.950 . S
C2958 C2956 1.391 . S
C2958 C2959 1.400 . S
C2959 C2958 1.400 . S
C2959 C2960 1.398 . S
C2959 C2965 1.491 1_655 S
C2960 H2951 0.950 . S
C2960 C2959 1.398 . S
C2960 C2961 1.391 . S
C2961 H2949 0.950 . S
C2961 C2957 1.393 . S
C2961 C2960 1.391 . S
C2962 H2952 0.950 . S
C2962 C2963 1.386 . S
C2962 C2964 1.391 . S
C2963 C2962 1.386 . S
C2963 C2967 1.393 . S
C2964 H2953 0.950 . S
C2964 C2962 1.391 . S
C2964 C2965 1.400 . S
C2965 C2959 1.491 1_455 S
C2965 C2964 1.400 . S
C2965 C2966 1.398 . S
C2966 H2954 0.950 . S
C2966 C2965 1.398 . S
C2966 C2967 1.391 . S
C2967 H2955 0.950 . S
C2967 C2963 1.393 . S
C2967 C2966 1.391 . S
H2968 C2976 0.950 . S
H2969 C2981 0.950 . S
H2970 C2978 0.950 . S
H2971 C2980 0.950 . S
H2972 C2982 0.950 . S
H2973 C2984 0.950 . S
H2974 C2986 0.950 . S
H2975 C2987 0.950 . S
C2976 H2968 0.950 . S
C2976 C2977 1.386 . S
C2976 C2978 1.391 . S
C2977 C2976 1.386 . S
C2977 C2981 1.393 . S
C2978 H2970 0.950 . S
C2978 C2976 1.391 . S
C2978 C2979 1.400 . S
C2979 C2978 1.400 . S
C2979 C2980 1.398 . S
C2979 C2985 1.491 . S
C2980 H2971 0.950 . S
C2980 C2979 1.398 . S
C2980 C2981 1.391 . S
C2981 H2969 0.950 . S
C2981 C2977 1.393 . S
C2981 C2980 1.391 . S
C2982 H2972 0.950 . S
C2982 C2983 1.386 . S
C2982 C2984 1.391 . S
C2983 C2982 1.386 . S
C2983 C2987 1.393 . S
C2984 H2973 0.950 . S
C2984 C2982 1.391 . S
C2984 C2985 1.400 . S
C2985 C2979 1.491 . S
C2985 C2984 1.400 . S
C2985 C2986 1.398 . S
C2986 H2974 0.950 . S
C2986 C2985 1.398 . S
C2986 C2987 1.391 . S
C2987 H2975 0.950 . S
C2987 C2983 1.393 . S
C2987 C2986 1.391 . S
C837 C18 1.187 . S
C843 C181 1.189 . S
C857 C204 1.191 . S
C863 C41 1.195 . S
C877 C158 1.155 . S
C883 C64 1.186 . S
C897 C273 1.186 . S
C903 C87 1.186 . S
C917 C110 1.189 . S
C923 C227 1.163 . S
C937 C133 1.184 . S
C943 C250 1.166 . S
C957 C43 1.191 . S
C963 C156 1.188 . S
C977 C179 1.184 . S
C983 C66 1.169 . S
C997 C20 1.171 . S
C1003 C202 1.192 . S
C1017 C135 1.188 . S
C1023 C225 1.186 . S
C1037 C248 1.195 . S
C1043 C89 1.178 . S
C1057 C271 1.191 . S
C1063 C112 1.181 . S
C1077 C294 1.183 . S
C1083 C457 1.150 . S
C1097 C480 1.158 . S
C1103 C317 1.186 . S
C1117 C434 1.152 . S
C1123 C340 1.184 . S
C1137 C363 1.184 . S
C1143 C549 1.153 . S
C1157 C503 1.169 . S
C1163 C386 1.191 . S
C1177 C409 1.187 . S
C1183 C526 1.159 . S
C1197 C432 1.192 . S
C1203 C319 1.173 . S
C1217 C342 1.151 . S
C1223 C455 1.184 . S
C1237 C478 1.192 . S
C1243 C296 1.171 . S
C1257 C411 1.178 . S
C1263 C501 1.195 . S
C1277 C365 1.175 . S
C1283 C524 1.194 . S
C1297 C547 1.189 . S
C1303 C388 1.165 . S
C1317 C570 1.188 . S
C1323 C733 1.160 . S
C1337 C593 1.184 . S
C1343 C756 1.153 . S
C1357 C710 1.157 . S
C1363 C616 1.187 . S
C1377 C825 1.152 . S
C1383 C639 1.184 . S
C1397 C662 1.195 . S
C1403 C779 1.178 . S
C1417 C802 1.151 . S
C1423 C685 1.184 . S
C1437 C595 1.175 . S
C1443 C708 1.194 . S
C1457 C731 1.189 . S
C1463 C618 1.165 . S
C1477 C572 1.150 . S
C1483 C754 1.183 . S
C1497 C777 1.192 . S
C1503 C687 1.170 . S
C1517 C800 1.183 . S
C1523 C641 1.150 . S
C1537 C823 1.185 . S
C1543 C664 1.155 . S
C1557 C19 1.328 . S
C1563 C433 1.328 . S
C1577 C42 1.310 . S
C1583 C456 1.310 . S
C1597 C479 1.308 . S
C1603 C65 1.308 . S
C1617 C778 1.306 . S
C1623 C88 1.306 . S
C1637 C801 1.306 . S
C1643 C111 1.306 . S
C1657 C824 1.312 . S
C1663 C134 1.312 . S
C1677 C157 1.320 . S
C1683 C571 1.320 . S
C1697 C594 1.327 . S
C1703 C180 1.327 . S
C1717 C203 1.329 . S
C1723 C617 1.329 . S
C1737 C226 1.312 . S
C1743 C364 1.312 . S
C1757 C249 1.332 . S
C1763 C387 1.332 . S
C1777 C272 1.321 . S
C1783 C410 1.321 . S
C1797 C295 1.322 . S
C1803 C709 1.322 . S
C1817 C732 1.329 . S
C1823 C318 1.329 . S
C1837 C341 1.306 . S
C1843 C755 1.306 . S
C1857 C640 1.316 . S
C1863 C502 1.316 . S
C1877 C525 1.332 . S
C1883 C663 1.332 . S
C1897 C686 1.330 . S
C1903 C548 1.330 . S
C1917 C16 1.660 1_556 S
C1923 C384 1.661 . S
C1937 C39 1.667 1_556 S
C1943 C407 1.664 . S
C1957 C361 1.669 . S
C1963 C62 1.672 1_556 S
C1977 C85 1.674 . S
C1983 C614 1.674 . S
C1997 C568 1.663 . S
C2003 C108 1.661 . S
C2017 C131 1.674 . S
C2023 C591 1.672 . S
C2037 C798 1.673 . S
C2043 C154 1.674 1_554 S
C2057 C177 1.674 1_554 S
C2063 C821 1.672 . S
C2077 C775 1.674 . S
C2083 C200 1.671 1_554 S
C2097 C223 1.664 . S
C2103 C476 1.661 . S
C2117 C246 1.671 . S
C2123 C430 1.673 . S
C2137 C269 1.668 . S
C2143 C453 1.665 . S
C2157 C660 1.662 . S
C2163 C292 1.664 . S
C2177 C315 1.663 . S
C2183 C683 1.666 . S
C2197 C338 1.667 . S
C2203 C637 1.670 . S
C2217 C752 1.662 . S
C2223 C499 1.665 . S
C2237 C706 1.666 . S
C2243 C522 1.663 . S
C2257 C729 1.672 . S
C2263 C545 1.674 . S
C2277 C86 1.740 . S
C2283 C17 1.744 . S
C2297 C40 1.747 . S
C2303 C109 1.741 . S
C2317 C63 1.737 . S
C2323 C132 1.749 . S
C2337 C224 1.749 . S
C2343 C155 1.737 . S
C2357 C178 1.746 . S
C2363 C247 1.742 . S
C2377 C270 1.749 . S
C2383 C201 1.737 . S
C2397 C362 1.748 . S
C2403 C293 1.737 . S
C2417 C316 1.737 . S
C2423 C385 1.749 . S
C2437 C339 1.738 . S
C2443 C408 1.748 . S
C2457 C431 1.743 . S
C2463 C500 1.745 1_554 S
C2477 C454 1.738 . S
C2483 C523 1.749 1_554 S
C2497 C477 1.741 . S
C2503 C546 1.743 1_554 S
C2517 C569 1.749 . S
C2523 C638 1.739 1_556 S
C2537 C661 1.737 1_556 S
C2543 C592 1.749 . S
C2557 C684 1.746 1_556 S
C2563 C615 1.742 . S
C2577 C707 1.744 . S
C2583 C776 1.744 . S
C2597 C799 1.738 . S
C2603 C730 1.746 . S
C2617 C753 1.744 . S
C2623 C822 1.744 . S
C2637 C21 1.299 . S
C2643 C688 1.301 . S
C2657 C642 1.298 . S
C2663 C44 1.301 . S
C2677 C67 1.296 . S
C2683 C665 1.299 . S
C2697 C320 1.288 . S
C2703 C90 1.291 . S
C2717 C113 1.301 . S
C2723 C343 1.302 . S
C2737 C136 1.282 . S
C2743 C297 1.282 . S
C2757 C550 1.295 . S
C2763 C159 1.298 . S
C2777 C182 1.287 . S
C2783 C504 1.290 . S
C2797 C527 1.284 . S
C2803 C205 1.286 . S
C2817 C228 1.282 . S
C2823 C734 1.283 . S
C2837 C757 1.282 . S
C2843 C251 1.283 . S
C2857 C711 1.282 . S
C2863 C274 1.282 . S
C2877 C366 1.293 . S
C2883 C596 1.296 . S
C2897 C389 1.283 . S
C2903 C619 1.282 . S
C2917 C412 1.301 . S
C2923 C573 1.302 . S
C2937 C435 1.301 . S
C2943 C826 1.302 . S
C2957 C458 1.297 . S
C2963 C780 1.294 . S
C2977 C803 1.301 . S
C2983 C481 1.300 . S
