# Generated by pormake.
# Topology bsn, (6)-cn, num edge types: 1
# Building blocks:
#     Node 0, Type 0, BuildingBlock: MIDCAF_clean_sbu_0, # of connection points: 6
#     Node 1, Type 0, BuildingBlock: MIDCAF_clean_sbu_0, # of connection points: 6
#     Node 2, Type 0, BuildingBlock: MIDCAF_clean_sbu_0, # of connection points: 6
#     Node 3, Type 0, BuildingBlock: MIDCAF_clean_sbu_0, # of connection points: 6
#     Edge 4, Type (0, 0), BuildingBlock: XUDNAN_clean_linker_2, # of connection points: 2
#     Edge 5, Type (0, 0), BuildingBlock: XUDNAN_clean_linker_2, # of connection points: 2
#     Edge 6, Type (0, 0), BuildingBlock: XUDNAN_clean_linker_2, # of connection points: 2
#     Edge 7, Type (0, 0), BuildingBlock: XUDNAN_clean_linker_2, # of connection points: 2
#     Edge 8, Type (0, 0), BuildingBlock: XUDNAN_clean_linker_2, # of connection points: 2
#     Edge 9, Type (0, 0), BuildingBlock: XUDNAN_clean_linker_2, # of connection points: 2
#     Edge 10, Type (0, 0), BuildingBlock: XUDNAN_clean_linker_2, # of connection points: 2
#     Edge 11, Type (0, 0), BuildingBlock: XUDNAN_clean_linker_2, # of connection points: 2
#     Edge 12, Type (0, 0), BuildingBlock: XUDNAN_clean_linker_2, # of connection points: 2
#     Edge 13, Type (0, 0), BuildingBlock: XUDNAN_clean_linker_2, # of connection points: 2
#     Edge 14, Type (0, 0), BuildingBlock: XUDNAN_clean_linker_2, # of connection points: 2
#     Edge 15, Type (0, 0), BuildingBlock: XUDNAN_clean_linker_2, # of connection points: 2
# Relax obj value: 0.106
# Max RMSD: 0.165
# Mean RMSD: 0.164
data_MOF--net-bsn--node1-MIDCAF_clean_sbu_0--edge1-XUDNAN_clean_linker_2
_symmetry_space_group_name_H-M    P1
_symmetry_Int_Tables_number       1
_symmetry_cell_setting            triclinic
loop_
_symmetry_equiv_pos_as_xyz
'x, y, z'
_cell_length_a     30.357186
_cell_length_b     30.357839
_cell_length_c     15.660529
_cell_angle_alpha  90.089308
_cell_angle_beta   102.40305
_cell_angle_gamma 88.867428
loop_
_atom_site_label
_atom_site_type_symbol
_atom_site_fract_x
_atom_site_fract_y
_atom_site_fract_z
_atom_type_partial_charge
Zn0 Zn 0.97761 0.20859 0.30268 0.0
Zn1 Zn 0.08445 0.31069 0.43892 0.0
Zn2 Zn 0.02928 0.26207 0.38002 0.0
C3 C 0.01873 0.36474 0.35556 0.0
C4 C 0.13095 0.25763 0.35578 0.0
O5 O 0.03465 0.20502 0.47379 0.0
O6 O 0.00915 0.15736 0.36949 0.0
C7 C 0.92427 0.27772 0.33631 0.0
O8 O 0.99763 0.33005 0.3707 0.0
O9 O 0.06099 0.3625 0.36378 0.0
O10 O 0.14024 0.27947 0.42543 0.0
O11 O 0.08922 0.25311 0.31681 0.0
O12 O 0.92273 0.23616 0.33358 0.0
O13 O 0.96248 0.29663 0.3433 0.0
O14 O 0.04998 0.24588 0.2564 0.0
O15 O 0.98682 0.21786 0.1813 0.0
C16 C 0.02527 0.23332 0.1829 0.0
O17 O 0.0479 0.24382 0.52129 0.0
O18 O 0.07375 0.30988 0.55866 0.0
C19 C 0.02951 0.16474 0.44717 0.0
C20 C 0.06184 0.27277 0.58088 0.0
Zn21 Zn 0.96173 0.82013 0.50708 0.0
Zn22 Zn 0.05388 0.70724 0.67073 0.0
Zn23 Zn 0.00524 0.76431 0.58444 0.0
C24 C 0.11248 0.77302 0.65466 0.0
C25 C 0.01229 0.6644 0.52026 0.0
O26 O 0.94024 0.76787 0.63214 0.0
O27 O 0.90147 0.80038 0.51371 0.0
C28 C 0.02598 0.86774 0.59974 0.0
O29 O 0.07404 0.79337 0.63069 0.0
O30 O 0.11375 0.73188 0.66685 0.0
O31 O 0.03144 0.65586 0.59831 0.0
O32 O 0.00409 0.70498 0.49593 0.0
O33 O 0.98405 0.87323 0.57343 0.0
O34 O 0.04354 0.82857 0.59934 0.0
O35 O 0.98869 0.74317 0.44512 0.0
O36 O 0.97825 0.81077 0.39283 0.0
C37 C 0.98278 0.77008 0.37975 0.0
O38 O 0.97434 0.75038 0.69745 0.0
O39 O 0.03155 0.71367 0.78005 0.0
C40 C 0.90186 0.77976 0.58361 0.0
C41 C 0.99314 0.73194 0.77068 0.0
Zn42 Zn 0.47754 0.67887 0.79858 0.0
Zn43 Zn 0.59952 0.77334 0.96604 0.0
Zn44 Zn 0.53536 0.73427 0.87538 0.0
C45 C 0.57969 0.72383 0.09024 0.0
C46 C 0.52941 0.83582 0.89333 0.0
O47 O 0.5567 0.71246 0.75175 0.0
O48 O 0.49837 0.67314 0.68734 0.0
C49 C 0.51762 0.638 0.95245 0.0
O50 O 0.55444 0.71 0.01802 0.0
O51 O 0.60478 0.75619 0.08854 0.0
O52 O 0.57091 0.83136 0.92768 0.0
O53 O 0.50512 0.80136 0.87448 0.0
O54 O 0.48912 0.62939 0.88346 0.0
O55 O 0.53629 0.67603 0.96229 0.0
O56 O 0.46848 0.77198 0.84023 0.0
O57 O 0.42367 0.71654 0.79208 0.0
C58 C 0.4286 0.75694 0.8098 0.0
O59 O 0.59285 0.7372 0.80508 0.0
O60 O 0.64962 0.75505 0.91255 0.0
C61 C 0.53557 0.69039 0.68515 0.0
C62 C 0.63542 0.74396 0.83408 0.0
Zn63 Zn 0.56607 0.18277 0.17152 0.0
Zn64 Zn 0.44717 0.28043 0.01657 0.0
Zn65 Zn 0.50623 0.23677 0.1038 0.0
C66 C 0.47304 0.23478 0.89017 0.0
C67 C 0.50935 0.34001 0.10093 0.0
O68 O 0.48594 0.21588 0.2269 0.0
O69 O 0.54673 0.17595 0.28308 0.0
C70 C 0.52437 0.13905 0.02766 0.0
O71 O 0.49092 0.21425 0.96215 0.0
O72 O 0.45266 0.27104 0.8942 0.0
O73 O 0.46754 0.33712 0.07041 0.0
O74 O 0.53427 0.30466 0.10973 0.0
O75 O 0.5557 0.13167 0.09339 0.0
O76 O 0.50478 0.17749 0.01659 0.0
O77 O 0.57135 0.27436 0.14118 0.0
O78 O 0.61969 0.21855 0.1771 0.0
C79 C 0.61229 0.25938 0.16586 0.0
O80 O 0.44743 0.23398 0.16887 0.0
O81 O 0.39554 0.25481 0.05421 0.0
C82 C 0.50947 0.19291 0.29055 0.0
C83 C 0.4055 0.2397 0.1311 0.0
H84 H 0.97407 0.41019 0.46203 0.0
H85 H 0.02165 0.42027 0.22184 0.0
H86 H 0.01118 0.50116 0.22298 0.0
H87 H 0.89354 0.5115 0.42562 0.0
H88 H 0.90979 0.52544 0.53985 0.0
H89 H 0.90832 0.46849 0.50655 0.0
H90 H 0.9914 0.45802 0.5891 0.0
H91 H 0.99346 0.51482 0.62135 0.0
H92 H 0.03389 0.49299 0.56242 0.0
H93 H 0.01247 0.58121 0.26803 0.0
H94 H 0.02307 0.6513 0.35119 0.0
H95 H 0.97505 0.58968 0.5621 0.0
C96 C 0.97938 0.42932 0.40691 0.0
C97 C 0.9971 0.40895 0.34018 0.0
C98 C 0.00664 0.4352 0.27196 0.0
C99 C 0.00103 0.48126 0.27244 0.0
C100 C 0.98597 0.5008 0.34189 0.0
C101 C 0.97459 0.47552 0.40735 0.0
C102 C 0.96605 0.50443 0.48141 0.0
C103 C 0.91647 0.50234 0.48875 0.0
C104 C 0.99812 0.49181 0.56862 0.0
C105 C 0.9767 0.5494 0.44973 0.0
C106 C 0.98722 0.54697 0.36832 0.0
C107 C 0.00282 0.58373 0.33051 0.0
C108 C 0.00845 0.6236 0.3777 0.0
C109 C 0.99858 0.62631 0.46173 0.0
C110 C 0.98178 0.58884 0.49692 0.0
H111 H 0.72552 0.72395 0.88115 0.0
H112 H 0.62046 0.76582 0.66098 0.0
H113 H 0.6774 0.77198 0.5702 0.0
H114 H 0.80537 0.79977 0.84623 0.0
H115 H 0.8539 0.76363 0.87926 0.0
H116 H 0.80455 0.75598 0.9235 0.0
H117 H 0.80027 0.67514 0.8701 0.0
H118 H 0.84968 0.6826 0.82567 0.0
H119 H 0.79836 0.66347 0.75646 0.0
H120 H 0.74509 0.77946 0.50791 0.0
H121 H 0.81956 0.79041 0.47606 0.0
H122 H 0.88336 0.74768 0.73903 0.0
C123 C 0.71441 0.73336 0.81312 0.0
C124 C 0.66826 0.74272 0.77673 0.0
C125 C 0.65525 0.75668 0.68878 0.0
C126 C 0.68743 0.76058 0.63713 0.0
C127 C 0.7326 0.75124 0.67509 0.0
C128 C 0.74625 0.73806 0.76115 0.0
C129 C 0.79741 0.73386 0.78793 0.0
C130 C 0.8164 0.76519 0.86369 0.0
C131 C 0.8123 0.68591 0.81141 0.0
C132 C 0.81043 0.74794 0.70396 0.0
C133 C 0.77233 0.75712 0.6397 0.0
C134 C 0.77513 0.77214 0.55746 0.0
C135 C 0.81785 0.77844 0.54036 0.0
C136 C 0.8577 0.7701 0.60523 0.0
C137 C 0.85379 0.75409 0.68797 0.0
H138 H 0.46171 0.41288 0.12746 0.0
H139 H 0.59599 0.36959 0.1094 0.0
H140 H 0.61855 0.4475 0.10599 0.0
H141 H 0.44925 0.48719 0.97045 0.0
H142 H 0.41667 0.52715 0.01734 0.0
H143 H 0.4159 0.47021 0.04657 0.0
H144 H 0.44195 0.49022 0.2105 0.0
H145 H 0.44274 0.54764 0.18152 0.0
H146 H 0.49252 0.52135 0.24634 0.0
H147 H 0.6212 0.52975 0.07537 0.0
H148 H 0.6023 0.60348 0.00808 0.0
H149 H 0.46411 0.59032 0.03311 0.0
C150 C 0.49643 0.41965 0.12596 0.0
C151 C 0.52732 0.38502 0.1192 0.0
C152 C 0.57213 0.39542 0.11627 0.0
C153 C 0.58507 0.43972 0.11422 0.0
C154 C 0.5528 0.47313 0.11595 0.0
C155 C 0.50934 0.46332 0.12236 0.0
C156 C 0.47845 0.50361 0.10735 0.0
C157 C 0.43774 0.4966 0.03089 0.0
C158 C 0.46302 0.51646 0.19145 0.0
C159 C 0.51028 0.53719 0.08503 0.0
C160 C 0.55356 0.51974 0.09407 0.0
C161 C 0.58769 0.54386 0.06992 0.0
C162 C 0.57678 0.58578 0.03215 0.0
C163 C 0.53191 0.60238 0.01667 0.0
C164 C 0.49881 0.57848 0.04618 0.0
H165 H 0.85794 0.26945 0.42509 0.0
H166 H 0.89133 0.33614 0.20447 0.0
H167 H 0.81029 0.35377 0.14689 0.0
H168 H 0.77058 0.21614 0.31897 0.0
H169 H 0.73547 0.22038 0.39811 0.0
H170 H 0.79546 0.22404 0.4332 0.0
H171 H 0.78651 0.2999 0.50413 0.0
H172 H 0.72605 0.29628 0.47009 0.0
H173 H 0.75442 0.34348 0.43967 0.0
H174 H 0.72531 0.34472 0.09446 0.0
H175 H 0.64747 0.31601 0.06128 0.0
H176 H 0.66952 0.26078 0.32149 0.0
C177 C 0.84828 0.29007 0.36746 0.0
C178 C 0.88074 0.30227 0.3201 0.0
C179 C 0.86702 0.32765 0.24298 0.0
C180 C 0.82096 0.33748 0.20955 0.0
C181 C 0.78926 0.32267 0.25535 0.0
C182 C 0.80267 0.30066 0.33436 0.0
C183 C 0.76252 0.28341 0.36608 0.0
C184 C 0.76625 0.23305 0.37977 0.0
C185 C 0.75705 0.3072 0.44997 0.0
C186 C 0.72463 0.29611 0.28982 0.0
C187 C 0.7403 0.31934 0.22683 0.0
C188 C 0.71234 0.32835 0.14498 0.0
C189 C 0.66797 0.31228 0.12668 0.0
C190 C 0.65193 0.28794 0.19024 0.0
C191 C 0.68037 0.28105 0.27326 0.0
H192 H 0.32064 0.27374 0.08562 0.0
H193 H 0.40451 0.18646 0.27475 0.0
H194 H 0.33995 0.17535 0.34601 0.0
H195 H 0.26157 0.32638 0.22671 0.0
H196 H 0.20916 0.32964 0.1466 0.0
H197 H 0.26184 0.32836 0.11176 0.0
H198 H 0.23498 0.26061 0.0146 0.0
H199 H 0.18264 0.26106 0.05092 0.0
H200 H 0.21765 0.21198 0.06354 0.0
H201 H 0.26568 0.17763 0.39936 0.0
H202 H 0.19188 0.19634 0.43514 0.0
H203 H 0.15918 0.2816 0.20868 0.0
C204 C 0.32561 0.25189 0.14162 0.0
C205 C 0.36797 0.23142 0.17553 0.0
C206 C 0.3728 0.20338 0.24918 0.0
C207 C 0.33607 0.19639 0.28905 0.0
C208 C 0.2947 0.21721 0.25341 0.0
C209 C 0.28955 0.24445 0.18132 0.0
C210 C 0.24259 0.26456 0.15677 0.0
C211 C 0.2439 0.31522 0.16079 0.0
C212 C 0.21804 0.24859 0.06609 0.0
C213 C 0.22207 0.24563 0.22807 0.0
C214 C 0.25228 0.21775 0.28244 0.0
C215 C 0.2416 0.19868 0.35615 0.0
C216 C 0.19959 0.2093 0.37572 0.0
C217 C 0.16885 0.23867 0.32197 0.0
C218 C 0.18027 0.25669 0.24709 0.0
H219 H 0.36845 0.75814 0.65738 0.0
H220 H 0.3924 0.81259 0.91805 0.0
H221 H 0.31263 0.83898 0.89116 0.0
H222 H 0.2765 0.83892 0.54524 0.0
H223 H 0.24659 0.79473 0.48254 0.0
H224 H 0.30737 0.79276 0.5128 0.0
H225 H 0.30446 0.71644 0.58498 0.0
H226 H 0.24403 0.71827 0.55571 0.0
H227 H 0.27226 0.71064 0.66847 0.0
H228 H 0.22626 0.846 0.84453 0.0
H229 H 0.14555 0.82863 0.78967 0.0
H230 H 0.1788 0.76407 0.56492 0.0
C231 C 0.35744 0.77775 0.70708 0.0
C232 C 0.38705 0.78491 0.78854 0.0
C233 C 0.37097 0.80864 0.85378 0.0
C234 C 0.32547 0.8233 0.8391 0.0
C235 C 0.2965 0.81376 0.75901 0.0
C236 C 0.31226 0.79166 0.69389 0.0
C237 C 0.27392 0.77831 0.61996 0.0
C238 C 0.27624 0.80264 0.53511 0.0
C239 C 0.27367 0.72797 0.60663 0.0
C240 C 0.23372 0.7942 0.6551 0.0
C241 C 0.24716 0.81587 0.73402 0.0
C242 C 0.21557 0.83001 0.78189 0.0
C243 C 0.1697 0.82034 0.75002 0.0
C244 C 0.15598 0.79606 0.67197 0.0
C245 C 0.18831 0.78398 0.62318 0.0
H246 H 0.57669 0.90641 0.86571 0.0
H247 H 0.4431 0.86917 0.89023 0.0
H248 H 0.42123 0.94831 0.89484 0.0
H249 H 0.59137 0.98253 0.02131 0.0
H250 H 0.62325 0.02007 0.97036 0.0
H251 H 0.6235 0.96259 0.94431 0.0
H252 H 0.59556 0.98101 0.77962 0.0
H253 H 0.59532 0.03893 0.80539 0.0
H254 H 0.5449 0.014 0.74418 0.0
H255 H 0.41949 0.03182 0.9233 0.0
H256 H 0.43927 0.10647 0.98252 0.0
H257 H 0.5759 0.0857 0.94948 0.0
C258 C 0.54227 0.91478 0.86923 0.0
C259 C 0.51144 0.8816 0.87732 0.0
C260 C 0.46696 0.89398 0.88252 0.0
C261 C 0.45441 0.93894 0.8853 0.0
C262 C 0.48667 0.97088 0.88171 0.0
C263 C 0.52968 0.95902 0.87303 0.0
C264 C 0.56064 0.99801 0.88418 0.0
C265 C 0.60207 0.99032 0.95951 0.0
C266 C 0.57493 0.00861 0.7982 0.0
C267 C 0.52938 0.03346 0.90617 0.0
C268 C 0.48631 0.01792 0.90128 0.0
C269 C 0.45284 0.04436 0.92554 0.0
C270 C 0.46422 0.0868 0.95865 0.0
C271 C 0.50894 0.10168 0.9693 0.0
C272 C 0.54131 0.07518 0.94025 0.0
H273 H 0.06621 0.90955 0.48684 0.0
H274 H 0.0374 0.91927 0.7445 0.0
H275 H 0.05124 0.99934 0.74602 0.0
H276 H 0.14953 0.00603 0.50686 0.0
H277 H 0.12571 0.02168 0.39526 0.0
H278 H 0.12875 0.96441 0.42689 0.0
H279 H 0.04286 0.95865 0.36499 0.0
H280 H 0.0392 0.01577 0.33499 0.0
H281 H 0.00453 0.99519 0.40561 0.0
H282 H 0.0503 0.08047 0.70445 0.0
H283 H 0.03513 0.15158 0.62472 0.0
H284 H 0.06133 0.08856 0.39222 0.0
C285 C 0.0662 0.92811 0.54596 0.0
C286 C 0.0528 0.90801 0.61715 0.0
C287 C 0.04963 0.93377 0.69103 0.0
C288 C 0.05702 0.97943 0.69194 0.0
C289 C 0.06737 0.99896 0.61815 0.0
C290 C 0.07267 0.9738 0.5469 0.0
C291 C 0.07576 0.00284 0.46986 0.0
C292 C 0.12274 0.99848 0.44849 0.0
C293 C 0.03836 0.99249 0.38923 0.0
C294 C 0.0686 0.04794 0.50673 0.0
C295 C 0.06506 0.04544 0.59304 0.0
C296 C 0.05413 0.08281 0.63749 0.0
C297 C 0.04563 0.12326 0.59193 0.0
C298 C 0.04716 0.12579 0.5025 0.0
C299 C 0.06015 0.08778 0.46085 0.0
H300 H 0.99316 0.19376 0.02305 0.0
H301 H 0.08638 0.29143 0.15207 0.0
H302 H 0.11201 0.30387 0.01537 0.0
H303 H 0.05835 0.15042 0.86626 0.0
H304 H 0.00947 0.14797 0.77778 0.0
H305 H 0.00351 0.14118 0.88903 0.0
H306 H 0.94407 0.20508 0.86695 0.0
H307 H 0.95027 0.2119 0.75601 0.0
H308 H 0.95862 0.258 0.83004 0.0
H309 H 0.12791 0.30578 0.86817 0.0
H310 H 0.12312 0.30944 0.71004 0.0
H311 H 0.01143 0.21914 0.6663 0.0
C312 C 0.01988 0.21683 0.02288 0.0
C313 C 0.04043 0.23944 0.10005 0.0
C314 C 0.07329 0.27115 0.09597 0.0
C315 C 0.08749 0.27882 0.01818 0.0
C316 C 0.0678 0.25506 0.94418 0.0
C317 C 0.03385 0.22555 0.94483 0.0
C318 C 0.01417 0.20918 0.85289 0.0
C319 C 0.02185 0.15922 0.84614 0.0
C320 C 0.9638 0.22181 0.82483 0.0
C321 C 0.04224 0.23444 0.80072 0.0
C322 C 0.07363 0.25973 0.85564 0.0
C323 C 0.10336 0.28632 0.82435 0.0
C324 C 0.10024 0.28817 0.73423 0.0
C325 C 0.06715 0.26419 0.67564 0.0
C326 C 0.03801 0.23656 0.70949 0.0
H327 H 0.00149 0.79864 0.88555 0.0
H328 H 0.94564 0.669 0.83298 0.0
H329 H 0.9325 0.66522 0.98383 0.0
H330 H 0.06385 0.77434 0.0883 0.0
H331 H 0.05655 0.82682 0.13799 0.0
H332 H 0.05281 0.82349 0.02203 0.0
H333 H 0.97292 0.85965 -0.00829 0.0
H334 H 0.97683 0.86436 0.1078 0.0
H335 H 0.9299 0.83655 0.04059 0.0
H336 H 0.93525 0.67239 0.14774 0.0
H337 H 0.94754 0.69279 0.30467 0.0
H338 H 0.00614 0.8155 0.24821 0.0
C339 C 0.98443 0.7705 0.9048 0.0
C340 C 0.97308 0.73473 0.8477 0.0
C341 C 0.95316 0.69722 0.87569 0.0
C342 C 0.94597 0.69471 0.96128 0.0
C343 C 0.95949 0.72984 0.01781 0.0
C344 C 0.97772 0.76732 -0.0099 0.0
C345 C 0.99367 0.79863 0.06499 0.0
C346 C 0.04474 0.80623 0.0791 0.0
C347 C 0.96671 0.84238 0.05041 0.0
C348 C 0.98258 0.77263 0.13957 0.0
C349 C 0.96264 0.73316 0.11152 0.0
C350 C 0.9507 0.70333 0.17017 0.0
C351 C 0.95853 0.71471 0.2593 0.0
C352 C 0.97872 0.75513 0.28865 0.0
C353 C 0.99087 0.78419 0.2277 0.0
H354 H 0.50802 0.7108 0.16776 0.0
H355 H 0.65314 0.69557 0.20935 0.0
H356 H 0.65749 0.67823 0.3652 0.0
H357 H 0.50842 0.76827 0.35725 0.0
H358 H 0.45846 0.74465 0.3815 0.0
H359 H 0.46525 0.74699 0.27033 0.0
H360 H 0.45507 0.66263 0.25509 0.0
H361 H 0.44752 0.66002 0.36605 0.0
H362 H 0.49034 0.62622 0.33281 0.0
H363 H 0.64685 0.67001 0.52087 0.0
H364 H 0.62149 0.67219 0.66153 0.0
H365 H 0.48456 0.69885 0.52039 0.0
C366 C 0.54036 0.70184 0.20904 0.0
C367 C 0.58015 0.70333 0.17623 0.0
C368 C 0.62221 0.69362 0.23301 0.0
C369 C 0.62501 0.68388 0.3217 0.0
C370 C 0.58541 0.68437 0.3532 0.0
C371 C 0.54379 0.69284 0.29844 0.0
C372 C 0.50704 0.6961 0.35041 0.0
C373 C 0.48343 0.74171 0.33918 0.0
C374 C 0.47298 0.65903 0.32457 0.0
C375 C 0.53461 0.68958 0.44277 0.0
C376 C 0.57964 0.68207 0.44308 0.0
C377 C 0.61163 0.67601 0.52121 0.0
C378 C 0.5972 0.67802 0.6009 0.0
C379 C 0.55155 0.68733 0.60203 0.0
C380 C 0.51989 0.69223 0.52161 0.0
H381 H 0.45806 0.24822 0.37415 0.0
H382 H 0.53253 0.12371 0.40034 0.0
H383 H 0.52548 0.11786 0.55315 0.0
H384 H 0.50498 0.29027 0.5757 0.0
H385 H 0.45448 0.31505 0.59925 0.0
H386 H 0.45912 0.30717 0.48765 0.0
H387 H 0.38565 0.26249 0.45625 0.0
H388 H 0.38026 0.27077 0.56765 0.0
H389 H 0.38064 0.21579 0.52413 0.0
H390 H 0.52442 0.13217 0.70815 0.0
H391 H 0.51904 0.16088 0.85225 0.0
H392 H 0.43776 0.27156 0.72849 0.0
C393 C 0.47137 0.21904 0.41127 0.0
C394 C 0.49583 0.18643 0.37511 0.0
C395 C 0.51371 0.14918 0.42649 0.0
C396 C 0.50985 0.14545 0.51352 0.0
C397 C 0.48728 0.17886 0.54847 0.0
C398 C 0.46727 0.21443 0.49872 0.0
C399 C 0.44692 0.24664 0.55455 0.0
C400 C 0.46763 0.29248 0.55425 0.0
C401 C 0.3953 0.24906 0.52384 0.0
C402 C 0.46086 0.22467 0.64381 0.0
C403 C 0.48399 0.18555 0.63847 0.0
C404 C 0.50462 0.16177 0.7129 0.0
C405 C 0.50102 0.17806 0.79499 0.0
C406 C 0.47613 0.21716 0.80265 0.0
C407 C 0.45589 0.24073 0.72539 0.0
loop_
_geom_bond_atom_site_label_1
_geom_bond_atom_site_label_2
_geom_bond_distance
_geom_bond_site_symmetry_2
_ccdc_geom_bond_type
Zn0 O6 1.920 . S
Zn0 O12 1.898 . S
Zn0 O15 1.905 1_655 S
Zn1 O9 1.905 . S
Zn1 O10 1.898 . S
Zn1 O18 1.920 . S
Zn2 O5 2.080 . S
Zn2 O8 2.114 . S
Zn2 O11 2.120 . S
Zn2 O13 2.120 1_455 S
Zn2 O14 2.114 . S
Zn2 O17 2.080 . S
C3 O8 1.166 . S
C3 O9 1.182 . S
C4 O10 1.167 . S
C4 O11 1.299 . S
O5 Zn2 2.080 . S
O5 C19 1.305 . S
O6 Zn0 1.920 . S
O6 C19 1.234 1_655 S
C7 O12 1.167 . S
C7 O13 1.299 . S
O8 Zn2 2.114 . S
O8 C3 1.166 . S
O9 Zn1 1.905 . S
O9 C3 1.182 . S
O10 Zn1 1.898 . S
O10 C4 1.167 . S
O11 Zn2 2.120 . S
O11 C4 1.299 . S
O12 Zn0 1.898 . S
O12 C7 1.167 . S
O13 Zn2 2.120 1_655 S
O13 C7 1.299 . S
O14 Zn2 2.114 . S
O14 C16 1.166 . S
O15 Zn0 1.905 1_455 S
O15 C16 1.182 . S
C16 O14 1.166 . S
C16 O15 1.182 . S
O17 Zn2 2.080 . S
O17 C20 1.305 . S
O18 Zn1 1.920 . S
O18 C20 1.234 . S
C19 O5 1.305 . S
C19 O6 1.234 1_455 S
C20 O17 1.305 . S
C20 O18 1.234 . S
Zn21 O27 1.920 . S
Zn21 O33 1.898 . S
Zn21 O36 1.905 . S
Zn22 O30 1.905 . S
Zn22 O31 1.898 . S
Zn22 O39 1.920 . S
Zn23 O26 2.080 1_455 S
Zn23 O29 2.114 . S
Zn23 O32 2.120 . S
Zn23 O34 2.120 . S
Zn23 O35 2.114 . S
Zn23 O38 2.080 . S
C24 O29 1.166 . S
C24 O30 1.182 . S
C25 O31 1.167 . S
C25 O32 1.299 . S
O26 Zn23 2.080 1_655 S
O26 C40 1.305 . S
O27 Zn21 1.920 . S
O27 C40 1.234 . S
C28 O33 1.167 1_455 S
C28 O34 1.299 . S
O29 Zn23 2.114 . S
O29 C24 1.166 . S
O30 Zn22 1.905 . S
O30 C24 1.182 . S
O31 Zn22 1.898 . S
O31 C25 1.167 . S
O32 Zn23 2.120 . S
O32 C25 1.299 . S
O33 Zn21 1.898 . S
O33 C28 1.167 1_655 S
O34 Zn23 2.120 . S
O34 C28 1.299 . S
O35 Zn23 2.114 . S
O35 C37 1.166 1_455 S
O36 Zn21 1.905 . S
O36 C37 1.182 . S
C37 O35 1.166 1_655 S
C37 O36 1.182 . S
O38 Zn23 2.080 . S
O38 C41 1.305 . S
O39 Zn22 1.920 . S
O39 C41 1.234 . S
C40 O26 1.305 . S
C40 O27 1.234 . S
C41 O38 1.305 . S
C41 O39 1.234 . S
Zn42 O48 1.920 . S
Zn42 O54 1.898 . S
Zn42 O57 1.905 . S
Zn43 O51 1.905 . S
Zn43 O52 1.898 1_554 S
Zn43 O60 1.920 1_554 S
Zn44 O47 2.080 . S
Zn44 O50 2.114 1_556 S
Zn44 O53 2.120 . S
Zn44 O55 2.120 . S
Zn44 O56 2.114 . S
Zn44 O59 2.080 . S
C45 O50 1.166 . S
C45 O51 1.182 . S
C46 O52 1.167 . S
C46 O53 1.299 . S
O47 Zn44 2.080 . S
O47 C61 1.305 . S
O48 Zn42 1.920 . S
O48 C61 1.234 . S
C49 O54 1.167 . S
C49 O55 1.299 . S
O50 Zn44 2.114 1_554 S
O50 C45 1.166 . S
O51 Zn43 1.905 . S
O51 C45 1.182 . S
O52 Zn43 1.898 1_556 S
O52 C46 1.167 . S
O53 Zn44 2.120 . S
O53 C46 1.299 . S
O54 Zn42 1.898 . S
O54 C49 1.167 . S
O55 Zn44 2.120 . S
O55 C49 1.299 . S
O56 Zn44 2.114 . S
O56 C58 1.166 . S
O57 Zn42 1.905 . S
O57 C58 1.182 . S
C58 O56 1.166 . S
C58 O57 1.182 . S
O59 Zn44 2.080 . S
O59 C62 1.305 . S
O60 Zn43 1.920 1_556 S
O60 C62 1.234 . S
C61 O47 1.305 . S
C61 O48 1.234 . S
C62 O59 1.305 . S
C62 O60 1.234 . S
Zn63 O69 1.920 . S
Zn63 O75 1.898 . S
Zn63 O78 1.905 . S
Zn64 O72 1.905 . S
Zn64 O73 1.898 1_556 S
Zn64 O81 1.920 1_556 S
Zn65 O68 2.080 . S
Zn65 O71 2.114 1_554 S
Zn65 O74 2.120 . S
Zn65 O76 2.120 . S
Zn65 O77 2.114 . S
Zn65 O80 2.080 . S
C66 O71 1.166 . S
C66 O72 1.182 . S
C67 O73 1.167 . S
C67 O74 1.299 . S
O68 Zn65 2.080 . S
O68 C82 1.305 . S
O69 Zn63 1.920 . S
O69 C82 1.234 . S
C70 O75 1.167 . S
C70 O76 1.299 . S
O71 Zn65 2.114 1_556 S
O71 C66 1.166 . S
O72 Zn64 1.905 . S
O72 C66 1.182 . S
O73 Zn64 1.898 1_554 S
O73 C67 1.167 . S
O74 Zn65 2.120 . S
O74 C67 1.299 . S
O75 Zn63 1.898 . S
O75 C70 1.167 . S
O76 Zn65 2.120 . S
O76 C70 1.299 . S
O77 Zn65 2.114 . S
O77 C79 1.166 . S
O78 Zn63 1.905 . S
O78 C79 1.182 . S
C79 O77 1.166 . S
C79 O78 1.182 . S
O80 Zn65 2.080 . S
O80 C83 1.305 . S
O81 Zn64 1.920 1_554 S
O81 C83 1.234 . S
C82 O68 1.305 . S
C82 O69 1.234 . S
C83 O80 1.305 . S
C83 O81 1.234 . S
H84 C96 0.930 1_655 S
H85 C98 0.930 . S
H86 C99 0.930 . S
H87 C103 0.959 . S
H88 C103 0.959 . S
H89 C103 0.961 . S
H90 C104 0.960 . S
H91 C104 0.961 . S
H92 C104 0.959 . S
H93 C107 0.929 . S
H94 C108 0.931 . S
H95 C110 0.934 . S
C96 H84 0.930 1_455 S
C96 C97 1.399 . S
C96 C101 1.399 . S
C97 C96 1.399 . S
C97 C98 1.376 . S
C98 H85 0.930 . S
C98 C97 1.376 . S
C98 C99 1.388 . S
C99 H86 0.930 . S
C99 C98 1.388 . S
C99 C100 1.390 . S
C100 C99 1.390 . S
C100 C101 1.394 . S
C100 C106 1.465 . S
C101 C96 1.399 . S
C101 C100 1.394 . S
C101 C102 1.516 . S
C102 C101 1.516 . S
C102 C103 1.502 1_455 S
C102 C104 1.561 . S
C102 C105 1.526 . S
C103 H87 0.959 . S
C103 H88 0.959 . S
C103 H89 0.961 . S
C103 C102 1.502 1_655 S
C104 H90 0.960 . S
C104 H91 0.961 . S
C104 H92 0.959 . S
C104 C102 1.561 . S
C105 C102 1.526 . S
C105 C106 1.396 . S
C105 C110 1.390 . S
C106 C100 1.465 . S
C106 C105 1.396 . S
C106 C107 1.399 . S
C107 H93 0.929 . S
C107 C106 1.399 . S
C107 C108 1.385 . S
C108 H94 0.931 . S
C108 C107 1.385 . S
C108 C109 1.389 . S
C109 C108 1.389 . S
C109 C110 1.387 . S
C110 H95 0.934 . S
C110 C105 1.390 . S
C110 C109 1.387 . S
H111 C123 0.930 . S
H112 C125 0.930 . S
H113 C126 0.930 . S
H114 C130 0.959 . S
H115 C130 0.959 . S
H116 C130 0.961 . S
H117 C131 0.960 . S
H118 C131 0.961 . S
H119 C131 0.959 . S
H120 C134 0.929 . S
H121 C135 0.931 . S
H122 C137 0.930 . S
C123 H111 0.930 . S
C123 C124 1.399 . S
C123 C128 1.399 . S
C124 C123 1.399 . S
C124 C125 1.376 . S
C125 H112 0.930 . S
C125 C124 1.376 . S
C125 C126 1.388 . S
C126 H113 0.930 . S
C126 C125 1.388 . S
C126 C127 1.390 . S
C127 C126 1.390 . S
C127 C128 1.394 . S
C127 C133 1.465 . S
C128 C123 1.399 . S
C128 C127 1.394 . S
C128 C129 1.516 . S
C129 C128 1.516 . S
C129 C130 1.502 . S
C129 C131 1.561 . S
C129 C132 1.526 . S
C130 H114 0.959 . S
C130 H115 0.959 . S
C130 H116 0.961 . S
C130 C129 1.502 . S
C131 H117 0.960 . S
C131 H118 0.961 . S
C131 H119 0.959 . S
C131 C129 1.561 . S
C132 C129 1.526 . S
C132 C133 1.396 . S
C132 C137 1.390 . S
C133 C127 1.465 . S
C133 C132 1.396 . S
C133 C134 1.399 . S
C134 H120 0.929 . S
C134 C133 1.399 . S
C134 C135 1.385 . S
C135 H121 0.931 . S
C135 C134 1.385 . S
C135 C136 1.389 . S
C136 C135 1.389 . S
C136 C137 1.387 . S
C137 H122 0.930 . S
C137 C132 1.390 . S
C137 C136 1.387 . S
H138 C150 0.930 1_556 S
H139 C152 0.930 . S
H140 C153 0.930 . S
H141 C157 0.959 . S
H142 C157 0.959 . S
H143 C157 0.961 . S
H144 C158 0.960 . S
H145 C158 0.961 . S
H146 C158 0.959 1_554 S
H147 C161 0.929 . S
H148 C162 0.931 . S
H149 C164 0.930 . S
C150 H138 0.930 1_554 S
C150 C151 1.399 . S
C150 C155 1.399 . S
C151 C150 1.399 . S
C151 C152 1.376 . S
C152 H139 0.930 . S
C152 C151 1.376 . S
C152 C153 1.388 . S
C153 H140 0.930 . S
C153 C152 1.388 . S
C153 C154 1.390 . S
C154 C153 1.390 . S
C154 C155 1.394 . S
C154 C160 1.465 . S
C155 C150 1.399 . S
C155 C154 1.394 . S
C155 C156 1.516 1_554 S
C156 C155 1.516 1_556 S
C156 C157 1.502 . S
C156 C158 1.561 . S
C156 C159 1.526 . S
C157 H141 0.959 . S
C157 H142 0.959 . S
C157 H143 0.961 . S
C157 C156 1.502 . S
C158 H144 0.960 . S
C158 H145 0.961 . S
C158 H146 0.959 1_556 S
C158 C156 1.561 . S
C159 C156 1.526 . S
C159 C160 1.396 1_556 S
C159 C164 1.390 . S
C160 C154 1.465 . S
C160 C159 1.396 1_554 S
C160 C161 1.399 . S
C161 H147 0.929 . S
C161 C160 1.399 . S
C161 C162 1.385 . S
C162 H148 0.931 . S
C162 C161 1.385 . S
C162 C163 1.389 1_554 S
C163 C162 1.389 1_556 S
C163 C164 1.387 . S
C164 H149 0.930 . S
C164 C159 1.390 . S
C164 C163 1.387 . S
H165 C177 0.930 . S
H166 C179 0.930 . S
H167 C180 0.930 . S
H168 C184 0.959 . S
H169 C184 0.959 . S
H170 C184 0.961 . S
H171 C185 0.960 . S
H172 C185 0.961 . S
H173 C185 0.959 . S
H174 C188 0.929 . S
H175 C189 0.931 . S
H176 C191 0.930 . S
C177 H165 0.930 . S
C177 C178 1.399 . S
C177 C182 1.399 . S
C178 C177 1.399 . S
C178 C179 1.376 . S
C179 H166 0.930 . S
C179 C178 1.376 . S
C179 C180 1.388 . S
C180 H167 0.930 . S
C180 C179 1.388 . S
C180 C181 1.390 . S
C181 C180 1.390 . S
C181 C182 1.394 . S
C181 C187 1.465 . S
C182 C177 1.399 . S
C182 C181 1.394 . S
C182 C183 1.516 . S
C183 C182 1.516 . S
C183 C184 1.502 . S
C183 C185 1.561 . S
C183 C186 1.526 . S
C184 H168 0.959 . S
C184 H169 0.959 . S
C184 H170 0.961 . S
C184 C183 1.502 . S
C185 H171 0.960 . S
C185 H172 0.961 . S
C185 H173 0.959 . S
C185 C183 1.561 . S
C186 C183 1.526 . S
C186 C187 1.396 . S
C186 C191 1.390 . S
C187 C181 1.465 . S
C187 C186 1.396 . S
C187 C188 1.399 . S
C188 H174 0.929 . S
C188 C187 1.399 . S
C188 C189 1.385 . S
C189 H175 0.931 . S
C189 C188 1.385 . S
C189 C190 1.389 . S
C190 C189 1.389 . S
C190 C191 1.387 . S
C191 H176 0.930 . S
C191 C186 1.390 . S
C191 C190 1.387 . S
H192 C204 0.930 . S
H193 C206 0.930 . S
H194 C207 0.930 . S
H195 C211 0.959 . S
H196 C211 0.959 . S
H197 C211 0.961 . S
H198 C212 0.960 . S
H199 C212 0.961 . S
H200 C212 0.959 . S
H201 C215 0.929 . S
H202 C216 0.931 . S
H203 C218 0.930 . S
C204 H192 0.930 . S
C204 C205 1.399 . S
C204 C209 1.399 . S
C205 C204 1.399 . S
C205 C206 1.376 . S
C206 H193 0.930 . S
C206 C205 1.376 . S
C206 C207 1.388 . S
C207 H194 0.930 . S
C207 C206 1.388 . S
C207 C208 1.390 . S
C208 C207 1.390 . S
C208 C209 1.394 . S
C208 C214 1.465 . S
C209 C204 1.399 . S
C209 C208 1.394 . S
C209 C210 1.516 . S
C210 C209 1.516 . S
C210 C211 1.502 . S
C210 C212 1.561 . S
C210 C213 1.526 . S
C211 H195 0.959 . S
C211 H196 0.959 . S
C211 H197 0.961 . S
C211 C210 1.502 . S
C212 H198 0.960 . S
C212 H199 0.961 . S
C212 H200 0.959 . S
C212 C210 1.561 . S
C213 C210 1.526 . S
C213 C214 1.396 . S
C213 C218 1.390 . S
C214 C208 1.465 . S
C214 C213 1.396 . S
C214 C215 1.399 . S
C215 H201 0.929 . S
C215 C214 1.399 . S
C215 C216 1.385 . S
C216 H202 0.931 . S
C216 C215 1.385 . S
C216 C217 1.389 . S
C217 C216 1.389 . S
C217 C218 1.387 . S
C218 H203 0.930 . S
C218 C213 1.390 . S
C218 C217 1.387 . S
H219 C231 0.930 . S
H220 C233 0.930 . S
H221 C234 0.930 . S
H222 C238 0.959 . S
H223 C238 0.959 . S
H224 C238 0.961 . S
H225 C239 0.960 . S
H226 C239 0.961 . S
H227 C239 0.959 . S
H228 C242 0.929 . S
H229 C243 0.931 . S
H230 C245 0.930 . S
C231 H219 0.930 . S
C231 C232 1.399 . S
C231 C236 1.399 . S
C232 C231 1.399 . S
C232 C233 1.376 . S
C233 H220 0.930 . S
C233 C232 1.376 . S
C233 C234 1.388 . S
C234 H221 0.930 . S
C234 C233 1.388 . S
C234 C235 1.390 . S
C235 C234 1.390 . S
C235 C236 1.394 . S
C235 C241 1.465 . S
C236 C231 1.399 . S
C236 C235 1.394 . S
C236 C237 1.516 . S
C237 C236 1.516 . S
C237 C238 1.502 . S
C237 C239 1.561 . S
C237 C240 1.526 . S
C238 H222 0.959 . S
C238 H223 0.959 . S
C238 H224 0.961 . S
C238 C237 1.502 . S
C239 H225 0.960 . S
C239 H226 0.961 . S
C239 H227 0.959 . S
C239 C237 1.561 . S
C240 C237 1.526 . S
C240 C241 1.396 . S
C240 C245 1.390 . S
C241 C235 1.465 . S
C241 C240 1.396 . S
C241 C242 1.399 . S
C242 H228 0.929 . S
C242 C241 1.399 . S
C242 C243 1.385 . S
C243 H229 0.931 . S
C243 C242 1.385 . S
C243 C244 1.389 . S
C244 C243 1.389 . S
C244 C245 1.387 . S
C245 H230 0.930 . S
C245 C240 1.390 . S
C245 C244 1.387 . S
H246 C258 0.930 . S
H247 C260 0.930 1_554 S
H248 C261 0.930 . S
H249 C265 0.959 . S
H250 C265 0.959 . S
H251 C265 0.961 1_565 S
H252 C266 0.960 . S
H253 C266 0.961 . S
H254 C266 0.959 . S
H255 C269 0.929 . S
H256 C270 0.931 . S
H257 C272 0.930 . S
C258 H246 0.930 . S
C258 C259 1.399 . S
C258 C263 1.399 . S
C259 C258 1.399 . S
C259 C260 1.376 . S
C260 H247 0.930 1_556 S
C260 C259 1.376 . S
C260 C261 1.388 1_556 S
C261 H248 0.930 . S
C261 C260 1.388 1_554 S
C261 C262 1.390 . S
C262 C261 1.390 . S
C262 C263 1.394 1_554 S
C262 C268 1.465 1_565 S
C263 C258 1.399 . S
C263 C262 1.394 1_556 S
C263 C264 1.516 1_565 S
C264 C263 1.516 1_545 S
C264 C265 1.502 . S
C264 C266 1.561 . S
C264 C267 1.526 . S
C265 H249 0.959 . S
C265 H250 0.959 . S
C265 H251 0.961 1_545 S
C265 C264 1.502 . S
C266 H252 0.960 . S
C266 H253 0.961 . S
C266 H254 0.959 . S
C266 C264 1.561 . S
C267 C264 1.526 . S
C267 C268 1.396 1_556 S
C267 C272 1.390 . S
C268 C262 1.465 1_545 S
C268 C267 1.396 1_554 S
C268 C269 1.399 . S
C269 H255 0.929 . S
C269 C268 1.399 . S
C269 C270 1.385 . S
C270 H256 0.931 . S
C270 C269 1.385 . S
C270 C271 1.389 . S
C271 C270 1.389 . S
C271 C272 1.387 1_554 S
C272 H257 0.930 . S
C272 C267 1.390 . S
C272 C271 1.387 1_556 S
H273 C285 0.930 . S
H274 C287 0.930 . S
H275 C288 0.930 . S
H276 C292 0.959 . S
H277 C292 0.959 . S
H278 C292 0.961 . S
H279 C293 0.960 . S
H280 C293 0.961 . S
H281 C293 0.959 . S
H282 C296 0.929 . S
H283 C297 0.931 . S
H284 C299 0.930 . S
C285 H273 0.930 . S
C285 C286 1.399 . S
C285 C290 1.399 . S
C286 C285 1.399 . S
C286 C287 1.376 . S
C287 H274 0.930 . S
C287 C286 1.376 . S
C287 C288 1.388 . S
C288 H275 0.930 . S
C288 C287 1.388 . S
C288 C289 1.390 . S
C289 C288 1.390 . S
C289 C290 1.394 . S
C289 C295 1.465 1_565 S
C290 C285 1.399 . S
C290 C289 1.394 . S
C290 C291 1.516 . S
C291 C290 1.516 . S
C291 C292 1.502 . S
C291 C293 1.561 1_455 S
C291 C294 1.526 1_565 S
C292 H276 0.959 . S
C292 H277 0.959 . S
C292 H278 0.961 . S
C292 C291 1.502 . S
C293 H279 0.960 . S
C293 H280 0.961 . S
C293 H281 0.959 . S
C293 C291 1.561 1_655 S
C294 C291 1.526 1_545 S
C294 C295 1.396 . S
C294 C299 1.390 . S
C295 C289 1.465 1_545 S
C295 C294 1.396 . S
C295 C296 1.399 . S
C296 H282 0.929 . S
C296 C295 1.399 . S
C296 C297 1.385 . S
C297 H283 0.931 . S
C297 C296 1.385 . S
C297 C298 1.389 . S
C298 C297 1.389 . S
C298 C299 1.387 . S
C299 H284 0.930 . S
C299 C294 1.390 . S
C299 C298 1.387 . S
H300 C312 0.930 . S
H301 C314 0.930 . S
H302 C315 0.930 . S
H303 C319 0.959 . S
H304 C319 0.959 . S
H305 C319 0.961 . S
H306 C320 0.960 . S
H307 C320 0.961 . S
H308 C320 0.959 1_655 S
H309 C323 0.929 . S
H310 C324 0.931 . S
H311 C326 0.930 . S
C312 H300 0.930 . S
C312 C313 1.399 . S
C312 C317 1.399 1_554 S
C313 C312 1.399 . S
C313 C314 1.376 . S
C314 H301 0.930 . S
C314 C313 1.376 . S
C314 C315 1.388 1_554 S
C315 H302 0.930 . S
C315 C314 1.388 1_556 S
C315 C316 1.390 . S
C316 C315 1.390 . S
C316 C317 1.394 . S
C316 C322 1.465 . S
C317 C312 1.399 1_556 S
C317 C316 1.394 . S
C317 C318 1.516 . S
C318 C317 1.516 . S
C318 C319 1.502 . S
C318 C320 1.561 . S
C318 C321 1.526 . S
C319 H303 0.959 . S
C319 H304 0.959 . S
C319 H305 0.961 . S
C319 C318 1.502 . S
C320 H306 0.960 . S
C320 H307 0.961 . S
C320 H308 0.959 1_455 S
C320 C318 1.561 . S
C321 C318 1.526 . S
C321 C322 1.396 . S
C321 C326 1.390 . S
C322 C316 1.465 . S
C322 C321 1.396 . S
C322 C323 1.399 . S
C323 H309 0.929 . S
C323 C322 1.399 . S
C323 C324 1.385 . S
C324 H310 0.931 . S
C324 C323 1.385 . S
C324 C325 1.389 . S
C325 C324 1.389 . S
C325 C326 1.387 . S
C326 H311 0.930 . S
C326 C321 1.390 . S
C326 C325 1.387 . S
H327 C339 0.933 . S
H328 C341 0.930 . S
H329 C342 0.930 . S
H330 C346 0.959 . S
H331 C346 0.959 . S
H332 C346 0.961 . S
H333 C347 0.960 . S
H334 C347 0.961 . S
H335 C347 0.959 . S
H336 C350 0.929 . S
H337 C351 0.931 . S
H338 C353 0.930 . S
C339 H327 0.933 . S
C339 C340 1.399 . S
C339 C344 1.399 1_556 S
C340 C339 1.399 . S
C340 C341 1.376 . S
C341 H328 0.930 . S
C341 C340 1.376 . S
C341 C342 1.388 1_556 S
C342 H329 0.930 . S
C342 C341 1.388 1_554 S
C342 C343 1.390 . S
C343 C342 1.390 . S
C343 C344 1.394 . S
C343 C349 1.465 . S
C344 C339 1.399 1_554 S
C344 C343 1.394 . S
C344 C345 1.516 . S
C345 C344 1.516 . S
C345 C346 1.502 1_655 S
C345 C347 1.561 . S
C345 C348 1.526 . S
C346 H330 0.959 . S
C346 H331 0.959 . S
C346 H332 0.961 . S
C346 C345 1.502 1_455 S
C347 H333 0.960 . S
C347 H334 0.961 . S
C347 H335 0.959 . S
C347 C345 1.561 . S
C348 C345 1.526 . S
C348 C349 1.396 . S
C348 C353 1.390 . S
C349 C343 1.465 . S
C349 C348 1.396 . S
C349 C350 1.399 . S
C350 H336 0.929 . S
C350 C349 1.399 . S
C350 C351 1.385 . S
C351 H337 0.931 . S
C351 C350 1.385 . S
C351 C352 1.389 . S
C352 C351 1.389 . S
C352 C353 1.387 . S
C353 H338 0.930 . S
C353 C348 1.390 . S
C353 C352 1.387 . S
H354 C366 0.930 . S
H355 C368 0.930 . S
H356 C369 0.930 . S
H357 C373 0.959 . S
H358 C373 0.959 . S
H359 C373 0.961 . S
H360 C374 0.960 . S
H361 C374 0.961 . S
H362 C374 0.959 . S
H363 C377 0.929 . S
H364 C378 0.931 . S
H365 C380 0.930 . S
C366 H354 0.930 . S
C366 C367 1.399 . S
C366 C371 1.399 . S
C367 C366 1.399 . S
C367 C368 1.376 . S
C368 H355 0.930 . S
C368 C367 1.376 . S
C368 C369 1.388 . S
C369 H356 0.930 . S
C369 C368 1.388 . S
C369 C370 1.390 . S
C370 C369 1.390 . S
C370 C371 1.394 . S
C370 C376 1.465 . S
C371 C366 1.399 . S
C371 C370 1.394 . S
C371 C372 1.516 . S
C372 C371 1.516 . S
C372 C373 1.502 . S
C372 C374 1.561 . S
C372 C375 1.526 . S
C373 H357 0.959 . S
C373 H358 0.959 . S
C373 H359 0.961 . S
C373 C372 1.502 . S
C374 H360 0.960 . S
C374 H361 0.961 . S
C374 H362 0.959 . S
C374 C372 1.561 . S
C375 C372 1.526 . S
C375 C376 1.396 . S
C375 C380 1.390 . S
C376 C370 1.465 . S
C376 C375 1.396 . S
C376 C377 1.399 . S
C377 H363 0.929 . S
C377 C376 1.399 . S
C377 C378 1.385 . S
C378 H364 0.931 . S
C378 C377 1.385 . S
C378 C379 1.389 . S
C379 C378 1.389 . S
C379 C380 1.387 . S
C380 H365 0.930 . S
C380 C375 1.390 . S
C380 C379 1.387 . S
H381 C393 0.930 . S
H382 C395 0.930 . S
H383 C396 0.930 . S
H384 C400 0.959 . S
H385 C400 0.959 . S
H386 C400 0.961 . S
H387 C401 0.960 . S
H388 C401 0.961 . S
H389 C401 0.959 . S
H390 C404 0.929 . S
H391 C405 0.931 . S
H392 C407 0.930 . S
C393 H381 0.930 . S
C393 C394 1.399 . S
C393 C398 1.399 . S
C394 C393 1.399 . S
C394 C395 1.376 . S
C395 H382 0.930 . S
C395 C394 1.376 . S
C395 C396 1.388 . S
C396 H383 0.930 . S
C396 C395 1.388 . S
C396 C397 1.390 . S
C397 C396 1.390 . S
C397 C398 1.394 . S
C397 C403 1.465 . S
C398 C393 1.399 . S
C398 C397 1.394 . S
C398 C399 1.516 . S
C399 C398 1.516 . S
C399 C400 1.502 . S
C399 C401 1.561 . S
C399 C402 1.526 . S
C400 H384 0.959 . S
C400 H385 0.959 . S
C400 H386 0.961 . S
C400 C399 1.502 . S
C401 H387 0.960 . S
C401 H388 0.961 . S
C401 H389 0.959 . S
C401 C399 1.561 . S
C402 C399 1.526 . S
C402 C403 1.396 . S
C402 C407 1.390 . S
C403 C397 1.465 . S
C403 C402 1.396 . S
C403 C404 1.399 . S
C404 H390 0.929 . S
C404 C403 1.399 . S
C404 C405 1.385 . S
C405 H391 0.931 . S
C405 C404 1.385 . S
C405 C406 1.389 . S
C406 C405 1.389 . S
C406 C407 1.387 . S
C407 H392 0.930 . S
C407 C402 1.390 . S
C407 C406 1.387 . S
C97 C3 1.364 . S
C109 C25 1.536 . S
C124 C62 1.271 . S
C136 C40 1.204 . S
C151 C67 1.406 . S
C163 C49 1.540 . S
C178 C7 1.603 . S
C190 C79 1.657 . S
C205 C83 1.267 . S
C217 C4 1.204 . S
C232 C58 1.689 . S
C244 C24 1.647 . S
C259 C46 1.401 . S
C271 C70 1.501 . S
C286 C28 1.349 . S
C298 C19 1.528 . S
C313 C16 1.112 . S
C325 C20 1.073 . S
C340 C41 1.134 1_655 S
C352 C37 1.182 . S
C367 C45 1.058 . S
C379 C61 1.186 . S
C394 C82 1.153 . S
C406 C66 1.170 . S
