# Generated by pormake.
# Topology sml, (6)-cn, num edge types: 1
# Building blocks:
#     Node 0, Type 0, BuildingBlock: BETFEN_clean_sbu_0, # of connection points: 6
#     Node 1, Type 0, BuildingBlock: BETFEN_clean_sbu_0, # of connection points: 6
#     Node 2, Type 0, BuildingBlock: BETFEN_clean_sbu_0, # of connection points: 6
#     Node 3, Type 0, BuildingBlock: BETFEN_clean_sbu_0, # of connection points: 6
#     Node 4, Type 0, BuildingBlock: BETFEN_clean_sbu_0, # of connection points: 6
#     Node 5, Type 0, BuildingBlock: BETFEN_clean_sbu_0, # of connection points: 6
#     Edge 6, Type (0, 0), BuildingBlock: MIFKUJ_clean_linker_0, # of connection points: 2
#     Edge 7, Type (0, 0), BuildingBlock: MIFKUJ_clean_linker_0, # of connection points: 2
#     Edge 8, Type (0, 0), BuildingBlock: MIFKUJ_clean_linker_0, # of connection points: 2
#     Edge 9, Type (0, 0), BuildingBlock: MIFKUJ_clean_linker_0, # of connection points: 2
#     Edge 10, Type (0, 0), BuildingBlock: MIFKUJ_clean_linker_0, # of connection points: 2
#     Edge 11, Type (0, 0), BuildingBlock: MIFKUJ_clean_linker_0, # of connection points: 2
#     Edge 12, Type (0, 0), BuildingBlock: MIFKUJ_clean_linker_0, # of connection points: 2
#     Edge 13, Type (0, 0), BuildingBlock: MIFKUJ_clean_linker_0, # of connection points: 2
#     Edge 14, Type (0, 0), BuildingBlock: MIFKUJ_clean_linker_0, # of connection points: 2
#     Edge 15, Type (0, 0), BuildingBlock: MIFKUJ_clean_linker_0, # of connection points: 2
#     Edge 16, Type (0, 0), BuildingBlock: MIFKUJ_clean_linker_0, # of connection points: 2
#     Edge 17, Type (0, 0), BuildingBlock: MIFKUJ_clean_linker_0, # of connection points: 2
#     Edge 18, Type (0, 0), BuildingBlock: MIFKUJ_clean_linker_0, # of connection points: 2
#     Edge 19, Type (0, 0), BuildingBlock: MIFKUJ_clean_linker_0, # of connection points: 2
#     Edge 20, Type (0, 0), BuildingBlock: MIFKUJ_clean_linker_0, # of connection points: 2
#     Edge 21, Type (0, 0), BuildingBlock: MIFKUJ_clean_linker_0, # of connection points: 2
#     Edge 22, Type (0, 0), BuildingBlock: MIFKUJ_clean_linker_0, # of connection points: 2
#     Edge 23, Type (0, 0), BuildingBlock: MIFKUJ_clean_linker_0, # of connection points: 2
# Relax obj value: 0.156
# Max RMSD: 0.198
# Mean RMSD: 0.198
data_MOF--net-sml--node1-BETFEN_clean_sbu_0--edge1-MIFKUJ_clean_linker_0
_symmetry_space_group_name_H-M    P1
_symmetry_Int_Tables_number       1
_symmetry_cell_setting            triclinic
loop_
_symmetry_equiv_pos_as_xyz
'x, y, z'
_cell_length_a     43.681424
_cell_length_b     43.610811
_cell_length_c     29.928342
_cell_angle_alpha  90.026081
_cell_angle_beta   89.835354
_cell_angle_gamma 119.97662
loop_
_atom_site_label
_atom_site_type_symbol
_atom_site_fract_x
_atom_site_fract_y
_atom_site_fract_z
_atom_type_partial_charge
Pr0 Pr 0.2315 0.4212 0.14594 0.0
Pr1 Pr 0.18003 0.40495 0.05694 0.0
C2 C 0.26879 0.44557 0.22198 0.0
C3 C 0.25981 0.44565 0.26944 0.0
C4 C 0.28638 0.46587 0.30035 0.0
C5 C 0.27838 0.46409 0.34595 0.0
C6 C 0.24367 0.44184 0.36143 0.0
C7 C 0.21691 0.42239 0.33009 0.0
C8 C 0.2249 0.42439 0.28449 0.0
C9 C 0.22828 0.37174 0.08453 0.0
C10 C 0.14735 0.35896 0.15023 0.0
C11 C 0.14982 0.38252 0.97638 0.0
C12 C 0.16013 0.38676 0.92847 0.0
C13 C 0.15307 0.40877 0.90129 0.0
C14 C 0.16251 0.4135 0.85615 0.0
C15 C 0.17897 0.39609 0.8368 0.0
C16 C 0.18588 0.37383 0.86377 0.0
C17 C 0.17651 0.36914 0.90917 0.0
C18 C 0.17165 0.44794 0.1201 0.0
C19 C 0.26439 0.47084 0.05354 0.0
O20 O 0.26275 0.46566 0.19513 0.0
O21 O 0.25964 0.41447 0.20498 0.0
O22 O 0.22821 0.39983 0.0754 0.0
O23 O 0.23301 0.3696 0.12711 0.0
O24 O 0.14583 0.35795 0.10592 0.0
O25 O 0.17451 0.38396 0.17257 0.0
O26 O 0.15836 0.36351 1.00204 0.0
O27 O 0.15287 0.41069 0.99633 0.0
O28 O 0.19054 0.43391 0.12204 0.0
O29 O 0.15444 0.4391 0.08253 0.0
O30 O 0.26989 0.46511 0.09556 0.0
O31 O 0.23399 0.45172 0.03245 0.0
H32 H 0.31346 0.48244 0.28932 0.0
H33 H 0.29961 0.4792 0.36926 0.0
H34 H 0.18985 0.40542 0.34089 0.0
H35 H 0.20395 0.40881 0.26105 0.0
H36 H 0.14009 0.42236 0.91495 0.0
H37 H 0.15635 0.4304 0.83614 0.0
H38 H 0.19893 0.36043 0.84986 0.0
H39 H 0.18213 0.35178 0.929 0.0
Pr40 Pr 0.77034 0.18544 0.42878 0.0
Pr41 Pr 0.81366 0.20438 0.51904 0.0
C42 C 0.7366 0.18258 0.3523 0.0
C43 C 0.74427 0.18636 0.30403 0.0
C44 C 0.71669 0.16778 0.27371 0.0
C45 C 0.72351 0.16992 0.2278 0.0
C46 C 0.75814 0.19081 0.21123 0.0
C47 C 0.78573 0.20955 0.24188 0.0
C48 C 0.7789 0.20728 0.28786 0.0
C49 C 0.75969 0.12881 0.48224 0.0
C50 C 0.84813 0.19211 0.42468 0.0
C51 C 0.84465 0.20294 0.59603 0.0
C52 C 0.83634 0.19948 0.64416 0.0
C53 C 0.86365 0.21766 0.67495 0.0
C54 C 0.85633 0.21548 0.72071 0.0
C55 C 0.82147 0.19491 0.73671 0.0
C56 C 0.79411 0.17671 0.70558 0.0
C57 C 0.80146 0.17903 0.65974 0.0
C58 C 0.82343 0.26201 0.4692 0.0
C59 C 0.73746 0.20211 0.52085 0.0
O60 O 0.75316 0.21126 0.37665 0.0
O61 O 0.73442 0.15458 0.3714 0.0
O62 O 0.76218 0.15723 0.49561 0.0
O63 O 0.76107 0.12776 0.43891 0.0
O64 O 0.84882 0.19299 0.46896 0.0
O65 O 0.82323 0.19338 0.40137 0.0
O66 O 0.82614 0.17483 0.57126 0.0
O67 O 0.85038 0.23238 0.577 0.0
O68 O 0.82097 0.23407 0.45325 0.0
O69 O 0.82383 0.26205 0.51268 0.0
O70 O 0.7363 0.19927 0.47683 0.0
O71 O 0.76185 0.20085 0.54543 0.0
H72 H 0.68985 0.15125 0.2856 0.0
H73 H 0.70168 0.15461 0.20537 0.0
H74 H 0.81259 0.22615 0.23032 0.0
H75 H 0.80067 0.22169 0.31074 0.0
H76 H 0.89069 0.23381 0.66354 0.0
H77 H 0.878 0.23041 0.74349 0.0
H78 H 0.76704 0.16027 0.71661 0.0
H79 H 0.77991 0.16488 0.63653 0.0
Pr80 Pr 0.54994 0.78273 0.80731 0.0
Pr81 Pr 0.58615 0.773 0.72116 0.0
C82 C 0.51853 0.77634 0.8873 0.0
C83 C 0.52846 0.78099 0.93479 0.0
C84 C 0.50448 0.77962 0.96699 0.0
C85 C 0.51301 0.78274 0.0124 0.0
C86 C 0.54565 0.78702 0.02648 0.0
C87 C 0.56991 0.78903 0.99391 0.0
C88 C 0.56141 0.78612 0.94844 0.0
C89 C 0.60901 0.84409 0.77709 0.0
C90 C 0.61196 0.75934 0.81701 0.0
C91 C 0.61913 0.78003 0.64213 0.0
C92 C 0.61198 0.7782 0.59392 0.0
C93 C 0.63861 0.78361 0.56341 0.0
C94 C 0.63277 0.78324 0.51742 0.0
C95 C 0.60024 0.77778 0.50116 0.0
C96 C 0.57345 0.77202 0.53194 0.0
C97 C 0.57923 0.77206 0.57797 0.0
C98 C 0.52748 0.71183 0.75316 0.0
C99 C 0.52191 0.79353 0.71111 0.0
O100 O 0.51885 0.74997 0.86689 0.0
O101 O 0.53164 0.8051 0.863 0.0
O102 O 0.60609 0.81383 0.77766 0.0
O103 O 0.58197 0.84383 0.79558 0.0
O104 O 0.6225 0.7696 0.7755 0.0
O105 O 0.58355 0.75843 0.83389 0.0
O106 O 0.61996 0.80656 0.66361 0.0
O107 O 0.60307 0.75024 0.66442 0.0
O108 O 0.53049 0.74204 0.75104 0.0
O109 O 0.55451 0.71172 0.73505 0.0
O110 O 0.5125 0.78432 0.75318 0.0
O111 O 0.55048 0.79499 0.69367 0.0
H112 H 0.47892 0.77563 0.95703 0.0
H113 H 0.49357 0.78068 0.03658 0.0
H114 H 0.5954 0.79268 1.00359 0.0
H115 H 0.58036 0.78746 0.92396 0.0
H116 H 0.6641 0.78849 0.57517 0.0
H117 H 0.65401 0.78807 0.4946 0.0
H118 H 0.54803 0.76749 0.52042 0.0
H119 H 0.55834 0.76773 0.60112 0.0
Pr120 Pr 0.76765 0.54226 0.12145 0.0
Pr121 Pr 0.7612 0.58086 0.20631 0.0
C122 C 0.7598 0.51067 0.04149 0.0
C123 C 0.75701 0.51721 0.99381 0.0
C124 C 0.77765 0.55094 0.97486 0.0
C125 C 0.7756 0.55612 0.9291 0.0
C126 C 0.75271 0.52772 0.90146 0.0
C127 C 0.73127 0.49426 0.92101 0.0
C128 C 0.73343 0.48909 0.96672 0.0
C129 C 0.83078 0.58655 0.16426 0.0
C130 C 0.7649 0.61743 0.11077 0.0
C131 C 0.7674 0.61211 0.28614 0.0
C132 C 0.76576 0.60382 0.33395 0.0
C133 C 0.75264 0.56895 0.34874 0.0
C134 C 0.75065 0.56153 0.39451 0.0
C135 C 0.76218 0.58894 0.42632 0.0
C136 C 0.77574 0.62392 0.41091 0.0
C137 C 0.77708 0.63115 0.36524 0.0
C138 C 0.69819 0.53511 0.16327 0.0
C139 C 0.76306 0.50492 0.21678 0.0
O140 O 0.73315 0.50521 0.06687 0.0
O141 O 0.79051 0.53 0.06068 0.0
O142 O 0.80659 0.59384 0.15745 0.0
O143 O 0.82355 0.55631 0.14693 0.0
O144 O 0.77076 0.62396 0.15388 0.0
O145 O 0.75977 0.5877 0.09234 0.0
O146 O 0.79451 0.61492 0.26382 0.0
O147 O 0.73766 0.59541 0.26415 0.0
O148 O 0.7232 0.52942 0.17104 0.0
O149 O 0.70446 0.56523 0.17992 0.0
O150 O 0.75698 0.49892 0.17362 0.0
O151 O 0.76864 0.53476 0.23563 0.0
H152 H 0.79573 0.57316 0.99528 0.0
H153 H 0.79265 0.58219 0.91523 0.0
H154 H 0.71284 0.47197 0.90102 0.0
H155 H 0.71688 0.46298 0.98086 0.0
H156 H 0.74355 0.54744 0.32493 0.0
H157 H 0.73948 0.53421 0.40484 0.0
H158 H 0.7856 0.6459 0.43403 0.0
H159 H 0.78706 0.65818 0.35428 0.0
Pr160 Pr 0.20966 0.7874 0.46023 0.0
Pr161 Pr 0.22911 0.82829 0.37007 0.0
C162 C 0.20703 0.75403 0.53716 0.0
C163 C 0.21093 0.7616 0.58538 0.0
C164 C 0.19245 0.73382 0.61567 0.0
C165 C 0.1946 0.74044 0.66157 0.0
C166 C 0.21537 0.77505 0.67815 0.0
C167 C 0.23406 0.80289 0.64754 0.0
C168 C 0.23179 0.79623 0.60154 0.0
C169 C 0.15196 0.7781 0.41025 0.0
C170 C 0.21928 0.86654 0.46176 0.0
C171 C 0.23465 0.86221 0.29261 0.0
C172 C 0.22893 0.85403 0.24466 0.0
C173 C 0.24698 0.88125 0.21354 0.0
C174 C 0.24355 0.87393 0.1678 0.0
C175 C 0.22192 0.83914 0.15221 0.0
C176 C 0.20357 0.81187 0.18366 0.0
C177 C 0.20712 0.81926 0.22952 0.0
C178 C 0.28589 0.83668 0.42126 0.0
C179 C 0.2177 0.74872 0.36887 0.0
O180 O 0.23558 0.77053 0.51255 0.0
O181 O 0.17909 0.75196 0.51835 0.0
O182 O 0.17916 0.77904 0.39449 0.0
O183 O 0.15279 0.77957 0.45362 0.0
O184 O 0.21911 0.86559 0.41755 0.0
O185 O 0.21987 0.8417 0.48624 0.0
O186 O 0.20656 0.8493 0.31825 0.0
O187 O 0.26094 0.86034 0.31052 0.0
O188 O 0.259 0.83692 0.43574 0.0
O189 O 0.28486 0.83293 0.37813 0.0
O190 O 0.22213 0.75187 0.41263 0.0
O191 O 0.21368 0.77191 0.34507 0.0
H192 H 0.17598 0.70698 0.60376 0.0
H193 H 0.17936 0.71846 0.68399 0.0
H194 H 0.25058 0.82979 0.65911 0.0
H195 H 0.24613 0.81812 0.57863 0.0
H196 H 0.26421 0.90818 0.22468 0.0
H197 H 0.25857 0.89546 0.14471 0.0
H198 H 0.18641 0.78485 0.17288 0.0
H199 H 0.19313 0.79781 0.25314 0.0
Pr200 Pr 0.45167 0.26438 0.73073 0.0
Pr201 Pr 0.41272 0.21884 0.816 0.0
C202 C 0.48467 0.28809 0.65134 0.0
C203 C 0.47709 0.2789 0.60372 0.0
C204 C 0.44226 0.25767 0.58867 0.0
C205 C 0.4354 0.24988 0.54314 0.0
C206 C 0.46326 0.2631 0.51182 0.0
C207 C 0.49816 0.28375 0.52737 0.0
C208 C 0.50497 0.29156 0.57286 0.0
C209 C 0.39457 0.27015 0.76138 0.0
C210 C 0.38718 0.1799 0.72059 0.0
C211 C 0.37918 0.19425 0.89498 0.0
C212 C 0.38656 0.20042 0.9432 0.0
C213 C 0.42132 0.21766 0.95945 0.0
C214 C 0.42777 0.2235 1.00539 0.0
C215 C 0.39956 0.21202 0.03606 0.0
C216 C 0.36479 0.19486 0.01934 0.0
C217 C 0.35842 0.18925 0.97343 0.0
C218 C 0.47029 0.21389 0.78544 0.0
C219 C 0.47852 0.30345 0.82661 0.0
O220 O 0.48864 0.26572 0.67636 0.0
O221 O 0.46646 0.30069 0.6709 0.0
O222 O 0.39559 0.24182 0.75923 0.0
O223 O 0.42289 0.29656 0.74439 0.0
O224 O 0.37553 0.18092 0.76101 0.0
O225 O 0.41712 0.20607 0.70463 0.0
O226 O 0.37834 0.21954 0.87246 0.0
O227 O 0.39486 0.17981 0.87333 0.0
O228 O 0.4688 0.2419 0.78809 0.0
O229 O 0.44184 0.18686 0.80124 0.0
O230 O 0.4883 0.30422 0.78462 0.0
O231 O 0.44992 0.27614 0.84375 0.0
H232 H 0.42038 0.24724 0.61211 0.0
H233 H 0.40828 0.23339 0.53248 0.0
H234 H 0.52022 0.29463 0.50424 0.0
H235 H 0.53203 0.30782 0.58392 0.0
H236 H 0.44346 0.22689 0.93656 0.0
H237 H 0.45489 0.23738 0.01679 0.0
H238 H 0.34236 0.18518 0.04177 0.0
H239 H 0.3314 0.17596 0.96151 0.0
H240 H 0.40085 0.33199 0.79047 0.0
H241 H 0.36327 0.33956 0.84482 0.0
H242 H 0.29457 0.22637 0.85106 0.0
H243 H 0.33232 0.21853 0.79665 0.0
H244 H 0.25925 0.26848 0.84811 0.0
H245 H 0.3514 0.26024 0.92757 0.0
H246 H 0.41289 0.27699 0.94555 0.0
H247 H 0.43668 0.38272 0.97594 0.0
H248 H 0.37573 0.36714 0.95674 0.0
H249 H 0.23795 0.31528 0.09739 0.0
H250 H 0.25501 0.28592 0.04083 0.0
H251 H 0.24713 0.35117 0.93829 0.0
H252 H 0.23006 0.38044 0.99447 0.0
H253 H 0.31524 0.32221 0.99308 0.0
H254 H 0.23011 0.30705 0.83719 0.0
H255 H 0.1697 0.29416 0.81979 0.0
H256 H 0.13214 0.23821 0.94395 0.0
H257 H 0.19209 0.24984 0.96158 0.0
C258 C 0.37746 0.30874 0.80289 0.0
C259 C 0.36953 0.27466 0.7897 0.0
C260 C 0.35612 0.3131 0.83398 0.0
C261 C 0.32646 0.28349 0.85212 0.0
C262 C 0.31744 0.24948 0.83736 0.0
C263 C 0.33898 0.24507 0.80646 0.0
C264 C 0.30617 0.28824 0.88826 0.0
C265 C 0.27129 0.28002 0.87997 0.0
C266 C 0.32205 0.30308 0.92977 0.0
C267 C 0.35896 0.31254 0.94043 0.0
C268 C 0.36981 0.28718 0.93753 0.0
C269 C 0.40455 0.29644 0.94805 0.0
C270 C 0.42854 0.33076 0.9621 0.0
C271 C 0.41802 0.3561 0.96515 0.0
C272 C 0.3834 0.34711 0.95437 0.0
C273 C 0.23911 0.32275 0.06265 0.0
C274 C 0.2329 0.35019 0.05026 0.0
C275 C 0.24883 0.306 0.03044 0.0
C276 C 0.2522 0.3163 0.98543 0.0
C277 C 0.24418 0.34245 0.97273 0.0
C278 C 0.23454 0.35923 1.0049 0.0
C279 C 0.26845 0.3032 0.9528 0.0
C280 C 0.30282 0.31008 0.9616 0.0
C281 C 0.2522 0.28761 0.91167 0.0
C282 C 0.21575 0.27958 0.90086 0.0
C283 C 0.20893 0.29172 0.86064 0.0
C284 C 0.17474 0.28464 0.85072 0.0
C285 C 0.14714 0.26554 0.88084 0.0
C286 C 0.15359 0.25316 0.92074 0.0
C287 C 0.18767 0.25995 0.93069 0.0
H288 H 0.12074 0.26027 0.8732 0.0
H289 H 0.45522 0.3377 0.97086 0.0
H290 H 0.1431 0.34952 0.24063 0.0
H291 H 0.09159 0.30931 0.28464 0.0
H292 H 0.03091 0.26756 0.16397 0.0
H293 H 0.08245 0.30821 0.11931 0.0
H294 H -0.00232 0.28699 0.22441 0.0
H295 H 0.05383 0.21689 0.22591 0.0
H296 H 0.10315 0.20531 0.23593 0.0
H297 H 0.11055 0.23416 0.37432 0.0
H298 H 0.06157 0.24639 0.365 0.0
H299 H 0.84714 0.16937 0.3401 0.0
H300 H 0.89817 0.18516 0.29216 0.0
H301 H 0.9679 0.23655 0.40338 0.0
H302 H 0.91672 0.22013 0.45199 0.0
H303 H 0.99465 0.20628 0.34352 0.0
H304 H 0.94553 0.28356 0.34086 0.0
H305 H 0.89732 0.29712 0.33331 0.0
H306 H 0.87889 0.25779 0.19875 0.0
H307 H 0.92656 0.24333 0.20584 0.0
C308 C 0.11896 0.33159 0.22323 0.0
C309 C 0.11686 0.33226 0.17637 0.0
C310 C 0.08958 0.30839 0.24853 0.0
C311 C 0.05755 0.28521 0.22755 0.0
C312 C 0.0555 0.28517 0.18074 0.0
C313 C 0.08497 0.30838 0.15531 0.0
C314 C 0.02559 0.26334 0.25486 0.0
C315 C 0.99671 0.2687 0.2497 0.0
C316 C 0.02484 0.24037 0.28882 0.0
C317 C 0.05415 0.23277 0.29466 0.0
C318 C 0.06612 0.221 0.25841 0.0
C319 C 0.09399 0.21428 0.26398 0.0
C320 C 0.11001 0.21905 0.30572 0.0
C321 C 0.09812 0.23047 0.342 0.0
C322 C 0.07026 0.23725 0.33661 0.0
C323 C 0.87331 0.18318 0.35467 0.0
C324 C 0.8781 0.19413 0.39952 0.0
C325 C 0.9024 0.19213 0.32725 0.0
C326 C 0.93671 0.2127 0.34405 0.0
C327 C 0.94155 0.22076 0.38982 0.0
C328 C 0.91233 0.21142 0.41752 0.0
C329 C 0.96696 0.22999 0.31285 0.0
C330 C 0.99549 0.22404 0.31756 0.0
C331 C 0.96766 0.25279 0.27868 0.0
C332 C 0.93938 0.26203 0.27403 0.0
C333 C 0.93104 0.27758 0.30976 0.0
C334 C 0.90382 0.28544 0.30558 0.0
C335 C 0.88504 0.2783 0.2656 0.0
C336 C 0.89345 0.2633 0.22971 0.0
C337 C 0.92056 0.25524 0.2338 0.0
H338 H 0.86402 0.28446 0.26243 0.0
H339 H 0.1316 0.21384 0.30995 0.0
H340 H 0.74463 0.12426 0.57042 0.0
H341 H 0.73325 0.07631 0.62141 0.0
H342 H 0.75242 0.02118 0.51478 0.0
H343 H 0.76277 0.06908 0.46287 0.0
H344 H 0.69438 0.97836 0.55625 0.0
H345 H 0.81053 0.06006 0.60533 0.0
H346 H 0.85988 0.11742 0.63019 0.0
H347 H 0.80105 0.11381 0.74714 0.0
H348 H 0.75092 0.05696 0.72246 0.0
H349 H 0.66213 0.84749 0.72486 0.0
H350 H 0.70109 0.89644 0.67494 0.0
H351 H 0.65997 0.96015 0.72964 0.0
H352 H 0.61949 0.91079 0.77721 0.0
H353 H 0.74041 0.99497 0.71107 0.0
H354 H 0.62145 0.92758 0.64899 0.0
H355 H 0.5684 0.87369 0.62287 0.0
H356 H 0.6319 0.85344 0.53093 0.0
H357 H 0.68549 0.90689 0.55733 0.0
C358 C 0.74678 0.10209 0.55791 0.0
C359 C 0.7545 0.10023 0.51277 0.0
C360 C 0.74062 0.07483 0.58722 0.0
C361 C 0.74273 0.04545 0.5722 0.0
C362 C 0.75095 0.04377 0.52714 0.0
C363 C 0.75674 0.07099 0.49755 0.0
C364 C 0.73285 0.01519 0.60277 0.0
C365 C 0.70535 0.98185 0.58959 0.0
C366 C 0.74656 0.01987 0.64673 0.0
C367 C 0.77684 0.05412 0.66192 0.0
C368 C 0.80796 0.07158 0.6362 0.0
C369 C 0.83609 0.10405 0.65026 0.0
C370 C 0.83361 0.1192 0.69025 0.0
C371 C 0.80296 0.10199 0.71621 0.0
C372 C 0.77466 0.06964 0.70217 0.0
C373 C 0.66149 0.87197 0.72613 0.0
C374 C 0.63707 0.87507 0.75363 0.0
C375 C 0.68395 0.89991 0.69808 0.0
C376 C 0.68308 0.93162 0.69866 0.0
C377 C 0.66092 0.93579 0.72892 0.0
C378 C 0.63775 0.90756 0.75587 0.0
C379 C 0.70187 0.95898 0.6644 0.0
C380 C 0.73071 0.99154 0.67707 0.0
C381 C 0.68934 0.95387 0.62008 0.0
C382 C 0.65751 0.92081 0.60571 0.0
C383 C 0.62419 0.91122 0.62387 0.0
C384 C 0.594 0.88082 0.60891 0.0
C385 C 0.59678 0.86001 0.57542 0.0
C386 C 0.6298 0.86944 0.55707 0.0
C387 C 0.6601 0.89975 0.57206 0.0
H388 H 0.5733 0.83681 0.56342 0.0
H389 H 0.85545 0.14427 0.70113 0.0
H390 H 0.60068 0.74281 0.90549 0.0
H391 H 0.63258 0.7238 0.95405 0.0
H392 H 0.7008 0.7324 0.84448 0.0
H393 H 0.66862 0.7513 0.79497 0.0
H394 H 0.67189 0.66782 0.89561 0.0
H395 H 0.73433 0.79638 0.92285 0.0
H396 H 0.73272 0.85078 0.94111 0.0
H397 H 0.67704 0.80325 0.063 0.0
H398 H 0.67875 0.74881 0.04573 0.0
H399 H 0.78417 0.63368 0.02384 0.0
H400 H 0.76604 0.66561 0.97309 0.0
H401 H 0.71361 0.6855 0.08249 0.0
H402 H 0.73371 0.65561 0.13369 0.0
H403 H 0.73593 0.73747 0.02936 0.0
H404 H 0.67429 0.61296 0.01217 0.0
H405 H 0.66658 0.55377 0.99876 0.0
H406 H 0.70147 0.58243 0.86329 0.0
H407 H 0.71223 0.64273 0.8767 0.0
C408 C 0.62251 0.74082 0.89151 0.0
C409 C 0.63219 0.74869 0.84629 0.0
C410 C 0.64078 0.73004 0.91946 0.0
C411 C 0.66922 0.72712 0.90289 0.0
C412 C 0.67894 0.73469 0.85778 0.0
C413 C 0.66064 0.74558 0.82966 0.0
C414 C 0.68843 0.71569 0.93282 0.0
C415 C 0.68663 0.68325 0.92435 0.0
C416 C 0.70585 0.73514 0.97147 0.0
C417 C 0.70673 0.76862 0.98303 0.0
C418 C 0.72197 0.79767 0.95368 0.0
C419 C 0.72108 0.82851 0.96389 0.0
C420 C 0.70495 0.83054 1.00332 0.0
C421 C 0.68986 0.80181 0.03273 0.0
C422 C 0.69093 0.77103 0.02286 0.0
C423 C 0.76964 0.6458 0.03713 0.0
C424 C 0.76009 0.64213 0.08244 0.0
C425 C 0.75909 0.66379 0.00814 0.0
C426 C 0.73752 0.67698 0.02371 0.0
C427 C 0.73006 0.6754 0.06963 0.0
C428 C 0.74155 0.65833 0.09888 0.0
C429 C 0.72026 0.68961 0.99186 0.0
C430 C 0.72193 0.7221 1.00021 0.0
C431 C 0.7014 0.66933 0.95402 0.0
C432 C 0.69489 0.63284 0.94582 0.0
C433 C 0.6811 0.60698 0.97976 0.0
C434 C 0.67637 0.57324 0.97225 0.0
C435 C 0.68423 0.56457 0.9305 0.0
C436 C 0.69636 0.58948 0.89599 0.0
C437 C 0.70201 0.62355 0.90362 0.0
H438 H 0.68078 0.53853 0.92488 0.0
H439 H 0.70406 0.85434 0.01103 0.0
H440 H 0.08429 0.74096 0.4404 0.0
H441 H 0.03061 0.71338 0.39546 0.0
H442 H 0.09268 0.7617 0.27666 0.0
H443 H 0.14664 0.7866 0.32124 0.0
H444 H 0.9955 0.73104 0.34821 0.0
H445 H 0.05675 0.71442 0.18662 0.0
H446 H 0.1082 0.70961 0.16197 0.0
H447 H 0.10921 0.66316 0.28807 0.0
H448 H 0.05789 0.6678 0.31342 0.0
H449 H 0.85785 0.65608 0.18652 0.0
H450 H 0.91347 0.69428 0.22549 0.0
H451 H 0.9321 0.60623 0.23735 0.0
H452 H 0.87751 0.56862 0.19684 0.0
H453 H 0.99006 0.66083 0.21502 0.0
H454 H 0.90132 0.63761 0.32634 0.0
H455 H 0.84972 0.63669 0.36142 0.0
H456 H 0.89999 0.74971 0.34869 0.0
H457 H 0.95173 0.75125 0.31305 0.0
C458 C 0.08638 0.74579 0.40471 0.0
C459 C 0.11948 0.76563 0.38411 0.0
C460 C 0.05569 0.73012 0.37901 0.0
C461 C 0.05751 0.73475 0.33239 0.0
C462 C 0.09055 0.75667 0.31227 0.0
C463 C 0.12136 0.77128 0.3378 0.0
C464 C 0.02493 0.7154 0.30515 0.0
C465 C 0.99437 0.71577 0.319 0.0
C466 C 0.02322 0.69519 0.26716 0.0
C467 C 0.05372 0.69174 0.252 0.0
C468 C 0.06794 0.70311 0.209 0.0
C469 C 0.09713 0.70051 0.19496 0.0
C470 C 0.11208 0.68624 0.2235 0.0
C471 C 0.09778 0.67441 0.26607 0.0
C472 C 0.06868 0.67708 0.28033 0.0
C473 C 0.87394 0.64503 0.19748 0.0
C474 C 0.8636 0.60954 0.18862 0.0
C475 C 0.90558 0.66677 0.2199 0.0
C476 C 0.92689 0.65309 0.23469 0.0
C477 C 0.91629 0.6175 0.22602 0.0
C478 C 0.88504 0.59598 0.20301 0.0
C479 C 0.96038 0.67562 0.25897 0.0
C480 C 0.99121 0.6762 0.24414 0.0
C481 C 0.96201 0.69562 0.29706 0.0
C482 C 0.93023 0.6945 0.31661 0.0
C483 C 0.90117 0.66221 0.33049 0.0
C484 C 0.87193 0.66159 0.3506 0.0
C485 C 0.8716 0.69315 0.35726 0.0
C486 C 0.90031 0.72532 0.34349 0.0
C487 C 0.92958 0.72607 0.32334 0.0
H488 H 0.84925 0.6928 0.3734 0.0
H489 H 0.13468 0.68428 0.21255 0.0
H490 H 0.4129 0.15539 0.65564 0.0
H491 H 0.37981 0.10263 0.60928 0.0
H492 H 0.28294 0.08129 0.67443 0.0
H493 H 0.31604 0.13357 0.72208 0.0
H494 H 0.32973 0.028 0.6469 0.0
H495 H 0.22944 0.06335 0.57338 0.0
H496 H 0.22668 0.11615 0.54967 0.0
H497 H 0.33821 0.17125 0.52256 0.0
H498 H 0.34151 0.11872 0.54568 0.0
H499 H 0.20288 0.87251 0.54789 0.0
H500 H 0.22445 0.9273 0.59035 0.0
H501 H 0.27159 0.98807 0.47059 0.0
H502 H 0.24895 0.93337 0.42761 0.0
H503 H 0.25104 0.02309 0.52425 0.0
H504 H 0.31866 0.96408 0.53815 0.0
H505 H 0.32625 0.91271 0.55354 0.0
H506 H 0.29107 0.90875 0.68864 0.0
H507 H 0.28282 0.95987 0.67385 0.0
C508 C 0.38453 0.1395 0.66003 0.0
C509 C 0.36693 0.14847 0.69237 0.0
C510 C 0.36578 0.1094 0.63368 0.0
C511 C 0.32908 0.0884 0.6385 0.0
C512 C 0.31131 0.09742 0.67034 0.0
C513 C 0.33019 0.12711 0.6975 0.0
C514 C 0.30937 0.05658 0.61069 0.0
C515 C 0.31235 0.02675 0.62025 0.0
C516 C 0.28752 0.05554 0.57537 0.0
C517 C 0.28577 0.08731 0.56191 0.0
C518 C 0.25335 0.08677 0.56243 0.0
C519 C 0.25169 0.11663 0.54906 0.0
C520 C 0.28227 0.14709 0.53482 0.0
C521 C 0.31458 0.14774 0.53386 0.0
C522 C 0.31637 0.11797 0.54725 0.0
C523 C 0.21698 0.89758 0.5304 0.0
C524 C 0.22476 0.89877 0.48465 0.0
C525 C 0.22936 0.92882 0.55469 0.0
C526 C 0.25048 0.96166 0.53381 0.0
C527 C 0.25554 0.96297 0.48737 0.0
C528 C 0.2426 0.93169 0.46286 0.0
C529 C 0.27073 0.99402 0.56094 0.0
C530 C 0.26802 0.02406 0.55125 0.0
C531 C 0.29377 0.9956 0.59531 0.0
C532 C 0.29985 0.96562 0.60478 0.0
C533 C 0.31245 0.9522 0.57111 0.0
C534 C 0.31684 0.92311 0.5797 0.0
C535 C 0.30907 0.90743 0.62201 0.0
C536 C 0.29705 0.92092 0.65587 0.0
C537 C 0.29255 0.94997 0.64742 0.0
H538 H 0.31242 0.88487 0.62855 0.0
H539 H 0.28092 0.17014 0.5244 0.0
H540 H 0.21139 0.45794 0.78956 0.0
H541 H 0.22355 0.46583 0.7094 0.0
H542 H 0.17836 0.35297 0.69413 0.0
H543 H 0.16735 0.34517 0.77478 0.0
H544 H 0.23302 0.3845 0.64245 0.0
H545 H 0.13222 0.39798 0.66738 0.0
H546 H 0.09765 0.42234 0.70211 0.0
H547 H 0.17286 0.52616 0.65452 0.0
H548 H 0.20815 0.5025 0.62 0.0
H549 H 0.2039 0.38035 0.40783 0.0
H550 H 0.19348 0.37293 0.48853 0.0
H551 H 0.25551 0.486 0.50621 0.0
H552 H 0.26597 0.49364 0.42536 0.0
H553 H 0.19201 0.4541 0.55572 0.0
H554 H 0.2919 0.43779 0.52955 0.0
H555 H 0.32353 0.41083 0.49334 0.0
H556 H 0.24536 0.30843 0.54173 0.0
H557 H 0.21297 0.33473 0.57771 0.0
C558 C 0.20415 0.43482 0.7691 0.0
C559 C 0.18821 0.40091 0.78844 0.0
C560 C 0.21096 0.43933 0.72319 0.0
C561 C 0.2011 0.40993 0.6953 0.0
C562 C 0.1861 0.3761 0.71477 0.0
C563 C 0.17985 0.37165 0.7609 0.0
C564 C 0.20602 0.41445 0.64588 0.0
C565 C 0.22359 0.39933 0.62351 0.0
C566 C 0.19423 0.43422 0.62091 0.0
C567 C 0.173 0.44852 0.64148 0.0
C568 C 0.14152 0.42605 0.66459 0.0
C569 C 0.12178 0.43972 0.6842 0.0
C570 C 0.1331 0.47579 0.68062 0.0
C571 C 0.16415 0.49824 0.65732 0.0
C572 C 0.18402 0.48471 0.63769 0.0
C573 C 0.215 0.40368 0.42883 0.0
C574 C 0.23582 0.43761 0.4102 0.0
C575 C 0.20924 0.39937 0.47497 0.0
C576 C 0.22401 0.42888 0.50344 0.0
C577 C 0.24399 0.46285 0.48487 0.0
C578 C 0.25009 0.46717 0.43873 0.0
C579 C 0.21898 0.42423 0.55264 0.0
C580 C 0.20137 0.43929 0.57484 0.0
C581 C 0.23026 0.404 0.57732 0.0
C582 C 0.24983 0.38819 0.55595 0.0
C583 C 0.2813 0.40948 0.53216 0.0
C584 C 0.2994 0.39433 0.51174 0.0
C585 C 0.28642 0.35792 0.51513 0.0
C586 C 0.25536 0.33662 0.53908 0.0
C587 C 0.23714 0.35164 0.55952 0.0
H588 H 0.30046 0.34624 0.4993 0.0
H589 H 0.11778 0.48633 0.69583 0.0
H590 H 0.718 0.19326 0.14241 0.0
H591 H 0.72861 0.19347 0.06222 0.0
H592 H 0.82548 0.19319 0.08849 0.0
H593 H 0.81482 0.19236 0.16885 0.0
H594 H 0.83395 0.2399 0.02257 0.0
H595 H 0.75277 0.11818 0.05687 0.0
H596 H 0.69827 0.06812 0.08768 0.0
H597 H 0.6357 0.09257 1.00005 0.0
H598 H 0.68985 0.14313 0.96915 0.0
H599 H 0.86085 0.19151 0.80583 0.0
H600 H 0.84999 0.19138 0.88593 0.0
H601 H 0.75369 0.19257 0.85892 0.0
H602 H 0.7646 0.19329 0.77867 0.0
H603 H 0.74483 0.14558 0.92512 0.0
H604 H 0.82599 0.26714 0.8906 0.0
H605 H 0.88046 0.31723 0.85982 0.0
H606 H 0.94306 0.29316 0.94788 0.0
H607 H 0.88894 0.24255 0.97875 0.0
C608 C 0.74142 0.19291 0.13124 0.0
C609 C 0.76538 0.19249 0.16227 0.0
C610 C 0.7475 0.19315 0.08532 0.0
C611 C 0.77761 0.1929 0.06931 0.0
C612 C 0.80204 0.19337 0.10007 0.0
C613 C 0.79595 0.19304 0.14606 0.0
C614 C 0.78346 0.1919 0.02048 0.0
C615 C 0.81468 0.21901 1.00136 0.0
C616 C 0.75796 0.1651 0.9926 0.0
C617 C 0.72536 0.13466 0.01102 0.0
C618 C 0.72738 0.11307 0.04443 0.0
C619 C 0.69655 0.08457 0.06186 0.0
C620 C 0.66354 0.07723 0.04592 0.0
C621 C 0.66129 0.09832 0.01242 0.0
C622 C 0.69204 0.12689 0.99491 0.0
C623 C 0.83752 0.19211 0.81681 0.0
C624 C 0.81386 0.1929 0.78559 0.0
C625 C 0.83129 0.1919 0.86269 0.0
C626 C 0.80128 0.19246 0.87846 0.0
C627 C 0.77706 0.1922 0.84751 0.0
C628 C 0.78332 0.19252 0.80158 0.0
C629 C 0.79533 0.19355 0.92723 0.0
C630 C 0.76409 0.16647 0.94633 0.0
C631 C 0.82082 0.22038 0.9551 0.0
C632 C 0.85342 0.25082 0.93665 0.0
C633 C 0.85138 0.27233 0.90313 0.0
C634 C 0.88219 0.30085 0.88572 0.0
C635 C 0.91521 0.30831 0.9018 0.0
C636 C 0.91747 0.28731 0.93541 0.0
C637 C 0.88673 0.25871 0.9529 0.0
H638 H 0.93904 0.33042 0.88828 0.0
H639 H 0.6397 0.05515 0.05945 0.0
H640 H 0.57186 0.81286 0.45771 0.0
H641 H 0.56385 0.81563 0.3772 0.0
H642 H 0.60783 0.74773 0.3538 0.0
H643 H 0.6166 0.74559 0.43425 0.0
H644 H 0.63362 0.79904 0.2951 0.0
H645 H 0.51654 0.7174 0.34824 0.0
H646 H 0.46411 0.69799 0.39639 0.0
H647 H 0.45091 0.78309 0.34703 0.0
H648 H 0.50355 0.80328 0.29896 0.0
H649 H 0.57567 0.75335 0.06994 0.0
H650 H 0.58622 0.75295 0.1501 0.0
H651 H 0.54408 0.82246 0.17298 0.0
H652 H 0.53323 0.82272 0.09289 0.0
H653 H 0.51755 0.77061 0.23185 0.0
H654 H 0.63439 0.85169 0.17779 0.0
H655 H 0.68744 0.87149 0.13072 0.0
H656 H 0.70112 0.78716 0.18185 0.0
H657 H 0.64786 0.76654 0.2288 0.0
C658 C 0.57952 0.79829 0.43538 0.0
C659 C 0.59464 0.77882 0.45231 0.0
C660 C 0.57493 0.79986 0.38934 0.0
C661 C 0.58473 0.78145 0.35927 0.0
C662 C 0.60005 0.76217 0.37619 0.0
C663 C 0.60502 0.76094 0.42218 0.0
C664 C 0.57927 0.78242 0.31023 0.0
C665 C 0.60811 0.79235 0.28125 0.0
C666 C 0.5462 0.7745 0.29203 0.0
C667 C 0.51418 0.76203 0.32031 0.0
C668 C 0.50256 0.73208 0.34782 0.0
C669 C 0.4728 0.72093 0.37508 0.0
C670 C 0.45426 0.73936 0.37487 0.0
C671 C 0.46533 0.76887 0.3472 0.0
C672 C 0.4951 0.78016 0.3199 0.0
C673 C 0.56911 0.76894 0.09198 0.0
C674 C 0.55368 0.78814 0.07498 0.0
C675 C 0.57512 0.76868 0.13786 0.0
C676 C 0.56627 0.78796 0.16771 0.0
C677 C 0.55106 0.8073 0.15073 0.0
C678 C 0.54484 0.80741 0.10492 0.0
C679 C 0.57191 0.78723 0.21671 0.0
C680 C 0.54308 0.77732 0.24569 0.0
C681 C 0.60496 0.79509 0.23487 0.0
C682 C 0.63696 0.80741 0.20657 0.0
C683 C 0.64856 0.83721 0.17876 0.0
C684 C 0.67872 0.84863 0.15218 0.0
C685 C 0.69767 0.83064 0.15337 0.0
C686 C 0.68646 0.80112 0.18105 0.0
C687 C 0.6563 0.78957 0.20767 0.0
H688 H 0.72101 0.83952 0.13277 0.0
H689 H 0.4313 0.73074 0.39609 0.0
H690 H 0.74743 0.48244 0.8344 0.0
H691 H 0.74701 0.49122 0.75377 0.0
H692 H 0.75623 0.59313 0.77636 0.0
H693 H 0.75707 0.58479 0.85706 0.0
H694 H 0.70369 0.54897 0.71094 0.0
H695 H 0.82648 0.59336 0.74776 0.0
H696 H 0.87599 0.58909 0.78039 0.0
H697 H 0.85273 0.50105 0.69482 0.0
H698 H 0.80272 0.50448 0.66214 0.0
H699 H 0.74824 0.62238 0.4948 0.0
H700 H 0.74602 0.61089 0.57453 0.0
H701 H 0.76547 0.52469 0.54919 0.0
H702 H 0.77074 0.53792 0.46947 0.0
H703 H 0.80178 0.55849 0.61682 0.0
H704 H 0.68064 0.51294 0.57817 0.0
H705 H 0.62915 0.51369 0.54586 0.0
H706 H 0.64567 0.59823 0.63414 0.0
H707 H 0.69757 0.59832 0.66659 0.0
C708 C 0.74898 0.50658 0.82233 0.0
C709 C 0.75185 0.53275 0.85235 0.0
C710 C 0.74893 0.51161 0.77621 0.0
C711 C 0.75162 0.54282 0.75918 0.0
C712 C 0.754 0.56879 0.78889 0.0
C713 C 0.75456 0.564 0.835 0.0
C714 C 0.75283 0.54879 0.7103 0.0
C715 C 0.72528 0.55145 0.69029 0.0
C716 C 0.78047 0.55089 0.68339 0.0
C717 C 0.81063 0.54894 0.70285 0.0
C718 C 0.83173 0.57289 0.73619 0.0
C719 C 0.85992 0.57066 0.75464 0.0
C720 C 0.86744 0.54475 0.73978 0.0
C721 C 0.84684 0.52107 0.70635 0.0
C722 C 0.81859 0.52316 0.68783 0.0
C723 C 0.75264 0.6013 0.50599 0.0
C724 C 0.75974 0.58115 0.47525 0.0
C725 C 0.75071 0.59433 0.5518 0.0
C726 C 0.75482 0.5664 0.56807 0.0
C727 C 0.76196 0.54625 0.53758 0.0
C728 C 0.76455 0.55362 0.49178 0.0
C729 C 0.75256 0.5588 0.61691 0.0
C730 C 0.77997 0.55584 0.63711 0.0
C731 C 0.72445 0.55587 0.64389 0.0
C732 C 0.69319 0.55584 0.62452 0.0
C733 C 0.67345 0.53186 0.59047 0.0
C734 C 0.64417 0.53211 0.57217 0.0
C735 C 0.6342 0.55605 0.58786 0.0
C736 C 0.65345 0.57973 0.62198 0.0
C737 C 0.68278 0.57962 0.64037 0.0
H738 H 0.61152 0.5562 0.57364 0.0
H739 H 0.88929 0.54307 0.7541 0.0
H740 H 0.21569 0.83095 0.72082 0.0
H741 H 0.21682 0.84139 0.80119 0.0
H742 H 0.21892 0.74517 0.82687 0.0
H743 H 0.21829 0.73473 0.74656 0.0
H744 H 0.17155 0.75054 0.88067 0.0
H745 H 0.29291 0.82416 0.83811 0.0
H746 H 0.3419 0.86972 0.79308 0.0
H747 H 0.31513 0.94741 0.83592 0.0
H748 H 0.26563 0.90216 0.88073 0.0
H749 H 0.21983 0.78216 0.11029 0.0
H750 H 0.21817 0.77096 0.03007 0.0
H751 H 0.21714 0.8676 1.00321 0.0
H752 H 0.21848 0.87883 0.08337 0.0
H753 H 0.2641 0.86177 0.95001 0.0
H754 H 0.14258 0.78799 0.99248 0.0
H755 H 0.09362 0.74235 0.03746 0.0
H756 H 0.12077 0.66488 0.99486 0.0
H757 H 0.17025 0.71021 0.95009 0.0
C758 C 0.21685 0.81221 0.74348 0.0
C759 C 0.21693 0.78199 0.7271 0.0
C760 C 0.21735 0.81815 0.78947 0.0
C761 C 0.21814 0.79415 0.82007 0.0
C762 C 0.21814 0.76395 0.80389 0.0
C763 C 0.2177 0.758 0.75793 0.0
C764 C 0.2189 0.80049 0.86896 0.0
C765 C 0.19204 0.77465 0.89593 0.0
C766 C 0.24523 0.83227 0.88875 0.0
C767 C 0.27535 0.85969 0.86245 0.0
C768 C 0.29732 0.85091 0.8377 0.0
C769 C 0.3252 0.87668 0.81224 0.0
C770 C 0.33156 0.91141 0.81153 0.0
C771 C 0.31014 0.92048 0.83645 0.0
C772 C 0.28219 0.89479 0.86192 0.0
C773 C 0.21879 0.80081 0.08739 0.0
C774 C 0.21935 0.83144 0.1034 0.0
C775 C 0.21796 0.79443 0.04148 0.0
C776 C 0.21738 0.81838 0.01058 0.0
C777 C 0.21777 0.84886 0.02641 0.0
C778 C 0.21861 0.85526 0.07229 0.0
C779 C 0.2167 0.81185 0.96173 0.0
C780 C 0.24359 0.83765 0.93476 0.0
C781 C 0.19041 0.78003 0.94196 0.0
C782 C 0.16032 0.75258 0.96826 0.0
C783 C 0.13826 0.76128 0.99292 0.0
C784 C 0.1104 0.73546 0.01836 0.0
C785 C 0.10415 0.70076 0.01912 0.0
C786 C 0.12567 0.69178 0.99429 0.0
C787 C 0.15361 0.71752 0.96884 0.0
H788 H 0.08259 0.68082 0.03887 0.0
H789 H 0.35313 0.93132 0.79176 0.0
H790 H 0.41064 0.26404 0.46324 0.0
H791 H 0.3997 0.25461 0.38303 0.0
H792 H 0.48856 0.23781 0.36937 0.0
H793 H 0.49964 0.24717 0.44972 0.0
H794 H 0.48897 0.28085 0.3044 0.0
H795 H 0.40348 0.16864 0.36686 0.0
H796 H 0.35509 0.1301 0.41815 0.0
H797 H 0.28814 0.16477 0.35891 0.0
H798 H 0.33634 0.204 0.30774 0.0
H799 H 0.45022 0.20753 0.08541 0.0
H800 H 0.46076 0.21613 0.16577 0.0
H801 H 0.37419 0.23642 0.17917 0.0
H802 H 0.36395 0.22876 0.09864 0.0
H803 H 0.37234 0.19119 0.24426 0.0
H804 H 0.45655 0.30331 0.18287 0.0
H805 H 0.50494 0.34437 0.13336 0.0
H806 H 0.57404 0.31197 0.19157 0.0
H807 H 0.52577 0.27006 0.24078 0.0
C808 C 0.42761 0.25789 0.44333 0.0
C809 C 0.45597 0.25626 0.46306 0.0
C810 C 0.42137 0.25259 0.39737 0.0
C811 C 0.4431 0.24516 0.37009 0.0
C812 C 0.47147 0.24358 0.38964 0.0
C813 C 0.47781 0.24899 0.43561 0.0
C814 C 0.43641 0.23938 0.32115 0.0
C815 C 0.46364 0.26085 0.29126 0.0
C816 C 0.40305 0.21393 0.30391 0.0
C817 C 0.37364 0.1895 0.33369 0.0
C818 C 0.37849 0.16817 0.36489 0.0
C819 C 0.3511 0.14621 0.39396 0.0
C820 C 0.31859 0.14506 0.39187 0.0
C821 C 0.31335 0.16572 0.36052 0.0
C822 C 0.34069 0.18781 0.33145 0.0
C823 C 0.43367 0.2143 0.10522 0.0
C824 C 0.40625 0.21751 0.08522 0.0
C825 C 0.43963 0.21901 0.15131 0.0
C826 C 0.41837 0.22707 0.17857 0.0
C827 C 0.39083 0.23003 0.15889 0.0
C828 C 0.38495 0.22552 0.11276 0.0
C829 C 0.42498 0.23256 0.22753 0.0
C830 C 0.39772 0.21106 0.2574 0.0
C831 C 0.45828 0.25808 0.24478 0.0
C832 C 0.4874 0.28324 0.2152 0.0
C833 C 0.48196 0.30467 0.18483 0.0
C834 C 0.50939 0.32816 0.15687 0.0
C835 C 0.54256 0.33079 0.15931 0.0
C836 C 0.54833 0.30989 0.1897 0.0
C837 C 0.52093 0.28624 0.21762 0.0
H838 H 0.56378 0.34906 0.1377 0.0
H839 H 0.29746 0.12812 0.4145 0.0
H840 H 0.20942 0.47106 0.19696 0.0
H841 H 0.21864 0.52125 0.24276 0.0
H842 H 0.14292 0.53262 0.16238 0.0
H843 H 0.13616 0.48425 0.11434 0.0
H844 H 0.19853 0.59368 0.17258 0.0
H845 H 0.1275 0.49719 0.2762 0.0
H846 H 0.11564 0.44394 0.31892 0.0
H847 H 0.21492 0.50319 0.38659 0.0
H848 H 0.2275 0.5567 0.34402 0.0
H849 H 0.17625 0.71529 0.29785 0.0
H850 H 0.16756 0.6616 0.26134 0.0
H851 H 0.24223 0.6572 0.35157 0.0
H852 H 0.24901 0.70983 0.39047 0.0
H853 H 0.1918 0.59373 0.33807 0.0
H854 H 0.26421 0.68874 0.23878 0.0
H855 H 0.2814 0.7428 0.19477 0.0
H856 H 0.18598 0.68784 0.1182 0.0
H857 H 0.16807 0.63349 0.162 0.0
C858 C 0.19508 0.48451 0.18897 0.0
C859 C 0.17288 0.47446 0.15159 0.0
C860 C 0.19984 0.51283 0.21561 0.0
C861 C 0.18127 0.53068 0.20632 0.0
C862 C 0.15769 0.51942 0.17012 0.0
C863 C 0.15367 0.49166 0.14284 0.0
C864 C 0.18782 0.56237 0.23238 0.0
C865 C 0.19646 0.59346 0.20873 0.0
C866 C 0.1869 0.56269 0.27971 0.0
C867 C 0.1785 0.5309 0.30676 0.0
C868 C 0.14678 0.49885 0.30021 0.0
C869 C 0.13996 0.46862 0.32436 0.0
C870 C 0.16455 0.47017 0.35538 0.0
C871 C 0.1959 0.50202 0.36256 0.0
C872 C 0.20285 0.53233 0.33852 0.0
C873 C 0.19085 0.70289 0.30986 0.0
C874 C 0.21359 0.71682 0.34658 0.0
C875 C 0.18601 0.6723 0.28883 0.0
C876 C 0.205 0.65586 0.30278 0.0
C877 C 0.22743 0.6695 0.33999 0.0
C878 C 0.23144 0.6996 0.36203 0.0
C879 C 0.20141 0.62466 0.27808 0.0
C880 C 0.19369 0.59385 0.30192 0.0
C881 C 0.20375 0.62466 0.23086 0.0
C882 C 0.21475 0.65709 0.2038 0.0
C883 C 0.24686 0.68821 0.21262 0.0
C884 C 0.25672 0.71889 0.18772 0.0
C885 C 0.23479 0.71874 0.15373 0.0
C886 C 0.20296 0.68789 0.1445 0.0
C887 C 0.19298 0.65711 0.16928 0.0
H888 H 0.24252 0.74252 0.13448 0.0
H889 H 0.15932 0.44671 0.37389 0.0
H890 H 0.74334 0.25708 0.56942 0.0
H891 H 0.69661 0.25918 0.61249 0.0
H892 H 0.622 0.15303 0.56918 0.0
H893 H 0.66834 0.15214 0.52371 0.0
H894 H 0.5894 0.1873 0.57321 0.0
H895 H 0.66534 0.17281 0.67439 0.0
H896 H 0.72201 0.18663 0.70891 0.0
H897 H 0.7379 0.28751 0.75181 0.0
H898 H 0.68159 0.27455 0.71689 0.0
H899 H 0.46852 0.15442 0.75381 0.0
H900 H 0.51373 0.15137 0.70824 0.0
H901 H 0.57993 0.26481 0.71672 0.0
H902 H 0.53477 0.26807 0.7618 0.0
H903 H 0.6151 0.22416 0.73195 0.0
H904 H 0.53396 0.23296 0.6278 0.0
H905 H 0.47438 0.212 0.59717 0.0
H906 H 0.46502 0.11183 0.56499 0.0
H907 H 0.52423 0.13177 0.59632 0.0
C908 C 0.71678 0.2345 0.56885 0.0
C909 C 0.70911 0.20439 0.54382 0.0
C910 C 0.6902 0.23553 0.59363 0.0
C911 C 0.65596 0.20585 0.59516 0.0
C912 C 0.64818 0.17618 0.56874 0.0
C913 C 0.67456 0.1756 0.54292 0.0
C914 C 0.62864 0.20529 0.62534 0.0
C915 C 0.59499 0.19498 0.60803 0.0
C916 C 0.63574 0.21518 0.67093 0.0
C917 C 0.66938 0.22284 0.69264 0.0
C918 C 0.68101 0.19803 0.69097 0.0
C919 C 0.71307 0.2057 0.71062 0.0
C920 C 0.73359 0.23797 0.73244 0.0
C921 C 0.722 0.26255 0.73483 0.0
C922 C 0.69 0.25505 0.71514 0.0
C923 C 0.49289 0.17861 0.74629 0.0
C924 C 0.49828 0.21148 0.76115 0.0
C925 C 0.51854 0.17685 0.72021 0.0
C926 C 0.54995 0.20791 0.70906 0.0
C927 C 0.55582 0.24061 0.72508 0.0
C928 C 0.53004 0.24242 0.75067 0.0
C929 C 0.57639 0.2066 0.67954 0.0
C930 C 0.60975 0.21648 0.6971 0.0
C931 C 0.56867 0.1953 0.63465 0.0
C932 C 0.53345 0.18376 0.61477 0.0
C933 C 0.51914 0.20638 0.61446 0.0
C934 C 0.48546 0.19472 0.59692 0.0
C935 C 0.46597 0.16068 0.57914 0.0
C936 C 0.48015 0.13821 0.57877 0.0
C937 C 0.51377 0.14966 0.59641 0.0
H938 H 0.43989 0.15174 0.56564 0.0
H939 H 0.75845 0.24395 0.74752 0.0
H940 H 0.26156 0.50556 0.97972 0.0
H941 H 0.30997 0.54278 0.92924 0.0
H942 H 0.38309 0.5311 0.01445 0.0
H943 H 0.33475 0.49474 0.06609 0.0
H944 H 0.41343 0.59483 0.98467 0.0
H945 H 0.34995 0.48224 0.91797 0.0
H946 H 0.29841 0.42772 0.89009 0.0
H947 H 0.27947 0.48807 0.79197 0.0
H948 H 0.33017 0.54306 0.82009 0.0
H949 H 0.51975 0.64634 0.76618 0.0
H950 H 0.47808 0.60002 0.81725 0.0
H951 H 0.43408 0.66583 0.85324 0.0
H952 H 0.4742 0.7113 0.80077 0.0
H953 H 0.39678 0.56726 0.82257 0.0
H954 H 0.44371 0.66272 0.97708 0.0
H955 H 0.49917 0.71025 0.00897 0.0
H956 H 0.55866 0.67459 0.93241 0.0
H957 H 0.50356 0.62596 0.90157 0.0
C958 C 0.28803 0.51128 0.988 0.0
C959 C 0.2944 0.49713 0.02669 0.0
C960 C 0.31563 0.53229 0.95893 0.0
C961 C 0.34998 0.53887 0.96739 0.0
C962 C 0.35672 0.52611 0.00707 0.0
C963 C 0.32913 0.50549 0.03663 0.0
C964 C 0.37861 0.55895 0.93454 0.0
C965 C 0.4098 0.58867 0.94929 0.0
C966 C 0.37452 0.55004 0.8885 0.0
C967 C 0.34382 0.51691 0.87142 0.0
C968 C 0.33459 0.48397 0.89075 0.0
C969 C 0.30548 0.45294 0.87491 0.0
C970 C 0.28558 0.45442 0.83938 0.0
C971 C 0.29476 0.48693 0.81962 0.0
C972 C 0.3237 0.51806 0.83551 0.0
C973 C 0.50079 0.65062 0.78451 0.0
C974 C 0.50047 0.68255 0.78015 0.0
C975 C 0.47715 0.62425 0.8136 0.0
C976 C 0.45359 0.62995 0.83933 0.0
C977 C 0.45247 0.66129 0.83393 0.0
C978 C 0.4754 0.68719 0.80408 0.0
C979 C 0.43039 0.60377 0.87275 0.0
C980 C 0.40032 0.57302 0.85806 0.0
C981 C 0.43606 0.61094 0.91895 0.0
C982 C 0.46942 0.64102 0.9363 0.0
C983 C 0.46862 0.66507 0.96693 0.0
C984 C 0.50004 0.6922 0.98492 0.0
C985 C 0.53249 0.69575 0.97232 0.0
C986 C 0.53357 0.67208 0.94181 0.0
C987 C 0.50222 0.6447 0.92406 0.0
H988 H 0.55678 0.7166 0.98648 0.0
H989 H 0.26317 0.43036 0.82704 0.0
H990 H 0.81908 0.31804 0.50031 0.0
H991 H 0.8098 0.36007 0.45694 0.0
H992 H 0.81339 0.30922 0.33485 0.0
H993 H 0.82357 0.26742 0.37825 0.0
H994 H 0.84821 0.3823 0.32791 0.0
H995 H 0.73604 0.28844 0.37872 0.0
H996 H 0.69493 0.24851 0.43622 0.0
H997 H 0.70086 0.33747 0.5057 0.0
H998 H 0.74268 0.37806 0.44912 0.0
H999 H 0.76305 0.44561 0.18785 0.0
H1000 H 0.77253 0.40423 0.23219 0.0
H1001 H 0.77795 0.46159 0.35208 0.0
H1002 H 0.76866 0.50353 0.30791 0.0
H1003 H 0.73803 0.38511 0.36029 0.0
H1004 H 0.85097 0.47879 0.31039 0.0
H1005 H 0.89362 0.51889 0.25428 0.0
H1006 H 0.88627 0.42979 0.1835 0.0
H1007 H 0.843 0.38908 0.23876 0.0
C1008 C 0.81834 0.31609 0.4642 0.0
C1009 C 0.82147 0.28923 0.44254 0.0
C1010 C 0.81292 0.34001 0.43952 0.0
C1011 C 0.81023 0.33724 0.39285 0.0
C1012 C 0.81515 0.31156 0.37092 0.0
C1013 C 0.82074 0.28765 0.39567 0.0
C1014 C 0.80055 0.36012 0.36735 0.0
C1015 C 0.82392 0.3826 0.33453 0.0
C1016 C 0.76911 0.36083 0.37677 0.0
C1017 C 0.74275 0.33635 0.40983 0.0
C1018 C 0.72871 0.29953 0.40635 0.0
C1019 C 0.7053 0.27677 0.43881 0.0
C1020 C 0.69535 0.29045 0.47465 0.0
C1021 C 0.70864 0.32692 0.47795 0.0
C1022 C 0.73219 0.34982 0.44568 0.0
C1023 C 0.76584 0.44931 0.22369 0.0
C1024 C 0.76539 0.47807 0.24432 0.0
C1025 C 0.77128 0.42562 0.24893 0.0
C1026 C 0.77623 0.43015 0.2952 0.0
C1027 C 0.77419 0.45779 0.31631 0.0
C1028 C 0.76904 0.48176 0.29101 0.0
C1029 C 0.7857 0.40723 0.32089 0.0
C1030 C 0.76227 0.38474 0.35368 0.0
C1031 C 0.81706 0.40643 0.31143 0.0
C1032 C 0.84345 0.43086 0.27847 0.0
C1033 C 0.85821 0.46772 0.28265 0.0
C1034 C 0.88253 0.49057 0.25103 0.0
C1035 C 0.89259 0.47689 0.21529 0.0
C1036 C 0.87841 0.44034 0.21117 0.0
C1037 C 0.85399 0.41737 0.24264 0.0
H1038 H 0.91143 0.49461 0.19084 0.0
H1039 H 0.67731 0.2728 0.49982 0.0
H1040 H 0.34226 0.8298 0.39678 0.0
H1041 H 0.38512 0.8266 0.44626 0.0
H1042 H 0.33365 0.84153 0.56076 0.0
H1043 H 0.29132 0.84561 0.51137 0.0
H1044 H 0.40479 0.8779 0.56965 0.0
H1045 H 0.31545 0.75988 0.53165 0.0
H1046 H 0.27764 0.7121 0.4795 0.0
H1047 H 0.36947 0.71678 0.42012 0.0
H1048 H 0.40796 0.7651 0.47143 0.0
H1049 H 0.46758 0.80457 0.735 0.0
H1050 H 0.4294 0.81514 0.68516 0.0
H1051 H 0.48622 0.80853 0.57088 0.0
H1052 H 0.52436 0.79798 0.6202 0.0
H1053 H 0.41274 0.76836 0.562 0.0
H1054 H 0.50188 0.88621 0.60264 0.0
H1055 H 0.53859 0.9343 0.65497 0.0
H1056 H 0.44545 0.92902 0.71103 0.0
H1057 H 0.4081 0.88043 0.65948 0.0
C1058 C 0.34038 0.83277 0.43245 0.0
C1059 C 0.31331 0.83748 0.45039 0.0
C1060 C 0.36475 0.83084 0.46066 0.0
C1061 C 0.36215 0.83323 0.50718 0.0
C1062 C 0.33602 0.83948 0.52497 0.0
C1063 C 0.31177 0.84159 0.49677 0.0
C1064 C 0.38552 0.8274 0.53738 0.0
C1065 C 0.40627 0.8538 0.56837 0.0
C1066 C 0.38767 0.7961 0.53519 0.0
C1067 C 0.36461 0.76633 0.50515 0.0
C1068 C 0.32762 0.75085 0.50734 0.0
C1069 C 0.30606 0.72368 0.47792 0.0
C1070 C 0.32116 0.71148 0.44646 0.0
C1071 C 0.35785 0.72631 0.44449 0.0
C1072 C 0.37955 0.75358 0.47375 0.0
C1073 C 0.47196 0.80541 0.69928 0.0
C1074 C 0.49905 0.80053 0.68156 0.0
C1075 C 0.45022 0.81154 0.6709 0.0
C1076 C 0.45515 0.81272 0.62443 0.0
C1077 C 0.48201 0.80767 0.60667 0.0
C1078 C 0.50388 0.80181 0.63496 0.0
C1079 C 0.43209 0.81891 0.59418 0.0
C1080 C 0.41131 0.79248 0.56324 0.0
C1081 C 0.42974 0.85005 0.59666 0.0
C1082 C 0.45216 0.87942 0.62751 0.0
C1083 C 0.48919 0.89508 0.62638 0.0
C1084 C 0.51012 0.92247 0.65586 0.0
C1085 C 0.49436 0.93465 0.68639 0.0
C1086 C 0.45762 0.91952 0.68741 0.0
C1087 C 0.43655 0.89206 0.65805 0.0
H1088 H 0.51061 0.95588 0.70918 0.0
H1089 H 0.30443 0.69049 0.42364 0.0
H1090 H 0.65405 0.5537 0.12149 0.0
H1091 H 0.61344 0.52202 0.05951 0.0
H1092 H 0.64119 0.44019 0.06762 0.0
H1093 H 0.68025 0.47057 0.13048 0.0
H1094 H 0.64809 0.47674 0.97712 0.0
H1095 H 0.57014 0.41482 0.1049 0.0
H1096 H 0.53835 0.41306 0.17395 0.0
H1097 H 0.48608 0.46009 0.10452 0.0
H1098 H 0.51803 0.46256 0.03517 0.0
H1099 H 0.48513 0.29964 0.91589 0.0
H1100 H 0.52126 0.34748 0.967 0.0
H1101 H 0.55701 0.42205 0.85755 0.0
H1102 H 0.52196 0.37342 0.80546 0.0
H1103 H 0.5178 0.40261 0.99104 0.0
H1104 H 0.63415 0.49113 0.88284 0.0
H1105 H 0.66776 0.49038 0.81678 0.0
H1106 H 0.64325 0.38455 0.84922 0.0
H1107 H 0.60998 0.38503 0.91587 0.0
C1108 C 0.65087 0.5286 0.11052 0.0
C1109 C 0.67052 0.51469 0.13024 0.0
C1110 C 0.62797 0.51077 0.07506 0.0
C1111 C 0.62504 0.47927 0.05874 0.0
C1112 C 0.64365 0.4648 0.07948 0.0
C1113 C 0.6658 0.4821 0.11539 0.0
C1114 C 0.60283 0.46092 0.01984 0.0
C1115 C 0.61952 0.46091 0.97975 0.0
C1116 C 0.56574 0.44059 0.02346 0.0
C1117 C 0.5469 0.43946 0.06516 0.0
C1118 C 0.55225 0.42524 0.10454 0.0
C1119 C 0.53412 0.424 0.14368 0.0
C1120 C 0.51034 0.43662 0.14369 0.0
C1121 C 0.5046 0.45043 0.10451 0.0
C1122 C 0.52271 0.45177 0.0653 0.0
C1123 C 0.50079 0.32619 0.90259 0.0
C1124 C 0.50082 0.33289 0.85675 0.0
C1125 C 0.52135 0.35358 0.93188 0.0
C1126 C 0.54182 0.38842 0.91622 0.0
C1127 C 0.54178 0.39532 0.87035 0.0
C1128 C 0.52173 0.36761 0.84068 0.0
C1129 C 0.56309 0.41683 0.94872 0.0
C1130 C 0.54624 0.41914 0.98763 0.0
C1131 C 0.6001 0.43896 0.94414 0.0
C1132 C 0.61964 0.43814 0.90412 0.0
C1133 C 0.6362 0.46785 0.87598 0.0
C1134 C 0.65506 0.46742 0.83839 0.0
C1135 C 0.65754 0.43738 0.82872 0.0
C1136 C 0.64122 0.40775 0.85668 0.0
C1137 C 0.62236 0.40808 0.89434 0.0
H1138 H 0.6722 0.43711 0.79966 0.0
H1139 H 0.49627 0.43557 0.17399 0.0
loop_
_geom_bond_atom_site_label_1
_geom_bond_atom_site_label_2
_geom_bond_distance
_geom_bond_site_symmetry_2
_ccdc_geom_bond_type
Pr0 C2 2.880 . S
Pr0 O20 2.562 . S
Pr0 O21 2.490 . S
Pr0 O22 2.695 1_554 S
Pr0 O23 2.512 . S
Pr0 O25 2.437 . S
Pr0 O28 2.436 . S
Pr0 O30 2.438 . S
Pr1 C11 2.880 . S
Pr1 O22 2.436 . S
Pr1 O24 2.438 1_556 S
Pr1 O26 2.562 . S
Pr1 O27 2.490 . S
Pr1 O28 2.695 1_556 S
Pr1 O29 2.512 . S
Pr1 O31 2.437 . S
C2 Pr0 2.880 . S
C2 C3 1.491 . S
C2 O20 1.254 . S
C2 O21 1.225 . S
C3 C2 1.491 . S
C3 C4 1.392 . S
C3 C8 1.356 . S
C4 C3 1.392 . S
C4 C5 1.368 . S
C4 H32 0.929 . S
C5 C4 1.368 . S
C5 C6 1.386 . S
C5 H33 0.929 . S
C6 C5 1.386 . S
C6 C7 1.373 . S
C7 C6 1.373 . S
C7 C8 1.409 . S
C7 H34 0.931 . S
C8 C3 1.356 . S
C8 C7 1.409 . S
C8 H35 0.930 . S
C9 O22 1.270 1_554 S
C9 O23 1.248 . S
C10 O24 1.267 . S
C10 O25 1.278 . S
C11 Pr1 2.880 . S
C11 C12 1.491 . S
C11 O26 1.254 . S
C11 O27 1.225 . S
C12 C11 1.491 . S
C12 C13 1.392 . S
C12 C17 1.356 . S
C13 C12 1.392 . S
C13 C14 1.368 . S
C13 H36 0.929 . S
C14 C13 1.368 . S
C14 C15 1.386 . S
C14 H37 0.929 . S
C15 C14 1.386 . S
C15 C16 1.373 . S
C16 C15 1.373 . S
C16 C17 1.409 . S
C16 H38 0.931 . S
C17 C12 1.356 . S
C17 C16 1.409 . S
C17 H39 0.930 . S
C18 O28 1.270 . S
C18 O29 1.248 1_554 S
C19 O30 1.267 1_556 S
C19 O31 1.278 . S
O20 Pr0 2.562 . S
O20 C2 1.254 . S
O21 Pr0 2.490 . S
O21 C2 1.225 . S
O22 Pr0 2.695 1_556 S
O22 Pr1 2.436 . S
O22 C9 1.270 1_556 S
O23 Pr0 2.512 . S
O23 C9 1.248 . S
O24 Pr1 2.438 1_554 S
O24 C10 1.267 . S
O25 Pr0 2.437 . S
O25 C10 1.278 . S
O26 Pr1 2.562 . S
O26 C11 1.254 . S
O27 Pr1 2.490 . S
O27 C11 1.225 . S
O28 Pr0 2.436 . S
O28 Pr1 2.695 1_554 S
O28 C18 1.270 . S
O29 Pr1 2.512 . S
O29 C18 1.248 1_556 S
O30 Pr0 2.438 . S
O30 C19 1.267 1_554 S
O31 Pr1 2.437 . S
O31 C19 1.278 . S
H32 C4 0.929 . S
H33 C5 0.929 . S
H34 C7 0.931 . S
H35 C8 0.930 . S
H36 C13 0.929 . S
H37 C14 0.929 . S
H38 C16 0.931 . S
H39 C17 0.930 . S
Pr40 C42 2.880 . S
Pr40 O60 2.562 . S
Pr40 O61 2.490 . S
Pr40 O62 2.695 . S
Pr40 O63 2.512 . S
Pr40 O65 2.437 . S
Pr40 O68 2.436 . S
Pr40 O70 2.438 . S
Pr41 C51 2.880 . S
Pr41 O62 2.436 . S
Pr41 O64 2.438 . S
Pr41 O66 2.562 . S
Pr41 O67 2.490 . S
Pr41 O68 2.695 . S
Pr41 O69 2.512 . S
Pr41 O71 2.437 . S
C42 Pr40 2.880 . S
C42 C43 1.491 . S
C42 O60 1.254 . S
C42 O61 1.225 . S
C43 C42 1.491 . S
C43 C44 1.392 . S
C43 C48 1.356 . S
C44 C43 1.392 . S
C44 C45 1.368 . S
C44 H72 0.929 . S
C45 C44 1.368 . S
C45 C46 1.386 . S
C45 H73 0.929 . S
C46 C45 1.386 . S
C46 C47 1.373 . S
C47 C46 1.373 . S
C47 C48 1.409 . S
C47 H74 0.931 . S
C48 C43 1.356 . S
C48 C47 1.409 . S
C48 H75 0.930 . S
C49 O62 1.270 . S
C49 O63 1.248 . S
C50 O64 1.267 . S
C50 O65 1.278 . S
C51 Pr41 2.880 . S
C51 C52 1.491 . S
C51 O66 1.254 . S
C51 O67 1.225 . S
C52 C51 1.491 . S
C52 C53 1.392 . S
C52 C57 1.356 . S
C53 C52 1.392 . S
C53 C54 1.368 . S
C53 H76 0.929 . S
C54 C53 1.368 . S
C54 C55 1.386 . S
C54 H77 0.929 . S
C55 C54 1.386 . S
C55 C56 1.373 . S
C56 C55 1.373 . S
C56 C57 1.409 . S
C56 H78 0.931 . S
C57 C52 1.356 . S
C57 C56 1.409 . S
C57 H79 0.930 . S
C58 O68 1.270 . S
C58 O69 1.248 . S
C59 O70 1.267 . S
C59 O71 1.278 . S
O60 Pr40 2.562 . S
O60 C42 1.254 . S
O61 Pr40 2.490 . S
O61 C42 1.225 . S
O62 Pr40 2.695 . S
O62 Pr41 2.436 . S
O62 C49 1.270 . S
O63 Pr40 2.512 . S
O63 C49 1.248 . S
O64 Pr41 2.438 . S
O64 C50 1.267 . S
O65 Pr40 2.437 . S
O65 C50 1.278 . S
O66 Pr41 2.562 . S
O66 C51 1.254 . S
O67 Pr41 2.490 . S
O67 C51 1.225 . S
O68 Pr40 2.436 . S
O68 Pr41 2.695 . S
O68 C58 1.270 . S
O69 Pr41 2.512 . S
O69 C58 1.248 . S
O70 Pr40 2.438 . S
O70 C59 1.267 . S
O71 Pr41 2.437 . S
O71 C59 1.278 . S
H72 C44 0.929 . S
H73 C45 0.929 . S
H74 C47 0.931 . S
H75 C48 0.930 . S
H76 C53 0.929 . S
H77 C54 0.929 . S
H78 C56 0.931 . S
H79 C57 0.930 . S
Pr80 C82 2.880 . S
Pr80 O100 2.562 . S
Pr80 O101 2.490 . S
Pr80 O102 2.695 . S
Pr80 O103 2.512 . S
Pr80 O105 2.437 . S
Pr80 O108 2.436 . S
Pr80 O110 2.438 . S
Pr81 C91 2.880 . S
Pr81 O102 2.436 . S
Pr81 O104 2.438 . S
Pr81 O106 2.562 . S
Pr81 O107 2.490 . S
Pr81 O108 2.695 . S
Pr81 O109 2.512 . S
Pr81 O111 2.437 . S
C82 Pr80 2.880 . S
C82 C83 1.491 . S
C82 O100 1.254 . S
C82 O101 1.225 . S
C83 C82 1.491 . S
C83 C84 1.392 . S
C83 C88 1.356 . S
C84 C83 1.392 . S
C84 C85 1.368 . S
C84 H112 0.929 . S
C85 C84 1.368 . S
C85 C86 1.386 . S
C85 H113 0.929 . S
C86 C85 1.386 . S
C86 C87 1.373 . S
C87 C86 1.373 . S
C87 C88 1.409 . S
C87 H114 0.931 . S
C88 C83 1.356 . S
C88 C87 1.409 . S
C88 H115 0.930 . S
C89 O102 1.270 . S
C89 O103 1.248 . S
C90 O104 1.267 . S
C90 O105 1.278 . S
C91 Pr81 2.880 . S
C91 C92 1.491 . S
C91 O106 1.254 . S
C91 O107 1.225 . S
C92 C91 1.491 . S
C92 C93 1.392 . S
C92 C97 1.356 . S
C93 C92 1.392 . S
C93 C94 1.368 . S
C93 H116 0.929 . S
C94 C93 1.368 . S
C94 C95 1.386 . S
C94 H117 0.929 . S
C95 C94 1.386 . S
C95 C96 1.373 . S
C96 C95 1.373 . S
C96 C97 1.409 . S
C96 H118 0.931 . S
C97 C92 1.356 . S
C97 C96 1.409 . S
C97 H119 0.930 . S
C98 O108 1.270 . S
C98 O109 1.248 . S
C99 O110 1.267 . S
C99 O111 1.278 . S
O100 Pr80 2.562 . S
O100 C82 1.254 . S
O101 Pr80 2.490 . S
O101 C82 1.225 . S
O102 Pr80 2.695 . S
O102 Pr81 2.436 . S
O102 C89 1.270 . S
O103 Pr80 2.512 . S
O103 C89 1.248 . S
O104 Pr81 2.438 . S
O104 C90 1.267 . S
O105 Pr80 2.437 . S
O105 C90 1.278 . S
O106 Pr81 2.562 . S
O106 C91 1.254 . S
O107 Pr81 2.490 . S
O107 C91 1.225 . S
O108 Pr80 2.436 . S
O108 Pr81 2.695 . S
O108 C98 1.270 . S
O109 Pr81 2.512 . S
O109 C98 1.248 . S
O110 Pr80 2.438 . S
O110 C99 1.267 . S
O111 Pr81 2.437 . S
O111 C99 1.278 . S
H112 C84 0.929 . S
H113 C85 0.929 . S
H114 C87 0.931 . S
H115 C88 0.930 . S
H116 C93 0.929 . S
H117 C94 0.929 . S
H118 C96 0.931 . S
H119 C97 0.930 . S
Pr120 C122 2.880 . S
Pr120 O140 2.562 . S
Pr120 O141 2.490 . S
Pr120 O142 2.695 . S
Pr120 O143 2.512 . S
Pr120 O145 2.437 . S
Pr120 O148 2.436 . S
Pr120 O150 2.438 . S
Pr121 C131 2.880 . S
Pr121 O142 2.436 . S
Pr121 O144 2.438 . S
Pr121 O146 2.562 . S
Pr121 O147 2.490 . S
Pr121 O148 2.695 . S
Pr121 O149 2.512 . S
Pr121 O151 2.437 . S
C122 Pr120 2.880 . S
C122 C123 1.491 . S
C122 O140 1.254 . S
C122 O141 1.225 . S
C123 C122 1.491 . S
C123 C124 1.392 1_554 S
C123 C128 1.356 1_554 S
C124 C123 1.392 1_556 S
C124 C125 1.368 . S
C124 H152 0.929 1_556 S
C125 C124 1.368 . S
C125 C126 1.386 . S
C125 H153 0.929 . S
C126 C125 1.386 . S
C126 C127 1.373 . S
C127 C126 1.373 . S
C127 C128 1.409 . S
C127 H154 0.931 . S
C128 C123 1.356 1_556 S
C128 C127 1.409 . S
C128 H155 0.930 . S
C129 O142 1.270 . S
C129 O143 1.248 . S
C130 O144 1.267 . S
C130 O145 1.278 . S
C131 Pr121 2.880 . S
C131 C132 1.491 . S
C131 O146 1.254 . S
C131 O147 1.225 . S
C132 C131 1.491 . S
C132 C133 1.392 . S
C132 C137 1.356 . S
C133 C132 1.392 . S
C133 C134 1.368 . S
C133 H156 0.929 . S
C134 C133 1.368 . S
C134 C135 1.386 . S
C134 H157 0.929 . S
C135 C134 1.386 . S
C135 C136 1.373 . S
C136 C135 1.373 . S
C136 C137 1.409 . S
C136 H158 0.931 . S
C137 C132 1.356 . S
C137 C136 1.409 . S
C137 H159 0.930 . S
C138 O148 1.270 . S
C138 O149 1.248 . S
C139 O150 1.267 . S
C139 O151 1.278 . S
O140 Pr120 2.562 . S
O140 C122 1.254 . S
O141 Pr120 2.490 . S
O141 C122 1.225 . S
O142 Pr120 2.695 . S
O142 Pr121 2.436 . S
O142 C129 1.270 . S
O143 Pr120 2.512 . S
O143 C129 1.248 . S
O144 Pr121 2.438 . S
O144 C130 1.267 . S
O145 Pr120 2.437 . S
O145 C130 1.278 . S
O146 Pr121 2.562 . S
O146 C131 1.254 . S
O147 Pr121 2.490 . S
O147 C131 1.225 . S
O148 Pr120 2.436 . S
O148 Pr121 2.695 . S
O148 C138 1.270 . S
O149 Pr121 2.512 . S
O149 C138 1.248 . S
O150 Pr120 2.438 . S
O150 C139 1.267 . S
O151 Pr121 2.437 . S
O151 C139 1.278 . S
H152 C124 0.929 1_554 S
H153 C125 0.929 . S
H154 C127 0.931 . S
H155 C128 0.930 . S
H156 C133 0.929 . S
H157 C134 0.929 . S
H158 C136 0.931 . S
H159 C137 0.930 . S
Pr160 C162 2.880 . S
Pr160 O180 2.562 . S
Pr160 O181 2.490 . S
Pr160 O182 2.695 . S
Pr160 O183 2.512 . S
Pr160 O185 2.437 . S
Pr160 O188 2.436 . S
Pr160 O190 2.438 . S
Pr161 C171 2.880 . S
Pr161 O182 2.436 . S
Pr161 O184 2.438 . S
Pr161 O186 2.562 . S
Pr161 O187 2.490 . S
Pr161 O188 2.695 . S
Pr161 O189 2.512 . S
Pr161 O191 2.437 . S
C162 Pr160 2.880 . S
C162 C163 1.491 . S
C162 O180 1.254 . S
C162 O181 1.225 . S
C163 C162 1.491 . S
C163 C164 1.392 . S
C163 C168 1.356 . S
C164 C163 1.392 . S
C164 C165 1.368 . S
C164 H192 0.929 . S
C165 C164 1.368 . S
C165 C166 1.386 . S
C165 H193 0.929 . S
C166 C165 1.386 . S
C166 C167 1.373 . S
C167 C166 1.373 . S
C167 C168 1.409 . S
C167 H194 0.931 . S
C168 C163 1.356 . S
C168 C167 1.409 . S
C168 H195 0.930 . S
C169 O182 1.270 . S
C169 O183 1.248 . S
C170 O184 1.267 . S
C170 O185 1.278 . S
C171 Pr161 2.880 . S
C171 C172 1.491 . S
C171 O186 1.254 . S
C171 O187 1.225 . S
C172 C171 1.491 . S
C172 C173 1.392 . S
C172 C177 1.356 . S
C173 C172 1.392 . S
C173 C174 1.368 . S
C173 H196 0.929 . S
C174 C173 1.368 . S
C174 C175 1.386 . S
C174 H197 0.929 . S
C175 C174 1.386 . S
C175 C176 1.373 . S
C176 C175 1.373 . S
C176 C177 1.409 . S
C176 H198 0.931 . S
C177 C172 1.356 . S
C177 C176 1.409 . S
C177 H199 0.930 . S
C178 O188 1.270 . S
C178 O189 1.248 . S
C179 O190 1.267 . S
C179 O191 1.278 . S
O180 Pr160 2.562 . S
O180 C162 1.254 . S
O181 Pr160 2.490 . S
O181 C162 1.225 . S
O182 Pr160 2.695 . S
O182 Pr161 2.436 . S
O182 C169 1.270 . S
O183 Pr160 2.512 . S
O183 C169 1.248 . S
O184 Pr161 2.438 . S
O184 C170 1.267 . S
O185 Pr160 2.437 . S
O185 C170 1.278 . S
O186 Pr161 2.562 . S
O186 C171 1.254 . S
O187 Pr161 2.490 . S
O187 C171 1.225 . S
O188 Pr160 2.436 . S
O188 Pr161 2.695 . S
O188 C178 1.270 . S
O189 Pr161 2.512 . S
O189 C178 1.248 . S
O190 Pr160 2.438 . S
O190 C179 1.267 . S
O191 Pr161 2.437 . S
O191 C179 1.278 . S
H192 C164 0.929 . S
H193 C165 0.929 . S
H194 C167 0.931 . S
H195 C168 0.930 . S
H196 C173 0.929 . S
H197 C174 0.929 . S
H198 C176 0.931 . S
H199 C177 0.930 . S
Pr200 C202 2.880 . S
Pr200 O220 2.562 . S
Pr200 O221 2.490 . S
Pr200 O222 2.695 . S
Pr200 O223 2.512 . S
Pr200 O225 2.437 . S
Pr200 O228 2.436 . S
Pr200 O230 2.438 . S
Pr201 C211 2.880 1_556 S
Pr201 O222 2.436 . S
Pr201 O224 2.438 . S
Pr201 O226 2.562 . S
Pr201 O227 2.490 . S
Pr201 O228 2.695 . S
Pr201 O229 2.512 . S
Pr201 O231 2.437 . S
C202 Pr200 2.880 . S
C202 C203 1.491 . S
C202 O220 1.254 . S
C202 O221 1.225 . S
C203 C202 1.491 . S
C203 C204 1.392 . S
C203 C208 1.356 . S
C204 C203 1.392 . S
C204 C205 1.368 . S
C204 H232 0.929 . S
C205 C204 1.368 . S
C205 C206 1.386 . S
C205 H233 0.929 . S
C206 C205 1.386 . S
C206 C207 1.373 . S
C207 C206 1.373 . S
C207 C208 1.409 . S
C207 H234 0.931 . S
C208 C203 1.356 . S
C208 C207 1.409 . S
C208 H235 0.930 . S
C209 O222 1.270 . S
C209 O223 1.248 . S
C210 O224 1.267 . S
C210 O225 1.278 . S
C211 Pr201 2.880 1_554 S
C211 C212 1.491 . S
C211 O226 1.254 1_554 S
C211 O227 1.225 1_554 S
C212 C211 1.491 . S
C212 C213 1.392 . S
C212 C217 1.356 . S
C213 C212 1.392 . S
C213 C214 1.368 . S
C213 H236 0.929 . S
C214 C213 1.368 . S
C214 C215 1.386 . S
C214 H237 0.929 . S
C215 C214 1.386 . S
C215 C216 1.373 . S
C216 C215 1.373 . S
C216 C217 1.409 . S
C216 H238 0.931 . S
C217 C212 1.356 . S
C217 C216 1.409 . S
C217 H239 0.930 . S
C218 O228 1.270 . S
C218 O229 1.248 . S
C219 O230 1.267 . S
C219 O231 1.278 . S
O220 Pr200 2.562 . S
O220 C202 1.254 . S
O221 Pr200 2.490 . S
O221 C202 1.225 . S
O222 Pr200 2.695 . S
O222 Pr201 2.436 . S
O222 C209 1.270 . S
O223 Pr200 2.512 . S
O223 C209 1.248 . S
O224 Pr201 2.438 . S
O224 C210 1.267 . S
O225 Pr200 2.437 . S
O225 C210 1.278 . S
O226 Pr201 2.562 . S
O226 C211 1.254 1_556 S
O227 Pr201 2.490 . S
O227 C211 1.225 1_556 S
O228 Pr200 2.436 . S
O228 Pr201 2.695 . S
O228 C218 1.270 . S
O229 Pr201 2.512 . S
O229 C218 1.248 . S
O230 Pr200 2.438 . S
O230 C219 1.267 . S
O231 Pr201 2.437 . S
O231 C219 1.278 . S
H232 C204 0.929 . S
H233 C205 0.929 . S
H234 C207 0.931 . S
H235 C208 0.930 . S
H236 C213 0.929 . S
H237 C214 0.929 . S
H238 C216 0.931 . S
H239 C217 0.930 . S
H240 C258 0.951 . S
H241 C260 0.951 . S
H242 C262 0.950 . S
H243 C263 0.950 . S
H244 C265 0.950 . S
H245 C268 0.950 . S
H246 C269 0.950 . S
H247 C271 0.950 . S
H248 C272 0.950 . S
H249 C273 0.951 . S
H250 C275 0.951 . S
H251 C277 0.950 . S
H252 C278 0.950 . S
H253 C280 0.950 . S
H254 C283 0.950 . S
H255 C284 0.950 . S
H256 C286 0.950 . S
H257 C287 0.950 . S
C258 H240 0.951 . S
C258 C259 1.366 . S
C258 C260 1.388 . S
C259 C258 1.366 . S
C259 C263 1.385 . S
C260 H241 0.951 . S
C260 C258 1.388 . S
C260 C261 1.366 . S
C261 C260 1.366 . S
C261 C262 1.414 . S
C261 C264 1.499 . S
C262 H242 0.950 . S
C262 C261 1.414 . S
C262 C263 1.374 . S
C263 H243 0.950 . S
C263 C259 1.385 . S
C263 C262 1.374 . S
C264 C261 1.499 . S
C264 C265 1.373 . S
C264 C266 1.389 . S
C265 H244 0.950 . S
C265 C264 1.373 . S
C265 C281 1.377 . S
C266 C264 1.389 . S
C266 C267 1.524 . S
C266 C280 1.377 . S
C267 C266 1.524 . S
C267 C268 1.397 . S
C267 C272 1.363 . S
C268 H245 0.950 . S
C268 C267 1.397 . S
C268 C269 1.334 . S
C269 H246 0.950 . S
C269 C268 1.334 . S
C269 C270 1.287 . S
C270 C269 1.287 . S
C270 C271 1.524 . S
C270 H289 0.913 . S
C271 H247 0.950 . S
C271 C270 1.524 . S
C271 C272 1.415 . S
C272 H248 0.950 . S
C272 C267 1.363 . S
C272 C271 1.415 . S
C273 H249 0.951 . S
C273 C274 1.366 1_554 S
C273 C275 1.388 . S
C274 C273 1.366 1_556 S
C274 C278 1.385 . S
C275 H250 0.951 . S
C275 C273 1.388 . S
C275 C276 1.366 1_554 S
C276 C275 1.366 1_556 S
C276 C277 1.414 . S
C276 C279 1.499 . S
C277 H251 0.950 . S
C277 C276 1.414 . S
C277 C278 1.374 . S
C278 H252 0.950 . S
C278 C274 1.385 . S
C278 C277 1.374 . S
C279 C276 1.499 . S
C279 C280 1.373 . S
C279 C281 1.389 . S
C280 H253 0.950 . S
C280 C266 1.377 . S
C280 C279 1.373 . S
C281 C265 1.377 . S
C281 C279 1.389 . S
C281 C282 1.524 1_556 S
C282 C281 1.524 1_554 S
C282 C283 1.397 . S
C282 C287 1.363 . S
C283 H254 0.950 . S
C283 C282 1.397 . S
C283 C284 1.334 . S
C284 H255 0.950 . S
C284 C283 1.334 . S
C284 C285 1.287 . S
C285 C284 1.287 . S
C285 C286 1.524 . S
C285 H288 0.999 . S
C286 H256 0.950 . S
C286 C285 1.524 . S
C286 C287 1.415 . S
C287 H257 0.950 . S
C287 C282 1.363 . S
C287 C286 1.415 . S
H288 C285 0.999 . S
H289 C270 0.913 . S
H290 C308 0.951 . S
H291 C310 0.951 . S
H292 C312 0.950 . S
H293 C313 0.950 . S
H294 C315 0.950 . S
H295 C318 0.950 1_655 S
H296 C319 0.950 1_655 S
H297 C321 0.950 . S
H298 C322 0.950 . S
H299 C323 0.951 . S
H300 C325 0.951 . S
H301 C327 0.950 . S
H302 C328 0.950 . S
H303 C330 0.950 . S
H304 C333 0.950 1_455 S
H305 C334 0.950 1_455 S
H306 C336 0.950 . S
H307 C337 0.950 . S
C308 H290 0.951 . S
C308 C309 1.366 . S
C308 C310 1.388 . S
C309 C308 1.366 . S
C309 C313 1.385 . S
C310 H291 0.951 . S
C310 C308 1.388 . S
C310 C311 1.366 . S
C311 C310 1.366 . S
C311 C312 1.414 . S
C311 C314 1.499 . S
C312 H292 0.950 . S
C312 C311 1.414 . S
C312 C313 1.374 . S
C313 H293 0.950 . S
C313 C309 1.385 . S
C313 C312 1.374 . S
C314 C311 1.499 . S
C314 C315 1.373 . S
C314 C316 1.389 . S
C315 H294 0.950 . S
C315 C314 1.373 . S
C315 C331 1.377 1_455 S
C316 C314 1.389 . S
C316 C317 1.524 . S
C316 C330 1.377 1_455 S
C317 C316 1.524 . S
C317 C318 1.397 . S
C317 C322 1.363 . S
C318 H295 0.950 1_455 S
C318 C317 1.397 . S
C318 C319 1.334 . S
C319 H296 0.950 1_455 S
C319 C318 1.334 . S
C319 C320 1.287 . S
C320 C319 1.287 . S
C320 C321 1.524 . S
C320 H339 0.913 . S
C321 H297 0.950 . S
C321 C320 1.524 . S
C321 C322 1.415 . S
C322 H298 0.950 . S
C322 C317 1.363 . S
C322 C321 1.415 . S
C323 H299 0.951 . S
C323 C324 1.366 . S
C323 C325 1.388 . S
C324 C323 1.366 . S
C324 C328 1.385 . S
C325 H300 0.951 . S
C325 C323 1.388 . S
C325 C326 1.366 . S
C326 C325 1.366 . S
C326 C327 1.414 . S
C326 C329 1.499 . S
C327 H301 0.950 . S
C327 C326 1.414 . S
C327 C328 1.374 . S
C328 H302 0.950 . S
C328 C324 1.385 . S
C328 C327 1.374 . S
C329 C326 1.499 . S
C329 C330 1.373 . S
C329 C331 1.389 . S
C330 H303 0.950 . S
C330 C316 1.377 1_655 S
C330 C329 1.373 . S
C331 C315 1.377 1_655 S
C331 C329 1.389 . S
C331 C332 1.524 . S
C332 C331 1.524 . S
C332 C333 1.397 . S
C332 C337 1.363 . S
C333 H304 0.950 1_655 S
C333 C332 1.397 . S
C333 C334 1.334 . S
C334 H305 0.950 1_655 S
C334 C333 1.334 . S
C334 C335 1.287 . S
C335 C334 1.287 . S
C335 C336 1.524 . S
C335 H338 0.999 . S
C336 H306 0.950 . S
C336 C335 1.524 . S
C336 C337 1.415 . S
C337 H307 0.950 . S
C337 C332 1.363 . S
C337 C336 1.415 . S
H338 C335 0.999 . S
H339 C320 0.913 . S
H340 C358 0.951 . S
H341 C360 0.951 . S
H342 C362 0.950 . S
H343 C363 0.950 . S
H344 C365 0.950 . S
H345 C368 0.950 . S
H346 C369 0.950 . S
H347 C371 0.950 . S
H348 C372 0.950 . S
H349 C373 0.951 . S
H350 C375 0.951 . S
H351 C377 0.950 . S
H352 C378 0.950 . S
H353 C380 0.950 . S
H354 C383 0.950 . S
H355 C384 0.950 . S
H356 C386 0.950 . S
H357 C387 0.950 . S
C358 H340 0.951 . S
C358 C359 1.366 . S
C358 C360 1.388 . S
C359 C358 1.366 . S
C359 C363 1.385 . S
C360 H341 0.951 . S
C360 C358 1.388 . S
C360 C361 1.366 . S
C361 C360 1.366 . S
C361 C362 1.414 . S
C361 C364 1.499 . S
C362 H342 0.950 . S
C362 C361 1.414 . S
C362 C363 1.374 . S
C363 H343 0.950 . S
C363 C359 1.385 . S
C363 C362 1.374 . S
C364 C361 1.499 . S
C364 C365 1.373 . S
C364 C366 1.389 . S
C365 H344 0.950 . S
C365 C364 1.373 . S
C365 C381 1.377 1_545 S
C366 C364 1.389 . S
C366 C367 1.524 . S
C366 C380 1.377 1_545 S
C367 C366 1.524 . S
C367 C368 1.397 . S
C367 C372 1.363 . S
C368 H345 0.950 . S
C368 C367 1.397 . S
C368 C369 1.334 . S
C369 H346 0.950 . S
C369 C368 1.334 . S
C369 C370 1.287 . S
C370 C369 1.287 . S
C370 C371 1.524 . S
C370 H389 0.913 . S
C371 H347 0.950 . S
C371 C370 1.524 . S
C371 C372 1.415 . S
C372 H348 0.950 . S
C372 C367 1.363 . S
C372 C371 1.415 . S
C373 H349 0.951 . S
C373 C374 1.366 . S
C373 C375 1.388 . S
C374 C373 1.366 . S
C374 C378 1.385 . S
C375 H350 0.951 . S
C375 C373 1.388 . S
C375 C376 1.366 . S
C376 C375 1.366 . S
C376 C377 1.414 . S
C376 C379 1.499 . S
C377 H351 0.950 . S
C377 C376 1.414 . S
C377 C378 1.374 . S
C378 H352 0.950 . S
C378 C374 1.385 . S
C378 C377 1.374 . S
C379 C376 1.499 . S
C379 C380 1.373 . S
C379 C381 1.389 . S
C380 H353 0.950 . S
C380 C366 1.377 1_565 S
C380 C379 1.373 . S
C381 C365 1.377 1_565 S
C381 C379 1.389 . S
C381 C382 1.524 . S
C382 C381 1.524 . S
C382 C383 1.397 . S
C382 C387 1.363 . S
C383 H354 0.950 . S
C383 C382 1.397 . S
C383 C384 1.334 . S
C384 H355 0.950 . S
C384 C383 1.334 . S
C384 C385 1.287 . S
C385 C384 1.287 . S
C385 C386 1.524 . S
C385 H388 0.999 . S
C386 H356 0.950 . S
C386 C385 1.524 . S
C386 C387 1.415 . S
C387 H357 0.950 . S
C387 C382 1.363 . S
C387 C386 1.415 . S
H388 C385 0.999 . S
H389 C370 0.913 . S
H390 C408 0.951 . S
H391 C410 0.951 . S
H392 C412 0.950 . S
H393 C413 0.950 . S
H394 C415 0.950 . S
H395 C418 0.950 . S
H396 C419 0.950 . S
H397 C421 0.950 . S
H398 C422 0.950 . S
H399 C423 0.951 . S
H400 C425 0.951 1_556 S
H401 C427 0.950 . S
H402 C428 0.950 . S
H403 C430 0.950 1_554 S
H404 C433 0.950 . S
H405 C434 0.950 . S
H406 C436 0.950 . S
H407 C437 0.950 . S
C408 H390 0.951 . S
C408 C409 1.366 . S
C408 C410 1.388 . S
C409 C408 1.366 . S
C409 C413 1.385 . S
C410 H391 0.951 . S
C410 C408 1.388 . S
C410 C411 1.366 . S
C411 C410 1.366 . S
C411 C412 1.414 . S
C411 C414 1.499 . S
C412 H392 0.950 . S
C412 C411 1.414 . S
C412 C413 1.374 . S
C413 H393 0.950 . S
C413 C409 1.385 . S
C413 C412 1.374 . S
C414 C411 1.499 . S
C414 C415 1.373 . S
C414 C416 1.389 . S
C415 H394 0.950 . S
C415 C414 1.373 . S
C415 C431 1.377 . S
C416 C414 1.389 . S
C416 C417 1.524 . S
C416 C430 1.377 . S
C417 C416 1.524 . S
C417 C418 1.397 . S
C417 C422 1.363 . S
C418 H395 0.950 . S
C418 C417 1.397 . S
C418 C419 1.334 . S
C419 H396 0.950 . S
C419 C418 1.334 . S
C419 C420 1.287 . S
C420 C419 1.287 . S
C420 C421 1.524 . S
C420 H439 0.913 . S
C421 H397 0.950 . S
C421 C420 1.524 . S
C421 C422 1.415 . S
C422 H398 0.950 . S
C422 C417 1.363 . S
C422 C421 1.415 . S
C423 H399 0.951 . S
C423 C424 1.366 . S
C423 C425 1.388 . S
C424 C423 1.366 . S
C424 C428 1.385 . S
C425 H400 0.951 1_554 S
C425 C423 1.388 . S
C425 C426 1.366 . S
C426 C425 1.366 . S
C426 C427 1.414 . S
C426 C429 1.499 1_554 S
C427 H401 0.950 . S
C427 C426 1.414 . S
C427 C428 1.374 . S
C428 H402 0.950 . S
C428 C424 1.385 . S
C428 C427 1.374 . S
C429 C426 1.499 1_556 S
C429 C430 1.373 . S
C429 C431 1.389 . S
C430 H403 0.950 1_556 S
C430 C416 1.377 . S
C430 C429 1.373 . S
C431 C415 1.377 . S
C431 C429 1.389 . S
C431 C432 1.524 . S
C432 C431 1.524 . S
C432 C433 1.397 . S
C432 C437 1.363 . S
C433 H404 0.950 . S
C433 C432 1.397 . S
C433 C434 1.334 . S
C434 H405 0.950 . S
C434 C433 1.334 . S
C434 C435 1.287 . S
C435 C434 1.287 . S
C435 C436 1.524 . S
C435 H438 0.999 . S
C436 H406 0.950 . S
C436 C435 1.524 . S
C436 C437 1.415 . S
C437 H407 0.950 . S
C437 C432 1.363 . S
C437 C436 1.415 . S
H438 C435 0.999 . S
H439 C420 0.913 . S
H440 C458 0.951 . S
H441 C460 0.951 . S
H442 C462 0.950 . S
H443 C463 0.950 . S
H444 C465 0.950 . S
H445 C468 0.950 . S
H446 C469 0.950 . S
H447 C471 0.950 . S
H448 C472 0.950 . S
H449 C473 0.951 . S
H450 C475 0.951 . S
H451 C477 0.950 . S
H452 C478 0.950 . S
H453 C480 0.950 . S
H454 C483 0.950 . S
H455 C484 0.950 . S
H456 C486 0.950 . S
H457 C487 0.950 . S
C458 H440 0.951 . S
C458 C459 1.366 . S
C458 C460 1.388 . S
C459 C458 1.366 . S
C459 C463 1.385 . S
C460 H441 0.951 . S
C460 C458 1.388 . S
C460 C461 1.366 . S
C461 C460 1.366 . S
C461 C462 1.414 . S
C461 C464 1.499 . S
C462 H442 0.950 . S
C462 C461 1.414 . S
C462 C463 1.374 . S
C463 H443 0.950 . S
C463 C459 1.385 . S
C463 C462 1.374 . S
C464 C461 1.499 . S
C464 C465 1.373 . S
C464 C466 1.389 . S
C465 H444 0.950 . S
C465 C464 1.373 . S
C465 C481 1.377 1_455 S
C466 C464 1.389 . S
C466 C467 1.524 . S
C466 C480 1.377 1_455 S
C467 C466 1.524 . S
C467 C468 1.397 . S
C467 C472 1.363 . S
C468 H445 0.950 . S
C468 C467 1.397 . S
C468 C469 1.334 . S
C469 H446 0.950 . S
C469 C468 1.334 . S
C469 C470 1.287 . S
C470 C469 1.287 . S
C470 C471 1.524 . S
C470 H489 0.913 . S
C471 H447 0.950 . S
C471 C470 1.524 . S
C471 C472 1.415 . S
C472 H448 0.950 . S
C472 C467 1.363 . S
C472 C471 1.415 . S
C473 H449 0.951 . S
C473 C474 1.366 . S
C473 C475 1.388 . S
C474 C473 1.366 . S
C474 C478 1.385 . S
C475 H450 0.951 . S
C475 C473 1.388 . S
C475 C476 1.366 . S
C476 C475 1.366 . S
C476 C477 1.414 . S
C476 C479 1.499 . S
C477 H451 0.950 . S
C477 C476 1.414 . S
C477 C478 1.374 . S
C478 H452 0.950 . S
C478 C474 1.385 . S
C478 C477 1.374 . S
C479 C476 1.499 . S
C479 C480 1.373 . S
C479 C481 1.389 . S
C480 H453 0.950 . S
C480 C466 1.377 1_655 S
C480 C479 1.373 . S
C481 C465 1.377 1_655 S
C481 C479 1.389 . S
C481 C482 1.524 . S
C482 C481 1.524 . S
C482 C483 1.397 . S
C482 C487 1.363 . S
C483 H454 0.950 . S
C483 C482 1.397 . S
C483 C484 1.334 . S
C484 H455 0.950 . S
C484 C483 1.334 . S
C484 C485 1.287 . S
C485 C484 1.287 . S
C485 C486 1.524 . S
C485 H488 0.999 . S
C486 H456 0.950 . S
C486 C485 1.524 . S
C486 C487 1.415 . S
C487 H457 0.950 . S
C487 C482 1.363 . S
C487 C486 1.415 . S
H488 C485 0.999 . S
H489 C470 0.913 . S
H490 C508 0.951 . S
H491 C510 0.951 . S
H492 C512 0.950 . S
H493 C513 0.950 . S
H494 C515 0.950 . S
H495 C518 0.950 . S
H496 C519 0.950 . S
H497 C521 0.950 . S
H498 C522 0.950 . S
H499 C523 0.951 . S
H500 C525 0.951 . S
H501 C527 0.950 . S
H502 C528 0.950 . S
H503 C530 0.950 . S
H504 C533 0.950 . S
H505 C534 0.950 . S
H506 C536 0.950 . S
H507 C537 0.950 . S
C508 H490 0.951 . S
C508 C509 1.366 . S
C508 C510 1.388 . S
C509 C508 1.366 . S
C509 C513 1.385 . S
C510 H491 0.951 . S
C510 C508 1.388 . S
C510 C511 1.366 . S
C511 C510 1.366 . S
C511 C512 1.414 . S
C511 C514 1.499 . S
C512 H492 0.950 . S
C512 C511 1.414 . S
C512 C513 1.374 . S
C513 H493 0.950 . S
C513 C509 1.385 . S
C513 C512 1.374 . S
C514 C511 1.499 . S
C514 C515 1.373 1_545 S
C514 C516 1.389 . S
C515 H494 0.950 . S
C515 C514 1.373 1_565 S
C515 C531 1.377 . S
C516 C514 1.389 . S
C516 C517 1.524 . S
C516 C530 1.377 . S
C517 C516 1.524 . S
C517 C518 1.397 . S
C517 C522 1.363 . S
C518 H495 0.950 . S
C518 C517 1.397 . S
C518 C519 1.334 . S
C519 H496 0.950 . S
C519 C518 1.334 . S
C519 C520 1.287 . S
C520 C519 1.287 . S
C520 C521 1.524 . S
C520 H539 0.913 . S
C521 H497 0.950 . S
C521 C520 1.524 . S
C521 C522 1.415 . S
C522 H498 0.950 . S
C522 C517 1.363 . S
C522 C521 1.415 . S
C523 H499 0.951 . S
C523 C524 1.366 . S
C523 C525 1.388 . S
C524 C523 1.366 . S
C524 C528 1.385 . S
C525 H500 0.951 . S
C525 C523 1.388 . S
C525 C526 1.366 . S
C526 C525 1.366 . S
C526 C527 1.414 . S
C526 C529 1.499 . S
C527 H501 0.950 . S
C527 C526 1.414 . S
C527 C528 1.374 . S
C528 H502 0.950 . S
C528 C524 1.385 . S
C528 C527 1.374 . S
C529 C526 1.499 . S
C529 C530 1.373 1_565 S
C529 C531 1.389 . S
C530 H503 0.950 . S
C530 C516 1.377 . S
C530 C529 1.373 1_545 S
C531 C515 1.377 . S
C531 C529 1.389 . S
C531 C532 1.524 . S
C532 C531 1.524 . S
C532 C533 1.397 . S
C532 C537 1.363 . S
C533 H504 0.950 . S
C533 C532 1.397 . S
C533 C534 1.334 . S
C534 H505 0.950 . S
C534 C533 1.334 . S
C534 C535 1.287 . S
C535 C534 1.287 . S
C535 C536 1.524 . S
C535 H538 0.999 . S
C536 H506 0.950 . S
C536 C535 1.524 . S
C536 C537 1.415 . S
C537 H507 0.950 . S
C537 C532 1.363 . S
C537 C536 1.415 . S
H538 C535 0.999 . S
H539 C520 0.913 . S
H540 C558 0.951 . S
H541 C560 0.951 . S
H542 C562 0.950 . S
H543 C563 0.950 . S
H544 C565 0.950 . S
H545 C568 0.950 . S
H546 C569 0.950 . S
H547 C571 0.950 . S
H548 C572 0.950 . S
H549 C573 0.951 . S
H550 C575 0.951 . S
H551 C577 0.950 . S
H552 C578 0.950 . S
H553 C580 0.950 . S
H554 C583 0.950 . S
H555 C584 0.950 . S
H556 C586 0.950 . S
H557 C587 0.950 . S
C558 H540 0.951 . S
C558 C559 1.366 . S
C558 C560 1.388 . S
C559 C558 1.366 . S
C559 C563 1.385 . S
C560 H541 0.951 . S
C560 C558 1.388 . S
C560 C561 1.366 . S
C561 C560 1.366 . S
C561 C562 1.414 . S
C561 C564 1.499 . S
C562 H542 0.950 . S
C562 C561 1.414 . S
C562 C563 1.374 . S
C563 H543 0.950 . S
C563 C559 1.385 . S
C563 C562 1.374 . S
C564 C561 1.499 . S
C564 C565 1.373 . S
C564 C566 1.389 . S
C565 H544 0.950 . S
C565 C564 1.373 . S
C565 C581 1.377 . S
C566 C564 1.389 . S
C566 C567 1.524 . S
C566 C580 1.377 . S
C567 C566 1.524 . S
C567 C568 1.397 . S
C567 C572 1.363 . S
C568 H545 0.950 . S
C568 C567 1.397 . S
C568 C569 1.334 . S
C569 H546 0.950 . S
C569 C568 1.334 . S
C569 C570 1.287 . S
C570 C569 1.287 . S
C570 C571 1.524 . S
C570 H589 0.913 . S
C571 H547 0.950 . S
C571 C570 1.524 . S
C571 C572 1.415 . S
C572 H548 0.950 . S
C572 C567 1.363 . S
C572 C571 1.415 . S
C573 H549 0.951 . S
C573 C574 1.366 . S
C573 C575 1.388 . S
C574 C573 1.366 . S
C574 C578 1.385 . S
C575 H550 0.951 . S
C575 C573 1.388 . S
C575 C576 1.366 . S
C576 C575 1.366 . S
C576 C577 1.414 . S
C576 C579 1.499 . S
C577 H551 0.950 . S
C577 C576 1.414 . S
C577 C578 1.374 . S
C578 H552 0.950 . S
C578 C574 1.385 . S
C578 C577 1.374 . S
C579 C576 1.499 . S
C579 C580 1.373 . S
C579 C581 1.389 . S
C580 H553 0.950 . S
C580 C566 1.377 . S
C580 C579 1.373 . S
C581 C565 1.377 . S
C581 C579 1.389 . S
C581 C582 1.524 . S
C582 C581 1.524 . S
C582 C583 1.397 . S
C582 C587 1.363 . S
C583 H554 0.950 . S
C583 C582 1.397 . S
C583 C584 1.334 . S
C584 H555 0.950 . S
C584 C583 1.334 . S
C584 C585 1.287 . S
C585 C584 1.287 . S
C585 C586 1.524 . S
C585 H588 0.999 . S
C586 H556 0.950 . S
C586 C585 1.524 . S
C586 C587 1.415 . S
C587 H557 0.950 . S
C587 C582 1.363 . S
C587 C586 1.415 . S
H588 C585 0.999 . S
H589 C570 0.913 . S
H590 C608 0.951 . S
H591 C610 0.951 . S
H592 C612 0.950 . S
H593 C613 0.950 . S
H594 C615 0.950 . S
H595 C618 0.950 . S
H596 C619 0.950 . S
H597 C621 0.950 . S
H598 C622 0.950 . S
H599 C623 0.951 . S
H600 C625 0.951 . S
H601 C627 0.950 . S
H602 C628 0.950 . S
H603 C630 0.962 . S
H604 C633 0.950 . S
H605 C634 0.950 . S
H606 C636 0.950 . S
H607 C637 0.950 . S
C608 H590 0.951 . S
C608 C609 1.366 . S
C608 C610 1.388 . S
C609 C608 1.366 . S
C609 C613 1.385 . S
C610 H591 0.951 . S
C610 C608 1.388 . S
C610 C611 1.366 . S
C611 C610 1.366 . S
C611 C612 1.414 . S
C611 C614 1.499 . S
C612 H592 0.950 . S
C612 C611 1.414 . S
C612 C613 1.374 . S
C613 H593 0.950 . S
C613 C609 1.385 . S
C613 C612 1.374 . S
C614 C611 1.499 . S
C614 C615 1.373 . S
C614 C616 1.389 . S
C615 H594 0.950 . S
C615 C614 1.373 . S
C615 C631 1.377 . S
C616 C614 1.389 . S
C616 C617 1.524 . S
C616 C630 1.360 1_554 S
C617 C616 1.524 . S
C617 C618 1.397 . S
C617 C622 1.363 . S
C618 H595 0.950 . S
C618 C617 1.397 . S
C618 C619 1.334 . S
C619 H596 0.950 . S
C619 C618 1.334 . S
C619 C620 1.287 . S
C620 C619 1.287 . S
C620 C621 1.524 . S
C620 H639 0.913 . S
C621 H597 0.950 . S
C621 C620 1.524 . S
C621 C622 1.415 . S
C622 H598 0.950 . S
C622 C617 1.363 . S
C622 C621 1.415 . S
C623 H599 0.951 . S
C623 C624 1.366 . S
C623 C625 1.388 . S
C624 C623 1.366 . S
C624 C628 1.385 . S
C625 H600 0.951 . S
C625 C623 1.388 . S
C625 C626 1.366 . S
C626 C625 1.366 . S
C626 C627 1.414 . S
C626 C629 1.499 . S
C627 H601 0.950 . S
C627 C626 1.414 . S
C627 C628 1.374 . S
C628 H602 0.950 . S
C628 C624 1.385 . S
C628 C627 1.374 . S
C629 C626 1.499 . S
C629 C630 1.378 . S
C629 C631 1.389 1_556 S
C630 H603 0.962 . S
C630 C616 1.360 1_556 S
C630 C629 1.378 . S
C631 C615 1.377 . S
C631 C629 1.389 1_554 S
C631 C632 1.524 . S
C632 C631 1.524 . S
C632 C633 1.397 1_554 S
C632 C637 1.363 . S
C633 H604 0.950 . S
C633 C632 1.397 1_556 S
C633 C634 1.334 . S
C634 H605 0.950 . S
C634 C633 1.334 . S
C634 C635 1.287 . S
C635 C634 1.287 . S
C635 C636 1.524 1_556 S
C635 H638 0.999 . S
C636 H606 0.950 . S
C636 C635 1.524 1_554 S
C636 C637 1.415 . S
C637 H607 0.950 . S
C637 C632 1.363 . S
C637 C636 1.415 . S
H638 C635 0.999 . S
H639 C620 0.913 . S
H640 C658 0.951 . S
H641 C660 0.951 . S
H642 C662 0.950 . S
H643 C663 0.950 . S
H644 C665 0.950 . S
H645 C668 0.950 . S
H646 C669 0.950 . S
H647 C671 0.950 . S
H648 C672 0.950 . S
H649 C673 0.951 1_556 S
H650 C675 0.951 . S
H651 C677 0.950 . S
H652 C678 0.950 . S
H653 C680 0.950 . S
H654 C683 0.950 . S
H655 C684 0.950 . S
H656 C686 0.950 . S
H657 C687 0.950 . S
C658 H640 0.951 . S
C658 C659 1.366 . S
C658 C660 1.388 . S
C659 C658 1.366 . S
C659 C663 1.385 . S
C660 H641 0.951 . S
C660 C658 1.388 . S
C660 C661 1.366 . S
C661 C660 1.366 . S
C661 C662 1.414 . S
C661 C664 1.499 . S
C662 H642 0.950 . S
C662 C661 1.414 . S
C662 C663 1.374 . S
C663 H643 0.950 . S
C663 C659 1.385 . S
C663 C662 1.374 . S
C664 C661 1.499 . S
C664 C665 1.373 . S
C664 C666 1.389 . S
C665 H644 0.950 . S
C665 C664 1.373 . S
C665 C681 1.377 . S
C666 C664 1.389 . S
C666 C667 1.524 . S
C666 C680 1.377 . S
C667 C666 1.524 . S
C667 C668 1.397 . S
C667 C672 1.363 . S
C668 H645 0.950 . S
C668 C667 1.397 . S
C668 C669 1.334 . S
C669 H646 0.950 . S
C669 C668 1.334 . S
C669 C670 1.287 . S
C670 C669 1.287 . S
C670 C671 1.524 . S
C670 H689 0.913 . S
C671 H647 0.950 . S
C671 C670 1.524 . S
C671 C672 1.415 . S
C672 H648 0.950 . S
C672 C667 1.363 . S
C672 C671 1.415 . S
C673 H649 0.951 1_554 S
C673 C674 1.366 . S
C673 C675 1.388 . S
C674 C673 1.366 . S
C674 C678 1.385 . S
C675 H650 0.951 . S
C675 C673 1.388 . S
C675 C676 1.366 . S
C676 C675 1.366 . S
C676 C677 1.414 . S
C676 C679 1.499 . S
C677 H651 0.950 . S
C677 C676 1.414 . S
C677 C678 1.374 . S
C678 H652 0.950 . S
C678 C674 1.385 . S
C678 C677 1.374 . S
C679 C676 1.499 . S
C679 C680 1.373 . S
C679 C681 1.389 . S
C680 H653 0.950 . S
C680 C666 1.377 . S
C680 C679 1.373 . S
C681 C665 1.377 . S
C681 C679 1.389 . S
C681 C682 1.524 . S
C682 C681 1.524 . S
C682 C683 1.397 . S
C682 C687 1.363 . S
C683 H654 0.950 . S
C683 C682 1.397 . S
C683 C684 1.334 . S
C684 H655 0.950 . S
C684 C683 1.334 . S
C684 C685 1.287 . S
C685 C684 1.287 . S
C685 C686 1.524 . S
C685 H688 0.999 . S
C686 H656 0.950 . S
C686 C685 1.524 . S
C686 C687 1.415 . S
C687 H657 0.950 . S
C687 C682 1.363 . S
C687 C686 1.415 . S
H688 C685 0.999 . S
H689 C670 0.913 . S
H690 C708 0.951 . S
H691 C710 0.951 . S
H692 C712 0.950 . S
H693 C713 0.950 . S
H694 C715 0.950 . S
H695 C718 0.950 . S
H696 C719 0.950 . S
H697 C721 0.950 . S
H698 C722 0.950 . S
H699 C723 0.951 . S
H700 C725 0.951 . S
H701 C727 0.950 . S
H702 C728 0.950 . S
H703 C730 0.950 . S
H704 C733 0.950 . S
H705 C734 0.950 . S
H706 C736 0.950 . S
H707 C737 0.950 . S
C708 H690 0.951 . S
C708 C709 1.366 . S
C708 C710 1.388 . S
C709 C708 1.366 . S
C709 C713 1.385 . S
C710 H691 0.951 . S
C710 C708 1.388 . S
C710 C711 1.366 . S
C711 C710 1.366 . S
C711 C712 1.414 . S
C711 C714 1.499 . S
C712 H692 0.950 . S
C712 C711 1.414 . S
C712 C713 1.374 . S
C713 H693 0.950 . S
C713 C709 1.385 . S
C713 C712 1.374 . S
C714 C711 1.499 . S
C714 C715 1.373 . S
C714 C716 1.389 . S
C715 H694 0.950 . S
C715 C714 1.373 . S
C715 C731 1.377 . S
C716 C714 1.389 . S
C716 C717 1.524 . S
C716 C730 1.377 . S
C717 C716 1.524 . S
C717 C718 1.397 . S
C717 C722 1.363 . S
C718 H695 0.950 . S
C718 C717 1.397 . S
C718 C719 1.334 . S
C719 H696 0.950 . S
C719 C718 1.334 . S
C719 C720 1.287 . S
C720 C719 1.287 . S
C720 C721 1.524 . S
C720 H739 0.913 . S
C721 H697 0.950 . S
C721 C720 1.524 . S
C721 C722 1.415 . S
C722 H698 0.950 . S
C722 C717 1.363 . S
C722 C721 1.415 . S
C723 H699 0.951 . S
C723 C724 1.366 . S
C723 C725 1.388 . S
C724 C723 1.366 . S
C724 C728 1.385 . S
C725 H700 0.951 . S
C725 C723 1.388 . S
C725 C726 1.366 . S
C726 C725 1.366 . S
C726 C727 1.414 . S
C726 C729 1.499 . S
C727 H701 0.950 . S
C727 C726 1.414 . S
C727 C728 1.374 . S
C728 H702 0.950 . S
C728 C724 1.385 . S
C728 C727 1.374 . S
C729 C726 1.499 . S
C729 C730 1.373 . S
C729 C731 1.389 . S
C730 H703 0.950 . S
C730 C716 1.377 . S
C730 C729 1.373 . S
C731 C715 1.377 . S
C731 C729 1.389 . S
C731 C732 1.524 . S
C732 C731 1.524 . S
C732 C733 1.397 . S
C732 C737 1.363 . S
C733 H704 0.950 . S
C733 C732 1.397 . S
C733 C734 1.334 . S
C734 H705 0.950 . S
C734 C733 1.334 . S
C734 C735 1.287 . S
C735 C734 1.287 . S
C735 C736 1.524 . S
C735 H738 0.999 . S
C736 H706 0.950 . S
C736 C735 1.524 . S
C736 C737 1.415 . S
C737 H707 0.950 . S
C737 C732 1.363 . S
C737 C736 1.415 . S
H738 C735 0.999 . S
H739 C720 0.913 . S
H740 C758 0.951 . S
H741 C760 0.951 . S
H742 C762 0.950 . S
H743 C763 0.950 . S
H744 C765 0.950 . S
H745 C768 0.950 . S
H746 C769 0.950 . S
H747 C771 0.950 . S
H748 C772 0.950 . S
H749 C773 0.951 . S
H750 C775 0.951 . S
H751 C777 0.950 . S
H752 C778 0.950 . S
H753 C780 0.950 . S
H754 C783 0.950 . S
H755 C784 0.950 . S
H756 C786 0.950 . S
H757 C787 0.950 . S
C758 H740 0.951 . S
C758 C759 1.366 . S
C758 C760 1.388 . S
C759 C758 1.366 . S
C759 C763 1.385 . S
C760 H741 0.951 . S
C760 C758 1.388 . S
C760 C761 1.366 . S
C761 C760 1.366 . S
C761 C762 1.414 . S
C761 C764 1.499 . S
C762 H742 0.950 . S
C762 C761 1.414 . S
C762 C763 1.374 . S
C763 H743 0.950 . S
C763 C759 1.385 . S
C763 C762 1.374 . S
C764 C761 1.499 . S
C764 C765 1.373 . S
C764 C766 1.389 . S
C765 H744 0.950 . S
C765 C764 1.373 . S
C765 C781 1.377 . S
C766 C764 1.389 . S
C766 C767 1.524 . S
C766 C780 1.377 . S
C767 C766 1.524 . S
C767 C768 1.397 . S
C767 C772 1.363 . S
C768 H745 0.950 . S
C768 C767 1.397 . S
C768 C769 1.334 . S
C769 H746 0.950 . S
C769 C768 1.334 . S
C769 C770 1.287 . S
C770 C769 1.287 . S
C770 C771 1.524 . S
C770 H789 0.913 . S
C771 H747 0.950 . S
C771 C770 1.524 . S
C771 C772 1.415 . S
C772 H748 0.950 . S
C772 C767 1.363 . S
C772 C771 1.415 . S
C773 H749 0.951 . S
C773 C774 1.366 . S
C773 C775 1.388 1_554 S
C774 C773 1.366 . S
C774 C778 1.385 . S
C775 H750 0.951 . S
C775 C773 1.388 1_556 S
C775 C776 1.366 . S
C776 C775 1.366 . S
C776 C777 1.414 . S
C776 C779 1.499 . S
C777 H751 0.950 . S
C777 C776 1.414 . S
C777 C778 1.374 1_556 S
C778 H752 0.950 . S
C778 C774 1.385 . S
C778 C777 1.374 1_554 S
C779 C776 1.499 . S
C779 C780 1.373 . S
C779 C781 1.389 . S
C780 H753 0.950 . S
C780 C766 1.377 . S
C780 C779 1.373 . S
C781 C765 1.377 . S
C781 C779 1.389 . S
C781 C782 1.524 . S
C782 C781 1.524 . S
C782 C783 1.397 . S
C782 C787 1.363 . S
C783 H754 0.950 . S
C783 C782 1.397 . S
C783 C784 1.334 . S
C784 H755 0.950 . S
C784 C783 1.334 . S
C784 C785 1.287 . S
C785 C784 1.287 . S
C785 C786 1.524 . S
C785 H788 0.999 . S
C786 H756 0.950 . S
C786 C785 1.524 . S
C786 C787 1.415 . S
C787 H757 0.950 . S
C787 C782 1.363 . S
C787 C786 1.415 . S
H788 C785 0.999 . S
H789 C770 0.913 . S
H790 C808 0.951 . S
H791 C810 0.951 . S
H792 C812 0.950 . S
H793 C813 0.950 . S
H794 C815 0.950 . S
H795 C818 0.950 . S
H796 C819 0.950 . S
H797 C821 0.950 . S
H798 C822 0.950 . S
H799 C823 0.951 . S
H800 C825 0.951 . S
H801 C827 0.950 . S
H802 C828 0.950 . S
H803 C830 0.950 . S
H804 C833 0.950 . S
H805 C834 0.950 . S
H806 C836 0.950 . S
H807 C837 0.950 . S
C808 H790 0.951 . S
C808 C809 1.366 . S
C808 C810 1.388 . S
C809 C808 1.366 . S
C809 C813 1.385 . S
C810 H791 0.951 . S
C810 C808 1.388 . S
C810 C811 1.366 . S
C811 C810 1.366 . S
C811 C812 1.414 . S
C811 C814 1.499 . S
C812 H792 0.950 . S
C812 C811 1.414 . S
C812 C813 1.374 . S
C813 H793 0.950 . S
C813 C809 1.385 . S
C813 C812 1.374 . S
C814 C811 1.499 . S
C814 C815 1.373 . S
C814 C816 1.389 . S
C815 H794 0.950 . S
C815 C814 1.373 . S
C815 C831 1.377 . S
C816 C814 1.389 . S
C816 C817 1.524 . S
C816 C830 1.377 . S
C817 C816 1.524 . S
C817 C818 1.397 . S
C817 C822 1.363 . S
C818 H795 0.950 . S
C818 C817 1.397 . S
C818 C819 1.334 . S
C819 H796 0.950 . S
C819 C818 1.334 . S
C819 C820 1.287 . S
C820 C819 1.287 . S
C820 C821 1.524 . S
C820 H839 0.913 . S
C821 H797 0.950 . S
C821 C820 1.524 . S
C821 C822 1.415 . S
C822 H798 0.950 . S
C822 C817 1.363 . S
C822 C821 1.415 . S
C823 H799 0.951 . S
C823 C824 1.366 . S
C823 C825 1.388 . S
C824 C823 1.366 . S
C824 C828 1.385 . S
C825 H800 0.951 . S
C825 C823 1.388 . S
C825 C826 1.366 . S
C826 C825 1.366 . S
C826 C827 1.414 . S
C826 C829 1.499 . S
C827 H801 0.950 . S
C827 C826 1.414 . S
C827 C828 1.374 . S
C828 H802 0.950 . S
C828 C824 1.385 . S
C828 C827 1.374 . S
C829 C826 1.499 . S
C829 C830 1.373 . S
C829 C831 1.389 . S
C830 H803 0.950 . S
C830 C816 1.377 . S
C830 C829 1.373 . S
C831 C815 1.377 . S
C831 C829 1.389 . S
C831 C832 1.524 . S
C832 C831 1.524 . S
C832 C833 1.397 . S
C832 C837 1.363 . S
C833 H804 0.950 . S
C833 C832 1.397 . S
C833 C834 1.334 . S
C834 H805 0.950 . S
C834 C833 1.334 . S
C834 C835 1.287 . S
C835 C834 1.287 . S
C835 C836 1.524 . S
C835 H838 0.999 . S
C836 H806 0.950 . S
C836 C835 1.524 . S
C836 C837 1.415 . S
C837 H807 0.950 . S
C837 C832 1.363 . S
C837 C836 1.415 . S
H838 C835 0.999 . S
H839 C820 0.913 . S
H840 C858 0.951 . S
H841 C860 0.951 . S
H842 C862 0.950 . S
H843 C863 0.950 . S
H844 C865 0.950 . S
H845 C868 0.950 . S
H846 C869 0.950 . S
H847 C871 0.950 . S
H848 C872 0.950 . S
H849 C873 0.951 . S
H850 C875 0.951 . S
H851 C877 0.950 . S
H852 C878 0.950 . S
H853 C880 0.950 . S
H854 C883 0.950 . S
H855 C884 0.950 . S
H856 C886 0.950 . S
H857 C887 0.950 . S
C858 H840 0.951 . S
C858 C859 1.366 . S
C858 C860 1.388 . S
C859 C858 1.366 . S
C859 C863 1.385 . S
C860 H841 0.951 . S
C860 C858 1.388 . S
C860 C861 1.366 . S
C861 C860 1.366 . S
C861 C862 1.414 . S
C861 C864 1.499 . S
C862 H842 0.950 . S
C862 C861 1.414 . S
C862 C863 1.374 . S
C863 H843 0.950 . S
C863 C859 1.385 . S
C863 C862 1.374 . S
C864 C861 1.499 . S
C864 C865 1.373 . S
C864 C866 1.389 . S
C865 H844 0.950 . S
C865 C864 1.373 . S
C865 C881 1.377 . S
C866 C864 1.389 . S
C866 C867 1.524 . S
C866 C880 1.377 . S
C867 C866 1.524 . S
C867 C868 1.397 . S
C867 C872 1.363 . S
C868 H845 0.950 . S
C868 C867 1.397 . S
C868 C869 1.334 . S
C869 H846 0.950 . S
C869 C868 1.334 . S
C869 C870 1.287 . S
C870 C869 1.287 . S
C870 C871 1.524 . S
C870 H889 0.913 . S
C871 H847 0.950 . S
C871 C870 1.524 . S
C871 C872 1.415 . S
C872 H848 0.950 . S
C872 C867 1.363 . S
C872 C871 1.415 . S
C873 H849 0.951 . S
C873 C874 1.366 . S
C873 C875 1.388 . S
C874 C873 1.366 . S
C874 C878 1.385 . S
C875 H850 0.951 . S
C875 C873 1.388 . S
C875 C876 1.366 . S
C876 C875 1.366 . S
C876 C877 1.414 . S
C876 C879 1.499 . S
C877 H851 0.950 . S
C877 C876 1.414 . S
C877 C878 1.374 . S
C878 H852 0.950 . S
C878 C874 1.385 . S
C878 C877 1.374 . S
C879 C876 1.499 . S
C879 C880 1.373 . S
C879 C881 1.389 . S
C880 H853 0.950 . S
C880 C866 1.377 . S
C880 C879 1.373 . S
C881 C865 1.377 . S
C881 C879 1.389 . S
C881 C882 1.524 . S
C882 C881 1.524 . S
C882 C883 1.397 . S
C882 C887 1.363 . S
C883 H854 0.950 . S
C883 C882 1.397 . S
C883 C884 1.334 . S
C884 H855 0.950 . S
C884 C883 1.334 . S
C884 C885 1.287 . S
C885 C884 1.287 . S
C885 C886 1.524 . S
C885 H888 0.999 . S
C886 H856 0.950 . S
C886 C885 1.524 . S
C886 C887 1.415 . S
C887 H857 0.950 . S
C887 C882 1.363 . S
C887 C886 1.415 . S
H888 C885 0.999 . S
H889 C870 0.913 . S
H890 C908 0.951 . S
H891 C910 0.951 . S
H892 C912 0.950 . S
H893 C913 0.950 . S
H894 C915 0.950 . S
H895 C918 0.950 . S
H896 C919 0.950 . S
H897 C921 0.950 . S
H898 C922 0.950 . S
H899 C923 0.951 . S
H900 C925 0.951 . S
H901 C927 0.950 . S
H902 C928 0.950 . S
H903 C930 0.950 . S
H904 C933 0.950 . S
H905 C934 0.950 . S
H906 C936 0.950 . S
H907 C937 0.950 . S
C908 H890 0.951 . S
C908 C909 1.366 . S
C908 C910 1.388 . S
C909 C908 1.366 . S
C909 C913 1.385 . S
C910 H891 0.951 . S
C910 C908 1.388 . S
C910 C911 1.366 . S
C911 C910 1.366 . S
C911 C912 1.414 . S
C911 C914 1.499 . S
C912 H892 0.950 . S
C912 C911 1.414 . S
C912 C913 1.374 . S
C913 H893 0.950 . S
C913 C909 1.385 . S
C913 C912 1.374 . S
C914 C911 1.499 . S
C914 C915 1.373 . S
C914 C916 1.389 . S
C915 H894 0.950 . S
C915 C914 1.373 . S
C915 C931 1.377 . S
C916 C914 1.389 . S
C916 C917 1.524 . S
C916 C930 1.377 . S
C917 C916 1.524 . S
C917 C918 1.397 . S
C917 C922 1.363 . S
C918 H895 0.950 . S
C918 C917 1.397 . S
C918 C919 1.334 . S
C919 H896 0.950 . S
C919 C918 1.334 . S
C919 C920 1.287 . S
C920 C919 1.287 . S
C920 C921 1.524 . S
C920 H939 0.913 . S
C921 H897 0.950 . S
C921 C920 1.524 . S
C921 C922 1.415 . S
C922 H898 0.950 . S
C922 C917 1.363 . S
C922 C921 1.415 . S
C923 H899 0.951 . S
C923 C924 1.366 . S
C923 C925 1.388 . S
C924 C923 1.366 . S
C924 C928 1.385 . S
C925 H900 0.951 . S
C925 C923 1.388 . S
C925 C926 1.366 . S
C926 C925 1.366 . S
C926 C927 1.414 . S
C926 C929 1.499 . S
C927 H901 0.950 . S
C927 C926 1.414 . S
C927 C928 1.374 . S
C928 H902 0.950 . S
C928 C924 1.385 . S
C928 C927 1.374 . S
C929 C926 1.499 . S
C929 C930 1.373 . S
C929 C931 1.389 . S
C930 H903 0.950 . S
C930 C916 1.377 . S
C930 C929 1.373 . S
C931 C915 1.377 . S
C931 C929 1.389 . S
C931 C932 1.524 . S
C932 C931 1.524 . S
C932 C933 1.397 . S
C932 C937 1.363 . S
C933 H904 0.950 . S
C933 C932 1.397 . S
C933 C934 1.334 . S
C934 H905 0.950 . S
C934 C933 1.334 . S
C934 C935 1.287 . S
C935 C934 1.287 . S
C935 C936 1.524 . S
C935 H938 0.999 . S
C936 H906 0.950 . S
C936 C935 1.524 . S
C936 C937 1.415 . S
C937 H907 0.950 . S
C937 C932 1.363 . S
C937 C936 1.415 . S
H938 C935 0.999 . S
H939 C920 0.913 . S
H940 C958 0.951 . S
H941 C960 0.951 . S
H942 C962 0.950 . S
H943 C963 0.950 . S
H944 C965 0.950 . S
H945 C968 0.950 . S
H946 C969 0.950 . S
H947 C971 0.950 . S
H948 C972 0.950 . S
H949 C973 0.951 . S
H950 C975 0.951 . S
H951 C977 0.950 . S
H952 C978 0.950 . S
H953 C980 0.950 . S
H954 C983 0.950 . S
H955 C984 0.950 . S
H956 C986 0.950 . S
H957 C987 0.950 . S
C958 H940 0.951 . S
C958 C959 1.366 . S
C958 C960 1.388 . S
C959 C958 1.366 . S
C959 C963 1.385 . S
C960 H941 0.951 . S
C960 C958 1.388 . S
C960 C961 1.366 . S
C961 C960 1.366 . S
C961 C962 1.414 . S
C961 C964 1.499 . S
C962 H942 0.950 . S
C962 C961 1.414 . S
C962 C963 1.374 . S
C963 H943 0.950 . S
C963 C959 1.385 . S
C963 C962 1.374 . S
C964 C961 1.499 . S
C964 C965 1.373 . S
C964 C966 1.389 . S
C965 H944 0.950 . S
C965 C964 1.373 . S
C965 C981 1.377 . S
C966 C964 1.389 . S
C966 C967 1.524 . S
C966 C980 1.377 . S
C967 C966 1.524 . S
C967 C968 1.397 . S
C967 C972 1.363 . S
C968 H945 0.950 . S
C968 C967 1.397 . S
C968 C969 1.334 . S
C969 H946 0.950 . S
C969 C968 1.334 . S
C969 C970 1.287 . S
C970 C969 1.287 . S
C970 C971 1.524 . S
C970 H989 0.913 . S
C971 H947 0.950 . S
C971 C970 1.524 . S
C971 C972 1.415 . S
C972 H948 0.950 . S
C972 C967 1.363 . S
C972 C971 1.415 . S
C973 H949 0.951 . S
C973 C974 1.366 . S
C973 C975 1.388 . S
C974 C973 1.366 . S
C974 C978 1.385 . S
C975 H950 0.951 . S
C975 C973 1.388 . S
C975 C976 1.366 . S
C976 C975 1.366 . S
C976 C977 1.414 . S
C976 C979 1.499 . S
C977 H951 0.950 . S
C977 C976 1.414 . S
C977 C978 1.374 . S
C978 H952 0.950 . S
C978 C974 1.385 . S
C978 C977 1.374 . S
C979 C976 1.499 . S
C979 C980 1.373 . S
C979 C981 1.389 . S
C980 H953 0.950 . S
C980 C966 1.377 . S
C980 C979 1.373 . S
C981 C965 1.377 . S
C981 C979 1.389 . S
C981 C982 1.524 . S
C982 C981 1.524 . S
C982 C983 1.397 . S
C982 C987 1.363 . S
C983 H954 0.950 . S
C983 C982 1.397 . S
C983 C984 1.334 . S
C984 H955 0.950 . S
C984 C983 1.334 . S
C984 C985 1.287 . S
C985 C984 1.287 . S
C985 C986 1.524 . S
C985 H988 0.999 . S
C986 H956 0.950 . S
C986 C985 1.524 . S
C986 C987 1.415 . S
C987 H957 0.950 . S
C987 C982 1.363 . S
C987 C986 1.415 . S
H988 C985 0.999 . S
H989 C970 0.913 . S
H990 C1008 0.951 . S
H991 C1010 0.951 . S
H992 C1012 0.950 . S
H993 C1013 0.950 . S
H994 C1015 0.950 . S
H995 C1018 0.950 . S
H996 C1019 0.950 . S
H997 C1021 0.950 . S
H998 C1022 0.950 . S
H999 C1023 0.951 . S
H1000 C1025 0.951 . S
H1001 C1027 0.950 . S
H1002 C1028 0.950 . S
H1003 C1030 0.950 . S
H1004 C1033 0.950 . S
H1005 C1034 0.950 . S
H1006 C1036 0.950 . S
H1007 C1037 0.950 . S
C1008 H990 0.951 . S
C1008 C1009 1.366 . S
C1008 C1010 1.388 . S
C1009 C1008 1.366 . S
C1009 C1013 1.385 . S
C1010 H991 0.951 . S
C1010 C1008 1.388 . S
C1010 C1011 1.366 . S
C1011 C1010 1.366 . S
C1011 C1012 1.414 . S
C1011 C1014 1.499 . S
C1012 H992 0.950 . S
C1012 C1011 1.414 . S
C1012 C1013 1.374 . S
C1013 H993 0.950 . S
C1013 C1009 1.385 . S
C1013 C1012 1.374 . S
C1014 C1011 1.499 . S
C1014 C1015 1.373 . S
C1014 C1016 1.389 . S
C1015 H994 0.950 . S
C1015 C1014 1.373 . S
C1015 C1031 1.377 . S
C1016 C1014 1.389 . S
C1016 C1017 1.524 . S
C1016 C1030 1.377 . S
C1017 C1016 1.524 . S
C1017 C1018 1.397 . S
C1017 C1022 1.363 . S
C1018 H995 0.950 . S
C1018 C1017 1.397 . S
C1018 C1019 1.334 . S
C1019 H996 0.950 . S
C1019 C1018 1.334 . S
C1019 C1020 1.287 . S
C1020 C1019 1.287 . S
C1020 C1021 1.524 . S
C1020 H1039 0.913 . S
C1021 H997 0.950 . S
C1021 C1020 1.524 . S
C1021 C1022 1.415 . S
C1022 H998 0.950 . S
C1022 C1017 1.363 . S
C1022 C1021 1.415 . S
C1023 H999 0.951 . S
C1023 C1024 1.366 . S
C1023 C1025 1.388 . S
C1024 C1023 1.366 . S
C1024 C1028 1.385 . S
C1025 H1000 0.951 . S
C1025 C1023 1.388 . S
C1025 C1026 1.366 . S
C1026 C1025 1.366 . S
C1026 C1027 1.414 . S
C1026 C1029 1.499 . S
C1027 H1001 0.950 . S
C1027 C1026 1.414 . S
C1027 C1028 1.374 . S
C1028 H1002 0.950 . S
C1028 C1024 1.385 . S
C1028 C1027 1.374 . S
C1029 C1026 1.499 . S
C1029 C1030 1.373 . S
C1029 C1031 1.389 . S
C1030 H1003 0.950 . S
C1030 C1016 1.377 . S
C1030 C1029 1.373 . S
C1031 C1015 1.377 . S
C1031 C1029 1.389 . S
C1031 C1032 1.524 . S
C1032 C1031 1.524 . S
C1032 C1033 1.397 . S
C1032 C1037 1.363 . S
C1033 H1004 0.950 . S
C1033 C1032 1.397 . S
C1033 C1034 1.334 . S
C1034 H1005 0.950 . S
C1034 C1033 1.334 . S
C1034 C1035 1.287 . S
C1035 C1034 1.287 . S
C1035 C1036 1.524 . S
C1035 H1038 0.999 . S
C1036 H1006 0.950 . S
C1036 C1035 1.524 . S
C1036 C1037 1.415 . S
C1037 H1007 0.950 . S
C1037 C1032 1.363 . S
C1037 C1036 1.415 . S
H1038 C1035 0.999 . S
H1039 C1020 0.913 . S
H1040 C1058 0.951 . S
H1041 C1060 0.951 . S
H1042 C1062 0.950 . S
H1043 C1063 0.950 . S
H1044 C1065 0.950 . S
H1045 C1068 0.950 . S
H1046 C1069 0.950 . S
H1047 C1071 0.950 . S
H1048 C1072 0.950 . S
H1049 C1073 0.951 . S
H1050 C1075 0.951 . S
H1051 C1077 0.950 . S
H1052 C1078 0.950 . S
H1053 C1080 0.950 . S
H1054 C1083 0.950 . S
H1055 C1084 0.950 . S
H1056 C1086 0.950 . S
H1057 C1087 0.950 . S
C1058 H1040 0.951 . S
C1058 C1059 1.366 . S
C1058 C1060 1.388 . S
C1059 C1058 1.366 . S
C1059 C1063 1.385 . S
C1060 H1041 0.951 . S
C1060 C1058 1.388 . S
C1060 C1061 1.366 . S
C1061 C1060 1.366 . S
C1061 C1062 1.414 . S
C1061 C1064 1.499 . S
C1062 H1042 0.950 . S
C1062 C1061 1.414 . S
C1062 C1063 1.374 . S
C1063 H1043 0.950 . S
C1063 C1059 1.385 . S
C1063 C1062 1.374 . S
C1064 C1061 1.499 . S
C1064 C1065 1.373 . S
C1064 C1066 1.389 . S
C1065 H1044 0.950 . S
C1065 C1064 1.373 . S
C1065 C1081 1.377 . S
C1066 C1064 1.389 . S
C1066 C1067 1.524 . S
C1066 C1080 1.377 . S
C1067 C1066 1.524 . S
C1067 C1068 1.397 . S
C1067 C1072 1.363 . S
C1068 H1045 0.950 . S
C1068 C1067 1.397 . S
C1068 C1069 1.334 . S
C1069 H1046 0.950 . S
C1069 C1068 1.334 . S
C1069 C1070 1.287 . S
C1070 C1069 1.287 . S
C1070 C1071 1.524 . S
C1070 H1089 0.913 . S
C1071 H1047 0.950 . S
C1071 C1070 1.524 . S
C1071 C1072 1.415 . S
C1072 H1048 0.950 . S
C1072 C1067 1.363 . S
C1072 C1071 1.415 . S
C1073 H1049 0.951 . S
C1073 C1074 1.366 . S
C1073 C1075 1.388 . S
C1074 C1073 1.366 . S
C1074 C1078 1.385 . S
C1075 H1050 0.951 . S
C1075 C1073 1.388 . S
C1075 C1076 1.366 . S
C1076 C1075 1.366 . S
C1076 C1077 1.414 . S
C1076 C1079 1.499 . S
C1077 H1051 0.950 . S
C1077 C1076 1.414 . S
C1077 C1078 1.374 . S
C1078 H1052 0.950 . S
C1078 C1074 1.385 . S
C1078 C1077 1.374 . S
C1079 C1076 1.499 . S
C1079 C1080 1.373 . S
C1079 C1081 1.389 . S
C1080 H1053 0.950 . S
C1080 C1066 1.377 . S
C1080 C1079 1.373 . S
C1081 C1065 1.377 . S
C1081 C1079 1.389 . S
C1081 C1082 1.524 . S
C1082 C1081 1.524 . S
C1082 C1083 1.397 . S
C1082 C1087 1.363 . S
C1083 H1054 0.950 . S
C1083 C1082 1.397 . S
C1083 C1084 1.334 . S
C1084 H1055 0.950 . S
C1084 C1083 1.334 . S
C1084 C1085 1.287 . S
C1085 C1084 1.287 . S
C1085 C1086 1.524 . S
C1085 H1088 0.999 . S
C1086 H1056 0.950 . S
C1086 C1085 1.524 . S
C1086 C1087 1.415 . S
C1087 H1057 0.950 . S
C1087 C1082 1.363 . S
C1087 C1086 1.415 . S
H1088 C1085 0.999 . S
H1089 C1070 0.913 . S
H1090 C1108 0.951 . S
H1091 C1110 0.951 . S
H1092 C1112 0.950 . S
H1093 C1113 0.950 . S
H1094 C1115 0.950 . S
H1095 C1118 0.950 . S
H1096 C1119 0.950 . S
H1097 C1121 0.950 . S
H1098 C1122 0.950 . S
H1099 C1123 0.951 . S
H1100 C1125 0.951 . S
H1101 C1127 0.950 . S
H1102 C1128 0.950 . S
H1103 C1130 0.950 . S
H1104 C1133 0.950 . S
H1105 C1134 0.950 . S
H1106 C1136 0.950 . S
H1107 C1137 0.950 . S
C1108 H1090 0.951 . S
C1108 C1109 1.366 . S
C1108 C1110 1.388 . S
C1109 C1108 1.366 . S
C1109 C1113 1.385 . S
C1110 H1091 0.951 . S
C1110 C1108 1.388 . S
C1110 C1111 1.366 . S
C1111 C1110 1.366 . S
C1111 C1112 1.414 . S
C1111 C1114 1.499 . S
C1112 H1092 0.950 . S
C1112 C1111 1.414 . S
C1112 C1113 1.374 . S
C1113 H1093 0.950 . S
C1113 C1109 1.385 . S
C1113 C1112 1.374 . S
C1114 C1111 1.499 . S
C1114 C1115 1.373 . S
C1114 C1116 1.389 . S
C1115 H1094 0.950 . S
C1115 C1114 1.373 . S
C1115 C1131 1.377 . S
C1116 C1114 1.389 . S
C1116 C1117 1.524 . S
C1116 C1130 1.377 . S
C1117 C1116 1.524 . S
C1117 C1118 1.397 . S
C1117 C1122 1.363 . S
C1118 H1095 0.950 . S
C1118 C1117 1.397 . S
C1118 C1119 1.334 . S
C1119 H1096 0.950 . S
C1119 C1118 1.334 . S
C1119 C1120 1.287 . S
C1120 C1119 1.287 . S
C1120 C1121 1.524 . S
C1120 H1139 0.913 . S
C1121 H1097 0.950 . S
C1121 C1120 1.524 . S
C1121 C1122 1.415 . S
C1122 H1098 0.950 . S
C1122 C1117 1.363 . S
C1122 C1121 1.415 . S
C1123 H1099 0.951 . S
C1123 C1124 1.366 . S
C1123 C1125 1.388 1_556 S
C1124 C1123 1.366 . S
C1124 C1128 1.385 . S
C1125 H1100 0.951 . S
C1125 C1123 1.388 1_554 S
C1125 C1126 1.366 . S
C1126 C1125 1.366 . S
C1126 C1127 1.414 1_554 S
C1126 C1129 1.499 . S
C1127 H1101 0.950 . S
C1127 C1126 1.414 1_556 S
C1127 C1128 1.374 . S
C1128 H1102 0.950 . S
C1128 C1124 1.385 . S
C1128 C1127 1.374 . S
C1129 C1126 1.499 . S
C1129 C1130 1.373 . S
C1129 C1131 1.389 . S
C1130 H1103 0.950 . S
C1130 C1116 1.377 . S
C1130 C1129 1.373 . S
C1131 C1115 1.377 . S
C1131 C1129 1.389 . S
C1131 C1132 1.524 . S
C1132 C1131 1.524 . S
C1132 C1133 1.397 1_554 S
C1132 C1137 1.363 . S
C1133 H1104 0.950 . S
C1133 C1132 1.397 1_556 S
C1133 C1134 1.334 . S
C1134 H1105 0.950 . S
C1134 C1133 1.334 . S
C1134 C1135 1.287 . S
C1135 C1134 1.287 . S
C1135 C1136 1.524 1_556 S
C1135 H1138 0.999 . S
C1136 H1106 0.950 . S
C1136 C1135 1.524 1_554 S
C1136 C1137 1.415 . S
C1137 H1107 0.950 . S
C1137 C1132 1.363 . S
C1137 C1136 1.415 . S
H1138 C1135 0.999 . S
H1139 C1120 0.913 . S
C259 C209 1.381 . S
C274 C9 1.380 1_556 S
C309 C10 1.666 . S
C324 C50 1.666 . S
C359 C49 1.380 . S
C374 C89 1.380 . S
C409 C90 1.667 . S
C424 C130 1.667 . S
C459 C169 1.381 . S
C474 C129 1.380 . S
C509 C210 1.666 . S
C524 C170 1.666 . S
C559 C15 1.048 . S
C574 C6 1.048 . S
C609 C46 1.048 . S
C624 C55 1.048 . S
C659 C95 1.049 . S
C674 C86 1.049 1_554 S
C709 C126 1.049 . S
C724 C135 1.049 . S
C759 C166 1.050 . S
C774 C175 1.050 . S
C809 C206 1.048 . S
C824 C215 1.048 . S
C859 C18 1.799 . S
C874 C179 1.779 . S
C909 C59 1.779 . S
C924 C218 1.800 . S
C959 C19 1.779 . S
C974 C98 1.800 . S
C1009 C58 1.800 . S
C1024 C139 1.779 . S
C1059 C178 1.799 . S
C1074 C99 1.779 . S
C1109 C138 1.800 . S
C1124 C219 1.779 . S
