# Generated by pormake.
# Topology fcn, (5)-cn, num edge types: 1
# Building blocks:
#     Node 0, Type 0, BuildingBlock: XOMCOT_clean_sbu_1, # of connection points: 5
#     Node 1, Type 0, BuildingBlock: XOMCOT_clean_sbu_1, # of connection points: 5
#     Node 2, Type 0, BuildingBlock: XOMCOT_clean_sbu_1, # of connection points: 5
#     Node 3, Type 0, BuildingBlock: XOMCOT_clean_sbu_1, # of connection points: 5
#     Node 4, Type 0, BuildingBlock: XOMCOT_clean_sbu_1, # of connection points: 5
#     Node 5, Type 0, BuildingBlock: XOMCOT_clean_sbu_1, # of connection points: 5
#     Node 6, Type 0, BuildingBlock: XOMCOT_clean_sbu_1, # of connection points: 5
#     Node 7, Type 0, BuildingBlock: XOMCOT_clean_sbu_1, # of connection points: 5
#     Node 8, Type 0, BuildingBlock: XOMCOT_clean_sbu_1, # of connection points: 5
#     Node 9, Type 0, BuildingBlock: XOMCOT_clean_sbu_1, # of connection points: 5
#     Node 10, Type 0, BuildingBlock: XOMCOT_clean_sbu_1, # of connection points: 5
#     Node 11, Type 0, BuildingBlock: XOMCOT_clean_sbu_1, # of connection points: 5
#     Node 12, Type 0, BuildingBlock: XOMCOT_clean_sbu_1, # of connection points: 5
#     Node 13, Type 0, BuildingBlock: XOMCOT_clean_sbu_1, # of connection points: 5
#     Node 14, Type 0, BuildingBlock: XOMCOT_clean_sbu_1, # of connection points: 5
#     Node 15, Type 0, BuildingBlock: XOMCOT_clean_sbu_1, # of connection points: 5
#     Node 16, Type 0, BuildingBlock: XOMCOT_clean_sbu_1, # of connection points: 5
#     Node 17, Type 0, BuildingBlock: XOMCOT_clean_sbu_1, # of connection points: 5
#     Node 18, Type 0, BuildingBlock: XOMCOT_clean_sbu_1, # of connection points: 5
#     Node 19, Type 0, BuildingBlock: XOMCOT_clean_sbu_1, # of connection points: 5
#     Node 20, Type 0, BuildingBlock: XOMCOT_clean_sbu_1, # of connection points: 5
#     Node 21, Type 0, BuildingBlock: XOMCOT_clean_sbu_1, # of connection points: 5
#     Node 22, Type 0, BuildingBlock: XOMCOT_clean_sbu_1, # of connection points: 5
#     Node 23, Type 0, BuildingBlock: XOMCOT_clean_sbu_1, # of connection points: 5
#     Node 24, Type 0, BuildingBlock: XOMCOT_clean_sbu_1, # of connection points: 5
#     Node 25, Type 0, BuildingBlock: XOMCOT_clean_sbu_1, # of connection points: 5
#     Node 26, Type 0, BuildingBlock: XOMCOT_clean_sbu_1, # of connection points: 5
#     Node 27, Type 0, BuildingBlock: XOMCOT_clean_sbu_1, # of connection points: 5
#     Node 28, Type 0, BuildingBlock: XOMCOT_clean_sbu_1, # of connection points: 5
#     Node 29, Type 0, BuildingBlock: XOMCOT_clean_sbu_1, # of connection points: 5
#     Node 30, Type 0, BuildingBlock: XOMCOT_clean_sbu_1, # of connection points: 5
#     Node 31, Type 0, BuildingBlock: XOMCOT_clean_sbu_1, # of connection points: 5
#     Node 32, Type 0, BuildingBlock: XOMCOT_clean_sbu_1, # of connection points: 5
#     Node 33, Type 0, BuildingBlock: XOMCOT_clean_sbu_1, # of connection points: 5
#     Node 34, Type 0, BuildingBlock: XOMCOT_clean_sbu_1, # of connection points: 5
#     Node 35, Type 0, BuildingBlock: XOMCOT_clean_sbu_1, # of connection points: 5
#     Node 36, Type 0, BuildingBlock: XOMCOT_clean_sbu_1, # of connection points: 5
#     Node 37, Type 0, BuildingBlock: XOMCOT_clean_sbu_1, # of connection points: 5
#     Node 38, Type 0, BuildingBlock: XOMCOT_clean_sbu_1, # of connection points: 5
#     Node 39, Type 0, BuildingBlock: XOMCOT_clean_sbu_1, # of connection points: 5
#     Node 40, Type 0, BuildingBlock: XOMCOT_clean_sbu_1, # of connection points: 5
#     Node 41, Type 0, BuildingBlock: XOMCOT_clean_sbu_1, # of connection points: 5
#     Node 42, Type 0, BuildingBlock: XOMCOT_clean_sbu_1, # of connection points: 5
#     Node 43, Type 0, BuildingBlock: XOMCOT_clean_sbu_1, # of connection points: 5
#     Node 44, Type 0, BuildingBlock: XOMCOT_clean_sbu_1, # of connection points: 5
#     Node 45, Type 0, BuildingBlock: XOMCOT_clean_sbu_1, # of connection points: 5
#     Node 46, Type 0, BuildingBlock: XOMCOT_clean_sbu_1, # of connection points: 5
#     Node 47, Type 0, BuildingBlock: XOMCOT_clean_sbu_1, # of connection points: 5
#     Edge 48, Type (0, 0), BuildingBlock: XIVTED_clean_linker_0, # of connection points: 2
#     Edge 49, Type (0, 0), BuildingBlock: XIVTED_clean_linker_0, # of connection points: 2
#     Edge 50, Type (0, 0), BuildingBlock: XIVTED_clean_linker_0, # of connection points: 2
#     Edge 51, Type (0, 0), BuildingBlock: XIVTED_clean_linker_0, # of connection points: 2
#     Edge 52, Type (0, 0), BuildingBlock: XIVTED_clean_linker_0, # of connection points: 2
#     Edge 53, Type (0, 0), BuildingBlock: XIVTED_clean_linker_0, # of connection points: 2
#     Edge 54, Type (0, 0), BuildingBlock: XIVTED_clean_linker_0, # of connection points: 2
#     Edge 55, Type (0, 0), BuildingBlock: XIVTED_clean_linker_0, # of connection points: 2
#     Edge 56, Type (0, 0), BuildingBlock: XIVTED_clean_linker_0, # of connection points: 2
#     Edge 57, Type (0, 0), BuildingBlock: XIVTED_clean_linker_0, # of connection points: 2
#     Edge 58, Type (0, 0), BuildingBlock: XIVTED_clean_linker_0, # of connection points: 2
#     Edge 59, Type (0, 0), BuildingBlock: XIVTED_clean_linker_0, # of connection points: 2
#     Edge 60, Type (0, 0), BuildingBlock: XIVTED_clean_linker_0, # of connection points: 2
#     Edge 61, Type (0, 0), BuildingBlock: XIVTED_clean_linker_0, # of connection points: 2
#     Edge 62, Type (0, 0), BuildingBlock: XIVTED_clean_linker_0, # of connection points: 2
#     Edge 63, Type (0, 0), BuildingBlock: XIVTED_clean_linker_0, # of connection points: 2
#     Edge 64, Type (0, 0), BuildingBlock: XIVTED_clean_linker_0, # of connection points: 2
#     Edge 65, Type (0, 0), BuildingBlock: XIVTED_clean_linker_0, # of connection points: 2
#     Edge 66, Type (0, 0), BuildingBlock: XIVTED_clean_linker_0, # of connection points: 2
#     Edge 67, Type (0, 0), BuildingBlock: XIVTED_clean_linker_0, # of connection points: 2
#     Edge 68, Type (0, 0), BuildingBlock: XIVTED_clean_linker_0, # of connection points: 2
#     Edge 69, Type (0, 0), BuildingBlock: XIVTED_clean_linker_0, # of connection points: 2
#     Edge 70, Type (0, 0), BuildingBlock: XIVTED_clean_linker_0, # of connection points: 2
#     Edge 71, Type (0, 0), BuildingBlock: XIVTED_clean_linker_0, # of connection points: 2
#     Edge 72, Type (0, 0), BuildingBlock: XIVTED_clean_linker_0, # of connection points: 2
#     Edge 73, Type (0, 0), BuildingBlock: XIVTED_clean_linker_0, # of connection points: 2
#     Edge 74, Type (0, 0), BuildingBlock: XIVTED_clean_linker_0, # of connection points: 2
#     Edge 75, Type (0, 0), BuildingBlock: XIVTED_clean_linker_0, # of connection points: 2
#     Edge 76, Type (0, 0), BuildingBlock: XIVTED_clean_linker_0, # of connection points: 2
#     Edge 77, Type (0, 0), BuildingBlock: XIVTED_clean_linker_0, # of connection points: 2
#     Edge 78, Type (0, 0), BuildingBlock: XIVTED_clean_linker_0, # of connection points: 2
#     Edge 79, Type (0, 0), BuildingBlock: XIVTED_clean_linker_0, # of connection points: 2
#     Edge 80, Type (0, 0), BuildingBlock: XIVTED_clean_linker_0, # of connection points: 2
#     Edge 81, Type (0, 0), BuildingBlock: XIVTED_clean_linker_0, # of connection points: 2
#     Edge 82, Type (0, 0), BuildingBlock: XIVTED_clean_linker_0, # of connection points: 2
#     Edge 83, Type (0, 0), BuildingBlock: XIVTED_clean_linker_0, # of connection points: 2
#     Edge 84, Type (0, 0), BuildingBlock: XIVTED_clean_linker_0, # of connection points: 2
#     Edge 85, Type (0, 0), BuildingBlock: XIVTED_clean_linker_0, # of connection points: 2
#     Edge 86, Type (0, 0), BuildingBlock: XIVTED_clean_linker_0, # of connection points: 2
#     Edge 87, Type (0, 0), BuildingBlock: XIVTED_clean_linker_0, # of connection points: 2
#     Edge 88, Type (0, 0), BuildingBlock: XIVTED_clean_linker_0, # of connection points: 2
#     Edge 89, Type (0, 0), BuildingBlock: XIVTED_clean_linker_0, # of connection points: 2
#     Edge 90, Type (0, 0), BuildingBlock: XIVTED_clean_linker_0, # of connection points: 2
#     Edge 91, Type (0, 0), BuildingBlock: XIVTED_clean_linker_0, # of connection points: 2
#     Edge 92, Type (0, 0), BuildingBlock: XIVTED_clean_linker_0, # of connection points: 2
#     Edge 93, Type (0, 0), BuildingBlock: XIVTED_clean_linker_0, # of connection points: 2
#     Edge 94, Type (0, 0), BuildingBlock: XIVTED_clean_linker_0, # of connection points: 2
#     Edge 95, Type (0, 0), BuildingBlock: XIVTED_clean_linker_0, # of connection points: 2
#     Edge 96, Type (0, 0), BuildingBlock: XIVTED_clean_linker_0, # of connection points: 2
#     Edge 97, Type (0, 0), BuildingBlock: XIVTED_clean_linker_0, # of connection points: 2
#     Edge 98, Type (0, 0), BuildingBlock: XIVTED_clean_linker_0, # of connection points: 2
#     Edge 99, Type (0, 0), BuildingBlock: XIVTED_clean_linker_0, # of connection points: 2
#     Edge 100, Type (0, 0), BuildingBlock: XIVTED_clean_linker_0, # of connection points: 2
#     Edge 101, Type (0, 0), BuildingBlock: XIVTED_clean_linker_0, # of connection points: 2
#     Edge 102, Type (0, 0), BuildingBlock: XIVTED_clean_linker_0, # of connection points: 2
#     Edge 103, Type (0, 0), BuildingBlock: XIVTED_clean_linker_0, # of connection points: 2
#     Edge 104, Type (0, 0), BuildingBlock: XIVTED_clean_linker_0, # of connection points: 2
#     Edge 105, Type (0, 0), BuildingBlock: XIVTED_clean_linker_0, # of connection points: 2
#     Edge 106, Type (0, 0), BuildingBlock: XIVTED_clean_linker_0, # of connection points: 2
#     Edge 107, Type (0, 0), BuildingBlock: XIVTED_clean_linker_0, # of connection points: 2
#     Edge 108, Type (0, 0), BuildingBlock: XIVTED_clean_linker_0, # of connection points: 2
#     Edge 109, Type (0, 0), BuildingBlock: XIVTED_clean_linker_0, # of connection points: 2
#     Edge 110, Type (0, 0), BuildingBlock: XIVTED_clean_linker_0, # of connection points: 2
#     Edge 111, Type (0, 0), BuildingBlock: XIVTED_clean_linker_0, # of connection points: 2
#     Edge 112, Type (0, 0), BuildingBlock: XIVTED_clean_linker_0, # of connection points: 2
#     Edge 113, Type (0, 0), BuildingBlock: XIVTED_clean_linker_0, # of connection points: 2
#     Edge 114, Type (0, 0), BuildingBlock: XIVTED_clean_linker_0, # of connection points: 2
#     Edge 115, Type (0, 0), BuildingBlock: XIVTED_clean_linker_0, # of connection points: 2
#     Edge 116, Type (0, 0), BuildingBlock: XIVTED_clean_linker_0, # of connection points: 2
#     Edge 117, Type (0, 0), BuildingBlock: XIVTED_clean_linker_0, # of connection points: 2
#     Edge 118, Type (0, 0), BuildingBlock: XIVTED_clean_linker_0, # of connection points: 2
#     Edge 119, Type (0, 0), BuildingBlock: XIVTED_clean_linker_0, # of connection points: 2
#     Edge 120, Type (0, 0), BuildingBlock: XIVTED_clean_linker_0, # of connection points: 2
#     Edge 121, Type (0, 0), BuildingBlock: XIVTED_clean_linker_0, # of connection points: 2
#     Edge 122, Type (0, 0), BuildingBlock: XIVTED_clean_linker_0, # of connection points: 2
#     Edge 123, Type (0, 0), BuildingBlock: XIVTED_clean_linker_0, # of connection points: 2
#     Edge 124, Type (0, 0), BuildingBlock: XIVTED_clean_linker_0, # of connection points: 2
#     Edge 125, Type (0, 0), BuildingBlock: XIVTED_clean_linker_0, # of connection points: 2
#     Edge 126, Type (0, 0), BuildingBlock: XIVTED_clean_linker_0, # of connection points: 2
#     Edge 127, Type (0, 0), BuildingBlock: XIVTED_clean_linker_0, # of connection points: 2
#     Edge 128, Type (0, 0), BuildingBlock: XIVTED_clean_linker_0, # of connection points: 2
#     Edge 129, Type (0, 0), BuildingBlock: XIVTED_clean_linker_0, # of connection points: 2
#     Edge 130, Type (0, 0), BuildingBlock: XIVTED_clean_linker_0, # of connection points: 2
#     Edge 131, Type (0, 0), BuildingBlock: XIVTED_clean_linker_0, # of connection points: 2
#     Edge 132, Type (0, 0), BuildingBlock: XIVTED_clean_linker_0, # of connection points: 2
#     Edge 133, Type (0, 0), BuildingBlock: XIVTED_clean_linker_0, # of connection points: 2
#     Edge 134, Type (0, 0), BuildingBlock: XIVTED_clean_linker_0, # of connection points: 2
#     Edge 135, Type (0, 0), BuildingBlock: XIVTED_clean_linker_0, # of connection points: 2
#     Edge 136, Type (0, 0), BuildingBlock: XIVTED_clean_linker_0, # of connection points: 2
#     Edge 137, Type (0, 0), BuildingBlock: XIVTED_clean_linker_0, # of connection points: 2
#     Edge 138, Type (0, 0), BuildingBlock: XIVTED_clean_linker_0, # of connection points: 2
#     Edge 139, Type (0, 0), BuildingBlock: XIVTED_clean_linker_0, # of connection points: 2
#     Edge 140, Type (0, 0), BuildingBlock: XIVTED_clean_linker_0, # of connection points: 2
#     Edge 141, Type (0, 0), BuildingBlock: XIVTED_clean_linker_0, # of connection points: 2
#     Edge 142, Type (0, 0), BuildingBlock: XIVTED_clean_linker_0, # of connection points: 2
#     Edge 143, Type (0, 0), BuildingBlock: XIVTED_clean_linker_0, # of connection points: 2
#     Edge 144, Type (0, 0), BuildingBlock: XIVTED_clean_linker_0, # of connection points: 2
#     Edge 145, Type (0, 0), BuildingBlock: XIVTED_clean_linker_0, # of connection points: 2
#     Edge 146, Type (0, 0), BuildingBlock: XIVTED_clean_linker_0, # of connection points: 2
#     Edge 147, Type (0, 0), BuildingBlock: XIVTED_clean_linker_0, # of connection points: 2
#     Edge 148, Type (0, 0), BuildingBlock: XIVTED_clean_linker_0, # of connection points: 2
#     Edge 149, Type (0, 0), BuildingBlock: XIVTED_clean_linker_0, # of connection points: 2
#     Edge 150, Type (0, 0), BuildingBlock: XIVTED_clean_linker_0, # of connection points: 2
#     Edge 151, Type (0, 0), BuildingBlock: XIVTED_clean_linker_0, # of connection points: 2
#     Edge 152, Type (0, 0), BuildingBlock: XIVTED_clean_linker_0, # of connection points: 2
#     Edge 153, Type (0, 0), BuildingBlock: XIVTED_clean_linker_0, # of connection points: 2
#     Edge 154, Type (0, 0), BuildingBlock: XIVTED_clean_linker_0, # of connection points: 2
#     Edge 155, Type (0, 0), BuildingBlock: XIVTED_clean_linker_0, # of connection points: 2
#     Edge 156, Type (0, 0), BuildingBlock: XIVTED_clean_linker_0, # of connection points: 2
#     Edge 157, Type (0, 0), BuildingBlock: XIVTED_clean_linker_0, # of connection points: 2
#     Edge 158, Type (0, 0), BuildingBlock: XIVTED_clean_linker_0, # of connection points: 2
#     Edge 159, Type (0, 0), BuildingBlock: XIVTED_clean_linker_0, # of connection points: 2
#     Edge 160, Type (0, 0), BuildingBlock: XIVTED_clean_linker_0, # of connection points: 2
#     Edge 161, Type (0, 0), BuildingBlock: XIVTED_clean_linker_0, # of connection points: 2
#     Edge 162, Type (0, 0), BuildingBlock: XIVTED_clean_linker_0, # of connection points: 2
#     Edge 163, Type (0, 0), BuildingBlock: XIVTED_clean_linker_0, # of connection points: 2
#     Edge 164, Type (0, 0), BuildingBlock: XIVTED_clean_linker_0, # of connection points: 2
#     Edge 165, Type (0, 0), BuildingBlock: XIVTED_clean_linker_0, # of connection points: 2
#     Edge 166, Type (0, 0), BuildingBlock: XIVTED_clean_linker_0, # of connection points: 2
#     Edge 167, Type (0, 0), BuildingBlock: XIVTED_clean_linker_0, # of connection points: 2
# Relax obj value: 0.272
# Max RMSD: 0.219
# Mean RMSD: 0.219
data_MOF--net-fcn--node1-XOMCOT_clean_sbu_1--edge1-XIVTED_clean_linker_0
_symmetry_space_group_name_H-M    P1
_symmetry_Int_Tables_number       1
_symmetry_cell_setting            triclinic
loop_
_symmetry_equiv_pos_as_xyz
'x, y, z'
_cell_length_a     74.36046
_cell_length_b     74.32675
_cell_length_c     74.341574
_cell_angle_alpha  89.942598
_cell_angle_beta   89.98008
_cell_angle_gamma 89.954857
loop_
_atom_site_label
_atom_site_type_symbol
_atom_site_fract_x
_atom_site_fract_y
_atom_site_fract_z
_atom_type_partial_charge
C0 C 0.09592 0.223 0.28924 0.0
C1 C 0.08109 0.23405 0.2887 0.0
N2 N 0.06799 0.22557 0.27949 0.0
N3 N 0.09221 0.20763 0.28042 0.0
C4 C 0.07514 0.2096 0.27455 0.0
H5 H 0.10851 0.22578 0.29597 0.0
Co6 Co 0.10815 0.18856 0.27841 0.0
C7 C 0.08317 0.15742 0.27214 0.0
O8 O 0.08907 0.14868 0.28628 0.0
N9 N 0.12492 0.16908 0.27624 0.0
C10 C 0.14172 0.14461 0.28124 0.0
C11 C 0.1273 0.15455 0.28705 0.0
C12 C 0.1381 0.16727 0.26376 0.0
N13 N 0.14846 0.15266 0.26657 0.0
O14 O 0.11379 0.19643 0.25468 0.0
H15 H 0.11953 0.15141 0.29891 0.0
H16 H 0.14075 0.17679 0.25313 0.0
O17 O 0.08934 0.17302 0.26827 0.0
C18 C 0.12591 0.20852 0.25411 0.0
O19 O 0.13342 0.21369 0.26924 0.0
N20 N 0.10318 0.18251 0.30234 0.0
C21 C 0.10001 0.17134 0.33789 0.0
C22 C 0.0847 0.17289 0.32689 0.0
C23 C 0.08654 0.17881 0.30914 0.0
C24 C 0.11757 0.18392 0.31358 0.0
C25 C 0.11643 0.17793 0.3313 0.0
H26 H 0.07477 0.17964 0.30066 0.0
H27 H 0.13038 0.18838 0.30832 0.0
H28 H 0.06803 0.19948 0.26692 0.0
H29 H 0.07988 0.24704 0.29515 0.0
H30 H 0.14709 0.13262 0.28755 0.0
H31 H 0.07154 0.16888 0.33168 0.0
H32 H 0.12862 0.17735 0.33924 0.0
C33 C 0.05212 0.80647 0.52331 0.0
C34 C 0.04096 0.79256 0.52768 0.0
N35 N 0.04488 0.77867 0.51691 0.0
N36 N 0.06337 0.80152 0.50981 0.0
C37 C 0.05833 0.78436 0.50608 0.0
H38 H 0.05209 0.81929 0.53011 0.0
Co39 Co 0.08257 0.81571 0.50028 0.0
C40 C 0.09707 0.78766 0.48404 0.0
O41 O 0.10312 0.78667 0.50063 0.0
N42 N 0.10129 0.82974 0.49114 0.0
C43 C 0.12846 0.84137 0.48641 0.0
C44 C 0.1191 0.8264 0.49217 0.0
C45 C 0.10017 0.84667 0.48464 0.0
N46 N 0.11645 0.85416 0.4819 0.0
O47 O 0.06517 0.82953 0.48614 0.0
H48 H 0.12496 0.81431 0.49775 0.0
H49 H 0.08765 0.85381 0.48276 0.0
O50 O 0.08537 0.79967 0.48036 0.0
C51 C 0.05053 0.83823 0.48844 0.0
O52 O 0.04356 0.83996 0.50455 0.0
N53 N 0.08211 0.83056 0.52054 0.0
C54 C 0.08692 0.84685 0.55397 0.0
C55 C 0.09177 0.82886 0.5512 0.0
C56 C 0.08949 0.82111 0.53439 0.0
C57 C 0.07791 0.84834 0.52257 0.0
C58 C 0.08005 0.85673 0.53934 0.0
H59 H 0.09361 0.80731 0.53227 0.0
H60 H 0.07324 0.85622 0.5113 0.0
H61 H 0.06466 0.77592 0.49609 0.0
H62 H 0.0308 0.79258 0.53813 0.0
H63 H 0.14291 0.84313 0.48671 0.0
H64 H 0.09784 0.8209 0.56179 0.0
H65 H 0.07652 0.87079 0.54079 0.0
C66 C 0.38085 0.77328 0.79302 0.0
C67 C 0.39479 0.76114 0.793 0.0
N68 N 0.40791 0.7676 0.78228 0.0
N69 N 0.38519 0.78732 0.78243 0.0
C70 C 0.40169 0.78346 0.77594 0.0
H71 H 0.3684 0.77212 0.80046 0.0
Co72 Co 0.37032 0.80687 0.77862 0.0
C73 C 0.39796 0.83644 0.77396 0.0
O74 O 0.39252 0.84538 0.78814 0.0
N75 N 0.35431 0.82637 0.7744 0.0
C76 C 0.3393 0.85241 0.77413 0.0
C77 C 0.35319 0.84296 0.78186 0.0
C78 C 0.34046 0.82603 0.76258 0.0
N79 N 0.33133 0.84168 0.76201 0.0
O80 O 0.36693 0.79898 0.75456 0.0
H81 H 0.36126 0.84783 0.79285 0.0
H82 H 0.33703 0.81456 0.75439 0.0
O83 O 0.39057 0.82147 0.76974 0.0
C84 C 0.35765 0.78514 0.75072 0.0
O85 O 0.34976 0.77612 0.76372 0.0
N86 N 0.37385 0.8138 0.80268 0.0
C87 C 0.37847 0.82531 0.83799 0.0
C88 C 0.39332 0.82027 0.82752 0.0
C89 C 0.39072 0.81448 0.80993 0.0
C90 C 0.35916 0.81646 0.81331 0.0
C91 C 0.36115 0.82267 0.83092 0.0
H92 H 0.40237 0.81117 0.80191 0.0
H93 H 0.34581 0.81459 0.80785 0.0
H94 H 0.40898 0.79209 0.76677 0.0
H95 H 0.39541 0.74878 0.80067 0.0
H96 H 0.33505 0.86591 0.77756 0.0
H97 H 0.4069 0.82132 0.83265 0.0
H98 H 0.34923 0.82616 0.83853 0.0
C99 C 0.47912 0.1665 0.03504 0.0
C100 C 0.49217 0.17944 0.03703 0.0
N101 N 0.48638 0.19462 0.02898 0.0
N102 N 0.46513 0.17358 0.02594 0.0
C103 C 0.47002 0.19066 0.0222 0.0
H104 H 0.47949 0.15297 0.04039 0.0
Co105 Co 0.44383 0.16146 0.0218 0.0
C106 C 0.42136 0.19648 0.02113 0.0
O107 O 0.417 0.19759 0.03819 0.0
N108 N 0.42233 0.14903 0.01739 0.0
C109 C 0.39369 0.14034 0.01682 0.0
C110 C 0.40519 0.15438 0.0203 0.0
C111 C 0.42087 0.1317 0.01224 0.0
N112 N 0.40365 0.12606 0.01192 0.0
O113 O 0.45034 0.15893 0.99718 0.0
H114 H 0.40118 0.16728 0.02557 0.0
H115 H 0.43227 0.12311 0.00951 0.0
O116 O 0.43124 0.18361 0.01543 0.0
C117 C 0.46009 0.14509 0.99468 0.0
O118 O 0.46439 0.13505 0.0086 0.0
N119 N 0.43856 0.16237 0.04652 0.0
C120 C 0.43338 0.15805 0.08347 0.0
C121 C 0.43798 0.17493 0.0763 0.0
C122 C 0.441 0.17669 0.05777 0.0
C123 C 0.43545 0.14571 0.05356 0.0
C124 C 0.43243 0.14332 0.07181 0.0
H125 H 0.4456 0.18945 0.05254 0.0
H126 H 0.43559 0.13398 0.04504 0.0
H127 H 0.46145 0.20029 0.01544 0.0
H128 H 0.50477 0.17792 0.04416 0.0
H129 H 0.37926 0.14032 0.01874 0.0
H130 H 0.43946 0.18656 0.08494 0.0
H131 H 0.42906 0.12998 0.07662 0.0
C132 C 0.07867 0.80804 0.19216 0.0
C133 C 0.06721 0.79357 0.19311 0.0
N134 N 0.05996 0.79315 0.20966 0.0
N135 N 0.07872 0.81687 0.20809 0.0
C136 C 0.06722 0.80726 0.21846 0.0
H137 H 0.08646 0.81149 0.18045 0.0
Co138 Co 0.09142 0.83767 0.21577 0.0
C139 C 0.06159 0.85301 0.23015 0.0
O140 O 0.0612 0.86019 0.214 0.0
N141 N 0.10352 0.85818 0.22326 0.0
C142 C 0.11445 0.88593 0.22194 0.0
C143 C 0.10192 0.87425 0.215 0.0
C144 C 0.11689 0.86043 0.23537 0.0
N145 N 0.12384 0.87719 0.23472 0.0
O146 O 0.10476 0.82276 0.23262 0.0
H147 H 0.09286 0.87699 0.20396 0.0
H148 H 0.1223 0.84972 0.24362 0.0
O149 O 0.07395 0.8418 0.23395 0.0
C150 C 0.11185 0.80724 0.23064 0.0
O151 O 0.11183 0.79937 0.21483 0.0
N152 N 0.10841 0.83544 0.19736 0.0
C153 C 0.13194 0.845 0.16975 0.0
C154 C 0.11329 0.84663 0.16754 0.0
C155 C 0.10185 0.84215 0.18164 0.0
C156 C 0.12654 0.83336 0.19971 0.0
C157 C 0.13852 0.83776 0.18591 0.0
H158 H 0.08764 0.84511 0.18049 0.0
H159 H 0.13203 0.82991 0.21268 0.0
H160 H 0.06435 0.81037 0.23237 0.0
H161 H 0.06416 0.78433 0.18229 0.0
H162 H 0.11691 0.89959 0.21749 0.0
H163 H 0.10759 0.85282 0.15564 0.0
H164 H 0.15284 0.83669 0.18832 0.0
C165 C 0.46666 0.83543 0.45192 0.0
C166 C 0.47644 0.8204 0.44718 0.0
N167 N 0.47187 0.80684 0.45833 0.0
N168 N 0.45592 0.83129 0.46592 0.0
C169 C 0.45936 0.81383 0.4695 0.0
H170 H 0.46779 0.84867 0.44598 0.0
Co171 Co 0.4422 0.84691 0.47969 0.0
C172 C 0.40695 0.82878 0.48355 0.0
O173 O 0.39892 0.84391 0.47912 0.0
N174 N 0.42874 0.86269 0.49461 0.0
C175 C 0.41414 0.87114 0.51939 0.0
C176 C 0.42134 0.85694 0.5102 0.0
C177 C 0.42631 0.8808 0.49506 0.0
N178 N 0.41733 0.88625 0.50996 0.0
O179 O 0.45451 0.83912 0.50056 0.0
H180 H 0.4216 0.84319 0.51498 0.0
H181 H 0.43176 0.89002 0.4853 0.0
O182 O 0.42415 0.82795 0.48367 0.0
C183 C 0.46953 0.84646 0.504 0.0
O184 O 0.47654 0.85749 0.49209 0.0
N185 N 0.43092 0.85526 0.45862 0.0
C186 C 0.41548 0.87033 0.42794 0.0
C187 C 0.41278 0.85211 0.43213 0.0
C188 C 0.421 0.84471 0.44732 0.0
C189 C 0.43534 0.87231 0.45358 0.0
C190 C 0.42741 0.8803 0.43856 0.0
H191 H 0.41928 0.83054 0.45001 0.0
H192 H 0.44526 0.87971 0.46117 0.0
H193 H 0.45355 0.80671 0.4808 0.0
H194 H 0.4864 0.81967 0.43658 0.0
H195 H 0.40726 0.8703 0.53218 0.0
H196 H 0.40409 0.84372 0.42402 0.0
H197 H 0.43068 0.89411 0.43525 0.0
C198 C 0.41057 0.19225 0.71357 0.0
C199 C 0.42543 0.2027 0.71068 0.0
N200 N 0.43964 0.19434 0.71808 0.0
N201 N 0.41535 0.17718 0.72259 0.0
C202 C 0.43325 0.17895 0.7253 0.0
H203 H 0.39717 0.19531 0.7089 0.0
Co204 Co 0.3996 0.15842 0.72874 0.0
C205 C 0.42277 0.13991 0.74811 0.0
O206 O 0.42214 0.1314 0.73264 0.0
N207 N 0.38353 0.14016 0.73512 0.0
C208 C 0.36643 0.11562 0.73469 0.0
C209 C 0.38091 0.12422 0.72685 0.0
C210 C 0.37071 0.14084 0.74798 0.0
N211 N 0.35996 0.12628 0.74784 0.0
O212 O 0.38524 0.17562 0.74175 0.0
H213 H 0.38857 0.11953 0.71541 0.0
H214 H 0.36897 0.15195 0.75716 0.0
O215 O 0.41305 0.1539 0.75014 0.0
C216 C 0.37443 0.18891 0.74258 0.0
O217 O 0.36856 0.19669 0.72785 0.0
N218 N 0.38763 0.16111 0.70691 0.0
C219 C 0.375 0.15747 0.67179 0.0
C220 C 0.39325 0.15518 0.6758 0.0
C221 C 0.39917 0.15675 0.69338 0.0
C222 C 0.36974 0.16339 0.70358 0.0
C223 C 0.36313 0.16179 0.68594 0.0
H224 H 0.41308 0.15378 0.69642 0.0
H225 H 0.36045 0.16547 0.71456 0.0
H226 H 0.44152 0.16905 0.73205 0.0
H227 H 0.4258 0.21551 0.70375 0.0
H228 H 0.36058 0.10298 0.73047 0.0
H229 H 0.40284 0.15102 0.66564 0.0
H230 H 0.34885 0.16326 0.68352 0.0
C231 C 0.04232 0.18456 0.97697 0.0
C232 C 0.02961 0.19762 0.97399 0.0
N233 N 0.03539 0.2129 0.98164 0.0
N234 N 0.05626 0.19152 0.9864 0.0
C235 C 0.05142 0.20889 0.98913 0.0
H236 H 0.04175 0.17115 0.97146 0.0
Co237 Co 0.07867 0.18031 0.99156 0.0
C238 C 0.09318 0.21039 0.00388 0.0
O239 O 0.09596 0.2116 0.98646 0.0
N240 N 0.10074 0.16959 0.99629 0.0
C241 C 0.12852 0.16001 0.99098 0.0
C242 C 0.11542 0.17208 0.98594 0.0
C243 C 0.10529 0.15626 0.00778 0.0
N244 N 0.12208 0.15009 0.0047 0.0
O245 O 0.06684 0.1654 0.00976 0.0
H246 H 0.1161 0.18131 0.9747 0.0
H247 H 0.09606 0.15015 0.01724 0.0
O248 O 0.08374 0.1974 0.00985 0.0
C249 C 0.05384 0.1542 0.01073 0.0
O250 O 0.0453 0.14925 0.99612 0.0
N251 N 0.07571 0.16422 0.97252 0.0
C252 C 0.08604 0.14539 0.94169 0.0
C253 C 0.08272 0.16397 0.94105 0.0
C254 C 0.07768 0.17308 0.9566 0.0
C255 C 0.07778 0.14599 0.97335 0.0
C256 C 0.08258 0.13626 0.95795 0.0
H257 H 0.07706 0.18762 0.95634 0.0
H258 H 0.07746 0.1391 0.98614 0.0
H259 H 0.05983 0.21883 0.99553 0.0
H260 H 0.0174 0.19618 0.9662 0.0
H261 H 0.14143 0.1581 0.98454 0.0
H262 H 0.08558 0.17183 0.92914 0.0
H263 H 0.08478 0.12192 0.95915 0.0
C264 C 0.30216 0.10618 0.22677 0.0
C265 C 0.30013 0.09177 0.23815 0.0
N266 N 0.29236 0.0783 0.2289 0.0
N267 N 0.29569 0.10185 0.2104 0.0
C268 C 0.28983 0.08474 0.2121 0.0
H269 H 0.3079 0.11907 0.23024 0.0
Co270 Co 0.29495 0.11784 0.19124 0.0
C271 C 0.28831 0.09536 0.15809 0.0
O272 O 0.29768 0.10597 0.14757 0.0
N273 N 0.29439 0.13491 0.17201 0.0
C274 C 0.30274 0.15321 0.14972 0.0
C275 C 0.30802 0.13952 0.16079 0.0
C276 C 0.28094 0.14636 0.16735 0.0
N277 N 0.28575 0.15765 0.15392 0.0
O278 O 0.27029 0.12215 0.19634 0.0
H279 H 0.32116 0.13344 0.16033 0.0
H280 H 0.26809 0.14703 0.17409 0.0
O281 O 0.28739 0.09851 0.17498 0.0
C282 C 0.26772 0.13314 0.20919 0.0
O283 O 0.28167 0.14116 0.21646 0.0
N284 N 0.31943 0.11421 0.18785 0.0
C285 C 0.35544 0.11968 0.17999 0.0
C286 C 0.34634 0.10455 0.17313 0.0
C287 C 0.32822 0.10184 0.17754 0.0
C288 C 0.32867 0.12739 0.19653 0.0
C289 C 0.34677 0.13026 0.19295 0.0
H290 H 0.32112 0.09068 0.17162 0.0
H291 H 0.32152 0.1367 0.20511 0.0
H292 H 0.28353 0.07725 0.20139 0.0
H293 H 0.30428 0.09121 0.25209 0.0
H294 H 0.31092 0.15955 0.13948 0.0
H295 H 0.3526 0.0958 0.16332 0.0
H296 H 0.35345 0.14162 0.19914 0.0
C297 C 0.15003 0.03286 0.47194 0.0
C298 C 0.16454 0.03516 0.48318 0.0
N299 N 0.17822 0.02519 0.47678 0.0
N300 N 0.15476 0.0218 0.45836 0.0
C301 C 0.17195 0.01713 0.46181 0.0
H302 H 0.137 0.0392 0.47328 0.0
Co303 Co 0.14035 0.01569 0.43901 0.0
C304 C 0.17079 0.02129 0.41093 0.0
O305 O 0.16662 0.03728 0.40473 0.0
N306 N 0.12574 0.00944 0.41956 0.0
C307 C 0.11165 0.01039 0.39322 0.0
C308 C 0.12618 0.01647 0.40279 0.0
C309 C 0.11091 0.99897 0.41979 0.0
N310 N 0.10211 0.9994 0.40394 0.0
O311 O 0.14344 0.99083 0.44456 0.0
H312 H 0.13565 0.02639 0.39813 0.0
H313 H 0.10598 0.99213 0.43166 0.0
O314 O 0.16137 0.01379 0.42322 0.0
C315 C 0.13373 0.98514 0.45746 0.0
O316 O 0.12333 0.99668 0.46591 0.0
N317 N 0.13596 0.04015 0.43455 0.0
C318 C 0.12421 0.07446 0.42522 0.0
C319 C 0.14268 0.07083 0.42725 0.0
C320 C 0.14826 0.05361 0.43257 0.0
C321 C 0.11809 0.04415 0.43515 0.0
C322 C 0.11191 0.06116 0.43049 0.0
H323 H 0.16242 0.05091 0.43449 0.0
H324 H 0.10847 0.03381 0.43864 0.0
H325 H 0.17991 0.00846 0.45324 0.0
H326 H 0.16506 0.04358 0.49505 0.0
H327 H 0.10796 0.01428 0.37967 0.0
H328 H 0.15275 0.08082 0.42401 0.0
H329 H 0.09756 0.06361 0.43037 0.0
C330 C 0.19696 0.91147 0.70946 0.0
C331 C 0.19822 0.92249 0.72421 0.0
N332 N 0.20789 0.93707 0.7196 0.0
N333 N 0.20578 0.91895 0.69541 0.0
C334 C 0.21225 0.93459 0.70211 0.0
H335 H 0.18964 0.89894 0.70905 0.0
Co336 Co 0.20864 0.90935 0.67194 0.0
C337 C 0.22655 0.93727 0.65951 0.0
O338 O 0.20965 0.94164 0.65667 0.0
N339 N 0.21163 0.90009 0.64885 0.0
C340 C 0.20583 0.89323 0.62038 0.0
C341 C 0.20093 0.90389 0.6347 0.0
C342 C 0.22321 0.88749 0.64274 0.0
N343 N 0.21985 0.88295 0.6255 0.0
O344 O 0.22341 0.89053 0.68227 0.0
H345 H 0.18977 0.91322 0.63509 0.0
H346 H 0.23326 0.88099 0.65104 0.0
O347 O 0.22992 0.92298 0.66832 0.0
C348 C 0.22235 0.87706 0.69286 0.0
O349 O 0.2067 0.87178 0.6991 0.0
N350 N 0.18687 0.89677 0.67374 0.0
C351 C 0.15369 0.88592 0.66027 0.0
C352 C 0.15571 0.90289 0.6682 0.0
C353 C 0.1725 0.90813 0.67462 0.0
C354 C 0.18472 0.8795 0.66784 0.0
C355 C 0.16813 0.87376 0.66114 0.0
H356 H 0.17447 0.92203 0.67843 0.0
H357 H 0.19627 0.87087 0.66602 0.0
H358 H 0.2202 0.94398 0.6944 0.0
H359 H 0.19208 0.92009 0.73719 0.0
H360 H 0.19928 0.89271 0.60739 0.0
H361 H 0.14488 0.91264 0.6679 0.0
H362 H 0.16727 0.86065 0.65487 0.0
C363 C 0.35194 0.95045 0.9784 0.0
C364 C 0.33688 0.94792 0.98892 0.0
N365 N 0.32558 0.96179 0.98596 0.0
N366 N 0.34987 0.96568 0.96873 0.0
C367 C 0.33375 0.97227 0.97366 0.0
H368 H 0.36376 0.94197 0.97808 0.0
Co369 Co 0.36587 0.97692 0.95343 0.0
C370 C 0.34574 0.98396 0.92001 0.0
O371 O 0.3596 0.97789 0.91086 0.0
N372 N 0.38209 0.9893 0.93826 0.0
C373 C 0.39182 0.01252 0.92196 0.0
C374 C 0.37812 0.00609 0.93235 0.0
C375 C 0.39883 0.98616 0.93169 0.0
N376 N 0.40481 -0.0 0.92153 0.0
O377 O 0.36268 0.99856 0.96636 0.0
H378 H 0.36588 0.01333 0.93542 0.0
H379 H 0.40664 0.97419 0.93421 0.0
O380 O 0.34608 0.98378 0.93724 0.0
C381 C 0.3727 0.00081 0.97999 0.0
O382 O 0.38347 0.98768 0.98493 0.0
N383 N 0.36949 0.95494 0.94166 0.0
C384 C 0.37579 0.92052 0.92831 0.0
C385 C 0.35882 0.92854 0.92659 0.0
C386 C 0.35583 0.94558 0.93371 0.0
C387 C 0.38563 0.9468 0.94467 0.0
C388 C 0.38925 0.92974 0.93772 0.0
H389 H 0.34236 0.95099 0.93322 0.0
H390 H 0.39558 0.95337 0.95296 0.0
H391 H 0.32822 0.98471 0.96847 0.0
H392 H 0.33468 0.93711 0.99843 0.0
H393 H 0.39241 0.0256 0.91558 0.0
H394 H 0.34792 0.92177 0.9197 0.0
H395 H 0.40232 0.9237 0.93998 0.0
C396 C 0.28661 0.92812 0.28687 0.0
C397 C 0.2895 0.94237 0.27546 0.0
N398 N 0.27895 0.95613 0.28077 0.0
N399 N 0.27434 0.93288 0.29932 0.0
C400 C 0.26986 0.95 0.29527 0.0
H401 H 0.29305 0.91508 0.28622 0.0
Co402 Co 0.26593 0.91752 0.317 0.0
C403 C 0.2618 0.94705 0.34558 0.0
O404 O 0.27658 0.94371 0.35461 0.0
N405 N 0.25721 0.90166 0.33427 0.0
C406 C 0.2495 0.88687 0.35907 0.0
C407 C 0.25598 0.90285 0.35236 0.0
C408 C 0.25144 0.88495 0.33034 0.0
N409 N 0.24677 0.87561 0.34517 0.0
O410 O 0.24276 0.91734 0.30589 0.0
H411 H 0.2601 0.91418 0.36036 0.0
H412 H 0.25113 0.87963 0.3168 0.0
O413 O 0.25766 0.93774 0.33172 0.0
C414 C 0.24088 0.90921 0.29095 0.0
O415 O 0.25499 0.90184 0.28329 0.0
N416 N 0.28918 0.91662 0.3272 0.0
C417 C 0.32362 0.91174 0.34129 0.0
C418 C 0.31733 0.92905 0.33708 0.0
C419 C 0.3002 0.93115 0.32954 0.0
C420 C 0.29574 0.89968 0.32988 0.0
C421 C 0.31273 0.89695 0.33718 0.0
H422 H 0.29565 0.94448 0.32591 0.0
H423 H 0.28778 0.88808 0.32636 0.0
H424 H 0.25997 0.95773 0.30264 0.0
H425 H 0.29889 0.94268 0.26434 0.0
H426 H 0.24773 0.88353 0.37313 0.0
H427 H 0.32557 0.9408 0.33955 0.0
H428 H 0.3171 0.88332 0.33997 0.0
C429 C 0.33173 0.02581 0.52727 0.0
C430 C 0.31781 0.02554 0.51513 0.0
N431 N 0.3028 0.02081 0.52398 0.0
N432 N 0.3255 0.02147 0.54383 0.0
C433 C 0.30775 0.0184 0.54125 0.0
H434 H 0.34521 0.03013 0.52428 0.0
Co435 Co 0.33802 0.02212 0.56595 0.0
C436 C 0.31248 0.00805 0.58408 0.0
O437 O 0.31087 0.02565 0.58511 0.0
N438 N 0.35027 0.02217 0.58798 0.0
C439 C 0.36198 0.03008 0.61433 0.0
C440 C 0.35025 0.03502 0.60081 0.0
C441 C 0.36149 0.00934 0.59426 0.0
N442 N 0.36894 0.01388 0.61014 0.0
O443 O 0.35624 0.00641 0.55561 0.0
H444 H 0.34269 0.04744 0.60003 0.0
H445 H 0.36469 0.99713 0.58705 0.0
O446 O 0.32495 0.00163 0.57421 0.0
C447 C 0.36946 0.00684 0.54465 0.0
O448 O 0.37425 0.02197 0.53692 0.0
N449 N 0.34949 0.04387 0.55939 0.0
C450 C 0.35693 0.07949 0.56816 0.0
C451 C 0.34096 0.07499 0.55932 0.0
C452 C 0.33726 0.05706 0.55562 0.0
C453 C 0.36643 0.04842 0.56491 0.0
C454 C 0.37038 0.06626 0.56963 0.0
H455 H 0.3236 0.05371 0.55205 0.0
H456 H 0.37599 0.03803 0.56844 0.0
H457 H 0.29833 0.01545 0.55192 0.0
H458 H 0.31852 0.02913 0.50103 0.0
H459 H 0.36532 0.03788 0.62615 0.0
H460 H 0.33039 0.08486 0.55745 0.0
H461 H 0.38296 0.06911 0.57638 0.0
C462 C 0.21886 0.07355 0.8044 0.0
C463 C 0.21741 0.06139 0.79068 0.0
N464 N 0.22256 0.04517 0.79687 0.0
N465 N 0.2249 0.06519 0.81936 0.0
C466 C 0.22691 0.04778 0.81436 0.0
H467 H 0.21555 0.08766 0.80348 0.0
Co468 Co 0.22995 0.07705 0.84116 0.0
C469 C 0.24691 0.0496 0.85628 0.0
O470 O 0.23035 0.04791 0.86223 0.0
N471 N 0.23536 0.08915 0.86261 0.0
C472 C 0.23132 0.10174 0.88941 0.0
C473 C 0.2255 0.0885 0.87783 0.0
C474 C 0.24744 0.10244 0.86548 0.0
N475 N 0.24509 0.11053 0.88155 0.0
O476 O 0.24526 0.093 0.82752 0.0
H477 H 0.21397 0.07985 0.87978 0.0
H478 H 0.25682 0.10718 0.85542 0.0
O479 O 0.25029 0.06203 0.84497 0.0
C480 C 0.24655 0.10683 0.81745 0.0
O481 O 0.23229 0.11649 0.81356 0.0
N482 N 0.2088 0.09085 0.83902 0.0
C483 C 0.17581 0.10385 0.85121 0.0
C484 C 0.17739 0.08627 0.84471 0.0
C485 C 0.19403 0.07997 0.839 0.0
C486 C 0.20717 0.10861 0.84356 0.0
C487 C 0.19065 0.11543 0.84965 0.0
H488 H 0.19545 0.06573 0.83644 0.0
H489 H 0.21896 0.11699 0.84469 0.0
H490 H 0.23181 0.03731 0.82321 0.0
H491 H 0.21267 0.06426 0.77721 0.0
H492 H 0.2253 0.10524 0.90219 0.0
H493 H 0.16624 0.07693 0.84566 0.0
H494 H 0.19003 0.12903 0.85483 0.0
C495 C 0.17695 0.98481 0.04597 0.0
C496 C 0.19019 0.97858 0.03472 0.0
N497 N 0.20581 0.98633 0.03958 0.0
N498 N 0.1842 0.99636 0.05788 0.0
C499 C 0.2018 0.9972 0.05356 0.0
H500 H 0.163 0.98071 0.04594 0.0
Co501 Co 0.17115 0.00572 0.07679 0.0
C502 C 0.19819 0.011 0.10566 0.0
O503 O 0.18775 0.00202 0.11677 0.0
N504 N 0.15703 0.01559 0.09527 0.0
C505 C 0.14608 0.03553 0.11477 0.0
C506 C 0.1612 0.02968 0.10601 0.0
C507 C 0.13901 0.01386 0.09714 0.0
N508 N 0.13209 0.0256 0.10911 0.0
O509 O 0.17036 0.02859 0.0653 0.0
H510 H 0.17401 0.03649 0.10636 0.0
H511 H 0.13077 0.00556 0.08853 0.0
O512 O 0.19332 0.0132 0.08928 0.0
C513 C 0.15995 0.03095 0.05194 0.0
O514 O 0.15072 0.01728 0.04564 0.0
N515 N 0.17154 0.9826 0.08752 0.0
C516 C 0.17095 0.94702 0.09963 0.0
C517 C 0.18729 0.95605 0.09729 0.0
C518 C 0.18731 0.97366 0.0908 0.0
C519 C 0.15563 0.97358 0.08868 0.0
C520 C 0.15498 0.95592 0.095 0.0
H521 H 0.20011 0.97993 0.08808 0.0
H522 H 0.1434 0.97971 0.08401 0.0
H523 H 0.21164 0.00483 0.06107 0.0
H524 H 0.18852 0.96886 0.02401 0.0
H525 H 0.14531 0.04689 0.12385 0.0
H526 H 0.19997 0.94942 0.10006 0.0
H527 H 0.14206 0.94931 0.09624 0.0
C528 C 0.22959 0.31302 0.09127 0.0
C529 C 0.24016 0.31374 0.07608 0.0
N530 N 0.23421 0.30122 0.06442 0.0
N531 N 0.21687 0.3003 0.08907 0.0
C532 C 0.22015 0.29319 0.07267 0.0
H533 H 0.23097 0.32132 0.10314 0.0
Co534 Co 0.19908 0.29412 0.10567 0.0
C535 C 0.16851 0.29296 0.07816 0.0
O536 O 0.16156 0.30869 0.08206 0.0
N537 N 0.18102 0.2874 0.12226 0.0
C538 C 0.15447 0.28426 0.13575 0.0
C539 C 0.16377 0.29316 0.12256 0.0
C540 C 0.18187 0.27511 0.13569 0.0
N541 N 0.16584 0.27285 0.14395 0.0
O542 O 0.208 0.27011 0.10596 0.0
H543 H 0.15823 0.30351 0.11407 0.0
H544 H 0.19389 0.26768 0.13916 0.0
O545 O 0.18258 0.28721 0.08625 0.0
C546 C 0.22249 0.26903 0.115 0.0
O547 O 0.22901 0.28373 0.12233 0.0
N548 N 0.19165 0.31832 0.10666 0.0
C549 C 0.17738 0.35242 0.11217 0.0
C550 C 0.18175 0.34657 0.09472 0.0
C551 C 0.18933 0.32952 0.09229 0.0
C552 C 0.19044 0.32502 0.12369 0.0
C553 C 0.18293 0.34187 0.12679 0.0
H554 H 0.19215 0.32483 0.0788 0.0
H555 H 0.19421 0.31675 0.13506 0.0
H556 H 0.21222 0.28251 0.06678 0.0
H557 H 0.25144 0.32266 0.07385 0.0
H558 H 0.14048 0.28628 0.13926 0.0
H559 H 0.17845 0.35465 0.08305 0.0
H560 H 0.18026 0.34585 0.14054 0.0
C561 C 0.7072 0.19417 0.91403 0.0
C562 C 0.72158 0.19214 0.92534 0.0
N563 N 0.72125 0.20564 0.93732 0.0
N564 N 0.69762 0.20896 0.91874 0.0
C565 C 0.70679 0.21573 0.93297 0.0
H566 H 0.70433 0.18526 0.90297 0.0
Co567 Co 0.6758 0.21757 0.90858 0.0
C568 C 0.66453 0.22899 0.94227 0.0
O569 O 0.66125 0.21181 0.94478 0.0
N570 N 0.65428 0.22561 0.89907 0.0
C571 C 0.62499 0.2286 0.89392 0.0
C572 C 0.63776 0.2225 0.9059 0.0
C573 C 0.6513 0.23365 0.88311 0.0
N574 N 0.63363 0.23539 0.87953 0.0
O575 O 0.68876 0.23653 0.896 0.0
H576 H 0.63516 0.21545 0.91836 0.0
H577 H 0.66185 0.23755 0.8739 0.0
O578 O 0.67245 0.23395 0.92794 0.0
C579 C 0.70449 0.2376 0.88919 0.0
O580 O 0.71509 0.22347 0.889 0.0
N581 N 0.67746 0.20119 0.88947 0.0
C582 C 0.67357 0.17445 0.86357 0.0
C583 C 0.66886 0.17119 0.88154 0.0
C584 C 0.67057 0.18488 0.89418 0.0
C585 C 0.68207 0.20465 0.87199 0.0
C586 C 0.68028 0.19139 0.85883 0.0
H587 H 0.66626 0.18261 0.9079 0.0
H588 H 0.68622 0.21784 0.86771 0.0
H589 H 0.70274 0.22756 0.94038 0.0
H590 H 0.7315 0.1815 0.92477 0.0
H591 H 0.61056 0.22711 0.89516 0.0
H592 H 0.66303 0.15847 0.88561 0.0
H593 H 0.68356 0.19452 0.84498 0.0
C594 C 0.02622 0.46456 0.17385 0.0
C595 C 0.02898 0.47613 0.188 0.0
N596 N 0.02038 0.46949 0.20253 0.0
N597 N 0.01597 0.45071 0.17945 0.0
C598 C 0.01253 0.4541 0.19693 0.0
H599 H 0.03144 0.46603 0.16034 0.0
Co600 Co 0.00852 0.43187 0.16509 0.0
C601 C 0.00935 0.40457 0.19663 0.0
O602 O 0.02522 0.3973 0.19412 0.0
N603 N 0.00076 0.41296 0.15034 0.0
C604 C 0.99539 0.38646 0.13751 0.0
C605 C 0.00131 0.39496 0.15285 0.0
C606 C 0.99451 0.41502 0.13344 0.0
N607 N 0.99129 0.39917 0.12529 0.0
O608 O 0.98446 0.44051 0.16623 0.0
H609 H 0.00639 0.38826 0.16467 0.0
H610 H 0.99304 0.42792 0.12694 0.0
O611 O 0.00349 0.41688 0.18613 0.0
C612 C 0.98209 0.45231 0.15406 0.0
O613 O 0.99589 0.4573 0.1442 0.0
N614 N 0.03246 0.42467 0.16217 0.0
C615 C 0.06721 0.4158 0.15129 0.0
C616 C 0.06298 0.41723 0.16968 0.0
C617 C 0.04553 0.42229 0.17486 0.0
C618 C 0.03701 0.42532 0.14444 0.0
C619 C 0.05413 0.42079 0.1387 0.0
H620 H 0.04258 0.42445 0.18892 0.0
H621 H 0.02729 0.42964 0.13455 0.0
H622 H 0.00426 0.44558 0.20534 0.0
H623 H 0.03701 0.48826 0.1877 0.0
H624 H 0.99505 0.37209 0.13521 0.0
H625 H 0.07291 0.41427 0.17992 0.0
H626 H 0.05706 0.42119 0.12443 0.0
C627 C 0.77888 0.78934 0.41706 0.0
C628 C 0.76566 0.7906 0.42988 0.0
N629 N 0.77153 0.7824 0.44488 0.0
N630 N 0.79319 0.78027 0.42378 0.0
C631 C 0.78822 0.77638 0.44091 0.0
H632 H 0.7778 0.79463 0.40357 0.0
Co633 Co 0.81478 0.77357 0.41168 0.0
C634 C 0.83315 0.76424 0.4416 0.0
O635 O 0.83909 0.78068 0.43903 0.0
N636 N 0.83597 0.7669 0.39983 0.0
C637 C 0.86281 0.76874 0.38675 0.0
C638 C 0.85124 0.77663 0.39893 0.0
C639 C 0.83865 0.7531 0.38831 0.0
N640 N 0.85472 0.75404 0.37995 0.0
O641 O 0.80217 0.7537 0.40055 0.0
H642 H 0.85337 0.78925 0.40584 0.0
H643 H 0.82869 0.74297 0.38532 0.0
O644 O 0.82119 0.75802 0.43102 0.0
C645 C 0.78796 0.75082 0.39141 0.0
O646 O 0.77728 0.76419 0.38702 0.0
N647 N 0.81018 0.78967 0.39291 0.0
C648 C 0.81558 0.81656 0.36733 0.0
C649 C 0.81471 0.82074 0.38571 0.0
C650 C 0.8123 0.80705 0.39825 0.0
C651 C 0.80999 0.78537 0.37505 0.0
C652 C 0.8125 0.79871 0.362 0.0
H653 H 0.81341 0.81011 0.41243 0.0
H654 H 0.80953 0.7715 0.37078 0.0
H655 H 0.79643 0.76888 0.45028 0.0
H656 H 0.75277 0.79717 0.42828 0.0
H657 H 0.8756 0.77411 0.38233 0.0
H658 H 0.81754 0.83419 0.39053 0.0
H659 H 0.81327 0.79487 0.34797 0.0
C660 C 0.9633 0.043 0.17091 0.0
C661 C 0.96162 0.02983 0.18374 0.0
N662 N 0.97265 0.03383 0.19746 0.0
N663 N 0.97548 0.05545 0.17629 0.0
C664 C 0.98086 0.04935 0.19267 0.0
H665 H 0.95616 0.04305 0.15827 0.0
Co666 Co 0.98317 0.07636 0.16327 0.0
C667 C 0.99536 0.09127 0.19469 0.0
O668 O 0.97811 0.09449 0.19682 0.0
N669 N 0.99073 0.09674 0.15051 0.0
C670 C 0.99557 0.12499 0.14181 0.0
C671 C 0.98845 0.11413 0.15513 0.0
C672 C 0.99916 0.09737 0.1344 0.0
N673 N 0.00219 0.11434 0.12873 0.0
O674 O 0.00133 0.06247 0.15125 0.0
H675 H 0.98183 0.11864 0.16727 0.0
H676 H 0.00304 0.08558 0.12683 0.0
O677 O 0.00052 0.08196 0.18128 0.0
C678 C 0.00482 0.04661 0.1458 0.0
O679 O 0.9929 0.03371 0.1475 0.0
N680 N 0.96567 0.07269 0.14573 0.0
C681 C 0.93824 0.07946 0.12117 0.0
C682 C 0.93577 0.08281 0.13957 0.0
C683 C 0.94974 0.07954 0.15155 0.0
C684 C 0.96801 0.06802 0.12812 0.0
C685 C 0.9544 0.07144 0.11553 0.0
H686 H 0.94835 0.08359 0.16546 0.0
H687 H 0.98076 0.06296 0.1234 0.0
H688 H 0.99085 0.05588 0.20094 0.0
H689 H 0.95274 0.01831 0.18312 0.0
H690 H 0.99542 0.13955 0.14156 0.0
H691 H 0.92371 0.08934 0.14451 0.0
H692 H 0.95684 0.06873 0.10143 0.0
C693 C 0.27133 0.72058 0.56758 0.0
C694 C 0.26189 0.71624 0.5523 0.0
N695 N 0.2687 0.7258 0.53848 0.0
N696 N 0.28405 0.73279 0.5634 0.0
C697 C 0.28213 0.73575 0.54559 0.0
H698 H 0.26895 0.71536 0.58095 0.0
Co699 Co 0.29927 0.7436 0.57981 0.0
C700 C 0.33393 0.7482 0.56075 0.0
O701 O 0.34235 0.74163 0.57486 0.0
N702 N 0.31432 0.75515 0.59665 0.0
C703 C 0.33086 0.77702 0.60873 0.0
C704 C 0.32213 0.77128 0.59354 0.0
C705 C 0.31817 0.75165 0.6141 0.0
N706 N 0.32833 0.76465 0.62169 0.0
O707 O 0.28795 0.76629 0.57563 0.0
H708 H 0.32116 0.77872 0.58107 0.0
H709 H 0.31335 0.74012 0.62141 0.0
O710 O 0.31673 0.74907 0.56071 0.0
C711 C 0.27244 0.76887 0.58239 0.0
O712 O 0.26417 0.7554 0.5903 0.0
N713 N 0.30935 0.72083 0.5847 0.0
C714 C 0.32217 0.6873 0.59563 0.0
C715 C 0.3259 0.69381 0.5783 0.0
C716 C 0.31899 0.7105 0.57293 0.0
C717 C 0.30381 0.71364 0.60062 0.0
C718 C 0.31046 0.69716 0.6066 0.0
H719 H 0.32145 0.71504 0.55935 0.0
H720 H 0.29419 0.72086 0.6088 0.0
H721 H 0.29008 0.74536 0.53809 0.0
H722 H 0.25093 0.7067 0.55143 0.0
H723 H 0.33783 0.78969 0.61029 0.0
H724 H 0.33439 0.68632 0.56913 0.0
H725 H 0.30646 0.69217 0.6197 0.0
C726 C 0.03898 0.51962 0.35523 0.0
C727 C 0.0378 0.50817 0.34079 0.0
N728 N 0.0304 0.51723 0.32694 0.0
N729 N 0.03237 0.53581 0.3505 0.0
C730 C 0.02719 0.53398 0.3332 0.0
H731 H 0.04436 0.51645 0.36837 0.0
Co732 Co 0.03122 0.55483 0.36627 0.0
C733 C 0.02471 0.58774 0.3453 0.0
O734 O 0.03691 0.59591 0.35512 0.0
N735 N 0.0296 0.57393 0.38313 0.0
C736 C 0.0327 0.59383 0.40536 0.0
C737 C 0.0413 0.58105 0.39512 0.0
C738 C 0.01402 0.58275 0.38649 0.0
N739 N 0.01547 0.59477 0.39998 0.0
O740 O 0.00731 0.54803 0.37198 0.0
H741 H 0.05506 0.57706 0.39709 0.0
H742 H 0.00165 0.58019 0.3793 0.0
O743 O 0.02156 0.57096 0.34766 0.0
C744 C 0.00375 0.53863 0.38581 0.0
O745 O 0.01693 0.53363 0.39648 0.0
N746 N 0.05511 0.5603 0.36042 0.0
C747 C 0.09127 0.56768 0.35365 0.0
C748 C 0.0784 0.56883 0.33984 0.0
C749 C 0.06042 0.56507 0.3435 0.0
C750 C 0.06771 0.55619 0.37304 0.0
C751 C 0.08576 0.56049 0.37027 0.0
H752 H 0.05083 0.56593 0.33263 0.0
H753 H 0.0636 0.55016 0.38564 0.0
H754 H 0.02106 0.54464 0.32541 0.0
H755 H 0.04237 0.49434 0.34044 0.0
H756 H 0.03842 0.60103 0.41663 0.0
H757 H 0.08202 0.57287 0.32633 0.0
H758 H 0.09498 0.55876 0.38137 0.0
C759 C 0.46303 0.46672 0.83396 0.0
C760 C 0.4571 0.47676 0.81962 0.0
N761 N 0.46658 0.47196 0.80493 0.0
N762 N 0.47608 0.45545 0.82838 0.0
C763 C 0.47811 0.45905 0.81064 0.0
H764 H 0.45822 0.46762 0.84766 0.0
Co765 Co 0.48821 0.43964 0.84358 0.0
C766 C 0.49025 0.40538 0.82372 0.0
O767 O 0.48496 0.3971 0.83844 0.0
N768 N 0.50128 0.4242 0.85919 0.0
C769 C 0.52455 0.40761 0.86834 0.0
C770 C 0.51651 0.41575 0.85391 0.0
C771 C 0.5008 0.42141 0.87724 0.0
N772 N 0.51471 0.41122 0.88307 0.0
O773 O 0.5106 0.4509 0.83776 0.0
H774 H 0.52194 0.41606 0.84042 0.0
H775 H 0.49133 0.42764 0.88626 0.0
O776 O 0.49183 0.42255 0.82365 0.0
C777 C 0.51462 0.46626 0.84414 0.0
O778 O 0.50234 0.47537 0.853 0.0
N779 N 0.46579 0.4291 0.84987 0.0
C780 C 0.43382 0.4127 0.861 0.0
C781 C 0.43899 0.41248 0.84284 0.0
C782 C 0.45473 0.42121 0.83748 0.0
C783 C 0.4598 0.43145 0.86703 0.0
C784 C 0.4441 0.423 0.87302 0.0
H785 H 0.45818 0.42127 0.82337 0.0
H786 H 0.46708 0.44009 0.87609 0.0
H787 H 0.48774 0.45228 0.80208 0.0
H788 H 0.44678 0.48704 0.82004 0.0
H789 H 0.53694 0.39997 0.86803 0.0
H790 H 0.43129 0.4052 0.83287 0.0
H791 H 0.44006 0.42456 0.88693 0.0
C792 C 0.55828 0.70787 0.77858 0.0
C793 C 0.54451 0.72007 0.78025 0.0
N794 N 0.52926 0.71216 0.77462 0.0
N795 N 0.55184 0.69229 0.77179 0.0
C796 C 0.53406 0.69536 0.76967 0.0
H797 H 0.57199 0.71016 0.78273 0.0
Co798 Co 0.56435 0.67089 0.76662 0.0
C799 C 0.53618 0.65323 0.75255 0.0
O800 O 0.53584 0.64755 0.76929 0.0
N801 N 0.57647 0.64952 0.76146 0.0
C802 C 0.58756 0.62196 0.7645 0.0
C803 C 0.5753 0.63419 0.77106 0.0
C804 C 0.5893 0.64627 0.74905 0.0
N805 N 0.59653 0.62964 0.7507 0.0
O806 O 0.57836 0.68398 0.74871 0.0
H807 H 0.56665 0.63234 0.78261 0.0
H808 H 0.59409 0.65636 0.73978 0.0
O809 O 0.54762 0.66518 0.74812 0.0
C810 C 0.59015 0.6964 0.74752 0.0
O811 O 0.59686 0.70377 0.76208 0.0
N812 N 0.58033 0.67489 0.78571 0.0
C813 C 0.59932 0.66475 0.81629 0.0
C814 C 0.58122 0.66975 0.81754 0.0
C815 C 0.57189 0.67449 0.80199 0.0
C816 C 0.59843 0.67196 0.78456 0.0
C817 C 0.60822 0.6669 0.79978 0.0
H818 H 0.55743 0.67586 0.80269 0.0
H819 H 0.60501 0.67138 0.77163 0.0
H820 H 0.52472 0.68553 0.76452 0.0
H821 H 0.54557 0.73353 0.78569 0.0
H822 H 0.59005 0.60873 0.77001 0.0
H823 H 0.57378 0.66793 0.82994 0.0
H824 H 0.62218 0.66301 0.7983 0.0
C825 C 0.55299 0.34079 0.04976 0.0
C826 C 0.54098 0.32704 0.05235 0.0
N827 N 0.54275 0.31539 0.03868 0.0
N828 N 0.5626 0.33784 0.03455 0.0
C829 C 0.55566 0.32231 0.02798 0.0
H830 H 0.55447 0.35209 0.05872 0.0
Co831 Co 0.58222 0.35135 0.02515 0.0
C832 C 0.59762 0.3199 0.01583 0.0
O833 O 0.60078 0.32025 0.03322 0.0
N834 N 0.6014 0.36453 0.01595 0.0
C835 C 0.62861 0.37413 0.00814 0.0
C836 C 0.61909 0.3606 0.01659 0.0
C837 C 0.60049 0.38044 0.00725 0.0
N838 N 0.6168 0.38662 0.00238 0.0
O839 O 0.5668 0.36179 0.00702 0.0
H840 H 0.62471 0.34873 0.02286 0.0
H841 H 0.58807 0.3874 0.00437 0.0
O842 O 0.58816 0.33241 0.00891 0.0
C843 C 0.55023 0.36542 0.00452 0.0
O844 O 0.53837 0.36215 0.01719 0.0
N845 N 0.57842 0.36959 0.04181 0.0
C846 C 0.58363 0.39492 0.06878 0.0
C847 C 0.58977 0.37725 0.07087 0.0
C848 C 0.58739 0.36496 0.05707 0.0
C849 C 0.57156 0.38652 0.03966 0.0
C850 C 0.57424 0.39956 0.05305 0.0
H851 H 0.59324 0.35167 0.05819 0.0
H852 H 0.56507 0.39039 0.02726 0.0
H853 H 0.56033 0.31576 0.01587 0.0
H854 H 0.53178 0.32562 0.06356 0.0
H855 H 0.64307 0.37487 0.00664 0.0
H856 H 0.59753 0.37327 0.08255 0.0
H857 H 0.56969 0.41324 0.05086 0.0
C858 C 0.91269 0.26939 0.28541 0.0
C859 C 0.92802 0.25908 0.28573 0.0
N860 N 0.94142 0.26856 0.27802 0.0
N861 N 0.91636 0.28531 0.27757 0.0
C862 C 0.93398 0.28445 0.27319 0.0
H863 H 0.89963 0.26555 0.29054 0.0
Co864 Co 0.8992 0.30299 0.27389 0.0
C865 C 0.92197 0.33691 0.27298 0.0
O866 O 0.91278 0.34587 0.28509 0.0
N867 N 0.88117 0.32086 0.27011 0.0
C868 C 0.86123 0.34288 0.2746 0.0
C869 C 0.87558 0.33375 0.28173 0.0
C870 C 0.86992 0.32272 0.25585 0.0
N871 N 0.85771 0.33593 0.25833 0.0
O872 O 0.89942 0.29765 0.24906 0.0
H873 H 0.88116 0.33626 0.29489 0.0
H874 H 0.87007 0.31416 0.24412 0.0
O875 O 0.91778 0.32076 0.26892 0.0
C876 C 0.89061 0.28386 0.24419 0.0
O877 O 0.88183 0.27455 0.25639 0.0
N878 N 0.89846 0.30682 0.29856 0.0
C879 C 0.88921 0.31511 0.33371 0.0
C880 C 0.90628 0.31973 0.32691 0.0
C881 C 0.91087 0.31494 0.30929 0.0
C882 C 0.88308 0.29995 0.30571 0.0
C883 C 0.87822 0.30384 0.32332 0.0
H884 H 0.9239 0.31863 0.30406 0.0
H885 H 0.87395 0.29246 0.29722 0.0
H886 H 0.94112 0.29511 0.26632 0.0
H887 H 0.92924 0.24575 0.29145 0.0
H888 H 0.85378 0.35365 0.28097 0.0
H889 H 0.91552 0.32797 0.33455 0.0
H890 H 0.86539 0.29906 0.32829 0.0
C891 C 0.9511 0.64941 0.54291 0.0
C892 C 0.96654 0.65947 0.54438 0.0
N893 N 0.96514 0.67371 0.53324 0.0
N894 N 0.93992 0.65744 0.53111 0.0
C895 C 0.94886 0.67214 0.52534 0.0
H896 H 0.94838 0.63679 0.54963 0.0
Co897 Co 0.91847 0.64811 0.5228 0.0
C898 C 0.89237 0.67778 0.52499 0.0
O899 O 0.88179 0.66693 0.53411 0.0
N900 N 0.89687 0.63819 0.51341 0.0
C901 C 0.87409 0.63379 0.49439 0.0
C902 C 0.88662 0.64585 0.50046 0.0
C903 C 0.89072 0.62107 0.51423 0.0
N904 N 0.87676 0.6181 0.50299 0.0
O905 O 0.9275 0.64953 0.49894 0.0
H906 H 0.88889 0.65899 0.49466 0.0
H907 H 0.89749 0.61039 0.52129 0.0
O908 O 0.90809 0.67238 0.52038 0.0
C909 C 0.93253 0.63428 0.49307 0.0
O910 O 0.93071 0.62008 0.50344 0.0
N911 N 0.91062 0.64565 0.5468 0.0
C912 C 0.89964 0.63874 0.58208 0.0
C913 C 0.90362 0.65636 0.57647 0.0
C914 C 0.90943 0.65949 0.55884 0.0
C915 C 0.90914 0.6284 0.55272 0.0
C916 C 0.90305 0.62462 0.57001 0.0
H917 H 0.91287 0.67305 0.55485 0.0
H918 H 0.9131 0.61743 0.54416 0.0
H919 H 0.94363 0.68134 0.51533 0.0
H920 H 0.97813 0.6562 0.55256 0.0
H921 H 0.86452 0.63616 0.48369 0.0
H922 H 0.90225 0.66767 0.58553 0.0
H923 H 0.90076 0.6107 0.57359 0.0
C924 C 0.58011 0.27409 0.71123 0.0
C925 C 0.56823 0.26067 0.70684 0.0
N926 N 0.55375 0.26222 0.7176 0.0
N927 N 0.573 0.28423 0.72448 0.0
C928 C 0.55699 0.27658 0.72822 0.0
H929 H 0.59324 0.2762 0.70534 0.0
Co930 Co 0.58461 0.30316 0.73567 0.0
C931 C 0.55847 0.33269 0.73696 0.0
O932 O 0.57084 0.34286 0.72945 0.0
N933 N 0.59678 0.32198 0.74786 0.0
C934 C 0.6029 0.34161 0.76972 0.0
C935 C 0.59028 0.33008 0.76281 0.0
C936 C 0.61378 0.32837 0.74652 0.0
N937 N 0.61772 0.34051 0.75944 0.0
O938 O 0.5821 0.29139 0.7581 0.0
H939 H 0.57733 0.3273 0.76882 0.0
H940 H 0.62365 0.3234 0.73719 0.0
O941 O 0.5617 0.31594 0.73964 0.0
C942 C 0.59426 0.27957 0.76024 0.0
O943 O 0.60567 0.27671 0.74704 0.0
N944 N 0.58805 0.31373 0.71295 0.0
C945 C 0.59588 0.32754 0.67892 0.0
C946 C 0.57797 0.32487 0.68437 0.0
C947 C 0.57435 0.3177 0.70135 0.0
C948 C 0.6053 0.31384 0.7069 0.0
C949 C 0.60963 0.32137 0.69033 0.0
H950 H 0.56053 0.31526 0.70514 0.0
H951 H 0.61576 0.30759 0.71475 0.0
H952 H 0.54794 0.2814 0.73857 0.0
H953 H 0.57028 0.25029 0.69684 0.0
H954 H 0.60137 0.34978 0.78167 0.0
H955 H 0.5668 0.32822 0.67566 0.0
H956 H 0.62368 0.32247 0.68678 0.0
C957 C 0.97471 0.3605 0.95215 0.0
C958 C 0.98726 0.34689 0.95195 0.0
N959 N 0.9815 0.33373 0.96299 0.0
N960 N 0.96096 0.3557 0.96297 0.0
C961 C 0.96562 0.33945 0.96963 0.0
H962 H 0.97529 0.37292 0.94458 0.0
Co963 Co 0.94034 0.36918 0.96701 0.0
C964 C 0.91474 0.33696 0.96611 0.0
O965 O 0.90832 0.33965 0.94989 0.0
N966 N 0.91993 0.38325 0.97173 0.0
C967 C 0.89237 0.3945 0.97485 0.0
C968 C 0.90236 0.38046 0.96807 0.0
C969 C 0.92026 0.39918 0.98046 0.0
N970 N 0.90368 0.40626 0.98268 0.0
O971 O 0.94655 0.37053 0.99166 0.0
H972 H 0.89701 0.36916 0.96079 0.0
H973 H 0.93246 0.40533 0.98539 0.0
O974 O 0.92657 0.34749 0.97278 0.0
C975 C 0.9591 0.3811 0.99637 0.0
O976 O 0.96728 0.39078 0.98404 0.0
N977 N 0.93486 0.36834 0.94219 0.0
C978 C 0.92614 0.36862 0.90568 0.0
C979 C 0.93309 0.35306 0.91382 0.0
C980 C 0.93745 0.35323 0.93205 0.0
C981 C 0.93003 0.38408 0.93405 0.0
C982 C 0.92521 0.38444 0.91593 0.0
H983 H 0.94226 0.34094 0.93816 0.0
H984 H 0.92944 0.39642 0.94169 0.0
H985 H 0.9573 0.3317 0.97873 0.0
H986 H -0.00039 0.34663 0.94423 0.0
H987 H 0.87793 0.39602 0.97388 0.0
H988 H 0.93469 0.34068 0.90632 0.0
H989 H 0.9201 0.39687 0.91031 0.0
C990 C 0.9241 0.71406 0.24074 0.0
C991 C 0.93676 0.72736 0.2393 0.0
N992 N 0.95311 0.71965 0.23963 0.0
N993 N 0.93235 0.69792 0.24214 0.0
C994 C 0.9501 0.70179 0.2412 0.0
H995 H 0.90978 0.71615 0.24026 0.0
Co996 Co 0.92139 0.67533 0.24499 0.0
C997 C 0.95035 0.65831 0.25777 0.0
O998 O 0.95082 0.65423 0.24057 0.0
N999 N 0.9108 0.65273 0.2482 0.0
C1000 C 0.89956 0.62573 0.24203 0.0
C1001 C 0.91175 0.63869 0.23675 0.0
C1002 C 0.89855 0.64775 0.26063 0.0
N1003 N 0.89108 0.63166 0.25689 0.0
O1004 O 0.906 0.68595 0.26364 0.0
H1005 H 0.91967 0.63857 0.22454 0.0
H1006 H 0.89394 0.65638 0.27137 0.0
O1007 O 0.93833 0.66923 0.26327 0.0
C1008 C 0.89164 0.69531 0.26516 0.0
O1009 O 0.88266 0.70041 0.25084 0.0
N1010 N 0.90527 0.68007 0.22566 0.0
C1011 C 0.88711 0.67644 0.19282 0.0
C1012 C 0.90429 0.68421 0.1936 0.0
C1013 C 0.91329 0.68538 0.21001 0.0
C1014 C 0.88792 0.67394 0.22533 0.0
C1015 C 0.87863 0.67204 0.20911 0.0
H1016 H 0.92728 0.6893 0.20988 0.0
H1017 H 0.88152 0.66914 0.23744 0.0
H1018 H 0.96063 0.69176 0.24181 0.0
H1019 H 0.93412 0.7416 0.23764 0.0
H1020 H 0.89597 0.61379 0.23452 0.0
H1021 H 0.91134 0.6882 0.1815 0.0
H1022 H 0.8655 0.66575 0.20933 0.0
C1023 C 0.52502 0.65364 0.46405 0.0
C1024 C 0.5135 0.66807 0.46424 0.0
N1025 N 0.52328 0.68317 0.46633 0.0
N1026 N 0.54201 0.65953 0.46618 0.0
C1027 C 0.54058 0.67763 0.4674 0.0
H1028 H 0.52127 0.63975 0.46207 0.0
Co1029 Co 0.56175 0.64433 0.46575 0.0
C1030 C 0.5931 0.66468 0.48042 0.0
O1031 O 0.60429 0.65546 0.47036 0.0
N1032 N 0.58172 0.62805 0.46505 0.0
C1033 C 0.60505 0.61135 0.45608 0.0
C1034 C 0.59296 0.6243 0.45115 0.0
C1035 C 0.58769 0.6171 0.47839 0.0
N1036 N 0.60168 0.60674 0.4732 0.0
O1037 O 0.55407 0.63432 0.48825 0.0
H1038 H 0.59309 0.63075 0.43821 0.0
H1039 H 0.58175 0.61639 0.49164 0.0
O1040 O 0.57613 0.66207 0.47916 0.0
C1041 C 0.54484 0.61991 0.48747 0.0
O1042 O 0.54204 0.61249 0.47168 0.0
N1043 N 0.56784 0.65359 0.4432 0.0
C1044 C 0.58316 0.65694 0.40938 0.0
C1045 C 0.58577 0.67037 0.42249 0.0
C1046 C 0.57797 0.6684 0.43948 0.0
C1047 C 0.56194 0.64283 0.42961 0.0
C1048 C 0.56971 0.64402 0.41256 0.0
H1049 H 0.58106 0.67813 0.44977 0.0
H1050 H 0.55307 0.63171 0.43267 0.0
H1051 H 0.55197 0.68655 0.4689 0.0
H1052 H 0.49908 0.6675 0.46237 0.0
H1053 H 0.61558 0.6058 0.4477 0.0
H1054 H 0.59492 0.68146 0.42022 0.0
H1055 H 0.56669 0.63356 0.40293 0.0
C1056 C 0.76815 0.58675 0.72308 0.0
C1057 C 0.77197 0.57241 0.73426 0.0
N1058 N 0.764 0.55763 0.72744 0.0
N1059 N 0.75789 0.58094 0.70933 0.0
C1060 C 0.75538 0.56326 0.71251 0.0
H1061 H 0.77287 0.60042 0.72462 0.0
Co1062 Co 0.74951 0.59427 0.68998 0.0
C1063 C 0.75188 0.56752 0.66007 0.0
O1064 O 0.76134 0.57875 0.6502 0.0
N1065 N 0.74006 0.60802 0.6706 0.0
C1066 C 0.72157 0.61597 0.64835 0.0
C1067 C 0.72856 0.60187 0.65791 0.0
C1068 C 0.73899 0.62617 0.66892 0.0
N1069 N 0.72805 0.63129 0.65535 0.0
O1070 O 0.72563 0.59163 0.69866 0.0
H1071 H 0.72403 0.58816 0.65654 0.0
H1072 H 0.74452 0.63554 0.67853 0.0
O1073 O 0.74673 0.57221 0.6758 0.0
C1074 C 0.71996 0.60543 0.707 0.0
O1075 O 0.73102 0.61896 0.7096 0.0
N1076 N 0.77346 0.59759 0.68221 0.0
C1077 C 0.80869 0.60461 0.67102 0.0
C1078 C 0.8029 0.58689 0.67423 0.0
C1079 C 0.78529 0.58368 0.67998 0.0
C1080 C 0.77948 0.61484 0.68118 0.0
C1081 C 0.79675 0.61868 0.67506 0.0
H1082 H 0.78113 0.56998 0.68251 0.0
H1083 H 0.77102 0.6258 0.68529 0.0
H1084 H 0.74739 0.5546 0.70401 0.0
H1085 H 0.78042 0.57273 0.7461 0.0
H1086 H 0.7117 0.61501 0.6377 0.0
H1087 H 0.8118 0.57553 0.67227 0.0
H1088 H 0.8004 0.63264 0.6732 0.0
C1089 C 0.66982 0.53568 0.95186 0.0
C1090 C 0.6816 0.53873 0.96568 0.0
N1091 N 0.69761 0.53181 0.96102 0.0
N1092 N 0.67829 0.52693 0.93832 0.0
C1093 C 0.6953 0.52469 0.94447 0.0
H1094 H 0.65614 0.54046 0.95155 0.0
Co1095 Co 0.66825 0.52087 0.91565 0.0
C1096 C 0.69905 0.50582 0.90352 0.0
O1097 O 0.70185 0.52271 0.89909 0.0
N1098 N 0.65844 0.51498 0.89332 0.0
C1099 C 0.64917 0.51945 0.86528 0.0
C1100 C 0.66135 0.52461 0.87823 0.0
C1101 C 0.64483 0.50368 0.8891 0.0
N1102 N 0.63874 0.50635 0.8722 0.0
O1103 O 0.65276 0.50376 0.9278 0.0
H1104 H 0.67076 0.53565 0.87722 0.0
H1105 H 0.63825 0.49498 0.89873 0.0
O1106 O 0.6851 0.50185 0.91262 0.0
C1107 C 0.64012 0.50307 0.93939 0.0
O1108 O 0.633 0.51791 0.94578 0.0
N1109 N 0.65225 0.54032 0.91693 0.0
C1110 C 0.63413 0.57096 0.9053 0.0
C1111 C 0.65211 0.57199 0.91077 0.0
C1112 C 0.661 0.55642 0.91622 0.0
C1113 C 0.63432 0.53932 0.91306 0.0
C1114 C 0.62498 0.55457 0.90726 0.0
H1115 H 0.67539 0.55691 0.91832 0.0
H1116 H 0.62757 0.52648 0.91263 0.0
H1117 H 0.70606 0.51864 0.93679 0.0
H1118 H 0.67872 0.54584 0.97805 0.0
H1119 H 0.64739 0.5256 0.85219 0.0
H1120 H 0.65977 0.58427 0.90905 0.0
H1121 H 0.61112 0.55324 0.90296 0.0
C1122 C 0.72519 0.41118 0.20234 0.0
C1123 C 0.72547 0.42444 0.21513 0.0
N1124 N 0.73245 0.43941 0.20768 0.0
N1125 N 0.73212 0.4176 0.18688 0.0
C1126 C 0.73629 0.43496 0.19045 0.0
H1127 H 0.71996 0.39774 0.2041 0.0
Co1128 Co 0.73358 0.40321 0.16658 0.0
C1129 C 0.75007 0.42503 0.13743 0.0
O1130 O 0.74057 0.41634 0.12537 0.0
N1131 N 0.73477 0.38747 0.14621 0.0
C1132 C 0.72752 0.36994 0.12292 0.0
C1133 C 0.72177 0.38347 0.13407 0.0
C1134 C 0.74846 0.3762 0.1417 0.0
N1135 N 0.74427 0.3653 0.1278 0.0
O1136 O 0.75513 0.39279 0.17606 0.0
H1137 H 0.70877 0.38979 0.13309 0.0
H1138 H 0.76107 0.37538 0.14886 0.0
O1139 O 0.74823 0.42131 0.15414 0.0
C1140 C 0.75345 0.3788 0.18581 0.0
O1141 O 0.73738 0.3718 0.188 0.0
N1142 N 0.71178 0.41328 0.15869 0.0
C1143 C 0.67757 0.42399 0.1476 0.0
C1144 C 0.69243 0.43538 0.14526 0.0
C1145 C 0.70941 0.42992 0.15121 0.0
C1146 C 0.69725 0.40293 0.16282 0.0
C1147 C 0.68006 0.40784 0.1571 0.0
H1148 H 0.72047 0.43916 0.14977 0.0
H1149 H 0.69922 0.39024 0.16971 0.0
H1150 H 0.74197 0.44413 0.18068 0.0
H1151 H 0.72042 0.4233 0.22875 0.0
H1152 H 0.71983 0.3638 0.1122 0.0
H1153 H 0.691 0.44833 0.13872 0.0
H1154 H 0.66904 0.39859 0.15935 0.0
C1155 C 0.83173 0.44781 0.46632 0.0
C1156 C 0.81792 0.44417 0.47803 0.0
N1157 N 0.80374 0.45447 0.4734 0.0
N1158 N 0.82619 0.46015 0.45424 0.0
C1159 C 0.80913 0.46414 0.45899 0.0
H1160 H 0.845 0.44184 0.46652 0.0
Co1161 Co 0.84062 0.46913 0.43607 0.0
C1162 C 0.81025 0.47031 0.40793 0.0
O1163 O 0.81365 0.45497 0.3999 0.0
N1164 N 0.85555 0.47854 0.41826 0.0
C1165 C 0.86895 0.48624 0.3927 0.0
C1166 C 0.85415 0.47805 0.40017 0.0
C1167 C 0.87129 0.48697 0.42145 0.0
N1168 N 0.87974 0.4918 0.40613 0.0
O1169 O 0.839 0.49236 0.44646 0.0
H1170 H 0.84349 0.47162 0.39276 0.0
H1171 H 0.87653 0.48927 0.43483 0.0
O1172 O 0.81976 0.47552 0.42128 0.0
C1173 C 0.84743 0.49539 0.46101 0.0
O1174 O 0.85667 0.48229 0.46849 0.0
N1175 N 0.84315 0.44576 0.42659 0.0
C1176 C 0.8502 0.41051 0.41572 0.0
C1177 C 0.83262 0.41596 0.41991 0.0
C1178 C 0.82942 0.43358 0.4256 0.0
C1179 C 0.86042 0.4403 0.42367 0.0
C1180 C 0.86421 0.42291 0.41789 0.0
H1181 H 0.8159 0.43742 0.42931 0.0
H1182 H 0.8715 0.4494 0.42599 0.0
H1183 H 0.8008 0.47378 0.45193 0.0
H1184 H 0.81835 0.43487 0.48923 0.0
H1185 H 0.87185 0.48737 0.37847 0.0
H1186 H 0.82145 0.40667 0.41897 0.0
H1187 H 0.87802 0.41936 0.4149 0.0
C1188 C 0.78425 0.40266 0.77156 0.0
C1189 C 0.78471 0.41803 0.76126 0.0
N1190 N 0.7762 0.43122 0.77033 0.0
N1191 N 0.77549 0.40615 0.78702 0.0
C1192 C 0.77068 0.42364 0.78589 0.0
H1193 H 0.79007 0.38977 0.76812 0.0
Co1194 Co 0.77164 0.38963 0.80531 0.0
C1195 C 0.77449 0.41727 0.83612 0.0
O1196 O 0.79064 0.41314 0.84191 0.0
N1197 N 0.76756 0.37285 0.8238 0.0
C1198 C 0.76808 0.35879 0.85023 0.0
C1199 C 0.77536 0.37246 0.84022 0.0
C1200 C 0.75592 0.35888 0.824 0.0
N1201 N 0.75587 0.3503 0.84001 0.0
O1202 O 0.74657 0.39 0.80027 0.0
H1203 H 0.78602 0.38117 0.84462 0.0
H1204 H 0.74743 0.35518 0.81278 0.0
O1205 O 0.76752 0.40904 0.82273 0.0
C1206 C 0.74184 0.38166 0.78611 0.0
O1207 O 0.75428 0.37397 0.77618 0.0
N1208 N 0.79645 0.38827 0.80899 0.0
C1209 C 0.83271 0.38171 0.81544 0.0
C1210 C 0.82604 0.39943 0.81495 0.0
C1211 C 0.80789 0.40244 0.81104 0.0
C1212 C 0.8031 0.3713 0.8071 0.0
C1213 C 0.82117 0.36771 0.81024 0.0
H1214 H 0.80288 0.41609 0.81043 0.0
H1215 H 0.79416 0.36037 0.80363 0.0
H1216 H 0.76314 0.43063 0.79618 0.0
H1217 H 0.79113 0.41946 0.74827 0.0
H1218 H 0.77175 0.35507 0.86383 0.0
H1219 H 0.83441 0.41082 0.81836 0.0
H1220 H 0.82584 0.35395 0.80922 0.0
C1221 C 0.83896 0.55716 0.03399 0.0
C1222 C 0.82487 0.55802 0.02213 0.0
N1223 N 0.81124 0.54827 0.02892 0.0
N1224 N 0.83413 0.54721 0.04837 0.0
C1225 C 0.81716 0.54173 0.0448 0.0
H1226 H 0.852 0.5633 0.03218 0.0
Co1227 Co 0.84975 0.54312 0.06729 0.0
C1228 C 0.82874 0.52723 0.09763 0.0
O1229 O 0.83884 0.5354 0.1096 0.0
N1230 N 0.86639 0.53905 0.08608 0.0
C1231 C 0.88575 0.54234 0.1087 0.0
C1232 C 0.87514 0.55118 0.09646 0.0
C1233 C 0.87228 0.52291 0.09218 0.0
N1234 N 0.88391 0.52457 0.106 0.0
O1235 O 0.85614 0.52072 0.05664 0.0
H1236 H 0.87409 0.56559 0.09543 0.0
H1237 H 0.86786 0.51013 0.08683 0.0
O1238 O 0.83106 0.53027 0.08083 0.0
C1239 C 0.86998 0.5198 0.04663 0.0
O1240 O 0.87977 0.53431 0.04421 0.0
N1241 N 0.8439 0.56588 0.07669 0.0
C1242 C 0.84527 0.59989 0.09238 0.0
C1243 C 0.83239 0.5872 0.09797 0.0
C1244 C 0.83159 0.57036 0.08956 0.0
C1245 C 0.85475 0.57879 0.06952 0.0
C1246 C 0.85546 0.59594 0.07697 0.0
H1247 H 0.82165 0.56088 0.09408 0.0
H1248 H 0.86409 0.57527 0.05896 0.0
H1249 H 0.80924 0.53331 0.05365 0.0
H1250 H 0.82472 0.565 0.00934 0.0
H1251 H 0.89455 0.54854 0.11849 0.0
H1252 H 0.82377 0.58968 0.10943 0.0
H1253 H 0.86489 0.60554 0.07142 0.0
C1254 C 0.71897 0.58342 0.2813 0.0
C1255 C 0.717 0.57046 0.26824 0.0
N1256 N 0.72721 0.55616 0.27277 0.0
N1257 N 0.73027 0.57728 0.29407 0.0
C1258 C 0.73511 0.56068 0.28851 0.0
H1259 H 0.71283 0.59662 0.28135 0.0
Co1260 Co 0.73891 0.59036 0.3135 0.0
C1261 C 0.73446 0.55835 0.33989 0.0
O1262 O 0.71918 0.56298 0.34741 0.0
N1263 N 0.74802 0.60375 0.33296 0.0
C1264 C 0.75515 0.61406 0.36012 0.0
C1265 C 0.74801 0.59988 0.35073 0.0
C1266 C 0.75525 0.62041 0.33196 0.0
N1267 N 0.75957 0.62703 0.3483 0.0
O1268 O 0.76285 0.58709 0.30506 0.0
H1269 H 0.74257 0.58792 0.3568 0.0
H1270 H 0.75676 0.6278 0.3195 0.0
O1271 O 0.74161 0.56821 0.32773 0.0
C1272 C 0.76653 0.59861 0.29295 0.0
O1273 O 0.75366 0.60947 0.28751 0.0
N1274 N 0.71522 0.59549 0.32076 0.0
C1275 C 0.68248 0.60937 0.33257 0.0
C1276 C 0.68447 0.59079 0.32956 0.0
C1277 C 0.70095 0.58414 0.32305 0.0
C1278 C 0.71249 0.61361 0.32117 0.0
C1279 C 0.69642 0.62082 0.32728 0.0
H1280 H 0.70233 0.56996 0.32013 0.0
H1281 H 0.72298 0.62267 0.31687 0.0
H1282 H 0.74478 0.55237 0.29553 0.0
H1283 H 0.7087 0.57154 0.25633 0.0
H1284 H 0.75611 0.61513 0.37461 0.0
H1285 H 0.6737 0.5815 0.33269 0.0
H1286 H 0.69508 0.63531 0.3282 0.0
C1287 C 0.6572 0.45015 0.54231 0.0
C1288 C 0.67156 0.44533 0.53173 0.0
N1289 N 0.685 0.45708 0.53476 0.0
N1290 N 0.66167 0.46471 0.55213 0.0
C1291 C 0.67864 0.46874 0.54714 0.0
H1292 H 0.64423 0.44358 0.54268 0.0
Co1293 Co 0.64664 0.47665 0.56803 0.0
C1294 C 0.66876 0.48301 0.60026 0.0
O1295 O 0.6555 0.47678 0.61016 0.0
N1296 N 0.63115 0.48939 0.58375 0.0
C1297 C 0.6206 0.51261 0.59953 0.0
C1298 C 0.63513 0.50584 0.5904 0.0
C1299 C 0.61382 0.48675 0.58871 0.0
N1300 N 0.60713 0.50059 0.59843 0.0
O1301 O 0.64955 0.49818 0.55473 0.0
H1302 H 0.64766 0.51287 0.58816 0.0
H1303 H 0.60588 0.47531 0.58487 0.0
O1304 O 0.66725 0.48323 0.58311 0.0
C1305 C 0.64085 0.49857 0.54004 0.0
O1306 O 0.63188 0.4842 0.53503 0.0
N1307 N 0.64302 0.4548 0.58007 0.0
C1308 C 0.6351 0.42071 0.59371 0.0
C1309 C 0.6526 0.42776 0.59489 0.0
C1310 C 0.65634 0.44474 0.58777 0.0
C1311 C 0.6266 0.44735 0.57707 0.0
C1312 C 0.6221 0.43071 0.58435 0.0
H1313 H 0.67005 0.44949 0.58795 0.0
H1314 H 0.61707 0.45413 0.56846 0.0
H1315 H 0.68617 0.47999 0.55247 0.0
H1316 H 0.67194 0.43431 0.52223 0.0
H1317 H 0.61976 0.52578 0.60566 0.0
H1318 H 0.66344 0.42016 0.60096 0.0
H1319 H 0.60848 0.42592 0.58261 0.0
C1320 C 0.69253 0.79228 0.5854 0.0
C1321 C 0.70543 0.79412 0.57236 0.0
N1322 N 0.70137 0.78297 0.55876 0.0
N1323 N 0.6802 0.7799 0.58025 0.0
C1324 C 0.68604 0.77458 0.56379 0.0
H1325 H 0.69262 0.79936 0.59808 0.0
Co1326 Co 0.66004 0.7713 0.59363 0.0
C1327 C 0.64356 0.75755 0.56424 0.0
O1328 O 0.63697 0.77395 0.56435 0.0
N1329 N 0.64031 0.76282 0.60682 0.0
C1330 C 0.61272 0.75979 0.61804 0.0
C1331 C 0.62291 0.76746 0.60455 0.0
C1332 C 0.64035 0.75241 0.62175 0.0
N1333 N 0.62381 0.75047 0.62893 0.0
O1334 O 0.67547 0.75439 0.60581 0.0
H1335 H 0.61803 0.77645 0.59421 0.0
H1336 H 0.65234 0.74678 0.62772 0.0
O1337 O 0.65538 0.75333 0.5759 0.0
C1338 C 0.69093 0.75335 0.61313 0.0
O1339 O 0.70131 0.76759 0.61416 0.0
N1340 N 0.66276 0.78942 0.61071 0.0
C1341 C 0.65433 0.81747 0.63403 0.0
C1342 C 0.65266 0.81963 0.61537 0.0
C1343 C 0.65664 0.80533 0.60401 0.0
C1344 C 0.66561 0.78731 0.62874 0.0
C1345 C 0.66144 0.80126 0.64069 0.0
H1346 H 0.65373 0.80649 0.5898 0.0
H1347 H 0.66965 0.77446 0.63417 0.0
H1348 H 0.67954 0.7644 0.55573 0.0
H1349 H 0.7169 0.80307 0.57284 0.0
H1350 H 0.59845 0.76169 0.6202 0.0
H1351 H 0.64679 0.83169 0.60965 0.0
H1352 H 0.66272 0.79902 0.65503 0.0
C1353 C 0.23103 0.70577 0.38222 0.0
C1354 C 0.24113 0.70639 0.39768 0.0
N1355 N 0.23113 0.71411 0.41067 0.0
N1356 N 0.21475 0.71302 0.38545 0.0
C1357 C 0.21518 0.71802 0.40289 0.0
H1358 H 0.2353 0.70049 0.36936 0.0
Co1359 Co 0.19749 0.71569 0.3678 0.0
C1360 C 0.16207 0.7206 0.38672 0.0
O1361 O 0.1533 0.71171 0.3743 0.0
N1362 N 0.18027 0.71847 0.3489 0.0
C1363 C 0.159 0.71382 0.32815 0.0
C1364 C 0.16931 0.70598 0.34132 0.0
C1365 C 0.17649 0.73371 0.33958 0.0
N1366 N 0.16365 0.73119 0.32707 0.0
O1367 O 0.20328 0.74037 0.36649 0.0
H1368 H 0.16821 0.69208 0.34537 0.0
H1369 H 0.18273 0.74661 0.34189 0.0
O1370 O 0.17921 0.72205 0.38589 0.0
C1371 C 0.21636 0.7455 0.35677 0.0
O1372 O 0.22547 0.73349 0.34754 0.0
N1373 N 0.1931 0.69113 0.36912 0.0
C1374 C 0.18651 0.65455 0.36575 0.0
C1375 C 0.1803 0.66406 0.38086 0.0
C1376 C 0.18398 0.6824 0.38243 0.0
C1377 C 0.20096 0.68175 0.35549 0.0
C1378 C 0.19769 0.66343 0.35342 0.0
H1379 H 0.17911 0.68956 0.39407 0.0
H1380 H 0.20895 0.68882 0.34558 0.0
H1381 H 0.20424 0.7248 0.40964 0.0
H1382 H 0.25471 0.7014 0.39926 0.0
H1383 H 0.14902 0.70725 0.31984 0.0
H1384 H 0.17181 0.65769 0.39084 0.0
H1385 H 0.20313 0.65648 0.34184 0.0
C1386 C 0.5193 0.95078 0.67475 0.0
C1387 C 0.52209 0.96342 0.68786 0.0
N1388 N 0.51163 0.95925 0.70204 0.0
N1389 N 0.50711 0.93873 0.68061 0.0
C1390 C 0.5027 0.94415 0.69737 0.0
H1391 H 0.52557 0.95047 0.66163 0.0
Co1392 Co 0.49871 0.92058 0.66605 0.0
C1393 C 0.48783 0.89057 0.68933 0.0
O1394 O 0.49684 0.87988 0.6785 0.0
N1395 N 0.48982 0.90263 0.65053 0.0
C1396 C 0.4699 0.88454 0.6374 0.0
C1397 C 0.47267 0.8966 0.65105 0.0
C1398 C 0.49703 0.89425 0.63607 0.0
N1399 N 0.48525 0.88308 0.62794 0.0
O1400 O 0.47661 0.93347 0.66295 0.0
H1401 H 0.46262 0.90099 0.66062 0.0
H1402 H 0.51046 0.89649 0.63117 0.0
O1403 O 0.48803 0.90762 0.68662 0.0
C1404 C 0.47661 0.94693 0.65236 0.0
O1405 O 0.49162 0.95142 0.64419 0.0
N1406 N 0.52118 0.90903 0.66873 0.0
C1407 C 0.55594 0.89486 0.67053 0.0
C1408 C 0.54483 0.89503 0.68578 0.0
C1409 C 0.52768 0.90266 0.68473 0.0
C1410 C 0.53246 0.91063 0.65438 0.0
C1411 C 0.5497 0.90323 0.6548 0.0
H1412 H 0.51983 0.90366 0.6969 0.0
H1413 H 0.52808 0.91785 0.64254 0.0
H1414 H 0.49286 0.93747 0.70577 0.0
H1415 H 0.53124 0.97472 0.68711 0.0
H1416 H 0.45728 0.87805 0.63419 0.0
H1417 H 0.54944 0.88957 0.69848 0.0
H1418 H 0.55793 0.90387 0.64279 0.0
C1419 C 0.28679 0.28307 0.9118 0.0
C1420 C 0.27613 0.2885 0.92589 0.0
N1421 N 0.28198 0.28029 0.94095 0.0
N1422 N 0.29946 0.27165 0.91796 0.0
C1423 C 0.29604 0.26998 0.93576 0.0
H1424 H 0.28574 0.2875 0.89798 0.0
Co1425 Co 0.31763 0.26217 0.90352 0.0
C1426 C 0.34673 0.26444 0.93237 0.0
O1427 O 0.35496 0.27835 0.92527 0.0
N1428 N 0.33531 0.25215 0.88855 0.0
C1429 C 0.36038 0.24186 0.87591 0.0
C1430 C 0.35325 0.25024 0.89072 0.0
C1431 C 0.33191 0.24481 0.87225 0.0
N1432 N 0.34695 0.23848 0.86428 0.0
O1433 O 0.30771 0.23846 0.90649 0.0
H1434 H 0.36097 0.25467 0.90208 0.0
H1435 H 0.31861 0.24414 0.86638 0.0
O1436 O 0.33284 0.25764 0.92479 0.0
C1437 C 0.2927 0.23442 0.89932 0.0
O1438 O 0.28369 0.24688 0.89059 0.0
N1439 N 0.32689 0.28585 0.89968 0.0
C1440 C 0.34238 0.31944 0.89259 0.0
C1441 C 0.33577 0.3153 0.90977 0.0
C1442 C 0.32771 0.2986 0.91294 0.0
C1443 C 0.33151 0.29046 0.88249 0.0
C1444 C 0.33956 0.307 0.87872 0.0
H1445 H 0.32315 0.29553 0.9264 0.0
H1446 H 0.32932 0.2812 0.87155 0.0
H1447 H 0.30409 0.26195 0.94486 0.0
H1448 H 0.26503 0.2979 0.92515 0.0
H1449 H 0.37445 0.23884 0.87371 0.0
H1450 H 0.33714 0.32474 0.92078 0.0
H1451 H 0.34411 0.3097 0.86514 0.0
C1452 C 0.43507 0.52898 0.65608 0.0
C1453 C 0.43388 0.51915 0.67167 0.0
N1454 N 0.44678 0.52483 0.68303 0.0
N1455 N 0.44851 0.54102 0.65759 0.0
C1456 C 0.45559 0.53805 0.67412 0.0
H1457 H 0.42666 0.52747 0.64431 0.0
Co1458 Co 0.45455 0.5569 0.63916 0.0
C1459 C 0.46332 0.59136 0.6579 0.0
O1460 O 0.45375 0.60083 0.64652 0.0
N1461 N 0.46083 0.57273 0.61958 0.0
C1462 C 0.45972 0.5932 0.59749 0.0
C1463 C 0.45126 0.58658 0.61243 0.0
C1464 C 0.47535 0.57154 0.60849 0.0
N1465 N 0.47486 0.58377 0.59507 0.0
O1466 O 0.47792 0.5466 0.63836 0.0
H1467 H 0.43878 0.59189 0.61758 0.0
H1468 H 0.48583 0.56155 0.60967 0.0
O1469 O 0.46391 0.57421 0.65664 0.0
C1470 C 0.48087 0.53155 0.6308 0.0
O1471 O 0.46736 0.52274 0.6236 0.0
N1472 N 0.43104 0.56624 0.64003 0.0
C1473 C 0.39854 0.58451 0.63674 0.0
C1474 C 0.40788 0.58429 0.6532 0.0
C1475 C 0.4241 0.57494 0.65461 0.0
C1476 C 0.42061 0.56344 0.62523 0.0
C1477 C 0.40453 0.57292 0.62303 0.0
H1478 H 0.43145 0.57538 0.66713 0.0
H1479 H 0.42575 0.55537 0.61426 0.0
H1480 H 0.46684 0.54551 0.67955 0.0
H1481 H 0.42439 0.50843 0.67435 0.0
H1482 H 0.45506 0.60404 0.58893 0.0
H1483 H 0.40319 0.59194 0.66466 0.0
H1484 H 0.39777 0.57216 0.61018 0.0
C1485 C 0.81004 0.21139 0.07216 0.0
C1486 C 0.79686 0.20691 0.06009 0.0
N1487 N 0.79871 0.21749 0.04549 0.0
N1488 N 0.82024 0.22462 0.06515 0.0
C1489 C 0.81292 0.22825 0.04893 0.0
H1490 H 0.81229 0.20524 0.08516 0.0
Co1491 Co 0.83983 0.23388 0.07721 0.0
C1492 C 0.86294 0.24059 0.04403 0.0
O1493 O 0.87385 0.22694 0.04658 0.0
N1494 N 0.85902 0.24334 0.09014 0.0
C1495 C 0.88464 0.25393 0.10133 0.0
C1496 C 0.87615 0.24785 0.08604 0.0
C1497 C 0.85745 0.24687 0.10782 0.0
N1498 N 0.87283 0.25315 0.11501 0.0
O1499 O 0.82731 0.25624 0.08032 0.0
H1500 H 0.88237 0.24664 0.07304 0.0
H1501 H 0.84519 0.24459 0.11532 0.0
O1502 O 0.85 0.24365 0.05495 0.0
C1503 C 0.81445 0.25665 0.09164 0.0
O1504 O 0.81024 0.24185 0.10034 0.0
N1505 N 0.85147 0.21128 0.07519 0.0
C1506 C 0.86516 0.17629 0.07607 0.0
C1507 C 0.8589 0.18369 0.05991 0.0
C1508 C 0.85157 0.20105 0.05988 0.0
C1509 C 0.85696 0.20391 0.09108 0.0
C1510 C 0.86399 0.18656 0.09179 0.0
H1511 H 0.8459 0.20627 0.04754 0.0
H1512 H 0.85539 0.21123 0.1035 0.0
H1513 H 0.81819 0.23816 0.03966 0.0
H1514 H 0.78669 0.19665 0.06192 0.0
H1515 H 0.89856 0.25806 0.10239 0.0
H1516 H 0.8592 0.17594 0.04758 0.0
H1517 H 0.86843 0.18118 0.10459 0.0
C1518 C 0.55182 0.03328 0.83724 0.0
C1519 C 0.54881 0.02027 0.82449 0.0
N1520 N 0.53578 0.02619 0.81337 0.0
N1521 N 0.54077 0.0473 0.83415 0.0
C1522 C 0.53115 0.04265 0.8195 0.0
H1523 H 0.56126 0.0325 0.84828 0.0
Co1524 Co 0.53928 0.06669 0.84939 0.0
C1525 C 0.51986 0.09591 0.83038 0.0
O1526 O 0.53064 0.10794 0.83751 0.0
N1527 N 0.53778 0.08619 0.86583 0.0
C1528 C 0.54277 0.10974 0.88375 0.0
C1529 C 0.55025 0.09827 0.87132 0.0
C1530 C 0.52285 0.09077 0.87521 0.0
N1531 N 0.52554 0.10491 0.88622 0.0
O1532 O 0.51921 0.05568 0.86039 0.0
H1533 H 0.56399 0.09902 0.86678 0.0
H1534 H 0.51006 0.08398 0.87394 0.0
O1535 O 0.52252 0.07914 0.83328 0.0
C1536 C 0.52043 0.04409 0.8729 0.0
O1537 O 0.53631 0.03987 0.87938 0.0
N1538 N 0.55963 0.07626 0.83829 0.0
C1539 C 0.59235 0.08881 0.82514 0.0
C1540 C 0.57665 0.09029 0.81476 0.0
C1541 C 0.56042 0.08361 0.82147 0.0
C1542 C 0.57502 0.07285 0.84758 0.0
C1543 C 0.59148 0.07933 0.84148 0.0
H1544 H 0.54863 0.08436 0.81306 0.0
H1545 H 0.5743 0.06585 0.86033 0.0
H1546 H 0.52061 0.05086 0.81374 0.0
H1547 H 0.55573 0.0075 0.82342 0.0
H1548 H 0.54965 0.12042 0.89085 0.0
H1549 H 0.57684 0.0968 0.80172 0.0
H1550 H 0.60315 0.07774 0.85002 0.0
C1551 C 0.94704 0.95725 0.33623 0.0
C1552 C 0.94815 0.97005 0.32294 0.0
N1553 N 0.96073 0.96482 0.311 0.0
N1554 N 0.9589 0.94398 0.3328 0.0
C1555 C 0.96704 0.94891 0.31726 0.0
H1556 H 0.93826 0.95763 0.34782 0.0
Co1557 Co 0.9622 0.92477 0.34856 0.0
C1558 C 0.97704 0.89479 0.32637 0.0
O1559 O 0.96695 0.88295 0.33465 0.0
N1560 N 0.96548 0.90547 0.36555 0.0
C1561 C 0.96261 0.88032 0.38191 0.0
C1562 C 0.95506 0.8908 0.36868 0.0
C1563 C 0.97907 0.90361 0.37764 0.0
N1564 N 0.97766 0.88846 0.38756 0.0
O1565 O 0.98424 0.93515 0.35614 0.0
H1566 H 0.94302 0.88726 0.36141 0.0
H1567 H 0.99008 0.91294 0.37912 0.0
O1568 O 0.97577 0.9115 0.33025 0.0
C1569 C 0.98429 0.94873 0.36653 0.0
O1570 O 0.96894 0.95576 0.37173 0.0
N1571 N 0.93999 0.91559 0.34113 0.0
C1572 C 0.90602 0.90173 0.33367 0.0
C1573 C 0.9195 0.9018 0.32044 0.0
C1574 C 0.93635 0.90912 0.32435 0.0
C1575 C 0.92656 0.91739 0.35346 0.0
C1576 C 0.90955 0.91026 0.35015 0.0
H1577 H 0.94644 0.90943 0.31391 0.0
H1578 H 0.92941 0.92354 0.36633 0.0
H1579 H 0.97764 0.94127 0.31088 0.0
H1580 H 0.94016 0.98221 0.32203 0.0
H1581 H 0.9574 0.86773 0.38704 0.0
H1582 H 0.91713 0.89604 0.30728 0.0
H1583 H 0.89959 0.91064 0.36077 0.0
H1584 H 0.07799 0.16164 0.23587 0.0
H1585 H 0.99101 0.10029 0.22995 0.0
H1586 H 0.05758 0.13332 0.28226 0.0
H1587 H 0.02934 0.10249 0.18644 0.0
H1588 H 0.01219 0.11698 0.24897 0.0
H1589 H 0.05669 0.14494 0.21685 0.0
C1590 C 0.06889 0.15208 0.24205 0.0
C1591 C 0.06953 0.14878 0.26062 0.0
C1592 C 0.01596 0.1137 0.23529 0.0
C1593 C 0.04523 0.1299 0.23911 0.0
C1594 C 0.00393 0.1042 0.22447 0.0
C1595 C 0.00854 0.09991 0.20669 0.0
C1596 C 0.03246 0.11937 0.2281 0.0
C1597 C 0.0254 0.10535 0.20017 0.0
C1598 C 0.0569 0.14248 0.23121 0.0
C1599 C 0.05757 0.13617 0.26797 0.0
N1600 N 0.0367 0.11501 0.21082 0.0
N1601 N 0.04581 0.12725 0.25721 0.0
H1602 H 0.12638 0.72927 0.387 0.0
H1603 H 0.12678 0.76658 0.48734 0.0
H1604 H 0.17436 0.73242 0.41949 0.0
H1605 H 0.08679 0.78319 0.44862 0.0
H1606 H 0.14215 0.74968 0.46389 0.0
H1607 H 0.10968 0.7449 0.41069 0.0
C1608 C 0.1334 0.73314 0.39916 0.0
C1609 C 0.15183 0.72953 0.40127 0.0
C1610 C 0.12999 0.75697 0.46052 0.0
C1611 C 0.13274 0.74731 0.42841 0.0
C1612 C 0.1211 0.76656 0.47392 0.0
C1613 C 0.10545 0.77638 0.46994 0.0
C1614 C 0.12311 0.75694 0.44298 0.0
C1615 C 0.09883 0.77585 0.45227 0.0
C1616 C 0.12386 0.74215 0.41261 0.0
C1617 C 0.16022 0.73498 0.41725 0.0
N1618 N 0.10769 0.76625 0.43941 0.0
N1619 N 0.15059 0.74352 0.43024 0.0
H1620 H 0.48172 0.85492 0.69539 0.0
H1621 H 0.4124 0.87016 0.77597 0.0
H1622 H 0.46736 0.90765 0.7151 0.0
H1623 H 0.41631 0.82054 0.74605 0.0
H1624 H 0.43535 0.88335 0.75654 0.0
H1625 H 0.46086 0.84151 0.71677 0.0
C1626 C 0.47429 0.86371 0.70431 0.0
C1627 C 0.47626 0.88249 0.70337 0.0
C1628 C 0.43121 0.86957 0.75426 0.0
C1629 C 0.45224 0.86709 0.72793 0.0
C1630 C 0.41814 0.86198 0.76537 0.0
C1631 C 0.41236 0.8442 0.76261 0.0
C1632 C 0.43872 0.85928 0.74036 0.0
C1633 C 0.42029 0.8343 0.74864 0.0
C1634 C 0.4623 0.856 0.71648 0.0
C1635 C 0.46623 0.89313 0.71531 0.0
N1636 N 0.43308 0.84198 0.73804 0.0
N1637 N 0.45462 0.88527 0.7271 0.0
H1638 H 0.41267 0.18741 0.98667 0.0
H1639 H 0.36651 0.27902 0.95946 0.0
H1640 H 0.40642 0.22986 0.02575 0.0
H1641 H 0.34796 0.2282 0.93857 0.0
H1642 H 0.3847 0.2628 0.98177 0.0
H1643 H 0.39309 0.20399 0.96605 0.0
C1644 C 0.40741 0.20035 0.99081 0.0
C1645 C 0.41123 0.20734 0.00793 0.0
C1646 C 0.37648 0.25525 0.97241 0.0
C1647 C 0.38882 0.22626 0.98441 0.0
C1648 C 0.36613 0.26445 0.95973 0.0
C1649 C 0.35571 0.25489 0.94725 0.0
C1650 C 0.3768 0.23639 0.97222 0.0
C1651 C 0.35569 0.23605 0.94808 0.0
C1652 C 0.39607 0.20967 0.97912 0.0
C1653 C 0.4038 0.22404 0.01267 0.0
N1654 N 0.36632 0.22738 0.96019 0.0
N1655 N 0.39303 0.23303 0.00091 0.0
H1656 H 0.04042 0.88298 0.2296 0.0
H1657 H 0.9895 0.86074 0.32108 0.0
H1658 H 0.05347 0.83669 0.26221 0.0
H1659 H 0.99303 0.91458 0.29954 0.0
H1660 H 0.00997 0.85033 0.29758 0.0
H1661 H 0.01985 0.89333 0.25307 0.0
C1662 C 0.03888 0.87494 0.24166 0.0
C1663 C 0.04866 0.85895 0.24399 0.0
C1664 C 0.00629 0.86443 0.29803 0.0
C1665 C 0.02514 0.87071 0.27081 0.0
C1666 C 0.99455 0.87038 0.31138 0.0
C1667 C 0.98954 0.88857 0.31225 0.0
C1668 C 0.01286 0.87669 0.28529 0.0
C1669 C 0.99659 0.90047 0.2994 0.0
C1670 C 0.02722 0.88092 0.25508 0.0
C1671 C 0.04622 0.84913 0.25992 0.0
N1672 N 0.00782 0.89429 0.28635 0.0
N1673 N 0.03462 0.85513 0.27271 0.0
H1674 H 0.37023 0.74621 0.5553 0.0
H1675 H 0.37042 0.82496 0.48263 0.0
H1676 H 0.32187 0.76917 0.5328 0.0
H1677 H 0.41862 0.7986 0.50145 0.0
H1678 H 0.35238 0.80258 0.49847 0.0
H1679 H 0.38801 0.76305 0.53345 0.0
C1680 C 0.36332 0.75465 0.54563 0.0
C1681 C 0.34452 0.75644 0.54603 0.0
C1682 C 0.36689 0.80154 0.49898 0.0
C1683 C 0.36488 0.77592 0.52101 0.0
C1684 C 0.37723 0.81433 0.48992 0.0
C1685 C 0.39607 0.81379 0.49087 0.0
C1686 C 0.37544 0.78816 0.50923 0.0
C1687 C 0.40413 0.79961 0.50041 0.0
C1688 C 0.37351 0.76427 0.53313 0.0
C1689 C 0.33633 0.76746 0.53306 0.0
N1690 N 0.39377 0.78749 0.50941 0.0
N1691 N 0.34657 0.77695 0.52123 0.0
H1692 H 0.43683 0.15854 0.77686 0.0
H1693 H 0.49738 0.07537 0.80955 0.0
H1694 H 0.43721 0.10654 0.7511 0.0
H1695 H 0.50747 0.13025 0.82563 0.0
H1696 H 0.47234 0.08589 0.79099 0.0
H1697 H 0.45973 0.14761 0.7981 0.0
C1698 C 0.44157 0.1448 0.77582 0.0
C1699 C 0.43523 0.13346 0.76217 0.0
C1700 C 0.48004 0.09562 0.7986 0.0
C1701 C 0.46127 0.12092 0.78626 0.0
C1702 C 0.49435 0.08962 0.80918 0.0
C1703 C 0.50465 0.10195 0.81904 0.0
C1704 C 0.47589 0.11407 0.79798 0.0
C1705 C 0.50001 0.12027 0.81813 0.0
C1706 C 0.45469 0.1386 0.78784 0.0
C1707 C 0.44186 0.11579 0.76133 0.0
N1708 N 0.48596 0.12577 0.80779 0.0
N1709 N 0.45451 0.11008 0.77317 0.0
H1710 H 0.10447 0.20456 0.03846 0.0
H1711 H 0.14578 0.30246 0.05112 0.0
H1712 H 0.10323 0.24471 0.99653 0.0
H1713 H 0.16742 0.25613 0.07867 0.0
H1714 H 0.12634 0.28256 0.0336 0.0
H1715 H 0.12337 0.22471 0.05661 0.0
C1716 C 0.10791 0.21773 0.03324 0.0
C1717 C 0.10233 0.22305 0.01602 0.0
C1718 C 0.13543 0.27675 0.0434 0.0
C1719 C 0.12383 0.24594 0.03652 0.0
C1720 C 0.14653 0.28807 0.05336 0.0
C1721 C 0.15827 0.28089 0.06626 0.0
C1722 C 0.13579 0.25816 0.04663 0.0
C1723 C 0.15868 0.26217 0.0687 0.0
C1724 C 0.11883 0.22909 0.04348 0.0
C1725 C 0.10733 0.24012 0.00973 0.0
N1726 N 0.14744 0.25142 0.05908 0.0
N1727 N 0.11776 0.25099 0.02 0.0
H1728 H 0.28565 0.08603 0.12252 0.0
H1729 H 0.21069 0.01091 0.14021 0.0
H1730 H 0.26642 0.07098 0.17523 0.0
H1731 H 0.22183 0.03312 0.08769 0.0
H1732 H 0.23467 0.02934 0.15277 0.0
H1733 H 0.26585 0.06341 0.10926 0.0
C1734 C 0.27744 0.07786 0.13136 0.0
C1735 C 0.2777 0.0805 0.15007 0.0
C1736 C 0.23197 0.03011 0.13848 0.0
C1737 C 0.25498 0.05456 0.1349 0.0
C1738 C 0.21828 0.01954 0.13125 0.0
C1739 C 0.21408 0.0206 0.11287 0.0
C1740 C 0.24161 0.04185 0.12726 0.0
C1741 C 0.22451 0.03196 0.10196 0.0
C1742 C 0.2661 0.06497 0.12374 0.0
C1743 C 0.26674 0.06946 0.16078 0.0
N1744 N 0.23772 0.04224 0.10934 0.0
N1745 N 0.25579 0.05705 0.15304 0.0
H1746 H 0.2016 0.03403 0.39549 0.0
H1747 H 0.22528 0.94409 0.34424 0.0
H1748 H 0.17208 0.98506 0.40537 0.0
H1749 H 0.26779 0.97737 0.36541 0.0
H1750 H 0.20324 0.96255 0.36047 0.0
H1751 H 0.2242 0.01656 0.37877 0.0
C1752 C 0.19993 0.01961 0.39418 0.0
C1753 C 0.18506 0.01091 0.40187 0.0
C1754 C 0.2174 0.96584 0.36141 0.0
C1755 C 0.21038 0.99114 0.38243 0.0
C1756 C 0.22993 0.95547 0.35205 0.0
C1757 C 0.24835 0.95927 0.35352 0.0
C1758 C 0.2233 0.98035 0.37191 0.0
C1759 C 0.25369 0.97402 0.364 0.0
C1760 C 0.21278 0.00971 0.38469 0.0
C1761 C 0.18346 0.99222 0.39978 0.0
N1762 N 0.2412 0.98414 0.37274 0.0
N1763 N 0.19586 0.98297 0.39004 0.0
H1764 H 0.28064 0.01825 0.59817 0.0
H1765 H 0.26103 0.92661 0.65112 0.0
H1766 H 0.31604 0.97237 0.59422 0.0
H1767 H 0.22435 0.97145 0.64713 0.0
H1768 H 0.28274 0.94328 0.63247 0.0
H1769 H 0.26096 0.00121 0.61768 0.0
C1770 C 0.28425 0.00448 0.60136 0.0
C1771 C 0.30002 0.99672 0.59456 0.0
C1772 C 0.26998 0.94946 0.63582 0.0
C1773 C 0.27742 0.97698 0.6172 0.0
C1774 C 0.25768 0.94005 0.64658 0.0
C1775 C 0.24088 0.94769 0.65063 0.0
C1776 C 0.26539 0.9666 0.62926 0.0
C1777 C 0.2371 0.96502 0.64427 0.0
C1778 C 0.27297 0.99473 0.61257 0.0
C1779 C 0.30392 0.9788 0.59911 0.0
N1780 N 0.24921 0.97383 0.6339 0.0
N1781 N 0.29269 0.96949 0.61027 0.0
H1782 H 0.28222 0.04678 0.84559 0.0
H1783 H 0.31228 0.99247 0.93302 0.0
H1784 H 0.24455 0.02743 0.88535 0.0
H1785 H 0.34472 0.99455 0.88488 0.0
H1786 H 0.28788 0.00747 0.91669 0.0
H1787 H 0.30613 0.02969 0.86065 0.0
C1788 C 0.27896 0.03887 0.85739 0.0
C1789 C 0.26138 0.03853 0.86422 0.0
C1790 C 0.30032 0.00453 0.9097 0.0
C1791 C 0.28861 0.01924 0.8816 0.0
C1792 C 0.31424 0.99602 0.91901 0.0
C1793 C 0.33052 0.99223 0.91028 0.0
C1794 C 0.30282 0.00953 0.89163 0.0
C1795 C 0.33234 0.99712 0.89211 0.0
C1796 C 0.29258 0.02912 0.86596 0.0
C1797 C 0.2579 0.02806 0.87958 0.0
N1798 N 0.31872 0.00565 0.88342 0.0
N1799 N 0.27141 0.01897 0.88783 0.0
H1800 H 0.60353 0.32054 0.97943 0.0
H1801 H 0.6507 0.22407 0.97604 0.0
H1802 H 0.61181 0.28787 0.02674 0.0
H1803 H 0.65874 0.26466 0.93527 0.0
H1804 H 0.63382 0.24598 0.99395 0.0
H1805 H 0.62056 0.29849 0.96175 0.0
C1806 C 0.60875 0.30863 0.98605 0.0
C1807 C 0.60629 0.30602 0.00457 0.0
C1808 C 0.63941 0.2501 0.98114 0.0
C1809 C 0.62578 0.28087 0.98451 0.0
C1810 C 0.64907 0.23763 0.97095 0.0
C1811 C 0.65619 0.24256 0.95418 0.0
C1812 C 0.63659 0.26753 0.97438 0.0
C1813 C 0.65361 0.26031 0.94818 0.0
C1814 C 0.61859 0.29616 0.976 0.0
C1815 C 0.61346 0.29044 0.0125 0.0
N1816 N 0.64388 0.27211 0.9582 0.0
N1817 N 0.62285 0.27843 0.00242 0.0
H1818 H 0.01642 0.39153 0.23031 0.0
H1819 H 0.9303 0.33204 0.2377 0.0
H1820 H 0.97392 0.39743 0.19128 0.0
H1821 H 0.9452 0.36314 0.28434 0.0
H1822 H 0.95183 0.34941 0.21967 0.0
H1823 H 0.99544 0.37503 0.25006 0.0
C1824 C 0.00267 0.38943 0.22599 0.0
C1825 C 0.99678 0.39592 0.20927 0.0
C1826 C 0.95042 0.35228 0.23388 0.0
C1827 C 0.97322 0.3767 0.23128 0.0
C1828 C 0.9383 0.34234 0.24419 0.0
C1829 C 0.936 0.34623 0.2625 0.0
C1830 C 0.96068 0.36579 0.24208 0.0
C1831 C 0.94657 0.35983 0.27022 0.0
C1832 C 0.99079 0.38009 0.23721 0.0
C1833 C 0.97889 0.39281 0.20417 0.0
N1834 N 0.95863 0.36907 0.25999 0.0
N1835 N 0.96779 0.38315 0.21502 0.0
H1836 H 0.90916 0.7039 0.50478 0.0
H1837 H 0.81905 0.73414 0.45751 0.0
H1838 H 0.85699 0.68739 0.52429 0.0
H1839 H 0.86576 0.76856 0.4577 0.0
H1840 H 0.83352 0.71506 0.48023 0.0
H1841 H 0.89437 0.72666 0.48594 0.0
C1842 C 0.89466 0.70524 0.50534 0.0
C1843 C 0.88431 0.69364 0.51605 0.0
C1844 C 0.84052 0.72688 0.47538 0.0
C1845 C 0.86738 0.71922 0.49428 0.0
C1846 C 0.83231 0.73769 0.46238 0.0
C1847 C 0.84123 0.75291 0.45575 0.0
C1848 C 0.85789 0.73114 0.48146 0.0
C1849 C 0.85839 0.75697 0.46253 0.0
C1850 C 0.88624 0.71818 0.49457 0.0
C1851 C 0.86555 0.69597 0.51621 0.0
N1852 N 0.86627 0.74602 0.47487 0.0
N1853 N 0.85767 0.70828 0.50527 0.0
H1854 H 0.01892 0.62391 0.34553 0.0
H1855 H 0.96842 0.62709 0.25166 0.0
H1856 H 0.00618 0.57579 0.31571 0.0
H1857 H 0.95867 0.66688 0.29279 0.0
H1858 H 0.98654 0.60986 0.27295 0.0
H1859 H 0.00093 0.64152 0.32431 0.0
C1860 C 0.01242 0.61706 0.33445 0.0
C1861 C 0.01407 0.59836 0.33232 0.0
C1862 C 0.98045 0.62237 0.2773 0.0
C1863 C 0.99363 0.61846 0.308 0.0
C1864 C 0.97021 0.6323 0.26514 0.0
C1865 C 0.96204 0.64848 0.27047 0.0
C1866 C 0.98284 0.62879 0.29484 0.0
C1867 C 0.96472 0.65446 0.28816 0.0
C1868 C 0.00208 0.62711 0.32244 0.0
C1869 C 0.00522 0.59017 0.31784 0.0
N1870 N 0.97501 0.64466 0.29972 0.0
N1871 N 0.99548 0.60031 0.30612 0.0
H1872 H 0.50368 0.41718 0.79135 0.0
H1873 H 0.53534 0.31897 0.76237 0.0
H1874 H 0.48951 0.36881 0.82026 0.0
H1875 H 0.54675 0.36705 0.73184 0.0
H1876 H 0.51457 0.33631 0.78112 0.0
H1877 H 0.5159 0.39861 0.76711 0.0
C1878 C 0.50296 0.40267 0.79252 0.0
C1879 C 0.49581 0.39455 0.80798 0.0
C1880 C 0.5214 0.343 0.77012 0.0
C1881 C 0.50985 0.3732 0.78035 0.0
C1882 C 0.53318 0.33306 0.75935 0.0
C1883 C 0.54302 0.34164 0.74572 0.0
C1884 C 0.51955 0.36163 0.76727 0.0
C1885 C 0.53967 0.35994 0.7424 0.0
C1886 C 0.50993 0.39205 0.77867 0.0
C1887 C 0.4951 0.37567 0.80869 0.0
N1888 N 0.52843 0.36938 0.75326 0.0
N1889 N 0.50223 0.36565 0.79519 0.0
H1890 H 0.4719 0.62696 0.65922 0.0
H1891 H 0.51688 0.62233 0.7562 0.0
H1892 H 0.47794 0.57729 0.68877 0.0
H1893 H 0.52895 0.66454 0.71814 0.0
H1894 H 0.49874 0.60732 0.73336 0.0
H1895 H 0.48913 0.64251 0.68244 0.0
C1896 C 0.47678 0.61933 0.67064 0.0
C1897 C 0.47349 0.60079 0.67208 0.0
C1898 C 0.50533 0.61988 0.73002 0.0
C1899 C 0.4931 0.61856 0.69869 0.0
C1900 C 0.51561 0.62853 0.74307 0.0
C1901 C 0.52444 0.64472 0.73904 0.0
C1902 C 0.50367 0.62759 0.71289 0.0
C1903 C 0.52239 0.65206 0.72177 0.0
C1904 C 0.48668 0.62822 0.68382 0.0
C1905 C 0.48023 0.59157 0.68711 0.0
N1906 N 0.51214 0.64345 0.70932 0.0
N1907 N 0.48966 0.60058 0.6999 0.0
H1908 H 0.87955 0.23584 0.01166 0.0
H1909 H 0.91129 0.33628 0.00266 0.0
H1910 H 0.85884 0.27693 0.047 0.0
H1911 H 0.90033 0.30506 0.95501 0.0
H1912 H 0.89689 0.31282 0.0209 0.0
H1913 H 0.89156 0.25946 0.99186 0.0
C1914 C 0.87736 0.24983 0.01511 0.0
C1915 C 0.86813 0.2545 0.03088 0.0
C1916 C 0.89766 0.31117 0.00644 0.0
C1917 C 0.88226 0.28135 0.00877 0.0
C1918 C 0.90599 0.32442 0.99607 0.0
C1919 C 0.90697 0.32255 0.97733 0.0
C1920 C 0.89073 0.29577 0.99804 0.0
C1921 C 0.89976 0.30701 0.96943 0.0
C1922 C 0.8842 0.26324 0.00386 0.0
C1923 C 0.86572 0.27279 0.03485 0.0
N1924 N 0.89208 0.29408 0.97985 0.0
N1925 N 0.87301 0.28559 0.024 0.0
H1926 H 0.62754 0.66735 0.49255 0.0
H1927 H 0.61295 0.75995 0.5442 0.0
H1928 H 0.57555 0.69286 0.49682 0.0
H1929 H 0.65746 0.72441 0.55555 0.0
H1930 H 0.60038 0.73729 0.52403 0.0
H1931 H 0.63995 0.68985 0.51295 0.0
C1932 C 0.61872 0.67772 0.49775 0.0
C1933 C 0.60047 0.67825 0.49294 0.0
C1934 C 0.61288 0.73445 0.53094 0.0
C1935 C 0.61467 0.70412 0.51625 0.0
C1936 C 0.62015 0.74741 0.54238 0.0
C1937 C 0.63631 0.74407 0.55156 0.0
C1938 C 0.62196 0.7181 0.52845 0.0
C1939 C 0.64496 0.72753 0.54876 0.0
C1940 C 0.62582 0.69051 0.50946 0.0
C1941 C 0.58968 0.69193 0.50021 0.0
N1942 N 0.63772 0.71518 0.53737 0.0
N1943 N 0.59698 0.70441 0.51142 0.0
H1944 H 0.6765 0.48376 0.63615 0.0
H1945 H 0.75464 0.5565 0.62499 0.0
H1946 H 0.69656 0.50177 0.5847 0.0
H1947 H 0.73069 0.5418 0.67583 0.0
H1948 H 0.73737 0.53269 0.61038 0.0
H1949 H 0.7 0.50105 0.65104 0.0
C1950 C 0.68597 0.49121 0.62795 0.0
C1951 C 0.68439 0.49152 0.60914 0.0
C1952 C 0.73607 0.53453 0.62476 0.0
C1953 C 0.71134 0.51147 0.62617 0.0
C1954 C 0.74597 0.5481 0.63315 0.0
C1955 C 0.74391 0.55135 0.65164 0.0
C1956 C 0.72402 0.52413 0.63494 0.0
C1957 C 0.73255 0.53994 0.66151 0.0
C1958 C 0.6994 0.50109 0.63649 0.0
C1959 C 0.69718 0.50127 0.59924 0.0
N1960 N 0.7229 0.52698 0.65301 0.0
N1961 N 0.71 0.51103 0.60789 0.0
H1962 H 0.78675 0.44436 0.85759 0.0
H1963 H 0.69045 0.47078 0.89632 0.0
H1964 H 0.73783 0.4201 0.83801 0.0
H1965 H 0.73406 0.50892 0.89319 0.0
H1966 H 0.70905 0.44879 0.88015 0.0
H1967 H 0.76874 0.46535 0.87552 0.0
C1968 C 0.77222 0.44347 0.85705 0.0
C1969 C 0.76375 0.43055 0.84625 0.0
C1970 C 0.71454 0.46194 0.88315 0.0
C1971 C 0.74316 0.4542 0.86697 0.0
C1972 C 0.70404 0.4744 0.89251 0.0
C1973 C 0.71077 0.49167 0.89605 0.0
C1974 C 0.73196 0.4667 0.87764 0.0
C1975 C 0.72837 0.49576 0.89064 0.0
C1976 C 0.76199 0.45544 0.86726 0.0
C1977 C 0.74488 0.42997 0.84605 0.0
N1978 N 0.7384 0.48335 0.88174 0.0
N1979 N 0.7352 0.44156 0.85638 0.0
H1980 H 0.75611 0.43666 0.1031 0.0
H1981 H 0.82035 0.51783 0.13221 0.0
H1982 H 0.76964 0.44848 0.15832 0.0
H1983 H 0.80741 0.50523 0.07702 0.0
H1984 H 0.80078 0.49344 0.1421 0.0
H1985 H 0.77406 0.46231 0.09346 0.0
C1986 C 0.76287 0.44463 0.11323 0.0
C1987 C 0.76136 0.44036 0.13158 0.0
C1988 C 0.80213 0.49606 0.12783 0.0
C1989 C 0.78197 0.4699 0.12055 0.0
C1990 C 0.81328 0.51004 0.12215 0.0
C1991 C 0.81559 0.51358 0.10373 0.0
C1992 C 0.79321 0.48546 0.11502 0.0
C1993 C 0.80605 0.50301 0.09135 0.0
C1994 C 0.77312 0.45933 0.10769 0.0
C1995 C 0.77045 0.45123 0.14404 0.0
N1996 N 0.79535 0.48938 0.09723 0.0
N1997 N 0.78037 0.4655 0.13829 0.0
H1998 H 0.81276 0.50692 0.40717 0.0
H1999 H 0.72243 0.52729 0.35547 0.0
H2000 H 0.78007 0.46291 0.38823 0.0
H2001 H 0.77085 0.55724 0.34439 0.0
H2002 H 0.74041 0.5052 0.3724 0.0
H2003 H 0.79414 0.52783 0.38969 0.0
C2004 C 0.80148 0.5017 0.39958 0.0
C2005 C 0.79789 0.48317 0.39915 0.0
C2006 C 0.74704 0.51656 0.36612 0.0
C2007 C 0.77661 0.50698 0.37927 0.0
C2008 C 0.73685 0.5291 0.35648 0.0
C2009 C 0.74522 0.54399 0.34843 0.0
C2010 C 0.76559 0.5193 0.36819 0.0
C2011 C 0.76392 0.54582 0.35021 0.0
C2012 C 0.79102 0.5136 0.38949 0.0
C2013 C 0.78326 0.47711 0.38888 0.0
N2014 N 0.77345 0.53376 0.36014 0.0
N2015 N 0.77304 0.48901 0.37942 0.0
H2016 H 0.18744 0.26295 0.17164 0.0
H2017 H 0.11023 0.20599 0.22079 0.0
H2018 H 0.13427 0.25579 0.14969 0.0
H2019 H 0.15665 0.22753 0.24814 0.0
H2020 H 0.12107 0.21948 0.19267 0.0
H2021 H 0.17863 0.24494 0.19787 0.0
C2022 C 0.174 0.2574 0.17226 0.0
C2023 C 0.16149 0.26102 0.15863 0.0
C2024 C 0.12889 0.22116 0.20484 0.0
C2025 C 0.15131 0.24051 0.18846 0.0
C2026 C 0.12273 0.21346 0.22085 0.0
C2027 C 0.13246 0.21581 0.23683 0.0
C2028 C 0.14498 0.23108 0.20482 0.0
C2029 C 0.14861 0.22556 0.23617 0.0
C2030 C 0.16893 0.24724 0.18724 0.0
C2031 C 0.1442 0.25358 0.16009 0.0
N2032 N 0.15436 0.23285 0.22044 0.0
N2033 N 0.13959 0.24372 0.17477 0.0
H2034 H 0.99333 0.90812 0.41388 0.0
H2035 H 0.05147 0.82727 0.45334 0.0
H2036 H 0.98927 0.8544 0.3926 0.0
H2037 H 0.02858 0.86777 0.48801 0.0
H2038 H 0.03474 0.84017 0.42791 0.0
H2039 H 0.01244 0.89653 0.43837 0.0
C2040 C 0.99665 0.89394 0.4143 0.0
C2041 C 0.9897 0.88214 0.40135 0.0
C2042 C 0.03349 0.84624 0.44109 0.0
C2043 C 0.01161 0.86893 0.42893 0.0
C2044 C 0.04306 0.83896 0.45556 0.0
C2045 C 0.04129 0.8464 0.47281 0.0
C2046 C 0.02246 0.86133 0.44382 0.0
C2047 C 0.03017 0.86153 0.47495 0.0
C2048 C 0.00742 0.88734 0.42826 0.0
C2049 C 0.99426 0.86385 0.40247 0.0
N2050 N 0.02125 0.86858 0.4606 0.0
N2051 N 0.00503 0.8578 0.41597 0.0
H2052 H 0.35688 0.78326 0.63466 0.0
H2053 H 0.33516 0.75925 0.73732 0.0
H2054 H 0.31303 0.74891 0.65105 0.0
H2055 H 0.37325 0.7999 0.72087 0.0
H2056 H 0.3292 0.75261 0.70567 0.0
H2057 H 0.3653 0.78691 0.66614 0.0
C2058 C 0.349 0.77649 0.64485 0.0
C2059 C 0.33411 0.7659 0.64015 0.0
C2060 C 0.33891 0.76292 0.70901 0.0
C2061 C 0.3438 0.76986 0.67627 0.0
C2062 C 0.34235 0.7667 0.72706 0.0
C2063 C 0.35463 0.78023 0.73173 0.0
C2064 C 0.34788 0.7727 0.69555 0.0
C2065 C 0.36358 0.78944 0.71789 0.0
C2066 C 0.35387 0.77851 0.66283 0.0
C2067 C 0.32467 0.7571 0.65396 0.0
N2068 N 0.35998 0.78554 0.70042 0.0
N2069 N 0.32962 0.75936 0.6714 0.0
H2070 H 0.46547 0.11125 0.9826 0.0
H2071 H 0.52344 0.13924 0.89849 0.0
H2072 H 0.46907 0.16677 0.96609 0.0
H2073 H 0.49975 0.08659 0.90422 0.0
H2074 H 0.50444 0.15006 0.92324 0.0
H2075 H 0.47871 0.10213 0.95403 0.0
C2076 C 0.46896 0.12152 0.97285 0.0
C2077 C 0.46632 0.13977 0.97667 0.0
C2078 C 0.50324 0.13622 0.91886 0.0
C2079 C 0.48173 0.12947 0.94406 0.0
C2080 C 0.51414 0.13002 0.90486 0.0
C2081 C 0.51325 0.11197 0.8994 0.0
C2082 C 0.49164 0.12418 0.92763 0.0
C2083 C 0.50082 0.10062 0.90793 0.0
C2084 C 0.47644 0.11631 0.95652 0.0
C2085 C 0.47091 0.15255 0.96356 0.0
N2086 N 0.49069 0.10685 0.92177 0.0
N2087 N 0.47871 0.14717 0.94787 0.0
H2088 H 0.18303 0.75282 0.3054 0.0
H2089 H 0.10061 0.80709 0.26553 0.0
H2090 H 0.12888 0.73878 0.32034 0.0
H2091 H 0.14216 0.78671 0.23054 0.0
H2092 H 0.11378 0.78982 0.29056 0.0
H2093 H 0.17098 0.77338 0.28229 0.0
C2094 C 0.16862 0.75432 0.30392 0.0
C2095 C 0.15684 0.74417 0.31456 0.0
C2096 C 0.12004 0.78933 0.27741 0.0
C2097 C 0.14312 0.76765 0.28878 0.0
C2098 C 0.11263 0.79918 0.26322 0.0
C2099 C 0.12031 0.79815 0.24603 0.0
C2100 C 0.13549 0.77894 0.27441 0.0
C2101 C 0.1358 0.78767 0.24361 0.0
C2102 C 0.1618 0.7659 0.29079 0.0
C2103 C 0.13827 0.74637 0.31221 0.0
N2104 N 0.143 0.77852 0.25771 0.0
N2105 N 0.13193 0.758 0.2996 0.0
H2106 H 0.45638 0.82775 0.5329 0.0
H2107 H 0.50878 0.89066 0.6009 0.0
H2108 H 0.49893 0.86407 0.51731 0.0
H2109 H 0.46721 0.85339 0.61682 0.0
H2110 H 0.50956 0.87671 0.57132 0.0
H2111 H 0.4644 0.83235 0.56437 0.0
C2112 C 0.46765 0.83642 0.53606 0.0
C2113 C 0.47674 0.84587 0.52248 0.0
C2114 C 0.50043 0.87141 0.58136 0.0
C2115 C 0.48582 0.85138 0.55848 0.0
C2116 C 0.50003 0.87934 0.59834 0.0
C2117 C 0.48763 0.87344 0.61131 0.0
C2118 C 0.48826 0.85757 0.57725 0.0
C2119 C 0.4766 0.85872 0.60708 0.0
C2120 C 0.47219 0.83908 0.55406 0.0
C2121 C 0.49135 0.85675 0.52737 0.0
N2122 N 0.47699 0.85146 0.59034 0.0
N2123 N 0.49523 0.85947 0.54499 0.0
H2124 H 0.3275 0.24552 0.83407 0.0
H2125 H 0.3861 0.17695 0.77522 0.0
H2126 H 0.37067 0.21272 0.85471 0.0
H2127 H 0.35017 0.21577 0.7511 0.0
H2128 H 0.37772 0.18791 0.80477 0.0
H2129 H 0.33271 0.23274 0.80399 0.0
C2130 C 0.33792 0.2355 0.8323 0.0
C2131 C 0.34877 0.23025 0.84685 0.0
C2132 C 0.37162 0.19406 0.79306 0.0
C2133 C 0.35483 0.21569 0.81266 0.0
C2134 C 0.37638 0.18778 0.7761 0.0
C2135 C 0.36889 0.1955 0.76056 0.0
C2136 C 0.35924 0.20823 0.79467 0.0
C2137 C 0.35635 0.20949 0.76269 0.0
C2138 C 0.34097 0.22832 0.81515 0.0
C2139 C 0.36219 0.21734 0.84382 0.0
N2140 N 0.35193 0.21545 0.77946 0.0
N2141 N 0.36484 0.21055 0.82711 0.0
H2142 H 0.06327 0.16648 0.04429 0.0
H2143 H 0.00042 0.09659 0.09693 0.0
H2144 H 0.02998 0.12704 0.0178 0.0
H2145 H 0.02189 0.14437 0.12178 0.0
H2146 H 0.01398 0.10567 0.0684 0.0
H2147 H 0.05117 0.15661 0.07334 0.0
C2148 C 0.05352 0.15566 0.04457 0.0
C2149 C 0.04759 0.14762 0.02853 0.0
C2150 C 0.01575 0.11418 0.08008 0.0
C2151 C 0.03371 0.13627 0.06176 0.0
C2152 C 0.0081 0.10894 0.09642 0.0
C2153 C 0.01007 0.11971 0.1118 0.0
C2154 C 0.02562 0.13026 0.07907 0.0
C2155 C 0.01993 0.13575 0.11023 0.0
C2156 C 0.04656 0.15011 0.06116 0.0
C2157 C 0.03489 0.1337 0.02976 0.0
N2158 N 0.0274 0.1405 0.09418 0.0
N2159 N 0.02841 0.12847 0.04606 0.0
H2160 H 0.25989 0.14358 0.24321 0.0
H2161 H 0.15526 0.15559 0.23087 0.0
H2162 H 0.23475 0.1284 0.19316 0.0
H2163 H 0.17903 0.13994 0.2814 0.0
H2164 H 0.18426 0.14991 0.2159 0.0
H2165 H 0.23022 0.14712 0.25675 0.0
C2166 C 0.2481 0.14111 0.23503 0.0
C2167 C 0.24972 0.13571 0.21705 0.0
C2168 C 0.183 0.14757 0.23023 0.0
C2169 C 0.21578 0.13983 0.23244 0.0
C2170 C 0.16657 0.15087 0.23875 0.0
C2171 C 0.16484 0.14819 0.25735 0.0
C2172 C 0.1978 0.14202 0.24053 0.0
C2173 C 0.17979 0.14199 0.26701 0.0
C2174 C 0.2312 0.14299 0.24281 0.0
C2175 C 0.234 0.13253 0.2071 0.0
N2176 N 0.19572 0.13933 0.25853 0.0
N2177 N 0.21759 0.1348 0.21491 0.0
H2178 H 0.14474 0.86835 0.46357 0.0
H2179 H 0.11247 0.96926 0.48266 0.0
H2180 H 0.09641 0.88267 0.49229 0.0
H2181 H 0.15256 0.95688 0.4425 0.0
H2182 H 0.10922 0.93733 0.48889 0.0
H2183 H 0.15038 0.90052 0.45794 0.0
C2184 C 0.13535 0.87825 0.46866 0.0
C2185 C 0.11999 0.87284 0.47821 0.0
C2186 C 0.11876 0.94154 0.47872 0.0
C2187 C 0.12638 0.90944 0.47203 0.0
C2188 C 0.12068 0.95983 0.47519 0.0
C2189 C 0.13274 0.96578 0.46195 0.0
C2190 C 0.129 0.92899 0.46902 0.0
C2191 C 0.14305 0.95286 0.45277 0.0
C2192 C 0.13853 0.89655 0.46541 0.0
C2193 C 0.10821 0.88617 0.48453 0.0
N2194 N 0.14093 0.93502 0.45645 0.0
N2195 N 0.11169 0.9038 0.48138 0.0
H2196 H 0.32388 0.8738 0.74672 0.0
H2197 H 0.2265 0.84651 0.71328 0.0
H2198 H 0.30436 0.81943 0.75168 0.0
H2199 H 0.25635 0.89073 0.69028 0.0
H2200 H 0.25384 0.83674 0.72896 0.0
H2201 H 0.29788 0.88115 0.7279 0.0
C2202 C 0.31406 0.86345 0.74386 0.0
C2203 C 0.31619 0.84603 0.75077 0.0
C2204 C 0.2544 0.84846 0.7203 0.0
C2205 C 0.28645 0.85427 0.72932 0.0
C2206 C 0.23882 0.85404 0.71137 0.0
C2207 C 0.23909 0.86952 0.70054 0.0
C2208 C 0.27022 0.85862 0.71864 0.0
C2209 C 0.25546 0.87874 0.6985 0.0
C2210 C 0.29933 0.86758 0.73302 0.0
C2211 C 0.30323 0.83299 0.7465 0.0
N2212 N 0.27029 0.87329 0.70767 0.0
N2213 N 0.28878 0.83742 0.73618 0.0
H2214 H 0.37205 0.11577 0.99709 0.0
H2215 H 0.39571 0.01123 0.00661 0.0
H2216 H 0.42094 0.09526 0.02065 0.0
H2217 H 0.35381 0.03136 0.97175 0.0
H2218 H 0.40156 0.04189 0.01665 0.0
H2219 H 0.36198 0.08476 0.99201 0.0
C2220 C 0.38059 0.10472 0.00125 0.0
C2221 C 0.39743 0.10802 0.00906 0.0
C2222 C 0.39098 0.03958 0.00691 0.0
C2223 C 0.38604 0.07272 0.00346 0.0
C2224 C 0.38757 0.02206 0.00124 0.0
C2225 C 0.37442 0.01878 0.98814 0.0
C2226 C 0.38115 0.05389 0.99946 0.0
C2227 C 0.3642 0.03333 0.98175 0.0
C2228 C 0.37488 0.08709 0.99833 0.0
C2229 C 0.40805 0.09329 0.01422 0.0
N2230 N 0.36789 0.05031 0.98736 0.0
N2231 N 0.40218 0.07628 0.01131 0.0
H2232 H 0.23302 0.90562 0.25544 0.0
H2233 H 0.13386 0.87068 0.26913 0.0
H2234 H 0.20822 0.90707 0.30788 0.0
H2235 H 0.15026 0.89766 0.22049 0.0
H2236 H 0.16199 0.88045 0.28359 0.0
H2237 H 0.20362 0.89934 0.24205 0.0
C2238 C 0.22134 0.90472 0.26411 0.0
C2239 C 0.22298 0.90689 0.28276 0.0
C2240 C 0.15929 0.88435 0.26981 0.0
C2241 C 0.18947 0.89936 0.26761 0.0
C2242 C 0.14337 0.87871 0.26157 0.0
C2243 C 0.13978 0.88346 0.24367 0.0
C2244 C 0.17185 0.89437 0.25987 0.0
C2245 C 0.15246 0.89391 0.23438 0.0
C2246 C 0.2046 0.90119 0.25647 0.0
C2247 C 0.20745 0.9056 0.29341 0.0
N2248 N 0.16804 0.89884 0.24252 0.0
N2249 N 0.19132 0.90166 0.28571 0.0
H2250 H 0.39105 1e-05 0.51544 0.0
H2251 H 0.40997 0.89822 0.54376 0.0
H2252 H 0.36843 0.97477 0.56262 0.0
H2253 H 0.41401 0.91601 0.48857 0.0
H2254 H 0.39977 0.92802 0.55232 0.0
H2255 H 0.40445 0.97104 0.5069 0.0
C2256 C 0.38904 0.98845 0.52409 0.0
C2257 C 0.37858 0.98982 0.53978 0.0
C2258 C 0.4029 0.92541 0.53833 0.0
C2259 C 0.39393 0.9568 0.53013 0.0
C2260 C 0.40866 0.9083 0.53336 0.0
C2261 C 0.41258 0.90435 0.51529 0.0
C2262 C 0.40119 0.93888 0.52524 0.0
C2263 C 0.41117 0.91836 0.50264 0.0
C2264 C 0.39661 0.97194 0.51915 0.0
C2265 C 0.37634 0.97437 0.55041 0.0
N2266 N 0.40552 0.93501 0.50784 0.0
N2267 N 0.38398 0.95855 0.54542 0.0
H2268 H 0.27585 0.08467 0.81574 0.0
H2269 H 0.33687 0.15217 0.75901 0.0
H2270 H 0.25679 0.13664 0.79801 0.0
H2271 H 0.34608 0.09489 0.76028 0.0
H2272 H 0.30946 0.1479 0.77669 0.0
H2273 H 0.30367 0.08951 0.79904 0.0
C2274 C 0.27754 0.09719 0.80845 0.0
C2275 C 0.26389 0.11028 0.80825 0.0
C2276 C 0.31747 0.13627 0.77311 0.0
C2277 C 0.29584 0.11585 0.7891 0.0
C2278 C 0.33319 0.13869 0.76314 0.0
C2279 C 0.34381 0.12384 0.75826 0.0
C2280 C 0.31244 0.11889 0.77846 0.0
C2281 C 0.33822 0.10666 0.76369 0.0
C2282 C 0.29341 0.09986 0.79883 0.0
C2283 C 0.2669 0.12617 0.79849 0.0
N2284 N 0.32296 0.10466 0.77361 0.0
N2285 N 0.28258 0.12853 0.78933 0.0
H2286 H 0.1504 0.03979 0.0177 0.0
H2287 H 0.12155 0.13923 0.03939 0.0
H2288 H 0.16235 0.0632 0.06941 0.0
H2289 H 0.13984 0.12415 0.98651 0.0
H2290 H 0.13312 0.11052 0.0512 0.0
H2291 H 0.14315 0.06982 0.00614 0.0
C2292 C 0.15161 0.05129 0.02656 0.0
C2293 C 0.15701 0.04909 0.04449 0.0
C2294 C 0.13477 0.11363 0.03706 0.0
C2295 C 0.1484 0.08327 0.03152 0.0
C2296 C 0.12813 0.1299 0.03035 0.0
C2297 C 0.12988 0.134 0.01203 0.0
C2298 C 0.14272 0.10126 0.02522 0.0
C2299 C 0.13846 0.12153 0.00077 0.0
C2300 C 0.14754 0.06838 0.01996 0.0
C2301 C 0.15836 0.0644 0.05545 0.0
N2302 N 0.14436 0.10559 0.00749 0.0
N2303 N 0.15382 0.08086 0.04886 0.0
H2304 H 0.24939 0.16132 0.1509 0.0
H2305 H 0.25773 0.2641 0.1221 0.0
H2306 H 0.29961 0.18866 0.141 0.0
H2307 H 0.20804 0.23494 0.11553 0.0
H2308 H 0.27278 0.23624 0.13026 0.0
H2309 H 0.23324 0.18789 0.13939 0.0
C2310 C 0.25699 0.17285 0.14629 0.0
C2311 C 0.27587 0.17276 0.14686 0.0
C2312 C 0.25861 0.23581 0.1269 0.0
C2313 C 0.25763 0.20296 0.13377 0.0
C2314 C 0.25002 0.25174 0.12227 0.0
C2315 C 0.23165 0.25177 0.11817 0.0
C2316 C 0.24874 0.21975 0.12774 0.0
C2317 C 0.22228 0.23539 0.11852 0.0
C2318 C 0.2478 0.18791 0.13962 0.0
C2319 C 0.28509 0.18797 0.14059 0.0
N2320 N 0.23091 0.21997 0.12344 0.0
N2321 N 0.27589 0.20244 0.13443 0.0
H2322 H 0.72969 0.24144 0.86274 0.0
H2323 H 0.73772 0.34631 0.87102 0.0
H2324 H 0.69232 0.27176 0.89522 0.0
H2325 H 0.75076 0.31952 0.82137 0.0
H2326 H 0.72282 0.31886 0.88168 0.0
H2327 H 0.73981 0.26954 0.84878 0.0
C2328 C 0.72361 0.25402 0.86692 0.0
C2329 C 0.71025 0.25434 0.88024 0.0
C2330 C 0.72873 0.31905 0.86836 0.0
C2331 C 0.72184 0.28639 0.86446 0.0
C2332 C 0.73723 0.33463 0.86234 0.0
C2333 C 0.74541 0.33502 0.84536 0.0
C2334 C 0.72887 0.30363 0.8575 0.0
C2335 C 0.74448 0.31966 0.8345 0.0
C2336 C 0.72929 0.26999 0.85885 0.0
C2337 C 0.70268 0.27096 0.88502 0.0
N2338 N 0.73661 0.30441 0.84088 0.0
N2339 N 0.70877 0.28638 0.87731 0.0
H2340 H 0.96829 0.45154 0.12067 0.0
H2341 H 0.89488 0.52412 0.14073 0.0
H2342 H 0.95539 0.46674 0.17509 0.0
H2343 H 0.89552 0.49313 0.09174 0.0
H2344 H 0.91554 0.50239 0.15439 0.0
H2345 H 0.94043 0.46539 0.11035 0.0
C2346 C 0.95937 0.45762 0.13047 0.0
C2347 C 0.96406 0.45819 0.14869 0.0
C2348 C 0.91089 0.50016 0.14077 0.0
C2349 C 0.93239 0.47443 0.13699 0.0
C2350 C 0.89922 0.51261 0.13294 0.0
C2351 C 0.89375 0.51054 0.11499 0.0
C2352 C 0.91735 0.48574 0.13045 0.0
C2353 C 0.89945 0.49524 0.10558 0.0
C2354 C 0.94345 0.46547 0.1246 0.0
C2355 C 0.95212 0.46609 0.16092 0.0
N2356 N 0.91121 0.48359 0.11332 0.0
N2357 N 0.93692 0.4743 0.15478 0.0
H2358 H 0.75086 0.65808 0.33114 0.0
H2359 H 0.80476 0.71955 0.40101 0.0
H2360 H 0.78118 0.63685 0.3758 0.0
H2361 H 0.76331 0.74032 0.36602 0.0
H2362 H 0.79919 0.68942 0.38926 0.0
H2363 H 0.75855 0.68864 0.34083 0.0
C2364 C 0.75936 0.65986 0.34282 0.0
C2365 C 0.76537 0.64495 0.35273 0.0
C2366 C 0.7913 0.70057 0.38416 0.0
C2367 C 0.77406 0.67976 0.36397 0.0
C2368 C 0.79447 0.71779 0.39085 0.0
C2369 C 0.78442 0.73249 0.38456 0.0
C2370 C 0.77807 0.698 0.37095 0.0
C2371 C 0.77129 0.72937 0.37135 0.0
C2372 C 0.7636 0.67728 0.34844 0.0
C2373 C 0.77613 0.648 0.36791 0.0
N2374 N 0.76851 0.71246 0.36495 0.0
N2375 N 0.78013 0.66505 0.37308 0.0
H2376 H 0.01917 0.01419 0.13488 0.0
H2377 H 0.11622 0.05727 0.11763 0.0
H2378 H 0.03171 0.07071 0.13974 0.0
H2379 H 0.1052 0.00091 0.10938 0.0
H2380 H 0.08478 0.06214 0.12502 0.0
H2381 H 0.05003 0.00872 0.12448 0.0
C2382 C 0.02833 0.02544 0.13364 0.0
C2383 C 0.02285 0.04292 0.13829 0.0
C2384 C 0.08916 0.04867 0.12159 0.0
C2385 C 0.05805 0.03676 0.1265 0.0
C2386 C 0.10719 0.04587 0.11749 0.0
C2387 C 0.11338 0.02862 0.11308 0.0
C2388 C 0.07713 0.03411 0.12138 0.0
C2389 C 0.10093 0.01443 0.11268 0.0
C2390 C 0.04592 0.02231 0.12773 0.0
C2391 C 0.03528 0.057 0.1364 0.0
N2392 N 0.08337 0.01746 0.11689 0.0
N2393 N 0.05226 0.05359 0.13075 0.0
H2394 H 0.29072 0.8008 0.58372 0.0
H2395 H 0.20293 0.85981 0.60311 0.0
H2396 H 0.23721 0.77847 0.58539 0.0
H2397 H 0.25471 0.87242 0.62586 0.0
H2398 H 0.21606 0.83311 0.58887 0.0
H2399 H 0.27818 0.83039 0.59145 0.0
C2400 C 0.2763 0.80221 0.58531 0.0
C2401 C 0.26496 0.78719 0.58401 0.0
C2402 C 0.22457 0.84185 0.59682 0.0
C2403 C 0.25063 0.82084 0.59274 0.0
C2404 C 0.21714 0.85711 0.60483 0.0
C2405 C 0.22777 0.86825 0.61572 0.0
C2406 C 0.24283 0.83787 0.59948 0.0
C2407 C 0.24606 0.86404 0.61771 0.0
C2408 C 0.26921 0.81903 0.58985 0.0
C2409 C 0.24641 0.78971 0.58639 0.0
N2410 N 0.25304 0.84915 0.60967 0.0
N2411 N 0.23982 0.80621 0.59067 0.0
H2412 H 0.90771 0.48963 0.42956 0.0
H2413 H 0.97366 0.54633 0.36611 0.0
H2414 H 0.89178 0.51257 0.37865 0.0
H2415 H 0.99115 0.51863 0.41411 0.0
H2416 H 0.94298 0.53626 0.37189 0.0
H2417 H 0.93766 0.50246 0.42558 0.0
C2418 C 0.91044 0.49752 0.41763 0.0
C2419 C 0.89721 0.49996 0.40438 0.0
C2420 C 0.95351 0.53241 0.38119 0.0
C2421 C 0.93156 0.51454 0.39965 0.0
C2422 C 0.97105 0.53816 0.3779 0.0
C2423 C 0.98503 0.5332 0.38958 0.0
C2424 C 0.94988 0.52163 0.39628 0.0
C2425 C 0.98081 0.52269 0.4047 0.0
C2426 C 0.92759 0.50474 0.41531 0.0
C2427 C 0.90163 0.51011 0.38907 0.0
N2428 N 0.96361 0.51721 0.40758 0.0
N2429 N 0.91843 0.517 0.38712 0.0
H2430 H 0.52701 0.5007 0.84723 0.0
H2431 H 0.62543 0.4726 0.87487 0.0
H2432 H 0.54518 0.44582 0.84206 0.0
H2433 H 0.61375 0.52531 0.8537 0.0
H2434 H 0.59558 0.46241 0.86496 0.0
H2435 H 0.55827 0.51026 0.85141 0.0
C2436 C 0.5376 0.4907 0.84675 0.0
C2437 C 0.53351 0.47246 0.84427 0.0
C2438 C 0.59967 0.47614 0.86227 0.0
C2439 C 0.56919 0.48322 0.84948 0.0
C2440 C 0.61662 0.48193 0.86796 0.0
C2441 C 0.62204 0.49975 0.86498 0.0
C2442 C 0.58791 0.4884 0.85397 0.0
C2443 C 0.61016 0.5114 0.85602 0.0
C2444 C 0.55542 0.49616 0.84912 0.0
C2445 C 0.54776 0.46004 0.84381 0.0
N2446 N 0.59355 0.50559 0.85105 0.0
N2447 N 0.56495 0.46561 0.84669 0.0
H2448 H 0.57432 0.68967 0.7149 0.0
H2449 H 0.64481 0.74825 0.65864 0.0
H2450 H 0.61833 0.71864 0.73922 0.0
H2451 H 0.59277 0.73344 0.63785 0.0
H2452 H 0.63711 0.73411 0.68729 0.0
H2453 H 0.58271 0.70225 0.68562 0.0
C2454 C 0.58581 0.69859 0.71408 0.0
C2455 C 0.5956 0.70317 0.72958 0.0
C2456 C 0.62737 0.73391 0.67646 0.0
C2457 C 0.60527 0.71753 0.69609 0.0
C2458 C 0.63182 0.74186 0.66005 0.0
C2459 C 0.61943 0.74195 0.6458 0.0
C2460 C 0.61047 0.7258 0.67865 0.0
C2461 C 0.60264 0.73376 0.64852 0.0
C2462 C 0.59053 0.70582 0.69737 0.0
C2463 C 0.61034 0.71481 0.72768 0.0
N2464 N 0.59867 0.72594 0.66461 0.0
N2465 N 0.61474 0.72156 0.71125 0.0
H2466 H 0.57178 0.37516 0.97645 0.0
H2467 H 0.49169 0.40544 0.911 0.0
H2468 H 0.51607 0.37406 0.99282 0.0
H2469 H 0.54797 0.4058 0.89689 0.0
H2470 H 0.49984 0.39542 0.94146 0.0
H2471 H 0.56284 0.38767 0.94767 0.0
C2472 C 0.55763 0.3776 0.97404 0.0
C2473 C 0.54466 0.37349 0.98714 0.0
C2474 C 0.51037 0.39775 0.93167 0.0
C2475 C 0.53423 0.38784 0.95387 0.0
C2476 C 0.50574 0.40354 0.91434 0.0
C2477 C 0.51915 0.40627 0.9013 0.0
C2478 C 0.52854 0.39476 0.93598 0.0
C2479 C 0.53713 0.40351 0.90633 0.0
C2480 C 0.55251 0.38477 0.95752 0.0
C2481 C 0.52652 0.37699 0.98312 0.0
N2482 N 0.54126 0.39788 0.92318 0.0
N2483 N 0.52182 0.3839 0.9668 0.0
H2484 H 0.90652 0.30043 0.21533 0.0
H2485 H 0.85699 0.23751 0.14378 0.0
H2486 H 0.87152 0.25627 0.22945 0.0
H2487 H 0.89618 0.27758 0.12876 0.0
H2488 H 0.86205 0.24467 0.1753 0.0
H2489 H 0.90301 0.29261 0.18356 0.0
C2490 C 0.89816 0.28906 0.21176 0.0
C2491 C 0.88925 0.27901 0.22503 0.0
C2492 C 0.86959 0.25191 0.16514 0.0
C2493 C 0.88515 0.27006 0.18881 0.0
C2494 C 0.86659 0.24791 0.14713 0.0
C2495 C 0.87607 0.25709 0.13364 0.0
C2496 C 0.88211 0.26524 0.16976 0.0
C2497 C 0.88867 0.27015 0.13877 0.0
C2498 C 0.89617 0.2846 0.19364 0.0
C2499 C 0.87861 0.26442 0.21967 0.0
N2500 N 0.89127 0.27392 0.15646 0.0
N2501 N 0.87681 0.26043 0.20197 0.0
H2502 H 0.95504 0.65789 0.47589 0.0
H2503 H 0.98051 0.5845 0.40173 0.0
H2504 H 0.92994 0.60588 0.47059 0.0
H2505 H 0.01732 0.62588 0.41903 0.0
H2506 H 0.95725 0.5977 0.42059 0.0
H2507 H 0.97333 0.65134 0.44905 0.0
C2508 C 0.9531 0.64531 0.4688 0.0
C2509 C 0.9412 0.63228 0.47544 0.0
C2510 C 0.97035 0.60405 0.42006 0.0
C2511 C 0.96178 0.62482 0.44502 0.0
C2512 C 0.98363 0.5966 0.40918 0.0
C2513 C 0.001 0.60397 0.40898 0.0
C2514 C 0.97442 0.61898 0.43085 0.0
C2515 C 0.00422 0.61958 0.4191 0.0
C2516 C 0.96357 0.64155 0.45362 0.0
C2517 C 0.93918 0.61615 0.46596 0.0
N2518 N 0.99109 0.62648 0.42981 0.0
N2519 N 0.94945 0.61283 0.45127 0.0
H2520 H 0.60238 0.25341 0.87387 0.0
H2521 H 0.6163 0.2513 0.76721 0.0
H2522 H 0.64711 0.22848 0.84663 0.0
H2523 H 0.57854 0.28722 0.79286 0.0
H2524 H 0.62385 0.23875 0.79643 0.0
H2525 H 0.58999 0.26236 0.84446 0.0
C2526 C 0.60951 0.2498 0.86169 0.0
C2527 C 0.6259 0.24049 0.8626 0.0
C2528 C 0.61383 0.2493 0.79571 0.0
C2529 C 0.61186 0.25037 0.82921 0.0
C2530 C 0.60948 0.25646 0.779 0.0
C2531 C 0.59696 0.27049 0.77765 0.0
C2532 C 0.60569 0.25626 0.81125 0.0
C2533 C 0.58836 0.27647 0.79336 0.0
C2534 C 0.6025 0.25491 0.84499 0.0
C2535 C 0.63466 0.23603 0.84652 0.0
N2536 N 0.59302 0.26943 0.80961 0.0
N2537 N 0.62754 0.24102 0.83052 0.0
H2538 H 0.94678 0.36143 0.02502 0.0
H2539 H -0.00039 0.42079 0.09717 0.0
H2540 H 0.9823 0.40528 0.01126 0.0
H2541 H 0.9724 0.37143 0.111 0.0
H2542 H 0.99167 0.41615 0.06579 0.0
H2543 H 0.95456 0.36552 0.05674 0.0
C2544 C 0.95623 0.37189 0.02867 0.0
C2545 C 0.9639 0.38305 0.0155 0.0
C2546 C 0.98741 0.40631 0.07566 0.0
C2547 C 0.97276 0.38782 0.05167 0.0
C2548 C 0.99181 0.40904 0.09363 0.0
C2549 C 0.98653 0.39653 0.10674 0.0
C2550 C 0.97759 0.39099 0.0707 0.0
C2551 C 0.9768 0.38133 0.10128 0.0
C2552 C 0.96067 0.37419 0.04675 0.0
C2553 C 0.97607 0.39636 0.02095 0.0
N2554 N 0.97257 0.379 0.08364 0.0
N2555 N 0.98007 0.39841 0.03863 0.0
H2556 H 0.85848 0.70767 0.27473 0.0
H2557 H 0.88888 0.74562 0.37008 0.0
H2558 H 0.91153 0.69792 0.29618 0.0
H2559 H 0.83342 0.73907 0.35446 0.0
H2560 H 0.89806 0.72944 0.34275 0.0
H2561 H 0.84947 0.72042 0.30359 0.0
C2562 C 0.86821 0.70814 0.28556 0.0
C2563 C 0.88579 0.70178 0.28303 0.0
C2564 C 0.88389 0.7314 0.34545 0.0
C2565 C 0.87562 0.71657 0.3161 0.0
C2566 C 0.87867 0.74069 0.36097 0.0
C2567 C 0.86038 0.74364 0.3646 0.0
C2568 C 0.87071 0.7253 0.33336 0.0
C2569 C 0.84765 0.7369 0.35239 0.0
C2570 C 0.86305 0.71538 0.30206 0.0
C2571 C 0.89782 0.70264 0.29757 0.0
N2572 N 0.85306 0.7282 0.33728 0.0
N2573 N 0.89257 0.71009 0.31346 0.0
H2574 H 0.51854 0.59451 0.48894 0.0
H2575 H 0.51067 0.59026 0.59604 0.0
H2576 H 0.55201 0.62743 0.52304 0.0
H2577 H 0.466 0.58207 0.5602 0.0
H2578 H 0.5299 0.59737 0.56983 0.0
H2579 H 0.50314 0.5831 0.51558 0.0
C2580 C 0.52278 0.59923 0.50204 0.0
C2581 C 0.53647 0.61209 0.50375 0.0
C2582 C 0.51594 0.59381 0.56776 0.0
C2583 C 0.51892 0.59893 0.53433 0.0
C2584 C 0.50509 0.58964 0.58261 0.0
C2585 C 0.48686 0.58562 0.58008 0.0
C2586 C 0.50846 0.59351 0.55039 0.0
C2587 C 0.48003 0.58516 0.56255 0.0
C2588 C 0.51394 0.59273 0.51723 0.0
C2589 C 0.54139 0.61766 0.52112 0.0
N2590 N 0.49083 0.58902 0.54836 0.0
N2591 N 0.53259 0.61106 0.53579 0.0
H2592 H 0.6175 0.60074 0.76006 0.0
H2593 H 0.70049 0.63614 0.70665 0.0
H2594 H 0.61251 0.64315 0.72049 0.0
H2595 H 0.6961 0.57933 0.71773 0.0
H2596 H 0.66892 0.63994 0.71485 0.0
H2597 H 0.64667 0.59287 0.74725 0.0
C2598 C 0.62228 0.60831 0.74861 0.0
C2599 C 0.61251 0.62304 0.74175 0.0
C2600 C 0.67482 0.62662 0.71539 0.0
C2601 C 0.64613 0.61416 0.72732 0.0
C2602 C 0.69284 0.62447 0.71088 0.0
C2603 C 0.70085 0.60742 0.71167 0.0
C2604 C 0.66484 0.6117 0.72117 0.0
C2605 C 0.69033 0.59269 0.71699 0.0
C2606 C 0.639 0.60376 0.74133 0.0
C2607 C 0.61964 0.63216 0.72677 0.0
N2608 N 0.67284 0.59519 0.72184 0.0
N2609 N 0.63613 0.62779 0.7203 0.0
H2610 H 0.61358 0.49587 0.96395 0.0
H2611 H 0.6443 0.39373 0.97939 0.0
H2612 H 0.65569 0.47022 0.93322 0.0
H2613 H 0.59752 0.4175 0.00418 0.0
H2614 H 0.64941 0.42191 0.96299 0.0
H2615 H 0.60771 0.46728 0.97903 0.0
C2616 C 0.6215 0.48421 0.96026 0.0
C2617 C 0.6352 0.48549 0.94734 0.0
C2618 C 0.638 0.42092 0.97199 0.0
C2619 C 0.62868 0.45272 0.96473 0.0
C2620 C 0.63518 0.4049 0.98145 0.0
C2621 C 0.62042 0.40324 0.99309 0.0
C2622 C 0.62607 0.43541 0.97434 0.0
C2623 C 0.6089 0.41808 0.99513 0.0
C2624 C 0.61816 0.46787 0.96891 0.0
C2625 C 0.64501 0.46989 0.94311 0.0
N2626 N 0.61198 0.43353 0.98588 0.0
N2627 N 0.64164 0.45419 0.95187 0.0
H2628 H 0.85819 0.33992 0.22207 0.0
H2629 H 0.75279 0.35723 0.21536 0.0
H2630 H 0.82367 0.3429 0.26852 0.0
H2631 H 0.78946 0.3827 0.17823 0.0
H2632 H 0.77845 0.34557 0.23227 0.0
H2633 H 0.83275 0.34962 0.20304 0.0
C2634 C 0.84522 0.34249 0.22817 0.0
C2635 C 0.84294 0.34076 0.24683 0.0
C2636 C 0.78087 0.35365 0.22037 0.0
C2637 C 0.81402 0.35148 0.22536 0.0
C2638 C 0.76625 0.36025 0.21067 0.0
C2639 C 0.76902 0.37104 0.19544 0.0
C2640 C 0.7984 0.35757 0.21464 0.0
C2641 C 0.78677 0.37455 0.19001 0.0
C2642 C 0.83082 0.34809 0.2174 0.0
C2643 C 0.82596 0.34429 0.25421 0.0
N2644 N 0.80085 0.36777 0.19959 0.0
N2645 N 0.81211 0.34937 0.24345 0.0
H2646 H 0.87532 0.5884 0.52427 0.0
H2647 H 0.83501 0.52669 0.44602 0.0
H2648 H 0.86014 0.60829 0.47182 0.0
H2649 H 0.86144 0.50572 0.49333 0.0
H2650 H 0.8389 0.55715 0.45776 0.0
H2651 H 0.86513 0.55845 0.51545 0.0
C2652 C 0.86981 0.58653 0.51094 0.0
C2653 C 0.8689 0.6009 0.4987 0.0
C2654 C 0.84371 0.54586 0.46563 0.0
C2655 C 0.85699 0.5667 0.48861 0.0
C2656 C 0.84147 0.52847 0.45896 0.0
C2657 C 0.84811 0.51368 0.46863 0.0
C2658 C 0.85258 0.54843 0.4821 0.0
C2659 C 0.8563 0.51677 0.48534 0.0
C2660 C 0.86392 0.56944 0.50594 0.0
C2661 C 0.86114 0.59773 0.48176 0.0
N2662 N 0.8584 0.53382 0.49151 0.0
N2663 N 0.85563 0.58095 0.47718 0.0
H2664 H 0.64388 0.34724 0.73485 0.0
H2665 H 0.71234 0.38727 0.8076 0.0
H2666 H 0.63073 0.35367 0.79107 0.0
H2667 H 0.72785 0.36986 0.75443 0.0
H2668 H 0.68105 0.37969 0.80053 0.0
H2669 H 0.67352 0.35997 0.7407 0.0
C2670 C 0.6472 0.35129 0.74843 0.0
C2671 C 0.63482 0.34912 0.76252 0.0
C2672 C 0.69131 0.37768 0.79039 0.0
C2673 C 0.6687 0.36397 0.76926 0.0
C2674 C 0.70913 0.38206 0.79438 0.0
C2675 C 0.7227 0.37902 0.78163 0.0
C2676 C 0.68708 0.37034 0.77349 0.0
C2677 C 0.71782 0.37224 0.76473 0.0
C2678 C 0.66411 0.35866 0.75174 0.0
C2679 C 0.63975 0.3551 0.77976 0.0
N2680 N 0.70043 0.36805 0.76118 0.0
N2681 N 0.65635 0.36215 0.78266 0.0
H2682 H 0.92441 0.43607 0.98666 0.0
H2683 H 0.85129 0.48801 0.04639 0.0
H2684 H 0.87239 0.41403 -0.00014 0.0
H2685 H 0.89996 0.51265 0.02651 0.0
H2686 H 0.85953 0.46015 0.03094 0.0
H2687 H 0.91644 0.4636 0.00273 0.0
C2688 C 0.91134 0.43698 0.99299 0.0
C2689 C 0.89905 0.42269 0.99189 0.0
C2690 C 0.86841 0.47166 0.02996 0.0
C2691 C 0.88978 0.45425 0.01026 0.0
C2692 C 0.86373 0.48756 0.03881 0.0
C2693 C 0.87493 0.50271 0.03771 0.0
C2694 C 0.88445 0.47085 0.02001 0.0
C2695 C 0.89088 0.50133 0.0277 0.0
C2696 C 0.90675 0.45275 0.00209 0.0
C2697 C 0.8822 0.42476 0.00017 0.0
N2698 N 0.89517 0.48569 0.01925 0.0
N2699 N 0.87808 0.44021 0.00904 0.0
H2700 H 0.77854 0.62639 0.27259 0.0
H2701 H 0.88026 0.59707 0.26196 0.0
H2702 H 0.7969 0.57799 0.29908 0.0
H2703 H 0.86264 0.65221 0.26601 0.0
H2704 H 0.84976 0.5872 0.27085 0.0
H2705 H 0.80935 0.63322 0.26425 0.0
C2706 C 0.78904 0.61707 0.27655 0.0
C2707 C 0.78514 0.60164 0.28668 0.0
C2708 C 0.85276 0.60143 0.26995 0.0
C2709 C 0.82057 0.60948 0.27709 0.0
C2710 C 0.87004 0.60703 0.26489 0.0
C2711 C 0.87398 0.62545 0.26346 0.0
C2712 C 0.83938 0.6144 0.27305 0.0
C2713 C 0.86032 0.6379 0.26727 0.0
C2714 C 0.80666 0.62107 0.27185 0.0
C2715 C 0.79938 0.59009 0.29135 0.0
N2716 N 0.84362 0.63214 0.2717 0.0
N2717 N 0.81657 0.59423 0.28649 0.0
H2718 H 0.63403 0.50168 0.50437 0.0
H2719 H 0.60634 0.60431 0.50939 0.0
H2720 H 0.64323 0.53326 0.55214 0.0
H2721 H 0.61617 0.57636 0.4595 0.0
H2722 H 0.6192 0.57864 0.52579 0.0
H2723 H 0.62713 0.52917 0.48784 0.0
C2724 C 0.63479 0.51447 0.51131 0.0
C2725 C 0.63912 0.51527 0.5296 0.0
C2726 C 0.61872 0.57829 0.51124 0.0
C2727 C 0.63093 0.54673 0.51092 0.0
C2728 C 0.61127 0.59283 0.50192 0.0
C2729 C 0.61013 0.59241 0.48308 0.0
C2730 C 0.62478 0.5632 0.50162 0.0
C2731 C 0.61692 0.57733 0.474 0.0
C2732 C 0.63088 0.53016 0.50188 0.0
C2733 C 0.64 0.53215 0.53799 0.0
N2734 N 0.62378 0.56327 0.48336 0.0
N2735 N 0.63564 0.54727 0.52862 0.0
H2736 H 0.69561 0.64158 0.64244 0.0
H2737 H 0.723 0.74496 0.62979 0.0
H2738 H 0.74757 0.66209 0.65799 0.0
H2739 H 0.67222 0.72185 0.61367 0.0
H2740 H 0.73219 0.71546 0.6415 0.0
H2741 H 0.6867 0.67162 0.63323 0.0
C2742 C 0.70521 0.65242 0.64382 0.0
C2743 C 0.72246 0.64927 0.65075 0.0
C2744 C 0.71903 0.71693 0.63545 0.0
C2745 C 0.71225 0.68397 0.64035 0.0
C2746 C 0.71377 0.73374 0.62876 0.0
C2747 C 0.69682 0.7359 0.6207 0.0
C2748 C 0.70722 0.70224 0.63406 0.0
C2749 C 0.68542 0.7209 0.61975 0.0
C2750 C 0.70007 0.66965 0.63865 0.0
C2751 C 0.73414 0.66398 0.6527 0.0
N2752 N 0.69084 0.70477 0.6263 0.0
N2753 N 0.72887 0.68072 0.64741 0.0
H2754 H 0.20172 0.77338 0.37574 0.0
H2755 H 0.25661 0.84888 0.3224 0.0
H2756 H 0.2404 0.7616 0.33403 0.0
H2757 H 0.22559 0.85976 0.37024 0.0
H2758 H 0.24876 0.81712 0.3249 0.0
H2759 H 0.20855 0.80535 0.37257 0.0
C2760 C 0.21166 0.77752 0.36592 0.0
C2761 C 0.22054 0.76481 0.35515 0.0
C2762 C 0.24364 0.82645 0.33484 0.0
C2763 C 0.22833 0.80136 0.35141 0.0
C2764 C 0.24799 0.84462 0.33333 0.0
C2765 C 0.24171 0.85698 0.34613 0.0
C2766 C 0.23286 0.82061 0.3492 0.0
C2767 C 0.23085 0.85063 0.3602 0.0
C2768 C 0.21556 0.79577 0.36413 0.0
C2769 C 0.23328 0.77093 0.34265 0.0
N2770 N 0.22675 0.83287 0.36135 0.0
N2771 N 0.23677 0.78879 0.34109 0.0
H2772 H 0.4741 0.98193 0.64193 0.0
H2773 H 0.37204 0.97782 0.61387 0.0
H2774 H 0.44157 0.93561 0.6547 0.0
H2775 H 0.39799 0.02794 0.62692 0.0
H2776 H 0.39769 0.96148 0.62678 0.0
H2777 H 0.44681 0.99865 0.63425 0.0
C2778 C 0.46118 0.97531 0.64319 0.0
C2779 C 0.46006 0.95736 0.6489 0.0
C2780 C 0.39765 0.97605 0.62702 0.0
C2781 C 0.42885 0.97633 0.6399 0.0
C2782 C 0.38309 0.98534 0.61961 0.0
C2783 C 0.38296 0.00422 0.61934 0.0
C2784 C 0.41235 0.98573 0.63382 0.0
C2785 C 0.39754 0.01339 0.62701 0.0
C2786 C 0.44563 0.98489 0.63889 0.0
C2787 C 0.44299 0.94946 0.6504 0.0
N2788 N 0.41179 0.00406 0.6337 0.0
N2789 N 0.42803 0.95892 0.64567 0.0
H2790 H 0.25784 0.22343 0.89709 0.0
H2791 H 0.27955 0.1214 0.87687 0.0
H2792 H 0.3119 0.20295 0.90193 0.0
H2793 H 0.22839 0.13827 0.89827 0.0
H2794 H 0.29183 0.15136 0.88365 0.0
H2795 H 0.24666 0.19254 0.89518 0.0
C2796 C 0.26734 0.21241 0.89787 0.0
C2797 C 0.28582 0.21574 0.89969 0.0
C2798 C 0.27799 0.14839 0.88707 0.0
C2799 C 0.27314 0.18036 0.89716 0.0
C2800 C 0.27099 0.13137 0.88316 0.0
C2801 C 0.25297 0.12736 0.88709 0.0
C2802 C 0.26675 0.16162 0.89455 0.0
C2803 C 0.2424 0.14073 0.89523 0.0
C2804 C 0.26095 0.19479 0.89684 0.0
C2805 C 0.29754 0.20094 0.90065 0.0
N2806 N 0.24937 0.15733 0.89846 0.0
N2807 N 0.29104 0.18387 0.89912 0.0
H2808 H 0.5767 0.48455 0.5857 0.0
H2809 H 0.51163 0.54582 0.64505 0.0
H2810 H 0.59571 0.5222 0.6256 0.0
H2811 H 0.49271 0.50292 0.61083 0.0
H2812 H 0.54254 0.5367 0.63879 0.0
H2813 H 0.54596 0.49028 0.59547 0.0
C2814 C 0.5745 0.49386 0.59666 0.0
C2815 C 0.58893 0.50299 0.60474 0.0
C2816 C 0.53163 0.52919 0.63276 0.0
C2817 C 0.55357 0.50983 0.61581 0.0
C2818 C 0.51396 0.53439 0.63632 0.0
C2819 C 0.49955 0.52518 0.62836 0.0
C2820 C 0.53495 0.51475 0.62103 0.0
C2821 C 0.5034 0.51044 0.61722 0.0
C2822 C 0.55687 0.4972 0.60217 0.0
C2823 C 0.58506 0.5151 0.61872 0.0
N2824 N 0.52074 0.50577 0.61377 0.0
N2825 N 0.56777 0.51825 0.62372 0.0
H2826 H 0.73115 0.33342 0.11636 0.0
H2827 H 0.82554 0.29168 0.08716 0.0
H2828 H 0.78059 0.36261 0.12429 0.0
H2829 H 0.78046 0.25963 0.10469 0.0
H2830 H 0.80861 0.31905 0.09513 0.0
H2831 H 0.74843 0.30742 0.10616 0.0
C2832 C 0.74565 0.33442 0.11575 0.0
C2833 C 0.75446 0.3502 0.12116 0.0
C2834 C 0.80248 0.30599 0.09716 0.0
C2835 C 0.77435 0.32044 0.10949 0.0
C2836 C 0.81205 0.29042 0.09252 0.0
C2837 C 0.80438 0.27339 0.09532 0.0
C2838 C 0.78502 0.30444 0.10422 0.0
C2839 C 0.78692 0.27248 0.10241 0.0
C2840 C 0.75552 0.31953 0.11006 0.0
C2841 C 0.77333 0.35063 0.12036 0.0
N2842 N 0.77781 0.28777 0.10652 0.0
N2843 N 0.78269 0.33597 0.11455 0.0
H2844 H 0.41027 0.01434 0.88889 0.0
H2845 H 0.51688 0.0205 0.90123 0.0
H2846 H 0.43781 0.99064 0.93404 0.0
H2847 H 0.48654 0.04719 0.85947 0.0
H2848 H 0.48902 0.00632 0.91184 0.0
H2849 H 0.43912 0.02263 0.87581 0.0
C2850 C 0.42251 0.01073 0.89592 0.0
C2851 C 0.42177 0.00202 0.9126 0.0
C2852 C 0.48854 0.01521 0.90031 0.0
C2853 C 0.45489 0.01169 0.89795 0.0
C2854 C 0.5044 0.02333 0.89428 0.0
C2855 C 0.504 0.03515 0.87954 0.0
C2856 C 0.47227 0.01891 0.89145 0.0
C2857 C 0.4875 0.0383 0.87097 0.0
C2858 C 0.43898 0.01548 0.88851 0.0
C2859 C 0.43793 0.99735 0.92112 0.0
N2860 N 0.47234 0.03026 0.87708 0.0
N2861 N 0.45392 0.00249 0.91381 0.0
H2862 H 0.99064 0.98276 0.37857 0.0
H2863 H 0.09099 0.96547 0.41061 0.0
H2864 H 0.01681 0.93175 0.36927 0.0
H2865 H 0.07416 0.01627 0.38833 0.0
H2866 H 0.06161 0.95253 0.40227 0.0
H2867 H 0.01936 0.99513 0.38898 0.0
C2868 C 0.0024 0.97416 0.37882 0.0
C2869 C 0.00142 0.95626 0.37299 0.0
C2870 C 0.06441 0.96651 0.39928 0.0
C2871 C 0.03402 0.97017 0.38514 0.0
C2872 C 0.08102 0.97385 0.40409 0.0
C2873 C 0.08487 0.99183 0.39996 0.0
C2874 C 0.05155 0.97744 0.39078 0.0
C2875 C 0.07166 0.00228 0.39149 0.0
C2876 C 0.01873 0.98122 0.3847 0.0
C2877 C 0.01705 0.94566 0.37355 0.0
N2878 N 0.0555 0.99497 0.38726 0.0
N2879 N 0.03274 0.95276 0.37965 0.0
H2880 H 0.09522 0.07774 0.40288 0.0
H2881 H 0.1195 0.17639 0.36925 0.0
H2882 H 0.13831 0.10905 0.42611 0.0
H2883 H 0.07975 0.14153 0.34519 0.0
H2884 H 0.12307 0.15464 0.39374 0.0
H2885 H 0.08586 0.10371 0.38576 0.0
C2886 C 0.10256 0.09017 0.40473 0.0
C2887 C 0.11765 0.09106 0.41609 0.0
C2888 C 0.11336 0.15196 0.38323 0.0
C2889 C 0.10723 0.121 0.39569 0.0
C2890 C 0.11134 0.16433 0.3692 0.0
C2891 C 0.09952 0.16071 0.35487 0.0
C2892 C 0.10346 0.1359 0.38296 0.0
C2893 C 0.08897 0.14508 0.35586 0.0
C2894 C 0.09726 0.10503 0.39472 0.0
C2895 C 0.1268 0.10757 0.41734 0.0
N2896 N 0.09137 0.1332 0.36949 0.0
N2897 N 0.12156 0.12185 0.4071 0.0
H2898 H 0.13856 0.909 0.63605 0.0
H2899 H 0.08168 0.83227 0.58744 0.0
H2900 H 0.13433 0.85459 0.65599 0.0
H2901 H 0.10066 0.88041 0.56107 0.0
H2902 H 0.0936 0.8435 0.61592 0.0
H2903 H 0.11727 0.9017 0.61226 0.0
C2904 C 0.13278 0.89563 0.63576 0.0
C2905 C 0.1383 0.88235 0.64806 0.0
C2906 C 0.0949 0.85171 0.60395 0.0
C2907 C 0.11415 0.87386 0.62052 0.0
C2908 C 0.08814 0.84532 0.58767 0.0
C2909 C 0.09054 0.85524 0.57174 0.0
C2910 C 0.104 0.86821 0.60435 0.0
C2911 C 0.09856 0.87228 0.57296 0.0
C2912 C 0.12075 0.89145 0.62203 0.0
C2913 C 0.13059 0.86518 0.6467 0.0
N2914 N 0.10522 0.87812 0.58895 0.0
N2915 N 0.11901 0.86137 0.63306 0.0
H2916 H 0.35809 0.82349 0.869 0.0
H2917 H 0.40578 0.91037 0.90967 0.0
H2918 H 0.40479 0.84958 0.84628 0.0
H2919 H 0.35412 0.89067 0.92737 0.0
H2920 H 0.40952 0.8833 0.89152 0.0
H2921 H 0.36017 0.84348 0.89505 0.0
C2922 C 0.36889 0.83324 0.86955 0.0
C2923 C 0.38112 0.83499 0.85525 0.0
C2924 C 0.39746 0.88478 0.89956 0.0
C2925 C 0.38367 0.8577 0.88507 0.0
C2926 C 0.39538 0.90018 0.91002 0.0
C2927 C 0.37945 0.90293 0.91974 0.0
C2928 C 0.38349 0.8721 0.89877 0.0
C2929 C 0.3664 0.88929 0.91966 0.0
C2930 C 0.37012 0.84457 0.88447 0.0
C2931 C 0.3951 0.84758 0.85695 0.0
N2932 N 0.36859 0.87456 0.90911 0.0
N2933 N 0.39585 0.85857 0.87145 0.0
H2934 H 0.41335 0.18054 0.10465 0.0
H2935 H 0.3846 0.1003 0.16736 0.0
H2936 H 0.44175 0.12989 0.10593 0.0
H2937 H 0.36416 0.15449 0.17232 0.0
H2938 H 0.40883 0.11176 0.1482 0.0
H2939 H 0.39908 0.17282 0.13312 0.0
C2940 C 0.41695 0.168 0.11114 0.0
C2941 C 0.42836 0.15563 0.10263 0.0
C2942 C 0.39925 0.12117 0.15386 0.0
C2943 C 0.41165 0.14641 0.13498 0.0
C2944 C 0.38537 0.11461 0.16472 0.0
C2945 C 0.37219 0.12637 0.17138 0.0
C2946 C 0.39978 0.13957 0.14945 0.0
C2947 C 0.37403 0.14485 0.16769 0.0
C2948 C 0.40868 0.1635 0.12736 0.0
C2949 C 0.43252 0.13955 0.11172 0.0
N2950 N 0.38735 0.1508 0.15677 0.0
N2951 N 0.42385 0.13521 0.12719 0.0
H2952 H 0.12997 0.84514 0.13286 0.0
H2953 H 0.19012 0.9335 0.12798 0.0
H2954 H 0.16116 0.86608 0.17708 0.0
H2955 H 0.15074 0.91844 0.08813 0.0
H2956 H 0.18627 0.9042 0.14242 0.0
H2957 H 0.1444 0.86691 0.11285 0.0
C2958 C 0.14016 0.85402 0.13827 0.0
C2959 C 0.14407 0.85404 0.15674 0.0
C2960 C 0.17866 0.90721 0.13036 0.0
C2961 C 0.16052 0.879 0.134 0.0
C2962 C 0.1809 0.9239 0.12208 0.0
C2963 C 0.17046 0.92853 0.10705 0.0
C2964 C 0.16592 0.89506 0.12355 0.0
C2965 C 0.1587 0.91558 0.09998 0.0
C2966 C 0.14837 0.86645 0.12686 0.0
C2967 C 0.15766 0.86558 0.16297 0.0
N2968 N 0.15659 0.89951 0.10842 0.0
N2969 N 0.16514 0.87783 0.15168 0.0
H2970 H 0.34931 0.88621 0.33444 0.0
H2971 H 0.39993 0.9037 0.42743 0.0
H2972 H 0.3372 0.93052 0.36989 0.0
H2973 H 0.4081 0.85667 0.3944 0.0
H2974 H 0.3809 0.91655 0.40393 0.0
H2975 H 0.37478 0.87821 0.35356 0.0
C2976 C 0.35215 0.89438 0.34615 0.0
C2977 C 0.34094 0.90887 0.35076 0.0
C2978 C 0.387 0.9035 0.40174 0.0
C2979 C 0.37005 0.89977 0.37274 0.0
C2980 C 0.39796 0.89619 0.41511 0.0
C2981 C 0.40548 0.87898 0.41297 0.0
C2982 C 0.3835 0.89354 0.38609 0.0
C2983 C 0.40229 0.86981 0.39679 0.0
C2984 C 0.3667 0.88982 0.35706 0.0
C2985 C 0.34547 0.91924 0.36585 0.0
N2986 N 0.39144 0.87714 0.38404 0.0
N2987 N 0.35954 0.91433 0.37646 0.0
H2988 H 0.32961 0.09391 0.58793 0.0
H2989 H 0.39116 0.16475 0.6393 0.0
H2990 H 0.38559 0.10236 0.57486 0.0
H2991 H 0.34456 0.13886 0.66235 0.0
H2992 H 0.38516 0.14946 0.6108 0.0
H2993 H 0.33129 0.11791 0.60991 0.0
C2994 C 0.34218 0.10114 0.58925 0.0
C2995 C 0.35751 0.09607 0.57936 0.0
C2996 C 0.37609 0.14744 0.62202 0.0
C2997 C 0.35951 0.12344 0.6051 0.0
C2998 C 0.37946 0.15614 0.63829 0.0
C2999 C 0.36861 0.15272 0.65344 0.0
C3000 C 0.36159 0.1355 0.62078 0.0
C3001 C 0.35335 0.14188 0.65114 0.0
C3002 C 0.34312 0.11475 0.60201 0.0
C3003 C 0.37349 0.10571 0.58223 0.0
N3004 N 0.35044 0.13346 0.63519 0.0
N3005 N 0.37412 0.11887 0.59496 0.0
H3006 H 0.08378 0.15255 0.90515 0.0
H3007 H 0.1616 0.08403 0.87833 0.0
H3008 H 0.11105 0.11814 0.94336 0.0
H3009 H 0.15485 0.1346 0.85057 0.0
H3010 H 0.13726 0.09219 0.8987 0.0
H3011 H 0.10421 0.14182 0.88165 0.0
C3012 C 0.09388 0.14265 0.90866 0.0
C3013 C 0.09573 0.13649 0.92649 0.0
C3014 C 0.14097 0.10143 0.88804 0.0
C3015 C 0.11877 0.12387 0.89944 0.0
C3016 C 0.15477 0.09675 0.87632 0.0
C3017 C 0.16016 0.10862 0.86264 0.0
C3018 C 0.13232 0.11806 0.88607 0.0
C3019 C 0.15108 0.1251 0.86095 0.0
C3020 C 0.10549 0.13654 0.89518 0.0
C3021 C 0.1088 0.12323 0.92992 0.0
N3022 N 0.13753 0.12935 0.87255 0.0
N3023 N 0.11981 0.11744 0.91655 0.0
H3024 H 0.17669 0.3775 0.13964 0.0
H3025 H 0.073 0.394 0.1225 0.0
H3026 H 0.14804 0.36096 0.09192 0.0
H3027 H 0.10138 0.42124 0.16521 0.0
H3028 H 0.10131 0.38321 0.11078 0.0
H3029 H 0.15066 0.39571 0.14844 0.0
C3030 C 0.16511 0.37797 0.13082 0.0
C3031 C 0.16446 0.36736 0.11517 0.0
C3032 C 0.10148 0.39168 0.12262 0.0
C3033 C 0.13471 0.38806 0.12521 0.0
C3034 C 0.08524 0.39792 0.12934 0.0
C3035 C 0.08475 0.40879 0.14477 0.0
C3036 C 0.11753 0.39595 0.13151 0.0
C3037 C 0.1011 0.41283 0.15334 0.0
C3038 C 0.15028 0.38838 0.13587 0.0
C3039 C 0.14927 0.36884 0.10409 0.0
N3040 N 0.11687 0.40632 0.14663 0.0
N3041 N 0.13493 0.37872 0.10948 0.0
H3042 H 0.59481 0.12212 0.8095 0.0
H3043 H 0.68141 0.13852 0.86358 0.0
H3044 H 0.62777 0.07891 0.8301 0.0
H3045 H 0.65502 0.17974 0.8324 0.0
H3046 H 0.66676 0.11562 0.84519 0.0
H3047 H 0.6207 0.14193 0.81041 0.0
C3048 C 0.60761 0.11658 0.8137 0.0
C3049 C 0.6089 0.09895 0.82041 0.0
C3050 C 0.66453 0.12966 0.842 0.0
C3051 C 0.63854 0.12187 0.8221 0.0
C3052 C 0.67288 0.14271 0.85253 0.0
C3053 C 0.66906 0.16096 0.84972 0.0
C3054 C 0.65193 0.13494 0.82892 0.0
C3055 C 0.65816 0.16577 0.8351 0.0
C3056 C 0.62244 0.128 0.81433 0.0
C3057 C 0.62594 0.09263 0.82557 0.0
N3058 N 0.64958 0.15281 0.82553 0.0
N3059 N 0.63998 0.10422 0.82681 0.0
H3060 H 0.90176 0.86914 0.31709 0.0
H3061 H 0.80819 0.85278 0.36518 0.0
H3062 H 0.87173 0.9105 0.34467 0.0
H3063 H 0.84066 0.81118 0.34095 0.0
H3064 H 0.82699 0.87546 0.35054 0.0
H3065 H 0.87548 0.84967 0.31833 0.0
C3066 C 0.88952 0.87433 0.32302 0.0
C3067 C 0.88911 0.89138 0.33113 0.0
C3068 C 0.82974 0.86137 0.34809 0.0
C3069 C 0.85902 0.8689 0.33297 0.0
C3070 C 0.819 0.84841 0.35644 0.0
C3071 C 0.82308 0.83005 0.35462 0.0
C3072 C 0.84472 0.8559 0.33796 0.0
C3073 C 0.83701 0.82516 0.34283 0.0
C3074 C 0.87451 0.86312 0.32384 0.0
C3075 C 0.87283 0.89726 0.33871 0.0
N3076 N 0.84754 0.838 0.33525 0.0
N3077 N 0.85853 0.88592 0.33973 0.0
H3078 H 0.89281 0.16226 0.05621 0.0
H3079 H 0.90143 0.07814 0.12238 0.0
H3080 H 0.85506 0.14886 0.09812 0.0
H3081 H 0.9454 0.09896 0.09076 0.0
H3082 H 0.88085 0.09813 0.10628 0.0
H3083 H 0.90863 0.13375 0.06188 0.0
C3084 C 0.88764 0.1531 0.0663 0.0
C3085 C 0.87282 0.15794 0.07692 0.0
C3086 C 0.89494 0.09804 0.10258 0.0
C3087 C 0.8907 0.12551 0.08345 0.0
C3088 C 0.90667 0.0866 0.11172 0.0
C3089 C 0.9252 0.08715 0.10815 0.0
C3090 C 0.9018 0.1102 0.08983 0.0
C3091 C 0.93123 0.09814 0.094 0.0
C3092 C 0.89668 0.13691 0.06957 0.0
C3093 C 0.86662 0.14569 0.08985 0.0
N3094 N 0.91961 0.10952 0.0856 0.0
N3095 N 0.87569 0.13013 0.09287 0.0
H3096 H 0.32686 0.65475 0.57857 0.0
H3097 H 0.39555 0.61846 0.651 0.0
H3098 H 0.33759 0.68232 0.62847 0.0
H3099 H 0.36906 0.58244 0.61384 0.0
H3100 H 0.37481 0.64207 0.64241 0.0
H3101 H 0.34306 0.62835 0.59016 0.0
C3102 C 0.33256 0.65521 0.59197 0.0
C3103 C 0.33092 0.67075 0.60257 0.0
C3104 C 0.37339 0.62893 0.63628 0.0
C3105 C 0.34944 0.64075 0.61582 0.0
C3106 C 0.38517 0.61526 0.64133 0.0
C3107 C 0.38424 0.59821 0.63318 0.0
C3108 C 0.36072 0.6258 0.6227 0.0
C3109 C 0.37067 0.59538 0.62027 0.0
C3110 C 0.34167 0.64012 0.59861 0.0
C3111 C 0.33841 0.67058 0.6199 0.0
N3112 N 0.35961 0.6091 0.61526 0.0
N3113 N 0.34749 0.65591 0.6259 0.0
H3114 H 0.18064 0.62594 0.38863 0.0
H3115 H 0.10172 0.59489 0.33076 0.0
H3116 H 0.17488 0.64247 0.33324 0.0
H3117 H 0.12321 0.55877 0.37114 0.0
H3118 H 0.12987 0.6108 0.33045 0.0
H3119 H 0.16156 0.5998 0.38238 0.0
C3120 C 0.17572 0.62384 0.37508 0.0
C3121 C 0.17908 0.63657 0.36152 0.0
C3122 C 0.12856 0.59918 0.33916 0.0
C3123 C 0.15727 0.60693 0.35437 0.0
C3124 C 0.11237 0.58987 0.33929 0.0
C3125 C 0.10964 0.57545 0.35125 0.0
C3126 C 0.14205 0.59453 0.35146 0.0
C3127 C 0.12422 0.57019 0.36218 0.0
C3128 C 0.16495 0.60888 0.3715 0.0
C3129 C 0.17263 0.63306 0.34413 0.0
N3130 N 0.13964 0.58002 0.36236 0.0
N3131 N 0.1617 0.6188 0.34116 0.0
H3132 H 0.3415 0.34218 0.86336 0.0
H3133 H 0.43067 0.39416 0.89276 0.0
H3134 H 0.36822 0.33415 0.91427 0.0
H3135 H 0.4016 0.40591 0.84386 0.0
H3136 H 0.40656 0.37393 0.90188 0.0
H3137 H 0.36205 0.36703 0.85685 0.0
C3138 C 0.3516 0.34572 0.87323 0.0
C3139 C 0.3532 0.33596 0.88934 0.0
C3140 C 0.40536 0.38104 0.88922 0.0
C3141 C 0.37681 0.36441 0.88196 0.0
C3142 C 0.41911 0.39273 0.88403 0.0
C3143 C 0.41831 0.40172 0.86742 0.0
C3144 C 0.3907 0.37815 0.87768 0.0
C3145 C 0.40304 0.39902 0.85661 0.0
C3146 C 0.3633 0.35996 0.86953 0.0
C3147 C 0.36638 0.34135 0.90174 0.0
N3148 N 0.38993 0.38739 0.86186 0.0
N3149 N 0.37777 0.35507 0.89771 0.0
H3150 H 0.61797 0.56776 0.8728 0.0
H3151 H 0.59989 0.67066 0.85291 0.0
H3152 H 0.63399 0.60743 0.91198 0.0
H3153 H 0.61541 0.63235 0.81218 0.0
H3154 H 0.60766 0.64832 0.87621 0.0
H3155 H 0.61045 0.59189 0.85188 0.0
C3156 C 0.61947 0.58158 0.87718 0.0
C3157 C 0.62651 0.58563 0.89418 0.0
C3158 C 0.6096 0.64503 0.86215 0.0
C3159 C 0.61828 0.61328 0.87015 0.0
C3160 C 0.60528 0.65772 0.84892 0.0
C3161 C 0.6072 0.65338 0.83063 0.0
C3162 C 0.61534 0.62781 0.85693 0.0
C3163 C 0.61402 0.63638 0.82611 0.0
C3164 C 0.61544 0.59532 0.86513 0.0
C3165 C 0.62857 0.6038 0.89897 0.0
N3166 N 0.61758 0.62414 0.83915 0.0
N3167 N 0.62446 0.61704 0.88698 0.0
H3168 H 0.64336 0.4178 0.16049 0.0
H3169 H 0.60345 0.42493 0.06196 0.0
H3170 H 0.67169 0.43909 0.11446 0.0
H3171 H 0.57926 0.39487 0.10523 0.0
H3172 H 0.62323 0.43969 0.08372 0.0
H3173 H 0.61548 0.41837 0.14308 0.0
C3174 C 0.64369 0.42284 0.14682 0.0
C3175 C 0.66002 0.42796 0.1388 0.0
C3176 C 0.61321 0.43029 0.08855 0.0
C3177 C 0.62811 0.42877 0.11884 0.0
C3178 C 0.60176 0.42204 0.07615 0.0
C3179 C 0.58994 0.4085 0.08184 0.0
C3180 C 0.61281 0.42485 0.10667 0.0
C3181 C 0.58839 0.40511 0.10034 0.0
C3182 C 0.62774 0.42327 0.13692 0.0
C3183 C 0.65949 0.4349 0.12122 0.0
N3184 N 0.59999 0.41292 0.11207 0.0
N3185 N 0.64388 0.43479 0.11173 0.0
H3186 H 0.85449 0.32581 0.33948 0.0
H3187 H 0.87915 0.38835 0.42239 0.0
H3188 H 0.90679 0.32559 0.36488 0.0
H3189 H 0.82988 0.39137 0.3918 0.0
H3190 H 0.88731 0.36107 0.40593 0.0
H3191 H 0.84319 0.34466 0.36337 0.0
C3192 C 0.86358 0.32929 0.35029 0.0
C3193 C 0.88177 0.32409 0.34997 0.0
C3194 C 0.8746 0.36758 0.40304 0.0
C3195 C 0.86884 0.34655 0.37722 0.0
C3196 C 0.86996 0.38321 0.41234 0.0
C3197 C 0.85395 0.3924 0.40822 0.0
C3198 C 0.86313 0.36109 0.38956 0.0
C3199 C 0.84234 0.3848 0.39546 0.0
C3200 C 0.85709 0.34032 0.3639 0.0
C3201 C 0.8928 0.32955 0.3643 0.0
N3202 N 0.84727 0.36973 0.38644 0.0
N3203 N 0.88623 0.34072 0.37722 0.0
H3204 H 0.82788 0.58352 0.6473 0.0
H3205 H 0.87642 0.66034 0.60125 0.0
H3206 H 0.83046 0.63459 0.6751 0.0
H3207 H 0.90296 0.60858 0.60373 0.0
H3208 H 0.8585 0.65186 0.62734 0.0
H3209 H 0.85439 0.59204 0.63014 0.0
C3210 C 0.83411 0.59635 0.65017 0.0
C3211 C 0.82648 0.60846 0.66255 0.0
C3212 C 0.8685 0.64253 0.62229 0.0
C3213 C 0.85656 0.61844 0.6423 0.0
C3214 C 0.87885 0.64736 0.6074 0.0
C3215 C 0.89104 0.63503 0.59983 0.0
C3216 C 0.87 0.62512 0.62937 0.0
C3217 C 0.89325 0.61831 0.60849 0.0
C3218 C 0.84925 0.60121 0.64024 0.0
C3219 C 0.83527 0.62503 0.66524 0.0
N3220 N 0.88249 0.61366 0.6225 0.0
N3221 N 0.84956 0.62973 0.65487 0.0
H3222 H 0.60945 0.39575 0.58336 0.0
H3223 H 0.57609 0.35398 0.66204 0.0
H3224 H 0.64964 0.40568 0.62429 0.0
H3225 H 0.62584 0.32408 0.65695 0.0
H3226 H 0.58553 0.37299 0.63709 0.0
H3227 H 0.59873 0.37008 0.60091 0.0
C3228 C 0.61613 0.39261 0.5959 0.0
C3229 C 0.63025 0.40336 0.60251 0.0
C3230 C 0.59414 0.362 0.64135 0.0
C3231 C 0.61859 0.37342 0.62189 0.0
C3232 C 0.58878 0.35103 0.65556 0.0
C3233 C 0.60026 0.33742 0.66202 0.0
C3234 C 0.61123 0.35968 0.63387 0.0
C3235 C 0.61676 0.33476 0.65306 0.0
C3236 C 0.61009 0.37782 0.60571 0.0
C3237 C 0.63881 0.39791 0.61849 0.0
N3238 N 0.62199 0.34615 0.63977 0.0
N3239 N 0.63278 0.38334 0.62768 0.0
H3240 H 0.90774 0.34066 0.89041 0.0
H3241 H 0.86402 0.40206 0.81458 0.0
H3242 H 0.92555 0.39489 0.8793 0.0
H3243 H 0.84252 0.35186 0.83469 0.0
H3244 H 0.89126 0.39682 0.83234 0.0
H3245 H 0.88954 0.34147 0.86344 0.0
C3246 C 0.90822 0.35263 0.88212 0.0
C3247 C 0.91798 0.36789 0.88745 0.0
C3248 C 0.88066 0.38684 0.8325 0.0
C3249 C 0.89644 0.36909 0.8567 0.0
C3250 C 0.86503 0.38987 0.82247 0.0
C3251 C 0.85068 0.37755 0.82324 0.0
C3252 C 0.88197 0.37135 0.84324 0.0
C3253 C 0.8531 0.36175 0.83337 0.0
C3254 C 0.89761 0.35314 0.86674 0.0
C3255 C 0.91779 0.38302 0.87607 0.0
N3256 N 0.8683 0.35923 0.84305 0.0
N3257 N 0.90688 0.38338 0.86139 0.0
H3258 H 0.87843 0.61529 0.09686 0.0
H3259 H 0.85136 0.67379 0.18228 0.0
H3260 H 0.82331 0.62044 0.11475 0.0
H3261 H 0.90549 0.66418 0.16335 0.0
H3262 H 0.83984 0.6586 0.15537 0.0
H3263 H 0.8872 0.63804 0.1181 0.0
C3264 C 0.86797 0.62144 0.1049 0.0
C3265 C 0.84999 0.61572 0.10383 0.0
C3266 C 0.85422 0.66015 0.15705 0.0
C3267 C 0.86038 0.64159 0.12921 0.0
C3268 C 0.86084 0.66875 0.17245 0.0
C3269 C 0.8795 0.67025 0.17531 0.0
C3270 C 0.86635 0.65305 0.14442 0.0
C3271 C 0.89104 0.66372 0.16184 0.0
C3272 C 0.87313 0.63439 0.11732 0.0
C3273 C 0.83738 0.62407 0.11525 0.0
N3274 N 0.88428 0.65532 0.14717 0.0
N3275 N 0.84286 0.63642 0.12764 0.0
H3276 H 0.61896 0.66577 0.40975 0.0
H3277 H 0.64623 0.60155 0.32853 0.0
H3278 H 0.57889 0.64075 0.3758 0.0
H3279 H 0.68303 0.63481 0.35863 0.0
H3280 H 0.621 0.61565 0.34481 0.0
H3281 H 0.64203 0.65579 0.38942 0.0
C3282 C 0.61479 0.65859 0.3978 0.0
C3283 C 0.59669 0.65408 0.39476 0.0
C3284 C 0.63462 0.61992 0.34767 0.0
C3285 C 0.62371 0.64167 0.37154 0.0
C3286 C 0.64899 0.61178 0.33852 0.0
C3287 C 0.66674 0.61711 0.34213 0.0
C3288 C 0.63814 0.63329 0.36058 0.0
C3289 C 0.66957 0.63048 0.35515 0.0
C3290 C 0.62819 0.65259 0.38624 0.0
C3291 C 0.59263 0.64423 0.37908 0.0
N3292 N 0.65549 0.63802 0.36386 0.0
N3293 N 0.60605 0.63811 0.3682 0.0
H3294 H 0.65621 0.8543 0.6325 0.0
H3295 H 0.56456 0.86284 0.68667 0.0
H3296 H 0.63187 0.81088 0.66234 0.0
H3297 H 0.58773 0.90565 0.65498 0.0
H3298 H 0.59248 0.84585 0.68355 0.0
H3299 H 0.63509 0.8753 0.64644 0.0
C3300 C 0.64671 0.84927 0.64234 0.0
C3301 C 0.6456 0.83078 0.64604 0.0
C3302 C 0.59156 0.85907 0.67748 0.0
C3303 C 0.62119 0.85464 0.6618 0.0
C3304 C 0.57563 0.86883 0.67932 0.0
C3305 C 0.57365 0.88558 0.67079 0.0
C3306 C 0.60562 0.86604 0.66695 0.0
C3307 C 0.58846 0.89259 0.66138 0.0
C3308 C 0.6346 0.86124 0.65024 0.0
C3309 C 0.63319 0.82501 0.65906 0.0
N3310 N 0.60371 0.88269 0.65952 0.0
N3311 N 0.62123 0.83684 0.6662 0.0
H3312 H 0.97125 0.28966 0.27627 0.0
H3313 H 0.03809 0.20514 0.27447 0.0
H3314 H 0.95372 0.23435 0.27481 0.0
H3315 H 0.05612 0.26016 0.27857 0.0
H3316 H 0.0072 0.21584 0.27186 0.0
H3317 H 0.00247 0.27938 0.27445 0.0
C3318 C 0.97394 0.27537 0.27539 0.0
C3319 C 0.95983 0.26285 0.27587 0.0
C3320 C 0.01792 0.22559 0.27325 0.0
C3321 C 0.99553 0.25097 0.27392 0.0
C3322 C 0.03561 0.21948 0.27462 0.0
C3323 C 0.04978 0.23175 0.27684 0.0
C3324 C 0.01429 0.24413 0.2741 0.0
C3325 C 0.04563 0.2502 0.27717 0.0
C3326 C 0.99178 0.2695 0.27445 0.0
C3327 C 0.96415 0.24448 0.27484 0.0
N3328 N 0.02828 0.25582 0.27589 0.0
N3329 N 0.98159 0.23911 0.27399 0.0
H3330 H 0.03243 0.7583 0.48935 0.0
H3331 H 0.98993 0.6858 0.55693 0.0
H3332 H 0.03833 0.75975 0.54694 0.0
H3333 H 0.97096 0.69282 0.50254 0.0
H3334 H 0.01213 0.70941 0.55188 0.0
H3335 H 0.0143 0.73065 0.49235 0.0
C3336 C 0.03017 0.75255 0.50255 0.0
C3337 C 0.03668 0.76123 0.51794 0.0
C3338 C 0.00315 0.70576 0.54101 0.0
C3339 C 0.01614 0.72999 0.52152 0.0
C3340 C 0.99053 0.69222 0.54387 0.0
C3341 C 0.97848 0.68742 0.53019 0.0
C3342 C 0.00385 0.71456 0.5243 0.0
C3343 C 0.97978 0.69633 0.51356 0.0
C3344 C 0.01975 0.73695 0.50428 0.0
C3345 C 0.03334 0.75348 0.5348 0.0
N3346 N 0.99224 0.70951 0.51107 0.0
N3347 N 0.02327 0.73835 0.53615 0.0
H3348 H 0.49741 0.69449 0.77716 0.0
H3349 H 0.43905 0.78492 0.77425 0.0
H3350 H 0.52047 0.74747 0.77151 0.0
H3351 H 0.41659 0.73219 0.78345 0.0
H3352 H 0.46875 0.77128 0.77084 0.0
H3353 H 0.46748 0.70791 0.77727 0.0
C3354 C 0.49619 0.70893 0.77579 0.0
C3355 C 0.5115 0.71987 0.77437 0.0
C3356 C 0.45731 0.76269 0.77354 0.0
C3357 C 0.47723 0.73537 0.77467 0.0
C3358 C 0.44032 0.77046 0.77536 0.0
C3359 C 0.42532 0.75969 0.77923 0.0
C3360 C 0.4593 0.744 0.77557 0.0
C3361 C 0.42782 0.74103 0.78077 0.0
C3362 C 0.47908 0.71661 0.77596 0.0
C3363 C 0.50907 0.73855 0.77291 0.0
N3364 N 0.44449 0.73379 0.77897 0.0
N3365 N 0.49226 0.74571 0.77311 0.0
H3366 H 0.5334 0.293 0.06571 0.0
H3367 H 0.4854 0.22055 0.0033 0.0
H3368 H 0.53277 0.29838 0.00796 0.0
H3369 H 0.50641 0.20837 0.05597 0.0
H3370 H 0.49918 0.25056 0.00512 0.0
H3371 H 0.51959 0.26336 0.06289 0.0
C3372 C 0.53019 0.28798 0.05244 0.0
C3373 C 0.53417 0.29814 0.03704 0.0
C3374 C 0.50082 0.24124 0.0162 0.0
C3375 C 0.51845 0.2642 0.03369 0.0
C3376 C 0.49292 0.22421 0.01521 0.0
C3377 C 0.49486 0.21199 0.02948 0.0
C3378 C 0.51038 0.24613 0.03173 0.0
C3379 C 0.5048 0.2173 0.04459 0.0
C3380 C 0.52246 0.27101 0.05082 0.0
C3381 C 0.53 0.29087 0.02013 0.0
N3382 N 0.51207 0.23401 0.04537 0.0
N3383 N 0.52225 0.27434 0.01888 0.0
H3384 H 0.96123 0.75258 0.2525 0.0
H3385 H 0.05392 0.75874 0.19895 0.0
H3386 H 0.98348 0.70788 0.22304 0.0
H3387 H 0.03459 0.79988 0.23503 0.0
H3388 H 0.02904 0.73933 0.20833 0.0
H3389 H 0.98879 0.76952 0.24718 0.0
C3390 C 0.972 0.74632 0.24495 0.0
C3391 C 0.97003 0.72889 0.23803 0.0
C3392 C 0.03036 0.75254 0.21432 0.0
C3393 C 0.00167 0.74821 0.23181 0.0
C3394 C 0.04449 0.76367 0.20889 0.0
C3395 C 0.04628 0.78102 0.21612 0.0
C3396 C 0.01783 0.75888 0.22695 0.0
C3397 C 0.03384 0.78658 0.22918 0.0
C3398 C 0.98777 0.75596 0.24198 0.0
C3399 C 0.9845 0.72127 0.22862 0.0
N3400 N 0.02007 0.77562 0.23404 0.0
N3401 N -0.00033 0.73107 0.22559 0.0
H3402 H 0.49046 0.69418 0.47761 0.0
H3403 H 0.50527 0.79651 0.44735 0.0
H3404 H 0.5403 0.71365 0.45518 0.0
H3405 H 0.45649 0.77651 0.47163 0.0
H3406 H 0.51843 0.76645 0.44989 0.0
H3407 H 0.47807 0.72447 0.47573 0.0
C3408 C 0.49881 0.70484 0.47226 0.0
C3409 C 0.51641 0.70132 0.46641 0.0
C3410 C 0.50485 0.76866 0.45467 0.0
C3411 C 0.50229 0.7362 0.46426 0.0
C3412 C 0.49726 0.7858 0.45309 0.0
C3413 C 0.4797 0.78909 0.45928 0.0
C3414 C 0.49481 0.75466 0.46243 0.0
C3415 C 0.47011 0.7747 0.46688 0.0
C3416 C 0.49174 0.72218 0.47125 0.0
C3417 C 0.52671 0.71577 0.45994 0.0
N3418 N 0.47777 0.75816 0.46821 0.0
N3419 N 0.51946 0.73257 0.45893 0.0
H3420 H 0.53864 0.24584 0.68898 0.0
H3421 H 0.46297 0.19506 0.74602 0.0
H3422 H 0.53359 0.25233 0.74639 0.0
H3423 H 0.45713 0.20899 0.69007 0.0
H3424 H 0.49245 0.21024 0.7463 0.0
H3425 H 0.51203 0.22654 0.68914 0.0
C3426 C 0.53198 0.24308 0.70163 0.0
C3427 C 0.53821 0.25074 0.71768 0.0
C3428 C 0.48474 0.20979 0.73395 0.0
C3429 C 0.50788 0.22866 0.71799 0.0
C3430 C 0.4681 0.20104 0.73376 0.0
C3431 C 0.45774 0.20095 0.71802 0.0
C3432 C 0.49105 0.21812 0.71818 0.0
C3433 C 0.46474 0.20898 0.70248 0.0
C3434 C 0.51679 0.23214 0.70171 0.0
C3435 C 0.52902 0.24686 0.73371 0.0
N3436 N 0.48097 0.21725 0.70294 0.0
N3437 N 0.51429 0.23603 0.73348 0.0
H3438 H 0.03327 0.23908 0.00685 0.0
H3439 H 0.99837 0.31318 0.93831 0.0
H3440 H 0.01991 0.22667 0.95185 0.0
H3441 H 0.98346 0.31518 0.99429 0.0
H3442 H 0.01179 0.28345 0.94327 0.0
H3443 H 0.02007 0.26925 0.00281 0.0
C3444 C 0.02756 0.24276 0.99397 0.0
C3445 C 0.02751 0.23044 0.97969 0.0
C3446 C 0.0056 0.29043 0.95447 0.0
C3447 C 0.01285 0.2647 0.9749 0.0
C3448 C 0.99809 0.30738 0.95167 0.0
C3449 C 0.98984 0.31654 0.96593 0.0
C3450 C 0.00518 0.28276 0.97172 0.0
C3451 C 0.98961 0.30841 0.98297 0.0
C3452 C 0.02 0.25985 0.99169 0.0
C3453 C 0.01996 0.23573 0.96323 0.0
N3454 N 0.99731 0.29198 0.98546 0.0
N3455 N 0.01308 0.25253 0.96122 0.0
H3456 H 0.29075 0.0471 0.20999 0.0
H3457 H 0.27109 0.98754 0.29763 0.0
H3458 H 0.28393 0.0692 0.2632 0.0
H3459 H 0.28521 0.96517 0.24599 0.0
H3460 H 0.27197 0.01766 0.28442 0.0
H3461 H 0.28501 0.01706 0.22214 0.0
C3462 C 0.28788 0.04566 0.22419 0.0
C3463 C 0.28799 0.06066 0.23563 0.0
C3464 C 0.27479 0.00615 0.27595 0.0
C3465 C 0.28154 0.02635 0.24966 0.0
C3466 C 0.27418 0.98895 0.28347 0.0
C3467 C 0.27823 0.97383 0.27293 0.0
C3468 C 0.27942 0.00824 0.25775 0.0
C3469 C 0.28232 0.97647 0.25468 0.0
C3470 C 0.28471 0.0285 0.23115 0.0
C3471 C 0.28432 0.05798 0.25396 0.0
N3472 N 0.28287 0.99334 0.24768 0.0
N3473 N 0.2813 0.04116 0.26042 0.0
H3474 H 0.19835 0.05315 0.48785 0.0
H3475 H 0.2771 0.99584 0.52992 0.0
H3476 H 0.1988 0.99557 0.48139 0.0
H3477 H 0.28771 0.04577 0.50244 0.0
H3478 H 0.24614 0.99634 0.51803 0.0
H3479 H 0.2293 0.05177 0.49933 0.0
C3480 C 0.205 0.04023 0.48899 0.0
C3481 C 0.19619 0.02445 0.48372 0.0
C3482 C 0.25533 0.00711 0.51459 0.0
C3483 C 0.23119 0.02273 0.49698 0.0
C3484 C 0.27284 0.00687 0.52139 0.0
C3485 C 0.28483 0.02072 0.51699 0.0
C3486 C 0.24975 0.02161 0.50384 0.0
C3487 C 0.27884 0.03477 0.50592 0.0
C3488 C 0.22259 0.03946 0.49541 0.0
C3489 C 0.20531 0.008 0.48526 0.0
N3490 N 0.26162 0.03497 0.49986 0.0
N3491 N 0.22232 0.00751 0.49196 0.0
H3492 H 0.21645 0.97104 0.7089 0.0
H3493 H 0.21804 0.01085 0.80894 0.0
H3494 H 0.20901 0.93815 0.75623 0.0
H3495 H 0.22837 0.04202 0.76108 0.0
H3496 H 0.21635 0.98363 0.79033 0.0
H3497 H 0.22238 0.99681 0.72816 0.0
C3498 C 0.21622 0.96914 0.72332 0.0
C3499 C 0.21211 0.95232 0.73088 0.0
C3500 C 0.21908 0.99643 0.78394 0.0
C3501 C 0.21867 0.98202 0.75315 0.0
C3502 C 0.22014 0.01194 0.79458 0.0
C3503 C 0.22309 0.02877 0.78653 0.0
C3504 C 0.22103 0.99781 0.76516 0.0
C3505 C 0.22564 0.02942 0.76782 0.0
C3506 C 0.21952 0.98394 0.73436 0.0
C3507 C 0.21179 0.95088 0.74975 0.0
N3508 N 0.22445 0.01423 0.7578 0.0
N3509 N 0.21494 0.96554 0.76022 0.0
H3510 H 0.31183 0.99436 0.99449 0.0
H3511 H 0.2175 0.95465 0.02597 0.0
H3512 H 0.30101 0.93744 0.99736 0.0
H3513 H 0.23407 0.00913 0.03699 0.0
H3514 H 0.24726 0.94838 0.01353 0.0
H3515 H 0.28263 0.00037 0.00827 0.0
C3516 C 0.30325 0.98313 0.99798 0.0
C3517 C 0.30873 0.96537 0.99468 0.0
C3518 C 0.24441 0.96169 0.01872 0.0
C3519 C 0.27538 0.97213 0.0105 0.0
C3520 C 0.2274 0.96532 0.02566 0.0
C3521 C 0.22333 0.98248 0.03239 0.0
C3522 C 0.25739 0.97537 0.01832 0.0
C3523 C 0.23673 0.99572 0.03201 0.0
C3524 C 0.28666 0.98656 0.00596 0.0
C3525 C 0.29727 0.9513 -0.00023 0.0
N3526 N 0.25316 0.99192 0.02497 0.0
N3527 N 0.28104 0.95498 0.00732 0.0
H3528 H 0.26959 0.31147 0.95489 0.0
H3529 H 0.23615 0.26894 0.04743 0.0
H3530 H 0.27932 0.25581 0.968 0.0
H3531 H 0.24812 0.32531 0.04097 0.0
H3532 H 0.24826 0.2633 0.01715 0.0
H3533 H 0.25793 0.31632 0.98524 0.0
C3534 C 0.26918 0.30024 0.96416 0.0
C3535 C 0.27537 0.2832 0.95894 0.0
C3536 C 0.24826 0.27688 0.02243 0.0
C3537 C 0.26199 0.28863 0.99371 0.0
C3538 C 0.24126 0.28011 0.03961 0.0
C3539 C 0.24118 0.29761 0.0467 0.0
C3540 C 0.25488 0.29132 0.01217 0.0
C3541 C 0.24811 0.3116 0.03608 0.0
C3542 C 0.26263 0.30304 0.98151 0.0
C3543 C 0.27476 0.26917 0.97158 0.0
N3544 N 0.25455 0.30818 0.01933 0.0
N3545 N 0.26804 0.27215 0.98837 0.0
H3546 H 0.78987 0.24491 0.02294 0.0
H3547 H 0.7379 0.17914 0.95578 0.0
H3548 H 0.78378 0.18778 0.03106 0.0
H3549 H 0.73136 0.23678 0.95366 0.0
H3550 H 0.75766 0.1825 0.98157 0.0
H3551 H 0.7712 0.24265 0.99572 0.0
C3552 C 0.78467 0.23191 0.01893 0.0
C3553 C 0.78823 0.21652 0.02928 0.0
C3554 C 0.75194 0.19446 0.9755 0.0
C3555 C 0.76705 0.21384 0.99839 0.0
C3556 C 0.74076 0.19255 0.96066 0.0
C3557 C 0.73303 0.20771 0.95252 0.0
C3558 C 0.75556 0.21168 0.98229 0.0
C3559 C 0.73695 0.22475 0.95966 0.0
C3560 C 0.77397 0.23065 0.00351 0.0
C3561 C 0.78112 0.20002 0.02363 0.0
N3562 N 0.74801 0.2263 0.97416 0.0
N3563 N 0.77091 0.19911 0.00857 0.0
H3564 H 0.0242 0.50456 0.21198 0.0
H3565 H 0.02375 0.48271 0.31733 0.0
H3566 H 0.01626 0.45141 0.234 0.0
H3567 H 0.02967 0.53629 0.29574 0.0
H3568 H 0.01995 0.47119 0.28687 0.0
H3569 H 0.02528 0.51665 0.2425 0.0
C3570 C 0.0227 0.49542 0.22323 0.0
C3571 C 0.02022 0.47692 0.22041 0.0
C3572 C 0.02201 0.48548 0.28877 0.0
C3573 C 0.02133 0.49069 0.2554 0.0
C3574 C 0.02428 0.49206 0.30617 0.0
C3575 C 0.02716 0.51048 0.30909 0.0
C3576 C 0.02271 0.49739 0.27412 0.0
C3577 C 0.02736 0.52201 0.29413 0.0
C3578 C 0.02322 0.50235 0.24065 0.0
C3579 C 0.01804 0.46577 0.2355 0.0
N3580 N 0.02528 0.51526 0.27727 0.0
N3581 N 0.01874 0.47281 0.25233 0.0
H3582 H 0.68849 0.77422 0.52572 0.0
H3583 H 0.78537 0.7804 0.47864 0.0
H3584 H 0.7374 0.78636 0.5544 0.0
H3585 H 0.73541 0.77987 0.4492 0.0
H3586 H 0.76836 0.77852 0.50681 0.0
H3587 H 0.70586 0.77213 0.49777 0.0
C3588 C 0.7029 0.77627 0.52616 0.0
C3589 C 0.71148 0.78062 0.54238 0.0
C3590 C 0.76113 0.77877 0.49417 0.0
C3591 C 0.73144 0.77833 0.5105 0.0
C3592 C 0.77084 0.77973 0.4781 0.0
C3593 C 0.7618 0.78045 0.46155 0.0
C3594 C 0.74223 0.77835 0.49369 0.0
C3595 C 0.74292 0.77968 0.46165 0.0
C3596 C 0.71279 0.7752 0.5102 0.0
C3597 C 0.73019 0.78329 0.54215 0.0
N3598 N 0.73377 0.77868 0.47745 0.0
N3599 N 0.73952 0.78212 0.52648 0.0
H3600 H 0.97888 0.04709 0.23091 0.0
H3601 H 0.97074 0.95059 0.27887 0.0
H3602 H 0.97032 0.9977 0.20181 0.0
H3603 H 0.96235 0.0009 0.30641 0.0
H3604 H 0.97657 0.96734 0.25094 0.0
H3605 H 0.97886 0.02997 0.25917 0.0
C3606 C 0.97725 0.03262 0.23046 0.0
C3607 C 0.97443 0.02382 0.21401 0.0
C3608 C 0.97358 0.9747 0.26314 0.0
C3609 C 0.97437 0.00415 0.24622 0.0
C3610 C 0.97037 0.96515 0.27907 0.0
C3611 C 0.96587 0.97438 0.29491 0.0
C3612 C 0.97254 0.9936 0.26313 0.0
C3613 C 0.96547 0.99327 0.29443 0.0
C3614 C 0.97712 0.02287 0.24657 0.0
C3615 C 0.97225 0.00504 0.21421 0.0
N3616 N 0.96872 0.00224 0.27882 0.0
N3617 N 0.97223 0.99585 0.23004 0.0
H3618 H 0.23509 0.71874 0.52624 0.0
H3619 H 0.26483 0.72042 0.423 0.0
H3620 H 0.28873 0.73211 0.50861 0.0
H3621 H 0.20966 0.71526 0.4402 0.0
H3622 H 0.27389 0.72444 0.4543 0.0
H3623 H 0.22554 0.71707 0.49485 0.0
C3624 C 0.24487 0.72129 0.51576 0.0
C3625 C 0.26277 0.72547 0.52005 0.0
C3626 C 0.25979 0.72251 0.45124 0.0
C3627 C 0.25191 0.72368 0.48408 0.0
C3628 C 0.25463 0.7201 0.43338 0.0
C3629 C 0.23648 0.71737 0.42899 0.0
C3630 C 0.24674 0.72206 0.46488 0.0
C3631 C 0.22378 0.71743 0.44296 0.0
C3632 C 0.23938 0.72045 0.49784 0.0
C3633 C 0.27479 0.72896 0.50592 0.0
N3634 N 0.22917 0.7196 0.4603 0.0
N3635 N 0.26917 0.72787 0.48856 0.0
H3636 H 0.49238 0.47661 0.77927 0.0
H3637 H 0.42184 0.51302 0.7066 0.0
H3638 H 0.43583 0.48399 0.78973 0.0
H3639 H 0.4789 0.52101 0.70034 0.0
H3640 H 0.42711 0.49991 0.73619 0.0
H3641 H 0.48818 0.49019 0.74932 0.0
C3642 C 0.47909 0.48098 0.77523 0.0
C3643 C 0.46444 0.47923 0.78704 0.0
C3644 C 0.43853 0.50456 0.72843 0.0
C3645 C 0.45955 0.49473 0.75294 0.0
C3646 C 0.43551 0.51198 0.71148 0.0
C3647 C 0.44995 0.51805 0.70096 0.0
C3648 C 0.45617 0.50294 0.73498 0.0
C3649 C 0.46739 0.5166 0.70809 0.0
C3650 C 0.47673 0.48885 0.75823 0.0
C3651 C 0.44754 0.48528 0.78118 0.0
N3652 N 0.47005 0.50905 0.72462 0.0
N3653 N 0.44556 0.49266 0.76459 0.0
H3654 H 0.76229 0.52723 0.70745 0.0
H3655 H 0.77319 0.46086 0.79154 0.0
H3656 H 0.76909 0.54621 0.76185 0.0
H3657 H 0.77383 0.44363 0.73615 0.0
H3658 H 0.76977 0.49204 0.78141 0.0
H3659 H 0.76459 0.49639 0.7182 0.0
C3660 C 0.76411 0.52492 0.72171 0.0
C3661 C 0.76538 0.53936 0.73379 0.0
C3662 C 0.77067 0.48142 0.77149 0.0
C3663 C 0.76827 0.50392 0.74621 0.0
C3664 C 0.77249 0.46361 0.77726 0.0
C3665 C 0.77383 0.44961 0.76466 0.0
C3666 C 0.77005 0.48522 0.75299 0.0
C3667 C 0.77309 0.45399 0.74632 0.0
C3668 C 0.76557 0.50727 0.72783 0.0
C3669 C 0.76815 0.53549 0.75207 0.0
N3670 N 0.77122 0.47139 0.74105 0.0
N3671 N 0.76946 0.51812 0.75775 0.0
H3672 H 0.79082 0.5738 0.01358 0.0
H3673 H 0.72389 0.50679 0.96506 0.0
H3674 H 0.7929 0.51702 0.02496 0.0
H3675 H 0.70861 0.56072 0.97982 0.0
H3676 H 0.75158 0.51013 0.98305 0.0
H3677 H 0.7626 0.5693 0.99723 0.0
C3678 C 0.7852 0.5604 0.01266 0.0
C3679 C 0.79402 0.54576 0.0206 0.0
C3680 C 0.74207 0.52116 0.98236 0.0
C3681 C 0.76208 0.54041 0.0017 0.0
C3682 C 0.72644 0.51931 0.97203 0.0
C3683 C 0.71403 0.53349 0.97106 0.0
C3684 C 0.7454 0.53745 0.99132 0.0
C3685 C 0.71779 0.54943 0.9804 0.0
C3686 C 0.76915 0.55782 0.0034 0.0
C3687 C 0.7863 0.52862 0.01911 0.0
N3688 N 0.7332 0.55104 0.99 0.0
N3689 N 0.77081 0.52633 0.00961 0.0
H3690 H 0.72312 0.55131 0.2367 0.0
H3691 H 0.73967 0.44518 0.24281 0.0
H3692 H 0.73664 0.52329 0.28573 0.0
H3693 H 0.72955 0.47276 0.19279 0.0
H3694 H 0.73986 0.47401 0.2584 0.0
H3695 H 0.72626 0.5231 0.22013 0.0
C3696 C 0.7267 0.53924 0.24401 0.0
C3697 C 0.72952 0.53971 0.26271 0.0
C3698 C 0.73769 0.47384 0.244 0.0
C3699 C 0.73332 0.50734 0.24373 0.0
C3700 C 0.73753 0.45735 0.2351 0.0
C3701 C 0.7344 0.45655 0.2165 0.0
C3702 C 0.73458 0.48975 0.2343 0.0
C3703 C 0.73206 0.47278 0.20712 0.0
C3704 C 0.72862 0.52315 0.2345 0.0
C3705 C 0.73447 0.52366 0.27136 0.0
N3706 N 0.73202 0.48872 0.21615 0.0
N3707 N 0.73612 0.50815 0.26182 0.0
H3708 H 0.78678 0.42662 0.48943 0.0
H3709 H 0.70544 0.48615 0.52646 0.0
H3710 H 0.78139 0.48309 0.47722 0.0
H3711 H 0.70409 0.42823 0.52362 0.0
H3712 H 0.73474 0.48585 0.51127 0.0
H3713 H 0.75779 0.42746 0.50483 0.0
C3714 C 0.77949 0.43922 0.49006 0.0
C3715 C 0.78647 0.45482 0.48208 0.0
C3716 C 0.72799 0.47323 0.51396 0.0
C3717 C 0.7533 0.4559 0.49966 0.0
C3718 C 0.71138 0.47339 0.52274 0.0
C3719 C 0.70236 0.45718 0.52625 0.0
C3720 C 0.73569 0.45673 0.50891 0.0
C3721 C 0.71051 0.44101 0.52097 0.0
C3722 C 0.76291 0.43967 0.49875 0.0
C3723 C 0.77638 0.47075 0.48307 0.0
N3724 N 0.72675 0.44119 0.51263 0.0
N3725 N 0.7603 0.47092 0.49181 0.0
H3726 H 0.50765 0.94534 0.7355 0.0
H3727 H 0.52286 0.04093 0.78265 0.0
H3728 H 0.51378 0.99519 0.70648 0.0
H3729 H 0.53216 0.99018 0.80926 0.0
H3730 H 0.51291 0.02465 0.75583 0.0
H3731 H 0.51 0.96201 0.76391 0.0
C3732 C 0.50919 0.95982 0.73516 0.0
C3733 C 0.51077 0.96893 0.71872 0.0
C3734 C 0.51701 0.01709 0.7676 0.0
C3735 C 0.51348 0.98799 0.75091 0.0
C3736 C 0.52259 0.02637 0.78291 0.0
C3737 C 0.52855 0.01686 0.79808 0.0
C3738 C 0.51727 0.99819 0.76754 0.0
C3739 C 0.52802 0.99799 0.7977 0.0
C3740 C 0.51064 0.9693 0.7513 0.0
C3741 C 0.51285 0.98768 0.71891 0.0
N3742 N 0.52256 0.98926 0.78263 0.0
N3743 N 0.51423 0.99659 0.73476 0.0
loop_
_geom_bond_atom_site_label_1
_geom_bond_atom_site_label_2
_geom_bond_distance
_geom_bond_site_symmetry_2
_ccdc_geom_bond_type
C0 C1 1.351 . S
C0 N3 1.368 . S
C0 H5 0.931 . S
C1 C0 1.351 . S
C1 N2 1.373 . S
C1 H29 0.930 . S
N2 C1 1.373 . S
N2 C4 1.340 . S
N3 C0 1.368 . S
N3 C4 1.321 . S
N3 Co6 2.135 . S
C4 N2 1.340 . S
C4 N3 1.321 . S
C4 H28 0.930 . S
H5 C0 0.931 . S
Co6 N3 2.135 . S
Co6 N9 2.121 . S
Co6 O14 2.055 . S
Co6 O17 2.039 . S
Co6 N20 2.140 . S
C7 O8 1.227 . S
C7 O17 1.265 . S
O8 C7 1.227 . S
N9 Co6 2.121 . S
N9 C11 1.375 . S
N9 C12 1.313 . S
C10 C11 1.338 . S
C10 N13 1.377 . S
C10 H30 0.930 . S
C11 N9 1.375 . S
C11 C10 1.338 . S
C11 H15 0.931 . S
C12 N9 1.313 . S
C12 N13 1.344 . S
C12 H16 0.930 . S
N13 C10 1.377 . S
N13 C12 1.344 . S
O14 Co6 2.055 . S
O14 C18 1.253 . S
H15 C11 0.931 . S
H16 C12 0.930 . S
O17 Co6 2.039 . S
O17 C7 1.265 . S
C18 O14 1.253 . S
C18 O19 1.227 . S
O19 C18 1.227 . S
N20 Co6 2.140 . S
N20 C23 1.346 . S
N20 C24 1.345 . S
C21 C22 1.387 . S
C21 C25 1.391 . S
C22 C21 1.387 . S
C22 C23 1.369 . S
C22 H31 0.929 . S
C23 N20 1.346 . S
C23 C22 1.369 . S
C23 H26 0.928 . S
C24 N20 1.345 . S
C24 C25 1.371 . S
C24 H27 0.931 . S
C25 C21 1.391 . S
C25 C24 1.371 . S
C25 H32 0.930 . S
H26 C23 0.928 . S
H27 C24 0.931 . S
H28 C4 0.930 . S
H29 C1 0.930 . S
H30 C10 0.930 . S
H31 C22 0.929 . S
H32 C25 0.930 . S
C33 C34 1.351 . S
C33 N36 1.368 . S
C33 H38 0.931 . S
C34 C33 1.351 . S
C34 N35 1.373 . S
C34 H62 0.930 . S
N35 C34 1.373 . S
N35 C37 1.340 . S
N36 C33 1.368 . S
N36 C37 1.321 . S
N36 Co39 2.135 . S
C37 N35 1.340 . S
C37 N36 1.321 . S
C37 H61 0.930 . S
H38 C33 0.931 . S
Co39 N36 2.135 . S
Co39 N42 2.121 . S
Co39 O47 2.055 . S
Co39 O50 2.039 . S
Co39 N53 2.140 . S
C40 O41 1.227 . S
C40 O50 1.265 . S
O41 C40 1.227 . S
N42 Co39 2.121 . S
N42 C44 1.375 . S
N42 C45 1.313 . S
C43 C44 1.338 . S
C43 N46 1.377 . S
C43 H63 0.930 . S
C44 N42 1.375 . S
C44 C43 1.338 . S
C44 H48 0.931 . S
C45 N42 1.313 . S
C45 N46 1.344 . S
C45 H49 0.930 . S
N46 C43 1.377 . S
N46 C45 1.344 . S
O47 Co39 2.055 . S
O47 C51 1.253 . S
H48 C44 0.931 . S
H49 C45 0.930 . S
O50 Co39 2.039 . S
O50 C40 1.265 . S
C51 O47 1.253 . S
C51 O52 1.227 . S
O52 C51 1.227 . S
N53 Co39 2.140 . S
N53 C56 1.346 . S
N53 C57 1.345 . S
C54 C55 1.387 . S
C54 C58 1.391 . S
C55 C54 1.387 . S
C55 C56 1.369 . S
C55 H64 0.929 . S
C56 N53 1.346 . S
C56 C55 1.369 . S
C56 H59 0.928 . S
C57 N53 1.345 . S
C57 C58 1.371 . S
C57 H60 0.931 . S
C58 C54 1.391 . S
C58 C57 1.371 . S
C58 H65 0.930 . S
H59 C56 0.928 . S
H60 C57 0.931 . S
H61 C37 0.930 . S
H62 C34 0.930 . S
H63 C43 0.930 . S
H64 C55 0.929 . S
H65 C58 0.930 . S
C66 C67 1.351 . S
C66 N69 1.368 . S
C66 H71 0.931 . S
C67 C66 1.351 . S
C67 N68 1.373 . S
C67 H95 0.930 . S
N68 C67 1.373 . S
N68 C70 1.340 . S
N69 C66 1.368 . S
N69 C70 1.321 . S
N69 Co72 2.135 . S
C70 N68 1.340 . S
C70 N69 1.321 . S
C70 H94 0.930 . S
H71 C66 0.931 . S
Co72 N69 2.135 . S
Co72 N75 2.121 . S
Co72 O80 2.055 . S
Co72 O83 2.039 . S
Co72 N86 2.140 . S
C73 O74 1.227 . S
C73 O83 1.265 . S
O74 C73 1.227 . S
N75 Co72 2.121 . S
N75 C77 1.375 . S
N75 C78 1.313 . S
C76 C77 1.338 . S
C76 N79 1.377 . S
C76 H96 0.930 . S
C77 N75 1.375 . S
C77 C76 1.338 . S
C77 H81 0.931 . S
C78 N75 1.313 . S
C78 N79 1.344 . S
C78 H82 0.930 . S
N79 C76 1.377 . S
N79 C78 1.344 . S
O80 Co72 2.055 . S
O80 C84 1.253 . S
H81 C77 0.931 . S
H82 C78 0.930 . S
O83 Co72 2.039 . S
O83 C73 1.265 . S
C84 O80 1.253 . S
C84 O85 1.227 . S
O85 C84 1.227 . S
N86 Co72 2.140 . S
N86 C89 1.346 . S
N86 C90 1.345 . S
C87 C88 1.387 . S
C87 C91 1.391 . S
C88 C87 1.387 . S
C88 C89 1.369 . S
C88 H97 0.929 . S
C89 N86 1.346 . S
C89 C88 1.369 . S
C89 H92 0.928 . S
C90 N86 1.345 . S
C90 C91 1.371 . S
C90 H93 0.931 . S
C91 C87 1.391 . S
C91 C90 1.371 . S
C91 H98 0.930 . S
H92 C89 0.928 . S
H93 C90 0.931 . S
H94 C70 0.930 . S
H95 C67 0.930 . S
H96 C76 0.930 . S
H97 C88 0.929 . S
H98 C91 0.930 . S
C99 C100 1.351 . S
C99 N102 1.368 . S
C99 H104 0.931 . S
C100 C99 1.351 . S
C100 N101 1.373 . S
C100 H128 0.930 . S
N101 C100 1.373 . S
N101 C103 1.340 . S
N102 C99 1.368 . S
N102 C103 1.321 . S
N102 Co105 2.135 . S
C103 N101 1.340 . S
C103 N102 1.321 . S
C103 H127 0.930 . S
H104 C99 0.931 . S
Co105 N102 2.135 . S
Co105 N108 2.121 . S
Co105 O113 2.055 . S
Co105 O116 2.039 . S
Co105 N119 2.140 . S
C106 O107 1.227 . S
C106 O116 1.265 . S
O107 C106 1.227 . S
N108 Co105 2.121 . S
N108 C110 1.375 . S
N108 C111 1.313 . S
C109 C110 1.338 . S
C109 N112 1.377 . S
C109 H129 0.930 . S
C110 N108 1.375 . S
C110 C109 1.338 . S
C110 H114 0.931 . S
C111 N108 1.313 . S
C111 N112 1.344 . S
C111 H115 0.930 . S
N112 C109 1.377 . S
N112 C111 1.344 . S
O113 Co105 2.055 . S
O113 C117 1.253 . S
H114 C110 0.931 . S
H115 C111 0.930 . S
O116 Co105 2.039 . S
O116 C106 1.265 . S
C117 O113 1.253 . S
C117 O118 1.227 . S
O118 C117 1.227 . S
N119 Co105 2.140 . S
N119 C122 1.346 . S
N119 C123 1.345 . S
C120 C121 1.387 . S
C120 C124 1.391 . S
C121 C120 1.387 . S
C121 C122 1.369 . S
C121 H130 0.929 . S
C122 N119 1.346 . S
C122 C121 1.369 . S
C122 H125 0.928 . S
C123 N119 1.345 . S
C123 C124 1.371 . S
C123 H126 0.931 . S
C124 C120 1.391 . S
C124 C123 1.371 . S
C124 H131 0.930 . S
H125 C122 0.928 . S
H126 C123 0.931 . S
H127 C103 0.930 . S
H128 C100 0.930 . S
H129 C109 0.930 . S
H130 C121 0.929 . S
H131 C124 0.930 . S
C132 C133 1.351 . S
C132 N135 1.368 . S
C132 H137 0.931 . S
C133 C132 1.351 . S
C133 N134 1.373 . S
C133 H161 0.930 . S
N134 C133 1.373 . S
N134 C136 1.340 . S
N135 C132 1.368 . S
N135 C136 1.321 . S
N135 Co138 2.135 . S
C136 N134 1.340 . S
C136 N135 1.321 . S
C136 H160 0.930 . S
H137 C132 0.931 . S
Co138 N135 2.135 . S
Co138 N141 2.121 . S
Co138 O146 2.055 . S
Co138 O149 2.039 . S
Co138 N152 2.140 . S
C139 O140 1.227 . S
C139 O149 1.265 . S
O140 C139 1.227 . S
N141 Co138 2.121 . S
N141 C143 1.375 . S
N141 C144 1.313 . S
C142 C143 1.338 . S
C142 N145 1.377 . S
C142 H162 0.930 . S
C143 N141 1.375 . S
C143 C142 1.338 . S
C143 H147 0.931 . S
C144 N141 1.313 . S
C144 N145 1.344 . S
C144 H148 0.930 . S
N145 C142 1.377 . S
N145 C144 1.344 . S
O146 Co138 2.055 . S
O146 C150 1.253 . S
H147 C143 0.931 . S
H148 C144 0.930 . S
O149 Co138 2.039 . S
O149 C139 1.265 . S
C150 O146 1.253 . S
C150 O151 1.227 . S
O151 C150 1.227 . S
N152 Co138 2.140 . S
N152 C155 1.346 . S
N152 C156 1.345 . S
C153 C154 1.387 . S
C153 C157 1.391 . S
C154 C153 1.387 . S
C154 C155 1.369 . S
C154 H163 0.929 . S
C155 N152 1.346 . S
C155 C154 1.369 . S
C155 H158 0.928 . S
C156 N152 1.345 . S
C156 C157 1.371 . S
C156 H159 0.931 . S
C157 C153 1.391 . S
C157 C156 1.371 . S
C157 H164 0.930 . S
H158 C155 0.928 . S
H159 C156 0.931 . S
H160 C136 0.930 . S
H161 C133 0.930 . S
H162 C142 0.930 . S
H163 C154 0.929 . S
H164 C157 0.930 . S
C165 C166 1.351 . S
C165 N168 1.368 . S
C165 H170 0.931 . S
C166 C165 1.351 . S
C166 N167 1.373 . S
C166 H194 0.930 . S
N167 C166 1.373 . S
N167 C169 1.340 . S
N168 C165 1.368 . S
N168 C169 1.321 . S
N168 Co171 2.135 . S
C169 N167 1.340 . S
C169 N168 1.321 . S
C169 H193 0.930 . S
H170 C165 0.931 . S
Co171 N168 2.135 . S
Co171 N174 2.121 . S
Co171 O179 2.055 . S
Co171 O182 2.039 . S
Co171 N185 2.140 . S
C172 O173 1.227 . S
C172 O182 1.265 . S
O173 C172 1.227 . S
N174 Co171 2.121 . S
N174 C176 1.375 . S
N174 C177 1.313 . S
C175 C176 1.338 . S
C175 N178 1.377 . S
C175 H195 0.930 . S
C176 N174 1.375 . S
C176 C175 1.338 . S
C176 H180 0.931 . S
C177 N174 1.313 . S
C177 N178 1.344 . S
C177 H181 0.930 . S
N178 C175 1.377 . S
N178 C177 1.344 . S
O179 Co171 2.055 . S
O179 C183 1.253 . S
H180 C176 0.931 . S
H181 C177 0.930 . S
O182 Co171 2.039 . S
O182 C172 1.265 . S
C183 O179 1.253 . S
C183 O184 1.227 . S
O184 C183 1.227 . S
N185 Co171 2.140 . S
N185 C188 1.346 . S
N185 C189 1.345 . S
C186 C187 1.387 . S
C186 C190 1.391 . S
C187 C186 1.387 . S
C187 C188 1.369 . S
C187 H196 0.929 . S
C188 N185 1.346 . S
C188 C187 1.369 . S
C188 H191 0.928 . S
C189 N185 1.345 . S
C189 C190 1.371 . S
C189 H192 0.931 . S
C190 C186 1.391 . S
C190 C189 1.371 . S
C190 H197 0.930 . S
H191 C188 0.928 . S
H192 C189 0.931 . S
H193 C169 0.930 . S
H194 C166 0.930 . S
H195 C175 0.930 . S
H196 C187 0.929 . S
H197 C190 0.930 . S
C198 C199 1.351 . S
C198 N201 1.368 . S
C198 H203 0.931 . S
C199 C198 1.351 . S
C199 N200 1.373 . S
C199 H227 0.930 . S
N200 C199 1.373 . S
N200 C202 1.340 . S
N201 C198 1.368 . S
N201 C202 1.321 . S
N201 Co204 2.135 . S
C202 N200 1.340 . S
C202 N201 1.321 . S
C202 H226 0.930 . S
H203 C198 0.931 . S
Co204 N201 2.135 . S
Co204 N207 2.121 . S
Co204 O212 2.055 . S
Co204 O215 2.039 . S
Co204 N218 2.140 . S
C205 O206 1.227 . S
C205 O215 1.265 . S
O206 C205 1.227 . S
N207 Co204 2.121 . S
N207 C209 1.375 . S
N207 C210 1.313 . S
C208 C209 1.338 . S
C208 N211 1.377 . S
C208 H228 0.930 . S
C209 N207 1.375 . S
C209 C208 1.338 . S
C209 H213 0.931 . S
C210 N207 1.313 . S
C210 N211 1.344 . S
C210 H214 0.930 . S
N211 C208 1.377 . S
N211 C210 1.344 . S
O212 Co204 2.055 . S
O212 C216 1.253 . S
H213 C209 0.931 . S
H214 C210 0.930 . S
O215 Co204 2.039 . S
O215 C205 1.265 . S
C216 O212 1.253 . S
C216 O217 1.227 . S
O217 C216 1.227 . S
N218 Co204 2.140 . S
N218 C221 1.346 . S
N218 C222 1.345 . S
C219 C220 1.387 . S
C219 C223 1.391 . S
C220 C219 1.387 . S
C220 C221 1.369 . S
C220 H229 0.929 . S
C221 N218 1.346 . S
C221 C220 1.369 . S
C221 H224 0.928 . S
C222 N218 1.345 . S
C222 C223 1.371 . S
C222 H225 0.931 . S
C223 C219 1.391 . S
C223 C222 1.371 . S
C223 H230 0.930 . S
H224 C221 0.928 . S
H225 C222 0.931 . S
H226 C202 0.930 . S
H227 C199 0.930 . S
H228 C208 0.930 . S
H229 C220 0.929 . S
H230 C223 0.930 . S
C231 C232 1.351 . S
C231 N234 1.368 . S
C231 H236 0.931 . S
C232 C231 1.351 . S
C232 N233 1.373 . S
C232 H260 0.930 . S
N233 C232 1.373 . S
N233 C235 1.340 . S
N234 C231 1.368 . S
N234 C235 1.321 . S
N234 Co237 2.135 . S
C235 N233 1.340 . S
C235 N234 1.321 . S
C235 H259 0.930 . S
H236 C231 0.931 . S
Co237 N234 2.135 . S
Co237 N240 2.121 . S
Co237 O245 2.055 . S
Co237 O248 2.039 . S
Co237 N251 2.140 . S
C238 O239 1.227 . S
C238 O248 1.265 . S
O239 C238 1.227 . S
N240 Co237 2.121 . S
N240 C242 1.375 . S
N240 C243 1.313 . S
C241 C242 1.338 . S
C241 N244 1.377 . S
C241 H261 0.930 . S
C242 N240 1.375 . S
C242 C241 1.338 . S
C242 H246 0.931 . S
C243 N240 1.313 . S
C243 N244 1.344 . S
C243 H247 0.930 . S
N244 C241 1.377 . S
N244 C243 1.344 . S
O245 Co237 2.055 . S
O245 C249 1.253 . S
H246 C242 0.931 . S
H247 C243 0.930 . S
O248 Co237 2.039 . S
O248 C238 1.265 . S
C249 O245 1.253 . S
C249 O250 1.227 . S
O250 C249 1.227 . S
N251 Co237 2.140 . S
N251 C254 1.346 . S
N251 C255 1.345 . S
C252 C253 1.387 . S
C252 C256 1.391 . S
C253 C252 1.387 . S
C253 C254 1.369 . S
C253 H262 0.929 . S
C254 N251 1.346 . S
C254 C253 1.369 . S
C254 H257 0.928 . S
C255 N251 1.345 . S
C255 C256 1.371 . S
C255 H258 0.931 . S
C256 C252 1.391 . S
C256 C255 1.371 . S
C256 H263 0.930 . S
H257 C254 0.928 . S
H258 C255 0.931 . S
H259 C235 0.930 . S
H260 C232 0.930 . S
H261 C241 0.930 . S
H262 C253 0.929 . S
H263 C256 0.930 . S
C264 C265 1.351 . S
C264 N267 1.368 . S
C264 H269 0.931 . S
C265 C264 1.351 . S
C265 N266 1.373 . S
C265 H293 0.930 . S
N266 C265 1.373 . S
N266 C268 1.340 . S
N267 C264 1.368 . S
N267 C268 1.321 . S
N267 Co270 2.135 . S
C268 N266 1.340 . S
C268 N267 1.321 . S
C268 H292 0.930 . S
H269 C264 0.931 . S
Co270 N267 2.135 . S
Co270 N273 2.121 . S
Co270 O278 2.055 . S
Co270 O281 2.039 . S
Co270 N284 2.140 . S
C271 O272 1.227 . S
C271 O281 1.265 . S
O272 C271 1.227 . S
N273 Co270 2.121 . S
N273 C275 1.375 . S
N273 C276 1.313 . S
C274 C275 1.338 . S
C274 N277 1.377 . S
C274 H294 0.930 . S
C275 N273 1.375 . S
C275 C274 1.338 . S
C275 H279 0.931 . S
C276 N273 1.313 . S
C276 N277 1.344 . S
C276 H280 0.930 . S
N277 C274 1.377 . S
N277 C276 1.344 . S
O278 Co270 2.055 . S
O278 C282 1.253 . S
H279 C275 0.931 . S
H280 C276 0.930 . S
O281 Co270 2.039 . S
O281 C271 1.265 . S
C282 O278 1.253 . S
C282 O283 1.227 . S
O283 C282 1.227 . S
N284 Co270 2.140 . S
N284 C287 1.346 . S
N284 C288 1.345 . S
C285 C286 1.387 . S
C285 C289 1.391 . S
C286 C285 1.387 . S
C286 C287 1.369 . S
C286 H295 0.929 . S
C287 N284 1.346 . S
C287 C286 1.369 . S
C287 H290 0.928 . S
C288 N284 1.345 . S
C288 C289 1.371 . S
C288 H291 0.931 . S
C289 C285 1.391 . S
C289 C288 1.371 . S
C289 H296 0.930 . S
H290 C287 0.928 . S
H291 C288 0.931 . S
H292 C268 0.930 . S
H293 C265 0.930 . S
H294 C274 0.930 . S
H295 C286 0.929 . S
H296 C289 0.930 . S
C297 C298 1.351 . S
C297 N300 1.368 . S
C297 H302 0.931 . S
C298 C297 1.351 . S
C298 N299 1.373 . S
C298 H326 0.930 . S
N299 C298 1.373 . S
N299 C301 1.340 . S
N300 C297 1.368 . S
N300 C301 1.321 . S
N300 Co303 2.135 . S
C301 N299 1.340 . S
C301 N300 1.321 . S
C301 H325 0.930 . S
H302 C297 0.931 . S
Co303 N300 2.135 . S
Co303 N306 2.121 . S
Co303 O311 2.055 . S
Co303 O314 2.039 . S
Co303 N317 2.140 . S
C304 O305 1.227 . S
C304 O314 1.265 . S
O305 C304 1.227 . S
N306 Co303 2.121 . S
N306 C308 1.375 . S
N306 C309 1.313 . S
C307 C308 1.338 . S
C307 N310 1.377 . S
C307 H327 0.930 . S
C308 N306 1.375 . S
C308 C307 1.338 . S
C308 H312 0.931 . S
C309 N306 1.313 . S
C309 N310 1.344 . S
C309 H313 0.930 . S
N310 C307 1.377 . S
N310 C309 1.344 . S
O311 Co303 2.055 . S
O311 C315 1.253 . S
H312 C308 0.931 . S
H313 C309 0.930 . S
O314 Co303 2.039 . S
O314 C304 1.265 . S
C315 O311 1.253 . S
C315 O316 1.227 . S
O316 C315 1.227 . S
N317 Co303 2.140 . S
N317 C320 1.346 . S
N317 C321 1.345 . S
C318 C319 1.387 . S
C318 C322 1.391 . S
C319 C318 1.387 . S
C319 C320 1.369 . S
C319 H328 0.929 . S
C320 N317 1.346 . S
C320 C319 1.369 . S
C320 H323 0.928 . S
C321 N317 1.345 . S
C321 C322 1.371 . S
C321 H324 0.931 . S
C322 C318 1.391 . S
C322 C321 1.371 . S
C322 H329 0.930 . S
H323 C320 0.928 . S
H324 C321 0.931 . S
H325 C301 0.930 . S
H326 C298 0.930 . S
H327 C307 0.930 . S
H328 C319 0.929 . S
H329 C322 0.930 . S
C330 C331 1.351 . S
C330 N333 1.368 . S
C330 H335 0.931 . S
C331 C330 1.351 . S
C331 N332 1.373 . S
C331 H359 0.930 . S
N332 C331 1.373 . S
N332 C334 1.340 . S
N333 C330 1.368 . S
N333 C334 1.321 . S
N333 Co336 2.135 . S
C334 N332 1.340 . S
C334 N333 1.321 . S
C334 H358 0.930 . S
H335 C330 0.931 . S
Co336 N333 2.135 . S
Co336 N339 2.121 . S
Co336 O344 2.055 . S
Co336 O347 2.039 . S
Co336 N350 2.140 . S
C337 O338 1.227 . S
C337 O347 1.265 . S
O338 C337 1.227 . S
N339 Co336 2.121 . S
N339 C341 1.375 . S
N339 C342 1.313 . S
C340 C341 1.338 . S
C340 N343 1.377 . S
C340 H360 0.930 . S
C341 N339 1.375 . S
C341 C340 1.338 . S
C341 H345 0.931 . S
C342 N339 1.313 . S
C342 N343 1.344 . S
C342 H346 0.930 . S
N343 C340 1.377 . S
N343 C342 1.344 . S
O344 Co336 2.055 . S
O344 C348 1.253 . S
H345 C341 0.931 . S
H346 C342 0.930 . S
O347 Co336 2.039 . S
O347 C337 1.265 . S
C348 O344 1.253 . S
C348 O349 1.227 . S
O349 C348 1.227 . S
N350 Co336 2.140 . S
N350 C353 1.346 . S
N350 C354 1.345 . S
C351 C352 1.387 . S
C351 C355 1.391 . S
C352 C351 1.387 . S
C352 C353 1.369 . S
C352 H361 0.929 . S
C353 N350 1.346 . S
C353 C352 1.369 . S
C353 H356 0.928 . S
C354 N350 1.345 . S
C354 C355 1.371 . S
C354 H357 0.931 . S
C355 C351 1.391 . S
C355 C354 1.371 . S
C355 H362 0.930 . S
H356 C353 0.928 . S
H357 C354 0.931 . S
H358 C334 0.930 . S
H359 C331 0.930 . S
H360 C340 0.930 . S
H361 C352 0.929 . S
H362 C355 0.930 . S
C363 C364 1.351 . S
C363 N366 1.368 . S
C363 H368 0.931 . S
C364 C363 1.351 . S
C364 N365 1.373 . S
C364 H392 0.930 . S
N365 C364 1.373 . S
N365 C367 1.340 . S
N366 C363 1.368 . S
N366 C367 1.321 . S
N366 Co369 2.135 . S
C367 N365 1.340 . S
C367 N366 1.321 . S
C367 H391 0.930 . S
H368 C363 0.931 . S
Co369 N366 2.135 . S
Co369 N372 2.121 . S
Co369 O377 2.055 . S
Co369 O380 2.039 . S
Co369 N383 2.140 . S
C370 O371 1.227 . S
C370 O380 1.265 . S
O371 C370 1.227 . S
N372 Co369 2.121 . S
N372 C374 1.375 . S
N372 C375 1.313 . S
C373 C374 1.338 . S
C373 N376 1.377 . S
C373 H393 0.930 . S
C374 N372 1.375 . S
C374 C373 1.338 . S
C374 H378 0.931 . S
C375 N372 1.313 . S
C375 N376 1.344 . S
C375 H379 0.930 . S
N376 C373 1.377 . S
N376 C375 1.344 . S
O377 Co369 2.055 . S
O377 C381 1.253 . S
H378 C374 0.931 . S
H379 C375 0.930 . S
O380 Co369 2.039 . S
O380 C370 1.265 . S
C381 O377 1.253 . S
C381 O382 1.227 . S
O382 C381 1.227 . S
N383 Co369 2.140 . S
N383 C386 1.346 . S
N383 C387 1.345 . S
C384 C385 1.387 . S
C384 C388 1.391 . S
C385 C384 1.387 . S
C385 C386 1.369 . S
C385 H394 0.929 . S
C386 N383 1.346 . S
C386 C385 1.369 . S
C386 H389 0.928 . S
C387 N383 1.345 . S
C387 C388 1.371 . S
C387 H390 0.931 . S
C388 C384 1.391 . S
C388 C387 1.371 . S
C388 H395 0.930 . S
H389 C386 0.928 . S
H390 C387 0.931 . S
H391 C367 0.930 . S
H392 C364 0.930 . S
H393 C373 0.930 . S
H394 C385 0.929 . S
H395 C388 0.930 . S
C396 C397 1.351 . S
C396 N399 1.368 . S
C396 H401 0.931 . S
C397 C396 1.351 . S
C397 N398 1.373 . S
C397 H425 0.930 . S
N398 C397 1.373 . S
N398 C400 1.340 . S
N399 C396 1.368 . S
N399 C400 1.321 . S
N399 Co402 2.135 . S
C400 N398 1.340 . S
C400 N399 1.321 . S
C400 H424 0.930 . S
H401 C396 0.931 . S
Co402 N399 2.135 . S
Co402 N405 2.121 . S
Co402 O410 2.055 . S
Co402 O413 2.039 . S
Co402 N416 2.140 . S
C403 O404 1.227 . S
C403 O413 1.265 . S
O404 C403 1.227 . S
N405 Co402 2.121 . S
N405 C407 1.375 . S
N405 C408 1.313 . S
C406 C407 1.338 . S
C406 N409 1.377 . S
C406 H426 0.930 . S
C407 N405 1.375 . S
C407 C406 1.338 . S
C407 H411 0.931 . S
C408 N405 1.313 . S
C408 N409 1.344 . S
C408 H412 0.930 . S
N409 C406 1.377 . S
N409 C408 1.344 . S
O410 Co402 2.055 . S
O410 C414 1.253 . S
H411 C407 0.931 . S
H412 C408 0.930 . S
O413 Co402 2.039 . S
O413 C403 1.265 . S
C414 O410 1.253 . S
C414 O415 1.227 . S
O415 C414 1.227 . S
N416 Co402 2.140 . S
N416 C419 1.346 . S
N416 C420 1.345 . S
C417 C418 1.387 . S
C417 C421 1.391 . S
C418 C417 1.387 . S
C418 C419 1.369 . S
C418 H427 0.929 . S
C419 N416 1.346 . S
C419 C418 1.369 . S
C419 H422 0.928 . S
C420 N416 1.345 . S
C420 C421 1.371 . S
C420 H423 0.931 . S
C421 C417 1.391 . S
C421 C420 1.371 . S
C421 H428 0.930 . S
H422 C419 0.928 . S
H423 C420 0.931 . S
H424 C400 0.930 . S
H425 C397 0.930 . S
H426 C406 0.930 . S
H427 C418 0.929 . S
H428 C421 0.930 . S
C429 C430 1.351 . S
C429 N432 1.368 . S
C429 H434 0.931 . S
C430 C429 1.351 . S
C430 N431 1.373 . S
C430 H458 0.930 . S
N431 C430 1.373 . S
N431 C433 1.340 . S
N432 C429 1.368 . S
N432 C433 1.321 . S
N432 Co435 2.135 . S
C433 N431 1.340 . S
C433 N432 1.321 . S
C433 H457 0.930 . S
H434 C429 0.931 . S
Co435 N432 2.135 . S
Co435 N438 2.121 . S
Co435 O443 2.055 . S
Co435 O446 2.039 . S
Co435 N449 2.140 . S
C436 O437 1.227 . S
C436 O446 1.265 . S
O437 C436 1.227 . S
N438 Co435 2.121 . S
N438 C440 1.375 . S
N438 C441 1.313 . S
C439 C440 1.338 . S
C439 N442 1.377 . S
C439 H459 0.930 . S
C440 N438 1.375 . S
C440 C439 1.338 . S
C440 H444 0.931 . S
C441 N438 1.313 . S
C441 N442 1.344 . S
C441 H445 0.930 . S
N442 C439 1.377 . S
N442 C441 1.344 . S
O443 Co435 2.055 . S
O443 C447 1.253 . S
H444 C440 0.931 . S
H445 C441 0.930 . S
O446 Co435 2.039 . S
O446 C436 1.265 . S
C447 O443 1.253 . S
C447 O448 1.227 . S
O448 C447 1.227 . S
N449 Co435 2.140 . S
N449 C452 1.346 . S
N449 C453 1.345 . S
C450 C451 1.387 . S
C450 C454 1.391 . S
C451 C450 1.387 . S
C451 C452 1.369 . S
C451 H460 0.929 . S
C452 N449 1.346 . S
C452 C451 1.369 . S
C452 H455 0.928 . S
C453 N449 1.345 . S
C453 C454 1.371 . S
C453 H456 0.931 . S
C454 C450 1.391 . S
C454 C453 1.371 . S
C454 H461 0.930 . S
H455 C452 0.928 . S
H456 C453 0.931 . S
H457 C433 0.930 . S
H458 C430 0.930 . S
H459 C439 0.930 . S
H460 C451 0.929 . S
H461 C454 0.930 . S
C462 C463 1.351 . S
C462 N465 1.368 . S
C462 H467 0.931 . S
C463 C462 1.351 . S
C463 N464 1.373 . S
C463 H491 0.930 . S
N464 C463 1.373 . S
N464 C466 1.340 . S
N465 C462 1.368 . S
N465 C466 1.321 . S
N465 Co468 2.135 . S
C466 N464 1.340 . S
C466 N465 1.321 . S
C466 H490 0.930 . S
H467 C462 0.931 . S
Co468 N465 2.135 . S
Co468 N471 2.121 . S
Co468 O476 2.055 . S
Co468 O479 2.039 . S
Co468 N482 2.140 . S
C469 O470 1.227 . S
C469 O479 1.265 . S
O470 C469 1.227 . S
N471 Co468 2.121 . S
N471 C473 1.375 . S
N471 C474 1.313 . S
C472 C473 1.338 . S
C472 N475 1.377 . S
C472 H492 0.930 . S
C473 N471 1.375 . S
C473 C472 1.338 . S
C473 H477 0.931 . S
C474 N471 1.313 . S
C474 N475 1.344 . S
C474 H478 0.930 . S
N475 C472 1.377 . S
N475 C474 1.344 . S
O476 Co468 2.055 . S
O476 C480 1.253 . S
H477 C473 0.931 . S
H478 C474 0.930 . S
O479 Co468 2.039 . S
O479 C469 1.265 . S
C480 O476 1.253 . S
C480 O481 1.227 . S
O481 C480 1.227 . S
N482 Co468 2.140 . S
N482 C485 1.346 . S
N482 C486 1.345 . S
C483 C484 1.387 . S
C483 C487 1.391 . S
C484 C483 1.387 . S
C484 C485 1.369 . S
C484 H493 0.929 . S
C485 N482 1.346 . S
C485 C484 1.369 . S
C485 H488 0.928 . S
C486 N482 1.345 . S
C486 C487 1.371 . S
C486 H489 0.931 . S
C487 C483 1.391 . S
C487 C486 1.371 . S
C487 H494 0.930 . S
H488 C485 0.928 . S
H489 C486 0.931 . S
H490 C466 0.930 . S
H491 C463 0.930 . S
H492 C472 0.930 . S
H493 C484 0.929 . S
H494 C487 0.930 . S
C495 C496 1.351 . S
C495 N498 1.368 . S
C495 H500 0.931 . S
C496 C495 1.351 . S
C496 N497 1.373 . S
C496 H524 0.930 . S
N497 C496 1.373 . S
N497 C499 1.340 . S
N498 C495 1.368 . S
N498 C499 1.321 . S
N498 Co501 2.135 . S
C499 N497 1.340 . S
C499 N498 1.321 . S
C499 H523 0.930 . S
H500 C495 0.931 . S
Co501 N498 2.135 . S
Co501 N504 2.121 . S
Co501 O509 2.055 . S
Co501 O512 2.039 . S
Co501 N515 2.140 . S
C502 O503 1.227 . S
C502 O512 1.265 . S
O503 C502 1.227 . S
N504 Co501 2.121 . S
N504 C506 1.375 . S
N504 C507 1.313 . S
C505 C506 1.338 . S
C505 N508 1.377 . S
C505 H525 0.930 . S
C506 N504 1.375 . S
C506 C505 1.338 . S
C506 H510 0.931 . S
C507 N504 1.313 . S
C507 N508 1.344 . S
C507 H511 0.930 . S
N508 C505 1.377 . S
N508 C507 1.344 . S
O509 Co501 2.055 . S
O509 C513 1.253 . S
H510 C506 0.931 . S
H511 C507 0.930 . S
O512 Co501 2.039 . S
O512 C502 1.265 . S
C513 O509 1.253 . S
C513 O514 1.227 . S
O514 C513 1.227 . S
N515 Co501 2.140 . S
N515 C518 1.346 . S
N515 C519 1.345 . S
C516 C517 1.387 . S
C516 C520 1.391 . S
C517 C516 1.387 . S
C517 C518 1.369 . S
C517 H526 0.929 . S
C518 N515 1.346 . S
C518 C517 1.369 . S
C518 H521 0.928 . S
C519 N515 1.345 . S
C519 C520 1.371 . S
C519 H522 0.931 . S
C520 C516 1.391 . S
C520 C519 1.371 . S
C520 H527 0.930 . S
H521 C518 0.928 . S
H522 C519 0.931 . S
H523 C499 0.930 . S
H524 C496 0.930 . S
H525 C505 0.930 . S
H526 C517 0.929 . S
H527 C520 0.930 . S
C528 C529 1.351 . S
C528 N531 1.368 . S
C528 H533 0.931 . S
C529 C528 1.351 . S
C529 N530 1.373 . S
C529 H557 0.930 . S
N530 C529 1.373 . S
N530 C532 1.340 . S
N531 C528 1.368 . S
N531 C532 1.321 . S
N531 Co534 2.135 . S
C532 N530 1.340 . S
C532 N531 1.321 . S
C532 H556 0.930 . S
H533 C528 0.931 . S
Co534 N531 2.135 . S
Co534 N537 2.121 . S
Co534 O542 2.055 . S
Co534 O545 2.039 . S
Co534 N548 2.140 . S
C535 O536 1.227 . S
C535 O545 1.265 . S
O536 C535 1.227 . S
N537 Co534 2.121 . S
N537 C539 1.375 . S
N537 C540 1.313 . S
C538 C539 1.338 . S
C538 N541 1.377 . S
C538 H558 0.930 . S
C539 N537 1.375 . S
C539 C538 1.338 . S
C539 H543 0.931 . S
C540 N537 1.313 . S
C540 N541 1.344 . S
C540 H544 0.930 . S
N541 C538 1.377 . S
N541 C540 1.344 . S
O542 Co534 2.055 . S
O542 C546 1.253 . S
H543 C539 0.931 . S
H544 C540 0.930 . S
O545 Co534 2.039 . S
O545 C535 1.265 . S
C546 O542 1.253 . S
C546 O547 1.227 . S
O547 C546 1.227 . S
N548 Co534 2.140 . S
N548 C551 1.346 . S
N548 C552 1.345 . S
C549 C550 1.387 . S
C549 C553 1.391 . S
C550 C549 1.387 . S
C550 C551 1.369 . S
C550 H559 0.929 . S
C551 N548 1.346 . S
C551 C550 1.369 . S
C551 H554 0.928 . S
C552 N548 1.345 . S
C552 C553 1.371 . S
C552 H555 0.931 . S
C553 C549 1.391 . S
C553 C552 1.371 . S
C553 H560 0.930 . S
H554 C551 0.928 . S
H555 C552 0.931 . S
H556 C532 0.930 . S
H557 C529 0.930 . S
H558 C538 0.930 . S
H559 C550 0.929 . S
H560 C553 0.930 . S
C561 C562 1.351 . S
C561 N564 1.368 . S
C561 H566 0.931 . S
C562 C561 1.351 . S
C562 N563 1.373 . S
C562 H590 0.930 . S
N563 C562 1.373 . S
N563 C565 1.340 . S
N564 C561 1.368 . S
N564 C565 1.321 . S
N564 Co567 2.135 . S
C565 N563 1.340 . S
C565 N564 1.321 . S
C565 H589 0.930 . S
H566 C561 0.931 . S
Co567 N564 2.135 . S
Co567 N570 2.121 . S
Co567 O575 2.055 . S
Co567 O578 2.039 . S
Co567 N581 2.140 . S
C568 O569 1.227 . S
C568 O578 1.265 . S
O569 C568 1.227 . S
N570 Co567 2.121 . S
N570 C572 1.375 . S
N570 C573 1.313 . S
C571 C572 1.338 . S
C571 N574 1.377 . S
C571 H591 0.930 . S
C572 N570 1.375 . S
C572 C571 1.338 . S
C572 H576 0.931 . S
C573 N570 1.313 . S
C573 N574 1.344 . S
C573 H577 0.930 . S
N574 C571 1.377 . S
N574 C573 1.344 . S
O575 Co567 2.055 . S
O575 C579 1.253 . S
H576 C572 0.931 . S
H577 C573 0.930 . S
O578 Co567 2.039 . S
O578 C568 1.265 . S
C579 O575 1.253 . S
C579 O580 1.227 . S
O580 C579 1.227 . S
N581 Co567 2.140 . S
N581 C584 1.346 . S
N581 C585 1.345 . S
C582 C583 1.387 . S
C582 C586 1.391 . S
C583 C582 1.387 . S
C583 C584 1.369 . S
C583 H592 0.929 . S
C584 N581 1.346 . S
C584 C583 1.369 . S
C584 H587 0.928 . S
C585 N581 1.345 . S
C585 C586 1.371 . S
C585 H588 0.931 . S
C586 C582 1.391 . S
C586 C585 1.371 . S
C586 H593 0.930 . S
H587 C584 0.928 . S
H588 C585 0.931 . S
H589 C565 0.930 . S
H590 C562 0.930 . S
H591 C571 0.930 . S
H592 C583 0.929 . S
H593 C586 0.930 . S
C594 C595 1.351 . S
C594 N597 1.368 . S
C594 H599 0.931 . S
C595 C594 1.351 . S
C595 N596 1.373 . S
C595 H623 0.930 . S
N596 C595 1.373 . S
N596 C598 1.340 . S
N597 C594 1.368 . S
N597 C598 1.321 . S
N597 Co600 2.135 . S
C598 N596 1.340 . S
C598 N597 1.321 . S
C598 H622 0.930 . S
H599 C594 0.931 . S
Co600 N597 2.135 . S
Co600 N603 2.121 . S
Co600 O608 2.055 . S
Co600 O611 2.039 . S
Co600 N614 2.140 . S
C601 O602 1.227 . S
C601 O611 1.265 . S
O602 C601 1.227 . S
N603 Co600 2.121 . S
N603 C605 1.375 . S
N603 C606 1.313 . S
C604 C605 1.338 . S
C604 N607 1.377 . S
C604 H624 0.930 . S
C605 N603 1.375 . S
C605 C604 1.338 . S
C605 H609 0.931 . S
C606 N603 1.313 . S
C606 N607 1.344 . S
C606 H610 0.930 . S
N607 C604 1.377 . S
N607 C606 1.344 . S
O608 Co600 2.055 . S
O608 C612 1.253 . S
H609 C605 0.931 . S
H610 C606 0.930 . S
O611 Co600 2.039 . S
O611 C601 1.265 . S
C612 O608 1.253 . S
C612 O613 1.227 . S
O613 C612 1.227 . S
N614 Co600 2.140 . S
N614 C617 1.346 . S
N614 C618 1.345 . S
C615 C616 1.387 . S
C615 C619 1.391 . S
C616 C615 1.387 . S
C616 C617 1.369 . S
C616 H625 0.929 . S
C617 N614 1.346 . S
C617 C616 1.369 . S
C617 H620 0.928 . S
C618 N614 1.345 . S
C618 C619 1.371 . S
C618 H621 0.931 . S
C619 C615 1.391 . S
C619 C618 1.371 . S
C619 H626 0.930 . S
H620 C617 0.928 . S
H621 C618 0.931 . S
H622 C598 0.930 . S
H623 C595 0.930 . S
H624 C604 0.930 . S
H625 C616 0.929 . S
H626 C619 0.930 . S
C627 C628 1.351 . S
C627 N630 1.368 . S
C627 H632 0.931 . S
C628 C627 1.351 . S
C628 N629 1.373 . S
C628 H656 0.930 . S
N629 C628 1.373 . S
N629 C631 1.340 . S
N630 C627 1.368 . S
N630 C631 1.321 . S
N630 Co633 2.135 . S
C631 N629 1.340 . S
C631 N630 1.321 . S
C631 H655 0.930 . S
H632 C627 0.931 . S
Co633 N630 2.135 . S
Co633 N636 2.121 . S
Co633 O641 2.055 . S
Co633 O644 2.039 . S
Co633 N647 2.140 . S
C634 O635 1.227 . S
C634 O644 1.265 . S
O635 C634 1.227 . S
N636 Co633 2.121 . S
N636 C638 1.375 . S
N636 C639 1.313 . S
C637 C638 1.338 . S
C637 N640 1.377 . S
C637 H657 0.930 . S
C638 N636 1.375 . S
C638 C637 1.338 . S
C638 H642 0.931 . S
C639 N636 1.313 . S
C639 N640 1.344 . S
C639 H643 0.930 . S
N640 C637 1.377 . S
N640 C639 1.344 . S
O641 Co633 2.055 . S
O641 C645 1.253 . S
H642 C638 0.931 . S
H643 C639 0.930 . S
O644 Co633 2.039 . S
O644 C634 1.265 . S
C645 O641 1.253 . S
C645 O646 1.227 . S
O646 C645 1.227 . S
N647 Co633 2.140 . S
N647 C650 1.346 . S
N647 C651 1.345 . S
C648 C649 1.387 . S
C648 C652 1.391 . S
C649 C648 1.387 . S
C649 C650 1.369 . S
C649 H658 0.929 . S
C650 N647 1.346 . S
C650 C649 1.369 . S
C650 H653 0.928 . S
C651 N647 1.345 . S
C651 C652 1.371 . S
C651 H654 0.931 . S
C652 C648 1.391 . S
C652 C651 1.371 . S
C652 H659 0.930 . S
H653 C650 0.928 . S
H654 C651 0.931 . S
H655 C631 0.930 . S
H656 C628 0.930 . S
H657 C637 0.930 . S
H658 C649 0.929 . S
H659 C652 0.930 . S
C660 C661 1.351 . S
C660 N663 1.368 . S
C660 H665 0.931 . S
C661 C660 1.351 . S
C661 N662 1.373 . S
C661 H689 0.930 . S
N662 C661 1.373 . S
N662 C664 1.340 . S
N663 C660 1.368 . S
N663 C664 1.321 . S
N663 Co666 2.135 . S
C664 N662 1.340 . S
C664 N663 1.321 . S
C664 H688 0.930 . S
H665 C660 0.931 . S
Co666 N663 2.135 . S
Co666 N669 2.121 . S
Co666 O674 2.055 . S
Co666 O677 2.039 . S
Co666 N680 2.140 . S
C667 O668 1.227 . S
C667 O677 1.265 . S
O668 C667 1.227 . S
N669 Co666 2.121 . S
N669 C671 1.375 . S
N669 C672 1.313 . S
C670 C671 1.338 . S
C670 N673 1.377 . S
C670 H690 0.930 . S
C671 N669 1.375 . S
C671 C670 1.338 . S
C671 H675 0.931 . S
C672 N669 1.313 . S
C672 N673 1.344 . S
C672 H676 0.930 . S
N673 C670 1.377 . S
N673 C672 1.344 . S
O674 Co666 2.055 . S
O674 C678 1.253 . S
H675 C671 0.931 . S
H676 C672 0.930 . S
O677 Co666 2.039 . S
O677 C667 1.265 . S
C678 O674 1.253 . S
C678 O679 1.227 . S
O679 C678 1.227 . S
N680 Co666 2.140 . S
N680 C683 1.346 . S
N680 C684 1.345 . S
C681 C682 1.387 . S
C681 C685 1.391 . S
C682 C681 1.387 . S
C682 C683 1.369 . S
C682 H691 0.929 . S
C683 N680 1.346 . S
C683 C682 1.369 . S
C683 H686 0.928 . S
C684 N680 1.345 . S
C684 C685 1.371 . S
C684 H687 0.931 . S
C685 C681 1.391 . S
C685 C684 1.371 . S
C685 H692 0.930 . S
H686 C683 0.928 . S
H687 C684 0.931 . S
H688 C664 0.930 . S
H689 C661 0.930 . S
H690 C670 0.930 . S
H691 C682 0.929 . S
H692 C685 0.930 . S
C693 C694 1.351 . S
C693 N696 1.368 . S
C693 H698 0.931 . S
C694 C693 1.351 . S
C694 N695 1.373 . S
C694 H722 0.930 . S
N695 C694 1.373 . S
N695 C697 1.340 . S
N696 C693 1.368 . S
N696 C697 1.321 . S
N696 Co699 2.135 . S
C697 N695 1.340 . S
C697 N696 1.321 . S
C697 H721 0.930 . S
H698 C693 0.931 . S
Co699 N696 2.135 . S
Co699 N702 2.121 . S
Co699 O707 2.055 . S
Co699 O710 2.039 . S
Co699 N713 2.140 . S
C700 O701 1.227 . S
C700 O710 1.265 . S
O701 C700 1.227 . S
N702 Co699 2.121 . S
N702 C704 1.375 . S
N702 C705 1.313 . S
C703 C704 1.338 . S
C703 N706 1.377 . S
C703 H723 0.930 . S
C704 N702 1.375 . S
C704 C703 1.338 . S
C704 H708 0.931 . S
C705 N702 1.313 . S
C705 N706 1.344 . S
C705 H709 0.930 . S
N706 C703 1.377 . S
N706 C705 1.344 . S
O707 Co699 2.055 . S
O707 C711 1.253 . S
H708 C704 0.931 . S
H709 C705 0.930 . S
O710 Co699 2.039 . S
O710 C700 1.265 . S
C711 O707 1.253 . S
C711 O712 1.227 . S
O712 C711 1.227 . S
N713 Co699 2.140 . S
N713 C716 1.346 . S
N713 C717 1.345 . S
C714 C715 1.387 . S
C714 C718 1.391 . S
C715 C714 1.387 . S
C715 C716 1.369 . S
C715 H724 0.929 . S
C716 N713 1.346 . S
C716 C715 1.369 . S
C716 H719 0.928 . S
C717 N713 1.345 . S
C717 C718 1.371 . S
C717 H720 0.931 . S
C718 C714 1.391 . S
C718 C717 1.371 . S
C718 H725 0.930 . S
H719 C716 0.928 . S
H720 C717 0.931 . S
H721 C697 0.930 . S
H722 C694 0.930 . S
H723 C703 0.930 . S
H724 C715 0.929 . S
H725 C718 0.930 . S
C726 C727 1.351 . S
C726 N729 1.368 . S
C726 H731 0.931 . S
C727 C726 1.351 . S
C727 N728 1.373 . S
C727 H755 0.930 . S
N728 C727 1.373 . S
N728 C730 1.340 . S
N729 C726 1.368 . S
N729 C730 1.321 . S
N729 Co732 2.135 . S
C730 N728 1.340 . S
C730 N729 1.321 . S
C730 H754 0.930 . S
H731 C726 0.931 . S
Co732 N729 2.135 . S
Co732 N735 2.121 . S
Co732 O740 2.055 . S
Co732 O743 2.039 . S
Co732 N746 2.140 . S
C733 O734 1.227 . S
C733 O743 1.265 . S
O734 C733 1.227 . S
N735 Co732 2.121 . S
N735 C737 1.375 . S
N735 C738 1.313 . S
C736 C737 1.338 . S
C736 N739 1.377 . S
C736 H756 0.930 . S
C737 N735 1.375 . S
C737 C736 1.338 . S
C737 H741 0.931 . S
C738 N735 1.313 . S
C738 N739 1.344 . S
C738 H742 0.930 . S
N739 C736 1.377 . S
N739 C738 1.344 . S
O740 Co732 2.055 . S
O740 C744 1.253 . S
H741 C737 0.931 . S
H742 C738 0.930 . S
O743 Co732 2.039 . S
O743 C733 1.265 . S
C744 O740 1.253 . S
C744 O745 1.227 . S
O745 C744 1.227 . S
N746 Co732 2.140 . S
N746 C749 1.346 . S
N746 C750 1.345 . S
C747 C748 1.387 . S
C747 C751 1.391 . S
C748 C747 1.387 . S
C748 C749 1.369 . S
C748 H757 0.929 . S
C749 N746 1.346 . S
C749 C748 1.369 . S
C749 H752 0.928 . S
C750 N746 1.345 . S
C750 C751 1.371 . S
C750 H753 0.931 . S
C751 C747 1.391 . S
C751 C750 1.371 . S
C751 H758 0.930 . S
H752 C749 0.928 . S
H753 C750 0.931 . S
H754 C730 0.930 . S
H755 C727 0.930 . S
H756 C736 0.930 . S
H757 C748 0.929 . S
H758 C751 0.930 . S
C759 C760 1.351 . S
C759 N762 1.368 . S
C759 H764 0.931 . S
C760 C759 1.351 . S
C760 N761 1.373 . S
C760 H788 0.930 . S
N761 C760 1.373 . S
N761 C763 1.340 . S
N762 C759 1.368 . S
N762 C763 1.321 . S
N762 Co765 2.135 . S
C763 N761 1.340 . S
C763 N762 1.321 . S
C763 H787 0.930 . S
H764 C759 0.931 . S
Co765 N762 2.135 . S
Co765 N768 2.121 . S
Co765 O773 2.055 . S
Co765 O776 2.039 . S
Co765 N779 2.140 . S
C766 O767 1.227 . S
C766 O776 1.265 . S
O767 C766 1.227 . S
N768 Co765 2.121 . S
N768 C770 1.375 . S
N768 C771 1.313 . S
C769 C770 1.338 . S
C769 N772 1.377 . S
C769 H789 0.930 . S
C770 N768 1.375 . S
C770 C769 1.338 . S
C770 H774 0.931 . S
C771 N768 1.313 . S
C771 N772 1.344 . S
C771 H775 0.930 . S
N772 C769 1.377 . S
N772 C771 1.344 . S
O773 Co765 2.055 . S
O773 C777 1.253 . S
H774 C770 0.931 . S
H775 C771 0.930 . S
O776 Co765 2.039 . S
O776 C766 1.265 . S
C777 O773 1.253 . S
C777 O778 1.227 . S
O778 C777 1.227 . S
N779 Co765 2.140 . S
N779 C782 1.346 . S
N779 C783 1.345 . S
C780 C781 1.387 . S
C780 C784 1.391 . S
C781 C780 1.387 . S
C781 C782 1.369 . S
C781 H790 0.929 . S
C782 N779 1.346 . S
C782 C781 1.369 . S
C782 H785 0.928 . S
C783 N779 1.345 . S
C783 C784 1.371 . S
C783 H786 0.931 . S
C784 C780 1.391 . S
C784 C783 1.371 . S
C784 H791 0.930 . S
H785 C782 0.928 . S
H786 C783 0.931 . S
H787 C763 0.930 . S
H788 C760 0.930 . S
H789 C769 0.930 . S
H790 C781 0.929 . S
H791 C784 0.930 . S
C792 C793 1.351 . S
C792 N795 1.368 . S
C792 H797 0.931 . S
C793 C792 1.351 . S
C793 N794 1.373 . S
C793 H821 0.930 . S
N794 C793 1.373 . S
N794 C796 1.340 . S
N795 C792 1.368 . S
N795 C796 1.321 . S
N795 Co798 2.135 . S
C796 N794 1.340 . S
C796 N795 1.321 . S
C796 H820 0.930 . S
H797 C792 0.931 . S
Co798 N795 2.135 . S
Co798 N801 2.121 . S
Co798 O806 2.055 . S
Co798 O809 2.039 . S
Co798 N812 2.140 . S
C799 O800 1.227 . S
C799 O809 1.265 . S
O800 C799 1.227 . S
N801 Co798 2.121 . S
N801 C803 1.375 . S
N801 C804 1.313 . S
C802 C803 1.338 . S
C802 N805 1.377 . S
C802 H822 0.930 . S
C803 N801 1.375 . S
C803 C802 1.338 . S
C803 H807 0.931 . S
C804 N801 1.313 . S
C804 N805 1.344 . S
C804 H808 0.930 . S
N805 C802 1.377 . S
N805 C804 1.344 . S
O806 Co798 2.055 . S
O806 C810 1.253 . S
H807 C803 0.931 . S
H808 C804 0.930 . S
O809 Co798 2.039 . S
O809 C799 1.265 . S
C810 O806 1.253 . S
C810 O811 1.227 . S
O811 C810 1.227 . S
N812 Co798 2.140 . S
N812 C815 1.346 . S
N812 C816 1.345 . S
C813 C814 1.387 . S
C813 C817 1.391 . S
C814 C813 1.387 . S
C814 C815 1.369 . S
C814 H823 0.929 . S
C815 N812 1.346 . S
C815 C814 1.369 . S
C815 H818 0.928 . S
C816 N812 1.345 . S
C816 C817 1.371 . S
C816 H819 0.931 . S
C817 C813 1.391 . S
C817 C816 1.371 . S
C817 H824 0.930 . S
H818 C815 0.928 . S
H819 C816 0.931 . S
H820 C796 0.930 . S
H821 C793 0.930 . S
H822 C802 0.930 . S
H823 C814 0.929 . S
H824 C817 0.930 . S
C825 C826 1.351 . S
C825 N828 1.368 . S
C825 H830 0.931 . S
C826 C825 1.351 . S
C826 N827 1.373 . S
C826 H854 0.930 . S
N827 C826 1.373 . S
N827 C829 1.340 . S
N828 C825 1.368 . S
N828 C829 1.321 . S
N828 Co831 2.135 . S
C829 N827 1.340 . S
C829 N828 1.321 . S
C829 H853 0.930 . S
H830 C825 0.931 . S
Co831 N828 2.135 . S
Co831 N834 2.121 . S
Co831 O839 2.055 . S
Co831 O842 2.039 . S
Co831 N845 2.140 . S
C832 O833 1.227 . S
C832 O842 1.265 . S
O833 C832 1.227 . S
N834 Co831 2.121 . S
N834 C836 1.375 . S
N834 C837 1.313 . S
C835 C836 1.338 . S
C835 N838 1.377 . S
C835 H855 0.930 . S
C836 N834 1.375 . S
C836 C835 1.338 . S
C836 H840 0.931 . S
C837 N834 1.313 . S
C837 N838 1.344 . S
C837 H841 0.930 . S
N838 C835 1.377 . S
N838 C837 1.344 . S
O839 Co831 2.055 . S
O839 C843 1.253 . S
H840 C836 0.931 . S
H841 C837 0.930 . S
O842 Co831 2.039 . S
O842 C832 1.265 . S
C843 O839 1.253 . S
C843 O844 1.227 . S
O844 C843 1.227 . S
N845 Co831 2.140 . S
N845 C848 1.346 . S
N845 C849 1.345 . S
C846 C847 1.387 . S
C846 C850 1.391 . S
C847 C846 1.387 . S
C847 C848 1.369 . S
C847 H856 0.929 . S
C848 N845 1.346 . S
C848 C847 1.369 . S
C848 H851 0.928 . S
C849 N845 1.345 . S
C849 C850 1.371 . S
C849 H852 0.931 . S
C850 C846 1.391 . S
C850 C849 1.371 . S
C850 H857 0.930 . S
H851 C848 0.928 . S
H852 C849 0.931 . S
H853 C829 0.930 . S
H854 C826 0.930 . S
H855 C835 0.930 . S
H856 C847 0.929 . S
H857 C850 0.930 . S
C858 C859 1.351 . S
C858 N861 1.368 . S
C858 H863 0.931 . S
C859 C858 1.351 . S
C859 N860 1.373 . S
C859 H887 0.930 . S
N860 C859 1.373 . S
N860 C862 1.340 . S
N861 C858 1.368 . S
N861 C862 1.321 . S
N861 Co864 2.135 . S
C862 N860 1.340 . S
C862 N861 1.321 . S
C862 H886 0.930 . S
H863 C858 0.931 . S
Co864 N861 2.135 . S
Co864 N867 2.121 . S
Co864 O872 2.055 . S
Co864 O875 2.039 . S
Co864 N878 2.140 . S
C865 O866 1.227 . S
C865 O875 1.265 . S
O866 C865 1.227 . S
N867 Co864 2.121 . S
N867 C869 1.375 . S
N867 C870 1.313 . S
C868 C869 1.338 . S
C868 N871 1.377 . S
C868 H888 0.930 . S
C869 N867 1.375 . S
C869 C868 1.338 . S
C869 H873 0.931 . S
C870 N867 1.313 . S
C870 N871 1.344 . S
C870 H874 0.930 . S
N871 C868 1.377 . S
N871 C870 1.344 . S
O872 Co864 2.055 . S
O872 C876 1.253 . S
H873 C869 0.931 . S
H874 C870 0.930 . S
O875 Co864 2.039 . S
O875 C865 1.265 . S
C876 O872 1.253 . S
C876 O877 1.227 . S
O877 C876 1.227 . S
N878 Co864 2.140 . S
N878 C881 1.346 . S
N878 C882 1.345 . S
C879 C880 1.387 . S
C879 C883 1.391 . S
C880 C879 1.387 . S
C880 C881 1.369 . S
C880 H889 0.929 . S
C881 N878 1.346 . S
C881 C880 1.369 . S
C881 H884 0.928 . S
C882 N878 1.345 . S
C882 C883 1.371 . S
C882 H885 0.931 . S
C883 C879 1.391 . S
C883 C882 1.371 . S
C883 H890 0.930 . S
H884 C881 0.928 . S
H885 C882 0.931 . S
H886 C862 0.930 . S
H887 C859 0.930 . S
H888 C868 0.930 . S
H889 C880 0.929 . S
H890 C883 0.930 . S
C891 C892 1.351 . S
C891 N894 1.368 . S
C891 H896 0.931 . S
C892 C891 1.351 . S
C892 N893 1.373 . S
C892 H920 0.930 . S
N893 C892 1.373 . S
N893 C895 1.340 . S
N894 C891 1.368 . S
N894 C895 1.321 . S
N894 Co897 2.135 . S
C895 N893 1.340 . S
C895 N894 1.321 . S
C895 H919 0.930 . S
H896 C891 0.931 . S
Co897 N894 2.135 . S
Co897 N900 2.121 . S
Co897 O905 2.055 . S
Co897 O908 2.039 . S
Co897 N911 2.140 . S
C898 O899 1.227 . S
C898 O908 1.265 . S
O899 C898 1.227 . S
N900 Co897 2.121 . S
N900 C902 1.375 . S
N900 C903 1.313 . S
C901 C902 1.338 . S
C901 N904 1.377 . S
C901 H921 0.930 . S
C902 N900 1.375 . S
C902 C901 1.338 . S
C902 H906 0.931 . S
C903 N900 1.313 . S
C903 N904 1.344 . S
C903 H907 0.930 . S
N904 C901 1.377 . S
N904 C903 1.344 . S
O905 Co897 2.055 . S
O905 C909 1.253 . S
H906 C902 0.931 . S
H907 C903 0.930 . S
O908 Co897 2.039 . S
O908 C898 1.265 . S
C909 O905 1.253 . S
C909 O910 1.227 . S
O910 C909 1.227 . S
N911 Co897 2.140 . S
N911 C914 1.346 . S
N911 C915 1.345 . S
C912 C913 1.387 . S
C912 C916 1.391 . S
C913 C912 1.387 . S
C913 C914 1.369 . S
C913 H922 0.929 . S
C914 N911 1.346 . S
C914 C913 1.369 . S
C914 H917 0.928 . S
C915 N911 1.345 . S
C915 C916 1.371 . S
C915 H918 0.931 . S
C916 C912 1.391 . S
C916 C915 1.371 . S
C916 H923 0.930 . S
H917 C914 0.928 . S
H918 C915 0.931 . S
H919 C895 0.930 . S
H920 C892 0.930 . S
H921 C901 0.930 . S
H922 C913 0.929 . S
H923 C916 0.930 . S
C924 C925 1.351 . S
C924 N927 1.368 . S
C924 H929 0.931 . S
C925 C924 1.351 . S
C925 N926 1.373 . S
C925 H953 0.930 . S
N926 C925 1.373 . S
N926 C928 1.340 . S
N927 C924 1.368 . S
N927 C928 1.321 . S
N927 Co930 2.135 . S
C928 N926 1.340 . S
C928 N927 1.321 . S
C928 H952 0.930 . S
H929 C924 0.931 . S
Co930 N927 2.135 . S
Co930 N933 2.121 . S
Co930 O938 2.055 . S
Co930 O941 2.039 . S
Co930 N944 2.140 . S
C931 O932 1.227 . S
C931 O941 1.265 . S
O932 C931 1.227 . S
N933 Co930 2.121 . S
N933 C935 1.375 . S
N933 C936 1.313 . S
C934 C935 1.338 . S
C934 N937 1.377 . S
C934 H954 0.930 . S
C935 N933 1.375 . S
C935 C934 1.338 . S
C935 H939 0.931 . S
C936 N933 1.313 . S
C936 N937 1.344 . S
C936 H940 0.930 . S
N937 C934 1.377 . S
N937 C936 1.344 . S
O938 Co930 2.055 . S
O938 C942 1.253 . S
H939 C935 0.931 . S
H940 C936 0.930 . S
O941 Co930 2.039 . S
O941 C931 1.265 . S
C942 O938 1.253 . S
C942 O943 1.227 . S
O943 C942 1.227 . S
N944 Co930 2.140 . S
N944 C947 1.346 . S
N944 C948 1.345 . S
C945 C946 1.387 . S
C945 C949 1.391 . S
C946 C945 1.387 . S
C946 C947 1.369 . S
C946 H955 0.929 . S
C947 N944 1.346 . S
C947 C946 1.369 . S
C947 H950 0.928 . S
C948 N944 1.345 . S
C948 C949 1.371 . S
C948 H951 0.931 . S
C949 C945 1.391 . S
C949 C948 1.371 . S
C949 H956 0.930 . S
H950 C947 0.928 . S
H951 C948 0.931 . S
H952 C928 0.930 . S
H953 C925 0.930 . S
H954 C934 0.930 . S
H955 C946 0.929 . S
H956 C949 0.930 . S
C957 C958 1.351 . S
C957 N960 1.368 . S
C957 H962 0.931 . S
C958 C957 1.351 . S
C958 N959 1.373 . S
C958 H986 0.930 . S
N959 C958 1.373 . S
N959 C961 1.340 . S
N960 C957 1.368 . S
N960 C961 1.321 . S
N960 Co963 2.135 . S
C961 N959 1.340 . S
C961 N960 1.321 . S
C961 H985 0.930 . S
H962 C957 0.931 . S
Co963 N960 2.135 . S
Co963 N966 2.121 . S
Co963 O971 2.055 . S
Co963 O974 2.039 . S
Co963 N977 2.140 . S
C964 O965 1.227 . S
C964 O974 1.265 . S
O965 C964 1.227 . S
N966 Co963 2.121 . S
N966 C968 1.375 . S
N966 C969 1.313 . S
C967 C968 1.338 . S
C967 N970 1.377 . S
C967 H987 0.930 . S
C968 N966 1.375 . S
C968 C967 1.338 . S
C968 H972 0.931 . S
C969 N966 1.313 . S
C969 N970 1.344 . S
C969 H973 0.930 . S
N970 C967 1.377 . S
N970 C969 1.344 . S
O971 Co963 2.055 . S
O971 C975 1.253 . S
H972 C968 0.931 . S
H973 C969 0.930 . S
O974 Co963 2.039 . S
O974 C964 1.265 . S
C975 O971 1.253 . S
C975 O976 1.227 . S
O976 C975 1.227 . S
N977 Co963 2.140 . S
N977 C980 1.346 . S
N977 C981 1.345 . S
C978 C979 1.387 . S
C978 C982 1.391 . S
C979 C978 1.387 . S
C979 C980 1.369 . S
C979 H988 0.929 . S
C980 N977 1.346 . S
C980 C979 1.369 . S
C980 H983 0.928 . S
C981 N977 1.345 . S
C981 C982 1.371 . S
C981 H984 0.931 . S
C982 C978 1.391 . S
C982 C981 1.371 . S
C982 H989 0.930 . S
H983 C980 0.928 . S
H984 C981 0.931 . S
H985 C961 0.930 . S
H986 C958 0.930 . S
H987 C967 0.930 . S
H988 C979 0.929 . S
H989 C982 0.930 . S
C990 C991 1.351 . S
C990 N993 1.368 . S
C990 H995 0.931 . S
C991 C990 1.351 . S
C991 N992 1.373 . S
C991 H1019 0.930 . S
N992 C991 1.373 . S
N992 C994 1.340 . S
N993 C990 1.368 . S
N993 C994 1.321 . S
N993 Co996 2.135 . S
C994 N992 1.340 . S
C994 N993 1.321 . S
C994 H1018 0.930 . S
H995 C990 0.931 . S
Co996 N993 2.135 . S
Co996 N999 2.121 . S
Co996 O1004 2.055 . S
Co996 O1007 2.039 . S
Co996 N1010 2.140 . S
C997 O998 1.227 . S
C997 O1007 1.265 . S
O998 C997 1.227 . S
N999 Co996 2.121 . S
N999 C1001 1.375 . S
N999 C1002 1.313 . S
C1000 C1001 1.338 . S
C1000 N1003 1.377 . S
C1000 H1020 0.930 . S
C1001 N999 1.375 . S
C1001 C1000 1.338 . S
C1001 H1005 0.931 . S
C1002 N999 1.313 . S
C1002 N1003 1.344 . S
C1002 H1006 0.930 . S
N1003 C1000 1.377 . S
N1003 C1002 1.344 . S
O1004 Co996 2.055 . S
O1004 C1008 1.253 . S
H1005 C1001 0.931 . S
H1006 C1002 0.930 . S
O1007 Co996 2.039 . S
O1007 C997 1.265 . S
C1008 O1004 1.253 . S
C1008 O1009 1.227 . S
O1009 C1008 1.227 . S
N1010 Co996 2.140 . S
N1010 C1013 1.346 . S
N1010 C1014 1.345 . S
C1011 C1012 1.387 . S
C1011 C1015 1.391 . S
C1012 C1011 1.387 . S
C1012 C1013 1.369 . S
C1012 H1021 0.929 . S
C1013 N1010 1.346 . S
C1013 C1012 1.369 . S
C1013 H1016 0.928 . S
C1014 N1010 1.345 . S
C1014 C1015 1.371 . S
C1014 H1017 0.931 . S
C1015 C1011 1.391 . S
C1015 C1014 1.371 . S
C1015 H1022 0.930 . S
H1016 C1013 0.928 . S
H1017 C1014 0.931 . S
H1018 C994 0.930 . S
H1019 C991 0.930 . S
H1020 C1000 0.930 . S
H1021 C1012 0.929 . S
H1022 C1015 0.930 . S
C1023 C1024 1.351 . S
C1023 N1026 1.368 . S
C1023 H1028 0.931 . S
C1024 C1023 1.351 . S
C1024 N1025 1.373 . S
C1024 H1052 0.930 . S
N1025 C1024 1.373 . S
N1025 C1027 1.340 . S
N1026 C1023 1.368 . S
N1026 C1027 1.321 . S
N1026 Co1029 2.135 . S
C1027 N1025 1.340 . S
C1027 N1026 1.321 . S
C1027 H1051 0.930 . S
H1028 C1023 0.931 . S
Co1029 N1026 2.135 . S
Co1029 N1032 2.121 . S
Co1029 O1037 2.055 . S
Co1029 O1040 2.039 . S
Co1029 N1043 2.140 . S
C1030 O1031 1.227 . S
C1030 O1040 1.265 . S
O1031 C1030 1.227 . S
N1032 Co1029 2.121 . S
N1032 C1034 1.375 . S
N1032 C1035 1.313 . S
C1033 C1034 1.338 . S
C1033 N1036 1.377 . S
C1033 H1053 0.930 . S
C1034 N1032 1.375 . S
C1034 C1033 1.338 . S
C1034 H1038 0.931 . S
C1035 N1032 1.313 . S
C1035 N1036 1.344 . S
C1035 H1039 0.930 . S
N1036 C1033 1.377 . S
N1036 C1035 1.344 . S
O1037 Co1029 2.055 . S
O1037 C1041 1.253 . S
H1038 C1034 0.931 . S
H1039 C1035 0.930 . S
O1040 Co1029 2.039 . S
O1040 C1030 1.265 . S
C1041 O1037 1.253 . S
C1041 O1042 1.227 . S
O1042 C1041 1.227 . S
N1043 Co1029 2.140 . S
N1043 C1046 1.346 . S
N1043 C1047 1.345 . S
C1044 C1045 1.387 . S
C1044 C1048 1.391 . S
C1045 C1044 1.387 . S
C1045 C1046 1.369 . S
C1045 H1054 0.929 . S
C1046 N1043 1.346 . S
C1046 C1045 1.369 . S
C1046 H1049 0.928 . S
C1047 N1043 1.345 . S
C1047 C1048 1.371 . S
C1047 H1050 0.931 . S
C1048 C1044 1.391 . S
C1048 C1047 1.371 . S
C1048 H1055 0.930 . S
H1049 C1046 0.928 . S
H1050 C1047 0.931 . S
H1051 C1027 0.930 . S
H1052 C1024 0.930 . S
H1053 C1033 0.930 . S
H1054 C1045 0.929 . S
H1055 C1048 0.930 . S
C1056 C1057 1.351 . S
C1056 N1059 1.368 . S
C1056 H1061 0.931 . S
C1057 C1056 1.351 . S
C1057 N1058 1.373 . S
C1057 H1085 0.930 . S
N1058 C1057 1.373 . S
N1058 C1060 1.340 . S
N1059 C1056 1.368 . S
N1059 C1060 1.321 . S
N1059 Co1062 2.135 . S
C1060 N1058 1.340 . S
C1060 N1059 1.321 . S
C1060 H1084 0.930 . S
H1061 C1056 0.931 . S
Co1062 N1059 2.135 . S
Co1062 N1065 2.121 . S
Co1062 O1070 2.055 . S
Co1062 O1073 2.039 . S
Co1062 N1076 2.140 . S
C1063 O1064 1.227 . S
C1063 O1073 1.265 . S
O1064 C1063 1.227 . S
N1065 Co1062 2.121 . S
N1065 C1067 1.375 . S
N1065 C1068 1.313 . S
C1066 C1067 1.338 . S
C1066 N1069 1.377 . S
C1066 H1086 0.930 . S
C1067 N1065 1.375 . S
C1067 C1066 1.338 . S
C1067 H1071 0.931 . S
C1068 N1065 1.313 . S
C1068 N1069 1.344 . S
C1068 H1072 0.930 . S
N1069 C1066 1.377 . S
N1069 C1068 1.344 . S
O1070 Co1062 2.055 . S
O1070 C1074 1.253 . S
H1071 C1067 0.931 . S
H1072 C1068 0.930 . S
O1073 Co1062 2.039 . S
O1073 C1063 1.265 . S
C1074 O1070 1.253 . S
C1074 O1075 1.227 . S
O1075 C1074 1.227 . S
N1076 Co1062 2.140 . S
N1076 C1079 1.346 . S
N1076 C1080 1.345 . S
C1077 C1078 1.387 . S
C1077 C1081 1.391 . S
C1078 C1077 1.387 . S
C1078 C1079 1.369 . S
C1078 H1087 0.929 . S
C1079 N1076 1.346 . S
C1079 C1078 1.369 . S
C1079 H1082 0.928 . S
C1080 N1076 1.345 . S
C1080 C1081 1.371 . S
C1080 H1083 0.931 . S
C1081 C1077 1.391 . S
C1081 C1080 1.371 . S
C1081 H1088 0.930 . S
H1082 C1079 0.928 . S
H1083 C1080 0.931 . S
H1084 C1060 0.930 . S
H1085 C1057 0.930 . S
H1086 C1066 0.930 . S
H1087 C1078 0.929 . S
H1088 C1081 0.930 . S
C1089 C1090 1.351 . S
C1089 N1092 1.368 . S
C1089 H1094 0.931 . S
C1090 C1089 1.351 . S
C1090 N1091 1.373 . S
C1090 H1118 0.930 . S
N1091 C1090 1.373 . S
N1091 C1093 1.340 . S
N1092 C1089 1.368 . S
N1092 C1093 1.321 . S
N1092 Co1095 2.135 . S
C1093 N1091 1.340 . S
C1093 N1092 1.321 . S
C1093 H1117 0.930 . S
H1094 C1089 0.931 . S
Co1095 N1092 2.135 . S
Co1095 N1098 2.121 . S
Co1095 O1103 2.055 . S
Co1095 O1106 2.039 . S
Co1095 N1109 2.140 . S
C1096 O1097 1.227 . S
C1096 O1106 1.265 . S
O1097 C1096 1.227 . S
N1098 Co1095 2.121 . S
N1098 C1100 1.375 . S
N1098 C1101 1.313 . S
C1099 C1100 1.338 . S
C1099 N1102 1.377 . S
C1099 H1119 0.930 . S
C1100 N1098 1.375 . S
C1100 C1099 1.338 . S
C1100 H1104 0.931 . S
C1101 N1098 1.313 . S
C1101 N1102 1.344 . S
C1101 H1105 0.930 . S
N1102 C1099 1.377 . S
N1102 C1101 1.344 . S
O1103 Co1095 2.055 . S
O1103 C1107 1.253 . S
H1104 C1100 0.931 . S
H1105 C1101 0.930 . S
O1106 Co1095 2.039 . S
O1106 C1096 1.265 . S
C1107 O1103 1.253 . S
C1107 O1108 1.227 . S
O1108 C1107 1.227 . S
N1109 Co1095 2.140 . S
N1109 C1112 1.346 . S
N1109 C1113 1.345 . S
C1110 C1111 1.387 . S
C1110 C1114 1.391 . S
C1111 C1110 1.387 . S
C1111 C1112 1.369 . S
C1111 H1120 0.929 . S
C1112 N1109 1.346 . S
C1112 C1111 1.369 . S
C1112 H1115 0.928 . S
C1113 N1109 1.345 . S
C1113 C1114 1.371 . S
C1113 H1116 0.931 . S
C1114 C1110 1.391 . S
C1114 C1113 1.371 . S
C1114 H1121 0.930 . S
H1115 C1112 0.928 . S
H1116 C1113 0.931 . S
H1117 C1093 0.930 . S
H1118 C1090 0.930 . S
H1119 C1099 0.930 . S
H1120 C1111 0.929 . S
H1121 C1114 0.930 . S
C1122 C1123 1.351 . S
C1122 N1125 1.368 . S
C1122 H1127 0.931 . S
C1123 C1122 1.351 . S
C1123 N1124 1.373 . S
C1123 H1151 0.930 . S
N1124 C1123 1.373 . S
N1124 C1126 1.340 . S
N1125 C1122 1.368 . S
N1125 C1126 1.321 . S
N1125 Co1128 2.135 . S
C1126 N1124 1.340 . S
C1126 N1125 1.321 . S
C1126 H1150 0.930 . S
H1127 C1122 0.931 . S
Co1128 N1125 2.135 . S
Co1128 N1131 2.121 . S
Co1128 O1136 2.055 . S
Co1128 O1139 2.039 . S
Co1128 N1142 2.140 . S
C1129 O1130 1.227 . S
C1129 O1139 1.265 . S
O1130 C1129 1.227 . S
N1131 Co1128 2.121 . S
N1131 C1133 1.375 . S
N1131 C1134 1.313 . S
C1132 C1133 1.338 . S
C1132 N1135 1.377 . S
C1132 H1152 0.930 . S
C1133 N1131 1.375 . S
C1133 C1132 1.338 . S
C1133 H1137 0.931 . S
C1134 N1131 1.313 . S
C1134 N1135 1.344 . S
C1134 H1138 0.930 . S
N1135 C1132 1.377 . S
N1135 C1134 1.344 . S
O1136 Co1128 2.055 . S
O1136 C1140 1.253 . S
H1137 C1133 0.931 . S
H1138 C1134 0.930 . S
O1139 Co1128 2.039 . S
O1139 C1129 1.265 . S
C1140 O1136 1.253 . S
C1140 O1141 1.227 . S
O1141 C1140 1.227 . S
N1142 Co1128 2.140 . S
N1142 C1145 1.346 . S
N1142 C1146 1.345 . S
C1143 C1144 1.387 . S
C1143 C1147 1.391 . S
C1144 C1143 1.387 . S
C1144 C1145 1.369 . S
C1144 H1153 0.929 . S
C1145 N1142 1.346 . S
C1145 C1144 1.369 . S
C1145 H1148 0.928 . S
C1146 N1142 1.345 . S
C1146 C1147 1.371 . S
C1146 H1149 0.931 . S
C1147 C1143 1.391 . S
C1147 C1146 1.371 . S
C1147 H1154 0.930 . S
H1148 C1145 0.928 . S
H1149 C1146 0.931 . S
H1150 C1126 0.930 . S
H1151 C1123 0.930 . S
H1152 C1132 0.930 . S
H1153 C1144 0.929 . S
H1154 C1147 0.930 . S
C1155 C1156 1.351 . S
C1155 N1158 1.368 . S
C1155 H1160 0.931 . S
C1156 C1155 1.351 . S
C1156 N1157 1.373 . S
C1156 H1184 0.930 . S
N1157 C1156 1.373 . S
N1157 C1159 1.340 . S
N1158 C1155 1.368 . S
N1158 C1159 1.321 . S
N1158 Co1161 2.135 . S
C1159 N1157 1.340 . S
C1159 N1158 1.321 . S
C1159 H1183 0.930 . S
H1160 C1155 0.931 . S
Co1161 N1158 2.135 . S
Co1161 N1164 2.121 . S
Co1161 O1169 2.055 . S
Co1161 O1172 2.039 . S
Co1161 N1175 2.140 . S
C1162 O1163 1.227 . S
C1162 O1172 1.265 . S
O1163 C1162 1.227 . S
N1164 Co1161 2.121 . S
N1164 C1166 1.375 . S
N1164 C1167 1.313 . S
C1165 C1166 1.338 . S
C1165 N1168 1.377 . S
C1165 H1185 0.930 . S
C1166 N1164 1.375 . S
C1166 C1165 1.338 . S
C1166 H1170 0.931 . S
C1167 N1164 1.313 . S
C1167 N1168 1.344 . S
C1167 H1171 0.930 . S
N1168 C1165 1.377 . S
N1168 C1167 1.344 . S
O1169 Co1161 2.055 . S
O1169 C1173 1.253 . S
H1170 C1166 0.931 . S
H1171 C1167 0.930 . S
O1172 Co1161 2.039 . S
O1172 C1162 1.265 . S
C1173 O1169 1.253 . S
C1173 O1174 1.227 . S
O1174 C1173 1.227 . S
N1175 Co1161 2.140 . S
N1175 C1178 1.346 . S
N1175 C1179 1.345 . S
C1176 C1177 1.387 . S
C1176 C1180 1.391 . S
C1177 C1176 1.387 . S
C1177 C1178 1.369 . S
C1177 H1186 0.929 . S
C1178 N1175 1.346 . S
C1178 C1177 1.369 . S
C1178 H1181 0.928 . S
C1179 N1175 1.345 . S
C1179 C1180 1.371 . S
C1179 H1182 0.931 . S
C1180 C1176 1.391 . S
C1180 C1179 1.371 . S
C1180 H1187 0.930 . S
H1181 C1178 0.928 . S
H1182 C1179 0.931 . S
H1183 C1159 0.930 . S
H1184 C1156 0.930 . S
H1185 C1165 0.930 . S
H1186 C1177 0.929 . S
H1187 C1180 0.930 . S
C1188 C1189 1.351 . S
C1188 N1191 1.368 . S
C1188 H1193 0.931 . S
C1189 C1188 1.351 . S
C1189 N1190 1.373 . S
C1189 H1217 0.930 . S
N1190 C1189 1.373 . S
N1190 C1192 1.340 . S
N1191 C1188 1.368 . S
N1191 C1192 1.321 . S
N1191 Co1194 2.135 . S
C1192 N1190 1.340 . S
C1192 N1191 1.321 . S
C1192 H1216 0.930 . S
H1193 C1188 0.931 . S
Co1194 N1191 2.135 . S
Co1194 N1197 2.121 . S
Co1194 O1202 2.055 . S
Co1194 O1205 2.039 . S
Co1194 N1208 2.140 . S
C1195 O1196 1.227 . S
C1195 O1205 1.265 . S
O1196 C1195 1.227 . S
N1197 Co1194 2.121 . S
N1197 C1199 1.375 . S
N1197 C1200 1.313 . S
C1198 C1199 1.338 . S
C1198 N1201 1.377 . S
C1198 H1218 0.930 . S
C1199 N1197 1.375 . S
C1199 C1198 1.338 . S
C1199 H1203 0.931 . S
C1200 N1197 1.313 . S
C1200 N1201 1.344 . S
C1200 H1204 0.930 . S
N1201 C1198 1.377 . S
N1201 C1200 1.344 . S
O1202 Co1194 2.055 . S
O1202 C1206 1.253 . S
H1203 C1199 0.931 . S
H1204 C1200 0.930 . S
O1205 Co1194 2.039 . S
O1205 C1195 1.265 . S
C1206 O1202 1.253 . S
C1206 O1207 1.227 . S
O1207 C1206 1.227 . S
N1208 Co1194 2.140 . S
N1208 C1211 1.346 . S
N1208 C1212 1.345 . S
C1209 C1210 1.387 . S
C1209 C1213 1.391 . S
C1210 C1209 1.387 . S
C1210 C1211 1.369 . S
C1210 H1219 0.929 . S
C1211 N1208 1.346 . S
C1211 C1210 1.369 . S
C1211 H1214 0.928 . S
C1212 N1208 1.345 . S
C1212 C1213 1.371 . S
C1212 H1215 0.931 . S
C1213 C1209 1.391 . S
C1213 C1212 1.371 . S
C1213 H1220 0.930 . S
H1214 C1211 0.928 . S
H1215 C1212 0.931 . S
H1216 C1192 0.930 . S
H1217 C1189 0.930 . S
H1218 C1198 0.930 . S
H1219 C1210 0.929 . S
H1220 C1213 0.930 . S
C1221 C1222 1.351 . S
C1221 N1224 1.368 . S
C1221 H1226 0.931 . S
C1222 C1221 1.351 . S
C1222 N1223 1.373 . S
C1222 H1250 0.930 . S
N1223 C1222 1.373 . S
N1223 C1225 1.340 . S
N1224 C1221 1.368 . S
N1224 C1225 1.321 . S
N1224 Co1227 2.135 . S
C1225 N1223 1.340 . S
C1225 N1224 1.321 . S
C1225 H1249 0.930 . S
H1226 C1221 0.931 . S
Co1227 N1224 2.135 . S
Co1227 N1230 2.121 . S
Co1227 O1235 2.055 . S
Co1227 O1238 2.039 . S
Co1227 N1241 2.140 . S
C1228 O1229 1.227 . S
C1228 O1238 1.265 . S
O1229 C1228 1.227 . S
N1230 Co1227 2.121 . S
N1230 C1232 1.375 . S
N1230 C1233 1.313 . S
C1231 C1232 1.338 . S
C1231 N1234 1.377 . S
C1231 H1251 0.930 . S
C1232 N1230 1.375 . S
C1232 C1231 1.338 . S
C1232 H1236 0.931 . S
C1233 N1230 1.313 . S
C1233 N1234 1.344 . S
C1233 H1237 0.930 . S
N1234 C1231 1.377 . S
N1234 C1233 1.344 . S
O1235 Co1227 2.055 . S
O1235 C1239 1.253 . S
H1236 C1232 0.931 . S
H1237 C1233 0.930 . S
O1238 Co1227 2.039 . S
O1238 C1228 1.265 . S
C1239 O1235 1.253 . S
C1239 O1240 1.227 . S
O1240 C1239 1.227 . S
N1241 Co1227 2.140 . S
N1241 C1244 1.346 . S
N1241 C1245 1.345 . S
C1242 C1243 1.387 . S
C1242 C1246 1.391 . S
C1243 C1242 1.387 . S
C1243 C1244 1.369 . S
C1243 H1252 0.929 . S
C1244 N1241 1.346 . S
C1244 C1243 1.369 . S
C1244 H1247 0.928 . S
C1245 N1241 1.345 . S
C1245 C1246 1.371 . S
C1245 H1248 0.931 . S
C1246 C1242 1.391 . S
C1246 C1245 1.371 . S
C1246 H1253 0.930 . S
H1247 C1244 0.928 . S
H1248 C1245 0.931 . S
H1249 C1225 0.930 . S
H1250 C1222 0.930 . S
H1251 C1231 0.930 . S
H1252 C1243 0.929 . S
H1253 C1246 0.930 . S
C1254 C1255 1.351 . S
C1254 N1257 1.368 . S
C1254 H1259 0.931 . S
C1255 C1254 1.351 . S
C1255 N1256 1.373 . S
C1255 H1283 0.930 . S
N1256 C1255 1.373 . S
N1256 C1258 1.340 . S
N1257 C1254 1.368 . S
N1257 C1258 1.321 . S
N1257 Co1260 2.135 . S
C1258 N1256 1.340 . S
C1258 N1257 1.321 . S
C1258 H1282 0.930 . S
H1259 C1254 0.931 . S
Co1260 N1257 2.135 . S
Co1260 N1263 2.121 . S
Co1260 O1268 2.055 . S
Co1260 O1271 2.039 . S
Co1260 N1274 2.140 . S
C1261 O1262 1.227 . S
C1261 O1271 1.265 . S
O1262 C1261 1.227 . S
N1263 Co1260 2.121 . S
N1263 C1265 1.375 . S
N1263 C1266 1.313 . S
C1264 C1265 1.338 . S
C1264 N1267 1.377 . S
C1264 H1284 0.930 . S
C1265 N1263 1.375 . S
C1265 C1264 1.338 . S
C1265 H1269 0.931 . S
C1266 N1263 1.313 . S
C1266 N1267 1.344 . S
C1266 H1270 0.930 . S
N1267 C1264 1.377 . S
N1267 C1266 1.344 . S
O1268 Co1260 2.055 . S
O1268 C1272 1.253 . S
H1269 C1265 0.931 . S
H1270 C1266 0.930 . S
O1271 Co1260 2.039 . S
O1271 C1261 1.265 . S
C1272 O1268 1.253 . S
C1272 O1273 1.227 . S
O1273 C1272 1.227 . S
N1274 Co1260 2.140 . S
N1274 C1277 1.346 . S
N1274 C1278 1.345 . S
C1275 C1276 1.387 . S
C1275 C1279 1.391 . S
C1276 C1275 1.387 . S
C1276 C1277 1.369 . S
C1276 H1285 0.929 . S
C1277 N1274 1.346 . S
C1277 C1276 1.369 . S
C1277 H1280 0.928 . S
C1278 N1274 1.345 . S
C1278 C1279 1.371 . S
C1278 H1281 0.931 . S
C1279 C1275 1.391 . S
C1279 C1278 1.371 . S
C1279 H1286 0.930 . S
H1280 C1277 0.928 . S
H1281 C1278 0.931 . S
H1282 C1258 0.930 . S
H1283 C1255 0.930 . S
H1284 C1264 0.930 . S
H1285 C1276 0.929 . S
H1286 C1279 0.930 . S
C1287 C1288 1.351 . S
C1287 N1290 1.368 . S
C1287 H1292 0.931 . S
C1288 C1287 1.351 . S
C1288 N1289 1.373 . S
C1288 H1316 0.930 . S
N1289 C1288 1.373 . S
N1289 C1291 1.340 . S
N1290 C1287 1.368 . S
N1290 C1291 1.321 . S
N1290 Co1293 2.135 . S
C1291 N1289 1.340 . S
C1291 N1290 1.321 . S
C1291 H1315 0.930 . S
H1292 C1287 0.931 . S
Co1293 N1290 2.135 . S
Co1293 N1296 2.121 . S
Co1293 O1301 2.055 . S
Co1293 O1304 2.039 . S
Co1293 N1307 2.140 . S
C1294 O1295 1.227 . S
C1294 O1304 1.265 . S
O1295 C1294 1.227 . S
N1296 Co1293 2.121 . S
N1296 C1298 1.375 . S
N1296 C1299 1.313 . S
C1297 C1298 1.338 . S
C1297 N1300 1.377 . S
C1297 H1317 0.930 . S
C1298 N1296 1.375 . S
C1298 C1297 1.338 . S
C1298 H1302 0.931 . S
C1299 N1296 1.313 . S
C1299 N1300 1.344 . S
C1299 H1303 0.930 . S
N1300 C1297 1.377 . S
N1300 C1299 1.344 . S
O1301 Co1293 2.055 . S
O1301 C1305 1.253 . S
H1302 C1298 0.931 . S
H1303 C1299 0.930 . S
O1304 Co1293 2.039 . S
O1304 C1294 1.265 . S
C1305 O1301 1.253 . S
C1305 O1306 1.227 . S
O1306 C1305 1.227 . S
N1307 Co1293 2.140 . S
N1307 C1310 1.346 . S
N1307 C1311 1.345 . S
C1308 C1309 1.387 . S
C1308 C1312 1.391 . S
C1309 C1308 1.387 . S
C1309 C1310 1.369 . S
C1309 H1318 0.929 . S
C1310 N1307 1.346 . S
C1310 C1309 1.369 . S
C1310 H1313 0.928 . S
C1311 N1307 1.345 . S
C1311 C1312 1.371 . S
C1311 H1314 0.931 . S
C1312 C1308 1.391 . S
C1312 C1311 1.371 . S
C1312 H1319 0.930 . S
H1313 C1310 0.928 . S
H1314 C1311 0.931 . S
H1315 C1291 0.930 . S
H1316 C1288 0.930 . S
H1317 C1297 0.930 . S
H1318 C1309 0.929 . S
H1319 C1312 0.930 . S
C1320 C1321 1.351 . S
C1320 N1323 1.368 . S
C1320 H1325 0.931 . S
C1321 C1320 1.351 . S
C1321 N1322 1.373 . S
C1321 H1349 0.930 . S
N1322 C1321 1.373 . S
N1322 C1324 1.340 . S
N1323 C1320 1.368 . S
N1323 C1324 1.321 . S
N1323 Co1326 2.135 . S
C1324 N1322 1.340 . S
C1324 N1323 1.321 . S
C1324 H1348 0.930 . S
H1325 C1320 0.931 . S
Co1326 N1323 2.135 . S
Co1326 N1329 2.121 . S
Co1326 O1334 2.055 . S
Co1326 O1337 2.039 . S
Co1326 N1340 2.140 . S
C1327 O1328 1.227 . S
C1327 O1337 1.265 . S
O1328 C1327 1.227 . S
N1329 Co1326 2.121 . S
N1329 C1331 1.375 . S
N1329 C1332 1.313 . S
C1330 C1331 1.338 . S
C1330 N1333 1.377 . S
C1330 H1350 0.930 . S
C1331 N1329 1.375 . S
C1331 C1330 1.338 . S
C1331 H1335 0.931 . S
C1332 N1329 1.313 . S
C1332 N1333 1.344 . S
C1332 H1336 0.930 . S
N1333 C1330 1.377 . S
N1333 C1332 1.344 . S
O1334 Co1326 2.055 . S
O1334 C1338 1.253 . S
H1335 C1331 0.931 . S
H1336 C1332 0.930 . S
O1337 Co1326 2.039 . S
O1337 C1327 1.265 . S
C1338 O1334 1.253 . S
C1338 O1339 1.227 . S
O1339 C1338 1.227 . S
N1340 Co1326 2.140 . S
N1340 C1343 1.346 . S
N1340 C1344 1.345 . S
C1341 C1342 1.387 . S
C1341 C1345 1.391 . S
C1342 C1341 1.387 . S
C1342 C1343 1.369 . S
C1342 H1351 0.929 . S
C1343 N1340 1.346 . S
C1343 C1342 1.369 . S
C1343 H1346 0.928 . S
C1344 N1340 1.345 . S
C1344 C1345 1.371 . S
C1344 H1347 0.931 . S
C1345 C1341 1.391 . S
C1345 C1344 1.371 . S
C1345 H1352 0.930 . S
H1346 C1343 0.928 . S
H1347 C1344 0.931 . S
H1348 C1324 0.930 . S
H1349 C1321 0.930 . S
H1350 C1330 0.930 . S
H1351 C1342 0.929 . S
H1352 C1345 0.930 . S
C1353 C1354 1.351 . S
C1353 N1356 1.368 . S
C1353 H1358 0.931 . S
C1354 C1353 1.351 . S
C1354 N1355 1.373 . S
C1354 H1382 0.930 . S
N1355 C1354 1.373 . S
N1355 C1357 1.340 . S
N1356 C1353 1.368 . S
N1356 C1357 1.321 . S
N1356 Co1359 2.135 . S
C1357 N1355 1.340 . S
C1357 N1356 1.321 . S
C1357 H1381 0.930 . S
H1358 C1353 0.931 . S
Co1359 N1356 2.135 . S
Co1359 N1362 2.121 . S
Co1359 O1367 2.055 . S
Co1359 O1370 2.039 . S
Co1359 N1373 2.140 . S
C1360 O1361 1.227 . S
C1360 O1370 1.265 . S
O1361 C1360 1.227 . S
N1362 Co1359 2.121 . S
N1362 C1364 1.375 . S
N1362 C1365 1.313 . S
C1363 C1364 1.338 . S
C1363 N1366 1.377 . S
C1363 H1383 0.930 . S
C1364 N1362 1.375 . S
C1364 C1363 1.338 . S
C1364 H1368 0.931 . S
C1365 N1362 1.313 . S
C1365 N1366 1.344 . S
C1365 H1369 0.930 . S
N1366 C1363 1.377 . S
N1366 C1365 1.344 . S
O1367 Co1359 2.055 . S
O1367 C1371 1.253 . S
H1368 C1364 0.931 . S
H1369 C1365 0.930 . S
O1370 Co1359 2.039 . S
O1370 C1360 1.265 . S
C1371 O1367 1.253 . S
C1371 O1372 1.227 . S
O1372 C1371 1.227 . S
N1373 Co1359 2.140 . S
N1373 C1376 1.346 . S
N1373 C1377 1.345 . S
C1374 C1375 1.387 . S
C1374 C1378 1.391 . S
C1375 C1374 1.387 . S
C1375 C1376 1.369 . S
C1375 H1384 0.929 . S
C1376 N1373 1.346 . S
C1376 C1375 1.369 . S
C1376 H1379 0.928 . S
C1377 N1373 1.345 . S
C1377 C1378 1.371 . S
C1377 H1380 0.931 . S
C1378 C1374 1.391 . S
C1378 C1377 1.371 . S
C1378 H1385 0.930 . S
H1379 C1376 0.928 . S
H1380 C1377 0.931 . S
H1381 C1357 0.930 . S
H1382 C1354 0.930 . S
H1383 C1363 0.930 . S
H1384 C1375 0.929 . S
H1385 C1378 0.930 . S
C1386 C1387 1.351 . S
C1386 N1389 1.368 . S
C1386 H1391 0.931 . S
C1387 C1386 1.351 . S
C1387 N1388 1.373 . S
C1387 H1415 0.930 . S
N1388 C1387 1.373 . S
N1388 C1390 1.340 . S
N1389 C1386 1.368 . S
N1389 C1390 1.321 . S
N1389 Co1392 2.135 . S
C1390 N1388 1.340 . S
C1390 N1389 1.321 . S
C1390 H1414 0.930 . S
H1391 C1386 0.931 . S
Co1392 N1389 2.135 . S
Co1392 N1395 2.121 . S
Co1392 O1400 2.055 . S
Co1392 O1403 2.039 . S
Co1392 N1406 2.140 . S
C1393 O1394 1.227 . S
C1393 O1403 1.265 . S
O1394 C1393 1.227 . S
N1395 Co1392 2.121 . S
N1395 C1397 1.375 . S
N1395 C1398 1.313 . S
C1396 C1397 1.338 . S
C1396 N1399 1.377 . S
C1396 H1416 0.930 . S
C1397 N1395 1.375 . S
C1397 C1396 1.338 . S
C1397 H1401 0.931 . S
C1398 N1395 1.313 . S
C1398 N1399 1.344 . S
C1398 H1402 0.930 . S
N1399 C1396 1.377 . S
N1399 C1398 1.344 . S
O1400 Co1392 2.055 . S
O1400 C1404 1.253 . S
H1401 C1397 0.931 . S
H1402 C1398 0.930 . S
O1403 Co1392 2.039 . S
O1403 C1393 1.265 . S
C1404 O1400 1.253 . S
C1404 O1405 1.227 . S
O1405 C1404 1.227 . S
N1406 Co1392 2.140 . S
N1406 C1409 1.346 . S
N1406 C1410 1.345 . S
C1407 C1408 1.387 . S
C1407 C1411 1.391 . S
C1408 C1407 1.387 . S
C1408 C1409 1.369 . S
C1408 H1417 0.929 . S
C1409 N1406 1.346 . S
C1409 C1408 1.369 . S
C1409 H1412 0.928 . S
C1410 N1406 1.345 . S
C1410 C1411 1.371 . S
C1410 H1413 0.931 . S
C1411 C1407 1.391 . S
C1411 C1410 1.371 . S
C1411 H1418 0.930 . S
H1412 C1409 0.928 . S
H1413 C1410 0.931 . S
H1414 C1390 0.930 . S
H1415 C1387 0.930 . S
H1416 C1396 0.930 . S
H1417 C1408 0.929 . S
H1418 C1411 0.930 . S
C1419 C1420 1.351 . S
C1419 N1422 1.368 . S
C1419 H1424 0.931 . S
C1420 C1419 1.351 . S
C1420 N1421 1.373 . S
C1420 H1448 0.930 . S
N1421 C1420 1.373 . S
N1421 C1423 1.340 . S
N1422 C1419 1.368 . S
N1422 C1423 1.321 . S
N1422 Co1425 2.135 . S
C1423 N1421 1.340 . S
C1423 N1422 1.321 . S
C1423 H1447 0.930 . S
H1424 C1419 0.931 . S
Co1425 N1422 2.135 . S
Co1425 N1428 2.121 . S
Co1425 O1433 2.055 . S
Co1425 O1436 2.039 . S
Co1425 N1439 2.140 . S
C1426 O1427 1.227 . S
C1426 O1436 1.265 . S
O1427 C1426 1.227 . S
N1428 Co1425 2.121 . S
N1428 C1430 1.375 . S
N1428 C1431 1.313 . S
C1429 C1430 1.338 . S
C1429 N1432 1.377 . S
C1429 H1449 0.930 . S
C1430 N1428 1.375 . S
C1430 C1429 1.338 . S
C1430 H1434 0.931 . S
C1431 N1428 1.313 . S
C1431 N1432 1.344 . S
C1431 H1435 0.930 . S
N1432 C1429 1.377 . S
N1432 C1431 1.344 . S
O1433 Co1425 2.055 . S
O1433 C1437 1.253 . S
H1434 C1430 0.931 . S
H1435 C1431 0.930 . S
O1436 Co1425 2.039 . S
O1436 C1426 1.265 . S
C1437 O1433 1.253 . S
C1437 O1438 1.227 . S
O1438 C1437 1.227 . S
N1439 Co1425 2.140 . S
N1439 C1442 1.346 . S
N1439 C1443 1.345 . S
C1440 C1441 1.387 . S
C1440 C1444 1.391 . S
C1441 C1440 1.387 . S
C1441 C1442 1.369 . S
C1441 H1450 0.929 . S
C1442 N1439 1.346 . S
C1442 C1441 1.369 . S
C1442 H1445 0.928 . S
C1443 N1439 1.345 . S
C1443 C1444 1.371 . S
C1443 H1446 0.931 . S
C1444 C1440 1.391 . S
C1444 C1443 1.371 . S
C1444 H1451 0.930 . S
H1445 C1442 0.928 . S
H1446 C1443 0.931 . S
H1447 C1423 0.930 . S
H1448 C1420 0.930 . S
H1449 C1429 0.930 . S
H1450 C1441 0.929 . S
H1451 C1444 0.930 . S
C1452 C1453 1.351 . S
C1452 N1455 1.368 . S
C1452 H1457 0.931 . S
C1453 C1452 1.351 . S
C1453 N1454 1.373 . S
C1453 H1481 0.930 . S
N1454 C1453 1.373 . S
N1454 C1456 1.340 . S
N1455 C1452 1.368 . S
N1455 C1456 1.321 . S
N1455 Co1458 2.135 . S
C1456 N1454 1.340 . S
C1456 N1455 1.321 . S
C1456 H1480 0.930 . S
H1457 C1452 0.931 . S
Co1458 N1455 2.135 . S
Co1458 N1461 2.121 . S
Co1458 O1466 2.055 . S
Co1458 O1469 2.039 . S
Co1458 N1472 2.140 . S
C1459 O1460 1.227 . S
C1459 O1469 1.265 . S
O1460 C1459 1.227 . S
N1461 Co1458 2.121 . S
N1461 C1463 1.375 . S
N1461 C1464 1.313 . S
C1462 C1463 1.338 . S
C1462 N1465 1.377 . S
C1462 H1482 0.930 . S
C1463 N1461 1.375 . S
C1463 C1462 1.338 . S
C1463 H1467 0.931 . S
C1464 N1461 1.313 . S
C1464 N1465 1.344 . S
C1464 H1468 0.930 . S
N1465 C1462 1.377 . S
N1465 C1464 1.344 . S
O1466 Co1458 2.055 . S
O1466 C1470 1.253 . S
H1467 C1463 0.931 . S
H1468 C1464 0.930 . S
O1469 Co1458 2.039 . S
O1469 C1459 1.265 . S
C1470 O1466 1.253 . S
C1470 O1471 1.227 . S
O1471 C1470 1.227 . S
N1472 Co1458 2.140 . S
N1472 C1475 1.346 . S
N1472 C1476 1.345 . S
C1473 C1474 1.387 . S
C1473 C1477 1.391 . S
C1474 C1473 1.387 . S
C1474 C1475 1.369 . S
C1474 H1483 0.929 . S
C1475 N1472 1.346 . S
C1475 C1474 1.369 . S
C1475 H1478 0.928 . S
C1476 N1472 1.345 . S
C1476 C1477 1.371 . S
C1476 H1479 0.931 . S
C1477 C1473 1.391 . S
C1477 C1476 1.371 . S
C1477 H1484 0.930 . S
H1478 C1475 0.928 . S
H1479 C1476 0.931 . S
H1480 C1456 0.930 . S
H1481 C1453 0.930 . S
H1482 C1462 0.930 . S
H1483 C1474 0.929 . S
H1484 C1477 0.930 . S
C1485 C1486 1.351 . S
C1485 N1488 1.368 . S
C1485 H1490 0.931 . S
C1486 C1485 1.351 . S
C1486 N1487 1.373 . S
C1486 H1514 0.930 . S
N1487 C1486 1.373 . S
N1487 C1489 1.340 . S
N1488 C1485 1.368 . S
N1488 C1489 1.321 . S
N1488 Co1491 2.135 . S
C1489 N1487 1.340 . S
C1489 N1488 1.321 . S
C1489 H1513 0.930 . S
H1490 C1485 0.931 . S
Co1491 N1488 2.135 . S
Co1491 N1494 2.121 . S
Co1491 O1499 2.055 . S
Co1491 O1502 2.039 . S
Co1491 N1505 2.140 . S
C1492 O1493 1.227 . S
C1492 O1502 1.265 . S
O1493 C1492 1.227 . S
N1494 Co1491 2.121 . S
N1494 C1496 1.375 . S
N1494 C1497 1.313 . S
C1495 C1496 1.338 . S
C1495 N1498 1.377 . S
C1495 H1515 0.930 . S
C1496 N1494 1.375 . S
C1496 C1495 1.338 . S
C1496 H1500 0.931 . S
C1497 N1494 1.313 . S
C1497 N1498 1.344 . S
C1497 H1501 0.930 . S
N1498 C1495 1.377 . S
N1498 C1497 1.344 . S
O1499 Co1491 2.055 . S
O1499 C1503 1.253 . S
H1500 C1496 0.931 . S
H1501 C1497 0.930 . S
O1502 Co1491 2.039 . S
O1502 C1492 1.265 . S
C1503 O1499 1.253 . S
C1503 O1504 1.227 . S
O1504 C1503 1.227 . S
N1505 Co1491 2.140 . S
N1505 C1508 1.346 . S
N1505 C1509 1.345 . S
C1506 C1507 1.387 . S
C1506 C1510 1.391 . S
C1507 C1506 1.387 . S
C1507 C1508 1.369 . S
C1507 H1516 0.929 . S
C1508 N1505 1.346 . S
C1508 C1507 1.369 . S
C1508 H1511 0.928 . S
C1509 N1505 1.345 . S
C1509 C1510 1.371 . S
C1509 H1512 0.931 . S
C1510 C1506 1.391 . S
C1510 C1509 1.371 . S
C1510 H1517 0.930 . S
H1511 C1508 0.928 . S
H1512 C1509 0.931 . S
H1513 C1489 0.930 . S
H1514 C1486 0.930 . S
H1515 C1495 0.930 . S
H1516 C1507 0.929 . S
H1517 C1510 0.930 . S
C1518 C1519 1.351 . S
C1518 N1521 1.368 . S
C1518 H1523 0.931 . S
C1519 C1518 1.351 . S
C1519 N1520 1.373 . S
C1519 H1547 0.930 . S
N1520 C1519 1.373 . S
N1520 C1522 1.340 . S
N1521 C1518 1.368 . S
N1521 C1522 1.321 . S
N1521 Co1524 2.135 . S
C1522 N1520 1.340 . S
C1522 N1521 1.321 . S
C1522 H1546 0.930 . S
H1523 C1518 0.931 . S
Co1524 N1521 2.135 . S
Co1524 N1527 2.121 . S
Co1524 O1532 2.055 . S
Co1524 O1535 2.039 . S
Co1524 N1538 2.140 . S
C1525 O1526 1.227 . S
C1525 O1535 1.265 . S
O1526 C1525 1.227 . S
N1527 Co1524 2.121 . S
N1527 C1529 1.375 . S
N1527 C1530 1.313 . S
C1528 C1529 1.338 . S
C1528 N1531 1.377 . S
C1528 H1548 0.930 . S
C1529 N1527 1.375 . S
C1529 C1528 1.338 . S
C1529 H1533 0.931 . S
C1530 N1527 1.313 . S
C1530 N1531 1.344 . S
C1530 H1534 0.930 . S
N1531 C1528 1.377 . S
N1531 C1530 1.344 . S
O1532 Co1524 2.055 . S
O1532 C1536 1.253 . S
H1533 C1529 0.931 . S
H1534 C1530 0.930 . S
O1535 Co1524 2.039 . S
O1535 C1525 1.265 . S
C1536 O1532 1.253 . S
C1536 O1537 1.227 . S
O1537 C1536 1.227 . S
N1538 Co1524 2.140 . S
N1538 C1541 1.346 . S
N1538 C1542 1.345 . S
C1539 C1540 1.387 . S
C1539 C1543 1.391 . S
C1540 C1539 1.387 . S
C1540 C1541 1.369 . S
C1540 H1549 0.929 . S
C1541 N1538 1.346 . S
C1541 C1540 1.369 . S
C1541 H1544 0.928 . S
C1542 N1538 1.345 . S
C1542 C1543 1.371 . S
C1542 H1545 0.931 . S
C1543 C1539 1.391 . S
C1543 C1542 1.371 . S
C1543 H1550 0.930 . S
H1544 C1541 0.928 . S
H1545 C1542 0.931 . S
H1546 C1522 0.930 . S
H1547 C1519 0.930 . S
H1548 C1528 0.930 . S
H1549 C1540 0.929 . S
H1550 C1543 0.930 . S
C1551 C1552 1.351 . S
C1551 N1554 1.368 . S
C1551 H1556 0.931 . S
C1552 C1551 1.351 . S
C1552 N1553 1.373 . S
C1552 H1580 0.930 . S
N1553 C1552 1.373 . S
N1553 C1555 1.340 . S
N1554 C1551 1.368 . S
N1554 C1555 1.321 . S
N1554 Co1557 2.135 . S
C1555 N1553 1.340 . S
C1555 N1554 1.321 . S
C1555 H1579 0.930 . S
H1556 C1551 0.931 . S
Co1557 N1554 2.135 . S
Co1557 N1560 2.121 . S
Co1557 O1565 2.055 . S
Co1557 O1568 2.039 . S
Co1557 N1571 2.140 . S
C1558 O1559 1.227 . S
C1558 O1568 1.265 . S
O1559 C1558 1.227 . S
N1560 Co1557 2.121 . S
N1560 C1562 1.375 . S
N1560 C1563 1.313 . S
C1561 C1562 1.338 . S
C1561 N1564 1.377 . S
C1561 H1581 0.930 . S
C1562 N1560 1.375 . S
C1562 C1561 1.338 . S
C1562 H1566 0.931 . S
C1563 N1560 1.313 . S
C1563 N1564 1.344 . S
C1563 H1567 0.930 . S
N1564 C1561 1.377 . S
N1564 C1563 1.344 . S
O1565 Co1557 2.055 . S
O1565 C1569 1.253 . S
H1566 C1562 0.931 . S
H1567 C1563 0.930 . S
O1568 Co1557 2.039 . S
O1568 C1558 1.265 . S
C1569 O1565 1.253 . S
C1569 O1570 1.227 . S
O1570 C1569 1.227 . S
N1571 Co1557 2.140 . S
N1571 C1574 1.346 . S
N1571 C1575 1.345 . S
C1572 C1573 1.387 . S
C1572 C1576 1.391 . S
C1573 C1572 1.387 . S
C1573 C1574 1.369 . S
C1573 H1582 0.929 . S
C1574 N1571 1.346 . S
C1574 C1573 1.369 . S
C1574 H1577 0.928 . S
C1575 N1571 1.345 . S
C1575 C1576 1.371 . S
C1575 H1578 0.931 . S
C1576 C1572 1.391 . S
C1576 C1575 1.371 . S
C1576 H1583 0.930 . S
H1577 C1574 0.928 . S
H1578 C1575 0.931 . S
H1579 C1555 0.930 . S
H1580 C1552 0.930 . S
H1581 C1561 0.930 . S
H1582 C1573 0.929 . S
H1583 C1576 0.930 . S
H1584 C1590 0.930 . S
H1585 C1594 0.934 . S
H1586 C1599 0.929 . S
H1587 C1597 0.929 . S
H1588 C1592 0.929 . S
H1589 C1598 0.929 . S
C1590 H1584 0.930 . S
C1590 C1591 1.367 . S
C1590 C1598 1.378 . S
C1591 C1590 1.367 . S
C1591 C1599 1.433 . S
C1592 H1588 0.929 . S
C1592 C1594 1.376 1_455 S
C1592 C1596 1.350 . S
C1593 C1596 1.463 . S
C1593 C1598 1.350 . S
C1593 N1601 1.427 . S
C1594 H1585 0.934 . S
C1594 C1592 1.376 1_655 S
C1594 C1595 1.366 1_655 S
C1595 C1594 1.366 1_455 S
C1595 C1597 1.433 . S
C1596 C1592 1.350 . S
C1596 C1593 1.463 . S
C1596 N1600 1.427 . S
C1597 H1587 0.929 . S
C1597 C1595 1.433 . S
C1597 N1600 1.384 . S
C1598 H1589 0.929 . S
C1598 C1590 1.378 . S
C1598 C1593 1.350 . S
C1599 H1586 0.929 . S
C1599 C1591 1.433 . S
C1599 N1601 1.384 . S
N1600 C1596 1.427 . S
N1600 C1597 1.384 . S
N1601 C1593 1.427 . S
N1601 C1599 1.384 . S
H1602 C1608 0.930 . S
H1603 C1612 0.930 . S
H1604 C1617 0.929 . S
H1605 C1615 0.929 . S
H1606 C1610 0.929 . S
H1607 C1616 0.929 . S
C1608 H1602 0.930 . S
C1608 C1609 1.367 . S
C1608 C1616 1.378 . S
C1609 C1608 1.367 . S
C1609 C1617 1.433 . S
C1610 H1606 0.929 . S
C1610 C1612 1.378 . S
C1610 C1614 1.350 . S
C1611 C1614 1.463 . S
C1611 C1616 1.350 . S
C1611 N1619 1.427 . S
C1612 H1603 0.930 . S
C1612 C1610 1.378 . S
C1612 C1613 1.367 . S
C1613 C1612 1.367 . S
C1613 C1615 1.433 . S
C1614 C1610 1.350 . S
C1614 C1611 1.463 . S
C1614 N1618 1.427 . S
C1615 H1605 0.929 . S
C1615 C1613 1.433 . S
C1615 N1618 1.384 . S
C1616 H1607 0.929 . S
C1616 C1608 1.378 . S
C1616 C1611 1.350 . S
C1617 H1604 0.929 . S
C1617 C1609 1.433 . S
C1617 N1619 1.384 . S
N1618 C1614 1.427 . S
N1618 C1615 1.384 . S
N1619 C1611 1.427 . S
N1619 C1617 1.384 . S
H1620 C1626 0.930 . S
H1621 C1630 0.930 . S
H1622 C1635 0.929 . S
H1623 C1633 0.929 . S
H1624 C1628 0.929 . S
H1625 C1634 0.929 . S
C1626 H1620 0.930 . S
C1626 C1627 1.367 . S
C1626 C1634 1.378 . S
C1627 C1626 1.367 . S
C1627 C1635 1.433 . S
C1628 H1624 0.929 . S
C1628 C1630 1.378 . S
C1628 C1632 1.350 . S
C1629 C1632 1.463 . S
C1629 C1634 1.350 . S
C1629 N1637 1.427 . S
C1630 H1621 0.930 . S
C1630 C1628 1.378 . S
C1630 C1631 1.367 . S
C1631 C1630 1.367 . S
C1631 C1633 1.433 . S
C1632 C1628 1.350 . S
C1632 C1629 1.463 . S
C1632 N1636 1.427 . S
C1633 H1623 0.929 . S
C1633 C1631 1.433 . S
C1633 N1636 1.384 . S
C1634 H1625 0.929 . S
C1634 C1626 1.378 . S
C1634 C1629 1.350 . S
C1635 H1622 0.929 . S
C1635 C1627 1.433 . S
C1635 N1637 1.384 . S
N1636 C1632 1.427 . S
N1636 C1633 1.384 . S
N1637 C1629 1.427 . S
N1637 C1635 1.384 . S
H1638 C1644 0.930 . S
H1639 C1648 0.930 . S
H1640 C1653 0.929 . S
H1641 C1651 0.929 . S
H1642 C1646 0.929 . S
H1643 C1652 0.929 . S
C1644 H1638 0.930 . S
C1644 C1645 1.367 . S
C1644 C1652 1.378 . S
C1645 C1644 1.367 . S
C1645 C1653 1.433 1_556 S
C1646 H1642 0.929 . S
C1646 C1648 1.378 . S
C1646 C1650 1.350 . S
C1647 C1650 1.463 . S
C1647 C1652 1.350 . S
C1647 N1655 1.427 . S
C1648 H1639 0.930 . S
C1648 C1646 1.378 . S
C1648 C1649 1.367 . S
C1649 C1648 1.367 . S
C1649 C1651 1.433 . S
C1650 C1646 1.350 . S
C1650 C1647 1.463 . S
C1650 N1654 1.427 . S
C1651 H1641 0.929 . S
C1651 C1649 1.433 . S
C1651 N1654 1.384 . S
C1652 H1643 0.929 . S
C1652 C1644 1.378 . S
C1652 C1647 1.350 . S
C1653 H1640 0.929 . S
C1653 C1645 1.433 1_554 S
C1653 N1655 1.384 1_554 S
N1654 C1650 1.427 . S
N1654 C1651 1.384 . S
N1655 C1647 1.427 . S
N1655 C1653 1.384 1_556 S
H1656 C1662 0.930 . S
H1657 C1666 0.930 1_655 S
H1658 C1671 0.929 . S
H1659 C1669 0.929 . S
H1660 C1664 0.929 . S
H1661 C1670 0.929 . S
C1662 H1656 0.930 . S
C1662 C1663 1.367 . S
C1662 C1670 1.378 . S
C1663 C1662 1.367 . S
C1663 C1671 1.433 . S
C1664 H1660 0.929 . S
C1664 C1666 1.378 . S
C1664 C1668 1.350 . S
C1665 C1668 1.463 . S
C1665 C1670 1.350 . S
C1665 N1673 1.427 . S
C1666 H1657 0.930 1_455 S
C1666 C1664 1.378 . S
C1666 C1667 1.367 . S
C1667 C1666 1.367 . S
C1667 C1669 1.433 . S
C1668 C1664 1.350 . S
C1668 C1665 1.463 . S
C1668 N1672 1.427 . S
C1669 H1659 0.929 . S
C1669 C1667 1.433 . S
C1669 N1672 1.384 . S
C1670 H1661 0.929 . S
C1670 C1662 1.378 . S
C1670 C1665 1.350 . S
C1671 H1658 0.929 . S
C1671 C1663 1.433 . S
C1671 N1673 1.384 . S
N1672 C1668 1.427 . S
N1672 C1669 1.384 . S
N1673 C1665 1.427 . S
N1673 C1671 1.384 . S
H1674 C1680 0.930 . S
H1675 C1684 0.930 . S
H1676 C1689 0.929 . S
H1677 C1687 0.929 . S
H1678 C1682 0.929 . S
H1679 C1688 0.929 . S
C1680 H1674 0.930 . S
C1680 C1681 1.367 . S
C1680 C1688 1.378 . S
C1681 C1680 1.367 . S
C1681 C1689 1.433 . S
C1682 H1678 0.929 . S
C1682 C1684 1.378 . S
C1682 C1686 1.350 . S
C1683 C1686 1.463 . S
C1683 C1688 1.350 . S
C1683 N1691 1.427 . S
C1684 H1675 0.930 . S
C1684 C1682 1.378 . S
C1684 C1685 1.367 . S
C1685 C1684 1.367 . S
C1685 C1687 1.433 . S
C1686 C1682 1.350 . S
C1686 C1683 1.463 . S
C1686 N1690 1.427 . S
C1687 H1677 0.929 . S
C1687 C1685 1.433 . S
C1687 N1690 1.384 . S
C1688 H1679 0.929 . S
C1688 C1680 1.378 . S
C1688 C1683 1.350 . S
C1689 H1676 0.929 . S
C1689 C1681 1.433 . S
C1689 N1691 1.384 . S
N1690 C1686 1.427 . S
N1690 C1687 1.384 . S
N1691 C1683 1.427 . S
N1691 C1689 1.384 . S
H1692 C1698 0.930 . S
H1693 C1702 0.930 . S
H1694 C1707 0.929 . S
H1695 C1705 0.929 . S
H1696 C1700 0.929 . S
H1697 C1706 0.929 . S
C1698 H1692 0.930 . S
C1698 C1699 1.367 . S
C1698 C1706 1.378 . S
C1699 C1698 1.367 . S
C1699 C1707 1.433 . S
C1700 H1696 0.929 . S
C1700 C1702 1.378 . S
C1700 C1704 1.350 . S
C1701 C1704 1.463 . S
C1701 C1706 1.350 . S
C1701 N1709 1.427 . S
C1702 H1693 0.930 . S
C1702 C1700 1.378 . S
C1702 C1703 1.367 . S
C1703 C1702 1.367 . S
C1703 C1705 1.433 . S
C1704 C1700 1.350 . S
C1704 C1701 1.463 . S
C1704 N1708 1.427 . S
C1705 H1695 0.929 . S
C1705 C1703 1.433 . S
C1705 N1708 1.384 . S
C1706 H1697 0.929 . S
C1706 C1698 1.378 . S
C1706 C1701 1.350 . S
C1707 H1694 0.929 . S
C1707 C1699 1.433 . S
C1707 N1709 1.384 . S
N1708 C1704 1.427 . S
N1708 C1705 1.384 . S
N1709 C1701 1.427 . S
N1709 C1707 1.384 . S
H1710 C1716 0.930 . S
H1711 C1720 0.930 . S
H1712 C1725 0.929 . S
H1713 C1723 0.929 . S
H1714 C1718 0.929 . S
H1715 C1724 0.929 . S
C1716 H1710 0.930 . S
C1716 C1717 1.367 . S
C1716 C1724 1.378 . S
C1717 C1716 1.367 . S
C1717 C1725 1.433 1_554 S
C1718 H1714 0.929 . S
C1718 C1720 1.378 . S
C1718 C1722 1.350 . S
C1719 C1722 1.463 . S
C1719 C1724 1.350 . S
C1719 N1727 1.427 . S
C1720 H1711 0.930 . S
C1720 C1718 1.378 . S
C1720 C1721 1.367 . S
C1721 C1720 1.367 . S
C1721 C1723 1.433 . S
C1722 C1718 1.350 . S
C1722 C1719 1.463 . S
C1722 N1726 1.427 . S
C1723 H1713 0.929 . S
C1723 C1721 1.433 . S
C1723 N1726 1.384 . S
C1724 H1715 0.929 . S
C1724 C1716 1.378 . S
C1724 C1719 1.350 . S
C1725 H1712 0.929 . S
C1725 C1717 1.433 1_556 S
C1725 N1727 1.384 1_556 S
N1726 C1722 1.427 . S
N1726 C1723 1.384 . S
N1727 C1719 1.427 . S
N1727 C1725 1.384 1_554 S
H1728 C1734 0.930 . S
H1729 C1738 0.907 1_565 S
H1730 C1743 0.929 . S
H1731 C1741 0.929 . S
H1732 C1736 0.929 . S
H1733 C1742 0.929 . S
C1734 H1728 0.930 . S
C1734 C1735 1.367 . S
C1734 C1742 1.378 . S
C1735 C1734 1.367 . S
C1735 C1743 1.433 . S
C1736 H1732 0.929 . S
C1736 C1738 1.394 . S
C1736 C1740 1.350 . S
C1737 C1740 1.463 . S
C1737 C1742 1.350 . S
C1737 N1745 1.427 . S
C1738 H1729 0.907 1_545 S
C1738 C1736 1.394 . S
C1738 C1739 1.374 . S
C1739 C1738 1.374 . S
C1739 C1741 1.433 . S
C1740 C1736 1.350 . S
C1740 C1737 1.463 . S
C1740 N1744 1.427 . S
C1741 H1731 0.929 . S
C1741 C1739 1.433 . S
C1741 N1744 1.384 . S
C1742 H1733 0.929 . S
C1742 C1734 1.378 . S
C1742 C1737 1.350 . S
C1743 H1730 0.929 . S
C1743 C1735 1.433 . S
C1743 N1745 1.384 . S
N1744 C1740 1.427 . S
N1744 C1741 1.384 . S
N1745 C1737 1.427 . S
N1745 C1743 1.384 . S
H1746 C1752 0.930 . S
H1747 C1756 0.930 . S
H1748 C1761 0.929 . S
H1749 C1759 0.929 . S
H1750 C1754 0.929 . S
H1751 C1760 0.929 . S
C1752 H1746 0.930 . S
C1752 C1753 1.367 1_545 S
C1752 C1760 1.378 1_545 S
C1753 C1752 1.367 1_565 S
C1753 C1761 1.433 . S
C1754 H1750 0.929 . S
C1754 C1756 1.378 . S
C1754 C1758 1.350 . S
C1755 C1758 1.463 . S
C1755 C1760 1.350 . S
C1755 N1763 1.427 . S
C1756 H1747 0.930 . S
C1756 C1754 1.378 . S
C1756 C1757 1.367 . S
C1757 C1756 1.367 . S
C1757 C1759 1.433 . S
C1758 C1754 1.350 . S
C1758 C1755 1.463 . S
C1758 N1762 1.427 . S
C1759 H1749 0.929 . S
C1759 C1757 1.433 . S
C1759 N1762 1.384 . S
C1760 H1751 0.929 . S
C1760 C1752 1.378 1_565 S
C1760 C1755 1.350 . S
C1761 H1748 0.929 . S
C1761 C1753 1.433 . S
C1761 N1763 1.384 . S
N1762 C1758 1.427 . S
N1762 C1759 1.384 . S
N1763 C1755 1.427 . S
N1763 C1761 1.384 . S
H1764 C1770 0.930 . S
H1765 C1774 0.930 . S
H1766 C1779 0.929 . S
H1767 C1777 0.929 . S
H1768 C1772 0.929 . S
H1769 C1778 0.929 . S
C1770 H1764 0.930 . S
C1770 C1771 1.367 1_545 S
C1770 C1778 1.378 1_545 S
C1771 C1770 1.367 1_565 S
C1771 C1779 1.433 . S
C1772 H1768 0.929 . S
C1772 C1774 1.378 . S
C1772 C1776 1.350 . S
C1773 C1776 1.463 . S
C1773 C1778 1.350 . S
C1773 N1781 1.427 . S
C1774 H1765 0.930 . S
C1774 C1772 1.378 . S
C1774 C1775 1.367 . S
C1775 C1774 1.367 . S
C1775 C1777 1.433 . S
C1776 C1772 1.350 . S
C1776 C1773 1.463 . S
C1776 N1780 1.427 . S
C1777 H1767 0.929 . S
C1777 C1775 1.433 . S
C1777 N1780 1.384 . S
C1778 H1769 0.929 . S
C1778 C1770 1.378 1_565 S
C1778 C1773 1.350 . S
C1779 H1766 0.929 . S
C1779 C1771 1.433 . S
C1779 N1781 1.384 . S
N1780 C1776 1.427 . S
N1780 C1777 1.384 . S
N1781 C1773 1.427 . S
N1781 C1779 1.384 . S
H1782 C1788 0.930 . S
H1783 C1792 0.930 . S
H1784 C1797 0.929 . S
H1785 C1795 0.929 1_565 S
H1786 C1790 0.929 . S
H1787 C1796 0.929 . S
C1788 H1782 0.930 . S
C1788 C1789 1.367 . S
C1788 C1796 1.378 . S
C1789 C1788 1.367 . S
C1789 C1797 1.433 . S
C1790 H1786 0.929 . S
C1790 C1792 1.378 . S
C1790 C1794 1.350 . S
C1791 C1794 1.463 . S
C1791 C1796 1.350 . S
C1791 N1799 1.427 . S
C1792 H1783 0.930 . S
C1792 C1790 1.378 . S
C1792 C1793 1.367 . S
C1793 C1792 1.367 . S
C1793 C1795 1.433 . S
C1794 C1790 1.350 . S
C1794 C1791 1.463 . S
C1794 N1798 1.427 . S
C1795 H1785 0.929 1_545 S
C1795 C1793 1.433 . S
C1795 N1798 1.384 . S
C1796 H1787 0.929 . S
C1796 C1788 1.378 . S
C1796 C1791 1.350 . S
C1797 H1784 0.929 . S
C1797 C1789 1.433 . S
C1797 N1799 1.384 . S
N1798 C1794 1.427 . S
N1798 C1795 1.384 . S
N1799 C1791 1.427 . S
N1799 C1797 1.384 . S
H1800 C1806 0.930 . S
H1801 C1810 0.930 . S
H1802 C1815 0.929 . S
H1803 C1813 0.929 . S
H1804 C1808 0.929 . S
H1805 C1814 0.929 . S
C1806 H1800 0.930 . S
C1806 C1807 1.367 . S
C1806 C1814 1.378 . S
C1807 C1806 1.367 . S
C1807 C1815 1.433 1_556 S
C1808 H1804 0.929 . S
C1808 C1810 1.378 . S
C1808 C1812 1.350 . S
C1809 C1812 1.463 . S
C1809 C1814 1.350 . S
C1809 N1817 1.427 . S
C1810 H1801 0.930 . S
C1810 C1808 1.378 . S
C1810 C1811 1.367 . S
C1811 C1810 1.367 . S
C1811 C1813 1.433 . S
C1812 C1808 1.350 . S
C1812 C1809 1.463 . S
C1812 N1816 1.427 . S
C1813 H1803 0.929 . S
C1813 C1811 1.433 . S
C1813 N1816 1.384 . S
C1814 H1805 0.929 . S
C1814 C1806 1.378 . S
C1814 C1809 1.350 . S
C1815 H1802 0.929 . S
C1815 C1807 1.433 1_554 S
C1815 N1817 1.384 1_554 S
N1816 C1812 1.427 . S
N1816 C1813 1.384 . S
N1817 C1809 1.427 . S
N1817 C1815 1.384 1_556 S
H1818 C1824 0.897 1_455 S
H1819 C1828 0.930 . S
H1820 C1833 0.929 . S
H1821 C1831 0.929 . S
H1822 C1826 0.929 . S
H1823 C1832 0.929 . S
C1824 H1818 0.897 1_655 S
C1824 C1825 1.377 . S
C1824 C1832 1.402 . S
C1825 C1824 1.377 . S
C1825 C1833 1.433 . S
C1826 H1822 0.929 . S
C1826 C1828 1.378 . S
C1826 C1830 1.350 . S
C1827 C1830 1.463 . S
C1827 C1832 1.350 . S
C1827 N1835 1.427 . S
C1828 H1819 0.930 . S
C1828 C1826 1.378 . S
C1828 C1829 1.367 . S
C1829 C1828 1.367 . S
C1829 C1831 1.433 . S
C1830 C1826 1.350 . S
C1830 C1827 1.463 . S
C1830 N1834 1.427 . S
C1831 H1821 0.929 . S
C1831 C1829 1.433 . S
C1831 N1834 1.384 . S
C1832 H1823 0.929 . S
C1832 C1824 1.402 . S
C1832 C1827 1.350 . S
C1833 H1820 0.929 . S
C1833 C1825 1.433 . S
C1833 N1835 1.384 . S
N1834 C1830 1.427 . S
N1834 C1831 1.384 . S
N1835 C1827 1.427 . S
N1835 C1833 1.384 . S
H1836 C1842 0.930 . S
H1837 C1846 0.930 . S
H1838 C1851 0.929 . S
H1839 C1849 0.929 . S
H1840 C1844 0.929 . S
H1841 C1850 0.929 . S
C1842 H1836 0.930 . S
C1842 C1843 1.367 . S
C1842 C1850 1.378 . S
C1843 C1842 1.367 . S
C1843 C1851 1.433 . S
C1844 H1840 0.929 . S
C1844 C1846 1.378 . S
C1844 C1848 1.350 . S
C1845 C1848 1.463 . S
C1845 C1850 1.350 . S
C1845 N1853 1.427 . S
C1846 H1837 0.930 . S
C1846 C1844 1.378 . S
C1846 C1847 1.367 . S
C1847 C1846 1.367 . S
C1847 C1849 1.433 . S
C1848 C1844 1.350 . S
C1848 C1845 1.463 . S
C1848 N1852 1.427 . S
C1849 H1839 0.929 . S
C1849 C1847 1.433 . S
C1849 N1852 1.384 . S
C1850 H1841 0.929 . S
C1850 C1842 1.378 . S
C1850 C1845 1.350 . S
C1851 H1838 0.929 . S
C1851 C1843 1.433 . S
C1851 N1853 1.384 . S
N1852 C1848 1.427 . S
N1852 C1849 1.384 . S
N1853 C1845 1.427 . S
N1853 C1851 1.384 . S
H1854 C1860 0.930 1_455 S
H1855 C1864 0.930 . S
H1856 C1869 0.929 . S
H1857 C1867 0.929 . S
H1858 C1862 0.929 . S
H1859 C1868 0.929 . S
C1860 H1854 0.930 1_655 S
C1860 C1861 1.367 . S
C1860 C1868 1.378 . S
C1861 C1860 1.367 . S
C1861 C1869 1.433 . S
C1862 H1858 0.929 . S
C1862 C1864 1.378 . S
C1862 C1866 1.350 . S
C1863 C1866 1.463 . S
C1863 C1868 1.350 . S
C1863 N1871 1.427 . S
C1864 H1855 0.930 . S
C1864 C1862 1.378 . S
C1864 C1865 1.367 . S
C1865 C1864 1.367 . S
C1865 C1867 1.433 . S
C1866 C1862 1.350 . S
C1866 C1863 1.463 . S
C1866 N1870 1.427 . S
C1867 H1857 0.929 . S
C1867 C1865 1.433 . S
C1867 N1870 1.384 . S
C1868 H1859 0.929 . S
C1868 C1860 1.378 . S
C1868 C1863 1.350 . S
C1869 H1856 0.929 . S
C1869 C1861 1.433 . S
C1869 N1871 1.384 . S
N1870 C1866 1.427 . S
N1870 C1867 1.384 . S
N1871 C1863 1.427 . S
N1871 C1869 1.384 . S
H1872 C1878 0.930 . S
H1873 C1882 0.930 . S
H1874 C1887 0.929 . S
H1875 C1885 0.929 . S
H1876 C1880 0.929 . S
H1877 C1886 0.929 . S
C1878 H1872 0.930 . S
C1878 C1879 1.367 . S
C1878 C1886 1.378 . S
C1879 C1878 1.367 . S
C1879 C1887 1.433 . S
C1880 H1876 0.929 . S
C1880 C1882 1.378 . S
C1880 C1884 1.350 . S
C1881 C1884 1.463 . S
C1881 C1886 1.350 . S
C1881 N1889 1.427 . S
C1882 H1873 0.930 . S
C1882 C1880 1.378 . S
C1882 C1883 1.367 . S
C1883 C1882 1.367 . S
C1883 C1885 1.433 . S
C1884 C1880 1.350 . S
C1884 C1881 1.463 . S
C1884 N1888 1.427 . S
C1885 H1875 0.929 . S
C1885 C1883 1.433 . S
C1885 N1888 1.384 . S
C1886 H1877 0.929 . S
C1886 C1878 1.378 . S
C1886 C1881 1.350 . S
C1887 H1874 0.929 . S
C1887 C1879 1.433 . S
C1887 N1889 1.384 . S
N1888 C1884 1.427 . S
N1888 C1885 1.384 . S
N1889 C1881 1.427 . S
N1889 C1887 1.384 . S
H1890 C1896 0.930 . S
H1891 C1900 0.930 . S
H1892 C1905 0.929 . S
H1893 C1903 0.929 . S
H1894 C1898 0.929 . S
H1895 C1904 0.929 . S
C1896 H1890 0.930 . S
C1896 C1897 1.367 . S
C1896 C1904 1.378 . S
C1897 C1896 1.367 . S
C1897 C1905 1.433 . S
C1898 H1894 0.929 . S
C1898 C1900 1.378 . S
C1898 C1902 1.350 . S
C1899 C1902 1.463 . S
C1899 C1904 1.350 . S
C1899 N1907 1.427 . S
C1900 H1891 0.930 . S
C1900 C1898 1.378 . S
C1900 C1901 1.367 . S
C1901 C1900 1.367 . S
C1901 C1903 1.433 . S
C1902 C1898 1.350 . S
C1902 C1899 1.463 . S
C1902 N1906 1.427 . S
C1903 H1893 0.929 . S
C1903 C1901 1.433 . S
C1903 N1906 1.384 . S
C1904 H1895 0.929 . S
C1904 C1896 1.378 . S
C1904 C1899 1.350 . S
C1905 H1892 0.929 . S
C1905 C1897 1.433 . S
C1905 N1907 1.384 . S
N1906 C1902 1.427 . S
N1906 C1903 1.384 . S
N1907 C1899 1.427 . S
N1907 C1905 1.384 . S
H1908 C1914 0.930 . S
H1909 C1918 0.930 . S
H1910 C1923 0.929 . S
H1911 C1921 0.929 1_556 S
H1912 C1916 0.929 . S
H1913 C1922 0.929 . S
C1914 H1908 0.930 . S
C1914 C1915 1.367 . S
C1914 C1922 1.378 . S
C1915 C1914 1.367 . S
C1915 C1923 1.433 . S
C1916 H1912 0.929 . S
C1916 C1918 1.378 . S
C1916 C1920 1.350 . S
C1917 C1920 1.463 . S
C1917 C1922 1.350 . S
C1917 N1925 1.427 . S
C1918 H1909 0.930 . S
C1918 C1916 1.378 . S
C1918 C1919 1.367 . S
C1919 C1918 1.367 . S
C1919 C1921 1.433 . S
C1920 C1916 1.350 . S
C1920 C1917 1.463 . S
C1920 N1924 1.427 . S
C1921 H1911 0.929 1_554 S
C1921 C1919 1.433 . S
C1921 N1924 1.384 . S
C1922 H1913 0.929 . S
C1922 C1914 1.378 . S
C1922 C1917 1.350 . S
C1923 H1910 0.929 . S
C1923 C1915 1.433 . S
C1923 N1925 1.384 . S
N1924 C1920 1.427 . S
N1924 C1921 1.384 . S
N1925 C1917 1.427 . S
N1925 C1923 1.384 . S
H1926 C1932 0.930 . S
H1927 C1936 0.930 . S
H1928 C1941 0.929 . S
H1929 C1939 0.929 . S
H1930 C1934 0.929 . S
H1931 C1940 0.929 . S
C1932 H1926 0.930 . S
C1932 C1933 1.367 . S
C1932 C1940 1.378 . S
C1933 C1932 1.367 . S
C1933 C1941 1.433 . S
C1934 H1930 0.929 . S
C1934 C1936 1.378 . S
C1934 C1938 1.350 . S
C1935 C1938 1.463 . S
C1935 C1940 1.350 . S
C1935 N1943 1.427 . S
C1936 H1927 0.930 . S
C1936 C1934 1.378 . S
C1936 C1937 1.367 . S
C1937 C1936 1.367 . S
C1937 C1939 1.433 . S
C1938 C1934 1.350 . S
C1938 C1935 1.463 . S
C1938 N1942 1.427 . S
C1939 H1929 0.929 . S
C1939 C1937 1.433 . S
C1939 N1942 1.384 . S
C1940 H1931 0.929 . S
C1940 C1932 1.378 . S
C1940 C1935 1.350 . S
C1941 H1928 0.929 . S
C1941 C1933 1.433 . S
C1941 N1943 1.384 . S
N1942 C1938 1.427 . S
N1942 C1939 1.384 . S
N1943 C1935 1.427 . S
N1943 C1941 1.384 . S
H1944 C1950 0.930 . S
H1945 C1954 0.930 . S
H1946 C1959 0.929 . S
H1947 C1957 0.929 . S
H1948 C1952 0.929 . S
H1949 C1958 0.929 . S
C1950 H1944 0.930 . S
C1950 C1951 1.367 . S
C1950 C1958 1.378 . S
C1951 C1950 1.367 . S
C1951 C1959 1.433 . S
C1952 H1948 0.929 . S
C1952 C1954 1.378 . S
C1952 C1956 1.350 . S
C1953 C1956 1.463 . S
C1953 C1958 1.350 . S
C1953 N1961 1.427 . S
C1954 H1945 0.930 . S
C1954 C1952 1.378 . S
C1954 C1955 1.367 . S
C1955 C1954 1.367 . S
C1955 C1957 1.433 . S
C1956 C1952 1.350 . S
C1956 C1953 1.463 . S
C1956 N1960 1.427 . S
C1957 H1947 0.929 . S
C1957 C1955 1.433 . S
C1957 N1960 1.384 . S
C1958 H1949 0.929 . S
C1958 C1950 1.378 . S
C1958 C1953 1.350 . S
C1959 H1946 0.929 . S
C1959 C1951 1.433 . S
C1959 N1961 1.384 . S
N1960 C1956 1.427 . S
N1960 C1957 1.384 . S
N1961 C1953 1.427 . S
N1961 C1959 1.384 . S
H1962 C1968 0.930 . S
H1963 C1972 0.930 . S
H1964 C1977 0.929 . S
H1965 C1975 0.929 . S
H1966 C1970 0.929 . S
H1967 C1976 0.929 . S
C1968 H1962 0.930 . S
C1968 C1969 1.367 . S
C1968 C1976 1.378 . S
C1969 C1968 1.367 . S
C1969 C1977 1.433 . S
C1970 H1966 0.929 . S
C1970 C1972 1.378 . S
C1970 C1974 1.350 . S
C1971 C1974 1.463 . S
C1971 C1976 1.350 . S
C1971 N1979 1.427 . S
C1972 H1963 0.930 . S
C1972 C1970 1.378 . S
C1972 C1973 1.367 . S
C1973 C1972 1.367 . S
C1973 C1975 1.433 . S
C1974 C1970 1.350 . S
C1974 C1971 1.463 . S
C1974 N1978 1.427 . S
C1975 H1965 0.929 . S
C1975 C1973 1.433 . S
C1975 N1978 1.384 . S
C1976 H1967 0.929 . S
C1976 C1968 1.378 . S
C1976 C1971 1.350 . S
C1977 H1964 0.929 . S
C1977 C1969 1.433 . S
C1977 N1979 1.384 . S
N1978 C1974 1.427 . S
N1978 C1975 1.384 . S
N1979 C1971 1.427 . S
N1979 C1977 1.384 . S
H1980 C1986 0.930 . S
H1981 C1990 0.930 . S
H1982 C1995 0.929 . S
H1983 C1993 0.929 . S
H1984 C1988 0.929 . S
H1985 C1994 0.929 . S
C1986 H1980 0.930 . S
C1986 C1987 1.367 . S
C1986 C1994 1.378 . S
C1987 C1986 1.367 . S
C1987 C1995 1.433 . S
C1988 H1984 0.929 . S
C1988 C1990 1.378 . S
C1988 C1992 1.350 . S
C1989 C1992 1.463 . S
C1989 C1994 1.350 . S
C1989 N1997 1.427 . S
C1990 H1981 0.930 . S
C1990 C1988 1.378 . S
C1990 C1991 1.367 . S
C1991 C1990 1.367 . S
C1991 C1993 1.433 . S
C1992 C1988 1.350 . S
C1992 C1989 1.463 . S
C1992 N1996 1.427 . S
C1993 H1983 0.929 . S
C1993 C1991 1.433 . S
C1993 N1996 1.384 . S
C1994 H1985 0.929 . S
C1994 C1986 1.378 . S
C1994 C1989 1.350 . S
C1995 H1982 0.929 . S
C1995 C1987 1.433 . S
C1995 N1997 1.384 . S
N1996 C1992 1.427 . S
N1996 C1993 1.384 . S
N1997 C1989 1.427 . S
N1997 C1995 1.384 . S
H1998 C2004 0.930 . S
H1999 C2008 0.930 . S
H2000 C2013 0.929 . S
H2001 C2011 0.929 . S
H2002 C2006 0.929 . S
H2003 C2012 0.929 . S
C2004 H1998 0.930 . S
C2004 C2005 1.367 . S
C2004 C2012 1.378 . S
C2005 C2004 1.367 . S
C2005 C2013 1.433 . S
C2006 H2002 0.929 . S
C2006 C2008 1.378 . S
C2006 C2010 1.350 . S
C2007 C2010 1.463 . S
C2007 C2012 1.350 . S
C2007 N2015 1.427 . S
C2008 H1999 0.930 . S
C2008 C2006 1.378 . S
C2008 C2009 1.367 . S
C2009 C2008 1.367 . S
C2009 C2011 1.433 . S
C2010 C2006 1.350 . S
C2010 C2007 1.463 . S
C2010 N2014 1.427 . S
C2011 H2001 0.929 . S
C2011 C2009 1.433 . S
C2011 N2014 1.384 . S
C2012 H2003 0.929 . S
C2012 C2004 1.378 . S
C2012 C2007 1.350 . S
C2013 H2000 0.929 . S
C2013 C2005 1.433 . S
C2013 N2015 1.384 . S
N2014 C2010 1.427 . S
N2014 C2011 1.384 . S
N2015 C2007 1.427 . S
N2015 C2013 1.384 . S
H2016 C2022 0.930 . S
H2017 C2026 0.930 . S
H2018 C2031 0.929 . S
H2019 C2029 0.929 . S
H2020 C2024 0.929 . S
H2021 C2030 0.929 . S
C2022 H2016 0.930 . S
C2022 C2023 1.367 . S
C2022 C2030 1.378 . S
C2023 C2022 1.367 . S
C2023 C2031 1.433 . S
C2024 H2020 0.929 . S
C2024 C2026 1.378 . S
C2024 C2028 1.350 . S
C2025 C2028 1.463 . S
C2025 C2030 1.350 . S
C2025 N2033 1.427 . S
C2026 H2017 0.930 . S
C2026 C2024 1.378 . S
C2026 C2027 1.367 . S
C2027 C2026 1.367 . S
C2027 C2029 1.433 . S
C2028 C2024 1.350 . S
C2028 C2025 1.463 . S
C2028 N2032 1.427 . S
C2029 H2019 0.929 . S
C2029 C2027 1.433 . S
C2029 N2032 1.384 . S
C2030 H2021 0.929 . S
C2030 C2022 1.378 . S
C2030 C2025 1.350 . S
C2031 H2018 0.929 . S
C2031 C2023 1.433 . S
C2031 N2033 1.384 . S
N2032 C2028 1.427 . S
N2032 C2029 1.384 . S
N2033 C2025 1.427 . S
N2033 C2031 1.384 . S
H2034 C2040 0.930 . S
H2035 C2044 0.930 . S
H2036 C2049 0.929 . S
H2037 C2047 0.929 . S
H2038 C2042 0.929 . S
H2039 C2048 0.929 . S
C2040 H2034 0.930 . S
C2040 C2041 1.390 . S
C2040 C2048 1.378 . S
C2041 C2040 1.390 . S
C2041 C2049 1.400 1_655 S
C2042 H2038 0.929 . S
C2042 C2044 1.378 . S
C2042 C2046 1.350 . S
C2043 C2046 1.463 . S
C2043 C2048 1.350 1_455 S
C2043 N2051 1.427 . S
C2044 H2035 0.930 . S
C2044 C2042 1.378 . S
C2044 C2045 1.367 . S
C2045 C2044 1.367 . S
C2045 C2047 1.433 . S
C2046 C2042 1.350 . S
C2046 C2043 1.463 . S
C2046 N2050 1.427 . S
C2047 H2037 0.929 . S
C2047 C2045 1.433 . S
C2047 N2050 1.384 . S
C2048 H2039 0.929 . S
C2048 C2040 1.378 . S
C2048 C2043 1.350 1_655 S
C2049 H2036 0.929 . S
C2049 C2041 1.400 1_455 S
C2049 N2051 1.384 . S
N2050 C2046 1.427 . S
N2050 C2047 1.384 . S
N2051 C2043 1.427 . S
N2051 C2049 1.384 . S
H2052 C2058 0.930 . S
H2053 C2062 0.930 . S
H2054 C2067 0.929 . S
H2055 C2065 0.929 . S
H2056 C2060 0.929 . S
H2057 C2066 0.929 . S
C2058 H2052 0.930 . S
C2058 C2059 1.367 . S
C2058 C2066 1.378 . S
C2059 C2058 1.367 . S
C2059 C2067 1.433 . S
C2060 H2056 0.929 . S
C2060 C2062 1.378 . S
C2060 C2064 1.350 . S
C2061 C2064 1.463 . S
C2061 C2066 1.350 . S
C2061 N2069 1.427 . S
C2062 H2053 0.930 . S
C2062 C2060 1.378 . S
C2062 C2063 1.367 . S
C2063 C2062 1.367 . S
C2063 C2065 1.433 . S
C2064 C2060 1.350 . S
C2064 C2061 1.463 . S
C2064 N2068 1.427 . S
C2065 H2055 0.929 . S
C2065 C2063 1.433 . S
C2065 N2068 1.384 . S
C2066 H2057 0.929 . S
C2066 C2058 1.378 . S
C2066 C2061 1.350 . S
C2067 H2054 0.929 . S
C2067 C2059 1.433 . S
C2067 N2069 1.384 . S
N2068 C2064 1.427 . S
N2068 C2065 1.384 . S
N2069 C2061 1.427 . S
N2069 C2067 1.384 . S
H2070 C2076 0.930 1_554 S
H2071 C2080 0.930 . S
H2072 C2085 0.929 . S
H2073 C2083 0.929 . S
H2074 C2078 0.929 . S
H2075 C2084 0.929 . S
C2076 H2070 0.930 1_556 S
C2076 C2077 1.367 1_556 S
C2076 C2084 1.378 . S
C2077 C2076 1.367 1_554 S
C2077 C2085 1.433 1_554 S
C2078 H2074 0.929 . S
C2078 C2080 1.378 . S
C2078 C2082 1.350 . S
C2079 C2082 1.463 . S
C2079 C2084 1.350 . S
C2079 N2087 1.427 . S
C2080 H2071 0.930 . S
C2080 C2078 1.378 . S
C2080 C2081 1.367 . S
C2081 C2080 1.367 . S
C2081 C2083 1.433 . S
C2082 C2078 1.350 . S
C2082 C2079 1.463 . S
C2082 N2086 1.427 . S
C2083 H2073 0.929 . S
C2083 C2081 1.433 . S
C2083 N2086 1.384 . S
C2084 H2075 0.929 . S
C2084 C2076 1.378 . S
C2084 C2079 1.350 . S
C2085 H2072 0.929 . S
C2085 C2077 1.433 1_556 S
C2085 N2087 1.384 . S
N2086 C2082 1.427 . S
N2086 C2083 1.384 . S
N2087 C2079 1.427 . S
N2087 C2085 1.384 . S
H2088 C2094 0.930 . S
H2089 C2098 0.930 . S
H2090 C2103 0.929 . S
H2091 C2101 0.929 . S
H2092 C2096 0.929 . S
H2093 C2102 0.929 . S
C2094 H2088 0.930 . S
C2094 C2095 1.367 . S
C2094 C2102 1.378 . S
C2095 C2094 1.367 . S
C2095 C2103 1.433 . S
C2096 H2092 0.929 . S
C2096 C2098 1.378 . S
C2096 C2100 1.350 . S
C2097 C2100 1.463 . S
C2097 C2102 1.350 . S
C2097 N2105 1.427 . S
C2098 H2089 0.930 . S
C2098 C2096 1.378 . S
C2098 C2099 1.367 . S
C2099 C2098 1.367 . S
C2099 C2101 1.433 . S
C2100 C2096 1.350 . S
C2100 C2097 1.463 . S
C2100 N2104 1.427 . S
C2101 H2091 0.929 . S
C2101 C2099 1.433 . S
C2101 N2104 1.384 . S
C2102 H2093 0.929 . S
C2102 C2094 1.378 . S
C2102 C2097 1.350 . S
C2103 H2090 0.929 . S
C2103 C2095 1.433 . S
C2103 N2105 1.384 . S
N2104 C2100 1.427 . S
N2104 C2101 1.384 . S
N2105 C2097 1.427 . S
N2105 C2103 1.384 . S
H2106 C2112 0.930 . S
H2107 C2116 0.930 . S
H2108 C2121 0.929 . S
H2109 C2119 0.929 . S
H2110 C2114 0.929 . S
H2111 C2120 0.929 . S
C2112 H2106 0.930 . S
C2112 C2113 1.367 . S
C2112 C2120 1.378 . S
C2113 C2112 1.367 . S
C2113 C2121 1.433 . S
C2114 H2110 0.929 . S
C2114 C2116 1.378 . S
C2114 C2118 1.350 . S
C2115 C2118 1.463 . S
C2115 C2120 1.350 . S
C2115 N2123 1.427 . S
C2116 H2107 0.930 . S
C2116 C2114 1.378 . S
C2116 C2117 1.367 . S
C2117 C2116 1.367 . S
C2117 C2119 1.433 . S
C2118 C2114 1.350 . S
C2118 C2115 1.463 . S
C2118 N2122 1.427 . S
C2119 H2109 0.929 . S
C2119 C2117 1.433 . S
C2119 N2122 1.384 . S
C2120 H2111 0.929 . S
C2120 C2112 1.378 . S
C2120 C2115 1.350 . S
C2121 H2108 0.929 . S
C2121 C2113 1.433 . S
C2121 N2123 1.384 . S
N2122 C2118 1.427 . S
N2122 C2119 1.384 . S
N2123 C2115 1.427 . S
N2123 C2121 1.384 . S
H2124 C2130 0.930 . S
H2125 C2134 0.930 . S
H2126 C2139 0.929 . S
H2127 C2137 0.929 . S
H2128 C2132 0.929 . S
H2129 C2138 0.929 . S
C2130 H2124 0.930 . S
C2130 C2131 1.367 . S
C2130 C2138 1.378 . S
C2131 C2130 1.367 . S
C2131 C2139 1.433 . S
C2132 H2128 0.929 . S
C2132 C2134 1.378 . S
C2132 C2136 1.350 . S
C2133 C2136 1.463 . S
C2133 C2138 1.350 . S
C2133 N2141 1.427 . S
C2134 H2125 0.930 . S
C2134 C2132 1.378 . S
C2134 C2135 1.367 . S
C2135 C2134 1.367 . S
C2135 C2137 1.433 . S
C2136 C2132 1.350 . S
C2136 C2133 1.463 . S
C2136 N2140 1.427 . S
C2137 H2127 0.929 . S
C2137 C2135 1.433 . S
C2137 N2140 1.384 . S
C2138 H2129 0.929 . S
C2138 C2130 1.378 . S
C2138 C2133 1.350 . S
C2139 H2126 0.929 . S
C2139 C2131 1.433 . S
C2139 N2141 1.384 . S
N2140 C2136 1.427 . S
N2140 C2137 1.384 . S
N2141 C2133 1.427 . S
N2141 C2139 1.384 . S
H2142 C2148 0.930 . S
H2143 C2152 0.930 . S
H2144 C2157 0.949 . S
H2145 C2155 0.929 . S
H2146 C2150 0.929 . S
H2147 C2156 0.929 . S
C2148 H2142 0.930 . S
C2148 C2149 1.367 1_554 S
C2148 C2156 1.378 . S
C2149 C2148 1.367 1_556 S
C2149 C2157 1.437 . S
C2150 H2146 0.929 . S
C2150 C2152 1.378 . S
C2150 C2154 1.350 1_655 S
C2151 C2154 1.463 . S
C2151 C2156 1.350 . S
C2151 N2159 1.427 . S
C2152 H2143 0.930 . S
C2152 C2150 1.378 . S
C2152 C2153 1.387 . S
C2153 C2152 1.387 . S
C2153 C2155 1.404 1_655 S
C2154 C2150 1.350 1_455 S
C2154 C2151 1.463 . S
C2154 N2158 1.427 . S
C2155 H2145 0.929 . S
C2155 C2153 1.404 1_455 S
C2155 N2158 1.384 . S
C2156 H2147 0.929 . S
C2156 C2148 1.378 . S
C2156 C2151 1.350 . S
C2157 H2144 0.949 . S
C2157 C2149 1.437 . S
C2157 N2159 1.359 1_556 S
N2158 C2154 1.427 . S
N2158 C2155 1.384 . S
N2159 C2151 1.427 . S
N2159 C2157 1.359 1_554 S
H2160 C2166 0.930 . S
H2161 C2170 0.930 . S
H2162 C2175 0.929 . S
H2163 C2173 0.929 . S
H2164 C2168 0.929 . S
H2165 C2174 0.929 . S
C2166 H2160 0.930 . S
C2166 C2167 1.367 . S
C2166 C2174 1.378 . S
C2167 C2166 1.367 . S
C2167 C2175 1.433 . S
C2168 H2164 0.929 . S
C2168 C2170 1.378 . S
C2168 C2172 1.350 . S
C2169 C2172 1.463 . S
C2169 C2174 1.350 . S
C2169 N2177 1.427 . S
C2170 H2161 0.930 . S
C2170 C2168 1.378 . S
C2170 C2171 1.367 . S
C2171 C2170 1.367 . S
C2171 C2173 1.433 . S
C2172 C2168 1.350 . S
C2172 C2169 1.463 . S
C2172 N2176 1.427 . S
C2173 H2163 0.929 . S
C2173 C2171 1.433 . S
C2173 N2176 1.384 . S
C2174 H2165 0.929 . S
C2174 C2166 1.378 . S
C2174 C2169 1.350 . S
C2175 H2162 0.929 . S
C2175 C2167 1.433 . S
C2175 N2177 1.384 . S
N2176 C2172 1.427 . S
N2176 C2173 1.384 . S
N2177 C2169 1.427 . S
N2177 C2175 1.384 . S
H2178 C2184 0.930 . S
H2179 C2188 0.926 1_545 S
H2180 C2193 0.929 . S
H2181 C2191 0.910 1_545 S
H2182 C2186 0.929 . S
H2183 C2192 0.929 . S
C2184 H2178 0.930 . S
C2184 C2185 1.367 . S
C2184 C2192 1.378 . S
C2185 C2184 1.367 . S
C2185 C2193 1.433 . S
C2186 H2182 0.929 . S
C2186 C2188 1.378 . S
C2186 C2190 1.350 . S
C2187 C2190 1.463 . S
C2187 C2192 1.350 . S
C2187 N2195 1.427 . S
C2188 H2179 0.926 1_565 S
C2188 C2186 1.378 . S
C2188 C2189 1.367 1_565 S
C2189 C2188 1.367 1_545 S
C2189 C2191 1.433 1_545 S
C2190 C2186 1.350 . S
C2190 C2187 1.463 . S
C2190 N2194 1.427 . S
C2191 H2181 0.910 1_565 S
C2191 C2189 1.433 1_565 S
C2191 N2194 1.384 . S
C2192 H2183 0.929 . S
C2192 C2184 1.378 . S
C2192 C2187 1.350 . S
C2193 H2180 0.929 . S
C2193 C2185 1.433 . S
C2193 N2195 1.384 . S
N2194 C2190 1.427 . S
N2194 C2191 1.384 . S
N2195 C2187 1.427 . S
N2195 C2193 1.384 . S
H2196 C2202 0.930 . S
H2197 C2206 0.930 . S
H2198 C2211 0.929 . S
H2199 C2209 0.929 . S
H2200 C2204 0.929 . S
H2201 C2210 0.929 . S
C2202 H2196 0.930 . S
C2202 C2203 1.367 . S
C2202 C2210 1.378 . S
C2203 C2202 1.367 . S
C2203 C2211 1.433 . S
C2204 H2200 0.929 . S
C2204 C2206 1.378 . S
C2204 C2208 1.350 . S
C2205 C2208 1.463 . S
C2205 C2210 1.350 . S
C2205 N2213 1.427 . S
C2206 H2197 0.930 . S
C2206 C2204 1.378 . S
C2206 C2207 1.367 . S
C2207 C2206 1.367 . S
C2207 C2209 1.433 . S
C2208 C2204 1.350 . S
C2208 C2205 1.463 . S
C2208 N2212 1.427 . S
C2209 H2199 0.929 . S
C2209 C2207 1.433 . S
C2209 N2212 1.384 . S
C2210 H2201 0.929 . S
C2210 C2202 1.378 . S
C2210 C2205 1.350 . S
C2211 H2198 0.929 . S
C2211 C2203 1.433 . S
C2211 N2213 1.384 . S
N2212 C2208 1.427 . S
N2212 C2209 1.384 . S
N2213 C2205 1.427 . S
N2213 C2211 1.384 . S
H2214 C2220 0.930 . S
H2215 C2224 0.948 . S
H2216 C2229 0.929 . S
H2217 C2227 0.929 1_564 S
H2218 C2222 0.929 . S
H2219 C2228 0.929 . S
C2220 H2214 0.930 . S
C2220 C2221 1.397 . S
C2220 C2228 1.378 . S
C2221 C2220 1.397 . S
C2221 C2229 1.392 1_554 S
C2222 H2218 0.929 . S
C2222 C2224 1.378 . S
C2222 C2226 1.350 . S
C2223 C2226 1.463 . S
C2223 C2228 1.350 1_556 S
C2223 N2231 1.427 . S
C2224 H2215 0.948 . S
C2224 C2222 1.378 . S
C2224 C2225 1.367 1_545 S
C2225 C2224 1.367 1_565 S
C2225 C2227 1.433 1_565 S
C2226 C2222 1.350 . S
C2226 C2223 1.463 . S
C2226 N2230 1.427 . S
C2227 H2217 0.929 1_546 S
C2227 C2225 1.433 1_545 S
C2227 N2230 1.384 . S
C2228 H2219 0.929 . S
C2228 C2220 1.378 . S
C2228 C2223 1.350 1_554 S
C2229 H2216 0.929 . S
C2229 C2221 1.392 1_556 S
C2229 N2231 1.384 . S
N2230 C2226 1.427 . S
N2230 C2227 1.384 . S
N2231 C2223 1.427 . S
N2231 C2229 1.384 . S
H2232 C2238 0.930 . S
H2233 C2242 0.930 . S
H2234 C2247 0.929 . S
H2235 C2245 0.929 . S
H2236 C2240 0.929 . S
H2237 C2246 0.929 . S
C2238 H2232 0.930 . S
C2238 C2239 1.367 . S
C2238 C2246 1.378 . S
C2239 C2238 1.367 . S
C2239 C2247 1.433 . S
C2240 H2236 0.929 . S
C2240 C2242 1.378 . S
C2240 C2244 1.350 . S
C2241 C2244 1.463 . S
C2241 C2246 1.350 . S
C2241 N2249 1.427 . S
C2242 H2233 0.930 . S
C2242 C2240 1.378 . S
C2242 C2243 1.367 . S
C2243 C2242 1.367 . S
C2243 C2245 1.433 . S
C2244 C2240 1.350 . S
C2244 C2241 1.463 . S
C2244 N2248 1.427 . S
C2245 H2235 0.929 . S
C2245 C2243 1.433 . S
C2245 N2248 1.384 . S
C2246 H2237 0.929 . S
C2246 C2238 1.378 . S
C2246 C2241 1.350 . S
C2247 H2234 0.929 . S
C2247 C2239 1.433 . S
C2247 N2249 1.384 . S
N2248 C2244 1.427 . S
N2248 C2245 1.384 . S
N2249 C2241 1.427 . S
N2249 C2247 1.384 . S
H2250 C2256 0.926 1_545 S
H2251 C2260 0.930 . S
H2252 C2265 0.929 . S
H2253 C2263 0.929 . S
H2254 C2258 0.929 . S
H2255 C2264 0.929 . S
C2256 H2250 0.926 1_565 S
C2256 C2257 1.366 1_565 S
C2256 C2264 1.384 . S
C2257 C2256 1.366 1_545 S
C2257 C2265 1.433 1_545 S
C2258 H2254 0.929 . S
C2258 C2260 1.378 . S
C2258 C2262 1.350 . S
C2259 C2262 1.463 . S
C2259 C2264 1.350 . S
C2259 N2267 1.427 . S
C2260 H2251 0.930 . S
C2260 C2258 1.378 . S
C2260 C2261 1.367 . S
C2261 C2260 1.367 . S
C2261 C2263 1.433 . S
C2262 C2258 1.350 . S
C2262 C2259 1.463 . S
C2262 N2266 1.427 . S
C2263 H2253 0.929 . S
C2263 C2261 1.433 . S
C2263 N2266 1.384 . S
C2264 H2255 0.929 . S
C2264 C2256 1.384 . S
C2264 C2259 1.350 . S
C2265 H2252 0.929 . S
C2265 C2257 1.433 1_565 S
C2265 N2267 1.384 . S
N2266 C2262 1.427 . S
N2266 C2263 1.384 . S
N2267 C2259 1.427 . S
N2267 C2265 1.384 . S
H2268 C2274 0.930 . S
H2269 C2278 0.930 . S
H2270 C2283 0.929 . S
H2271 C2281 0.929 . S
H2272 C2276 0.929 . S
H2273 C2282 0.929 . S
C2274 H2268 0.930 . S
C2274 C2275 1.367 . S
C2274 C2282 1.378 . S
C2275 C2274 1.367 . S
C2275 C2283 1.433 . S
C2276 H2272 0.929 . S
C2276 C2278 1.378 . S
C2276 C2280 1.350 . S
C2277 C2280 1.463 . S
C2277 C2282 1.350 . S
C2277 N2285 1.427 . S
C2278 H2269 0.930 . S
C2278 C2276 1.378 . S
C2278 C2279 1.367 . S
C2279 C2278 1.367 . S
C2279 C2281 1.433 . S
C2280 C2276 1.350 . S
C2280 C2277 1.463 . S
C2280 N2284 1.427 . S
C2281 H2271 0.929 . S
C2281 C2279 1.433 . S
C2281 N2284 1.384 . S
C2282 H2273 0.929 . S
C2282 C2274 1.378 . S
C2282 C2277 1.350 . S
C2283 H2270 0.929 . S
C2283 C2275 1.433 . S
C2283 N2285 1.384 . S
N2284 C2280 1.427 . S
N2284 C2281 1.384 . S
N2285 C2277 1.427 . S
N2285 C2283 1.384 . S
H2286 C2292 0.890 1_566 S
H2287 C2296 0.930 . S
H2288 C2301 0.929 . S
H2289 C2299 0.929 . S
H2290 C2294 0.929 . S
H2291 C2300 0.962 . S
C2292 H2286 0.890 1_544 S
C2292 C2293 1.356 1_545 S
C2292 C2300 1.424 1_554 S
C2293 C2292 1.356 1_565 S
C2293 C2301 1.433 1_565 S
C2294 H2290 0.929 . S
C2294 C2296 1.378 . S
C2294 C2298 1.350 . S
C2295 C2298 1.463 . S
C2295 C2300 1.325 1_554 S
C2295 N2303 1.427 . S
C2296 H2287 0.930 . S
C2296 C2294 1.378 . S
C2296 C2297 1.366 1_554 S
C2297 C2296 1.366 1_556 S
C2297 C2299 1.434 . S
C2298 C2294 1.350 . S
C2298 C2295 1.463 . S
C2298 N2302 1.427 1_554 S
C2299 H2289 0.929 . S
C2299 C2297 1.434 . S
C2299 N2302 1.384 . S
C2300 H2291 0.962 . S
C2300 C2292 1.424 1_556 S
C2300 C2295 1.325 1_556 S
C2301 H2288 0.929 . S
C2301 C2293 1.433 1_545 S
C2301 N2303 1.384 . S
N2302 C2298 1.427 1_556 S
N2302 C2299 1.384 . S
N2303 C2295 1.427 . S
N2303 C2301 1.384 . S
H2304 C2310 0.930 . S
H2305 C2314 0.930 . S
H2306 C2319 0.929 . S
H2307 C2317 0.929 . S
H2308 C2312 0.929 . S
H2309 C2318 0.929 . S
C2310 H2304 0.930 . S
C2310 C2311 1.367 . S
C2310 C2318 1.378 . S
C2311 C2310 1.367 . S
C2311 C2319 1.433 . S
C2312 H2308 0.929 . S
C2312 C2314 1.378 . S
C2312 C2316 1.350 . S
C2313 C2316 1.463 . S
C2313 C2318 1.350 . S
C2313 N2321 1.427 . S
C2314 H2305 0.930 . S
C2314 C2312 1.378 . S
C2314 C2315 1.367 . S
C2315 C2314 1.367 . S
C2315 C2317 1.433 . S
C2316 C2312 1.350 . S
C2316 C2313 1.463 . S
C2316 N2320 1.427 . S
C2317 H2307 0.929 . S
C2317 C2315 1.433 . S
C2317 N2320 1.384 . S
C2318 H2309 0.929 . S
C2318 C2310 1.378 . S
C2318 C2313 1.350 . S
C2319 H2306 0.929 . S
C2319 C2311 1.433 . S
C2319 N2321 1.384 . S
N2320 C2316 1.427 . S
N2320 C2317 1.384 . S
N2321 C2313 1.427 . S
N2321 C2319 1.384 . S
H2322 C2328 0.930 . S
H2323 C2332 0.930 . S
H2324 C2337 0.929 . S
H2325 C2335 0.929 . S
H2326 C2330 0.929 . S
H2327 C2336 0.929 . S
C2328 H2322 0.930 . S
C2328 C2329 1.367 . S
C2328 C2336 1.378 . S
C2329 C2328 1.367 . S
C2329 C2337 1.433 . S
C2330 H2326 0.929 . S
C2330 C2332 1.378 . S
C2330 C2334 1.350 . S
C2331 C2334 1.463 . S
C2331 C2336 1.350 . S
C2331 N2339 1.427 . S
C2332 H2323 0.930 . S
C2332 C2330 1.378 . S
C2332 C2333 1.367 . S
C2333 C2332 1.367 . S
C2333 C2335 1.433 . S
C2334 C2330 1.350 . S
C2334 C2331 1.463 . S
C2334 N2338 1.427 . S
C2335 H2325 0.929 . S
C2335 C2333 1.433 . S
C2335 N2338 1.384 . S
C2336 H2327 0.929 . S
C2336 C2328 1.378 . S
C2336 C2331 1.350 . S
C2337 H2324 0.929 . S
C2337 C2329 1.433 . S
C2337 N2339 1.384 . S
N2338 C2334 1.427 . S
N2338 C2335 1.384 . S
N2339 C2331 1.427 . S
N2339 C2337 1.384 . S
H2340 C2346 0.930 1_455 S
H2341 C2350 0.930 . S
H2342 C2355 0.929 . S
H2343 C2353 0.929 . S
H2344 C2348 0.929 . S
H2345 C2354 0.929 . S
C2346 H2340 0.930 1_655 S
C2346 C2347 1.367 1_655 S
C2346 C2354 1.378 . S
C2347 C2346 1.367 1_455 S
C2347 C2355 1.433 1_455 S
C2348 H2344 0.929 . S
C2348 C2350 1.378 . S
C2348 C2352 1.350 . S
C2349 C2352 1.463 . S
C2349 C2354 1.350 . S
C2349 N2357 1.427 . S
C2350 H2341 0.930 . S
C2350 C2348 1.378 . S
C2350 C2351 1.367 . S
C2351 C2350 1.367 . S
C2351 C2353 1.433 . S
C2352 C2348 1.350 . S
C2352 C2349 1.463 . S
C2352 N2356 1.427 . S
C2353 H2343 0.929 . S
C2353 C2351 1.433 . S
C2353 N2356 1.384 . S
C2354 H2345 0.929 . S
C2354 C2346 1.378 . S
C2354 C2349 1.350 . S
C2355 H2342 0.929 . S
C2355 C2347 1.433 1_655 S
C2355 N2357 1.384 . S
N2356 C2352 1.427 . S
N2356 C2353 1.384 . S
N2357 C2349 1.427 . S
N2357 C2355 1.384 . S
H2358 C2364 0.930 . S
H2359 C2368 0.930 . S
H2360 C2373 0.929 . S
H2361 C2371 0.929 . S
H2362 C2366 0.929 . S
H2363 C2372 0.929 . S
C2364 H2358 0.930 . S
C2364 C2365 1.367 . S
C2364 C2372 1.378 . S
C2365 C2364 1.367 . S
C2365 C2373 1.433 . S
C2366 H2362 0.929 . S
C2366 C2368 1.378 . S
C2366 C2370 1.350 . S
C2367 C2370 1.463 . S
C2367 C2372 1.350 . S
C2367 N2375 1.427 . S
C2368 H2359 0.930 . S
C2368 C2366 1.378 . S
C2368 C2369 1.367 . S
C2369 C2368 1.367 . S
C2369 C2371 1.433 . S
C2370 C2366 1.350 . S
C2370 C2367 1.463 . S
C2370 N2374 1.427 . S
C2371 H2361 0.929 . S
C2371 C2369 1.433 . S
C2371 N2374 1.384 . S
C2372 H2363 0.929 . S
C2372 C2364 1.378 . S
C2372 C2367 1.350 . S
C2373 H2360 0.929 . S
C2373 C2365 1.433 . S
C2373 N2375 1.384 . S
N2374 C2370 1.427 . S
N2374 C2371 1.384 . S
N2375 C2367 1.427 . S
N2375 C2373 1.384 . S
H2376 C2382 0.907 1_655 S
H2377 C2386 0.930 . S
H2378 C2391 0.929 . S
H2379 C2389 0.929 . S
H2380 C2384 0.929 . S
H2381 C2390 0.929 . S
C2382 H2376 0.907 1_455 S
C2382 C2383 1.361 1_455 S
C2382 C2390 1.408 . S
C2383 C2382 1.361 1_655 S
C2383 C2391 1.433 1_655 S
C2384 H2380 0.929 . S
C2384 C2386 1.378 . S
C2384 C2388 1.350 . S
C2385 C2388 1.463 . S
C2385 C2390 1.350 . S
C2385 N2393 1.427 . S
C2386 H2377 0.930 . S
C2386 C2384 1.378 . S
C2386 C2387 1.361 1_545 S
C2387 C2386 1.361 1_565 S
C2387 C2389 1.434 . S
C2388 C2384 1.350 . S
C2388 C2385 1.463 . S
C2388 N2392 1.427 . S
C2389 H2379 0.929 . S
C2389 C2387 1.434 . S
C2389 N2392 1.384 1_565 S
C2390 H2381 0.929 . S
C2390 C2382 1.408 . S
C2390 C2385 1.350 . S
C2391 H2378 0.929 . S
C2391 C2383 1.433 1_455 S
C2391 N2393 1.384 . S
N2392 C2388 1.427 . S
N2392 C2389 1.384 1_545 S
N2393 C2385 1.427 . S
N2393 C2391 1.384 . S
H2394 C2400 0.930 . S
H2395 C2404 0.930 . S
H2396 C2409 0.929 . S
H2397 C2407 0.929 . S
H2398 C2402 0.929 . S
H2399 C2408 0.929 . S
C2400 H2394 0.930 . S
C2400 C2401 1.367 . S
C2400 C2408 1.378 . S
C2401 C2400 1.367 . S
C2401 C2409 1.433 . S
C2402 H2398 0.929 . S
C2402 C2404 1.378 . S
C2402 C2406 1.350 . S
C2403 C2406 1.463 . S
C2403 C2408 1.350 . S
C2403 N2411 1.427 . S
C2404 H2395 0.930 . S
C2404 C2402 1.378 . S
C2404 C2405 1.367 . S
C2405 C2404 1.367 . S
C2405 C2407 1.433 . S
C2406 C2402 1.350 . S
C2406 C2403 1.463 . S
C2406 N2410 1.427 . S
C2407 H2397 0.929 . S
C2407 C2405 1.433 . S
C2407 N2410 1.384 . S
C2408 H2399 0.929 . S
C2408 C2400 1.378 . S
C2408 C2403 1.350 . S
C2409 H2396 0.929 . S
C2409 C2401 1.433 . S
C2409 N2411 1.384 . S
N2410 C2406 1.427 . S
N2410 C2407 1.384 . S
N2411 C2403 1.427 . S
N2411 C2409 1.384 . S
H2412 C2418 0.930 . S
H2413 C2422 0.930 . S
H2414 C2427 0.929 . S
H2415 C2425 0.929 1_455 S
H2416 C2420 0.929 . S
H2417 C2426 0.929 . S
C2418 H2412 0.930 . S
C2418 C2419 1.367 . S
C2418 C2426 1.378 . S
C2419 C2418 1.367 . S
C2419 C2427 1.433 . S
C2420 H2416 0.929 . S
C2420 C2422 1.378 . S
C2420 C2424 1.350 . S
C2421 C2424 1.463 . S
C2421 C2426 1.350 . S
C2421 N2429 1.427 . S
C2422 H2413 0.930 . S
C2422 C2420 1.378 . S
C2422 C2423 1.367 1_655 S
C2423 C2422 1.367 1_455 S
C2423 C2425 1.433 1_455 S
C2424 C2420 1.350 . S
C2424 C2421 1.463 . S
C2424 N2428 1.427 . S
C2425 H2415 0.929 1_655 S
C2425 C2423 1.433 1_655 S
C2425 N2428 1.384 . S
C2426 H2417 0.929 . S
C2426 C2418 1.378 . S
C2426 C2421 1.350 . S
C2427 H2414 0.929 . S
C2427 C2419 1.433 . S
C2427 N2429 1.384 . S
N2428 C2424 1.427 . S
N2428 C2425 1.384 . S
N2429 C2421 1.427 . S
N2429 C2427 1.384 . S
H2430 C2436 0.930 . S
H2431 C2440 0.930 . S
H2432 C2445 0.929 . S
H2433 C2443 0.929 . S
H2434 C2438 0.929 . S
H2435 C2444 0.929 . S
C2436 H2430 0.930 . S
C2436 C2437 1.367 . S
C2436 C2444 1.378 . S
C2437 C2436 1.367 . S
C2437 C2445 1.433 . S
C2438 H2434 0.929 . S
C2438 C2440 1.378 . S
C2438 C2442 1.350 . S
C2439 C2442 1.463 . S
C2439 C2444 1.350 . S
C2439 N2447 1.427 . S
C2440 H2431 0.930 . S
C2440 C2438 1.378 . S
C2440 C2441 1.367 . S
C2441 C2440 1.367 . S
C2441 C2443 1.433 . S
C2442 C2438 1.350 . S
C2442 C2439 1.463 . S
C2442 N2446 1.427 . S
C2443 H2433 0.929 . S
C2443 C2441 1.433 . S
C2443 N2446 1.384 . S
C2444 H2435 0.929 . S
C2444 C2436 1.378 . S
C2444 C2439 1.350 . S
C2445 H2432 0.929 . S
C2445 C2437 1.433 . S
C2445 N2447 1.384 . S
N2446 C2442 1.427 . S
N2446 C2443 1.384 . S
N2447 C2439 1.427 . S
N2447 C2445 1.384 . S
H2448 C2454 0.930 . S
H2449 C2458 0.930 . S
H2450 C2463 0.929 . S
H2451 C2461 0.929 . S
H2452 C2456 0.929 . S
H2453 C2462 0.929 . S
C2454 H2448 0.930 . S
C2454 C2455 1.367 . S
C2454 C2462 1.378 . S
C2455 C2454 1.367 . S
C2455 C2463 1.433 . S
C2456 H2452 0.929 . S
C2456 C2458 1.378 . S
C2456 C2460 1.350 . S
C2457 C2460 1.463 . S
C2457 C2462 1.350 . S
C2457 N2465 1.427 . S
C2458 H2449 0.930 . S
C2458 C2456 1.378 . S
C2458 C2459 1.367 . S
C2459 C2458 1.367 . S
C2459 C2461 1.433 . S
C2460 C2456 1.350 . S
C2460 C2457 1.463 . S
C2460 N2464 1.427 . S
C2461 H2451 0.929 . S
C2461 C2459 1.433 . S
C2461 N2464 1.384 . S
C2462 H2453 0.929 . S
C2462 C2454 1.378 . S
C2462 C2457 1.350 . S
C2463 H2450 0.929 . S
C2463 C2455 1.433 . S
C2463 N2465 1.384 . S
N2464 C2460 1.427 . S
N2464 C2461 1.384 . S
N2465 C2457 1.427 . S
N2465 C2463 1.384 . S
H2466 C2472 0.930 . S
H2467 C2476 0.930 . S
H2468 C2481 0.927 . S
H2469 C2479 0.929 . S
H2470 C2474 0.929 . S
H2471 C2480 0.929 . S
C2472 H2466 0.930 . S
C2472 C2473 1.367 1_556 S
C2472 C2480 1.378 . S
C2473 C2472 1.367 1_554 S
C2473 C2481 1.433 . S
C2474 H2470 0.929 . S
C2474 C2476 1.378 . S
C2474 C2478 1.350 . S
C2475 C2478 1.463 . S
C2475 C2480 1.350 . S
C2475 N2483 1.427 . S
C2476 H2467 0.930 . S
C2476 C2474 1.378 . S
C2476 C2477 1.367 . S
C2477 C2476 1.367 . S
C2477 C2479 1.433 . S
C2478 C2474 1.350 . S
C2478 C2475 1.463 . S
C2478 N2482 1.427 . S
C2479 H2469 0.929 . S
C2479 C2477 1.433 . S
C2479 N2482 1.384 . S
C2480 H2471 0.929 . S
C2480 C2472 1.378 . S
C2480 C2475 1.350 . S
C2481 H2468 0.927 . S
C2481 C2473 1.433 . S
C2481 N2483 1.386 1_554 S
N2482 C2478 1.427 . S
N2482 C2479 1.384 . S
N2483 C2475 1.427 . S
N2483 C2481 1.386 1_556 S
H2484 C2490 0.930 . S
H2485 C2494 0.930 . S
H2486 C2499 0.929 . S
H2487 C2497 0.929 . S
H2488 C2492 0.929 . S
H2489 C2498 0.929 . S
C2490 H2484 0.930 . S
C2490 C2491 1.367 . S
C2490 C2498 1.378 . S
C2491 C2490 1.367 . S
C2491 C2499 1.433 . S
C2492 H2488 0.929 . S
C2492 C2494 1.378 . S
C2492 C2496 1.350 . S
C2493 C2496 1.463 . S
C2493 C2498 1.350 . S
C2493 N2501 1.427 . S
C2494 H2485 0.930 . S
C2494 C2492 1.378 . S
C2494 C2495 1.367 . S
C2495 C2494 1.367 . S
C2495 C2497 1.433 . S
C2496 C2492 1.350 . S
C2496 C2493 1.463 . S
C2496 N2500 1.427 . S
C2497 H2487 0.929 . S
C2497 C2495 1.433 . S
C2497 N2500 1.384 . S
C2498 H2489 0.929 . S
C2498 C2490 1.378 . S
C2498 C2493 1.350 . S
C2499 H2486 0.929 . S
C2499 C2491 1.433 . S
C2499 N2501 1.384 . S
N2500 C2496 1.427 . S
N2500 C2497 1.384 . S
N2501 C2493 1.427 . S
N2501 C2499 1.384 . S
H2502 C2508 0.930 1_455 S
H2503 C2512 0.930 . S
H2504 C2517 0.929 . S
H2505 C2515 0.929 . S
H2506 C2510 0.929 . S
H2507 C2516 0.905 1_455 S
C2508 H2502 0.930 1_655 S
C2508 C2509 1.367 . S
C2508 C2516 1.384 . S
C2509 C2508 1.367 . S
C2509 C2517 1.433 . S
C2510 H2506 0.929 . S
C2510 C2512 1.378 . S
C2510 C2514 1.350 . S
C2511 C2514 1.463 . S
C2511 C2516 1.367 . S
C2511 N2519 1.427 . S
C2512 H2503 0.930 . S
C2512 C2510 1.378 . S
C2512 C2513 1.364 1_655 S
C2513 C2512 1.364 1_455 S
C2513 C2515 1.435 . S
C2514 C2510 1.350 . S
C2514 C2511 1.463 . S
C2514 N2518 1.427 1_655 S
C2515 H2505 0.929 . S
C2515 C2513 1.435 . S
C2515 N2518 1.384 . S
C2516 H2507 0.905 1_655 S
C2516 C2508 1.384 . S
C2516 C2511 1.367 . S
C2517 H2504 0.929 . S
C2517 C2509 1.433 . S
C2517 N2519 1.384 . S
N2518 C2514 1.427 1_455 S
N2518 C2515 1.384 . S
N2519 C2511 1.427 . S
N2519 C2517 1.384 . S
H2520 C2526 0.930 . S
H2521 C2530 0.930 . S
H2522 C2535 0.929 . S
H2523 C2533 0.929 . S
H2524 C2528 0.929 . S
H2525 C2534 0.929 . S
C2526 H2520 0.930 . S
C2526 C2527 1.367 . S
C2526 C2534 1.378 . S
C2527 C2526 1.367 . S
C2527 C2535 1.433 . S
C2528 H2524 0.929 . S
C2528 C2530 1.378 . S
C2528 C2532 1.350 . S
C2529 C2532 1.463 . S
C2529 C2534 1.350 . S
C2529 N2537 1.427 . S
C2530 H2521 0.930 . S
C2530 C2528 1.378 . S
C2530 C2531 1.367 . S
C2531 C2530 1.367 . S
C2531 C2533 1.433 . S
C2532 C2528 1.350 . S
C2532 C2529 1.463 . S
C2532 N2536 1.427 . S
C2533 H2523 0.929 . S
C2533 C2531 1.433 . S
C2533 N2536 1.384 . S
C2534 H2525 0.929 . S
C2534 C2526 1.378 . S
C2534 C2529 1.350 . S
C2535 H2522 0.929 . S
C2535 C2527 1.433 . S
C2535 N2537 1.384 . S
N2536 C2532 1.427 . S
N2536 C2533 1.384 . S
N2537 C2529 1.427 . S
N2537 C2535 1.384 . S
H2538 C2544 0.931 1_556 S
H2539 C2548 0.930 . S
H2540 C2553 0.916 1_556 S
H2541 C2551 0.929 . S
H2542 C2546 0.929 . S
H2543 C2552 0.929 1_455 S
C2544 H2538 0.931 1_554 S
C2544 C2545 1.367 1_554 S
C2544 C2552 1.378 . S
C2545 C2544 1.367 1_556 S
C2545 C2553 1.433 1_556 S
C2546 H2542 0.929 . S
C2546 C2548 1.378 . S
C2546 C2550 1.350 . S
C2547 C2550 1.463 . S
C2547 C2552 1.350 . S
C2547 N2555 1.427 . S
C2548 H2539 0.930 . S
C2548 C2546 1.378 . S
C2548 C2549 1.362 1_655 S
C2549 C2548 1.362 1_455 S
C2549 C2551 1.437 . S
C2550 C2546 1.350 . S
C2550 C2547 1.463 . S
C2550 N2554 1.427 1_655 S
C2551 H2541 0.929 . S
C2551 C2549 1.437 . S
C2551 N2554 1.384 . S
C2552 H2543 0.929 1_655 S
C2552 C2544 1.378 . S
C2552 C2547 1.350 . S
C2553 H2540 0.916 1_554 S
C2553 C2545 1.433 1_554 S
C2553 N2555 1.384 . S
N2554 C2550 1.427 1_455 S
N2554 C2551 1.384 . S
N2555 C2547 1.427 . S
N2555 C2553 1.384 . S
H2556 C2562 0.930 . S
H2557 C2566 0.930 . S
H2558 C2571 0.929 . S
H2559 C2569 0.929 . S
H2560 C2564 0.929 . S
H2561 C2570 0.929 . S
C2562 H2556 0.930 . S
C2562 C2563 1.367 . S
C2562 C2570 1.378 . S
C2563 C2562 1.367 . S
C2563 C2571 1.433 . S
C2564 H2560 0.929 . S
C2564 C2566 1.378 . S
C2564 C2568 1.350 . S
C2565 C2568 1.463 . S
C2565 C2570 1.350 . S
C2565 N2573 1.427 . S
C2566 H2557 0.930 . S
C2566 C2564 1.378 . S
C2566 C2567 1.367 . S
C2567 C2566 1.367 . S
C2567 C2569 1.433 . S
C2568 C2564 1.350 . S
C2568 C2565 1.463 . S
C2568 N2572 1.427 . S
C2569 H2559 0.929 . S
C2569 C2567 1.433 . S
C2569 N2572 1.384 . S
C2570 H2561 0.929 . S
C2570 C2562 1.378 . S
C2570 C2565 1.350 . S
C2571 H2558 0.929 . S
C2571 C2563 1.433 . S
C2571 N2573 1.384 . S
N2572 C2568 1.427 . S
N2572 C2569 1.384 . S
N2573 C2565 1.427 . S
N2573 C2571 1.384 . S
H2574 C2580 0.930 . S
H2575 C2584 0.930 . S
H2576 C2589 0.929 . S
H2577 C2587 0.929 . S
H2578 C2582 0.929 . S
H2579 C2588 0.929 . S
C2580 H2574 0.930 . S
C2580 C2581 1.367 . S
C2580 C2588 1.378 . S
C2581 C2580 1.367 . S
C2581 C2589 1.433 . S
C2582 H2578 0.929 . S
C2582 C2584 1.378 . S
C2582 C2586 1.350 . S
C2583 C2586 1.463 . S
C2583 C2588 1.350 . S
C2583 N2591 1.427 . S
C2584 H2575 0.930 . S
C2584 C2582 1.378 . S
C2584 C2585 1.367 . S
C2585 C2584 1.367 . S
C2585 C2587 1.433 . S
C2586 C2582 1.350 . S
C2586 C2583 1.463 . S
C2586 N2590 1.427 . S
C2587 H2577 0.929 . S
C2587 C2585 1.433 . S
C2587 N2590 1.384 . S
C2588 H2579 0.929 . S
C2588 C2580 1.378 . S
C2588 C2583 1.350 . S
C2589 H2576 0.929 . S
C2589 C2581 1.433 . S
C2589 N2591 1.384 . S
N2590 C2586 1.427 . S
N2590 C2587 1.384 . S
N2591 C2583 1.427 . S
N2591 C2589 1.384 . S
H2592 C2598 0.930 . S
H2593 C2602 0.930 . S
H2594 C2607 0.929 . S
H2595 C2605 0.929 . S
H2596 C2600 0.929 . S
H2597 C2606 0.929 . S
C2598 H2592 0.930 . S
C2598 C2599 1.367 . S
C2598 C2606 1.378 . S
C2599 C2598 1.367 . S
C2599 C2607 1.433 . S
C2600 H2596 0.929 . S
C2600 C2602 1.378 . S
C2600 C2604 1.350 . S
C2601 C2604 1.463 . S
C2601 C2606 1.350 . S
C2601 N2609 1.427 . S
C2602 H2593 0.930 . S
C2602 C2600 1.378 . S
C2602 C2603 1.367 . S
C2603 C2602 1.367 . S
C2603 C2605 1.433 . S
C2604 C2600 1.350 . S
C2604 C2601 1.463 . S
C2604 N2608 1.427 . S
C2605 H2595 0.929 . S
C2605 C2603 1.433 . S
C2605 N2608 1.384 . S
C2606 H2597 0.929 . S
C2606 C2598 1.378 . S
C2606 C2601 1.350 . S
C2607 H2594 0.929 . S
C2607 C2599 1.433 . S
C2607 N2609 1.384 . S
N2608 C2604 1.427 . S
N2608 C2605 1.384 . S
N2609 C2601 1.427 . S
N2609 C2607 1.384 . S
H2610 C2616 0.930 1_554 S
H2611 C2620 0.930 . S
H2612 C2625 0.929 . S
H2613 C2623 0.929 . S
H2614 C2618 0.929 . S
H2615 C2624 0.920 1_554 S
C2616 H2610 0.930 1_556 S
C2616 C2617 1.367 . S
C2616 C2624 1.380 . S
C2617 C2616 1.367 . S
C2617 C2625 1.433 . S
C2618 H2614 0.929 . S
C2618 C2620 1.378 . S
C2618 C2622 1.350 . S
C2619 C2622 1.463 . S
C2619 C2624 1.356 . S
C2619 N2627 1.427 . S
C2620 H2611 0.930 . S
C2620 C2618 1.378 . S
C2620 C2621 1.365 1_556 S
C2621 C2620 1.365 1_554 S
C2621 C2623 1.435 . S
C2622 C2618 1.350 . S
C2622 C2619 1.463 . S
C2622 N2626 1.427 1_556 S
C2623 H2613 0.929 . S
C2623 C2621 1.435 . S
C2623 N2626 1.384 . S
C2624 H2615 0.920 1_556 S
C2624 C2616 1.380 . S
C2624 C2619 1.356 . S
C2625 H2612 0.929 . S
C2625 C2617 1.433 . S
C2625 N2627 1.384 . S
N2626 C2622 1.427 1_554 S
N2626 C2623 1.384 . S
N2627 C2619 1.427 . S
N2627 C2625 1.384 . S
H2628 C2634 0.930 . S
H2629 C2638 0.930 . S
H2630 C2643 0.929 . S
H2631 C2641 0.929 . S
H2632 C2636 0.929 . S
H2633 C2642 0.929 . S
C2634 H2628 0.930 . S
C2634 C2635 1.367 . S
C2634 C2642 1.378 . S
C2635 C2634 1.367 . S
C2635 C2643 1.433 . S
C2636 H2632 0.929 . S
C2636 C2638 1.378 . S
C2636 C2640 1.350 . S
C2637 C2640 1.463 . S
C2637 C2642 1.350 . S
C2637 N2645 1.427 . S
C2638 H2629 0.930 . S
C2638 C2636 1.378 . S
C2638 C2639 1.367 . S
C2639 C2638 1.367 . S
C2639 C2641 1.433 . S
C2640 C2636 1.350 . S
C2640 C2637 1.463 . S
C2640 N2644 1.427 . S
C2641 H2631 0.929 . S
C2641 C2639 1.433 . S
C2641 N2644 1.384 . S
C2642 H2633 0.929 . S
C2642 C2634 1.378 . S
C2642 C2637 1.350 . S
C2643 H2630 0.929 . S
C2643 C2635 1.433 . S
C2643 N2645 1.384 . S
N2644 C2640 1.427 . S
N2644 C2641 1.384 . S
N2645 C2637 1.427 . S
N2645 C2643 1.384 . S
H2646 C2652 0.930 . S
H2647 C2656 0.930 . S
H2648 C2661 0.929 . S
H2649 C2659 0.929 . S
H2650 C2654 0.929 . S
H2651 C2660 0.929 . S
C2652 H2646 0.930 . S
C2652 C2653 1.367 . S
C2652 C2660 1.378 . S
C2653 C2652 1.367 . S
C2653 C2661 1.433 . S
C2654 H2650 0.929 . S
C2654 C2656 1.378 . S
C2654 C2658 1.350 . S
C2655 C2658 1.463 . S
C2655 C2660 1.350 . S
C2655 N2663 1.427 . S
C2656 H2647 0.930 . S
C2656 C2654 1.378 . S
C2656 C2657 1.367 . S
C2657 C2656 1.367 . S
C2657 C2659 1.433 . S
C2658 C2654 1.350 . S
C2658 C2655 1.463 . S
C2658 N2662 1.427 . S
C2659 H2649 0.929 . S
C2659 C2657 1.433 . S
C2659 N2662 1.384 . S
C2660 H2651 0.929 . S
C2660 C2652 1.378 . S
C2660 C2655 1.350 . S
C2661 H2648 0.929 . S
C2661 C2653 1.433 . S
C2661 N2663 1.384 . S
N2662 C2658 1.427 . S
N2662 C2659 1.384 . S
N2663 C2655 1.427 . S
N2663 C2661 1.384 . S
H2664 C2670 0.930 . S
H2665 C2674 0.930 . S
H2666 C2679 0.929 . S
H2667 C2677 0.929 . S
H2668 C2672 0.929 . S
H2669 C2678 0.929 . S
C2670 H2664 0.930 . S
C2670 C2671 1.367 . S
C2670 C2678 1.378 . S
C2671 C2670 1.367 . S
C2671 C2679 1.433 . S
C2672 H2668 0.929 . S
C2672 C2674 1.378 . S
C2672 C2676 1.350 . S
C2673 C2676 1.463 . S
C2673 C2678 1.350 . S
C2673 N2681 1.427 . S
C2674 H2665 0.930 . S
C2674 C2672 1.378 . S
C2674 C2675 1.367 . S
C2675 C2674 1.367 . S
C2675 C2677 1.433 . S
C2676 C2672 1.350 . S
C2676 C2673 1.463 . S
C2676 N2680 1.427 . S
C2677 H2667 0.929 . S
C2677 C2675 1.433 . S
C2677 N2680 1.384 . S
C2678 H2669 0.929 . S
C2678 C2670 1.378 . S
C2678 C2673 1.350 . S
C2679 H2666 0.929 . S
C2679 C2671 1.433 . S
C2679 N2681 1.384 . S
N2680 C2676 1.427 . S
N2680 C2677 1.384 . S
N2681 C2673 1.427 . S
N2681 C2679 1.384 . S
H2682 C2688 0.930 . S
H2683 C2692 0.930 . S
H2684 C2697 0.929 . S
H2685 C2695 0.929 . S
H2686 C2690 0.929 1_556 S
H2687 C2696 0.929 . S
C2688 H2682 0.930 . S
C2688 C2689 1.361 1_554 S
C2688 C2696 1.378 . S
C2689 C2688 1.361 1_556 S
C2689 C2697 1.437 . S
C2690 H2686 0.929 1_554 S
C2690 C2692 1.378 . S
C2690 C2694 1.350 . S
C2691 C2694 1.463 . S
C2691 C2696 1.350 . S
C2691 N2699 1.427 1_554 S
C2692 H2683 0.930 . S
C2692 C2690 1.378 . S
C2692 C2693 1.367 . S
C2693 C2692 1.367 . S
C2693 C2695 1.433 . S
C2694 C2690 1.350 . S
C2694 C2691 1.463 . S
C2694 N2698 1.427 . S
C2695 H2685 0.929 . S
C2695 C2693 1.433 . S
C2695 N2698 1.384 . S
C2696 H2687 0.929 . S
C2696 C2688 1.378 . S
C2696 C2691 1.350 . S
C2697 H2684 0.929 . S
C2697 C2689 1.437 . S
C2697 N2699 1.384 . S
N2698 C2694 1.427 . S
N2698 C2695 1.384 . S
N2699 C2691 1.427 1_556 S
N2699 C2697 1.384 . S
H2700 C2706 0.930 . S
H2701 C2710 0.930 . S
H2702 C2715 0.929 . S
H2703 C2713 0.929 . S
H2704 C2708 0.929 . S
H2705 C2714 0.929 . S
C2706 H2700 0.930 . S
C2706 C2707 1.367 . S
C2706 C2714 1.378 . S
C2707 C2706 1.367 . S
C2707 C2715 1.433 . S
C2708 H2704 0.929 . S
C2708 C2710 1.378 . S
C2708 C2712 1.350 . S
C2709 C2712 1.463 . S
C2709 C2714 1.350 . S
C2709 N2717 1.427 . S
C2710 H2701 0.930 . S
C2710 C2708 1.378 . S
C2710 C2711 1.367 . S
C2711 C2710 1.367 . S
C2711 C2713 1.433 . S
C2712 C2708 1.350 . S
C2712 C2709 1.463 . S
C2712 N2716 1.427 . S
C2713 H2703 0.929 . S
C2713 C2711 1.433 . S
C2713 N2716 1.384 . S
C2714 H2705 0.929 . S
C2714 C2706 1.378 . S
C2714 C2709 1.350 . S
C2715 H2702 0.929 . S
C2715 C2707 1.433 . S
C2715 N2717 1.384 . S
N2716 C2712 1.427 . S
N2716 C2713 1.384 . S
N2717 C2709 1.427 . S
N2717 C2715 1.384 . S
H2718 C2724 0.930 . S
H2719 C2728 0.930 . S
H2720 C2733 0.929 . S
H2721 C2731 0.929 . S
H2722 C2726 0.929 . S
H2723 C2732 0.929 . S
C2724 H2718 0.930 . S
C2724 C2725 1.367 . S
C2724 C2732 1.378 . S
C2725 C2724 1.367 . S
C2725 C2733 1.433 . S
C2726 H2722 0.929 . S
C2726 C2728 1.378 . S
C2726 C2730 1.350 . S
C2727 C2730 1.463 . S
C2727 C2732 1.350 . S
C2727 N2735 1.427 . S
C2728 H2719 0.930 . S
C2728 C2726 1.378 . S
C2728 C2729 1.367 . S
C2729 C2728 1.367 . S
C2729 C2731 1.433 . S
C2730 C2726 1.350 . S
C2730 C2727 1.463 . S
C2730 N2734 1.427 . S
C2731 H2721 0.929 . S
C2731 C2729 1.433 . S
C2731 N2734 1.384 . S
C2732 H2723 0.929 . S
C2732 C2724 1.378 . S
C2732 C2727 1.350 . S
C2733 H2720 0.929 . S
C2733 C2725 1.433 . S
C2733 N2735 1.384 . S
N2734 C2730 1.427 . S
N2734 C2731 1.384 . S
N2735 C2727 1.427 . S
N2735 C2733 1.384 . S
H2736 C2742 0.930 . S
H2737 C2746 0.930 . S
H2738 C2751 0.929 . S
H2739 C2749 0.929 . S
H2740 C2744 0.929 . S
H2741 C2750 0.929 . S
C2742 H2736 0.930 . S
C2742 C2743 1.367 . S
C2742 C2750 1.378 . S
C2743 C2742 1.367 . S
C2743 C2751 1.433 . S
C2744 H2740 0.929 . S
C2744 C2746 1.378 . S
C2744 C2748 1.350 . S
C2745 C2748 1.463 . S
C2745 C2750 1.350 . S
C2745 N2753 1.427 . S
C2746 H2737 0.930 . S
C2746 C2744 1.378 . S
C2746 C2747 1.367 . S
C2747 C2746 1.367 . S
C2747 C2749 1.433 . S
C2748 C2744 1.350 . S
C2748 C2745 1.463 . S
C2748 N2752 1.427 . S
C2749 H2739 0.929 . S
C2749 C2747 1.433 . S
C2749 N2752 1.384 . S
C2750 H2741 0.929 . S
C2750 C2742 1.378 . S
C2750 C2745 1.350 . S
C2751 H2738 0.929 . S
C2751 C2743 1.433 . S
C2751 N2753 1.384 . S
N2752 C2748 1.427 . S
N2752 C2749 1.384 . S
N2753 C2745 1.427 . S
N2753 C2751 1.384 . S
H2754 C2760 0.930 . S
H2755 C2764 0.930 . S
H2756 C2769 0.929 . S
H2757 C2767 0.929 . S
H2758 C2762 0.929 . S
H2759 C2768 0.929 . S
C2760 H2754 0.930 . S
C2760 C2761 1.367 . S
C2760 C2768 1.378 . S
C2761 C2760 1.367 . S
C2761 C2769 1.433 . S
C2762 H2758 0.929 . S
C2762 C2764 1.378 . S
C2762 C2766 1.350 . S
C2763 C2766 1.463 . S
C2763 C2768 1.350 . S
C2763 N2771 1.427 . S
C2764 H2755 0.930 . S
C2764 C2762 1.378 . S
C2764 C2765 1.367 . S
C2765 C2764 1.367 . S
C2765 C2767 1.433 . S
C2766 C2762 1.350 . S
C2766 C2763 1.463 . S
C2766 N2770 1.427 . S
C2767 H2757 0.929 . S
C2767 C2765 1.433 . S
C2767 N2770 1.384 . S
C2768 H2759 0.929 . S
C2768 C2760 1.378 . S
C2768 C2763 1.350 . S
C2769 H2756 0.929 . S
C2769 C2761 1.433 . S
C2769 N2771 1.384 . S
N2770 C2766 1.427 . S
N2770 C2767 1.384 . S
N2771 C2763 1.427 . S
N2771 C2769 1.384 . S
H2772 C2778 0.930 1_545 S
H2773 C2782 0.930 . S
H2774 C2787 0.929 . S
H2775 C2785 0.929 . S
H2776 C2780 0.929 . S
H2777 C2786 0.974 . S
C2778 H2772 0.930 1_565 S
C2778 C2779 1.367 . S
C2778 C2786 1.367 1_565 S
C2779 C2778 1.367 . S
C2779 C2787 1.433 . S
C2780 H2776 0.929 . S
C2780 C2782 1.378 . S
C2780 C2784 1.350 . S
C2781 C2784 1.463 . S
C2781 C2786 1.316 1_565 S
C2781 N2789 1.427 . S
C2782 H2773 0.930 . S
C2782 C2780 1.378 . S
C2782 C2783 1.366 1_565 S
C2783 C2782 1.366 1_545 S
C2783 C2785 1.434 . S
C2784 C2780 1.350 . S
C2784 C2781 1.463 . S
C2784 N2788 1.427 1_565 S
C2785 H2775 0.929 . S
C2785 C2783 1.434 . S
C2785 N2788 1.384 . S
C2786 H2777 0.974 . S
C2786 C2778 1.367 1_545 S
C2786 C2781 1.316 1_545 S
C2787 H2774 0.929 . S
C2787 C2779 1.433 . S
C2787 N2789 1.384 . S
N2788 C2784 1.427 1_545 S
N2788 C2785 1.384 . S
N2789 C2781 1.427 . S
N2789 C2787 1.384 . S
H2790 C2796 0.930 . S
H2791 C2800 0.930 . S
H2792 C2805 0.929 . S
H2793 C2803 0.929 . S
H2794 C2798 0.929 . S
H2795 C2804 0.929 . S
C2796 H2790 0.930 . S
C2796 C2797 1.367 . S
C2796 C2804 1.378 . S
C2797 C2796 1.367 . S
C2797 C2805 1.433 . S
C2798 H2794 0.929 . S
C2798 C2800 1.378 . S
C2798 C2802 1.350 . S
C2799 C2802 1.463 . S
C2799 C2804 1.350 . S
C2799 N2807 1.427 . S
C2800 H2791 0.930 . S
C2800 C2798 1.378 . S
C2800 C2801 1.367 . S
C2801 C2800 1.367 . S
C2801 C2803 1.433 . S
C2802 C2798 1.350 . S
C2802 C2799 1.463 . S
C2802 N2806 1.427 . S
C2803 H2793 0.929 . S
C2803 C2801 1.433 . S
C2803 N2806 1.384 . S
C2804 H2795 0.929 . S
C2804 C2796 1.378 . S
C2804 C2799 1.350 . S
C2805 H2792 0.929 . S
C2805 C2797 1.433 . S
C2805 N2807 1.384 . S
N2806 C2802 1.427 . S
N2806 C2803 1.384 . S
N2807 C2799 1.427 . S
N2807 C2805 1.384 . S
H2808 C2814 0.930 . S
H2809 C2818 0.930 . S
H2810 C2823 0.929 . S
H2811 C2821 0.929 . S
H2812 C2816 0.929 . S
H2813 C2822 0.929 . S
C2814 H2808 0.930 . S
C2814 C2815 1.367 . S
C2814 C2822 1.378 . S
C2815 C2814 1.367 . S
C2815 C2823 1.433 . S
C2816 H2812 0.929 . S
C2816 C2818 1.378 . S
C2816 C2820 1.350 . S
C2817 C2820 1.463 . S
C2817 C2822 1.350 . S
C2817 N2825 1.427 . S
C2818 H2809 0.930 . S
C2818 C2816 1.378 . S
C2818 C2819 1.367 . S
C2819 C2818 1.367 . S
C2819 C2821 1.433 . S
C2820 C2816 1.350 . S
C2820 C2817 1.463 . S
C2820 N2824 1.427 . S
C2821 H2811 0.929 . S
C2821 C2819 1.433 . S
C2821 N2824 1.384 . S
C2822 H2813 0.929 . S
C2822 C2814 1.378 . S
C2822 C2817 1.350 . S
C2823 H2810 0.929 . S
C2823 C2815 1.433 . S
C2823 N2825 1.384 . S
N2824 C2820 1.427 . S
N2824 C2821 1.384 . S
N2825 C2817 1.427 . S
N2825 C2823 1.384 . S
H2826 C2832 0.930 . S
H2827 C2836 0.930 . S
H2828 C2841 0.929 . S
H2829 C2839 0.929 . S
H2830 C2834 0.929 . S
H2831 C2840 0.929 . S
C2832 H2826 0.930 . S
C2832 C2833 1.367 . S
C2832 C2840 1.378 . S
C2833 C2832 1.367 . S
C2833 C2841 1.433 . S
C2834 H2830 0.929 . S
C2834 C2836 1.378 . S
C2834 C2838 1.350 . S
C2835 C2838 1.463 . S
C2835 C2840 1.350 . S
C2835 N2843 1.427 . S
C2836 H2827 0.930 . S
C2836 C2834 1.378 . S
C2836 C2837 1.367 . S
C2837 C2836 1.367 . S
C2837 C2839 1.433 . S
C2838 C2834 1.350 . S
C2838 C2835 1.463 . S
C2838 N2842 1.427 . S
C2839 H2829 0.929 . S
C2839 C2837 1.433 . S
C2839 N2842 1.384 . S
C2840 H2831 0.929 . S
C2840 C2832 1.378 . S
C2840 C2835 1.350 . S
C2841 H2828 0.929 . S
C2841 C2833 1.433 . S
C2841 N2843 1.384 . S
N2842 C2838 1.427 . S
N2842 C2839 1.384 . S
N2843 C2835 1.427 . S
N2843 C2841 1.384 . S
H2844 C2850 0.930 . S
H2845 C2854 0.930 . S
H2846 C2859 0.929 . S
H2847 C2857 0.929 . S
H2848 C2852 0.929 . S
H2849 C2858 0.929 . S
C2850 H2844 0.930 . S
C2850 C2851 1.370 . S
C2850 C2858 1.378 1_565 S
C2851 C2850 1.370 . S
C2851 C2859 1.423 1_565 S
C2852 H2848 0.929 . S
C2852 C2854 1.378 . S
C2852 C2856 1.350 . S
C2853 C2856 1.463 . S
C2853 C2858 1.350 . S
C2853 N2861 1.427 . S
C2854 H2845 0.930 . S
C2854 C2852 1.378 . S
C2854 C2855 1.367 . S
C2855 C2854 1.367 . S
C2855 C2857 1.433 . S
C2856 C2852 1.350 . S
C2856 C2853 1.463 . S
C2856 N2860 1.427 . S
C2857 H2847 0.929 . S
C2857 C2855 1.433 . S
C2857 N2860 1.384 . S
C2858 H2849 0.929 . S
C2858 C2850 1.378 1_545 S
C2858 C2853 1.350 . S
C2859 H2846 0.929 . S
C2859 C2851 1.423 1_545 S
C2859 N2861 1.384 . S
N2860 C2856 1.427 . S
N2860 C2857 1.384 . S
N2861 C2853 1.427 . S
N2861 C2859 1.384 . S
H2862 C2868 0.930 1_645 S
H2863 C2872 0.930 . S
H2864 C2877 0.929 . S
H2865 C2875 0.929 . S
H2866 C2870 0.929 . S
H2867 C2876 0.940 . S
C2868 H2862 0.930 1_465 S
C2868 C2869 1.367 1_455 S
C2868 C2876 1.375 1_565 S
C2869 C2868 1.367 1_655 S
C2869 C2877 1.433 1_655 S
C2870 H2866 0.929 . S
C2870 C2872 1.378 . S
C2870 C2874 1.350 . S
C2871 C2874 1.463 . S
C2871 C2876 1.341 1_565 S
C2871 N2879 1.427 . S
C2872 H2863 0.930 . S
C2872 C2870 1.378 . S
C2872 C2873 1.365 1_565 S
C2873 C2872 1.365 1_545 S
C2873 C2875 1.434 . S
C2874 C2870 1.350 . S
C2874 C2871 1.463 . S
C2874 N2878 1.427 1_565 S
C2875 H2865 0.929 . S
C2875 C2873 1.434 . S
C2875 N2878 1.384 . S
C2876 H2867 0.940 . S
C2876 C2868 1.375 1_545 S
C2876 C2871 1.341 1_545 S
C2877 H2864 0.929 . S
C2877 C2869 1.433 1_455 S
C2877 N2879 1.384 . S
N2878 C2874 1.427 1_545 S
N2878 C2875 1.384 . S
N2879 C2871 1.427 . S
N2879 C2877 1.384 . S
H2880 C2886 0.930 . S
H2881 C2890 0.930 . S
H2882 C2895 0.929 . S
H2883 C2893 0.929 . S
H2884 C2888 0.929 . S
H2885 C2894 0.929 . S
C2886 H2880 0.930 . S
C2886 C2887 1.367 . S
C2886 C2894 1.378 . S
C2887 C2886 1.367 . S
C2887 C2895 1.433 . S
C2888 H2884 0.929 . S
C2888 C2890 1.378 . S
C2888 C2892 1.350 . S
C2889 C2892 1.463 . S
C2889 C2894 1.350 . S
C2889 N2897 1.427 . S
C2890 H2881 0.930 . S
C2890 C2888 1.378 . S
C2890 C2891 1.367 . S
C2891 C2890 1.367 . S
C2891 C2893 1.433 . S
C2892 C2888 1.350 . S
C2892 C2889 1.463 . S
C2892 N2896 1.427 . S
C2893 H2883 0.929 . S
C2893 C2891 1.433 . S
C2893 N2896 1.384 . S
C2894 H2885 0.929 . S
C2894 C2886 1.378 . S
C2894 C2889 1.350 . S
C2895 H2882 0.929 . S
C2895 C2887 1.433 . S
C2895 N2897 1.384 . S
N2896 C2892 1.427 . S
N2896 C2893 1.384 . S
N2897 C2889 1.427 . S
N2897 C2895 1.384 . S
H2898 C2904 0.930 . S
H2899 C2908 0.930 . S
H2900 C2913 0.929 . S
H2901 C2911 0.929 . S
H2902 C2906 0.929 . S
H2903 C2912 0.929 . S
C2904 H2898 0.930 . S
C2904 C2905 1.367 . S
C2904 C2912 1.378 . S
C2905 C2904 1.367 . S
C2905 C2913 1.433 . S
C2906 H2902 0.929 . S
C2906 C2908 1.378 . S
C2906 C2910 1.350 . S
C2907 C2910 1.463 . S
C2907 C2912 1.350 . S
C2907 N2915 1.427 . S
C2908 H2899 0.930 . S
C2908 C2906 1.378 . S
C2908 C2909 1.367 . S
C2909 C2908 1.367 . S
C2909 C2911 1.433 . S
C2910 C2906 1.350 . S
C2910 C2907 1.463 . S
C2910 N2914 1.427 . S
C2911 H2901 0.929 . S
C2911 C2909 1.433 . S
C2911 N2914 1.384 . S
C2912 H2903 0.929 . S
C2912 C2904 1.378 . S
C2912 C2907 1.350 . S
C2913 H2900 0.929 . S
C2913 C2905 1.433 . S
C2913 N2915 1.384 . S
N2914 C2910 1.427 . S
N2914 C2911 1.384 . S
N2915 C2907 1.427 . S
N2915 C2913 1.384 . S
H2916 C2922 0.930 . S
H2917 C2926 0.930 . S
H2918 C2931 0.929 . S
H2919 C2929 0.929 . S
H2920 C2924 0.929 . S
H2921 C2930 0.929 . S
C2922 H2916 0.930 . S
C2922 C2923 1.367 . S
C2922 C2930 1.378 . S
C2923 C2922 1.367 . S
C2923 C2931 1.433 . S
C2924 H2920 0.929 . S
C2924 C2926 1.378 . S
C2924 C2928 1.350 . S
C2925 C2928 1.463 . S
C2925 C2930 1.350 . S
C2925 N2933 1.427 . S
C2926 H2917 0.930 . S
C2926 C2924 1.378 . S
C2926 C2927 1.367 . S
C2927 C2926 1.367 . S
C2927 C2929 1.433 . S
C2928 C2924 1.350 . S
C2928 C2925 1.463 . S
C2928 N2932 1.427 . S
C2929 H2919 0.929 . S
C2929 C2927 1.433 . S
C2929 N2932 1.384 . S
C2930 H2921 0.929 . S
C2930 C2922 1.378 . S
C2930 C2925 1.350 . S
C2931 H2918 0.929 . S
C2931 C2923 1.433 . S
C2931 N2933 1.384 . S
N2932 C2928 1.427 . S
N2932 C2929 1.384 . S
N2933 C2925 1.427 . S
N2933 C2931 1.384 . S
H2934 C2940 0.930 . S
H2935 C2944 0.930 . S
H2936 C2949 0.929 . S
H2937 C2947 0.929 . S
H2938 C2942 0.929 . S
H2939 C2948 0.929 . S
C2940 H2934 0.930 . S
C2940 C2941 1.367 . S
C2940 C2948 1.378 . S
C2941 C2940 1.367 . S
C2941 C2949 1.433 . S
C2942 H2938 0.929 . S
C2942 C2944 1.378 . S
C2942 C2946 1.350 . S
C2943 C2946 1.463 . S
C2943 C2948 1.350 . S
C2943 N2951 1.427 . S
C2944 H2935 0.930 . S
C2944 C2942 1.378 . S
C2944 C2945 1.367 . S
C2945 C2944 1.367 . S
C2945 C2947 1.433 . S
C2946 C2942 1.350 . S
C2946 C2943 1.463 . S
C2946 N2950 1.427 . S
C2947 H2937 0.929 . S
C2947 C2945 1.433 . S
C2947 N2950 1.384 . S
C2948 H2939 0.929 . S
C2948 C2940 1.378 . S
C2948 C2943 1.350 . S
C2949 H2936 0.929 . S
C2949 C2941 1.433 . S
C2949 N2951 1.384 . S
N2950 C2946 1.427 . S
N2950 C2947 1.384 . S
N2951 C2943 1.427 . S
N2951 C2949 1.384 . S
H2952 C2958 0.930 . S
H2953 C2962 0.930 . S
H2954 C2967 0.929 . S
H2955 C2965 0.929 . S
H2956 C2960 0.929 . S
H2957 C2966 0.929 . S
C2958 H2952 0.930 . S
C2958 C2959 1.367 . S
C2958 C2966 1.378 . S
C2959 C2958 1.367 . S
C2959 C2967 1.433 . S
C2960 H2956 0.929 . S
C2960 C2962 1.378 . S
C2960 C2964 1.350 . S
C2961 C2964 1.463 . S
C2961 C2966 1.350 . S
C2961 N2969 1.427 . S
C2962 H2953 0.930 . S
C2962 C2960 1.378 . S
C2962 C2963 1.367 . S
C2963 C2962 1.367 . S
C2963 C2965 1.433 . S
C2964 C2960 1.350 . S
C2964 C2961 1.463 . S
C2964 N2968 1.427 . S
C2965 H2955 0.929 . S
C2965 C2963 1.433 . S
C2965 N2968 1.384 . S
C2966 H2957 0.929 . S
C2966 C2958 1.378 . S
C2966 C2961 1.350 . S
C2967 H2954 0.929 . S
C2967 C2959 1.433 . S
C2967 N2969 1.384 . S
N2968 C2964 1.427 . S
N2968 C2965 1.384 . S
N2969 C2961 1.427 . S
N2969 C2967 1.384 . S
H2970 C2976 0.930 . S
H2971 C2980 0.930 . S
H2972 C2985 0.929 . S
H2973 C2983 0.929 . S
H2974 C2978 0.929 . S
H2975 C2984 0.929 . S
C2976 H2970 0.930 . S
C2976 C2977 1.367 . S
C2976 C2984 1.378 . S
C2977 C2976 1.367 . S
C2977 C2985 1.433 . S
C2978 H2974 0.929 . S
C2978 C2980 1.378 . S
C2978 C2982 1.350 . S
C2979 C2982 1.463 . S
C2979 C2984 1.350 . S
C2979 N2987 1.427 . S
C2980 H2971 0.930 . S
C2980 C2978 1.378 . S
C2980 C2981 1.367 . S
C2981 C2980 1.367 . S
C2981 C2983 1.433 . S
C2982 C2978 1.350 . S
C2982 C2979 1.463 . S
C2982 N2986 1.427 . S
C2983 H2973 0.929 . S
C2983 C2981 1.433 . S
C2983 N2986 1.384 . S
C2984 H2975 0.929 . S
C2984 C2976 1.378 . S
C2984 C2979 1.350 . S
C2985 H2972 0.929 . S
C2985 C2977 1.433 . S
C2985 N2987 1.384 . S
N2986 C2982 1.427 . S
N2986 C2983 1.384 . S
N2987 C2979 1.427 . S
N2987 C2985 1.384 . S
H2988 C2994 0.930 . S
H2989 C2998 0.930 . S
H2990 C3003 0.929 . S
H2991 C3001 0.929 . S
H2992 C2996 0.929 . S
H2993 C3002 0.929 . S
C2994 H2988 0.930 . S
C2994 C2995 1.367 . S
C2994 C3002 1.378 . S
C2995 C2994 1.367 . S
C2995 C3003 1.433 . S
C2996 H2992 0.929 . S
C2996 C2998 1.378 . S
C2996 C3000 1.350 . S
C2997 C3000 1.463 . S
C2997 C3002 1.350 . S
C2997 N3005 1.427 . S
C2998 H2989 0.930 . S
C2998 C2996 1.378 . S
C2998 C2999 1.367 . S
C2999 C2998 1.367 . S
C2999 C3001 1.433 . S
C3000 C2996 1.350 . S
C3000 C2997 1.463 . S
C3000 N3004 1.427 . S
C3001 H2991 0.929 . S
C3001 C2999 1.433 . S
C3001 N3004 1.384 . S
C3002 H2993 0.929 . S
C3002 C2994 1.378 . S
C3002 C2997 1.350 . S
C3003 H2990 0.929 . S
C3003 C2995 1.433 . S
C3003 N3005 1.384 . S
N3004 C3000 1.427 . S
N3004 C3001 1.384 . S
N3005 C2997 1.427 . S
N3005 C3003 1.384 . S
H3006 C3012 0.930 . S
H3007 C3016 0.930 . S
H3008 C3021 0.929 . S
H3009 C3019 0.929 . S
H3010 C3014 0.929 . S
H3011 C3020 0.929 . S
C3012 H3006 0.930 . S
C3012 C3013 1.367 . S
C3012 C3020 1.378 . S
C3013 C3012 1.367 . S
C3013 C3021 1.433 . S
C3014 H3010 0.929 . S
C3014 C3016 1.378 . S
C3014 C3018 1.350 . S
C3015 C3018 1.463 . S
C3015 C3020 1.350 . S
C3015 N3023 1.427 . S
C3016 H3007 0.930 . S
C3016 C3014 1.378 . S
C3016 C3017 1.367 . S
C3017 C3016 1.367 . S
C3017 C3019 1.433 . S
C3018 C3014 1.350 . S
C3018 C3015 1.463 . S
C3018 N3022 1.427 . S
C3019 H3009 0.929 . S
C3019 C3017 1.433 . S
C3019 N3022 1.384 . S
C3020 H3011 0.929 . S
C3020 C3012 1.378 . S
C3020 C3015 1.350 . S
C3021 H3008 0.929 . S
C3021 C3013 1.433 . S
C3021 N3023 1.384 . S
N3022 C3018 1.427 . S
N3022 C3019 1.384 . S
N3023 C3015 1.427 . S
N3023 C3021 1.384 . S
H3024 C3030 0.930 . S
H3025 C3034 0.930 . S
H3026 C3039 0.929 . S
H3027 C3037 0.929 . S
H3028 C3032 0.929 . S
H3029 C3038 0.929 . S
C3030 H3024 0.930 . S
C3030 C3031 1.367 . S
C3030 C3038 1.378 . S
C3031 C3030 1.367 . S
C3031 C3039 1.433 . S
C3032 H3028 0.929 . S
C3032 C3034 1.378 . S
C3032 C3036 1.350 . S
C3033 C3036 1.463 . S
C3033 C3038 1.350 . S
C3033 N3041 1.427 . S
C3034 H3025 0.930 . S
C3034 C3032 1.378 . S
C3034 C3035 1.367 . S
C3035 C3034 1.367 . S
C3035 C3037 1.433 . S
C3036 C3032 1.350 . S
C3036 C3033 1.463 . S
C3036 N3040 1.427 . S
C3037 H3027 0.929 . S
C3037 C3035 1.433 . S
C3037 N3040 1.384 . S
C3038 H3029 0.929 . S
C3038 C3030 1.378 . S
C3038 C3033 1.350 . S
C3039 H3026 0.929 . S
C3039 C3031 1.433 . S
C3039 N3041 1.384 . S
N3040 C3036 1.427 . S
N3040 C3037 1.384 . S
N3041 C3033 1.427 . S
N3041 C3039 1.384 . S
H3042 C3048 0.930 . S
H3043 C3052 0.930 . S
H3044 C3057 0.929 . S
H3045 C3055 0.929 . S
H3046 C3050 0.929 . S
H3047 C3056 0.929 . S
C3048 H3042 0.930 . S
C3048 C3049 1.367 . S
C3048 C3056 1.378 . S
C3049 C3048 1.367 . S
C3049 C3057 1.433 . S
C3050 H3046 0.929 . S
C3050 C3052 1.378 . S
C3050 C3054 1.350 . S
C3051 C3054 1.463 . S
C3051 C3056 1.350 . S
C3051 N3059 1.427 . S
C3052 H3043 0.930 . S
C3052 C3050 1.378 . S
C3052 C3053 1.367 . S
C3053 C3052 1.367 . S
C3053 C3055 1.433 . S
C3054 C3050 1.350 . S
C3054 C3051 1.463 . S
C3054 N3058 1.427 . S
C3055 H3045 0.929 . S
C3055 C3053 1.433 . S
C3055 N3058 1.384 . S
C3056 H3047 0.929 . S
C3056 C3048 1.378 . S
C3056 C3051 1.350 . S
C3057 H3044 0.929 . S
C3057 C3049 1.433 . S
C3057 N3059 1.384 . S
N3058 C3054 1.427 . S
N3058 C3055 1.384 . S
N3059 C3051 1.427 . S
N3059 C3057 1.384 . S
H3060 C3066 0.930 . S
H3061 C3070 0.930 . S
H3062 C3075 0.929 . S
H3063 C3073 0.929 . S
H3064 C3068 0.929 . S
H3065 C3074 0.929 . S
C3066 H3060 0.930 . S
C3066 C3067 1.367 . S
C3066 C3074 1.378 . S
C3067 C3066 1.367 . S
C3067 C3075 1.433 . S
C3068 H3064 0.929 . S
C3068 C3070 1.378 . S
C3068 C3072 1.350 . S
C3069 C3072 1.463 . S
C3069 C3074 1.350 . S
C3069 N3077 1.427 . S
C3070 H3061 0.930 . S
C3070 C3068 1.378 . S
C3070 C3071 1.367 . S
C3071 C3070 1.367 . S
C3071 C3073 1.433 . S
C3072 C3068 1.350 . S
C3072 C3069 1.463 . S
C3072 N3076 1.427 . S
C3073 H3063 0.929 . S
C3073 C3071 1.433 . S
C3073 N3076 1.384 . S
C3074 H3065 0.929 . S
C3074 C3066 1.378 . S
C3074 C3069 1.350 . S
C3075 H3062 0.929 . S
C3075 C3067 1.433 . S
C3075 N3077 1.384 . S
N3076 C3072 1.427 . S
N3076 C3073 1.384 . S
N3077 C3069 1.427 . S
N3077 C3075 1.384 . S
H3078 C3084 0.930 . S
H3079 C3088 0.930 . S
H3080 C3093 0.929 . S
H3081 C3091 0.929 . S
H3082 C3086 0.929 . S
H3083 C3092 0.929 . S
C3084 H3078 0.930 . S
C3084 C3085 1.367 . S
C3084 C3092 1.378 . S
C3085 C3084 1.367 . S
C3085 C3093 1.433 . S
C3086 H3082 0.929 . S
C3086 C3088 1.378 . S
C3086 C3090 1.350 . S
C3087 C3090 1.463 . S
C3087 C3092 1.350 . S
C3087 N3095 1.427 . S
C3088 H3079 0.930 . S
C3088 C3086 1.378 . S
C3088 C3089 1.367 . S
C3089 C3088 1.367 . S
C3089 C3091 1.433 . S
C3090 C3086 1.350 . S
C3090 C3087 1.463 . S
C3090 N3094 1.427 . S
C3091 H3081 0.929 . S
C3091 C3089 1.433 . S
C3091 N3094 1.384 . S
C3092 H3083 0.929 . S
C3092 C3084 1.378 . S
C3092 C3087 1.350 . S
C3093 H3080 0.929 . S
C3093 C3085 1.433 . S
C3093 N3095 1.384 . S
N3094 C3090 1.427 . S
N3094 C3091 1.384 . S
N3095 C3087 1.427 . S
N3095 C3093 1.384 . S
H3096 C3102 0.930 . S
H3097 C3106 0.930 . S
H3098 C3111 0.929 . S
H3099 C3109 0.929 . S
H3100 C3104 0.929 . S
H3101 C3110 0.929 . S
C3102 H3096 0.930 . S
C3102 C3103 1.367 . S
C3102 C3110 1.378 . S
C3103 C3102 1.367 . S
C3103 C3111 1.433 . S
C3104 H3100 0.929 . S
C3104 C3106 1.378 . S
C3104 C3108 1.350 . S
C3105 C3108 1.463 . S
C3105 C3110 1.350 . S
C3105 N3113 1.427 . S
C3106 H3097 0.930 . S
C3106 C3104 1.378 . S
C3106 C3107 1.367 . S
C3107 C3106 1.367 . S
C3107 C3109 1.433 . S
C3108 C3104 1.350 . S
C3108 C3105 1.463 . S
C3108 N3112 1.427 . S
C3109 H3099 0.929 . S
C3109 C3107 1.433 . S
C3109 N3112 1.384 . S
C3110 H3101 0.929 . S
C3110 C3102 1.378 . S
C3110 C3105 1.350 . S
C3111 H3098 0.929 . S
C3111 C3103 1.433 . S
C3111 N3113 1.384 . S
N3112 C3108 1.427 . S
N3112 C3109 1.384 . S
N3113 C3105 1.427 . S
N3113 C3111 1.384 . S
H3114 C3120 0.930 . S
H3115 C3124 0.930 . S
H3116 C3129 0.929 . S
H3117 C3127 0.929 . S
H3118 C3122 0.929 . S
H3119 C3128 0.929 . S
C3120 H3114 0.930 . S
C3120 C3121 1.367 . S
C3120 C3128 1.378 . S
C3121 C3120 1.367 . S
C3121 C3129 1.433 . S
C3122 H3118 0.929 . S
C3122 C3124 1.378 . S
C3122 C3126 1.350 . S
C3123 C3126 1.463 . S
C3123 C3128 1.350 . S
C3123 N3131 1.427 . S
C3124 H3115 0.930 . S
C3124 C3122 1.378 . S
C3124 C3125 1.367 . S
C3125 C3124 1.367 . S
C3125 C3127 1.433 . S
C3126 C3122 1.350 . S
C3126 C3123 1.463 . S
C3126 N3130 1.427 . S
C3127 H3117 0.929 . S
C3127 C3125 1.433 . S
C3127 N3130 1.384 . S
C3128 H3119 0.929 . S
C3128 C3120 1.378 . S
C3128 C3123 1.350 . S
C3129 H3116 0.929 . S
C3129 C3121 1.433 . S
C3129 N3131 1.384 . S
N3130 C3126 1.427 . S
N3130 C3127 1.384 . S
N3131 C3123 1.427 . S
N3131 C3129 1.384 . S
H3132 C3138 0.930 . S
H3133 C3142 0.930 . S
H3134 C3147 0.929 . S
H3135 C3145 0.929 . S
H3136 C3140 0.929 . S
H3137 C3146 0.929 . S
C3138 H3132 0.930 . S
C3138 C3139 1.367 . S
C3138 C3146 1.378 . S
C3139 C3138 1.367 . S
C3139 C3147 1.433 . S
C3140 H3136 0.929 . S
C3140 C3142 1.378 . S
C3140 C3144 1.350 . S
C3141 C3144 1.463 . S
C3141 C3146 1.350 . S
C3141 N3149 1.427 . S
C3142 H3133 0.930 . S
C3142 C3140 1.378 . S
C3142 C3143 1.367 . S
C3143 C3142 1.367 . S
C3143 C3145 1.433 . S
C3144 C3140 1.350 . S
C3144 C3141 1.463 . S
C3144 N3148 1.427 . S
C3145 H3135 0.929 . S
C3145 C3143 1.433 . S
C3145 N3148 1.384 . S
C3146 H3137 0.929 . S
C3146 C3138 1.378 . S
C3146 C3141 1.350 . S
C3147 H3134 0.929 . S
C3147 C3139 1.433 . S
C3147 N3149 1.384 . S
N3148 C3144 1.427 . S
N3148 C3145 1.384 . S
N3149 C3141 1.427 . S
N3149 C3147 1.384 . S
H3150 C3156 0.930 . S
H3151 C3160 0.930 . S
H3152 C3165 0.929 . S
H3153 C3163 0.929 . S
H3154 C3158 0.929 . S
H3155 C3164 0.929 . S
C3156 H3150 0.930 . S
C3156 C3157 1.367 . S
C3156 C3164 1.378 . S
C3157 C3156 1.367 . S
C3157 C3165 1.433 . S
C3158 H3154 0.929 . S
C3158 C3160 1.378 . S
C3158 C3162 1.350 . S
C3159 C3162 1.463 . S
C3159 C3164 1.350 . S
C3159 N3167 1.427 . S
C3160 H3151 0.930 . S
C3160 C3158 1.378 . S
C3160 C3161 1.367 . S
C3161 C3160 1.367 . S
C3161 C3163 1.433 . S
C3162 C3158 1.350 . S
C3162 C3159 1.463 . S
C3162 N3166 1.427 . S
C3163 H3153 0.929 . S
C3163 C3161 1.433 . S
C3163 N3166 1.384 . S
C3164 H3155 0.929 . S
C3164 C3156 1.378 . S
C3164 C3159 1.350 . S
C3165 H3152 0.929 . S
C3165 C3157 1.433 . S
C3165 N3167 1.384 . S
N3166 C3162 1.427 . S
N3166 C3163 1.384 . S
N3167 C3159 1.427 . S
N3167 C3165 1.384 . S
H3168 C3174 0.930 . S
H3169 C3178 0.930 . S
H3170 C3183 0.929 . S
H3171 C3181 0.929 . S
H3172 C3176 0.929 . S
H3173 C3182 0.929 . S
C3174 H3168 0.930 . S
C3174 C3175 1.367 . S
C3174 C3182 1.378 . S
C3175 C3174 1.367 . S
C3175 C3183 1.433 . S
C3176 H3172 0.929 . S
C3176 C3178 1.378 . S
C3176 C3180 1.350 . S
C3177 C3180 1.463 . S
C3177 C3182 1.350 . S
C3177 N3185 1.427 . S
C3178 H3169 0.930 . S
C3178 C3176 1.378 . S
C3178 C3179 1.367 . S
C3179 C3178 1.367 . S
C3179 C3181 1.433 . S
C3180 C3176 1.350 . S
C3180 C3177 1.463 . S
C3180 N3184 1.427 . S
C3181 H3171 0.929 . S
C3181 C3179 1.433 . S
C3181 N3184 1.384 . S
C3182 H3173 0.929 . S
C3182 C3174 1.378 . S
C3182 C3177 1.350 . S
C3183 H3170 0.929 . S
C3183 C3175 1.433 . S
C3183 N3185 1.384 . S
N3184 C3180 1.427 . S
N3184 C3181 1.384 . S
N3185 C3177 1.427 . S
N3185 C3183 1.384 . S
H3186 C3192 0.930 . S
H3187 C3196 0.930 . S
H3188 C3201 0.929 . S
H3189 C3199 0.929 . S
H3190 C3194 0.929 . S
H3191 C3200 0.929 . S
C3192 H3186 0.930 . S
C3192 C3193 1.367 . S
C3192 C3200 1.378 . S
C3193 C3192 1.367 . S
C3193 C3201 1.433 . S
C3194 H3190 0.929 . S
C3194 C3196 1.378 . S
C3194 C3198 1.350 . S
C3195 C3198 1.463 . S
C3195 C3200 1.350 . S
C3195 N3203 1.427 . S
C3196 H3187 0.930 . S
C3196 C3194 1.378 . S
C3196 C3197 1.367 . S
C3197 C3196 1.367 . S
C3197 C3199 1.433 . S
C3198 C3194 1.350 . S
C3198 C3195 1.463 . S
C3198 N3202 1.427 . S
C3199 H3189 0.929 . S
C3199 C3197 1.433 . S
C3199 N3202 1.384 . S
C3200 H3191 0.929 . S
C3200 C3192 1.378 . S
C3200 C3195 1.350 . S
C3201 H3188 0.929 . S
C3201 C3193 1.433 . S
C3201 N3203 1.384 . S
N3202 C3198 1.427 . S
N3202 C3199 1.384 . S
N3203 C3195 1.427 . S
N3203 C3201 1.384 . S
H3204 C3210 0.930 . S
H3205 C3214 0.930 . S
H3206 C3219 0.929 . S
H3207 C3217 0.929 . S
H3208 C3212 0.929 . S
H3209 C3218 0.929 . S
C3210 H3204 0.930 . S
C3210 C3211 1.367 . S
C3210 C3218 1.378 . S
C3211 C3210 1.367 . S
C3211 C3219 1.433 . S
C3212 H3208 0.929 . S
C3212 C3214 1.378 . S
C3212 C3216 1.350 . S
C3213 C3216 1.463 . S
C3213 C3218 1.350 . S
C3213 N3221 1.427 . S
C3214 H3205 0.930 . S
C3214 C3212 1.378 . S
C3214 C3215 1.367 . S
C3215 C3214 1.367 . S
C3215 C3217 1.433 . S
C3216 C3212 1.350 . S
C3216 C3213 1.463 . S
C3216 N3220 1.427 . S
C3217 H3207 0.929 . S
C3217 C3215 1.433 . S
C3217 N3220 1.384 . S
C3218 H3209 0.929 . S
C3218 C3210 1.378 . S
C3218 C3213 1.350 . S
C3219 H3206 0.929 . S
C3219 C3211 1.433 . S
C3219 N3221 1.384 . S
N3220 C3216 1.427 . S
N3220 C3217 1.384 . S
N3221 C3213 1.427 . S
N3221 C3219 1.384 . S
H3222 C3228 0.930 . S
H3223 C3232 0.930 . S
H3224 C3237 0.929 . S
H3225 C3235 0.929 . S
H3226 C3230 0.929 . S
H3227 C3236 0.929 . S
C3228 H3222 0.930 . S
C3228 C3229 1.367 . S
C3228 C3236 1.378 . S
C3229 C3228 1.367 . S
C3229 C3237 1.433 . S
C3230 H3226 0.929 . S
C3230 C3232 1.378 . S
C3230 C3234 1.350 . S
C3231 C3234 1.463 . S
C3231 C3236 1.350 . S
C3231 N3239 1.427 . S
C3232 H3223 0.930 . S
C3232 C3230 1.378 . S
C3232 C3233 1.367 . S
C3233 C3232 1.367 . S
C3233 C3235 1.433 . S
C3234 C3230 1.350 . S
C3234 C3231 1.463 . S
C3234 N3238 1.427 . S
C3235 H3225 0.929 . S
C3235 C3233 1.433 . S
C3235 N3238 1.384 . S
C3236 H3227 0.929 . S
C3236 C3228 1.378 . S
C3236 C3231 1.350 . S
C3237 H3224 0.929 . S
C3237 C3229 1.433 . S
C3237 N3239 1.384 . S
N3238 C3234 1.427 . S
N3238 C3235 1.384 . S
N3239 C3231 1.427 . S
N3239 C3237 1.384 . S
H3240 C3246 0.930 . S
H3241 C3250 0.930 . S
H3242 C3255 0.929 . S
H3243 C3253 0.929 . S
H3244 C3248 0.929 . S
H3245 C3254 0.929 . S
C3246 H3240 0.930 . S
C3246 C3247 1.367 . S
C3246 C3254 1.378 . S
C3247 C3246 1.367 . S
C3247 C3255 1.433 . S
C3248 H3244 0.929 . S
C3248 C3250 1.378 . S
C3248 C3252 1.350 . S
C3249 C3252 1.463 . S
C3249 C3254 1.350 . S
C3249 N3257 1.427 . S
C3250 H3241 0.930 . S
C3250 C3248 1.378 . S
C3250 C3251 1.367 . S
C3251 C3250 1.367 . S
C3251 C3253 1.433 . S
C3252 C3248 1.350 . S
C3252 C3249 1.463 . S
C3252 N3256 1.427 . S
C3253 H3243 0.929 . S
C3253 C3251 1.433 . S
C3253 N3256 1.384 . S
C3254 H3245 0.929 . S
C3254 C3246 1.378 . S
C3254 C3249 1.350 . S
C3255 H3242 0.929 . S
C3255 C3247 1.433 . S
C3255 N3257 1.384 . S
N3256 C3252 1.427 . S
N3256 C3253 1.384 . S
N3257 C3249 1.427 . S
N3257 C3255 1.384 . S
H3258 C3264 0.930 . S
H3259 C3268 0.930 . S
H3260 C3273 0.929 . S
H3261 C3271 0.929 . S
H3262 C3266 0.929 . S
H3263 C3272 0.929 . S
C3264 H3258 0.930 . S
C3264 C3265 1.367 . S
C3264 C3272 1.378 . S
C3265 C3264 1.367 . S
C3265 C3273 1.433 . S
C3266 H3262 0.929 . S
C3266 C3268 1.378 . S
C3266 C3270 1.350 . S
C3267 C3270 1.463 . S
C3267 C3272 1.350 . S
C3267 N3275 1.427 . S
C3268 H3259 0.930 . S
C3268 C3266 1.378 . S
C3268 C3269 1.367 . S
C3269 C3268 1.367 . S
C3269 C3271 1.433 . S
C3270 C3266 1.350 . S
C3270 C3267 1.463 . S
C3270 N3274 1.427 . S
C3271 H3261 0.929 . S
C3271 C3269 1.433 . S
C3271 N3274 1.384 . S
C3272 H3263 0.929 . S
C3272 C3264 1.378 . S
C3272 C3267 1.350 . S
C3273 H3260 0.929 . S
C3273 C3265 1.433 . S
C3273 N3275 1.384 . S
N3274 C3270 1.427 . S
N3274 C3271 1.384 . S
N3275 C3267 1.427 . S
N3275 C3273 1.384 . S
H3276 C3282 0.930 . S
H3277 C3286 0.930 . S
H3278 C3291 0.929 . S
H3279 C3289 0.929 . S
H3280 C3284 0.929 . S
H3281 C3290 0.929 . S
C3282 H3276 0.930 . S
C3282 C3283 1.367 . S
C3282 C3290 1.378 . S
C3283 C3282 1.367 . S
C3283 C3291 1.433 . S
C3284 H3280 0.929 . S
C3284 C3286 1.378 . S
C3284 C3288 1.350 . S
C3285 C3288 1.463 . S
C3285 C3290 1.350 . S
C3285 N3293 1.427 . S
C3286 H3277 0.930 . S
C3286 C3284 1.378 . S
C3286 C3287 1.367 . S
C3287 C3286 1.367 . S
C3287 C3289 1.433 . S
C3288 C3284 1.350 . S
C3288 C3285 1.463 . S
C3288 N3292 1.427 . S
C3289 H3279 0.929 . S
C3289 C3287 1.433 . S
C3289 N3292 1.384 . S
C3290 H3281 0.929 . S
C3290 C3282 1.378 . S
C3290 C3285 1.350 . S
C3291 H3278 0.929 . S
C3291 C3283 1.433 . S
C3291 N3293 1.384 . S
N3292 C3288 1.427 . S
N3292 C3289 1.384 . S
N3293 C3285 1.427 . S
N3293 C3291 1.384 . S
H3294 C3300 0.930 . S
H3295 C3304 0.930 . S
H3296 C3309 0.929 . S
H3297 C3307 0.929 . S
H3298 C3302 0.929 . S
H3299 C3308 0.929 . S
C3300 H3294 0.930 . S
C3300 C3301 1.367 . S
C3300 C3308 1.378 . S
C3301 C3300 1.367 . S
C3301 C3309 1.433 . S
C3302 H3298 0.929 . S
C3302 C3304 1.378 . S
C3302 C3306 1.350 . S
C3303 C3306 1.463 . S
C3303 C3308 1.350 . S
C3303 N3311 1.427 . S
C3304 H3295 0.930 . S
C3304 C3302 1.378 . S
C3304 C3305 1.367 . S
C3305 C3304 1.367 . S
C3305 C3307 1.433 . S
C3306 C3302 1.350 . S
C3306 C3303 1.463 . S
C3306 N3310 1.427 . S
C3307 H3297 0.929 . S
C3307 C3305 1.433 . S
C3307 N3310 1.384 . S
C3308 H3299 0.929 . S
C3308 C3300 1.378 . S
C3308 C3303 1.350 . S
C3309 H3296 0.929 . S
C3309 C3301 1.433 . S
C3309 N3311 1.384 . S
N3310 C3306 1.427 . S
N3310 C3307 1.384 . S
N3311 C3303 1.427 . S
N3311 C3309 1.384 . S
H3312 C3318 0.930 . S
H3313 C3322 0.930 . S
H3314 C3327 0.929 . S
H3315 C3325 0.929 . S
H3316 C3320 0.890 1_655 S
H3317 C3326 0.890 1_455 S
C3318 H3312 0.930 . S
C3318 C3319 1.367 . S
C3318 C3326 1.378 . S
C3319 C3318 1.367 . S
C3319 C3327 1.433 . S
C3320 H3316 0.890 1_455 S
C3320 C3322 1.378 . S
C3320 C3324 1.350 . S
C3321 C3324 1.463 1_655 S
C3321 C3326 1.350 . S
C3321 N3329 1.427 . S
C3322 H3313 0.930 . S
C3322 C3320 1.378 . S
C3322 C3323 1.367 . S
C3323 C3322 1.367 . S
C3323 C3325 1.433 . S
C3324 C3320 1.350 . S
C3324 C3321 1.463 1_455 S
C3324 N3328 1.427 . S
C3325 H3315 0.929 . S
C3325 C3323 1.433 . S
C3325 N3328 1.384 . S
C3326 H3317 0.890 1_655 S
C3326 C3318 1.378 . S
C3326 C3321 1.350 . S
C3327 H3314 0.929 . S
C3327 C3319 1.433 . S
C3327 N3329 1.384 . S
N3328 C3324 1.427 . S
N3328 C3325 1.384 . S
N3329 C3321 1.427 . S
N3329 C3327 1.384 . S
H3330 C3336 0.930 . S
H3331 C3340 0.930 . S
H3332 C3345 0.929 . S
H3333 C3343 0.929 . S
H3334 C3338 0.929 . S
H3335 C3344 0.929 . S
C3336 H3330 0.930 . S
C3336 C3337 1.367 . S
C3336 C3344 1.378 . S
C3337 C3336 1.367 . S
C3337 C3345 1.433 . S
C3338 H3334 0.929 . S
C3338 C3340 1.378 . S
C3338 C3342 1.350 . S
C3339 C3342 1.463 1_455 S
C3339 C3344 1.350 . S
C3339 N3347 1.433 . S
C3340 H3331 0.930 . S
C3340 C3338 1.378 . S
C3340 C3341 1.367 . S
C3341 C3340 1.367 . S
C3341 C3343 1.433 . S
C3342 C3338 1.350 . S
C3342 C3339 1.463 1_655 S
C3342 N3346 1.433 . S
C3343 H3333 0.929 . S
C3343 C3341 1.433 . S
C3343 N3346 1.395 . S
C3344 H3335 0.929 . S
C3344 C3336 1.378 . S
C3344 C3339 1.350 . S
C3345 H3332 0.929 . S
C3345 C3337 1.433 . S
C3345 N3347 1.395 . S
N3346 C3342 1.433 . S
N3346 C3343 1.395 . S
N3347 C3339 1.433 . S
N3347 C3345 1.395 . S
H3348 C3354 0.930 . S
H3349 C3358 0.930 . S
H3350 C3363 0.929 . S
H3351 C3361 0.929 . S
H3352 C3356 0.929 . S
H3353 C3362 0.929 . S
C3354 H3348 0.930 . S
C3354 C3355 1.367 . S
C3354 C3362 1.378 . S
C3355 C3354 1.367 . S
C3355 C3363 1.433 . S
C3356 H3352 0.929 . S
C3356 C3358 1.378 . S
C3356 C3360 1.350 . S
C3357 C3360 1.463 . S
C3357 C3362 1.350 . S
C3357 N3365 1.427 . S
C3358 H3349 0.930 . S
C3358 C3356 1.378 . S
C3358 C3359 1.367 . S
C3359 C3358 1.367 . S
C3359 C3361 1.433 . S
C3360 C3356 1.350 . S
C3360 C3357 1.463 . S
C3360 N3364 1.427 . S
C3361 H3351 0.929 . S
C3361 C3359 1.433 . S
C3361 N3364 1.384 . S
C3362 H3353 0.929 . S
C3362 C3354 1.378 . S
C3362 C3357 1.350 . S
C3363 H3350 0.929 . S
C3363 C3355 1.433 . S
C3363 N3365 1.384 . S
N3364 C3360 1.427 . S
N3364 C3361 1.384 . S
N3365 C3357 1.427 . S
N3365 C3363 1.384 . S
H3366 C3372 0.930 . S
H3367 C3376 0.930 . S
H3368 C3381 0.929 . S
H3369 C3379 0.929 . S
H3370 C3374 0.929 . S
H3371 C3380 0.929 . S
C3372 H3366 0.930 . S
C3372 C3373 1.367 . S
C3372 C3380 1.378 . S
C3373 C3372 1.367 . S
C3373 C3381 1.433 . S
C3374 H3370 0.929 . S
C3374 C3376 1.378 . S
C3374 C3378 1.350 . S
C3375 C3378 1.463 . S
C3375 C3380 1.350 . S
C3375 N3383 1.427 . S
C3376 H3367 0.930 . S
C3376 C3374 1.378 . S
C3376 C3377 1.367 . S
C3377 C3376 1.367 . S
C3377 C3379 1.433 . S
C3378 C3374 1.350 . S
C3378 C3375 1.463 . S
C3378 N3382 1.427 . S
C3379 H3369 0.929 . S
C3379 C3377 1.433 . S
C3379 N3382 1.384 . S
C3380 H3371 0.929 . S
C3380 C3372 1.378 . S
C3380 C3375 1.350 . S
C3381 H3368 0.929 . S
C3381 C3373 1.433 . S
C3381 N3383 1.384 . S
N3382 C3378 1.427 . S
N3382 C3379 1.384 . S
N3383 C3375 1.427 . S
N3383 C3381 1.384 . S
H3384 C3390 0.930 . S
H3385 C3394 0.930 . S
H3386 C3399 0.929 . S
H3387 C3397 0.929 . S
H3388 C3392 0.929 . S
H3389 C3398 0.929 . S
C3390 H3384 0.930 . S
C3390 C3391 1.367 . S
C3390 C3398 1.378 . S
C3391 C3390 1.367 . S
C3391 C3399 1.433 . S
C3392 H3388 0.929 . S
C3392 C3394 1.378 . S
C3392 C3396 1.350 . S
C3393 C3396 1.463 1_655 S
C3393 C3398 1.350 . S
C3393 N3401 1.427 . S
C3394 H3385 0.930 . S
C3394 C3392 1.378 . S
C3394 C3395 1.367 . S
C3395 C3394 1.367 . S
C3395 C3397 1.433 . S
C3396 C3392 1.350 . S
C3396 C3393 1.463 1_455 S
C3396 N3400 1.427 . S
C3397 H3387 0.929 . S
C3397 C3395 1.433 . S
C3397 N3400 1.384 . S
C3398 H3389 0.929 . S
C3398 C3390 1.378 . S
C3398 C3393 1.350 . S
C3399 H3386 0.929 . S
C3399 C3391 1.433 . S
C3399 N3401 1.384 . S
N3400 C3396 1.427 . S
N3400 C3397 1.384 . S
N3401 C3393 1.427 . S
N3401 C3399 1.384 . S
H3402 C3408 0.930 . S
H3403 C3412 0.930 . S
H3404 C3417 0.929 . S
H3405 C3415 0.929 . S
H3406 C3410 0.929 . S
H3407 C3416 0.929 . S
C3408 H3402 0.930 . S
C3408 C3409 1.367 . S
C3408 C3416 1.378 . S
C3409 C3408 1.367 . S
C3409 C3417 1.433 . S
C3410 H3406 0.929 . S
C3410 C3412 1.378 . S
C3410 C3414 1.350 . S
C3411 C3414 1.463 . S
C3411 C3416 1.350 . S
C3411 N3419 1.427 . S
C3412 H3403 0.930 . S
C3412 C3410 1.378 . S
C3412 C3413 1.367 . S
C3413 C3412 1.367 . S
C3413 C3415 1.433 . S
C3414 C3410 1.350 . S
C3414 C3411 1.463 . S
C3414 N3418 1.427 . S
C3415 H3405 0.929 . S
C3415 C3413 1.433 . S
C3415 N3418 1.384 . S
C3416 H3407 0.929 . S
C3416 C3408 1.378 . S
C3416 C3411 1.350 . S
C3417 H3404 0.929 . S
C3417 C3409 1.433 . S
C3417 N3419 1.384 . S
N3418 C3414 1.427 . S
N3418 C3415 1.384 . S
N3419 C3411 1.427 . S
N3419 C3417 1.384 . S
H3420 C3426 0.930 . S
H3421 C3430 0.930 . S
H3422 C3435 0.929 . S
H3423 C3433 0.929 . S
H3424 C3428 0.929 . S
H3425 C3434 0.929 . S
C3426 H3420 0.930 . S
C3426 C3427 1.367 . S
C3426 C3434 1.378 . S
C3427 C3426 1.367 . S
C3427 C3435 1.433 . S
C3428 H3424 0.929 . S
C3428 C3430 1.378 . S
C3428 C3432 1.350 . S
C3429 C3432 1.463 . S
C3429 C3434 1.350 . S
C3429 N3437 1.427 . S
C3430 H3421 0.930 . S
C3430 C3428 1.378 . S
C3430 C3431 1.367 . S
C3431 C3430 1.367 . S
C3431 C3433 1.433 . S
C3432 C3428 1.350 . S
C3432 C3429 1.463 . S
C3432 N3436 1.427 . S
C3433 H3423 0.929 . S
C3433 C3431 1.433 . S
C3433 N3436 1.384 . S
C3434 H3425 0.929 . S
C3434 C3426 1.378 . S
C3434 C3429 1.350 . S
C3435 H3422 0.929 . S
C3435 C3427 1.433 . S
C3435 N3437 1.384 . S
N3436 C3432 1.427 . S
N3436 C3433 1.384 . S
N3437 C3429 1.427 . S
N3437 C3435 1.384 . S
H3438 C3444 0.930 . S
H3439 C3448 0.930 . S
H3440 C3453 0.929 . S
H3441 C3451 0.929 . S
H3442 C3446 0.929 . S
H3443 C3452 0.929 . S
C3444 H3438 0.930 . S
C3444 C3445 1.367 . S
C3444 C3452 1.378 . S
C3445 C3444 1.367 . S
C3445 C3453 1.433 . S
C3446 H3442 0.929 . S
C3446 C3448 1.378 . S
C3446 C3450 1.350 . S
C3447 C3450 1.463 1_455 S
C3447 C3452 1.350 . S
C3447 N3455 1.427 . S
C3448 H3439 0.930 . S
C3448 C3446 1.378 . S
C3448 C3449 1.367 . S
C3449 C3448 1.367 . S
C3449 C3451 1.433 . S
C3450 C3446 1.350 . S
C3450 C3447 1.463 1_655 S
C3450 N3454 1.427 . S
C3451 H3441 0.929 . S
C3451 C3449 1.433 . S
C3451 N3454 1.384 . S
C3452 H3443 0.929 . S
C3452 C3444 1.378 . S
C3452 C3447 1.350 . S
C3453 H3440 0.929 . S
C3453 C3445 1.433 . S
C3453 N3455 1.384 . S
N3454 C3450 1.427 . S
N3454 C3451 1.384 . S
N3455 C3447 1.427 . S
N3455 C3453 1.384 . S
H3456 C3462 0.930 . S
H3457 C3466 0.930 . S
H3458 C3471 0.929 . S
H3459 C3469 0.929 . S
H3460 C3464 0.875 1_545 S
H3461 C3470 0.875 1_565 S
C3462 H3456 0.930 . S
C3462 C3463 1.367 . S
C3462 C3470 1.378 . S
C3463 C3462 1.367 . S
C3463 C3471 1.433 . S
C3464 H3460 0.875 1_565 S
C3464 C3466 1.378 . S
C3464 C3468 1.350 . S
C3465 C3468 1.463 1_545 S
C3465 C3470 1.350 . S
C3465 N3473 1.427 . S
C3466 H3457 0.930 . S
C3466 C3464 1.378 . S
C3466 C3467 1.367 . S
C3467 C3466 1.367 . S
C3467 C3469 1.433 . S
C3468 C3464 1.350 . S
C3468 C3465 1.463 1_565 S
C3468 N3472 1.427 . S
C3469 H3459 0.929 . S
C3469 C3467 1.433 . S
C3469 N3472 1.384 . S
C3470 H3461 0.875 1_545 S
C3470 C3462 1.378 . S
C3470 C3465 1.350 . S
C3471 H3458 0.929 . S
C3471 C3463 1.433 . S
C3471 N3473 1.384 . S
N3472 C3468 1.427 . S
N3472 C3469 1.384 . S
N3473 C3465 1.427 . S
N3473 C3471 1.384 . S
H3474 C3480 0.930 . S
H3475 C3484 0.930 . S
H3476 C3489 0.929 . S
H3477 C3487 0.929 . S
H3478 C3482 0.929 . S
H3479 C3488 0.929 . S
C3480 H3474 0.930 . S
C3480 C3481 1.367 . S
C3480 C3488 1.378 . S
C3481 C3480 1.367 . S
C3481 C3489 1.433 . S
C3482 H3478 0.929 . S
C3482 C3484 1.378 . S
C3482 C3486 1.350 . S
C3483 C3486 1.463 . S
C3483 C3488 1.350 . S
C3483 N3491 1.427 . S
C3484 H3475 0.930 . S
C3484 C3482 1.378 . S
C3484 C3485 1.367 . S
C3485 C3484 1.367 . S
C3485 C3487 1.433 . S
C3486 C3482 1.350 . S
C3486 C3483 1.463 . S
C3486 N3490 1.427 . S
C3487 H3477 0.929 . S
C3487 C3485 1.433 . S
C3487 N3490 1.384 . S
C3488 H3479 0.929 . S
C3488 C3480 1.378 . S
C3488 C3483 1.350 . S
C3489 H3476 0.929 . S
C3489 C3481 1.433 . S
C3489 N3491 1.384 . S
N3490 C3486 1.427 . S
N3490 C3487 1.384 . S
N3491 C3483 1.427 . S
N3491 C3489 1.384 . S
H3492 C3498 0.930 . S
H3493 C3502 0.930 . S
H3494 C3507 0.929 . S
H3495 C3505 0.929 . S
H3496 C3500 0.929 1_565 S
H3497 C3506 0.929 1_545 S
C3498 H3492 0.930 . S
C3498 C3499 1.367 . S
C3498 C3506 1.378 . S
C3499 C3498 1.367 . S
C3499 C3507 1.433 . S
C3500 H3496 0.929 1_545 S
C3500 C3502 1.378 . S
C3500 C3504 1.350 . S
C3501 C3504 1.463 1_565 S
C3501 C3506 1.350 . S
C3501 N3509 1.427 . S
C3502 H3493 0.930 . S
C3502 C3500 1.378 . S
C3502 C3503 1.367 . S
C3503 C3502 1.367 . S
C3503 C3505 1.433 . S
C3504 C3500 1.350 . S
C3504 C3501 1.463 1_545 S
C3504 N3508 1.427 . S
C3505 H3495 0.929 . S
C3505 C3503 1.433 . S
C3505 N3508 1.384 . S
C3506 H3497 0.929 1_565 S
C3506 C3498 1.378 . S
C3506 C3501 1.350 . S
C3507 H3494 0.929 . S
C3507 C3499 1.433 . S
C3507 N3509 1.384 . S
N3508 C3504 1.427 . S
N3508 C3505 1.384 . S
N3509 C3501 1.427 . S
N3509 C3507 1.384 . S
H3510 C3516 0.930 . S
H3511 C3520 0.930 . S
H3512 C3525 0.929 . S
H3513 C3523 0.929 . S
H3514 C3518 0.929 1_556 S
H3515 C3524 0.929 1_554 S
C3516 H3510 0.930 . S
C3516 C3517 1.367 . S
C3516 C3524 1.378 . S
C3517 C3516 1.367 . S
C3517 C3525 1.433 . S
C3518 H3514 0.929 1_554 S
C3518 C3520 1.378 . S
C3518 C3522 1.350 . S
C3519 C3522 1.463 1_556 S
C3519 C3524 1.350 . S
C3519 N3527 1.427 . S
C3520 H3511 0.930 . S
C3520 C3518 1.378 . S
C3520 C3521 1.367 . S
C3521 C3520 1.367 . S
C3521 C3523 1.433 . S
C3522 C3518 1.350 . S
C3522 C3519 1.463 1_554 S
C3522 N3526 1.427 . S
C3523 H3513 0.929 . S
C3523 C3521 1.433 . S
C3523 N3526 1.384 . S
C3524 H3515 0.929 1_556 S
C3524 C3516 1.378 . S
C3524 C3519 1.350 . S
C3525 H3512 0.929 . S
C3525 C3517 1.433 . S
C3525 N3527 1.384 . S
N3526 C3522 1.427 . S
N3526 C3523 1.384 . S
N3527 C3519 1.427 . S
N3527 C3525 1.384 . S
H3528 C3534 0.930 . S
H3529 C3538 0.930 . S
H3530 C3543 0.929 . S
H3531 C3541 0.929 . S
H3532 C3536 0.929 . S
H3533 C3542 0.929 . S
C3534 H3528 0.930 . S
C3534 C3535 1.367 . S
C3534 C3542 1.378 . S
C3535 C3534 1.367 . S
C3535 C3543 1.433 . S
C3536 H3532 0.929 . S
C3536 C3538 1.378 . S
C3536 C3540 1.350 . S
C3537 C3540 1.463 1_556 S
C3537 C3542 1.350 . S
C3537 N3545 1.427 . S
C3538 H3529 0.930 . S
C3538 C3536 1.378 . S
C3538 C3539 1.367 . S
C3539 C3538 1.367 . S
C3539 C3541 1.433 . S
C3540 C3536 1.350 . S
C3540 C3537 1.463 1_554 S
C3540 N3544 1.427 . S
C3541 H3531 0.929 . S
C3541 C3539 1.433 . S
C3541 N3544 1.384 . S
C3542 H3533 0.929 . S
C3542 C3534 1.378 . S
C3542 C3537 1.350 . S
C3543 H3530 0.929 . S
C3543 C3535 1.433 . S
C3543 N3545 1.384 . S
N3544 C3540 1.427 . S
N3544 C3541 1.384 . S
N3545 C3537 1.427 . S
N3545 C3543 1.384 . S
H3546 C3552 0.930 . S
H3547 C3556 0.930 . S
H3548 C3561 0.929 . S
H3549 C3559 0.929 . S
H3550 C3554 0.929 . S
H3551 C3560 0.929 . S
C3552 H3546 0.930 . S
C3552 C3553 1.367 . S
C3552 C3560 1.378 . S
C3553 C3552 1.367 . S
C3553 C3561 1.433 . S
C3554 H3550 0.929 . S
C3554 C3556 1.378 . S
C3554 C3558 1.350 . S
C3555 C3558 1.463 1_554 S
C3555 C3560 1.350 . S
C3555 N3563 1.427 . S
C3556 H3547 0.930 . S
C3556 C3554 1.378 . S
C3556 C3557 1.367 . S
C3557 C3556 1.367 . S
C3557 C3559 1.433 . S
C3558 C3554 1.350 . S
C3558 C3555 1.463 1_556 S
C3558 N3562 1.427 . S
C3559 H3549 0.929 . S
C3559 C3557 1.433 . S
C3559 N3562 1.384 . S
C3560 H3551 0.929 . S
C3560 C3552 1.378 . S
C3560 C3555 1.350 . S
C3561 H3548 0.929 . S
C3561 C3553 1.433 . S
C3561 N3563 1.384 . S
N3562 C3558 1.427 . S
N3562 C3559 1.384 . S
N3563 C3555 1.427 . S
N3563 C3561 1.384 . S
H3564 C3570 0.930 . S
H3565 C3574 0.930 . S
H3566 C3579 0.929 . S
H3567 C3577 0.929 . S
H3568 C3572 0.929 . S
H3569 C3578 0.929 . S
C3570 H3564 0.930 . S
C3570 C3571 1.367 . S
C3570 C3578 1.378 . S
C3571 C3570 1.367 . S
C3571 C3579 1.433 . S
C3572 H3568 0.929 . S
C3572 C3574 1.378 . S
C3572 C3576 1.350 . S
C3573 C3576 1.463 . S
C3573 C3578 1.350 . S
C3573 N3581 1.427 . S
C3574 H3565 0.930 . S
C3574 C3572 1.378 . S
C3574 C3575 1.367 . S
C3575 C3574 1.367 . S
C3575 C3577 1.433 . S
C3576 C3572 1.350 . S
C3576 C3573 1.463 . S
C3576 N3580 1.427 . S
C3577 H3567 0.929 . S
C3577 C3575 1.433 . S
C3577 N3580 1.384 . S
C3578 H3569 0.929 . S
C3578 C3570 1.378 . S
C3578 C3573 1.350 . S
C3579 H3566 0.929 . S
C3579 C3571 1.433 . S
C3579 N3581 1.384 . S
N3580 C3576 1.427 . S
N3580 C3577 1.384 . S
N3581 C3573 1.427 . S
N3581 C3579 1.384 . S
H3582 C3588 0.930 . S
H3583 C3592 0.930 . S
H3584 C3597 0.929 . S
H3585 C3595 0.929 . S
H3586 C3590 0.929 . S
H3587 C3596 0.929 . S
C3588 H3582 0.930 . S
C3588 C3589 1.367 . S
C3588 C3596 1.378 . S
C3589 C3588 1.367 . S
C3589 C3597 1.433 . S
C3590 H3586 0.929 . S
C3590 C3592 1.378 . S
C3590 C3594 1.350 . S
C3591 C3594 1.463 . S
C3591 C3596 1.350 . S
C3591 N3599 1.427 . S
C3592 H3583 0.930 . S
C3592 C3590 1.378 . S
C3592 C3593 1.367 . S
C3593 C3592 1.367 . S
C3593 C3595 1.433 . S
C3594 C3590 1.350 . S
C3594 C3591 1.463 . S
C3594 N3598 1.427 . S
C3595 H3585 0.929 . S
C3595 C3593 1.433 . S
C3595 N3598 1.384 . S
C3596 H3587 0.929 . S
C3596 C3588 1.378 . S
C3596 C3591 1.350 . S
C3597 H3584 0.929 . S
C3597 C3589 1.433 . S
C3597 N3599 1.384 . S
N3598 C3594 1.427 . S
N3598 C3595 1.384 . S
N3599 C3591 1.427 . S
N3599 C3597 1.384 . S
H3600 C3606 0.930 . S
H3601 C3610 0.930 . S
H3602 C3615 0.929 . S
H3603 C3613 0.929 . S
H3604 C3608 0.929 . S
H3605 C3614 0.929 . S
C3606 H3600 0.930 . S
C3606 C3607 1.367 . S
C3606 C3614 1.378 . S
C3607 C3606 1.367 . S
C3607 C3615 1.433 . S
C3608 H3604 0.929 . S
C3608 C3610 1.378 . S
C3608 C3612 1.350 . S
C3609 C3612 1.463 1_545 S
C3609 C3614 1.350 . S
C3609 N3617 1.430 . S
C3610 H3601 0.930 . S
C3610 C3608 1.378 . S
C3610 C3611 1.367 . S
C3611 C3610 1.367 . S
C3611 C3613 1.433 . S
C3612 C3608 1.350 . S
C3612 C3609 1.463 1_565 S
C3612 N3616 1.430 . S
C3613 H3603 0.929 . S
C3613 C3611 1.433 . S
C3613 N3616 1.388 . S
C3614 H3605 0.929 . S
C3614 C3606 1.378 . S
C3614 C3609 1.350 . S
C3615 H3602 0.929 . S
C3615 C3607 1.433 . S
C3615 N3617 1.388 . S
N3616 C3612 1.430 . S
N3616 C3613 1.388 . S
N3617 C3609 1.430 . S
N3617 C3615 1.388 . S
H3618 C3624 0.930 . S
H3619 C3628 0.930 . S
H3620 C3633 0.929 . S
H3621 C3631 0.929 . S
H3622 C3626 0.929 . S
H3623 C3632 0.929 . S
C3624 H3618 0.930 . S
C3624 C3625 1.367 . S
C3624 C3632 1.378 . S
C3625 C3624 1.367 . S
C3625 C3633 1.433 . S
C3626 H3622 0.929 . S
C3626 C3628 1.378 . S
C3626 C3630 1.350 . S
C3627 C3630 1.463 . S
C3627 C3632 1.350 . S
C3627 N3635 1.427 . S
C3628 H3619 0.930 . S
C3628 C3626 1.378 . S
C3628 C3629 1.367 . S
C3629 C3628 1.367 . S
C3629 C3631 1.433 . S
C3630 C3626 1.350 . S
C3630 C3627 1.463 . S
C3630 N3634 1.427 . S
C3631 H3621 0.929 . S
C3631 C3629 1.433 . S
C3631 N3634 1.384 . S
C3632 H3623 0.929 . S
C3632 C3624 1.378 . S
C3632 C3627 1.350 . S
C3633 H3620 0.929 . S
C3633 C3625 1.433 . S
C3633 N3635 1.384 . S
N3634 C3630 1.427 . S
N3634 C3631 1.384 . S
N3635 C3627 1.427 . S
N3635 C3633 1.384 . S
H3636 C3642 0.930 . S
H3637 C3646 0.930 . S
H3638 C3651 0.929 . S
H3639 C3649 0.929 . S
H3640 C3644 0.929 . S
H3641 C3650 0.929 . S
C3642 H3636 0.930 . S
C3642 C3643 1.367 . S
C3642 C3650 1.378 . S
C3643 C3642 1.367 . S
C3643 C3651 1.433 . S
C3644 H3640 0.929 . S
C3644 C3646 1.378 . S
C3644 C3648 1.350 . S
C3645 C3648 1.463 . S
C3645 C3650 1.350 . S
C3645 N3653 1.427 . S
C3646 H3637 0.930 . S
C3646 C3644 1.378 . S
C3646 C3647 1.367 . S
C3647 C3646 1.367 . S
C3647 C3649 1.433 . S
C3648 C3644 1.350 . S
C3648 C3645 1.463 . S
C3648 N3652 1.427 . S
C3649 H3639 0.929 . S
C3649 C3647 1.433 . S
C3649 N3652 1.384 . S
C3650 H3641 0.929 . S
C3650 C3642 1.378 . S
C3650 C3645 1.350 . S
C3651 H3638 0.929 . S
C3651 C3643 1.433 . S
C3651 N3653 1.384 . S
N3652 C3648 1.427 . S
N3652 C3649 1.384 . S
N3653 C3645 1.427 . S
N3653 C3651 1.384 . S
H3654 C3660 0.930 . S
H3655 C3664 0.930 . S
H3656 C3669 0.929 . S
H3657 C3667 0.929 . S
H3658 C3662 0.929 . S
H3659 C3668 0.929 . S
C3660 H3654 0.930 . S
C3660 C3661 1.367 . S
C3660 C3668 1.378 . S
C3661 C3660 1.367 . S
C3661 C3669 1.433 . S
C3662 H3658 0.929 . S
C3662 C3664 1.378 . S
C3662 C3666 1.350 . S
C3663 C3666 1.463 . S
C3663 C3668 1.350 . S
C3663 N3671 1.427 . S
C3664 H3655 0.930 . S
C3664 C3662 1.378 . S
C3664 C3665 1.367 . S
C3665 C3664 1.367 . S
C3665 C3667 1.433 . S
C3666 C3662 1.350 . S
C3666 C3663 1.463 . S
C3666 N3670 1.427 . S
C3667 H3657 0.929 . S
C3667 C3665 1.433 . S
C3667 N3670 1.384 . S
C3668 H3659 0.929 . S
C3668 C3660 1.378 . S
C3668 C3663 1.350 . S
C3669 H3656 0.929 . S
C3669 C3661 1.433 . S
C3669 N3671 1.384 . S
N3670 C3666 1.427 . S
N3670 C3667 1.384 . S
N3671 C3663 1.427 . S
N3671 C3669 1.384 . S
H3672 C3678 0.930 . S
H3673 C3682 0.930 . S
H3674 C3687 0.929 . S
H3675 C3685 0.929 . S
H3676 C3680 0.929 . S
H3677 C3686 0.929 . S
C3678 H3672 0.930 . S
C3678 C3679 1.367 . S
C3678 C3686 1.378 . S
C3679 C3678 1.367 . S
C3679 C3687 1.433 . S
C3680 H3676 0.929 . S
C3680 C3682 1.378 . S
C3680 C3684 1.350 . S
C3681 C3684 1.463 1_554 S
C3681 C3686 1.350 . S
C3681 N3689 1.427 . S
C3682 H3673 0.930 . S
C3682 C3680 1.378 . S
C3682 C3683 1.367 . S
C3683 C3682 1.367 . S
C3683 C3685 1.433 . S
C3684 C3680 1.350 . S
C3684 C3681 1.463 1_556 S
C3684 N3688 1.427 . S
C3685 H3675 0.929 . S
C3685 C3683 1.433 . S
C3685 N3688 1.384 . S
C3686 H3677 0.929 . S
C3686 C3678 1.378 . S
C3686 C3681 1.350 . S
C3687 H3674 0.929 . S
C3687 C3679 1.433 . S
C3687 N3689 1.384 . S
N3688 C3684 1.427 . S
N3688 C3685 1.384 . S
N3689 C3681 1.427 . S
N3689 C3687 1.384 . S
H3690 C3696 0.930 . S
H3691 C3700 0.930 . S
H3692 C3705 0.929 . S
H3693 C3703 0.929 . S
H3694 C3698 0.929 . S
H3695 C3704 0.929 . S
C3696 H3690 0.930 . S
C3696 C3697 1.367 . S
C3696 C3704 1.378 . S
C3697 C3696 1.367 . S
C3697 C3705 1.433 . S
C3698 H3694 0.929 . S
C3698 C3700 1.378 . S
C3698 C3702 1.350 . S
C3699 C3702 1.463 . S
C3699 C3704 1.350 . S
C3699 N3707 1.427 . S
C3700 H3691 0.930 . S
C3700 C3698 1.378 . S
C3700 C3701 1.367 . S
C3701 C3700 1.367 . S
C3701 C3703 1.433 . S
C3702 C3698 1.350 . S
C3702 C3699 1.463 . S
C3702 N3706 1.427 . S
C3703 H3693 0.929 . S
C3703 C3701 1.433 . S
C3703 N3706 1.384 . S
C3704 H3695 0.929 . S
C3704 C3696 1.378 . S
C3704 C3699 1.350 . S
C3705 H3692 0.929 . S
C3705 C3697 1.433 . S
C3705 N3707 1.384 . S
N3706 C3702 1.427 . S
N3706 C3703 1.384 . S
N3707 C3699 1.427 . S
N3707 C3705 1.384 . S
H3708 C3714 0.930 . S
H3709 C3718 0.930 . S
H3710 C3723 0.929 . S
H3711 C3721 0.929 . S
H3712 C3716 0.929 . S
H3713 C3722 0.929 . S
C3714 H3708 0.930 . S
C3714 C3715 1.367 . S
C3714 C3722 1.378 . S
C3715 C3714 1.367 . S
C3715 C3723 1.433 . S
C3716 H3712 0.929 . S
C3716 C3718 1.378 . S
C3716 C3720 1.350 . S
C3717 C3720 1.463 . S
C3717 C3722 1.350 . S
C3717 N3725 1.427 . S
C3718 H3709 0.930 . S
C3718 C3716 1.378 . S
C3718 C3719 1.367 . S
C3719 C3718 1.367 . S
C3719 C3721 1.433 . S
C3720 C3716 1.350 . S
C3720 C3717 1.463 . S
C3720 N3724 1.427 . S
C3721 H3711 0.929 . S
C3721 C3719 1.433 . S
C3721 N3724 1.384 . S
C3722 H3713 0.929 . S
C3722 C3714 1.378 . S
C3722 C3717 1.350 . S
C3723 H3710 0.929 . S
C3723 C3715 1.433 . S
C3723 N3725 1.384 . S
N3724 C3720 1.427 . S
N3724 C3721 1.384 . S
N3725 C3717 1.427 . S
N3725 C3723 1.384 . S
H3726 C3732 0.930 . S
H3727 C3736 0.930 . S
H3728 C3741 0.929 . S
H3729 C3739 0.929 . S
H3730 C3734 0.929 . S
H3731 C3740 0.929 . S
C3732 H3726 0.930 . S
C3732 C3733 1.367 . S
C3732 C3740 1.378 . S
C3733 C3732 1.367 . S
C3733 C3741 1.433 . S
C3734 H3730 0.929 . S
C3734 C3736 1.378 . S
C3734 C3738 1.350 . S
C3735 C3738 1.463 1_565 S
C3735 C3740 1.350 . S
C3735 N3743 1.427 1_565 S
C3736 H3727 0.930 . S
C3736 C3734 1.378 . S
C3736 C3737 1.367 . S
C3737 C3736 1.367 . S
C3737 C3739 1.433 . S
C3738 C3734 1.350 . S
C3738 C3735 1.463 1_545 S
C3738 N3742 1.427 1_545 S
C3739 H3729 0.929 . S
C3739 C3737 1.433 . S
C3739 N3742 1.384 1_545 S
C3740 H3731 0.929 . S
C3740 C3732 1.378 . S
C3740 C3735 1.350 . S
C3741 H3728 0.929 . S
C3741 C3733 1.433 . S
C3741 N3743 1.384 1_565 S
N3742 C3738 1.427 1_565 S
N3742 C3739 1.384 1_565 S
N3743 C3735 1.427 1_545 S
N3743 C3741 1.384 1_545 S
C1591 C7 2.182 . S
C1595 C667 2.181 1_455 S
C1609 C1360 2.182 . S
C1613 C40 2.182 . S
C1627 C1393 2.182 . S
C1631 C73 2.182 . S
C1645 C106 2.182 1_556 S
C1649 C1426 2.181 . S
C1663 C139 2.182 . S
C1667 C1558 2.182 1_455 S
C1681 C700 2.182 . S
C1685 C172 2.182 . S
C1699 C205 2.181 . S
C1703 C1525 2.181 . S
C1717 C238 2.182 1_554 S
C1721 C535 2.181 . S
C1735 C271 2.182 . S
C1739 C502 2.182 1_545 S
C1753 C304 2.181 1_565 S
C1757 C403 2.182 . S
C1771 C436 2.181 1_565 S
C1775 C337 2.182 . S
C1789 C469 2.181 . S
C1793 C370 2.181 1_545 S
C1807 C832 2.182 1_556 S
C1811 C568 2.181 . S
C1825 C601 2.181 1_655 S
C1829 C865 2.182 . S
C1843 C898 2.181 . S
C1847 C634 2.181 . S
C1861 C733 2.182 1_655 S
C1865 C997 2.182 . S
C1879 C766 2.181 . S
C1883 C931 2.181 . S
C1897 C1459 2.182 . S
C1901 C799 2.182 . S
C1915 C1492 2.181 . S
C1919 C964 2.182 1_554 S
C1933 C1030 2.182 . S
C1937 C1327 2.182 . S
C1951 C1294 2.182 . S
C1955 C1063 2.182 . S
C1969 C1195 2.181 . S
C1973 C1096 2.182 . S
C1987 C1129 2.181 . S
C1991 C1228 2.182 . S
C2005 C1162 2.182 . S
C2009 C1261 2.181 . S
C2023 N541 1.288 . S
C2027 C18 1.190 . S
C2041 N1564 1.299 . S
C2045 C51 1.176 . S
C2059 N706 1.282 . S
C2063 C84 1.182 . S
C2077 C117 1.193 . S
C2081 N1531 1.282 . S
C2095 N1366 1.285 . S
C2099 C150 1.175 . S
C2113 C183 1.187 . S
C2117 N1399 1.288 . S
C2131 N1432 1.286 . S
C2135 C216 1.175 . S
C2149 C249 1.176 . S
C2153 N673 1.299 . S
C2167 C282 1.200 . S
C2171 N13 1.286 . S
C2185 N46 1.282 . S
C2189 C315 1.183 . S
C2203 N79 1.283 . S
C2207 C348 1.200 . S
C2221 N112 1.296 . S
C2225 C381 1.182 . S
C2239 C414 1.200 . S
C2243 N145 1.285 . S
C2257 C447 1.201 . S
C2261 N178 1.284 . S
C2275 C480 1.177 . S
C2279 N211 1.287 . S
C2293 C513 1.200 . S
C2297 N244 1.285 . S
C2311 N277 1.286 . S
C2315 C546 1.199 . S
C2329 C579 1.201 . S
C2333 N1201 1.284 . S
C2347 C612 1.185 . S
C2351 N1234 1.282 . S
C2365 N1267 1.287 . S
C2369 C645 1.181 . S
C2383 C678 1.196 . S
C2387 N508 1.288 . S
C2401 C711 1.176 . S
C2405 N343 1.284 . S
C2419 N1168 1.288 . S
C2423 C744 1.190 . S
C2437 C777 1.198 . S
C2441 N1102 1.286 . S
C2455 C810 1.176 . S
C2459 N1333 1.287 . S
C2473 C843 1.179 . S
C2477 N772 1.287 . S
C2491 C876 1.176 . S
C2495 N1498 1.284 . S
C2509 C909 1.196 . S
C2513 N739 1.288 . S
C2527 N574 1.282 . S
C2531 C942 1.192 . S
C2545 C975 1.193 . S
C2549 N607 1.289 . S
C2563 C1008 1.201 . S
C2567 N640 1.284 . S
C2581 C1041 1.197 . S
C2585 N1465 1.287 . S
C2599 N805 1.283 . S
C2603 C1074 1.180 . S
C2617 C1107 1.201 . S
C2621 N838 1.285 . S
C2635 N871 1.285 . S
C2639 C1140 1.200 . S
C2653 N904 1.287 . S
C2657 C1173 1.196 . S
C2671 N937 1.287 . S
C2675 C1206 1.193 . S
C2689 N970 1.290 . S
C2693 C1239 1.192 . S
C2707 C1272 1.187 . S
C2711 N1003 1.282 . S
C2725 C1305 1.199 . S
C2729 N1036 1.286 . S
C2743 N1069 1.282 . S
C2747 C1338 1.196 . S
C2761 C1371 1.191 . S
C2765 N409 1.288 . S
C2779 C1404 1.198 . S
C2783 N442 1.286 . S
C2797 C1437 1.195 . S
C2801 N475 1.287 . S
C2815 N1300 1.288 . S
C2819 C1470 1.182 . S
C2833 N1135 1.283 . S
C2837 C1503 1.177 . S
C2851 N376 1.291 . S
C2855 C1536 1.191 . S
C2869 C1569 1.197 . S
C2873 N310 1.287 . S
C2887 C318 1.279 . S
C2891 C21 1.290 . S
C2905 C351 1.279 . S
C2909 C54 1.290 . S
C2923 C87 1.291 . S
C2927 C384 1.278 . S
C2941 C120 1.282 . S
C2945 C285 1.287 . S
C2959 C153 1.292 . S
C2963 C516 1.277 . S
C2977 C417 1.291 . S
C2981 C186 1.279 . S
C2995 C450 1.280 . S
C2999 C219 1.289 . S
C3013 C252 1.288 . S
C3017 C483 1.281 . S
C3031 C549 1.288 . S
C3035 C615 1.282 . S
C3049 C1539 1.277 . S
C3053 C582 1.292 . S
C3067 C1572 1.279 . S
C3071 C648 1.289 . S
C3085 C1506 1.283 . S
C3089 C681 1.287 . S
C3103 C714 1.291 . S
C3107 C1473 1.278 . S
C3121 C1374 1.288 . S
C3125 C747 1.281 . S
C3139 C1440 1.285 . S
C3143 C780 1.284 . S
C3157 C1110 1.277 . S
C3161 C813 1.292 . S
C3175 C1143 1.290 . S
C3179 C846 1.279 . S
C3193 C879 1.279 . S
C3197 C1176 1.290 . S
C3211 C1077 1.284 . S
C3215 C912 1.284 . S
C3229 C1308 1.292 . S
C3233 C945 1.277 . S
C3247 C978 1.278 . S
C3251 C1209 1.291 . S
C3265 C1242 1.279 . S
C3269 C1011 1.291 . S
C3283 C1044 1.278 . S
C3287 C1275 1.290 . S
C3301 C1341 1.286 . S
C3305 C1407 1.283 . S
C3319 N860 1.452 . S
C3323 N2 1.455 . S
C3337 N35 1.448 . S
C3341 N893 1.455 . S
C3355 N794 1.450 . S
C3359 N68 1.455 . S
C3373 N827 1.450 . S
C3377 N101 1.442 . S
C3391 N992 1.442 . S
C3395 N134 1.444 . S
C3409 N1025 1.445 . S
C3413 N167 1.441 . S
C3427 N926 1.452 . S
C3431 N200 1.444 . S
C3445 N233 1.446 . S
C3449 N959 1.454 . S
C3463 N266 1.452 . S
C3467 N398 1.455 . S
C3481 N299 1.453 . S
C3485 N431 1.444 . S
C3499 N332 1.453 . S
C3503 N464 1.455 . S
C3517 N365 1.442 . S
C3521 N497 1.450 . S
C3535 N1421 1.448 . S
C3539 N530 1.442 . S
C3553 N1487 1.446 . S
C3557 N563 1.454 . S
C3571 N596 1.441 . S
C3575 N728 1.446 . S
C3589 N1322 1.455 . S
C3593 N629 1.452 . S
C3607 N662 1.455 . S
C3611 N1553 1.448 . S
C3625 N695 1.441 . S
C3629 N1355 1.447 . S
C3643 N761 1.442 . S
C3647 N1454 1.449 . S
C3661 N1058 1.455 . S
C3665 N1190 1.451 . S
C3679 N1223 1.454 . S
C3683 N1091 1.446 . S
C3697 N1256 1.442 . S
C3701 N1124 1.443 . S
C3715 N1157 1.452 . S
C3719 N1289 1.443 . S
C3733 N1388 1.456 . S
C3737 N1520 1.450 . S
