# Generated by pormake.
# Topology uni, (4)-cn, num edge types: 1
# Building blocks:
#     Node 0, Type 0, BuildingBlock: AZAVOO_clean_sbu_0, # of connection points: 4
#     Node 1, Type 0, BuildingBlock: AZAVOO_clean_sbu_0, # of connection points: 4
#     Node 2, Type 0, BuildingBlock: AZAVOO_clean_sbu_0, # of connection points: 4
#     Node 3, Type 0, BuildingBlock: AZAVOO_clean_sbu_0, # of connection points: 4
#     Node 4, Type 0, BuildingBlock: AZAVOO_clean_sbu_0, # of connection points: 4
#     Node 5, Type 0, BuildingBlock: AZAVOO_clean_sbu_0, # of connection points: 4
#     Edge 6, Type (0, 0), BuildingBlock: TEMPAE_clean_linker_10, # of connection points: 2
#     Edge 7, Type (0, 0), BuildingBlock: TEMPAE_clean_linker_10, # of connection points: 2
#     Edge 8, Type (0, 0), BuildingBlock: TEMPAE_clean_linker_10, # of connection points: 2
#     Edge 9, Type (0, 0), BuildingBlock: TEMPAE_clean_linker_10, # of connection points: 2
#     Edge 10, Type (0, 0), BuildingBlock: TEMPAE_clean_linker_10, # of connection points: 2
#     Edge 11, Type (0, 0), BuildingBlock: TEMPAE_clean_linker_10, # of connection points: 2
#     Edge 12, Type (0, 0), BuildingBlock: TEMPAE_clean_linker_10, # of connection points: 2
#     Edge 13, Type (0, 0), BuildingBlock: TEMPAE_clean_linker_10, # of connection points: 2
#     Edge 14, Type (0, 0), BuildingBlock: TEMPAE_clean_linker_10, # of connection points: 2
#     Edge 15, Type (0, 0), BuildingBlock: TEMPAE_clean_linker_10, # of connection points: 2
#     Edge 16, Type (0, 0), BuildingBlock: TEMPAE_clean_linker_10, # of connection points: 2
#     Edge 17, Type (0, 0), BuildingBlock: TEMPAE_clean_linker_10, # of connection points: 2
# Relax obj value: 0.054
# Max RMSD: 0.096
# Mean RMSD: 0.095
data_MOF--net-uni--node1-AZAVOO_clean_sbu_0--edge1-TEMPAE_clean_linker_10
_symmetry_space_group_name_H-M    P1
_symmetry_Int_Tables_number       1
_symmetry_cell_setting            triclinic
loop_
_symmetry_equiv_pos_as_xyz
'x, y, z'
_cell_length_a     40.414555
_cell_length_b     40.42897
_cell_length_c     22.009776
_cell_angle_alpha  90.056318
_cell_angle_beta   89.968229
_cell_angle_gamma 120.00474
loop_
_atom_site_label
_atom_site_type_symbol
_atom_site_fract_x
_atom_site_fract_y
_atom_site_fract_z
_atom_type_partial_charge
Mg0 Mg 0.65703 0.02898 0.03843 0.0
O1 O 0.62078 0.03651 0.11097 0.0
O2 O 0.60391 0.0777 0.07544 0.0
Mg3 Mg 0.629 0.0962 0.98011 0.0
C4 C 0.60353 0.0555 0.117 0.0
C5 C 0.69221 0.98267 0.0861 0.0
O6 O 0.70393 0.98943 0.02939 0.0
O7 O 0.70797 0.08701 0.06104 0.0
O8 O 0.6906 0.12592 0.01747 0.0
O9 O 0.60498 0.98168 0.99498 0.0
O10 O 0.63003 0.04272 0.97075 0.0
C11 C 0.71514 0.12039 0.04554 0.0
C12 C 0.6032 0.00789 0.96391 0.0
O13 O 0.67387 -0.00187 0.10684 0.0
Mg14 Mg 0.63603 0.65179 0.19761 0.0
O15 O 0.58982 0.62206 0.2697 0.0
O16 O 0.53437 0.61222 0.23186 0.0
Mg17 Mg 0.54581 0.63706 0.13554 0.0
C18 C 0.55402 0.60938 0.27481 0.0
C19 C 0.71582 0.68807 0.25502 0.0
O20 O 0.72253 0.70771 0.20448 0.0
O21 O 0.63857 0.70827 0.21618 0.0
O22 O 0.58453 0.69811 0.17193 0.0
O23 O 0.62199 0.59538 0.15801 0.0
O24 O 0.59564 0.62908 0.12819 0.0
C25 C 0.61584 0.71992 0.19974 0.0
C26 C 0.59768 0.5984 0.12357 0.0
O27 O 0.68156 0.66346 0.26804 0.0
Mg28 Mg 0.00202 0.64775 0.35199 0.0
O29 O 0.98814 0.60155 0.42304 0.0
O30 O 0.94442 0.54534 0.38466 0.0
Mg31 Mg 0.92982 0.55607 0.28873 0.0
C32 C 0.9665 0.56548 0.42772 0.0
C33 C 0.0555 0.72668 0.40209 0.0
O34 O 0.05385 0.7322 0.34359 0.0
O35 O 0.9462 0.64658 0.37188 0.0
O36 O 0.90459 0.59188 0.32648 0.0
O37 O 0.04637 0.63693 0.31096 0.0
O38 O 0.98604 0.60803 0.28182 0.0
C39 C 0.91225 0.62245 0.35511 0.0
C40 C 0.01951 0.61193 0.27652 0.0
O41 O 0.03459 0.69331 0.42319 0.0
Mg42 Mg 0.37523 -0.00085 0.54252 0.0
O43 O 0.4082 0.98886 0.61714 0.0
O44 O 0.4153 0.93951 0.58943 0.0
Mg45 Mg 0.39094 0.9217 0.49337 0.0
C46 C 0.41983 0.96533 0.62734 0.0
C47 C 0.34482 0.0508 0.58598 0.0
O48 O 0.33072 0.04138 0.5308 0.0
O49 O 0.31953 0.94532 0.56731 0.0
O50 O 0.33011 0.90031 0.52878 0.0
O51 O 0.43027 0.04024 0.49858 0.0
O52 O 0.39779 0.97861 0.47712 0.0
C53 C 0.3082 0.91043 0.55454 0.0
C54 C 0.42781 0.01147 0.46874 0.0
O55 O 0.36366 0.036 0.60715 0.0
Mg56 Mg 0.38242 0.37641 0.69464 0.0
O57 O 0.42794 0.40811 0.76717 0.0
O58 O 0.48452 0.42113 0.72967 0.0
Mg59 Mg 0.47475 0.39662 0.6332 0.0
C60 C 0.46401 0.42264 0.77252 0.0
C61 C 0.30177 0.34201 0.74674 0.0
O62 O 0.29572 0.32681 0.69219 0.0
O63 O 0.38336 0.3215 0.71317 0.0
O64 O 0.43864 0.33521 0.66922 0.0
O65 O 0.39361 0.43196 0.65499 0.0
O66 O 0.42284 0.4009 0.62556 0.0
C67 C 0.40774 0.31192 0.69672 0.0
C68 C 0.41893 0.43049 0.62085 0.0
O69 O 0.33602 0.36273 0.76458 0.0
Mg70 Mg 0.02299 0.39349 0.85356 0.0
O71 O 0.03909 0.44028 0.92454 0.0
O72 O 0.08424 0.49565 0.88586 0.0
Mg73 Mg 0.09781 0.48363 0.78998 0.0
C74 C 0.06189 0.47616 0.92906 0.0
C75 C 0.96892 0.31492 0.90466 0.0
O76 O 0.9726 0.30848 0.84719 0.0
O77 O 0.07742 0.39171 0.873 0.0
O78 O 0.12058 0.44569 0.82771 0.0
O79 O 0.98032 0.40674 0.8129 0.0
O80 O 0.04042 0.43322 0.78319 0.0
C81 C 0.11168 0.41476 0.85619 0.0
C82 C 0.00758 0.43086 0.77815 0.0
O83 O 0.98882 0.3487 0.92488 0.0
C84 C 0.55289 0.061 0.17369 0.0
C85 C 0.58108 0.05044 0.17292 0.0
C86 C 0.52989 0.0545 0.22504 0.0
C87 C 0.53558 0.03755 0.27729 0.0
C88 C 0.5646 0.02767 0.27744 0.0
C89 C 0.58682 0.03396 0.22505 0.0
C90 C 0.4989 0.06499 0.22284 0.0
C91 C 0.57186 0.0101 0.33268 0.0
C92 C 0.49229 0.05098 0.42169 0.0
C93 C 0.45751 0.01645 0.42456 0.0
C94 C 0.51891 0.05758 0.37558 0.0
C95 C 0.51021 0.02918 0.33088 0.0
C96 C 0.47578 0.99372 0.33493 0.0
C97 C 0.44996 0.98769 0.38201 0.0
C98 C 0.55566 0.09547 0.37337 0.0
C99 C 0.46531 0.96285 0.28782 0.0
H100 H 0.54809 0.07353 0.13352 0.0
H101 H 0.60871 0.02593 0.22495 0.0
H102 H 0.47059 0.03908 0.22983 0.0
H103 H 0.50302 0.08523 0.26003 0.0
H104 H 0.49843 0.07825 0.1789 0.0
H105 H 0.59677 0.00584 0.32651 0.0
H106 H 0.57703 0.02857 0.373 0.0
H107 H 0.54629 0.98204 0.34261 0.0
H108 H 0.4984 0.07322 0.45473 0.0
H109 H 0.42308 0.96097 0.38388 0.0
H110 H 0.55536 0.11199 0.33335 0.0
H111 H 0.58044 0.09099 0.36808 0.0
H112 H 0.55992 0.11285 0.41485 0.0
H113 H 0.4612 0.97299 0.24314 0.0
H114 H 0.43869 0.93605 0.29965 0.0
H115 H 0.48877 0.95638 0.28246 0.0
C116 C 0.55546 0.59289 0.38402 0.0
C117 C 0.53444 0.58866 0.33097 0.0
C118 C 0.53784 0.57079 0.43582 0.0
C119 C 0.49842 0.54334 0.43411 0.0
C120 C 0.47679 0.53988 0.38145 0.0
C121 C 0.495 0.56282 0.33069 0.0
C122 C 0.56169 0.57585 0.49156 0.0
C123 C 0.43477 0.5106 0.37759 0.0
C124 C 0.46215 0.45441 0.53099 0.0
C125 C 0.44188 0.46099 0.57659 0.0
C126 C 0.48119 0.48132 0.48502 0.0
C127 C 0.48045 0.51595 0.48512 0.0
C128 C 0.46127 0.52344 0.53231 0.0
C129 C 0.44189 0.49568 0.57729 0.0
C130 C 0.50101 0.47206 0.43516 0.0
C131 C 0.46052 0.56038 0.53451 0.0
H132 H 0.58589 0.61311 0.3848 0.0
H133 H 0.47857 0.55931 0.28985 0.0
H134 H 0.54754 0.5789 0.53268 0.0
H135 H 0.56448 0.55014 0.49804 0.0
H136 H 0.5908 0.6012 0.48802 0.0
H137 H 0.42155 0.51311 0.33488 0.0
H138 H 0.43094 0.48147 0.37988 0.0
H139 H 0.41918 0.51368 0.41667 0.0
H140 H 0.46211 0.42758 0.52995 0.0
H141 H 0.4264 0.50098 0.6126 0.0
H142 H 0.53145 0.49473 0.43217 0.0
H143 H 0.48757 0.4711 0.39074 0.0
H144 H 0.49965 0.44423 0.44249 0.0
H145 H 0.48998 0.58509 0.53139 0.0
H146 H 0.44701 0.56311 0.57676 0.0
H147 H 0.44436 0.56199 0.49498 0.0
C148 C 0.0284 0.47332 0.6873 0.0
C149 C 0.00118 0.45408 0.73286 0.0
C150 C 0.02145 0.49248 0.64039 0.0
C151 C 0.98662 0.49285 0.63944 0.0
C152 C 0.95959 0.4747 0.68654 0.0
C153 C 0.96708 0.45524 0.73253 0.0
C154 C 0.05087 0.51121 0.5907 0.0
C155 C 0.92243 0.47507 0.68755 0.0
C156 C 0.98594 0.56771 0.53636 0.0
C157 C 0.96855 0.54632 0.4838 0.0
C158 C 0.99057 0.55038 0.58838 0.0
C159 C 0.97803 0.51084 0.5875 0.0
C160 C 0.95951 0.4889 0.53524 0.0
C161 C 0.95475 0.50685 0.48417 0.0
C162 C 0.00988 0.57459 0.64362 0.0
C163 C 0.94609 0.44671 0.53234 0.0
H164 H 0.05474 0.47239 0.68706 0.0
H165 H 0.94599 0.44054 0.76778 0.0
H166 H 0.03841 0.49738 0.54647 0.0
H167 H 0.05929 0.54177 0.58653 0.0
H168 H 0.07696 0.50929 0.59908 0.0
H169 H 0.90582 0.4622 0.72973 0.0
H170 H 0.92801 0.50479 0.68359 0.0
H171 H 0.90466 0.4589 0.64801 0.0
H172 H -0.00364 0.59817 0.53668 0.0
H173 H 0.94135 0.49012 0.44376 0.0
H174 H 0.03784 0.57626 0.6509 0.0
H175 H 0.99233 0.56137 0.6848 0.0
H176 H 0.01483 0.60409 0.639 0.0
H177 H 0.97102 0.44232 0.53577 0.0
H178 H 0.93057 0.43338 0.48951 0.0
H179 H 0.92699 0.43165 0.57124 0.0
C180 C 0.54528 0.00953 0.93059 0.0
C181 C 0.57229 -0.00183 0.9204 0.0
C182 C 0.51697 0.00212 0.8871 0.0
C183 C 0.51696 0.98443 0.83145 0.0
C184 C 0.54427 0.97279 0.82146 0.0
C185 C 0.57126 0.97925 0.86668 0.0
C186 C 0.48753 0.01375 0.90021 0.0
C187 C 0.54606 0.95502 0.76204 0.0
C188 C 0.43263 0.94053 0.7228 0.0
C189 C 0.44269 0.97063 0.68208 0.0
C190 C 0.45557 0.94522 0.77367 0.0
C191 C 0.4901 0.98023 0.78198 0.0
C192 C 0.50019 0.01068 0.74072 0.0
C193 C 0.47589 0.00572 0.69187 0.0
C194 C 0.44316 0.91265 0.81798 0.0
C195 C 0.5374 0.04795 0.74663 0.0
H196 H 0.54635 0.02417 0.97251 0.0
H197 H 0.59258 0.97088 0.8591 0.0
H198 H 0.49203 0.03743 0.86965 0.0
H199 H 0.45839 0.98951 0.89123 0.0
H200 H 0.48895 0.02329 0.94797 0.0
H201 H 0.56895 0.94742 0.76176 0.0
H202 H 0.51836 0.92884 0.75283 0.0
H203 H 0.55137 0.97523 0.72422 0.0
H204 H 0.40673 0.91348 0.715 0.0
H205 H 0.48366 0.02877 0.65972 0.0
H206 H 0.44427 0.92293 0.86513 0.0
H207 H 0.463 0.90122 0.81557 0.0
H208 H 0.41375 0.88897 0.80857 0.0
H209 H 0.53904 0.06113 0.79154 0.0
H210 H 0.54093 0.06873 0.71065 0.0
H211 H 0.56172 0.04255 0.74386 0.0
C212 C 0.55453 0.57624 0.03342 0.0
C213 C 0.57408 0.56852 0.07876 0.0
C214 C 0.53529 0.55 0.98662 0.0
C215 C 0.53517 0.51492 0.98553 0.0
C216 C 0.55351 0.50625 0.03256 0.0
C217 C 0.57302 0.53331 0.07844 0.0
C218 C 0.51635 0.56047 0.93703 0.0
C219 C 0.5534 0.46886 0.03346 0.0
C220 C 0.46108 0.43926 0.88134 0.0
C221 C 0.48277 0.44364 0.82901 0.0
C222 C 0.47806 0.46113 0.93367 0.0
C223 C 0.51753 0.48843 0.9333 0.0
C224 C 0.53978 0.49224 0.88126 0.0
C225 C 0.52219 0.4696 0.82991 0.0
C226 C 0.45355 0.4558 0.98869 0.0
C227 C 0.5819 0.52133 0.87887 0.0
H228 H 0.55535 0.60345 0.03319 0.0
H229 H 0.58795 0.52711 0.11352 0.0
H230 H 0.53039 0.56222 0.89285 0.0
H231 H 0.4859 0.53806 0.93256 0.0
H232 H 0.51786 0.58827 0.94573 0.0
H233 H 0.56607 0.4651 0.07585 0.0
H234 H 0.52378 0.44458 0.0289 0.0
H235 H 0.56994 0.46756 0.99421 0.0
H236 H 0.43066 0.419 0.88125 0.0
H237 H 0.53916 0.47325 0.78967 0.0
H238 H 0.4515 0.48186 0.99608 0.0
H239 H 0.46677 0.45158 0.02995 0.0
H240 H 0.42419 0.43103 0.98369 0.0
H241 H 0.58599 0.55052 0.88263 0.0
H242 H 0.5955 0.51949 0.83609 0.0
H243 H 0.59696 0.51733 0.91781 0.0
C244 C 0.04401 0.47515 0.03824 0.0
C245 C 0.06069 0.49596 0.98498 0.0
C246 C 0.03972 0.49299 0.08998 0.0
C247 C 0.0518 0.53241 0.08803 0.0
C248 C 0.06978 0.55381 0.03511 0.0
C249 C 0.07429 0.53538 0.98438 0.0
C250 C 0.02107 0.46936 0.14596 0.0
C251 C 0.08262 0.59583 0.031 0.0
C252 C -0.00013 0.5691 0.1861 0.0
C253 C 0.02691 0.5892 0.23153 0.0
C254 C 0.00747 0.55005 0.13973 0.0
C255 C 0.04278 0.55064 0.1392 0.0
C256 C 0.06971 0.56976 0.18609 0.0
C257 C 0.06158 0.58912 0.23152 0.0
C258 C 0.97814 0.53031 0.09022 0.0
C259 C 0.10735 0.57037 0.18758 0.0
H260 H 0.03379 0.44474 0.03927 0.0
H261 H 0.08713 0.55164 0.94338 0.0
H262 H 0.03857 0.48351 0.18682 0.0
H263 H 0.99273 0.46689 0.15293 0.0
H264 H 0.017 0.44014 0.14242 0.0
H265 H 0.09813 0.60884 0.98804 0.0
H266 H 0.05739 0.59977 0.03368 0.0
H267 H 0.10154 0.61151 0.06978 0.0
H268 H 0.97311 0.56921 0.18559 0.0
H269 H 0.08252 0.60449 0.26667 0.0
H270 H 0.97016 0.49982 0.08723 0.0
H271 H 0.99047 0.54361 0.04567 0.0
H272 H 0.95179 0.53187 0.09795 0.0
H273 H 0.10245 0.54085 0.18474 0.0
H274 H 0.12395 0.5841 0.22944 0.0
H275 H 0.12483 0.5862 0.14762 0.0
C276 C 0.60572 0.77501 0.18009 0.0
C277 C 0.62827 0.76109 0.20529 0.0
C278 C 0.62005 0.81425 0.17291 0.0
C279 C 0.65768 0.84037 0.19233 0.0
C280 C 0.67929 0.82678 0.22304 0.0
C281 C 0.66443 0.78721 0.2288 0.0
C282 C 0.59591 0.82751 0.14012 0.0
C283 C 0.71901 0.8538 0.24622 0.0
C284 C 0.70183 0.92646 0.08957 0.0
C285 C 0.69215 0.95097 0.1198 0.0
C286 C 0.69342 0.89137 0.11508 0.0
C287 C 0.67553 0.88089 0.17273 0.0
C288 C 0.66952 0.90729 0.20628 0.0
C289 C 0.67759 0.94198 0.17916 0.0
C290 C 0.70045 0.8641 0.07774 0.0
C291 C 0.65184 0.89777 0.26879 0.0
H292 H 0.57755 0.75519 0.16254 0.0
H293 H 0.68195 0.77683 0.24911 0.0
H294 H 0.59442 0.85004 0.1667 0.0
H295 H 0.6092 0.8401 0.09566 0.0
H296 H 0.56633 0.80383 0.13183 0.0
H297 H 0.72825 0.83992 0.28051 0.0
H298 H 0.73948 0.86325 0.20777 0.0
H299 H 0.7206 0.87964 0.26671 0.0
H300 H 0.71353 0.93336 0.04401 0.0
H301 H 0.67062 0.96109 0.2033 0.0
H302 H 0.67266 0.83966 0.06301 0.0
H303 H 0.71521 0.85242 0.10527 0.0
H304 H 0.7179 0.87794 0.03664 0.0
H305 H 0.6205 0.87874 0.26459 0.0
H306 H 0.65718 0.92384 0.29391 0.0
H307 H 0.66314 0.88243 0.29583 0.0
C308 C 0.88818 0.66554 0.39199 0.0
C309 C 0.88161 0.63224 0.36152 0.0
C310 C 0.86154 0.67821 0.38888 0.0
C311 C 0.82812 0.65753 0.35339 0.0
C312 C 0.82022 0.62263 0.326 0.0
C313 C 0.84682 0.61024 0.33099 0.0
C314 C 0.87028 0.71478 0.42065 0.0
C315 C 0.78495 0.59966 0.28755 0.0
C316 C 0.74094 0.66877 0.34398 0.0
C317 C 0.74762 0.68828 0.28859 0.0
C318 C 0.76875 0.66186 0.36953 0.0
C319 C 0.80349 0.67396 0.33809 0.0
C320 C 0.81162 0.6966 0.28511 0.0
C321 C 0.7837 0.70383 0.26136 0.0
C322 C 0.75969 0.63906 0.42751 0.0
C323 C 0.84831 0.71007 0.25007 0.0
H324 H 0.91474 0.68251 0.4164 0.0
H325 H 0.84118 0.58429 0.30774 0.0
H326 H 0.88196 0.73853 0.38734 0.0
H327 H 0.84402 0.71264 0.44046 0.0
H328 H 0.89175 0.72217 0.45731 0.0
H329 H 0.78213 0.57224 0.27187 0.0
H330 H 0.75892 0.5933 0.31351 0.0
H331 H 0.78611 0.61653 0.24703 0.0
H332 H 0.71333 0.65728 0.36591 0.0
H333 H 0.78924 0.71928 0.2189 0.0
H334 H 0.78528 0.65022 0.45713 0.0
H335 H 0.75062 0.60892 0.41647 0.0
H336 H 0.73622 0.63948 0.45317 0.0
H337 H 0.8733 0.72399 0.2809 0.0
H338 H 0.85191 0.73053 0.21349 0.0
H339 H 0.84835 0.68512 0.22906 0.0
C340 C 0.11556 0.78924 0.41166 0.0
C341 C 0.08602 0.75681 0.4398 0.0
C342 C 0.14835 0.81478 0.44398 0.0
C343 C 0.15136 0.80823 0.50643 0.0
C344 C 0.12019 0.77746 0.53643 0.0
C345 C 0.08799 0.75176 0.50253 0.0
C346 C 0.18095 0.84716 0.40999 0.0
C347 C 0.12163 0.77025 0.60335 0.0
C348 C 0.25449 0.84349 0.54385 0.0
C349 C 0.26705 0.88155 0.56 0.0
C350 C 0.21589 0.81796 0.53171 0.0
C351 C 0.18908 0.83061 0.53683 0.0
C352 C 0.20078 0.86739 0.5606 0.0
C353 C 0.23979 0.89263 0.57158 0.0
C354 C 0.20462 0.7788 0.50719 0.0
C355 C 0.17271 0.88127 0.56931 0.0
H356 H 0.11418 0.79356 0.36335 0.0
H357 H 0.065 0.72701 0.52481 0.0
H358 H 0.1901 0.87469 0.43342 0.0
H359 H 0.20585 0.84259 0.40902 0.0
H360 H 0.1732 0.84956 0.36243 0.0
H361 H 0.09248 0.75282 0.62266 0.0
H362 H 0.13716 0.7544 0.61013 0.0
H363 H 0.13698 0.79745 0.62907 0.0
H364 H 0.27517 0.8343 0.53618 0.0
H365 H 0.24904 0.92176 0.58515 0.0
H366 H 0.19753 0.77748 0.4582 0.0
H367 H 0.17884 0.75654 0.5308 0.0
H368 H 0.22786 0.7719 0.51222 0.0
H369 H 0.16695 0.89031 0.52486 0.0
H370 H 0.18402 0.90607 0.60079 0.0
H371 H 0.14512 0.85814 0.58727 0.0
C372 C 0.36235 0.24347 0.72473 0.0
C373 C 0.39794 0.27142 0.70188 0.0
C374 C 0.35013 0.20439 0.71872 0.0
C375 C 0.37383 0.19315 0.6884 0.0
C376 C 0.41089 0.22121 0.66952 0.0
C377 C 0.42258 0.25992 0.67698 0.0
C378 C 0.31093 0.17528 0.74126 0.0
C379 C 0.43717 0.21051 0.63703 0.0
C380 C 0.36 0.09352 0.67679 0.0
C381 C 0.34508 0.0832 0.61781 0.0
C382 C 0.36656 0.128 0.70297 0.0
C383 C 0.35869 0.15291 0.66882 0.0
C384 C 0.34103 0.14128 0.61114 0.0
C385 C 0.33413 0.10641 0.58661 0.0
C386 C 0.38422 0.13882 0.76541 0.0
C387 C 0.33222 0.16701 0.57309 0.0
H388 H 0.34324 0.25199 0.74478 0.0
H389 H 0.45035 0.28117 0.65991 0.0
H390 H 0.29086 0.16411 0.70231 0.0
H391 H 0.31144 0.15072 0.76273 0.0
H392 H 0.29968 0.18788 0.77458 0.0
H393 H 0.46605 0.23555 0.62931 0.0
H394 H 0.44026 0.18889 0.66349 0.0
H395 H 0.42468 0.19761 0.5923 0.0
H396 H 0.36801 0.07544 0.70161 0.0
H397 H 0.32227 0.09852 0.54126 0.0
H398 H 0.37112 0.15251 0.79236 0.0
H399 H 0.41516 0.15976 0.76109 0.0
H400 H 0.38103 0.11362 0.79071 0.0
H401 H 0.31585 0.1772 0.59996 0.0
H402 H 0.31558 0.15244 0.53166 0.0
H403 H 0.35934 0.19252 0.5589 0.0
C404 C 0.13234 0.36804 0.888 0.0
C405 C 0.14113 0.40327 0.86213 0.0
C406 C 0.15784 0.35402 0.88321 0.0
C407 C 0.19247 0.37543 0.85086 0.0
C408 C 0.20268 0.41219 0.82873 0.0
C409 C 0.1771 0.42577 0.83519 0.0
C410 C 0.14658 0.31534 0.90943 0.0
C411 C 0.23936 0.43607 0.79392 0.0
C412 C 0.27635 0.35876 0.83854 0.0
C413 C 0.27021 0.34228 0.78049 0.0
C414 C 0.24929 0.36639 0.8653 0.0
C415 C 0.21588 0.35809 0.83256 0.0
C416 C 0.2081 0.33845 0.7764 0.0
C417 C 0.23521 0.33044 0.75136 0.0
C418 C 0.25788 0.38591 0.9264 0.0
C419 C 0.17282 0.32907 0.73988 0.0
H420 H 0.10486 0.3506 0.90968 0.0
H421 H 0.18452 0.45325 0.81574 0.0
H422 H 0.13524 0.29363 0.8727 0.0
H423 H 0.17163 0.31512 0.92962 0.0
H424 H 0.12409 0.30672 0.94473 0.0
H425 H 0.24413 0.46496 0.783 0.0
H426 H 0.26416 0.43936 0.82041 0.0
H427 H 0.23851 0.42148 0.75071 0.0
H428 H 0.30308 0.36739 0.86187 0.0
H429 H 0.23001 0.3173 0.70682 0.0
H430 H 0.23161 0.37459 0.95444 0.0
H431 H 0.26907 0.41692 0.91987 0.0
H432 H 0.27966 0.38231 0.95169 0.0
H433 H 0.1469 0.31442 0.76866 0.0
H434 H 0.1692 0.31059 0.70012 0.0
H435 H 0.17486 0.35592 0.72315 0.0
C436 C 0.9314 0.29234 0.00167 0.0
C437 C 0.93748 0.2851 0.94147 0.0
C438 C 0.89821 0.26642 0.03332 0.0
C439 C 0.87034 0.23294 0.0036 0.0
C440 C 0.87753 0.22445 0.94425 0.0
C441 C 0.91112 0.25047 0.91417 0.0
C442 C 0.89213 0.276 0.09713 0.0
C443 C 0.84859 0.18903 0.9108 0.0
C444 C 0.78446 0.14675 0.07071 0.0
C445 C 0.75488 0.15279 0.05078 0.0
C446 C 0.82292 0.17447 0.06119 0.0
C447 C 0.83183 0.2087 0.03058 0.0
C448 C 0.8023 0.21657 0.01635 0.0
C449 C 0.76421 0.18862 0.027 0.0
C450 C 0.85372 0.16565 0.0791 0.0
C451 C 0.81056 0.25293 0.98426 0.0
H452 H 0.95184 0.31888 0.02337 0.0
H453 H 0.91571 0.24445 0.86791 0.0
H454 H 0.87261 0.28784 0.09599 0.0
H455 H 0.87869 0.25009 0.12613 0.0
H456 H 0.91941 0.29759 0.11843 0.0
H457 H 0.85949 0.18556 0.8663 0.0
H458 H 0.84047 0.16321 0.93859 0.0
H459 H 0.82227 0.19054 0.90268 0.0
H460 H 0.77767 0.11945 0.09016 0.0
H461 H 0.74167 0.19397 0.01253 0.0
H462 H 0.87908 0.19143 0.09746 0.0
H463 H 0.86303 0.15624 0.0384 0.0
H464 H 0.84335 0.14252 0.11357 0.0
H465 H 0.83431 0.27813 0.00689 0.0
H466 H 0.78518 0.25673 0.98296 0.0
H467 H 0.81956 0.25223 0.93684 0.0
loop_
_geom_bond_atom_site_label_1
_geom_bond_atom_site_label_2
_geom_bond_distance
_geom_bond_site_symmetry_2
_ccdc_geom_bond_type
Mg0 O1 2.028 . S
Mg0 O7 1.986 . S
Mg0 O9 2.114 1_544 S
Mg0 O10 2.251 1_554 S
Mg0 O13 2.010 1_545 S
O1 Mg0 2.028 . S
O1 C4 1.250 . S
O2 Mg3 2.028 . S
O2 C4 1.248 . S
Mg3 O2 2.028 . S
Mg3 O8 2.032 . S
Mg3 O10 2.079 1_554 S
C4 O1 1.250 . S
C4 O2 1.248 . S
C5 O6 1.264 . S
C5 O13 1.249 . S
O6 C5 1.264 . S
O7 Mg0 1.986 . S
O7 C11 1.246 . S
O8 Mg3 2.032 . S
O8 C11 1.259 . S
O9 Mg0 2.114 1_566 S
O9 C12 1.252 1_565 S
O10 Mg0 2.251 1_556 S
O10 Mg3 2.079 1_556 S
O10 C12 1.273 . S
C11 O7 1.246 . S
C11 O8 1.259 . S
C12 O9 1.252 1_545 S
C12 O10 1.273 . S
O13 Mg0 2.010 1_565 S
O13 C5 1.249 . S
Mg14 O15 2.028 . S
Mg14 O21 1.986 . S
Mg14 O23 2.114 . S
Mg14 O24 2.251 . S
Mg14 O27 2.010 . S
O15 Mg14 2.028 . S
O15 C18 1.250 . S
O16 Mg17 2.028 . S
O16 C18 1.248 . S
Mg17 O16 2.028 . S
Mg17 O22 2.032 . S
Mg17 O24 2.079 . S
C18 O15 1.250 . S
C18 O16 1.248 . S
C19 O20 1.264 . S
C19 O27 1.249 . S
O20 C19 1.264 . S
O21 Mg14 1.986 . S
O21 C25 1.246 . S
O22 Mg17 2.032 . S
O22 C25 1.259 . S
O23 Mg14 2.114 . S
O23 C26 1.252 . S
O24 Mg14 2.251 . S
O24 Mg17 2.079 . S
O24 C26 1.273 . S
C25 O21 1.246 . S
C25 O22 1.259 . S
C26 O23 1.252 . S
C26 O24 1.273 . S
O27 Mg14 2.010 . S
O27 C19 1.249 . S
Mg28 O29 2.028 . S
Mg28 O35 1.986 1_455 S
Mg28 O37 2.114 . S
Mg28 O38 2.251 1_455 S
Mg28 O41 2.010 . S
O29 Mg28 2.028 . S
O29 C32 1.250 . S
O30 Mg31 2.028 . S
O30 C32 1.248 1_655 S
Mg31 O30 2.028 . S
Mg31 O36 2.032 . S
Mg31 O38 2.079 . S
C32 O29 1.250 . S
C32 O30 1.248 1_455 S
C33 O34 1.264 . S
C33 O41 1.249 . S
O34 C33 1.264 . S
O35 Mg28 1.986 1_655 S
O35 C39 1.246 . S
O36 Mg31 2.032 . S
O36 C39 1.259 . S
O37 Mg28 2.114 . S
O37 C40 1.252 . S
O38 Mg28 2.251 1_655 S
O38 Mg31 2.079 . S
O38 C40 1.273 1_655 S
C39 O35 1.246 . S
C39 O36 1.259 . S
C40 O37 1.252 . S
C40 O38 1.273 1_455 S
O41 Mg28 2.010 . S
O41 C33 1.249 . S
Mg42 O43 2.028 . S
Mg42 O49 1.986 1_545 S
Mg42 O51 2.114 . S
Mg42 O52 2.251 1_545 S
Mg42 O55 2.010 . S
O43 Mg42 2.028 . S
O43 C46 1.250 . S
O44 Mg45 2.028 . S
O44 C46 1.248 1_565 S
Mg45 O44 2.028 . S
Mg45 O50 2.032 . S
Mg45 O52 2.079 . S
C46 O43 1.250 . S
C46 O44 1.248 1_545 S
C47 O48 1.264 . S
C47 O55 1.249 . S
O48 C47 1.264 . S
O49 Mg42 1.986 1_565 S
O49 C53 1.246 . S
O50 Mg45 2.032 . S
O50 C53 1.259 . S
O51 Mg42 2.114 . S
O51 C54 1.252 . S
O52 Mg42 2.251 1_565 S
O52 Mg45 2.079 . S
O52 C54 1.273 1_565 S
C53 O49 1.246 . S
C53 O50 1.259 . S
C54 O51 1.252 . S
C54 O52 1.273 1_545 S
O55 Mg42 2.010 . S
O55 C47 1.249 . S
Mg56 O57 2.028 . S
Mg56 O63 1.986 . S
Mg56 O65 2.114 . S
Mg56 O66 2.251 . S
Mg56 O69 2.010 . S
O57 Mg56 2.028 . S
O57 C60 1.250 . S
O58 Mg59 2.028 . S
O58 C60 1.248 . S
Mg59 O58 2.028 . S
Mg59 O64 2.032 . S
Mg59 O66 2.079 . S
C60 O57 1.250 . S
C60 O58 1.248 . S
C61 O62 1.264 . S
C61 O69 1.249 . S
O62 C61 1.264 . S
O63 Mg56 1.986 . S
O63 C67 1.246 . S
O64 Mg59 2.032 . S
O64 C67 1.259 . S
O65 Mg56 2.114 . S
O65 C68 1.252 . S
O66 Mg56 2.251 . S
O66 Mg59 2.079 . S
O66 C68 1.273 . S
C67 O63 1.246 . S
C67 O64 1.259 . S
C68 O65 1.252 . S
C68 O66 1.273 . S
O69 Mg56 2.010 . S
O69 C61 1.249 . S
Mg70 O71 2.028 . S
Mg70 O77 1.986 . S
Mg70 O79 2.114 1_455 S
Mg70 O80 2.251 . S
Mg70 O83 2.010 1_455 S
O71 Mg70 2.028 . S
O71 C74 1.250 . S
O72 Mg73 2.028 . S
O72 C74 1.248 . S
Mg73 O72 2.028 . S
Mg73 O78 2.032 . S
Mg73 O80 2.079 . S
C74 O71 1.250 . S
C74 O72 1.248 . S
C75 O76 1.264 . S
C75 O83 1.249 . S
O76 C75 1.264 . S
O77 Mg70 1.986 . S
O77 C81 1.246 . S
O78 Mg73 2.032 . S
O78 C81 1.259 . S
O79 Mg70 2.114 1_655 S
O79 C82 1.252 1_655 S
O80 Mg70 2.251 . S
O80 Mg73 2.079 . S
O80 C82 1.273 . S
C81 O77 1.246 . S
C81 O78 1.259 . S
C82 O79 1.252 1_455 S
C82 O80 1.273 . S
O83 Mg70 2.010 1_655 S
O83 C75 1.249 . S
C84 C85 1.391 . S
C84 C86 1.394 . S
C84 H100 0.931 1_545 S
C85 C84 1.391 . S
C85 C89 1.376 . S
C86 C84 1.394 . S
C86 C87 1.369 . S
C86 C90 1.531 1_545 S
C87 C86 1.369 . S
C87 C88 1.410 . S
C87 C95 1.503 . S
C88 C87 1.410 . S
C88 C89 1.392 . S
C88 C91 1.511 . S
C89 C85 1.376 . S
C89 C88 1.392 . S
C89 H101 0.929 . S
C90 C86 1.531 1_565 S
C90 H102 0.960 . S
C90 H103 0.962 1_565 S
C90 H104 0.960 . S
C91 C88 1.511 . S
C91 H105 0.961 . S
C91 H106 0.961 . S
C91 H107 0.961 . S
C92 C93 1.370 . S
C92 C94 1.363 . S
C92 H108 0.931 . S
C93 C92 1.370 . S
C93 C97 1.408 1_545 S
C94 C92 1.363 . S
C94 C95 1.370 . S
C94 C98 1.524 . S
C95 C87 1.503 . S
C95 C94 1.370 . S
C95 C96 1.403 1_545 S
C96 C95 1.403 1_565 S
C96 C97 1.404 . S
C96 C99 1.539 . S
C97 C93 1.408 1_565 S
C97 C96 1.404 . S
C97 H109 0.930 . S
C98 C94 1.524 . S
C98 H110 0.956 . S
C98 H111 0.961 . S
C98 H112 0.961 . S
C99 C96 1.539 . S
C99 H113 0.958 . S
C99 H114 0.961 . S
C99 H115 0.960 . S
H100 C84 0.931 1_565 S
H101 C89 0.929 . S
H102 C90 0.960 . S
H103 C90 0.962 1_545 S
H104 C90 0.960 . S
H105 C91 0.961 . S
H106 C91 0.961 . S
H107 C91 0.961 . S
H108 C92 0.931 . S
H109 C97 0.930 . S
H110 C98 0.956 . S
H111 C98 0.961 . S
H112 C98 0.961 . S
H113 C99 0.958 . S
H114 C99 0.961 . S
H115 C99 0.960 . S
C116 C117 1.391 . S
C116 C118 1.394 . S
C116 H132 0.931 . S
C117 C116 1.391 . S
C117 C121 1.376 . S
C118 C116 1.394 . S
C118 C119 1.369 . S
C118 C122 1.531 . S
C119 C118 1.369 . S
C119 C120 1.410 . S
C119 C127 1.503 . S
C120 C119 1.410 . S
C120 C121 1.392 . S
C120 C123 1.511 . S
C121 C117 1.376 . S
C121 C120 1.392 . S
C121 H133 0.929 . S
C122 C118 1.531 . S
C122 H134 0.960 . S
C122 H135 0.962 . S
C122 H136 0.960 . S
C123 C120 1.511 . S
C123 H137 0.961 . S
C123 H138 0.961 . S
C123 H139 0.961 . S
C124 C125 1.370 . S
C124 C126 1.363 . S
C124 H140 0.931 . S
C125 C124 1.370 . S
C125 C129 1.408 . S
C126 C124 1.363 . S
C126 C127 1.370 . S
C126 C130 1.524 . S
C127 C119 1.503 . S
C127 C126 1.370 . S
C127 C128 1.403 . S
C128 C127 1.403 . S
C128 C129 1.404 . S
C128 C131 1.539 . S
C129 C125 1.408 . S
C129 C128 1.404 . S
C129 H141 0.930 . S
C130 C126 1.524 . S
C130 H142 0.956 . S
C130 H143 0.961 . S
C130 H144 0.961 . S
C131 C128 1.539 . S
C131 H145 0.958 . S
C131 H146 0.961 . S
C131 H147 0.960 . S
H132 C116 0.931 . S
H133 C121 0.929 . S
H134 C122 0.960 . S
H135 C122 0.962 . S
H136 C122 0.960 . S
H137 C123 0.961 . S
H138 C123 0.961 . S
H139 C123 0.961 . S
H140 C124 0.931 . S
H141 C129 0.930 . S
H142 C130 0.956 . S
H143 C130 0.961 . S
H144 C130 0.961 . S
H145 C131 0.958 . S
H146 C131 0.961 . S
H147 C131 0.960 . S
C148 C149 1.391 . S
C148 C150 1.394 . S
C148 H164 0.931 . S
C149 C148 1.391 . S
C149 C153 1.376 1_455 S
C150 C148 1.394 . S
C150 C151 1.353 1_455 S
C150 C154 1.531 . S
C151 C150 1.353 1_655 S
C151 C152 1.418 . S
C151 C159 1.510 1_655 S
C152 C151 1.418 . S
C152 C153 1.392 . S
C152 C155 1.511 . S
C153 C149 1.376 1_655 S
C153 C152 1.392 . S
C153 H165 0.929 . S
C154 C150 1.531 . S
C154 H166 0.960 . S
C154 H167 0.962 . S
C154 H168 0.960 . S
C155 C152 1.511 . S
C155 H169 0.961 . S
C155 H170 0.961 . S
C155 H171 0.961 . S
C156 C157 1.370 . S
C156 C158 1.363 . S
C156 H172 0.931 . S
C157 C156 1.370 . S
C157 C161 1.408 1_455 S
C158 C156 1.363 . S
C158 C159 1.370 . S
C158 C162 1.524 . S
C159 C151 1.510 1_455 S
C159 C158 1.370 . S
C159 C160 1.403 1_455 S
C160 C159 1.403 1_655 S
C160 C161 1.404 . S
C160 C163 1.539 . S
C161 C157 1.408 1_655 S
C161 C160 1.404 . S
C161 H173 0.930 . S
C162 C158 1.524 . S
C162 H174 0.956 . S
C162 H175 0.961 . S
C162 H176 0.961 . S
C163 C160 1.539 . S
C163 H177 0.958 . S
C163 H178 0.961 . S
C163 H179 0.960 . S
H164 C148 0.931 . S
H165 C153 0.929 . S
H166 C154 0.960 . S
H167 C154 0.962 . S
H168 C154 0.960 . S
H169 C155 0.961 . S
H170 C155 0.961 . S
H171 C155 0.961 . S
H172 C156 0.931 . S
H173 C161 0.930 . S
H174 C162 0.956 . S
H175 C162 0.961 . S
H176 C162 0.961 . S
H177 C163 0.958 . S
H178 C163 0.961 . S
H179 C163 0.960 . S
C180 C181 1.391 . S
C180 C182 1.394 . S
C180 H196 0.931 . S
C181 C180 1.391 . S
C181 C185 1.376 1_545 S
C182 C180 1.394 . S
C182 C183 1.369 . S
C182 C186 1.531 . S
C183 C182 1.369 . S
C183 C184 1.410 . S
C183 C191 1.503 . S
C184 C183 1.410 . S
C184 C185 1.392 1_545 S
C184 C187 1.511 1_545 S
C185 C181 1.376 1_565 S
C185 C184 1.392 1_565 S
C185 H197 0.929 . S
C186 C182 1.531 . S
C186 H198 0.960 . S
C186 H199 0.962 . S
C186 H200 0.960 . S
C187 C184 1.511 1_565 S
C187 H201 0.961 . S
C187 H202 0.961 . S
C187 H203 0.961 1_565 S
C188 C189 1.370 1_565 S
C188 C190 1.363 . S
C188 H204 0.931 . S
C189 C188 1.370 1_545 S
C189 C193 1.408 . S
C190 C188 1.363 . S
C190 C191 1.370 1_565 S
C190 C194 1.524 . S
C191 C183 1.503 . S
C191 C190 1.370 1_545 S
C191 C192 1.403 . S
C192 C191 1.403 . S
C192 C193 1.404 . S
C192 C195 1.539 . S
C193 C189 1.408 . S
C193 C192 1.404 . S
C193 H205 0.930 . S
C194 C190 1.524 . S
C194 H206 0.956 . S
C194 H207 0.961 . S
C194 H208 0.961 . S
C195 C192 1.539 . S
C195 H209 0.958 . S
C195 H210 0.961 . S
C195 H211 0.960 . S
H196 C180 0.931 . S
H197 C185 0.929 . S
H198 C186 0.960 . S
H199 C186 0.962 . S
H200 C186 0.960 . S
H201 C187 0.961 . S
H202 C187 0.961 . S
H203 C187 0.961 1_545 S
H204 C188 0.931 . S
H205 C193 0.930 . S
H206 C194 0.956 . S
H207 C194 0.961 . S
H208 C194 0.961 . S
H209 C195 0.958 . S
H210 C195 0.961 . S
H211 C195 0.960 . S
C212 C213 1.391 . S
C212 C214 1.394 . S
C212 H228 0.931 . S
C213 C212 1.391 . S
C213 C217 1.376 . S
C214 C212 1.394 . S
C214 C215 1.369 1_554 S
C214 C218 1.531 1_554 S
C215 C214 1.369 1_556 S
C215 C216 1.410 1_556 S
C215 C223 1.503 . S
C216 C215 1.410 1_554 S
C216 C217 1.392 . S
C216 C219 1.511 . S
C217 C213 1.376 . S
C217 C216 1.392 . S
C217 H229 0.929 . S
C218 C214 1.531 1_556 S
C218 H230 0.960 . S
C218 H231 0.962 . S
C218 H232 0.960 . S
C219 C216 1.511 . S
C219 H233 0.961 . S
C219 H234 0.961 1_554 S
C219 H235 0.961 1_554 S
C220 C221 1.370 . S
C220 C222 1.363 . S
C220 H236 0.931 . S
C221 C220 1.370 . S
C221 C225 1.408 . S
C222 C220 1.363 . S
C222 C223 1.370 . S
C222 C226 1.524 1_556 S
C223 C215 1.503 . S
C223 C222 1.370 . S
C223 C224 1.403 . S
C224 C223 1.403 . S
C224 C225 1.404 . S
C224 C227 1.539 . S
C225 C221 1.408 . S
C225 C224 1.404 . S
C225 H237 0.930 . S
C226 C222 1.524 1_554 S
C226 H238 0.956 . S
C226 H239 0.961 . S
C226 H240 0.961 . S
C227 C224 1.539 . S
C227 H241 0.958 . S
C227 H242 0.961 . S
C227 H243 0.960 . S
H228 C212 0.931 . S
H229 C217 0.929 . S
H230 C218 0.960 . S
H231 C218 0.962 . S
H232 C218 0.960 . S
H233 C219 0.961 . S
H234 C219 0.961 1_556 S
H235 C219 0.961 1_556 S
H236 C220 0.931 . S
H237 C225 0.930 . S
H238 C226 0.956 . S
H239 C226 0.961 . S
H240 C226 0.961 . S
H241 C227 0.958 . S
H242 C227 0.961 . S
H243 C227 0.960 . S
C244 C245 1.391 . S
C244 C246 1.394 . S
C244 H260 0.931 . S
C245 C244 1.391 . S
C245 C249 1.376 . S
C246 C244 1.394 . S
C246 C247 1.369 . S
C246 C250 1.531 . S
C247 C246 1.369 . S
C247 C248 1.410 . S
C247 C255 1.503 . S
C248 C247 1.410 . S
C248 C249 1.392 . S
C248 C251 1.511 . S
C249 C245 1.376 . S
C249 C248 1.392 . S
C249 H261 0.929 1_554 S
C250 C246 1.531 . S
C250 H262 0.960 . S
C250 H263 0.962 1_455 S
C250 H264 0.960 . S
C251 C248 1.511 . S
C251 H265 0.961 . S
C251 H266 0.961 . S
C251 H267 0.961 . S
C252 C253 1.370 1_655 S
C252 C254 1.375 . S
C252 H268 0.931 . S
C253 C252 1.370 1_455 S
C253 C257 1.408 . S
C254 C252 1.375 . S
C254 C255 1.341 1_655 S
C254 C258 1.543 . S
C255 C247 1.503 . S
C255 C254 1.341 1_455 S
C255 C256 1.403 . S
C256 C255 1.403 . S
C256 C257 1.404 . S
C256 C259 1.539 . S
C257 C253 1.408 . S
C257 C256 1.404 . S
C257 H269 0.930 . S
C258 C254 1.543 . S
C258 H270 0.956 . S
C258 H271 0.961 . S
C258 H272 0.961 . S
C259 C256 1.539 . S
C259 H273 0.958 . S
C259 H274 0.961 . S
C259 H275 0.960 . S
H260 C244 0.931 . S
H261 C249 0.929 1_556 S
H262 C250 0.960 . S
H263 C250 0.962 1_655 S
H264 C250 0.960 . S
H265 C251 0.961 . S
H266 C251 0.961 . S
H267 C251 0.961 . S
H268 C252 0.931 . S
H269 C257 0.930 . S
H270 C258 0.956 . S
H271 C258 0.961 . S
H272 C258 0.961 . S
H273 C259 0.958 . S
H274 C259 0.961 . S
H275 C259 0.960 . S
C276 C277 1.391 . S
C276 C278 1.394 . S
C276 H292 0.931 . S
C277 C276 1.391 . S
C277 C281 1.376 . S
C278 C276 1.394 . S
C278 C279 1.369 . S
C278 C282 1.531 . S
C279 C278 1.369 . S
C279 C280 1.410 . S
C279 C287 1.503 . S
C280 C279 1.410 . S
C280 C281 1.392 . S
C280 C283 1.511 . S
C281 C277 1.376 . S
C281 C280 1.392 . S
C281 H293 0.929 . S
C282 C278 1.531 . S
C282 H294 0.960 . S
C282 H295 0.962 . S
C282 H296 0.960 . S
C283 C280 1.511 . S
C283 H297 0.961 . S
C283 H298 0.961 . S
C283 H299 0.961 . S
C284 C285 1.370 . S
C284 C286 1.363 . S
C284 H300 0.931 . S
C285 C284 1.370 . S
C285 C289 1.408 . S
C286 C284 1.363 . S
C286 C287 1.370 . S
C286 C290 1.524 . S
C287 C279 1.503 . S
C287 C286 1.370 . S
C287 C288 1.403 . S
C288 C287 1.403 . S
C288 C289 1.404 . S
C288 C291 1.539 . S
C289 C285 1.408 . S
C289 C288 1.404 . S
C289 H301 0.930 . S
C290 C286 1.524 . S
C290 H302 0.956 . S
C290 H303 0.961 . S
C290 H304 0.961 . S
C291 C288 1.539 . S
C291 H305 0.958 . S
C291 H306 0.961 . S
C291 H307 0.960 . S
H292 C276 0.931 . S
H293 C281 0.929 . S
H294 C282 0.960 . S
H295 C282 0.962 . S
H296 C282 0.960 . S
H297 C283 0.961 . S
H298 C283 0.961 . S
H299 C283 0.961 . S
H300 C284 0.931 . S
H301 C289 0.930 . S
H302 C290 0.956 . S
H303 C290 0.961 . S
H304 C290 0.961 . S
H305 C291 0.958 . S
H306 C291 0.961 . S
H307 C291 0.960 . S
C308 C309 1.391 . S
C308 C310 1.394 . S
C308 H324 0.931 . S
C309 C308 1.391 . S
C309 C313 1.376 . S
C310 C308 1.394 . S
C310 C311 1.369 . S
C310 C314 1.531 . S
C311 C310 1.369 . S
C311 C312 1.410 . S
C311 C319 1.503 . S
C312 C311 1.410 . S
C312 C313 1.392 . S
C312 C315 1.511 . S
C313 C309 1.376 . S
C313 C312 1.392 . S
C313 H325 0.929 . S
C314 C310 1.531 . S
C314 H326 0.960 . S
C314 H327 0.962 . S
C314 H328 0.960 . S
C315 C312 1.511 . S
C315 H329 0.961 . S
C315 H330 0.961 . S
C315 H331 0.961 . S
C316 C317 1.370 . S
C316 C318 1.363 . S
C316 H332 0.931 . S
C317 C316 1.370 . S
C317 C321 1.408 . S
C318 C316 1.363 . S
C318 C319 1.370 . S
C318 C322 1.524 . S
C319 C311 1.503 . S
C319 C318 1.370 . S
C319 C320 1.403 . S
C320 C319 1.403 . S
C320 C321 1.404 . S
C320 C323 1.539 . S
C321 C317 1.408 . S
C321 C320 1.404 . S
C321 H333 0.930 . S
C322 C318 1.524 . S
C322 H334 0.956 . S
C322 H335 0.961 . S
C322 H336 0.961 . S
C323 C320 1.539 . S
C323 H337 0.958 . S
C323 H338 0.961 . S
C323 H339 0.960 . S
H324 C308 0.931 . S
H325 C313 0.929 . S
H326 C314 0.960 . S
H327 C314 0.962 . S
H328 C314 0.960 . S
H329 C315 0.961 . S
H330 C315 0.961 . S
H331 C315 0.961 . S
H332 C316 0.931 . S
H333 C321 0.930 . S
H334 C322 0.956 . S
H335 C322 0.961 . S
H336 C322 0.961 . S
H337 C323 0.958 . S
H338 C323 0.961 . S
H339 C323 0.960 . S
C340 C341 1.391 . S
C340 C342 1.394 . S
C340 H356 0.931 . S
C341 C340 1.391 . S
C341 C345 1.376 . S
C342 C340 1.394 . S
C342 C343 1.369 . S
C342 C346 1.531 . S
C343 C342 1.369 . S
C343 C344 1.410 . S
C343 C351 1.503 . S
C344 C343 1.410 . S
C344 C345 1.392 . S
C344 C347 1.511 . S
C345 C341 1.376 . S
C345 C344 1.392 . S
C345 H357 0.929 . S
C346 C342 1.531 . S
C346 H358 0.960 . S
C346 H359 0.962 . S
C346 H360 0.960 . S
C347 C344 1.511 . S
C347 H361 0.961 . S
C347 H362 0.961 . S
C347 H363 0.961 . S
C348 C349 1.370 . S
C348 C350 1.363 . S
C348 H364 0.931 . S
C349 C348 1.370 . S
C349 C353 1.408 . S
C350 C348 1.363 . S
C350 C351 1.370 . S
C350 C354 1.524 . S
C351 C343 1.503 . S
C351 C350 1.370 . S
C351 C352 1.403 . S
C352 C351 1.403 . S
C352 C353 1.404 . S
C352 C355 1.539 . S
C353 C349 1.408 . S
C353 C352 1.404 . S
C353 H365 0.930 . S
C354 C350 1.524 . S
C354 H366 0.956 . S
C354 H367 0.961 . S
C354 H368 0.961 . S
C355 C352 1.539 . S
C355 H369 0.958 . S
C355 H370 0.961 . S
C355 H371 0.960 . S
H356 C340 0.931 . S
H357 C345 0.929 . S
H358 C346 0.960 . S
H359 C346 0.962 . S
H360 C346 0.960 . S
H361 C347 0.961 . S
H362 C347 0.961 . S
H363 C347 0.961 . S
H364 C348 0.931 . S
H365 C353 0.930 . S
H366 C354 0.956 . S
H367 C354 0.961 . S
H368 C354 0.961 . S
H369 C355 0.958 . S
H370 C355 0.961 . S
H371 C355 0.960 . S
C372 C373 1.391 . S
C372 C374 1.394 . S
C372 H388 0.931 . S
C373 C372 1.391 . S
C373 C377 1.376 . S
C374 C372 1.394 . S
C374 C375 1.369 . S
C374 C378 1.531 . S
C375 C374 1.369 . S
C375 C376 1.410 . S
C375 C383 1.503 . S
C376 C375 1.410 . S
C376 C377 1.392 . S
C376 C379 1.511 . S
C377 C373 1.376 . S
C377 C376 1.392 . S
C377 H389 0.929 . S
C378 C374 1.531 . S
C378 H390 0.960 . S
C378 H391 0.962 . S
C378 H392 0.960 . S
C379 C376 1.511 . S
C379 H393 0.961 . S
C379 H394 0.961 . S
C379 H395 0.961 . S
C380 C381 1.370 . S
C380 C382 1.363 . S
C380 H396 0.931 . S
C381 C380 1.370 . S
C381 C385 1.408 . S
C382 C380 1.363 . S
C382 C383 1.370 . S
C382 C386 1.524 . S
C383 C375 1.503 . S
C383 C382 1.370 . S
C383 C384 1.403 . S
C384 C383 1.403 . S
C384 C385 1.404 . S
C384 C387 1.539 . S
C385 C381 1.408 . S
C385 C384 1.404 . S
C385 H397 0.930 . S
C386 C382 1.524 . S
C386 H398 0.956 . S
C386 H399 0.961 . S
C386 H400 0.961 . S
C387 C384 1.539 . S
C387 H401 0.958 . S
C387 H402 0.961 . S
C387 H403 0.960 . S
H388 C372 0.931 . S
H389 C377 0.929 . S
H390 C378 0.960 . S
H391 C378 0.962 . S
H392 C378 0.960 . S
H393 C379 0.961 . S
H394 C379 0.961 . S
H395 C379 0.961 . S
H396 C380 0.931 . S
H397 C385 0.930 . S
H398 C386 0.956 . S
H399 C386 0.961 . S
H400 C386 0.961 . S
H401 C387 0.958 . S
H402 C387 0.961 . S
H403 C387 0.960 . S
C404 C405 1.391 . S
C404 C406 1.394 . S
C404 H420 0.931 . S
C405 C404 1.391 . S
C405 C409 1.376 . S
C406 C404 1.394 . S
C406 C407 1.369 . S
C406 C410 1.531 . S
C407 C406 1.369 . S
C407 C408 1.410 . S
C407 C415 1.503 . S
C408 C407 1.410 . S
C408 C409 1.392 . S
C408 C411 1.511 . S
C409 C405 1.376 . S
C409 C408 1.392 . S
C409 H421 0.929 . S
C410 C406 1.531 . S
C410 H422 0.960 . S
C410 H423 0.962 . S
C410 H424 0.960 . S
C411 C408 1.511 . S
C411 H425 0.961 . S
C411 H426 0.961 . S
C411 H427 0.961 . S
C412 C413 1.370 . S
C412 C414 1.363 . S
C412 H428 0.931 . S
C413 C412 1.370 . S
C413 C417 1.408 . S
C414 C412 1.363 . S
C414 C415 1.370 . S
C414 C418 1.524 . S
C415 C407 1.503 . S
C415 C414 1.370 . S
C415 C416 1.403 . S
C416 C415 1.403 . S
C416 C417 1.404 . S
C416 C419 1.539 . S
C417 C413 1.408 . S
C417 C416 1.404 . S
C417 H429 0.930 . S
C418 C414 1.524 . S
C418 H430 0.956 . S
C418 H431 0.961 . S
C418 H432 0.961 . S
C419 C416 1.539 . S
C419 H433 0.958 . S
C419 H434 0.961 . S
C419 H435 0.960 . S
H420 C404 0.931 . S
H421 C409 0.929 . S
H422 C410 0.960 . S
H423 C410 0.962 . S
H424 C410 0.960 . S
H425 C411 0.961 . S
H426 C411 0.961 . S
H427 C411 0.961 . S
H428 C412 0.931 . S
H429 C417 0.930 . S
H430 C418 0.956 . S
H431 C418 0.961 . S
H432 C418 0.961 . S
H433 C419 0.958 . S
H434 C419 0.961 . S
H435 C419 0.960 . S
C436 C437 1.391 . S
C436 C438 1.394 1_556 S
C436 H452 0.931 1_556 S
C437 C436 1.391 . S
C437 C441 1.376 . S
C438 C436 1.394 1_554 S
C438 C439 1.369 1_554 S
C438 C442 1.531 . S
C439 C438 1.369 1_556 S
C439 C440 1.410 . S
C439 C447 1.503 1_556 S
C440 C439 1.410 . S
C440 C441 1.392 . S
C440 C443 1.511 . S
C441 C437 1.376 . S
C441 C440 1.392 . S
C441 H453 0.929 . S
C442 C438 1.531 . S
C442 H454 0.960 . S
C442 H455 0.962 . S
C442 H456 0.960 . S
C443 C440 1.511 . S
C443 H457 0.961 . S
C443 H458 0.961 . S
C443 H459 0.961 . S
C444 C445 1.370 1_556 S
C444 C446 1.363 . S
C444 H460 0.931 . S
C445 C444 1.370 1_554 S
C445 C449 1.408 . S
C446 C444 1.363 . S
C446 C447 1.370 1_556 S
C446 C450 1.524 . S
C447 C439 1.503 1_554 S
C447 C446 1.370 1_554 S
C447 C448 1.403 . S
C448 C447 1.403 . S
C448 C449 1.404 . S
C448 C451 1.539 . S
C449 C445 1.408 . S
C449 C448 1.404 . S
C449 H461 0.930 . S
C450 C446 1.524 . S
C450 H462 0.956 . S
C450 H463 0.961 . S
C450 H464 0.961 . S
C451 C448 1.539 . S
C451 H465 0.958 . S
C451 H466 0.961 . S
C451 H467 0.960 . S
H452 C436 0.931 1_554 S
H453 C441 0.929 . S
H454 C442 0.960 . S
H455 C442 0.962 . S
H456 C442 0.960 . S
H457 C443 0.961 . S
H458 C443 0.961 . S
H459 C443 0.961 . S
H460 C444 0.931 . S
H461 C449 0.930 . S
H462 C450 0.956 . S
H463 C450 0.961 . S
H464 C450 0.961 . S
H465 C451 0.958 . S
H466 C451 0.961 . S
H467 C451 0.960 . S
C85 C4 1.347 . S
C93 C54 1.357 . S
C117 C18 1.308 . S
C125 C68 1.362 . S
C149 C82 1.362 . S
C157 C32 1.314 . S
C181 C12 1.354 . S
C189 C46 1.324 . S
C213 C26 1.361 . S
C221 C60 1.311 . S
C245 C74 1.313 1_554 S
C253 C40 1.362 . S
C277 C25 1.440 . S
C285 C5 1.302 . S
C309 C39 1.422 . S
C317 C19 1.261 . S
C341 C33 1.225 . S
C349 C53 1.424 . S
C373 C67 1.419 . S
C381 C47 1.262 . S
C405 C81 1.409 . S
C413 C61 1.265 . S
C437 C75 1.336 . S
C445 C11 1.418 . S
