# Generated by pormake.
# Topology ukd, (4)-cn, num edge types: 1
# Building blocks:
#     Node 0, Type 0, BuildingBlock: UXUYUI_clean_sbu_0, # of connection points: 4
#     Node 1, Type 0, BuildingBlock: UXUYUI_clean_sbu_0, # of connection points: 4
#     Node 2, Type 0, BuildingBlock: UXUYUI_clean_sbu_0, # of connection points: 4
#     Node 3, Type 0, BuildingBlock: UXUYUI_clean_sbu_0, # of connection points: 4
#     Node 4, Type 0, BuildingBlock: UXUYUI_clean_sbu_0, # of connection points: 4
#     Node 5, Type 0, BuildingBlock: UXUYUI_clean_sbu_0, # of connection points: 4
#     Node 6, Type 0, BuildingBlock: UXUYUI_clean_sbu_0, # of connection points: 4
#     Node 7, Type 0, BuildingBlock: UXUYUI_clean_sbu_0, # of connection points: 4
#     Node 8, Type 0, BuildingBlock: UXUYUI_clean_sbu_0, # of connection points: 4
#     Node 9, Type 0, BuildingBlock: UXUYUI_clean_sbu_0, # of connection points: 4
#     Node 10, Type 0, BuildingBlock: UXUYUI_clean_sbu_0, # of connection points: 4
#     Node 11, Type 0, BuildingBlock: UXUYUI_clean_sbu_0, # of connection points: 4
#     Node 12, Type 0, BuildingBlock: UXUYUI_clean_sbu_0, # of connection points: 4
#     Node 13, Type 0, BuildingBlock: UXUYUI_clean_sbu_0, # of connection points: 4
#     Node 14, Type 0, BuildingBlock: UXUYUI_clean_sbu_0, # of connection points: 4
#     Node 15, Type 0, BuildingBlock: UXUYUI_clean_sbu_0, # of connection points: 4
#     Node 16, Type 0, BuildingBlock: UXUYUI_clean_sbu_0, # of connection points: 4
#     Node 17, Type 0, BuildingBlock: UXUYUI_clean_sbu_0, # of connection points: 4
#     Node 18, Type 0, BuildingBlock: UXUYUI_clean_sbu_0, # of connection points: 4
#     Node 19, Type 0, BuildingBlock: UXUYUI_clean_sbu_0, # of connection points: 4
#     Node 20, Type 0, BuildingBlock: UXUYUI_clean_sbu_0, # of connection points: 4
#     Node 21, Type 0, BuildingBlock: UXUYUI_clean_sbu_0, # of connection points: 4
#     Node 22, Type 0, BuildingBlock: UXUYUI_clean_sbu_0, # of connection points: 4
#     Node 23, Type 0, BuildingBlock: UXUYUI_clean_sbu_0, # of connection points: 4
#     Node 24, Type 0, BuildingBlock: UXUYUI_clean_sbu_0, # of connection points: 4
#     Node 25, Type 0, BuildingBlock: UXUYUI_clean_sbu_0, # of connection points: 4
#     Node 26, Type 0, BuildingBlock: UXUYUI_clean_sbu_0, # of connection points: 4
#     Node 27, Type 0, BuildingBlock: UXUYUI_clean_sbu_0, # of connection points: 4
#     Node 28, Type 0, BuildingBlock: UXUYUI_clean_sbu_0, # of connection points: 4
#     Node 29, Type 0, BuildingBlock: UXUYUI_clean_sbu_0, # of connection points: 4
#     Node 30, Type 0, BuildingBlock: UXUYUI_clean_sbu_0, # of connection points: 4
#     Node 31, Type 0, BuildingBlock: UXUYUI_clean_sbu_0, # of connection points: 4
#     Edge 32, Type (0, 0), BuildingBlock: CIFDUS_clean_linker_0, # of connection points: 2
#     Edge 33, Type (0, 0), BuildingBlock: CIFDUS_clean_linker_0, # of connection points: 2
#     Edge 34, Type (0, 0), BuildingBlock: CIFDUS_clean_linker_0, # of connection points: 2
#     Edge 35, Type (0, 0), BuildingBlock: CIFDUS_clean_linker_0, # of connection points: 2
#     Edge 36, Type (0, 0), BuildingBlock: CIFDUS_clean_linker_0, # of connection points: 2
#     Edge 37, Type (0, 0), BuildingBlock: CIFDUS_clean_linker_0, # of connection points: 2
#     Edge 38, Type (0, 0), BuildingBlock: CIFDUS_clean_linker_0, # of connection points: 2
#     Edge 39, Type (0, 0), BuildingBlock: CIFDUS_clean_linker_0, # of connection points: 2
#     Edge 40, Type (0, 0), BuildingBlock: CIFDUS_clean_linker_0, # of connection points: 2
#     Edge 41, Type (0, 0), BuildingBlock: CIFDUS_clean_linker_0, # of connection points: 2
#     Edge 42, Type (0, 0), BuildingBlock: CIFDUS_clean_linker_0, # of connection points: 2
#     Edge 43, Type (0, 0), BuildingBlock: CIFDUS_clean_linker_0, # of connection points: 2
#     Edge 44, Type (0, 0), BuildingBlock: CIFDUS_clean_linker_0, # of connection points: 2
#     Edge 45, Type (0, 0), BuildingBlock: CIFDUS_clean_linker_0, # of connection points: 2
#     Edge 46, Type (0, 0), BuildingBlock: CIFDUS_clean_linker_0, # of connection points: 2
#     Edge 47, Type (0, 0), BuildingBlock: CIFDUS_clean_linker_0, # of connection points: 2
#     Edge 48, Type (0, 0), BuildingBlock: CIFDUS_clean_linker_0, # of connection points: 2
#     Edge 49, Type (0, 0), BuildingBlock: CIFDUS_clean_linker_0, # of connection points: 2
#     Edge 50, Type (0, 0), BuildingBlock: CIFDUS_clean_linker_0, # of connection points: 2
#     Edge 51, Type (0, 0), BuildingBlock: CIFDUS_clean_linker_0, # of connection points: 2
#     Edge 52, Type (0, 0), BuildingBlock: CIFDUS_clean_linker_0, # of connection points: 2
#     Edge 53, Type (0, 0), BuildingBlock: CIFDUS_clean_linker_0, # of connection points: 2
#     Edge 54, Type (0, 0), BuildingBlock: CIFDUS_clean_linker_0, # of connection points: 2
#     Edge 55, Type (0, 0), BuildingBlock: CIFDUS_clean_linker_0, # of connection points: 2
#     Edge 56, Type (0, 0), BuildingBlock: CIFDUS_clean_linker_0, # of connection points: 2
#     Edge 57, Type (0, 0), BuildingBlock: CIFDUS_clean_linker_0, # of connection points: 2
#     Edge 58, Type (0, 0), BuildingBlock: CIFDUS_clean_linker_0, # of connection points: 2
#     Edge 59, Type (0, 0), BuildingBlock: CIFDUS_clean_linker_0, # of connection points: 2
#     Edge 60, Type (0, 0), BuildingBlock: CIFDUS_clean_linker_0, # of connection points: 2
#     Edge 61, Type (0, 0), BuildingBlock: CIFDUS_clean_linker_0, # of connection points: 2
#     Edge 62, Type (0, 0), BuildingBlock: CIFDUS_clean_linker_0, # of connection points: 2
#     Edge 63, Type (0, 0), BuildingBlock: CIFDUS_clean_linker_0, # of connection points: 2
#     Edge 64, Type (0, 0), BuildingBlock: CIFDUS_clean_linker_0, # of connection points: 2
#     Edge 65, Type (0, 0), BuildingBlock: CIFDUS_clean_linker_0, # of connection points: 2
#     Edge 66, Type (0, 0), BuildingBlock: CIFDUS_clean_linker_0, # of connection points: 2
#     Edge 67, Type (0, 0), BuildingBlock: CIFDUS_clean_linker_0, # of connection points: 2
#     Edge 68, Type (0, 0), BuildingBlock: CIFDUS_clean_linker_0, # of connection points: 2
#     Edge 69, Type (0, 0), BuildingBlock: CIFDUS_clean_linker_0, # of connection points: 2
#     Edge 70, Type (0, 0), BuildingBlock: CIFDUS_clean_linker_0, # of connection points: 2
#     Edge 71, Type (0, 0), BuildingBlock: CIFDUS_clean_linker_0, # of connection points: 2
#     Edge 72, Type (0, 0), BuildingBlock: CIFDUS_clean_linker_0, # of connection points: 2
#     Edge 73, Type (0, 0), BuildingBlock: CIFDUS_clean_linker_0, # of connection points: 2
#     Edge 74, Type (0, 0), BuildingBlock: CIFDUS_clean_linker_0, # of connection points: 2
#     Edge 75, Type (0, 0), BuildingBlock: CIFDUS_clean_linker_0, # of connection points: 2
#     Edge 76, Type (0, 0), BuildingBlock: CIFDUS_clean_linker_0, # of connection points: 2
#     Edge 77, Type (0, 0), BuildingBlock: CIFDUS_clean_linker_0, # of connection points: 2
#     Edge 78, Type (0, 0), BuildingBlock: CIFDUS_clean_linker_0, # of connection points: 2
#     Edge 79, Type (0, 0), BuildingBlock: CIFDUS_clean_linker_0, # of connection points: 2
#     Edge 80, Type (0, 0), BuildingBlock: CIFDUS_clean_linker_0, # of connection points: 2
#     Edge 81, Type (0, 0), BuildingBlock: CIFDUS_clean_linker_0, # of connection points: 2
#     Edge 82, Type (0, 0), BuildingBlock: CIFDUS_clean_linker_0, # of connection points: 2
#     Edge 83, Type (0, 0), BuildingBlock: CIFDUS_clean_linker_0, # of connection points: 2
#     Edge 84, Type (0, 0), BuildingBlock: CIFDUS_clean_linker_0, # of connection points: 2
#     Edge 85, Type (0, 0), BuildingBlock: CIFDUS_clean_linker_0, # of connection points: 2
#     Edge 86, Type (0, 0), BuildingBlock: CIFDUS_clean_linker_0, # of connection points: 2
#     Edge 87, Type (0, 0), BuildingBlock: CIFDUS_clean_linker_0, # of connection points: 2
#     Edge 88, Type (0, 0), BuildingBlock: CIFDUS_clean_linker_0, # of connection points: 2
#     Edge 89, Type (0, 0), BuildingBlock: CIFDUS_clean_linker_0, # of connection points: 2
#     Edge 90, Type (0, 0), BuildingBlock: CIFDUS_clean_linker_0, # of connection points: 2
#     Edge 91, Type (0, 0), BuildingBlock: CIFDUS_clean_linker_0, # of connection points: 2
#     Edge 92, Type (0, 0), BuildingBlock: CIFDUS_clean_linker_0, # of connection points: 2
#     Edge 93, Type (0, 0), BuildingBlock: CIFDUS_clean_linker_0, # of connection points: 2
#     Edge 94, Type (0, 0), BuildingBlock: CIFDUS_clean_linker_0, # of connection points: 2
#     Edge 95, Type (0, 0), BuildingBlock: CIFDUS_clean_linker_0, # of connection points: 2
# Relax obj value: 0.229
# Max RMSD: 0.213
# Mean RMSD: 0.213
data_MOF--net-ukd--node1-UXUYUI_clean_sbu_0--edge1-CIFDUS_clean_linker_0
_symmetry_space_group_name_H-M    P1
_symmetry_Int_Tables_number       1
_symmetry_cell_setting            triclinic
loop_
_symmetry_equiv_pos_as_xyz
'x, y, z'
_cell_length_a     56.626417
_cell_length_b     56.61631
_cell_length_c     105.52897
_cell_angle_alpha  89.999054
_cell_angle_beta   90.002928
_cell_angle_gamma 90.018752
loop_
_atom_site_label
_atom_site_type_symbol
_atom_site_fract_x
_atom_site_fract_y
_atom_site_fract_z
_atom_type_partial_charge
Li0 Li 0.21487 0.19686 0.34464 0.0
Li1 Li 0.22671 0.23676 0.3488 0.0
Li2 Li 0.23622 0.21774 0.3283 0.0
Li3 Li 0.25569 0.20503 0.34844 0.0
C4 C 0.18443 0.22551 0.32883 0.0
N5 N 0.14241 0.22533 0.31549 0.0
C6 C 0.16475 0.23758 0.33354 0.0
C7 C 0.1828 0.2136 0.31726 0.0
C8 C 0.14365 0.2372 0.32668 0.0
C9 C 0.16139 0.21366 0.31068 0.0
C10 C 0.21311 0.2119 0.36998 0.0
C11 C 0.20315 0.21188 0.39221 0.0
N12 N 0.18045 0.21743 0.38923 0.0
C13 C 0.18971 0.21768 0.36715 0.0
C14 C 0.21992 0.20903 0.38262 0.0
C15 C 0.17346 0.22036 0.377 0.0
C16 C 0.19883 0.15703 0.35728 0.0
N17 N 0.19162 0.17322 0.34859 0.0
C18 C 0.15304 0.15606 0.34817 0.0
C19 C 0.16925 0.17289 0.34391 0.0
C20 C 0.15994 0.13919 0.35724 0.0
C21 C 0.18338 0.13965 0.36162 0.0
H22 H 0.21662 0.15785 0.36098 0.0
H23 H 0.16364 0.18595 0.33714 0.0
C24 C 0.20557 0.28066 0.3478 0.0
N25 N 0.21755 0.26616 0.35577 0.0
C26 C 0.1961 0.3018 0.35223 0.0
C27 C 0.21246 0.29329 0.3729 0.0
C28 C 0.22145 0.27213 0.36807 0.0
C29 C 0.19923 0.30829 0.36498 0.0
H30 H 0.20283 0.27545 0.33805 0.0
H31 H 0.23116 0.26029 0.37419 0.0
C32 C 0.23765 0.16195 0.33325 0.0
N33 N 0.22679 0.11454 0.33106 0.0
C34 C 0.24893 0.14535 0.34096 0.0
C35 C 0.2211 0.1544 0.3243 0.0
C36 C 0.24314 0.12147 0.33974 0.0
C37 C 0.21577 0.13037 0.32338 0.0
C38 C 0.27313 0.25128 0.34565 0.0
C39 C 0.28571 0.26792 0.33858 0.0
C40 C 0.27642 0.25 0.35876 0.0
C41 C 0.30145 0.28304 0.34476 0.0
C42 C 0.29231 0.26544 0.36459 0.0
N43 N 0.30439 0.2815 0.35752 0.0
C44 C 0.23844 0.24727 0.30735 0.0
C45 C 0.24715 0.20727 0.30257 0.0
C46 C 0.24239 0.25382 0.29479 0.0
N47 N 0.24097 0.22439 0.31096 0.0
C48 C 0.2512 0.21303 0.28987 0.0
C49 C 0.24898 0.23662 0.28587 0.0
H50 H 0.23348 0.26043 0.31429 0.0
H51 H 0.24913 0.18923 0.30576 0.0
C52 C 0.28227 0.18245 0.36707 0.0
N53 N 0.28382 0.193 0.35554 0.0
C54 C 0.30185 0.17112 0.37226 0.0
C55 C 0.32442 0.18218 0.35372 0.0
C56 C 0.30436 0.19338 0.3489 0.0
C57 C 0.32319 0.17053 0.36547 0.0
H58 H 0.26555 0.18206 0.372 0.0
H59 H 0.30494 0.20183 0.33971 0.0
O60 O 0.20528 0.22587 0.33539 0.0
O61 O 0.22946 0.20939 0.36052 0.0
O62 O 0.24279 0.18546 0.33448 0.0
O63 O 0.2576 0.23644 0.33971 0.0
H64 H 0.16572 0.24711 0.34241 0.0
H65 H 0.19785 0.20441 0.31338 0.0
H66 H 0.12827 0.24637 0.33025 0.0
H67 H 0.15986 0.20443 0.30174 0.0
H68 H 0.20819 0.20972 0.40203 0.0
H69 H 0.18411 0.22003 0.35747 0.0
H70 H 0.238 0.20478 0.38501 0.0
H71 H 0.15528 0.22479 0.37492 0.0
H72 H 0.13509 0.1568 0.34466 0.0
H73 H 0.18974 0.12685 0.36843 0.0
H74 H 0.18572 0.3125 0.3458 0.0
H75 H 0.21564 0.2977 0.38273 0.0
H76 H 0.26186 0.15084 0.3479 0.0
H77 H 0.21232 0.16694 0.31819 0.0
H78 H 0.25161 0.10845 0.3457 0.0
H79 H 0.20286 0.1243 0.31656 0.0
H80 H 0.2833 0.26913 0.32842 0.0
H81 H 0.26679 0.23729 0.3644 0.0
H82 H 0.31131 0.29601 0.3394 0.0
H83 H 0.29501 0.26466 0.37472 0.0
H84 H 0.24017 0.27214 0.29208 0.0
H85 H 0.25645 0.19928 0.28332 0.0
H86 H 0.29997 0.162 0.38122 0.0
H87 H 0.34058 0.18224 0.34823 0.0
Li88 Li 0.01562 0.97494 0.5979 0.0
Li89 Li 0.05616 0.96258 0.59337 0.0
Li90 Li 0.04569 0.00454 0.59558 0.0
Li91 Li 0.03341 0.9819 0.57707 0.0
C92 C 0.03657 0.97372 0.62026 0.0
N93 N 0.01919 0.96104 0.64376 0.0
C94 C 0.04184 0.95155 0.62535 0.0
C95 C 0.02268 0.98954 0.62717 0.0
C96 C 0.03284 0.94545 0.63724 0.0
C97 C 0.01399 0.98277 0.63902 0.0
C98 C 0.01675 0.93886 0.57593 0.0
C99 C 0.01998 0.91655 0.55655 0.0
N100 N 0.99602 0.91536 0.55587 0.0
C101 C 0.99217 0.93736 0.57508 0.0
C102 C 0.0308 0.9283 0.56664 0.0
C103 C 0.98202 0.9254 0.56486 0.0
C104 C 0.96804 0.97768 0.60721 0.0
N105 N 0.98804 0.96449 0.60638 0.0
C106 C 0.9692 0.93189 0.61653 0.0
C107 C 0.98895 0.94203 0.61086 0.0
C108 C 0.94815 0.94485 0.61739 0.0
C109 C 0.94768 0.96808 0.61269 0.0
H110 H 0.96773 0.99537 0.60337 0.0
H111 H 0.00493 0.93179 0.60975 0.0
C112 C 0.09865 0.94352 0.60379 0.0
N113 N 0.07835 0.93852 0.59742 0.0
C114 C 0.1133 0.92523 0.60797 0.0
C115 C 0.08571 0.89713 0.59909 0.0
C116 C 0.07182 0.9159 0.59492 0.0
C117 C 0.10655 0.90171 0.60585 0.0
H118 H 0.10304 0.96163 0.606 0.0
H119 H 0.05535 0.9124 0.59011 0.0
C120 C 0.00738 0.02674 0.58707 0.0
N121 N 0.99553 0.07404 0.58641 0.0
C122 C 0.00877 0.03932 0.5757 0.0
C123 C 0.99975 0.03813 0.59807 0.0
C124 C 0.00275 0.06324 0.57557 0.0
C125 C 0.99392 0.06209 0.59756 0.0
C126 C 0.08942 0.98558 0.58115 0.0
C127 C 0.10565 0.99965 0.58769 0.0
C128 C 0.09753 0.96705 0.57355 0.0
C129 C 0.12976 0.99483 0.58658 0.0
C130 C 0.12177 0.96277 0.57271 0.0
N131 N 0.13725 0.97663 0.57919 0.0
C132 C 0.0651 0.0368 0.61309 0.0
C133 C 0.06128 0.0513 0.59213 0.0
C134 C 0.07744 0.05706 0.61671 0.0
N135 N 0.05765 0.03419 0.60094 0.0
C136 C 0.07317 0.07202 0.59538 0.0
C137 C 0.08208 0.07484 0.60772 0.0
H138 H 0.06252 0.02263 0.61982 0.0
H139 H 0.05582 0.04845 0.58244 0.0
C140 C 0.00467 0.98406 0.55522 0.0
N141 N 0.02738 0.98349 0.55939 0.0
C142 C 0.99983 0.9852 0.54227 0.0
C143 C 0.04184 0.98552 0.53816 0.0
C144 C 0.04585 0.98431 0.55119 0.0
C145 C 0.01857 0.98596 0.53354 0.0
H146 H 0.99034 0.9836 0.56199 0.0
H147 H 0.06372 0.98421 0.55477 0.0
O148 O 0.04482 0.97986 0.60854 0.0
O149 O 0.02703 0.95093 0.58571 0.0
O150 O 0.01334 0.00335 0.5874 0.0
O151 O 0.06573 0.98989 0.58218 0.0
H152 H 0.05255 0.93908 0.62013 0.0
H153 H 0.01854 0.0068 0.62339 0.0
H154 H 0.03665 0.9283 0.64126 0.0
H155 H 0.0031 0.99478 0.64444 0.0
H156 H 0.03063 0.90842 0.54924 0.0
H157 H 0.98102 0.94556 0.58215 0.0
H158 H 0.04986 0.92939 0.56714 0.0
H159 H 0.96302 0.92418 0.56404 0.0
H160 H 0.97016 0.91377 0.61979 0.0
H161 H 0.93173 0.97859 0.61316 0.0
H162 H 0.1291 0.92937 0.61331 0.0
H163 H 0.07997 0.87918 0.59729 0.0
H164 H 0.01466 0.03077 0.56709 0.0
H165 H 0.99847 0.02861 0.60693 0.0
H166 H 0.00386 0.07324 0.56685 0.0
H167 H 0.98811 0.07117 0.60602 0.0
H168 H 0.09974 0.01405 0.59362 0.0
H169 H 0.08521 0.9559 0.56849 0.0
H170 H 0.14251 0.00552 0.59162 0.0
H171 H 0.12828 0.94839 0.56693 0.0
H172 H 0.08434 0.05812 0.62626 0.0
H173 H 0.07601 0.0853 0.58816 0.0
H174 H 0.98163 0.98528 0.53912 0.0
H175 H 0.05681 0.9865 0.5318 0.0
Li176 Li 0.28575 0.80484 0.84392 0.0
Li177 Li 0.27527 0.76405 0.84979 0.0
Li178 Li 0.26386 0.78063 0.82926 0.0
Li179 Li 0.24474 0.79375 0.84876 0.0
C180 C 0.30686 0.76515 0.82582 0.0
N181 N 0.32649 0.74446 0.80459 0.0
C182 C 0.30877 0.74058 0.82503 0.0
C183 C 0.31508 0.7792 0.81587 0.0
C184 C 0.31874 0.73046 0.81421 0.0
C185 C 0.32489 0.7684 0.80519 0.0
C186 C 0.28046 0.78705 0.87176 0.0
C187 C 0.27626 0.765 0.89118 0.0
N188 N 0.29758 0.77326 0.89512 0.0
C189 C 0.30229 0.7954 0.87602 0.0
C190 C 0.26726 0.77183 0.87941 0.0
C191 C 0.31065 0.7882 0.88786 0.0
C192 C 0.30436 0.84888 0.8521 0.0
N193 N 0.30948 0.82833 0.84604 0.0
C194 C 0.3501 0.83931 0.84437 0.0
C195 C 0.33179 0.82332 0.84216 0.0
C196 C 0.34542 0.86079 0.85059 0.0
C197 C 0.32204 0.86557 0.85432 0.0
H198 H 0.28658 0.85216 0.85539 0.0
H199 H 0.33551 0.80659 0.83765 0.0
C200 C 0.27499 0.71564 0.8568 0.0
N201 N 0.28707 0.73632 0.85774 0.0
C202 C 0.28491 0.69471 0.8614 0.0
C203 C 0.31916 0.71694 0.86811 0.0
C204 C 0.30879 0.73731 0.86319 0.0
C205 C 0.30732 0.69523 0.86709 0.0
H206 H 0.25799 0.71528 0.85214 0.0
H207 H 0.31836 0.75383 0.8634 0.0
C208 C 0.25944 0.83672 0.83221 0.0
N209 N 0.26645 0.88448 0.82832 0.0
C210 C 0.24643 0.85328 0.83913 0.0
C211 C 0.27595 0.84447 0.82327 0.0
C212 C 0.25024 0.87734 0.83702 0.0
C213 C 0.27927 0.86869 0.82147 0.0
C214 C 0.22152 0.75536 0.84219 0.0
C215 C 0.20629 0.75846 0.83191 0.0
C216 C 0.21276 0.74648 0.85362 0.0
C217 C 0.18241 0.7528 0.83327 0.0
C218 C 0.18876 0.74104 0.8546 0.0
N219 N 0.17421 0.7443 0.84449 0.0
C220 C 0.25686 0.74939 0.80898 0.0
C221 C 0.25751 0.78972 0.80296 0.0
C222 C 0.25346 0.74247 0.79642 0.0
N223 N 0.25893 0.77264 0.81197 0.0
C224 C 0.25413 0.78361 0.79027 0.0
C225 C 0.25208 0.7597 0.78686 0.0
H226 H 0.25796 0.73621 0.81638 0.0
H227 H 0.2589 0.80808 0.80563 0.0
C228 C 0.21522 0.81027 0.86844 0.0
N229 N 0.21612 0.8054 0.85584 0.0
C230 C 0.1958 0.82212 0.87352 0.0
C231 C 0.17817 0.82293 0.85266 0.0
C232 C 0.19801 0.81117 0.84796 0.0
C233 C 0.1772 0.82909 0.86555 0.0
H234 H 0.23002 0.80587 0.87445 0.0
H235 H 0.19948 0.80766 0.83792 0.0
O236 O 0.2966 0.77538 0.83619 0.0
O237 O 0.272 0.79384 0.86018 0.0
O238 O 0.25609 0.81307 0.83418 0.0
O239 O 0.24488 0.76107 0.8411 0.0
H240 H 0.30242 0.72944 0.83263 0.0
H241 H 0.31368 0.79824 0.81632 0.0
H242 H 0.32023 0.71147 0.81343 0.0
H243 H 0.33118 0.77905 0.79738 0.0
H244 H 0.26629 0.75313 0.89717 0.0
H245 H 0.31272 0.80723 0.87023 0.0
H246 H 0.25032 0.76523 0.87625 0.0
H247 H 0.32754 0.79447 0.89127 0.0
H248 H 0.36784 0.83448 0.84158 0.0
H249 H 0.31743 0.88193 0.85902 0.0
H250 H 0.27528 0.67827 0.86041 0.0
H251 H 0.33666 0.71799 0.87222 0.0
H252 H 0.23369 0.84766 0.84613 0.0
H253 H 0.28632 0.83193 0.81791 0.0
H254 H 0.24035 0.89034 0.84234 0.0
H255 H 0.29209 0.87492 0.81464 0.0
H256 H 0.21279 0.7654 0.82301 0.0
H257 H 0.22435 0.7439 0.86164 0.0
H258 H 0.17038 0.75522 0.82541 0.0
H259 H 0.1817 0.73424 0.8634 0.0
H260 H 0.25221 0.72384 0.79421 0.0
H261 H 0.25281 0.79747 0.78324 0.0
H262 H 0.19567 0.82643 0.88352 0.0
H263 H 0.1644 0.82831 0.84615 0.0
Li264 Li 0.44134 0.03743 0.09617 0.0
Li265 Li 0.48238 0.02539 0.10017 0.0
Li266 Li 0.464 0.01907 0.07946 0.0
Li267 Li 0.45223 0.99573 0.09778 0.0
C268 C 0.48073 0.06176 0.07863 0.0
N269 N 0.50188 0.08444 0.05842 0.0
C270 C 0.50504 0.05965 0.07665 0.0
C271 C 0.46717 0.07543 0.07034 0.0
C272 C 0.5154 0.07126 0.06638 0.0
C273 C 0.4782 0.08675 0.06017 0.0
C274 C 0.46153 0.02678 0.12275 0.0
C275 C 0.48525 0.01988 0.14137 0.0
N276 N 0.47798 0.04091 0.14621 0.0
C277 C 0.45419 0.04828 0.12794 0.0
C278 C 0.47708 0.01239 0.12954 0.0
C279 C 0.46273 0.05512 0.13981 0.0
C280 C 0.39845 0.05281 0.10703 0.0
N281 N 0.4179 0.0601 0.10057 0.0
C282 C 0.40478 0.10016 0.10138 0.0
C283 C 0.42141 0.08325 0.09777 0.0
C284 C 0.38432 0.09317 0.10795 0.0
C285 C 0.38123 0.06906 0.1107 0.0
H286 H 0.3964 0.03435 0.10941 0.0
H287 H 0.43736 0.08866 0.09297 0.0
C288 C 0.53125 0.02328 0.10678 0.0
N289 N 0.51074 0.0355 0.10818 0.0
C290 C 0.55236 0.03242 0.1116 0.0
C291 C 0.53069 0.06621 0.11941 0.0
C292 C 0.51014 0.05664 0.11426 0.0
C293 C 0.5522 0.05422 0.11796 0.0
H294 H 0.53136 0.00685 0.10156 0.0
H295 H 0.49378 0.06641 0.11479 0.0
C296 C 0.40819 0.015 0.08338 0.0
N297 N 0.36044 0.02424 0.08107 0.0
C298 C 0.39164 0.00038 0.08932 0.0
C299 C 0.40041 0.03436 0.07629 0.0
C300 C 0.36759 0.00532 0.08801 0.0
C301 C 0.37622 0.03874 0.07524 0.0
C302 C 0.48955 0.97362 0.09011 0.0
C303 C 0.4845 0.95878 0.07987 0.0
C304 C 0.49961 0.9642 0.10109 0.0
C305 C 0.48956 0.9347 0.08082 0.0
C306 C 0.50438 0.94001 0.10167 0.0
N307 N 0.4993 0.92589 0.09161 0.0
C308 C 0.4914 0.00852 0.058 0.0
C309 C 0.45537 0.0279 0.05322 0.0
C310 C 0.4973 0.00759 0.04517 0.0
N311 N 0.47065 0.01837 0.06175 0.0
C312 C 0.46082 0.02784 0.04032 0.0
C313 C 0.48192 0.01742 0.0362 0.0
H314 H 0.5034 0.0014 0.065 0.0
H315 H 0.43909 0.03575 0.05642 0.0
C316 C 0.43879 0.96094 0.11562 0.0
N317 N 0.44062 0.96578 0.10305 0.0
C318 C 0.42679 0.94079 0.11969 0.0
C319 C 0.41959 0.93051 0.09779 0.0
C320 C 0.43183 0.95082 0.09414 0.0
C321 C 0.41633 0.92565 0.11073 0.0
H322 H 0.44572 0.97324 0.12249 0.0
H323 H 0.43317 0.95537 0.08422 0.0
O324 O 0.47015 0.04989 0.08839 0.0
O325 O 0.45357 0.01987 0.11108 0.0
O326 O 0.43185 0.01054 0.0846 0.0
O327 O 0.48434 0.99717 0.08945 0.0
H328 H 0.51576 0.04892 0.08288 0.0
H329 H 0.44827 0.07694 0.0716 0.0
H330 H 0.53418 0.06969 0.0647 0.0
H331 H 0.4679 0.09726 0.05364 0.0
H332 H 0.4974 0.00897 0.14669 0.0
H333 H 0.4422 0.05968 0.12284 0.0
H334 H 0.48294 0.99571 0.12568 0.0
H335 H 0.45728 0.07176 0.14391 0.0
H336 H 0.40826 0.11857 0.09933 0.0
H337 H 0.36572 0.06277 0.11565 0.0
H338 H 0.56867 0.02275 0.11024 0.0
H339 H 0.52994 0.08331 0.124 0.0
H340 H 0.39723 0.98551 0.09499 0.0
H341 H 0.41291 0.04626 0.07193 0.0
H342 H 0.35462 0.99417 0.09258 0.0
H343 H 0.36998 0.05377 0.06987 0.0
H344 H 0.47645 0.96573 0.07135 0.0
H345 H 0.50358 0.9754 0.1091 0.0
H346 H 0.48564 0.92299 0.07299 0.0
H347 H 0.5121 0.93247 0.11013 0.0
H348 H 0.51381 0.99957 0.04229 0.0
H349 H 0.44854 0.03552 0.03361 0.0
H350 H 0.425 0.93755 0.12975 0.0
H351 H 0.41159 0.91955 0.09056 0.0
Li352 Li 0.25157 0.79459 0.15177 0.0
Li353 Li 0.23642 0.78049 0.17163 0.0
Li354 Li 0.2266 0.76029 0.15072 0.0
Li355 Li 0.21075 0.80087 0.15595 0.0
C356 C 0.28003 0.75657 0.15918 0.0
N357 N 0.3268 0.74291 0.1584 0.0
C358 C 0.29623 0.76623 0.16772 0.0
C359 C 0.28751 0.73983 0.15032 0.0
C360 C 0.31983 0.75913 0.16715 0.0
C361 C 0.31127 0.7332 0.15005 0.0
C362 C 0.23016 0.82884 0.17475 0.0
C363 C 0.20299 0.83884 0.1915 0.0
N364 N 0.21404 0.86001 0.19293 0.0
C365 C 0.24124 0.85069 0.17637 0.0
C366 C 0.21084 0.82286 0.18234 0.0
C367 C 0.23283 0.8662 0.18562 0.0
C368 C 0.273 0.83522 0.14399 0.0
N369 N 0.27771 0.81174 0.14473 0.0
C370 C 0.31716 0.81829 0.13736 0.0
C371 C 0.2991 0.80297 0.1412 0.0
C372 C 0.313 0.84277 0.13705 0.0
C373 C 0.29033 0.85106 0.1401 0.0
H374 H 0.2557 0.84168 0.1466 0.0
H375 H 0.3024 0.78424 0.14149 0.0
C376 C 0.23382 0.75395 0.19397 0.0
N377 N 0.24241 0.77433 0.18897 0.0
C378 C 0.23791 0.74843 0.20667 0.0
C379 C 0.25983 0.78488 0.2088 0.0
C380 C 0.25537 0.78965 0.19604 0.0
C381 C 0.25102 0.76403 0.21429 0.0
H382 H 0.22389 0.74194 0.18804 0.0
H383 H 0.26227 0.80558 0.19176 0.0
C384 C 0.23498 0.79614 0.12894 0.0
N385 N 0.25738 0.81159 0.10722 0.0
C386 C 0.22831 0.81747 0.12332 0.0
C387 C 0.25292 0.78259 0.12348 0.0
C388 C 0.23988 0.82499 0.11234 0.0
C389 C 0.26406 0.79073 0.11251 0.0
C390 C 0.18316 0.76161 0.16669 0.0
C391 C 0.17 0.7541 0.15622 0.0
C392 C 0.17351 0.75989 0.17884 0.0
C393 C 0.14736 0.74492 0.15812 0.0
C394 C 0.1508 0.75068 0.18033 0.0
N395 N 0.13831 0.74343 0.17003 0.0
C396 C 0.21128 0.71347 0.15192 0.0
C397 C 0.21769 0.72713 0.13098 0.0
C398 C 0.20163 0.69243 0.14737 0.0
N399 N 0.2185 0.73049 0.14372 0.0
C400 C 0.20865 0.70612 0.12601 0.0
C401 C 0.19979 0.68862 0.13422 0.0
H402 H 0.21194 0.71675 0.16201 0.0
H403 H 0.22332 0.74103 0.12465 0.0
C404 C 0.19155 0.84509 0.1505 0.0
N405 N 0.18535 0.82288 0.15412 0.0
C406 C 0.17429 0.86232 0.14853 0.0
C407 C 0.14455 0.83368 0.15428 0.0
C408 C 0.16239 0.81707 0.15621 0.0
C409 C 0.15035 0.85664 0.15028 0.0
H410 H 0.20998 0.84936 0.14906 0.0
H411 H 0.15771 0.79956 0.15924 0.0
O412 O 0.25682 0.76298 0.15969 0.0
O413 O 0.23799 0.81374 0.16554 0.0
O414 O 0.22416 0.78868 0.13982 0.0
O415 O 0.20549 0.77032 0.16509 0.0
H416 H 0.29063 0.77913 0.17467 0.0
H417 H 0.27509 0.7321 0.14371 0.0
H418 H 0.33261 0.76651 0.17366 0.0
H419 H 0.31736 0.72032 0.14322 0.0
H420 H 0.18806 0.83444 0.19745 0.0
H421 H 0.25615 0.85563 0.17053 0.0
H422 H 0.20196 0.80611 0.18117 0.0
H423 H 0.24123 0.88318 0.18698 0.0
H424 H 0.33433 0.81108 0.13505 0.0
H425 H 0.28604 0.86967 0.13963 0.0
H426 H 0.23114 0.73197 0.21043 0.0
H427 H 0.26983 0.79751 0.21432 0.0
H428 H 0.2144 0.82811 0.1274 0.0
H429 H 0.25847 0.76617 0.12781 0.0
H430 H 0.23495 0.84149 0.1079 0.0
H431 H 0.27811 0.78052 0.10824 0.0
H432 H 0.17709 0.75555 0.14673 0.0
H433 H 0.18345 0.76566 0.18704 0.0
H434 H 0.13697 0.73906 0.15011 0.0
H435 H 0.1431 0.74928 0.18968 0.0
H436 H 0.19474 0.67982 0.15413 0.0
H437 H 0.20813 0.7039 0.11583 0.0
H438 H 0.17966 0.87988 0.14566 0.0
H439 H 0.12636 0.82834 0.15561 0.0
Li440 Li 0.46625 0.98624 0.42102 0.0
Li441 Li 0.45181 0.00416 0.40035 0.0
Li442 Li 0.446 0.9625 0.40516 0.0
Li443 Li 0.48486 0.97636 0.40004 0.0
C444 C 0.41143 0.98209 0.41741 0.0
N445 N 0.36723 0.96334 0.42205 0.0
C446 C 0.39283 0.98652 0.40904 0.0
C447 C 0.40756 0.96821 0.42816 0.0
C448 C 0.37061 0.97685 0.41155 0.0
C449 C 0.38508 0.95889 0.43034 0.0
C450 C 0.49756 0.02455 0.40372 0.0
C451 C 0.51326 0.04509 0.38558 0.0
N452 N 0.52582 0.05939 0.39345 0.0
C453 C 0.51061 0.03941 0.41164 0.0
C454 C 0.49885 0.02738 0.3906 0.0
C455 C 0.52479 0.05694 0.40626 0.0
C456 C 0.49582 0.988 0.44199 0.0
N457 N 0.47318 0.99175 0.43825 0.0
C458 C 0.46219 0.00355 0.45916 0.0
C459 C 0.4564 0.99946 0.44647 0.0
C460 C 0.48549 0.99993 0.4633 0.0
C461 C 0.50242 0.99206 0.45454 0.0
H462 H 0.50873 0.98189 0.43519 0.0
H463 H 0.4386 0.00258 0.44317 0.0
C464 C 0.42313 0.02764 0.38307 0.0
N465 N 0.43834 0.03126 0.39282 0.0
C466 C 0.41167 0.04669 0.3774 0.0
C467 C 0.43181 0.07291 0.39192 0.0
C468 C 0.44295 0.05329 0.3973 0.0
C469 C 0.4158 0.06969 0.38189 0.0
H470 H 0.41957 0.00985 0.37985 0.0
H471 H 0.45501 0.05559 0.40515 0.0
C472 C 0.47859 0.93229 0.41713 0.0
N473 N 0.48473 0.88522 0.42314 0.0
C474 C 0.48536 0.91619 0.40778 0.0
C475 C 0.47536 0.92457 0.42959 0.0
C476 C 0.48826 0.89243 0.411 0.0
C477 C 0.47843 0.90066 0.43242 0.0
C478 C 0.46056 0.96882 0.37719 0.0
C479 C 0.46317 0.94462 0.375 0.0
C480 C 0.46199 0.9846 0.36702 0.0
C481 C 0.46763 0.93663 0.36271 0.0
C482 C 0.46648 0.97592 0.35487 0.0
N483 N 0.46921 0.95231 0.35298 0.0
C484 C 0.4115 0.93692 0.39185 0.0
C485 C 0.42097 0.91991 0.41171 0.0
C486 C 0.39563 0.91868 0.38927 0.0
N487 N 0.42411 0.937 0.40281 0.0
C488 C 0.40533 0.90128 0.40952 0.0
C489 C 0.39259 0.90037 0.39811 0.0
H490 H 0.41388 0.95101 0.38505 0.0
H491 H 0.4304 0.92079 0.42057 0.0
C492 C 0.52945 0.9568 0.40122 0.0
N493 N 0.5146 0.96772 0.39298 0.0
C494 C 0.5506 0.94705 0.39696 0.0
C495 C 0.54154 0.96113 0.3759 0.0
C496 C 0.52049 0.97063 0.38058 0.0
C497 C 0.55668 0.94872 0.38409 0.0
H498 H 0.52447 0.95497 0.41106 0.0
H499 H 0.50876 0.97988 0.37425 0.0
O500 O 0.43345 0.99079 0.41491 0.0
O501 O 0.48336 0.00754 0.40886 0.0
O502 O 0.47581 0.95566 0.41422 0.0
O503 O 0.45612 0.97704 0.38915 0.0
H504 H 0.39558 0.99711 0.40064 0.0
H505 H 0.42188 0.96433 0.43463 0.0
H506 H 0.35607 0.98002 0.40512 0.0
H507 H 0.38186 0.94798 0.43858 0.0
H508 H 0.51442 0.0475 0.37543 0.0
H509 H 0.5097 0.03745 0.42184 0.0
H510 H 0.48876 0.0161 0.38437 0.0
H511 H 0.53496 0.06861 0.41227 0.0
H512 H 0.4487 0.00986 0.4656 0.0
H513 H 0.52051 0.98883 0.45739 0.0
H514 H 0.39913 0.04334 0.36987 0.0
H515 H 0.43555 0.09036 0.39562 0.0
H516 H 0.48859 0.92199 0.39818 0.0
H517 H 0.47034 0.9369 0.43695 0.0
H518 H 0.49341 0.87976 0.40384 0.0
H519 H 0.47582 0.89438 0.442 0.0
H520 H 0.46156 0.93212 0.38268 0.0
H521 H 0.45984 0.00338 0.3685 0.0
H522 H 0.46976 0.91795 0.36089 0.0
H523 H 0.46779 0.98795 0.34693 0.0
H524 H 0.38628 0.91865 0.38032 0.0
H525 H 0.40315 0.88779 0.4167 0.0
H526 H 0.56158 0.93748 0.40361 0.0
H527 H 0.54575 0.9632 0.36595 0.0
Li528 Li 0.24201 0.20218 0.65251 0.0
Li529 Li 0.26325 0.21639 0.67184 0.0
Li530 Li 0.27144 0.23351 0.65055 0.0
Li531 Li 0.2834 0.19386 0.65561 0.0
C532 C 0.2254 0.24881 0.6542 0.0
N533 N 0.19369 0.27768 0.64172 0.0
C534 C 0.21283 0.26598 0.66089 0.0
C535 C 0.22187 0.24632 0.64116 0.0
C536 C 0.19686 0.28041 0.65441 0.0
C537 C 0.20576 0.26109 0.63502 0.0
C538 C 0.2626 0.1613 0.66974 0.0
C539 C 0.28562 0.13444 0.68245 0.0
N540 N 0.27627 0.11592 0.67595 0.0
C541 C 0.25302 0.14201 0.66327 0.0
C542 C 0.27886 0.15751 0.67948 0.0
C543 C 0.26023 0.1192 0.66652 0.0
C544 C 0.21561 0.17266 0.63718 0.0
N545 N 0.21348 0.18931 0.64635 0.0
C546 C 0.17164 0.18397 0.647 0.0
C547 C 0.19211 0.19529 0.65126 0.0
C548 C 0.17333 0.16625 0.6377 0.0
C549 C 0.19573 0.16079 0.63273 0.0
H550 H 0.23292 0.16809 0.63361 0.0
H551 H 0.19101 0.20855 0.65862 0.0
C552 C 0.27132 0.24129 0.69467 0.0
N553 N 0.26015 0.22251 0.68934 0.0
C554 C 0.2695 0.24536 0.70768 0.0
C555 C 0.24426 0.21103 0.70937 0.0
C556 C 0.24673 0.20753 0.69635 0.0
C557 C 0.25584 0.2301 0.71523 0.0
H558 H 0.28188 0.25289 0.68882 0.0
H559 H 0.23794 0.19282 0.6918 0.0
C560 C 0.28175 0.20493 0.62952 0.0
N561 N 0.3105 0.20543 0.60837 0.0
C562 C 0.30565 0.2106 0.63068 0.0
C563 C 0.27245 0.19947 0.61761 0.0
C564 C 0.31991 0.21076 0.61988 0.0
C565 C 0.28727 0.19984 0.60703 0.0
C566 C 0.31584 0.22546 0.66888 0.0
C567 C 0.33377 0.23689 0.66213 0.0
C568 C 0.32066 0.2163 0.68091 0.0
C569 C 0.35628 0.23866 0.66746 0.0
C570 C 0.34339 0.21846 0.68592 0.0
N571 N 0.36059 0.22948 0.67914 0.0
C572 C 0.29253 0.27786 0.64925 0.0
C573 C 0.27739 0.26484 0.62951 0.0
C574 C 0.3029 0.29748 0.64351 0.0
N575 N 0.28066 0.26174 0.64217 0.0
C576 C 0.28744 0.28425 0.62337 0.0
C577 C 0.30089 0.30059 0.63034 0.0
H578 H 0.29479 0.27493 0.65931 0.0
H579 H 0.26762 0.25191 0.62411 0.0
C580 C 0.29889 0.15244 0.64404 0.0
N581 N 0.30634 0.16983 0.65197 0.0
C582 C 0.31448 0.13492 0.63997 0.0
C583 C 0.34529 0.1536 0.65222 0.0
C584 C 0.32899 0.1705 0.65622 0.0
C585 C 0.33821 0.13555 0.64388 0.0
H586 H 0.28085 0.15243 0.64068 0.0
H587 H 0.33476 0.18441 0.66241 0.0
O588 O 0.24114 0.23464 0.66044 0.0
O589 O 0.25614 0.18379 0.66652 0.0
O590 O 0.26738 0.2047 0.63993 0.0
O591 O 0.29362 0.22371 0.66385 0.0
H592 H 0.21539 0.26813 0.671 0.0
H593 H 0.23142 0.23313 0.63581 0.0
H594 H 0.18699 0.29377 0.65948 0.0
H595 H 0.20285 0.25935 0.62493 0.0
H596 H 0.29831 0.13126 0.68992 0.0
H597 H 0.24033 0.14462 0.65574 0.0
H598 H 0.28622 0.17221 0.68467 0.0
H599 H 0.2531 0.10411 0.66152 0.0
H600 H 0.15475 0.18891 0.65101 0.0
H601 H 0.19805 0.14691 0.62578 0.0
H602 H 0.279 0.26009 0.7118 0.0
H603 H 0.23322 0.19906 0.71474 0.0
H604 H 0.31312 0.21474 0.63982 0.0
H605 H 0.25394 0.19509 0.61655 0.0
H606 H 0.33846 0.21511 0.62066 0.0
H607 H 0.28031 0.1957 0.59774 0.0
H608 H 0.33039 0.24432 0.65287 0.0
H609 H 0.30704 0.20758 0.68634 0.0
H610 H 0.37032 0.24738 0.66231 0.0
H611 H 0.34736 0.21137 0.6952 0.0
H612 H 0.3133 0.30944 0.64925 0.0
H613 H 0.28513 0.28617 0.61323 0.0
H614 H 0.30801 0.12121 0.63372 0.0
H615 H 0.36344 0.15525 0.65531 0.0
Li616 Li 0.04605 0.99598 0.90214 0.0
Li617 Li 0.03009 0.0173 0.91978 0.0
Li618 Li 0.01259 0.02179 0.8992 0.0
Li619 Li 0.05127 0.03815 0.90341 0.0
C620 C 0.00196 0.9748 0.90351 0.0
N621 N 0.97792 0.93891 0.8913 0.0
C622 C 0.9876 0.95938 0.9104 0.0
C623 C 0.00414 0.97193 0.8904 0.0
C624 C 0.97558 0.94136 0.90406 0.0
C625 C 0.99182 0.9537 0.88441 0.0
C626 C 0.07458 0.99881 0.92343 0.0
C627 C 0.10807 0.98804 0.9363 0.0
N628 N 0.09645 0.96828 0.94015 0.0
C629 C 0.06293 0.97841 0.92753 0.0
C630 C 0.09731 0.0037 0.92786 0.0
C631 C 0.0743 0.96319 0.93597 0.0
C632 C 0.08393 0.97432 0.89124 0.0
N633 N 0.06314 0.96882 0.89693 0.0
C634 C 0.07239 0.92763 0.89617 0.0
C635 C 0.05702 0.94603 0.89941 0.0
C636 C 0.0943 0.93293 0.8906 0.0
C637 C 0.09985 0.95659 0.888 0.0
H638 H 0.08836 0.99263 0.88953 0.0
H639 H 0.04061 0.94216 0.90421 0.0
C640 C 0.00137 0.00646 0.94047 0.0
N641 N 0.02265 0.01587 0.93734 0.0
C642 C 0.99469 0.00448 0.95315 0.0
C643 C 0.03181 0.02232 0.95917 0.0
C644 C 0.0379 0.02367 0.94637 0.0
C645 C 0.00995 0.01253 0.96274 0.0
H646 H 0.98963 0.00035 0.93308 0.0
H647 H 0.0548 0.03094 0.94364 0.0
C648 C 0.04021 0.03334 0.87788 0.0
N649 N 0.03796 0.06136 0.85648 0.0
C650 C 0.02751 0.0545 0.87809 0.0
C651 C 0.05178 0.02644 0.86679 0.0
C652 C 0.02657 0.06842 0.86717 0.0
C653 C 0.05043 0.04085 0.85606 0.0
C654 C 0.02384 0.06599 0.91935 0.0
C655 C 0.00562 0.08237 0.92095 0.0
C656 C 0.04511 0.06908 0.92587 0.0
C657 C 0.00894 0.10151 0.92912 0.0
C658 C 0.04774 0.08844 0.93395 0.0
N659 N 0.02975 0.10411 0.9354 0.0
C660 C 0.96718 0.03835 0.89923 0.0
C661 C 0.97793 0.02408 0.87893 0.0
C662 C 0.94573 0.04665 0.89457 0.0
N663 N 0.98294 0.02783 0.89137 0.0
C664 C 0.95654 0.03205 0.87384 0.0
C665 C 0.94028 0.04395 0.88166 0.0
H666 H 0.97167 0.04102 0.90909 0.0
H667 H 0.9908 0.01561 0.87287 0.0
C668 C 0.09646 0.05716 0.90021 0.0
N669 N 0.07315 0.06263 0.89953 0.0
C670 C 0.11353 0.07395 0.89704 0.0
C671 C 0.08223 0.10162 0.89238 0.0
C672 C 0.06579 0.08443 0.89588 0.0
C673 C 0.10655 0.09651 0.89289 0.0
H674 H 0.10179 0.03966 0.90315 0.0
H675 H 0.04713 0.08841 0.89553 0.0
O676 O 0.01385 0.99244 0.90968 0.0
O677 O 0.06387 0.01412 0.9152 0.0
O678 O 0.04136 0.01929 0.8884 0.0
O679 O 0.02082 0.04732 0.91128 0.0
H680 H 0.9858 0.96129 0.92056 0.0
H681 H 0.01527 0.9835 0.88488 0.0
H682 H 0.96441 0.92929 0.90929 0.0
H683 H 0.99336 0.95128 0.87427 0.0
H684 H 0.12567 0.99162 0.93981 0.0
H685 H 0.04531 0.97432 0.92428 0.0
H686 H 0.10652 0.01948 0.92483 0.0
H687 H 0.0655 0.94734 0.93921 0.0
H688 H 0.06762 0.90958 0.89842 0.0
H689 H 0.11648 0.96135 0.88361 0.0
H690 H 0.97786 0.99641 0.95539 0.0
H691 H 0.04405 0.02908 0.96617 0.0
H692 H 0.01842 0.06013 0.88658 0.0
H693 H 0.06167 0.01009 0.86648 0.0
H694 H 0.01679 0.08482 0.86721 0.0
H695 H 0.0593 0.03572 0.84741 0.0
H696 H 0.9891 0.08036 0.91591 0.0
H697 H 0.05949 0.05672 0.92471 0.0
H698 H 0.99498 0.1143 0.93045 0.0
H699 H 0.0641 0.09101 0.93907 0.0
H700 H 0.93404 0.056 0.90095 0.0
H701 H 0.95297 0.02932 0.86386 0.0
H702 H 0.13199 0.06922 0.89786 0.0
H703 H 0.07583 0.11854 0.88906 0.0
Li704 Li 0.74669 0.80029 0.65053 0.0
Li705 Li 0.78866 0.80697 0.65471 0.0
Li706 Li 0.77351 0.76619 0.64954 0.0
Li707 Li 0.76619 0.78429 0.6702 0.0
C708 C 0.76783 0.79821 0.62653 0.0
N709 N 0.75605 0.80416 0.60131 0.0
C710 C 0.77418 0.8189 0.62016 0.0
C711 C 0.75591 0.78034 0.62 0.0
C712 C 0.76793 0.82164 0.60744 0.0
C713 C 0.75001 0.78373 0.60727 0.0
C714 C 0.76744 0.83938 0.66956 0.0
C715 C 0.79292 0.86395 0.6823 0.0
N716 N 0.78056 0.88333 0.67856 0.0
C717 C 0.75482 0.85951 0.66597 0.0
C718 C 0.78649 0.84159 0.6779 0.0
C719 C 0.76178 0.88157 0.67057 0.0
C720 C 0.69739 0.80966 0.64608 0.0
N721 N 0.72009 0.81631 0.64381 0.0
C722 C 0.70721 0.85192 0.63391 0.0
C723 C 0.72522 0.83678 0.63769 0.0
C724 C 0.68366 0.84597 0.63647 0.0
C725 C 0.6787 0.82426 0.64234 0.0
H726 H 0.69382 0.79357 0.65126 0.0
H727 H 0.74341 0.84199 0.6364 0.0
C728 C 0.83624 0.82185 0.65374 0.0
N729 N 0.81355 0.82883 0.65193 0.0
C730 C 0.85481 0.83747 0.6514 0.0
C731 C 0.82627 0.86723 0.64546 0.0
C732 C 0.80828 0.85095 0.64779 0.0
C733 C 0.84996 0.86054 0.64717 0.0
H734 H 0.83993 0.804 0.6568 0.0
H735 H 0.79008 0.8559 0.64622 0.0
C736 C 0.7282 0.75016 0.65596 0.0
N737 N 0.69885 0.71259 0.65034 0.0
C738 C 0.72469 0.73216 0.66483 0.0
C739 C 0.71645 0.74926 0.64433 0.0
C740 C 0.70987 0.71325 0.66178 0.0
C741 C 0.70178 0.73007 0.64164 0.0
C742 C 0.8101 0.76498 0.67158 0.0
C743 C 0.81016 0.74032 0.67227 0.0
C744 C 0.82349 0.77803 0.68023 0.0
C745 C 0.82323 0.72915 0.68176 0.0
C746 C 0.83632 0.76621 0.6896 0.0
N747 N 0.8359 0.74221 0.69017 0.0
C748 C 0.79866 0.74137 0.6315 0.0
C749 C 0.77511 0.71609 0.64418 0.0
C750 C 0.80892 0.72203 0.62547 0.0
N751 N 0.78233 0.73812 0.64077 0.0
C752 C 0.78502 0.69618 0.63842 0.0
C753 C 0.80258 0.69903 0.62913 0.0
H754 H 0.8043 0.75905 0.62909 0.0
H755 H 0.76264 0.71386 0.65181 0.0
C756 C 0.75732 0.79664 0.69569 0.0
N757 N 0.76246 0.77827 0.68787 0.0
C758 C 0.7556 0.79313 0.70874 0.0
C759 C 0.76357 0.75166 0.70545 0.0
C760 C 0.76522 0.756 0.69245 0.0
C761 C 0.75892 0.77043 0.71378 0.0
H762 H 0.75454 0.81406 0.69182 0.0
H763 H 0.76887 0.7416 0.68604 0.0
O764 O 0.77389 0.79522 0.63898 0.0
O765 O 0.76114 0.81762 0.66499 0.0
O766 O 0.74265 0.76879 0.65881 0.0
O767 O 0.79732 0.77622 0.66237 0.0
H768 H 0.78372 0.83277 0.62501 0.0
H769 H 0.75151 0.76392 0.62464 0.0
H770 H 0.77257 0.83765 0.60242 0.0
H771 H 0.74072 0.77007 0.60212 0.0
H772 H 0.80772 0.8659 0.68869 0.0
H773 H 0.73976 0.85815 0.65973 0.0
H774 H 0.79619 0.82619 0.68093 0.0
H775 H 0.75224 0.8973 0.66781 0.0
H776 H 0.7117 0.86851 0.62939 0.0
H777 H 0.66072 0.81925 0.64457 0.0
H778 H 0.87277 0.83131 0.65259 0.0
H779 H 0.82162 0.88484 0.64234 0.0
H780 H 0.73339 0.7327 0.67394 0.0
H781 H 0.71841 0.76335 0.63751 0.0
H782 H 0.70713 0.69911 0.66852 0.0
H783 H 0.69264 0.72912 0.63265 0.0
H784 H 0.79999 0.72991 0.66566 0.0
H785 H 0.82412 0.79706 0.6797 0.0
H786 H 0.82326 0.71008 0.68246 0.0
H787 H 0.84666 0.77611 0.69638 0.0
H788 H 0.82213 0.72506 0.61823 0.0
H789 H 0.77985 0.67878 0.64166 0.0
H790 H 0.75151 0.808 0.71482 0.0
H791 H 0.76631 0.73388 0.70895 0.0
Li792 Li 0.98615 0.02484 0.39789 0.0
Li793 Li 0.96769 0.01696 0.41805 0.0
Li794 Li 0.95512 0.99498 0.39859 0.0
Li795 Li 0.94563 0.03754 0.40203 0.0
C796 C 0.00411 0.97959 0.40393 0.0
N797 N 0.04004 0.9492 0.39695 0.0
C798 C 0.0235 0.97617 0.41193 0.0
C799 C 0.00292 0.96738 0.39244 0.0
C800 C 0.04151 0.96079 0.40822 0.0
C801 C 0.02127 0.95214 0.38907 0.0
C802 C 0.98478 0.05965 0.4203 0.0
C803 C 0.98118 0.08073 0.44006 0.0
N804 N 0.00512 0.08198 0.44086 0.0
C805 C 0.00935 0.06121 0.42128 0.0
C806 C 0.97055 0.06957 0.42972 0.0
C807 C 0.01929 0.07257 0.43176 0.0
C808 C 0.01201 0.05918 0.38597 0.0
N809 N 0.0139 0.03613 0.38946 0.0
C810 C 0.05311 0.03432 0.38104 0.0
C811 C 0.03395 0.02358 0.38713 0.0
C812 C 0.05128 0.05794 0.3772 0.0
C813 C 0.03046 0.07041 0.37965 0.0
H814 H 0.99608 0.06888 0.38815 0.0
H815 H 0.03531 0.0054 0.39002 0.0
C816 C 0.95384 0.01169 0.44367 0.0
N817 N 0.97273 0.01391 0.43582 0.0
C818 C 0.95714 0.00974 0.45674 0.0
C819 C 0.9993 0.01211 0.45338 0.0
C820 C 0.99517 0.01408 0.44038 0.0
C821 C 0.98012 0.00991 0.46174 0.0
H822 H 0.9362 0.01134 0.43978 0.0
H823 H 0.00987 0.016 0.43394 0.0
C824 C 0.9652 0.02928 0.37508 0.0
N825 N 0.98147 0.04545 0.35195 0.0
C826 C 0.96037 0.05239 0.37119 0.0
C827 C 0.97805 0.01431 0.36712 0.0
C828 C 0.9688 0.06025 0.35949 0.0
C829 C 0.98621 0.02284 0.35549 0.0
C830 C 0.91165 0.01389 0.41352 0.0
C831 C 0.89525 0.00046 0.40673 0.0
C832 C 0.90379 0.03195 0.4215 0.0
C833 C 0.8712 0.00547 0.40798 0.0
C834 C 0.8796 0.03643 0.42247 0.0
N835 N 0.86394 0.02321 0.41574 0.0
C836 C 0.94261 0.94685 0.39976 0.0
C837 C 0.93363 0.96601 0.38036 0.0
C838 C 0.93165 0.92616 0.3956 0.0
N839 N 0.94306 0.96626 0.39219 0.0
C840 C 0.9225 0.94573 0.37582 0.0
C841 C 0.92103 0.92556 0.38355 0.0
H842 H 0.95025 0.94768 0.40915 0.0
H843 H 0.93408 0.98184 0.37463 0.0
C844 C 0.93016 0.08442 0.40167 0.0
N845 N 0.92366 0.0621 0.39848 0.0
C846 C 0.91635 0.10361 0.39801 0.0
C847 C 0.88888 0.07649 0.3882 0.0
C848 C 0.90345 0.05778 0.3919 0.0
C849 C 0.8956 0.09976 0.39105 0.0
H850 H 0.94655 0.08741 0.40666 0.0
H851 H 0.89905 0.03992 0.38916 0.0
O852 O 0.98625 0.99445 0.4075 0.0
O853 O 0.9747 0.04825 0.41024 0.0
O854 O 0.95745 0.0214 0.38662 0.0
O855 O 0.93528 0.00939 0.41234 0.0
H856 H 0.02468 0.9853 0.4209 0.0
H857 H 0.98806 0.96964 0.38617 0.0
H858 H 0.05665 0.95805 0.41429 0.0
H859 H 0.02059 0.94265 0.38018 0.0
H860 H 0.97039 0.08835 0.44747 0.0
H861 H 0.02064 0.0535 0.41412 0.0
H862 H 0.95151 0.06846 0.42911 0.0
H863 H 0.03828 0.07381 0.43268 0.0
H864 H 0.06912 0.02435 0.37934 0.0
H865 H 0.02869 0.08877 0.37693 0.0
H866 H 0.94188 0.00778 0.46284 0.0
H867 H 0.01729 0.01262 0.45685 0.0
H868 H 0.95047 0.06427 0.3772 0.0
H869 H 0.9818 0.99634 0.36989 0.0
H870 H 0.96533 0.07814 0.35641 0.0
H871 H 0.99631 0.01149 0.34928 0.0
H872 H 0.90099 0.98639 0.40053 0.0
H873 H 0.91626 0.04257 0.42679 0.0
H874 H 0.85831 0.99527 0.40275 0.0
H875 H 0.87328 0.05045 0.42856 0.0
H876 H 0.9311 0.91095 0.40182 0.0
H877 H 0.91424 0.9462 0.36657 0.0
H878 H 0.92206 0.12134 0.40037 0.0
H879 H 0.87315 0.0729 0.38268 0.0
Li880 Li 0.72371 0.23072 0.14804 0.0
Li881 Li 0.73503 0.21488 0.1688 0.0
Li882 Li 0.75458 0.20168 0.14949 0.0
Li883 Li 0.7138 0.19007 0.15411 0.0
C884 C 0.77758 0.23908 0.15603 0.0
N885 N 0.82558 0.24682 0.15401 0.0
C886 C 0.79252 0.23359 0.16615 0.0
C887 C 0.787 0.24858 0.1449 0.0
C888 C 0.81675 0.23763 0.16494 0.0
C889 C 0.81133 0.25233 0.14406 0.0
C890 C 0.69175 0.23066 0.17161 0.0
C891 C 0.67313 0.22936 0.19216 0.0
N892 N 0.67141 0.25332 0.19207 0.0
C893 C 0.68971 0.25526 0.1717 0.0
C894 C 0.68329 0.21757 0.18189 0.0
C895 C 0.67938 0.26639 0.18214 0.0
C896 C 0.68903 0.25488 0.13459 0.0
N897 N 0.71102 0.25747 0.13955 0.0
C898 C 0.71204 0.29801 0.13324 0.0
C899 C 0.72266 0.27847 0.13902 0.0
C900 C 0.68954 0.29558 0.12782 0.0
C901 C 0.67806 0.27369 0.12845 0.0
H902 H 0.67992 0.23817 0.1355 0.0
H903 H 0.73996 0.28013 0.14328 0.0
C904 C 0.74044 0.20674 0.19533 0.0
N905 N 0.73911 0.22345 0.18612 0.0
C906 C 0.74196 0.21339 0.20805 0.0
C907 C 0.74137 0.25431 0.20152 0.0
C908 C 0.73992 0.24686 0.18894 0.0
C909 C 0.7422 0.23747 0.21129 0.0
H910 H 0.74006 0.18826 0.19283 0.0
H911 H 0.7391 0.25976 0.18139 0.0
C912 C 0.71889 0.20744 0.1263 0.0
N913 N 0.70083 0.22125 0.10313 0.0
C914 C 0.69773 0.19777 0.12187 0.0
C915 C 0.73092 0.22406 0.11891 0.0
C916 C 0.68889 0.20499 0.11013 0.0
C917 C 0.72147 0.23085 0.10724 0.0
C918 C 0.73889 0.15897 0.16642 0.0
C919 C 0.75079 0.14151 0.15956 0.0
C920 C 0.7222 0.15239 0.17552 0.0
C921 C 0.74581 0.11775 0.16195 0.0
C922 C 0.71767 0.12844 0.1776 0.0
N923 N 0.72949 0.11177 0.17084 0.0
C924 C 0.79934 0.17958 0.15027 0.0
C925 C 0.7871 0.19167 0.12981 0.0
C926 C 0.81892 0.16796 0.14517 0.0
N927 N 0.78358 0.19051 0.14253 0.0
C928 C 0.80658 0.18059 0.12432 0.0
C929 C 0.82238 0.16779 0.13197 0.0
H930 H 0.79601 0.17884 0.16036 0.0
H931 H 0.77435 0.20043 0.12386 0.0
C932 C 0.66828 0.17057 0.15649 0.0
N933 N 0.69036 0.16626 0.15204 0.0
C934 C 0.65013 0.15436 0.15439 0.0
C935 C 0.67787 0.12935 0.14331 0.0
C936 C 0.69542 0.14619 0.1455 0.0
C937 C 0.65473 0.13343 0.14764 0.0
H938 H 0.66458 0.18692 0.16137 0.0
H939 H 0.713 0.14348 0.14179 0.0
O940 O 0.75392 0.23465 0.15691 0.0
O941 O 0.70238 0.21946 0.16164 0.0
O942 O 0.7277 0.20078 0.13784 0.0
O943 O 0.74332 0.18235 0.16413 0.0
H944 H 0.7855 0.22606 0.17479 0.0
H945 H 0.77566 0.2528 0.13697 0.0
H946 H 0.82856 0.23337 0.17267 0.0
H947 H 0.8189 0.25957 0.13549 0.0
H948 H 0.66666 0.21947 0.20021 0.0
H949 H 0.69628 0.2657 0.16388 0.0
H950 H 0.68479 0.19853 0.182 0.0
H951 H 0.67781 0.28542 0.18236 0.0
H952 H 0.72123 0.31479 0.13299 0.0
H953 H 0.66051 0.27137 0.12456 0.0
H954 H 0.74241 0.19981 0.21528 0.0
H955 H 0.7419 0.27304 0.20357 0.0
H956 H 0.68813 0.18496 0.12745 0.0
H957 H 0.74711 0.23202 0.12228 0.0
H958 H 0.67249 0.19771 0.1066 0.0
H959 H 0.73048 0.24384 0.10149 0.0
H960 H 0.76349 0.1462 0.15234 0.0
H961 H 0.71254 0.16562 0.18078 0.0
H962 H 0.75483 0.10408 0.15668 0.0
H963 H 0.7047 0.12313 0.18457 0.0
H964 H 0.83042 0.15816 0.15145 0.0
H965 H 0.80877 0.18141 0.11414 0.0
H966 H 0.63252 0.15863 0.15765 0.0
H967 H 0.68236 0.11342 0.13817 0.0
Li968 Li 0.51283 0.97502 0.89941 0.0
Li969 Li 0.52824 0.98494 0.92065 0.0
Li970 Li 0.54132 0.00612 0.90154 0.0
Li971 Li 0.55375 0.96487 0.90534 0.0
C972 C 0.50181 0.02761 0.90881 0.0
N973 N 0.48861 0.07455 0.90828 0.0
C974 C 0.50162 0.04086 0.91998 0.0
C975 C 0.49505 0.03812 0.89739 0.0
C976 C 0.49493 0.0646 0.91951 0.0
C977 C 0.48852 0.06191 0.89731 0.0
C978 C 0.51651 0.93796 0.92175 0.0
C979 C 0.52349 0.91506 0.94065 0.0
N980 N 0.50068 0.90755 0.94037 0.0
C981 C 0.49318 0.92992 0.9216 0.0
C982 C 0.53186 0.93038 0.93129 0.0
C983 C 0.4855 0.91457 0.93112 0.0
C984 C 0.48721 0.94115 0.88576 0.0
N985 N 0.48583 0.96312 0.89088 0.0
C986 C 0.44477 0.96552 0.88581 0.0
C987 C 0.46525 0.97548 0.89094 0.0
C988 C 0.44568 0.94279 0.88051 0.0
C989 C 0.46731 0.93071 0.88034 0.0
H990 H 0.50362 0.93144 0.88622 0.0
H991 H 0.46459 0.99275 0.89529 0.0
C992 C 0.53662 0.99888 0.94587 0.0
N993 N 0.52095 0.98773 0.93815 0.0
C994 C 0.53205 0.00085 0.95884 0.0
C995 C 0.49538 0.97976 0.95564 0.0
C996 C 0.50036 0.97873 0.9427 0.0
C997 C 0.51138 0.99089 0.96382 0.0
H998 H 0.55265 0.00625 0.94196 0.0
H999 H 0.48786 0.97065 0.9363 0.0
C1000 C 0.53611 0.97205 0.87768 0.0
N1001 N 0.52205 0.95597 0.85415 0.0
C1002 C 0.54374 0.95004 0.87331 0.0
C1003 C 0.52157 0.98601 0.87004 0.0
C1004 C 0.53638 0.94219 0.86139 0.0
C1005 C 0.51458 0.97752 0.85819 0.0
C1006 C 0.58381 0.99242 0.91899 0.0
C1007 C 0.60048 0.00585 0.9124 0.0
C1008 C 0.59111 0.97774 0.92889 0.0
C1009 C 0.6243 0.00415 0.91573 0.0
C1010 C 0.61509 0.9765 0.93192 0.0
N1011 N 0.63105 0.98961 0.92533 0.0
C1012 C 0.55486 0.05434 0.90325 0.0
C1013 C 0.56212 0.0358 0.88347 0.0
C1014 C 0.56678 0.07465 0.89929 0.0
N1015 N 0.55292 0.03543 0.89537 0.0
C1016 C 0.57458 0.05553 0.87923 0.0
C1017 C 0.57727 0.07505 0.88727 0.0
H1018 H 0.54818 0.05323 0.91283 0.0
H1019 H 0.56084 0.02031 0.87752 0.0
C1020 C 0.57137 0.91878 0.90501 0.0
N1021 N 0.57774 0.94164 0.90315 0.0
C1022 C 0.58748 0.90061 0.90286 0.0
C1023 C 0.61657 0.92978 0.89688 0.0
C1024 C 0.59977 0.94742 0.89905 0.0
C1025 C 0.61046 0.90594 0.89872 0.0
H1026 H 0.55353 0.91455 0.90783 0.0
H1027 H 0.60419 0.96566 0.89723 0.0
O1028 O 0.50843 0.0044 0.90907 0.0
O1029 O 0.52431 0.95309 0.91256 0.0
O1030 O 0.54285 0.9799 0.88938 0.0
O1031 O 0.56042 0.99381 0.91587 0.0
H1032 H 0.50672 0.03295 0.92891 0.0
H1033 H 0.49498 0.02804 0.88869 0.0
H1034 H 0.49481 0.07512 0.92806 0.0
H1035 H 0.48338 0.07033 0.88853 0.0
H1036 H 0.53514 0.90914 0.94812 0.0
H1037 H 0.48108 0.93561 0.91427 0.0
H1038 H 0.55 0.93632 0.93148 0.0
H1039 H 0.46746 0.90828 0.93116 0.0
H1040 H 0.42836 0.97532 0.88613 0.0
H1041 H 0.4686 0.91297 0.87655 0.0
H1042 H 0.54468 0.00964 0.96493 0.0
H1043 H 0.47912 0.97218 0.95921 0.0
H1044 H 0.55505 0.93904 0.87909 0.0
H1045 H 0.51564 0.00314 0.87327 0.0
H1046 H 0.54203 0.92514 0.85791 0.0
H1047 H 0.5032 0.98807 0.8522 0.0
H1048 H 0.59515 0.01733 0.90472 0.0
H1049 H 0.5784 0.96742 0.93417 0.0
H1050 H 0.63741 0.01435 0.91067 0.0
H1051 H 0.62102 0.96515 0.93953 0.0
H1052 H 0.56899 0.08928 0.9058 0.0
H1053 H 0.58276 0.05525 0.86995 0.0
H1054 H 0.58167 0.88252 0.90405 0.0
H1055 H 0.63406 0.93477 0.89372 0.0
Li1056 Li 0.76438 0.21276 0.83092 0.0
Li1057 Li 0.77893 0.22825 0.85119 0.0
Li1058 Li 0.78659 0.1871 0.8449 0.0
Li1059 Li 0.74673 0.20045 0.85107 0.0
C1060 C 0.80862 0.22601 0.82654 0.0
N1061 N 0.82946 0.24628 0.80552 0.0
C1062 C 0.81256 0.25037 0.82615 0.0
C1063 C 0.81544 0.21192 0.8163 0.0
C1064 C 0.82311 0.26028 0.81543 0.0
C1065 C 0.82588 0.22252 0.80574 0.0
C1066 C 0.72485 0.24033 0.84493 0.0
C1067 C 0.69335 0.25505 0.85811 0.0
N1068 N 0.6785 0.2544 0.84798 0.0
C1069 C 0.70934 0.23994 0.83463 0.0
C1070 C 0.71688 0.24809 0.85675 0.0
C1071 C 0.68595 0.24708 0.83637 0.0
C1072 C 0.75075 0.20219 0.80587 0.0
N1073 N 0.758 0.21991 0.81364 0.0
C1074 C 0.75635 0.24761 0.79657 0.0
C1075 C 0.76054 0.24239 0.80931 0.0
C1076 C 0.74914 0.22957 0.78828 0.0
C1077 C 0.74621 0.20664 0.7931 0.0
H1078 H 0.74846 0.18458 0.80959 0.0
H1079 H 0.76582 0.25625 0.81577 0.0
C1080 C 0.81661 0.25112 0.86259 0.0
N1081 N 0.79373 0.25441 0.85919 0.0
C1082 C 0.82964 0.2696 0.86777 0.0
C1083 C 0.79545 0.29485 0.86566 0.0
C1084 C 0.7829 0.27565 0.86069 0.0
C1085 C 0.81929 0.29204 0.86915 0.0
H1086 H 0.82489 0.23416 0.86104 0.0
H1087 H 0.76476 0.27784 0.85771 0.0
C1088 C 0.75708 0.15723 0.83351 0.0
N1089 N 0.76043 0.10957 0.82818 0.0
C1090 C 0.74338 0.14095 0.84023 0.0
C1091 C 0.77237 0.14929 0.82402 0.0
C1092 C 0.74535 0.11692 0.8374 0.0
C1093 C 0.77386 0.12512 0.82149 0.0
C1094 C 0.78477 0.20493 0.8729 0.0
C1095 C 0.80713 0.19673 0.87637 0.0
C1096 C 0.77225 0.2197 0.88111 0.0
C1097 C 0.81675 0.20373 0.88796 0.0
C1098 C 0.7825 0.22632 0.89261 0.0
N1099 N 0.80436 0.21828 0.89577 0.0
C1100 C 0.83155 0.16632 0.84247 0.0
C1101 C 0.80281 0.1416 0.85197 0.0
C1102 C 0.84901 0.1493 0.84442 0.0
N1103 N 0.80902 0.16224 0.8463 0.0
C1104 C 0.81959 0.12389 0.85387 0.0
C1105 C 0.84323 0.12773 0.85029 0.0
H1106 H 0.83613 0.18312 0.83827 0.0
H1107 H 0.78491 0.13905 0.85524 0.0
C1108 C 0.69849 0.18682 0.8523 0.0
N1109 N 0.71889 0.18903 0.85901 0.0
C1110 C 0.67982 0.1734 0.85712 0.0
C1111 C 0.70337 0.16524 0.87572 0.0
C1112 C 0.72141 0.17908 0.87065 0.0
C1113 C 0.68257 0.16175 0.86875 0.0
H1114 H 0.69731 0.19405 0.84285 0.0
H1115 H 0.73802 0.18055 0.87562 0.0
O1116 O 0.79803 0.216 0.83687 0.0
O1117 O 0.74777 0.23333 0.84343 0.0
O1118 O 0.75554 0.18083 0.83619 0.0
O1119 O 0.77518 0.19855 0.86151 0.0
H1120 H 0.80734 0.26154 0.83398 0.0
H1121 H 0.81257 0.19304 0.81649 0.0
H1122 H 0.82617 0.27912 0.81496 0.0
H1123 H 0.83112 0.21186 0.79771 0.0
H1124 H 0.6869 0.26099 0.86722 0.0
H1125 H 0.71524 0.23402 0.82541 0.0
H1126 H 0.72873 0.24865 0.86478 0.0
H1127 H 0.67371 0.24677 0.82851 0.0
H1128 H 0.75847 0.26561 0.79328 0.0
H1129 H 0.74081 0.1922 0.78703 0.0
H1130 H 0.84775 0.26633 0.87054 0.0
H1131 H 0.78678 0.31184 0.86637 0.0
H1132 H 0.73146 0.14673 0.8476 0.0
H1133 H 0.78312 0.16164 0.81875 0.0
H1134 H 0.73492 0.10412 0.84256 0.0
H1135 H 0.78571 0.11871 0.81423 0.0
H1136 H 0.81703 0.18525 0.87012 0.0
H1137 H 0.75488 0.22608 0.87858 0.0
H1138 H 0.8341 0.19764 0.89075 0.0
H1139 H 0.77308 0.23786 0.89903 0.0
H1140 H 0.867 0.15345 0.84176 0.0
H1141 H 0.81408 0.10752 0.85826 0.0
H1142 H 0.66416 0.17072 0.8514 0.0
H1143 H 0.70609 0.15637 0.8847 0.0
Li1144 Li 0.55533 0.03928 0.59487 0.0
Li1145 Li 0.54347 0.99831 0.59902 0.0
Li1146 Li 0.52929 0.01929 0.58036 0.0
Li1147 Li 0.51501 0.02936 0.60157 0.0
C1148 C 0.58542 0.0136 0.58203 0.0
N1149 N 0.633 0.02084 0.5777 0.0
C1150 C 0.60225 0.00083 0.58888 0.0
C1151 C 0.59279 0.02998 0.57293 0.0
C1152 C 0.62622 0.00475 0.58655 0.0
C1153 C 0.61692 0.03342 0.57091 0.0
C1154 C 0.53975 0.03238 0.62293 0.0
C1155 C 0.51873 0.02765 0.64264 0.0
N1156 N 0.52763 0.04861 0.64674 0.0
C1157 C 0.54878 0.05383 0.62735 0.0
C1158 C 0.5247 0.0191 0.63065 0.0
C1159 C 0.54242 0.06174 0.63942 0.0
C1160 C 0.57628 0.08426 0.59235 0.0
N1161 N 0.5798 0.06208 0.59687 0.0
C1162 C 0.61689 0.07347 0.60581 0.0
C1163 C 0.59959 0.0564 0.60349 0.0
C1164 C 0.61358 0.09671 0.60146 0.0
C1165 C 0.593 0.10191 0.59454 0.0
H1166 H 0.56016 0.08843 0.58736 0.0
H1167 H 0.60171 0.03873 0.60721 0.0
C1168 C 0.56042 0.95159 0.59666 0.0
N1169 N 0.55481 0.96886 0.6051 0.0
C1170 C 0.5721 0.93123 0.60072 0.0
C1171 C 0.57127 0.94653 0.62211 0.0
C1172 C 0.55957 0.96653 0.61765 0.0
C1173 C 0.57828 0.92888 0.61355 0.0
H1174 H 0.55687 0.95418 0.58669 0.0
H1175 H 0.55528 0.98066 0.62411 0.0
C1176 C 0.51425 0.06306 0.57852 0.0
N1177 N 0.4913 0.08544 0.55879 0.0
C1178 C 0.4899 0.06694 0.57912 0.0
C1179 C 0.52696 0.07071 0.56793 0.0
C1180 C 0.47862 0.07827 0.56904 0.0
C1181 C 0.51502 0.08192 0.55803 0.0
C1182 C 0.50459 0.97638 0.59273 0.0
C1183 C 0.50654 0.96236 0.58188 0.0
C1184 C 0.49714 0.96626 0.60412 0.0
C1185 C 0.50114 0.93832 0.58264 0.0
C1186 C 0.49194 0.94215 0.6045 0.0
N1187 N 0.49405 0.9288 0.59385 0.0
C1188 C 0.53663 0.01128 0.55416 0.0
C1189 C 0.49674 0.01709 0.5602 0.0
C1190 C 0.52997 0.00833 0.54152 0.0
N1191 N 0.52006 0.0157 0.56316 0.0
C1192 C 0.48931 0.01445 0.54767 0.0
C1193 C 0.50602 0.00996 0.53812 0.0
H1194 H 0.55499 0.00979 0.55682 0.0
H1195 H 0.48392 0.02028 0.5676 0.0
C1196 C 0.49101 0.06241 0.61648 0.0
N1197 N 0.48875 0.04094 0.61084 0.0
C1198 C 0.47216 0.07217 0.62315 0.0
C1199 C 0.44855 0.03811 0.61756 0.0
C1200 C 0.4681 0.02869 0.61124 0.0
C1201 C 0.45059 0.06005 0.62364 0.0
H1202 H 0.5074 0.07207 0.61565 0.0
H1203 H 0.4667 0.01186 0.60646 0.0
O1204 O 0.56187 0.01027 0.58428 0.0
O1205 O 0.54555 0.02446 0.61108 0.0
O1206 O 0.52555 0.0516 0.58818 0.0
O1207 O 0.51017 0.99985 0.59223 0.0
H1208 H 0.59691 0.98821 0.59602 0.0
H1209 H 0.58 0.04012 0.56761 0.0
H1210 H 0.63944 0.99506 0.59182 0.0
H1211 H 0.62287 0.04614 0.56395 0.0
H1212 H 0.50697 0.01764 0.64868 0.0
H1213 H 0.56039 0.06437 0.62151 0.0
H1214 H 0.51748 0.00252 0.62734 0.0
H1215 H 0.54918 0.07836 0.64295 0.0
H1216 H 0.63253 0.06854 0.61109 0.0
H1217 H 0.58938 0.11964 0.59122 0.0
H1218 H 0.57749 0.91818 0.5938 0.0
H1219 H 0.57561 0.9453 0.63209 0.0
H1220 H 0.47977 0.06109 0.58722 0.0
H1221 H 0.5458 0.06776 0.5673 0.0
H1222 H 0.45977 0.0813 0.56934 0.0
H1223 H 0.5246 0.08778 0.54974 0.0
H1224 H 0.51236 0.9699 0.57299 0.0
H1225 H 0.49553 0.97689 0.6126 0.0
H1226 H 0.50267 0.92722 0.57434 0.0
H1227 H 0.48627 0.93405 0.61327 0.0
H1228 H 0.54343 0.0044 0.53455 0.0
H1229 H 0.47069 0.01608 0.5455 0.0
H1230 H 0.47415 0.08936 0.62754 0.0
H1231 H 0.43204 0.02844 0.61768 0.0
Li1232 Li 0.71263 0.80776 0.34557 0.0
Li1233 Li 0.75383 0.7978 0.35067 0.0
Li1234 Li 0.73527 0.7856 0.32989 0.0
Li1235 Li 0.72482 0.76543 0.34961 0.0
C1236 C 0.73916 0.84094 0.33309 0.0
N1237 N 0.73339 0.88774 0.32632 0.0
C1238 C 0.75187 0.85861 0.33935 0.0
C1239 C 0.72383 0.84705 0.32325 0.0
C1240 C 0.74862 0.88218 0.33582 0.0
C1241 C 0.72107 0.87081 0.32 0.0
C1242 C 0.72892 0.7948 0.37397 0.0
C1243 C 0.74483 0.77921 0.39345 0.0
N1244 N 0.73654 0.79844 0.39976 0.0
C1245 C 0.72029 0.81426 0.38068 0.0
C1246 C 0.74107 0.777 0.38042 0.0
C1247 C 0.72444 0.81584 0.3937 0.0
C1248 C 0.66573 0.82443 0.34615 0.0
N1249 N 0.68855 0.83054 0.34838 0.0
C1250 C 0.67672 0.86875 0.35561 0.0
C1251 C 0.6943 0.85212 0.35311 0.0
C1252 C 0.65291 0.86295 0.35346 0.0
C1253 C 0.64755 0.84043 0.34862 0.0
H1254 H 0.66159 0.80694 0.3427 0.0
H1255 H 0.71251 0.8563 0.35516 0.0
C1256 C 0.80321 0.80323 0.35519 0.0
N1257 N 0.78118 0.81003 0.35879 0.0
C1258 C 0.82311 0.81396 0.36054 0.0
C1259 C 0.79718 0.83814 0.37331 0.0
C1260 C 0.77789 0.82712 0.36765 0.0
C1261 C 0.82016 0.83179 0.36968 0.0
H1262 H 0.80532 0.78989 0.34794 0.0
H1263 H 0.76027 0.83296 0.36993 0.0
C1264 C 0.6892 0.77206 0.32658 0.0
N1265 N 0.66138 0.75894 0.30624 0.0
C1266 C 0.68379 0.74827 0.32453 0.0
C1267 C 0.68009 0.7892 0.3184 0.0
C1268 C 0.6698 0.74198 0.31416 0.0
C1269 C 0.66616 0.78222 0.30814 0.0
C1270 C 0.76946 0.74737 0.34359 0.0
C1271 C 0.77192 0.73022 0.33415 0.0
C1272 C 0.78078 0.74426 0.35523 0.0
C1273 C 0.78517 0.70994 0.33665 0.0
C1274 C 0.79389 0.72375 0.35737 0.0
N1275 N 0.79576 0.70713 0.34812 0.0
C1276 C 0.7492 0.79876 0.30507 0.0
C1277 C 0.73423 0.75985 0.307 0.0
C1278 C 0.75192 0.79589 0.292 0.0
N1279 N 0.74019 0.78096 0.31223 0.0
C1280 C 0.73646 0.75627 0.29398 0.0
C1281 C 0.7453 0.77447 0.28626 0.0
H1282 H 0.75429 0.8152 0.30949 0.0
H1283 H 0.72755 0.74582 0.31294 0.0
C1284 C 0.70104 0.73707 0.3674 0.0
N1285 N 0.71432 0.73633 0.35667 0.0
C1286 C 0.69076 0.71651 0.37217 0.0
C1287 C 0.70806 0.69473 0.35479 0.0
C1288 C 0.7181 0.71571 0.3504 0.0
C1289 C 0.69388 0.69504 0.36572 0.0
H1290 H 0.69769 0.7538 0.37199 0.0
H1291 H 0.72802 0.71567 0.34167 0.0
O1292 O 0.74199 0.81777 0.33649 0.0
O1293 O 0.72507 0.79305 0.3612 0.0
O1294 O 0.70305 0.77853 0.33663 0.0
O1295 O 0.75656 0.76734 0.34128 0.0
H1296 H 0.76404 0.85423 0.34686 0.0
H1297 H 0.71428 0.8336 0.31812 0.0
H1298 H 0.75823 0.89604 0.34064 0.0
H1299 H 0.70917 0.87578 0.31244 0.0
H1300 H 0.75425 0.76558 0.39855 0.0
H1301 H 0.71065 0.82809 0.37586 0.0
H1302 H 0.74725 0.76151 0.37546 0.0
H1303 H 0.71802 0.8309 0.39899 0.0
H1304 H 0.68176 0.8859 0.35925 0.0
H1305 H 0.62945 0.83494 0.34709 0.0
H1306 H 0.84055 0.80863 0.35747 0.0
H1307 H 0.79409 0.85223 0.38004 0.0
H1308 H 0.69047 0.73478 0.33082 0.0
H1309 H 0.68359 0.8077 0.32001 0.0
H1310 H 0.66564 0.72362 0.31242 0.0
H1311 H 0.6591 0.79531 0.30171 0.0
H1312 H 0.76354 0.73247 0.32502 0.0
H1313 H 0.77968 0.75765 0.3625 0.0
H1314 H 0.78704 0.69643 0.32946 0.0
H1315 H 0.80266 0.72109 0.36636 0.0
H1316 H 0.75928 0.81024 0.28649 0.0
H1317 H 0.73092 0.73953 0.29 0.0
H1318 H 0.67959 0.71761 0.38048 0.0
H1319 H 0.7109 0.67855 0.34954 0.0
Li1320 Li 0.94821 0.96662 0.09617 0.0
Li1321 Li 0.96016 0.00807 0.0996 0.0
Li1322 Li 0.97346 0.98787 0.08052 0.0
Li1323 Li 0.98815 0.97763 0.10188 0.0
C1324 C 0.91764 0.00103 0.08423 0.0
N1325 N 0.87094 0.01431 0.08169 0.0
C1326 C 0.90458 0.00771 0.09489 0.0
C1327 C 0.90695 0.00104 0.0723 0.0
C1328 C 0.881 0.01443 0.09339 0.0
C1329 C 0.88331 0.00777 0.07121 0.0
C1330 C 0.96597 0.97479 0.12374 0.0
C1331 C 0.98996 0.98022 0.14241 0.0
N1332 N 0.98159 0.95952 0.14717 0.0
C1333 C 0.95738 0.95373 0.12889 0.0
C1334 C 0.98218 0.9883 0.13062 0.0
C1335 C 0.96557 0.94626 0.14072 0.0
C1336 C 0.93481 0.92035 0.10124 0.0
N1337 N 0.92545 0.9418 0.09835 0.0
C1338 C 0.88631 0.92615 0.1001 0.0
C1339 C 0.90166 0.94493 0.09761 0.0
C1340 C 0.89554 0.9039 0.10326 0.0
C1341 C 0.92015 0.90108 0.1037 0.0
H1342 H 0.95375 0.91835 0.10196 0.0
H1343 H 0.89444 0.96194 0.09524 0.0
C1344 C 0.94139 0.05388 0.09672 0.0
N1345 N 0.94883 0.03787 0.10545 0.0
C1346 C 0.92988 0.07444 0.10058 0.0
C1347 C 0.93475 0.06213 0.12236 0.0
C1348 C 0.94612 0.04175 0.11807 0.0
C1349 C 0.92592 0.07849 0.11355 0.0
H1350 H 0.94353 0.05018 0.08673 0.0
H1351 H 0.95184 0.02856 0.1248 0.0
C1352 C 0.97363 0.93882 0.07927 0.0
N1353 N 0.96499 0.90438 0.06132 0.0
C1354 C 0.98846 0.91918 0.07837 0.0
C1355 C 0.95437 0.94095 0.07106 0.0
C1356 C 0.9838 0.90195 0.06923 0.0
C1357 C 0.95031 0.92335 0.06205 0.0
C1358 C 0.9982 0.03074 0.09312 0.0
C1359 C 0.99523 0.04536 0.08257 0.0
C1360 C 0.0063 0.04037 0.10451 0.0
C1361 C 0.0001 0.06947 0.08365 0.0
C1362 C 0.01095 0.06457 0.10522 0.0
N1363 N 0.00776 0.0785 0.09486 0.0
C1364 C 0.96952 0.00669 0.05577 0.0
C1365 C 0.99884 0.9772 0.05827 0.0
C1366 C 0.97551 0.0095 0.04302 0.0
N1367 N 0.98125 0.99082 0.06309 0.0
C1368 C 0.00517 0.97916 0.04553 0.0
C1369 C 0.99359 0.99561 0.0377 0.0
H1370 H 0.95579 0.01748 0.05992 0.0
H1371 H 0.00798 0.96481 0.06433 0.0
C1372 C 0.01319 0.94293 0.11488 0.0
N1373 N 0.01499 0.96534 0.11037 0.0
C1374 C 0.03262 0.93196 0.12045 0.0
C1375 C 0.05559 0.96722 0.11647 0.0
C1376 C 0.03557 0.97764 0.1111 0.0
C1377 C 0.05425 0.94402 0.12115 0.0
H1378 H 0.99673 0.93341 0.11389 0.0
H1379 H 0.03658 0.9953 0.10724 0.0
O1380 O 0.94092 0.99495 0.08536 0.0
O1381 O 0.95842 0.98221 0.11207 0.0
O1382 O 0.97804 0.95578 0.0882 0.0
O1383 O 0.99303 0.00718 0.09232 0.0
H1384 H 0.91244 0.00742 0.10422 0.0
H1385 H 0.91681 0.99585 0.06396 0.0
H1386 H 0.87067 0.01965 0.10155 0.0
H1387 H 0.8748 0.00783 0.06203 0.0
H1388 H 0.00268 0.99039 0.14777 0.0
H1389 H 0.94452 0.94325 0.12384 0.0
H1390 H 0.98888 0.0047 0.12684 0.0
H1391 H 0.95916 0.92992 0.14478 0.0
H1392 H 0.86742 0.929 0.09954 0.0
H1393 H 0.92803 0.88433 0.10628 0.0
H1394 H 0.92351 0.0867 0.09348 0.0
H1395 H 0.93179 0.06438 0.13243 0.0
H1396 H 0.00342 0.91728 0.08469 0.0
H1397 H 0.94267 0.956 0.07163 0.0
H1398 H 0.99514 0.88666 0.06842 0.0
H1399 H 0.93549 0.92477 0.05563 0.0
H1400 H 0.98905 0.03823 0.07367 0.0
H1401 H 0.0089 0.02931 0.11274 0.0
H1402 H 0.99773 0.08101 0.07558 0.0
H1403 H 0.01709 0.07227 0.114 0.0
H1404 H 0.96635 0.02272 0.03748 0.0
H1405 H 0.01892 0.96776 0.04186 0.0
H1406 H 0.03097 0.91391 0.12372 0.0
H1407 H 0.07198 0.97707 0.11684 0.0
Li1408 Li 0.7216 0.7378 0.84971 0.0
Li1409 Li 0.70953 0.69714 0.84499 0.0
Li1410 Li 0.75088 0.70725 0.84927 0.0
Li1411 Li 0.7318 0.71916 0.82954 0.0
C1412 C 0.71546 0.71765 0.87204 0.0
N1413 N 0.69799 0.73581 0.89445 0.0
C1414 C 0.6926 0.71198 0.87599 0.0
C1415 C 0.72952 0.73237 0.87953 0.0
C1416 C 0.68407 0.72138 0.88735 0.0
C1417 C 0.72034 0.74144 0.89082 0.0
C1418 C 0.68875 0.7361 0.82626 0.0
C1419 C 0.66985 0.73238 0.80588 0.0
N1420 N 0.66789 0.75629 0.80522 0.0
C1421 C 0.68646 0.76063 0.82542 0.0
C1422 C 0.68027 0.72183 0.81646 0.0
C1423 C 0.67587 0.7705 0.8147 0.0
C1424 C 0.7247 0.78553 0.85855 0.0
N1425 N 0.71079 0.76605 0.85746 0.0
C1426 C 0.67829 0.78624 0.86692 0.0
C1427 C 0.68796 0.7661 0.86141 0.0
C1428 C 0.6921 0.8067 0.86812 0.0
C1429 C 0.71558 0.80628 0.86383 0.0
H1430 H 0.74271 0.78505 0.85516 0.0
H1431 H 0.67719 0.75051 0.86013 0.0
C1432 C 0.69056 0.65536 0.8553 0.0
N1433 N 0.68557 0.6743 0.84786 0.0
C1434 C 0.6731 0.63873 0.85802 0.0
C1435 C 0.64554 0.66172 0.84562 0.0
C1436 C 0.66362 0.67776 0.84301 0.0
C1437 C 0.65012 0.64191 0.85328 0.0
H1438 H 0.70808 0.65333 0.85923 0.0
H1439 H 0.66002 0.69325 0.83736 0.0
C1440 C 0.77568 0.7433 0.84127 0.0
N1441 N 0.82378 0.75102 0.84253 0.0
C1442 C 0.78977 0.73976 0.83057 0.0
C1443 C 0.78599 0.75093 0.85259 0.0
C1444 C 0.81408 0.74374 0.8314 0.0
C1445 C 0.81036 0.75467 0.85304 0.0
C1446 C 0.73408 0.66343 0.83397 0.0
C1447 C 0.7461 0.64692 0.84141 0.0
C1448 C 0.71732 0.6557 0.82517 0.0
C1449 C 0.74105 0.62291 0.83996 0.0
C1450 C 0.71274 0.63155 0.82403 0.0
N1451 N 0.7246 0.61579 0.83138 0.0
C1452 C 0.77818 0.68881 0.86907 0.0
C1453 C 0.79684 0.68755 0.84896 0.0
C1454 C 0.79584 0.67468 0.87428 0.0
N1455 N 0.77872 0.69445 0.85656 0.0
C1456 C 0.81501 0.67353 0.85382 0.0
C1457 C 0.81412 0.66625 0.86653 0.0
H1458 H 0.76331 0.69406 0.87482 0.0
H1459 H 0.7964 0.69163 0.83895 0.0
C1460 C 0.73541 0.74685 0.80737 0.0
N1461 N 0.73614 0.72441 0.81192 0.0
C1462 C 0.73723 0.75102 0.79437 0.0
C1463 C 0.74155 0.70899 0.79106 0.0
C1464 C 0.73948 0.70563 0.80411 0.0
C1465 C 0.74017 0.73191 0.78601 0.0
H1466 H 0.73304 0.76147 0.81384 0.0
H1467 H 0.74049 0.68803 0.80801 0.0
O1468 O 0.72399 0.70897 0.86085 0.0
O1469 O 0.69942 0.72612 0.83658 0.0
O1470 O 0.75191 0.73926 0.84069 0.0
O1471 O 0.73856 0.68705 0.83535 0.0
H1472 H 0.68145 0.70066 0.8703 0.0
H1473 H 0.74725 0.73694 0.8766 0.0
H1474 H 0.66637 0.71725 0.8905 0.0
H1475 H 0.73096 0.75299 0.89667 0.0
H1476 H 0.66337 0.72156 0.79818 0.0
H1477 H 0.69301 0.77196 0.83289 0.0
H1478 H 0.68197 0.70283 0.81695 0.0
H1479 H 0.67408 0.78946 0.81388 0.0
H1480 H 0.65998 0.78602 0.8699 0.0
H1481 H 0.72671 0.82178 0.86458 0.0
H1482 H 0.67757 0.62364 0.86385 0.0
H1483 H 0.62802 0.6652 0.84196 0.0
H1484 H 0.78206 0.73383 0.82174 0.0
H1485 H 0.7753 0.75376 0.86095 0.0
H1486 H 0.82523 0.74098 0.82322 0.0
H1487 H 0.81861 0.76045 0.86175 0.0
H1488 H 0.75903 0.65252 0.84832 0.0
H1489 H 0.70773 0.66823 0.8194 0.0
H1490 H 0.75016 0.60995 0.84569 0.0
H1491 H 0.69971 0.62534 0.81731 0.0
H1492 H 0.79461 0.66947 0.88414 0.0
H1493 H 0.82863 0.66708 0.8475 0.0
H1494 H 0.73587 0.76897 0.7909 0.0
H1495 H 0.74433 0.69379 0.78502 0.0
Li1496 Li 0.51256 0.47561 0.10192 0.0
Li1497 Li 0.5518 0.46187 0.09763 0.0
Li1498 Li 0.54534 0.50344 0.10062 0.0
Li1499 Li 0.53131 0.48301 0.081 0.0
C1500 C 0.53798 0.46278 0.12313 0.0
N1501 N 0.53217 0.43202 0.14323 0.0
C1502 C 0.53115 0.43941 0.12096 0.0
C1503 C 0.5418 0.47052 0.13554 0.0
C1504 C 0.52833 0.42412 0.13124 0.0
C1505 C 0.53879 0.45471 0.14557 0.0
C1506 C 0.5215 0.4314 0.08278 0.0
C1507 C 0.53195 0.40633 0.06516 0.0
N1508 N 0.51991 0.38819 0.07061 0.0
C1509 C 0.50908 0.41254 0.08815 0.0
C1510 C 0.53291 0.42832 0.07115 0.0
C1511 C 0.50855 0.39082 0.08187 0.0
C1512 C 0.46822 0.45439 0.10296 0.0
N1513 N 0.48348 0.46771 0.10985 0.0
C1514 C 0.45905 0.46412 0.12821 0.0
C1515 C 0.47907 0.47315 0.12217 0.0
C1516 C 0.44353 0.44925 0.12152 0.0
C1517 C 0.44814 0.44483 0.10863 0.0
H1518 H 0.47218 0.45039 0.09317 0.0
H1519 H 0.49147 0.48385 0.12744 0.0
C1520 C 0.59188 0.44518 0.10994 0.0
N1521 N 0.57472 0.43798 0.1018 0.0
C1522 C 0.60927 0.42948 0.11403 0.0
C1523 C 0.59074 0.39892 0.10155 0.0
C1524 C 0.57394 0.41534 0.09753 0.0
C1525 C 0.60876 0.40585 0.10995 0.0
H1526 H 0.59198 0.46322 0.11332 0.0
H1527 H 0.56016 0.40973 0.0912 0.0
C1528 C 0.49955 0.52228 0.09791 0.0
N1529 N 0.47081 0.55529 0.10946 0.0
C1530 C 0.48277 0.5346 0.0908 0.0
C1531 C 0.50174 0.52674 0.11088 0.0
C1532 C 0.4684 0.55123 0.09682 0.0
C1533 C 0.48703 0.54349 0.11655 0.0
C1534 C 0.58729 0.48258 0.08566 0.0
C1535 C 0.60455 0.49486 0.09248 0.0
C1536 C 0.594 0.46408 0.07766 0.0
C1537 C 0.6282 0.48817 0.09132 0.0
C1538 C 0.61782 0.45789 0.07678 0.0
N1539 N 0.63428 0.46996 0.08358 0.0
C1540 C 0.57071 0.53014 0.11812 0.0
C1541 C 0.55902 0.55166 0.09989 0.0
C1542 C 0.58392 0.54925 0.12246 0.0
N1543 N 0.55899 0.53155 0.10692 0.0
C1544 C 0.57202 0.57129 0.10389 0.0
C1545 C 0.58519 0.56997 0.11516 0.0
H1546 H 0.57061 0.51378 0.12339 0.0
H1547 H 0.54969 0.55211 0.09094 0.0
C1548 C 0.50286 0.48932 0.05941 0.0
N1549 N 0.52553 0.4871 0.06346 0.0
C1550 C 0.49803 0.49292 0.04658 0.0
C1551 C 0.53997 0.49162 0.04234 0.0
C1552 C 0.54399 0.48827 0.05526 0.0
C1553 C 0.51673 0.49414 0.03782 0.0
H1554 H 0.48857 0.48851 0.0662 0.0
H1555 H 0.56184 0.48656 0.05876 0.0
O1556 O 0.54057 0.47821 0.11324 0.0
O1557 O 0.52205 0.45284 0.08877 0.0
O1558 O 0.51366 0.5059 0.09213 0.0
O1559 O 0.56398 0.48859 0.08687 0.0
H1560 H 0.52805 0.43312 0.11146 0.0
H1561 H 0.54688 0.48861 0.13741 0.0
H1562 H 0.52306 0.40599 0.12968 0.0
H1563 H 0.54166 0.46048 0.15522 0.0
H1564 H 0.54079 0.40369 0.05618 0.0
H1565 H 0.5 0.41457 0.0971 0.0
H1566 H 0.54247 0.44266 0.06679 0.0
H1567 H 0.49909 0.37607 0.08595 0.0
H1568 H 0.45604 0.46835 0.13809 0.0
H1569 H 0.43696 0.43324 0.1031 0.0
H1570 H 0.62292 0.43584 0.12035 0.0
H1571 H 0.5892 0.38083 0.09833 0.0
H1572 H 0.48087 0.53132 0.08075 0.0
H1573 H 0.51459 0.51734 0.11654 0.0
H1574 H 0.45532 0.5609 0.09144 0.0
H1575 H 0.48851 0.5471 0.12658 0.0
H1576 H 0.59977 0.50931 0.09865 0.0
H1577 H 0.58094 0.45435 0.07233 0.0
H1578 H 0.64171 0.49744 0.09659 0.0
H1579 H 0.62321 0.44346 0.07072 0.0
H1580 H 0.5936 0.5476 0.13127 0.0
H1581 H 0.57271 0.58686 0.09794 0.0
H1582 H 0.47987 0.49515 0.04359 0.0
H1583 H 0.55493 0.49207 0.03595 0.0
Li1584 Li 0.78297 0.30882 0.34331 0.0
Li1585 Li 0.77334 0.26784 0.34914 0.0
Li1586 Li 0.76345 0.28349 0.32817 0.0
Li1587 Li 0.74201 0.29625 0.34704 0.0
C1588 C 0.80737 0.26944 0.32623 0.0
N1589 N 0.83015 0.24875 0.30592 0.0
C1590 C 0.80997 0.24491 0.3257 0.0
C1591 C 0.8165 0.28346 0.31649 0.0
C1592 C 0.82153 0.23479 0.31534 0.0
C1593 C 0.8279 0.27266 0.30629 0.0
C1594 C 0.77601 0.29098 0.37092 0.0
C1595 C 0.77113 0.26882 0.39026 0.0
N1596 N 0.79234 0.27702 0.39442 0.0
C1597 C 0.79769 0.29931 0.37542 0.0
C1598 C 0.76253 0.27574 0.37842 0.0
C1599 C 0.80565 0.29201 0.38732 0.0
C1600 C 0.79972 0.35362 0.35183 0.0
N1601 N 0.80585 0.33293 0.34615 0.0
C1602 C 0.84669 0.34338 0.34692 0.0
C1603 C 0.82876 0.32767 0.34357 0.0
C1604 C 0.84091 0.36475 0.35289 0.0
C1605 C 0.81708 0.37007 0.35513 0.0
H1606 H 0.78146 0.35701 0.35417 0.0
H1607 H 0.83321 0.31087 0.33933 0.0
C1608 C 0.77401 0.22021 0.35821 0.0
N1609 N 0.78572 0.24115 0.35776 0.0
C1610 C 0.7848 0.20036 0.36358 0.0
C1611 C 0.81907 0.22432 0.36822 0.0
C1612 C 0.80782 0.2435 0.36259 0.0
C1613 C 0.80781 0.20218 0.36854 0.0
H1614 H 0.75661 0.21875 0.35406 0.0
H1615 H 0.8169 0.26024 0.36183 0.0
C1616 C 0.75671 0.33951 0.33075 0.0
N1617 N 0.7623 0.38747 0.32694 0.0
C1618 C 0.74216 0.35558 0.33708 0.0
C1619 C 0.77403 0.34783 0.32243 0.0
C1620 C 0.74527 0.37976 0.33503 0.0
C1621 C 0.77662 0.37215 0.32065 0.0
C1622 C 0.72079 0.25689 0.34002 0.0
C1623 C 0.70683 0.25832 0.32912 0.0
C1624 C 0.71089 0.24885 0.35135 0.0
C1625 C 0.68305 0.25185 0.32979 0.0
C1626 C 0.68703 0.24259 0.35164 0.0
N1627 N 0.67372 0.24421 0.34094 0.0
C1628 C 0.76046 0.25174 0.3078 0.0
C1629 C 0.76044 0.29199 0.30162 0.0
C1630 C 0.75974 0.24455 0.29515 0.0
N1631 N 0.76103 0.27509 0.31076 0.0
C1632 C 0.75963 0.2856 0.28885 0.0
C1633 C 0.75942 0.26158 0.28547 0.0
H1634 H 0.76077 0.2387 0.31529 0.0
H1635 H 0.76079 0.31043 0.30425 0.0
C1636 C 0.71125 0.31323 0.36584 0.0
N1637 N 0.71251 0.307 0.35343 0.0
C1638 C 0.69108 0.32427 0.37057 0.0
C1639 C 0.67348 0.32152 0.34976 0.0
C1640 C 0.69411 0.3107 0.3454 0.0
C1641 C 0.67197 0.32899 0.36244 0.0
H1642 H 0.72633 0.31062 0.37195 0.0
H1643 H 0.6958 0.3061 0.3355 0.0
O1644 O 0.79553 0.27965 0.3361 0.0
O1645 O 0.76805 0.29764 0.35921 0.0
O1646 O 0.75402 0.31577 0.33267 0.0
O1647 O 0.74403 0.26336 0.33959 0.0
H1648 H 0.80289 0.23379 0.33312 0.0
H1649 H 0.81457 0.30247 0.31675 0.0
H1650 H 0.82356 0.21582 0.31476 0.0
H1651 H 0.83491 0.28327 0.29864 0.0
H1652 H 0.76096 0.25692 0.39613 0.0
H1653 H 0.80835 0.31112 0.36975 0.0
H1654 H 0.74571 0.26917 0.37509 0.0
H1655 H 0.82245 0.29821 0.39089 0.0
H1656 H 0.86492 0.3387 0.34509 0.0
H1657 H 0.81204 0.38624 0.3599 0.0
H1658 H 0.77553 0.18364 0.36344 0.0
H1659 H 0.83657 0.2268 0.37212 0.0
H1660 H 0.7287 0.34951 0.34358 0.0
H1661 H 0.78556 0.33566 0.31753 0.0
H1662 H 0.73418 0.3924 0.3399 0.0
H1663 H 0.79005 0.37883 0.31431 0.0
H1664 H 0.71421 0.26456 0.32028 0.0
H1665 H 0.72149 0.24758 0.35985 0.0
H1666 H 0.67199 0.25297 0.32145 0.0
H1667 H 0.6791 0.23644 0.36036 0.0
H1668 H 0.75925 0.22585 0.29299 0.0
H1669 H 0.75961 0.2993 0.28169 0.0
H1670 H 0.69101 0.33012 0.38034 0.0
H1671 H 0.65915 0.32458 0.34317 0.0
Li1672 Li 0.94352 0.53805 0.59458 0.0
Li1673 Li 0.98372 0.52542 0.5998 0.0
Li1674 Li 0.96646 0.51787 0.57878 0.0
Li1675 Li 0.95302 0.49596 0.59739 0.0
C1676 C 0.98467 0.56031 0.57744 0.0
N1677 N 0.00796 0.58211 0.55762 0.0
C1678 C 0.00929 0.5622 0.57757 0.0
C1679 C 0.9719 0.56961 0.56725 0.0
C1680 C 0.02073 0.57329 0.56746 0.0
C1681 C 0.984 0.58051 0.55731 0.0
C1682 C 0.96105 0.52603 0.62212 0.0
C1683 C 0.9814 0.51474 0.64125 0.0
N1684 N 0.9759 0.53601 0.64647 0.0
C1685 C 0.95543 0.54771 0.6277 0.0
C1686 C 0.97398 0.50934 0.62896 0.0
C1687 C 0.96317 0.55244 0.64001 0.0
C1688 C 0.90285 0.55854 0.60595 0.0
N1689 N 0.92131 0.56242 0.59798 0.0
C1690 C 0.91117 0.60318 0.59617 0.0
C1691 C 0.92555 0.58412 0.59299 0.0
C1692 C 0.89234 0.59995 0.60466 0.0
C1693 C 0.88796 0.57716 0.60939 0.0
H1694 H 0.90016 0.54114 0.60994 0.0
H1695 H 0.94052 0.5868 0.58683 0.0
C1696 C 0.03176 0.52372 0.60883 0.0
N1697 N 0.01103 0.53583 0.60866 0.0
C1698 C 0.05184 0.5338 0.61439 0.0
C1699 C 0.02847 0.56804 0.61984 0.0
C1700 C 0.0091 0.55755 0.61399 0.0
C1701 C 0.05044 0.55647 0.61984 0.0
H1702 H 0.0329 0.50664 0.60428 0.0
H1703 H 0.99256 0.56702 0.61342 0.0
C1704 C 0.9103 0.51585 0.58263 0.0
N1705 N 0.86297 0.52732 0.58101 0.0
C1706 C 0.89366 0.50346 0.58981 0.0
C1707 C 0.90287 0.534 0.57458 0.0
C1708 C 0.86981 0.50953 0.58885 0.0
C1709 C 0.87887 0.53956 0.57392 0.0
C1710 C 0.99221 0.47329 0.58943 0.0
C1711 C 0.99103 0.4604 0.57815 0.0
C1712 C 0.00027 0.46237 0.60049 0.0
C1713 C 0.99762 0.43662 0.57818 0.0
C1714 C 0.00667 0.43855 0.60013 0.0
N1715 N 0.00521 0.42627 0.58907 0.0
C1716 C 0.99556 0.51541 0.55697 0.0
C1717 C 0.95439 0.51408 0.55296 0.0
C1718 C 0.00039 0.51443 0.54401 0.0
N1719 N 0.97285 0.51547 0.56115 0.0
C1720 C 0.9584 0.51302 0.53993 0.0
C1721 C 0.98165 0.51332 0.53529 0.0
H1722 H 0.00989 0.51634 0.56373 0.0
H1723 H 0.93654 0.51377 0.55654 0.0
C1724 C 0.93083 0.46515 0.61474 0.0
N1725 N 0.94021 0.46665 0.60292 0.0
C1726 C 0.91792 0.44521 0.61832 0.0
C1727 C 0.92552 0.42829 0.5977 0.0
C1728 C 0.93786 0.44875 0.59444 0.0
C1729 C 0.91476 0.42652 0.60968 0.0
H1730 H 0.93232 0.47995 0.62116 0.0
H1731 H 0.94474 0.45072 0.58495 0.0
O1732 O 0.97315 0.54913 0.58713 0.0
O1733 O 0.95391 0.52119 0.61001 0.0
O1734 O 0.93379 0.5105 0.58362 0.0
O1735 O 0.98577 0.49655 0.58961 0.0
H1736 H 0.01949 0.55502 0.58532 0.0
H1737 H 0.95286 0.56808 0.56693 0.0
H1738 H 0.03977 0.57481 0.56741 0.0
H1739 H 0.97435 0.58761 0.54933 0.0
H1740 H 0.99153 0.50203 0.64663 0.0
H1741 H 0.94545 0.56084 0.62252 0.0
H1742 H 0.97829 0.49242 0.62481 0.0
H1743 H 0.95909 0.5692 0.64442 0.0
H1744 H 0.91502 0.62039 0.59219 0.0
H1745 H 0.87381 0.57395 0.61608 0.0
H1746 H 0.06841 0.5243 0.61401 0.0
H1747 H 0.02627 0.58526 0.62413 0.0
H1748 H 0.89906 0.48941 0.59611 0.0
H1749 H 0.91553 0.54393 0.56906 0.0
H1750 H 0.85674 0.50014 0.59438 0.0
H1751 H 0.87289 0.55367 0.56779 0.0
H1752 H 0.98487 0.4686 0.5695 0.0
H1753 H 0.00154 0.47218 0.60926 0.0
H1754 H 0.99665 0.42638 0.56954 0.0
H1755 H 0.01283 0.42983 0.60863 0.0
H1756 H 0.01858 0.51491 0.54085 0.0
H1757 H 0.94344 0.51171 0.53358 0.0
H1758 H 0.90958 0.44506 0.62755 0.0
H1759 H 0.9239 0.41432 0.59075 0.0
Li1760 Li 0.75462 0.29602 0.65291 0.0
Li1761 Li 0.73353 0.28231 0.6721 0.0
Li1762 Li 0.7241 0.26551 0.65107 0.0
Li1763 Li 0.71281 0.30624 0.65686 0.0
C1764 C 0.77587 0.25381 0.66024 0.0
N1765 N 0.82053 0.23425 0.65961 0.0
C1766 C 0.78956 0.25294 0.67125 0.0
C1767 C 0.78476 0.2445 0.64895 0.0
C1768 C 0.81214 0.24303 0.67073 0.0
C1769 C 0.80743 0.23476 0.64881 0.0
C1770 C 0.73713 0.33818 0.66958 0.0
C1771 C 0.71549 0.36857 0.68061 0.0
N1772 N 0.72783 0.38531 0.67417 0.0
C1773 C 0.74971 0.35568 0.66313 0.0
C1774 C 0.71998 0.34464 0.67846 0.0
C1775 C 0.74472 0.37942 0.66557 0.0
C1776 C 0.78198 0.32243 0.636 0.0
N1777 N 0.78343 0.30853 0.64647 0.0
C1778 C 0.82435 0.31795 0.6489 0.0
C1779 C 0.80407 0.30605 0.65291 0.0
C1780 C 0.82324 0.33316 0.63837 0.0
C1781 C 0.80167 0.33502 0.6318 0.0
H1782 H 0.76518 0.32467 0.63128 0.0
H1783 H 0.80465 0.29555 0.66143 0.0
C1784 C 0.73473 0.2531 0.69402 0.0
N1785 N 0.73763 0.27547 0.6896 0.0
C1786 C 0.73808 0.24816 0.70687 0.0
C1787 C 0.74796 0.28922 0.71026 0.0
C1788 C 0.74424 0.29339 0.69739 0.0
C1789 C 0.74487 0.26637 0.71516 0.0
H1790 H 0.72998 0.23908 0.68755 0.0
H1791 H 0.74682 0.31092 0.6936 0.0
C1792 C 0.72488 0.29007 0.62855 0.0
N1793 N 0.71843 0.27919 0.60328 0.0
C1794 C 0.70387 0.29625 0.62245 0.0
C1795 C 0.74271 0.27861 0.62179 0.0
C1796 C 0.70092 0.29053 0.60967 0.0
C1797 C 0.73909 0.27319 0.60902 0.0
C1798 C 0.68963 0.2657 0.67393 0.0
C1799 C 0.68573 0.24133 0.67362 0.0
C1800 C 0.68115 0.27899 0.68412 0.0
C1801 C 0.67354 0.23062 0.6836 0.0
C1802 C 0.6691 0.26761 0.69393 0.0
N1803 N 0.66557 0.24386 0.69346 0.0
C1804 C 0.72466 0.21694 0.64436 0.0
C1805 C 0.69353 0.23948 0.63546 0.0
C1806 C 0.71519 0.19619 0.63929 0.0
N1807 N 0.71363 0.23797 0.64244 0.0
C1808 C 0.68365 0.21926 0.63007 0.0
C1809 C 0.69428 0.1972 0.63214 0.0
H1810 H 0.7403 0.21616 0.65022 0.0
H1811 H 0.68466 0.25628 0.63447 0.0
C1812 C 0.69431 0.34974 0.64789 0.0
N1813 N 0.68914 0.32954 0.65427 0.0
C1814 C 0.67672 0.36652 0.64562 0.0
C1815 C 0.64876 0.34109 0.65628 0.0
C1816 C 0.66693 0.32496 0.65846 0.0
C1817 C 0.65348 0.36223 0.64975 0.0
H1818 H 0.71206 0.35273 0.64447 0.0
H1819 H 0.6632 0.30853 0.66327 0.0
O1820 O 0.75371 0.26334 0.6606 0.0
O1821 O 0.74153 0.31484 0.66721 0.0
O1822 O 0.72804 0.29549 0.64105 0.0
O1823 O 0.70156 0.27652 0.66427 0.0
H1824 H 0.78289 0.25998 0.68009 0.0
H1825 H 0.77425 0.24472 0.64039 0.0
H1826 H 0.82299 0.24234 0.67916 0.0
H1827 H 0.81457 0.22756 0.64012 0.0
H1828 H 0.70217 0.37381 0.6874 0.0
H1829 H 0.76311 0.35102 0.65628 0.0
H1830 H 0.71013 0.33132 0.68355 0.0
H1831 H 0.75425 0.39316 0.6606 0.0
H1832 H 0.84055 0.31566 0.6542 0.0
H1833 H 0.79961 0.3469 0.62385 0.0
H1834 H 0.73585 0.23022 0.71023 0.0
H1835 H 0.75304 0.30378 0.71634 0.0
H1836 H 0.68995 0.30525 0.62757 0.0
H1837 H 0.75919 0.27403 0.62634 0.0
H1838 H 0.6847 0.29509 0.60483 0.0
H1839 H 0.75271 0.26426 0.60367 0.0
H1840 H 0.6921 0.23077 0.6658 0.0
H1841 H 0.68395 0.29787 0.68448 0.0
H1842 H 0.67044 0.21176 0.6835 0.0
H1843 H 0.66254 0.27766 0.7019 0.0
H1844 H 0.72386 0.17948 0.64112 0.0
H1845 H 0.66725 0.22074 0.62484 0.0
H1846 H 0.68129 0.38261 0.64065 0.0
H1847 H 0.63108 0.33668 0.65938 0.0
Li1848 Li 0.96442 0.48541 0.92034 0.0
Li1849 Li 0.94943 0.50488 0.90105 0.0
Li1850 Li 0.93777 0.46457 0.90682 0.0
Li1851 Li 0.97879 0.4727 0.89937 0.0
C1852 C 0.90832 0.4919 0.91955 0.0
N1853 N 0.86126 0.48596 0.92574 0.0
C1854 C 0.89115 0.50657 0.91421 0.0
C1855 C 0.90158 0.47446 0.9282 0.0
C1856 C 0.86745 0.50323 0.91742 0.0
C1857 C 0.8777 0.47165 0.93116 0.0
C1858 C 0.99483 0.52427 0.90789 0.0
C1859 C 0.02198 0.55199 0.89846 0.0
N1860 N 0.01965 0.56625 0.90876 0.0
C1861 C 0.99281 0.53912 0.91842 0.0
C1862 C 0.00965 0.53064 0.89787 0.0
C1863 C 0.00548 0.5603 0.91867 0.0
C1864 C 0.99768 0.49101 0.94009 0.0
N1865 N 0.97423 0.49043 0.93736 0.0
C1866 C 0.96444 0.49679 0.9591 0.0
C1867 C 0.95765 0.49336 0.94652 0.0
C1868 C 0.98854 0.49726 0.96226 0.0
C1869 C 0.00528 0.49436 0.95255 0.0
H1870 H 0.01047 0.48876 0.93257 0.0
H1871 H 0.93914 0.49311 0.94406 0.0
C1872 C 0.91922 0.52956 0.88521 0.0
N1873 N 0.93748 0.53296 0.89338 0.0
C1874 C 0.90685 0.54879 0.88034 0.0
C1875 C 0.93302 0.57489 0.8918 0.0
C1876 C 0.94474 0.55508 0.8966 0.0
C1877 C 0.91344 0.57176 0.88383 0.0
H1878 H 0.91351 0.51182 0.88298 0.0
H1879 H 0.95894 0.55747 0.90326 0.0
C1880 C 0.97827 0.44171 0.9238 0.0
N1881 N 0.99952 0.42123 0.94465 0.0
C1882 C 0.00278 0.43897 0.92419 0.0
C1883 C 0.96454 0.43377 0.93395 0.0
C1884 C 0.0132 0.42862 0.93483 0.0
C1885 C 0.97562 0.42355 0.94443 0.0
C1886 C 0.95108 0.47929 0.8774 0.0
C1887 C 0.93908 0.4644 0.86903 0.0
C1888 C 0.96611 0.49675 0.87266 0.0
C1889 C 0.94242 0.46718 0.856 0.0
C1890 C 0.96896 0.49899 0.85957 0.0
N1891 N 0.95717 0.48427 0.85158 0.0
C1892 C 0.89251 0.44714 0.89956 0.0
C1893 C 0.91922 0.41881 0.90785 0.0
C1894 C 0.87618 0.4294 0.89667 0.0
N1895 N 0.91357 0.44151 0.90499 0.0
C1896 C 0.90361 0.40054 0.90496 0.0
C1897 C 0.88197 0.40573 0.89911 0.0
H1898 H 0.88878 0.46527 0.89704 0.0
H1899 H 0.93628 0.41478 0.91189 0.0
C1900 C 0.02695 0.46538 0.89324 0.0
N1901 N 0.00435 0.45982 0.89012 0.0
C1902 C 0.04576 0.45319 0.88769 0.0
C1903 C 0.01761 0.43094 0.87527 0.0
C1904 C 0.99939 0.4432 0.88123 0.0
C1905 C 0.04119 0.43531 0.87875 0.0
H1906 H 0.03032 0.47845 0.9005 0.0
H1907 H 0.98124 0.43888 0.87908 0.0
O1908 O 0.93162 0.49478 0.91644 0.0
O1909 O 0.98286 0.50331 0.90754 0.0
O1910 O 0.96778 0.45233 0.9136 0.0
O1911 O 0.94819 0.47658 0.89017 0.0
H1912 H 0.89603 0.52046 0.9077 0.0
H1913 H 0.91461 0.46305 0.93248 0.0
H1914 H 0.85398 0.51441 0.91331 0.0
H1915 H 0.87223 0.45809 0.93776 0.0
H1916 H 0.03345 0.55718 0.89076 0.0
H1917 H 0.98139 0.53449 0.92625 0.0
H1918 H 0.0117 0.51917 0.88974 0.0
H1919 H 0.004 0.57203 0.92672 0.0
H1920 H 0.95094 0.49936 0.96624 0.0
H1921 H 0.02403 0.49438 0.95457 0.0
H1922 H 0.89184 0.54572 0.87419 0.0
H1923 H 0.93842 0.59238 0.8948 0.0
H1924 H 0.01368 0.44498 0.91643 0.0
H1925 H 0.94555 0.43558 0.93377 0.0
H1926 H 0.03217 0.42653 0.93529 0.0
H1927 H 0.96522 0.41748 0.95239 0.0
H1928 H 0.9274 0.45078 0.87259 0.0
H1929 H 0.97541 0.50846 0.87903 0.0
H1930 H 0.93331 0.45574 0.84941 0.0
H1931 H 0.98054 0.51242 0.85576 0.0
H1932 H 0.85977 0.43399 0.89201 0.0
H1933 H 0.90866 0.38246 0.90695 0.0
H1934 H 0.06355 0.45701 0.89083 0.0
H1935 H 0.01316 0.41771 0.86826 0.0
Li1936 Li 0.76934 0.72072 0.17069 0.0
Li1937 Li 0.75101 0.70398 0.151 0.0
Li1938 Li 0.79285 0.69878 0.15528 0.0
Li1939 Li 0.7783 0.73747 0.14922 0.0
C1940 C 0.77408 0.66687 0.17035 0.0
N1941 N 0.79303 0.62523 0.17941 0.0
C1942 C 0.76703 0.64527 0.16519 0.0
C1943 C 0.79065 0.66733 0.18017 0.0
C1944 C 0.77684 0.6244 0.16989 0.0
C1945 C 0.80005 0.64607 0.1846 0.0
C1946 C 0.72594 0.746 0.15666 0.0
C1947 C 0.69722 0.7656 0.14349 0.0
N1948 N 0.68142 0.7648 0.1532 0.0
C1949 C 0.70955 0.7456 0.16656 0.0
C1950 C 0.71987 0.75629 0.14508 0.0
C1951 C 0.68708 0.75511 0.1646 0.0
C1952 C 0.77356 0.74764 0.19304 0.0
N1953 N 0.76475 0.72737 0.18803 0.0
C1954 C 0.75101 0.71479 0.20832 0.0
C1955 C 0.75341 0.71115 0.19531 0.0
C1956 C 0.76025 0.73539 0.21384 0.0
C1957 C 0.77141 0.75209 0.20601 0.0
H1958 H 0.78258 0.76015 0.18698 0.0
H1959 H 0.74652 0.69522 0.19102 0.0
C1960 C 0.73106 0.66935 0.13624 0.0
N1961 N 0.72483 0.68705 0.14426 0.0
C1962 C 0.71419 0.65347 0.13182 0.0
C1963 C 0.68449 0.67451 0.14377 0.0
C1964 C 0.70204 0.69005 0.148 0.0
C1965 C 0.69064 0.65561 0.1358 0.0
H1966 H 0.74938 0.66702 0.13365 0.0
H1967 H 0.69756 0.70381 0.15465 0.0
C1968 C 0.82288 0.73714 0.16082 0.0
N1969 N 0.86778 0.75335 0.15546 0.0
C1970 C 0.83214 0.73474 0.14861 0.0
C1971 C 0.83642 0.7478 0.1703 0.0
C1972 C 0.85488 0.74306 0.14609 0.0
C1973 C 0.8591 0.75586 0.1674 0.0
C1974 C 0.77618 0.7086 0.12649 0.0
C1975 C 0.79546 0.702 0.11902 0.0
C1976 C 0.75523 0.71593 0.1207 0.0
C1977 C 0.79354 0.7031 0.10584 0.0
C1978 C 0.75401 0.71676 0.10748 0.0
N1979 N 0.77303 0.7104 0.10039 0.0
C1980 C 0.81237 0.65787 0.14528 0.0
C1981 C 0.83871 0.67807 0.15894 0.0
C1982 C 0.82922 0.64048 0.14292 0.0
N1983 N 0.81741 0.67623 0.15311 0.0
C1984 C 0.85634 0.66138 0.1566 0.0
C1985 C 0.8518 0.64225 0.14841 0.0
H1986 H 0.79514 0.65676 0.14089 0.0
H1987 H 0.84217 0.69261 0.16531 0.0
C1988 C 0.79145 0.78479 0.14908 0.0
N1989 N 0.78687 0.76647 0.14112 0.0
C1990 C 0.80136 0.80567 0.14445 0.0
C1991 C 0.80078 0.78886 0.12342 0.0
C1992 C 0.79095 0.76829 0.12846 0.0
C1993 C 0.80664 0.8077 0.13149 0.0
H1994 H 0.78836 0.78274 0.15914 0.0
H1995 H 0.78746 0.75361 0.12226 0.0
O1996 O 0.76519 0.68753 0.16566 0.0
O1997 O 0.74799 0.73683 0.15843 0.0
O1998 O 0.80058 0.72936 0.16352 0.0
O1999 O 0.77783 0.70756 0.1394 0.0
H2000 H 0.75425 0.64464 0.15757 0.0
H2001 H 0.79641 0.68395 0.18419 0.0
H2002 H 0.77164 0.60754 0.16595 0.0
H2003 H 0.813 0.64615 0.19214 0.0
H2004 H 0.69222 0.77353 0.13456 0.0
H2005 H 0.71411 0.73786 0.17562 0.0
H2006 H 0.73256 0.7572 0.13743 0.0
H2007 H 0.67414 0.75478 0.17214 0.0
H2008 H 0.74203 0.70163 0.214 0.0
H2009 H 0.77894 0.7681 0.20992 0.0
H2010 H 0.71966 0.63927 0.12559 0.0
H2011 H 0.66658 0.67659 0.14719 0.0
H2012 H 0.8219 0.72656 0.14117 0.0
H2013 H 0.82945 0.74982 0.17979 0.0
H2014 H 0.86227 0.74134 0.13668 0.0
H2015 H 0.8698 0.76413 0.17464 0.0
H2016 H 0.81176 0.69615 0.12337 0.0
H2017 H 0.74008 0.72087 0.12633 0.0
H2018 H 0.80835 0.69814 0.09994 0.0
H2019 H 0.73792 0.72243 0.10287 0.0
H2020 H 0.82451 0.62583 0.13684 0.0
H2021 H 0.87346 0.66381 0.16096 0.0
H2022 H 0.80585 0.81961 0.15105 0.0
H2023 H 0.80426 0.78978 0.11334 0.0
Li2024 Li 0.54907 0.49648 0.40108 0.0
Li2025 Li 0.53755 0.51378 0.42221 0.0
Li2026 Li 0.51942 0.52827 0.40204 0.0
Li2027 Li 0.56011 0.53605 0.40676 0.0
C2028 C 0.50436 0.47653 0.41044 0.0
N2029 N 0.47736 0.43603 0.41235 0.0
C2030 C 0.50971 0.45952 0.4196 0.0
C2031 C 0.4851 0.4731 0.40236 0.0
C2032 C 0.49589 0.43912 0.42039 0.0
C2033 C 0.47173 0.45246 0.40344 0.0
C2034 C 0.59308 0.51002 0.4171 0.0
C2035 C 0.62499 0.53154 0.42692 0.0
N2036 N 0.64077 0.51924 0.41979 0.0
C2037 C 0.60963 0.49749 0.40994 0.0
C2038 C 0.60083 0.52707 0.42574 0.0
C2039 C 0.63365 0.50243 0.41141 0.0
C2040 C 0.57566 0.47335 0.38276 0.0
N2041 N 0.55988 0.46908 0.39219 0.0
C2042 C 0.56435 0.42739 0.38937 0.0
C2043 C 0.55393 0.44664 0.3955 0.0
C2044 C 0.58121 0.43129 0.37982 0.0
C2045 C 0.58656 0.4547 0.37643 0.0
H2046 H 0.58056 0.49132 0.38051 0.0
H2047 H 0.54165 0.44356 0.40312 0.0
C2048 C 0.50904 0.50084 0.4431 0.0
N2049 N 0.53117 0.50738 0.43956 0.0
C2050 C 0.50402 0.49595 0.45579 0.0
C2051 C 0.54443 0.50555 0.46103 0.0
C2052 C 0.54877 0.50973 0.44821 0.0
C2053 C 0.52182 0.49838 0.46502 0.0
H2054 H 0.49529 0.4993 0.43603 0.0
H2055 H 0.56618 0.51501 0.44519 0.0
C2056 C 0.54013 0.52076 0.37832 0.0
N2057 N 0.52616 0.51161 0.35373 0.0
C2058 C 0.54936 0.53403 0.36832 0.0
C2059 C 0.52386 0.5028 0.37583 0.0
C2060 C 0.54205 0.52915 0.35595 0.0
C2061 C 0.51701 0.49844 0.36333 0.0
C2062 C 0.52708 0.57018 0.41517 0.0
C2063 C 0.53076 0.58131 0.40351 0.0
C2064 C 0.51783 0.58304 0.42532 0.0
C2065 C 0.52511 0.6052 0.4022 0.0
C2066 C 0.51243 0.60691 0.42363 0.0
N2067 N 0.51614 0.6174 0.41221 0.0
C2068 C 0.47095 0.5389 0.40243 0.0
C2069 C 0.49119 0.5542 0.38457 0.0
C2070 C 0.4502 0.55038 0.39876 0.0
N2071 N 0.49092 0.54117 0.39539 0.0
C2072 C 0.47084 0.56583 0.3805 0.0
C2073 C 0.45008 0.56429 0.38773 0.0
H2074 H 0.47135 0.52869 0.4111 0.0
H2075 H 0.5074 0.5564 0.37933 0.0
C2076 C 0.59894 0.55482 0.39412 0.0
N2077 N 0.58461 0.55865 0.40423 0.0
C2078 C 0.6163 0.57125 0.39093 0.0
C2079 C 0.60419 0.59504 0.40881 0.0
C2080 C 0.58718 0.57802 0.41172 0.0
C2081 C 0.61878 0.59197 0.39815 0.0
H2082 H 0.5966 0.53911 0.38842 0.0
H2083 H 0.5757 0.58051 0.4198 0.0
O2084 O 0.51739 0.49683 0.40967 0.0
O2085 O 0.56945 0.50566 0.41562 0.0
O2086 O 0.54708 0.52549 0.39047 0.0
O2087 O 0.53237 0.54678 0.4167 0.0
H2088 H 0.52452 0.46194 0.42595 0.0
H2089 H 0.48045 0.48628 0.39537 0.0
H2090 H 0.4999 0.42574 0.42738 0.0
H2091 H 0.45683 0.44953 0.39722 0.0
H2092 H 0.63119 0.5449 0.43345 0.0
H2093 H 0.60404 0.48401 0.40334 0.0
H2094 H 0.5883 0.53726 0.4312 0.0
H2095 H 0.64662 0.4929 0.4059 0.0
H2096 H 0.55955 0.40966 0.39224 0.0
H2097 H 0.5998 0.45865 0.36934 0.0
H2098 H 0.48642 0.49012 0.45828 0.0
H2099 H 0.55865 0.50825 0.46773 0.0
H2100 H 0.56198 0.54801 0.37011 0.0
H2101 H 0.51673 0.49225 0.38344 0.0
H2102 H 0.54901 0.53932 0.34811 0.0
H2103 H 0.50444 0.48458 0.36126 0.0
H2104 H 0.53797 0.57165 0.39556 0.0
H2105 H 0.51488 0.57465 0.4344 0.0
H2106 H 0.52787 0.61404 0.39324 0.0
H2107 H 0.50527 0.6171 0.43141 0.0
H2108 H 0.43453 0.54867 0.40457 0.0
H2109 H 0.47165 0.57673 0.37208 0.0
H2110 H 0.62745 0.56787 0.3828 0.0
H2111 H 0.60531 0.6108 0.41459 0.0
Li2112 Li 0.24084 0.29564 0.15122 0.0
Li2113 Li 0.28162 0.30935 0.15352 0.0
Li2114 Li 0.27271 0.26867 0.14731 0.0
Li2115 Li 0.26518 0.28245 0.16889 0.0
C2116 C 0.27131 0.293 0.12593 0.0
N2117 N 0.28471 0.28076 0.10164 0.0
C2118 C 0.29206 0.30221 0.12073 0.0
C2119 C 0.25728 0.27772 0.11875 0.0
C2120 C 0.29854 0.29578 0.10843 0.0
C2121 C 0.2644 0.27169 0.1065 0.0
C2122 C 0.25711 0.3381 0.16787 0.0
C2123 C 0.2777 0.36973 0.17848 0.0
N2124 N 0.26343 0.38568 0.17264 0.0
C2125 C 0.24262 0.3548 0.16198 0.0
C2126 C 0.27476 0.3456 0.17621 0.0
C2127 C 0.24609 0.37877 0.16452 0.0
C2128 C 0.1951 0.31165 0.15639 0.0
N2129 N 0.21015 0.30619 0.1468 0.0
C2130 C 0.18414 0.32346 0.1316 0.0
C2131 C 0.20489 0.31133 0.13455 0.0
C2132 C 0.16888 0.33053 0.14139 0.0
C2133 C 0.17419 0.3238 0.15388 0.0
H2134 H 0.20001 0.30778 0.16608 0.0
H2135 H 0.21743 0.30725 0.12715 0.0
C2136 C 0.32571 0.33293 0.15323 0.0
N2137 N 0.30246 0.33496 0.15027 0.0
C2138 C 0.34165 0.35049 0.1496 0.0
C2139 C 0.30928 0.37219 0.14026 0.0
C2140 C 0.29403 0.35409 0.14394 0.0
C2141 C 0.33356 0.37035 0.14286 0.0
H2142 H 0.33201 0.31727 0.15801 0.0
H2143 H 0.27553 0.35495 0.14144 0.0
C2144 C 0.22166 0.25592 0.15826 0.0
N2145 N 0.17449 0.24357 0.15897 0.0
C2146 C 0.20909 0.25732 0.16963 0.0
C2147 C 0.21032 0.2481 0.14727 0.0
C2148 C 0.18523 0.25102 0.16979 0.0
C2149 C 0.18644 0.24199 0.14782 0.0
C2150 C 0.30966 0.26959 0.16888 0.0
C2151 C 0.31377 0.24527 0.16837 0.0
C2152 C 0.319 0.28286 0.17886 0.0
C2153 C 0.32703 0.23458 0.17795 0.0
C2154 C 0.33212 0.27151 0.18826 0.0
N2155 N 0.33583 0.2478 0.18762 0.0
C2156 C 0.30593 0.24633 0.13197 0.0
C2157 C 0.27344 0.22182 0.13731 0.0
C2158 C 0.31676 0.22785 0.12548 0.0
N2159 N 0.28465 0.24305 0.13765 0.0
C2160 C 0.28389 0.20266 0.13111 0.0
C2161 C 0.30587 0.2056 0.12515 0.0
H2162 H 0.31476 0.2632 0.13276 0.0
H2163 H 0.25674 0.21962 0.14214 0.0
C2164 C 0.26007 0.28936 0.19533 0.0
N2165 N 0.26419 0.27304 0.18616 0.0
C2166 C 0.2579 0.2824 0.20797 0.0
C2167 C 0.26431 0.24195 0.20148 0.0
C2168 C 0.26624 0.2497 0.18896 0.0
C2169 C 0.25991 0.25838 0.21118 0.0
H2170 H 0.25794 0.30772 0.19281 0.0
H2171 H 0.26907 0.23706 0.18143 0.0
O2172 O 0.26482 0.29881 0.13802 0.0
O2173 O 0.25421 0.31456 0.16539 0.0
O2174 O 0.2449 0.26241 0.15785 0.0
O2175 O 0.29636 0.28033 0.15973 0.0
H2176 H 0.30317 0.31401 0.12615 0.0
H2177 H 0.2412 0.2704 0.12265 0.0
H2178 H 0.31461 0.30268 0.1043 0.0
H2179 H 0.25379 0.25976 0.10086 0.0
H2180 H 0.29137 0.37577 0.18487 0.0
H2181 H 0.22901 0.34939 0.15541 0.0
H2182 H 0.28622 0.33293 0.18079 0.0
H2183 H 0.23507 0.3919 0.15999 0.0
H2184 H 0.1809 0.3286 0.12187 0.0
H2185 H 0.16284 0.3288 0.16169 0.0
H2186 H 0.36024 0.348 0.1516 0.0
H2187 H 0.30215 0.38724 0.13521 0.0
H2188 H 0.21757 0.26344 0.17821 0.0
H2189 H 0.21983 0.2469 0.13841 0.0
H2190 H 0.17524 0.25212 0.1785 0.0
H2191 H 0.1774 0.23601 0.13938 0.0
H2192 H 0.30661 0.2347 0.16075 0.0
H2193 H 0.31596 0.3017 0.17939 0.0
H2194 H 0.33026 0.21575 0.17772 0.0
H2195 H 0.33934 0.28154 0.19609 0.0
H2196 H 0.33394 0.23065 0.12122 0.0
H2197 H 0.27505 0.18569 0.13109 0.0
H2198 H 0.25404 0.29563 0.21508 0.0
H2199 H 0.26618 0.2233 0.20352 0.0
Li2200 Li 0.48352 0.5233 0.90081 0.0
Li2201 Li 0.46604 0.51248 0.92137 0.0
Li2202 Li 0.45531 0.49277 0.90202 0.0
Li2203 Li 0.44284 0.53433 0.90479 0.0
C2204 C 0.49382 0.47071 0.90723 0.0
N2205 N 0.50594 0.42495 0.90072 0.0
C2206 C 0.48552 0.45165 0.91438 0.0
C2207 C 0.50845 0.46643 0.8968 0.0
C2208 C 0.49177 0.42867 0.91092 0.0
C2209 C 0.51436 0.4432 0.89366 0.0
C2210 C 0.48983 0.55913 0.91701 0.0
C2211 C 0.50857 0.59741 0.91696 0.0
N2212 N 0.52873 0.58745 0.92148 0.0
C2213 C 0.51067 0.54933 0.92179 0.0
C2214 C 0.4887 0.58341 0.91469 0.0
C2215 C 0.53016 0.56392 0.92395 0.0
C2216 C 0.50854 0.55627 0.88603 0.0
N2217 N 0.51117 0.53629 0.89305 0.0
C2218 C 0.55317 0.53869 0.89117 0.0
C2219 C 0.53293 0.5274 0.8957 0.0
C2220 C 0.55093 0.55932 0.88388 0.0
C2221 C 0.52825 0.56796 0.8812 0.0
H2222 H 0.49112 0.56357 0.88454 0.0
H2223 H 0.53462 0.51211 0.90176 0.0
C2224 C 0.46456 0.48791 0.94462 0.0
N2225 N 0.46998 0.50908 0.93929 0.0
C2226 C 0.46761 0.48431 0.9576 0.0
C2227 C 0.4805 0.52481 0.95955 0.0
C2228 C 0.4773 0.52757 0.94651 0.0
C2229 C 0.47594 0.50284 0.96525 0.0
H2230 H 0.45773 0.47381 0.9388 0.0
H2231 H 0.48048 0.54457 0.94222 0.0
C2232 C 0.46225 0.52442 0.87759 0.0
N2233 N 0.47581 0.53629 0.85324 0.0
C2234 C 0.45064 0.54254 0.87109 0.0
C2235 C 0.48056 0.51217 0.87162 0.0
C2236 C 0.45779 0.54831 0.8588 0.0
C2237 C 0.48723 0.5185 0.85934 0.0
C2238 C 0.41743 0.51283 0.92419 0.0
C2239 C 0.39768 0.49884 0.92684 0.0
C2240 C 0.42071 0.534 0.9308 0.0
C2241 C 0.38161 0.50621 0.93607 0.0
C2242 C 0.40426 0.54074 0.93997 0.0
N2243 N 0.38521 0.52682 0.9424 0.0
C2244 C 0.42802 0.4515 0.9021 0.0
C2245 C 0.45216 0.45535 0.8839 0.0
C2246 C 0.41738 0.43132 0.89711 0.0
N2247 N 0.44457 0.46339 0.89532 0.0
C2248 C 0.44224 0.43504 0.8786 0.0
C2249 C 0.42405 0.42311 0.88505 0.0
H2250 H 0.42257 0.45812 0.91124 0.0
H2251 H 0.46553 0.46495 0.87875 0.0
C2252 C 0.42766 0.57901 0.89738 0.0
N2253 N 0.4195 0.55774 0.90143 0.0
C2254 C 0.41198 0.59733 0.89474 0.0
C2255 C 0.37956 0.57126 0.89993 0.0
C2256 C 0.39594 0.55345 0.90262 0.0
C2257 C 0.38768 0.5935 0.89605 0.0
H2258 H 0.44636 0.58154 0.89595 0.0
H2259 H 0.38984 0.53622 0.90557 0.0
O2260 O 0.48745 0.49335 0.91033 0.0
O2261 O 0.47089 0.54488 0.91436 0.0
O2262 O 0.45546 0.51861 0.88965 0.0
O2263 O 0.43342 0.50563 0.91524 0.0
H2264 H 0.47401 0.45448 0.92237 0.0
H2265 H 0.51512 0.48081 0.89112 0.0
H2266 H 0.48527 0.41379 0.91632 0.0
H2267 H 0.52559 0.43968 0.88559 0.0
H2268 H 0.50795 0.6162 0.91514 0.0
H2269 H 0.51189 0.53056 0.92363 0.0
H2270 H 0.47268 0.59146 0.91122 0.0
H2271 H 0.54646 0.55652 0.92752 0.0
H2272 H 0.57038 0.5316 0.89351 0.0
H2273 H 0.5258 0.58412 0.87587 0.0
H2274 H 0.46381 0.46707 0.96155 0.0
H2275 H 0.48627 0.53982 0.96511 0.0
H2276 H 0.43616 0.55195 0.87544 0.0
H2277 H 0.48981 0.49821 0.87649 0.0
H2278 H 0.44898 0.56232 0.85368 0.0
H2279 H 0.50153 0.50929 0.85467 0.0
H2280 H 0.39471 0.48247 0.92181 0.0
H2281 H 0.43576 0.54517 0.92892 0.0
H2282 H 0.36627 0.49553 0.93821 0.0
H2283 H 0.40663 0.55705 0.94516 0.0
H2284 H 0.4033 0.42298 0.90241 0.0
H2285 H 0.44833 0.42913 0.86941 0.0
H2286 H 0.41871 0.61423 0.89153 0.0
H2287 H 0.36084 0.5678 0.90092 0.0
Li2288 Li 0.22715 0.73337 0.6487 0.0
Li2289 Li 0.23668 0.71664 0.66949 0.0
Li2290 Li 0.25696 0.70342 0.65052 0.0
Li2291 Li 0.21554 0.69296 0.65425 0.0
C2292 C 0.28047 0.74061 0.65756 0.0
N2293 N 0.32854 0.74844 0.65619 0.0
C2294 C 0.29486 0.73572 0.66799 0.0
C2295 C 0.29048 0.7496 0.64645 0.0
C2296 C 0.31914 0.73979 0.66711 0.0
C2297 C 0.31484 0.75339 0.64594 0.0
C2298 C 0.19401 0.73344 0.67189 0.0
C2299 C 0.17439 0.73155 0.69215 0.0
N2300 N 0.17344 0.75555 0.69245 0.0
C2301 C 0.19277 0.75808 0.67237 0.0
C2302 C 0.18466 0.72004 0.68182 0.0
C2303 C 0.18231 0.76892 0.68286 0.0
C2304 C 0.19302 0.75882 0.63591 0.0
N2305 N 0.21546 0.76066 0.64033 0.0
C2306 C 0.21713 0.80128 0.63421 0.0
C2307 C 0.22771 0.78126 0.63954 0.0
C2308 C 0.19379 0.79995 0.62966 0.0
C2309 C 0.18196 0.77815 0.63035 0.0
H2310 H 0.18357 0.74232 0.63691 0.0
H2311 H 0.2454 0.78232 0.64336 0.0
C2312 C 0.24158 0.7074 0.69589 0.0
N2313 N 0.2406 0.72449 0.68687 0.0
C2314 C 0.24469 0.71348 0.70861 0.0
C2315 C 0.24591 0.75461 0.70247 0.0
C2316 C 0.24281 0.74772 0.68988 0.0
C2317 C 0.24693 0.73738 0.71204 0.0
H2318 H 0.24017 0.68905 0.69321 0.0
H2319 H 0.24215 0.76091 0.68247 0.0
C2320 C 0.22298 0.71121 0.62676 0.0
N2321 N 0.20663 0.72712 0.60362 0.0
C2322 C 0.20117 0.70348 0.62214 0.0
C2323 C 0.23654 0.72691 0.61958 0.0
C2324 C 0.19321 0.71175 0.61042 0.0
C2325 C 0.22794 0.7348 0.60791 0.0
C2326 C 0.2392 0.66053 0.66637 0.0
C2327 C 0.25125 0.64348 0.65931 0.0
C2328 C 0.22197 0.65349 0.67508 0.0
C2329 C 0.24584 0.61963 0.66107 0.0
C2330 C 0.21704 0.62947 0.67655 0.0
N2331 N 0.22898 0.61318 0.66958 0.0
C2332 C 0.30154 0.68244 0.65307 0.0
C2333 C 0.29125 0.6915 0.63186 0.0
C2334 C 0.32231 0.67147 0.64908 0.0
N2335 N 0.28636 0.69179 0.64446 0.0
C2336 C 0.3119 0.68085 0.62744 0.0
C2337 C 0.32751 0.67014 0.63607 0.0
H2338 H 0.29705 0.68275 0.66304 0.0
H2339 H 0.27883 0.69896 0.62521 0.0
C2340 C 0.16885 0.67667 0.65485 0.0
N2341 N 0.19108 0.67044 0.65135 0.0
C2342 C 0.14962 0.66277 0.65132 0.0
C2343 C 0.17653 0.63571 0.64106 0.0
C2344 C 0.19528 0.65033 0.64466 0.0
C2345 C 0.15332 0.64225 0.64413 0.0
H2346 H 0.16593 0.693 0.65991 0.0
H2347 H 0.21303 0.64619 0.64163 0.0
O2348 O 0.25676 0.7362 0.65813 0.0
O2349 O 0.20471 0.72249 0.66186 0.0
O2350 O 0.23093 0.7036 0.63831 0.0
O2351 O 0.24408 0.684 0.66471 0.0
H2352 H 0.2874 0.72861 0.67663 0.0
H2353 H 0.27957 0.75341 0.63829 0.0
H2354 H 0.33052 0.73599 0.67508 0.0
H2355 H 0.32285 0.76022 0.63739 0.0
H2356 H 0.16723 0.7214 0.69994 0.0
H2357 H 0.20005 0.76875 0.66482 0.0
H2358 H 0.18556 0.70095 0.68161 0.0
H2359 H 0.18133 0.78798 0.68339 0.0
H2360 H 0.22684 0.81775 0.63403 0.0
H2361 H 0.16417 0.77603 0.62676 0.0
H2362 H 0.24575 0.6996 0.71565 0.0
H2363 H 0.24731 0.77323 0.70469 0.0
H2364 H 0.1904 0.69139 0.62756 0.0
H2365 H 0.25335 0.73324 0.62306 0.0
H2366 H 0.17633 0.70599 0.60675 0.0
H2367 H 0.23816 0.74709 0.6023 0.0
H2368 H 0.26444 0.64858 0.65242 0.0
H2369 H 0.2123 0.66645 0.68053 0.0
H2370 H 0.25498 0.60625 0.65564 0.0
H2371 H 0.20367 0.62379 0.6832 0.0
H2372 H 0.33358 0.66319 0.65607 0.0
H2373 H 0.31534 0.68055 0.61735 0.0
H2374 H 0.13195 0.66836 0.65387 0.0
H2375 H 0.18001 0.62019 0.63535 0.0
Li2376 Li 0.05897 0.46272 0.40477 0.0
Li2377 Li 0.04527 0.50272 0.39984 0.0
Li2378 Li 0.03525 0.48419 0.41992 0.0
Li2379 Li 0.01741 0.47084 0.39996 0.0
C2380 C 0.09047 0.49 0.41574 0.0
N2381 N 0.13838 0.48343 0.41935 0.0
C2382 C 0.10678 0.50297 0.40862 0.0
C2383 C 0.09857 0.47367 0.42468 0.0
C2384 C 0.13092 0.49942 0.4106 0.0
C2385 C 0.12285 0.47059 0.42636 0.0
C2386 C 0.038 0.46498 0.3777 0.0
C2387 C 0.0127 0.46546 0.3593 0.0
N2388 N 0.02154 0.44414 0.35572 0.0
C2389 C 0.04691 0.44314 0.3738 0.0
C2390 C 0.02085 0.47632 0.37036 0.0
C2391 C 0.03834 0.43288 0.36267 0.0
C2392 C 0.07983 0.41772 0.40658 0.0
N2393 N 0.08331 0.44009 0.40233 0.0
C2394 C 0.12045 0.42925 0.39331 0.0
C2395 C 0.10302 0.44607 0.39572 0.0
C2396 C 0.11722 0.4058 0.39737 0.0
C2397 C 0.09657 0.40021 0.40416 0.0
H2398 H 0.06371 0.41331 0.41153 0.0
H2399 H 0.10503 0.46384 0.39214 0.0
C2400 C 0.06508 0.54822 0.39974 0.0
N2401 N 0.05527 0.53144 0.39219 0.0
C2402 C 0.07736 0.56716 0.3944 0.0
C2403 C 0.06745 0.55221 0.37362 0.0
C2404 C 0.05563 0.53341 0.37936 0.0
C2405 C 0.07941 0.56887 0.38115 0.0
H2406 H 0.0648 0.54599 0.40992 0.0
H2407 H 0.04785 0.51974 0.37358 0.0
C2408 C 0.02159 0.44042 0.42406 0.0
N2409 N 0.00238 0.42012 0.44553 0.0
C2410 C 0.99711 0.43804 0.42523 0.0
C2411 C 0.0363 0.43234 0.43377 0.0
C2412 C 0.98775 0.42773 0.43616 0.0
C2413 C 0.02625 0.42219 0.44457 0.0
C2414 C 0.00786 0.5249 0.40708 0.0
C2415 C 0.01284 0.54077 0.41686 0.0
C2416 C 0.99778 0.53309 0.39583 0.0
C2417 C 0.00777 0.56471 0.41518 0.0
C2418 C 0.99299 0.55717 0.3945 0.0
N2419 N 0.99805 0.57235 0.40412 0.0
C2420 C 0.04808 0.49231 0.44548 0.0
C2421 C 0.00693 0.48885 0.44181 0.0
C2422 C 0.04431 0.49444 0.45849 0.0
N2423 N 0.02954 0.48915 0.43749 0.0
C2424 C 0.00233 0.49097 0.45476 0.0
C2425 C 0.0212 0.49353 0.4633 0.0
H2426 H 0.06581 0.49308 0.44179 0.0
H2427 H 0.99251 0.48655 0.4352 0.0
C2428 C 0.99394 0.43295 0.38946 0.0
N2429 N 0.99055 0.45591 0.39267 0.0
C2430 C 0.97544 0.41958 0.38458 0.0
C2431 C 0.9499 0.45357 0.38664 0.0
C2432 C 0.96914 0.46647 0.39133 0.0
C2433 C 0.95288 0.42966 0.38331 0.0
H2434 H 0.01109 0.42494 0.39082 0.0
H2435 H 0.96687 0.4847 0.39415 0.0
O2436 O 0.06673 0.49309 0.41389 0.0
O2437 O 0.04588 0.47514 0.38867 0.0
O2438 O 0.03109 0.45097 0.41357 0.0
O2439 O 0.01321 0.50151 0.40843 0.0
H2440 H 0.10095 0.5154 0.40152 0.0
H2441 H 0.08626 0.4632 0.43013 0.0
H2442 H 0.14372 0.50929 0.40513 0.0
H2443 H 0.12933 0.45793 0.43319 0.0
H2444 H 0.9993 0.47394 0.35359 0.0
H2445 H 0.06017 0.43409 0.37936 0.0
H2446 H 0.01363 0.49314 0.37328 0.0
H2447 H 0.04501 0.41593 0.35958 0.0
H2448 H 0.13613 0.43458 0.38819 0.0
H2449 H 0.0929 0.38233 0.40722 0.0
H2450 H 0.08648 0.57932 0.40063 0.0
H2451 H 0.06813 0.55306 0.36337 0.0
H2452 H 0.98543 0.44434 0.41786 0.0
H2453 H 0.05527 0.43406 0.43303 0.0
H2454 H 0.96884 0.42589 0.43722 0.0
H2455 H 0.03742 0.416 0.45219 0.0
H2456 H 0.02075 0.53469 0.42561 0.0
H2457 H 0.99387 0.52102 0.38816 0.0
H2458 H 0.01162 0.57723 0.42264 0.0
H2459 H 0.9853 0.56381 0.38582 0.0
H2460 H 0.05931 0.49687 0.46472 0.0
H2461 H 0.98425 0.49007 0.45808 0.0
H2462 H 0.97882 0.40143 0.3819 0.0
H2463 H 0.93281 0.46204 0.38599 0.0
Li2464 Li 0.26511 0.71889 0.33157 0.0
Li2465 Li 0.27228 0.73729 0.35146 0.0
Li2466 Li 0.28771 0.69595 0.347 0.0
Li2467 Li 0.24475 0.70504 0.35025 0.0
C2468 C 0.31043 0.73521 0.32976 0.0
N2469 N 0.33906 0.75293 0.31083 0.0
C2470 C 0.30428 0.75608 0.32351 0.0
C2471 C 0.33115 0.72335 0.32641 0.0
C2472 C 0.31897 0.76473 0.31394 0.0
C2473 C 0.3454 0.73261 0.31681 0.0
C2474 C 0.23337 0.75822 0.34473 0.0
C2475 C 0.21672 0.78599 0.35959 0.0
N2476 N 0.21716 0.803 0.35049 0.0
C2477 C 0.23363 0.77597 0.33552 0.0
C2478 C 0.22479 0.76325 0.35685 0.0
C2479 C 0.22535 0.79849 0.33862 0.0
C2480 C 0.24021 0.73214 0.30967 0.0
N2481 N 0.26128 0.7234 0.31367 0.0
C2482 C 0.275 0.72062 0.29229 0.0
C2483 C 0.2784 0.71719 0.30526 0.0
C2484 C 0.25362 0.7302 0.28791 0.0
C2485 C 0.23602 0.7358 0.29679 0.0
H2486 H 0.22657 0.73616 0.3165 0.0
H2487 H 0.29464 0.70935 0.3086 0.0
C2488 C 0.28855 0.76427 0.37225 0.0
N2489 N 0.28168 0.76566 0.35992 0.0
C2490 C 0.29842 0.7839 0.37829 0.0
C2491 C 0.29336 0.8062 0.35896 0.0
C2492 C 0.28376 0.78613 0.35328 0.0
C2493 C 0.30125 0.80513 0.37156 0.0
H2494 H 0.28711 0.74769 0.37727 0.0
H2495 H 0.2787 0.78677 0.34345 0.0
C2496 C 0.25177 0.67557 0.32623 0.0
N2497 N 0.23456 0.65749 0.30374 0.0
C2498 C 0.22769 0.6771 0.32343 0.0
C2499 C 0.2671 0.66482 0.3176 0.0
C2500 C 0.21933 0.66785 0.31201 0.0
C2501 C 0.25804 0.65579 0.30627 0.0
C2502 C 0.26295 0.69787 0.37302 0.0
C2503 C 0.26794 0.67404 0.37521 0.0
C2504 C 0.24881 0.71029 0.38158 0.0
C2505 C 0.25844 0.66294 0.38588 0.0
C2506 C 0.23963 0.69856 0.39214 0.0
N2507 N 0.24458 0.67532 0.39404 0.0
C2508 C 0.32975 0.68143 0.35838 0.0
C2509 C 0.31177 0.65198 0.34564 0.0
C2510 C 0.34765 0.66581 0.3619 0.0
N2511 N 0.31231 0.67426 0.35042 0.0
C2512 C 0.32947 0.63583 0.3488 0.0
C2513 C 0.34761 0.64266 0.35711 0.0
H2514 H 0.32954 0.69923 0.36211 0.0
H2515 H 0.29737 0.64661 0.33956 0.0
C2516 C 0.1964 0.70227 0.35875 0.0
N2517 N 0.21684 0.69039 0.35648 0.0
C2518 C 0.17621 0.69004 0.36269 0.0
C2519 C 0.19857 0.6537 0.36179 0.0
C2520 C 0.21822 0.66659 0.3579 0.0
C2521 C 0.17711 0.66537 0.36413 0.0
H2522 H 0.1956 0.72113 0.35728 0.0
H2523 H 0.23462 0.65758 0.35585 0.0
O2524 O 0.29635 0.72639 0.33917 0.0
O2525 O 0.2415 0.73606 0.34192 0.0
O2526 O 0.26037 0.68516 0.33719 0.0
O2527 O 0.27171 0.70891 0.36249 0.0
H2528 H 0.28804 0.76515 0.32578 0.0
H2529 H 0.33614 0.70717 0.33117 0.0
H2530 H 0.31433 0.78076 0.30895 0.0
H2531 H 0.36149 0.72363 0.31411 0.0
H2532 H 0.21013 0.79013 0.36895 0.0
H2533 H 0.2405 0.77257 0.32614 0.0
H2534 H 0.22458 0.74979 0.36411 0.0
H2535 H 0.22557 0.81242 0.3316 0.0
H2536 H 0.28882 0.71553 0.28575 0.0
H2537 H 0.21928 0.74324 0.29385 0.0
H2538 H 0.30419 0.78236 0.38804 0.0
H2539 H 0.29557 0.82205 0.35334 0.0
H2540 H 0.21563 0.68563 0.32994 0.0
H2541 H 0.28584 0.66386 0.31951 0.0
H2542 H 0.20076 0.66901 0.3097 0.0
H2543 H 0.26972 0.64756 0.29947 0.0
H2544 H 0.27878 0.66412 0.36866 0.0
H2545 H 0.24496 0.72879 0.3801 0.0
H2546 H 0.26202 0.64447 0.38765 0.0
H2547 H 0.22859 0.70793 0.39882 0.0
H2548 H 0.36143 0.6718 0.36825 0.0
H2549 H 0.32869 0.61805 0.34503 0.0
H2550 H 0.15995 0.69966 0.36426 0.0
H2551 H 0.20017 0.63477 0.36295 0.0
Li2552 Li 0.05752 0.53366 0.09498 0.0
Li2553 Li 0.04517 0.4926 0.09834 0.0
Li2554 Li 0.03283 0.5141 0.0795 0.0
Li2555 Li 0.01662 0.52364 0.10045 0.0
C2556 C 0.08839 0.50889 0.08167 0.0
N2557 N 0.13559 0.51691 0.0766 0.0
C2558 C 0.10576 0.49548 0.08774 0.0
C2559 C 0.09503 0.52635 0.07301 0.0
C2560 C 0.12953 0.4998 0.08504 0.0
C2561 C 0.11898 0.53016 0.07059 0.0
C2562 C 0.03936 0.52626 0.12245 0.0
C2563 C 0.01566 0.52231 0.14132 0.0
N2564 N 0.02521 0.54263 0.14592 0.0
C2565 C 0.04902 0.54704 0.12738 0.0
C2566 C 0.02263 0.51371 0.1295 0.0
C2567 C 0.04161 0.55504 0.13926 0.0
C2568 C 0.07568 0.57969 0.09524 0.0
N2569 N 0.08134 0.55686 0.09776 0.0
C2570 C 0.11931 0.56847 0.10547 0.0
C2571 C 0.10254 0.551 0.10291 0.0
C2572 C 0.11392 0.59234 0.1031 0.0
C2573 C 0.09169 0.59776 0.09789 0.0
H2574 H 0.05845 0.58395 0.09148 0.0
H2575 H 0.10633 0.5328 0.1052 0.0
C2576 C 0.06531 0.44763 0.09563 0.0
N2577 N 0.05536 0.46254 0.10419 0.0
C2578 C 0.07539 0.42641 0.09962 0.0
C2579 C 0.06352 0.43564 0.12106 0.0
C2580 C 0.05391 0.45682 0.11666 0.0
C2581 C 0.07506 0.42039 0.11255 0.0
H2582 H 0.06624 0.4527 0.08576 0.0
H2583 H 0.04586 0.46896 0.12326 0.0
C2584 C 0.01799 0.55795 0.07772 0.0
N2585 N 0.99683 0.58123 0.05771 0.0
C2586 C 0.99341 0.5601 0.07722 0.0
C2587 C 0.03181 0.56779 0.0681 0.0
C2588 C 0.98305 0.57191 0.06701 0.0
C2589 C 0.02078 0.57944 0.05805 0.0
C2590 C 0.00719 0.47098 0.09105 0.0
C2591 C 0.01204 0.45666 0.08059 0.0
C2592 C 0.99734 0.46106 0.10197 0.0
C2593 C 0.00706 0.43252 0.08125 0.0
C2594 C 0.99265 0.43684 0.10226 0.0
N2595 N 0.99758 0.42319 0.09199 0.0
C2596 C 0.04178 0.5082 0.05313 0.0
C2597 C 0.00148 0.51059 0.05905 0.0
C2598 C 0.03553 0.50514 0.04043 0.0
N2599 N 0.02479 0.51095 0.0621 0.0
C2600 C 0.99443 0.50762 0.04649 0.0
C2601 C 0.01156 0.50475 0.03698 0.0
H2602 H 0.06016 0.50798 0.05584 0.0
H2603 H 0.98835 0.51247 0.06643 0.0
C2604 C 0.99161 0.55717 0.11448 0.0
N2605 N 0.98951 0.53574 0.10879 0.0
C2606 C 0.9719 0.56813 0.11976 0.0
C2607 C 0.94802 0.53511 0.11287 0.0
C2608 C 0.96834 0.5245 0.10796 0.0
C2609 C 0.94973 0.55725 0.11879 0.0
H2610 H 0.0085 0.56606 0.1146 0.0
H2611 H 0.96713 0.50773 0.1031 0.0
O2612 O 0.06501 0.50503 0.08424 0.0
O2613 O 0.04624 0.51826 0.11079 0.0
O2614 O 0.02846 0.54602 0.08749 0.0
O2615 O 0.01253 0.49451 0.09071 0.0
H2616 H 0.10101 0.48209 0.09458 0.0
H2617 H 0.08185 0.53702 0.06831 0.0
H2618 H 0.14316 0.48961 0.08969 0.0
H2619 H 0.12436 0.5437 0.06395 0.0
H2620 H 0.00259 0.51288 0.14683 0.0
H2621 H 0.06201 0.55697 0.12208 0.0
H2622 H 0.01481 0.49772 0.12578 0.0
H2623 H 0.04887 0.57114 0.14317 0.0
H2624 H 0.13622 0.56327 0.10935 0.0
H2625 H 0.08632 0.61583 0.0962 0.0
H2626 H 0.08433 0.41546 0.09271 0.0
H2627 H 0.06242 0.43156 0.13106 0.0
H2628 H 0.98242 0.55251 0.08454 0.0
H2629 H 0.05085 0.56635 0.06837 0.0
H2630 H 0.96405 0.5736 0.06646 0.0
H2631 H 0.03125 0.58703 0.0505 0.0
H2632 H 0.01981 0.46405 0.0721 0.0
H2633 H 0.99357 0.47192 0.11016 0.0
H2634 H 0.01083 0.42119 0.07325 0.0
H2635 H 0.98515 0.42888 0.11066 0.0
H2636 H 0.0493 0.50257 0.03345 0.0
H2637 H 0.97577 0.50764 0.04424 0.0
H2638 H 0.97377 0.58542 0.12404 0.0
H2639 H 0.93111 0.52634 0.11188 0.0
Li2640 Li 0.21733 0.31289 0.84697 0.0
Li2641 Li 0.25615 0.29807 0.84936 0.0
Li2642 Li 0.23602 0.28676 0.83077 0.0
Li2643 Li 0.22563 0.26936 0.85234 0.0
C2644 C 0.23762 0.33484 0.82633 0.0
N2645 N 0.22318 0.36513 0.80727 0.0
C2646 C 0.25115 0.35472 0.82326 0.0
C2647 C 0.21684 0.33033 0.81959 0.0
C2648 C 0.24352 0.36983 0.81363 0.0
C2649 C 0.20982 0.34584 0.81002 0.0
C2650 C 0.24328 0.30464 0.87286 0.0
C2651 C 0.26636 0.29425 0.89122 0.0
N2652 N 0.26989 0.31758 0.89365 0.0
C2653 C 0.24695 0.32851 0.87558 0.0
C2654 C 0.25292 0.28733 0.88076 0.0
C2655 C 0.26054 0.33469 0.88612 0.0
C2656 C 0.17756 0.32951 0.85883 0.0
N2657 N 0.19469 0.33666 0.85068 0.0
C2658 C 0.17704 0.37489 0.84902 0.0
C2659 C 0.19501 0.35899 0.84593 0.0
C2660 C 0.15879 0.36784 0.85724 0.0
C2661 C 0.15944 0.34485 0.86228 0.0
H2662 H 0.17796 0.31173 0.86259 0.0
H2663 H 0.20907 0.36454 0.83971 0.0
C2664 C 0.30123 0.29543 0.86297 0.0
N2665 N 0.28624 0.30845 0.85569 0.0
C2666 C 0.3222 0.30543 0.86753 0.0
C2667 C 0.3116 0.34201 0.85721 0.0
C2668 C 0.29101 0.33135 0.85288 0.0
C2669 C 0.32761 0.32905 0.86461 0.0
H2670 H 0.29675 0.27751 0.86549 0.0
H2671 H 0.27843 0.34162 0.84755 0.0
C2672 C 0.18353 0.27644 0.83418 0.0
N2673 N 0.14068 0.26153 0.82447 0.0
C2674 C 0.17952 0.25248 0.83182 0.0
C2675 C 0.16566 0.29281 0.83161 0.0
C2676 C 0.15778 0.24529 0.8269 0.0
C2677 C 0.14415 0.28493 0.8267 0.0
C2678 C 0.27686 0.25718 0.84251 0.0
C2679 C 0.29416 0.26658 0.83453 0.0
C2680 C 0.28268 0.23906 0.85094 0.0
C2681 C 0.31722 0.2579 0.83527 0.0
C2682 C 0.30593 0.23083 0.85137 0.0
N2683 N 0.32257 0.24036 0.8436 0.0
C2684 C 0.2549 0.29232 0.80641 0.0
C2685 C 0.22514 0.26296 0.80756 0.0
C2686 C 0.25735 0.28871 0.7934 0.0
N2687 N 0.23871 0.27981 0.81315 0.0
C2688 C 0.22717 0.25858 0.79458 0.0
C2689 C 0.24329 0.27173 0.78733 0.0
H2690 H 0.26589 0.30522 0.81113 0.0
H2691 H 0.21276 0.25292 0.81315 0.0
C2692 C 0.20082 0.24781 0.87203 0.0
N2693 N 0.2122 0.24329 0.86097 0.0
C2694 C 0.1877 0.23015 0.87799 0.0
C2695 C 0.19851 0.20338 0.86112 0.0
C2696 C 0.21193 0.22144 0.85566 0.0
C2697 C 0.1857 0.20772 0.87233 0.0
H2698 H 0.20137 0.26539 0.87604 0.0
H2699 H 0.2212 0.21836 0.84685 0.0
O2700 O 0.24509 0.31979 0.8357 0.0
O2701 O 0.23056 0.29823 0.86242 0.0
O2702 O 0.2046 0.28381 0.8392 0.0
O2703 O 0.2542 0.26533 0.84192 0.0
H2704 H 0.26743 0.35846 0.82822 0.0
H2705 H 0.20635 0.31492 0.82158 0.0
H2706 H 0.25381 0.38528 0.8112 0.0
H2707 H 0.19378 0.3425 0.80475 0.0
H2708 H 0.27408 0.28107 0.89738 0.0
H2709 H 0.2396 0.34208 0.86952 0.0
H2710 H 0.25031 0.26877 0.87872 0.0
H2711 H 0.2637 0.3531 0.8883 0.0
H2712 H 0.17726 0.39237 0.84486 0.0
H2713 H 0.14616 0.33876 0.8689 0.0
H2714 H 0.33395 0.29486 0.8733 0.0
H2715 H 0.31457 0.36048 0.85508 0.0
H2716 H 0.19318 0.2396 0.83358 0.0
H2717 H 0.16835 0.31144 0.83334 0.0
H2718 H 0.15451 0.2268 0.825 0.0
H2719 H 0.13021 0.29743 0.82466 0.0
H2720 H 0.28987 0.28057 0.82794 0.0
H2721 H 0.2694 0.23156 0.85713 0.0
H2722 H 0.33085 0.26511 0.82922 0.0
H2723 H 0.31075 0.21689 0.85789 0.0
H2724 H 0.27027 0.29891 0.78818 0.0
H2725 H 0.21601 0.24533 0.79023 0.0
H2726 H 0.1788 0.23428 0.88679 0.0
H2727 H 0.19742 0.18659 0.85626 0.0
Li2728 Li 0.45455 0.50352 0.599 0.0
Li2729 Li 0.44153 0.46198 0.59806 0.0
Li2730 Li 0.48298 0.47311 0.60227 0.0
Li2731 Li 0.46584 0.47908 0.58081 0.0
C2732 C 0.46118 0.47347 0.62463 0.0
N2733 N 0.47609 0.45975 0.64845 0.0
C2734 C 0.45326 0.4522 0.62985 0.0
C2735 C 0.47645 0.4879 0.63159 0.0
C2736 C 0.46105 0.44555 0.64189 0.0
C2737 C 0.48386 0.4806 0.64359 0.0
C2738 C 0.41304 0.48417 0.58043 0.0
C2739 C 0.38937 0.46264 0.56536 0.0
N2740 N 0.37014 0.47543 0.56891 0.0
C2741 C 0.3931 0.4972 0.58388 0.0
C2742 C 0.41124 0.46683 0.57106 0.0
C2743 C 0.37154 0.49247 0.57796 0.0
C2744 C 0.4348 0.54726 0.5933 0.0
N2745 N 0.44274 0.53386 0.60309 0.0
C2746 C 0.42617 0.56065 0.61813 0.0
C2747 C 0.43918 0.54034 0.61534 0.0
C2748 C 0.41664 0.57419 0.6082 0.0
C2749 C 0.42177 0.56769 0.59565 0.0
H2750 H 0.43758 0.5414 0.58366 0.0
H2751 H 0.4453 0.52906 0.62292 0.0
C2752 C 0.42118 0.41702 0.60184 0.0
N2753 N 0.41679 0.44061 0.60204 0.0
C2754 C 0.40369 0.40102 0.60546 0.0
C2755 C 0.37751 0.43389 0.6095 0.0
C2756 C 0.39554 0.44926 0.6058 0.0
C2757 C 0.38153 0.4094 0.60943 0.0
H2758 H 0.43848 0.41065 0.59922 0.0
H2759 H 0.39274 0.46814 0.60617 0.0
C2760 C 0.49254 0.52399 0.59117 0.0
N2761 N 0.50318 0.57159 0.59201 0.0
C2762 C 0.49018 0.53789 0.5803 0.0
C2763 C 0.50054 0.53423 0.60242 0.0
C2764 C 0.4956 0.56194 0.58092 0.0
C2765 C 0.50576 0.55834 0.60267 0.0
C2766 C 0.47864 0.43066 0.58336 0.0
C2767 C 0.50272 0.42517 0.58354 0.0
C2768 C 0.46327 0.41732 0.57586 0.0
C2769 C 0.51102 0.40645 0.57616 0.0
C2770 C 0.47228 0.39876 0.5686 0.0
N2771 N 0.49576 0.39376 0.5689 0.0
C2772 C 0.50955 0.44158 0.61698 0.0
C2773 C 0.53139 0.47436 0.60933 0.0
C2774 C 0.5299 0.43167 0.62218 0.0
N2775 N 0.51066 0.46252 0.61071 0.0
C2776 C 0.55228 0.46491 0.61424 0.0
C2777 C 0.55168 0.44317 0.62066 0.0
H2778 H 0.49299 0.43214 0.61753 0.0
H2779 H 0.53185 0.49071 0.60405 0.0
C2780 C 0.45875 0.49684 0.55648 0.0
N2781 N 0.47081 0.47994 0.56293 0.0
C2782 C 0.46198 0.49962 0.54345 0.0
C2783 C 0.48946 0.46702 0.54383 0.0
C2784 C 0.48609 0.46524 0.5569 0.0
C2785 C 0.47754 0.48458 0.53689 0.0
H2786 H 0.44695 0.50854 0.56153 0.0
H2787 H 0.49594 0.45229 0.56218 0.0
O2788 O 0.45396 0.48017 0.61279 0.0
O2789 O 0.43422 0.48845 0.5862 0.0
O2790 O 0.48679 0.50053 0.59083 0.0
O2791 O 0.47017 0.44885 0.59057 0.0
H2792 H 0.44137 0.44086 0.62464 0.0
H2793 H 0.4826 0.50448 0.62774 0.0
H2794 H 0.45517 0.42907 0.64602 0.0
H2795 H 0.4958 0.49152 0.64905 0.0
H2796 H 0.3877 0.44925 0.55811 0.0
H2797 H 0.39425 0.5107 0.59112 0.0
H2798 H 0.42656 0.45677 0.56821 0.0
H2799 H 0.35593 0.50234 0.58057 0.0
H2800 H 0.42238 0.56484 0.62793 0.0
H2801 H 0.41496 0.57774 0.58772 0.0
H2802 H 0.40776 0.38233 0.60554 0.0
H2803 H 0.36069 0.44111 0.61246 0.0
H2804 H 0.4841 0.53024 0.5715 0.0
H2805 H 0.50258 0.52369 0.6109 0.0
H2806 H 0.49373 0.57294 0.5726 0.0
H2807 H 0.51184 0.56653 0.61134 0.0
H2808 H 0.51492 0.43537 0.58921 0.0
H2809 H 0.44458 0.42121 0.57566 0.0
H2810 H 0.52961 0.40205 0.57618 0.0
H2811 H 0.46058 0.38832 0.56274 0.0
H2812 H 0.52878 0.41465 0.62684 0.0
H2813 H 0.56877 0.47426 0.61286 0.0
H2814 H 0.45275 0.51378 0.53867 0.0
H2815 H 0.50135 0.45471 0.53926 0.0
H2816 H 0.14293 0.40204 0.37558 0.0
H2817 H 0.13042 0.36695 0.41132 0.0
H2818 H 0.15541 0.33417 0.40466 0.0
H2819 H 0.17862 0.31435 0.38815 0.0
H2820 H 0.1935 0.35099 0.35314 0.0
H2821 H 0.17001 0.38451 0.36023 0.0
C2822 C 0.14605 0.38758 0.38209 0.0
C2823 C 0.13446 0.38699 0.3939 0.0
C2824 C 0.16078 0.36895 0.37832 0.0
C2825 C 0.13856 0.36772 0.40204 0.0
C2826 C 0.15302 0.349 0.39829 0.0
C2827 C 0.17723 0.32985 0.38217 0.0
C2828 C 0.18757 0.32989 0.37003 0.0
C2829 C 0.1639 0.34925 0.38635 0.0
C2830 C 0.18527 0.35014 0.36239 0.0
C2831 C 0.17193 0.36941 0.36646 0.0
H2832 H 0.94399 0.91858 0.63879 0.0
H2833 H 0.90401 0.94513 0.60706 0.0
H2834 H 0.86962 0.92229 0.61385 0.0
H2835 H 0.85219 0.89224 0.62773 0.0
H2836 H 0.89193 0.86624 0.65975 0.0
H2837 H 0.92533 0.89103 0.65374 0.0
C2838 C 0.92768 0.91945 0.63342 0.0
C2839 C 0.92656 0.93338 0.62241 0.0
C2840 C 0.90808 0.90612 0.63731 0.0
C2841 C 0.90524 0.93466 0.61563 0.0
C2842 C 0.88565 0.92146 0.61945 0.0
C2843 C 0.86794 0.8923 0.63356 0.0
C2844 C 0.86955 0.87714 0.64411 0.0
C2845 C 0.88702 0.90679 0.63014 0.0
C2846 C 0.89033 0.8773 0.65142 0.0
C2847 C 0.90941 0.89161 0.64805 0.0
H2848 H 0.36009 0.5981 0.87531 0.0
H2849 H 0.37895 0.63212 0.91037 0.0
H2850 H 0.35434 0.66625 0.90489 0.0
H2851 H 0.32953 0.68734 0.88948 0.0
H2852 H 0.31163 0.65389 0.85405 0.0
H2853 H 0.33369 0.61859 0.86025 0.0
C2854 C 0.35846 0.61292 0.88177 0.0
C2855 C 0.37108 0.6128 0.89321 0.0
C2856 C 0.34465 0.63258 0.87843 0.0
C2857 C 0.36925 0.63203 0.90152 0.0
C2858 C 0.35528 0.65149 0.89837 0.0
C2859 C 0.3304 0.67225 0.88316 0.0
C2860 C 0.31901 0.67318 0.87134 0.0
C2861 C 0.34325 0.65213 0.88675 0.0
C2862 C 0.32004 0.65346 0.86327 0.0
C2863 C 0.33276 0.63334 0.86677 0.0
H2864 H 0.56115 0.07381 0.14094 0.0
H2865 H 0.59289 0.05992 0.10456 0.0
H2866 H 0.62805 0.08218 0.11077 0.0
H2867 H 0.64821 0.10822 0.12585 0.0
H2868 H 0.61712 0.12096 0.1626 0.0
H2869 H 0.5831 0.09683 0.15684 0.0
C2870 C 0.57588 0.07555 0.13443 0.0
C2871 C 0.57444 0.06538 0.12231 0.0
C2872 C 0.59599 0.08839 0.13806 0.0
C2873 C 0.59369 0.06747 0.11399 0.0
C2874 C 0.61371 0.08032 0.1175 0.0
C2875 C 0.63429 0.10535 0.13274 0.0
C2876 C 0.6352 0.11671 0.14461 0.0
C2877 C 0.61488 0.09119 0.12943 0.0
C2878 C 0.61671 0.11294 0.15329 0.0
C2879 C 0.59728 0.099 0.15004 0.0
H2880 H 0.17225 0.68551 0.113 0.0
H2881 H 0.19889 0.64364 0.14412 0.0
H2882 H 0.17493 0.6103 0.1372 0.0
H2883 H 0.14479 0.59382 0.12308 0.0
H2884 H 0.12133 0.63442 0.09076 0.0
H2885 H 0.14594 0.6674 0.09743 0.0
C2886 C 0.17339 0.66898 0.11814 0.0
C2887 C 0.18728 0.66738 0.1292 0.0
C2888 C 0.15994 0.64964 0.11398 0.0
C2889 C 0.18798 0.64575 0.13577 0.0
C2890 C 0.17438 0.62654 0.13177 0.0
C2891 C 0.14537 0.60961 0.11729 0.0
C2892 C 0.1308 0.61157 0.1065 0.0
C2893 C 0.16002 0.62842 0.121 0.0
C2894 C 0.13174 0.63249 0.0993 0.0
C2895 C 0.146 0.65137 0.10305 0.0
H2896 H 0.5607 0.9235 0.36225 0.0
H2897 H 0.60033 0.94571 0.3951 0.0
H2898 H 0.63379 0.92167 0.38831 0.0
H2899 H 0.65076 0.8925 0.37381 0.0
H2900 H 0.61174 0.87128 0.34055 0.0
H2901 H 0.57902 0.89681 0.34678 0.0
C2902 C 0.57682 0.92349 0.3678 0.0
C2903 C 0.57792 0.93629 0.37921 0.0
C2904 C 0.596 0.90961 0.36385 0.0
C2905 C 0.59886 0.93574 0.38637 0.0
C2906 C 0.61804 0.92205 0.38248 0.0
C2907 C 0.63533 0.89377 0.36777 0.0
C2908 C 0.63373 0.87982 0.35676 0.0
C2909 C 0.61665 0.90862 0.37135 0.0
C2910 C 0.61333 0.88146 0.34919 0.0
C2911 C 0.59465 0.89618 0.35271 0.0
H2912 H 0.30697 0.34612 0.63817 0.0
H2913 H 0.32521 0.29792 0.60803 0.0
H2914 H 0.35037 0.32792 0.59841 0.0
H2915 H 0.36936 0.36686 0.59932 0.0
H2916 H 0.35269 0.41435 0.63004 0.0
H2917 H 0.32475 0.38568 0.63861 0.0
C2918 C 0.31643 0.34218 0.62949 0.0
C2919 C 0.31424 0.31974 0.62388 0.0
C2920 C 0.33126 0.35937 0.62413 0.0
C2921 C 0.32631 0.3151 0.6125 0.0
C2922 C 0.34089 0.33219 0.60704 0.0
C2923 C 0.35962 0.37092 0.6079 0.0
C2924 C 0.36324 0.39267 0.61406 0.0
C2925 C 0.34384 0.35422 0.61289 0.0
C2926 C 0.35012 0.39785 0.62503 0.0
C2927 C 0.33425 0.38139 0.63 0.0
H2928 H 0.93512 0.06657 0.85896 0.0
H2929 H 0.89646 0.04655 0.89256 0.0
H2930 H 0.86281 0.07 0.88559 0.0
H2931 H 0.84586 0.09887 0.87101 0.0
H2932 H 0.88314 0.11683 0.8366 0.0
H2933 H 0.91586 0.09145 0.84292 0.0
C2934 C 0.91915 0.06682 0.86463 0.0
C2935 C 0.91856 0.05507 0.87639 0.0
C2936 C 0.89972 0.08024 0.86052 0.0
C2937 C 0.89769 0.05586 0.88362 0.0
C2938 C 0.87837 0.06921 0.87962 0.0
C2939 C 0.86079 0.09686 0.86467 0.0
C2940 C 0.86199 0.11014 0.8534 0.0
C2941 C 0.87941 0.08192 0.86824 0.0
C2942 C 0.88186 0.1074 0.8455 0.0
C2943 C 0.90056 0.09272 0.84905 0.0
H2944 H 0.84455 0.60303 0.60806 0.0
H2945 H 0.9091 0.64312 0.6115 0.0
H2946 H 0.88696 0.6772 0.61902 0.0
H2947 H 0.84965 0.69538 0.62513 0.0
H2948 H 0.78472 0.65597 0.62187 0.0
H2949 H 0.80668 0.6217 0.61404 0.0
C2950 C 0.85374 0.61921 0.61051 0.0
C2951 C 0.87843 0.62056 0.60912 0.0
C2952 C 0.84087 0.63881 0.61492 0.0
C2953 C 0.89008 0.64171 0.61225 0.0
C2954 C 0.87745 0.66119 0.61664 0.0
C2955 C 0.84021 0.67944 0.62252 0.0
C2956 C 0.81555 0.67832 0.62399 0.0
C2957 C 0.85289 0.65993 0.61801 0.0
C2958 C 0.80371 0.65727 0.62089 0.0
C2959 C 0.81625 0.6377 0.61637 0.0
H2960 H 0.12338 0.11729 0.34496 0.0
H2961 H 0.15709 0.12255 0.38159 0.0
H2962 H 0.12794 0.09581 0.39057 0.0
H2963 H 0.09113 0.07301 0.38848 0.0
H2964 H 0.05522 0.0708 0.35255 0.0
H2965 H 0.08669 0.09451 0.34285 0.0
C2966 C 0.12431 0.11278 0.35493 0.0
C2967 C 0.14257 0.12202 0.36253 0.0
C2968 C 0.10698 0.09796 0.36018 0.0
C2969 C 0.14361 0.11546 0.37539 0.0
C2970 C 0.12677 0.1003 0.3806 0.0
C2971 C 0.0905 0.07751 0.37849 0.0
C2972 C 0.07125 0.07013 0.37114 0.0
C2973 C 0.10823 0.09168 0.37313 0.0
C2974 C 0.07013 0.07626 0.35828 0.0
C2975 C 0.08802 0.08984 0.35279 0.0
H2976 H 0.62842 0.36867 0.09721 0.0
H2977 H 0.62856 0.40344 0.13366 0.0
H2978 H 0.65576 0.3739 0.14187 0.0
H2979 H 0.67723 0.3364 0.13928 0.0
H2980 H 0.67384 0.29955 0.10362 0.0
H2981 H 0.64995 0.33145 0.09456 0.0
C2982 C 0.63419 0.36975 0.10698 0.0
C2983 C 0.62629 0.38836 0.11475 0.0
C2984 C 0.64923 0.35221 0.11181 0.0
C2985 C 0.63453 0.38963 0.12733 0.0
C2986 C 0.64998 0.37258 0.13211 0.0
C2987 C 0.67151 0.33564 0.12947 0.0
C2988 C 0.6773 0.31591 0.12205 0.0
C2989 C 0.65718 0.35363 0.1245 0.0
C2990 C 0.66955 0.31472 0.10944 0.0
C2991 C 0.65588 0.33288 0.1043 0.0
H2992 H 0.43914 0.92005 0.85812 0.0
H2993 H 0.40375 0.9387 0.89288 0.0
H2994 H 0.36915 0.91578 0.88648 0.0
H2995 H 0.35033 0.88815 0.87177 0.0
H2996 H 0.38484 0.87099 0.83643 0.0
H2997 H 0.41859 0.89527 0.84242 0.0
C2998 C 0.42375 0.91919 0.86423 0.0
C2999 C 0.42397 0.93092 0.87596 0.0
C3000 C 0.40392 0.90602 0.86047 0.0
C3001 C 0.40389 0.92993 0.88376 0.0
C3002 C 0.38418 0.91671 0.88014 0.0
C3003 C 0.36493 0.89007 0.86521 0.0
C3004 C 0.36501 0.87742 0.85371 0.0
C3005 C 0.38415 0.90441 0.8686 0.0
C3006 C 0.38442 0.87998 0.84548 0.0
C3007 C 0.40371 0.89403 0.84885 0.0
H3008 H 0.89482 0.36917 0.88437 0.0
H3009 H 0.83473 0.39931 0.90347 0.0
H3010 H 0.80978 0.36671 0.89595 0.0
H3011 H 0.80555 0.32914 0.88424 0.0
H3012 H 0.86569 0.30116 0.86398 0.0
H3013 H 0.89017 0.33317 0.87186 0.0
C3014 C 0.87628 0.36848 0.88694 0.0
C3015 C 0.86662 0.38634 0.89457 0.0
C3016 C 0.86211 0.35001 0.88244 0.0
C3017 C 0.84249 0.38564 0.89762 0.0
C3018 C 0.82829 0.36702 0.89334 0.0
C3019 C 0.82393 0.33015 0.88142 0.0
C3020 C 0.83374 0.31238 0.87368 0.0
C3021 C 0.83794 0.34905 0.88575 0.0
C3022 C 0.8577 0.31406 0.87022 0.0
C3023 C 0.87175 0.33253 0.87462 0.0
H3024 H 0.37643 0.11651 0.65602 0.0
H3025 H 0.33984 0.11606 0.62008 0.0
H3026 H 0.36999 0.09032 0.6112 0.0
H3027 H 0.4086 0.07072 0.61298 0.0
H3028 H 0.44723 0.07473 0.64808 0.0
H3029 H 0.4147 0.09663 0.65789 0.0
C3030 C 0.37506 0.11097 0.64621 0.0
C3031 C 0.35579 0.1184 0.63877 0.0
C3032 C 0.39297 0.0969 0.64097 0.0
C3033 C 0.35416 0.11043 0.62616 0.0
C3034 C 0.37156 0.09585 0.621 0.0
C3035 C 0.40963 0.07612 0.62283 0.0
C3036 C 0.43006 0.07112 0.62987 0.0
C3037 C 0.39124 0.08932 0.62824 0.0
C3038 C 0.43156 0.07845 0.64254 0.0
C3039 C 0.41302 0.09097 0.64812 0.0
H3040 H 0.68816 0.67821 0.38974 0.0
H3041 H 0.67 0.66395 0.35076 0.0
H3042 H 0.64611 0.63027 0.35734 0.0
H3043 H 0.62842 0.60649 0.37415 0.0
H3044 H 0.64664 0.62009 0.4132 0.0
H3045 H 0.67204 0.65276 0.40661 0.0
C3046 C 0.67899 0.66768 0.3827 0.0
C3047 C 0.68087 0.67358 0.36979 0.0
C3048 C 0.6651 0.64841 0.38656 0.0
C3049 C 0.66912 0.65962 0.36075 0.0
C3050 C 0.6553 0.64046 0.36451 0.0
C3051 C 0.63828 0.61625 0.38124 0.0
C3052 C 0.63553 0.61081 0.39417 0.0
C3053 C 0.65296 0.63486 0.37739 0.0
C3054 C 0.64812 0.62407 0.4032 0.0
C3055 C 0.66276 0.64269 0.39943 0.0
H3056 H 0.14889 0.88864 0.13098 0.0
H3057 H 0.10908 0.86393 0.16327 0.0
H3058 H 0.0763 0.88967 0.15745 0.0
H3059 H 0.05804 0.91755 0.14252 0.0
H3060 H 0.09808 0.94272 0.11049 0.0
H3061 H 0.13195 0.91901 0.11712 0.0
C3062 C 0.13326 0.8892 0.13691 0.0
C3063 C 0.13142 0.8741 0.14747 0.0
C3064 C 0.1145 0.90416 0.13357 0.0
C3065 C 0.11083 0.87494 0.15493 0.0
C3066 C 0.0921 0.88976 0.15166 0.0
C3067 C 0.07425 0.91791 0.13705 0.0
C3068 C 0.07553 0.93173 0.126 0.0
C3069 C 0.09358 0.90412 0.14087 0.0
C3070 C 0.09672 0.93235 0.11908 0.0
C3071 C 0.11603 0.91867 0.12282 0.0
H3072 H 0.66689 0.81129 0.88979 0.0
H3073 H 0.69323 0.85091 0.8579 0.0
H3074 H 0.67151 0.88584 0.86503 0.0
H3075 H 0.64217 0.90378 0.87922 0.0
H3076 H 0.61676 0.86432 0.9115 0.0
H3077 H 0.64076 0.83057 0.90522 0.0
C3078 C 0.66799 0.82766 0.88448 0.0
C3079 C 0.68142 0.82854 0.87329 0.0
C3080 C 0.65541 0.84758 0.8886 0.0
C3081 C 0.68305 0.84989 0.86657 0.0
C3082 C 0.67052 0.86979 0.8706 0.0
C3083 C 0.64224 0.88802 0.88506 0.0
C3084 C 0.62733 0.88655 0.89572 0.0
C3085 C 0.65626 0.86868 0.88146 0.0
C3086 C 0.62757 0.8658 0.90307 0.0
C3087 C 0.64141 0.8465 0.89953 0.0
H3088 H 0.39958 0.4397 0.11217 0.0
H3089 H 0.44277 0.43102 0.14557 0.0
H3090 H 0.4117 0.40775 0.15555 0.0
H3091 H 0.37351 0.38738 0.15422 0.0
H3092 H 0.33206 0.39317 0.11999 0.0
H3093 H 0.36113 0.42002 0.111 0.0
C3094 C 0.40228 0.43267 0.12161 0.0
C3095 C 0.42362 0.43708 0.12804 0.0
C3096 C 0.38463 0.41867 0.12717 0.0
C3097 C 0.42647 0.42824 0.14042 0.0
C3098 C 0.40878 0.4147 0.1461 0.0
C3099 C 0.37084 0.39443 0.14477 0.0
C3100 C 0.35056 0.38812 0.13783 0.0
C3101 C 0.38799 0.4094 0.13947 0.0
C3102 C 0.34725 0.3979 0.12569 0.0
C3103 C 0.36401 0.41313 0.12046 0.0
H3104 H 0.84828 0.10803 0.39292 0.0
H3105 H 0.9129 0.13683 0.37777 0.0
H3106 H 0.89137 0.17062 0.36925 0.0
H3107 H 0.85443 0.19175 0.36598 0.0
H3108 H 0.78978 0.1648 0.38216 0.0
H3109 H 0.81095 0.13023 0.39012 0.0
C3110 C 0.85754 0.12173 0.38772 0.0
C3111 C 0.88211 0.12007 0.386 0.0
C3112 C 0.84506 0.14132 0.38298 0.0
C3113 C 0.89402 0.13792 0.37932 0.0
C3114 C 0.88172 0.15717 0.37441 0.0
C3115 C 0.84494 0.17859 0.37144 0.0
C3116 C 0.82051 0.18107 0.37351 0.0
C3117 C 0.85728 0.15909 0.37623 0.0
C3118 C 0.80851 0.16332 0.38028 0.0
C3119 C 0.82065 0.14359 0.38492 0.0
H3120 H 0.14494 0.59473 0.64498 0.0
H3121 H 0.11616 0.66054 0.63136 0.0
H3122 H 0.08237 0.63973 0.62237 0.0
H3123 H 0.06124 0.60316 0.61823 0.0
H3124 H 0.08799 0.53717 0.63287 0.0
H3125 H 0.12267 0.55762 0.64128 0.0
C3126 C 0.13123 0.60441 0.64002 0.0
C3127 C 0.13291 0.62912 0.63889 0.0
C3128 C 0.11162 0.59233 0.63499 0.0
C3129 C 0.11505 0.64155 0.6325 0.0
C3130 C 0.09581 0.62966 0.6273 0.0
C3131 C 0.07436 0.59319 0.62345 0.0
C3132 C 0.07177 0.56862 0.62498 0.0
C3133 C 0.09387 0.6051 0.62853 0.0
C3134 C 0.08953 0.55604 0.63143 0.0
C3135 C 0.10931 0.56776 0.63633 0.0
H3136 H 0.63763 0.10279 0.62363 0.0
H3137 H 0.62803 0.13373 0.58659 0.0
H3138 H 0.65292 0.16707 0.59263 0.0
H3139 H 0.67576 0.18849 0.60882 0.0
H3140 H 0.68606 0.15699 0.64561 0.0
H3141 H 0.66315 0.12247 0.63913 0.0
C3142 C 0.64134 0.11653 0.61676 0.0
C3143 C 0.6307 0.11578 0.6047 0.0
C3144 C 0.65584 0.13558 0.62025 0.0
C3145 C 0.63553 0.13403 0.59602 0.0
C3146 C 0.64989 0.15307 0.59944 0.0
C3147 C 0.67308 0.17398 0.61537 0.0
C3148 C 0.6825 0.17532 0.62768 0.0
C3149 C 0.6598 0.15423 0.6116 0.0
C3150 C 0.67917 0.15629 0.63605 0.0
C3151 C 0.66592 0.13662 0.63238 0.0
H3152 H 0.11243 0.35677 0.86036 0.0
H3153 H 0.16077 0.41573 0.86143 0.0
H3154 H 0.12844 0.44208 0.86733 0.0
H3155 H 0.08666 0.44808 0.87292 0.0
H3156 H 0.03961 0.38796 0.87367 0.0
H3157 H 0.07125 0.36251 0.86631 0.0
C3158 C 0.11604 0.37532 0.86203 0.0
C3159 C 0.1391 0.38414 0.86052 0.0
C3160 C 0.09754 0.39025 0.86571 0.0
C3161 C 0.14319 0.40842 0.86239 0.0
C3162 C 0.12473 0.4235 0.86585 0.0
C3163 C 0.08333 0.42939 0.87157 0.0
C3164 C 0.0606 0.42013 0.87379 0.0
C3165 C 0.10186 0.41456 0.86766 0.0
C3166 C 0.05666 0.39585 0.87178 0.0
C3167 C 0.07485 0.38114 0.86768 0.0
H3168 H 0.85652 0.90462 0.11833 0.0
H3169 H 0.89929 0.85809 0.0955 0.0
H3170 H 0.875 0.82447 0.10185 0.0
H3171 H 0.84287 0.80803 0.11463 0.0
H3172 H 0.7999 0.85433 0.1375 0.0
H3173 H 0.82304 0.88832 0.1304 0.0
C3174 C 0.86029 0.88717 0.1146 0.0
C3175 C 0.87973 0.88385 0.10648 0.0
C3176 C 0.84633 0.86787 0.11837 0.0
C3177 C 0.88461 0.86107 0.10188 0.0
C3178 C 0.87068 0.84185 0.10547 0.0
C3179 C 0.83827 0.8256 0.1179 0.0
C3180 C 0.81963 0.82861 0.12657 0.0
C3181 C 0.85168 0.84501 0.11382 0.0
C3182 C 0.81428 0.85147 0.13091 0.0
C3183 C 0.82746 0.87093 0.12682 0.0
H3184 H 0.43095 0.56968 0.36423 0.0
H3185 H 0.42207 0.59075 0.40323 0.0
H3186 H 0.3892 0.61634 0.39725 0.0
H3187 H 0.36407 0.63405 0.38082 0.0
H3188 H 0.37291 0.61316 0.34181 0.0
H3189 H 0.40472 0.58621 0.34789 0.0
C3190 C 0.42179 0.57987 0.37141 0.0
C3191 C 0.42898 0.57835 0.38415 0.0
C3192 C 0.40299 0.59466 0.3679 0.0
C3193 C 0.41673 0.5914 0.39338 0.0
C3194 C 0.39805 0.60618 0.38996 0.0
C3195 C 0.37304 0.62364 0.37366 0.0
C3196 C 0.36631 0.62572 0.36088 0.0
C3197 C 0.39122 0.60817 0.37723 0.0
C3198 C 0.37773 0.6118 0.35172 0.0
C3199 C 0.39596 0.59646 0.35518 0.0
H3200 H 0.3696 0.13292 0.09561 0.0
H3201 H 0.35981 0.09375 0.13034 0.0
H3202 H 0.33276 0.12391 0.13809 0.0
H3203 H 0.31415 0.16287 0.13575 0.0
H3204 H 0.32613 0.20337 0.10176 0.0
H3205 H 0.3503 0.17142 0.09305 0.0
C3206 C 0.36168 0.131 0.10491 0.0
C3207 C 0.36686 0.11104 0.11236 0.0
C3208 C 0.34659 0.14875 0.10948 0.0
C3209 C 0.35597 0.1087 0.12428 0.0
C3210 C 0.34061 0.12606 0.12879 0.0
C3211 C 0.32175 0.16447 0.12635 0.0
C3212 C 0.31837 0.18533 0.11937 0.0
C3213 C 0.33604 0.1463 0.12155 0.0
C3214 C 0.3286 0.18745 0.1073 0.0
C3215 C 0.34241 0.16922 0.10233 0.0
H3216 H 0.55961 0.57779 0.86057 0.0
H3217 H 0.58945 0.57098 0.898 0.0
H3218 H 0.62314 0.59527 0.89171 0.0
H3219 H 0.64287 0.62019 0.876 0.0
H3220 H 0.61374 0.62621 0.83831 0.0
H3221 H 0.58074 0.60089 0.84439 0.0
C3222 C 0.57354 0.58162 0.86732 0.0
C3223 C 0.57206 0.57266 0.87972 0.0
C3224 C 0.59282 0.59563 0.86365 0.0
C3225 C 0.59033 0.57748 0.88836 0.0
C3226 C 0.6095 0.59149 0.8848 0.0
C3227 C 0.62958 0.61565 0.86901 0.0
C3228 C 0.6308 0.62526 0.85672 0.0
C3229 C 0.61081 0.60085 0.87251 0.0
C3230 C 0.61308 0.61945 0.84791 0.0
C3231 C 0.59426 0.60484 0.85134 0.0
H3232 H 0.14769 0.81179 0.63295 0.0
H3233 H 0.21192 0.83617 0.61519 0.0
H3234 H 0.19094 0.8705 0.60677 0.0
H3235 H 0.15374 0.89289 0.6038 0.0
H3236 H 0.08946 0.86643 0.62051 0.0
H3237 H 0.11098 0.83328 0.62974 0.0
C3238 C 0.15713 0.82435 0.62708 0.0
C3239 C 0.18136 0.82118 0.62464 0.0
C3240 C 0.14487 0.84364 0.62201 0.0
C3241 C 0.19333 0.83818 0.61733 0.0
C3242 C 0.1813 0.85776 0.61243 0.0
C3243 C 0.14457 0.87985 0.6095 0.0
C3244 C 0.12009 0.88195 0.61144 0.0
C3245 C 0.15702 0.86059 0.61463 0.0
C3246 C 0.10827 0.86497 0.61878 0.0
C3247 C 0.12056 0.84609 0.62409 0.0
H3248 H 0.91568 0.44268 0.36813 0.0
H3249 H 0.94419 0.38331 0.38883 0.0
H3250 H 0.9127 0.35819 0.3809 0.0
H3251 H 0.87717 0.3527 0.36806 0.0
H3252 H 0.84657 0.41203 0.34849 0.0
H3253 H 0.87847 0.43766 0.35621 0.0
C3254 C 0.91487 0.42434 0.37104 0.0
C3255 C 0.93265 0.41491 0.37891 0.0
C3256 C 0.89631 0.40995 0.36666 0.0
C3257 C 0.93125 0.391 0.3825 0.0
C3258 C 0.9131 0.37658 0.37806 0.0
C3259 C 0.8776 0.37123 0.36545 0.0
C3260 C 0.85983 0.38048 0.35762 0.0
C3261 C 0.89567 0.3858 0.37007 0.0
C3262 C 0.86018 0.40459 0.35449 0.0
C3263 C 0.8784 0.41918 0.35889 0.0
H3264 H 0.34153 0.80411 0.38554 0.0
H3265 H 0.28976 0.85197 0.37004 0.0
H3266 H 0.31295 0.88571 0.37739 0.0
H3267 H 0.34891 0.90158 0.38729 0.0
H3268 H 0.40098 0.85357 0.40239 0.0
H3269 H 0.37639 0.81995 0.39642 0.0
C3270 C 0.33508 0.82191 0.38399 0.0
C3271 C 0.31398 0.82551 0.37722 0.0
C3272 C 0.34858 0.84121 0.38815 0.0
C3273 C 0.30608 0.84872 0.3751 0.0
C3274 C 0.3193 0.86802 0.37932 0.0
C3275 C 0.35488 0.88375 0.38926 0.0
C3276 C 0.3768 0.88011 0.39522 0.0
C3277 C 0.34078 0.86447 0.38566 0.0
C3278 C 0.38409 0.85691 0.39791 0.0
C3279 C 0.37011 0.83765 0.39443 0.0
H3280 H 0.94138 0.57634 0.14194 0.0
H3281 H 0.91066 0.56712 0.1049 0.0
H3282 H 0.87732 0.59222 0.11087 0.0
H3283 H 0.8587 0.61898 0.12601 0.0
H3284 H 0.88768 0.62596 0.16372 0.0
H3285 H 0.92022 0.59996 0.15797 0.0
C3286 C 0.9272 0.57968 0.13526 0.0
C3287 C 0.92839 0.57004 0.12301 0.0
C3288 C 0.90804 0.59398 0.13879 0.0
C3289 C 0.90995 0.57426 0.11441 0.0
C3290 C 0.89101 0.58872 0.11779 0.0
C3291 C 0.87172 0.61447 0.13313 0.0
C3292 C 0.87068 0.62481 0.14527 0.0
C3293 C 0.89007 0.59896 0.12989 0.0
C3294 C 0.88821 0.6189 0.15419 0.0
C3295 C 0.90677 0.60381 0.15096 0.0
H3296 H 0.1904 0.15943 0.87202 0.0
H3297 H 0.14344 0.21496 0.88448 0.0
H3298 H 0.11605 0.18571 0.89267 0.0
H3299 H 0.1046 0.14451 0.89576 0.0
H3300 H 0.14901 0.08897 0.88091 0.0
H3301 H 0.17804 0.11814 0.87423 0.0
C3302 C 0.17409 0.16525 0.87639 0.0
C3303 C 0.16931 0.18957 0.87765 0.0
C3304 C 0.15783 0.14829 0.88069 0.0
C3305 C 0.14813 0.19651 0.88361 0.0
C3306 C 0.13221 0.17974 0.88819 0.0
C3307 C 0.12043 0.13868 0.89091 0.0
C3308 C 0.12445 0.11441 0.88891 0.0
C3309 C 0.13677 0.1556 0.88669 0.0
C3310 C 0.14548 0.1074 0.88285 0.0
C3311 C 0.16208 0.12413 0.8789 0.0
H3312 H 0.56031 0.42261 0.64346 0.0
H3313 H 0.59234 0.43738 0.60724 0.0
H3314 H 0.62727 0.41466 0.61328 0.0
H3315 H 0.64721 0.3881 0.62817 0.0
H3316 H 0.61577 0.37427 0.66472 0.0
H3317 H 0.58194 0.39879 0.65913 0.0
C3318 C 0.57503 0.42094 0.63694 0.0
C3319 C 0.57374 0.43154 0.62491 0.0
C3320 C 0.59501 0.4078 0.64046 0.0
C3321 C 0.59301 0.42953 0.6166 0.0
C3322 C 0.61291 0.41641 0.62001 0.0
C3323 C 0.63324 0.39079 0.63505 0.0
C3324 C 0.63401 0.37904 0.6468 0.0
C3325 C 0.61393 0.40515 0.63184 0.0
C3326 C 0.61547 0.3826 0.65548 0.0
C3327 C 0.59615 0.39676 0.65233 0.0
H3328 H 0.27593 0.27985 0.23263 0.0
H3329 H 0.23654 0.21915 0.21973 0.0
H3330 H 0.23041 0.20665 0.24161 0.0
H3331 H 0.23501 0.21368 0.26446 0.0
H3332 H 0.27366 0.27484 0.27733 0.0
H3333 H 0.28078 0.28672 0.25542 0.0
C3334 C 0.26585 0.26398 0.23459 0.0
C3335 C 0.25673 0.25049 0.22452 0.0
C3336 C 0.26208 0.25706 0.24721 0.0
C3337 C 0.24406 0.22973 0.22726 0.0
C3338 C 0.24038 0.22264 0.23979 0.0
C3339 C 0.24519 0.22948 0.26246 0.0
C3340 C 0.25372 0.24339 0.27252 0.0
C3341 C 0.24921 0.23622 0.24984 0.0
C3342 C 0.26662 0.26399 0.26977 0.0
C3343 C 0.27081 0.27073 0.25724 0.0
H3344 H 0.9852 0.01242 0.52152 0.0
H3345 H 0.04163 0.9629 0.51443 0.0
H3346 H 0.03487 0.96615 0.49166 0.0
H3347 H 0.01287 0.98289 0.47375 0.0
H3348 H 0.95617 0.03205 0.48081 0.0
H3349 H 0.96274 0.02865 0.50363 0.0
C3350 C 0.99584 0.00211 0.51501 0.0
C3351 C 0.01394 0.98749 0.5197 0.0
C3352 C 0.99177 0.00393 0.50192 0.0
C3353 C 0.02781 0.97456 0.51109 0.0
C3354 C 0.02388 0.9763 0.49806 0.0
C3355 C 0.00207 0.993 0.48028 0.0
C3356 C 0.98409 0.00773 0.47559 0.0
C3357 C 0.00597 0.99099 0.49337 0.0
C3358 C 0.96998 0.0204 0.48419 0.0
C3359 C 0.9738 0.01856 0.49723 0.0
H3360 H 0.22522 0.71929 0.73292 0.0
H3361 H 0.27688 0.77104 0.72135 0.0
H3362 H 0.28278 0.78267 0.74339 0.0
H3363 H 0.27374 0.77777 0.76599 0.0
H3364 H 0.22218 0.72595 0.77759 0.0
H3365 H 0.21623 0.71433 0.75553 0.0
C3366 C 0.23793 0.73296 0.73523 0.0
C3367 C 0.25054 0.74429 0.72548 0.0
C3368 C 0.24137 0.73947 0.74794 0.0
C3369 C 0.26668 0.76224 0.72864 0.0
C3370 C 0.27019 0.76882 0.74125 0.0
C3371 C 0.26104 0.76409 0.76368 0.0
C3372 C 0.24844 0.75276 0.77343 0.0
C3373 C 0.25761 0.75757 0.75098 0.0
C3374 C 0.23233 0.73477 0.77029 0.0
C3375 C 0.22881 0.7282 0.75767 0.0
H3376 H 0.49088 0.97859 0.02216 0.0
H3377 H 0.48557 0.05438 0.01988 0.0
H3378 H 0.49515 0.05302 0.99723 0.0
H3379 H 0.50467 0.03003 0.97803 0.0
H3380 H 0.50706 0.95408 0.98005 0.0
H3381 H 0.49905 0.95556 0.00286 0.0
C3382 C 0.49195 0.99475 0.01667 0.0
C3383 C 0.48772 0.01655 0.02258 0.0
C3384 C 0.4969 0.99375 0.00365 0.0
C3385 C 0.48877 0.03743 0.01543 0.0
C3386 C 0.49426 0.03665 0.00253 0.0
C3387 C 0.50348 0.01389 0.98354 0.0
C3388 C 0.50653 0.99199 0.97753 0.0
C3389 C 0.49831 0.0149 0.99654 0.0
C3390 C 0.50472 0.97108 0.98459 0.0
C3391 C 0.50018 0.97194 0.99758 0.0
H3392 H 0.28466 0.74841 0.27081 0.0
H3393 H 0.21361 0.72152 0.27417 0.0
H3394 H 0.20656 0.72968 0.25178 0.0
H3395 H 0.22032 0.74504 0.23134 0.0
H3396 H 0.29174 0.77087 0.22779 0.0
H3397 H 0.29884 0.7626 0.25017 0.0
C3398 C 0.26772 0.74408 0.26661 0.0
C3399 C 0.24968 0.73443 0.27418 0.0
C3400 C 0.2638 0.74875 0.25371 0.0
C3401 C 0.2277 0.72926 0.26862 0.0
C3402 C 0.22369 0.73381 0.25579 0.0
C3403 C 0.23754 0.7486 0.23541 0.0
C3404 C 0.25544 0.7586 0.22787 0.0
C3405 C 0.24157 0.74365 0.24826 0.0
C3406 C 0.27752 0.76349 0.23339 0.0
C3407 C 0.28166 0.75862 0.24618 0.0
H3408 H 0.46192 0.98625 0.48451 0.0
H3409 H 0.52421 0.02348 0.47205 0.0
H3410 H 0.53584 0.03021 0.49406 0.0
H3411 H 0.52832 0.0255 0.51679 0.0
H3412 H 0.46677 0.98694 0.52927 0.0
H3413 H 0.45455 0.98129 0.50731 0.0
C3414 C 0.47793 0.99601 0.48663 0.0
C3415 C 0.49219 0.00435 0.47668 0.0
C3416 C 0.48458 0.99968 0.4993 0.0
C3417 C 0.51306 0.01668 0.47955 0.0
C3418 C 0.51967 0.02061 0.49213 0.0
C3419 C 0.51235 0.01564 0.51473 0.0
C3420 C 0.49851 0.00669 0.52471 0.0
C3421 C 0.50562 0.01209 0.50207 0.0
C3422 C 0.47762 0.99436 0.52182 0.0
C3423 C 0.47068 0.99095 0.50925 0.0
H3424 H 0.24665 0.22979 0.77497 0.0
H3425 H 0.24489 0.30505 0.76872 0.0
H3426 H 0.24861 0.29886 0.74589 0.0
H3427 H 0.25179 0.27206 0.72772 0.0
H3428 H 0.25507 0.19677 0.73404 0.0
H3429 H 0.25079 0.20298 0.75679 0.0
C3430 C 0.24692 0.2448 0.76858 0.0
C3431 C 0.24546 0.26782 0.7735 0.0
C3432 C 0.2492 0.24111 0.75549 0.0
C3433 C 0.24619 0.28716 0.76516 0.0
C3434 C 0.24822 0.28363 0.75211 0.0
C3435 C 0.25186 0.257 0.73407 0.0
C3436 C 0.25366 0.23398 0.72912 0.0
C3437 C 0.24976 0.26068 0.74717 0.0
C3438 C 0.25331 0.21468 0.73752 0.0
C3439 C 0.25102 0.2182 0.75056 0.0
H3440 H 0.03844 0.00251 0.98294 0.0
H3441 H 0.96599 0.01813 0.97327 0.0
H3442 H 0.95454 0.01361 0.99539 0.0
H3443 H 0.96494 0.00494 0.01745 0.0
H3444 H 0.03794 0.99266 0.02735 0.0
H3445 H 0.04921 0.9962 0.00516 0.0
C3446 C 0.02019 0.00531 0.98565 0.0
C3447 C 0.00314 0.01054 0.97635 0.0
C3448 C 0.01375 0.00316 0.99845 0.0
C3449 C 0.97949 0.01363 0.98012 0.0
C3450 C 0.97291 0.01123 0.99281 0.0
C3451 C 0.98338 0.00337 0.01482 0.0
C3452 C 0.00047 0.99836 0.02414 0.0
C3453 C 0.98989 0.00595 0.00205 0.0
C3454 C 0.02424 0.99599 0.02042 0.0
C3455 C 0.03078 0.99822 0.00772 0.0
H3456 H 0.73666 0.73465 0.72614 0.0
H3457 H 0.77833 0.79734 0.73253 0.0
H3458 H 0.77621 0.79101 0.7554 0.0
H3459 H 0.76298 0.76738 0.77354 0.0
H3460 H 0.7205 0.70517 0.76717 0.0
H3461 H 0.72301 0.71128 0.74433 0.0
C3462 C 0.74543 0.74681 0.73255 0.0
C3463 C 0.75763 0.76643 0.72765 0.0
C3464 C 0.74413 0.74307 0.74568 0.0
C3465 C 0.76861 0.78224 0.73607 0.0
C3466 C 0.7675 0.77857 0.74914 0.0
C3467 C 0.75405 0.75529 0.76717 0.0
C3468 C 0.74164 0.73581 0.7721 0.0
C3469 C 0.75529 0.75906 0.75405 0.0
C3470 C 0.73051 0.7201 0.76366 0.0
C3471 C 0.73178 0.72366 0.75059 0.0
H3472 H 0.76877 0.21883 0.23036 0.0
H3473 H 0.71721 0.27303 0.22254 0.0
H3474 H 0.71826 0.28548 0.24468 0.0
H3475 H 0.73325 0.28053 0.26636 0.0
H3476 H 0.78468 0.22624 0.2742 0.0
H3477 H 0.78382 0.21393 0.25203 0.0
C3478 C 0.75762 0.23324 0.23352 0.0
C3479 C 0.74298 0.245 0.22478 0.0
C3480 C 0.75817 0.24021 0.24629 0.0
C3481 C 0.7289 0.26388 0.22901 0.0
C3482 C 0.72937 0.27092 0.2417 0.0
C3483 C 0.74443 0.26614 0.26319 0.0
C3484 C 0.75897 0.25431 0.27194 0.0
C3485 C 0.74393 0.25922 0.25042 0.0
C3486 C 0.77309 0.23546 0.26771 0.0
C3487 C 0.77271 0.22849 0.25501 0.0
H3488 H 0.77599 0.25614 0.77239 0.0
H3489 H 0.71254 0.214 0.77363 0.0
H3490 H 0.70579 0.22135 0.7511 0.0
H3491 H 0.7178 0.23997 0.73106 0.0
H3492 H 0.78126 0.2821 0.72986 0.0
H3493 H 0.78792 0.27483 0.75239 0.0
C3494 C 0.76056 0.24876 0.76775 0.0
C3495 C 0.74481 0.23454 0.77467 0.0
C3496 C 0.75678 0.25308 0.75481 0.0
C3497 C 0.72509 0.22479 0.76848 0.0
C3498 C 0.72116 0.22906 0.75561 0.0
C3499 C 0.73318 0.24739 0.73572 0.0
C3500 C 0.74897 0.26158 0.72881 0.0
C3501 C 0.73693 0.24311 0.74867 0.0
C3502 C 0.76867 0.27135 0.73501 0.0
C3503 C 0.77255 0.26712 0.74787 0.0
H3504 H 0.75909 0.73481 0.27362 0.0
H3505 H 0.73631 0.80669 0.2675 0.0
H3506 H 0.73952 0.80116 0.24463 0.0
H3507 H 0.74788 0.77561 0.22631 0.0
H3508 H 0.76934 0.70342 0.23251 0.0
H3509 H 0.76693 0.70922 0.2554 0.0
C3510 C 0.75456 0.74922 0.26731 0.0
C3511 C 0.74748 0.77114 0.27232 0.0
C3512 C 0.75604 0.74582 0.25416 0.0
C3513 C 0.74216 0.78973 0.26394 0.0
C3514 C 0.74381 0.78654 0.25084 0.0
C3515 C 0.75217 0.76122 0.23269 0.0
C3516 C 0.75873 0.73912 0.22773 0.0
C3517 C 0.75068 0.76465 0.24584 0.0
C3518 C 0.76396 0.72053 0.23609 0.0
C3519 C 0.76271 0.72386 0.24918 0.0
H3520 H 0.48069 0.47649 0.02344 0.0
H3521 H 0.54238 0.52118 0.02127 0.0
H3522 H 0.5354 0.52742 0.99874 0.0
H3523 H 0.512 0.52011 0.97961 0.0
H3524 H 0.449 0.47735 0.98198 0.0
H3525 H 0.4563 0.47055 0.00448 0.0
C3526 C 0.49246 0.48785 0.0181 0.0
C3527 C 0.51211 0.49823 0.0241 0.0
C3528 C 0.48816 0.49169 0.00515 0.0
C3529 C 0.52737 0.51257 0.01691 0.0
C3530 C 0.5233 0.51632 0.00402 0.0
C3531 C 0.49965 0.50957 0.98507 0.0
C3532 C 0.48 0.49924 0.97906 0.0
C3533 C 0.50377 0.50596 0.99804 0.0
C3534 C 0.46448 0.48524 0.98627 0.0
C3535 C 0.46855 0.48145 0.99918 0.0
H3536 H 0.98739 0.51895 0.47553 0.0
H3537 H 0.04545 0.47119 0.48214 0.0
H3538 H 0.03861 0.47336 0.50496 0.0
H3539 H 0.01568 0.48823 0.523 0.0
H3540 H 0.95786 0.53635 0.51643 0.0
H3541 H 0.96475 0.53423 0.49362 0.0
C3542 C 0.99842 0.5089 0.48197 0.0
C3543 C 0.01691 0.49496 0.47715 0.0
C3544 C 0.99436 0.51019 0.49508 0.0
C3545 C 0.03128 0.48228 0.48562 0.0
C3546 C 0.02731 0.48341 0.49866 0.0
C3547 C 0.00475 0.49846 0.51659 0.0
C3548 C 0.98625 0.51237 0.52143 0.0
C3549 C 0.0089 0.49731 0.5035 0.0
C3550 C 0.97201 0.52523 0.51296 0.0
C3551 C 0.97601 0.52414 0.49992 0.0
H3552 H 0.03144 0.52361 0.01574 0.0
H3553 H 0.97566 0.47704 0.02812 0.0
H3554 H 0.96367 0.47069 0.00618 0.0
H3555 H 0.96925 0.47797 0.98348 0.0
H3556 H 0.02492 0.52459 0.97103 0.0
H3557 H 0.03714 0.53075 0.99298 0.0
C3558 C 0.0168 0.51191 0.01363 0.0
C3559 C 0.00444 0.50089 0.02358 0.0
C3560 C 0.01007 0.5082 0.00098 0.0
C3561 C 0.98527 0.48603 0.02068 0.0
C3562 C 0.97849 0.48226 0.00812 0.0
C3563 C 0.98392 0.48966 0.98557 0.0
C3564 C 0.99611 0.50082 0.97561 0.0
C3565 C 0.99073 0.49328 0.9982 0.0
C3566 C 0.01539 0.51555 0.97848 0.0
C3567 C 0.0223 0.51921 0.99104 0.0
H3568 H 0.48071 0.50611 0.4781 0.0
H3569 H 0.55183 0.47987 0.48291 0.0
H3570 H 0.54463 0.47415 0.50541 0.0
H3571 H 0.51858 0.47719 0.52378 0.0
H3572 H 0.44604 0.49888 0.51858 0.0
H3573 H 0.45352 0.50568 0.49615 0.0
C3574 C 0.49457 0.49871 0.48396 0.0
C3575 C 0.51691 0.49373 0.47869 0.0
C3576 C 0.49014 0.49474 0.49688 0.0
C3577 C 0.53465 0.48453 0.48664 0.0
C3578 C 0.5305 0.48101 0.49954 0.0
C3579 C 0.50417 0.48294 0.51777 0.0
C3580 C 0.48179 0.48763 0.52302 0.0
C3581 C 0.50835 0.48615 0.50477 0.0
C3582 C 0.46363 0.4956 0.51496 0.0
C3583 C 0.46781 0.49931 0.50207 0.0
H3584 H 0.35103 0.14074 0.35195 0.0
H3585 H 0.33999 0.16769 0.38973 0.0
H3586 H 0.36923 0.13998 0.39803 0.0
H3587 H 0.3951 0.10573 0.39479 0.0
H3588 H 0.40599 0.07873 0.357 0.0
H3589 H 0.37976 0.10902 0.34844 0.0
C3590 C 0.35541 0.14095 0.36195 0.0
C3591 C 0.34323 0.15615 0.37022 0.0
C3592 C 0.37203 0.12481 0.36667 0.0
C3593 C 0.34888 0.15593 0.38319 0.0
C3594 C 0.36562 0.14013 0.38794 0.0
C3595 C 0.39215 0.10678 0.38465 0.0
C3596 C 0.40232 0.08986 0.37656 0.0
C3597 C 0.37689 0.12411 0.37981 0.0
C3598 C 0.39806 0.09131 0.36345 0.0
C3599 C 0.38312 0.10866 0.35855 0.0
H3600 H 0.08554 0.09899 0.63015 0.0
H3601 H 0.11505 0.09574 0.59242 0.0
H3602 H 0.14381 0.12583 0.59799 0.0
H3603 H 0.16292 0.15051 0.61397 0.0
H3604 H 0.13629 0.15089 0.6523 0.0
H3605 H 0.10407 0.12474 0.64605 0.0
C3606 C 0.09826 0.10481 0.62314 0.0
C3607 C 0.09801 0.09494 0.61088 0.0
C3608 C 0.11541 0.12161 0.62652 0.0
C3609 C 0.11441 0.10317 0.60187 0.0
C3610 C 0.13111 0.12026 0.60508 0.0
C3611 C 0.15013 0.14484 0.62098 0.0
C3612 C 0.15225 0.15251 0.63361 0.0
C3613 C 0.13211 0.12919 0.61744 0.0
C3614 C 0.13507 0.14548 0.64248 0.0
C3615 C 0.11672 0.13032 0.63894 0.0
H3616 H 0.18217 0.86751 0.88051 0.0
H3617 H 0.12959 0.82609 0.86101 0.0
H3618 H 0.09884 0.85391 0.86765 0.0
H3619 H 0.08735 0.89125 0.87817 0.0
H3620 H 0.14066 0.9328 0.89703 0.0
H3621 H 0.17065 0.90356 0.89159 0.0
C3622 C 0.16391 0.86431 0.8779 0.0
C3623 C 0.15814 0.84471 0.87034 0.0
C3624 C 0.14649 0.8805 0.88158 0.0
C3625 C 0.13448 0.84112 0.86679 0.0
C3626 C 0.11691 0.857 0.8706 0.0
C3627 C 0.10549 0.89369 0.88119 0.0
C3628 C 0.11185 0.91418 0.88791 0.0
C3629 C 0.12276 0.87693 0.87786 0.0
C3630 C 0.13543 0.91729 0.8917 0.0
C3631 C 0.15256 0.90057 0.88863 0.0
H3632 H 0.34788 0.83867 0.11915 0.0
H3633 H 0.32151 0.88522 0.14833 0.0
H3634 H 0.35144 0.91437 0.14298 0.0
H3635 H 0.38396 0.92742 0.1296 0.0
H3636 H 0.41178 0.88095 0.10084 0.0
H3637 H 0.38252 0.85093 0.10654 0.0
C3638 C 0.34887 0.85506 0.12444 0.0
C3639 C 0.33219 0.85982 0.13401 0.0
C3640 C 0.36637 0.87178 0.12141 0.0
C3641 C 0.33369 0.88127 0.14071 0.0
C3642 C 0.35094 0.89791 0.13773 0.0
C3643 C 0.38402 0.91055 0.12474 0.0
C3644 C 0.40012 0.90645 0.11483 0.0
C3645 C 0.36722 0.89345 0.12804 0.0
C3646 C 0.39946 0.88466 0.10844 0.0
C3647 C 0.38277 0.86746 0.11171 0.0
H3648 H 0.64208 0.8391 0.62388 0.0
H3649 H 0.6831 0.89186 0.64352 0.0
H3650 H 0.65339 0.92173 0.63876 0.0
H3651 H 0.61697 0.93334 0.62819 0.0
H3652 H 0.57593 0.8816 0.60785 0.0
H3653 H 0.6044 0.85079 0.61366 0.0
C3654 C 0.64431 0.85711 0.62718 0.0
C3655 C 0.66477 0.86338 0.63394 0.0
C3656 C 0.62725 0.87433 0.62425 0.0
C3657 C 0.66762 0.88675 0.63814 0.0
C3658 C 0.65062 0.9038 0.63546 0.0
C3659 C 0.614 0.91523 0.62522 0.0
C3660 C 0.5943 0.90968 0.61771 0.0
C3661 C 0.63054 0.89785 0.62842 0.0
C3662 C 0.59102 0.88627 0.61364 0.0
C3663 C 0.60726 0.86869 0.61697 0.0
H3664 H 0.89042 0.89985 0.39776 0.0
H3665 H 0.91937 0.90511 0.36004 0.0
H3666 H 0.89206 0.87465 0.35266 0.0
H3667 H 0.85743 0.84943 0.3565 0.0
H3668 H 0.82839 0.84459 0.39421 0.0
H3669 H 0.85857 0.87172 0.40207 0.0
C3670 C 0.89117 0.89395 0.38799 0.0
C3671 C 0.9068 0.90488 0.37945 0.0
C3672 C 0.87529 0.87661 0.38379 0.0
C3673 C 0.90726 0.89724 0.36677 0.0
C3674 C 0.8917 0.87978 0.36255 0.0
C3675 C 0.85807 0.85387 0.36649 0.0
C3676 C 0.8406 0.84517 0.37474 0.0
C3677 C 0.87525 0.86976 0.37091 0.0
C3678 C 0.84147 0.85133 0.38764 0.0
C3679 C 0.85871 0.86681 0.39214 0.0
H3680 H 0.86726 0.15901 0.14057 0.0
H3681 H 0.81889 0.14169 0.11029 0.0
H3682 H 0.8475 0.11434 0.10142 0.0
H3683 H 0.8847 0.09284 0.1031 0.0
H3684 H 0.93271 0.10827 0.13374 0.0
H3685 H 0.90557 0.13843 0.14176 0.0
C3686 C 0.86296 0.14926 0.13204 0.0
C3687 C 0.84089 0.15257 0.12613 0.0
C3688 C 0.87932 0.13299 0.1271 0.0
C3689 C 0.83584 0.13996 0.11495 0.0
C3690 C 0.85212 0.12407 0.10991 0.0
C3691 C 0.88949 0.10313 0.11139 0.0
C3692 C 0.91072 0.09835 0.11779 0.0
C3693 C 0.87373 0.12018 0.116 0.0
C3694 C 0.91638 0.11149 0.12869 0.0
C3695 C 0.90089 0.12876 0.13326 0.0
H3696 H 0.62388 0.07144 0.8836 0.0
H3697 H 0.56678 0.12163 0.88343 0.0
H3698 H 0.59435 0.15336 0.87753 0.0
H3699 H 0.63504 0.16648 0.87227 0.0
H3700 H 0.69201 0.11605 0.87387 0.0
H3701 H 0.66428 0.08469 0.87941 0.0
C3702 C 0.61756 0.08935 0.88221 0.0
C3703 C 0.59348 0.09433 0.88374 0.0
C3704 C 0.6335 0.10738 0.87915 0.0
C3705 C 0.58533 0.11755 0.88219 0.0
C3706 C 0.60106 0.1356 0.87884 0.0
C3707 C 0.64125 0.14862 0.8739 0.0
C3708 C 0.66545 0.1435 0.87274 0.0
C3709 C 0.62521 0.1307 0.87727 0.0
C3710 C 0.67346 0.12037 0.87487 0.0
C3711 C 0.65763 0.10244 0.87797 0.0
H3712 H 0.86216 0.66409 0.86425 0.0
H3713 H 0.80197 0.62635 0.87905 0.0
H3714 H 0.82744 0.59397 0.88571 0.0
H3715 H 0.8665 0.57581 0.88685 0.0
H3716 H 0.92731 0.61327 0.87276 0.0
H3717 H 0.90203 0.6464 0.86631 0.0
C3718 C 0.85474 0.64879 0.86898 0.0
C3719 C 0.83027 0.64764 0.87122 0.0
C3720 C 0.86955 0.63019 0.87284 0.0
C3721 C 0.8208 0.6278 0.8774 0.0
C3722 C 0.83531 0.60919 0.88113 0.0
C3723 C 0.87416 0.5912 0.88229 0.0
C3724 C 0.89858 0.59207 0.88009 0.0
C3725 C 0.85964 0.61012 0.87881 0.0
C3726 C 0.90848 0.61227 0.87448 0.0
C3727 C 0.89405 0.63113 0.87079 0.0
H3728 H 0.645 0.66151 0.12791 0.0
H3729 H 0.69713 0.6081 0.13625 0.0
H3730 H 0.66911 0.57719 0.13065 0.0
H3731 H 0.63015 0.56519 0.12326 0.0
H3732 H 0.57739 0.61784 0.11491 0.0
H3733 H 0.6053 0.64921 0.1206 0.0
C3734 C 0.65012 0.64309 0.12856 0.0
C3735 C 0.67317 0.63714 0.13239 0.0
C3736 C 0.63385 0.6253 0.12532 0.0
C3737 C 0.67964 0.6132 0.13311 0.0
C3738 C 0.66359 0.59548 0.12999 0.0
C3739 C 0.62462 0.58352 0.12285 0.0
C3740 C 0.60167 0.58918 0.1188 0.0
C3741 C 0.6407 0.60132 0.12608 0.0
C3742 C 0.59499 0.61305 0.11799 0.0
C3743 C 0.61092 0.63096 0.12127 0.0
H3744 H 0.6483 0.36317 0.34945 0.0
H3745 H 0.6502 0.32776 0.38568 0.0
H3746 H 0.62099 0.35539 0.394 0.0
H3747 H 0.5978 0.39171 0.39155 0.0
H3748 H 0.59485 0.42615 0.35507 0.0
H3749 H 0.62142 0.39648 0.34626 0.0
C3750 C 0.64193 0.36103 0.35907 0.0
C3751 C 0.65171 0.34351 0.36695 0.0
C3752 C 0.62509 0.37695 0.3638 0.0
C3753 C 0.64338 0.34136 0.37946 0.0
C3754 C 0.62659 0.3571 0.38422 0.0
C3755 C 0.60247 0.39245 0.38159 0.0
C3756 C 0.59454 0.41137 0.37404 0.0
C3757 C 0.61775 0.37531 0.37656 0.0
C3758 C 0.60107 0.4121 0.36119 0.0
C3759 C 0.6162 0.39508 0.35612 0.0
H3760 H 0.90789 0.40519 0.6327 0.0
H3761 H 0.88517 0.40243 0.59363 0.0
H3762 H 0.857 0.37154 0.59884 0.0
H3763 H 0.83673 0.34726 0.61463 0.0
H3764 H 0.85604 0.35362 0.6541 0.0
H3765 H 0.88757 0.38087 0.64852 0.0
C3766 C 0.89672 0.39799 0.62531 0.0
C3767 C 0.89882 0.40633 0.61278 0.0
C3768 C 0.87981 0.38078 0.62843 0.0
C3769 C 0.88444 0.39623 0.60332 0.0
C3770 C 0.86805 0.37866 0.60631 0.0
C3771 C 0.84768 0.35468 0.62206 0.0
C3772 C 0.84377 0.3483 0.63479 0.0
C3773 C 0.86528 0.37112 0.61887 0.0
C3774 C 0.85869 0.35776 0.64419 0.0
C3775 C 0.87666 0.37361 0.64103 0.0
H3776 H 0.10089 0.41708 0.13418 0.0
H3777 H 0.07987 0.37681 0.10131 0.0
H3778 H 0.10606 0.34467 0.10773 0.0
H3779 H 0.137 0.32922 0.12196 0.0
H3780 H 0.15734 0.36987 0.1548 0.0
H3781 H 0.12866 0.40023 0.14933 0.0
C3782 C 0.10149 0.40107 0.12855 0.0
C3783 C 0.0885 0.39954 0.11721 0.0
C3784 C 0.11648 0.38266 0.13231 0.0
C3785 C 0.08998 0.37872 0.10997 0.0
C3786 C 0.10488 0.36026 0.11365 0.0
C3787 C 0.13497 0.34464 0.12796 0.0
C3788 C 0.14931 0.34726 0.13876 0.0
C3789 C 0.11859 0.36226 0.12467 0.0
C3790 C 0.14634 0.36723 0.14652 0.0
C3791 C 0.13008 0.38473 0.14334 0.0
H3792 H 0.40517 0.38335 0.89589 0.0
H3793 H 0.41194 0.41962 0.86004 0.0
H3794 H 0.38536 0.39135 0.85021 0.0
H3795 H 0.35666 0.35939 0.85225 0.0
H3796 H 0.34656 0.3254 0.88844 0.0
H3797 H 0.37805 0.34952 0.89761 0.0
C3798 C 0.40088 0.38508 0.88592 0.0
C3799 C 0.41049 0.40381 0.87879 0.0
C3800 C 0.38483 0.36922 0.88038 0.0
C3801 C 0.40514 0.40532 0.86579 0.0
C3802 C 0.38969 0.38927 0.86015 0.0
C3803 C 0.36139 0.35719 0.86215 0.0
C3804 C 0.34902 0.34088 0.86969 0.0
C3805 C 0.3789 0.37163 0.86744 0.0
C3806 C 0.35582 0.33778 0.8824 0.0
C3807 C 0.37369 0.35172 0.88768 0.0
H3808 H 0.41876 0.60821 0.62658 0.0
H3809 H 0.37517 0.58252 0.59597 0.0
H3810 H 0.34467 0.6111 0.60132 0.0
H3811 H 0.32894 0.64095 0.61567 0.0
H3812 H 0.37194 0.66703 0.64641 0.0
H3813 H 0.40389 0.64044 0.64016 0.0
C3814 C 0.40262 0.60898 0.62106 0.0
C3815 C 0.39931 0.59325 0.61088 0.0
C3816 C 0.38492 0.62532 0.62429 0.0
C3817 C 0.37839 0.59462 0.60373 0.0
C3818 C 0.36081 0.61084 0.60685 0.0
C3819 C 0.34547 0.64128 0.62086 0.0
C3820 C 0.34794 0.65595 0.63153 0.0
C3821 C 0.36373 0.626 0.61722 0.0
C3822 C 0.36939 0.65569 0.63826 0.0
C3823 C 0.38772 0.64055 0.63467 0.0
H3824 H 0.08859 0.61452 0.3884 0.0
H3825 H 0.10862 0.56155 0.36096 0.0
H3826 H 0.13909 0.58751 0.3527 0.0
H3827 H 0.16213 0.62385 0.35419 0.0
H3828 H 0.14429 0.67612 0.38234 0.0
H3829 H 0.11097 0.65187 0.38937 0.0
C3830 C 0.09959 0.60866 0.38061 0.0
C3831 C 0.09616 0.58603 0.37534 0.0
C3832 C 0.11765 0.62348 0.37607 0.0
C3833 C 0.11042 0.57896 0.36509 0.0
C3834 C 0.12811 0.59371 0.36042 0.0
C3835 C 0.15101 0.62992 0.36191 0.0
C3836 C 0.15587 0.65161 0.36784 0.0
C3837 C 0.13218 0.61578 0.366 0.0
C3838 C 0.1409 0.65951 0.37759 0.0
C3839 C 0.12193 0.64559 0.38166 0.0
loop_
_geom_bond_atom_site_label_1
_geom_bond_atom_site_label_2
_geom_bond_distance
_geom_bond_site_symmetry_2
_ccdc_geom_bond_type
Li0 N17 1.990 . S
Li0 O60 1.956 . S
Li0 O61 1.970 . S
Li0 O62 1.961 . S
Li1 N25 1.990 . S
Li1 O60 1.970 . S
Li1 O61 1.956 . S
Li1 O63 1.961 . S
Li2 N47 1.990 . S
Li2 O60 1.961 . S
Li2 O62 1.956 . S
Li2 O63 1.970 . S
Li3 N53 1.990 . S
Li3 O61 1.961 . S
Li3 O62 1.970 . S
Li3 O63 1.956 . S
C4 C6 1.348 . S
C4 C7 1.356 . S
C4 O60 1.325 . S
N5 C8 1.314 . S
N5 C9 1.279 . S
C6 C4 1.348 . S
C6 C8 1.353 . S
C6 H64 0.929 . S
C7 C4 1.356 . S
C7 C9 1.358 . S
C7 H65 0.930 . S
C8 N5 1.314 . S
C8 C6 1.353 . S
C8 H66 0.930 . S
C9 N5 1.279 . S
C9 C7 1.358 . S
C9 H67 0.930 . S
C10 C13 1.348 . S
C10 C14 1.356 . S
C10 O61 1.325 . S
C11 N12 1.279 . S
C11 C14 1.358 . S
C11 H68 0.930 . S
N12 C11 1.279 . S
N12 C15 1.314 . S
C13 C10 1.348 . S
C13 C15 1.353 . S
C13 H69 0.929 . S
C14 C10 1.356 . S
C14 C11 1.358 . S
C14 H70 0.930 . S
C15 N12 1.314 . S
C15 C13 1.353 . S
C15 H71 0.930 . S
C16 N17 1.314 . S
C16 C21 1.353 . S
C16 H22 0.930 . S
N17 Li0 1.990 . S
N17 C16 1.314 . S
N17 C19 1.279 . S
C18 C19 1.358 . S
C18 C20 1.356 . S
C18 H72 0.930 . S
C19 N17 1.279 . S
C19 C18 1.358 . S
C19 H23 0.930 . S
C20 C18 1.356 . S
C20 C21 1.348 . S
C21 C16 1.353 . S
C21 C20 1.348 . S
C21 H73 0.929 . S
H22 C16 0.930 . S
H23 C19 0.930 . S
C24 N25 1.314 . S
C24 C26 1.353 . S
C24 H30 0.930 . S
N25 Li1 1.990 . S
N25 C24 1.314 . S
N25 C28 1.279 . S
C26 C24 1.353 . S
C26 C29 1.348 . S
C26 H74 0.929 . S
C27 C28 1.358 . S
C27 C29 1.356 . S
C27 H75 0.930 . S
C28 N25 1.279 . S
C28 C27 1.358 . S
C28 H31 0.930 . S
C29 C26 1.348 . S
C29 C27 1.356 . S
H30 C24 0.930 . S
H31 C28 0.930 . S
C32 C34 1.348 . S
C32 C35 1.356 . S
C32 O62 1.325 . S
N33 C36 1.314 . S
N33 C37 1.279 . S
C34 C32 1.348 . S
C34 C36 1.353 . S
C34 H76 0.929 . S
C35 C32 1.356 . S
C35 C37 1.358 . S
C35 H77 0.930 . S
C36 N33 1.314 . S
C36 C34 1.353 . S
C36 H78 0.930 . S
C37 N33 1.279 . S
C37 C35 1.358 . S
C37 H79 0.930 . S
C38 C39 1.348 . S
C38 C40 1.356 . S
C38 O63 1.325 . S
C39 C38 1.348 . S
C39 C41 1.353 . S
C39 H80 0.929 . S
C40 C38 1.356 . S
C40 C42 1.358 . S
C40 H81 0.930 . S
C41 C39 1.353 . S
C41 N43 1.314 . S
C41 H82 0.930 . S
C42 C40 1.358 . S
C42 N43 1.279 . S
C42 H83 0.930 . S
N43 C41 1.314 . S
N43 C42 1.279 . S
C44 C46 1.353 . S
C44 N47 1.314 . S
C44 H50 0.930 . S
C45 N47 1.279 . S
C45 C48 1.358 . S
C45 H51 0.930 . S
C46 C44 1.353 . S
C46 C49 1.348 . S
C46 H84 0.929 . S
N47 Li2 1.990 . S
N47 C44 1.314 . S
N47 C45 1.279 . S
C48 C45 1.358 . S
C48 C49 1.356 . S
C48 H85 0.930 . S
C49 C46 1.348 . S
C49 C48 1.356 . S
H50 C44 0.930 . S
H51 C45 0.930 . S
C52 N53 1.314 . S
C52 C54 1.353 . S
C52 H58 0.930 . S
N53 Li3 1.990 . S
N53 C52 1.314 . S
N53 C56 1.279 . S
C54 C52 1.353 . S
C54 C57 1.348 . S
C54 H86 0.929 . S
C55 C56 1.358 . S
C55 C57 1.356 . S
C55 H87 0.930 . S
C56 N53 1.279 . S
C56 C55 1.358 . S
C56 H59 0.930 . S
C57 C54 1.348 . S
C57 C55 1.356 . S
H58 C52 0.930 . S
H59 C56 0.930 . S
O60 Li0 1.956 . S
O60 Li1 1.970 . S
O60 Li2 1.961 . S
O60 C4 1.325 . S
O61 Li0 1.970 . S
O61 Li1 1.956 . S
O61 Li3 1.961 . S
O61 C10 1.325 . S
O62 Li0 1.961 . S
O62 Li2 1.956 . S
O62 Li3 1.970 . S
O62 C32 1.325 . S
O63 Li1 1.961 . S
O63 Li2 1.970 . S
O63 Li3 1.956 . S
O63 C38 1.325 . S
H64 C6 0.929 . S
H65 C7 0.930 . S
H66 C8 0.930 . S
H67 C9 0.930 . S
H68 C11 0.930 . S
H69 C13 0.929 . S
H70 C14 0.930 . S
H71 C15 0.930 . S
H72 C18 0.930 . S
H73 C21 0.929 . S
H74 C26 0.929 . S
H75 C27 0.930 . S
H76 C34 0.929 . S
H77 C35 0.930 . S
H78 C36 0.930 . S
H79 C37 0.930 . S
H80 C39 0.929 . S
H81 C40 0.930 . S
H82 C41 0.930 . S
H83 C42 0.930 . S
H84 C46 0.929 . S
H85 C48 0.930 . S
H86 C54 0.929 . S
H87 C55 0.930 . S
Li88 N105 1.990 1_455 S
Li88 O148 1.956 . S
Li88 O149 1.970 . S
Li88 O150 1.961 1_565 S
Li89 N113 1.990 . S
Li89 O148 1.970 . S
Li89 O149 1.956 . S
Li89 O151 1.961 . S
Li90 N135 1.990 . S
Li90 O148 1.961 1_545 S
Li90 O150 1.956 . S
Li90 O151 1.970 1_545 S
Li91 N141 1.990 . S
Li91 O149 1.961 . S
Li91 O150 1.970 1_565 S
Li91 O151 1.956 . S
C92 C94 1.348 . S
C92 C95 1.356 . S
C92 O148 1.325 . S
N93 C96 1.314 . S
N93 C97 1.279 . S
C94 C92 1.348 . S
C94 C96 1.353 . S
C94 H152 0.929 . S
C95 C92 1.356 . S
C95 C97 1.358 . S
C95 H153 0.930 1_565 S
C96 N93 1.314 . S
C96 C94 1.353 . S
C96 H154 0.930 . S
C97 N93 1.279 . S
C97 C95 1.358 . S
C97 H155 0.946 . S
C98 C101 1.348 . S
C98 C102 1.356 . S
C98 O149 1.325 . S
C99 N100 1.279 . S
C99 C102 1.358 . S
C99 H156 0.930 . S
N100 C99 1.279 . S
N100 C103 1.314 1_455 S
C101 C98 1.348 . S
C101 C103 1.353 1_455 S
C101 H157 0.929 1_455 S
C102 C98 1.356 . S
C102 C99 1.358 . S
C102 H158 0.930 . S
C103 N100 1.314 1_655 S
C103 C101 1.353 1_655 S
C103 H159 0.930 . S
C104 N105 1.314 . S
C104 C109 1.353 . S
C104 H110 0.930 . S
N105 Li88 1.990 1_655 S
N105 C104 1.314 . S
N105 C107 1.279 . S
C106 C107 1.358 . S
C106 C108 1.356 . S
C106 H160 0.930 . S
C107 N105 1.279 . S
C107 C106 1.358 . S
C107 H111 0.930 . S
C108 C106 1.356 . S
C108 C109 1.348 . S
C109 C104 1.353 . S
C109 C108 1.348 . S
C109 H161 0.929 . S
H110 C104 0.930 . S
H111 C107 0.930 . S
C112 N113 1.314 . S
C112 C114 1.353 . S
C112 H118 0.930 . S
N113 Li89 1.990 . S
N113 C112 1.314 . S
N113 C116 1.279 . S
C114 C112 1.353 . S
C114 C117 1.348 . S
C114 H162 0.929 . S
C115 C116 1.358 . S
C115 C117 1.356 . S
C115 H163 0.930 . S
C116 N113 1.279 . S
C116 C115 1.358 . S
C116 H119 0.930 . S
C117 C114 1.348 . S
C117 C115 1.356 . S
H118 C112 0.930 . S
H119 C116 0.930 . S
C120 C122 1.348 . S
C120 C123 1.356 1_455 S
C120 O150 1.325 . S
N121 C124 1.314 . S
N121 C125 1.279 . S
C122 C120 1.348 . S
C122 C124 1.353 1_455 S
C122 H164 0.929 . S
C123 C120 1.356 1_655 S
C123 C125 1.358 . S
C123 H165 0.930 . S
C124 N121 1.314 . S
C124 C122 1.353 1_655 S
C124 H166 0.930 . S
C125 N121 1.279 . S
C125 C123 1.358 . S
C125 H167 0.930 . S
C126 C127 1.348 1_565 S
C126 C128 1.356 . S
C126 O151 1.325 . S
C127 C126 1.348 1_545 S
C127 C129 1.353 . S
C127 H168 0.929 . S
C128 C126 1.356 . S
C128 C130 1.358 . S
C128 H169 0.930 . S
C129 C127 1.353 . S
C129 N131 1.314 . S
C129 H170 0.930 . S
C130 C128 1.358 . S
C130 N131 1.279 1_565 S
C130 H171 0.930 . S
N131 C129 1.314 . S
N131 C130 1.279 1_545 S
C132 C134 1.353 . S
C132 N135 1.314 . S
C132 H138 0.930 . S
C133 N135 1.279 . S
C133 C136 1.358 . S
C133 H139 0.930 . S
C134 C132 1.353 . S
C134 C137 1.348 . S
C134 H172 0.929 . S
N135 Li90 1.990 . S
N135 C132 1.314 . S
N135 C133 1.279 . S
C136 C133 1.358 . S
C136 C137 1.356 . S
C136 H173 0.930 . S
C137 C134 1.348 . S
C137 C136 1.356 . S
H138 C132 0.930 . S
H139 C133 0.930 . S
C140 N141 1.314 . S
C140 C142 1.353 . S
C140 H146 0.930 . S
N141 Li91 1.990 . S
N141 C140 1.314 . S
N141 C144 1.279 . S
C142 C140 1.353 . S
C142 C145 1.348 . S
C142 H174 0.929 1_455 S
C143 C144 1.358 1_545 S
C143 C145 1.356 1_545 S
C143 H175 0.930 . S
C144 N141 1.279 . S
C144 C143 1.358 1_565 S
C144 H147 0.930 1_565 S
C145 C142 1.348 . S
C145 C143 1.356 1_565 S
H146 C140 0.930 . S
H147 C144 0.930 1_545 S
O148 Li88 1.956 . S
O148 Li89 1.970 . S
O148 Li90 1.961 1_565 S
O148 C92 1.325 . S
O149 Li88 1.970 . S
O149 Li89 1.956 . S
O149 Li91 1.961 . S
O149 C98 1.325 . S
O150 Li88 1.961 1_545 S
O150 Li90 1.956 . S
O150 Li91 1.970 1_545 S
O150 C120 1.325 . S
O151 Li89 1.961 . S
O151 Li90 1.970 1_565 S
O151 Li91 1.956 . S
O151 C126 1.325 . S
H152 C94 0.929 . S
H153 C95 0.930 1_545 S
H154 C96 0.930 . S
H155 C97 0.946 . S
H156 C99 0.930 . S
H157 C101 0.929 1_655 S
H158 C102 0.930 . S
H159 C103 0.930 . S
H160 C106 0.930 . S
H161 C109 0.929 . S
H162 C114 0.929 . S
H163 C115 0.930 . S
H164 C122 0.929 . S
H165 C123 0.930 . S
H166 C124 0.930 . S
H167 C125 0.930 . S
H168 C127 0.929 . S
H169 C128 0.930 . S
H170 C129 0.930 . S
H171 C130 0.930 . S
H172 C134 0.929 . S
H173 C136 0.930 . S
H174 C142 0.929 1_655 S
H175 C143 0.930 . S
Li176 N193 1.990 . S
Li176 O236 1.956 . S
Li176 O237 1.970 . S
Li176 O238 1.961 . S
Li177 N201 1.990 . S
Li177 O236 1.970 . S
Li177 O237 1.956 . S
Li177 O239 1.961 . S
Li178 N223 1.990 . S
Li178 O236 1.961 . S
Li178 O238 1.956 . S
Li178 O239 1.970 . S
Li179 N229 1.990 . S
Li179 O237 1.961 . S
Li179 O238 1.970 . S
Li179 O239 1.956 . S
C180 C182 1.348 . S
C180 C183 1.356 . S
C180 O236 1.325 . S
N181 C184 1.314 . S
N181 C185 1.279 . S
C182 C180 1.348 . S
C182 C184 1.353 . S
C182 H240 0.929 . S
C183 C180 1.356 . S
C183 C185 1.358 . S
C183 H241 0.930 . S
C184 N181 1.314 . S
C184 C182 1.353 . S
C184 H242 0.930 . S
C185 N181 1.279 . S
C185 C183 1.358 . S
C185 H243 0.930 . S
C186 C189 1.348 . S
C186 C190 1.356 . S
C186 O237 1.325 . S
C187 N188 1.279 . S
C187 C190 1.358 . S
C187 H244 0.930 . S
N188 C187 1.279 . S
N188 C191 1.314 . S
C189 C186 1.348 . S
C189 C191 1.353 . S
C189 H245 0.929 . S
C190 C186 1.356 . S
C190 C187 1.358 . S
C190 H246 0.930 . S
C191 N188 1.314 . S
C191 C189 1.353 . S
C191 H247 0.930 . S
C192 N193 1.314 . S
C192 C197 1.353 . S
C192 H198 0.930 . S
N193 Li176 1.990 . S
N193 C192 1.314 . S
N193 C195 1.279 . S
C194 C195 1.358 . S
C194 C196 1.356 . S
C194 H248 0.930 . S
C195 N193 1.279 . S
C195 C194 1.358 . S
C195 H199 0.930 . S
C196 C194 1.356 . S
C196 C197 1.348 . S
C197 C192 1.353 . S
C197 C196 1.348 . S
C197 H249 0.929 . S
H198 C192 0.930 . S
H199 C195 0.930 . S
C200 N201 1.314 . S
C200 C202 1.353 . S
C200 H206 0.930 . S
N201 Li177 1.990 . S
N201 C200 1.314 . S
N201 C204 1.279 . S
C202 C200 1.353 . S
C202 C205 1.348 . S
C202 H250 0.929 . S
C203 C204 1.358 . S
C203 C205 1.356 . S
C203 H251 0.930 . S
C204 N201 1.279 . S
C204 C203 1.358 . S
C204 H207 0.930 . S
C205 C202 1.348 . S
C205 C203 1.356 . S
H206 C200 0.930 . S
H207 C204 0.930 . S
C208 C210 1.348 . S
C208 C211 1.356 . S
C208 O238 1.325 . S
N209 C212 1.314 . S
N209 C213 1.279 . S
C210 C208 1.348 . S
C210 C212 1.353 . S
C210 H252 0.929 . S
C211 C208 1.356 . S
C211 C213 1.358 . S
C211 H253 0.930 . S
C212 N209 1.314 . S
C212 C210 1.353 . S
C212 H254 0.930 . S
C213 N209 1.279 . S
C213 C211 1.358 . S
C213 H255 0.930 . S
C214 C215 1.348 . S
C214 C216 1.356 . S
C214 O239 1.325 . S
C215 C214 1.348 . S
C215 C217 1.353 . S
C215 H256 0.929 . S
C216 C214 1.356 . S
C216 C218 1.358 . S
C216 H257 0.930 . S
C217 C215 1.353 . S
C217 N219 1.314 . S
C217 H258 0.930 . S
C218 C216 1.358 . S
C218 N219 1.279 . S
C218 H259 0.930 . S
N219 C217 1.314 . S
N219 C218 1.279 . S
C220 C222 1.353 . S
C220 N223 1.314 . S
C220 H226 0.930 . S
C221 N223 1.279 . S
C221 C224 1.358 . S
C221 H227 0.930 . S
C222 C220 1.353 . S
C222 C225 1.348 . S
C222 H260 0.929 . S
N223 Li178 1.990 . S
N223 C220 1.314 . S
N223 C221 1.279 . S
C224 C221 1.358 . S
C224 C225 1.356 . S
C224 H261 0.930 . S
C225 C222 1.348 . S
C225 C224 1.356 . S
H226 C220 0.930 . S
H227 C221 0.930 . S
C228 N229 1.314 . S
C228 C230 1.353 . S
C228 H234 0.930 . S
N229 Li179 1.990 . S
N229 C228 1.314 . S
N229 C232 1.279 . S
C230 C228 1.353 . S
C230 C233 1.348 . S
C230 H262 0.929 . S
C231 C232 1.358 . S
C231 C233 1.356 . S
C231 H263 0.930 . S
C232 N229 1.279 . S
C232 C231 1.358 . S
C232 H235 0.930 . S
C233 C230 1.348 . S
C233 C231 1.356 . S
H234 C228 0.930 . S
H235 C232 0.930 . S
O236 Li176 1.956 . S
O236 Li177 1.970 . S
O236 Li178 1.961 . S
O236 C180 1.325 . S
O237 Li176 1.970 . S
O237 Li177 1.956 . S
O237 Li179 1.961 . S
O237 C186 1.325 . S
O238 Li176 1.961 . S
O238 Li178 1.956 . S
O238 Li179 1.970 . S
O238 C208 1.325 . S
O239 Li177 1.961 . S
O239 Li178 1.970 . S
O239 Li179 1.956 . S
O239 C214 1.325 . S
H240 C182 0.929 . S
H241 C183 0.930 . S
H242 C184 0.930 . S
H243 C185 0.930 . S
H244 C187 0.930 . S
H245 C189 0.929 . S
H246 C190 0.930 . S
H247 C191 0.930 . S
H248 C194 0.930 . S
H249 C197 0.929 . S
H250 C202 0.929 . S
H251 C203 0.930 . S
H252 C210 0.929 . S
H253 C211 0.930 . S
H254 C212 0.930 . S
H255 C213 0.930 . S
H256 C215 0.929 . S
H257 C216 0.930 . S
H258 C217 0.930 . S
H259 C218 0.930 . S
H260 C222 0.929 . S
H261 C224 0.930 . S
H262 C230 0.929 . S
H263 C231 0.930 . S
Li264 N281 1.990 . S
Li264 O324 1.956 . S
Li264 O325 1.970 . S
Li264 O326 1.961 . S
Li265 N289 1.990 . S
Li265 O324 1.970 . S
Li265 O325 1.956 . S
Li265 O327 1.961 1_545 S
Li266 N311 1.990 . S
Li266 O324 1.961 . S
Li266 O326 1.956 . S
Li266 O327 1.970 1_545 S
Li267 N317 1.990 . S
Li267 O325 1.961 1_565 S
Li267 O326 1.970 1_565 S
Li267 O327 1.956 . S
C268 C270 1.348 . S
C268 C271 1.356 . S
C268 O324 1.325 . S
N269 C272 1.314 . S
N269 C273 1.279 . S
C270 C268 1.348 . S
C270 C272 1.353 . S
C270 H328 0.929 . S
C271 C268 1.356 . S
C271 C273 1.358 . S
C271 H329 0.930 . S
C272 N269 1.314 . S
C272 C270 1.353 . S
C272 H330 0.930 . S
C273 N269 1.279 . S
C273 C271 1.358 . S
C273 H331 0.930 . S
C274 C277 1.348 . S
C274 C278 1.356 . S
C274 O325 1.325 . S
C275 N276 1.279 . S
C275 C278 1.358 . S
C275 H332 0.946 . S
N276 C275 1.279 . S
N276 C279 1.314 . S
C277 C274 1.348 . S
C277 C279 1.353 . S
C277 H333 0.929 . S
C278 C274 1.356 . S
C278 C275 1.358 . S
C278 H334 0.930 1_545 S
C279 N276 1.314 . S
C279 C277 1.353 . S
C279 H335 0.930 . S
C280 N281 1.314 . S
C280 C285 1.353 . S
C280 H286 0.930 . S
N281 Li264 1.990 . S
N281 C280 1.314 . S
N281 C283 1.279 . S
C282 C283 1.358 . S
C282 C284 1.356 . S
C282 H336 0.930 . S
C283 N281 1.279 . S
C283 C282 1.358 . S
C283 H287 0.930 . S
C284 C282 1.356 . S
C284 C285 1.348 . S
C285 C280 1.353 . S
C285 C284 1.348 . S
C285 H337 0.929 . S
H286 C280 0.930 . S
H287 C283 0.930 . S
C288 N289 1.314 . S
C288 C290 1.353 . S
C288 H294 0.930 . S
N289 Li265 1.990 . S
N289 C288 1.314 . S
N289 C292 1.279 . S
C290 C288 1.353 . S
C290 C293 1.348 . S
C290 H338 0.929 . S
C291 C292 1.358 . S
C291 C293 1.356 . S
C291 H339 0.930 . S
C292 N289 1.279 . S
C292 C291 1.358 . S
C292 H295 0.930 . S
C293 C290 1.348 . S
C293 C291 1.356 . S
H294 C288 0.930 . S
H295 C292 0.930 . S
C296 C298 1.348 1_545 S
C296 C299 1.356 . S
C296 O326 1.325 . S
N297 C300 1.314 . S
N297 C301 1.279 1_565 S
C298 C296 1.348 1_565 S
C298 C300 1.353 . S
C298 H340 0.929 . S
C299 C296 1.356 . S
C299 C301 1.358 . S
C299 H341 0.930 . S
C300 N297 1.314 . S
C300 C298 1.353 . S
C300 H342 0.930 . S
C301 N297 1.279 1_545 S
C301 C299 1.358 . S
C301 H343 0.930 . S
C302 C303 1.348 . S
C302 C304 1.356 . S
C302 O327 1.325 . S
C303 C302 1.348 . S
C303 C305 1.353 . S
C303 H344 0.929 . S
C304 C302 1.356 . S
C304 C306 1.358 . S
C304 H345 0.930 . S
C305 C303 1.353 . S
C305 N307 1.314 . S
C305 H346 0.930 . S
C306 C304 1.358 . S
C306 N307 1.279 . S
C306 H347 0.930 . S
N307 C305 1.314 . S
N307 C306 1.279 . S
C308 C310 1.353 . S
C308 N311 1.314 . S
C308 H314 0.930 . S
C309 N311 1.279 . S
C309 C312 1.358 1_545 S
C309 H315 0.930 1_545 S
C310 C308 1.353 . S
C310 C313 1.348 . S
C310 H348 0.929 . S
N311 Li266 1.990 . S
N311 C308 1.314 . S
N311 C309 1.279 . S
C312 C309 1.358 1_565 S
C312 C313 1.356 1_565 S
C312 H349 0.930 . S
C313 C310 1.348 . S
C313 C312 1.356 1_545 S
H314 C308 0.930 . S
H315 C309 0.930 1_565 S
C316 N317 1.314 . S
C316 C318 1.353 . S
C316 H322 0.930 . S
N317 Li267 1.990 . S
N317 C316 1.314 . S
N317 C320 1.279 . S
C318 C316 1.353 . S
C318 C321 1.348 . S
C318 H350 0.929 . S
C319 C320 1.358 . S
C319 C321 1.356 . S
C319 H351 0.930 . S
C320 N317 1.279 . S
C320 C319 1.358 . S
C320 H323 0.930 . S
C321 C318 1.348 . S
C321 C319 1.356 . S
H322 C316 0.930 . S
H323 C320 0.930 . S
O324 Li264 1.956 . S
O324 Li265 1.970 . S
O324 Li266 1.961 . S
O324 C268 1.325 . S
O325 Li264 1.970 . S
O325 Li265 1.956 . S
O325 Li267 1.961 1_545 S
O325 C274 1.325 . S
O326 Li264 1.961 . S
O326 Li266 1.956 . S
O326 Li267 1.970 1_545 S
O326 C296 1.325 . S
O327 Li265 1.961 1_565 S
O327 Li266 1.970 1_565 S
O327 Li267 1.956 . S
O327 C302 1.325 . S
H328 C270 0.929 . S
H329 C271 0.930 . S
H330 C272 0.930 . S
H331 C273 0.930 . S
H332 C275 0.946 . S
H333 C277 0.929 . S
H334 C278 0.930 1_565 S
H335 C279 0.930 . S
H336 C282 0.930 . S
H337 C285 0.929 . S
H338 C290 0.929 . S
H339 C291 0.930 . S
H340 C298 0.929 . S
H341 C299 0.930 . S
H342 C300 0.930 . S
H343 C301 0.930 . S
H344 C303 0.929 . S
H345 C304 0.930 . S
H346 C305 0.930 . S
H347 C306 0.930 . S
H348 C310 0.929 . S
H349 C312 0.930 . S
H350 C318 0.929 . S
H351 C319 0.930 . S
Li352 N369 1.990 . S
Li352 O412 1.956 . S
Li352 O413 1.970 . S
Li352 O414 1.961 . S
Li353 N377 1.990 . S
Li353 O412 1.970 . S
Li353 O413 1.956 . S
Li353 O415 1.961 . S
Li354 N399 1.990 . S
Li354 O412 1.961 . S
Li354 O414 1.956 . S
Li354 O415 1.970 . S
Li355 N405 1.990 . S
Li355 O413 1.961 . S
Li355 O414 1.970 . S
Li355 O415 1.956 . S
C356 C358 1.348 . S
C356 C359 1.356 . S
C356 O412 1.325 . S
N357 C360 1.314 . S
N357 C361 1.279 . S
C358 C356 1.348 . S
C358 C360 1.353 . S
C358 H416 0.929 . S
C359 C356 1.356 . S
C359 C361 1.358 . S
C359 H417 0.930 . S
C360 N357 1.314 . S
C360 C358 1.353 . S
C360 H418 0.930 . S
C361 N357 1.279 . S
C361 C359 1.358 . S
C361 H419 0.930 . S
C362 C365 1.348 . S
C362 C366 1.356 . S
C362 O413 1.325 . S
C363 N364 1.279 . S
C363 C366 1.358 . S
C363 H420 0.930 . S
N364 C363 1.279 . S
N364 C367 1.314 . S
C365 C362 1.348 . S
C365 C367 1.353 . S
C365 H421 0.929 . S
C366 C362 1.356 . S
C366 C363 1.358 . S
C366 H422 0.930 . S
C367 N364 1.314 . S
C367 C365 1.353 . S
C367 H423 0.930 . S
C368 N369 1.314 . S
C368 C373 1.353 . S
C368 H374 0.930 . S
N369 Li352 1.990 . S
N369 C368 1.314 . S
N369 C371 1.279 . S
C370 C371 1.358 . S
C370 C372 1.356 . S
C370 H424 0.930 . S
C371 N369 1.279 . S
C371 C370 1.358 . S
C371 H375 0.930 . S
C372 C370 1.356 . S
C372 C373 1.348 . S
C373 C368 1.353 . S
C373 C372 1.348 . S
C373 H425 0.929 . S
H374 C368 0.930 . S
H375 C371 0.930 . S
C376 N377 1.314 . S
C376 C378 1.353 . S
C376 H382 0.930 . S
N377 Li353 1.990 . S
N377 C376 1.314 . S
N377 C380 1.279 . S
C378 C376 1.353 . S
C378 C381 1.348 . S
C378 H426 0.929 . S
C379 C380 1.358 . S
C379 C381 1.356 . S
C379 H427 0.930 . S
C380 N377 1.279 . S
C380 C379 1.358 . S
C380 H383 0.930 . S
C381 C378 1.348 . S
C381 C379 1.356 . S
H382 C376 0.930 . S
H383 C380 0.930 . S
C384 C386 1.348 . S
C384 C387 1.356 . S
C384 O414 1.325 . S
N385 C388 1.314 . S
N385 C389 1.279 . S
C386 C384 1.348 . S
C386 C388 1.353 . S
C386 H428 0.929 . S
C387 C384 1.356 . S
C387 C389 1.358 . S
C387 H429 0.930 . S
C388 N385 1.314 . S
C388 C386 1.353 . S
C388 H430 0.930 . S
C389 N385 1.279 . S
C389 C387 1.358 . S
C389 H431 0.930 . S
C390 C391 1.348 . S
C390 C392 1.356 . S
C390 O415 1.325 . S
C391 C390 1.348 . S
C391 C393 1.353 . S
C391 H432 0.929 . S
C392 C390 1.356 . S
C392 C394 1.358 . S
C392 H433 0.930 . S
C393 C391 1.353 . S
C393 N395 1.314 . S
C393 H434 0.930 . S
C394 C392 1.358 . S
C394 N395 1.279 . S
C394 H435 0.930 . S
N395 C393 1.314 . S
N395 C394 1.279 . S
C396 C398 1.353 . S
C396 N399 1.314 . S
C396 H402 0.930 . S
C397 N399 1.279 . S
C397 C400 1.358 . S
C397 H403 0.930 . S
C398 C396 1.353 . S
C398 C401 1.348 . S
C398 H436 0.929 . S
N399 Li354 1.990 . S
N399 C396 1.314 . S
N399 C397 1.279 . S
C400 C397 1.358 . S
C400 C401 1.356 . S
C400 H437 0.930 . S
C401 C398 1.348 . S
C401 C400 1.356 . S
H402 C396 0.930 . S
H403 C397 0.930 . S
C404 N405 1.314 . S
C404 C406 1.353 . S
C404 H410 0.930 . S
N405 Li355 1.990 . S
N405 C404 1.314 . S
N405 C408 1.279 . S
C406 C404 1.353 . S
C406 C409 1.348 . S
C406 H438 0.929 . S
C407 C408 1.358 . S
C407 C409 1.356 . S
C407 H439 0.930 . S
C408 N405 1.279 . S
C408 C407 1.358 . S
C408 H411 0.930 . S
C409 C406 1.348 . S
C409 C407 1.356 . S
H410 C404 0.930 . S
H411 C408 0.930 . S
O412 Li352 1.956 . S
O412 Li353 1.970 . S
O412 Li354 1.961 . S
O412 C356 1.325 . S
O413 Li352 1.970 . S
O413 Li353 1.956 . S
O413 Li355 1.961 . S
O413 C362 1.325 . S
O414 Li352 1.961 . S
O414 Li354 1.956 . S
O414 Li355 1.970 . S
O414 C384 1.325 . S
O415 Li353 1.961 . S
O415 Li354 1.970 . S
O415 Li355 1.956 . S
O415 C390 1.325 . S
H416 C358 0.929 . S
H417 C359 0.930 . S
H418 C360 0.930 . S
H419 C361 0.930 . S
H420 C363 0.930 . S
H421 C365 0.929 . S
H422 C366 0.930 . S
H423 C367 0.930 . S
H424 C370 0.930 . S
H425 C373 0.929 . S
H426 C378 0.929 . S
H427 C379 0.930 . S
H428 C386 0.929 . S
H429 C387 0.930 . S
H430 C388 0.930 . S
H431 C389 0.930 . S
H432 C391 0.929 . S
H433 C392 0.930 . S
H434 C393 0.930 . S
H435 C394 0.930 . S
H436 C398 0.929 . S
H437 C400 0.930 . S
H438 C406 0.929 . S
H439 C407 0.930 . S
Li440 N457 1.990 . S
Li440 O500 1.956 . S
Li440 O501 1.970 1_565 S
Li440 O502 1.961 . S
Li441 N465 1.990 . S
Li441 O500 1.970 1_545 S
Li441 O501 1.956 . S
Li441 O503 1.961 1_545 S
Li442 N487 1.990 . S
Li442 O500 1.961 . S
Li442 O502 1.956 . S
Li442 O503 1.970 . S
Li443 N493 1.990 . S
Li443 O501 1.961 1_565 S
Li443 O502 1.970 . S
Li443 O503 1.956 . S
C444 C446 1.348 1_565 S
C444 C447 1.356 . S
C444 O500 1.325 . S
N445 C448 1.314 . S
N445 C449 1.279 1_545 S
C446 C444 1.348 1_545 S
C446 C448 1.353 . S
C446 H504 0.929 . S
C447 C444 1.356 . S
C447 C449 1.358 . S
C447 H505 0.930 . S
C448 N445 1.314 . S
C448 C446 1.353 . S
C448 H506 0.930 . S
C449 N445 1.279 1_565 S
C449 C447 1.358 . S
C449 H507 0.930 . S
C450 C453 1.348 . S
C450 C454 1.356 . S
C450 O501 1.325 . S
C451 N452 1.279 . S
C451 C454 1.358 . S
C451 H508 0.930 . S
N452 C451 1.279 . S
N452 C455 1.314 . S
C453 C450 1.348 . S
C453 C455 1.353 . S
C453 H509 0.929 . S
C454 C450 1.356 . S
C454 C451 1.358 . S
C454 H510 0.930 . S
C455 N452 1.314 . S
C455 C453 1.353 . S
C455 H511 0.930 . S
C456 N457 1.314 . S
C456 C461 1.353 . S
C456 H462 0.930 . S
N457 Li440 1.990 . S
N457 C456 1.314 . S
N457 C459 1.279 . S
C458 C459 1.358 1_545 S
C458 C460 1.356 1_545 S
C458 H512 0.930 . S
C459 N457 1.279 . S
C459 C458 1.358 1_565 S
C459 H463 0.930 1_565 S
C460 C458 1.356 1_565 S
C460 C461 1.348 . S
C461 C456 1.353 . S
C461 C460 1.348 . S
C461 H513 0.929 . S
H462 C456 0.930 . S
H463 C459 0.930 1_545 S
C464 N465 1.314 . S
C464 C466 1.353 . S
C464 H470 0.930 . S
N465 Li441 1.990 . S
N465 C464 1.314 . S
N465 C468 1.279 . S
C466 C464 1.353 . S
C466 C469 1.348 . S
C466 H514 0.929 . S
C467 C468 1.358 . S
C467 C469 1.356 . S
C467 H515 0.930 . S
C468 N465 1.279 . S
C468 C467 1.358 . S
C468 H471 0.930 . S
C469 C466 1.348 . S
C469 C467 1.356 . S
H470 C464 0.930 . S
H471 C468 0.930 . S
C472 C474 1.348 . S
C472 C475 1.356 . S
C472 O502 1.325 . S
N473 C476 1.314 . S
N473 C477 1.279 . S
C474 C472 1.348 . S
C474 C476 1.353 . S
C474 H516 0.929 . S
C475 C472 1.356 . S
C475 C477 1.358 . S
C475 H517 0.930 . S
C476 N473 1.314 . S
C476 C474 1.353 . S
C476 H518 0.930 . S
C477 N473 1.279 . S
C477 C475 1.358 . S
C477 H519 0.930 . S
C478 C479 1.348 . S
C478 C480 1.356 . S
C478 O503 1.325 . S
C479 C478 1.348 . S
C479 C481 1.353 . S
C479 H520 0.929 . S
C480 C478 1.356 . S
C480 C482 1.358 . S
C480 H521 0.930 1_565 S
C481 C479 1.353 . S
C481 N483 1.314 . S
C481 H522 0.930 . S
C482 C480 1.358 . S
C482 N483 1.279 . S
C482 H523 0.946 . S
N483 C481 1.314 . S
N483 C482 1.279 . S
C484 C486 1.353 . S
C484 N487 1.314 . S
C484 H490 0.930 . S
C485 N487 1.279 . S
C485 C488 1.358 . S
C485 H491 0.930 . S
C486 C484 1.353 . S
C486 C489 1.348 . S
C486 H524 0.929 . S
N487 Li442 1.990 . S
N487 C484 1.314 . S
N487 C485 1.279 . S
C488 C485 1.358 . S
C488 C489 1.356 . S
C488 H525 0.930 . S
C489 C486 1.348 . S
C489 C488 1.356 . S
H490 C484 0.930 . S
H491 C485 0.930 . S
C492 N493 1.314 . S
C492 C494 1.353 . S
C492 H498 0.930 . S
N493 Li443 1.990 . S
N493 C492 1.314 . S
N493 C496 1.279 . S
C494 C492 1.353 . S
C494 C497 1.348 . S
C494 H526 0.929 . S
C495 C496 1.358 . S
C495 C497 1.356 . S
C495 H527 0.930 . S
C496 N493 1.279 . S
C496 C495 1.358 . S
C496 H499 0.930 . S
C497 C494 1.348 . S
C497 C495 1.356 . S
H498 C492 0.930 . S
H499 C496 0.930 . S
O500 Li440 1.956 . S
O500 Li441 1.970 1_565 S
O500 Li442 1.961 . S
O500 C444 1.325 . S
O501 Li440 1.970 1_545 S
O501 Li441 1.956 . S
O501 Li443 1.961 1_545 S
O501 C450 1.325 . S
O502 Li440 1.961 . S
O502 Li442 1.956 . S
O502 Li443 1.970 . S
O502 C472 1.325 . S
O503 Li441 1.961 1_565 S
O503 Li442 1.970 . S
O503 Li443 1.956 . S
O503 C478 1.325 . S
H504 C446 0.929 . S
H505 C447 0.930 . S
H506 C448 0.930 . S
H507 C449 0.930 . S
H508 C451 0.930 . S
H509 C453 0.929 . S
H510 C454 0.930 . S
H511 C455 0.930 . S
H512 C458 0.930 . S
H513 C461 0.929 . S
H514 C466 0.929 . S
H515 C467 0.930 . S
H516 C474 0.929 . S
H517 C475 0.930 . S
H518 C476 0.930 . S
H519 C477 0.930 . S
H520 C479 0.929 . S
H521 C480 0.930 1_545 S
H522 C481 0.930 . S
H523 C482 0.946 . S
H524 C486 0.929 . S
H525 C488 0.930 . S
H526 C494 0.929 . S
H527 C495 0.930 . S
Li528 N545 1.990 . S
Li528 O588 1.956 . S
Li528 O589 1.970 . S
Li528 O590 1.961 . S
Li529 N553 1.990 . S
Li529 O588 1.970 . S
Li529 O589 1.956 . S
Li529 O591 1.961 . S
Li530 N575 1.990 . S
Li530 O588 1.961 . S
Li530 O590 1.956 . S
Li530 O591 1.970 . S
Li531 N581 1.990 . S
Li531 O589 1.961 . S
Li531 O590 1.970 . S
Li531 O591 1.956 . S
C532 C534 1.348 . S
C532 C535 1.356 . S
C532 O588 1.325 . S
N533 C536 1.314 . S
N533 C537 1.279 . S
C534 C532 1.348 . S
C534 C536 1.353 . S
C534 H592 0.929 . S
C535 C532 1.356 . S
C535 C537 1.358 . S
C535 H593 0.930 . S
C536 N533 1.314 . S
C536 C534 1.353 . S
C536 H594 0.930 . S
C537 N533 1.279 . S
C537 C535 1.358 . S
C537 H595 0.930 . S
C538 C541 1.348 . S
C538 C542 1.356 . S
C538 O589 1.325 . S
C539 N540 1.279 . S
C539 C542 1.358 . S
C539 H596 0.930 . S
N540 C539 1.279 . S
N540 C543 1.314 . S
C541 C538 1.348 . S
C541 C543 1.353 . S
C541 H597 0.929 . S
C542 C538 1.356 . S
C542 C539 1.358 . S
C542 H598 0.930 . S
C543 N540 1.314 . S
C543 C541 1.353 . S
C543 H599 0.930 . S
C544 N545 1.314 . S
C544 C549 1.353 . S
C544 H550 0.930 . S
N545 Li528 1.990 . S
N545 C544 1.314 . S
N545 C547 1.279 . S
C546 C547 1.358 . S
C546 C548 1.356 . S
C546 H600 0.930 . S
C547 N545 1.279 . S
C547 C546 1.358 . S
C547 H551 0.930 . S
C548 C546 1.356 . S
C548 C549 1.348 . S
C549 C544 1.353 . S
C549 C548 1.348 . S
C549 H601 0.929 . S
H550 C544 0.930 . S
H551 C547 0.930 . S
C552 N553 1.314 . S
C552 C554 1.353 . S
C552 H558 0.930 . S
N553 Li529 1.990 . S
N553 C552 1.314 . S
N553 C556 1.279 . S
C554 C552 1.353 . S
C554 C557 1.348 . S
C554 H602 0.929 . S
C555 C556 1.358 . S
C555 C557 1.356 . S
C555 H603 0.930 . S
C556 N553 1.279 . S
C556 C555 1.358 . S
C556 H559 0.930 . S
C557 C554 1.348 . S
C557 C555 1.356 . S
H558 C552 0.930 . S
H559 C556 0.930 . S
C560 C562 1.348 . S
C560 C563 1.356 . S
C560 O590 1.325 . S
N561 C564 1.314 . S
N561 C565 1.279 . S
C562 C560 1.348 . S
C562 C564 1.353 . S
C562 H604 0.929 . S
C563 C560 1.356 . S
C563 C565 1.358 . S
C563 H605 0.930 . S
C564 N561 1.314 . S
C564 C562 1.353 . S
C564 H606 0.930 . S
C565 N561 1.279 . S
C565 C563 1.358 . S
C565 H607 0.930 . S
C566 C567 1.348 . S
C566 C568 1.356 . S
C566 O591 1.325 . S
C567 C566 1.348 . S
C567 C569 1.353 . S
C567 H608 0.929 . S
C568 C566 1.356 . S
C568 C570 1.358 . S
C568 H609 0.930 . S
C569 C567 1.353 . S
C569 N571 1.314 . S
C569 H610 0.930 . S
C570 C568 1.358 . S
C570 N571 1.279 . S
C570 H611 0.930 . S
N571 C569 1.314 . S
N571 C570 1.279 . S
C572 C574 1.353 . S
C572 N575 1.314 . S
C572 H578 0.930 . S
C573 N575 1.279 . S
C573 C576 1.358 . S
C573 H579 0.930 . S
C574 C572 1.353 . S
C574 C577 1.348 . S
C574 H612 0.929 . S
N575 Li530 1.990 . S
N575 C572 1.314 . S
N575 C573 1.279 . S
C576 C573 1.358 . S
C576 C577 1.356 . S
C576 H613 0.930 . S
C577 C574 1.348 . S
C577 C576 1.356 . S
H578 C572 0.930 . S
H579 C573 0.930 . S
C580 N581 1.314 . S
C580 C582 1.353 . S
C580 H586 0.930 . S
N581 Li531 1.990 . S
N581 C580 1.314 . S
N581 C584 1.279 . S
C582 C580 1.353 . S
C582 C585 1.348 . S
C582 H614 0.929 . S
C583 C584 1.358 . S
C583 C585 1.356 . S
C583 H615 0.930 . S
C584 N581 1.279 . S
C584 C583 1.358 . S
C584 H587 0.930 . S
C585 C582 1.348 . S
C585 C583 1.356 . S
H586 C580 0.930 . S
H587 C584 0.930 . S
O588 Li528 1.956 . S
O588 Li529 1.970 . S
O588 Li530 1.961 . S
O588 C532 1.325 . S
O589 Li528 1.970 . S
O589 Li529 1.956 . S
O589 Li531 1.961 . S
O589 C538 1.325 . S
O590 Li528 1.961 . S
O590 Li530 1.956 . S
O590 Li531 1.970 . S
O590 C560 1.325 . S
O591 Li529 1.961 . S
O591 Li530 1.970 . S
O591 Li531 1.956 . S
O591 C566 1.325 . S
H592 C534 0.929 . S
H593 C535 0.930 . S
H594 C536 0.930 . S
H595 C537 0.930 . S
H596 C539 0.930 . S
H597 C541 0.929 . S
H598 C542 0.930 . S
H599 C543 0.930 . S
H600 C546 0.930 . S
H601 C549 0.929 . S
H602 C554 0.929 . S
H603 C555 0.930 . S
H604 C562 0.929 . S
H605 C563 0.930 . S
H606 C564 0.930 . S
H607 C565 0.930 . S
H608 C567 0.929 . S
H609 C568 0.930 . S
H610 C569 0.930 . S
H611 C570 0.930 . S
H612 C574 0.929 . S
H613 C576 0.930 . S
H614 C582 0.929 . S
H615 C583 0.930 . S
Li616 N633 1.990 . S
Li616 O676 1.956 . S
Li616 O677 1.970 1_565 S
Li616 O678 1.961 1_565 S
Li617 N641 1.990 . S
Li617 O676 1.970 1_545 S
Li617 O677 1.956 . S
Li617 O679 1.961 . S
Li618 N663 1.990 1_455 S
Li618 O676 1.961 1_545 S
Li618 O678 1.956 . S
Li618 O679 1.970 . S
Li619 N669 1.990 . S
Li619 O677 1.961 . S
Li619 O678 1.970 . S
Li619 O679 1.956 . S
C620 C622 1.348 . S
C620 C623 1.356 1_455 S
C620 O676 1.325 . S
N621 C624 1.314 . S
N621 C625 1.279 . S
C622 C620 1.348 . S
C622 C624 1.353 1_455 S
C622 H680 0.929 . S
C623 C620 1.356 1_655 S
C623 C625 1.358 . S
C623 H681 0.930 . S
C624 N621 1.314 . S
C624 C622 1.353 1_655 S
C624 H682 0.930 . S
C625 N621 1.279 . S
C625 C623 1.358 . S
C625 H683 0.930 . S
C626 C629 1.348 1_545 S
C626 C630 1.356 . S
C626 O677 1.325 . S
C627 N628 1.279 1_545 S
C627 C630 1.358 . S
C627 H684 0.930 . S
N628 C627 1.279 1_565 S
N628 C631 1.314 . S
C629 C626 1.348 1_565 S
C629 C631 1.353 . S
C629 H685 0.929 . S
C630 C626 1.356 . S
C630 C627 1.358 . S
C630 H686 0.930 . S
C631 N628 1.314 . S
C631 C629 1.353 . S
C631 H687 0.930 . S
C632 N633 1.314 . S
C632 C637 1.353 . S
C632 H638 0.930 . S
N633 Li616 1.990 . S
N633 C632 1.314 . S
N633 C635 1.279 . S
C634 C635 1.358 . S
C634 C636 1.356 . S
C634 H688 0.930 . S
C635 N633 1.279 . S
C635 C634 1.358 . S
C635 H639 0.930 . S
C636 C634 1.356 . S
C636 C637 1.348 . S
C637 C632 1.353 . S
C637 C636 1.348 . S
C637 H689 0.929 . S
H638 C632 0.930 . S
H639 C635 0.930 . S
C640 N641 1.314 . S
C640 C642 1.353 . S
C640 H646 0.930 . S
N641 Li617 1.990 . S
N641 C640 1.314 . S
N641 C644 1.279 . S
C642 C640 1.353 . S
C642 C645 1.348 . S
C642 H690 0.929 1_455 S
C643 C644 1.358 1_565 S
C643 C645 1.356 1_565 S
C643 H691 0.930 . S
C644 N641 1.279 . S
C644 C643 1.358 1_545 S
C644 H647 0.930 1_545 S
C645 C642 1.348 . S
C645 C643 1.356 1_545 S
H646 C640 0.930 . S
H647 C644 0.930 1_565 S
C648 C650 1.348 . S
C648 C651 1.356 . S
C648 O678 1.325 . S
N649 C652 1.314 . S
N649 C653 1.279 . S
C650 C648 1.348 . S
C650 C652 1.353 . S
C650 H692 0.929 . S
C651 C648 1.356 . S
C651 C653 1.358 . S
C651 H693 0.930 1_545 S
C652 N649 1.314 . S
C652 C650 1.353 . S
C652 H694 0.930 . S
C653 N649 1.279 . S
C653 C651 1.358 . S
C653 H695 0.946 . S
C654 C655 1.348 . S
C654 C656 1.356 . S
C654 O679 1.325 . S
C655 C654 1.348 . S
C655 C657 1.353 1_455 S
C655 H696 0.929 1_455 S
C656 C654 1.356 . S
C656 C658 1.358 . S
C656 H697 0.930 . S
C657 C655 1.353 1_655 S
C657 N659 1.314 1_655 S
C657 H698 0.930 . S
C658 C656 1.358 . S
C658 N659 1.279 . S
C658 H699 0.930 . S
N659 C657 1.314 1_455 S
N659 C658 1.279 . S
C660 C662 1.353 . S
C660 N663 1.314 . S
C660 H666 0.930 . S
C661 N663 1.279 . S
C661 C664 1.358 . S
C661 H667 0.930 . S
C662 C660 1.353 . S
C662 C665 1.348 . S
C662 H700 0.929 . S
N663 Li618 1.990 1_655 S
N663 C660 1.314 . S
N663 C661 1.279 . S
C664 C661 1.358 . S
C664 C665 1.356 . S
C664 H701 0.930 . S
C665 C662 1.348 . S
C665 C664 1.356 . S
H666 C660 0.930 . S
H667 C661 0.930 . S
C668 N669 1.314 . S
C668 C670 1.353 . S
C668 H674 0.930 . S
N669 Li619 1.990 . S
N669 C668 1.314 . S
N669 C672 1.279 . S
C670 C668 1.353 . S
C670 C673 1.348 . S
C670 H702 0.929 . S
C671 C672 1.358 . S
C671 C673 1.356 . S
C671 H703 0.930 . S
C672 N669 1.279 . S
C672 C671 1.358 . S
C672 H675 0.930 . S
C673 C670 1.348 . S
C673 C671 1.356 . S
H674 C668 0.930 . S
H675 C672 0.930 . S
O676 Li616 1.956 . S
O676 Li617 1.970 1_565 S
O676 Li618 1.961 1_565 S
O676 C620 1.325 . S
O677 Li616 1.970 1_545 S
O677 Li617 1.956 . S
O677 Li619 1.961 . S
O677 C626 1.325 . S
O678 Li616 1.961 1_545 S
O678 Li618 1.956 . S
O678 Li619 1.970 . S
O678 C648 1.325 . S
O679 Li617 1.961 . S
O679 Li618 1.970 . S
O679 Li619 1.956 . S
O679 C654 1.325 . S
H680 C622 0.929 . S
H681 C623 0.930 . S
H682 C624 0.930 . S
H683 C625 0.930 . S
H684 C627 0.930 . S
H685 C629 0.929 . S
H686 C630 0.930 . S
H687 C631 0.930 . S
H688 C634 0.930 . S
H689 C637 0.929 . S
H690 C642 0.929 1_655 S
H691 C643 0.930 . S
H692 C650 0.929 . S
H693 C651 0.930 1_565 S
H694 C652 0.930 . S
H695 C653 0.946 . S
H696 C655 0.929 1_655 S
H697 C656 0.930 . S
H698 C657 0.930 . S
H699 C658 0.930 . S
H700 C662 0.929 . S
H701 C664 0.930 . S
H702 C670 0.929 . S
H703 C671 0.930 . S
Li704 N721 1.990 . S
Li704 O764 1.956 . S
Li704 O765 1.970 . S
Li704 O766 1.961 . S
Li705 N729 1.990 . S
Li705 O764 1.970 . S
Li705 O765 1.956 . S
Li705 O767 1.961 . S
Li706 N751 1.990 . S
Li706 O764 1.961 . S
Li706 O766 1.956 . S
Li706 O767 1.970 . S
Li707 N757 1.990 . S
Li707 O765 1.961 . S
Li707 O766 1.970 . S
Li707 O767 1.956 . S
C708 C710 1.348 . S
C708 C711 1.356 . S
C708 O764 1.325 . S
N709 C712 1.314 . S
N709 C713 1.279 . S
C710 C708 1.348 . S
C710 C712 1.353 . S
C710 H768 0.929 . S
C711 C708 1.356 . S
C711 C713 1.358 . S
C711 H769 0.930 . S
C712 N709 1.314 . S
C712 C710 1.353 . S
C712 H770 0.930 . S
C713 N709 1.279 . S
C713 C711 1.358 . S
C713 H771 0.930 . S
C714 C717 1.348 . S
C714 C718 1.356 . S
C714 O765 1.325 . S
C715 N716 1.279 . S
C715 C718 1.358 . S
C715 H772 0.930 . S
N716 C715 1.279 . S
N716 C719 1.314 . S
C717 C714 1.348 . S
C717 C719 1.353 . S
C717 H773 0.929 . S
C718 C714 1.356 . S
C718 C715 1.358 . S
C718 H774 0.930 . S
C719 N716 1.314 . S
C719 C717 1.353 . S
C719 H775 0.930 . S
C720 N721 1.314 . S
C720 C725 1.353 . S
C720 H726 0.930 . S
N721 Li704 1.990 . S
N721 C720 1.314 . S
N721 C723 1.279 . S
C722 C723 1.358 . S
C722 C724 1.356 . S
C722 H776 0.930 . S
C723 N721 1.279 . S
C723 C722 1.358 . S
C723 H727 0.930 . S
C724 C722 1.356 . S
C724 C725 1.348 . S
C725 C720 1.353 . S
C725 C724 1.348 . S
C725 H777 0.929 . S
H726 C720 0.930 . S
H727 C723 0.930 . S
C728 N729 1.314 . S
C728 C730 1.353 . S
C728 H734 0.930 . S
N729 Li705 1.990 . S
N729 C728 1.314 . S
N729 C732 1.279 . S
C730 C728 1.353 . S
C730 C733 1.348 . S
C730 H778 0.929 . S
C731 C732 1.358 . S
C731 C733 1.356 . S
C731 H779 0.930 . S
C732 N729 1.279 . S
C732 C731 1.358 . S
C732 H735 0.930 . S
C733 C730 1.348 . S
C733 C731 1.356 . S
H734 C728 0.930 . S
H735 C732 0.930 . S
C736 C738 1.348 . S
C736 C739 1.356 . S
C736 O766 1.325 . S
N737 C740 1.314 . S
N737 C741 1.279 . S
C738 C736 1.348 . S
C738 C740 1.353 . S
C738 H780 0.929 . S
C739 C736 1.356 . S
C739 C741 1.358 . S
C739 H781 0.930 . S
C740 N737 1.314 . S
C740 C738 1.353 . S
C740 H782 0.930 . S
C741 N737 1.279 . S
C741 C739 1.358 . S
C741 H783 0.930 . S
C742 C743 1.348 . S
C742 C744 1.356 . S
C742 O767 1.325 . S
C743 C742 1.348 . S
C743 C745 1.353 . S
C743 H784 0.929 . S
C744 C742 1.356 . S
C744 C746 1.358 . S
C744 H785 0.930 . S
C745 C743 1.353 . S
C745 N747 1.314 . S
C745 H786 0.930 . S
C746 C744 1.358 . S
C746 N747 1.279 . S
C746 H787 0.930 . S
N747 C745 1.314 . S
N747 C746 1.279 . S
C748 C750 1.353 . S
C748 N751 1.314 . S
C748 H754 0.930 . S
C749 N751 1.279 . S
C749 C752 1.358 . S
C749 H755 0.930 . S
C750 C748 1.353 . S
C750 C753 1.348 . S
C750 H788 0.929 . S
N751 Li706 1.990 . S
N751 C748 1.314 . S
N751 C749 1.279 . S
C752 C749 1.358 . S
C752 C753 1.356 . S
C752 H789 0.930 . S
C753 C750 1.348 . S
C753 C752 1.356 . S
H754 C748 0.930 . S
H755 C749 0.930 . S
C756 N757 1.314 . S
C756 C758 1.353 . S
C756 H762 0.930 . S
N757 Li707 1.990 . S
N757 C756 1.314 . S
N757 C760 1.279 . S
C758 C756 1.353 . S
C758 C761 1.348 . S
C758 H790 0.929 . S
C759 C760 1.358 . S
C759 C761 1.356 . S
C759 H791 0.930 . S
C760 N757 1.279 . S
C760 C759 1.358 . S
C760 H763 0.930 . S
C761 C758 1.348 . S
C761 C759 1.356 . S
H762 C756 0.930 . S
H763 C760 0.930 . S
O764 Li704 1.956 . S
O764 Li705 1.970 . S
O764 Li706 1.961 . S
O764 C708 1.325 . S
O765 Li704 1.970 . S
O765 Li705 1.956 . S
O765 Li707 1.961 . S
O765 C714 1.325 . S
O766 Li704 1.961 . S
O766 Li706 1.956 . S
O766 Li707 1.970 . S
O766 C736 1.325 . S
O767 Li705 1.961 . S
O767 Li706 1.970 . S
O767 Li707 1.956 . S
O767 C742 1.325 . S
H768 C710 0.929 . S
H769 C711 0.930 . S
H770 C712 0.930 . S
H771 C713 0.930 . S
H772 C715 0.930 . S
H773 C717 0.929 . S
H774 C718 0.930 . S
H775 C719 0.930 . S
H776 C722 0.930 . S
H777 C725 0.929 . S
H778 C730 0.929 . S
H779 C731 0.930 . S
H780 C738 0.929 . S
H781 C739 0.930 . S
H782 C740 0.930 . S
H783 C741 0.930 . S
H784 C743 0.929 . S
H785 C744 0.930 . S
H786 C745 0.930 . S
H787 C746 0.930 . S
H788 C750 0.929 . S
H789 C752 0.930 . S
H790 C758 0.929 . S
H791 C759 0.930 . S
Li792 N809 1.990 1_655 S
Li792 O852 1.956 1_545 S
Li792 O853 1.970 . S
Li792 O854 1.961 . S
Li793 N817 1.990 . S
Li793 O852 1.970 1_545 S
Li793 O853 1.956 . S
Li793 O855 1.961 . S
Li794 N839 1.990 . S
Li794 O852 1.961 . S
Li794 O854 1.956 1_565 S
Li794 O855 1.970 1_565 S
Li795 N845 1.990 . S
Li795 O853 1.961 . S
Li795 O854 1.970 . S
Li795 O855 1.956 . S
C796 C798 1.348 1_655 S
C796 C799 1.359 . S
C796 O852 1.325 . S
N797 C800 1.314 . S
N797 C801 1.279 . S
C798 C796 1.348 1_455 S
C798 C800 1.353 . S
C798 H856 0.929 . S
C799 C796 1.359 . S
C799 C801 1.352 1_655 S
C799 H857 0.934 . S
C800 N797 1.314 . S
C800 C798 1.353 . S
C800 H858 0.930 . S
C801 N797 1.279 . S
C801 C799 1.352 1_455 S
C801 H859 0.930 . S
C802 C805 1.348 1_655 S
C802 C806 1.356 . S
C802 O853 1.325 . S
C803 N804 1.298 . S
C803 C806 1.358 . S
C803 H860 0.930 . S
N804 C803 1.298 . S
N804 C807 1.304 1_655 S
C805 C802 1.348 1_455 S
C805 C807 1.353 . S
C805 H861 0.929 . S
C806 C802 1.356 . S
C806 C803 1.358 . S
C806 H862 0.930 . S
C807 N804 1.304 1_455 S
C807 C805 1.353 . S
C807 H863 0.930 . S
C808 N809 1.314 . S
C808 C813 1.353 . S
C808 H814 0.930 . S
N809 Li792 1.990 1_455 S
N809 C808 1.314 . S
N809 C811 1.279 . S
C810 C811 1.358 . S
C810 C812 1.356 . S
C810 H864 0.930 . S
C811 N809 1.279 . S
C811 C810 1.358 . S
C811 H815 0.930 . S
C812 C810 1.356 . S
C812 C813 1.348 . S
C813 C808 1.353 . S
C813 C812 1.348 . S
C813 H865 0.929 . S
H814 C808 0.930 . S
H815 C811 0.930 . S
C816 N817 1.314 1_565 S
C816 C818 1.353 . S
C816 H822 0.930 . S
N817 Li793 1.990 . S
N817 C816 1.314 1_545 S
N817 C820 1.279 . S
C818 C816 1.353 . S
C818 C821 1.348 1_565 S
C818 H866 0.929 . S
C819 C820 1.358 . S
C819 C821 1.356 . S
C819 H867 0.930 . S
C820 N817 1.279 . S
C820 C819 1.358 . S
C820 H823 0.930 . S
C821 C818 1.348 1_545 S
C821 C819 1.356 . S
H822 C816 0.930 . S
H823 C820 0.930 . S
C824 C826 1.348 . S
C824 C827 1.356 . S
C824 O854 1.325 . S
N825 C828 1.314 . S
N825 C829 1.279 . S
C826 C824 1.348 . S
C826 C828 1.353 . S
C826 H868 0.929 . S
C827 C824 1.356 . S
C827 C829 1.358 . S
C827 H869 0.930 . S
C828 N825 1.314 . S
C828 C826 1.353 . S
C828 H870 0.930 . S
C829 N825 1.279 . S
C829 C827 1.358 . S
C829 H871 0.930 . S
C830 C831 1.348 1_545 S
C830 C832 1.356 . S
C830 O855 1.325 . S
C831 C830 1.348 1_565 S
C831 C833 1.353 . S
C831 H872 0.929 . S
C832 C830 1.356 . S
C832 C834 1.358 . S
C832 H873 0.930 . S
C833 C831 1.353 . S
C833 N835 1.312 1_565 S
C833 H874 0.930 . S
C834 C832 1.358 . S
C834 N835 1.283 . S
C834 H875 0.930 . S
N835 C833 1.312 1_545 S
N835 C834 1.283 . S
C836 C838 1.353 . S
C836 N839 1.314 . S
C836 H842 0.930 . S
C837 N839 1.279 . S
C837 C840 1.358 . S
C837 H843 0.930 . S
C838 C836 1.353 . S
C838 C841 1.348 . S
C838 H876 0.929 . S
N839 Li794 1.990 . S
N839 C836 1.314 . S
N839 C837 1.279 . S
C840 C837 1.358 . S
C840 C841 1.356 . S
C840 H877 0.930 . S
C841 C838 1.348 . S
C841 C840 1.356 . S
H842 C836 0.930 . S
H843 C837 0.930 . S
C844 N845 1.314 . S
C844 C846 1.353 . S
C844 H850 0.930 . S
N845 Li795 1.990 . S
N845 C844 1.314 . S
N845 C848 1.279 . S
C846 C844 1.353 . S
C846 C849 1.348 . S
C846 H878 0.929 . S
C847 C848 1.358 . S
C847 C849 1.356 . S
C847 H879 0.930 . S
C848 N845 1.279 . S
C848 C847 1.358 . S
C848 H851 0.930 . S
C849 C846 1.348 . S
C849 C847 1.356 . S
H850 C844 0.930 . S
H851 C848 0.930 . S
O852 Li792 1.956 1_565 S
O852 Li793 1.970 1_565 S
O852 Li794 1.961 . S
O852 C796 1.325 . S
O853 Li792 1.970 . S
O853 Li793 1.956 . S
O853 Li795 1.961 . S
O853 C802 1.325 . S
O854 Li792 1.961 . S
O854 Li794 1.956 1_545 S
O854 Li795 1.970 . S
O854 C824 1.325 . S
O855 Li793 1.961 . S
O855 Li794 1.970 1_545 S
O855 Li795 1.956 . S
O855 C830 1.325 . S
H856 C798 0.929 . S
H857 C799 0.934 . S
H858 C800 0.930 . S
H859 C801 0.930 . S
H860 C803 0.930 . S
H861 C805 0.929 . S
H862 C806 0.930 . S
H863 C807 0.930 . S
H864 C810 0.930 . S
H865 C813 0.929 . S
H866 C818 0.929 . S
H867 C819 0.930 . S
H868 C826 0.929 . S
H869 C827 0.930 . S
H870 C828 0.930 . S
H871 C829 0.930 . S
H872 C831 0.929 . S
H873 C832 0.930 . S
H874 C833 0.930 . S
H875 C834 0.930 . S
H876 C838 0.929 . S
H877 C840 0.930 . S
H878 C846 0.929 . S
H879 C847 0.930 . S
Li880 N897 1.990 . S
Li880 O940 1.956 . S
Li880 O941 1.970 . S
Li880 O942 1.961 . S
Li881 N905 1.990 . S
Li881 O940 1.970 . S
Li881 O941 1.956 . S
Li881 O943 1.961 . S
Li882 N927 1.990 . S
Li882 O940 1.961 . S
Li882 O942 1.956 . S
Li882 O943 1.970 . S
Li883 N933 1.990 . S
Li883 O941 1.961 . S
Li883 O942 1.970 . S
Li883 O943 1.956 . S
C884 C886 1.348 . S
C884 C887 1.356 . S
C884 O940 1.325 . S
N885 C888 1.314 . S
N885 C889 1.279 . S
C886 C884 1.348 . S
C886 C888 1.353 . S
C886 H944 0.929 . S
C887 C884 1.356 . S
C887 C889 1.358 . S
C887 H945 0.930 . S
C888 N885 1.314 . S
C888 C886 1.353 . S
C888 H946 0.930 . S
C889 N885 1.279 . S
C889 C887 1.358 . S
C889 H947 0.930 . S
C890 C893 1.348 . S
C890 C894 1.356 . S
C890 O941 1.325 . S
C891 N892 1.279 . S
C891 C894 1.358 . S
C891 H948 0.930 . S
N892 C891 1.279 . S
N892 C895 1.314 . S
C893 C890 1.348 . S
C893 C895 1.353 . S
C893 H949 0.929 . S
C894 C890 1.356 . S
C894 C891 1.358 . S
C894 H950 0.930 . S
C895 N892 1.314 . S
C895 C893 1.353 . S
C895 H951 0.930 . S
C896 N897 1.314 . S
C896 C901 1.353 . S
C896 H902 0.930 . S
N897 Li880 1.990 . S
N897 C896 1.314 . S
N897 C899 1.279 . S
C898 C899 1.358 . S
C898 C900 1.356 . S
C898 H952 0.930 . S
C899 N897 1.279 . S
C899 C898 1.358 . S
C899 H903 0.930 . S
C900 C898 1.356 . S
C900 C901 1.348 . S
C901 C896 1.353 . S
C901 C900 1.348 . S
C901 H953 0.929 . S
H902 C896 0.930 . S
H903 C899 0.930 . S
C904 N905 1.314 . S
C904 C906 1.353 . S
C904 H910 0.930 . S
N905 Li881 1.990 . S
N905 C904 1.314 . S
N905 C908 1.279 . S
C906 C904 1.353 . S
C906 C909 1.348 . S
C906 H954 0.929 . S
C907 C908 1.358 . S
C907 C909 1.356 . S
C907 H955 0.930 . S
C908 N905 1.279 . S
C908 C907 1.358 . S
C908 H911 0.930 . S
C909 C906 1.348 . S
C909 C907 1.356 . S
H910 C904 0.930 . S
H911 C908 0.930 . S
C912 C914 1.348 . S
C912 C915 1.356 . S
C912 O942 1.325 . S
N913 C916 1.314 . S
N913 C917 1.279 . S
C914 C912 1.348 . S
C914 C916 1.353 . S
C914 H956 0.929 . S
C915 C912 1.356 . S
C915 C917 1.358 . S
C915 H957 0.930 . S
C916 N913 1.314 . S
C916 C914 1.353 . S
C916 H958 0.930 . S
C917 N913 1.279 . S
C917 C915 1.358 . S
C917 H959 0.930 . S
C918 C919 1.348 . S
C918 C920 1.356 . S
C918 O943 1.325 . S
C919 C918 1.348 . S
C919 C921 1.353 . S
C919 H960 0.929 . S
C920 C918 1.356 . S
C920 C922 1.358 . S
C920 H961 0.930 . S
C921 C919 1.353 . S
C921 N923 1.314 . S
C921 H962 0.930 . S
C922 C920 1.358 . S
C922 N923 1.279 . S
C922 H963 0.930 . S
N923 C921 1.314 . S
N923 C922 1.279 . S
C924 C926 1.353 . S
C924 N927 1.314 . S
C924 H930 0.930 . S
C925 N927 1.279 . S
C925 C928 1.358 . S
C925 H931 0.930 . S
C926 C924 1.353 . S
C926 C929 1.348 . S
C926 H964 0.929 . S
N927 Li882 1.990 . S
N927 C924 1.314 . S
N927 C925 1.279 . S
C928 C925 1.358 . S
C928 C929 1.356 . S
C928 H965 0.930 . S
C929 C926 1.348 . S
C929 C928 1.356 . S
H930 C924 0.930 . S
H931 C925 0.930 . S
C932 N933 1.314 . S
C932 C934 1.353 . S
C932 H938 0.930 . S
N933 Li883 1.990 . S
N933 C932 1.314 . S
N933 C936 1.279 . S
C934 C932 1.353 . S
C934 C937 1.348 . S
C934 H966 0.929 . S
C935 C936 1.358 . S
C935 C937 1.356 . S
C935 H967 0.930 . S
C936 N933 1.279 . S
C936 C935 1.358 . S
C936 H939 0.930 . S
C937 C934 1.348 . S
C937 C935 1.356 . S
H938 C932 0.930 . S
H939 C936 0.930 . S
O940 Li880 1.956 . S
O940 Li881 1.970 . S
O940 Li882 1.961 . S
O940 C884 1.325 . S
O941 Li880 1.970 . S
O941 Li881 1.956 . S
O941 Li883 1.961 . S
O941 C890 1.325 . S
O942 Li880 1.961 . S
O942 Li882 1.956 . S
O942 Li883 1.970 . S
O942 C912 1.325 . S
O943 Li881 1.961 . S
O943 Li882 1.970 . S
O943 Li883 1.956 . S
O943 C918 1.325 . S
H944 C886 0.929 . S
H945 C887 0.930 . S
H946 C888 0.930 . S
H947 C889 0.930 . S
H948 C891 0.930 . S
H949 C893 0.929 . S
H950 C894 0.930 . S
H951 C895 0.930 . S
H952 C898 0.930 . S
H953 C901 0.929 . S
H954 C906 0.929 . S
H955 C907 0.930 . S
H956 C914 0.929 . S
H957 C915 0.930 . S
H958 C916 0.930 . S
H959 C917 0.930 . S
H960 C919 0.929 . S
H961 C920 0.930 . S
H962 C921 0.930 . S
H963 C922 0.930 . S
H964 C926 0.929 . S
H965 C928 0.930 . S
H966 C934 0.929 . S
H967 C935 0.930 . S
Li968 N985 1.990 . S
Li968 O1028 1.956 1_565 S
Li968 O1029 1.970 . S
Li968 O1030 1.961 . S
Li969 N993 1.990 . S
Li969 O1028 1.970 1_565 S
Li969 O1029 1.956 . S
Li969 O1031 1.961 . S
Li970 N1015 1.990 . S
Li970 O1028 1.961 . S
Li970 O1030 1.956 1_545 S
Li970 O1031 1.970 1_545 S
Li971 N1021 1.990 . S
Li971 O1029 1.961 . S
Li971 O1030 1.970 . S
Li971 O1031 1.956 . S
C972 C974 1.348 . S
C972 C975 1.356 . S
C972 O1028 1.325 . S
N973 C976 1.314 . S
N973 C977 1.279 . S
C974 C972 1.348 . S
C974 C976 1.353 . S
C974 H1032 0.929 . S
C975 C972 1.356 . S
C975 C977 1.358 . S
C975 H1033 0.930 . S
C976 N973 1.314 . S
C976 C974 1.353 . S
C976 H1034 0.930 . S
C977 N973 1.279 . S
C977 C975 1.358 . S
C977 H1035 0.930 . S
C978 C981 1.348 . S
C978 C982 1.356 . S
C978 O1029 1.325 . S
C979 N980 1.279 . S
C979 C982 1.358 . S
C979 H1036 0.930 . S
N980 C979 1.279 . S
N980 C983 1.314 . S
C981 C978 1.348 . S
C981 C983 1.353 . S
C981 H1037 0.929 . S
C982 C978 1.356 . S
C982 C979 1.358 . S
C982 H1038 0.930 . S
C983 N980 1.314 . S
C983 C981 1.353 . S
C983 H1039 0.930 . S
C984 N985 1.314 . S
C984 C989 1.353 . S
C984 H990 0.930 . S
N985 Li968 1.990 . S
N985 C984 1.314 . S
N985 C987 1.279 . S
C986 C987 1.358 . S
C986 C988 1.356 . S
C986 H1040 0.930 . S
C987 N985 1.279 . S
C987 C986 1.358 . S
C987 H991 0.930 . S
C988 C986 1.356 . S
C988 C989 1.348 . S
C989 C984 1.353 . S
C989 C988 1.348 . S
C989 H1041 0.929 . S
H990 C984 0.930 . S
H991 C987 0.930 . S
C992 N993 1.314 1_545 S
C992 C994 1.353 . S
C992 H998 0.930 . S
N993 Li969 1.990 . S
N993 C992 1.314 1_565 S
N993 C996 1.279 . S
C994 C992 1.353 . S
C994 C997 1.348 1_545 S
C994 H1042 0.929 . S
C995 C996 1.358 . S
C995 C997 1.356 . S
C995 H1043 0.930 . S
C996 N993 1.279 . S
C996 C995 1.358 . S
C996 H999 0.930 . S
C997 C994 1.348 1_565 S
C997 C995 1.356 . S
H998 C992 0.930 . S
H999 C996 0.930 . S
C1000 C1002 1.348 . S
C1000 C1003 1.356 . S
C1000 O1030 1.325 . S
N1001 C1004 1.314 . S
N1001 C1005 1.279 . S
C1002 C1000 1.348 . S
C1002 C1004 1.353 . S
C1002 H1044 0.929 . S
C1003 C1000 1.356 . S
C1003 C1005 1.358 . S
C1003 H1045 0.930 . S
C1004 N1001 1.314 . S
C1004 C1002 1.353 . S
C1004 H1046 0.930 . S
C1005 N1001 1.279 . S
C1005 C1003 1.358 . S
C1005 H1047 0.930 . S
C1006 C1007 1.348 1_565 S
C1006 C1008 1.356 . S
C1006 O1031 1.325 . S
C1007 C1006 1.348 1_545 S
C1007 C1009 1.353 . S
C1007 H1048 0.929 . S
C1008 C1006 1.356 . S
C1008 C1010 1.358 . S
C1008 H1049 0.930 . S
C1009 C1007 1.353 . S
C1009 N1011 1.312 1_545 S
C1009 H1050 0.930 . S
C1010 C1008 1.358 . S
C1010 N1011 1.283 . S
C1010 H1051 0.930 . S
N1011 C1009 1.312 1_565 S
N1011 C1010 1.283 . S
C1012 C1014 1.353 . S
C1012 N1015 1.314 . S
C1012 H1018 0.930 . S
C1013 N1015 1.279 . S
C1013 C1016 1.358 . S
C1013 H1019 0.930 . S
C1014 C1012 1.353 . S
C1014 C1017 1.348 . S
C1014 H1052 0.929 . S
N1015 Li970 1.990 . S
N1015 C1012 1.314 . S
N1015 C1013 1.279 . S
C1016 C1013 1.358 . S
C1016 C1017 1.356 . S
C1016 H1053 0.930 . S
C1017 C1014 1.348 . S
C1017 C1016 1.356 . S
H1018 C1012 0.930 . S
H1019 C1013 0.930 . S
C1020 N1021 1.314 . S
C1020 C1022 1.353 . S
C1020 H1026 0.930 . S
N1021 Li971 1.990 . S
N1021 C1020 1.314 . S
N1021 C1024 1.279 . S
C1022 C1020 1.353 . S
C1022 C1025 1.348 . S
C1022 H1054 0.929 . S
C1023 C1024 1.358 . S
C1023 C1025 1.356 . S
C1023 H1055 0.930 . S
C1024 N1021 1.279 . S
C1024 C1023 1.358 . S
C1024 H1027 0.930 . S
C1025 C1022 1.348 . S
C1025 C1023 1.356 . S
H1026 C1020 0.930 . S
H1027 C1024 0.930 . S
O1028 Li968 1.956 1_545 S
O1028 Li969 1.970 1_545 S
O1028 Li970 1.961 . S
O1028 C972 1.325 . S
O1029 Li968 1.970 . S
O1029 Li969 1.956 . S
O1029 Li971 1.961 . S
O1029 C978 1.325 . S
O1030 Li968 1.961 . S
O1030 Li970 1.956 1_565 S
O1030 Li971 1.970 . S
O1030 C1000 1.325 . S
O1031 Li969 1.961 . S
O1031 Li970 1.970 1_565 S
O1031 Li971 1.956 . S
O1031 C1006 1.325 . S
H1032 C974 0.929 . S
H1033 C975 0.930 . S
H1034 C976 0.930 . S
H1035 C977 0.930 . S
H1036 C979 0.930 . S
H1037 C981 0.929 . S
H1038 C982 0.930 . S
H1039 C983 0.930 . S
H1040 C986 0.930 . S
H1041 C989 0.929 . S
H1042 C994 0.929 . S
H1043 C995 0.930 . S
H1044 C1002 0.929 . S
H1045 C1003 0.930 . S
H1046 C1004 0.930 . S
H1047 C1005 0.930 . S
H1048 C1007 0.929 . S
H1049 C1008 0.930 . S
H1050 C1009 0.930 . S
H1051 C1010 0.930 . S
H1052 C1014 0.929 . S
H1053 C1016 0.930 . S
H1054 C1022 0.929 . S
H1055 C1023 0.930 . S
Li1056 N1073 1.990 . S
Li1056 O1116 1.956 . S
Li1056 O1117 1.970 . S
Li1056 O1118 1.961 . S
Li1057 N1081 1.990 . S
Li1057 O1116 1.970 . S
Li1057 O1117 1.956 . S
Li1057 O1119 1.961 . S
Li1058 N1103 1.990 . S
Li1058 O1116 1.961 . S
Li1058 O1118 1.956 . S
Li1058 O1119 1.970 . S
Li1059 N1109 1.990 . S
Li1059 O1117 1.961 . S
Li1059 O1118 1.970 . S
Li1059 O1119 1.956 . S
C1060 C1062 1.348 . S
C1060 C1063 1.356 . S
C1060 O1116 1.325 . S
N1061 C1064 1.314 . S
N1061 C1065 1.279 . S
C1062 C1060 1.348 . S
C1062 C1064 1.353 . S
C1062 H1120 0.929 . S
C1063 C1060 1.356 . S
C1063 C1065 1.358 . S
C1063 H1121 0.930 . S
C1064 N1061 1.314 . S
C1064 C1062 1.353 . S
C1064 H1122 0.930 . S
C1065 N1061 1.279 . S
C1065 C1063 1.358 . S
C1065 H1123 0.930 . S
C1066 C1069 1.348 . S
C1066 C1070 1.356 . S
C1066 O1117 1.325 . S
C1067 N1068 1.279 . S
C1067 C1070 1.358 . S
C1067 H1124 0.930 . S
N1068 C1067 1.279 . S
N1068 C1071 1.314 . S
C1069 C1066 1.348 . S
C1069 C1071 1.353 . S
C1069 H1125 0.929 . S
C1070 C1066 1.356 . S
C1070 C1067 1.358 . S
C1070 H1126 0.930 . S
C1071 N1068 1.314 . S
C1071 C1069 1.353 . S
C1071 H1127 0.930 . S
C1072 N1073 1.314 . S
C1072 C1077 1.353 . S
C1072 H1078 0.930 . S
N1073 Li1056 1.990 . S
N1073 C1072 1.314 . S
N1073 C1075 1.279 . S
C1074 C1075 1.358 . S
C1074 C1076 1.356 . S
C1074 H1128 0.930 . S
C1075 N1073 1.279 . S
C1075 C1074 1.358 . S
C1075 H1079 0.930 . S
C1076 C1074 1.356 . S
C1076 C1077 1.348 . S
C1077 C1072 1.353 . S
C1077 C1076 1.348 . S
C1077 H1129 0.929 . S
H1078 C1072 0.930 . S
H1079 C1075 0.930 . S
C1080 N1081 1.314 . S
C1080 C1082 1.353 . S
C1080 H1086 0.930 . S
N1081 Li1057 1.990 . S
N1081 C1080 1.314 . S
N1081 C1084 1.279 . S
C1082 C1080 1.353 . S
C1082 C1085 1.348 . S
C1082 H1130 0.929 . S
C1083 C1084 1.358 . S
C1083 C1085 1.356 . S
C1083 H1131 0.930 . S
C1084 N1081 1.279 . S
C1084 C1083 1.358 . S
C1084 H1087 0.930 . S
C1085 C1082 1.348 . S
C1085 C1083 1.356 . S
H1086 C1080 0.930 . S
H1087 C1084 0.930 . S
C1088 C1090 1.348 . S
C1088 C1091 1.356 . S
C1088 O1118 1.325 . S
N1089 C1092 1.314 . S
N1089 C1093 1.279 . S
C1090 C1088 1.348 . S
C1090 C1092 1.353 . S
C1090 H1132 0.929 . S
C1091 C1088 1.356 . S
C1091 C1093 1.358 . S
C1091 H1133 0.930 . S
C1092 N1089 1.314 . S
C1092 C1090 1.353 . S
C1092 H1134 0.930 . S
C1093 N1089 1.279 . S
C1093 C1091 1.358 . S
C1093 H1135 0.930 . S
C1094 C1095 1.348 . S
C1094 C1096 1.356 . S
C1094 O1119 1.325 . S
C1095 C1094 1.348 . S
C1095 C1097 1.353 . S
C1095 H1136 0.929 . S
C1096 C1094 1.356 . S
C1096 C1098 1.358 . S
C1096 H1137 0.930 . S
C1097 C1095 1.353 . S
C1097 N1099 1.314 . S
C1097 H1138 0.930 . S
C1098 C1096 1.358 . S
C1098 N1099 1.279 . S
C1098 H1139 0.930 . S
N1099 C1097 1.314 . S
N1099 C1098 1.279 . S
C1100 C1102 1.353 . S
C1100 N1103 1.314 . S
C1100 H1106 0.930 . S
C1101 N1103 1.279 . S
C1101 C1104 1.358 . S
C1101 H1107 0.930 . S
C1102 C1100 1.353 . S
C1102 C1105 1.348 . S
C1102 H1140 0.929 . S
N1103 Li1058 1.990 . S
N1103 C1100 1.314 . S
N1103 C1101 1.279 . S
C1104 C1101 1.358 . S
C1104 C1105 1.356 . S
C1104 H1141 0.930 . S
C1105 C1102 1.348 . S
C1105 C1104 1.356 . S
H1106 C1100 0.930 . S
H1107 C1101 0.930 . S
C1108 N1109 1.314 . S
C1108 C1110 1.353 . S
C1108 H1114 0.930 . S
N1109 Li1059 1.990 . S
N1109 C1108 1.314 . S
N1109 C1112 1.279 . S
C1110 C1108 1.353 . S
C1110 C1113 1.348 . S
C1110 H1142 0.929 . S
C1111 C1112 1.358 . S
C1111 C1113 1.356 . S
C1111 H1143 0.930 . S
C1112 N1109 1.279 . S
C1112 C1111 1.358 . S
C1112 H1115 0.930 . S
C1113 C1110 1.348 . S
C1113 C1111 1.356 . S
H1114 C1108 0.930 . S
H1115 C1112 0.930 . S
O1116 Li1056 1.956 . S
O1116 Li1057 1.970 . S
O1116 Li1058 1.961 . S
O1116 C1060 1.325 . S
O1117 Li1056 1.970 . S
O1117 Li1057 1.956 . S
O1117 Li1059 1.961 . S
O1117 C1066 1.325 . S
O1118 Li1056 1.961 . S
O1118 Li1058 1.956 . S
O1118 Li1059 1.970 . S
O1118 C1088 1.325 . S
O1119 Li1057 1.961 . S
O1119 Li1058 1.970 . S
O1119 Li1059 1.956 . S
O1119 C1094 1.325 . S
H1120 C1062 0.929 . S
H1121 C1063 0.930 . S
H1122 C1064 0.930 . S
H1123 C1065 0.930 . S
H1124 C1067 0.930 . S
H1125 C1069 0.929 . S
H1126 C1070 0.930 . S
H1127 C1071 0.930 . S
H1128 C1074 0.930 . S
H1129 C1077 0.929 . S
H1130 C1082 0.929 . S
H1131 C1083 0.930 . S
H1132 C1090 0.929 . S
H1133 C1091 0.930 . S
H1134 C1092 0.930 . S
H1135 C1093 0.930 . S
H1136 C1095 0.929 . S
H1137 C1096 0.930 . S
H1138 C1097 0.930 . S
H1139 C1098 0.930 . S
H1140 C1102 0.929 . S
H1141 C1104 0.930 . S
H1142 C1110 0.929 . S
H1143 C1111 0.930 . S
Li1144 N1161 1.990 . S
Li1144 O1204 1.956 . S
Li1144 O1205 1.970 . S
Li1144 O1206 1.961 . S
Li1145 N1169 1.990 . S
Li1145 O1204 1.970 1_565 S
Li1145 O1205 1.956 1_565 S
Li1145 O1207 1.961 . S
Li1146 N1191 1.990 . S
Li1146 O1204 1.961 . S
Li1146 O1206 1.956 . S
Li1146 O1207 1.970 1_545 S
Li1147 N1197 1.990 . S
Li1147 O1205 1.961 . S
Li1147 O1206 1.970 . S
Li1147 O1207 1.956 1_545 S
C1148 C1150 1.348 1_545 S
C1148 C1151 1.356 . S
C1148 O1204 1.325 . S
N1149 C1152 1.312 1_545 S
N1149 C1153 1.283 . S
C1150 C1148 1.348 1_565 S
C1150 C1152 1.353 . S
C1150 H1208 0.929 . S
C1151 C1148 1.356 . S
C1151 C1153 1.358 . S
C1151 H1209 0.930 . S
C1152 N1149 1.312 1_565 S
C1152 C1150 1.353 . S
C1152 H1210 0.930 . S
C1153 N1149 1.283 . S
C1153 C1151 1.358 . S
C1153 H1211 0.930 . S
C1154 C1157 1.348 . S
C1154 C1158 1.356 . S
C1154 O1205 1.325 . S
C1155 N1156 1.279 . S
C1155 C1158 1.358 . S
C1155 H1212 0.930 . S
N1156 C1155 1.279 . S
N1156 C1159 1.314 . S
C1157 C1154 1.348 . S
C1157 C1159 1.353 . S
C1157 H1213 0.929 . S
C1158 C1154 1.356 . S
C1158 C1155 1.358 . S
C1158 H1214 0.930 . S
C1159 N1156 1.314 . S
C1159 C1157 1.353 . S
C1159 H1215 0.930 . S
C1160 N1161 1.314 . S
C1160 C1165 1.353 . S
C1160 H1166 0.930 . S
N1161 Li1144 1.990 . S
N1161 C1160 1.314 . S
N1161 C1163 1.279 . S
C1162 C1163 1.358 . S
C1162 C1164 1.356 . S
C1162 H1216 0.930 . S
C1163 N1161 1.279 . S
C1163 C1162 1.358 . S
C1163 H1167 0.930 . S
C1164 C1162 1.356 . S
C1164 C1165 1.348 . S
C1165 C1160 1.353 . S
C1165 C1164 1.348 . S
C1165 H1217 0.929 . S
H1166 C1160 0.930 . S
H1167 C1163 0.930 . S
C1168 N1169 1.314 . S
C1168 C1170 1.353 . S
C1168 H1174 0.930 . S
N1169 Li1145 1.990 . S
N1169 C1168 1.314 . S
N1169 C1172 1.279 . S
C1170 C1168 1.353 . S
C1170 C1173 1.348 . S
C1170 H1218 0.929 . S
C1171 C1172 1.358 . S
C1171 C1173 1.356 . S
C1171 H1219 0.930 . S
C1172 N1169 1.279 . S
C1172 C1171 1.358 . S
C1172 H1175 0.930 . S
C1173 C1170 1.348 . S
C1173 C1171 1.356 . S
H1174 C1168 0.930 . S
H1175 C1172 0.930 . S
C1176 C1178 1.348 . S
C1176 C1179 1.356 . S
C1176 O1206 1.325 . S
N1177 C1180 1.314 . S
N1177 C1181 1.279 . S
C1178 C1176 1.348 . S
C1178 C1180 1.353 . S
C1178 H1220 0.929 . S
C1179 C1176 1.356 . S
C1179 C1181 1.358 . S
C1179 H1221 0.930 . S
C1180 N1177 1.314 . S
C1180 C1178 1.353 . S
C1180 H1222 0.930 . S
C1181 N1177 1.279 . S
C1181 C1179 1.358 . S
C1181 H1223 0.930 . S
C1182 C1183 1.348 . S
C1182 C1184 1.356 . S
C1182 O1207 1.325 . S
C1183 C1182 1.348 . S
C1183 C1185 1.353 . S
C1183 H1224 0.929 . S
C1184 C1182 1.356 . S
C1184 C1186 1.358 . S
C1184 H1225 0.930 . S
C1185 C1183 1.353 . S
C1185 N1187 1.314 . S
C1185 H1226 0.930 . S
C1186 C1184 1.358 . S
C1186 N1187 1.279 . S
C1186 H1227 0.930 . S
N1187 C1185 1.314 . S
N1187 C1186 1.279 . S
C1188 C1190 1.353 . S
C1188 N1191 1.314 1_565 S
C1188 H1194 0.930 . S
C1189 N1191 1.279 . S
C1189 C1192 1.358 . S
C1189 H1195 0.930 . S
C1190 C1188 1.353 . S
C1190 C1193 1.348 1_565 S
C1190 H1228 0.929 . S
N1191 Li1146 1.990 . S
N1191 C1188 1.314 1_545 S
N1191 C1189 1.279 . S
C1192 C1189 1.358 . S
C1192 C1193 1.356 . S
C1192 H1229 0.930 . S
C1193 C1190 1.348 1_545 S
C1193 C1192 1.356 . S
H1194 C1188 0.930 . S
H1195 C1189 0.930 . S
C1196 N1197 1.314 . S
C1196 C1198 1.353 . S
C1196 H1202 0.930 . S
N1197 Li1147 1.990 . S
N1197 C1196 1.314 . S
N1197 C1200 1.279 . S
C1198 C1196 1.353 . S
C1198 C1201 1.348 . S
C1198 H1230 0.929 . S
C1199 C1200 1.358 . S
C1199 C1201 1.356 . S
C1199 H1231 0.930 . S
C1200 N1197 1.279 . S
C1200 C1199 1.358 . S
C1200 H1203 0.930 . S
C1201 C1198 1.348 . S
C1201 C1199 1.356 . S
H1202 C1196 0.930 . S
H1203 C1200 0.930 . S
O1204 Li1144 1.956 . S
O1204 Li1145 1.970 1_545 S
O1204 Li1146 1.961 . S
O1204 C1148 1.325 . S
O1205 Li1144 1.970 . S
O1205 Li1145 1.956 1_545 S
O1205 Li1147 1.961 . S
O1205 C1154 1.325 . S
O1206 Li1144 1.961 . S
O1206 Li1146 1.956 . S
O1206 Li1147 1.970 . S
O1206 C1176 1.325 . S
O1207 Li1145 1.961 . S
O1207 Li1146 1.970 1_565 S
O1207 Li1147 1.956 1_565 S
O1207 C1182 1.325 . S
H1208 C1150 0.929 . S
H1209 C1151 0.930 . S
H1210 C1152 0.930 . S
H1211 C1153 0.930 . S
H1212 C1155 0.930 . S
H1213 C1157 0.929 . S
H1214 C1158 0.930 . S
H1215 C1159 0.930 . S
H1216 C1162 0.930 . S
H1217 C1165 0.929 . S
H1218 C1170 0.929 . S
H1219 C1171 0.930 . S
H1220 C1178 0.929 . S
H1221 C1179 0.930 . S
H1222 C1180 0.930 . S
H1223 C1181 0.930 . S
H1224 C1183 0.929 . S
H1225 C1184 0.930 . S
H1226 C1185 0.930 . S
H1227 C1186 0.930 . S
H1228 C1190 0.929 . S
H1229 C1192 0.930 . S
H1230 C1198 0.929 . S
H1231 C1199 0.930 . S
Li1232 N1249 1.990 . S
Li1232 O1292 1.956 . S
Li1232 O1293 1.970 . S
Li1232 O1294 1.961 . S
Li1233 N1257 1.990 . S
Li1233 O1292 1.970 . S
Li1233 O1293 1.956 . S
Li1233 O1295 1.961 . S
Li1234 N1279 1.990 . S
Li1234 O1292 1.961 . S
Li1234 O1294 1.956 . S
Li1234 O1295 1.970 . S
Li1235 N1285 1.990 . S
Li1235 O1293 1.961 . S
Li1235 O1294 1.970 . S
Li1235 O1295 1.956 . S
C1236 C1238 1.348 . S
C1236 C1239 1.356 . S
C1236 O1292 1.325 . S
N1237 C1240 1.314 . S
N1237 C1241 1.279 . S
C1238 C1236 1.348 . S
C1238 C1240 1.353 . S
C1238 H1296 0.929 . S
C1239 C1236 1.356 . S
C1239 C1241 1.358 . S
C1239 H1297 0.930 . S
C1240 N1237 1.314 . S
C1240 C1238 1.353 . S
C1240 H1298 0.930 . S
C1241 N1237 1.279 . S
C1241 C1239 1.358 . S
C1241 H1299 0.930 . S
C1242 C1245 1.348 . S
C1242 C1246 1.356 . S
C1242 O1293 1.325 . S
C1243 N1244 1.279 . S
C1243 C1246 1.358 . S
C1243 H1300 0.930 . S
N1244 C1243 1.279 . S
N1244 C1247 1.314 . S
C1245 C1242 1.348 . S
C1245 C1247 1.353 . S
C1245 H1301 0.929 . S
C1246 C1242 1.356 . S
C1246 C1243 1.358 . S
C1246 H1302 0.930 . S
C1247 N1244 1.314 . S
C1247 C1245 1.353 . S
C1247 H1303 0.930 . S
C1248 N1249 1.314 . S
C1248 C1253 1.353 . S
C1248 H1254 0.930 . S
N1249 Li1232 1.990 . S
N1249 C1248 1.314 . S
N1249 C1251 1.279 . S
C1250 C1251 1.358 . S
C1250 C1252 1.356 . S
C1250 H1304 0.930 . S
C1251 N1249 1.279 . S
C1251 C1250 1.358 . S
C1251 H1255 0.930 . S
C1252 C1250 1.356 . S
C1252 C1253 1.348 . S
C1253 C1248 1.353 . S
C1253 C1252 1.348 . S
C1253 H1305 0.929 . S
H1254 C1248 0.930 . S
H1255 C1251 0.930 . S
C1256 N1257 1.314 . S
C1256 C1258 1.353 . S
C1256 H1262 0.930 . S
N1257 Li1233 1.990 . S
N1257 C1256 1.314 . S
N1257 C1260 1.279 . S
C1258 C1256 1.353 . S
C1258 C1261 1.348 . S
C1258 H1306 0.929 . S
C1259 C1260 1.358 . S
C1259 C1261 1.356 . S
C1259 H1307 0.930 . S
C1260 N1257 1.279 . S
C1260 C1259 1.358 . S
C1260 H1263 0.930 . S
C1261 C1258 1.348 . S
C1261 C1259 1.356 . S
H1262 C1256 0.930 . S
H1263 C1260 0.930 . S
C1264 C1266 1.348 . S
C1264 C1267 1.356 . S
C1264 O1294 1.325 . S
N1265 C1268 1.314 . S
N1265 C1269 1.279 . S
C1266 C1264 1.348 . S
C1266 C1268 1.353 . S
C1266 H1308 0.929 . S
C1267 C1264 1.356 . S
C1267 C1269 1.358 . S
C1267 H1309 0.930 . S
C1268 N1265 1.314 . S
C1268 C1266 1.353 . S
C1268 H1310 0.930 . S
C1269 N1265 1.279 . S
C1269 C1267 1.358 . S
C1269 H1311 0.930 . S
C1270 C1271 1.348 . S
C1270 C1272 1.356 . S
C1270 O1295 1.325 . S
C1271 C1270 1.348 . S
C1271 C1273 1.353 . S
C1271 H1312 0.929 . S
C1272 C1270 1.356 . S
C1272 C1274 1.358 . S
C1272 H1313 0.930 . S
C1273 C1271 1.353 . S
C1273 N1275 1.314 . S
C1273 H1314 0.930 . S
C1274 C1272 1.358 . S
C1274 N1275 1.279 . S
C1274 H1315 0.930 . S
N1275 C1273 1.314 . S
N1275 C1274 1.279 . S
C1276 C1278 1.353 . S
C1276 N1279 1.314 . S
C1276 H1282 0.930 . S
C1277 N1279 1.279 . S
C1277 C1280 1.358 . S
C1277 H1283 0.930 . S
C1278 C1276 1.353 . S
C1278 C1281 1.348 . S
C1278 H1316 0.929 . S
N1279 Li1234 1.990 . S
N1279 C1276 1.314 . S
N1279 C1277 1.279 . S
C1280 C1277 1.358 . S
C1280 C1281 1.356 . S
C1280 H1317 0.930 . S
C1281 C1278 1.348 . S
C1281 C1280 1.356 . S
H1282 C1276 0.930 . S
H1283 C1277 0.930 . S
C1284 N1285 1.314 . S
C1284 C1286 1.353 . S
C1284 H1290 0.930 . S
N1285 Li1235 1.990 . S
N1285 C1284 1.314 . S
N1285 C1288 1.279 . S
C1286 C1284 1.353 . S
C1286 C1289 1.348 . S
C1286 H1318 0.929 . S
C1287 C1288 1.358 . S
C1287 C1289 1.356 . S
C1287 H1319 0.930 . S
C1288 N1285 1.279 . S
C1288 C1287 1.358 . S
C1288 H1291 0.930 . S
C1289 C1286 1.348 . S
C1289 C1287 1.356 . S
H1290 C1284 0.930 . S
H1291 C1288 0.930 . S
O1292 Li1232 1.956 . S
O1292 Li1233 1.970 . S
O1292 Li1234 1.961 . S
O1292 C1236 1.325 . S
O1293 Li1232 1.970 . S
O1293 Li1233 1.956 . S
O1293 Li1235 1.961 . S
O1293 C1242 1.325 . S
O1294 Li1232 1.961 . S
O1294 Li1234 1.956 . S
O1294 Li1235 1.970 . S
O1294 C1264 1.325 . S
O1295 Li1233 1.961 . S
O1295 Li1234 1.970 . S
O1295 Li1235 1.956 . S
O1295 C1270 1.325 . S
H1296 C1238 0.929 . S
H1297 C1239 0.930 . S
H1298 C1240 0.930 . S
H1299 C1241 0.930 . S
H1300 C1243 0.930 . S
H1301 C1245 0.929 . S
H1302 C1246 0.930 . S
H1303 C1247 0.930 . S
H1304 C1250 0.930 . S
H1305 C1253 0.929 . S
H1306 C1258 0.929 . S
H1307 C1259 0.930 . S
H1308 C1266 0.929 . S
H1309 C1267 0.930 . S
H1310 C1268 0.930 . S
H1311 C1269 0.930 . S
H1312 C1271 0.929 . S
H1313 C1272 0.930 . S
H1314 C1273 0.930 . S
H1315 C1274 0.930 . S
H1316 C1278 0.929 . S
H1317 C1280 0.930 . S
H1318 C1286 0.929 . S
H1319 C1287 0.930 . S
Li1320 N1337 1.990 . S
Li1320 O1380 1.956 . S
Li1320 O1381 1.970 . S
Li1320 O1382 1.961 . S
Li1321 N1345 1.990 . S
Li1321 O1380 1.970 1_545 S
Li1321 O1381 1.956 1_545 S
Li1321 O1383 1.961 . S
Li1322 N1367 1.990 . S
Li1322 O1380 1.961 . S
Li1322 O1382 1.956 . S
Li1322 O1383 1.970 1_565 S
Li1323 N1373 1.990 1_655 S
Li1323 O1381 1.961 . S
Li1323 O1382 1.970 . S
Li1323 O1383 1.956 1_565 S
C1324 C1326 1.348 1_565 S
C1324 C1327 1.356 . S
C1324 O1380 1.325 . S
N1325 C1328 1.312 1_565 S
N1325 C1329 1.283 . S
C1326 C1324 1.348 1_545 S
C1326 C1328 1.353 . S
C1326 H1384 0.929 . S
C1327 C1324 1.356 . S
C1327 C1329 1.358 . S
C1327 H1385 0.930 . S
C1328 N1325 1.312 1_545 S
C1328 C1326 1.353 . S
C1328 H1386 0.930 . S
C1329 N1325 1.283 . S
C1329 C1327 1.358 . S
C1329 H1387 0.930 . S
C1330 C1333 1.348 . S
C1330 C1334 1.356 . S
C1330 O1381 1.325 . S
C1331 N1332 1.279 . S
C1331 C1334 1.358 . S
C1331 H1388 0.930 . S
N1332 C1331 1.279 . S
N1332 C1335 1.314 . S
C1333 C1330 1.348 . S
C1333 C1335 1.353 . S
C1333 H1389 0.929 . S
C1334 C1330 1.356 . S
C1334 C1331 1.358 . S
C1334 H1390 0.930 . S
C1335 N1332 1.314 . S
C1335 C1333 1.353 . S
C1335 H1391 0.930 . S
C1336 N1337 1.314 . S
C1336 C1341 1.353 . S
C1336 H1342 0.930 . S
N1337 Li1320 1.990 . S
N1337 C1336 1.314 . S
N1337 C1339 1.279 . S
C1338 C1339 1.358 . S
C1338 C1340 1.356 . S
C1338 H1392 0.930 . S
C1339 N1337 1.279 . S
C1339 C1338 1.358 . S
C1339 H1343 0.930 . S
C1340 C1338 1.356 . S
C1340 C1341 1.348 . S
C1341 C1336 1.353 . S
C1341 C1340 1.348 . S
C1341 H1393 0.929 . S
H1342 C1336 0.930 . S
H1343 C1339 0.930 . S
C1344 N1345 1.314 . S
C1344 C1346 1.353 . S
C1344 H1350 0.930 . S
N1345 Li1321 1.990 . S
N1345 C1344 1.314 . S
N1345 C1348 1.279 . S
C1346 C1344 1.353 . S
C1346 C1349 1.348 . S
C1346 H1394 0.929 . S
C1347 C1348 1.358 . S
C1347 C1349 1.356 . S
C1347 H1395 0.930 . S
C1348 N1345 1.279 . S
C1348 C1347 1.358 . S
C1348 H1351 0.930 . S
C1349 C1346 1.348 . S
C1349 C1347 1.356 . S
H1350 C1344 0.930 . S
H1351 C1348 0.930 . S
C1352 C1354 1.348 1_655 S
C1352 C1355 1.356 . S
C1352 O1382 1.325 . S
N1353 C1356 1.304 1_655 S
N1353 C1357 1.298 . S
C1354 C1352 1.348 1_455 S
C1354 C1356 1.353 . S
C1354 H1396 0.929 . S
C1355 C1352 1.356 . S
C1355 C1357 1.358 . S
C1355 H1397 0.930 . S
C1356 N1353 1.304 1_455 S
C1356 C1354 1.353 . S
C1356 H1398 0.930 . S
C1357 N1353 1.298 . S
C1357 C1355 1.358 . S
C1357 H1399 0.930 . S
C1358 C1359 1.348 1_655 S
C1358 C1360 1.359 . S
C1358 O1383 1.325 . S
C1359 C1358 1.348 1_455 S
C1359 C1361 1.353 . S
C1359 H1400 0.929 . S
C1360 C1358 1.359 . S
C1360 C1362 1.352 1_655 S
C1360 H1401 0.934 . S
C1361 C1359 1.353 . S
C1361 N1363 1.314 . S
C1361 H1402 0.930 . S
C1362 C1360 1.352 1_455 S
C1362 N1363 1.279 . S
C1362 H1403 0.930 . S
N1363 C1361 1.314 . S
N1363 C1362 1.279 . S
C1364 C1366 1.353 . S
C1364 N1367 1.314 1_545 S
C1364 H1370 0.930 . S
C1365 N1367 1.279 . S
C1365 C1368 1.358 . S
C1365 H1371 0.930 . S
C1366 C1364 1.353 . S
C1366 C1369 1.348 1_545 S
C1366 H1404 0.929 . S
N1367 Li1322 1.990 . S
N1367 C1364 1.314 1_565 S
N1367 C1365 1.279 . S
C1368 C1365 1.358 . S
C1368 C1369 1.356 . S
C1368 H1405 0.930 . S
C1369 C1366 1.348 1_565 S
C1369 C1368 1.356 . S
H1370 C1364 0.930 . S
H1371 C1365 0.930 . S
C1372 N1373 1.314 . S
C1372 C1374 1.353 . S
C1372 H1378 0.930 . S
N1373 Li1323 1.990 1_455 S
N1373 C1372 1.314 . S
N1373 C1376 1.279 . S
C1374 C1372 1.353 . S
C1374 C1377 1.348 . S
C1374 H1406 0.929 . S
C1375 C1376 1.358 . S
C1375 C1377 1.356 . S
C1375 H1407 0.930 . S
C1376 N1373 1.279 . S
C1376 C1375 1.358 . S
C1376 H1379 0.930 . S
C1377 C1374 1.348 . S
C1377 C1375 1.356 . S
H1378 C1372 0.930 . S
H1379 C1376 0.930 . S
O1380 Li1320 1.956 . S
O1380 Li1321 1.970 1_565 S
O1380 Li1322 1.961 . S
O1380 C1324 1.325 . S
O1381 Li1320 1.970 . S
O1381 Li1321 1.956 1_565 S
O1381 Li1323 1.961 . S
O1381 C1330 1.325 . S
O1382 Li1320 1.961 . S
O1382 Li1322 1.956 . S
O1382 Li1323 1.970 . S
O1382 C1352 1.325 . S
O1383 Li1321 1.961 . S
O1383 Li1322 1.970 1_545 S
O1383 Li1323 1.956 1_545 S
O1383 C1358 1.325 . S
H1384 C1326 0.929 . S
H1385 C1327 0.930 . S
H1386 C1328 0.930 . S
H1387 C1329 0.930 . S
H1388 C1331 0.930 . S
H1389 C1333 0.929 . S
H1390 C1334 0.930 . S
H1391 C1335 0.930 . S
H1392 C1338 0.930 . S
H1393 C1341 0.929 . S
H1394 C1346 0.929 . S
H1395 C1347 0.930 . S
H1396 C1354 0.929 . S
H1397 C1355 0.930 . S
H1398 C1356 0.930 . S
H1399 C1357 0.930 . S
H1400 C1359 0.929 . S
H1401 C1360 0.934 . S
H1402 C1361 0.930 . S
H1403 C1362 0.930 . S
H1404 C1366 0.929 . S
H1405 C1368 0.930 . S
H1406 C1374 0.929 . S
H1407 C1375 0.930 . S
Li1408 N1425 1.990 . S
Li1408 O1468 1.956 . S
Li1408 O1469 1.970 . S
Li1408 O1470 1.961 . S
Li1409 N1433 1.990 . S
Li1409 O1468 1.970 . S
Li1409 O1469 1.956 . S
Li1409 O1471 1.961 . S
Li1410 N1455 1.990 . S
Li1410 O1468 1.961 . S
Li1410 O1470 1.956 . S
Li1410 O1471 1.970 . S
Li1411 N1461 1.990 . S
Li1411 O1469 1.961 . S
Li1411 O1470 1.970 . S
Li1411 O1471 1.956 . S
C1412 C1414 1.348 . S
C1412 C1415 1.356 . S
C1412 O1468 1.325 . S
N1413 C1416 1.314 . S
N1413 C1417 1.279 . S
C1414 C1412 1.348 . S
C1414 C1416 1.353 . S
C1414 H1472 0.929 . S
C1415 C1412 1.356 . S
C1415 C1417 1.358 . S
C1415 H1473 0.930 . S
C1416 N1413 1.314 . S
C1416 C1414 1.353 . S
C1416 H1474 0.930 . S
C1417 N1413 1.279 . S
C1417 C1415 1.358 . S
C1417 H1475 0.930 . S
C1418 C1421 1.348 . S
C1418 C1422 1.356 . S
C1418 O1469 1.325 . S
C1419 N1420 1.279 . S
C1419 C1422 1.358 . S
C1419 H1476 0.930 . S
N1420 C1419 1.279 . S
N1420 C1423 1.314 . S
C1421 C1418 1.348 . S
C1421 C1423 1.353 . S
C1421 H1477 0.929 . S
C1422 C1418 1.356 . S
C1422 C1419 1.358 . S
C1422 H1478 0.930 . S
C1423 N1420 1.314 . S
C1423 C1421 1.353 . S
C1423 H1479 0.930 . S
C1424 N1425 1.314 . S
C1424 C1429 1.353 . S
C1424 H1430 0.930 . S
N1425 Li1408 1.990 . S
N1425 C1424 1.314 . S
N1425 C1427 1.279 . S
C1426 C1427 1.358 . S
C1426 C1428 1.356 . S
C1426 H1480 0.930 . S
C1427 N1425 1.279 . S
C1427 C1426 1.358 . S
C1427 H1431 0.930 . S
C1428 C1426 1.356 . S
C1428 C1429 1.348 . S
C1429 C1424 1.353 . S
C1429 C1428 1.348 . S
C1429 H1481 0.929 . S
H1430 C1424 0.930 . S
H1431 C1427 0.930 . S
C1432 N1433 1.314 . S
C1432 C1434 1.353 . S
C1432 H1438 0.930 . S
N1433 Li1409 1.990 . S
N1433 C1432 1.314 . S
N1433 C1436 1.279 . S
C1434 C1432 1.353 . S
C1434 C1437 1.348 . S
C1434 H1482 0.929 . S
C1435 C1436 1.358 . S
C1435 C1437 1.356 . S
C1435 H1483 0.930 . S
C1436 N1433 1.279 . S
C1436 C1435 1.358 . S
C1436 H1439 0.930 . S
C1437 C1434 1.348 . S
C1437 C1435 1.356 . S
H1438 C1432 0.930 . S
H1439 C1436 0.930 . S
C1440 C1442 1.348 . S
C1440 C1443 1.356 . S
C1440 O1470 1.325 . S
N1441 C1444 1.314 . S
N1441 C1445 1.279 . S
C1442 C1440 1.348 . S
C1442 C1444 1.353 . S
C1442 H1484 0.929 . S
C1443 C1440 1.356 . S
C1443 C1445 1.358 . S
C1443 H1485 0.930 . S
C1444 N1441 1.314 . S
C1444 C1442 1.353 . S
C1444 H1486 0.930 . S
C1445 N1441 1.279 . S
C1445 C1443 1.358 . S
C1445 H1487 0.930 . S
C1446 C1447 1.348 . S
C1446 C1448 1.356 . S
C1446 O1471 1.325 . S
C1447 C1446 1.348 . S
C1447 C1449 1.353 . S
C1447 H1488 0.929 . S
C1448 C1446 1.356 . S
C1448 C1450 1.358 . S
C1448 H1489 0.930 . S
C1449 C1447 1.353 . S
C1449 N1451 1.314 . S
C1449 H1490 0.930 . S
C1450 C1448 1.358 . S
C1450 N1451 1.279 . S
C1450 H1491 0.930 . S
N1451 C1449 1.314 . S
N1451 C1450 1.279 . S
C1452 C1454 1.353 . S
C1452 N1455 1.314 . S
C1452 H1458 0.930 . S
C1453 N1455 1.279 . S
C1453 C1456 1.358 . S
C1453 H1459 0.930 . S
C1454 C1452 1.353 . S
C1454 C1457 1.348 . S
C1454 H1492 0.929 . S
N1455 Li1410 1.990 . S
N1455 C1452 1.314 . S
N1455 C1453 1.279 . S
C1456 C1453 1.358 . S
C1456 C1457 1.356 . S
C1456 H1493 0.930 . S
C1457 C1454 1.348 . S
C1457 C1456 1.356 . S
H1458 C1452 0.930 . S
H1459 C1453 0.930 . S
C1460 N1461 1.314 . S
C1460 C1462 1.353 . S
C1460 H1466 0.930 . S
N1461 Li1411 1.990 . S
N1461 C1460 1.314 . S
N1461 C1464 1.279 . S
C1462 C1460 1.353 . S
C1462 C1465 1.348 . S
C1462 H1494 0.929 . S
C1463 C1464 1.358 . S
C1463 C1465 1.356 . S
C1463 H1495 0.930 . S
C1464 N1461 1.279 . S
C1464 C1463 1.358 . S
C1464 H1467 0.930 . S
C1465 C1462 1.348 . S
C1465 C1463 1.356 . S
H1466 C1460 0.930 . S
H1467 C1464 0.930 . S
O1468 Li1408 1.956 . S
O1468 Li1409 1.970 . S
O1468 Li1410 1.961 . S
O1468 C1412 1.325 . S
O1469 Li1408 1.970 . S
O1469 Li1409 1.956 . S
O1469 Li1411 1.961 . S
O1469 C1418 1.325 . S
O1470 Li1408 1.961 . S
O1470 Li1410 1.956 . S
O1470 Li1411 1.970 . S
O1470 C1440 1.325 . S
O1471 Li1409 1.961 . S
O1471 Li1410 1.970 . S
O1471 Li1411 1.956 . S
O1471 C1446 1.325 . S
H1472 C1414 0.929 . S
H1473 C1415 0.930 . S
H1474 C1416 0.930 . S
H1475 C1417 0.930 . S
H1476 C1419 0.930 . S
H1477 C1421 0.929 . S
H1478 C1422 0.930 . S
H1479 C1423 0.930 . S
H1480 C1426 0.930 . S
H1481 C1429 0.929 . S
H1482 C1434 0.929 . S
H1483 C1435 0.930 . S
H1484 C1442 0.929 . S
H1485 C1443 0.930 . S
H1486 C1444 0.930 . S
H1487 C1445 0.930 . S
H1488 C1447 0.929 . S
H1489 C1448 0.930 . S
H1490 C1449 0.930 . S
H1491 C1450 0.930 . S
H1492 C1454 0.929 . S
H1493 C1456 0.930 . S
H1494 C1462 0.929 . S
H1495 C1463 0.930 . S
Li1496 N1513 1.990 . S
Li1496 O1556 1.956 . S
Li1496 O1557 1.970 . S
Li1496 O1558 1.961 . S
Li1497 N1521 1.990 . S
Li1497 O1556 1.970 . S
Li1497 O1557 1.956 . S
Li1497 O1559 1.961 . S
Li1498 N1543 1.990 . S
Li1498 O1556 1.961 . S
Li1498 O1558 1.956 . S
Li1498 O1559 1.970 . S
Li1499 N1549 1.990 . S
Li1499 O1557 1.961 . S
Li1499 O1558 1.970 . S
Li1499 O1559 1.956 . S
C1500 C1502 1.348 . S
C1500 C1503 1.356 . S
C1500 O1556 1.325 . S
N1501 C1504 1.314 . S
N1501 C1505 1.279 . S
C1502 C1500 1.348 . S
C1502 C1504 1.353 . S
C1502 H1560 0.929 . S
C1503 C1500 1.356 . S
C1503 C1505 1.358 . S
C1503 H1561 0.930 . S
C1504 N1501 1.314 . S
C1504 C1502 1.353 . S
C1504 H1562 0.930 . S
C1505 N1501 1.279 . S
C1505 C1503 1.358 . S
C1505 H1563 0.930 . S
C1506 C1509 1.348 . S
C1506 C1510 1.356 . S
C1506 O1557 1.325 . S
C1507 N1508 1.279 . S
C1507 C1510 1.358 . S
C1507 H1564 0.930 . S
N1508 C1507 1.279 . S
N1508 C1511 1.314 . S
C1509 C1506 1.348 . S
C1509 C1511 1.353 . S
C1509 H1565 0.929 . S
C1510 C1506 1.356 . S
C1510 C1507 1.358 . S
C1510 H1566 0.930 . S
C1511 N1508 1.314 . S
C1511 C1509 1.353 . S
C1511 H1567 0.930 . S
C1512 N1513 1.314 . S
C1512 C1517 1.353 . S
C1512 H1518 0.930 . S
N1513 Li1496 1.990 . S
N1513 C1512 1.314 . S
N1513 C1515 1.279 . S
C1514 C1515 1.358 . S
C1514 C1516 1.356 . S
C1514 H1568 0.930 . S
C1515 N1513 1.279 . S
C1515 C1514 1.358 . S
C1515 H1519 0.930 . S
C1516 C1514 1.356 . S
C1516 C1517 1.348 . S
C1517 C1512 1.353 . S
C1517 C1516 1.348 . S
C1517 H1569 0.929 . S
H1518 C1512 0.930 . S
H1519 C1515 0.930 . S
C1520 N1521 1.314 . S
C1520 C1522 1.353 . S
C1520 H1526 0.930 . S
N1521 Li1497 1.990 . S
N1521 C1520 1.314 . S
N1521 C1524 1.279 . S
C1522 C1520 1.353 . S
C1522 C1525 1.348 . S
C1522 H1570 0.929 . S
C1523 C1524 1.358 . S
C1523 C1525 1.356 . S
C1523 H1571 0.930 . S
C1524 N1521 1.279 . S
C1524 C1523 1.358 . S
C1524 H1527 0.930 . S
C1525 C1522 1.348 . S
C1525 C1523 1.356 . S
H1526 C1520 0.930 . S
H1527 C1524 0.930 . S
C1528 C1530 1.348 . S
C1528 C1531 1.356 . S
C1528 O1558 1.325 . S
N1529 C1532 1.314 . S
N1529 C1533 1.279 . S
C1530 C1528 1.348 . S
C1530 C1532 1.353 . S
C1530 H1572 0.929 . S
C1531 C1528 1.356 . S
C1531 C1533 1.358 . S
C1531 H1573 0.930 . S
C1532 N1529 1.314 . S
C1532 C1530 1.353 . S
C1532 H1574 0.930 . S
C1533 N1529 1.279 . S
C1533 C1531 1.358 . S
C1533 H1575 0.930 . S
C1534 C1535 1.348 . S
C1534 C1536 1.356 . S
C1534 O1559 1.325 . S
C1535 C1534 1.348 . S
C1535 C1537 1.353 . S
C1535 H1576 0.929 . S
C1536 C1534 1.356 . S
C1536 C1538 1.358 . S
C1536 H1577 0.930 . S
C1537 C1535 1.353 . S
C1537 N1539 1.314 . S
C1537 H1578 0.930 . S
C1538 C1536 1.358 . S
C1538 N1539 1.279 . S
C1538 H1579 0.930 . S
N1539 C1537 1.314 . S
N1539 C1538 1.279 . S
C1540 C1542 1.353 . S
C1540 N1543 1.314 . S
C1540 H1546 0.930 . S
C1541 N1543 1.279 . S
C1541 C1544 1.358 . S
C1541 H1547 0.930 . S
C1542 C1540 1.353 . S
C1542 C1545 1.348 . S
C1542 H1580 0.929 . S
N1543 Li1498 1.990 . S
N1543 C1540 1.314 . S
N1543 C1541 1.279 . S
C1544 C1541 1.358 . S
C1544 C1545 1.356 . S
C1544 H1581 0.930 . S
C1545 C1542 1.348 . S
C1545 C1544 1.356 . S
H1546 C1540 0.930 . S
H1547 C1541 0.930 . S
C1548 N1549 1.314 . S
C1548 C1550 1.353 . S
C1548 H1554 0.930 . S
N1549 Li1499 1.990 . S
N1549 C1548 1.314 . S
N1549 C1552 1.279 . S
C1550 C1548 1.353 . S
C1550 C1553 1.348 . S
C1550 H1582 0.929 . S
C1551 C1552 1.358 . S
C1551 C1553 1.356 . S
C1551 H1583 0.930 . S
C1552 N1549 1.279 . S
C1552 C1551 1.358 . S
C1552 H1555 0.930 . S
C1553 C1550 1.348 . S
C1553 C1551 1.356 . S
H1554 C1548 0.930 . S
H1555 C1552 0.930 . S
O1556 Li1496 1.956 . S
O1556 Li1497 1.970 . S
O1556 Li1498 1.961 . S
O1556 C1500 1.325 . S
O1557 Li1496 1.970 . S
O1557 Li1497 1.956 . S
O1557 Li1499 1.961 . S
O1557 C1506 1.325 . S
O1558 Li1496 1.961 . S
O1558 Li1498 1.956 . S
O1558 Li1499 1.970 . S
O1558 C1528 1.325 . S
O1559 Li1497 1.961 . S
O1559 Li1498 1.970 . S
O1559 Li1499 1.956 . S
O1559 C1534 1.325 . S
H1560 C1502 0.929 . S
H1561 C1503 0.930 . S
H1562 C1504 0.930 . S
H1563 C1505 0.930 . S
H1564 C1507 0.930 . S
H1565 C1509 0.929 . S
H1566 C1510 0.930 . S
H1567 C1511 0.930 . S
H1568 C1514 0.930 . S
H1569 C1517 0.929 . S
H1570 C1522 0.929 . S
H1571 C1523 0.930 . S
H1572 C1530 0.929 . S
H1573 C1531 0.930 . S
H1574 C1532 0.930 . S
H1575 C1533 0.930 . S
H1576 C1535 0.929 . S
H1577 C1536 0.930 . S
H1578 C1537 0.930 . S
H1579 C1538 0.930 . S
H1580 C1542 0.929 . S
H1581 C1544 0.930 . S
H1582 C1550 0.929 . S
H1583 C1551 0.930 . S
Li1584 N1601 1.990 . S
Li1584 O1644 1.956 . S
Li1584 O1645 1.970 . S
Li1584 O1646 1.961 . S
Li1585 N1609 1.990 . S
Li1585 O1644 1.970 . S
Li1585 O1645 1.956 . S
Li1585 O1647 1.961 . S
Li1586 N1631 1.990 . S
Li1586 O1644 1.961 . S
Li1586 O1646 1.956 . S
Li1586 O1647 1.970 . S
Li1587 N1637 1.990 . S
Li1587 O1645 1.961 . S
Li1587 O1646 1.970 . S
Li1587 O1647 1.956 . S
C1588 C1590 1.348 . S
C1588 C1591 1.356 . S
C1588 O1644 1.325 . S
N1589 C1592 1.314 . S
N1589 C1593 1.279 . S
C1590 C1588 1.348 . S
C1590 C1592 1.353 . S
C1590 H1648 0.929 . S
C1591 C1588 1.356 . S
C1591 C1593 1.358 . S
C1591 H1649 0.930 . S
C1592 N1589 1.314 . S
C1592 C1590 1.353 . S
C1592 H1650 0.930 . S
C1593 N1589 1.279 . S
C1593 C1591 1.358 . S
C1593 H1651 0.930 . S
C1594 C1597 1.348 . S
C1594 C1598 1.356 . S
C1594 O1645 1.325 . S
C1595 N1596 1.279 . S
C1595 C1598 1.358 . S
C1595 H1652 0.930 . S
N1596 C1595 1.279 . S
N1596 C1599 1.314 . S
C1597 C1594 1.348 . S
C1597 C1599 1.353 . S
C1597 H1653 0.929 . S
C1598 C1594 1.356 . S
C1598 C1595 1.358 . S
C1598 H1654 0.930 . S
C1599 N1596 1.314 . S
C1599 C1597 1.353 . S
C1599 H1655 0.930 . S
C1600 N1601 1.314 . S
C1600 C1605 1.353 . S
C1600 H1606 0.930 . S
N1601 Li1584 1.990 . S
N1601 C1600 1.314 . S
N1601 C1603 1.279 . S
C1602 C1603 1.358 . S
C1602 C1604 1.356 . S
C1602 H1656 0.930 . S
C1603 N1601 1.279 . S
C1603 C1602 1.358 . S
C1603 H1607 0.930 . S
C1604 C1602 1.356 . S
C1604 C1605 1.348 . S
C1605 C1600 1.353 . S
C1605 C1604 1.348 . S
C1605 H1657 0.929 . S
H1606 C1600 0.930 . S
H1607 C1603 0.930 . S
C1608 N1609 1.314 . S
C1608 C1610 1.353 . S
C1608 H1614 0.930 . S
N1609 Li1585 1.990 . S
N1609 C1608 1.314 . S
N1609 C1612 1.279 . S
C1610 C1608 1.353 . S
C1610 C1613 1.348 . S
C1610 H1658 0.929 . S
C1611 C1612 1.358 . S
C1611 C1613 1.356 . S
C1611 H1659 0.930 . S
C1612 N1609 1.279 . S
C1612 C1611 1.358 . S
C1612 H1615 0.930 . S
C1613 C1610 1.348 . S
C1613 C1611 1.356 . S
H1614 C1608 0.930 . S
H1615 C1612 0.930 . S
C1616 C1618 1.348 . S
C1616 C1619 1.356 . S
C1616 O1646 1.325 . S
N1617 C1620 1.314 . S
N1617 C1621 1.279 . S
C1618 C1616 1.348 . S
C1618 C1620 1.353 . S
C1618 H1660 0.929 . S
C1619 C1616 1.356 . S
C1619 C1621 1.358 . S
C1619 H1661 0.930 . S
C1620 N1617 1.314 . S
C1620 C1618 1.353 . S
C1620 H1662 0.930 . S
C1621 N1617 1.279 . S
C1621 C1619 1.358 . S
C1621 H1663 0.930 . S
C1622 C1623 1.348 . S
C1622 C1624 1.356 . S
C1622 O1647 1.325 . S
C1623 C1622 1.348 . S
C1623 C1625 1.353 . S
C1623 H1664 0.929 . S
C1624 C1622 1.356 . S
C1624 C1626 1.358 . S
C1624 H1665 0.930 . S
C1625 C1623 1.353 . S
C1625 N1627 1.314 . S
C1625 H1666 0.930 . S
C1626 C1624 1.358 . S
C1626 N1627 1.279 . S
C1626 H1667 0.930 . S
N1627 C1625 1.314 . S
N1627 C1626 1.279 . S
C1628 C1630 1.353 . S
C1628 N1631 1.314 . S
C1628 H1634 0.930 . S
C1629 N1631 1.279 . S
C1629 C1632 1.358 . S
C1629 H1635 0.930 . S
C1630 C1628 1.353 . S
C1630 C1633 1.348 . S
C1630 H1668 0.929 . S
N1631 Li1586 1.990 . S
N1631 C1628 1.314 . S
N1631 C1629 1.279 . S
C1632 C1629 1.358 . S
C1632 C1633 1.356 . S
C1632 H1669 0.930 . S
C1633 C1630 1.348 . S
C1633 C1632 1.356 . S
H1634 C1628 0.930 . S
H1635 C1629 0.930 . S
C1636 N1637 1.314 . S
C1636 C1638 1.353 . S
C1636 H1642 0.930 . S
N1637 Li1587 1.990 . S
N1637 C1636 1.314 . S
N1637 C1640 1.279 . S
C1638 C1636 1.353 . S
C1638 C1641 1.348 . S
C1638 H1670 0.929 . S
C1639 C1640 1.358 . S
C1639 C1641 1.356 . S
C1639 H1671 0.930 . S
C1640 N1637 1.279 . S
C1640 C1639 1.358 . S
C1640 H1643 0.930 . S
C1641 C1638 1.348 . S
C1641 C1639 1.356 . S
H1642 C1636 0.930 . S
H1643 C1640 0.930 . S
O1644 Li1584 1.956 . S
O1644 Li1585 1.970 . S
O1644 Li1586 1.961 . S
O1644 C1588 1.325 . S
O1645 Li1584 1.970 . S
O1645 Li1585 1.956 . S
O1645 Li1587 1.961 . S
O1645 C1594 1.325 . S
O1646 Li1584 1.961 . S
O1646 Li1586 1.956 . S
O1646 Li1587 1.970 . S
O1646 C1616 1.325 . S
O1647 Li1585 1.961 . S
O1647 Li1586 1.970 . S
O1647 Li1587 1.956 . S
O1647 C1622 1.325 . S
H1648 C1590 0.929 . S
H1649 C1591 0.930 . S
H1650 C1592 0.930 . S
H1651 C1593 0.930 . S
H1652 C1595 0.930 . S
H1653 C1597 0.929 . S
H1654 C1598 0.930 . S
H1655 C1599 0.930 . S
H1656 C1602 0.930 . S
H1657 C1605 0.929 . S
H1658 C1610 0.929 . S
H1659 C1611 0.930 . S
H1660 C1618 0.929 . S
H1661 C1619 0.930 . S
H1662 C1620 0.930 . S
H1663 C1621 0.930 . S
H1664 C1623 0.929 . S
H1665 C1624 0.930 . S
H1666 C1625 0.930 . S
H1667 C1626 0.930 . S
H1668 C1630 0.929 . S
H1669 C1632 0.930 . S
H1670 C1638 0.929 . S
H1671 C1639 0.930 . S
Li1672 N1689 1.990 . S
Li1672 O1732 1.956 . S
Li1672 O1733 1.970 . S
Li1672 O1734 1.961 . S
Li1673 N1697 1.990 1_655 S
Li1673 O1732 1.970 . S
Li1673 O1733 1.956 . S
Li1673 O1735 1.961 . S
Li1674 N1719 1.990 . S
Li1674 O1732 1.961 . S
Li1674 O1734 1.956 . S
Li1674 O1735 1.970 . S
Li1675 N1725 1.990 . S
Li1675 O1733 1.961 . S
Li1675 O1734 1.970 . S
Li1675 O1735 1.956 . S
C1676 C1678 1.348 . S
C1676 C1679 1.356 . S
C1676 O1732 1.325 . S
N1677 C1680 1.314 1_655 S
N1677 C1681 1.279 . S
C1678 C1676 1.348 . S
C1678 C1680 1.353 1_655 S
C1678 H1736 0.929 1_655 S
C1679 C1676 1.356 . S
C1679 C1681 1.358 . S
C1679 H1737 0.930 . S
C1680 N1677 1.314 1_455 S
C1680 C1678 1.353 1_455 S
C1680 H1738 0.930 . S
C1681 N1677 1.279 . S
C1681 C1679 1.358 . S
C1681 H1739 0.930 . S
C1682 C1685 1.348 . S
C1682 C1686 1.356 . S
C1682 O1733 1.325 . S
C1683 N1684 1.279 . S
C1683 C1686 1.358 . S
C1683 H1740 0.930 . S
N1684 C1683 1.279 . S
N1684 C1687 1.314 . S
C1685 C1682 1.348 . S
C1685 C1687 1.353 . S
C1685 H1741 0.929 . S
C1686 C1682 1.356 . S
C1686 C1683 1.358 . S
C1686 H1742 0.930 . S
C1687 N1684 1.314 . S
C1687 C1685 1.353 . S
C1687 H1743 0.930 . S
C1688 N1689 1.314 . S
C1688 C1693 1.353 . S
C1688 H1694 0.930 . S
N1689 Li1672 1.990 . S
N1689 C1688 1.314 . S
N1689 C1691 1.279 . S
C1690 C1691 1.358 . S
C1690 C1692 1.356 . S
C1690 H1744 0.930 . S
C1691 N1689 1.279 . S
C1691 C1690 1.358 . S
C1691 H1695 0.930 . S
C1692 C1690 1.356 . S
C1692 C1693 1.348 . S
C1693 C1688 1.353 . S
C1693 C1692 1.348 . S
C1693 H1745 0.929 . S
H1694 C1688 0.930 . S
H1695 C1691 0.930 . S
C1696 N1697 1.314 . S
C1696 C1698 1.353 . S
C1696 H1702 0.930 . S
N1697 Li1673 1.990 1_455 S
N1697 C1696 1.314 . S
N1697 C1700 1.279 . S
C1698 C1696 1.353 . S
C1698 C1701 1.348 . S
C1698 H1746 0.929 . S
C1699 C1700 1.358 . S
C1699 C1701 1.356 . S
C1699 H1747 0.930 . S
C1700 N1697 1.279 . S
C1700 C1699 1.358 . S
C1700 H1703 0.930 . S
C1701 C1698 1.348 . S
C1701 C1699 1.356 . S
H1702 C1696 0.930 . S
H1703 C1700 0.930 . S
C1704 C1706 1.348 . S
C1704 C1707 1.356 . S
C1704 O1734 1.325 . S
N1705 C1708 1.314 . S
N1705 C1709 1.279 . S
C1706 C1704 1.348 . S
C1706 C1708 1.353 . S
C1706 H1748 0.929 . S
C1707 C1704 1.356 . S
C1707 C1709 1.358 . S
C1707 H1749 0.930 . S
C1708 N1705 1.314 . S
C1708 C1706 1.353 . S
C1708 H1750 0.930 . S
C1709 N1705 1.279 . S
C1709 C1707 1.358 . S
C1709 H1751 0.930 . S
C1710 C1711 1.348 . S
C1710 C1712 1.356 1_655 S
C1710 O1735 1.325 . S
C1711 C1710 1.348 . S
C1711 C1713 1.353 1_655 S
C1711 H1752 0.929 . S
C1712 C1710 1.356 1_455 S
C1712 C1714 1.358 . S
C1712 H1753 0.930 . S
C1713 C1711 1.353 1_455 S
C1713 N1715 1.314 . S
C1713 H1754 0.930 . S
C1714 C1712 1.358 . S
C1714 N1715 1.279 . S
C1714 H1755 0.930 . S
N1715 C1713 1.314 . S
N1715 C1714 1.279 . S
C1716 C1718 1.353 . S
C1716 N1719 1.314 . S
C1716 H1722 0.930 . S
C1717 N1719 1.279 . S
C1717 C1720 1.358 . S
C1717 H1723 0.930 . S
C1718 C1716 1.353 . S
C1718 C1721 1.348 . S
C1718 H1756 0.929 1_655 S
N1719 Li1674 1.990 . S
N1719 C1716 1.314 . S
N1719 C1717 1.279 . S
C1720 C1717 1.358 . S
C1720 C1721 1.356 . S
C1720 H1757 0.930 . S
C1721 C1718 1.348 . S
C1721 C1720 1.356 . S
H1722 C1716 0.930 . S
H1723 C1717 0.930 . S
C1724 N1725 1.314 . S
C1724 C1726 1.353 . S
C1724 H1730 0.930 . S
N1725 Li1675 1.990 . S
N1725 C1724 1.314 . S
N1725 C1728 1.279 . S
C1726 C1724 1.353 . S
C1726 C1729 1.348 . S
C1726 H1758 0.929 . S
C1727 C1728 1.358 . S
C1727 C1729 1.356 . S
C1727 H1759 0.930 . S
C1728 N1725 1.279 . S
C1728 C1727 1.358 . S
C1728 H1731 0.930 . S
C1729 C1726 1.348 . S
C1729 C1727 1.356 . S
H1730 C1724 0.930 . S
H1731 C1728 0.930 . S
O1732 Li1672 1.956 . S
O1732 Li1673 1.970 . S
O1732 Li1674 1.961 . S
O1732 C1676 1.325 . S
O1733 Li1672 1.970 . S
O1733 Li1673 1.956 . S
O1733 Li1675 1.961 . S
O1733 C1682 1.325 . S
O1734 Li1672 1.961 . S
O1734 Li1674 1.956 . S
O1734 Li1675 1.970 . S
O1734 C1704 1.325 . S
O1735 Li1673 1.961 . S
O1735 Li1674 1.970 . S
O1735 Li1675 1.956 . S
O1735 C1710 1.325 . S
H1736 C1678 0.929 1_455 S
H1737 C1679 0.930 . S
H1738 C1680 0.930 . S
H1739 C1681 0.930 . S
H1740 C1683 0.930 . S
H1741 C1685 0.929 . S
H1742 C1686 0.930 . S
H1743 C1687 0.930 . S
H1744 C1690 0.930 . S
H1745 C1693 0.929 . S
H1746 C1698 0.929 . S
H1747 C1699 0.930 . S
H1748 C1706 0.929 . S
H1749 C1707 0.930 . S
H1750 C1708 0.930 . S
H1751 C1709 0.930 . S
H1752 C1711 0.929 . S
H1753 C1712 0.930 . S
H1754 C1713 0.930 . S
H1755 C1714 0.930 . S
H1756 C1718 0.929 1_455 S
H1757 C1720 0.930 . S
H1758 C1726 0.929 . S
H1759 C1727 0.930 . S
Li1760 N1777 1.990 . S
Li1760 O1820 1.956 . S
Li1760 O1821 1.970 . S
Li1760 O1822 1.961 . S
Li1761 N1785 1.990 . S
Li1761 O1820 1.970 . S
Li1761 O1821 1.956 . S
Li1761 O1823 1.961 . S
Li1762 N1807 1.990 . S
Li1762 O1820 1.961 . S
Li1762 O1822 1.956 . S
Li1762 O1823 1.970 . S
Li1763 N1813 1.990 . S
Li1763 O1821 1.961 . S
Li1763 O1822 1.970 . S
Li1763 O1823 1.956 . S
C1764 C1766 1.348 . S
C1764 C1767 1.356 . S
C1764 O1820 1.325 . S
N1765 C1768 1.314 . S
N1765 C1769 1.279 . S
C1766 C1764 1.348 . S
C1766 C1768 1.353 . S
C1766 H1824 0.929 . S
C1767 C1764 1.356 . S
C1767 C1769 1.358 . S
C1767 H1825 0.930 . S
C1768 N1765 1.314 . S
C1768 C1766 1.353 . S
C1768 H1826 0.930 . S
C1769 N1765 1.279 . S
C1769 C1767 1.358 . S
C1769 H1827 0.930 . S
C1770 C1773 1.348 . S
C1770 C1774 1.356 . S
C1770 O1821 1.325 . S
C1771 N1772 1.279 . S
C1771 C1774 1.358 . S
C1771 H1828 0.930 . S
N1772 C1771 1.279 . S
N1772 C1775 1.314 . S
C1773 C1770 1.348 . S
C1773 C1775 1.353 . S
C1773 H1829 0.929 . S
C1774 C1770 1.356 . S
C1774 C1771 1.358 . S
C1774 H1830 0.930 . S
C1775 N1772 1.314 . S
C1775 C1773 1.353 . S
C1775 H1831 0.930 . S
C1776 N1777 1.314 . S
C1776 C1781 1.353 . S
C1776 H1782 0.930 . S
N1777 Li1760 1.990 . S
N1777 C1776 1.314 . S
N1777 C1779 1.279 . S
C1778 C1779 1.358 . S
C1778 C1780 1.356 . S
C1778 H1832 0.930 . S
C1779 N1777 1.279 . S
C1779 C1778 1.358 . S
C1779 H1783 0.930 . S
C1780 C1778 1.356 . S
C1780 C1781 1.348 . S
C1781 C1776 1.353 . S
C1781 C1780 1.348 . S
C1781 H1833 0.929 . S
H1782 C1776 0.930 . S
H1783 C1779 0.930 . S
C1784 N1785 1.314 . S
C1784 C1786 1.353 . S
C1784 H1790 0.930 . S
N1785 Li1761 1.990 . S
N1785 C1784 1.314 . S
N1785 C1788 1.279 . S
C1786 C1784 1.353 . S
C1786 C1789 1.348 . S
C1786 H1834 0.929 . S
C1787 C1788 1.358 . S
C1787 C1789 1.356 . S
C1787 H1835 0.930 . S
C1788 N1785 1.279 . S
C1788 C1787 1.358 . S
C1788 H1791 0.930 . S
C1789 C1786 1.348 . S
C1789 C1787 1.356 . S
H1790 C1784 0.930 . S
H1791 C1788 0.930 . S
C1792 C1794 1.348 . S
C1792 C1795 1.356 . S
C1792 O1822 1.325 . S
N1793 C1796 1.314 . S
N1793 C1797 1.279 . S
C1794 C1792 1.348 . S
C1794 C1796 1.353 . S
C1794 H1836 0.929 . S
C1795 C1792 1.356 . S
C1795 C1797 1.358 . S
C1795 H1837 0.930 . S
C1796 N1793 1.314 . S
C1796 C1794 1.353 . S
C1796 H1838 0.930 . S
C1797 N1793 1.279 . S
C1797 C1795 1.358 . S
C1797 H1839 0.930 . S
C1798 C1799 1.348 . S
C1798 C1800 1.356 . S
C1798 O1823 1.325 . S
C1799 C1798 1.348 . S
C1799 C1801 1.353 . S
C1799 H1840 0.929 . S
C1800 C1798 1.356 . S
C1800 C1802 1.358 . S
C1800 H1841 0.930 . S
C1801 C1799 1.353 . S
C1801 N1803 1.314 . S
C1801 H1842 0.930 . S
C1802 C1800 1.358 . S
C1802 N1803 1.279 . S
C1802 H1843 0.930 . S
N1803 C1801 1.314 . S
N1803 C1802 1.279 . S
C1804 C1806 1.353 . S
C1804 N1807 1.314 . S
C1804 H1810 0.930 . S
C1805 N1807 1.279 . S
C1805 C1808 1.358 . S
C1805 H1811 0.930 . S
C1806 C1804 1.353 . S
C1806 C1809 1.348 . S
C1806 H1844 0.929 . S
N1807 Li1762 1.990 . S
N1807 C1804 1.314 . S
N1807 C1805 1.279 . S
C1808 C1805 1.358 . S
C1808 C1809 1.356 . S
C1808 H1845 0.930 . S
C1809 C1806 1.348 . S
C1809 C1808 1.356 . S
H1810 C1804 0.930 . S
H1811 C1805 0.930 . S
C1812 N1813 1.314 . S
C1812 C1814 1.353 . S
C1812 H1818 0.930 . S
N1813 Li1763 1.990 . S
N1813 C1812 1.314 . S
N1813 C1816 1.279 . S
C1814 C1812 1.353 . S
C1814 C1817 1.348 . S
C1814 H1846 0.929 . S
C1815 C1816 1.358 . S
C1815 C1817 1.356 . S
C1815 H1847 0.930 . S
C1816 N1813 1.279 . S
C1816 C1815 1.358 . S
C1816 H1819 0.930 . S
C1817 C1814 1.348 . S
C1817 C1815 1.356 . S
H1818 C1812 0.930 . S
H1819 C1816 0.930 . S
O1820 Li1760 1.956 . S
O1820 Li1761 1.970 . S
O1820 Li1762 1.961 . S
O1820 C1764 1.325 . S
O1821 Li1760 1.970 . S
O1821 Li1761 1.956 . S
O1821 Li1763 1.961 . S
O1821 C1770 1.325 . S
O1822 Li1760 1.961 . S
O1822 Li1762 1.956 . S
O1822 Li1763 1.970 . S
O1822 C1792 1.325 . S
O1823 Li1761 1.961 . S
O1823 Li1762 1.970 . S
O1823 Li1763 1.956 . S
O1823 C1798 1.325 . S
H1824 C1766 0.929 . S
H1825 C1767 0.930 . S
H1826 C1768 0.930 . S
H1827 C1769 0.930 . S
H1828 C1771 0.930 . S
H1829 C1773 0.929 . S
H1830 C1774 0.930 . S
H1831 C1775 0.930 . S
H1832 C1778 0.930 . S
H1833 C1781 0.929 . S
H1834 C1786 0.929 . S
H1835 C1787 0.930 . S
H1836 C1794 0.929 . S
H1837 C1795 0.930 . S
H1838 C1796 0.930 . S
H1839 C1797 0.930 . S
H1840 C1799 0.929 . S
H1841 C1800 0.930 . S
H1842 C1801 0.930 . S
H1843 C1802 0.930 . S
H1844 C1806 0.929 . S
H1845 C1808 0.930 . S
H1846 C1814 0.929 . S
H1847 C1815 0.930 . S
Li1848 N1865 1.990 . S
Li1848 O1908 1.956 . S
Li1848 O1909 1.970 . S
Li1848 O1910 1.961 . S
Li1849 N1873 1.990 . S
Li1849 O1908 1.970 . S
Li1849 O1909 1.956 . S
Li1849 O1911 1.961 . S
Li1850 N1895 1.990 . S
Li1850 O1908 1.961 . S
Li1850 O1910 1.956 . S
Li1850 O1911 1.970 . S
Li1851 N1901 1.990 1_655 S
Li1851 O1909 1.961 . S
Li1851 O1910 1.970 . S
Li1851 O1911 1.956 . S
C1852 C1854 1.348 . S
C1852 C1855 1.356 . S
C1852 O1908 1.325 . S
N1853 C1856 1.314 . S
N1853 C1857 1.279 . S
C1854 C1852 1.348 . S
C1854 C1856 1.353 . S
C1854 H1912 0.929 . S
C1855 C1852 1.356 . S
C1855 C1857 1.358 . S
C1855 H1913 0.930 . S
C1856 N1853 1.314 . S
C1856 C1854 1.353 . S
C1856 H1914 0.930 . S
C1857 N1853 1.279 . S
C1857 C1855 1.358 . S
C1857 H1915 0.930 . S
C1858 C1861 1.348 . S
C1858 C1862 1.356 1_655 S
C1858 O1909 1.325 . S
C1859 N1860 1.279 . S
C1859 C1862 1.358 . S
C1859 H1916 0.930 . S
N1860 C1859 1.279 . S
N1860 C1863 1.314 . S
C1861 C1858 1.348 . S
C1861 C1863 1.353 1_655 S
C1861 H1917 0.929 . S
C1862 C1858 1.356 1_455 S
C1862 C1859 1.358 . S
C1862 H1918 0.930 . S
C1863 N1860 1.314 . S
C1863 C1861 1.353 1_455 S
C1863 H1919 0.930 . S
C1864 N1865 1.314 . S
C1864 C1869 1.353 . S
C1864 H1870 0.930 . S
N1865 Li1848 1.990 . S
N1865 C1864 1.314 . S
N1865 C1867 1.279 . S
C1866 C1867 1.358 . S
C1866 C1868 1.356 . S
C1866 H1920 0.930 . S
C1867 N1865 1.279 . S
C1867 C1866 1.358 . S
C1867 H1871 0.930 . S
C1868 C1866 1.356 . S
C1868 C1869 1.348 . S
C1869 C1864 1.353 . S
C1869 C1868 1.348 . S
C1869 H1921 0.929 1_655 S
H1870 C1864 0.930 . S
H1871 C1867 0.930 . S
C1872 N1873 1.314 . S
C1872 C1874 1.353 . S
C1872 H1878 0.930 . S
N1873 Li1849 1.990 . S
N1873 C1872 1.314 . S
N1873 C1876 1.279 . S
C1874 C1872 1.353 . S
C1874 C1877 1.348 . S
C1874 H1922 0.929 . S
C1875 C1876 1.358 . S
C1875 C1877 1.356 . S
C1875 H1923 0.930 . S
C1876 N1873 1.279 . S
C1876 C1875 1.358 . S
C1876 H1879 0.930 . S
C1877 C1874 1.348 . S
C1877 C1875 1.356 . S
H1878 C1872 0.930 . S
H1879 C1876 0.930 . S
C1880 C1882 1.348 . S
C1880 C1883 1.356 . S
C1880 O1910 1.325 . S
N1881 C1884 1.314 1_655 S
N1881 C1885 1.279 . S
C1882 C1880 1.348 . S
C1882 C1884 1.353 1_655 S
C1882 H1924 0.929 1_655 S
C1883 C1880 1.356 . S
C1883 C1885 1.358 . S
C1883 H1925 0.930 . S
C1884 N1881 1.314 1_455 S
C1884 C1882 1.353 1_455 S
C1884 H1926 0.930 . S
C1885 N1881 1.279 . S
C1885 C1883 1.358 . S
C1885 H1927 0.930 . S
C1886 C1887 1.348 . S
C1886 C1888 1.356 . S
C1886 O1911 1.325 . S
C1887 C1886 1.348 . S
C1887 C1889 1.353 . S
C1887 H1928 0.929 . S
C1888 C1886 1.356 . S
C1888 C1890 1.358 . S
C1888 H1929 0.930 . S
C1889 C1887 1.353 . S
C1889 N1891 1.314 . S
C1889 H1930 0.930 . S
C1890 C1888 1.358 . S
C1890 N1891 1.279 . S
C1890 H1931 0.930 . S
N1891 C1889 1.314 . S
N1891 C1890 1.279 . S
C1892 C1894 1.353 . S
C1892 N1895 1.314 . S
C1892 H1898 0.930 . S
C1893 N1895 1.279 . S
C1893 C1896 1.358 . S
C1893 H1899 0.930 . S
C1894 C1892 1.353 . S
C1894 C1897 1.348 . S
C1894 H1932 0.929 . S
N1895 Li1850 1.990 . S
N1895 C1892 1.314 . S
N1895 C1893 1.279 . S
C1896 C1893 1.358 . S
C1896 C1897 1.356 . S
C1896 H1933 0.930 . S
C1897 C1894 1.348 . S
C1897 C1896 1.356 . S
H1898 C1892 0.930 . S
H1899 C1893 0.930 . S
C1900 N1901 1.314 . S
C1900 C1902 1.353 . S
C1900 H1906 0.930 . S
N1901 Li1851 1.990 1_455 S
N1901 C1900 1.314 . S
N1901 C1904 1.279 . S
C1902 C1900 1.353 . S
C1902 C1905 1.348 . S
C1902 H1934 0.929 . S
C1903 C1904 1.358 . S
C1903 C1905 1.356 . S
C1903 H1935 0.930 . S
C1904 N1901 1.279 . S
C1904 C1903 1.358 . S
C1904 H1907 0.930 . S
C1905 C1902 1.348 . S
C1905 C1903 1.356 . S
H1906 C1900 0.930 . S
H1907 C1904 0.930 . S
O1908 Li1848 1.956 . S
O1908 Li1849 1.970 . S
O1908 Li1850 1.961 . S
O1908 C1852 1.325 . S
O1909 Li1848 1.970 . S
O1909 Li1849 1.956 . S
O1909 Li1851 1.961 . S
O1909 C1858 1.325 . S
O1910 Li1848 1.961 . S
O1910 Li1850 1.956 . S
O1910 Li1851 1.970 . S
O1910 C1880 1.325 . S
O1911 Li1849 1.961 . S
O1911 Li1850 1.970 . S
O1911 Li1851 1.956 . S
O1911 C1886 1.325 . S
H1912 C1854 0.929 . S
H1913 C1855 0.930 . S
H1914 C1856 0.930 . S
H1915 C1857 0.930 . S
H1916 C1859 0.930 . S
H1917 C1861 0.929 . S
H1918 C1862 0.930 . S
H1919 C1863 0.930 . S
H1920 C1866 0.930 . S
H1921 C1869 0.929 1_455 S
H1922 C1874 0.929 . S
H1923 C1875 0.930 . S
H1924 C1882 0.929 1_455 S
H1925 C1883 0.930 . S
H1926 C1884 0.930 . S
H1927 C1885 0.930 . S
H1928 C1887 0.929 . S
H1929 C1888 0.930 . S
H1930 C1889 0.930 . S
H1931 C1890 0.930 . S
H1932 C1894 0.929 . S
H1933 C1896 0.930 . S
H1934 C1902 0.929 . S
H1935 C1903 0.930 . S
Li1936 N1953 1.990 . S
Li1936 O1996 1.956 . S
Li1936 O1997 1.970 . S
Li1936 O1998 1.961 . S
Li1937 N1961 1.990 . S
Li1937 O1996 1.970 . S
Li1937 O1997 1.956 . S
Li1937 O1999 1.961 . S
Li1938 N1983 1.990 . S
Li1938 O1996 1.961 . S
Li1938 O1998 1.956 . S
Li1938 O1999 1.970 . S
Li1939 N1989 1.990 . S
Li1939 O1997 1.961 . S
Li1939 O1998 1.970 . S
Li1939 O1999 1.956 . S
C1940 C1942 1.348 . S
C1940 C1943 1.356 . S
C1940 O1996 1.325 . S
N1941 C1944 1.314 . S
N1941 C1945 1.279 . S
C1942 C1940 1.348 . S
C1942 C1944 1.353 . S
C1942 H2000 0.929 . S
C1943 C1940 1.356 . S
C1943 C1945 1.358 . S
C1943 H2001 0.930 . S
C1944 N1941 1.314 . S
C1944 C1942 1.353 . S
C1944 H2002 0.930 . S
C1945 N1941 1.279 . S
C1945 C1943 1.358 . S
C1945 H2003 0.930 . S
C1946 C1949 1.348 . S
C1946 C1950 1.356 . S
C1946 O1997 1.325 . S
C1947 N1948 1.279 . S
C1947 C1950 1.358 . S
C1947 H2004 0.930 . S
N1948 C1947 1.279 . S
N1948 C1951 1.314 . S
C1949 C1946 1.348 . S
C1949 C1951 1.353 . S
C1949 H2005 0.929 . S
C1950 C1946 1.356 . S
C1950 C1947 1.358 . S
C1950 H2006 0.930 . S
C1951 N1948 1.314 . S
C1951 C1949 1.353 . S
C1951 H2007 0.930 . S
C1952 N1953 1.314 . S
C1952 C1957 1.353 . S
C1952 H1958 0.930 . S
N1953 Li1936 1.990 . S
N1953 C1952 1.314 . S
N1953 C1955 1.279 . S
C1954 C1955 1.358 . S
C1954 C1956 1.356 . S
C1954 H2008 0.930 . S
C1955 N1953 1.279 . S
C1955 C1954 1.358 . S
C1955 H1959 0.930 . S
C1956 C1954 1.356 . S
C1956 C1957 1.348 . S
C1957 C1952 1.353 . S
C1957 C1956 1.348 . S
C1957 H2009 0.929 . S
H1958 C1952 0.930 . S
H1959 C1955 0.930 . S
C1960 N1961 1.314 . S
C1960 C1962 1.353 . S
C1960 H1966 0.930 . S
N1961 Li1937 1.990 . S
N1961 C1960 1.314 . S
N1961 C1964 1.279 . S
C1962 C1960 1.353 . S
C1962 C1965 1.348 . S
C1962 H2010 0.929 . S
C1963 C1964 1.358 . S
C1963 C1965 1.356 . S
C1963 H2011 0.930 . S
C1964 N1961 1.279 . S
C1964 C1963 1.358 . S
C1964 H1967 0.930 . S
C1965 C1962 1.348 . S
C1965 C1963 1.356 . S
H1966 C1960 0.930 . S
H1967 C1964 0.930 . S
C1968 C1970 1.348 . S
C1968 C1971 1.356 . S
C1968 O1998 1.325 . S
N1969 C1972 1.314 . S
N1969 C1973 1.279 . S
C1970 C1968 1.348 . S
C1970 C1972 1.353 . S
C1970 H2012 0.929 . S
C1971 C1968 1.356 . S
C1971 C1973 1.358 . S
C1971 H2013 0.930 . S
C1972 N1969 1.314 . S
C1972 C1970 1.353 . S
C1972 H2014 0.930 . S
C1973 N1969 1.279 . S
C1973 C1971 1.358 . S
C1973 H2015 0.930 . S
C1974 C1975 1.348 . S
C1974 C1976 1.356 . S
C1974 O1999 1.325 . S
C1975 C1974 1.348 . S
C1975 C1977 1.353 . S
C1975 H2016 0.929 . S
C1976 C1974 1.356 . S
C1976 C1978 1.358 . S
C1976 H2017 0.930 . S
C1977 C1975 1.353 . S
C1977 N1979 1.314 . S
C1977 H2018 0.930 . S
C1978 C1976 1.358 . S
C1978 N1979 1.279 . S
C1978 H2019 0.930 . S
N1979 C1977 1.314 . S
N1979 C1978 1.279 . S
C1980 C1982 1.353 . S
C1980 N1983 1.314 . S
C1980 H1986 0.930 . S
C1981 N1983 1.279 . S
C1981 C1984 1.358 . S
C1981 H1987 0.930 . S
C1982 C1980 1.353 . S
C1982 C1985 1.348 . S
C1982 H2020 0.929 . S
N1983 Li1938 1.990 . S
N1983 C1980 1.314 . S
N1983 C1981 1.279 . S
C1984 C1981 1.358 . S
C1984 C1985 1.356 . S
C1984 H2021 0.930 . S
C1985 C1982 1.348 . S
C1985 C1984 1.356 . S
H1986 C1980 0.930 . S
H1987 C1981 0.930 . S
C1988 N1989 1.314 . S
C1988 C1990 1.353 . S
C1988 H1994 0.930 . S
N1989 Li1939 1.990 . S
N1989 C1988 1.314 . S
N1989 C1992 1.279 . S
C1990 C1988 1.353 . S
C1990 C1993 1.348 . S
C1990 H2022 0.929 . S
C1991 C1992 1.358 . S
C1991 C1993 1.356 . S
C1991 H2023 0.930 . S
C1992 N1989 1.279 . S
C1992 C1991 1.358 . S
C1992 H1995 0.930 . S
C1993 C1990 1.348 . S
C1993 C1991 1.356 . S
H1994 C1988 0.930 . S
H1995 C1992 0.930 . S
O1996 Li1936 1.956 . S
O1996 Li1937 1.970 . S
O1996 Li1938 1.961 . S
O1996 C1940 1.325 . S
O1997 Li1936 1.970 . S
O1997 Li1937 1.956 . S
O1997 Li1939 1.961 . S
O1997 C1946 1.325 . S
O1998 Li1936 1.961 . S
O1998 Li1938 1.956 . S
O1998 Li1939 1.970 . S
O1998 C1968 1.325 . S
O1999 Li1937 1.961 . S
O1999 Li1938 1.970 . S
O1999 Li1939 1.956 . S
O1999 C1974 1.325 . S
H2000 C1942 0.929 . S
H2001 C1943 0.930 . S
H2002 C1944 0.930 . S
H2003 C1945 0.930 . S
H2004 C1947 0.930 . S
H2005 C1949 0.929 . S
H2006 C1950 0.930 . S
H2007 C1951 0.930 . S
H2008 C1954 0.930 . S
H2009 C1957 0.929 . S
H2010 C1962 0.929 . S
H2011 C1963 0.930 . S
H2012 C1970 0.929 . S
H2013 C1971 0.930 . S
H2014 C1972 0.930 . S
H2015 C1973 0.930 . S
H2016 C1975 0.929 . S
H2017 C1976 0.930 . S
H2018 C1977 0.930 . S
H2019 C1978 0.930 . S
H2020 C1982 0.929 . S
H2021 C1984 0.930 . S
H2022 C1990 0.929 . S
H2023 C1991 0.930 . S
Li2024 N2041 1.990 . S
Li2024 O2084 1.956 . S
Li2024 O2085 1.970 . S
Li2024 O2086 1.961 . S
Li2025 N2049 1.990 . S
Li2025 O2084 1.970 . S
Li2025 O2085 1.956 . S
Li2025 O2087 1.961 . S
Li2026 N2071 1.990 . S
Li2026 O2084 1.961 . S
Li2026 O2086 1.956 . S
Li2026 O2087 1.970 . S
Li2027 N2077 1.990 . S
Li2027 O2085 1.961 . S
Li2027 O2086 1.970 . S
Li2027 O2087 1.956 . S
C2028 C2030 1.348 . S
C2028 C2031 1.356 . S
C2028 O2084 1.325 . S
N2029 C2032 1.314 . S
N2029 C2033 1.279 . S
C2030 C2028 1.348 . S
C2030 C2032 1.353 . S
C2030 H2088 0.929 . S
C2031 C2028 1.356 . S
C2031 C2033 1.358 . S
C2031 H2089 0.930 . S
C2032 N2029 1.314 . S
C2032 C2030 1.353 . S
C2032 H2090 0.930 . S
C2033 N2029 1.279 . S
C2033 C2031 1.358 . S
C2033 H2091 0.930 . S
C2034 C2037 1.348 . S
C2034 C2038 1.356 . S
C2034 O2085 1.325 . S
C2035 N2036 1.279 . S
C2035 C2038 1.358 . S
C2035 H2092 0.930 . S
N2036 C2035 1.279 . S
N2036 C2039 1.314 . S
C2037 C2034 1.348 . S
C2037 C2039 1.353 . S
C2037 H2093 0.929 . S
C2038 C2034 1.356 . S
C2038 C2035 1.358 . S
C2038 H2094 0.930 . S
C2039 N2036 1.314 . S
C2039 C2037 1.353 . S
C2039 H2095 0.930 . S
C2040 N2041 1.314 . S
C2040 C2045 1.353 . S
C2040 H2046 0.930 . S
N2041 Li2024 1.990 . S
N2041 C2040 1.314 . S
N2041 C2043 1.279 . S
C2042 C2043 1.358 . S
C2042 C2044 1.356 . S
C2042 H2096 0.930 . S
C2043 N2041 1.279 . S
C2043 C2042 1.358 . S
C2043 H2047 0.930 . S
C2044 C2042 1.356 . S
C2044 C2045 1.348 . S
C2045 C2040 1.353 . S
C2045 C2044 1.348 . S
C2045 H2097 0.929 . S
H2046 C2040 0.930 . S
H2047 C2043 0.930 . S
C2048 N2049 1.314 . S
C2048 C2050 1.353 . S
C2048 H2054 0.930 . S
N2049 Li2025 1.990 . S
N2049 C2048 1.314 . S
N2049 C2052 1.279 . S
C2050 C2048 1.353 . S
C2050 C2053 1.348 . S
C2050 H2098 0.929 . S
C2051 C2052 1.358 . S
C2051 C2053 1.356 . S
C2051 H2099 0.930 . S
C2052 N2049 1.279 . S
C2052 C2051 1.358 . S
C2052 H2055 0.930 . S
C2053 C2050 1.348 . S
C2053 C2051 1.356 . S
H2054 C2048 0.930 . S
H2055 C2052 0.930 . S
C2056 C2058 1.348 . S
C2056 C2059 1.356 . S
C2056 O2086 1.325 . S
N2057 C2060 1.314 . S
N2057 C2061 1.279 . S
C2058 C2056 1.348 . S
C2058 C2060 1.353 . S
C2058 H2100 0.929 . S
C2059 C2056 1.356 . S
C2059 C2061 1.358 . S
C2059 H2101 0.930 . S
C2060 N2057 1.314 . S
C2060 C2058 1.353 . S
C2060 H2102 0.930 . S
C2061 N2057 1.279 . S
C2061 C2059 1.358 . S
C2061 H2103 0.930 . S
C2062 C2063 1.348 . S
C2062 C2064 1.356 . S
C2062 O2087 1.325 . S
C2063 C2062 1.348 . S
C2063 C2065 1.353 . S
C2063 H2104 0.929 . S
C2064 C2062 1.356 . S
C2064 C2066 1.358 . S
C2064 H2105 0.930 . S
C2065 C2063 1.353 . S
C2065 N2067 1.314 . S
C2065 H2106 0.930 . S
C2066 C2064 1.358 . S
C2066 N2067 1.279 . S
C2066 H2107 0.930 . S
N2067 C2065 1.314 . S
N2067 C2066 1.279 . S
C2068 C2070 1.353 . S
C2068 N2071 1.314 . S
C2068 H2074 0.930 . S
C2069 N2071 1.279 . S
C2069 C2072 1.358 . S
C2069 H2075 0.930 . S
C2070 C2068 1.353 . S
C2070 C2073 1.348 . S
C2070 H2108 0.929 . S
N2071 Li2026 1.990 . S
N2071 C2068 1.314 . S
N2071 C2069 1.279 . S
C2072 C2069 1.358 . S
C2072 C2073 1.356 . S
C2072 H2109 0.930 . S
C2073 C2070 1.348 . S
C2073 C2072 1.356 . S
H2074 C2068 0.930 . S
H2075 C2069 0.930 . S
C2076 N2077 1.314 . S
C2076 C2078 1.353 . S
C2076 H2082 0.930 . S
N2077 Li2027 1.990 . S
N2077 C2076 1.314 . S
N2077 C2080 1.279 . S
C2078 C2076 1.353 . S
C2078 C2081 1.348 . S
C2078 H2110 0.929 . S
C2079 C2080 1.358 . S
C2079 C2081 1.356 . S
C2079 H2111 0.930 . S
C2080 N2077 1.279 . S
C2080 C2079 1.358 . S
C2080 H2083 0.930 . S
C2081 C2078 1.348 . S
C2081 C2079 1.356 . S
H2082 C2076 0.930 . S
H2083 C2080 0.930 . S
O2084 Li2024 1.956 . S
O2084 Li2025 1.970 . S
O2084 Li2026 1.961 . S
O2084 C2028 1.325 . S
O2085 Li2024 1.970 . S
O2085 Li2025 1.956 . S
O2085 Li2027 1.961 . S
O2085 C2034 1.325 . S
O2086 Li2024 1.961 . S
O2086 Li2026 1.956 . S
O2086 Li2027 1.970 . S
O2086 C2056 1.325 . S
O2087 Li2025 1.961 . S
O2087 Li2026 1.970 . S
O2087 Li2027 1.956 . S
O2087 C2062 1.325 . S
H2088 C2030 0.929 . S
H2089 C2031 0.930 . S
H2090 C2032 0.930 . S
H2091 C2033 0.930 . S
H2092 C2035 0.930 . S
H2093 C2037 0.929 . S
H2094 C2038 0.930 . S
H2095 C2039 0.930 . S
H2096 C2042 0.930 . S
H2097 C2045 0.929 . S
H2098 C2050 0.929 . S
H2099 C2051 0.930 . S
H2100 C2058 0.929 . S
H2101 C2059 0.930 . S
H2102 C2060 0.930 . S
H2103 C2061 0.930 . S
H2104 C2063 0.929 . S
H2105 C2064 0.930 . S
H2106 C2065 0.930 . S
H2107 C2066 0.930 . S
H2108 C2070 0.929 . S
H2109 C2072 0.930 . S
H2110 C2078 0.929 . S
H2111 C2079 0.930 . S
Li2112 N2129 1.990 . S
Li2112 O2172 1.956 . S
Li2112 O2173 1.970 . S
Li2112 O2174 1.961 . S
Li2113 N2137 1.990 . S
Li2113 O2172 1.970 . S
Li2113 O2173 1.956 . S
Li2113 O2175 1.961 . S
Li2114 N2159 1.990 . S
Li2114 O2172 1.961 . S
Li2114 O2174 1.956 . S
Li2114 O2175 1.970 . S
Li2115 N2165 1.990 . S
Li2115 O2173 1.961 . S
Li2115 O2174 1.970 . S
Li2115 O2175 1.956 . S
C2116 C2118 1.348 . S
C2116 C2119 1.356 . S
C2116 O2172 1.325 . S
N2117 C2120 1.314 . S
N2117 C2121 1.279 . S
C2118 C2116 1.348 . S
C2118 C2120 1.353 . S
C2118 H2176 0.929 . S
C2119 C2116 1.356 . S
C2119 C2121 1.358 . S
C2119 H2177 0.930 . S
C2120 N2117 1.314 . S
C2120 C2118 1.353 . S
C2120 H2178 0.930 . S
C2121 N2117 1.279 . S
C2121 C2119 1.358 . S
C2121 H2179 0.930 . S
C2122 C2125 1.348 . S
C2122 C2126 1.356 . S
C2122 O2173 1.325 . S
C2123 N2124 1.279 . S
C2123 C2126 1.358 . S
C2123 H2180 0.930 . S
N2124 C2123 1.279 . S
N2124 C2127 1.314 . S
C2125 C2122 1.348 . S
C2125 C2127 1.353 . S
C2125 H2181 0.929 . S
C2126 C2122 1.356 . S
C2126 C2123 1.358 . S
C2126 H2182 0.930 . S
C2127 N2124 1.314 . S
C2127 C2125 1.353 . S
C2127 H2183 0.930 . S
C2128 N2129 1.314 . S
C2128 C2133 1.353 . S
C2128 H2134 0.930 . S
N2129 Li2112 1.990 . S
N2129 C2128 1.314 . S
N2129 C2131 1.279 . S
C2130 C2131 1.358 . S
C2130 C2132 1.356 . S
C2130 H2184 0.930 . S
C2131 N2129 1.279 . S
C2131 C2130 1.358 . S
C2131 H2135 0.930 . S
C2132 C2130 1.356 . S
C2132 C2133 1.348 . S
C2133 C2128 1.353 . S
C2133 C2132 1.348 . S
C2133 H2185 0.929 . S
H2134 C2128 0.930 . S
H2135 C2131 0.930 . S
C2136 N2137 1.314 . S
C2136 C2138 1.353 . S
C2136 H2142 0.930 . S
N2137 Li2113 1.990 . S
N2137 C2136 1.314 . S
N2137 C2140 1.279 . S
C2138 C2136 1.353 . S
C2138 C2141 1.348 . S
C2138 H2186 0.929 . S
C2139 C2140 1.358 . S
C2139 C2141 1.356 . S
C2139 H2187 0.930 . S
C2140 N2137 1.279 . S
C2140 C2139 1.358 . S
C2140 H2143 0.930 . S
C2141 C2138 1.348 . S
C2141 C2139 1.356 . S
H2142 C2136 0.930 . S
H2143 C2140 0.930 . S
C2144 C2146 1.348 . S
C2144 C2147 1.356 . S
C2144 O2174 1.325 . S
N2145 C2148 1.314 . S
N2145 C2149 1.279 . S
C2146 C2144 1.348 . S
C2146 C2148 1.353 . S
C2146 H2188 0.929 . S
C2147 C2144 1.356 . S
C2147 C2149 1.358 . S
C2147 H2189 0.930 . S
C2148 N2145 1.314 . S
C2148 C2146 1.353 . S
C2148 H2190 0.930 . S
C2149 N2145 1.279 . S
C2149 C2147 1.358 . S
C2149 H2191 0.930 . S
C2150 C2151 1.348 . S
C2150 C2152 1.356 . S
C2150 O2175 1.325 . S
C2151 C2150 1.348 . S
C2151 C2153 1.353 . S
C2151 H2192 0.929 . S
C2152 C2150 1.356 . S
C2152 C2154 1.358 . S
C2152 H2193 0.930 . S
C2153 C2151 1.353 . S
C2153 N2155 1.314 . S
C2153 H2194 0.930 . S
C2154 C2152 1.358 . S
C2154 N2155 1.279 . S
C2154 H2195 0.930 . S
N2155 C2153 1.314 . S
N2155 C2154 1.279 . S
C2156 C2158 1.353 . S
C2156 N2159 1.314 . S
C2156 H2162 0.930 . S
C2157 N2159 1.279 . S
C2157 C2160 1.358 . S
C2157 H2163 0.930 . S
C2158 C2156 1.353 . S
C2158 C2161 1.348 . S
C2158 H2196 0.929 . S
N2159 Li2114 1.990 . S
N2159 C2156 1.314 . S
N2159 C2157 1.279 . S
C2160 C2157 1.358 . S
C2160 C2161 1.356 . S
C2160 H2197 0.930 . S
C2161 C2158 1.348 . S
C2161 C2160 1.356 . S
H2162 C2156 0.930 . S
H2163 C2157 0.930 . S
C2164 N2165 1.314 . S
C2164 C2166 1.353 . S
C2164 H2170 0.930 . S
N2165 Li2115 1.990 . S
N2165 C2164 1.314 . S
N2165 C2168 1.279 . S
C2166 C2164 1.353 . S
C2166 C2169 1.348 . S
C2166 H2198 0.929 . S
C2167 C2168 1.358 . S
C2167 C2169 1.356 . S
C2167 H2199 0.930 . S
C2168 N2165 1.279 . S
C2168 C2167 1.358 . S
C2168 H2171 0.930 . S
C2169 C2166 1.348 . S
C2169 C2167 1.356 . S
H2170 C2164 0.930 . S
H2171 C2168 0.930 . S
O2172 Li2112 1.956 . S
O2172 Li2113 1.970 . S
O2172 Li2114 1.961 . S
O2172 C2116 1.325 . S
O2173 Li2112 1.970 . S
O2173 Li2113 1.956 . S
O2173 Li2115 1.961 . S
O2173 C2122 1.325 . S
O2174 Li2112 1.961 . S
O2174 Li2114 1.956 . S
O2174 Li2115 1.970 . S
O2174 C2144 1.325 . S
O2175 Li2113 1.961 . S
O2175 Li2114 1.970 . S
O2175 Li2115 1.956 . S
O2175 C2150 1.325 . S
H2176 C2118 0.929 . S
H2177 C2119 0.930 . S
H2178 C2120 0.930 . S
H2179 C2121 0.930 . S
H2180 C2123 0.930 . S
H2181 C2125 0.929 . S
H2182 C2126 0.930 . S
H2183 C2127 0.930 . S
H2184 C2130 0.930 . S
H2185 C2133 0.929 . S
H2186 C2138 0.929 . S
H2187 C2139 0.930 . S
H2188 C2146 0.929 . S
H2189 C2147 0.930 . S
H2190 C2148 0.930 . S
H2191 C2149 0.930 . S
H2192 C2151 0.929 . S
H2193 C2152 0.930 . S
H2194 C2153 0.930 . S
H2195 C2154 0.930 . S
H2196 C2158 0.929 . S
H2197 C2160 0.930 . S
H2198 C2166 0.929 . S
H2199 C2167 0.930 . S
Li2200 N2217 1.990 . S
Li2200 O2260 1.956 . S
Li2200 O2261 1.970 . S
Li2200 O2262 1.961 . S
Li2201 N2225 1.990 . S
Li2201 O2260 1.970 . S
Li2201 O2261 1.956 . S
Li2201 O2263 1.961 . S
Li2202 N2247 1.990 . S
Li2202 O2260 1.961 . S
Li2202 O2262 1.956 . S
Li2202 O2263 1.970 . S
Li2203 N2253 1.990 . S
Li2203 O2261 1.961 . S
Li2203 O2262 1.970 . S
Li2203 O2263 1.956 . S
C2204 C2206 1.348 . S
C2204 C2207 1.356 . S
C2204 O2260 1.325 . S
N2205 C2208 1.314 . S
N2205 C2209 1.279 . S
C2206 C2204 1.348 . S
C2206 C2208 1.353 . S
C2206 H2264 0.929 . S
C2207 C2204 1.356 . S
C2207 C2209 1.358 . S
C2207 H2265 0.930 . S
C2208 N2205 1.314 . S
C2208 C2206 1.353 . S
C2208 H2266 0.930 . S
C2209 N2205 1.279 . S
C2209 C2207 1.358 . S
C2209 H2267 0.930 . S
C2210 C2213 1.348 . S
C2210 C2214 1.356 . S
C2210 O2261 1.325 . S
C2211 N2212 1.279 . S
C2211 C2214 1.358 . S
C2211 H2268 0.930 . S
N2212 C2211 1.279 . S
N2212 C2215 1.314 . S
C2213 C2210 1.348 . S
C2213 C2215 1.353 . S
C2213 H2269 0.929 . S
C2214 C2210 1.356 . S
C2214 C2211 1.358 . S
C2214 H2270 0.930 . S
C2215 N2212 1.314 . S
C2215 C2213 1.353 . S
C2215 H2271 0.930 . S
C2216 N2217 1.314 . S
C2216 C2221 1.353 . S
C2216 H2222 0.930 . S
N2217 Li2200 1.990 . S
N2217 C2216 1.314 . S
N2217 C2219 1.279 . S
C2218 C2219 1.358 . S
C2218 C2220 1.356 . S
C2218 H2272 0.930 . S
C2219 N2217 1.279 . S
C2219 C2218 1.358 . S
C2219 H2223 0.930 . S
C2220 C2218 1.356 . S
C2220 C2221 1.348 . S
C2221 C2216 1.353 . S
C2221 C2220 1.348 . S
C2221 H2273 0.929 . S
H2222 C2216 0.930 . S
H2223 C2219 0.930 . S
C2224 N2225 1.314 . S
C2224 C2226 1.353 . S
C2224 H2230 0.930 . S
N2225 Li2201 1.990 . S
N2225 C2224 1.314 . S
N2225 C2228 1.279 . S
C2226 C2224 1.353 . S
C2226 C2229 1.348 . S
C2226 H2274 0.929 . S
C2227 C2228 1.358 . S
C2227 C2229 1.356 . S
C2227 H2275 0.930 . S
C2228 N2225 1.279 . S
C2228 C2227 1.358 . S
C2228 H2231 0.930 . S
C2229 C2226 1.348 . S
C2229 C2227 1.356 . S
H2230 C2224 0.930 . S
H2231 C2228 0.930 . S
C2232 C2234 1.348 . S
C2232 C2235 1.356 . S
C2232 O2262 1.325 . S
N2233 C2236 1.314 . S
N2233 C2237 1.279 . S
C2234 C2232 1.348 . S
C2234 C2236 1.353 . S
C2234 H2276 0.929 . S
C2235 C2232 1.356 . S
C2235 C2237 1.358 . S
C2235 H2277 0.930 . S
C2236 N2233 1.314 . S
C2236 C2234 1.353 . S
C2236 H2278 0.930 . S
C2237 N2233 1.279 . S
C2237 C2235 1.358 . S
C2237 H2279 0.930 . S
C2238 C2239 1.348 . S
C2238 C2240 1.356 . S
C2238 O2263 1.325 . S
C2239 C2238 1.348 . S
C2239 C2241 1.353 . S
C2239 H2280 0.929 . S
C2240 C2238 1.356 . S
C2240 C2242 1.358 . S
C2240 H2281 0.930 . S
C2241 C2239 1.353 . S
C2241 N2243 1.314 . S
C2241 H2282 0.930 . S
C2242 C2240 1.358 . S
C2242 N2243 1.279 . S
C2242 H2283 0.930 . S
N2243 C2241 1.314 . S
N2243 C2242 1.279 . S
C2244 C2246 1.353 . S
C2244 N2247 1.314 . S
C2244 H2250 0.930 . S
C2245 N2247 1.279 . S
C2245 C2248 1.358 . S
C2245 H2251 0.930 . S
C2246 C2244 1.353 . S
C2246 C2249 1.348 . S
C2246 H2284 0.929 . S
N2247 Li2202 1.990 . S
N2247 C2244 1.314 . S
N2247 C2245 1.279 . S
C2248 C2245 1.358 . S
C2248 C2249 1.356 . S
C2248 H2285 0.930 . S
C2249 C2246 1.348 . S
C2249 C2248 1.356 . S
H2250 C2244 0.930 . S
H2251 C2245 0.930 . S
C2252 N2253 1.314 . S
C2252 C2254 1.353 . S
C2252 H2258 0.930 . S
N2253 Li2203 1.990 . S
N2253 C2252 1.314 . S
N2253 C2256 1.279 . S
C2254 C2252 1.353 . S
C2254 C2257 1.348 . S
C2254 H2286 0.929 . S
C2255 C2256 1.358 . S
C2255 C2257 1.356 . S
C2255 H2287 0.930 . S
C2256 N2253 1.279 . S
C2256 C2255 1.358 . S
C2256 H2259 0.930 . S
C2257 C2254 1.348 . S
C2257 C2255 1.356 . S
H2258 C2252 0.930 . S
H2259 C2256 0.930 . S
O2260 Li2200 1.956 . S
O2260 Li2201 1.970 . S
O2260 Li2202 1.961 . S
O2260 C2204 1.325 . S
O2261 Li2200 1.970 . S
O2261 Li2201 1.956 . S
O2261 Li2203 1.961 . S
O2261 C2210 1.325 . S
O2262 Li2200 1.961 . S
O2262 Li2202 1.956 . S
O2262 Li2203 1.970 . S
O2262 C2232 1.325 . S
O2263 Li2201 1.961 . S
O2263 Li2202 1.970 . S
O2263 Li2203 1.956 . S
O2263 C2238 1.325 . S
H2264 C2206 0.929 . S
H2265 C2207 0.930 . S
H2266 C2208 0.930 . S
H2267 C2209 0.930 . S
H2268 C2211 0.930 . S
H2269 C2213 0.929 . S
H2270 C2214 0.930 . S
H2271 C2215 0.930 . S
H2272 C2218 0.930 . S
H2273 C2221 0.929 . S
H2274 C2226 0.929 . S
H2275 C2227 0.930 . S
H2276 C2234 0.929 . S
H2277 C2235 0.930 . S
H2278 C2236 0.930 . S
H2279 C2237 0.930 . S
H2280 C2239 0.929 . S
H2281 C2240 0.930 . S
H2282 C2241 0.930 . S
H2283 C2242 0.930 . S
H2284 C2246 0.929 . S
H2285 C2248 0.930 . S
H2286 C2254 0.929 . S
H2287 C2255 0.930 . S
Li2288 N2305 1.990 . S
Li2288 O2348 1.956 . S
Li2288 O2349 1.970 . S
Li2288 O2350 1.961 . S
Li2289 N2313 1.990 . S
Li2289 O2348 1.970 . S
Li2289 O2349 1.956 . S
Li2289 O2351 1.961 . S
Li2290 N2335 1.990 . S
Li2290 O2348 1.961 . S
Li2290 O2350 1.956 . S
Li2290 O2351 1.970 . S
Li2291 N2341 1.990 . S
Li2291 O2349 1.961 . S
Li2291 O2350 1.970 . S
Li2291 O2351 1.956 . S
C2292 C2294 1.348 . S
C2292 C2295 1.356 . S
C2292 O2348 1.325 . S
N2293 C2296 1.314 . S
N2293 C2297 1.279 . S
C2294 C2292 1.348 . S
C2294 C2296 1.353 . S
C2294 H2352 0.929 . S
C2295 C2292 1.356 . S
C2295 C2297 1.358 . S
C2295 H2353 0.930 . S
C2296 N2293 1.314 . S
C2296 C2294 1.353 . S
C2296 H2354 0.930 . S
C2297 N2293 1.279 . S
C2297 C2295 1.358 . S
C2297 H2355 0.930 . S
C2298 C2301 1.348 . S
C2298 C2302 1.356 . S
C2298 O2349 1.325 . S
C2299 N2300 1.279 . S
C2299 C2302 1.358 . S
C2299 H2356 0.930 . S
N2300 C2299 1.279 . S
N2300 C2303 1.314 . S
C2301 C2298 1.348 . S
C2301 C2303 1.353 . S
C2301 H2357 0.929 . S
C2302 C2298 1.356 . S
C2302 C2299 1.358 . S
C2302 H2358 0.930 . S
C2303 N2300 1.314 . S
C2303 C2301 1.353 . S
C2303 H2359 0.930 . S
C2304 N2305 1.314 . S
C2304 C2309 1.353 . S
C2304 H2310 0.930 . S
N2305 Li2288 1.990 . S
N2305 C2304 1.314 . S
N2305 C2307 1.279 . S
C2306 C2307 1.358 . S
C2306 C2308 1.356 . S
C2306 H2360 0.930 . S
C2307 N2305 1.279 . S
C2307 C2306 1.358 . S
C2307 H2311 0.930 . S
C2308 C2306 1.356 . S
C2308 C2309 1.348 . S
C2309 C2304 1.353 . S
C2309 C2308 1.348 . S
C2309 H2361 0.929 . S
H2310 C2304 0.930 . S
H2311 C2307 0.930 . S
C2312 N2313 1.314 . S
C2312 C2314 1.353 . S
C2312 H2318 0.930 . S
N2313 Li2289 1.990 . S
N2313 C2312 1.314 . S
N2313 C2316 1.279 . S
C2314 C2312 1.353 . S
C2314 C2317 1.348 . S
C2314 H2362 0.929 . S
C2315 C2316 1.358 . S
C2315 C2317 1.356 . S
C2315 H2363 0.930 . S
C2316 N2313 1.279 . S
C2316 C2315 1.358 . S
C2316 H2319 0.930 . S
C2317 C2314 1.348 . S
C2317 C2315 1.356 . S
H2318 C2312 0.930 . S
H2319 C2316 0.930 . S
C2320 C2322 1.348 . S
C2320 C2323 1.356 . S
C2320 O2350 1.325 . S
N2321 C2324 1.314 . S
N2321 C2325 1.279 . S
C2322 C2320 1.348 . S
C2322 C2324 1.353 . S
C2322 H2364 0.929 . S
C2323 C2320 1.356 . S
C2323 C2325 1.358 . S
C2323 H2365 0.930 . S
C2324 N2321 1.314 . S
C2324 C2322 1.353 . S
C2324 H2366 0.930 . S
C2325 N2321 1.279 . S
C2325 C2323 1.358 . S
C2325 H2367 0.930 . S
C2326 C2327 1.348 . S
C2326 C2328 1.356 . S
C2326 O2351 1.325 . S
C2327 C2326 1.348 . S
C2327 C2329 1.353 . S
C2327 H2368 0.929 . S
C2328 C2326 1.356 . S
C2328 C2330 1.358 . S
C2328 H2369 0.930 . S
C2329 C2327 1.353 . S
C2329 N2331 1.314 . S
C2329 H2370 0.930 . S
C2330 C2328 1.358 . S
C2330 N2331 1.279 . S
C2330 H2371 0.930 . S
N2331 C2329 1.314 . S
N2331 C2330 1.279 . S
C2332 C2334 1.353 . S
C2332 N2335 1.314 . S
C2332 H2338 0.930 . S
C2333 N2335 1.279 . S
C2333 C2336 1.358 . S
C2333 H2339 0.930 . S
C2334 C2332 1.353 . S
C2334 C2337 1.348 . S
C2334 H2372 0.929 . S
N2335 Li2290 1.990 . S
N2335 C2332 1.314 . S
N2335 C2333 1.279 . S
C2336 C2333 1.358 . S
C2336 C2337 1.356 . S
C2336 H2373 0.930 . S
C2337 C2334 1.348 . S
C2337 C2336 1.356 . S
H2338 C2332 0.930 . S
H2339 C2333 0.930 . S
C2340 N2341 1.314 . S
C2340 C2342 1.353 . S
C2340 H2346 0.930 . S
N2341 Li2291 1.990 . S
N2341 C2340 1.314 . S
N2341 C2344 1.279 . S
C2342 C2340 1.353 . S
C2342 C2345 1.348 . S
C2342 H2374 0.929 . S
C2343 C2344 1.358 . S
C2343 C2345 1.356 . S
C2343 H2375 0.930 . S
C2344 N2341 1.279 . S
C2344 C2343 1.358 . S
C2344 H2347 0.930 . S
C2345 C2342 1.348 . S
C2345 C2343 1.356 . S
H2346 C2340 0.930 . S
H2347 C2344 0.930 . S
O2348 Li2288 1.956 . S
O2348 Li2289 1.970 . S
O2348 Li2290 1.961 . S
O2348 C2292 1.325 . S
O2349 Li2288 1.970 . S
O2349 Li2289 1.956 . S
O2349 Li2291 1.961 . S
O2349 C2298 1.325 . S
O2350 Li2288 1.961 . S
O2350 Li2290 1.956 . S
O2350 Li2291 1.970 . S
O2350 C2320 1.325 . S
O2351 Li2289 1.961 . S
O2351 Li2290 1.970 . S
O2351 Li2291 1.956 . S
O2351 C2326 1.325 . S
H2352 C2294 0.929 . S
H2353 C2295 0.930 . S
H2354 C2296 0.930 . S
H2355 C2297 0.930 . S
H2356 C2299 0.930 . S
H2357 C2301 0.929 . S
H2358 C2302 0.930 . S
H2359 C2303 0.930 . S
H2360 C2306 0.930 . S
H2361 C2309 0.929 . S
H2362 C2314 0.929 . S
H2363 C2315 0.930 . S
H2364 C2322 0.929 . S
H2365 C2323 0.930 . S
H2366 C2324 0.930 . S
H2367 C2325 0.930 . S
H2368 C2327 0.929 . S
H2369 C2328 0.930 . S
H2370 C2329 0.930 . S
H2371 C2330 0.930 . S
H2372 C2334 0.929 . S
H2373 C2336 0.930 . S
H2374 C2342 0.929 . S
H2375 C2343 0.930 . S
Li2376 N2393 1.990 . S
Li2376 O2436 1.956 . S
Li2376 O2437 1.970 . S
Li2376 O2438 1.961 . S
Li2377 N2401 1.990 . S
Li2377 O2436 1.970 . S
Li2377 O2437 1.956 . S
Li2377 O2439 1.961 . S
Li2378 N2423 1.990 . S
Li2378 O2436 1.961 . S
Li2378 O2438 1.956 . S
Li2378 O2439 1.970 . S
Li2379 N2429 1.990 1_455 S
Li2379 O2437 1.961 . S
Li2379 O2438 1.970 . S
Li2379 O2439 1.956 . S
C2380 C2382 1.348 . S
C2380 C2383 1.356 . S
C2380 O2436 1.325 . S
N2381 C2384 1.314 . S
N2381 C2385 1.279 . S
C2382 C2380 1.348 . S
C2382 C2384 1.353 . S
C2382 H2440 0.929 . S
C2383 C2380 1.356 . S
C2383 C2385 1.358 . S
C2383 H2441 0.930 . S
C2384 N2381 1.314 . S
C2384 C2382 1.353 . S
C2384 H2442 0.930 . S
C2385 N2381 1.279 . S
C2385 C2383 1.358 . S
C2385 H2443 0.930 . S
C2386 C2389 1.348 . S
C2386 C2390 1.356 . S
C2386 O2437 1.325 . S
C2387 N2388 1.279 . S
C2387 C2390 1.358 . S
C2387 H2444 0.930 . S
N2388 C2387 1.279 . S
N2388 C2391 1.314 . S
C2389 C2386 1.348 . S
C2389 C2391 1.353 . S
C2389 H2445 0.929 . S
C2390 C2386 1.356 . S
C2390 C2387 1.358 . S
C2390 H2446 0.930 . S
C2391 N2388 1.314 . S
C2391 C2389 1.353 . S
C2391 H2447 0.930 . S
C2392 N2393 1.314 . S
C2392 C2397 1.353 . S
C2392 H2398 0.930 . S
N2393 Li2376 1.990 . S
N2393 C2392 1.314 . S
N2393 C2395 1.279 . S
C2394 C2395 1.358 . S
C2394 C2396 1.356 . S
C2394 H2448 0.930 . S
C2395 N2393 1.279 . S
C2395 C2394 1.358 . S
C2395 H2399 0.930 . S
C2396 C2394 1.356 . S
C2396 C2397 1.348 . S
C2397 C2392 1.353 . S
C2397 C2396 1.348 . S
C2397 H2449 0.929 . S
H2398 C2392 0.930 . S
H2399 C2395 0.930 . S
C2400 N2401 1.314 . S
C2400 C2402 1.353 . S
C2400 H2406 0.930 . S
N2401 Li2377 1.990 . S
N2401 C2400 1.314 . S
N2401 C2404 1.279 . S
C2402 C2400 1.353 . S
C2402 C2405 1.348 . S
C2402 H2450 0.929 . S
C2403 C2404 1.358 . S
C2403 C2405 1.356 . S
C2403 H2451 0.930 . S
C2404 N2401 1.279 . S
C2404 C2403 1.358 . S
C2404 H2407 0.930 . S
C2405 C2402 1.348 . S
C2405 C2403 1.356 . S
H2406 C2400 0.930 . S
H2407 C2404 0.930 . S
C2408 C2410 1.348 1_455 S
C2408 C2411 1.356 . S
C2408 O2438 1.325 . S
N2409 C2412 1.302 1_455 S
N2409 C2413 1.302 . S
C2410 C2408 1.348 1_655 S
C2410 C2412 1.353 . S
C2410 H2452 0.929 . S
C2411 C2408 1.356 . S
C2411 C2413 1.358 . S
C2411 H2453 0.930 . S
C2412 N2409 1.302 1_655 S
C2412 C2410 1.353 . S
C2412 H2454 0.930 . S
C2413 N2409 1.302 . S
C2413 C2411 1.358 . S
C2413 H2455 0.930 . S
C2414 C2415 1.348 1_455 S
C2414 C2416 1.360 . S
C2414 O2439 1.325 . S
C2415 C2414 1.348 1_655 S
C2415 C2417 1.353 . S
C2415 H2456 0.929 . S
C2416 C2414 1.360 . S
C2416 C2418 1.349 1_455 S
C2416 H2457 0.935 . S
C2417 C2415 1.353 . S
C2417 N2419 1.314 . S
C2417 H2458 0.930 . S
C2418 C2416 1.349 1_655 S
C2418 N2419 1.279 . S
C2418 H2459 0.930 . S
N2419 C2417 1.314 . S
N2419 C2418 1.279 . S
C2420 C2422 1.353 . S
C2420 N2423 1.314 . S
C2420 H2426 0.930 . S
C2421 N2423 1.279 . S
C2421 C2424 1.358 . S
C2421 H2427 0.930 . S
C2422 C2420 1.353 . S
C2422 C2425 1.348 . S
C2422 H2460 0.929 . S
N2423 Li2378 1.990 . S
N2423 C2420 1.314 . S
N2423 C2421 1.279 . S
C2424 C2421 1.358 . S
C2424 C2425 1.356 . S
C2424 H2461 0.930 . S
C2425 C2422 1.348 . S
C2425 C2424 1.356 . S
H2426 C2420 0.930 . S
H2427 C2421 0.930 . S
C2428 N2429 1.314 . S
C2428 C2430 1.353 . S
C2428 H2434 0.930 . S
N2429 Li2379 1.990 1_655 S
N2429 C2428 1.314 . S
N2429 C2432 1.279 . S
C2430 C2428 1.353 . S
C2430 C2433 1.348 . S
C2430 H2462 0.929 . S
C2431 C2432 1.358 . S
C2431 C2433 1.356 . S
C2431 H2463 0.930 . S
C2432 N2429 1.279 . S
C2432 C2431 1.358 . S
C2432 H2435 0.930 . S
C2433 C2430 1.348 . S
C2433 C2431 1.356 . S
H2434 C2428 0.930 . S
H2435 C2432 0.930 . S
O2436 Li2376 1.956 . S
O2436 Li2377 1.970 . S
O2436 Li2378 1.961 . S
O2436 C2380 1.325 . S
O2437 Li2376 1.970 . S
O2437 Li2377 1.956 . S
O2437 Li2379 1.961 . S
O2437 C2386 1.325 . S
O2438 Li2376 1.961 . S
O2438 Li2378 1.956 . S
O2438 Li2379 1.970 . S
O2438 C2408 1.325 . S
O2439 Li2377 1.961 . S
O2439 Li2378 1.970 . S
O2439 Li2379 1.956 . S
O2439 C2414 1.325 . S
H2440 C2382 0.929 . S
H2441 C2383 0.930 . S
H2442 C2384 0.930 . S
H2443 C2385 0.930 . S
H2444 C2387 0.930 . S
H2445 C2389 0.929 . S
H2446 C2390 0.930 . S
H2447 C2391 0.930 . S
H2448 C2394 0.930 . S
H2449 C2397 0.929 . S
H2450 C2402 0.929 . S
H2451 C2403 0.930 . S
H2452 C2410 0.929 . S
H2453 C2411 0.930 . S
H2454 C2412 0.930 . S
H2455 C2413 0.930 . S
H2456 C2415 0.929 . S
H2457 C2416 0.935 . S
H2458 C2417 0.930 . S
H2459 C2418 0.930 . S
H2460 C2422 0.929 . S
H2461 C2424 0.930 . S
H2462 C2430 0.929 . S
H2463 C2431 0.930 . S
Li2464 N2481 1.990 . S
Li2464 O2524 1.956 . S
Li2464 O2525 1.970 . S
Li2464 O2526 1.961 . S
Li2465 N2489 1.990 . S
Li2465 O2524 1.970 . S
Li2465 O2525 1.956 . S
Li2465 O2527 1.961 . S
Li2466 N2511 1.990 . S
Li2466 O2524 1.961 . S
Li2466 O2526 1.956 . S
Li2466 O2527 1.970 . S
Li2467 N2517 1.990 . S
Li2467 O2525 1.961 . S
Li2467 O2526 1.970 . S
Li2467 O2527 1.956 . S
C2468 C2470 1.348 . S
C2468 C2471 1.356 . S
C2468 O2524 1.325 . S
N2469 C2472 1.314 . S
N2469 C2473 1.279 . S
C2470 C2468 1.348 . S
C2470 C2472 1.353 . S
C2470 H2528 0.929 . S
C2471 C2468 1.356 . S
C2471 C2473 1.358 . S
C2471 H2529 0.930 . S
C2472 N2469 1.314 . S
C2472 C2470 1.353 . S
C2472 H2530 0.930 . S
C2473 N2469 1.279 . S
C2473 C2471 1.358 . S
C2473 H2531 0.930 . S
C2474 C2477 1.348 . S
C2474 C2478 1.356 . S
C2474 O2525 1.325 . S
C2475 N2476 1.279 . S
C2475 C2478 1.358 . S
C2475 H2532 0.930 . S
N2476 C2475 1.279 . S
N2476 C2479 1.314 . S
C2477 C2474 1.348 . S
C2477 C2479 1.353 . S
C2477 H2533 0.929 . S
C2478 C2474 1.356 . S
C2478 C2475 1.358 . S
C2478 H2534 0.930 . S
C2479 N2476 1.314 . S
C2479 C2477 1.353 . S
C2479 H2535 0.930 . S
C2480 N2481 1.314 . S
C2480 C2485 1.353 . S
C2480 H2486 0.930 . S
N2481 Li2464 1.990 . S
N2481 C2480 1.314 . S
N2481 C2483 1.279 . S
C2482 C2483 1.358 . S
C2482 C2484 1.356 . S
C2482 H2536 0.930 . S
C2483 N2481 1.279 . S
C2483 C2482 1.358 . S
C2483 H2487 0.930 . S
C2484 C2482 1.356 . S
C2484 C2485 1.348 . S
C2485 C2480 1.353 . S
C2485 C2484 1.348 . S
C2485 H2537 0.929 . S
H2486 C2480 0.930 . S
H2487 C2483 0.930 . S
C2488 N2489 1.314 . S
C2488 C2490 1.353 . S
C2488 H2494 0.930 . S
N2489 Li2465 1.990 . S
N2489 C2488 1.314 . S
N2489 C2492 1.279 . S
C2490 C2488 1.353 . S
C2490 C2493 1.348 . S
C2490 H2538 0.929 . S
C2491 C2492 1.358 . S
C2491 C2493 1.356 . S
C2491 H2539 0.930 . S
C2492 N2489 1.279 . S
C2492 C2491 1.358 . S
C2492 H2495 0.930 . S
C2493 C2490 1.348 . S
C2493 C2491 1.356 . S
H2494 C2488 0.930 . S
H2495 C2492 0.930 . S
C2496 C2498 1.348 . S
C2496 C2499 1.356 . S
C2496 O2526 1.325 . S
N2497 C2500 1.314 . S
N2497 C2501 1.279 . S
C2498 C2496 1.348 . S
C2498 C2500 1.353 . S
C2498 H2540 0.929 . S
C2499 C2496 1.356 . S
C2499 C2501 1.358 . S
C2499 H2541 0.930 . S
C2500 N2497 1.314 . S
C2500 C2498 1.353 . S
C2500 H2542 0.930 . S
C2501 N2497 1.279 . S
C2501 C2499 1.358 . S
C2501 H2543 0.930 . S
C2502 C2503 1.348 . S
C2502 C2504 1.356 . S
C2502 O2527 1.325 . S
C2503 C2502 1.348 . S
C2503 C2505 1.353 . S
C2503 H2544 0.929 . S
C2504 C2502 1.356 . S
C2504 C2506 1.358 . S
C2504 H2545 0.930 . S
C2505 C2503 1.353 . S
C2505 N2507 1.314 . S
C2505 H2546 0.930 . S
C2506 C2504 1.358 . S
C2506 N2507 1.279 . S
C2506 H2547 0.930 . S
N2507 C2505 1.314 . S
N2507 C2506 1.279 . S
C2508 C2510 1.353 . S
C2508 N2511 1.314 . S
C2508 H2514 0.930 . S
C2509 N2511 1.279 . S
C2509 C2512 1.358 . S
C2509 H2515 0.930 . S
C2510 C2508 1.353 . S
C2510 C2513 1.348 . S
C2510 H2548 0.929 . S
N2511 Li2466 1.990 . S
N2511 C2508 1.314 . S
N2511 C2509 1.279 . S
C2512 C2509 1.358 . S
C2512 C2513 1.356 . S
C2512 H2549 0.930 . S
C2513 C2510 1.348 . S
C2513 C2512 1.356 . S
H2514 C2508 0.930 . S
H2515 C2509 0.930 . S
C2516 N2517 1.314 . S
C2516 C2518 1.353 . S
C2516 H2522 0.930 . S
N2517 Li2467 1.990 . S
N2517 C2516 1.314 . S
N2517 C2520 1.279 . S
C2518 C2516 1.353 . S
C2518 C2521 1.348 . S
C2518 H2550 0.929 . S
C2519 C2520 1.358 . S
C2519 C2521 1.356 . S
C2519 H2551 0.930 . S
C2520 N2517 1.279 . S
C2520 C2519 1.358 . S
C2520 H2523 0.930 . S
C2521 C2518 1.348 . S
C2521 C2519 1.356 . S
H2522 C2516 0.930 . S
H2523 C2520 0.930 . S
O2524 Li2464 1.956 . S
O2524 Li2465 1.970 . S
O2524 Li2466 1.961 . S
O2524 C2468 1.325 . S
O2525 Li2464 1.970 . S
O2525 Li2465 1.956 . S
O2525 Li2467 1.961 . S
O2525 C2474 1.325 . S
O2526 Li2464 1.961 . S
O2526 Li2466 1.956 . S
O2526 Li2467 1.970 . S
O2526 C2496 1.325 . S
O2527 Li2465 1.961 . S
O2527 Li2466 1.970 . S
O2527 Li2467 1.956 . S
O2527 C2502 1.325 . S
H2528 C2470 0.929 . S
H2529 C2471 0.930 . S
H2530 C2472 0.930 . S
H2531 C2473 0.930 . S
H2532 C2475 0.930 . S
H2533 C2477 0.929 . S
H2534 C2478 0.930 . S
H2535 C2479 0.930 . S
H2536 C2482 0.930 . S
H2537 C2485 0.929 . S
H2538 C2490 0.929 . S
H2539 C2491 0.930 . S
H2540 C2498 0.929 . S
H2541 C2499 0.930 . S
H2542 C2500 0.930 . S
H2543 C2501 0.930 . S
H2544 C2503 0.929 . S
H2545 C2504 0.930 . S
H2546 C2505 0.930 . S
H2547 C2506 0.930 . S
H2548 C2510 0.929 . S
H2549 C2512 0.930 . S
H2550 C2518 0.929 . S
H2551 C2519 0.930 . S
Li2552 N2569 1.990 . S
Li2552 O2612 1.956 . S
Li2552 O2613 1.970 . S
Li2552 O2614 1.961 . S
Li2553 N2577 1.990 . S
Li2553 O2612 1.970 . S
Li2553 O2613 1.956 . S
Li2553 O2615 1.961 . S
Li2554 N2599 1.990 . S
Li2554 O2612 1.961 . S
Li2554 O2614 1.956 . S
Li2554 O2615 1.970 . S
Li2555 N2605 1.990 1_455 S
Li2555 O2613 1.961 . S
Li2555 O2614 1.970 . S
Li2555 O2615 1.956 . S
C2556 C2558 1.348 . S
C2556 C2559 1.356 . S
C2556 O2612 1.325 . S
N2557 C2560 1.314 . S
N2557 C2561 1.279 . S
C2558 C2556 1.348 . S
C2558 C2560 1.353 . S
C2558 H2616 0.929 . S
C2559 C2556 1.356 . S
C2559 C2561 1.358 . S
C2559 H2617 0.930 . S
C2560 N2557 1.314 . S
C2560 C2558 1.353 . S
C2560 H2618 0.930 . S
C2561 N2557 1.279 . S
C2561 C2559 1.358 . S
C2561 H2619 0.930 . S
C2562 C2565 1.348 . S
C2562 C2566 1.356 . S
C2562 O2613 1.325 . S
C2563 N2564 1.279 . S
C2563 C2566 1.358 . S
C2563 H2620 0.930 . S
N2564 C2563 1.279 . S
N2564 C2567 1.314 . S
C2565 C2562 1.348 . S
C2565 C2567 1.353 . S
C2565 H2621 0.929 . S
C2566 C2562 1.356 . S
C2566 C2563 1.358 . S
C2566 H2622 0.930 . S
C2567 N2564 1.314 . S
C2567 C2565 1.353 . S
C2567 H2623 0.930 . S
C2568 N2569 1.314 . S
C2568 C2573 1.353 . S
C2568 H2574 0.930 . S
N2569 Li2552 1.990 . S
N2569 C2568 1.314 . S
N2569 C2571 1.279 . S
C2570 C2571 1.358 . S
C2570 C2572 1.356 . S
C2570 H2624 0.930 . S
C2571 N2569 1.279 . S
C2571 C2570 1.358 . S
C2571 H2575 0.930 . S
C2572 C2570 1.356 . S
C2572 C2573 1.348 . S
C2573 C2568 1.353 . S
C2573 C2572 1.348 . S
C2573 H2625 0.929 . S
H2574 C2568 0.930 . S
H2575 C2571 0.930 . S
C2576 N2577 1.314 . S
C2576 C2578 1.353 . S
C2576 H2582 0.930 . S
N2577 Li2553 1.990 . S
N2577 C2576 1.314 . S
N2577 C2580 1.279 . S
C2578 C2576 1.353 . S
C2578 C2581 1.348 . S
C2578 H2626 0.929 . S
C2579 C2580 1.358 . S
C2579 C2581 1.356 . S
C2579 H2627 0.930 . S
C2580 N2577 1.279 . S
C2580 C2579 1.358 . S
C2580 H2583 0.930 . S
C2581 C2578 1.348 . S
C2581 C2579 1.356 . S
H2582 C2576 0.930 . S
H2583 C2580 0.930 . S
C2584 C2586 1.348 1_455 S
C2584 C2587 1.356 . S
C2584 O2614 1.325 . S
N2585 C2588 1.302 1_455 S
N2585 C2589 1.302 . S
C2586 C2584 1.348 1_655 S
C2586 C2588 1.353 . S
C2586 H2628 0.929 . S
C2587 C2584 1.356 . S
C2587 C2589 1.358 . S
C2587 H2629 0.930 . S
C2588 N2585 1.302 1_655 S
C2588 C2586 1.353 . S
C2588 H2630 0.930 . S
C2589 N2585 1.302 . S
C2589 C2587 1.358 . S
C2589 H2631 0.930 . S
C2590 C2591 1.348 1_455 S
C2590 C2592 1.360 . S
C2590 O2615 1.325 . S
C2591 C2590 1.348 1_655 S
C2591 C2593 1.353 . S
C2591 H2632 0.929 . S
C2592 C2590 1.360 . S
C2592 C2594 1.349 1_455 S
C2592 H2633 0.935 . S
C2593 C2591 1.353 . S
C2593 N2595 1.314 . S
C2593 H2634 0.930 . S
C2594 C2592 1.349 1_655 S
C2594 N2595 1.279 . S
C2594 H2635 0.930 . S
N2595 C2593 1.314 . S
N2595 C2594 1.279 . S
C2596 C2598 1.353 . S
C2596 N2599 1.314 . S
C2596 H2602 0.930 . S
C2597 N2599 1.279 . S
C2597 C2600 1.358 . S
C2597 H2603 0.930 . S
C2598 C2596 1.353 . S
C2598 C2601 1.348 . S
C2598 H2636 0.929 . S
N2599 Li2554 1.990 . S
N2599 C2596 1.314 . S
N2599 C2597 1.279 . S
C2600 C2597 1.358 . S
C2600 C2601 1.356 . S
C2600 H2637 0.930 . S
C2601 C2598 1.348 . S
C2601 C2600 1.356 . S
H2602 C2596 0.930 . S
H2603 C2597 0.930 . S
C2604 N2605 1.314 . S
C2604 C2606 1.353 . S
C2604 H2610 0.930 . S
N2605 Li2555 1.990 1_655 S
N2605 C2604 1.314 . S
N2605 C2608 1.279 . S
C2606 C2604 1.353 . S
C2606 C2609 1.348 . S
C2606 H2638 0.929 . S
C2607 C2608 1.358 . S
C2607 C2609 1.356 . S
C2607 H2639 0.930 . S
C2608 N2605 1.279 . S
C2608 C2607 1.358 . S
C2608 H2611 0.930 . S
C2609 C2606 1.348 . S
C2609 C2607 1.356 . S
H2610 C2604 0.930 . S
H2611 C2608 0.930 . S
O2612 Li2552 1.956 . S
O2612 Li2553 1.970 . S
O2612 Li2554 1.961 . S
O2612 C2556 1.325 . S
O2613 Li2552 1.970 . S
O2613 Li2553 1.956 . S
O2613 Li2555 1.961 . S
O2613 C2562 1.325 . S
O2614 Li2552 1.961 . S
O2614 Li2554 1.956 . S
O2614 Li2555 1.970 . S
O2614 C2584 1.325 . S
O2615 Li2553 1.961 . S
O2615 Li2554 1.970 . S
O2615 Li2555 1.956 . S
O2615 C2590 1.325 . S
H2616 C2558 0.929 . S
H2617 C2559 0.930 . S
H2618 C2560 0.930 . S
H2619 C2561 0.930 . S
H2620 C2563 0.930 . S
H2621 C2565 0.929 . S
H2622 C2566 0.930 . S
H2623 C2567 0.930 . S
H2624 C2570 0.930 . S
H2625 C2573 0.929 . S
H2626 C2578 0.929 . S
H2627 C2579 0.930 . S
H2628 C2586 0.929 . S
H2629 C2587 0.930 . S
H2630 C2588 0.930 . S
H2631 C2589 0.930 . S
H2632 C2591 0.929 . S
H2633 C2592 0.935 . S
H2634 C2593 0.930 . S
H2635 C2594 0.930 . S
H2636 C2598 0.929 . S
H2637 C2600 0.930 . S
H2638 C2606 0.929 . S
H2639 C2607 0.930 . S
Li2640 N2657 1.990 . S
Li2640 O2700 1.956 . S
Li2640 O2701 1.970 . S
Li2640 O2702 1.961 . S
Li2641 N2665 1.990 . S
Li2641 O2700 1.970 . S
Li2641 O2701 1.956 . S
Li2641 O2703 1.961 . S
Li2642 N2687 1.990 . S
Li2642 O2700 1.961 . S
Li2642 O2702 1.956 . S
Li2642 O2703 1.970 . S
Li2643 N2693 1.990 . S
Li2643 O2701 1.961 . S
Li2643 O2702 1.970 . S
Li2643 O2703 1.956 . S
C2644 C2646 1.348 . S
C2644 C2647 1.356 . S
C2644 O2700 1.325 . S
N2645 C2648 1.314 . S
N2645 C2649 1.279 . S
C2646 C2644 1.348 . S
C2646 C2648 1.353 . S
C2646 H2704 0.929 . S
C2647 C2644 1.356 . S
C2647 C2649 1.358 . S
C2647 H2705 0.930 . S
C2648 N2645 1.314 . S
C2648 C2646 1.353 . S
C2648 H2706 0.930 . S
C2649 N2645 1.279 . S
C2649 C2647 1.358 . S
C2649 H2707 0.930 . S
C2650 C2653 1.348 . S
C2650 C2654 1.356 . S
C2650 O2701 1.325 . S
C2651 N2652 1.279 . S
C2651 C2654 1.358 . S
C2651 H2708 0.930 . S
N2652 C2651 1.279 . S
N2652 C2655 1.314 . S
C2653 C2650 1.348 . S
C2653 C2655 1.353 . S
C2653 H2709 0.929 . S
C2654 C2650 1.356 . S
C2654 C2651 1.358 . S
C2654 H2710 0.930 . S
C2655 N2652 1.314 . S
C2655 C2653 1.353 . S
C2655 H2711 0.930 . S
C2656 N2657 1.314 . S
C2656 C2661 1.353 . S
C2656 H2662 0.930 . S
N2657 Li2640 1.990 . S
N2657 C2656 1.314 . S
N2657 C2659 1.279 . S
C2658 C2659 1.358 . S
C2658 C2660 1.356 . S
C2658 H2712 0.930 . S
C2659 N2657 1.279 . S
C2659 C2658 1.358 . S
C2659 H2663 0.930 . S
C2660 C2658 1.356 . S
C2660 C2661 1.348 . S
C2661 C2656 1.353 . S
C2661 C2660 1.348 . S
C2661 H2713 0.929 . S
H2662 C2656 0.930 . S
H2663 C2659 0.930 . S
C2664 N2665 1.314 . S
C2664 C2666 1.353 . S
C2664 H2670 0.930 . S
N2665 Li2641 1.990 . S
N2665 C2664 1.314 . S
N2665 C2668 1.279 . S
C2666 C2664 1.353 . S
C2666 C2669 1.348 . S
C2666 H2714 0.929 . S
C2667 C2668 1.358 . S
C2667 C2669 1.356 . S
C2667 H2715 0.930 . S
C2668 N2665 1.279 . S
C2668 C2667 1.358 . S
C2668 H2671 0.930 . S
C2669 C2666 1.348 . S
C2669 C2667 1.356 . S
H2670 C2664 0.930 . S
H2671 C2668 0.930 . S
C2672 C2674 1.348 . S
C2672 C2675 1.356 . S
C2672 O2702 1.325 . S
N2673 C2676 1.314 . S
N2673 C2677 1.279 . S
C2674 C2672 1.348 . S
C2674 C2676 1.353 . S
C2674 H2716 0.929 . S
C2675 C2672 1.356 . S
C2675 C2677 1.358 . S
C2675 H2717 0.930 . S
C2676 N2673 1.314 . S
C2676 C2674 1.353 . S
C2676 H2718 0.930 . S
C2677 N2673 1.279 . S
C2677 C2675 1.358 . S
C2677 H2719 0.930 . S
C2678 C2679 1.348 . S
C2678 C2680 1.356 . S
C2678 O2703 1.325 . S
C2679 C2678 1.348 . S
C2679 C2681 1.353 . S
C2679 H2720 0.929 . S
C2680 C2678 1.356 . S
C2680 C2682 1.358 . S
C2680 H2721 0.930 . S
C2681 C2679 1.353 . S
C2681 N2683 1.314 . S
C2681 H2722 0.930 . S
C2682 C2680 1.358 . S
C2682 N2683 1.279 . S
C2682 H2723 0.930 . S
N2683 C2681 1.314 . S
N2683 C2682 1.279 . S
C2684 C2686 1.353 . S
C2684 N2687 1.314 . S
C2684 H2690 0.930 . S
C2685 N2687 1.279 . S
C2685 C2688 1.358 . S
C2685 H2691 0.930 . S
C2686 C2684 1.353 . S
C2686 C2689 1.348 . S
C2686 H2724 0.929 . S
N2687 Li2642 1.990 . S
N2687 C2684 1.314 . S
N2687 C2685 1.279 . S
C2688 C2685 1.358 . S
C2688 C2689 1.356 . S
C2688 H2725 0.930 . S
C2689 C2686 1.348 . S
C2689 C2688 1.356 . S
H2690 C2684 0.930 . S
H2691 C2685 0.930 . S
C2692 N2693 1.314 . S
C2692 C2694 1.353 . S
C2692 H2698 0.930 . S
N2693 Li2643 1.990 . S
N2693 C2692 1.314 . S
N2693 C2696 1.279 . S
C2694 C2692 1.353 . S
C2694 C2697 1.348 . S
C2694 H2726 0.929 . S
C2695 C2696 1.358 . S
C2695 C2697 1.356 . S
C2695 H2727 0.930 . S
C2696 N2693 1.279 . S
C2696 C2695 1.358 . S
C2696 H2699 0.930 . S
C2697 C2694 1.348 . S
C2697 C2695 1.356 . S
H2698 C2692 0.930 . S
H2699 C2696 0.930 . S
O2700 Li2640 1.956 . S
O2700 Li2641 1.970 . S
O2700 Li2642 1.961 . S
O2700 C2644 1.325 . S
O2701 Li2640 1.970 . S
O2701 Li2641 1.956 . S
O2701 Li2643 1.961 . S
O2701 C2650 1.325 . S
O2702 Li2640 1.961 . S
O2702 Li2642 1.956 . S
O2702 Li2643 1.970 . S
O2702 C2672 1.325 . S
O2703 Li2641 1.961 . S
O2703 Li2642 1.970 . S
O2703 Li2643 1.956 . S
O2703 C2678 1.325 . S
H2704 C2646 0.929 . S
H2705 C2647 0.930 . S
H2706 C2648 0.930 . S
H2707 C2649 0.930 . S
H2708 C2651 0.930 . S
H2709 C2653 0.929 . S
H2710 C2654 0.930 . S
H2711 C2655 0.930 . S
H2712 C2658 0.930 . S
H2713 C2661 0.929 . S
H2714 C2666 0.929 . S
H2715 C2667 0.930 . S
H2716 C2674 0.929 . S
H2717 C2675 0.930 . S
H2718 C2676 0.930 . S
H2719 C2677 0.930 . S
H2720 C2679 0.929 . S
H2721 C2680 0.930 . S
H2722 C2681 0.930 . S
H2723 C2682 0.930 . S
H2724 C2686 0.929 . S
H2725 C2688 0.930 . S
H2726 C2694 0.929 . S
H2727 C2695 0.930 . S
Li2728 N2745 1.990 . S
Li2728 O2788 1.956 . S
Li2728 O2789 1.970 . S
Li2728 O2790 1.961 . S
Li2729 N2753 1.990 . S
Li2729 O2788 1.970 . S
Li2729 O2789 1.956 . S
Li2729 O2791 1.961 . S
Li2730 N2775 1.990 . S
Li2730 O2788 1.961 . S
Li2730 O2790 1.956 . S
Li2730 O2791 1.970 . S
Li2731 N2781 1.990 . S
Li2731 O2789 1.961 . S
Li2731 O2790 1.970 . S
Li2731 O2791 1.956 . S
C2732 C2734 1.348 . S
C2732 C2735 1.356 . S
C2732 O2788 1.325 . S
N2733 C2736 1.314 . S
N2733 C2737 1.279 . S
C2734 C2732 1.348 . S
C2734 C2736 1.353 . S
C2734 H2792 0.929 . S
C2735 C2732 1.356 . S
C2735 C2737 1.358 . S
C2735 H2793 0.930 . S
C2736 N2733 1.314 . S
C2736 C2734 1.353 . S
C2736 H2794 0.930 . S
C2737 N2733 1.279 . S
C2737 C2735 1.358 . S
C2737 H2795 0.930 . S
C2738 C2741 1.348 . S
C2738 C2742 1.356 . S
C2738 O2789 1.325 . S
C2739 N2740 1.279 . S
C2739 C2742 1.358 . S
C2739 H2796 0.930 . S
N2740 C2739 1.279 . S
N2740 C2743 1.314 . S
C2741 C2738 1.348 . S
C2741 C2743 1.353 . S
C2741 H2797 0.929 . S
C2742 C2738 1.356 . S
C2742 C2739 1.358 . S
C2742 H2798 0.930 . S
C2743 N2740 1.314 . S
C2743 C2741 1.353 . S
C2743 H2799 0.930 . S
C2744 N2745 1.314 . S
C2744 C2749 1.353 . S
C2744 H2750 0.930 . S
N2745 Li2728 1.990 . S
N2745 C2744 1.314 . S
N2745 C2747 1.279 . S
C2746 C2747 1.358 . S
C2746 C2748 1.356 . S
C2746 H2800 0.930 . S
C2747 N2745 1.279 . S
C2747 C2746 1.358 . S
C2747 H2751 0.930 . S
C2748 C2746 1.356 . S
C2748 C2749 1.348 . S
C2749 C2744 1.353 . S
C2749 C2748 1.348 . S
C2749 H2801 0.929 . S
H2750 C2744 0.930 . S
H2751 C2747 0.930 . S
C2752 N2753 1.314 . S
C2752 C2754 1.353 . S
C2752 H2758 0.930 . S
N2753 Li2729 1.990 . S
N2753 C2752 1.314 . S
N2753 C2756 1.279 . S
C2754 C2752 1.353 . S
C2754 C2757 1.348 . S
C2754 H2802 0.929 . S
C2755 C2756 1.358 . S
C2755 C2757 1.356 . S
C2755 H2803 0.930 . S
C2756 N2753 1.279 . S
C2756 C2755 1.358 . S
C2756 H2759 0.930 . S
C2757 C2754 1.348 . S
C2757 C2755 1.356 . S
H2758 C2752 0.930 . S
H2759 C2756 0.930 . S
C2760 C2762 1.348 . S
C2760 C2763 1.356 . S
C2760 O2790 1.325 . S
N2761 C2764 1.314 . S
N2761 C2765 1.279 . S
C2762 C2760 1.348 . S
C2762 C2764 1.353 . S
C2762 H2804 0.929 . S
C2763 C2760 1.356 . S
C2763 C2765 1.358 . S
C2763 H2805 0.930 . S
C2764 N2761 1.314 . S
C2764 C2762 1.353 . S
C2764 H2806 0.930 . S
C2765 N2761 1.279 . S
C2765 C2763 1.358 . S
C2765 H2807 0.930 . S
C2766 C2767 1.348 . S
C2766 C2768 1.356 . S
C2766 O2791 1.325 . S
C2767 C2766 1.348 . S
C2767 C2769 1.353 . S
C2767 H2808 0.929 . S
C2768 C2766 1.356 . S
C2768 C2770 1.358 . S
C2768 H2809 0.930 . S
C2769 C2767 1.353 . S
C2769 N2771 1.314 . S
C2769 H2810 0.930 . S
C2770 C2768 1.358 . S
C2770 N2771 1.279 . S
C2770 H2811 0.930 . S
N2771 C2769 1.314 . S
N2771 C2770 1.279 . S
C2772 C2774 1.353 . S
C2772 N2775 1.314 . S
C2772 H2778 0.930 . S
C2773 N2775 1.279 . S
C2773 C2776 1.358 . S
C2773 H2779 0.930 . S
C2774 C2772 1.353 . S
C2774 C2777 1.348 . S
C2774 H2812 0.929 . S
N2775 Li2730 1.990 . S
N2775 C2772 1.314 . S
N2775 C2773 1.279 . S
C2776 C2773 1.358 . S
C2776 C2777 1.356 . S
C2776 H2813 0.930 . S
C2777 C2774 1.348 . S
C2777 C2776 1.356 . S
H2778 C2772 0.930 . S
H2779 C2773 0.930 . S
C2780 N2781 1.314 . S
C2780 C2782 1.353 . S
C2780 H2786 0.930 . S
N2781 Li2731 1.990 . S
N2781 C2780 1.314 . S
N2781 C2784 1.279 . S
C2782 C2780 1.353 . S
C2782 C2785 1.348 . S
C2782 H2814 0.929 . S
C2783 C2784 1.358 . S
C2783 C2785 1.356 . S
C2783 H2815 0.930 . S
C2784 N2781 1.279 . S
C2784 C2783 1.358 . S
C2784 H2787 0.930 . S
C2785 C2782 1.348 . S
C2785 C2783 1.356 . S
H2786 C2780 0.930 . S
H2787 C2784 0.930 . S
O2788 Li2728 1.956 . S
O2788 Li2729 1.970 . S
O2788 Li2730 1.961 . S
O2788 C2732 1.325 . S
O2789 Li2728 1.970 . S
O2789 Li2729 1.956 . S
O2789 Li2731 1.961 . S
O2789 C2738 1.325 . S
O2790 Li2728 1.961 . S
O2790 Li2730 1.956 . S
O2790 Li2731 1.970 . S
O2790 C2760 1.325 . S
O2791 Li2729 1.961 . S
O2791 Li2730 1.970 . S
O2791 Li2731 1.956 . S
O2791 C2766 1.325 . S
H2792 C2734 0.929 . S
H2793 C2735 0.930 . S
H2794 C2736 0.930 . S
H2795 C2737 0.930 . S
H2796 C2739 0.930 . S
H2797 C2741 0.929 . S
H2798 C2742 0.930 . S
H2799 C2743 0.930 . S
H2800 C2746 0.930 . S
H2801 C2749 0.929 . S
H2802 C2754 0.929 . S
H2803 C2755 0.930 . S
H2804 C2762 0.929 . S
H2805 C2763 0.930 . S
H2806 C2764 0.930 . S
H2807 C2765 0.930 . S
H2808 C2767 0.929 . S
H2809 C2768 0.930 . S
H2810 C2769 0.930 . S
H2811 C2770 0.930 . S
H2812 C2774 0.929 . S
H2813 C2776 0.930 . S
H2814 C2782 0.929 . S
H2815 C2783 0.930 . S
H2816 C2822 0.930 . S
H2817 C2825 0.930 . S
H2818 C2826 0.930 . S
H2819 C2827 0.930 . S
H2820 C2830 0.930 . S
H2821 C2831 0.930 . S
C2822 H2816 0.930 . S
C2822 C2823 1.355 . S
C2822 C2824 1.415 . S
C2823 C2822 1.355 . S
C2823 C2825 1.419 . S
C2824 C2822 1.415 . S
C2824 C2829 1.425 . S
C2824 C2831 1.409 . S
C2825 H2817 0.930 . S
C2825 C2823 1.419 . S
C2825 C2826 1.362 . S
C2826 H2818 0.930 . S
C2826 C2825 1.362 . S
C2826 C2829 1.409 . S
C2827 H2819 0.930 . S
C2827 C2828 1.355 . S
C2827 C2829 1.415 . S
C2828 C2827 1.355 . S
C2828 C2830 1.419 . S
C2829 C2824 1.425 . S
C2829 C2826 1.409 . S
C2829 C2827 1.415 . S
C2830 H2820 0.930 . S
C2830 C2828 1.419 . S
C2830 C2831 1.362 . S
C2831 H2821 0.930 . S
C2831 C2824 1.409 . S
C2831 C2830 1.362 . S
H2832 C2838 0.930 . S
H2833 C2841 0.930 . S
H2834 C2842 0.930 . S
H2835 C2843 0.930 . S
H2836 C2846 0.930 . S
H2837 C2847 0.930 . S
C2838 H2832 0.930 . S
C2838 C2839 1.355 . S
C2838 C2840 1.415 . S
C2839 C2838 1.355 . S
C2839 C2841 1.419 . S
C2840 C2838 1.415 . S
C2840 C2845 1.425 . S
C2840 C2847 1.409 . S
C2841 H2833 0.930 . S
C2841 C2839 1.419 . S
C2841 C2842 1.362 . S
C2842 H2834 0.930 . S
C2842 C2841 1.362 . S
C2842 C2845 1.409 . S
C2843 H2835 0.930 . S
C2843 C2844 1.355 . S
C2843 C2845 1.415 . S
C2844 C2843 1.355 . S
C2844 C2846 1.419 . S
C2845 C2840 1.425 . S
C2845 C2842 1.409 . S
C2845 C2843 1.415 . S
C2846 H2836 0.930 . S
C2846 C2844 1.419 . S
C2846 C2847 1.362 . S
C2847 H2837 0.930 . S
C2847 C2840 1.409 . S
C2847 C2846 1.362 . S
H2848 C2854 0.930 . S
H2849 C2857 0.930 . S
H2850 C2858 0.930 . S
H2851 C2859 0.930 . S
H2852 C2862 0.930 . S
H2853 C2863 0.930 . S
C2854 H2848 0.930 . S
C2854 C2855 1.355 . S
C2854 C2856 1.415 . S
C2855 C2854 1.355 . S
C2855 C2857 1.419 . S
C2856 C2854 1.415 . S
C2856 C2861 1.425 . S
C2856 C2863 1.409 . S
C2857 H2849 0.930 . S
C2857 C2855 1.419 . S
C2857 C2858 1.362 . S
C2858 H2850 0.930 . S
C2858 C2857 1.362 . S
C2858 C2861 1.409 . S
C2859 H2851 0.930 . S
C2859 C2860 1.355 . S
C2859 C2861 1.415 . S
C2860 C2859 1.355 . S
C2860 C2862 1.419 . S
C2861 C2856 1.425 . S
C2861 C2858 1.409 . S
C2861 C2859 1.415 . S
C2862 H2852 0.930 . S
C2862 C2860 1.419 . S
C2862 C2863 1.362 . S
C2863 H2853 0.930 . S
C2863 C2856 1.409 . S
C2863 C2862 1.362 . S
H2864 C2870 0.930 . S
H2865 C2873 0.930 . S
H2866 C2874 0.930 . S
H2867 C2875 0.930 . S
H2868 C2878 0.930 . S
H2869 C2879 0.930 . S
C2870 H2864 0.930 . S
C2870 C2871 1.355 . S
C2870 C2872 1.415 . S
C2871 C2870 1.355 . S
C2871 C2873 1.419 . S
C2872 C2870 1.415 . S
C2872 C2877 1.425 . S
C2872 C2879 1.409 . S
C2873 H2865 0.930 . S
C2873 C2871 1.419 . S
C2873 C2874 1.362 . S
C2874 H2866 0.930 . S
C2874 C2873 1.362 . S
C2874 C2877 1.409 . S
C2875 H2867 0.930 . S
C2875 C2876 1.355 . S
C2875 C2877 1.415 . S
C2876 C2875 1.355 . S
C2876 C2878 1.419 . S
C2877 C2872 1.425 . S
C2877 C2874 1.409 . S
C2877 C2875 1.415 . S
C2878 H2868 0.930 . S
C2878 C2876 1.419 . S
C2878 C2879 1.362 . S
C2879 H2869 0.930 . S
C2879 C2872 1.409 . S
C2879 C2878 1.362 . S
H2880 C2886 0.930 . S
H2881 C2889 0.930 . S
H2882 C2890 0.930 . S
H2883 C2891 0.930 . S
H2884 C2894 0.930 . S
H2885 C2895 0.930 . S
C2886 H2880 0.930 . S
C2886 C2887 1.355 . S
C2886 C2888 1.415 . S
C2887 C2886 1.355 . S
C2887 C2889 1.419 . S
C2888 C2886 1.415 . S
C2888 C2893 1.425 . S
C2888 C2895 1.409 . S
C2889 H2881 0.930 . S
C2889 C2887 1.419 . S
C2889 C2890 1.362 . S
C2890 H2882 0.930 . S
C2890 C2889 1.362 . S
C2890 C2893 1.409 . S
C2891 H2883 0.930 . S
C2891 C2892 1.355 . S
C2891 C2893 1.415 . S
C2892 C2891 1.355 . S
C2892 C2894 1.419 . S
C2893 C2888 1.425 . S
C2893 C2890 1.409 . S
C2893 C2891 1.415 . S
C2894 H2884 0.930 . S
C2894 C2892 1.419 . S
C2894 C2895 1.362 . S
C2895 H2885 0.930 . S
C2895 C2888 1.409 . S
C2895 C2894 1.362 . S
H2896 C2902 0.930 . S
H2897 C2905 0.930 . S
H2898 C2906 0.930 . S
H2899 C2907 0.930 . S
H2900 C2910 0.930 . S
H2901 C2911 0.930 . S
C2902 H2896 0.930 . S
C2902 C2903 1.355 . S
C2902 C2904 1.415 . S
C2903 C2902 1.355 . S
C2903 C2905 1.419 . S
C2904 C2902 1.415 . S
C2904 C2909 1.425 . S
C2904 C2911 1.409 . S
C2905 H2897 0.930 . S
C2905 C2903 1.419 . S
C2905 C2906 1.362 . S
C2906 H2898 0.930 . S
C2906 C2905 1.362 . S
C2906 C2909 1.409 . S
C2907 H2899 0.930 . S
C2907 C2908 1.355 . S
C2907 C2909 1.415 . S
C2908 C2907 1.355 . S
C2908 C2910 1.419 . S
C2909 C2904 1.425 . S
C2909 C2906 1.409 . S
C2909 C2907 1.415 . S
C2910 H2900 0.930 . S
C2910 C2908 1.419 . S
C2910 C2911 1.362 . S
C2911 H2901 0.930 . S
C2911 C2904 1.409 . S
C2911 C2910 1.362 . S
H2912 C2918 0.930 . S
H2913 C2921 0.930 . S
H2914 C2922 0.930 . S
H2915 C2923 0.930 . S
H2916 C2926 0.930 . S
H2917 C2927 0.930 . S
C2918 H2912 0.930 . S
C2918 C2919 1.355 . S
C2918 C2920 1.415 . S
C2919 C2918 1.355 . S
C2919 C2921 1.419 . S
C2920 C2918 1.415 . S
C2920 C2925 1.425 . S
C2920 C2927 1.409 . S
C2921 H2913 0.930 . S
C2921 C2919 1.419 . S
C2921 C2922 1.362 . S
C2922 H2914 0.930 . S
C2922 C2921 1.362 . S
C2922 C2925 1.409 . S
C2923 H2915 0.930 . S
C2923 C2924 1.355 . S
C2923 C2925 1.415 . S
C2924 C2923 1.355 . S
C2924 C2926 1.419 . S
C2925 C2920 1.425 . S
C2925 C2922 1.409 . S
C2925 C2923 1.415 . S
C2926 H2916 0.930 . S
C2926 C2924 1.419 . S
C2926 C2927 1.362 . S
C2927 H2917 0.930 . S
C2927 C2920 1.409 . S
C2927 C2926 1.362 . S
H2928 C2934 0.930 . S
H2929 C2937 0.930 . S
H2930 C2938 0.930 . S
H2931 C2939 0.930 . S
H2932 C2942 0.930 . S
H2933 C2943 0.930 . S
C2934 H2928 0.930 . S
C2934 C2935 1.355 . S
C2934 C2936 1.415 . S
C2935 C2934 1.355 . S
C2935 C2937 1.419 . S
C2936 C2934 1.415 . S
C2936 C2941 1.425 . S
C2936 C2943 1.409 . S
C2937 H2929 0.930 . S
C2937 C2935 1.419 . S
C2937 C2938 1.362 . S
C2938 H2930 0.930 . S
C2938 C2937 1.362 . S
C2938 C2941 1.409 . S
C2939 H2931 0.930 . S
C2939 C2940 1.355 . S
C2939 C2941 1.415 . S
C2940 C2939 1.355 . S
C2940 C2942 1.419 . S
C2941 C2936 1.425 . S
C2941 C2938 1.409 . S
C2941 C2939 1.415 . S
C2942 H2932 0.930 . S
C2942 C2940 1.419 . S
C2942 C2943 1.362 . S
C2943 H2933 0.930 . S
C2943 C2936 1.409 . S
C2943 C2942 1.362 . S
H2944 C2950 0.930 . S
H2945 C2953 0.930 . S
H2946 C2954 0.930 . S
H2947 C2955 0.930 . S
H2948 C2958 0.930 . S
H2949 C2959 0.930 . S
C2950 H2944 0.930 . S
C2950 C2951 1.355 . S
C2950 C2952 1.415 . S
C2951 C2950 1.355 . S
C2951 C2953 1.419 . S
C2952 C2950 1.415 . S
C2952 C2957 1.425 . S
C2952 C2959 1.409 . S
C2953 H2945 0.930 . S
C2953 C2951 1.419 . S
C2953 C2954 1.362 . S
C2954 H2946 0.930 . S
C2954 C2953 1.362 . S
C2954 C2957 1.409 . S
C2955 H2947 0.930 . S
C2955 C2956 1.355 . S
C2955 C2957 1.415 . S
C2956 C2955 1.355 . S
C2956 C2958 1.419 . S
C2957 C2952 1.425 . S
C2957 C2954 1.409 . S
C2957 C2955 1.415 . S
C2958 H2948 0.930 . S
C2958 C2956 1.419 . S
C2958 C2959 1.362 . S
C2959 H2949 0.930 . S
C2959 C2952 1.409 . S
C2959 C2958 1.362 . S
H2960 C2966 0.930 . S
H2961 C2969 0.930 . S
H2962 C2970 0.930 . S
H2963 C2971 0.930 . S
H2964 C2974 0.930 . S
H2965 C2975 0.930 . S
C2966 H2960 0.930 . S
C2966 C2967 1.355 . S
C2966 C2968 1.415 . S
C2967 C2966 1.355 . S
C2967 C2969 1.419 . S
C2968 C2966 1.415 . S
C2968 C2973 1.425 . S
C2968 C2975 1.409 . S
C2969 H2961 0.930 . S
C2969 C2967 1.419 . S
C2969 C2970 1.362 . S
C2970 H2962 0.930 . S
C2970 C2969 1.362 . S
C2970 C2973 1.409 . S
C2971 H2963 0.930 . S
C2971 C2972 1.355 . S
C2971 C2973 1.415 . S
C2972 C2971 1.355 . S
C2972 C2974 1.419 . S
C2973 C2968 1.425 . S
C2973 C2970 1.409 . S
C2973 C2971 1.415 . S
C2974 H2964 0.930 . S
C2974 C2972 1.419 . S
C2974 C2975 1.362 . S
C2975 H2965 0.930 . S
C2975 C2968 1.409 . S
C2975 C2974 1.362 . S
H2976 C2982 0.930 . S
H2977 C2985 0.930 . S
H2978 C2986 0.930 . S
H2979 C2987 0.930 . S
H2980 C2990 0.930 . S
H2981 C2991 0.930 . S
C2982 H2976 0.930 . S
C2982 C2983 1.355 . S
C2982 C2984 1.415 . S
C2983 C2982 1.355 . S
C2983 C2985 1.419 . S
C2984 C2982 1.415 . S
C2984 C2989 1.425 . S
C2984 C2991 1.409 . S
C2985 H2977 0.930 . S
C2985 C2983 1.419 . S
C2985 C2986 1.362 . S
C2986 H2978 0.930 . S
C2986 C2985 1.362 . S
C2986 C2989 1.409 . S
C2987 H2979 0.930 . S
C2987 C2988 1.355 . S
C2987 C2989 1.415 . S
C2988 C2987 1.355 . S
C2988 C2990 1.419 . S
C2989 C2984 1.425 . S
C2989 C2986 1.409 . S
C2989 C2987 1.415 . S
C2990 H2980 0.930 . S
C2990 C2988 1.419 . S
C2990 C2991 1.362 . S
C2991 H2981 0.930 . S
C2991 C2984 1.409 . S
C2991 C2990 1.362 . S
H2992 C2998 0.930 . S
H2993 C3001 0.930 . S
H2994 C3002 0.930 . S
H2995 C3003 0.930 . S
H2996 C3006 0.930 . S
H2997 C3007 0.930 . S
C2998 H2992 0.930 . S
C2998 C2999 1.355 . S
C2998 C3000 1.415 . S
C2999 C2998 1.355 . S
C2999 C3001 1.419 . S
C3000 C2998 1.415 . S
C3000 C3005 1.425 . S
C3000 C3007 1.409 . S
C3001 H2993 0.930 . S
C3001 C2999 1.419 . S
C3001 C3002 1.362 . S
C3002 H2994 0.930 . S
C3002 C3001 1.362 . S
C3002 C3005 1.409 . S
C3003 H2995 0.930 . S
C3003 C3004 1.355 . S
C3003 C3005 1.415 . S
C3004 C3003 1.355 . S
C3004 C3006 1.419 . S
C3005 C3000 1.425 . S
C3005 C3002 1.409 . S
C3005 C3003 1.415 . S
C3006 H2996 0.930 . S
C3006 C3004 1.419 . S
C3006 C3007 1.362 . S
C3007 H2997 0.930 . S
C3007 C3000 1.409 . S
C3007 C3006 1.362 . S
H3008 C3014 0.930 . S
H3009 C3017 0.930 . S
H3010 C3018 0.930 . S
H3011 C3019 0.930 . S
H3012 C3022 0.930 . S
H3013 C3023 0.930 . S
C3014 H3008 0.930 . S
C3014 C3015 1.355 . S
C3014 C3016 1.415 . S
C3015 C3014 1.355 . S
C3015 C3017 1.419 . S
C3016 C3014 1.415 . S
C3016 C3021 1.425 . S
C3016 C3023 1.409 . S
C3017 H3009 0.930 . S
C3017 C3015 1.419 . S
C3017 C3018 1.362 . S
C3018 H3010 0.930 . S
C3018 C3017 1.362 . S
C3018 C3021 1.409 . S
C3019 H3011 0.930 . S
C3019 C3020 1.355 . S
C3019 C3021 1.415 . S
C3020 C3019 1.355 . S
C3020 C3022 1.419 . S
C3021 C3016 1.425 . S
C3021 C3018 1.409 . S
C3021 C3019 1.415 . S
C3022 H3012 0.930 . S
C3022 C3020 1.419 . S
C3022 C3023 1.362 . S
C3023 H3013 0.930 . S
C3023 C3016 1.409 . S
C3023 C3022 1.362 . S
H3024 C3030 0.930 . S
H3025 C3033 0.930 . S
H3026 C3034 0.930 . S
H3027 C3035 0.930 . S
H3028 C3038 0.930 . S
H3029 C3039 0.930 . S
C3030 H3024 0.930 . S
C3030 C3031 1.355 . S
C3030 C3032 1.415 . S
C3031 C3030 1.355 . S
C3031 C3033 1.419 . S
C3032 C3030 1.415 . S
C3032 C3037 1.425 . S
C3032 C3039 1.409 . S
C3033 H3025 0.930 . S
C3033 C3031 1.419 . S
C3033 C3034 1.362 . S
C3034 H3026 0.930 . S
C3034 C3033 1.362 . S
C3034 C3037 1.409 . S
C3035 H3027 0.930 . S
C3035 C3036 1.355 . S
C3035 C3037 1.415 . S
C3036 C3035 1.355 . S
C3036 C3038 1.419 . S
C3037 C3032 1.425 . S
C3037 C3034 1.409 . S
C3037 C3035 1.415 . S
C3038 H3028 0.930 . S
C3038 C3036 1.419 . S
C3038 C3039 1.362 . S
C3039 H3029 0.930 . S
C3039 C3032 1.409 . S
C3039 C3038 1.362 . S
H3040 C3046 0.930 . S
H3041 C3049 0.930 . S
H3042 C3050 0.930 . S
H3043 C3051 0.930 . S
H3044 C3054 0.930 . S
H3045 C3055 0.930 . S
C3046 H3040 0.930 . S
C3046 C3047 1.355 . S
C3046 C3048 1.415 . S
C3047 C3046 1.355 . S
C3047 C3049 1.419 . S
C3048 C3046 1.415 . S
C3048 C3053 1.425 . S
C3048 C3055 1.409 . S
C3049 H3041 0.930 . S
C3049 C3047 1.419 . S
C3049 C3050 1.362 . S
C3050 H3042 0.930 . S
C3050 C3049 1.362 . S
C3050 C3053 1.409 . S
C3051 H3043 0.930 . S
C3051 C3052 1.355 . S
C3051 C3053 1.415 . S
C3052 C3051 1.355 . S
C3052 C3054 1.419 . S
C3053 C3048 1.425 . S
C3053 C3050 1.409 . S
C3053 C3051 1.415 . S
C3054 H3044 0.930 . S
C3054 C3052 1.419 . S
C3054 C3055 1.362 . S
C3055 H3045 0.930 . S
C3055 C3048 1.409 . S
C3055 C3054 1.362 . S
H3056 C3062 0.930 . S
H3057 C3065 0.930 . S
H3058 C3066 0.930 . S
H3059 C3067 0.930 . S
H3060 C3070 0.930 . S
H3061 C3071 0.930 . S
C3062 H3056 0.930 . S
C3062 C3063 1.355 . S
C3062 C3064 1.415 . S
C3063 C3062 1.355 . S
C3063 C3065 1.419 . S
C3064 C3062 1.415 . S
C3064 C3069 1.425 . S
C3064 C3071 1.409 . S
C3065 H3057 0.930 . S
C3065 C3063 1.419 . S
C3065 C3066 1.362 . S
C3066 H3058 0.930 . S
C3066 C3065 1.362 . S
C3066 C3069 1.409 . S
C3067 H3059 0.930 . S
C3067 C3068 1.355 . S
C3067 C3069 1.415 . S
C3068 C3067 1.355 . S
C3068 C3070 1.419 . S
C3069 C3064 1.425 . S
C3069 C3066 1.409 . S
C3069 C3067 1.415 . S
C3070 H3060 0.930 . S
C3070 C3068 1.419 . S
C3070 C3071 1.362 . S
C3071 H3061 0.930 . S
C3071 C3064 1.409 . S
C3071 C3070 1.362 . S
H3072 C3078 0.930 . S
H3073 C3081 0.930 . S
H3074 C3082 0.930 . S
H3075 C3083 0.930 . S
H3076 C3086 0.930 . S
H3077 C3087 0.930 . S
C3078 H3072 0.930 . S
C3078 C3079 1.355 . S
C3078 C3080 1.415 . S
C3079 C3078 1.355 . S
C3079 C3081 1.419 . S
C3080 C3078 1.415 . S
C3080 C3085 1.425 . S
C3080 C3087 1.409 . S
C3081 H3073 0.930 . S
C3081 C3079 1.419 . S
C3081 C3082 1.362 . S
C3082 H3074 0.930 . S
C3082 C3081 1.362 . S
C3082 C3085 1.409 . S
C3083 H3075 0.930 . S
C3083 C3084 1.355 . S
C3083 C3085 1.415 . S
C3084 C3083 1.355 . S
C3084 C3086 1.419 . S
C3085 C3080 1.425 . S
C3085 C3082 1.409 . S
C3085 C3083 1.415 . S
C3086 H3076 0.930 . S
C3086 C3084 1.419 . S
C3086 C3087 1.362 . S
C3087 H3077 0.930 . S
C3087 C3080 1.409 . S
C3087 C3086 1.362 . S
H3088 C3094 0.930 . S
H3089 C3097 0.930 . S
H3090 C3098 0.930 . S
H3091 C3099 0.930 . S
H3092 C3102 0.930 . S
H3093 C3103 0.930 . S
C3094 H3088 0.930 . S
C3094 C3095 1.355 . S
C3094 C3096 1.415 . S
C3095 C3094 1.355 . S
C3095 C3097 1.419 . S
C3096 C3094 1.415 . S
C3096 C3101 1.425 . S
C3096 C3103 1.409 . S
C3097 H3089 0.930 . S
C3097 C3095 1.419 . S
C3097 C3098 1.362 . S
C3098 H3090 0.930 . S
C3098 C3097 1.362 . S
C3098 C3101 1.409 . S
C3099 H3091 0.930 . S
C3099 C3100 1.355 . S
C3099 C3101 1.415 . S
C3100 C3099 1.355 . S
C3100 C3102 1.419 . S
C3101 C3096 1.425 . S
C3101 C3098 1.409 . S
C3101 C3099 1.415 . S
C3102 H3092 0.930 . S
C3102 C3100 1.419 . S
C3102 C3103 1.362 . S
C3103 H3093 0.930 . S
C3103 C3096 1.409 . S
C3103 C3102 1.362 . S
H3104 C3110 0.930 . S
H3105 C3113 0.930 . S
H3106 C3114 0.930 . S
H3107 C3115 0.930 . S
H3108 C3118 0.930 . S
H3109 C3119 0.930 . S
C3110 H3104 0.930 . S
C3110 C3111 1.355 . S
C3110 C3112 1.415 . S
C3111 C3110 1.355 . S
C3111 C3113 1.419 . S
C3112 C3110 1.415 . S
C3112 C3117 1.425 . S
C3112 C3119 1.409 . S
C3113 H3105 0.930 . S
C3113 C3111 1.419 . S
C3113 C3114 1.362 . S
C3114 H3106 0.930 . S
C3114 C3113 1.362 . S
C3114 C3117 1.409 . S
C3115 H3107 0.930 . S
C3115 C3116 1.355 . S
C3115 C3117 1.415 . S
C3116 C3115 1.355 . S
C3116 C3118 1.419 . S
C3117 C3112 1.425 . S
C3117 C3114 1.409 . S
C3117 C3115 1.415 . S
C3118 H3108 0.930 . S
C3118 C3116 1.419 . S
C3118 C3119 1.362 . S
C3119 H3109 0.930 . S
C3119 C3112 1.409 . S
C3119 C3118 1.362 . S
H3120 C3126 0.930 . S
H3121 C3129 0.930 . S
H3122 C3130 0.930 . S
H3123 C3131 0.930 . S
H3124 C3134 0.930 . S
H3125 C3135 0.930 . S
C3126 H3120 0.930 . S
C3126 C3127 1.355 . S
C3126 C3128 1.415 . S
C3127 C3126 1.355 . S
C3127 C3129 1.419 . S
C3128 C3126 1.415 . S
C3128 C3133 1.425 . S
C3128 C3135 1.409 . S
C3129 H3121 0.930 . S
C3129 C3127 1.419 . S
C3129 C3130 1.362 . S
C3130 H3122 0.930 . S
C3130 C3129 1.362 . S
C3130 C3133 1.409 . S
C3131 H3123 0.930 . S
C3131 C3132 1.355 . S
C3131 C3133 1.415 . S
C3132 C3131 1.355 . S
C3132 C3134 1.419 . S
C3133 C3128 1.425 . S
C3133 C3130 1.409 . S
C3133 C3131 1.415 . S
C3134 H3124 0.930 . S
C3134 C3132 1.419 . S
C3134 C3135 1.362 . S
C3135 H3125 0.930 . S
C3135 C3128 1.409 . S
C3135 C3134 1.362 . S
H3136 C3142 0.930 . S
H3137 C3145 0.930 . S
H3138 C3146 0.930 . S
H3139 C3147 0.930 . S
H3140 C3150 0.930 . S
H3141 C3151 0.930 . S
C3142 H3136 0.930 . S
C3142 C3143 1.355 . S
C3142 C3144 1.415 . S
C3143 C3142 1.355 . S
C3143 C3145 1.419 . S
C3144 C3142 1.415 . S
C3144 C3149 1.425 . S
C3144 C3151 1.409 . S
C3145 H3137 0.930 . S
C3145 C3143 1.419 . S
C3145 C3146 1.362 . S
C3146 H3138 0.930 . S
C3146 C3145 1.362 . S
C3146 C3149 1.409 . S
C3147 H3139 0.930 . S
C3147 C3148 1.355 . S
C3147 C3149 1.415 . S
C3148 C3147 1.355 . S
C3148 C3150 1.419 . S
C3149 C3144 1.425 . S
C3149 C3146 1.409 . S
C3149 C3147 1.415 . S
C3150 H3140 0.930 . S
C3150 C3148 1.419 . S
C3150 C3151 1.362 . S
C3151 H3141 0.930 . S
C3151 C3144 1.409 . S
C3151 C3150 1.362 . S
H3152 C3158 0.930 . S
H3153 C3161 0.930 . S
H3154 C3162 0.930 . S
H3155 C3163 0.930 . S
H3156 C3166 0.930 . S
H3157 C3167 0.930 . S
C3158 H3152 0.930 . S
C3158 C3159 1.355 . S
C3158 C3160 1.415 . S
C3159 C3158 1.355 . S
C3159 C3161 1.419 . S
C3160 C3158 1.415 . S
C3160 C3165 1.425 . S
C3160 C3167 1.409 . S
C3161 H3153 0.930 . S
C3161 C3159 1.419 . S
C3161 C3162 1.362 . S
C3162 H3154 0.930 . S
C3162 C3161 1.362 . S
C3162 C3165 1.409 . S
C3163 H3155 0.930 . S
C3163 C3164 1.355 . S
C3163 C3165 1.415 . S
C3164 C3163 1.355 . S
C3164 C3166 1.419 . S
C3165 C3160 1.425 . S
C3165 C3162 1.409 . S
C3165 C3163 1.415 . S
C3166 H3156 0.930 . S
C3166 C3164 1.419 . S
C3166 C3167 1.362 . S
C3167 H3157 0.930 . S
C3167 C3160 1.409 . S
C3167 C3166 1.362 . S
H3168 C3174 0.930 . S
H3169 C3177 0.930 . S
H3170 C3178 0.930 . S
H3171 C3179 0.930 . S
H3172 C3182 0.930 . S
H3173 C3183 0.930 . S
C3174 H3168 0.930 . S
C3174 C3175 1.355 . S
C3174 C3176 1.415 . S
C3175 C3174 1.355 . S
C3175 C3177 1.419 . S
C3176 C3174 1.415 . S
C3176 C3181 1.425 . S
C3176 C3183 1.409 . S
C3177 H3169 0.930 . S
C3177 C3175 1.419 . S
C3177 C3178 1.362 . S
C3178 H3170 0.930 . S
C3178 C3177 1.362 . S
C3178 C3181 1.409 . S
C3179 H3171 0.930 . S
C3179 C3180 1.355 . S
C3179 C3181 1.415 . S
C3180 C3179 1.355 . S
C3180 C3182 1.419 . S
C3181 C3176 1.425 . S
C3181 C3178 1.409 . S
C3181 C3179 1.415 . S
C3182 H3172 0.930 . S
C3182 C3180 1.419 . S
C3182 C3183 1.362 . S
C3183 H3173 0.930 . S
C3183 C3176 1.409 . S
C3183 C3182 1.362 . S
H3184 C3190 0.930 . S
H3185 C3193 0.930 . S
H3186 C3194 0.930 . S
H3187 C3195 0.930 . S
H3188 C3198 0.930 . S
H3189 C3199 0.930 . S
C3190 H3184 0.930 . S
C3190 C3191 1.355 . S
C3190 C3192 1.415 . S
C3191 C3190 1.355 . S
C3191 C3193 1.419 . S
C3192 C3190 1.415 . S
C3192 C3197 1.425 . S
C3192 C3199 1.409 . S
C3193 H3185 0.930 . S
C3193 C3191 1.419 . S
C3193 C3194 1.362 . S
C3194 H3186 0.930 . S
C3194 C3193 1.362 . S
C3194 C3197 1.409 . S
C3195 H3187 0.930 . S
C3195 C3196 1.355 . S
C3195 C3197 1.415 . S
C3196 C3195 1.355 . S
C3196 C3198 1.419 . S
C3197 C3192 1.425 . S
C3197 C3194 1.409 . S
C3197 C3195 1.415 . S
C3198 H3188 0.930 . S
C3198 C3196 1.419 . S
C3198 C3199 1.362 . S
C3199 H3189 0.930 . S
C3199 C3192 1.409 . S
C3199 C3198 1.362 . S
H3200 C3206 0.930 . S
H3201 C3209 0.930 . S
H3202 C3210 0.930 . S
H3203 C3211 0.930 . S
H3204 C3214 0.930 . S
H3205 C3215 0.930 . S
C3206 H3200 0.930 . S
C3206 C3207 1.355 . S
C3206 C3208 1.415 . S
C3207 C3206 1.355 . S
C3207 C3209 1.419 . S
C3208 C3206 1.415 . S
C3208 C3213 1.425 . S
C3208 C3215 1.409 . S
C3209 H3201 0.930 . S
C3209 C3207 1.419 . S
C3209 C3210 1.362 . S
C3210 H3202 0.930 . S
C3210 C3209 1.362 . S
C3210 C3213 1.409 . S
C3211 H3203 0.930 . S
C3211 C3212 1.355 . S
C3211 C3213 1.415 . S
C3212 C3211 1.355 . S
C3212 C3214 1.419 . S
C3213 C3208 1.425 . S
C3213 C3210 1.409 . S
C3213 C3211 1.415 . S
C3214 H3204 0.930 . S
C3214 C3212 1.419 . S
C3214 C3215 1.362 . S
C3215 H3205 0.930 . S
C3215 C3208 1.409 . S
C3215 C3214 1.362 . S
H3216 C3222 0.930 . S
H3217 C3225 0.930 . S
H3218 C3226 0.930 . S
H3219 C3227 0.930 . S
H3220 C3230 0.930 . S
H3221 C3231 0.930 . S
C3222 H3216 0.930 . S
C3222 C3223 1.355 . S
C3222 C3224 1.415 . S
C3223 C3222 1.355 . S
C3223 C3225 1.419 . S
C3224 C3222 1.415 . S
C3224 C3229 1.425 . S
C3224 C3231 1.409 . S
C3225 H3217 0.930 . S
C3225 C3223 1.419 . S
C3225 C3226 1.362 . S
C3226 H3218 0.930 . S
C3226 C3225 1.362 . S
C3226 C3229 1.409 . S
C3227 H3219 0.930 . S
C3227 C3228 1.355 . S
C3227 C3229 1.415 . S
C3228 C3227 1.355 . S
C3228 C3230 1.419 . S
C3229 C3224 1.425 . S
C3229 C3226 1.409 . S
C3229 C3227 1.415 . S
C3230 H3220 0.930 . S
C3230 C3228 1.419 . S
C3230 C3231 1.362 . S
C3231 H3221 0.930 . S
C3231 C3224 1.409 . S
C3231 C3230 1.362 . S
H3232 C3238 0.930 . S
H3233 C3241 0.930 . S
H3234 C3242 0.930 . S
H3235 C3243 0.930 . S
H3236 C3246 0.930 . S
H3237 C3247 0.930 . S
C3238 H3232 0.930 . S
C3238 C3239 1.355 . S
C3238 C3240 1.415 . S
C3239 C3238 1.355 . S
C3239 C3241 1.419 . S
C3240 C3238 1.415 . S
C3240 C3245 1.425 . S
C3240 C3247 1.409 . S
C3241 H3233 0.930 . S
C3241 C3239 1.419 . S
C3241 C3242 1.362 . S
C3242 H3234 0.930 . S
C3242 C3241 1.362 . S
C3242 C3245 1.409 . S
C3243 H3235 0.930 . S
C3243 C3244 1.355 . S
C3243 C3245 1.415 . S
C3244 C3243 1.355 . S
C3244 C3246 1.419 . S
C3245 C3240 1.425 . S
C3245 C3242 1.409 . S
C3245 C3243 1.415 . S
C3246 H3236 0.930 . S
C3246 C3244 1.419 . S
C3246 C3247 1.362 . S
C3247 H3237 0.930 . S
C3247 C3240 1.409 . S
C3247 C3246 1.362 . S
H3248 C3254 0.930 . S
H3249 C3257 0.930 . S
H3250 C3258 0.930 . S
H3251 C3259 0.930 . S
H3252 C3262 0.930 . S
H3253 C3263 0.930 . S
C3254 H3248 0.930 . S
C3254 C3255 1.355 . S
C3254 C3256 1.415 . S
C3255 C3254 1.355 . S
C3255 C3257 1.419 . S
C3256 C3254 1.415 . S
C3256 C3261 1.425 . S
C3256 C3263 1.409 . S
C3257 H3249 0.930 . S
C3257 C3255 1.419 . S
C3257 C3258 1.362 . S
C3258 H3250 0.930 . S
C3258 C3257 1.362 . S
C3258 C3261 1.409 . S
C3259 H3251 0.930 . S
C3259 C3260 1.355 . S
C3259 C3261 1.415 . S
C3260 C3259 1.355 . S
C3260 C3262 1.419 . S
C3261 C3256 1.425 . S
C3261 C3258 1.409 . S
C3261 C3259 1.415 . S
C3262 H3252 0.930 . S
C3262 C3260 1.419 . S
C3262 C3263 1.362 . S
C3263 H3253 0.930 . S
C3263 C3256 1.409 . S
C3263 C3262 1.362 . S
H3264 C3270 0.930 . S
H3265 C3273 0.930 . S
H3266 C3274 0.930 . S
H3267 C3275 0.930 . S
H3268 C3278 0.930 . S
H3269 C3279 0.930 . S
C3270 H3264 0.930 . S
C3270 C3271 1.355 . S
C3270 C3272 1.415 . S
C3271 C3270 1.355 . S
C3271 C3273 1.419 . S
C3272 C3270 1.415 . S
C3272 C3277 1.425 . S
C3272 C3279 1.409 . S
C3273 H3265 0.930 . S
C3273 C3271 1.419 . S
C3273 C3274 1.362 . S
C3274 H3266 0.930 . S
C3274 C3273 1.362 . S
C3274 C3277 1.409 . S
C3275 H3267 0.930 . S
C3275 C3276 1.355 . S
C3275 C3277 1.415 . S
C3276 C3275 1.355 . S
C3276 C3278 1.419 . S
C3277 C3272 1.425 . S
C3277 C3274 1.409 . S
C3277 C3275 1.415 . S
C3278 H3268 0.930 . S
C3278 C3276 1.419 . S
C3278 C3279 1.362 . S
C3279 H3269 0.930 . S
C3279 C3272 1.409 . S
C3279 C3278 1.362 . S
H3280 C3286 0.930 . S
H3281 C3289 0.930 . S
H3282 C3290 0.930 . S
H3283 C3291 0.930 . S
H3284 C3294 0.930 . S
H3285 C3295 0.930 . S
C3286 H3280 0.930 . S
C3286 C3287 1.355 . S
C3286 C3288 1.415 . S
C3287 C3286 1.355 . S
C3287 C3289 1.419 . S
C3288 C3286 1.415 . S
C3288 C3293 1.425 . S
C3288 C3295 1.409 . S
C3289 H3281 0.930 . S
C3289 C3287 1.419 . S
C3289 C3290 1.362 . S
C3290 H3282 0.930 . S
C3290 C3289 1.362 . S
C3290 C3293 1.409 . S
C3291 H3283 0.930 . S
C3291 C3292 1.355 . S
C3291 C3293 1.415 . S
C3292 C3291 1.355 . S
C3292 C3294 1.419 . S
C3293 C3288 1.425 . S
C3293 C3290 1.409 . S
C3293 C3291 1.415 . S
C3294 H3284 0.930 . S
C3294 C3292 1.419 . S
C3294 C3295 1.362 . S
C3295 H3285 0.930 . S
C3295 C3288 1.409 . S
C3295 C3294 1.362 . S
H3296 C3302 0.930 . S
H3297 C3305 0.930 . S
H3298 C3306 0.930 . S
H3299 C3307 0.930 . S
H3300 C3310 0.930 . S
H3301 C3311 0.930 . S
C3302 H3296 0.930 . S
C3302 C3303 1.355 . S
C3302 C3304 1.415 . S
C3303 C3302 1.355 . S
C3303 C3305 1.419 . S
C3304 C3302 1.415 . S
C3304 C3309 1.425 . S
C3304 C3311 1.409 . S
C3305 H3297 0.930 . S
C3305 C3303 1.419 . S
C3305 C3306 1.362 . S
C3306 H3298 0.930 . S
C3306 C3305 1.362 . S
C3306 C3309 1.409 . S
C3307 H3299 0.930 . S
C3307 C3308 1.355 . S
C3307 C3309 1.415 . S
C3308 C3307 1.355 . S
C3308 C3310 1.419 . S
C3309 C3304 1.425 . S
C3309 C3306 1.409 . S
C3309 C3307 1.415 . S
C3310 H3300 0.930 . S
C3310 C3308 1.419 . S
C3310 C3311 1.362 . S
C3311 H3301 0.930 . S
C3311 C3304 1.409 . S
C3311 C3310 1.362 . S
H3312 C3318 0.930 . S
H3313 C3321 0.930 . S
H3314 C3322 0.930 . S
H3315 C3323 0.930 . S
H3316 C3326 0.930 . S
H3317 C3327 0.930 . S
C3318 H3312 0.930 . S
C3318 C3319 1.355 . S
C3318 C3320 1.415 . S
C3319 C3318 1.355 . S
C3319 C3321 1.419 . S
C3320 C3318 1.415 . S
C3320 C3325 1.425 . S
C3320 C3327 1.409 . S
C3321 H3313 0.930 . S
C3321 C3319 1.419 . S
C3321 C3322 1.362 . S
C3322 H3314 0.930 . S
C3322 C3321 1.362 . S
C3322 C3325 1.409 . S
C3323 H3315 0.930 . S
C3323 C3324 1.355 . S
C3323 C3325 1.415 . S
C3324 C3323 1.355 . S
C3324 C3326 1.419 . S
C3325 C3320 1.425 . S
C3325 C3322 1.409 . S
C3325 C3323 1.415 . S
C3326 H3316 0.930 . S
C3326 C3324 1.419 . S
C3326 C3327 1.362 . S
C3327 H3317 0.930 . S
C3327 C3320 1.409 . S
C3327 C3326 1.362 . S
H3328 C3334 0.930 . S
H3329 C3337 0.930 . S
H3330 C3338 0.930 . S
H3331 C3339 0.930 . S
H3332 C3342 0.930 . S
H3333 C3343 0.930 . S
C3334 H3328 0.930 . S
C3334 C3335 1.355 . S
C3334 C3336 1.415 . S
C3335 C3334 1.355 . S
C3335 C3337 1.419 . S
C3336 C3334 1.415 . S
C3336 C3341 1.425 . S
C3336 C3343 1.409 . S
C3337 H3329 0.930 . S
C3337 C3335 1.419 . S
C3337 C3338 1.362 . S
C3338 H3330 0.930 . S
C3338 C3337 1.362 . S
C3338 C3341 1.409 . S
C3339 H3331 0.930 . S
C3339 C3340 1.355 . S
C3339 C3341 1.415 . S
C3340 C3339 1.355 . S
C3340 C3342 1.419 . S
C3341 C3336 1.425 . S
C3341 C3338 1.409 . S
C3341 C3339 1.415 . S
C3342 H3332 0.930 . S
C3342 C3340 1.419 . S
C3342 C3343 1.362 . S
C3343 H3333 0.930 . S
C3343 C3336 1.409 . S
C3343 C3342 1.362 . S
H3344 C3350 0.930 . S
H3345 C3353 0.930 . S
H3346 C3354 0.930 . S
H3347 C3355 0.930 . S
H3348 C3358 0.930 . S
H3349 C3359 0.930 . S
C3350 H3344 0.930 . S
C3350 C3351 1.355 1_645 S
C3350 C3352 1.415 . S
C3351 C3350 1.355 1_465 S
C3351 C3353 1.419 . S
C3352 C3350 1.415 . S
C3352 C3357 1.425 1_645 S
C3352 C3359 1.409 . S
C3353 H3345 0.930 . S
C3353 C3351 1.419 . S
C3353 C3354 1.362 . S
C3354 H3346 0.930 . S
C3354 C3353 1.362 . S
C3354 C3357 1.409 . S
C3355 H3347 0.930 . S
C3355 C3356 1.355 1_465 S
C3355 C3357 1.415 . S
C3356 C3355 1.355 1_645 S
C3356 C3358 1.419 . S
C3357 C3352 1.425 1_465 S
C3357 C3354 1.409 . S
C3357 C3355 1.415 . S
C3358 H3348 0.930 . S
C3358 C3356 1.419 . S
C3358 C3359 1.362 . S
C3359 H3349 0.930 . S
C3359 C3352 1.409 . S
C3359 C3358 1.362 . S
H3360 C3366 0.930 . S
H3361 C3369 0.930 . S
H3362 C3370 0.930 . S
H3363 C3371 0.930 . S
H3364 C3374 0.930 . S
H3365 C3375 0.930 . S
C3366 H3360 0.930 . S
C3366 C3367 1.355 . S
C3366 C3368 1.415 . S
C3367 C3366 1.355 . S
C3367 C3369 1.419 . S
C3368 C3366 1.415 . S
C3368 C3373 1.425 . S
C3368 C3375 1.409 . S
C3369 H3361 0.930 . S
C3369 C3367 1.419 . S
C3369 C3370 1.362 . S
C3370 H3362 0.930 . S
C3370 C3369 1.362 . S
C3370 C3373 1.409 . S
C3371 H3363 0.930 . S
C3371 C3372 1.355 . S
C3371 C3373 1.415 . S
C3372 C3371 1.355 . S
C3372 C3374 1.419 . S
C3373 C3368 1.425 . S
C3373 C3370 1.409 . S
C3373 C3371 1.415 . S
C3374 H3364 0.930 . S
C3374 C3372 1.419 . S
C3374 C3375 1.362 . S
C3375 H3365 0.930 . S
C3375 C3368 1.409 . S
C3375 C3374 1.362 . S
H3376 C3382 0.930 . S
H3377 C3385 0.930 . S
H3378 C3386 0.930 1_556 S
H3379 C3387 0.930 . S
H3380 C3390 0.930 . S
H3381 C3391 0.930 1_554 S
C3382 H3376 0.930 . S
C3382 C3383 1.355 1_565 S
C3382 C3384 1.415 . S
C3383 C3382 1.355 1_545 S
C3383 C3385 1.419 . S
C3384 C3382 1.415 . S
C3384 C3389 1.425 1_564 S
C3384 C3391 1.409 1_554 S
C3385 H3377 0.930 . S
C3385 C3383 1.419 . S
C3385 C3386 1.362 . S
C3386 H3378 0.930 1_554 S
C3386 C3385 1.362 . S
C3386 C3389 1.409 1_554 S
C3387 H3379 0.930 . S
C3387 C3388 1.355 1_545 S
C3387 C3389 1.415 . S
C3388 C3387 1.355 1_565 S
C3388 C3390 1.419 . S
C3389 C3384 1.425 1_546 S
C3389 C3386 1.409 1_556 S
C3389 C3387 1.415 . S
C3390 H3380 0.930 . S
C3390 C3388 1.419 . S
C3390 C3391 1.362 . S
C3391 H3381 0.930 1_556 S
C3391 C3384 1.409 1_556 S
C3391 C3390 1.362 . S
H3392 C3398 0.930 . S
H3393 C3401 0.930 . S
H3394 C3402 0.930 . S
H3395 C3403 0.930 . S
H3396 C3406 0.930 . S
H3397 C3407 0.930 . S
C3398 H3392 0.930 . S
C3398 C3399 1.355 . S
C3398 C3400 1.415 . S
C3399 C3398 1.355 . S
C3399 C3401 1.419 . S
C3400 C3398 1.415 . S
C3400 C3405 1.425 . S
C3400 C3407 1.409 . S
C3401 H3393 0.930 . S
C3401 C3399 1.419 . S
C3401 C3402 1.362 . S
C3402 H3394 0.930 . S
C3402 C3401 1.362 . S
C3402 C3405 1.409 . S
C3403 H3395 0.930 . S
C3403 C3404 1.355 . S
C3403 C3405 1.415 . S
C3404 C3403 1.355 . S
C3404 C3406 1.419 . S
C3405 C3400 1.425 . S
C3405 C3402 1.409 . S
C3405 C3403 1.415 . S
C3406 H3396 0.930 . S
C3406 C3404 1.419 . S
C3406 C3407 1.362 . S
C3407 H3397 0.930 . S
C3407 C3400 1.409 . S
C3407 C3406 1.362 . S
H3408 C3414 0.930 . S
H3409 C3417 0.930 . S
H3410 C3418 0.930 . S
H3411 C3419 0.930 . S
H3412 C3422 0.930 . S
H3413 C3423 0.930 . S
C3414 H3408 0.930 . S
C3414 C3415 1.352 1_565 S
C3414 C3416 1.415 . S
C3415 C3414 1.352 1_545 S
C3415 C3417 1.423 . S
C3416 C3414 1.415 . S
C3416 C3421 1.425 1_565 S
C3416 C3423 1.409 . S
C3417 H3409 0.930 . S
C3417 C3415 1.423 . S
C3417 C3418 1.362 . S
C3418 H3410 0.930 . S
C3418 C3417 1.362 . S
C3418 C3421 1.409 . S
C3419 H3411 0.930 . S
C3419 C3420 1.349 1_545 S
C3419 C3421 1.415 . S
C3420 C3419 1.349 1_565 S
C3420 C3422 1.427 . S
C3421 C3416 1.425 1_545 S
C3421 C3418 1.409 . S
C3421 C3419 1.415 . S
C3422 H3412 0.930 . S
C3422 C3420 1.427 . S
C3422 C3423 1.362 . S
C3423 H3413 0.930 . S
C3423 C3416 1.409 . S
C3423 C3422 1.362 . S
H3424 C3430 0.930 . S
H3425 C3433 0.930 . S
H3426 C3434 0.930 . S
H3427 C3435 0.930 . S
H3428 C3438 0.930 . S
H3429 C3439 0.930 . S
C3430 H3424 0.930 . S
C3430 C3431 1.355 . S
C3430 C3432 1.415 . S
C3431 C3430 1.355 . S
C3431 C3433 1.419 . S
C3432 C3430 1.415 . S
C3432 C3437 1.425 . S
C3432 C3439 1.409 . S
C3433 H3425 0.930 . S
C3433 C3431 1.419 . S
C3433 C3434 1.362 . S
C3434 H3426 0.930 . S
C3434 C3433 1.362 . S
C3434 C3437 1.409 . S
C3435 H3427 0.930 . S
C3435 C3436 1.355 . S
C3435 C3437 1.415 . S
C3436 C3435 1.355 . S
C3436 C3438 1.419 . S
C3437 C3432 1.425 . S
C3437 C3434 1.409 . S
C3437 C3435 1.415 . S
C3438 H3428 0.930 . S
C3438 C3436 1.419 . S
C3438 C3439 1.362 . S
C3439 H3429 0.930 . S
C3439 C3432 1.409 . S
C3439 C3438 1.362 . S
H3440 C3446 0.930 . S
H3441 C3449 0.930 . S
H3442 C3450 0.930 . S
H3443 C3451 0.930 . S
H3444 C3454 0.930 . S
H3445 C3455 0.930 . S
C3446 H3440 0.930 . S
C3446 C3447 1.355 1_565 S
C3446 C3448 1.415 1_556 S
C3447 C3446 1.355 1_545 S
C3447 C3449 1.419 1_455 S
C3448 C3446 1.415 1_554 S
C3448 C3453 1.425 1_465 S
C3448 C3455 1.409 . S
C3449 H3441 0.930 . S
C3449 C3447 1.419 1_655 S
C3449 C3450 1.362 . S
C3450 H3442 0.930 . S
C3450 C3449 1.362 . S
C3450 C3453 1.396 1_556 S
C3451 H3443 0.930 . S
C3451 C3452 1.355 1_545 S
C3451 C3453 1.428 . S
C3452 C3451 1.355 1_565 S
C3452 C3454 1.419 1_655 S
C3453 C3448 1.425 1_645 S
C3453 C3450 1.396 1_554 S
C3453 C3451 1.428 . S
C3454 H3444 0.930 . S
C3454 C3452 1.419 1_455 S
C3454 C3455 1.362 . S
C3455 H3445 0.930 . S
C3455 C3448 1.409 . S
C3455 C3454 1.362 . S
H3456 C3462 0.930 . S
H3457 C3465 0.930 . S
H3458 C3466 0.930 . S
H3459 C3467 0.930 . S
H3460 C3470 0.930 . S
H3461 C3471 0.930 . S
C3462 H3456 0.930 . S
C3462 C3463 1.355 . S
C3462 C3464 1.415 . S
C3463 C3462 1.355 . S
C3463 C3465 1.419 . S
C3464 C3462 1.415 . S
C3464 C3469 1.425 . S
C3464 C3471 1.409 . S
C3465 H3457 0.930 . S
C3465 C3463 1.419 . S
C3465 C3466 1.362 . S
C3466 H3458 0.930 . S
C3466 C3465 1.362 . S
C3466 C3469 1.409 . S
C3467 H3459 0.930 . S
C3467 C3468 1.355 . S
C3467 C3469 1.415 . S
C3468 C3467 1.355 . S
C3468 C3470 1.419 . S
C3469 C3464 1.425 . S
C3469 C3466 1.409 . S
C3469 C3467 1.415 . S
C3470 H3460 0.930 . S
C3470 C3468 1.419 . S
C3470 C3471 1.362 . S
C3471 H3461 0.930 . S
C3471 C3464 1.409 . S
C3471 C3470 1.362 . S
H3472 C3478 0.930 . S
H3473 C3481 0.930 . S
H3474 C3482 0.930 . S
H3475 C3483 0.930 . S
H3476 C3486 0.930 . S
H3477 C3487 0.930 . S
C3478 H3472 0.930 . S
C3478 C3479 1.355 . S
C3478 C3480 1.415 . S
C3479 C3478 1.355 . S
C3479 C3481 1.419 . S
C3480 C3478 1.415 . S
C3480 C3485 1.425 . S
C3480 C3487 1.409 . S
C3481 H3473 0.930 . S
C3481 C3479 1.419 . S
C3481 C3482 1.362 . S
C3482 H3474 0.930 . S
C3482 C3481 1.362 . S
C3482 C3485 1.409 . S
C3483 H3475 0.930 . S
C3483 C3484 1.355 . S
C3483 C3485 1.415 . S
C3484 C3483 1.355 . S
C3484 C3486 1.419 . S
C3485 C3480 1.425 . S
C3485 C3482 1.409 . S
C3485 C3483 1.415 . S
C3486 H3476 0.930 . S
C3486 C3484 1.419 . S
C3486 C3487 1.362 . S
C3487 H3477 0.930 . S
C3487 C3480 1.409 . S
C3487 C3486 1.362 . S
H3488 C3494 0.930 . S
H3489 C3497 0.930 . S
H3490 C3498 0.930 . S
H3491 C3499 0.930 . S
H3492 C3502 0.930 . S
H3493 C3503 0.930 . S
C3494 H3488 0.930 . S
C3494 C3495 1.355 . S
C3494 C3496 1.415 . S
C3495 C3494 1.355 . S
C3495 C3497 1.419 . S
C3496 C3494 1.415 . S
C3496 C3501 1.425 . S
C3496 C3503 1.409 . S
C3497 H3489 0.930 . S
C3497 C3495 1.419 . S
C3497 C3498 1.362 . S
C3498 H3490 0.930 . S
C3498 C3497 1.362 . S
C3498 C3501 1.409 . S
C3499 H3491 0.930 . S
C3499 C3500 1.355 . S
C3499 C3501 1.415 . S
C3500 C3499 1.355 . S
C3500 C3502 1.419 . S
C3501 C3496 1.425 . S
C3501 C3498 1.409 . S
C3501 C3499 1.415 . S
C3502 H3492 0.930 . S
C3502 C3500 1.419 . S
C3502 C3503 1.362 . S
C3503 H3493 0.930 . S
C3503 C3496 1.409 . S
C3503 C3502 1.362 . S
H3504 C3510 0.930 . S
H3505 C3513 0.930 . S
H3506 C3514 0.930 . S
H3507 C3515 0.930 . S
H3508 C3518 0.930 . S
H3509 C3519 0.930 . S
C3510 H3504 0.930 . S
C3510 C3511 1.355 . S
C3510 C3512 1.415 . S
C3511 C3510 1.355 . S
C3511 C3513 1.419 . S
C3512 C3510 1.415 . S
C3512 C3517 1.425 . S
C3512 C3519 1.409 . S
C3513 H3505 0.930 . S
C3513 C3511 1.419 . S
C3513 C3514 1.362 . S
C3514 H3506 0.930 . S
C3514 C3513 1.362 . S
C3514 C3517 1.409 . S
C3515 H3507 0.930 . S
C3515 C3516 1.355 . S
C3515 C3517 1.415 . S
C3516 C3515 1.355 . S
C3516 C3518 1.419 . S
C3517 C3512 1.425 . S
C3517 C3514 1.409 . S
C3517 C3515 1.415 . S
C3518 H3508 0.930 . S
C3518 C3516 1.419 . S
C3518 C3519 1.362 . S
C3519 H3509 0.930 . S
C3519 C3512 1.409 . S
C3519 C3518 1.362 . S
H3520 C3526 0.930 . S
H3521 C3529 0.930 . S
H3522 C3530 0.930 1_556 S
H3523 C3531 0.930 . S
H3524 C3534 0.930 . S
H3525 C3535 0.930 1_554 S
C3526 H3520 0.930 . S
C3526 C3527 1.355 . S
C3526 C3528 1.415 . S
C3527 C3526 1.355 . S
C3527 C3529 1.419 . S
C3528 C3526 1.415 . S
C3528 C3533 1.425 1_554 S
C3528 C3535 1.409 1_554 S
C3529 H3521 0.930 . S
C3529 C3527 1.419 . S
C3529 C3530 1.362 . S
C3530 H3522 0.930 1_554 S
C3530 C3529 1.362 . S
C3530 C3533 1.409 1_554 S
C3531 H3523 0.930 . S
C3531 C3532 1.355 . S
C3531 C3533 1.415 . S
C3532 C3531 1.355 . S
C3532 C3534 1.419 . S
C3533 C3528 1.425 1_556 S
C3533 C3530 1.409 1_556 S
C3533 C3531 1.415 . S
C3534 H3524 0.930 . S
C3534 C3532 1.419 . S
C3534 C3535 1.362 . S
C3535 H3525 0.930 1_556 S
C3535 C3528 1.409 1_556 S
C3535 C3534 1.362 . S
H3536 C3542 0.930 . S
H3537 C3545 0.930 . S
H3538 C3546 0.930 . S
H3539 C3547 0.930 . S
H3540 C3550 0.930 . S
H3541 C3551 0.930 . S
C3542 H3536 0.930 . S
C3542 C3543 1.355 1_655 S
C3542 C3544 1.415 . S
C3543 C3542 1.355 1_455 S
C3543 C3545 1.419 . S
C3544 C3542 1.415 . S
C3544 C3549 1.425 1_655 S
C3544 C3551 1.409 . S
C3545 H3537 0.930 . S
C3545 C3543 1.419 . S
C3545 C3546 1.362 . S
C3546 H3538 0.930 . S
C3546 C3545 1.362 . S
C3546 C3549 1.409 . S
C3547 H3539 0.930 . S
C3547 C3548 1.355 1_455 S
C3547 C3549 1.415 . S
C3548 C3547 1.355 1_655 S
C3548 C3550 1.419 . S
C3549 C3544 1.425 1_455 S
C3549 C3546 1.409 . S
C3549 C3547 1.415 . S
C3550 H3540 0.930 . S
C3550 C3548 1.419 . S
C3550 C3551 1.362 . S
C3551 H3541 0.930 . S
C3551 C3544 1.409 . S
C3551 C3550 1.362 . S
H3552 C3558 0.930 . S
H3553 C3561 0.930 . S
H3554 C3562 0.930 . S
H3555 C3563 0.930 . S
H3556 C3566 0.930 . S
H3557 C3567 0.930 . S
C3558 H3552 0.930 . S
C3558 C3559 1.355 . S
C3558 C3560 1.412 . S
C3559 C3558 1.355 . S
C3559 C3561 1.419 1_455 S
C3560 C3558 1.412 . S
C3560 C3565 1.425 1_455 S
C3560 C3567 1.411 1_554 S
C3561 H3553 0.930 . S
C3561 C3559 1.419 1_655 S
C3561 C3562 1.362 . S
C3562 H3554 0.930 . S
C3562 C3561 1.362 . S
C3562 C3565 1.423 . S
C3563 H3555 0.930 . S
C3563 C3564 1.355 . S
C3563 C3565 1.401 1_556 S
C3564 C3563 1.355 . S
C3564 C3566 1.419 1_655 S
C3565 C3560 1.425 1_655 S
C3565 C3562 1.423 . S
C3565 C3563 1.401 1_554 S
C3566 H3556 0.930 . S
C3566 C3564 1.419 1_455 S
C3566 C3567 1.362 . S
C3567 H3557 0.930 . S
C3567 C3560 1.411 1_556 S
C3567 C3566 1.362 . S
H3568 C3574 0.930 . S
H3569 C3577 0.930 . S
H3570 C3578 0.930 . S
H3571 C3579 0.930 . S
H3572 C3582 0.930 . S
H3573 C3583 0.930 . S
C3574 H3568 0.930 . S
C3574 C3575 1.355 . S
C3574 C3576 1.415 . S
C3575 C3574 1.355 . S
C3575 C3577 1.419 . S
C3576 C3574 1.415 . S
C3576 C3581 1.425 . S
C3576 C3583 1.409 . S
C3577 H3569 0.930 . S
C3577 C3575 1.419 . S
C3577 C3578 1.362 . S
C3578 H3570 0.930 . S
C3578 C3577 1.362 . S
C3578 C3581 1.409 . S
C3579 H3571 0.930 . S
C3579 C3580 1.355 . S
C3579 C3581 1.415 . S
C3580 C3579 1.355 . S
C3580 C3582 1.419 . S
C3581 C3576 1.425 . S
C3581 C3578 1.409 . S
C3581 C3579 1.415 . S
C3582 H3572 0.930 . S
C3582 C3580 1.419 . S
C3582 C3583 1.362 . S
C3583 H3573 0.930 . S
C3583 C3576 1.409 . S
C3583 C3582 1.362 . S
H3584 C3590 0.930 . S
H3585 C3593 0.930 . S
H3586 C3594 0.930 . S
H3587 C3595 0.930 . S
H3588 C3598 0.930 . S
H3589 C3599 0.930 . S
C3590 H3584 0.930 . S
C3590 C3591 1.355 . S
C3590 C3592 1.415 . S
C3591 C3590 1.355 . S
C3591 C3593 1.419 . S
C3592 C3590 1.415 . S
C3592 C3597 1.425 . S
C3592 C3599 1.409 . S
C3593 H3585 0.930 . S
C3593 C3591 1.419 . S
C3593 C3594 1.362 . S
C3594 H3586 0.930 . S
C3594 C3593 1.362 . S
C3594 C3597 1.409 . S
C3595 H3587 0.930 . S
C3595 C3596 1.355 . S
C3595 C3597 1.415 . S
C3596 C3595 1.355 . S
C3596 C3598 1.419 . S
C3597 C3592 1.425 . S
C3597 C3594 1.409 . S
C3597 C3595 1.415 . S
C3598 H3588 0.930 . S
C3598 C3596 1.419 . S
C3598 C3599 1.362 . S
C3599 H3589 0.930 . S
C3599 C3592 1.409 . S
C3599 C3598 1.362 . S
H3600 C3606 0.930 . S
H3601 C3609 0.930 . S
H3602 C3610 0.930 . S
H3603 C3611 0.930 . S
H3604 C3614 0.930 . S
H3605 C3615 0.930 . S
C3606 H3600 0.930 . S
C3606 C3607 1.355 . S
C3606 C3608 1.415 . S
C3607 C3606 1.355 . S
C3607 C3609 1.419 . S
C3608 C3606 1.415 . S
C3608 C3613 1.425 . S
C3608 C3615 1.409 . S
C3609 H3601 0.930 . S
C3609 C3607 1.419 . S
C3609 C3610 1.362 . S
C3610 H3602 0.930 . S
C3610 C3609 1.362 . S
C3610 C3613 1.409 . S
C3611 H3603 0.930 . S
C3611 C3612 1.355 . S
C3611 C3613 1.415 . S
C3612 C3611 1.355 . S
C3612 C3614 1.419 . S
C3613 C3608 1.425 . S
C3613 C3610 1.409 . S
C3613 C3611 1.415 . S
C3614 H3604 0.930 . S
C3614 C3612 1.419 . S
C3614 C3615 1.362 . S
C3615 H3605 0.930 . S
C3615 C3608 1.409 . S
C3615 C3614 1.362 . S
H3616 C3622 0.930 . S
H3617 C3625 0.930 . S
H3618 C3626 0.930 . S
H3619 C3627 0.930 . S
H3620 C3630 0.930 . S
H3621 C3631 0.930 . S
C3622 H3616 0.930 . S
C3622 C3623 1.355 . S
C3622 C3624 1.415 . S
C3623 C3622 1.355 . S
C3623 C3625 1.419 . S
C3624 C3622 1.415 . S
C3624 C3629 1.425 . S
C3624 C3631 1.409 . S
C3625 H3617 0.930 . S
C3625 C3623 1.419 . S
C3625 C3626 1.362 . S
C3626 H3618 0.930 . S
C3626 C3625 1.362 . S
C3626 C3629 1.409 . S
C3627 H3619 0.930 . S
C3627 C3628 1.355 . S
C3627 C3629 1.415 . S
C3628 C3627 1.355 . S
C3628 C3630 1.419 . S
C3629 C3624 1.425 . S
C3629 C3626 1.409 . S
C3629 C3627 1.415 . S
C3630 H3620 0.930 . S
C3630 C3628 1.419 . S
C3630 C3631 1.362 . S
C3631 H3621 0.930 . S
C3631 C3624 1.409 . S
C3631 C3630 1.362 . S
H3632 C3638 0.930 . S
H3633 C3641 0.930 . S
H3634 C3642 0.930 . S
H3635 C3643 0.930 . S
H3636 C3646 0.930 . S
H3637 C3647 0.930 . S
C3638 H3632 0.930 . S
C3638 C3639 1.355 . S
C3638 C3640 1.415 . S
C3639 C3638 1.355 . S
C3639 C3641 1.419 . S
C3640 C3638 1.415 . S
C3640 C3645 1.425 . S
C3640 C3647 1.409 . S
C3641 H3633 0.930 . S
C3641 C3639 1.419 . S
C3641 C3642 1.362 . S
C3642 H3634 0.930 . S
C3642 C3641 1.362 . S
C3642 C3645 1.409 . S
C3643 H3635 0.930 . S
C3643 C3644 1.355 . S
C3643 C3645 1.415 . S
C3644 C3643 1.355 . S
C3644 C3646 1.419 . S
C3645 C3640 1.425 . S
C3645 C3642 1.409 . S
C3645 C3643 1.415 . S
C3646 H3636 0.930 . S
C3646 C3644 1.419 . S
C3646 C3647 1.362 . S
C3647 H3637 0.930 . S
C3647 C3640 1.409 . S
C3647 C3646 1.362 . S
H3648 C3654 0.930 . S
H3649 C3657 0.930 . S
H3650 C3658 0.930 . S
H3651 C3659 0.930 . S
H3652 C3662 0.930 . S
H3653 C3663 0.930 . S
C3654 H3648 0.930 . S
C3654 C3655 1.355 . S
C3654 C3656 1.415 . S
C3655 C3654 1.355 . S
C3655 C3657 1.419 . S
C3656 C3654 1.415 . S
C3656 C3661 1.425 . S
C3656 C3663 1.409 . S
C3657 H3649 0.930 . S
C3657 C3655 1.419 . S
C3657 C3658 1.362 . S
C3658 H3650 0.930 . S
C3658 C3657 1.362 . S
C3658 C3661 1.409 . S
C3659 H3651 0.930 . S
C3659 C3660 1.355 . S
C3659 C3661 1.415 . S
C3660 C3659 1.355 . S
C3660 C3662 1.419 . S
C3661 C3656 1.425 . S
C3661 C3658 1.409 . S
C3661 C3659 1.415 . S
C3662 H3652 0.930 . S
C3662 C3660 1.419 . S
C3662 C3663 1.362 . S
C3663 H3653 0.930 . S
C3663 C3656 1.409 . S
C3663 C3662 1.362 . S
H3664 C3670 0.930 . S
H3665 C3673 0.930 . S
H3666 C3674 0.930 . S
H3667 C3675 0.930 . S
H3668 C3678 0.930 . S
H3669 C3679 0.930 . S
C3670 H3664 0.930 . S
C3670 C3671 1.355 . S
C3670 C3672 1.415 . S
C3671 C3670 1.355 . S
C3671 C3673 1.419 . S
C3672 C3670 1.415 . S
C3672 C3677 1.425 . S
C3672 C3679 1.409 . S
C3673 H3665 0.930 . S
C3673 C3671 1.419 . S
C3673 C3674 1.362 . S
C3674 H3666 0.930 . S
C3674 C3673 1.362 . S
C3674 C3677 1.409 . S
C3675 H3667 0.930 . S
C3675 C3676 1.355 . S
C3675 C3677 1.415 . S
C3676 C3675 1.355 . S
C3676 C3678 1.419 . S
C3677 C3672 1.425 . S
C3677 C3674 1.409 . S
C3677 C3675 1.415 . S
C3678 H3668 0.930 . S
C3678 C3676 1.419 . S
C3678 C3679 1.362 . S
C3679 H3669 0.930 . S
C3679 C3672 1.409 . S
C3679 C3678 1.362 . S
H3680 C3686 0.930 . S
H3681 C3689 0.930 . S
H3682 C3690 0.930 . S
H3683 C3691 0.930 . S
H3684 C3694 0.930 . S
H3685 C3695 0.930 . S
C3686 H3680 0.930 . S
C3686 C3687 1.355 . S
C3686 C3688 1.415 . S
C3687 C3686 1.355 . S
C3687 C3689 1.419 . S
C3688 C3686 1.415 . S
C3688 C3693 1.425 . S
C3688 C3695 1.409 . S
C3689 H3681 0.930 . S
C3689 C3687 1.419 . S
C3689 C3690 1.362 . S
C3690 H3682 0.930 . S
C3690 C3689 1.362 . S
C3690 C3693 1.409 . S
C3691 H3683 0.930 . S
C3691 C3692 1.355 . S
C3691 C3693 1.415 . S
C3692 C3691 1.355 . S
C3692 C3694 1.419 . S
C3693 C3688 1.425 . S
C3693 C3690 1.409 . S
C3693 C3691 1.415 . S
C3694 H3684 0.930 . S
C3694 C3692 1.419 . S
C3694 C3695 1.362 . S
C3695 H3685 0.930 . S
C3695 C3688 1.409 . S
C3695 C3694 1.362 . S
H3696 C3702 0.930 . S
H3697 C3705 0.930 . S
H3698 C3706 0.930 . S
H3699 C3707 0.930 . S
H3700 C3710 0.930 . S
H3701 C3711 0.930 . S
C3702 H3696 0.930 . S
C3702 C3703 1.355 . S
C3702 C3704 1.415 . S
C3703 C3702 1.355 . S
C3703 C3705 1.419 . S
C3704 C3702 1.415 . S
C3704 C3709 1.425 . S
C3704 C3711 1.409 . S
C3705 H3697 0.930 . S
C3705 C3703 1.419 . S
C3705 C3706 1.362 . S
C3706 H3698 0.930 . S
C3706 C3705 1.362 . S
C3706 C3709 1.409 . S
C3707 H3699 0.930 . S
C3707 C3708 1.355 . S
C3707 C3709 1.415 . S
C3708 C3707 1.355 . S
C3708 C3710 1.419 . S
C3709 C3704 1.425 . S
C3709 C3706 1.409 . S
C3709 C3707 1.415 . S
C3710 H3700 0.930 . S
C3710 C3708 1.419 . S
C3710 C3711 1.362 . S
C3711 H3701 0.930 . S
C3711 C3704 1.409 . S
C3711 C3710 1.362 . S
H3712 C3718 0.930 . S
H3713 C3721 0.930 . S
H3714 C3722 0.930 . S
H3715 C3723 0.930 . S
H3716 C3726 0.930 . S
H3717 C3727 0.930 . S
C3718 H3712 0.930 . S
C3718 C3719 1.355 . S
C3718 C3720 1.415 . S
C3719 C3718 1.355 . S
C3719 C3721 1.419 . S
C3720 C3718 1.415 . S
C3720 C3725 1.425 . S
C3720 C3727 1.409 . S
C3721 H3713 0.930 . S
C3721 C3719 1.419 . S
C3721 C3722 1.362 . S
C3722 H3714 0.930 . S
C3722 C3721 1.362 . S
C3722 C3725 1.409 . S
C3723 H3715 0.930 . S
C3723 C3724 1.355 . S
C3723 C3725 1.415 . S
C3724 C3723 1.355 . S
C3724 C3726 1.419 . S
C3725 C3720 1.425 . S
C3725 C3722 1.409 . S
C3725 C3723 1.415 . S
C3726 H3716 0.930 . S
C3726 C3724 1.419 . S
C3726 C3727 1.362 . S
C3727 H3717 0.930 . S
C3727 C3720 1.409 . S
C3727 C3726 1.362 . S
H3728 C3734 0.930 . S
H3729 C3737 0.930 . S
H3730 C3738 0.930 . S
H3731 C3739 0.930 . S
H3732 C3742 0.930 . S
H3733 C3743 0.930 . S
C3734 H3728 0.930 . S
C3734 C3735 1.355 . S
C3734 C3736 1.415 . S
C3735 C3734 1.355 . S
C3735 C3737 1.419 . S
C3736 C3734 1.415 . S
C3736 C3741 1.425 . S
C3736 C3743 1.409 . S
C3737 H3729 0.930 . S
C3737 C3735 1.419 . S
C3737 C3738 1.362 . S
C3738 H3730 0.930 . S
C3738 C3737 1.362 . S
C3738 C3741 1.409 . S
C3739 H3731 0.930 . S
C3739 C3740 1.355 . S
C3739 C3741 1.415 . S
C3740 C3739 1.355 . S
C3740 C3742 1.419 . S
C3741 C3736 1.425 . S
C3741 C3738 1.409 . S
C3741 C3739 1.415 . S
C3742 H3732 0.930 . S
C3742 C3740 1.419 . S
C3742 C3743 1.362 . S
C3743 H3733 0.930 . S
C3743 C3736 1.409 . S
C3743 C3742 1.362 . S
H3744 C3750 0.930 . S
H3745 C3753 0.930 . S
H3746 C3754 0.930 . S
H3747 C3755 0.930 . S
H3748 C3758 0.930 . S
H3749 C3759 0.930 . S
C3750 H3744 0.930 . S
C3750 C3751 1.355 . S
C3750 C3752 1.415 . S
C3751 C3750 1.355 . S
C3751 C3753 1.419 . S
C3752 C3750 1.415 . S
C3752 C3757 1.425 . S
C3752 C3759 1.409 . S
C3753 H3745 0.930 . S
C3753 C3751 1.419 . S
C3753 C3754 1.362 . S
C3754 H3746 0.930 . S
C3754 C3753 1.362 . S
C3754 C3757 1.409 . S
C3755 H3747 0.930 . S
C3755 C3756 1.355 . S
C3755 C3757 1.415 . S
C3756 C3755 1.355 . S
C3756 C3758 1.419 . S
C3757 C3752 1.425 . S
C3757 C3754 1.409 . S
C3757 C3755 1.415 . S
C3758 H3748 0.930 . S
C3758 C3756 1.419 . S
C3758 C3759 1.362 . S
C3759 H3749 0.930 . S
C3759 C3752 1.409 . S
C3759 C3758 1.362 . S
H3760 C3766 0.930 . S
H3761 C3769 0.930 . S
H3762 C3770 0.930 . S
H3763 C3771 0.930 . S
H3764 C3774 0.930 . S
H3765 C3775 0.930 . S
C3766 H3760 0.930 . S
C3766 C3767 1.355 . S
C3766 C3768 1.415 . S
C3767 C3766 1.355 . S
C3767 C3769 1.419 . S
C3768 C3766 1.415 . S
C3768 C3773 1.425 . S
C3768 C3775 1.409 . S
C3769 H3761 0.930 . S
C3769 C3767 1.419 . S
C3769 C3770 1.362 . S
C3770 H3762 0.930 . S
C3770 C3769 1.362 . S
C3770 C3773 1.409 . S
C3771 H3763 0.930 . S
C3771 C3772 1.355 . S
C3771 C3773 1.415 . S
C3772 C3771 1.355 . S
C3772 C3774 1.419 . S
C3773 C3768 1.425 . S
C3773 C3770 1.409 . S
C3773 C3771 1.415 . S
C3774 H3764 0.930 . S
C3774 C3772 1.419 . S
C3774 C3775 1.362 . S
C3775 H3765 0.930 . S
C3775 C3768 1.409 . S
C3775 C3774 1.362 . S
H3776 C3782 0.930 . S
H3777 C3785 0.930 . S
H3778 C3786 0.930 . S
H3779 C3787 0.930 . S
H3780 C3790 0.930 . S
H3781 C3791 0.930 . S
C3782 H3776 0.930 . S
C3782 C3783 1.355 . S
C3782 C3784 1.415 . S
C3783 C3782 1.355 . S
C3783 C3785 1.419 . S
C3784 C3782 1.415 . S
C3784 C3789 1.425 . S
C3784 C3791 1.409 . S
C3785 H3777 0.930 . S
C3785 C3783 1.419 . S
C3785 C3786 1.362 . S
C3786 H3778 0.930 . S
C3786 C3785 1.362 . S
C3786 C3789 1.409 . S
C3787 H3779 0.930 . S
C3787 C3788 1.355 . S
C3787 C3789 1.415 . S
C3788 C3787 1.355 . S
C3788 C3790 1.419 . S
C3789 C3784 1.425 . S
C3789 C3786 1.409 . S
C3789 C3787 1.415 . S
C3790 H3780 0.930 . S
C3790 C3788 1.419 . S
C3790 C3791 1.362 . S
C3791 H3781 0.930 . S
C3791 C3784 1.409 . S
C3791 C3790 1.362 . S
H3792 C3798 0.930 . S
H3793 C3801 0.930 . S
H3794 C3802 0.930 . S
H3795 C3803 0.930 . S
H3796 C3806 0.930 . S
H3797 C3807 0.930 . S
C3798 H3792 0.930 . S
C3798 C3799 1.355 . S
C3798 C3800 1.415 . S
C3799 C3798 1.355 . S
C3799 C3801 1.419 . S
C3800 C3798 1.415 . S
C3800 C3805 1.425 . S
C3800 C3807 1.409 . S
C3801 H3793 0.930 . S
C3801 C3799 1.419 . S
C3801 C3802 1.362 . S
C3802 H3794 0.930 . S
C3802 C3801 1.362 . S
C3802 C3805 1.409 . S
C3803 H3795 0.930 . S
C3803 C3804 1.355 . S
C3803 C3805 1.415 . S
C3804 C3803 1.355 . S
C3804 C3806 1.419 . S
C3805 C3800 1.425 . S
C3805 C3802 1.409 . S
C3805 C3803 1.415 . S
C3806 H3796 0.930 . S
C3806 C3804 1.419 . S
C3806 C3807 1.362 . S
C3807 H3797 0.930 . S
C3807 C3800 1.409 . S
C3807 C3806 1.362 . S
H3808 C3814 0.930 . S
H3809 C3817 0.930 . S
H3810 C3818 0.930 . S
H3811 C3819 0.930 . S
H3812 C3822 0.930 . S
H3813 C3823 0.930 . S
C3814 H3808 0.930 . S
C3814 C3815 1.355 . S
C3814 C3816 1.415 . S
C3815 C3814 1.355 . S
C3815 C3817 1.419 . S
C3816 C3814 1.415 . S
C3816 C3821 1.425 . S
C3816 C3823 1.409 . S
C3817 H3809 0.930 . S
C3817 C3815 1.419 . S
C3817 C3818 1.362 . S
C3818 H3810 0.930 . S
C3818 C3817 1.362 . S
C3818 C3821 1.409 . S
C3819 H3811 0.930 . S
C3819 C3820 1.355 . S
C3819 C3821 1.415 . S
C3820 C3819 1.355 . S
C3820 C3822 1.419 . S
C3821 C3816 1.425 . S
C3821 C3818 1.409 . S
C3821 C3819 1.415 . S
C3822 H3812 0.930 . S
C3822 C3820 1.419 . S
C3822 C3823 1.362 . S
C3823 H3813 0.930 . S
C3823 C3816 1.409 . S
C3823 C3822 1.362 . S
H3824 C3830 0.930 . S
H3825 C3833 0.930 . S
H3826 C3834 0.930 . S
H3827 C3835 0.930 . S
H3828 C3838 0.930 . S
H3829 C3839 0.930 . S
C3830 H3824 0.930 . S
C3830 C3831 1.355 . S
C3830 C3832 1.415 . S
C3831 C3830 1.355 . S
C3831 C3833 1.419 . S
C3832 C3830 1.415 . S
C3832 C3837 1.425 . S
C3832 C3839 1.409 . S
C3833 H3825 0.930 . S
C3833 C3831 1.419 . S
C3833 C3834 1.362 . S
C3834 H3826 0.930 . S
C3834 C3833 1.362 . S
C3834 C3837 1.409 . S
C3835 H3827 0.930 . S
C3835 C3836 1.355 . S
C3835 C3837 1.415 . S
C3836 C3835 1.355 . S
C3836 C3838 1.419 . S
C3837 C3832 1.425 . S
C3837 C3834 1.409 . S
C3837 C3835 1.415 . S
C3838 H3828 0.930 . S
C3838 C3836 1.419 . S
C3838 C3839 1.362 . S
C3839 H3829 0.930 . S
C3839 C3832 1.409 . S
C3839 C3838 1.362 . S
C2823 C2396 1.444 . S
C2828 C29 1.392 . S
C2839 C108 1.351 . S
C2844 C733 1.433 . S
C2855 C2257 1.423 . S
C2860 C205 1.330 . S
C2871 C293 1.317 . S
C2876 C937 1.409 . S
C2887 C401 1.376 . S
C2892 C2572 1.442 . S
C2903 C497 1.375 . S
C2908 C1252 1.441 . S
C2919 C577 1.331 . S
C2924 C2757 1.406 . S
C2935 C665 1.367 . S
C2940 C1105 1.439 . S
C2951 C1692 1.434 . S
C2956 C753 1.404 . S
C2967 C20 1.405 . S
C2972 C812 1.349 . S
C2983 C1525 1.421 . S
C2988 C900 1.392 . S
C2999 C988 1.372 . S
C3004 C196 1.436 . S
C3015 C1897 1.408 . S
C3020 C1085 1.314 . S
C3031 C585 1.408 . S
C3036 C1201 1.360 . S
C3047 C1289 1.335 . S
C3052 C2081 1.424 . S
C3063 C409 1.437 . S
C3068 C1377 1.375 . S
C3079 C1428 1.340 . S
C3084 C1025 1.428 . S
C3095 C1516 1.334 . S
C3100 C2141 1.406 . S
C3111 C849 1.430 . S
C3116 C1613 1.399 . S
C3127 C2345 1.430 . S
C3132 C1701 1.398 . S
C3143 C1164 1.439 . S
C3148 C1809 1.367 . S
C3159 C2660 1.411 . S
C3164 C1905 1.317 . S
C3175 C1340 1.445 . S
C3180 C1993 1.401 . S
C3191 C2073 1.321 . S
C3196 C2513 1.417 . S
C3207 C284 1.403 . S
C3212 C2161 1.339 . S
C3223 C2220 1.360 . S
C3228 C1437 1.433 . S
C3239 C2308 1.385 . S
C3244 C117 1.417 . S
C3255 C2433 1.317 . S
C3260 C1604 1.413 . S
C3271 C2493 1.403 . S
C3276 C489 1.430 . S
C3287 C2609 1.361 . S
C3292 C1985 1.433 . S
C3303 C2697 1.315 . S
C3308 C673 1.405 . S
C3319 C2777 1.358 . S
C3324 C1817 1.432 . S
C3335 C2169 1.542 . S
C3340 C49 1.546 . S
C3351 C145 1.569 . S
C3356 C821 1.567 . S
C3367 C2317 1.545 . S
C3372 C225 1.549 . S
C3383 C313 1.556 . S
C3388 C997 1.552 . S
C3399 C2484 1.575 . S
C3404 C381 1.576 . S
C3415 C460 1.553 1_545 S
C3420 C1193 1.548 1_565 S
C3431 C2689 1.575 . S
C3436 C557 1.576 . S
C3447 C645 1.547 . S
C3452 C1369 1.543 . S
C3463 C761 1.577 . S
C3468 C1465 1.578 . S
C3479 C909 1.555 . S
C3484 C1633 1.558 . S
C3495 C1076 1.554 . S
C3500 C1789 1.557 . S
C3511 C1281 1.574 . S
C3516 C1956 1.575 . S
C3527 C1553 1.578 . S
C3532 C2229 1.577 . S
C3543 C2425 1.577 . S
C3548 C1721 1.578 . S
C3559 C2601 1.542 . S
C3564 C1868 1.546 . S
C3575 C2053 1.577 . S
C3580 C2785 1.575 . S
C3591 C57 1.149 . S
C3596 C469 1.133 . S
C3607 C137 1.084 . S
C3612 C548 1.091 . S
C3623 C233 1.151 . S
C3628 C636 1.108 . S
C3639 C372 1.078 . S
C3644 C321 1.120 . S
C3655 C724 1.071 . S
C3660 C1173 1.123 . S
C3671 C841 1.141 . S
C3676 C1261 1.118 . S
C3687 C929 1.110 . S
C3692 C1349 1.143 . S
C3703 C1017 1.121 . S
C3708 C1113 1.070 . S
C3719 C1457 1.077 . S
C3724 C1877 1.114 . S
C3735 C1965 1.083 . S
C3740 C1545 1.133 . S
C3751 C1641 1.137 . S
C3756 C2044 1.147 . S
C3767 C1729 1.081 . S
C3772 C1780 1.097 . S
C3783 C2581 1.096 . S
C3788 C2132 1.069 . S
C3799 C2249 1.097 . S
C3804 C2669 1.142 . S
C3815 C2748 1.085 . S
C3820 C2337 1.138 . S
C3831 C2405 1.091 . S
C3836 C2521 1.141 . S
