# Generated by pormake.
# Topology crb, (4)-cn, num edge types: 1
# Building blocks:
#     Node 0, Type 0, BuildingBlock: GALJAG_clean_sbu_0, # of connection points: 4
#     Node 1, Type 0, BuildingBlock: GALJAG_clean_sbu_0, # of connection points: 4
#     Node 2, Type 0, BuildingBlock: GALJAG_clean_sbu_0, # of connection points: 4
#     Node 3, Type 0, BuildingBlock: GALJAG_clean_sbu_0, # of connection points: 4
#     Node 4, Type 0, BuildingBlock: GALJAG_clean_sbu_0, # of connection points: 4
#     Node 5, Type 0, BuildingBlock: GALJAG_clean_sbu_0, # of connection points: 4
#     Node 6, Type 0, BuildingBlock: GALJAG_clean_sbu_0, # of connection points: 4
#     Node 7, Type 0, BuildingBlock: GALJAG_clean_sbu_0, # of connection points: 4
#     Edge 8, Type (0, 0), BuildingBlock: AJUNOK_clean_linker_0, # of connection points: 2
#     Edge 9, Type (0, 0), BuildingBlock: AJUNOK_clean_linker_0, # of connection points: 2
#     Edge 10, Type (0, 0), BuildingBlock: AJUNOK_clean_linker_0, # of connection points: 2
#     Edge 11, Type (0, 0), BuildingBlock: AJUNOK_clean_linker_0, # of connection points: 2
#     Edge 12, Type (0, 0), BuildingBlock: AJUNOK_clean_linker_0, # of connection points: 2
#     Edge 13, Type (0, 0), BuildingBlock: AJUNOK_clean_linker_0, # of connection points: 2
#     Edge 14, Type (0, 0), BuildingBlock: AJUNOK_clean_linker_0, # of connection points: 2
#     Edge 15, Type (0, 0), BuildingBlock: AJUNOK_clean_linker_0, # of connection points: 2
#     Edge 16, Type (0, 0), BuildingBlock: AJUNOK_clean_linker_0, # of connection points: 2
#     Edge 17, Type (0, 0), BuildingBlock: AJUNOK_clean_linker_0, # of connection points: 2
#     Edge 18, Type (0, 0), BuildingBlock: AJUNOK_clean_linker_0, # of connection points: 2
#     Edge 19, Type (0, 0), BuildingBlock: AJUNOK_clean_linker_0, # of connection points: 2
#     Edge 20, Type (0, 0), BuildingBlock: AJUNOK_clean_linker_0, # of connection points: 2
#     Edge 21, Type (0, 0), BuildingBlock: AJUNOK_clean_linker_0, # of connection points: 2
#     Edge 22, Type (0, 0), BuildingBlock: AJUNOK_clean_linker_0, # of connection points: 2
#     Edge 23, Type (0, 0), BuildingBlock: AJUNOK_clean_linker_0, # of connection points: 2
# Relax obj value: 0.077
# Max RMSD: 0.151
# Mean RMSD: 0.151
data_MOF--net-crb--node1-GALJAG_clean_sbu_0--edge1-AJUNOK_clean_linker_0
_symmetry_space_group_name_H-M    P1
_symmetry_Int_Tables_number       1
_symmetry_cell_setting            triclinic
loop_
_symmetry_equiv_pos_as_xyz
'x, y, z'
_cell_length_a     33.532024
_cell_length_b     33.582706
_cell_length_c     15.861812
_cell_angle_alpha  90.062642
_cell_angle_beta   90.128521
_cell_angle_gamma 89.589536
loop_
_atom_site_label
_atom_site_type_symbol
_atom_site_fract_x
_atom_site_fract_y
_atom_site_fract_z
_atom_type_partial_charge
In0 In 0.33949 0.33918 0.9924 0.0
O1 O 0.28601 0.32681 0.90783 0.0
O2 O 0.33945 0.2952 0.88218 0.0
C3 C 0.3301 0.41893 -0.00419 0.0
C4 C 0.30239 0.30355 0.12269 0.0
C5 C 0.42004 0.33585 0.99141 0.0
O6 O 0.3237 0.39829 0.93061 0.0
O7 O 0.34078 0.39913 0.05986 0.0
O8 O 0.39955 0.31671 0.04397 0.0
O9 O 0.40004 0.35585 0.93888 0.0
C10 C 0.3033 0.30083 0.86354 0.0
O11 O 0.32988 0.28689 0.08122 0.0
O12 O 0.29476 0.33884 0.10053 0.0
In13 In 0.67363 0.34034 0.99209 0.0
O14 O 0.71798 0.33527 0.10087 0.0
O15 O 0.67579 0.28922 0.08712 0.0
C16 C 0.68206 0.41977 0.97948 0.0
C17 C 0.71446 0.3069 0.86291 0.0
C18 C 0.59301 0.33681 -0.00122 0.0
O19 O 0.68361 0.40143 0.04899 0.0
O20 O 0.67691 0.39776 0.91562 0.0
O21 O 0.61406 0.30741 0.97626 0.0
O22 O 0.61252 0.3671 0.01981 0.0
C23 C 0.70568 0.30211 0.1265 0.0
O24 O 0.67692 0.30592 0.86734 0.0
O25 O 0.73093 0.32607 0.92143 0.0
In26 In 0.67283 0.67333 0.98239 0.0
O27 O 0.68103 0.72425 0.0761 0.0
O28 O 0.72425 0.67785 0.07588 0.0
C29 C 0.59268 0.68073 -0.0067 0.0
C30 C 0.71106 0.70957 0.8545 0.0
C31 C 0.67809 0.59306 0.97628 0.0
O32 O 0.61483 0.67585 0.05689 0.0
O33 O 0.61106 0.68211 0.92402 0.0
O34 O 0.67202 0.61412 0.91164 0.0
O35 O 0.6814 0.61257 0.04396 0.0
C36 C 0.7132 0.71078 0.10642 0.0
O37 O 0.72242 0.67685 0.88538 0.0
O38 O 0.67949 0.72351 0.88647 0.0
In39 In 0.33905 0.67247 0.00431 0.0
O40 O 0.2958 0.67884 0.11298 0.0
O41 O 0.33489 0.7272 0.08915 0.0
C42 C 0.32974 0.59219 0.00092 0.0
C43 C 0.29714 0.71055 0.88293 0.0
C44 C 0.41919 0.68191 0.00504 0.0
O45 O 0.34045 0.61092 0.06575 0.0
O46 O 0.32317 0.61399 0.93781 0.0
O47 O 0.39865 0.68289 0.93838 0.0
O48 O 0.39917 0.67694 0.07129 0.0
C49 C 0.30659 0.71359 0.13276 0.0
O50 O 0.3332 0.70055 0.8732 0.0
O51 O 0.28209 0.7002 0.95205 0.0
In52 In 0.83957 0.83873 0.48398 0.0
O53 O 0.78802 0.8306 0.39153 0.0
O54 O 0.83711 0.79068 0.3827 0.0
C55 C 0.83306 0.91903 0.4825 0.0
C56 C 0.80156 0.79887 0.60711 0.0
C57 C 0.91984 0.83245 0.49173 0.0
O58 O 0.83455 0.89834 0.41615 0.0
O59 O 0.83444 0.89911 0.54986 0.0
O60 O 0.89803 0.83199 0.55641 0.0
O61 O 0.90108 0.83613 0.42308 0.0
C62 C 0.80308 0.80055 0.35561 0.0
O63 O 0.83305 0.78621 0.57277 0.0
O64 O 0.78977 0.83243 0.58094 0.0
In65 In 0.17379 0.83989 0.50201 0.0
O66 O 0.19477 0.83383 0.63941 0.0
O67 O 0.20612 0.7858 0.55555 0.0
C68 C 0.18485 0.91967 0.49534 0.0
C69 C 0.21512 0.80542 0.37634 0.0
C70 C 0.09331 0.83083 0.50073 0.0
O71 O 0.17741 0.89879 0.43135 0.0
O72 O 0.1875 0.90021 0.56306 0.0
O73 O 0.11307 0.83967 0.43622 0.0
O74 O 0.11418 0.82576 0.56592 0.0
C75 C 0.20984 0.79962 0.62883 0.0
O76 O 0.18096 0.79381 0.39877 0.0
O77 O 0.22817 0.83516 0.41656 0.0
In78 In 0.17413 0.17287 0.49093 0.0
O79 O 0.17905 0.21836 0.59724 0.0
O80 O 0.22855 0.18008 0.57536 0.0
C81 C 0.09356 0.17819 0.48713 0.0
C82 C 0.2105 0.21414 0.36765 0.0
C83 C 0.18248 0.0928 0.48984 0.0
O84 O 0.11313 0.1744 0.55472 0.0
O85 O 0.11471 0.17958 0.42155 0.0
O86 O 0.17985 0.11325 0.42338 0.0
O87 O 0.18095 0.11284 0.55713 0.0
C88 C 0.21429 0.20878 0.61704 0.0
O89 O 0.2199 0.17875 0.38596 0.0
O90 O 0.18173 0.22816 0.40956 0.0
In91 In 0.83938 0.17262 0.49211 0.0
O92 O 0.78785 0.18234 0.58384 0.0
O93 O 0.83764 0.22065 0.59366 0.0
C94 C 0.83339 0.09243 0.48726 0.0
C95 C 0.7985 0.21068 0.36933 0.0
C96 C 0.91977 0.17805 0.48768 0.0
O97 O 0.83254 0.11186 0.55547 0.0
O98 O 0.83706 0.11355 0.42211 0.0
O99 O 0.89819 0.18204 0.42287 0.0
O100 O 0.90067 0.17168 0.55476 0.0
C101 C 0.80332 0.21199 0.61979 0.0
O102 O 0.78878 0.17691 0.39672 0.0
O103 O 0.82978 0.22468 0.40192 0.0
C104 C 0.33727 0.48423 0.06981 0.0
C105 C 0.32725 0.463 -0.00365 0.0
C106 C 0.33718 0.52595 0.07098 0.0
C107 C 0.32707 0.54816 -0.00125 0.0
H108 H 0.34591 0.46856 0.12671 0.0
H109 H 0.34575 0.54085 0.12878 0.0
S110 S 0.29658 0.507 0.79127 0.0
N111 N 0.30546 0.4674 0.85014 0.0
N112 N 0.30532 0.54579 0.85242 0.0
C113 C 0.31606 0.52736 0.92535 0.0
C114 C 0.31615 0.48481 0.92414 0.0
C115 C 0.48582 0.30165 0.01311 0.0
C116 C 0.464 0.33631 -0.00687 0.0
C117 C 0.52773 0.30171 0.01362 0.0
C118 C 0.54899 0.33678 -0.003 0.0
H119 H 0.47041 0.27419 0.02704 0.0
H120 H 0.54356 0.27435 0.02837 0.0
S121 S 0.50559 0.43556 0.9437 0.0
N122 N 0.46658 0.40646 0.95649 0.0
N123 N 0.54511 0.40704 0.9607 0.0
C124 C 0.52741 0.37172 0.97823 0.0
C125 C 0.48494 0.37136 0.97542 0.0
C126 C 0.68872 0.48602 0.04942 0.0
C127 C 0.68326 0.46384 0.97501 0.0
C128 C 0.68744 0.5277 0.04881 0.0
C129 C 0.68063 0.54898 0.97378 0.0
H130 H 0.69352 0.4711 0.10915 0.0
H131 H 0.69143 0.5433 0.10802 0.0
S132 S 0.66564 0.50518 0.76107 0.0
N133 N 0.67167 0.46634 0.82363 0.0
N134 N 0.66928 0.54474 0.82243 0.0
C135 C 0.6758 0.52726 0.89851 0.0
C136 C 0.67713 0.4847 0.89913 0.0
C137 C 0.48385 0.68662 0.92758 0.0
C138 C 0.46334 0.68416 0.00467 0.0
C139 C 0.52563 0.68618 0.92474 0.0
C140 C 0.54859 0.68326 -0.00114 0.0
H141 H 0.46756 0.68823 0.86862 0.0
H142 H 0.53998 0.68754 0.86369 0.0
S143 S 0.50945 0.67813 0.21738 0.0
N144 N 0.46921 0.68024 0.15738 0.0
N145 N 0.54766 0.67941 0.15204 0.0
C146 C 0.52849 0.68173 0.07659 0.0
C147 C 0.48591 0.68219 0.07949 0.0
C148 C 0.83181 0.98446 0.5582 0.0
C149 C 0.83125 0.96317 0.48172 0.0
C150 C 0.83188 0.02621 0.55939 0.0
C151 C 0.83147 0.04835 0.48414 0.0
H152 H 0.83268 0.96879 0.61784 0.0
H153 H 0.83282 0.04119 0.61987 0.0
S154 S 0.82806 0.00703 0.26697 0.0
N155 N 0.8289 0.96749 0.32865 0.0
N156 N 0.82909 0.04583 0.33086 0.0
C157 C 0.83016 0.02747 0.40719 0.0
C158 C 0.83003 0.98494 0.40598 0.0
C159 C 0.02823 0.8355 0.42442 0.0
C160 C 0.04918 0.82872 0.50008 0.0
C161 C 0.98647 0.83602 0.42225 0.0
C162 C 0.96394 0.82993 0.49573 0.0
H163 H 0.04417 0.841 0.3663 0.0
H164 H 0.9718 0.84187 0.36258 0.0
S165 S 1.00425 0.80898 0.70948 0.0
N166 N 0.04418 0.8143 0.64997 0.0
N167 N 0.96567 0.8154 0.64598 0.0
C168 C 0.98444 0.82232 0.57162 0.0
C169 C 0.02705 0.82165 0.57377 0.0
C170 C 0.18619 0.02766 0.56589 0.0
C171 C 0.18578 0.04876 0.48928 0.0
C172 C 0.18709 0.98592 0.56728 0.0
C173 C 0.18747 0.96366 0.4921 0.0
H174 H 0.18512 0.04343 0.62545 0.0
H175 H 0.1865 0.97103 0.62781 0.0
S176 S 0.18971 1.00452 0.27477 0.0
N177 N 0.18808 0.04419 0.33622 0.0
N178 N 0.18963 0.96584 0.33887 0.0
C179 C 0.18827 0.98437 0.41506 0.0
C180 C 0.18746 0.02688 0.41363 0.0
C181 C 0.98592 0.17488 0.56057 0.0
C182 C 0.96397 0.17966 0.48549 0.0
C183 C 0.02772 0.17496 0.56046 0.0
C184 C 0.04933 0.17973 0.48526 0.0
H185 H 0.97075 0.17071 0.6201 0.0
H186 H 0.04317 0.17081 0.6199 0.0
S187 S 0.00616 0.19449 0.27166 0.0
N188 N 0.96704 0.19019 0.3339 0.0
N189 N 0.04556 0.19026 0.33368 0.0
C190 C 0.02779 0.18505 0.40977 0.0
C191 C 0.98516 0.18505 0.40989 0.0
C192 C 0.26559 0.22035 0.26306 0.0
C193 C 0.23298 0.23776 0.30521 0.0
C194 C 0.28824 0.24212 0.20543 0.0
C195 C 0.27921 0.28221 0.18763 0.0
H196 H 0.27382 0.18958 0.27461 0.0
H197 H 0.31285 0.22721 0.17413 0.0
S198 S 0.19708 0.34203 0.28185 0.0
N199 N 0.19296 0.29772 0.32579 0.0
N200 N 0.23554 0.33866 0.21737 0.0
C201 C 0.24682 0.30014 0.22968 0.0
C202 C 0.22369 0.27792 0.28841 0.0
C203 C 0.76092 0.29506 0.23118 0.0
C204 C 0.72721 0.27873 0.19149 0.0
C205 C 0.78391 0.2727 0.288 0.0
C206 C 0.7741 0.23312 0.30744 0.0
H207 H 0.76999 0.32528 0.21765 0.0
H208 H 0.80956 0.28665 0.31692 0.0
S209 S 0.68872 0.17629 0.22064 0.0
N210 N 0.68507 0.22049 0.17573 0.0
N211 N 0.72825 0.17846 0.28264 0.0
C212 C 0.74029 0.21645 0.2687 0.0
C213 C 0.71684 0.23926 0.21079 0.0
C214 C 0.74358 0.79045 0.26316 0.0
C215 C 0.78149 0.77757 0.29039 0.0
C216 C 0.72168 0.76853 0.20409 0.0
C217 C 0.73674 0.73276 0.17015 0.0
H218 H 0.73054 0.81765 0.28788 0.0
H219 H 0.69267 0.77975 0.18506 0.0
S220 S 0.83471 0.6861 0.21999 0.0
N221 N 0.83333 0.7268 0.27836 0.0
N222 N 0.79214 0.68556 0.16758 0.0
C223 C 0.77466 0.71954 0.19662 0.0
C224 C 0.79705 0.74196 0.25659 0.0
C225 C 0.22626 0.74577 0.28595 0.0
C226 C 0.23908 0.78342 0.31328 0.0
C227 C 0.24882 0.72321 0.22906 0.0
C228 C 0.28497 0.7375 0.19653 0.0
H229 H 0.19867 0.73333 0.3092 0.0
H230 H 0.23748 0.69447 0.20977 0.0
S231 S 0.33174 0.83444 0.2475 0.0
N232 N 0.29035 0.8341 0.30369 0.0
N233 N 0.33264 0.79177 0.19568 0.0
C234 C 0.29819 0.77516 0.22306 0.0
C235 C 0.27528 0.79809 0.28169 0.0
C236 C 0.2619 0.75056 0.67237 0.0
C237 C 0.23157 0.77765 0.69523 0.0
C238 C 0.28339 0.72929 0.73358 0.0
C239 C 0.27449 0.73355 0.81956 0.0
H240 H 0.26949 0.74613 0.60664 0.0
H241 H 0.30671 0.70895 0.71335 0.0
S242 S 0.19773 0.8005 0.91234 0.0
N243 N 0.19405 0.80796 0.80968 0.0
N244 N 0.23351 0.76696 0.92485 0.0
C245 C 0.24403 0.76031 0.84331 0.0
C246 C 0.22282 0.78268 0.78107 0.0
C247 C 0.24142 0.28548 0.78257 0.0
C248 C 0.28193 0.27737 0.79886 0.0
C249 C 0.21975 0.26283 0.72446 0.0
C250 C 0.23768 0.23107 0.68047 0.0
H251 H 0.22614 0.30948 0.81518 0.0
H252 H 0.18868 0.2704 0.71392 0.0
S253 S 0.34309 0.19756 0.69992 0.0
N254 N 0.33925 0.23536 0.76608 0.0
N255 N 0.29852 0.1927 0.65689 0.0
C256 C 0.27821 0.22259 0.69606 0.0
C257 C 0.30034 0.24577 0.75515 0.0
C258 C 0.71863 0.25519 0.74988 0.0
C259 C 0.73753 0.28445 0.79892 0.0
C260 C 0.74031 0.23144 0.69327 0.0
C261 C 0.78165 0.23632 0.68288 0.0
H262 H 0.68691 0.25008 0.75617 0.0
H263 H 0.72441 0.2093 0.65688 0.0
S264 S 0.84523 0.30933 0.79516 0.0
N265 N 0.80002 0.31727 0.83287 0.0
N266 N 0.84064 0.27296 0.72579 0.0
C267 C 0.80088 0.26576 0.73087 0.0
C268 C 0.77885 0.28974 0.78903 0.0
C269 C 0.72136 0.76895 0.76249 0.0
C270 C 0.73411 0.73107 0.78962 0.0
C271 C 0.74352 0.79076 0.70399 0.0
C272 C 0.7793 0.77554 0.67035 0.0
H273 H 0.69415 0.78208 0.78703 0.0
H274 H 0.73245 0.81979 0.68501 0.0
S275 S 0.82555 0.6775 0.71997 0.0
N276 N 0.78472 0.67906 0.77779 0.0
N277 N 0.82634 0.72001 0.66795 0.0
C278 C 0.79233 0.7376 0.69663 0.0
C279 C 0.76974 0.71537 0.75617 0.0
loop_
_geom_bond_atom_site_label_1
_geom_bond_atom_site_label_2
_geom_bond_distance
_geom_bond_site_symmetry_2
_ccdc_geom_bond_type
In0 O1 2.294 1_554 S
In0 O2 2.326 1_554 S
In0 O6 2.266 1_554 S
In0 O7 2.326 . S
In0 O8 2.266 . S
In0 O9 2.326 1_554 S
In0 O11 2.294 . S
In0 O12 2.326 . S
O1 In0 2.294 1_556 S
O1 C10 1.240 . S
O2 In0 2.326 1_556 S
O2 C10 1.252 . S
C3 O6 1.252 1_554 S
C3 O7 1.260 . S
C4 O11 1.240 . S
C4 O12 1.252 . S
C5 O8 1.252 1_556 S
C5 O9 1.260 . S
O6 In0 2.266 1_556 S
O6 C3 1.252 1_556 S
O7 In0 2.326 . S
O7 C3 1.260 . S
O8 In0 2.266 . S
O8 C5 1.252 1_554 S
O9 In0 2.326 1_556 S
O9 C5 1.260 . S
C10 O1 1.240 . S
C10 O2 1.252 . S
O11 In0 2.294 . S
O11 C4 1.240 . S
O12 In0 2.326 . S
O12 C4 1.252 . S
In13 O14 2.294 . S
In13 O15 2.326 . S
In13 O19 2.266 . S
In13 O20 2.326 1_554 S
In13 O21 2.266 1_554 S
In13 O22 2.326 . S
In13 O24 2.294 1_554 S
In13 O25 2.326 1_554 S
O14 In13 2.294 . S
O14 C23 1.240 . S
O15 In13 2.326 . S
O15 C23 1.252 . S
C16 O19 1.252 1_556 S
C16 O20 1.260 . S
C17 O24 1.240 . S
C17 O25 1.252 . S
C18 O21 1.252 1_554 S
C18 O22 1.260 . S
O19 In13 2.266 . S
O19 C16 1.252 1_554 S
O20 In13 2.326 1_556 S
O20 C16 1.260 . S
O21 In13 2.266 1_556 S
O21 C18 1.252 1_556 S
O22 In13 2.326 . S
O22 C18 1.260 . S
C23 O14 1.240 . S
C23 O15 1.252 . S
O24 In13 2.294 1_556 S
O24 C17 1.240 . S
O25 In13 2.326 1_556 S
O25 C17 1.252 . S
In26 O27 2.294 . S
In26 O28 2.326 . S
In26 O32 2.266 . S
In26 O33 2.326 1_554 S
In26 O34 2.266 1_554 S
In26 O35 2.326 . S
In26 O37 2.294 1_554 S
In26 O38 2.326 1_554 S
O27 In26 2.294 . S
O27 C36 1.240 . S
O28 In26 2.326 . S
O28 C36 1.252 . S
C29 O32 1.252 1_556 S
C29 O33 1.260 . S
C30 O37 1.240 . S
C30 O38 1.252 . S
C31 O34 1.252 1_554 S
C31 O35 1.260 . S
O32 In26 2.266 . S
O32 C29 1.252 1_554 S
O33 In26 2.326 1_556 S
O33 C29 1.260 . S
O34 In26 2.266 1_556 S
O34 C31 1.252 1_556 S
O35 In26 2.326 . S
O35 C31 1.260 . S
C36 O27 1.240 . S
C36 O28 1.252 . S
O37 In26 2.294 1_556 S
O37 C30 1.240 . S
O38 In26 2.326 1_556 S
O38 C30 1.252 . S
In39 O40 2.294 . S
In39 O41 2.326 . S
In39 O45 2.266 . S
In39 O46 2.326 1_554 S
In39 O47 2.266 1_554 S
In39 O48 2.326 . S
In39 O50 2.294 1_554 S
In39 O51 2.326 1_554 S
O40 In39 2.294 . S
O40 C49 1.240 . S
O41 In39 2.326 . S
O41 C49 1.252 . S
C42 O45 1.252 1_556 S
C42 O46 1.260 . S
C43 O50 1.240 . S
C43 O51 1.252 . S
C44 O47 1.252 1_554 S
C44 O48 1.260 . S
O45 In39 2.266 . S
O45 C42 1.252 1_554 S
O46 In39 2.326 1_556 S
O46 C42 1.260 . S
O47 In39 2.266 1_556 S
O47 C44 1.252 1_556 S
O48 In39 2.326 . S
O48 C44 1.260 . S
C49 O40 1.240 . S
C49 O41 1.252 . S
O50 In39 2.294 1_556 S
O50 C43 1.240 . S
O51 In39 2.326 1_556 S
O51 C43 1.252 . S
In52 O53 2.294 . S
In52 O54 2.326 . S
In52 O58 2.266 . S
In52 O59 2.326 . S
In52 O60 2.266 . S
In52 O61 2.326 . S
In52 O63 2.294 . S
In52 O64 2.326 . S
O53 In52 2.294 . S
O53 C62 1.240 . S
O54 In52 2.326 . S
O54 C62 1.252 . S
C55 O58 1.252 . S
C55 O59 1.260 . S
C56 O63 1.240 . S
C56 O64 1.252 . S
C57 O60 1.252 . S
C57 O61 1.260 . S
O58 In52 2.266 . S
O58 C55 1.252 . S
O59 In52 2.326 . S
O59 C55 1.260 . S
O60 In52 2.266 . S
O60 C57 1.252 . S
O61 In52 2.326 . S
O61 C57 1.260 . S
C62 O53 1.240 . S
C62 O54 1.252 . S
O63 In52 2.294 . S
O63 C56 1.240 . S
O64 In52 2.326 . S
O64 C56 1.252 . S
In65 O66 2.294 . S
In65 O67 2.326 . S
In65 O71 2.266 . S
In65 O72 2.326 . S
In65 O73 2.266 . S
In65 O74 2.326 . S
In65 O76 2.294 . S
In65 O77 2.326 . S
O66 In65 2.294 . S
O66 C75 1.240 . S
O67 In65 2.326 . S
O67 C75 1.252 . S
C68 O71 1.252 . S
C68 O72 1.260 . S
C69 O76 1.240 . S
C69 O77 1.252 . S
C70 O73 1.252 . S
C70 O74 1.260 . S
O71 In65 2.266 . S
O71 C68 1.252 . S
O72 In65 2.326 . S
O72 C68 1.260 . S
O73 In65 2.266 . S
O73 C70 1.252 . S
O74 In65 2.326 . S
O74 C70 1.260 . S
C75 O66 1.240 . S
C75 O67 1.252 . S
O76 In65 2.294 . S
O76 C69 1.240 . S
O77 In65 2.326 . S
O77 C69 1.252 . S
In78 O79 2.294 . S
In78 O80 2.326 . S
In78 O84 2.266 . S
In78 O85 2.326 . S
In78 O86 2.266 . S
In78 O87 2.326 . S
In78 O89 2.294 . S
In78 O90 2.326 . S
O79 In78 2.294 . S
O79 C88 1.240 . S
O80 In78 2.326 . S
O80 C88 1.252 . S
C81 O84 1.252 . S
C81 O85 1.260 . S
C82 O89 1.240 . S
C82 O90 1.252 . S
C83 O86 1.252 . S
C83 O87 1.260 . S
O84 In78 2.266 . S
O84 C81 1.252 . S
O85 In78 2.326 . S
O85 C81 1.260 . S
O86 In78 2.266 . S
O86 C83 1.252 . S
O87 In78 2.326 . S
O87 C83 1.260 . S
C88 O79 1.240 . S
C88 O80 1.252 . S
O89 In78 2.294 . S
O89 C82 1.240 . S
O90 In78 2.326 . S
O90 C82 1.252 . S
In91 O92 2.294 . S
In91 O93 2.326 . S
In91 O97 2.266 . S
In91 O98 2.326 . S
In91 O99 2.266 . S
In91 O100 2.326 . S
In91 O102 2.294 . S
In91 O103 2.326 . S
O92 In91 2.294 . S
O92 C101 1.240 . S
O93 In91 2.326 . S
O93 C101 1.252 . S
C94 O97 1.252 . S
C94 O98 1.260 . S
C95 O102 1.240 . S
C95 O103 1.252 . S
C96 O99 1.252 . S
C96 O100 1.260 . S
O97 In91 2.266 . S
O97 C94 1.252 . S
O98 In91 2.326 . S
O98 C94 1.260 . S
O99 In91 2.266 . S
O99 C96 1.252 . S
O100 In91 2.326 . S
O100 C96 1.260 . S
C101 O92 1.240 . S
C101 O93 1.252 . S
O102 In91 2.294 . S
O102 C95 1.240 . S
O103 In91 2.326 . S
O103 C95 1.252 . S
C104 C105 1.369 . S
C104 C106 1.419 . S
C104 H108 0.930 . S
C105 C104 1.369 . S
C105 C114 1.429 1_554 S
C106 C104 1.419 . S
C106 C107 1.363 1_554 S
C106 H109 0.929 . S
C107 C106 1.363 1_556 S
C107 C113 1.428 . S
H108 C104 0.930 . S
H109 C106 0.929 . S
S110 N111 1.613 . S
S110 N112 1.610 . S
N111 S110 1.613 . S
N111 C114 1.350 . S
N112 S110 1.610 . S
N112 C113 1.351 . S
C113 C107 1.428 . S
C113 N112 1.351 . S
C113 C114 1.434 . S
C114 C105 1.429 1_556 S
C114 N111 1.350 . S
C114 C113 1.434 . S
C115 C116 1.369 . S
C115 C117 1.419 1_556 S
C115 H119 0.930 . S
C116 C115 1.369 . S
C116 C125 1.429 . S
C117 C115 1.419 1_554 S
C117 C118 1.363 . S
C117 H120 0.929 . S
C118 C117 1.363 . S
C118 C124 1.428 . S
H119 C115 0.930 . S
H120 C117 0.929 . S
S121 N122 1.613 . S
S121 N123 1.610 1_556 S
N122 S121 1.613 . S
N122 C125 1.350 . S
N123 S121 1.610 1_554 S
N123 C124 1.351 . S
C124 C118 1.428 . S
C124 N123 1.351 . S
C124 C125 1.434 1_554 S
C125 C116 1.429 . S
C125 N122 1.350 . S
C125 C124 1.434 1_556 S
C126 C127 1.369 1_554 S
C126 C128 1.419 . S
C126 H130 0.930 . S
C127 C126 1.369 1_556 S
C127 C136 1.429 . S
C128 C126 1.419 . S
C128 C129 1.363 . S
C128 H131 0.929 . S
C129 C128 1.363 . S
C129 C135 1.428 1_554 S
H130 C126 0.930 . S
H131 C128 0.929 . S
S132 N133 1.613 . S
S132 N134 1.610 . S
N133 S132 1.613 . S
N133 C136 1.350 . S
N134 S132 1.610 . S
N134 C135 1.351 . S
C135 C129 1.428 1_556 S
C135 N134 1.351 . S
C135 C136 1.434 . S
C136 C127 1.429 . S
C136 N133 1.350 . S
C136 C135 1.434 . S
C137 C138 1.369 1_556 S
C137 C139 1.419 . S
C137 H141 0.930 . S
C138 C137 1.369 1_554 S
C138 C147 1.429 . S
C139 C137 1.419 . S
C139 C140 1.363 . S
C139 H142 0.929 . S
C140 C139 1.363 . S
C140 C146 1.428 1_556 S
H141 C137 0.930 . S
H142 C139 0.929 . S
S143 N144 1.613 . S
S143 N145 1.610 . S
N144 S143 1.613 . S
N144 C147 1.350 . S
N145 S143 1.610 . S
N145 C146 1.351 . S
C146 C140 1.428 1_554 S
C146 N145 1.351 . S
C146 C147 1.434 . S
C147 C138 1.429 . S
C147 N144 1.350 . S
C147 C146 1.434 . S
C148 C149 1.369 . S
C148 C150 1.419 1_565 S
C148 H152 0.930 . S
C149 C148 1.369 . S
C149 C158 1.429 . S
C150 C148 1.419 1_545 S
C150 C151 1.363 . S
C150 H153 0.929 . S
C151 C150 1.363 . S
C151 C157 1.428 . S
H152 C148 0.930 . S
H153 C150 0.929 . S
S154 N155 1.613 . S
S154 N156 1.610 1_565 S
N155 S154 1.613 . S
N155 C158 1.350 . S
N156 S154 1.610 1_545 S
N156 C157 1.351 . S
C157 C151 1.428 . S
C157 N156 1.351 . S
C157 C158 1.434 1_545 S
C158 C149 1.429 . S
C158 N155 1.350 . S
C158 C157 1.434 1_565 S
C159 C160 1.369 . S
C159 C161 1.419 1_455 S
C159 H163 0.930 . S
C160 C159 1.369 . S
C160 C169 1.429 . S
C161 C159 1.419 1_655 S
C161 C162 1.363 . S
C161 H164 0.929 . S
C162 C161 1.363 . S
C162 C168 1.428 . S
H163 C159 0.930 . S
H164 C161 0.929 . S
S165 N166 1.613 1_655 S
S165 N167 1.610 . S
N166 S165 1.613 1_455 S
N166 C169 1.350 . S
N167 S165 1.610 . S
N167 C168 1.351 . S
C168 C162 1.428 . S
C168 N167 1.351 . S
C168 C169 1.434 1_655 S
C169 C160 1.429 . S
C169 N166 1.350 . S
C169 C168 1.434 1_455 S
C170 C171 1.369 . S
C170 C172 1.419 1_545 S
C170 H174 0.930 . S
C171 C170 1.369 . S
C171 C180 1.429 . S
C172 C170 1.419 1_565 S
C172 C173 1.363 . S
C172 H175 0.929 . S
C173 C172 1.363 . S
C173 C179 1.428 . S
H174 C170 0.930 . S
H175 C172 0.929 . S
S176 N177 1.613 . S
S176 N178 1.610 1_545 S
N177 S176 1.613 . S
N177 C180 1.350 . S
N178 S176 1.610 1_565 S
N178 C179 1.351 . S
C179 C173 1.428 . S
C179 N178 1.351 . S
C179 C180 1.434 1_565 S
C180 C171 1.429 . S
C180 N177 1.350 . S
C180 C179 1.434 1_545 S
C181 C182 1.369 . S
C181 C183 1.419 1_655 S
C181 H185 0.930 . S
C182 C181 1.369 . S
C182 C191 1.429 . S
C183 C181 1.419 1_455 S
C183 C184 1.363 . S
C183 H186 0.929 . S
C184 C183 1.363 . S
C184 C190 1.428 . S
H185 C181 0.930 . S
H186 C183 0.929 . S
S187 N188 1.613 . S
S187 N189 1.610 1_655 S
N188 S187 1.613 . S
N188 C191 1.350 . S
N189 S187 1.610 1_455 S
N189 C190 1.351 . S
C190 C184 1.428 . S
C190 N189 1.351 . S
C190 C191 1.434 1_455 S
C191 C182 1.429 . S
C191 N188 1.350 . S
C191 C190 1.434 1_655 S
C192 C193 1.369 . S
C192 C194 1.419 . S
C192 H196 0.930 . S
C193 C192 1.369 . S
C193 C202 1.429 . S
C194 C192 1.419 . S
C194 C195 1.363 . S
C194 H197 0.929 . S
C195 C194 1.363 . S
C195 C201 1.428 . S
H196 C192 0.930 . S
H197 C194 0.929 . S
S198 N199 1.613 . S
S198 N200 1.610 . S
N199 S198 1.613 . S
N199 C202 1.350 . S
N200 S198 1.610 . S
N200 C201 1.351 . S
C201 C195 1.428 . S
C201 N200 1.351 . S
C201 C202 1.434 . S
C202 C193 1.429 . S
C202 N199 1.350 . S
C202 C201 1.434 . S
C203 C204 1.369 . S
C203 C205 1.419 . S
C203 H207 0.930 . S
C204 C203 1.369 . S
C204 C213 1.429 . S
C205 C203 1.419 . S
C205 C206 1.363 . S
C205 H208 0.929 . S
C206 C205 1.363 . S
C206 C212 1.428 . S
H207 C203 0.930 . S
H208 C205 0.929 . S
S209 N210 1.613 . S
S209 N211 1.610 . S
N210 S209 1.613 . S
N210 C213 1.350 . S
N211 S209 1.610 . S
N211 C212 1.351 . S
C212 C206 1.428 . S
C212 N211 1.351 . S
C212 C213 1.434 . S
C213 C204 1.429 . S
C213 N210 1.350 . S
C213 C212 1.434 . S
C214 C215 1.369 . S
C214 C216 1.419 . S
C214 H218 0.930 . S
C215 C214 1.369 . S
C215 C224 1.429 . S
C216 C214 1.419 . S
C216 C217 1.363 . S
C216 H219 0.929 . S
C217 C216 1.363 . S
C217 C223 1.428 . S
H218 C214 0.930 . S
H219 C216 0.929 . S
S220 N221 1.613 . S
S220 N222 1.610 . S
N221 S220 1.613 . S
N221 C224 1.350 . S
N222 S220 1.610 . S
N222 C223 1.351 . S
C223 C217 1.428 . S
C223 N222 1.351 . S
C223 C224 1.434 . S
C224 C215 1.429 . S
C224 N221 1.350 . S
C224 C223 1.434 . S
C225 C226 1.369 . S
C225 C227 1.419 . S
C225 H229 0.930 . S
C226 C225 1.369 . S
C226 C235 1.429 . S
C227 C225 1.419 . S
C227 C228 1.363 . S
C227 H230 0.929 . S
C228 C227 1.363 . S
C228 C234 1.428 . S
H229 C225 0.930 . S
H230 C227 0.929 . S
S231 N232 1.613 . S
S231 N233 1.610 . S
N232 S231 1.613 . S
N232 C235 1.350 . S
N233 S231 1.610 . S
N233 C234 1.351 . S
C234 C228 1.428 . S
C234 N233 1.351 . S
C234 C235 1.434 . S
C235 C226 1.429 . S
C235 N232 1.350 . S
C235 C234 1.434 . S
C236 C237 1.369 . S
C236 C238 1.419 . S
C236 H240 0.930 . S
C237 C236 1.369 . S
C237 C246 1.429 . S
C238 C236 1.419 . S
C238 C239 1.363 . S
C238 H241 0.929 . S
C239 C238 1.363 . S
C239 C245 1.428 . S
H240 C236 0.930 . S
H241 C238 0.929 . S
S242 N243 1.613 . S
S242 N244 1.610 . S
N243 S242 1.613 . S
N243 C246 1.350 . S
N244 S242 1.610 . S
N244 C245 1.351 . S
C245 C239 1.428 . S
C245 N244 1.351 . S
C245 C246 1.434 . S
C246 C237 1.429 . S
C246 N243 1.350 . S
C246 C245 1.434 . S
C247 C248 1.369 . S
C247 C249 1.419 . S
C247 H251 0.930 . S
C248 C247 1.369 . S
C248 C257 1.429 . S
C249 C247 1.419 . S
C249 C250 1.363 . S
C249 H252 0.929 . S
C250 C249 1.363 . S
C250 C256 1.428 . S
H251 C247 0.930 . S
H252 C249 0.929 . S
S253 N254 1.613 . S
S253 N255 1.610 . S
N254 S253 1.613 . S
N254 C257 1.350 . S
N255 S253 1.610 . S
N255 C256 1.351 . S
C256 C250 1.428 . S
C256 N255 1.351 . S
C256 C257 1.434 . S
C257 C248 1.429 . S
C257 N254 1.350 . S
C257 C256 1.434 . S
C258 C259 1.369 . S
C258 C260 1.419 . S
C258 H262 0.930 . S
C259 C258 1.369 . S
C259 C268 1.429 . S
C260 C258 1.419 . S
C260 C261 1.363 . S
C260 H263 0.929 . S
C261 C260 1.363 . S
C261 C267 1.428 . S
H262 C258 0.930 . S
H263 C260 0.929 . S
S264 N265 1.613 . S
S264 N266 1.610 . S
N265 S264 1.613 . S
N265 C268 1.350 . S
N266 S264 1.610 . S
N266 C267 1.351 . S
C267 C261 1.428 . S
C267 N266 1.351 . S
C267 C268 1.434 . S
C268 C259 1.429 . S
C268 N265 1.350 . S
C268 C267 1.434 . S
C269 C270 1.369 . S
C269 C271 1.419 . S
C269 H273 0.930 . S
C270 C269 1.369 . S
C270 C279 1.429 . S
C271 C269 1.419 . S
C271 C272 1.363 . S
C271 H274 0.929 . S
C272 C271 1.363 . S
C272 C278 1.428 . S
H273 C269 0.930 . S
H274 C271 0.929 . S
S275 N276 1.613 . S
S275 N277 1.610 . S
N276 S275 1.613 . S
N276 C279 1.350 . S
N277 S275 1.610 . S
N277 C278 1.351 . S
C278 C272 1.428 . S
C278 N277 1.351 . S
C278 C279 1.434 . S
C279 C270 1.429 . S
C279 N276 1.350 . S
C279 C278 1.434 . S
C105 C3 1.580 . S
C107 C42 1.584 . S
C116 C5 1.583 . S
C118 C18 1.581 . S
C127 C16 1.585 . S
C129 C31 1.580 . S
C138 C44 1.585 . S
C140 C29 1.580 . S
C149 C55 1.580 . S
C151 C94 1.584 . S
C160 C70 1.585 . S
C162 C57 1.580 . S
C171 C83 1.580 . S
C173 C68 1.583 . S
C182 C96 1.580 . S
C184 C81 1.584 . S
C193 C82 1.544 . S
C195 C4 1.543 . S
C204 C23 1.543 . S
C206 C95 1.543 . S
C215 C62 1.544 . S
C217 C36 1.543 . S
C226 C69 1.545 . S
C228 C49 1.543 . S
C237 C75 1.543 . S
C239 C43 1.544 . S
C248 C10 1.544 . S
C250 C88 1.545 . S
C259 C17 1.545 . S
C261 C101 1.545 . S
C270 C30 1.542 . S
C272 C56 1.543 . S
