# Generated by pormake.
# Topology wip, (6)-cn, num edge types: 1
# Building blocks:
#     Node 0, Type 0, BuildingBlock: BETFEN_clean_sbu_0, # of connection points: 6
#     Node 1, Type 0, BuildingBlock: BETFEN_clean_sbu_0, # of connection points: 6
#     Node 2, Type 0, BuildingBlock: BETFEN_clean_sbu_0, # of connection points: 6
#     Node 3, Type 0, BuildingBlock: BETFEN_clean_sbu_0, # of connection points: 6
#     Node 4, Type 0, BuildingBlock: BETFEN_clean_sbu_0, # of connection points: 6
#     Node 5, Type 0, BuildingBlock: BETFEN_clean_sbu_0, # of connection points: 6
#     Node 6, Type 0, BuildingBlock: BETFEN_clean_sbu_0, # of connection points: 6
#     Node 7, Type 0, BuildingBlock: BETFEN_clean_sbu_0, # of connection points: 6
#     Node 8, Type 0, BuildingBlock: BETFEN_clean_sbu_0, # of connection points: 6
#     Node 9, Type 0, BuildingBlock: BETFEN_clean_sbu_0, # of connection points: 6
#     Node 10, Type 0, BuildingBlock: BETFEN_clean_sbu_0, # of connection points: 6
#     Node 11, Type 0, BuildingBlock: BETFEN_clean_sbu_0, # of connection points: 6
#     Node 12, Type 0, BuildingBlock: BETFEN_clean_sbu_0, # of connection points: 6
#     Node 13, Type 0, BuildingBlock: BETFEN_clean_sbu_0, # of connection points: 6
#     Node 14, Type 0, BuildingBlock: BETFEN_clean_sbu_0, # of connection points: 6
#     Node 15, Type 0, BuildingBlock: BETFEN_clean_sbu_0, # of connection points: 6
#     Node 16, Type 0, BuildingBlock: BETFEN_clean_sbu_0, # of connection points: 6
#     Node 17, Type 0, BuildingBlock: BETFEN_clean_sbu_0, # of connection points: 6
#     Node 18, Type 0, BuildingBlock: BETFEN_clean_sbu_0, # of connection points: 6
#     Node 19, Type 0, BuildingBlock: BETFEN_clean_sbu_0, # of connection points: 6
#     Node 20, Type 0, BuildingBlock: BETFEN_clean_sbu_0, # of connection points: 6
#     Node 21, Type 0, BuildingBlock: BETFEN_clean_sbu_0, # of connection points: 6
#     Node 22, Type 0, BuildingBlock: BETFEN_clean_sbu_0, # of connection points: 6
#     Node 23, Type 0, BuildingBlock: BETFEN_clean_sbu_0, # of connection points: 6
#     Node 24, Type 0, BuildingBlock: BETFEN_clean_sbu_0, # of connection points: 6
#     Node 25, Type 0, BuildingBlock: BETFEN_clean_sbu_0, # of connection points: 6
#     Node 26, Type 0, BuildingBlock: BETFEN_clean_sbu_0, # of connection points: 6
#     Node 27, Type 0, BuildingBlock: BETFEN_clean_sbu_0, # of connection points: 6
#     Node 28, Type 0, BuildingBlock: BETFEN_clean_sbu_0, # of connection points: 6
#     Node 29, Type 0, BuildingBlock: BETFEN_clean_sbu_0, # of connection points: 6
#     Node 30, Type 0, BuildingBlock: BETFEN_clean_sbu_0, # of connection points: 6
#     Node 31, Type 0, BuildingBlock: BETFEN_clean_sbu_0, # of connection points: 6
#     Edge 32, Type (0, 0), BuildingBlock: XIVTED_clean_linker_0, # of connection points: 2
#     Edge 33, Type (0, 0), BuildingBlock: XIVTED_clean_linker_0, # of connection points: 2
#     Edge 34, Type (0, 0), BuildingBlock: XIVTED_clean_linker_0, # of connection points: 2
#     Edge 35, Type (0, 0), BuildingBlock: XIVTED_clean_linker_0, # of connection points: 2
#     Edge 36, Type (0, 0), BuildingBlock: XIVTED_clean_linker_0, # of connection points: 2
#     Edge 37, Type (0, 0), BuildingBlock: XIVTED_clean_linker_0, # of connection points: 2
#     Edge 38, Type (0, 0), BuildingBlock: XIVTED_clean_linker_0, # of connection points: 2
#     Edge 39, Type (0, 0), BuildingBlock: XIVTED_clean_linker_0, # of connection points: 2
#     Edge 40, Type (0, 0), BuildingBlock: XIVTED_clean_linker_0, # of connection points: 2
#     Edge 41, Type (0, 0), BuildingBlock: XIVTED_clean_linker_0, # of connection points: 2
#     Edge 42, Type (0, 0), BuildingBlock: XIVTED_clean_linker_0, # of connection points: 2
#     Edge 43, Type (0, 0), BuildingBlock: XIVTED_clean_linker_0, # of connection points: 2
#     Edge 44, Type (0, 0), BuildingBlock: XIVTED_clean_linker_0, # of connection points: 2
#     Edge 45, Type (0, 0), BuildingBlock: XIVTED_clean_linker_0, # of connection points: 2
#     Edge 46, Type (0, 0), BuildingBlock: XIVTED_clean_linker_0, # of connection points: 2
#     Edge 47, Type (0, 0), BuildingBlock: XIVTED_clean_linker_0, # of connection points: 2
#     Edge 48, Type (0, 0), BuildingBlock: XIVTED_clean_linker_0, # of connection points: 2
#     Edge 49, Type (0, 0), BuildingBlock: XIVTED_clean_linker_0, # of connection points: 2
#     Edge 50, Type (0, 0), BuildingBlock: XIVTED_clean_linker_0, # of connection points: 2
#     Edge 51, Type (0, 0), BuildingBlock: XIVTED_clean_linker_0, # of connection points: 2
#     Edge 52, Type (0, 0), BuildingBlock: XIVTED_clean_linker_0, # of connection points: 2
#     Edge 53, Type (0, 0), BuildingBlock: XIVTED_clean_linker_0, # of connection points: 2
#     Edge 54, Type (0, 0), BuildingBlock: XIVTED_clean_linker_0, # of connection points: 2
#     Edge 55, Type (0, 0), BuildingBlock: XIVTED_clean_linker_0, # of connection points: 2
#     Edge 56, Type (0, 0), BuildingBlock: XIVTED_clean_linker_0, # of connection points: 2
#     Edge 57, Type (0, 0), BuildingBlock: XIVTED_clean_linker_0, # of connection points: 2
#     Edge 58, Type (0, 0), BuildingBlock: XIVTED_clean_linker_0, # of connection points: 2
#     Edge 59, Type (0, 0), BuildingBlock: XIVTED_clean_linker_0, # of connection points: 2
#     Edge 60, Type (0, 0), BuildingBlock: XIVTED_clean_linker_0, # of connection points: 2
#     Edge 61, Type (0, 0), BuildingBlock: XIVTED_clean_linker_0, # of connection points: 2
#     Edge 62, Type (0, 0), BuildingBlock: XIVTED_clean_linker_0, # of connection points: 2
#     Edge 63, Type (0, 0), BuildingBlock: XIVTED_clean_linker_0, # of connection points: 2
#     Edge 64, Type (0, 0), BuildingBlock: XIVTED_clean_linker_0, # of connection points: 2
#     Edge 65, Type (0, 0), BuildingBlock: XIVTED_clean_linker_0, # of connection points: 2
#     Edge 66, Type (0, 0), BuildingBlock: XIVTED_clean_linker_0, # of connection points: 2
#     Edge 67, Type (0, 0), BuildingBlock: XIVTED_clean_linker_0, # of connection points: 2
#     Edge 68, Type (0, 0), BuildingBlock: XIVTED_clean_linker_0, # of connection points: 2
#     Edge 69, Type (0, 0), BuildingBlock: XIVTED_clean_linker_0, # of connection points: 2
#     Edge 70, Type (0, 0), BuildingBlock: XIVTED_clean_linker_0, # of connection points: 2
#     Edge 71, Type (0, 0), BuildingBlock: XIVTED_clean_linker_0, # of connection points: 2
#     Edge 72, Type (0, 0), BuildingBlock: XIVTED_clean_linker_0, # of connection points: 2
#     Edge 73, Type (0, 0), BuildingBlock: XIVTED_clean_linker_0, # of connection points: 2
#     Edge 74, Type (0, 0), BuildingBlock: XIVTED_clean_linker_0, # of connection points: 2
#     Edge 75, Type (0, 0), BuildingBlock: XIVTED_clean_linker_0, # of connection points: 2
#     Edge 76, Type (0, 0), BuildingBlock: XIVTED_clean_linker_0, # of connection points: 2
#     Edge 77, Type (0, 0), BuildingBlock: XIVTED_clean_linker_0, # of connection points: 2
#     Edge 78, Type (0, 0), BuildingBlock: XIVTED_clean_linker_0, # of connection points: 2
#     Edge 79, Type (0, 0), BuildingBlock: XIVTED_clean_linker_0, # of connection points: 2
#     Edge 80, Type (0, 0), BuildingBlock: XIVTED_clean_linker_0, # of connection points: 2
#     Edge 81, Type (0, 0), BuildingBlock: XIVTED_clean_linker_0, # of connection points: 2
#     Edge 82, Type (0, 0), BuildingBlock: XIVTED_clean_linker_0, # of connection points: 2
#     Edge 83, Type (0, 0), BuildingBlock: XIVTED_clean_linker_0, # of connection points: 2
#     Edge 84, Type (0, 0), BuildingBlock: XIVTED_clean_linker_0, # of connection points: 2
#     Edge 85, Type (0, 0), BuildingBlock: XIVTED_clean_linker_0, # of connection points: 2
#     Edge 86, Type (0, 0), BuildingBlock: XIVTED_clean_linker_0, # of connection points: 2
#     Edge 87, Type (0, 0), BuildingBlock: XIVTED_clean_linker_0, # of connection points: 2
#     Edge 88, Type (0, 0), BuildingBlock: XIVTED_clean_linker_0, # of connection points: 2
#     Edge 89, Type (0, 0), BuildingBlock: XIVTED_clean_linker_0, # of connection points: 2
#     Edge 90, Type (0, 0), BuildingBlock: XIVTED_clean_linker_0, # of connection points: 2
#     Edge 91, Type (0, 0), BuildingBlock: XIVTED_clean_linker_0, # of connection points: 2
#     Edge 92, Type (0, 0), BuildingBlock: XIVTED_clean_linker_0, # of connection points: 2
#     Edge 93, Type (0, 0), BuildingBlock: XIVTED_clean_linker_0, # of connection points: 2
#     Edge 94, Type (0, 0), BuildingBlock: XIVTED_clean_linker_0, # of connection points: 2
#     Edge 95, Type (0, 0), BuildingBlock: XIVTED_clean_linker_0, # of connection points: 2
#     Edge 96, Type (0, 0), BuildingBlock: XIVTED_clean_linker_0, # of connection points: 2
#     Edge 97, Type (0, 0), BuildingBlock: XIVTED_clean_linker_0, # of connection points: 2
#     Edge 98, Type (0, 0), BuildingBlock: XIVTED_clean_linker_0, # of connection points: 2
#     Edge 99, Type (0, 0), BuildingBlock: XIVTED_clean_linker_0, # of connection points: 2
#     Edge 100, Type (0, 0), BuildingBlock: XIVTED_clean_linker_0, # of connection points: 2
#     Edge 101, Type (0, 0), BuildingBlock: XIVTED_clean_linker_0, # of connection points: 2
#     Edge 102, Type (0, 0), BuildingBlock: XIVTED_clean_linker_0, # of connection points: 2
#     Edge 103, Type (0, 0), BuildingBlock: XIVTED_clean_linker_0, # of connection points: 2
#     Edge 104, Type (0, 0), BuildingBlock: XIVTED_clean_linker_0, # of connection points: 2
#     Edge 105, Type (0, 0), BuildingBlock: XIVTED_clean_linker_0, # of connection points: 2
#     Edge 106, Type (0, 0), BuildingBlock: XIVTED_clean_linker_0, # of connection points: 2
#     Edge 107, Type (0, 0), BuildingBlock: XIVTED_clean_linker_0, # of connection points: 2
#     Edge 108, Type (0, 0), BuildingBlock: XIVTED_clean_linker_0, # of connection points: 2
#     Edge 109, Type (0, 0), BuildingBlock: XIVTED_clean_linker_0, # of connection points: 2
#     Edge 110, Type (0, 0), BuildingBlock: XIVTED_clean_linker_0, # of connection points: 2
#     Edge 111, Type (0, 0), BuildingBlock: XIVTED_clean_linker_0, # of connection points: 2
#     Edge 112, Type (0, 0), BuildingBlock: XIVTED_clean_linker_0, # of connection points: 2
#     Edge 113, Type (0, 0), BuildingBlock: XIVTED_clean_linker_0, # of connection points: 2
#     Edge 114, Type (0, 0), BuildingBlock: XIVTED_clean_linker_0, # of connection points: 2
#     Edge 115, Type (0, 0), BuildingBlock: XIVTED_clean_linker_0, # of connection points: 2
#     Edge 116, Type (0, 0), BuildingBlock: XIVTED_clean_linker_0, # of connection points: 2
#     Edge 117, Type (0, 0), BuildingBlock: XIVTED_clean_linker_0, # of connection points: 2
#     Edge 118, Type (0, 0), BuildingBlock: XIVTED_clean_linker_0, # of connection points: 2
#     Edge 119, Type (0, 0), BuildingBlock: XIVTED_clean_linker_0, # of connection points: 2
#     Edge 120, Type (0, 0), BuildingBlock: XIVTED_clean_linker_0, # of connection points: 2
#     Edge 121, Type (0, 0), BuildingBlock: XIVTED_clean_linker_0, # of connection points: 2
#     Edge 122, Type (0, 0), BuildingBlock: XIVTED_clean_linker_0, # of connection points: 2
#     Edge 123, Type (0, 0), BuildingBlock: XIVTED_clean_linker_0, # of connection points: 2
#     Edge 124, Type (0, 0), BuildingBlock: XIVTED_clean_linker_0, # of connection points: 2
#     Edge 125, Type (0, 0), BuildingBlock: XIVTED_clean_linker_0, # of connection points: 2
#     Edge 126, Type (0, 0), BuildingBlock: XIVTED_clean_linker_0, # of connection points: 2
#     Edge 127, Type (0, 0), BuildingBlock: XIVTED_clean_linker_0, # of connection points: 2
# Relax obj value: 0.352
# Max RMSD: 0.296
# Mean RMSD: 0.233
data_MOF--net-wip--node1-BETFEN_clean_sbu_0--edge1-XIVTED_clean_linker_0
_symmetry_space_group_name_H-M    P1
_symmetry_Int_Tables_number       1
_symmetry_cell_setting            triclinic
loop_
_symmetry_equiv_pos_as_xyz
'x, y, z'
_cell_length_a     66.355226
_cell_length_b     62.545757
_cell_length_c     35.802105
_cell_angle_alpha  85.695145
_cell_angle_beta   94.12621
_cell_angle_gamma 89.133129
loop_
_atom_site_label
_atom_site_type_symbol
_atom_site_fract_x
_atom_site_fract_y
_atom_site_fract_z
_atom_type_partial_charge
Pr0 Pr 0.06522 0.4161 0.15915 0.0
Pr1 Pr 0.09373 0.44202 0.10943 0.0
C2 C 0.0481 0.39311 0.21507 0.0
C3 C 0.049 0.39018 0.25638 0.0
C4 C 0.03623 0.3754 0.27348 0.0
C5 C 0.03488 0.37412 0.31239 0.0
C6 C 0.04626 0.38768 0.33507 0.0
C7 C 0.05959 0.40204 0.31784 0.0
C8 C 0.06095 0.40327 0.27882 0.0
C9 C 0.04551 0.45108 0.11836 0.0
C10 C 0.0894 0.45875 0.19222 0.0
C11 C 0.11133 0.46411 0.05216 0.0
C12 C 0.10824 0.47234 1.01149 0.0
C13 C 0.12453 0.4723 0.98839 0.0
C14 C 0.12253 0.48139 0.95097 0.0
C15 C 0.10411 0.49093 0.9352 0.0
C16 C 0.08767 0.49054 0.95832 0.0
C17 C 0.0897 0.48143 0.99577 0.0
C18 C 0.11338 0.41353 0.16689 0.0
C19 C 0.05914 0.4095 0.06966 0.0
O20 O 0.06334 0.38583 0.19812 0.0
O21 O 0.04113 0.41169 0.20023 0.0
O22 O 0.06344 0.45092 0.133 0.0
O23 O 0.03808 0.43199 0.12202 0.0
O24 O 0.09451 0.46488 0.15806 0.0
O25 O 0.08021 0.44041 0.19969 0.0
O26 O 0.10078 0.47315 0.07649 0.0
O27 O 0.11416 0.44344 0.0604 0.0
O28 O 0.09775 0.4094 0.14609 0.0
O29 O 0.12079 0.4315 0.15392 0.0
O30 O 0.05596 0.40017 0.10307 0.0
O31 O 0.07148 0.42574 0.06618 0.0
H32 H 0.02677 0.36531 0.25658 0.0
H33 H 0.02427 0.36309 0.32446 0.0
H34 H 0.06877 0.41251 0.33445 0.0
H35 H 0.07091 0.4148 0.26609 0.0
H36 H 0.13906 0.46559 0.99957 0.0
H37 H 0.13569 0.48144 0.93478 0.0
H38 H 0.0731 0.49726 0.94752 0.0
H39 H 0.07677 0.48172 1.01256 0.0
Pr40 Pr 0.78637 0.8062 0.34943 0.0
Pr41 Pr 0.77712 0.85138 0.38051 0.0
C42 C 0.78998 0.77046 0.31257 0.0
C43 C 0.78462 0.7617 0.27625 0.0
C44 C 0.78825 0.73988 0.27261 0.0
C45 C 0.78602 0.73162 0.23739 0.0
C46 C 0.78007 0.74503 0.20498 0.0
C47 C 0.77559 0.76679 0.20906 0.0
C48 C 0.77787 0.77506 0.24441 0.0
C49 C 0.81979 0.82672 0.38008 0.0
C50 C 0.7707 0.84706 0.28756 0.0
C51 C 0.77676 0.8907 0.40595 0.0
C52 C 0.77235 0.89879 0.44238 0.0
C53 C 0.75462 0.91096 0.44513 0.0
C54 C 0.74898 0.91646 0.48012 0.0
C55 C 0.76105 0.91004 0.51307 0.0
C56 C 0.77924 0.89869 0.51009 0.0
C57 C 0.78483 0.89309 0.47517 0.0
C58 C 0.74553 0.82279 0.3826 0.0
C59 C 0.78666 0.8082 0.44198 0.0
O60 O 0.77549 0.77338 0.33476 0.0
O61 O 0.80314 0.78584 0.31214 0.0
O62 O 0.80539 0.83616 0.35983 0.0
O63 O 0.81787 0.80611 0.3815 0.0
O64 O 0.76923 0.85978 0.31532 0.0
O65 O 0.77746 0.82706 0.2934 0.0
O66 O 0.79335 0.87911 0.40531 0.0
O67 O 0.76136 0.88317 0.3864 0.0
O68 O 0.7574 0.8255 0.35667 0.0
O69 O 0.74894 0.8367 0.40746 0.0
O70 O 0.78329 0.79577 0.41368 0.0
O71 O 0.78755 0.82944 0.43603 0.0
H72 H 0.79359 0.72936 0.29685 0.0
H73 H 0.78989 0.71488 0.23544 0.0
H74 H 0.77067 0.77752 0.18487 0.0
H75 H 0.77499 0.79199 0.2467 0.0
H76 H 0.74479 0.91566 0.4203 0.0
H77 H 0.73501 0.92546 0.48145 0.0
H78 H 0.78879 0.89333 0.53494 0.0
H79 H 0.79859 0.88369 0.47415 0.0
Pr80 Pr 0.45009 0.6065 0.61145 0.0
Pr81 Pr 0.42914 0.5697 0.56878 0.0
C82 C 0.46041 0.64077 0.64906 0.0
C83 C 0.46448 0.64305 0.68975 0.0
C84 C 0.48298 0.65117 0.70323 0.0
C85 C 0.48803 0.65107 0.7419 0.0
C86 C 0.4746 0.64294 0.7679 0.0
C87 C 0.4558 0.63544 0.75433 0.0
C88 C 0.45082 0.63539 0.71571 0.0
C89 C 0.47259 0.56895 0.61935 0.0
C90 C 0.43178 0.56456 0.66019 0.0
C91 C 0.41594 0.54039 0.521 0.0
C92 C 0.41922 0.53061 0.48506 0.0
C93 C 0.42379 0.543 0.45237 0.0
C94 C 0.4251 0.53352 0.4181 0.0
C95 C 0.42189 0.5114 0.41555 0.0
C96 C 0.41755 0.4991 0.44857 0.0
C97 C 0.41624 0.50856 0.48269 0.0
C98 C 0.40275 0.59786 0.60105 0.0
C99 C 0.45797 0.60468 0.52133 0.0
O100 O 0.44176 0.63696 0.63742 0.0
O101 O 0.47365 0.62926 0.63349 0.0
O102 O 0.46246 0.57541 0.58893 0.0
O103 O 0.47213 0.58248 0.64503 0.0
O104 O 0.43209 0.55345 0.6301 0.0
O105 O 0.43499 0.58548 0.65866 0.0
O106 O 0.42868 0.53552 0.55029 0.0
O107 O 0.40923 0.56029 0.51895 0.0
O108 O 0.41825 0.60335 0.58399 0.0
O109 O 0.39952 0.5777 0.59745 0.0
O110 O 0.4618 0.61513 0.55174 0.0
O111 O 0.44571 0.58827 0.52095 0.0
H112 H 0.49378 0.65708 0.68382 0.0
H113 H 0.50253 0.65718 0.75145 0.0
H114 H 0.4452 0.62886 0.77356 0.0
H115 H 0.43652 0.62875 0.70629 0.0
H116 H 0.42615 0.56006 0.45318 0.0
H117 H 0.42874 0.54356 0.39364 0.0
H118 H 0.41464 0.48214 0.44797 0.0
H119 H 0.41247 0.49864 0.50723 0.0
Pr120 Pr 0.67173 0.17768 0.87179 0.0
Pr121 Pr 0.70041 0.14965 0.83006 0.0
C122 C 0.64713 0.19399 0.92037 0.0
C123 C 0.64749 0.20001 0.95977 0.0
C124 C 0.63791 0.21919 0.96737 0.0
C125 C 0.63766 0.22524 1.00423 0.0
C126 C 0.64697 0.21224 0.03467 0.0
C127 C 0.65679 0.19307 0.02692 0.0
C128 C 0.65704 0.18701 0.98991 0.0
C129 C 0.7071 0.19834 0.8537 0.0
C130 C 0.70818 0.14665 0.92086 0.0
C131 C 0.72545 0.13189 0.78372 0.0
C132 C 0.73464 0.13403 0.74686 0.0
C133 C 0.72289 0.13667 0.71242 0.0
C134 C 0.73209 0.13712 0.67814 0.0
C135 C 0.75325 0.13494 0.67741 0.0
C136 C 0.76488 0.13245 0.71204 0.0
C137 C 0.75571 0.13199 0.74616 0.0
C138 C 0.6668 0.1293 0.85894 0.0
C139 C 0.66882 0.18556 0.78188 0.0
O140 O 0.64828 0.17361 0.91474 0.0
O141 O 0.6573 0.20591 0.89715 0.0
O142 O 0.70603 0.17883 0.86516 0.0
O143 O 0.68918 0.20714 0.84897 0.0
O144 O 0.71692 0.14361 0.88965 0.0
O145 O 0.6906 0.15699 0.92056 0.0
O146 O 0.73168 0.14456 0.80948 0.0
O147 O 0.70621 0.12762 0.78425 0.0
O148 O 0.66674 0.14751 0.84128 0.0
O149 O 0.6846 0.12024 0.85961 0.0
O150 O 0.65754 0.18581 0.8108 0.0
O151 O 0.68661 0.17561 0.78444 0.0
H152 H 0.63054 0.22954 0.94466 0.0
H153 H 0.63028 0.24028 1.00878 0.0
H154 H 0.66398 0.18252 0.04952 0.0
H155 H 0.66459 0.17213 0.98492 0.0
H156 H 0.70659 0.13825 0.71191 0.0
H157 H 0.72259 0.13933 0.65221 0.0
H158 H 0.78114 0.13036 0.71293 0.0
H159 H 0.76514 0.12967 0.77219 0.0
Pr160 Pr 0.049 0.59292 0.61181 0.0
Pr161 Pr 0.08211 0.56678 0.57629 0.0
C162 C 0.02198 0.61234 0.65161 0.0
C163 C 0.01387 0.61116 0.68884 0.0
C164 C 0.9998 0.62679 0.69674 0.0
C165 C 0.99257 0.62676 0.73243 0.0
C166 C 0.99935 0.61112 0.76108 0.0
C167 C 0.01319 0.59514 0.75275 0.0
C168 C 0.0204 0.59518 0.71688 0.0
C169 C 0.07776 0.61641 0.57302 0.0
C170 C 0.08322 0.56422 0.66985 0.0
C171 C 0.11116 0.55411 0.53323 0.0
C172 C 0.11279 0.55284 0.49277 0.0
C173 C 0.12713 0.53886 0.48036 0.0
C174 C 0.12621 0.53409 0.44275 0.0
C175 C 0.11075 0.54307 0.41715 0.0
C176 C 0.09723 0.55821 0.42921 0.0
C177 C 0.09829 0.56311 0.46674 0.0
C178 C 0.05442 0.54126 0.60907 0.0
C179 C 0.03886 0.58397 0.52373 0.0
O180 O 0.01723 0.59696 0.62995 0.0
O181 O 0.04074 0.6183 0.65011 0.0
O182 O 0.08133 0.60033 0.59606 0.0
O183 O 0.05864 0.62137 0.5706 0.0
O184 O 0.09455 0.56188 0.64104 0.0
O185 O 0.06523 0.57378 0.66469 0.0
O186 O 0.11032 0.57325 0.54543 0.0
O187 O 0.09822 0.54108 0.548 0.0
O188 O 0.04991 0.55906 0.591 0.0
O189 O 0.07311 0.53524 0.60716 0.0
O190 O 0.03087 0.58856 0.55497 0.0
O191 O 0.05811 0.57742 0.524 0.0
H192 H 0.99453 0.63919 0.67534 0.0
H193 H 0.98165 0.63904 0.73756 0.0
H194 H 0.01885 0.58295 0.77417 0.0
H195 H 0.03126 0.58295 0.71117 0.0
H196 H 0.13835 0.53072 0.50015 0.0
H197 H 0.13672 0.52225 0.43434 0.0
H198 H 0.08529 0.56552 0.40999 0.0
H199 H 0.08714 0.57403 0.4758 0.0
Pr200 Pr 0.68842 0.81564 0.97188 0.0
Pr201 Pr 0.70755 0.85676 0.93171 0.0
C202 C 0.67923 0.78266 0.02128 0.0
C203 C 0.68451 0.77344 0.06073 0.0
C204 C 0.69607 0.78459 0.08718 0.0
C205 C 0.70045 0.77557 0.12435 0.0
C206 C 0.69341 0.7551 0.13623 0.0
C207 C 0.68188 0.74407 0.10936 0.0
C208 C 0.67755 0.75308 0.07235 0.0
C209 C 0.66193 0.83968 0.91793 0.0
C210 C 0.70807 0.85392 0.02477 0.0
C211 C 0.71419 0.89468 0.89441 0.0
C212 C 0.71588 0.90081 0.85434 0.0
C213 C 0.70807 0.88753 0.82713 0.0
C214 C 0.71118 0.89224 0.78927 0.0
C215 C 0.72223 0.91031 0.77787 0.0
C216 C 0.72957 0.92389 0.8052 0.0
C217 C 0.72644 0.91914 0.84315 0.0
C218 C 0.73418 0.82207 0.94599 0.0
C219 C 0.69936 0.81361 0.88409 0.0
O220 O 0.69285 0.78111 0.99676 0.0
O221 O 0.66908 0.80095 1.01668 0.0
O222 O 0.67481 0.84749 0.94112 0.0
O223 O 0.66077 0.81917 0.92636 0.0
O224 O 0.71418 0.86468 0.99458 0.0
O225 O 0.69688 0.83672 0.02247 0.0
O226 O 0.69632 0.88873 0.90376 0.0
O227 O 0.72879 0.88227 0.91071 0.0
O228 O 0.72089 0.82734 0.96771 0.0
O229 O 0.73518 0.83644 0.91796 0.0
O230 O 0.69789 0.80188 0.91627 0.0
O231 O 0.69977 0.83489 0.88221 0.0
H232 H 0.70173 0.8003 0.07914 0.0
H233 H 0.70956 0.78462 0.14365 0.0
H234 H 0.67579 0.72853 0.11701 0.0
H235 H 0.66853 0.74411 0.05276 0.0
H236 H 0.69999 0.8732 0.83528 0.0
H237 H 0.70557 0.88126 0.76915 0.0
H238 H 0.73792 0.93807 0.79731 0.0
H239 H 0.73259 0.92954 0.86382 0.0
Pr240 Pr 0.44755 0.39957 0.12711 0.0
Pr241 Pr 0.43733 0.44126 0.07884 0.0
C242 C 0.46392 0.36621 0.17168 0.0
C243 C 0.47186 0.3641 0.21137 0.0
C244 C 0.47298 0.34399 0.23159 0.0
C245 C 0.47944 0.34217 0.26987 0.0
C246 C 0.48493 0.36047 0.2886 0.0
C247 C 0.4839 0.38059 0.26804 0.0
C248 C 0.47736 0.38239 0.22988 0.0
C249 C 0.40939 0.40133 0.08768 0.0
C250 C 0.42996 0.43972 0.17116 0.0
C251 C 0.4212 0.47569 0.03689 0.0
C252 C 0.41855 0.48341 0.99697 0.0
C253 C 0.41923 0.50545 0.9871 0.0
C254 C 0.41824 0.51318 0.94938 0.0
C255 C 0.41644 0.499 0.92061 0.0
C256 C 0.41551 0.47685 0.93071 0.0
C257 C 0.41665 0.46911 0.96856 0.0
C258 C 0.4762 0.4391 0.11371 0.0
C259 C 0.46178 0.40462 0.03861 0.0
O260 O 0.47432 0.37809 0.14861 0.0
O261 O 0.44443 0.36971 0.16601 0.0
O262 O 0.4256 0.40768 0.07536 0.0
O263 O 0.4126 0.39206 0.12129 0.0
O264 O 0.42432 0.44895 0.1373 0.0
O265 O 0.44091 0.4218 0.17467 0.0
O266 O 0.41048 0.4593 0.04809 0.0
O267 O 0.43983 0.4748 0.05165 0.0
O268 O 0.4604 0.43312 0.12862 0.0
O269 O 0.47202 0.44606 0.0788 0.0
O270 O 0.46558 0.39516 0.07291 0.0
O271 O 0.44872 0.42086 0.03211 0.0
H272 H 0.46867 0.32972 0.21786 0.0
H273 H 0.48022 0.32642 0.28475 0.0
H274 H 0.4877 0.39504 0.28163 0.0
H275 H 0.47633 0.39812 0.21492 0.0
H276 H 0.42096 0.5167 1.00865 0.0
H277 H 0.41944 0.53028 0.94286 0.0
H278 H 0.41393 0.46546 0.9094 0.0
H279 H 0.41631 0.45198 0.97562 0.0
Pr280 Pr 0.84543 0.18838 0.38552 0.0
Pr281 Pr 0.81556 0.1606 0.34333 0.0
C282 C 0.86582 0.21125 0.4367 0.0
C283 C 0.86372 0.21725 0.47554 0.0
C284 C 0.87997 0.2265 0.49524 0.0
C285 C 0.87816 0.23272 0.53171 0.0
C286 C 0.85999 0.22988 0.54947 0.0
C287 C 0.84377 0.22035 0.52963 0.0
C288 C 0.84561 0.21412 0.4931 0.0
C289 C 0.86329 0.16187 0.33619 0.0
C290 C 0.82098 0.15013 0.43407 0.0
C291 C 0.79447 0.13648 0.29545 0.0
C292 C 0.78847 0.13411 0.25551 0.0
C293 C 0.76781 0.13486 0.24415 0.0
C294 C 0.7612 0.1329 0.20679 0.0
C295 C 0.7751 0.12984 0.17972 0.0
C296 C 0.7959 0.12901 0.19111 0.0
C297 C 0.80255 0.13114 0.22875 0.0
C298 C 0.79688 0.19022 0.38455 0.0
C299 C 0.83294 0.20552 0.29972 0.0
O300 O 0.8526 0.21979 0.41072 0.0
O301 O 0.86994 0.19106 0.43255 0.0
O302 O 0.84957 0.15616 0.35766 0.0
O303 O 0.8695 0.18085 0.34317 0.0
O304 O 0.81585 0.14118 0.40251 0.0
O305 O 0.83051 0.16843 0.43362 0.0
O306 O 0.81305 0.13166 0.30854 0.0
O307 O 0.78688 0.15316 0.30973 0.0
O308 O 0.81188 0.1942 0.36547 0.0
O309 O 0.79069 0.17083 0.38142 0.0
O310 O 0.83899 0.21199 0.33283 0.0
O311 O 0.82556 0.18613 0.29613 0.0
H312 H 0.89412 0.22898 0.48235 0.0
H313 H 0.89114 0.23959 0.54611 0.0
H314 H 0.82947 0.21804 0.54201 0.0
H315 H 0.83284 0.20701 0.47843 0.0
H316 H 0.75667 0.13716 0.26428 0.0
H317 H 0.74512 0.13418 0.1991 0.0
H318 H 0.80703 0.12656 0.17107 0.0
H319 H 0.81862 0.1305 0.2368 0.0
Pr320 Pr 0.9089 0.56053 0.24591 0.0
Pr321 Pr 0.93572 0.58914 0.19794 0.0
C322 C 0.89282 0.53625 0.30233 0.0
C323 C 0.89688 0.52653 0.34204 0.0
C324 C 0.89749 0.50409 0.34932 0.0
C325 C 0.89994 0.49451 0.38628 0.0
C326 C 0.90178 0.50699 0.41758 0.0
C327 C 0.9012 0.52952 0.41026 0.0
C328 C 0.8988 0.53912 0.37315 0.0
C329 C 0.88731 0.59096 0.1946 0.0
C330 C 0.94412 0.59138 0.2879 0.0
C331 C 0.95192 0.6144 0.14372 0.0
C332 C 0.95198 0.61652 0.10255 0.0
C333 C 0.96524 0.63083 0.08566 0.0
C334 C 0.96775 0.63094 0.04721 0.0
C335 C 0.95708 0.61665 0.0249 0.0
C336 C 0.94324 0.60282 0.04181 0.0
C337 C 0.94072 0.60276 0.08033 0.0
C338 C 0.95611 0.55211 0.23046 0.0
C339 C 0.90988 0.5491 0.15941 0.0
O340 O 0.90234 0.52809 0.27568 0.0
O341 O 0.89003 0.55708 0.2966 0.0
O342 O 0.90354 0.59461 0.21431 0.0
O343 O 0.8805 0.57248 0.20638 0.0
O344 O 0.94555 0.60293 0.25576 0.0
O345 O 0.93268 0.57433 0.28958 0.0
O346 O 0.93526 0.61954 0.15869 0.0
O347 O 0.96068 0.59699 0.16 0.0
O348 O 0.93796 0.5531 0.21706 0.0
O349 O 0.96353 0.57121 0.2301 0.0
O350 O 0.90676 0.54041 0.19332 0.0
O351 O 0.9187 0.56787 0.15444 0.0
H352 H 0.89575 0.49384 0.32627 0.0
H353 H 0.89993 0.47718 0.39026 0.0
H354 H 0.90279 0.53982 0.43322 0.0
H355 H 0.89832 0.55645 0.36893 0.0
H356 H 0.97423 0.64139 0.10247 0.0
H357 H 0.97872 0.64161 0.03533 0.0
H358 H 0.93459 0.5918 0.02541 0.0
H359 H 0.93049 0.59153 0.09297 0.0
Pr360 Pr 0.20659 0.14932 0.98063 0.0
Pr361 Pr 0.1863 0.18987 1.01278 0.0
C362 C 0.21407 0.11413 0.94461 0.0
C363 C 0.2197 0.10971 0.90686 0.0
C364 C 0.23591 0.09556 0.90321 0.0
C365 C 0.24248 0.09235 0.8678 0.0
C366 C 0.23285 0.10316 0.83539 0.0
C367 C 0.21638 0.11707 0.83908 0.0
C368 C 0.2099 0.12039 0.8745 0.0
C369 C 0.23207 0.18356 0.99057 0.0
C370 C 0.18768 0.19048 0.91937 0.0
C371 C 0.17592 0.2248 0.04698 0.0
C372 C 0.17613 0.2318 0.08532 0.0
C373 C 0.15807 0.23916 0.09847 0.0
C374 C 0.1578 0.24589 0.13473 0.0
C375 C 0.17567 0.24558 0.15828 0.0
C376 C 0.19373 0.23799 0.14524 0.0
C377 C 0.19395 0.23104 0.10912 0.0
C378 C 0.15976 0.15834 0.99126 0.0
C379 C 0.21327 0.15391 0.07225 0.0
O380 O 0.19581 0.12181 0.94738 0.0
O381 O 0.22788 0.12326 0.96553 0.0
O382 O 0.21364 0.18462 0.97973 0.0
O383 O 0.23861 0.16377 0.99307 0.0
O384 O 0.1849 0.20207 0.94832 0.0
O385 O 0.1945 0.17024 0.92454 0.0
O386 O 0.19333 0.22259 0.03249 0.0
O387 O 0.16321 0.20972 0.0391 0.0
O388 O 0.17719 0.15481 1.0077 0.0
O389 O 0.15464 0.17834 0.99269 0.0
O390 O 0.2137 0.14038 0.04547 0.0
O391 O 0.20476 0.17324 0.06615 0.0
H392 H 0.2437 0.08723 0.92786 0.0
H393 H 0.2551 0.0814 0.86577 0.0
H394 H 0.20882 0.12583 0.81465 0.0
H395 H 0.19749 0.13159 0.87657 0.0
H396 H 0.14415 0.23983 0.08057 0.0
H397 H 0.14374 0.2519 0.14398 0.0
H398 H 0.20768 0.23745 0.16302 0.0
H399 H 0.20805 0.22518 0.09983 0.0
Pr400 Pr 0.57379 0.42835 0.77371 0.0
Pr401 Pr 0.55015 0.39029 0.72835 0.0
C402 C 0.58678 0.45696 0.82316 0.0
C403 C 0.58422 0.46552 0.86075 0.0
C404 C 0.59789 0.4593 0.89177 0.0
C405 C 0.59698 0.46866 0.9262 0.0
C406 C 0.58242 0.48472 0.93087 0.0
C407 C 0.56851 0.49067 0.89995 0.0
C408 C 0.56943 0.48129 0.86549 0.0
C409 C 0.59779 0.39848 0.74067 0.0
C410 C 0.54457 0.39174 0.81917 0.0
C411 C 0.543 0.35766 0.68446 0.0
C412 C 0.53711 0.35592 0.64393 0.0
C413 C 0.51671 0.35716 0.63006 0.0
C414 C 0.51142 0.35663 0.59155 0.0
C415 C 0.52638 0.35486 0.56594 0.0
C416 C 0.54674 0.35314 0.57994 0.0
C417 C 0.55203 0.35357 0.61842 0.0
C418 C 0.52581 0.4272 0.72764 0.0
C419 C 0.56853 0.43433 0.68162 0.0
O420 O 0.57311 0.46174 0.79522 0.0
O421 O 0.59472 0.43764 0.82259 0.0
O422 O 0.58181 0.39418 0.75722 0.0
O423 O 0.60293 0.41813 0.74559 0.0
O424 O 0.54194 0.38001 0.78988 0.0
O425 O 0.5551 0.40956 0.81852 0.0
O426 O 0.56102 0.36496 0.69252 0.0
O427 O 0.52941 0.36502 0.70534 0.0
O428 O 0.54287 0.42343 0.74485 0.0
O429 O 0.52009 0.41019 0.71134 0.0
O430 O 0.57085 0.44483 0.71255 0.0
O431 O 0.5633 0.41386 0.68188 0.0
H432 H 0.60972 0.44749 0.88919 0.0
H433 H 0.60818 0.46372 0.9488 0.0
H434 H 0.55684 0.50269 0.90223 0.0
H435 H 0.5587 0.48669 0.84236 0.0
H436 H 0.50481 0.35886 0.64887 0.0
H437 H 0.4956 0.35815 0.58175 0.0
H438 H 0.55864 0.35137 0.56115 0.0
H439 H 0.56788 0.3523 0.6281 0.0
Pr440 Pr 0.30103 0.84186 0.51765 0.0
Pr441 Pr 0.32957 0.8139 0.47529 0.0
C442 C 0.27637 0.85944 0.56494 0.0
C443 C 0.26822 0.85744 0.6028 0.0
C444 C 0.26914 0.875 0.62517 0.0
C445 C 0.25988 0.87439 0.65931 0.0
C446 C 0.24931 0.8562 0.67201 0.0
C447 C 0.24885 0.83841 0.64996 0.0
C448 C 0.25816 0.83901 0.61586 0.0
C449 C 0.33435 0.86233 0.48793 0.0
C450 C 0.33319 0.80616 0.56535 0.0
C451 C 0.35378 0.79822 0.42547 0.0
C452 C 0.35268 0.79294 0.38561 0.0
C453 C 0.33542 0.78373 0.36882 0.0
C454 C 0.33506 0.77792 0.33165 0.0
C455 C 0.35192 0.78125 0.31025 0.0
C456 C 0.36901 0.7909 0.32703 0.0
C457 C 0.36937 0.79665 0.36421 0.0
C458 C 0.29461 0.79301 0.49522 0.0
C459 C 0.2923 0.84439 0.42708 0.0
O460 O 0.27032 0.84592 0.54046 0.0
O461 O 0.29525 0.86479 0.56255 0.0
O462 O 0.33461 0.84411 0.50561 0.0
O463 O 0.31649 0.87125 0.48729 0.0
O464 O 0.34414 0.80559 0.53602 0.0
O465 O 0.31551 0.81631 0.56329 0.0
O466 O 0.35296 0.81849 0.43194 0.0
O467 O 0.34371 0.78615 0.44869 0.0
O468 O 0.29545 0.81244 0.48312 0.0
O469 O 0.31259 0.78428 0.49898 0.0
O470 O 0.28386 0.8475 0.45857 0.0
O471 O 0.30995 0.83423 0.42695 0.0
H472 H 0.27661 0.88949 0.61573 0.0
H473 H 0.26045 0.88849 0.67511 0.0
H474 H 0.2412 0.82396 0.65896 0.0
H475 H 0.25718 0.82517 0.59944 0.0
H476 H 0.32223 0.78088 0.38452 0.0
H477 H 0.3215 0.7709 0.31963 0.0
H478 H 0.38236 0.79356 0.31175 0.0
H479 H 0.38285 0.80374 0.37647 0.0
Pr480 Pr 0.92725 0.43765 0.77973 0.0
Pr481 Pr 0.95489 0.40505 0.74259 0.0
C482 C 0.89684 0.45683 0.81118 0.0
C483 C 0.89277 0.46151 0.84953 0.0
C484 C 0.87725 0.47604 0.85525 0.0
C485 C 0.87511 0.48298 0.89101 0.0
C486 C 0.88856 0.47555 0.92162 0.0
C487 C 0.90351 0.46016 0.91599 0.0
C488 C 0.90562 0.45324 0.88021 0.0
C489 C 0.9629 0.45407 0.75842 0.0
C490 C 0.96583 0.4146 0.83344 0.0
C491 C 0.98377 0.38312 0.71122 0.0
C492 C 0.99268 0.38454 0.67457 0.0
C493 C 0.00663 0.36885 0.66632 0.0
C494 C 0.0143 0.36941 0.63083 0.0
C495 C 0.00813 0.38569 0.6028 0.0
C496 C 0.99435 0.40161 0.61154 0.0
C497 C 0.9867 0.40102 0.64705 0.0
C498 C 0.92038 0.3885 0.7741 0.0
C499 C 0.92388 0.4364 0.6843 0.0
O500 O 0.89658 0.43662 0.80374 0.0
O501 O 0.91188 0.46729 0.79732 0.0
O502 O 0.95211 0.44159 0.73979 0.0
O503 O 0.95439 0.46017 0.78767 0.0
O504 O 0.97227 0.40726 0.80242 0.0
O505 O 0.94807 0.42473 0.83335 0.0
O506 O 0.98777 0.39872 0.73287 0.0
O507 O 0.96489 0.37736 0.7107 0.0
O508 O 0.93224 0.40173 0.78733 0.0
O509 O 0.92704 0.38138 0.74406 0.0
O510 O 0.9148 0.44192 0.71437 0.0
O511 O 0.94025 0.4239 0.68815 0.0
H512 H 0.86722 0.48261 0.83182 0.0
H513 H 0.86326 0.4946 0.8945 0.0
H514 H 0.91426 0.45429 0.93879 0.0
H515 H 0.9178 0.44209 0.87621 0.0
H516 H 0.01143 0.356 0.68722 0.0
H517 H 0.02509 0.35707 0.62537 0.0
H518 H 0.98903 0.41423 0.59063 0.0
H519 H 0.97585 0.41324 0.65283 0.0
Pr520 Pr 0.30005 0.1497 0.41146 0.0
Pr521 Pr 0.32904 0.1789 0.36714 0.0
C522 C 0.28271 0.12196 0.45999 0.0
C523 C 0.28428 0.114 0.49968 0.0
C524 C 0.29415 0.12581 0.52709 0.0
C525 C 0.29216 0.12022 0.56519 0.0
C526 C 0.28024 0.10276 0.5763 0.0
C527 C 0.27175 0.09004 0.54868 0.0
C528 C 0.27371 0.09568 0.51067 0.0
C529 C 0.28193 0.18853 0.38034 0.0
C530 C 0.32611 0.18707 0.45564 0.0
C531 C 0.34524 0.20559 0.31444 0.0
C532 C 0.34077 0.2149 0.27475 0.0
C533 C 0.35522 0.21307 0.24822 0.0
C534 C 0.35176 0.22241 0.21124 0.0
C535 C 0.33371 0.23401 0.19948 0.0
C536 C 0.31918 0.23569 0.2261 0.0
C537 C 0.32262 0.22627 0.26309 0.0
C538 C 0.34895 0.14741 0.41825 0.0
C539 C 0.29494 0.1485 0.32046 0.0
O540 O 0.29688 0.11612 0.43907 0.0
O541 O 0.27684 0.14199 0.45293 0.0
O542 O 0.29978 0.1858 0.39438 0.0
O543 O 0.27279 0.17027 0.38134 0.0
O544 O 0.32988 0.19676 0.42267 0.0
O545 O 0.31724 0.16823 0.45841 0.0
O546 O 0.33417 0.21224 0.34035 0.0
O547 O 0.34998 0.1851 0.31979 0.0
O548 O 0.33286 0.14457 0.39749 0.0
O549 O 0.35678 0.16554 0.40712 0.0
O550 O 0.29116 0.13775 0.35221 0.0
O551 O 0.30748 0.16468 0.31995 0.0
H552 H 0.30246 0.13999 0.519 0.0
H553 H 0.29885 0.13039 0.58571 0.0
H554 H 0.26286 0.07623 0.55637 0.0
H555 H 0.26611 0.08633 0.48982 0.0
H556 H 0.3694 0.20458 0.25625 0.0
H557 H 0.3635 0.2209 0.19207 0.0
H558 H 0.30497 0.24416 0.21832 0.0
H559 H 0.31107 0.228 0.28259 0.0
Pr560 Pr 0.57492 0.5613 0.26726 0.0
Pr561 Pr 0.55514 0.59825 0.2156 0.0
C562 C 0.59712 0.53235 0.31314 0.0
C563 C 0.59589 0.52249 0.35196 0.0
C564 C 0.58891 0.50149 0.3577 0.0
C565 C 0.58691 0.49223 0.394 0.0
C566 C 0.59203 0.50364 0.42565 0.0
C567 C 0.59931 0.52457 0.41991 0.0
C568 C 0.60122 0.53388 0.38353 0.0
C569 C 0.53472 0.55446 0.24529 0.0
C570 C 0.54284 0.59394 0.30272 0.0
C571 C 0.53679 0.62585 0.16182 0.0
C572 C 0.52928 0.62635 0.12208 0.0
C573 C 0.51978 0.64502 0.10466 0.0
C574 C 0.51328 0.64612 0.0665 0.0
C575 C 0.51628 0.62856 0.045 0.0
C576 C 0.52564 0.60975 0.06277 0.0
C577 C 0.53201 0.60863 0.10103 0.0
C578 C 0.58904 0.60918 0.26044 0.0
C579 C 0.57756 0.55872 0.1743 0.0
O580 O 0.60157 0.55267 0.30919 0.0
O581 O 0.58329 0.52697 0.28785 0.0
O582 O 0.54756 0.56274 0.22454 0.0
O583 O 0.54249 0.55065 0.27956 0.0
O584 O 0.53571 0.59908 0.26769 0.0
O585 O 0.55999 0.58274 0.31009 0.0
O586 O 0.52686 0.61405 0.18583 0.0
O587 O 0.55643 0.62431 0.16867 0.0
O588 O 0.58763 0.59247 0.24298 0.0
O589 O 0.57301 0.62132 0.25413 0.0
O590 O 0.58332 0.54966 0.20822 0.0
O591 O 0.56712 0.57699 0.17022 0.0
H592 H 0.58473 0.49225 0.33401 0.0
H593 H 0.58097 0.47622 0.39713 0.0
H594 H 0.60372 0.53374 0.44353 0.0
H595 H 0.60678 0.55006 0.38023 0.0
H596 H 0.5176 0.65888 0.12048 0.0
H597 H 0.50634 0.66091 0.05364 0.0
H598 H 0.52795 0.59585 0.04716 0.0
H599 H 0.53918 0.59402 0.11411 0.0
Pr600 Pr 0.18351 0.83238 1.00365 0.0
Pr601 Pr 0.15426 0.80402 0.96062 0.0
C602 C 0.20392 0.85672 0.05222 0.0
C603 C 0.21065 0.85809 0.09223 0.0
C604 C 0.23142 0.85637 0.10272 0.0
C605 C 0.23865 0.85781 0.13992 0.0
C606 C 0.22533 0.86135 0.16776 0.0
C607 C 0.20443 0.86306 0.15733 0.0
C608 C 0.19714 0.86146 0.11985 0.0
C609 C 0.20289 0.80258 0.96403 0.0
C610 C 0.16612 0.78737 0.04713 0.0
C611 C 0.13426 0.78068 0.90963 0.0
C612 C 0.13606 0.77432 0.87093 0.0
C613 C 0.12046 0.76294 0.85347 0.0
C614 C 0.12198 0.75633 0.81719 0.0
C615 C 0.13919 0.76093 0.79735 0.0
C616 C 0.15476 0.77259 0.81492 0.0
C617 C 0.15322 0.77918 0.85132 0.0
C618 C 0.13573 0.83071 1.00879 0.0
C619 C 0.17896 0.84236 0.91275 0.0
O620 O 0.18487 0.8603 0.04102 0.0
O621 O 0.21225 0.84141 0.03542 0.0
O622 O 0.1876 0.79863 0.98234 0.0
O623 O 0.20895 0.82202 0.96706 0.0
O624 O 0.16017 0.78078 1.01403 0.0
O625 O 0.1736 0.80672 0.05066 0.0
O626 O 0.14769 0.77244 0.93552 0.0
O627 O 0.12999 0.80088 0.91339 0.0
O628 O 0.1496 0.83639 0.98765 0.0
O629 O 0.1297 0.81166 1.00192 0.0
O630 O 0.18334 0.85164 0.94431 0.0
O631 O 0.16979 0.82384 0.91306 0.0
H632 H 0.24217 0.85383 0.082 0.0
H633 H 0.25476 0.85588 0.14686 0.0
H634 H 0.19375 0.86591 0.17797 0.0
H635 H 0.18103 0.86293 0.11256 0.0
H636 H 0.10705 0.75908 0.86798 0.0
H637 H 0.10951 0.74777 0.80455 0.0
H638 H 0.16833 0.77629 0.80086 0.0
H639 H 0.16548 0.78793 0.86427 0.0
Pr640 Pr 0.56619 0.90648 0.65044 0.0
Pr641 Pr 0.59346 0.9346 0.60254 0.0
C642 C 0.54964 0.8815 0.70461 0.0
C643 C 0.54968 0.87907 0.7458 0.0
C644 C 0.53685 0.86423 0.76256 0.0
C645 C 0.53441 0.86374 0.80108 0.0
C646 C 0.54473 0.87818 0.82361 0.0
C647 C 0.55816 0.89255 0.80682 0.0
C648 C 0.5606 0.893 0.76822 0.0
C649 C 0.5462 0.94365 0.6177 0.0
C650 C 0.59279 0.94591 0.68902 0.0
C651 C 0.61007 0.95854 0.5463 0.0
C652 C 0.60647 0.96797 0.50629 0.0
C653 C 0.60288 0.99017 0.49861 0.0
C654 C 0.60092 -0.00043 0.46147 0.0
C655 C 0.6026 0.98716 0.43043 0.0
C656 C 0.60616 0.96489 0.43815 0.0
C657 C 0.60806 0.95547 0.47538 0.0
C658 C 0.61443 0.9036 0.65361 0.0
C659 C 0.55815 0.90395 0.56059 0.0
O660 O 0.56608 0.87597 0.68932 0.0
O661 O 0.54127 0.89921 0.68875 0.0
O662 O 0.56438 0.94258 0.63109 0.0
O663 O 0.5386 0.92464 0.61817 0.0
O664 O 0.59599 0.9546 0.65516 0.0
O665 O 0.58369 0.92731 0.69392 0.0
O666 O 0.60018 0.96685 0.57234 0.0
O667 O 0.61294 0.93775 0.55262 0.0
O668 O 0.59819 0.90038 0.63366 0.0
O669 O 0.62156 0.92204 0.64243 0.0
O670 O 0.55634 0.89263 0.5928 0.0
O671 O 0.56979 0.92084 0.55879 0.0
H672 H 0.52812 0.85353 0.74559 0.0
H673 H 0.52376 0.85265 0.81286 0.0
H674 H 0.56655 0.90369 0.82337 0.0
H675 H 0.57049 0.90464 0.75569 0.0
H676 H 0.6019 0.00045 0.52149 0.0
H677 H 0.59855 0.01677 0.45724 0.0
H678 H 0.60734 0.95461 0.41536 0.0
H679 H 0.61099 0.93836 0.47988 0.0
Pr680 Pr 0.31951 0.31143 0.84347 0.0
Pr681 Pr 0.29065 0.34627 0.87247 0.0
C682 C 0.33905 0.28196 0.80761 0.0
C683 C 0.33788 0.27214 0.77159 0.0
C684 C 0.35087 0.25489 0.76673 0.0
C685 C 0.3506 0.24584 0.7322 0.0
C686 C 0.3373 0.25392 0.70185 0.0
C687 C 0.32421 0.27123 0.70694 0.0
C688 C 0.32449 0.28025 0.74158 0.0
C689 C 0.33865 0.34537 0.87612 0.0
C690 C 0.28904 0.34339 0.78214 0.0
C691 C 0.27501 0.37794 0.90903 0.0
C692 C 0.27042 0.38135 0.94789 0.0
C693 C 0.25025 0.38427 0.95604 0.0
C694 C 0.24533 0.38615 0.99292 0.0
C695 C 0.26054 0.38541 0.02249 0.0
C696 C 0.28083 0.38305 1.01409 0.0
C697 C 0.28573 0.38094 0.97721 0.0
C698 C 0.27189 0.30944 0.84981 0.0
C699 C 0.31169 0.30646 0.93435 0.0
O700 O 0.32497 0.27701 0.83042 0.0
O701 O 0.34374 0.30225 0.80631 0.0
O702 O 0.32277 0.34708 0.85423 0.0
O703 O 0.34632 0.32613 0.87713 0.0
O704 O 0.28725 0.35716 0.8081 0.0
O705 O 0.29871 0.32472 0.79007 0.0
O706 O 0.29407 0.37695 0.9018 0.0
O707 O 0.26391 0.36397 0.89209 0.0
O708 O 0.28887 0.31044 0.86737 0.0
O709 O 0.26277 0.32814 0.84659 0.0
O710 O 0.31825 0.2965 0.90587 0.0
O711 O 0.30234 0.32557 0.9289 0.0
H712 H 0.3614 0.24855 0.78957 0.0
H713 H 0.36104 0.23273 0.72911 0.0
H714 H 0.31362 0.27765 0.6843 0.0
H715 H 0.31436 0.2936 0.7449 0.0
H716 H 0.23819 0.38464 0.9339 0.0
H717 H 0.22954 0.38762 0.99829 0.0
H718 H 0.29298 0.38279 0.036 0.0
H719 H 0.30146 0.37875 0.97183 0.0
Pr720 Pr 0.94213 0.0892 0.10919 0.0
Pr721 Pr 0.91354 0.06047 0.06366 0.0
C722 C 0.95993 0.11504 0.15842 0.0
C723 C 0.963 0.11623 0.19934 0.0
C724 C 0.98166 0.12305 0.21443 0.0
C725 C 0.98589 0.12243 0.25326 0.0
C726 C 0.97152 0.11494 0.27788 0.0
C727 C 0.95253 0.10871 0.26268 0.0
C728 C 0.94833 0.10926 0.22367 0.0
C729 C 0.96019 0.05035 0.09404 0.0
C730 C 0.91474 0.05195 0.15496 0.0
C731 C 0.89585 0.03514 1.01289 0.0
C732 C 0.89868 0.02534 0.97675 0.0
C733 C 0.89355 0.00384 0.97318 0.0
C734 C 0.89501 0.9944 0.93905 0.0
C735 C 0.90164 0.00618 0.90723 0.0
C736 C 0.90691 0.02775 0.91096 0.0
C737 C 0.90547 0.03718 0.94523 0.0
C738 C 0.89404 0.09377 0.09682 0.0
C739 C 0.94826 0.09046 0.02045 0.0
O740 O 0.9417 0.11861 0.1426 0.0
O741 O 0.96935 0.09923 0.14489 0.0
O742 O 0.94224 0.05286 0.10252 0.0
O743 O 0.96897 0.06875 0.09106 0.0
O744 O 0.91041 0.04284 0.12314 0.0
O745 O 0.92491 0.07 0.15588 0.0
O746 O 0.90685 0.02752 0.04296 0.0
O747 O 0.89278 0.05593 1.01183 0.0
O748 O 0.91052 0.09549 0.08075 0.0
O749 O 0.88591 0.07557 0.09001 0.0
O750 O 0.9501 0.10244 0.04928 0.0
O751 O 0.93706 0.0732 0.02136 0.0
H752 H 0.99317 0.12846 0.19611 0.0
H753 H 0.00051 0.12768 0.26403 0.0
H754 H 0.94118 0.10276 0.28089 0.0
H755 H 0.93384 0.1038 0.21257 0.0
H756 H 0.8881 0.99434 0.9968 0.0
H757 H 0.8905 0.97791 0.93747 0.0
H758 H 0.91234 0.03734 0.88746 0.0
H759 H 0.90958 0.05379 0.94697 0.0
Pr760 Pr 0.16913 0.68121 0.36869 0.0
Pr761 Pr 0.198 0.65328 0.32685 0.0
C762 C 0.14458 0.69649 0.41833 0.0
C763 C 0.14555 0.70183 0.45818 0.0
C764 C 0.16239 0.71192 0.47465 0.0
C765 C 0.16259 0.71775 0.5118 0.0
C766 C 0.14599 0.71356 0.53353 0.0
C767 C 0.12934 0.703 0.51709 0.0
C768 C 0.12915 0.69723 0.47992 0.0
C769 C 0.20398 0.70235 0.34929 0.0
C770 C 0.20656 0.65114 0.41758 0.0
C771 C 0.2228 0.63571 0.27982 0.0
C772 C 0.23078 0.6376 0.2418 0.0
C773 C 0.22963 0.62003 0.21947 0.0
C774 C 0.23871 0.62056 0.18515 0.0
C775 C 0.24934 0.63865 0.17224 0.0
C776 C 0.25002 0.65646 0.19426 0.0
C777 C 0.24089 0.65595 0.22854 0.0
C778 C 0.16448 0.63288 0.35602 0.0
C779 C 0.16577 0.68872 0.27857 0.0
O780 O 0.14579 0.67622 0.41201 0.0
O781 O 0.15441 0.70875 0.39499 0.0
O782 O 0.20329 0.68285 0.36115 0.0
O783 O 0.18596 0.71098 0.34544 0.0
O784 O 0.21496 0.64767 0.38618 0.0
O785 O 0.18894 0.66142 0.4174 0.0
O786 O 0.22871 0.64951 0.30391 0.0
O787 O 0.20403 0.63005 0.28259 0.0
O788 O 0.16437 0.65102 0.33815 0.0
O789 O 0.18238 0.62399 0.35727 0.0
O790 O 0.15474 0.68936 0.3078 0.0
O791 O 0.18349 0.67864 0.28087 0.0
H792 H 0.17537 0.71546 0.45872 0.0
H793 H 0.17583 0.72546 0.52354 0.0
H794 H 0.11619 0.69964 0.53261 0.0
H795 H 0.116 0.68941 0.46795 0.0
H796 H 0.22211 0.6056 0.22906 0.0
H797 H 0.23797 0.60645 0.16937 0.0
H798 H 0.25773 0.67085 0.1851 0.0
H799 H 0.24205 0.6698 0.24491 0.0
Pr800 Pr 0.54758 0.08706 0.10584 0.0
Pr801 Pr 0.58111 0.06183 0.07123 0.0
C802 C 0.51983 0.10524 0.14551 0.0
C803 C 0.51184 0.1036 0.18287 0.0
C804 C 0.50708 0.12247 0.19937 0.0
C805 C 0.49956 0.12154 0.23485 0.0
C806 C 0.49651 0.10166 0.25456 0.0
C807 C 0.50135 0.08272 0.23789 0.0
C808 C 0.50902 0.08368 0.20239 0.0
C809 C 0.57776 0.11128 0.07251 0.0
C810 C 0.58087 0.05817 0.1641 0.0
C811 C 0.61082 0.05107 0.02812 0.0
C812 C 0.61217 0.04003 0.99352 0.0
C813 C 0.60005 0.02237 0.98658 0.0
C814 C 0.60081 0.01254 0.95299 0.0
C815 C 0.61357 0.02027 0.92553 0.0
C816 C 0.62559 0.03809 0.93243 0.0
C817 C 0.62491 0.04786 0.96624 0.0
C818 C 0.55147 0.03568 0.09646 0.0
C819 C 0.53853 0.0799 1.0168 0.0
O820 O 0.51571 0.08977 0.12364 0.0
O821 O 0.53824 0.11225 0.14377 0.0
O822 O 0.58059 0.09452 0.09426 0.0
O823 O 0.55869 0.11653 0.06888 0.0
O824 O 0.59304 0.05755 0.13615 0.0
O825 O 0.56238 0.06633 0.15798 0.0
O826 O 0.60141 0.06965 0.02411 0.0
O827 O 0.60627 0.03939 0.05808 0.0
O828 O 0.54826 0.05427 0.08065 0.0
O829 O 0.57002 0.02904 0.0952 0.0
O830 O 0.53048 0.08524 0.0475 0.0
O831 O 0.55738 0.07195 1.01806 0.0
H832 H 0.5093 0.13799 0.18482 0.0
H833 H 0.49643 0.13645 0.24705 0.0
H834 H 0.49904 0.06714 0.25205 0.0
H835 H 0.51271 0.06889 0.19023 0.0
H836 H 0.5898 0.01631 1.00692 0.0
H837 H 0.59107 -0.00088 0.9482 0.0
H838 H 0.6356 0.04436 0.91185 0.0
H839 H 0.6342 0.06164 0.97097 0.0
Pr840 Pr 0.16694 0.32019 0.48957 0.0
Pr841 Pr 0.19645 0.35179 0.45116 0.0
C842 C 0.15049 0.29279 0.54074 0.0
C843 C 0.15523 0.28282 0.57998 0.0
C844 C 0.14172 0.28567 0.60782 0.0
C845 C 0.14549 0.27603 0.64454 0.0
C846 C 0.16291 0.26307 0.65473 0.0
C847 C 0.17648 0.26028 0.62678 0.0
C848 C 0.17273 0.27002 0.59005 0.0
C849 C 0.14729 0.35166 0.4385 0.0
C850 C 0.19944 0.34979 0.54142 0.0
C851 C 0.21441 0.38068 0.40544 0.0
C852 C 0.21596 0.38559 0.36511 0.0
C853 C 0.23336 0.39554 0.3531 0.0
C854 C 0.23676 0.39758 0.31504 0.0
C855 C 0.22276 0.38973 0.28834 0.0
C856 C 0.20482 0.38066 0.30026 0.0
C857 C 0.20151 0.37845 0.33851 0.0
C858 C 0.21469 0.31264 0.48096 0.0
C859 C 0.17393 0.31368 0.40191 0.0
O860 O 0.16113 0.28644 0.51393 0.0
O861 O 0.14609 0.31341 0.53675 0.0
O862 O 0.16271 0.35497 0.46086 0.0
O863 O 0.13976 0.33318 0.44844 0.0
O864 O 0.20182 0.36321 0.51194 0.0
O865 O 0.18869 0.33239 0.53805 0.0
O866 O 0.19701 0.38438 0.41896 0.0
O867 O 0.22302 0.36262 0.4192 0.0
O868 O 0.19729 0.31547 0.46507 0.0
O869 O 0.22359 0.33101 0.482 0.0
O870 O 0.16847 0.30349 0.43336 0.0
O871 O 0.18261 0.33267 0.40163 0.0
H872 H 0.12803 0.29527 0.60108 0.0
H873 H 0.13447 0.27844 0.66478 0.0
H874 H 0.19019 0.25072 0.63334 0.0
H875 H 0.18358 0.26747 0.56953 0.0
H876 H 0.2447 0.40103 0.37332 0.0
H877 H 0.25059 0.40483 0.30652 0.0
H878 H 0.19386 0.37435 0.28026 0.0
H879 H 0.18809 0.37046 0.3474 0.0
Pr880 Pr 0.94458 0.89841 0.62485 0.0
Pr881 Pr 0.92072 0.93412 0.57219 0.0
C882 C 0.96662 0.87376 0.67815 0.0
C883 C 0.97471 0.87423 0.71739 0.0
C884 C 0.98694 0.85713 0.73386 0.0
C885 C 0.99445 0.85698 0.77136 0.0
C886 C 0.98983 0.87395 0.79323 0.0
C887 C 0.97772 0.89125 0.77635 0.0
C888 C 0.97023 0.89138 0.73873 0.0
C889 C 0.91363 0.88379 0.57736 0.0
C890 C 0.9163 0.93389 0.66544 0.0
C891 C 0.89451 0.95964 0.52738 0.0
C892 C 0.8934 0.96765 0.48756 0.0
C893 C 0.8811 0.98552 0.475 0.0
C894 C 0.88093 0.99404 0.43769 0.0
C895 C 0.8931 0.98483 0.41225 0.0
C896 C 0.9051 0.9666 0.42487 0.0
C897 C 0.90529 0.95813 0.46221 0.0
C898 C 0.95924 0.9449 0.59827 0.0
C899 C 0.9572 0.90658 0.53766 0.0
O900 O 0.97471 0.88689 0.6534 0.0
O901 O 0.94695 0.87247 0.67248 0.0
O902 O 0.91263 0.90054 0.59466 0.0
O903 O 0.93026 0.87299 0.5866 0.0
O904 O 0.91039 0.94309 0.63164 0.0
O905 O 0.9286 0.91691 0.66956 0.0
O906 O 0.89195 0.93907 0.53429 0.0
O907 O 0.90921 0.96705 0.54869 0.0
O908 O 0.94669 0.93469 0.6169 0.0
O909 O 0.95168 0.95066 0.56436 0.0
O910 O 0.96423 0.90166 0.57287 0.0
O911 O 0.93905 0.91571 0.52955 0.0
H912 H 0.99063 0.84382 0.7177 0.0
H913 H 0.004 0.8436 0.78316 0.0
H914 H 0.97369 0.90447 0.7924 0.0
H915 H 0.96082 0.90476 0.7264 0.0
H916 H 0.87184 0.99308 0.49419 0.0
H917 H 0.87133 0.00792 0.42882 0.0
H918 H 0.91485 0.95926 0.40623 0.0
H919 H 0.915 0.94438 0.47148 0.0
Pr920 Pr 0.34316 0.69086 0.88273 0.0
Pr921 Pr 0.31489 0.66154 0.83899 0.0
C922 C 0.36233 0.71495 0.9335 0.0
C923 C 0.3606 0.72115 0.9723 0.0
C924 C 0.37639 0.73217 0.98998 0.0
C925 C 0.37497 0.73866 0.02635 0.0
C926 C 0.35766 0.73431 0.04606 0.0
C927 C 0.34191 0.72299 0.02829 0.0
C928 C 0.34336 0.7165 0.9918 0.0
C929 C 0.36269 0.6647 0.83517 0.0
C930 C 0.31863 0.65221 0.93039 0.0
C931 C 0.2961 0.6361 0.79031 0.0
C932 C 0.29234 0.63321 0.75007 0.0
C933 C 0.28077 0.61589 0.73922 0.0
C934 C 0.27378 0.61474 0.70169 0.0
C935 C 0.27823 0.63095 0.67429 0.0
C936 C 0.29087 0.64767 0.68494 0.0
C937 C 0.29782 0.64884 0.72263 0.0
C938 C 0.29452 0.69095 0.87788 0.0
C939 C 0.33191 0.70681 0.79576 0.0
O940 O 0.34845 0.72262 0.90798 0.0
O941 O 0.36741 0.69496 0.92961 0.0
O942 O 0.34874 0.65865 0.85584 0.0
O943 O 0.36826 0.68387 0.84222 0.0
O944 O 0.31417 0.64294 0.89884 0.0
O945 O 0.32796 0.67064 0.93018 0.0
O946 O 0.31424 0.63171 0.80618 0.0
O947 O 0.28777 0.6532 0.80193 0.0
O948 O 0.30988 0.69515 0.85995 0.0
O949 O 0.28871 0.67144 0.87448 0.0
O950 O 0.33705 0.71373 0.82897 0.0
O951 O 0.32518 0.68715 0.79218 0.0
H952 H 0.38987 0.73584 0.97556 0.0
H953 H 0.38758 0.74694 0.03914 0.0
H954 H 0.32827 0.71948 0.04226 0.0
H955 H 0.33097 0.708 0.9787 0.0
H956 H 0.27637 0.60371 0.76005 0.0
H957 H 0.26435 0.60149 0.6943 0.0
H958 H 0.29447 0.66046 0.66456 0.0
H959 H 0.30665 0.66242 0.7306 0.0
Pr960 Pr 0.40863 0.05572 0.74086 0.0
Pr961 Pr 0.43604 0.08271 0.69237 0.0
C962 C 0.39152 0.03268 0.79747 0.0
C963 C 0.39525 0.02285 0.83712 0.0
C964 C 0.39736 0.00044 0.84405 0.0
C965 C 0.39951 0.99073 0.88091 0.0
C966 C 0.39952 0.00304 0.91239 0.0
C967 C 0.39741 0.02551 0.90544 0.0
C968 C 0.39531 0.03525 0.86846 0.0
C969 C 0.38783 0.08606 0.68815 0.0
C970 C 0.44409 0.0866 0.78165 0.0
C971 C 0.45233 0.10635 0.63644 0.0
C972 C 0.45103 0.10695 0.59521 0.0
C973 C 0.44528 0.0887 0.57683 0.0
C974 C 0.4467 0.08828 0.53817 0.0
C975 C 0.4538 0.10614 0.51718 0.0
C976 C 0.4585 0.1248 0.53538 0.0
C977 C 0.45719 0.12516 0.57416 0.0
C978 C 0.45601 0.04601 0.72722 0.0
C979 C 0.40995 0.04237 0.65588 0.0
O980 O 0.40053 0.02392 0.77084 0.0
O981 O 0.38976 0.0536 0.79168 0.0
O982 O 0.404 0.0895 0.7081 0.0
O983 O 0.3807 0.06773 0.69985 0.0
O984 O 0.44576 0.09758 0.74906 0.0
O985 O 0.4325 0.06968 0.78409 0.0
O986 O 0.43636 0.1127 0.65226 0.0
O987 O 0.46094 0.08912 0.65376 0.0
O988 O 0.43789 0.0469 0.7135 0.0
O989 O 0.46357 0.06506 0.72586 0.0
O990 O 0.40683 0.03436 0.69015 0.0
O991 O 0.41865 0.06111 0.64986 0.0
H992 H 0.39703 0.99028 0.82081 0.0
H993 H 0.40072 0.97341 0.88463 0.0
H994 H 0.39755 0.03568 0.92863 0.0
H995 H 0.39358 0.05253 0.8645 0.0
H996 H 0.44045 0.07447 0.59256 0.0
H997 H 0.4427 0.07379 0.52483 0.0
H998 H 0.46413 0.13877 0.51997 0.0
H999 H 0.4617 0.13937 0.58791 0.0
Pr1000 Pr 0.72529 0.64189 0.46515 0.0
Pr1001 Pr 0.71155 0.68572 0.49621 0.0
C1002 C 0.72808 0.60282 0.43932 0.0
C1003 C 0.73332 0.5949 0.40328 0.0
C1004 C 0.75228 0.59892 0.38936 0.0
C1005 C 0.75631 0.59328 0.3536 0.0
C1006 C 0.74147 0.58358 0.33087 0.0
C1007 C 0.7227 0.579 0.34527 0.0
C1008 C 0.7187 0.58456 0.38116 0.0
C1009 C 0.75454 0.6731 0.46645 0.0
C1010 C 0.71456 0.68501 0.40392 0.0
C1011 C 0.70387 0.72054 0.53317 0.0
C1012 C 0.70847 0.72991 0.56919 0.0
C1013 C 0.70258 0.75119 0.57273 0.0
C1014 C 0.70475 0.75988 0.60757 0.0
C1015 C 0.71293 0.74745 0.63968 0.0
C1016 C 0.7194 0.72623 0.63573 0.0
C1017 C 0.71718 0.71753 0.60075 0.0
C1018 C 0.68081 0.66256 0.46206 0.0
C1019 C 0.73021 0.64605 0.5583 0.0
O1020 O 0.71097 0.61365 0.43836 0.0
O1021 O 0.74267 0.61102 0.46004 0.0
O1022 O 0.74216 0.66911 0.49114 0.0
O1023 O 0.75306 0.65917 0.44114 0.0
O1024 O 0.7157 0.6973 0.43276 0.0
O1025 O 0.7154 0.66369 0.40921 0.0
O1026 O 0.71836 0.71975 0.51029 0.0
O1027 O 0.69273 0.70343 0.53427 0.0
O1028 O 0.69534 0.65437 0.48356 0.0
O1029 O 0.68099 0.68328 0.46132 0.0
O1030 O 0.73294 0.63365 0.5305 0.0
O1031 O 0.72187 0.66543 0.55235 0.0
H1032 H 0.76386 0.60698 0.40557 0.0
H1033 H 0.77082 0.5973 0.34321 0.0
H1034 H 0.71103 0.57134 0.32862 0.0
H1035 H 0.70397 0.58128 0.39127 0.0
H1036 H 0.6957 0.76092 0.54872 0.0
H1037 H 0.6993 0.77614 0.60952 0.0
H1038 H 0.72599 0.71629 0.65971 0.0
H1039 H 0.72183 0.70102 0.59851 0.0
Pr1040 Pr 0.08411 0.927 0.28482 0.0
Pr1041 Pr 0.05533 0.89878 0.2382 0.0
C1042 C 0.10183 0.95224 0.33561 0.0
C1043 C 0.09897 0.96195 0.37176 0.0
C1044 C 0.10449 0.9833 0.37572 0.0
C1045 C 0.10292 0.99266 0.40986 0.0
C1046 C 0.09578 0.98094 0.44126 0.0
C1047 C 0.09012 0.95953 0.43714 0.0
C1048 C 0.09167 0.95017 0.40285 0.0
C1049 C 0.10355 0.89378 0.25149 0.0
C1050 C 0.04876 0.89724 0.32708 0.0
C1051 C 0.03717 0.87368 0.18808 0.0
C1052 C 0.03715 0.87021 0.14793 0.0
C1053 C 0.02256 0.85702 0.13199 0.0
C1054 C 0.02035 0.85579 0.0931 0.0
C1055 C 0.03267 0.86785 0.06934 0.0
C1056 C 0.04781 0.8805 0.08563 0.0
C1057 C 0.05004 0.88165 0.12464 0.0
C1058 C 0.03764 0.93755 0.2548 0.0
C1059 C 0.08386 0.93532 0.19397 0.0
O1060 O 0.0908 0.9599 0.30562 0.0
O1061 O 0.1049 0.93145 0.33662 0.0
O1062 O 0.08686 0.89215 0.26687 0.0
O1063 O 0.11186 0.91178 0.25901 0.0
O1064 O 0.04629 0.88583 0.29758 0.0
O1065 O 0.06067 0.91396 0.32704 0.0
O1066 O 0.05323 0.8675 0.20974 0.0
O1067 O 0.02987 0.89222 0.19565 0.0
O1068 O 0.05549 0.93495 0.2459 0.0
O1069 O 0.02874 0.91919 0.25748 0.0
O1070 O 0.08739 0.94478 0.22562 0.0
O1071 O 0.07409 0.91705 0.19289 0.0
H1072 H 0.11032 0.99272 0.35239 0.0
H1073 H 0.10773 0.00903 0.41179 0.0
H1074 H 0.0843 0.95001 0.46034 0.0
H1075 H 0.08724 0.93368 0.40075 0.0
H1076 H 0.01236 0.84825 0.14953 0.0
H1077 H 0.00839 0.84611 0.08156 0.0
H1078 H 0.05771 0.88976 0.06821 0.0
H1079 H 0.06137 0.89195 0.1365 0.0
Pr1080 Pr 0.801 0.33906 1.01876 0.0
Pr1081 Pr 0.8294 0.30922 0.97849 0.0
C1082 C 0.77693 0.35815 0.06513 0.0
C1083 C 0.76911 0.35654 0.10318 0.0
C1084 C 0.76967 0.37451 0.12454 0.0
C1085 C 0.76134 0.37387 0.15958 0.0
C1086 C 0.75217 0.35521 0.17424 0.0
C1087 C 0.75176 0.33716 0.15276 0.0
C1088 C 0.76013 0.3378 0.11779 0.0
C1089 C 0.83288 0.35896 0.98384 0.0
C1090 C 0.83387 0.30454 0.06875 0.0
C1091 C 0.85333 0.29233 0.9294 0.0
C1092 C 0.8527 0.28758 0.88929 0.0
C1093 C 0.83504 0.28044 0.87039 0.0
C1094 C 0.83509 0.27513 0.83294 0.0
C1095 C 0.85278 0.27694 0.8134 0.0
C1096 C 0.8703 0.28451 0.83236 0.0
C1097 C 0.87024 0.28974 0.86977 0.0
C1098 C 0.79526 0.28882 1.00365 0.0
C1099 C 0.79053 0.33665 0.92879 0.0
O1100 O 0.77041 0.34452 0.04115 0.0
O1101 O 0.79596 0.36284 0.0625 0.0
O1102 O 0.83403 0.34128 1.00342 0.0
O1103 O 0.81508 0.36779 0.98456 0.0
O1104 O 0.8444 0.30264 0.03917 0.0
O1105 O 0.81639 0.31516 0.06642 0.0
O1106 O 0.85367 0.31249 0.93669 0.0
O1107 O 0.84208 0.28082 0.95136 0.0
O1108 O 0.79569 0.30785 0.9892 0.0
O1109 O 0.81339 0.28035 1.00736 0.0
O1110 O 0.78335 0.34294 0.95976 0.0
O1111 O 0.80766 0.32547 0.9292 0.0
H1112 H 0.77642 0.3892 0.11393 0.0
H1113 H 0.76226 0.388 0.17528 0.0
H1114 H 0.7446 0.32257 0.16258 0.0
H1115 H 0.75934 0.32369 0.102 0.0
H1116 H 0.82121 0.27882 0.88463 0.0
H1117 H 0.82122 0.26972 0.81924 0.0
H1118 H 0.88427 0.28594 0.81858 0.0
H1119 H 0.88404 0.29524 0.88368 0.0
Pr1120 Pr 0.42144 0.93143 0.27129 0.0
Pr1121 Pr 0.45398 0.90373 0.23709 0.0
C1122 C 0.39207 0.9464 0.31138 0.0
C1123 C 0.38928 0.95088 0.35029 0.0
C1124 C 0.3728 0.96367 0.35784 0.0
C1125 C 0.37149 0.97093 0.39354 0.0
C1126 C 0.38673 0.96555 0.42223 0.0
C1127 C 0.40266 0.95167 0.41507 0.0
C1128 C 0.40395 0.94443 0.37928 0.0
C1129 C 0.45057 0.95524 0.23827 0.0
C1130 C 0.46352 0.91278 0.32548 0.0
C1131 C 0.48114 0.88413 0.19781 0.0
C1132 C 0.4887 0.88495 0.16012 0.0
C1133 C 0.50226 0.86897 0.1516 0.0
C1134 C 0.50925 0.86899 0.11568 0.0
C1135 C 0.50274 0.88499 0.08745 0.0
C1136 C 0.48929 0.9012 0.09634 0.0
C1137 C 0.48233 0.90117 0.1324 0.0
C1138 C 0.42427 0.8815 0.27531 0.0
C1139 C 0.41996 0.93216 0.17841 0.0
O1140 O 0.39382 0.9263 0.30433 0.0
O1141 O 0.40479 0.95872 0.29427 0.0
O1142 O 0.45407 0.93762 0.2575 0.0
O1143 O 0.43199 0.96198 0.23865 0.0
O1144 O 0.47156 0.90737 0.29474 0.0
O1145 O 0.44461 0.92048 0.32444 0.0
O1146 O 0.4856 0.90019 0.21813 0.0
O1147 O 0.46265 0.87754 0.20063 0.0
O1148 O 0.42128 0.89764 0.25214 0.0
O1149 O 0.4432 0.87567 0.2778 0.0
O1150 O 0.4087 0.93485 0.20708 0.0
O1151 O 0.43793 0.92258 0.18372 0.0
H1152 H 0.36134 0.96876 0.33572 0.0
H1153 H 0.35889 0.98133 0.39836 0.0
H1154 H 0.41471 0.94738 0.43648 0.0
H1155 H 0.41683 0.93459 0.37381 0.0
H1156 H 0.5074 0.85638 0.17273 0.0
H1157 H 0.51985 0.85649 0.11013 0.0
H1158 H 0.4838 0.91365 0.07526 0.0
H1159 H 0.47187 0.91367 0.13855 0.0
Pr1160 Pr 0.79403 0.63684 0.91364 0.0
Pr1161 Pr 0.8129 0.67826 0.87493 0.0
C1162 C 0.78709 0.59851 0.94912 0.0
C1163 C 0.78403 0.59137 0.98846 0.0
C1164 C 0.76724 0.57898 0.99672 0.0
C1165 C 0.7629 0.57405 0.034 0.0
C1166 C 0.77538 0.5813 0.06368 0.0
C1167 C 0.79255 0.59313 0.05534 0.0
C1168 C 0.79676 0.59824 1.01811 0.0
C1169 C 0.76685 0.67094 0.89851 0.0
C1170 C 0.80047 0.67984 0.96213 0.0
C1171 C 0.82159 0.71143 0.82568 0.0
C1172 C 0.81623 0.72015 0.78575 0.0
C1173 C 0.82005 0.70841 0.75478 0.0
C1174 C 0.81599 0.7174 0.71759 0.0
C1175 C 0.80797 0.73848 0.70993 0.0
C1176 C 0.80384 0.74999 0.74109 0.0
C1177 C 0.80792 0.741 0.77823 0.0
C1178 C 0.83921 0.65492 0.93015 0.0
C1179 C 0.79469 0.64011 0.82055 0.0
O1180 O 0.80518 0.60489 0.94184 0.0
O1181 O 0.77269 0.6107 0.9316 0.0
O1182 O 0.78052 0.66604 0.87728 0.0
O1183 O 0.76587 0.65655 0.92652 0.0
O1184 O 0.80234 0.69165 0.93015 0.0
O1185 O 0.80041 0.65854 0.96388 0.0
O1186 O 0.80784 0.71277 0.85003 0.0
O1187 O 0.83258 0.69369 0.83144 0.0
O1188 O 0.8269 0.64671 0.90637 0.0
O1189 O 0.83997 0.67546 0.92157 0.0
O1190 O 0.78824 0.62923 0.85032 0.0
O1191 O 0.80581 0.65729 0.82367 0.0
H1192 H 0.75717 0.57362 0.97428 0.0
H1193 H 0.74964 0.56478 0.0396 0.0
H1194 H 0.8023 0.5992 0.07755 0.0
H1195 H 0.80963 0.60811 1.01261 0.0
H1196 H 0.82644 0.69231 0.75921 0.0
H1197 H 0.81966 0.70792 0.69485 0.0
H1198 H 0.79732 0.76603 0.73692 0.0
H1199 H 0.80474 0.75054 0.80124 0.0
Pr1200 Pr 0.07628 0.05232 0.77628 0.0
Pr1201 Pr 0.05379 0.08905 0.72406 0.0
C1202 C 0.10183 0.02584 0.82053 0.0
C1203 C 0.10345 0.01719 0.86037 0.0
C1204 C 0.09743 0.99616 0.86982 0.0
C1205 C 0.09806 0.98804 0.90732 0.0
C1206 C 0.10496 0.00065 0.9364 0.0
C1207 C 0.11139 0.02157 0.92689 0.0
C1208 C 0.11066 0.02974 0.88931 0.0
C1209 C 0.03748 0.04301 0.74975 0.0
C1210 C 0.04044 0.08087 0.81083 0.0
C1211 C 0.03282 0.11435 0.67025 0.0
C1212 C 0.02524 0.11306 0.6309 0.0
C1213 C 0.01451 0.13049 0.61173 0.0
C1214 C 0.00748 0.1296 0.57411 0.0
C1215 C 0.01114 0.11125 0.55495 0.0
C1216 C 0.02182 0.09372 0.57448 0.0
C1217 C 0.02877 0.0946 0.61216 0.0
C1218 C 0.08545 0.10204 0.77189 0.0
C1219 C 0.08093 0.05272 0.68322 0.0
O1220 O 0.10515 0.04627 0.8136 0.0
O1221 O 0.08689 0.01899 0.79902 0.0
O1222 O 0.0503 0.0529 0.73123 0.0
O1223 O 0.04486 0.03685 0.78361 0.0
O1224 O 0.03379 0.08638 0.77561 0.0
O1225 O 0.05824 0.07096 0.81909 0.0
O1226 O 0.02417 0.10185 0.69518 0.0
O1227 O 0.05249 0.1151 0.6766 0.0
O1228 O 0.08563 0.08545 0.75412 0.0
O1229 O 0.06914 0.11352 0.76321 0.0
O1230 O 0.08635 0.04312 0.7169 0.0
O1231 O 0.06927 0.07019 0.67925 0.0
H1232 H 0.09191 0.98604 0.84819 0.0
H1233 H 0.09269 0.97199 0.91349 0.0
H1234 H 0.11707 0.03162 0.94845 0.0
H1235 H 0.11562 0.04595 0.88305 0.0
H1236 H 0.01168 0.14487 0.6258 0.0
H1237 H 0.99955 0.14348 0.55981 0.0
H1238 H 0.02469 0.07925 0.56073 0.0
H1239 H 0.03693 0.08092 0.62663 0.0
Pr1240 Pr 0.68228 0.331 0.50629 0.0
Pr1241 Pr 0.65508 0.30064 0.4636 0.0
C1242 C 0.69775 0.35732 0.55694 0.0
C1243 C 0.70393 0.35543 0.59748 0.0
C1244 C 0.71599 0.33801 0.61347 0.0
C1245 C 0.72235 0.33665 0.65156 0.0
C1246 C 0.71657 0.3525 0.67484 0.0
C1247 C 0.70411 0.36973 0.65887 0.0
C1248 C 0.69789 0.37118 0.62051 0.0
C1249 C 0.70426 0.3001 0.47394 0.0
C1250 C 0.66612 0.2852 0.55077 0.0
C1251 C 0.63588 0.27699 0.41221 0.0
C1252 C 0.63816 0.27031 0.37386 0.0
C1253 C 0.62168 0.26153 0.35407 0.0
C1254 C 0.62334 0.25524 0.31763 0.0
C1255 C 0.64157 0.25761 0.29995 0.0
C1256 C 0.65814 0.26637 0.32006 0.0
C1257 C 0.65644 0.27269 0.35659 0.0
C1258 C 0.63487 0.32869 0.50721 0.0
C1259 C 0.68197 0.33682 0.41572 0.0
O1260 O 0.67842 0.35646 0.54747 0.0
O1261 O 0.70876 0.34673 0.53548 0.0
O1262 O 0.68795 0.29649 0.48944 0.0
O1263 O 0.71025 0.31958 0.47721 0.0
O1264 O 0.66018 0.27822 0.51796 0.0
O1265 O 0.67349 0.30468 0.55365 0.0
O1266 O 0.64884 0.26884 0.43901 0.0
O1267 O 0.63164 0.29728 0.41512 0.0
O1268 O 0.64892 0.3339 0.48621 0.0
O1269 O 0.62976 0.30903 0.5029 0.0
O1270 O 0.68357 0.34831 0.44536 0.0
O1271 O 0.67353 0.31792 0.41776 0.0
H1272 H 0.72075 0.32551 0.59646 0.0
H1273 H 0.73223 0.32335 0.66249 0.0
H1274 H 0.69913 0.38207 0.67596 0.0
H1275 H 0.68843 0.38466 0.60878 0.0
H1276 H 0.60745 0.25949 0.36686 0.0
H1277 H 0.61034 0.24828 0.30349 0.0
H1278 H 0.67235 0.26869 0.30736 0.0
H1279 H 0.66936 0.27951 0.37129 0.0
H1280 H 0.11811 0.48966 0.19983 0.0
H1281 H 0.07501 0.5303 0.3849 0.0
H1282 H 0.06825 0.46054 0.25416 0.0
H1283 H 0.13821 0.53546 0.36526 0.0
H1284 H 0.06958 0.5117 0.32756 0.0
H1285 H 0.12326 0.51287 0.2522 0.0
C1286 C 0.10822 0.48824 0.22263 0.0
C1287 C 0.09281 0.47312 0.22283 0.0
C1288 C 0.08459 0.5171 0.33561 0.0
C1289 C 0.09834 0.49969 0.28195 0.0
C1290 C 0.08767 0.52791 0.36809 0.0
C1291 C 0.1071 0.53443 0.37984 0.0
C1292 C 0.10099 0.51294 0.31441 0.0
C1293 C 0.12303 0.53056 0.35726 0.0
C1294 C 0.11119 0.5014 0.25242 0.0
C1295 C 0.08043 0.47185 0.25304 0.0
N1296 N 0.11964 0.52002 0.32553 0.0
N1297 N 0.08339 0.48504 0.28124 0.0
H1298 H 0.7579 0.9238 0.75082 0.0
H1299 H 0.72296 0.90575 0.53719 0.0
H1300 H 0.69771 0.90531 0.71396 0.0
H1301 H 0.78346 0.92277 0.57472 0.0
H1302 H 0.71252 0.90904 0.60059 0.0
H1303 H 0.76652 0.9271 0.68556 0.0
C1304 C 0.74639 0.92072 0.72899 0.0
C1305 C 0.72707 0.91415 0.73801 0.0
C1306 C 0.72804 0.91223 0.59492 0.0
C1307 C 0.73699 0.91754 0.66307 0.0
C1308 C 0.73399 0.9105 0.55863 0.0
C1309 C 0.75416 0.9139 0.55063 0.0
C1310 C 0.74235 0.91739 0.62352 0.0
C1311 C 0.76784 0.91969 0.57973 0.0
C1312 C 0.75138 0.92246 0.69169 0.0
C1313 C 0.7129 0.91007 0.70844 0.0
N1314 N 0.76171 0.92115 0.61489 0.0
N1315 N 0.71818 0.91172 0.67235 0.0
H1316 H 0.43488 0.52147 0.68215 0.0
H1317 H 0.39852 0.53616 0.88703 0.0
H1318 H 0.41991 0.58276 0.72209 0.0
H1319 H 0.43384 0.48109 0.86228 0.0
H1320 H 0.40089 0.55124 0.82272 0.0
H1321 H 0.42937 0.50426 0.74447 0.0
C1322 C 0.43027 0.53127 0.70386 0.0
C1323 C 0.42784 0.55358 0.69691 0.0
C1324 C 0.40806 0.53582 0.83136 0.0
C1325 C 0.4214 0.53403 0.76787 0.0
C1326 C 0.4068 0.52721 0.86817 0.0
C1327 C 0.41623 0.50741 0.88047 0.0
C1328 C 0.41865 0.52451 0.80632 0.0
C1329 C 0.42622 0.49632 0.85417 0.0
C1330 C 0.42721 0.52146 0.73939 0.0
C1331 C 0.422 0.56552 0.72616 0.0
N1332 N 0.42723 0.50506 0.81838 0.0
N1333 N 0.41893 0.5556 0.76025 0.0
H1334 H 0.79177 0.14614 0.11537 0.0
H1335 H 0.69154 0.13551 0.98668 0.0
H1336 H 0.74119 0.10973 0.15273 0.0
H1337 H 0.749 0.14331 0.93858 0.0
H1338 H 0.70929 0.12799 0.04863 0.0
H1339 H 0.77668 0.14676 0.05077 0.0
C1340 C 0.77768 0.138 0.11005 0.0
C1341 C 0.76759 0.12819 0.1398 0.0
C1342 C 0.71804 0.13109 0.02447 0.0
C1343 C 0.7501 0.12928 0.06608 0.0
C1344 C 0.70792 0.13545 0.98917 0.0
C1345 C 0.71885 0.14001 0.95756 0.0
C1346 C 0.73923 0.13179 0.02835 0.0
C1347 C 0.74004 0.13971 0.96228 0.0
C1348 C 0.76905 0.13845 0.07317 0.0
C1349 C 0.74926 0.11807 0.131 0.0
N1350 N 0.74958 0.13598 0.99718 0.0
N1351 N 0.74098 0.11915 0.09511 0.0
H1352 H 0.90167 0.56692 0.08834 0.0
H1353 H 0.8941 0.45572 0.99318 0.0
H1354 H 0.90413 0.50591 0.1535 0.0
H1355 H 0.88286 0.51779 0.93347 0.0
H1356 H 0.89692 0.47312 0.05246 0.0
H1357 H 0.89384 0.54866 0.0317 0.0
C1358 C 0.90056 0.54962 0.09073 0.0
C1359 C 0.90377 0.53789 0.12566 0.0
C1360 C 0.89361 0.48286 0.02638 0.0
C1361 C 0.89478 0.51674 0.06056 0.0
C1362 C 0.89208 0.47297 0.99254 0.0
C1363 C 0.88827 0.4853 0.95822 0.0
C1364 C 0.89149 0.50526 0.02585 0.0
C1365 C 0.88557 0.50756 0.95915 0.0
C1366 C 0.89597 0.53918 0.05831 0.0
C1367 C 0.90177 0.51554 0.12709 0.0
N1368 N 0.88739 0.51679 0.9923 0.0
N1369 N 0.8976 0.50563 0.09488 0.0
H1370 H 0.21042 0.09741 0.76997 0.0
H1371 H 0.30431 0.10539 0.64185 0.0
H1372 H 0.27199 0.10269 0.81548 0.0
H1373 H 0.24317 0.09312 0.60049 0.0
H1374 H 0.29335 0.10332 0.70597 0.0
H1375 H 0.22261 0.0948 0.70774 0.0
C1376 C 0.22652 0.09801 0.76682 0.0
C1377 C 0.2402 0.10038 0.79788 0.0
C1378 C 0.28241 0.10086 0.68284 0.0
C1379 C 0.25433 0.09736 0.72669 0.0
C1380 C 0.28864 0.1021 0.64626 0.0
C1381 C 0.27466 0.09939 0.61572 0.0
C1382 C 0.26201 0.09709 0.68882 0.0
C1383 C 0.25457 0.095 0.62312 0.0
C1384 C 0.2335 0.0964 0.73133 0.0
C1385 C 0.26094 0.10073 0.7923 0.0
N1386 N 0.24886 0.09414 0.6588 0.0
N1387 N 0.26737 0.09941 0.75732 0.0
H1388 H 0.59909 0.46167 0.4526 0.0
H1389 H 0.5705 0.47776 0.6625 0.0
H1390 H 0.57966 0.52285 0.48735 0.0
H1391 H 0.5756 0.41613 0.61675 0.0
H1392 H 0.57696 0.49519 0.60082 0.0
H1393 H 0.59373 0.44534 0.51495 0.0
C1394 C 0.59359 0.4717 0.47321 0.0
C1395 C 0.58966 0.49371 0.46433 0.0
C1396 C 0.57665 0.47786 0.6044 0.0
C1397 C 0.5838 0.47502 0.53646 0.0
C1398 C 0.57304 0.4679 0.6396 0.0
C1399 C 0.57246 0.44544 0.64486 0.0
C1400 C 0.57996 0.46525 0.57441 0.0
C1401 C 0.57575 0.43349 0.61408 0.0
C1402 C 0.59063 0.46235 0.50897 0.0
C1403 C 0.58308 0.50589 0.49283 0.0
N1404 N 0.57942 0.44351 0.58035 0.0
N1405 N 0.58033 0.49639 0.52754 0.0
H1406 H 0.25132 0.84745 0.41084 0.0
H1407 H 0.26016 0.88047 0.19284 0.0
H1408 H 0.3081 0.85525 0.36029 0.0
H1409 H 0.20922 0.8459 0.23329 0.0
H1410 H 0.27555 0.87906 0.25691 0.0
H1411 H 0.23347 0.85449 0.34842 0.0
C1412 C 0.26 0.85098 0.3867 0.0
C1413 C 0.2812 0.85073 0.39061 0.0
C1414 C 0.26095 0.87189 0.25175 0.0
C1415 C 0.26096 0.85887 0.31959 0.0
C1416 C 0.25216 0.87258 0.21514 0.0
C1417 C 0.23351 0.86287 0.20735 0.0
C1418 C 0.25096 0.86169 0.28112 0.0
C1419 C 0.2236 0.85359 0.23781 0.0
C1420 C 0.24982 0.85484 0.35117 0.0
C1421 C 0.29174 0.85516 0.35844 0.0
N1422 N 0.23251 0.8531 0.27336 0.0
N1423 N 0.28151 0.85909 0.3243 0.0
H1424 H 0.6136 0.03936 0.8538 0.0
H1425 H 0.60012 0.92794 0.76019 0.0
H1426 H 0.61437 0.9774 0.91572 0.0
H1427 H 0.60009 0.98881 0.69489 0.0
H1428 H 0.60801 0.94604 0.81694 0.0
H1429 H 0.61149 0.0215 0.79501 0.0
C1430 C 0.61357 0.022 0.85503 0.0
C1431 C 0.61395 0.00984 0.8897 0.0
C1432 C 0.60637 0.95552 0.79028 0.0
C1433 C 0.61137 0.98937 0.8227 0.0
C1434 C 0.60175 0.94518 0.7578 0.0
C1435 C 0.59914 0.95694 0.72282 0.0
C1436 C 0.60826 0.9779 0.788 0.0
C1437 C 0.60192 0.97917 0.72136 0.0
C1438 C 0.61226 0.01183 0.82149 0.0
C1439 C 0.61372 0.98742 0.88964 0.0
N1440 N 0.60614 0.989 0.75362 0.0
N1441 N 0.61234 0.97795 0.85672 0.0
H1442 H 0.27839 0.36355 0.08599 0.0
H1443 H 0.19875 0.40232 0.22451 0.0
H1444 H 0.23025 0.4093 0.04928 0.0
H1445 H 0.25797 0.37642 0.26232 0.0
H1446 H 0.20779 0.40157 0.15922 0.0
H1447 H 0.26909 0.36495 0.15037 0.0
C1448 C 0.266 0.37407 0.0914 0.0
C1449 C 0.25518 0.38642 0.06198 0.0
C1450 C 0.2188 0.39615 0.18189 0.0
C1451 C 0.24412 0.38763 0.13578 0.0
C1452 C 0.21362 0.39648 0.21901 0.0
C1453 C 0.22771 0.38959 0.24872 0.0
C1454 C 0.23805 0.38852 0.1746 0.0
C1455 C 0.24678 0.38217 0.2402 0.0
C1456 C 0.26061 0.37473 0.1282 0.0
C1457 C 0.23888 0.39928 0.07086 0.0
N1458 N 0.25136 0.38175 0.20395 0.0
N1459 N 0.2338 0.39949 0.10695 0.0
H1460 H 0.90453 0.00994 0.17183 0.0
H1461 H 0.89397 0.02755 0.3893 0.0
H1462 H 0.91184 0.07061 0.2207 0.0
H1463 H 0.89459 0.9649 0.34634 0.0
H1464 H 0.89694 0.04374 0.32593 0.0
H1465 H 0.89741 0.99332 0.23376 0.0
C1466 C 0.90447 0.01979 0.19545 0.0
C1467 C 0.90896 0.04165 0.19114 0.0
C1468 C 0.89635 0.02645 0.33025 0.0
C1469 C 0.90084 0.02281 0.26187 0.0
C1470 C 0.8945 0.01718 0.36648 0.0
C1471 C 0.89403 0.9948 0.37329 0.0
C1472 C 0.89774 0.01331 0.30034 0.0
C1473 C 0.89514 0.98221 0.34252 0.0
C1474 C 0.9005 0.01028 0.2308 0.0
C1475 C 0.90873 0.05364 0.22274 0.0
N1476 N 0.89697 0.99163 0.30741 0.0
N1477 N 0.90479 0.04407 0.25666 0.0
H1478 H 0.24733 0.64374 0.43277 0.0
H1479 H 0.23873 0.62305 0.65436 0.0
H1480 H 0.19107 0.6452 0.48606 0.0
H1481 H 0.29464 0.64022 0.60645 0.0
H1482 H 0.22171 0.62549 0.59147 0.0
H1483 H 0.26546 0.63695 0.49486 0.0
C1484 C 0.23878 0.64236 0.45746 0.0
C1485 C 0.21766 0.64509 0.45427 0.0
C1486 C 0.23772 0.62863 0.59463 0.0
C1487 C 0.23827 0.63736 0.52518 0.0
C1488 C 0.24751 0.62707 0.63054 0.0
C1489 C 0.26819 0.63138 0.63572 0.0
C1490 C 0.24865 0.63444 0.56343 0.0
C1491 C 0.27866 0.63692 0.60376 0.0
C1492 C 0.24914 0.63864 0.49286 0.0
C1493 C 0.20736 0.64334 0.48721 0.0
N1494 N 0.26878 0.63827 0.56893 0.0
N1495 N 0.21775 0.63958 0.52123 0.0
H1496 H 0.40383 -0.0009 0.65398 0.0
H1497 H 0.37869 0.00762 0.43137 0.0
H1498 H 0.40281 0.05818 0.58325 0.0
H1499 H 0.3961 0.94783 0.49434 0.0
H1500 H 0.38191 0.02577 0.48925 0.0
H1501 H 0.39589 0.97953 0.59791 0.0
C1502 C 0.40177 0.00794 0.62674 0.0
C1503 C 0.40411 0.03025 0.62315 0.0
C1504 C 0.38492 0.00865 0.49052 0.0
C1505 C 0.39497 0.0081 0.55932 0.0
C1506 C 0.38289 -0.00178 0.45749 0.0
C1507 C 0.38711 0.97615 0.458 0.0
C1508 C 0.39117 -0.00302 0.52448 0.0
C1509 C 0.39288 0.9649 0.49267 0.0
C1510 C 0.39734 0.99678 0.59482 0.0
C1511 C 0.40137 0.04095 0.58725 0.0
N1512 N 0.39478 0.97546 0.52459 0.0
N1513 N 0.39694 0.02978 0.55678 0.0
H1514 H 0.8002 0.5692 0.12652 0.0
H1515 H 0.71548 0.59027 0.26786 0.0
H1516 H 0.73811 0.58579 0.09058 0.0
H1517 H 0.77611 0.56793 0.30419 0.0
H1518 H 0.72291 0.58653 0.20285 0.0
H1519 H 0.79128 0.56674 0.19179 0.0
C1520 C 0.78467 0.57222 0.13238 0.0
C1521 C 0.76989 0.57779 0.10309 0.0
C1522 C 0.73454 0.58225 0.22505 0.0
C1523 C 0.75956 0.57507 0.17769 0.0
C1524 C 0.73027 0.58425 0.26224 0.0
C1525 C 0.74523 0.57951 0.29158 0.0
C1526 C 0.75396 0.57553 0.21702 0.0
C1527 C 0.76422 0.57212 0.28245 0.0
C1528 C 0.77956 0.57074 0.16962 0.0
C1529 C 0.74995 0.58127 0.11225 0.0
N1530 N 0.76808 0.5705 0.246 0.0
N1531 N 0.7454 0.58004 0.14874 0.0
H1532 H 0.09183 0.91522 0.13183 0.0
H1533 H 0.0956 0.02196 0.99776 0.0
H1534 H 0.09029 0.97794 0.17431 0.0
H1535 H 0.11426 0.9597 0.96653 0.0
H1536 H 0.09343 0.00672 0.06229 0.0
H1537 H 0.09961 0.93155 0.07085 0.0
C1538 C 0.09324 0.93247 0.12836 0.0
C1539 C 0.09031 0.94527 0.15815 0.0
C1540 C 0.09816 0.99647 0.04133 0.0
C1541 C 0.09905 0.96418 0.08801 0.0
C1542 C 0.09949 0.00516 1.00446 0.0
C1543 C 0.10494 0.99207 0.97639 0.0
C1544 C 0.10211 0.97449 0.05017 0.0
C1545 C 0.10953 0.97035 0.98686 0.0
C1546 C 0.09776 0.9418 0.0935 0.0
C1547 C 0.0925 0.96751 0.15208 0.0
N1548 N 0.10785 0.96224 0.02274 0.0
N1549 N 0.0965 0.97632 0.11749 0.0
H1550 H 0.72783 0.38546 0.71865 0.0
H1551 H 0.78841 0.30969 0.8731 0.0
H1552 H 0.72273 0.31653 0.72348 0.0
H1553 H 0.76442 0.37008 0.90301 0.0
H1554 H 0.76791 0.31391 0.81362 0.0
H1555 H 0.74372 0.3822 0.78285 0.0
C1556 C 0.72974 0.36968 0.73323 0.0
C1557 C 0.72419 0.3512 0.71517 0.0
C1558 C 0.76707 0.32622 0.83321 0.0
C1559 C 0.74281 0.34748 0.78812 0.0
C1560 C 0.77889 0.32394 0.867 0.0
C1561 C 0.77816 0.33965 0.89284 0.0
C1562 C 0.75474 0.34458 0.8247 0.0
C1563 C 0.76535 0.35763 0.88374 0.0
C1564 C 0.73889 0.36788 0.76981 0.0
C1565 C 0.7273 0.3312 0.73559 0.0
N1566 N 0.75427 0.35978 0.85004 0.0
N1567 N 0.73667 0.32986 0.77067 0.0
H1568 H 0.12341 0.33567 0.38234 0.0
H1569 H 0.13811 0.4304 0.22169 0.0
H1570 H 0.15901 0.39111 0.40333 0.0
H1571 H 0.10164 0.37521 0.20392 0.0
H1572 H 0.14637 0.41645 0.28696 0.0
H1573 H 0.11554 0.35013 0.31778 0.0
C1574 C 0.12965 0.35098 0.37358 0.0
C1575 C 0.14221 0.36195 0.39902 0.0
C1576 C 0.13651 0.40736 0.26895 0.0
C1577 C 0.13305 0.37887 0.32324 0.0
C1578 C 0.1318 0.41528 0.23135 0.0
C1579 C 0.11892 0.40414 0.20672 0.0
C1580 C 0.12841 0.38793 0.28277 0.0
C1581 C 0.11131 0.38465 0.22157 0.0
C1582 C 0.12513 0.35922 0.33625 0.0
C1583 C 0.14965 0.38174 0.38506 0.0
N1584 N 0.11612 0.37727 0.25829 0.0
N1585 N 0.14502 0.38949 0.34836 0.0
H1586 H 0.90085 0.90496 0.51033 0.0
H1587 H 0.83695 0.80659 0.44389 0.0
H1588 H 0.89297 0.84688 0.57955 0.0
H1589 H 0.83195 0.86879 0.38262 0.0
H1590 H 0.85818 0.8215 0.49272 0.0
H1591 H 0.87611 0.89284 0.46274 0.0
C1592 C 0.89331 0.89004 0.51604 0.0
C1593 C 0.89819 0.87728 0.54939 0.0
C1594 C 0.85247 0.83202 0.46876 0.0
C1595 C 0.87088 0.86272 0.49454 0.0
C1596 C 0.84041 0.82347 0.4406 0.0
C1597 C 0.83276 0.8365 0.40901 0.0
C1598 C 0.85726 0.85377 0.46532 0.0
C1599 C 0.83757 0.85827 0.40661 0.0
C1600 C 0.87948 0.88294 0.48864 0.0
C1601 C 0.88928 0.85728 0.55434 0.0
N1602 N 0.84969 0.86627 0.43441 0.0
N1603 N 0.87604 0.8506 0.52718 0.0
H1604 H 0.38343 0.68284 0.77823 0.0
H1605 H 0.38272 0.57941 0.65871 0.0
H1606 H 0.35478 0.62391 0.81254 0.0
H1607 H 0.4041 0.64077 0.61711 0.0
H1608 H 0.37258 0.59533 0.71474 0.0
H1609 H 0.39191 0.66753 0.72038 0.0
C1610 C 0.37895 0.6666 0.77372 0.0
C1611 C 0.36831 0.65468 0.80055 0.0
C1612 C 0.37946 0.6054 0.69346 0.0
C1613 C 0.37799 0.63697 0.73356 0.0
C1614 C 0.38523 0.59634 0.66116 0.0
C1615 C 0.39481 0.60863 0.63325 0.0
C1616 C 0.38316 0.62708 0.69831 0.0
C1617 C 0.39744 0.63048 0.63834 0.0
C1618 C 0.38373 0.65791 0.74042 0.0
C1619 C 0.36285 0.63378 0.79271 0.0
N1620 N 0.39184 0.63895 0.67029 0.0
N1621 N 0.36779 0.6256 0.76009 0.0
H1622 H 0.67539 0.10657 0.92658 0.0
H1623 H 0.56762 0.13088 1.00289 0.0
H1624 H 0.62724 0.14166 0.86012 0.0
H1625 H 0.61872 0.10473 0.07388 0.0
H1626 H 0.589 0.13468 0.95019 0.0
H1627 H 0.6542 0.10386 0.97982 0.0
C1628 C 0.66019 0.11334 0.92297 0.0
C1629 C 0.65302 0.12438 0.88892 0.0
C1630 C 0.59563 0.12831 0.97734 0.0
C1631 C 0.62882 0.12165 0.94993 0.0
C1632 C 0.58346 0.12631 1.00758 0.0
C1633 C 0.5914 0.11729 0.04274 0.0
C1634 C 0.6159 0.12123 0.98224 0.0
C1635 C 0.61202 0.11165 0.04715 0.0
C1636 C 0.6482 0.11203 0.95354 0.0
C1637 C 0.6333 0.13301 0.88593 0.0
N1638 N 0.62353 0.11348 1.01712 0.0
N1639 N 0.6219 0.13153 0.91609 0.0
H1640 H 0.11894 0.61518 0.57511 0.0
H1641 H 0.12433 0.64331 0.35429 0.0
H1642 H 0.06587 0.62907 0.49997 0.0
H1643 H 0.17307 0.61233 0.42547 0.0
H1644 H 0.10285 0.64054 0.40743 0.0
H1645 H 0.13978 0.61813 0.52112 0.0
C1646 C 0.11175 0.61918 0.54728 0.0
C1647 C 0.09071 0.62172 0.54189 0.0
C1648 C 0.11817 0.63414 0.41129 0.0
C1649 C 0.11428 0.62487 0.48007 0.0
C1650 C 0.13035 0.63558 0.38094 0.0
C1651 C 0.15043 0.62799 0.38553 0.0
C1652 C 0.12629 0.62538 0.44658 0.0
C1653 C 0.15762 0.61827 0.42067 0.0
C1654 C 0.12358 0.62066 0.51647 0.0
C1655 C 0.08208 0.62698 0.50533 0.0
N1656 N 0.14564 0.61748 0.44996 0.0
N1657 N 0.09388 0.62824 0.47576 0.0
H1658 H 0.60535 0.86319 0.68696 0.0
H1659 H 0.65958 0.8829 0.89095 0.0
H1660 H 0.638 0.92035 0.70974 0.0
H1661 H 0.6447 0.81997 0.85785 0.0
H1662 H 0.64838 0.89793 0.82708 0.0
H1663 H 0.61589 0.84806 0.75133 0.0
C1664 C 0.61463 0.87261 0.70535 0.0
C1665 C 0.6207 0.89316 0.69241 0.0
C1666 C 0.64761 0.8808 0.83374 0.0
C1667 C 0.63283 0.87592 0.76681 0.0
C1668 C 0.65427 0.87218 0.87028 0.0
C1669 C 0.65375 0.84999 0.88002 0.0
C1670 C 0.63983 0.86729 0.80652 0.0
C1671 C 0.64559 0.83714 0.85201 0.0
C1672 C 0.62074 0.86393 0.74219 0.0
C1673 C 0.63295 0.90442 0.71793 0.0
N1674 N 0.63902 0.84589 0.81695 0.0
N1675 N 0.63844 0.8958 0.75353 0.0
H1676 H 0.37781 0.37416 0.09754 0.0
H1677 H 0.33856 0.38927 0.88054 0.0
H1678 H 0.40006 0.42274 0.01985 0.0
H1679 H 0.34675 0.32909 0.9475 0.0
H1680 H 0.34857 0.40809 0.93719 0.0
H1681 H 0.35267 0.36475 0.04804 0.0
C1682 C 0.37699 0.38328 0.0705 0.0
C1683 C 0.39122 0.39892 0.06239 0.0
C1684 C 0.34757 0.39078 0.93935 0.0
C1685 C 0.36271 0.38839 1.00616 0.0
C1686 C 0.34198 0.38012 0.9072 0.0
C1687 C 0.34203 0.35767 0.90941 0.0
C1688 C 0.35264 0.37876 0.97366 0.0
C1689 C 0.34654 0.34642 0.94449 0.0
C1690 C 0.3627 0.37792 0.04233 0.0
C1691 C 0.38948 0.41037 0.02698 0.0
N1692 N 0.35168 0.35706 0.97514 0.0
N1693 N 0.3757 0.40465 0.99988 0.0
H1694 H 0.88602 0.17806 0.28039 0.0
H1695 H 0.87089 0.07853 0.15247 0.0
H1696 H 0.85252 0.12198 0.31254 0.0
H1697 H 0.90535 0.13384 0.11989 0.0
H1698 H 0.86386 0.09445 0.21031 0.0
H1699 H 0.89341 0.1623 0.22226 0.0
C1700 C 0.88024 0.16234 0.27537 0.0
C1701 C 0.86849 0.15141 0.30163 0.0
C1702 C 0.87297 0.10319 0.19067 0.0
C1703 C 0.8769 0.13319 0.23424 0.0
C1704 C 0.87696 0.09414 0.15729 0.0
C1705 C 0.889 0.1047 0.13106 0.0
C1706 C 0.88087 0.12322 0.19835 0.0
C1707 C 0.89635 0.12488 0.13942 0.0
C1708 C 0.88445 0.15338 0.24193 0.0
C1709 C 0.86143 0.13114 0.29316 0.0
N1710 N 0.89222 0.13344 0.17225 0.0
N1711 N 0.8657 0.12275 0.26032 0.0
H1712 H 0.86389 0.57312 0.13951 0.0
H1713 H 0.85647 0.67532 0.98914 0.0
H1714 H 0.89553 0.63131 0.15928 0.0
H1715 H 0.84179 0.61176 0.95897 0.0
H1716 H 0.86876 0.66043 0.052 0.0
H1717 H 0.85343 0.58774 0.07572 0.0
C1718 C 0.86865 0.58908 0.13065 0.0
C1719 C 0.88078 0.60087 0.15547 0.0
C1720 C 0.86283 0.64966 0.03177 0.0
C1721 C 0.86846 0.61802 0.08103 0.0
C1722 C 0.85576 0.65816 0.99555 0.0
C1723 C 0.84758 0.64493 0.96824 0.0
C1724 C 0.86171 0.62757 0.04166 0.0
C1725 C 0.84728 0.6228 0.97895 0.0
C1726 C 0.86269 0.59738 0.09382 0.0
C1727 C 0.88638 0.62144 0.1415 0.0
N1728 N 0.85403 0.61491 1.01462 0.0
N1729 N 0.8801 0.62934 0.10557 0.0
H1730 H 0.09497 0.07952 0.83929 0.0
H1731 H 0.14716 0.17796 0.92405 0.0
H1732 H 0.10891 0.13691 0.77295 0.0
H1733 H 0.15501 0.115 0.98193 0.0
H1734 H 0.13375 0.16215 0.86851 0.0
H1735 H 0.11752 0.09046 0.89117 0.0
C1736 C 0.10345 0.09396 0.83511 0.0
C1737 C 0.10065 0.10703 0.80153 0.0
C1738 C 0.13854 0.15162 0.89305 0.0
C1739 C 0.12555 0.12022 0.86117 0.0
C1740 C 0.14619 0.16066 0.92503 0.0
C1741 C 0.15231 0.14773 0.95772 0.0
C1742 C 0.13619 0.12942 0.89378 0.0
C1743 C 0.15048 0.12547 0.95721 0.0
C1744 C 0.11612 0.10035 0.86491 0.0
C1745 C 0.11089 0.12633 0.79838 0.0
N1746 N 0.14224 0.11694 0.92572 0.0
N1747 N 0.12281 0.13242 0.82794 0.0
H1748 H 0.63946 0.37134 0.52224 0.0
H1749 H 0.59831 0.35508 0.72941 0.0
H1750 H 0.61815 0.31121 0.56967 0.0
H1751 H 0.61357 0.41654 0.67761 0.0
H1752 H 0.60744 0.33829 0.67268 0.0
H1753 H 0.63162 0.38799 0.57987 0.0
C1754 C 0.63313 0.36165 0.54468 0.0
C1755 C 0.62955 0.33981 0.54096 0.0
C1756 C 0.60883 0.35546 0.67375 0.0
C1757 C 0.6205 0.35874 0.60729 0.0
C1758 C 0.60363 0.36503 0.7062 0.0
C1759 C 0.60476 0.3873 0.70814 0.0
C1760 C 0.6155 0.36821 0.64302 0.0
C1761 C 0.61221 0.39932 0.67739 0.0
C1762 C 0.62863 0.37114 0.57764 0.0
C1763 C 0.62115 0.32811 0.57104 0.0
N1764 N 0.61713 0.38971 0.64621 0.0
N1765 N 0.61701 0.33764 0.60275 0.0
H1766 H 0.32595 0.88513 0.4203 0.0
H1767 H 0.43522 0.86505 0.34679 0.0
H1768 H 0.37414 0.85061 0.4876 0.0
H1769 H 0.38315 0.88639 0.27378 0.0
H1770 H 0.41376 0.86121 0.39953 0.0
H1771 H 0.34767 0.88871 0.36787 0.0
C1772 C 0.34126 0.87867 0.42427 0.0
C1773 C 0.34831 0.86757 0.45834 0.0
C1774 C 0.40697 0.86658 0.37195 0.0
C1775 C 0.37314 0.87133 0.39826 0.0
C1776 C 0.41918 0.86861 0.34174 0.0
C1777 C 0.41093 0.87623 0.30593 0.0
C1778 C 0.38635 0.87224 0.36635 0.0
C1779 C 0.3901 0.88065 0.30105 0.0
C1780 C 0.35356 0.88048 0.39417 0.0
C1781 C 0.36817 0.8593 0.46178 0.0
N1782 N 0.37854 0.8788 0.33099 0.0
N1783 N 0.37989 0.8613 0.43209 0.0
H1784 H 0.92793 0.35819 0.83128 0.0
H1785 H 0.82228 0.38136 0.91683 0.0
H1786 H 0.88017 0.39743 0.7725 0.0
H1787 H 0.87231 0.34694 0.97889 0.0
H1788 H 0.84216 0.38523 0.86197 0.0
H1789 H 0.90605 0.34996 0.88249 0.0
C1790 C 0.91251 0.36437 0.82863 0.0
C1791 C 0.90558 0.37807 0.79747 0.0
C1792 C 0.84885 0.3769 0.88758 0.0
C1793 C 0.88087 0.36975 0.85657 0.0
C1794 C 0.83759 0.37488 0.91906 0.0
C1795 C 0.84571 0.36379 0.95241 0.0
C1796 C 0.86842 0.36781 0.88948 0.0
C1797 C 0.86552 0.35558 0.95364 0.0
C1798 C 0.90015 0.36001 0.85809 0.0
C1799 C 0.88581 0.38639 0.79578 0.0
N1800 N 0.87619 0.35767 0.92255 0.0
N1801 N 0.87417 0.38227 0.82515 0.0
H1802 H 0.33493 0.10986 0.45501 0.0
H1803 H 0.39912 0.125 0.65269 0.0
H1804 H 0.37601 0.16147 0.47197 0.0
H1805 H 0.36196 0.07044 0.6338 0.0
H1806 H 0.39006 0.13914 0.58738 0.0
H1807 H 0.34352 0.09574 0.52057 0.0
C1808 C 0.34566 0.11829 0.47235 0.0
C1809 C 0.35454 0.13706 0.45744 0.0
C1810 C 0.38387 0.12405 0.59748 0.0
C1811 C 0.36479 0.12076 0.53319 0.0
C1812 C 0.38918 0.1159 0.6349 0.0
C1813 C 0.38164 0.09627 0.64913 0.0
C1814 C 0.37067 0.11267 0.57372 0.0
C1815 C 0.36827 0.08562 0.62451 0.0
C1816 C 0.35069 0.11015 0.50992 0.0
C1817 C 0.36871 0.14695 0.48168 0.0
N1818 N 0.36331 0.09385 0.58843 0.0
N1819 N 0.37328 0.1388 0.51789 0.0
H1820 H 0.59803 0.58906 0.32996 0.0
H1821 H 0.66928 0.68111 0.39343 0.0
H1822 H 0.61647 0.64054 0.25418 0.0
H1823 H 0.66827 0.6206 0.4596 0.0
H1824 H 0.65025 0.66571 0.34227 0.0
H1825 H 0.62384 0.59897 0.37752 0.0
C1826 C 0.60805 0.60192 0.32288 0.0
C1827 C 0.60568 0.61357 0.28781 0.0
C1828 C 0.65426 0.65563 0.36774 0.0
C1829 C 0.63442 0.62575 0.3425 0.0
C1830 C 0.66506 0.66446 0.39718 0.0
C1831 C 0.67022 0.65211 0.43096 0.0
C1832 C 0.64799 0.63437 0.37219 0.0
C1833 C 0.66451 0.63061 0.43398 0.0
C1834 C 0.6226 0.60776 0.35019 0.0
C1835 C 0.61809 0.63103 0.28081 0.0
N1836 N 0.65337 0.62244 0.40504 0.0
N1837 N 0.63187 0.63668 0.30802 0.0
H1838 H 0.14615 0.87062 0.03252 0.0
H1839 H 0.09015 0.85522 0.2256 0.0
H1840 H 0.11306 0.81419 0.06436 0.0
H1841 H 0.12919 0.90777 0.19895 0.0
H1842 H 0.09704 0.84051 0.16571 0.0
H1843 H 0.13879 0.8853 0.09208 0.0
C1844 C 0.13741 0.86129 0.052 0.0
C1845 C 0.13046 0.84102 0.0434 0.0
C1846 C 0.10411 0.85527 0.17302 0.0
C1847 C 0.12167 0.85783 0.11175 0.0
C1848 C 0.10006 0.86372 0.20717 0.0
C1849 C 0.10876 0.88296 0.21728 0.0
C1850 C 0.11708 0.86608 0.14872 0.0
C1851 C 0.12204 0.8929 0.1926 0.0
C1852 C 0.13313 0.86969 0.08604 0.0
C1853 C 0.1188 0.82988 0.06961 0.0
N1854 N 0.12567 0.88447 0.15964 0.0
N1855 N 0.11482 0.83836 0.10239 0.0
H1856 H 0.94493 0.51435 0.20197 0.0
H1857 H 0.056 0.49052 0.14067 0.0
H1858 H 0.99739 0.55024 0.23558 0.0
H1859 H 0.0042 0.4528 0.11044 0.0
H1860 H 0.0341 0.51441 0.17111 0.0
H1861 H 0.96637 0.49137 0.16865 0.0
C1862 C 0.96104 0.51707 0.20315 0.0
C1863 C 0.96935 0.53444 0.22113 0.0
C1864 C 0.02747 0.50106 0.15741 0.0
C1865 C 0.99385 0.50859 0.1822 0.0
C1866 C 0.03992 0.48759 0.13948 0.0
C1867 C 0.03198 0.46934 0.12373 0.0
C1868 C 0.00694 0.4963 0.15937 0.0
C1869 C 0.01101 0.46649 0.12276 0.0
C1870 C 0.97323 0.50414 0.18363 0.0
C1871 C 0.99033 0.53716 0.22178 0.0
N1872 N 0.99925 0.47962 0.14099 0.0
N1873 N 0.00182 0.52455 0.20212 0.0
H1874 H 0.73692 0.79047 0.33771 0.0
H1875 H 0.75913 0.70535 0.51291 0.0
H1876 H 0.73785 0.80659 0.45284 0.0
H1877 H 0.76253 0.69104 0.39749 0.0
H1878 H 0.75268 0.74304 0.49196 0.0
H1879 H 0.74158 0.7527 0.35969 0.0
C1880 C 0.73746 0.78593 0.36759 0.0
C1881 C 0.73815 0.80153 0.39361 0.0
C1882 C 0.75502 0.73167 0.47123 0.0
C1883 C 0.74431 0.75899 0.41877 0.0
C1884 C 0.75914 0.7103 0.48324 0.0
C1885 C 0.7604 0.69512 0.4567 0.0
C1886 C 0.75207 0.73752 0.43261 0.0
C1887 C 0.76098 0.70226 0.41876 0.0
C1888 C 0.74051 0.76448 0.38015 0.0
C1889 C 0.73804 0.79498 0.4319 0.0
N1890 N 0.75615 0.72298 0.40763 0.0
N1891 N 0.74186 0.77412 0.44352 0.0
H1892 H 0.49153 0.43568 0.68338 0.0
H1893 H 0.50641 0.56181 0.66457 0.0
H1894 H 0.54073 0.46688 0.74146 0.0
H1895 H 0.46298 0.52963 0.59432 0.0
H1896 H 0.51992 0.52722 0.69151 0.0
H1897 H 0.48032 0.4701 0.6519 0.0
C1898 C 0.49984 0.44988 0.68988 0.0
C1899 C 0.51718 0.44847 0.71485 0.0
C1900 C 0.50764 0.52762 0.66984 0.0
C1901 C 0.50461 0.48784 0.67838 0.0
C1902 C 0.50001 0.54734 0.65424 0.0
C1903 C 0.48352 0.54843 0.62736 0.0
C1904 C 0.49848 0.50884 0.65888 0.0
C1905 C 0.47575 0.52937 0.61488 0.0
C1906 C 0.49355 0.46947 0.67154 0.0
C1907 C 0.52734 0.4673 0.72229 0.0
N1908 N 0.48312 0.51023 0.63124 0.0
N1909 N 0.52095 0.48626 0.70393 0.0
H1910 H 0.74096 0.18439 0.89723 0.0
H1911 H 0.75916 0.30128 0.96656 0.0
H1912 H 0.70997 0.24179 0.84682 0.0
H1913 H 0.79389 0.24513 1.01199 0.0
H1914 H 0.7387 0.27884 0.92672 0.0
H1915 H 0.76076 0.20616 0.93947 0.0
C1916 C 0.73872 0.20164 0.89432 0.0
C1917 C 0.72354 0.21131 0.86901 0.0
C1918 C 0.75063 0.27137 0.94575 0.0
C1919 C 0.74566 0.23614 0.91786 0.0
C1920 C 0.7621 0.28412 0.96899 0.0
C1921 C 0.77858 0.27509 0.99184 0.0
C1922 C 0.75563 0.24949 0.94568 0.0
C1923 C 0.78154 0.25276 0.9942 0.0
C1924 C 0.7498 0.21402 0.91886 0.0
C1925 C 0.72135 0.23371 0.86632 0.0
N1926 N 0.77041 0.24073 0.97078 0.0
N1927 N 0.73206 0.24536 0.89093 0.0
H1928 H 0.98619 0.4404 0.706 0.0
H1929 H 0.02146 0.55514 0.64226 0.0
H1930 H 0.97624 0.49369 0.7729 0.0
H1931 H 0.05726 0.4988 0.62649 0.0
H1932 H 0.00099 0.53318 0.68432 0.0
H1933 H 0.00994 0.46185 0.671 0.0
C1934 C 0.98935 0.45649 0.71369 0.0
C1935 C 0.97942 0.46544 0.74209 0.0
C1936 C 0.01338 0.52576 0.67157 0.0
C1937 C 0.00576 0.49002 0.70188 0.0
C1938 C 0.02476 0.53814 0.64735 0.0
C1939 C 0.04076 0.52856 0.63099 0.0
C1940 C 0.01797 0.50379 0.6784 0.0
C1941 C 0.0449 0.50662 0.63866 0.0
C1942 C 0.00278 0.46869 0.69375 0.0
C1943 C 0.98376 0.48634 0.75109 0.0
N1944 N 0.03342 0.49484 0.66171 0.0
N1945 N 0.99646 0.4982 0.73044 0.0
H1946 H 0.7691 0.70635 0.84872 0.0
H1947 H 0.73162 0.78659 0.99565 0.0
H1948 H 0.74723 0.6855 0.95579 0.0
H1949 H 0.75314 0.80728 0.88821 0.0
H1950 H 0.73792 0.74921 0.98234 0.0
H1951 H 0.76245 0.74367 0.86183 0.0
C1952 C 0.76278 0.70965 0.87478 0.0
C1953 C 0.75915 0.69294 0.90149 0.0
C1954 C 0.7413 0.76198 0.96175 0.0
C1955 C 0.75156 0.73528 0.91689 0.0
C1956 C 0.73776 0.78324 0.96946 0.0
C1957 C 0.74144 0.79994 0.94273 0.0
C1958 C 0.74863 0.75755 0.92713 0.0
C1959 C 0.74991 0.79487 0.90955 0.0
C1960 C 0.75904 0.73088 0.88238 0.0
C1961 C 0.75044 0.69794 0.93448 0.0
N1962 N 0.75302 0.77414 0.90253 0.0
N1963 N 0.74715 0.71866 0.94143 0.0
H1964 H 0.50543 0.46555 0.08876 0.0
H1965 H 0.51747 0.52021 0.28196 0.0
H1966 H 0.48206 0.43699 0.18997 0.0
H1967 H 0.52125 0.55323 0.17236 0.0
H1968 H 0.50736 0.48788 0.25182 0.0
H1969 H 0.51897 0.49454 0.12413 0.0
C1970 C 0.50374 0.465 0.11869 0.0
C1971 C 0.49186 0.44952 0.13624 0.0
C1972 C 0.51016 0.50232 0.23449 0.0
C1973 C 0.50661 0.48267 0.17624 0.0
C1974 C 0.51554 0.52086 0.25158 0.0
C1975 C 0.52074 0.53914 0.22947 0.0
C1976 C 0.51006 0.50232 0.19533 0.0
C1977 C 0.51776 0.53926 0.19034 0.0
C1978 C 0.51111 0.48174 0.13868 0.0
C1979 C 0.49061 0.44913 0.17524 0.0
N1980 N 0.51305 0.5209 0.17443 0.0
N1981 N 0.4974 0.46593 0.19393 0.0
H1982 H 0.8026 0.23361 0.38293 0.0
H1983 H 0.69863 0.25666 0.47585 0.0
H1984 H 0.76281 0.18398 0.42127 0.0
H1985 H 0.73944 0.30607 0.44085 0.0
H1986 H 0.72179 0.22967 0.4554 0.0
H1987 H 0.77984 0.2605 0.40474 0.0
C1988 C 0.78914 0.2284 0.39613 0.0
C1989 C 0.78445 0.20663 0.40006 0.0
C1990 C 0.72568 0.24643 0.45222 0.0
C1991 C 0.75833 0.23713 0.42479 0.0
C1992 C 0.71243 0.26179 0.46378 0.0
C1993 C 0.71726 0.28353 0.46027 0.0
C1994 C 0.74378 0.25294 0.437 0.0
C1995 C 0.73527 0.28941 0.44434 0.0
C1996 C 0.77612 0.24371 0.40847 0.0
C1997 C 0.76688 0.20066 0.41745 0.0
N1998 N 0.74789 0.27421 0.43336 0.0
N1999 N 0.75441 0.21583 0.42902 0.0
H2000 H 0.28483 0.27053 0.83306 0.0
H2001 H 0.22922 0.22437 1.00837 0.0
H2002 H 0.23591 0.30318 0.87954 0.0
H2003 H 0.26108 0.18273 0.94112 0.0
H2004 H 0.23613 0.25483 0.96494 0.0
H2005 H 0.27749 0.23781 0.87095 0.0
C2006 C 0.27191 0.27043 0.84993 0.0
C2007 C 0.26116 0.28945 0.85396 0.0
C2008 C 0.24187 0.23907 0.95995 0.0
C2009 C 0.25336 0.25287 0.89821 0.0
C2010 C 0.23836 0.22186 0.98519 0.0
C2011 C 0.24444 0.20121 0.9779 0.0
C2012 C 0.25164 0.23543 0.92748 0.0
C2013 C 0.25627 0.19856 0.94765 0.0
C2014 C 0.26799 0.25195 0.87204 0.0
C2015 C 0.24459 0.28877 0.87595 0.0
N2016 N 0.25923 0.21553 0.92293 0.0
N2017 N 0.24153 0.27084 0.89828 0.0
H2018 H 0.23883 0.68895 0.39015 0.0
H2019 H 0.25979 0.80653 0.45436 0.0
H2020 H 0.20641 0.74584 0.34123 0.0
H2021 H 0.29193 0.74956 0.50371 0.0
H2022 H 0.23889 0.78432 0.41473 0.0
H2023 H 0.25963 0.71118 0.42993 0.0
C2024 C 0.23646 0.70619 0.38702 0.0
C2025 C 0.22063 0.71558 0.36293 0.0
C2026 C 0.25035 0.77664 0.43454 0.0
C2027 C 0.24392 0.74096 0.40901 0.0
C2028 C 0.26207 0.78928 0.45762 0.0
C2029 C 0.27786 0.77986 0.48177 0.0
C2030 C 0.25446 0.7545 0.43586 0.0
C2031 C 0.28008 0.75746 0.48502 0.0
C2032 C 0.24812 0.71883 0.41019 0.0
C2033 C 0.21829 0.73797 0.35987 0.0
N2034 N 0.26871 0.74553 0.4618 0.0
N2035 N 0.22961 0.7499 0.38315 0.0
H2036 H 0.29783 0.2279 0.3879 0.0
H2037 H 0.19946 0.27299 0.47507 0.0
H2038 H 0.24163 0.1942 0.3906 0.0
H2039 H 0.25501 0.30767 0.46999 0.0
H2040 H 0.21525 0.24325 0.44679 0.0
H2041 H 0.28225 0.25767 0.4165 0.0
C2042 C 0.28204 0.227 0.39367 0.0
C2043 C 0.27104 0.20849 0.38705 0.0
C2044 C 0.22409 0.25723 0.45225 0.0
C2045 C 0.25327 0.24226 0.42073 0.0
C2046 C 0.21518 0.27409 0.46888 0.0
C2047 C 0.22592 0.29284 0.47476 0.0
C2048 C 0.24393 0.25912 0.44137 0.0
C2049 C 0.24619 0.29349 0.46606 0.0
C2050 C 0.27324 0.24389 0.41045 0.0
C2051 C 0.25068 0.20815 0.39518 0.0
N2052 N 0.25448 0.27696 0.44939 0.0
N2053 N 0.24251 0.22468 0.412 0.0
H2054 H 0.26042 0.6842 0.91433 0.0
H2055 H 0.23647 0.80908 0.92616 0.0
H2056 H 0.29919 0.73447 0.87465 0.0
H2057 H 0.19818 0.75899 0.96819 0.0
H2058 H 0.25919 0.78194 0.90591 0.0
H2059 H 0.23749 0.71126 0.93442 0.0
C2060 C 0.26413 0.70098 0.90999 0.0
C2061 C 0.28161 0.70719 0.89259 0.0
C2062 C 0.24583 0.77684 0.91949 0.0
C2063 C 0.25541 0.73821 0.91531 0.0
C2064 C 0.23282 0.79232 0.93098 0.0
C2065 C 0.21554 0.78619 0.94911 0.0
C2066 C 0.24153 0.75505 0.92618 0.0
C2067 C 0.21141 0.76432 0.9544 0.0
C2068 C 0.25101 0.7164 0.9214 0.0
C2069 C 0.2858 0.72906 0.88787 0.0
N2070 N 0.22439 0.74949 0.94311 0.0
N2071 N 0.27272 0.74382 0.89904 0.0
H2072 H 0.44501 0.00804 0.69918 0.0
H2073 H 0.55738 0.98117 0.64725 0.0
H2074 H 0.49724 0.04343 0.73571 0.0
H2075 H 0.50498 0.94637 0.60961 0.0
H2076 H 0.53548 0.0049 0.67818 0.0
H2077 H 0.46701 0.98414 0.66885 0.0
C2078 C 0.46117 0.01046 0.70166 0.0
C2079 C 0.46928 0.02796 0.71955 0.0
C2080 C 0.52874 0.99221 0.66283 0.0
C2081 C 0.49448 0.001 0.68404 0.0
C2082 C 0.54121 0.97884 0.64469 0.0
C2083 C 0.53301 0.96158 0.62622 0.0
C2084 C 0.50793 0.98832 0.66242 0.0
C2085 C 0.51195 0.95936 0.62382 0.0
C2086 C 0.4737 -0.00301 0.68385 0.0
C2087 C 0.49033 0.03027 0.7219 0.0
N2088 N 0.50016 0.9724 0.64216 0.0
N2089 N 0.50218 0.01713 0.70388 0.0
H2090 H 0.05224 0.9756 0.22727 0.0
H2091 H 0.94571 0.01233 0.12189 0.0
H2092 H 0.99655 0.94268 0.24443 0.0
H2093 H 0.00129 0.04557 0.10529 0.0
H2094 H 0.96436 0.98581 0.16506 0.0
H2095 H 0.03358 0.00231 0.1845 0.0
C2096 C 0.03599 0.97429 0.22275 0.0
C2097 C 0.02596 0.95673 0.23897 0.0
C2098 C 0.97252 -0.00122 0.15169 0.0
C2099 C 0.00462 0.98689 0.18936 0.0
C2100 C 0.96193 0.01376 0.12664 0.0
C2101 C 0.97193 0.03133 0.11039 0.0
C2102 C 0.99326 0.00138 0.16046 0.0
C2103 C 0.99295 0.03236 0.11744 0.0
C2104 C 0.02539 0.98938 0.19792 0.0
C2105 C 0.00491 0.95586 0.23225 0.0
N2106 N 0.0029 0.01774 0.14236 0.0
N2107 N 0.99496 0.97057 0.20751 0.0
H2108 H 0.44362 0.99111 0.19202 0.0
H2109 H 0.55661 0.99578 0.13087 0.0
H2110 H 0.49018 0.94439 0.23272 0.0
H2111 H 0.51178 0.0461 0.10115 0.0
H2112 H 0.53154 0.97487 0.16324 0.0
H2113 H 0.46765 0.00978 0.15377 0.0
C2114 C 0.45898 0.98485 0.19295 0.0
C2115 C 0.46512 0.96638 0.21569 0.0
C2116 C 0.52716 0.99044 0.14951 0.0
C2117 C 0.49254 0.98751 0.172 0.0
C2118 C 0.5414 0.00233 0.13099 0.0
C2119 C 0.53613 0.02263 0.11359 0.0
C2120 C 0.50759 -0.00099 0.15059 0.0
C2121 C 0.51635 0.03048 0.11442 0.0
C2122 C 0.47264 0.99546 0.17105 0.0
C2123 C 0.485 0.9587 0.21562 0.0
N2124 N 0.50274 0.01864 0.13287 0.0
N2125 N 0.49812 0.9694 0.19408 0.0
H2126 H 0.97658 0.93557 0.66817 0.0
H2127 H 0.02062 0.05277 0.67951 0.0
H2128 H 0.97579 0.98247 0.57319 0.0
H2129 H 0.01934 0.00643 0.77493 0.0
H2130 H 0.00281 0.02783 0.64043 0.0
H2131 H 0.99378 0.96092 0.70718 0.0
C2132 C 0.98052 0.95106 0.65539 0.0
C2133 C 0.97462 0.95717 0.61771 0.0
C2134 C 0.00618 0.02321 0.67 0.0
C2135 C 0.99363 0.98631 0.66211 0.0
C2136 C 0.01609 0.03751 0.69236 0.0
C2137 C 0.02166 0.03137 0.73017 0.0
C2138 C 0.00193 0.00272 0.68575 0.0
C2139 C 0.01541 0.01162 0.74575 0.0
C2140 C 0.99005 0.96561 0.67773 0.0
C2141 C 0.98006 0.97727 0.60225 0.0
N2142 N 0.0061 -0.00223 0.72321 0.0
N2143 N 0.98907 0.99134 0.62476 0.0
H2144 H 0.06924 0.41194 0.99678 0.0
H2145 H 0.95575 0.41755 0.90659 0.0
H2146 H 0.01903 0.39824 0.06403 0.0
H2147 H 0.00648 0.40465 0.84226 0.0
H2148 H 0.97829 0.41302 0.96439 0.0
H2149 H 0.04647 0.41123 0.93992 0.0
C2150 C 0.05348 0.40833 0.9996 0.0
C2151 C 0.04617 0.40482 0.0354 0.0
C2152 C 0.98444 0.41106 0.93762 0.0
C2153 C 0.01966 0.40484 0.96998 0.0
C2154 C 0.97159 0.41375 0.90452 0.0
C2155 C 0.97913 0.41149 0.86923 0.0
C2156 C 0.00516 0.40649 0.93559 0.0
C2157 C 0.99986 0.40648 0.86862 0.0
C2158 C 0.04044 0.40805 0.96705 0.0
C2159 C 0.02546 0.40062 0.03712 0.0
N2160 N 0.0121 0.40438 0.90107 0.0
N2161 N 0.01291 0.40106 1.005 0.0
H2162 H 0.79876 0.72312 0.97198 0.0
H2163 H 0.7681 0.70544 0.18419 0.0
H2164 H 0.79351 0.66094 0.03127 0.0
H2165 H 0.79196 0.76505 0.13917 0.0
H2166 H 0.77211 0.69025 0.12427 0.0
H2167 H 0.79162 0.73998 0.02947 0.0
C2168 C 0.79624 0.713 0.99704 0.0
C2169 C 0.79693 0.69055 0.99677 0.0
C2170 C 0.77638 0.70669 0.12746 0.0
C2171 C 0.78843 0.70976 0.06236 0.0
C2172 C 0.77414 0.71539 0.16174 0.0
C2173 C 0.77997 0.73651 0.16712 0.0
C2174 C 0.78437 0.71919 0.09803 0.0
C2175 C 0.78716 0.74875 0.13643 0.0
C2176 C 0.7921 0.72265 0.02979 0.0
C2177 C 0.79327 0.67829 0.03004 0.0
N2178 N 0.78927 0.73988 0.1033 0.0
N2179 N 0.78915 0.68804 0.06134 0.0
H2180 H 0.50256 0.60478 0.29904 0.0
H2181 H 0.49686 0.61894 0.51869 0.0
H2182 H 0.55467 0.59492 0.37811 0.0
H2183 H 0.44637 0.59894 0.44792 0.0
H2184 H 0.51799 0.61884 0.46495 0.0
H2185 H 0.48174 0.61098 0.35106 0.0
C2186 C 0.50971 0.60415 0.32728 0.0
C2187 C 0.53045 0.59922 0.3341 0.0
C2188 C 0.5022 0.6148 0.46114 0.0
C2189 C 0.50657 0.60655 0.39396 0.0
C2190 C 0.49006 0.61511 0.49165 0.0
C2191 C 0.46975 0.60904 0.48781 0.0
C2192 C 0.49389 0.60878 0.42633 0.0
C2193 C 0.46191 0.60378 0.4522 0.0
C2194 C 0.49776 0.60762 0.35699 0.0
C2195 C 0.53875 0.59854 0.37147 0.0
N2196 N 0.47395 0.60378 0.42294 0.0
N2197 N 0.52682 0.6022 0.39996 0.0
H2198 H 0.67452 0.17557 0.71101 0.0
H2199 H 0.66584 0.29567 0.62396 0.0
H2200 H 0.65169 0.22595 0.77323 0.0
H2201 H 0.66234 0.2417 0.55554 0.0
H2202 H 0.66279 0.271 0.67991 0.0
H2203 H 0.67162 0.19988 0.65408 0.0
C2204 C 0.66849 0.19167 0.71243 0.0
C2205 C 0.66316 0.19875 0.74669 0.0
C2206 C 0.66257 0.26464 0.65257 0.0
C2207 C 0.66049 0.2269 0.68198 0.0
C2208 C 0.66449 0.27866 0.6207 0.0
C2209 C 0.66447 0.27072 0.58504 0.0
C2210 C 0.66099 0.24252 0.64874 0.0
C2211 C 0.66244 0.24855 0.58243 0.0
C2212 C 0.66691 0.20556 0.68 0.0
C2213 C 0.65566 0.21982 0.74718 0.0
N2214 N 0.66098 0.23524 0.61384 0.0
N2215 N 0.65486 0.23332 0.71538 0.0
H2216 H 0.96058 0.5808 0.98567 0.0
H2217 H 0.99347 0.64657 0.7999 0.0
H2218 H 0.9635 0.64982 0.97257 0.0
H2219 H 0.98935 0.57759 0.81041 0.0
H2220 H 0.9817 0.64789 0.8626 0.0
H2221 H 0.96989 0.57917 0.92105 0.0
C2222 C 0.96293 0.59564 0.96911 0.0
C2223 C 0.96129 0.61549 0.98475 0.0
C2224 C 0.98331 0.63245 0.85123 0.0
C2225 C 0.9723 0.61369 0.91079 0.0
C2226 C 0.98994 0.63167 0.81525 0.0
C2227 C 0.99233 0.61193 0.79961 0.0
C2228 C 0.97903 0.61334 0.87206 0.0
C2229 C 0.98793 0.59316 0.82137 0.0
C2230 C 0.96841 0.59467 0.93227 0.0
C2231 C 0.96486 0.63414 0.962 0.0
N2232 N 0.98148 0.59433 0.85644 0.0
N2233 N 0.97024 0.63277 0.92631 0.0
H2234 H 0.71328 0.66567 0.33693 0.0
H2235 H 0.69701 0.7752 0.20318 0.0
H2236 H 0.71007 0.72812 0.37987 0.0
H2237 H 0.69997 0.71231 0.16164 0.0
H2238 H 0.70291 0.75869 0.26744 0.0
H2239 H 0.70909 0.68266 0.27289 0.0
C2240 C 0.71176 0.68298 0.33306 0.0
C2241 C 0.71216 0.69537 0.36435 0.0
C2242 C 0.70226 0.74849 0.24426 0.0
C2243 C 0.70726 0.71517 0.29009 0.0
C2244 C 0.69901 0.75796 0.20727 0.0
C2245 C 0.69777 0.7453 0.17621 0.0
C2246 C 0.70434 0.72606 0.25082 0.0
C2247 C 0.70032 0.72292 0.18418 0.0
C2248 C 0.70936 0.69271 0.29625 0.0
C2249 C 0.71001 0.71779 0.35694 0.0
N2250 N 0.70341 0.71414 0.22033 0.0
N2251 N 0.70767 0.72689 0.32084 0.0
H2252 H 0.54535 0.3755 0.50825 0.0
H2253 H 0.46879 0.33569 0.34528 0.0
H2254 H 0.49466 0.33509 0.52958 0.0
H2255 H 0.51572 0.38129 0.32541 0.0
H2256 H 0.47915 0.33367 0.41245 0.0
H2257 H 0.53583 0.37622 0.44095 0.0
C2258 C 0.53229 0.36664 0.4988 0.0
C2259 C 0.52081 0.3552 0.52476 0.0
C2260 C 0.4872 0.3441 0.3934 0.0
C2261 C 0.50968 0.35612 0.44745 0.0
C2262 C 0.48138 0.34516 0.35497 0.0
C2263 C 0.49138 0.3587 0.32953 0.0
C2264 C 0.50324 0.35658 0.40665 0.0
C2265 C 0.5074 0.37083 0.34393 0.0
C2266 C 0.52678 0.36718 0.46032 0.0
C2267 C 0.50384 0.34432 0.51073 0.0
N2268 N 0.51283 0.36946 0.38143 0.0
N2269 N 0.49882 0.34502 0.4731 0.0
H2270 H 0.87233 0.29651 0.75497 0.0
H2271 H 0.83957 0.2105 0.60722 0.0
H2272 H 0.83406 0.24305 0.78089 0.0
H2273 H 0.87591 0.2655 0.58087 0.0
H2274 H 0.83699 0.22225 0.67043 0.0
H2275 H 0.87369 0.28534 0.69121 0.0
C2276 C 0.86425 0.28237 0.7474 0.0
C2277 C 0.85311 0.27071 0.77373 0.0
C2278 C 0.84552 0.23176 0.6508 0.0
C2279 C 0.8545 0.25784 0.70005 0.0
C2280 C 0.84692 0.22511 0.6145 0.0
C2281 C 0.85805 0.23692 0.58832 0.0
C2282 C 0.85531 0.25041 0.66134 0.0
C2283 C 0.86745 0.25558 0.6 0.0
C2284 C 0.86495 0.27605 0.71078 0.0
C2285 C 0.84267 0.25273 0.76168 0.0
N2286 N 0.86589 0.26168 0.63545 0.0
N2287 N 0.84368 0.24684 0.72592 0.0
H2288 H 0.99763 0.58535 0.51684 0.0
H2289 H 0.9832 0.60654 0.29229 0.0
H2290 H 0.04883 0.58744 0.44902 0.0
H2291 H 0.93679 0.58236 0.3614 0.0
H2292 H 0.00701 0.60533 0.34876 0.0
H2293 H 0.97505 0.58948 0.45999 0.0
C2294 C 0.00421 0.5867 0.48997 0.0
C2295 C 0.02532 0.58595 0.48807 0.0
C2296 C 0.99155 0.60054 0.35154 0.0
C2297 C 0.9991 0.59099 0.42192 0.0
C2298 C 0.97785 0.60151 0.31938 0.0
C2299 C 0.95781 0.59478 0.32201 0.0
C2300 C 0.9851 0.59309 0.38675 0.0
C2301 C 0.95198 0.58787 0.35787 0.0
C2302 C 0.9912 0.58904 0.45734 0.0
C2303 C 0.03271 0.58776 0.45204 0.0
N2304 N 0.96545 0.58727 0.38856 0.0
N2305 N 0.01965 0.5903 0.42046 0.0
H2306 H 0.15578 0.27557 0.38667 0.0
H2307 H 0.20191 0.27388 0.18774 0.0
H2308 H 0.18886 0.32776 0.33588 0.0
H2309 H 0.14934 0.23728 0.21301 0.0
H2310 H 0.20085 0.28984 0.24773 0.0
H2311 H 0.15595 0.25783 0.32763 0.0
C2312 C 0.16296 0.28333 0.36319 0.0
C2313 C 0.17238 0.30313 0.36631 0.0
C2314 C 0.18955 0.27828 0.2402 0.0
C2315 C 0.17289 0.28288 0.29947 0.0
C2316 C 0.19027 0.26905 0.20616 0.0
C2317 C 0.17568 0.25429 0.19551 0.0
C2318 C 0.17427 0.27256 0.26398 0.0
C2319 C 0.16075 0.24876 0.2202 0.0
C2320 C 0.16304 0.27322 0.32962 0.0
C2321 C 0.18144 0.3125 0.33497 0.0
N2322 N 0.16044 0.25788 0.25348 0.0
N2323 N 0.1816 0.30221 0.30306 0.0
H2324 H 0.44968 0.40765 0.96351 0.0
H2325 H 0.55803 0.39493 0.89244 0.0
H2326 H 0.50007 0.38685 0.04118 0.0
H2327 H 0.50538 0.37892 0.82334 0.0
H2328 H 0.53759 0.39412 0.94699 0.0
H2329 H 0.46983 0.39976 0.91113 0.0
C2330 C 0.46492 0.40123 0.96958 0.0
C2331 C 0.47316 0.39786 1.00688 0.0
C2332 C 0.53059 0.39037 0.92006 0.0
C2333 C 0.49648 0.38926 0.94686 0.0
C2334 C 0.54226 0.39075 0.88894 0.0
C2335 C 0.53347 0.38671 0.85333 0.0
C2336 C 0.50976 0.38668 0.91542 0.0
C2337 C 0.51286 0.38176 0.85035 0.0
C2338 C 0.47638 0.39666 0.93965 0.0
C2339 C 0.49303 0.38955 1.01295 0.0
N2340 N 0.50162 0.3823 0.88078 0.0
N2341 N 0.50412 0.38589 0.98329 0.0
H2342 H 0.32875 0.81675 0.63631 0.0
H2343 H 0.33376 0.69629 0.72289 0.0
H2344 H 0.34915 0.76525 0.57396 0.0
H2345 H 0.33607 0.7503 0.79127 0.0
H2346 H 0.33818 0.72082 0.66741 0.0
H2347 H 0.33094 0.79251 0.69329 0.0
C2348 C 0.33416 0.80041 0.63488 0.0
C2349 C 0.33894 0.793 0.60054 0.0
C2350 C 0.33784 0.72723 0.69463 0.0
C2351 C 0.34077 0.76491 0.66534 0.0
C2352 C 0.33512 0.71329 0.72624 0.0
C2353 C 0.33436 0.72128 0.76176 0.0
C2354 C 0.3395 0.74934 0.6985 0.0
C2355 C 0.3365 0.74342 0.76448 0.0
C2356 C 0.33531 0.78655 0.66735 0.0
C2357 C 0.34562 0.77163 0.60005 0.0
N2358 N 0.33878 0.75666 0.73328 0.0
N2359 N 0.346 0.75819 0.6319 0.0
H2360 H 0.04439 0.42204 0.37847 0.0
H2361 H 0.01455 0.3512 0.56153 0.0
H2362 H 0.04104 0.35302 0.38526 0.0
H2363 H 0.01852 0.42017 0.55596 0.0
H2364 H 0.02583 0.35153 0.49811 0.0
H2365 H 0.0368 0.42162 0.44435 0.0
C2366 C 0.04232 0.40676 0.39388 0.0
C2367 C 0.04329 0.38753 0.37605 0.0
C2368 C 0.02431 0.3666 0.51077 0.0
C2369 C 0.03424 0.38698 0.45162 0.0
C2370 C 0.01798 0.36643 0.54718 0.0
C2371 C 0.01554 0.3857 0.56435 0.0
C2372 C 0.02827 0.38619 0.49107 0.0
C2373 C 0.01989 0.40493 0.54382 0.0
C2374 C 0.03782 0.40655 0.43149 0.0
C2375 C 0.04015 0.36827 0.39751 0.0
N2376 N 0.02599 0.40469 0.50834 0.0
N2377 N 0.0357 0.3685 0.434 0.0
H2378 H 0.30112 0.32185 1.00077 0.0
H2379 H 0.34494 0.21916 0.13281 0.0
H2380 H 0.3292 0.2669 0.95821 0.0
H2381 H 0.31446 0.27277 0.17497 0.0
H2382 H 0.33972 0.23654 0.06921 0.0
H2383 H 0.30613 0.30441 0.06444 0.0
C2384 C 0.30832 0.30611 1.00465 0.0
C2385 C 0.31468 0.29592 0.97362 0.0
C2386 C 0.33415 0.24453 0.09234 0.0
C2387 C 0.32057 0.2757 0.04728 0.0
C2388 C 0.33724 0.23463 0.12892 0.0
C2389 C 0.33022 0.24439 0.1599 0.0
C2390 C 0.32398 0.26453 0.08613 0.0
C2391 C 0.31999 0.26435 0.15232 0.0
C2392 C 0.31119 0.29613 0.04121 0.0
C2393 C 0.324 0.27549 0.98095 0.0
N2394 N 0.31726 0.2737 0.11649 0.0
N2395 N 0.32664 0.26614 1.01678 0.0
H2396 H 0.53702 0.6144 0.9877 0.0
H2397 H 0.45153 0.65225 0.82558 0.0
H2398 H 0.48133 0.64628 1.00894 0.0
H2399 H 0.51106 0.62982 0.80384 0.0
H2400 H 0.46135 0.64839 0.89303 0.0
H2401 H 0.52685 0.61786 0.92047 0.0
C2402 C 0.52258 0.62199 0.97826 0.0
C2403 C 0.51002 0.63007 1.00408 0.0
C2404 C 0.47229 0.64438 0.87349 0.0
C2405 C 0.49834 0.63425 0.92696 0.0
C2406 C 0.46666 0.6465 0.83499 0.0
C2407 C 0.48051 0.64141 0.80895 0.0
C2408 C 0.49186 0.63693 0.88619 0.0
C2409 C 0.49997 0.63421 0.8228 0.0
C2410 C 0.51685 0.6241 0.93982 0.0
C2411 C 0.4916 0.64003 0.99007 0.0
N2412 N 0.50503 0.63211 0.86041 0.0
N2413 N 0.4863 0.6418 0.95253 0.0
H2414 H 0.12657 0.7229 0.77007 0.0
H2415 H 0.1609 0.75058 0.56154 0.0
H2416 H 0.15565 0.78172 0.73605 0.0
H2417 H 0.1307 0.69246 0.59561 0.0
H2418 H 0.16003 0.76178 0.62542 0.0
H2419 H 0.12852 0.71134 0.70676 0.0
C2420 C 0.13328 0.7335 0.74932 0.0
C2421 C 0.14084 0.75345 0.75873 0.0
C2422 C 0.15361 0.74656 0.61896 0.0
C2423 C 0.14337 0.74004 0.68564 0.0
C2424 C 0.15422 0.74004 0.58243 0.0
C2425 C 0.14586 0.72047 0.57281 0.0
C2426 C 0.1446 0.73346 0.64645 0.0
C2427 C 0.1371 0.7078 0.60127 0.0
C2428 C 0.1345 0.72678 0.71309 0.0
C2429 C 0.14977 0.76614 0.73049 0.0
N2430 N 0.13671 0.71449 0.6366 0.0
N2431 N 0.15072 0.75927 0.69536 0.0
H2432 H 0.45266 0.91179 0.39933 0.0
H2433 H 0.56708 0.91017 0.48759 0.0
H2434 H 0.50461 0.90803 0.33409 0.0
H2435 H 0.51822 0.89166 0.55537 0.0
H2436 H 0.54374 0.91128 0.43147 0.0
H2437 H 0.47541 0.90687 0.45719 0.0
C2438 C 0.46877 0.91002 0.39707 0.0
C2439 C 0.47663 0.91037 0.36154 0.0
C2440 C 0.53808 0.90667 0.45848 0.0
C2441 C 0.50277 0.90478 0.4277 0.0
C2442 C 0.55148 0.90591 0.4906 0.0
C2443 C 0.54474 0.90047 0.52631 0.0
C2444 C 0.51748 0.90251 0.46177 0.0
C2445 C 0.5242 0.8955 0.52837 0.0
C2446 C 0.48175 0.90706 0.43013 0.0
C2447 C 0.4977 0.90782 0.3606 0.0
N2448 N 0.51125 0.89689 0.49667 0.0
N2449 N 0.50991 0.9053 0.39291 0.0
H2450 H 0.3311 0.23001 0.46482 0.0
H2451 H 0.33975 0.21135 0.68949 0.0
H2452 H 0.33145 0.16797 0.52644 0.0
H2453 H 0.33427 0.27422 0.6307 0.0
H2454 H 0.33948 0.19546 0.62939 0.0
H2455 H 0.33528 0.24681 0.5247 0.0
C2456 C 0.33231 0.21994 0.49088 0.0
C2457 C 0.33076 0.1976 0.49071 0.0
C2458 C 0.33837 0.21275 0.62953 0.0
C2459 C 0.33539 0.21661 0.55903 0.0
C2460 C 0.33863 0.22184 0.66392 0.0
C2461 C 0.33704 0.24417 0.66521 0.0
C2462 C 0.33651 0.22602 0.59597 0.0
C2463 C 0.33528 0.25692 0.63104 0.0
C2464 C 0.33456 0.22952 0.52501 0.0
C2465 C 0.33229 0.18528 0.52525 0.0
N2466 N 0.33506 0.24767 0.5978 0.0
N2467 N 0.33445 0.19495 0.55793 0.0
H2468 H 0.98692 0.1059 0.02071 0.0
H2469 H 0.99956 0.08824 0.80426 0.0
H2470 H 0.93958 0.08174 0.94749 0.0
H2471 H 0.05029 0.08249 0.88703 0.0
H2472 H 0.97709 0.09342 0.85417 0.0
H2473 H 0.00986 0.10525 0.96962 0.0
C2474 C 0.98119 0.10099 0.99365 0.0
C2475 C 0.96122 0.09401 0.98832 0.0
C2476 C 0.99315 0.09113 0.86142 0.0
C2477 C 0.98741 0.09312 0.92988 0.0
C2478 C 0.00605 0.08823 0.8329 0.0
C2479 C 0.02693 0.08483 0.84133 0.0
C2480 C 0.00109 0.09105 0.89886 0.0
C2481 C 0.03431 0.08492 0.87917 0.0
C2482 C 0.99436 0.10036 0.96468 0.0
C2483 C 0.9548 0.08733 0.95285 0.0
N2484 N 0.02144 0.08805 0.9065 0.0
N2485 N 0.96778 0.08711 0.92508 0.0
H2486 H 0.16498 0.7979 0.12002 0.0
H2487 H 0.17055 0.67791 0.20782 0.0
H2488 H 0.16155 0.7439 0.0517 0.0
H2489 H 0.14934 0.72941 0.2693 0.0
H2490 H 0.1681 0.7019 0.15048 0.0
H2491 H 0.16079 0.77348 0.1757 0.0
C2492 C 0.16343 0.78092 0.11674 0.0
C2493 C 0.1638 0.7729 0.08118 0.0
C2494 C 0.16361 0.70789 0.17632 0.0
C2495 C 0.15895 0.74494 0.14468 0.0
C2496 C 0.16492 0.69418 0.20899 0.0
C2497 C 0.15998 0.70168 0.24318 0.0
C2498 C 0.15785 0.72947 0.178 0.0
C2499 C 0.15302 0.72296 0.24333 0.0
C2500 C 0.16084 0.76703 0.14846 0.0
C2501 C 0.16141 0.75078 0.07854 0.0
N2502 N 0.15249 0.73627 0.21131 0.0
N2503 N 0.1593 0.73757 0.10987 0.0
H2504 H 0.50739 0.07368 0.31593 0.0
H2505 H 0.44472 0.13587 0.45767 0.0
H2506 H 0.46767 0.12784 0.28014 0.0
H2507 H 0.47237 0.07332 0.4859 0.0
H2508 H 0.45373 0.13392 0.39279 0.0
H2509 H 0.49528 0.07369 0.37869 0.0
C2510 C 0.49597 0.08544 0.32106 0.0
C2511 C 0.48864 0.10085 0.29256 0.0
C2512 C 0.45767 0.12055 0.41313 0.0
C2513 C 0.47497 0.10118 0.36478 0.0
C2514 C 0.45261 0.1217 0.45015 0.0
C2515 C 0.45779 0.10473 0.47718 0.0
C2516 C 0.46824 0.10242 0.40321 0.0
C2517 C 0.46788 0.08667 0.46588 0.0
C2518 C 0.48914 0.0855 0.35703 0.0
C2519 C 0.47408 0.11591 0.3013 0.0
N2520 N 0.47291 0.08606 0.42985 0.0
N2521 N 0.46783 0.11578 0.33664 0.0
H2522 H 0.15506 0.27903 0.72244 0.0
H2523 H 0.19321 0.1731 0.85191 0.0
H2524 H 0.1796 0.22284 0.67776 0.0
H2525 H 0.17357 0.2315 0.89639 0.0
H2526 H 0.18747 0.19046 0.7882 0.0
H2527 H 0.16079 0.26147 0.78581 0.0
C2528 C 0.16156 0.26296 0.72575 0.0
C2529 C 0.16676 0.25253 0.69413 0.0
C2530 C 0.18441 0.1995 0.81187 0.0
C2531 C 0.17355 0.23214 0.76764 0.0
C2532 C 0.18767 0.18955 0.84844 0.0
C2533 C 0.18392 0.20075 0.88002 0.0
C2534 C 0.17724 0.22089 0.80639 0.0
C2535 C 0.17672 0.2221 0.87323 0.0
C2536 C 0.16495 0.25295 0.76219 0.0
C2537 C 0.17549 0.23176 0.70092 0.0
N2538 N 0.17363 0.23138 0.83743 0.0
N2539 N 0.17852 0.22231 0.73665 0.0
H2540 H 0.02334 0.83407 0.02687 0.0
H2541 H 0.00417 0.90715 0.83334 0.0
H2542 H 0.03283 0.90231 1.01704 0.0
H2543 H 0.99266 0.83933 0.84532 0.0
H2544 H 0.01612 0.90559 0.89979 0.0
H2545 H 0.0139 0.83548 0.95951 0.0
C2546 C 0.02349 0.84936 1.01054 0.0
C2547 C 0.02879 0.86812 0.02779 0.0
C2548 C 0.01103 0.89104 0.88783 0.0
C2549 C 0.018 0.86985 0.95038 0.0
C2550 C 0.00408 0.89195 0.84991 0.0
C2551 C 0.99737 0.87335 0.83356 0.0
C2552 C 0.01127 0.8714 0.9097 0.0
C2553 C 0.99793 0.85404 0.85643 0.0
C2554 C 0.01815 0.85014 0.97201 0.0
C2555 C 0.02904 0.8874 1.00498 0.0
N2556 N 0.00469 0.85359 0.89323 0.0
N2557 N 0.0236 0.88779 0.96755 0.0
H2558 H 0.33562 0.745 0.28167 0.0
H2559 H 0.37095 0.772 0.07369 0.0
H2560 H 0.36809 0.80179 0.24864 0.0
H2561 H 0.34075 0.71375 0.1071 0.0
H2562 H 0.36921 0.78344 0.13709 0.0
H2563 H 0.33622 0.73389 0.21766 0.0
C2564 C 0.34275 0.75526 0.26098 0.0
C2565 C 0.35183 0.77442 0.27091 0.0
C2566 C 0.36295 0.76815 0.13061 0.0
C2567 C 0.35275 0.76156 0.19716 0.0
C2568 C 0.36404 0.7615 0.09433 0.0
C2569 C 0.35612 0.74173 0.08472 0.0
C2570 C 0.35383 0.75504 0.15792 0.0
C2571 C 0.34693 0.72918 0.11282 0.0
C2572 C 0.34319 0.7488 0.22438 0.0
C2573 C 0.36112 0.78677 0.24271 0.0
N2574 N 0.34609 0.736 0.14801 0.0
N2575 N 0.36132 0.78014 0.20732 0.0
H2576 H 0.48346 0.10069 0.78495 0.0
H2577 H 0.49746 0.08311 1.00964 0.0
H2578 H 0.43652 0.07937 0.85529 0.0
H2579 H 0.54873 0.08167 0.94222 0.0
H2580 H 0.47505 0.0873 0.95277 0.0
H2581 H 0.50735 0.09978 0.84126 0.0
C2582 C 0.47803 0.09637 0.81227 0.0
C2583 C 0.45783 0.09033 0.81536 0.0
C2584 C 0.49118 0.08608 0.9502 0.0
C2585 C 0.48516 0.08897 0.87979 0.0
C2586 C 0.50411 0.08372 0.98283 0.0
C2587 C 0.52517 0.08197 0.98104 0.0
C2588 C 0.49913 0.08701 0.91486 0.0
C2589 C 0.53263 0.0828 0.94511 0.0
C2590 C 0.49176 0.09556 0.84431 0.0
C2591 C 0.45185 0.08431 0.85145 0.0
N2592 N 0.51965 0.08536 0.91345 0.0
N2593 N 0.46536 0.08384 0.88201 0.0
H2594 H 0.72229 0.78833 0.65705 0.0
H2595 H 0.70186 0.7703 0.87483 0.0
H2596 H 0.70515 0.72716 0.70801 0.0
H2597 H 0.70291 0.83239 0.81349 0.0
H2598 H 0.70709 0.75338 0.81653 0.0
H2599 H 0.71982 0.80381 0.71709 0.0
C2600 C 0.71802 0.77811 0.68084 0.0
C2601 C 0.71366 0.75643 0.67717 0.0
C2602 C 0.7061 0.7707 0.81594 0.0
C2603 C 0.711 0.77411 0.74641 0.0
C2604 C 0.70305 0.78038 0.84916 0.0
C2605 C 0.70178 0.80283 0.84911 0.0
C2606 C 0.70806 0.78357 0.78254 0.0
C2607 C 0.70371 0.81505 0.81504 0.0
C2608 C 0.71666 0.78697 0.7152 0.0
C2609 C 0.70874 0.74391 0.70943 0.0
N2610 N 0.70677 0.80527 0.78326 0.0
N2611 N 0.70744 0.75295 0.74264 0.0
H2612 H 0.00983 0.88257 0.3266 0.0
H2613 H 0.99811 0.89942 0.5437 0.0
H2614 H 0.05777 0.90521 0.40033 0.0
H2615 H 0.94709 0.90506 0.46153 0.0
H2616 H 0.02038 0.8943 0.49351 0.0
H2617 H 0.98704 0.88319 0.37791 0.0
C2618 C 0.01571 0.88716 0.3538 0.0
C2619 C 0.03581 0.89372 0.35921 0.0
C2620 C 0.00431 0.89656 0.48644 0.0
C2621 C 0.00979 0.89459 0.41789 0.0
C2622 C 0.99152 0.89942 0.51513 0.0
C2623 C 0.97061 0.90275 0.50696 0.0
C2624 C 0.99624 0.89664 0.44908 0.0
C2625 C 0.96309 0.90267 0.4692 0.0
C2626 C 0.00263 0.88776 0.3829 0.0
C2627 C 0.04244 0.89996 0.39487 0.0
N2628 N 0.97586 0.89959 0.4417 0.0
N2629 N 0.02953 0.90019 0.42275 0.0
H2630 H 0.82842 0.31538 0.13946 0.0
H2631 H 0.83442 0.19523 0.22678 0.0
H2632 H 0.85068 0.26408 0.07864 0.0
H2633 H 0.83691 0.24905 0.29555 0.0
H2634 H 0.83866 0.21987 0.17139 0.0
H2635 H 0.83056 0.29133 0.19676 0.0
C2636 C 0.83421 0.29916 0.13843 0.0
C2637 C 0.83952 0.29173 0.10439 0.0
C2638 C 0.83839 0.22623 0.19866 0.0
C2639 C 0.84131 0.26388 0.16951 0.0
C2640 C 0.83577 0.21222 0.23021 0.0
C2641 C 0.83515 0.22013 0.26581 0.0
C2642 C 0.84005 0.24832 0.20266 0.0
C2643 C 0.83726 0.24226 0.26867 0.0
C2644 C 0.83534 0.28541 0.17107 0.0
C2645 C 0.8467 0.2705 0.10445 0.0
N2646 N 0.83942 0.25559 0.2375 0.0
N2647 N 0.84705 0.25718 0.13641 0.0
H2648 H 0.53913 0.84447 0.87541 0.0
H2649 H 0.51317 0.91884 0.03933 0.0
H2650 H 0.5405 0.91361 0.86364 0.0
H2651 H 0.50828 0.84993 0.04729 0.0
H2652 H 0.52455 0.91734 0.97603 0.0
H2653 H 0.52958 0.84621 0.93973 0.0
C2654 C 0.53745 0.86004 0.88633 0.0
C2655 C 0.54055 0.87892 0.86387 0.0
C2656 C 0.52103 0.90255 0.99168 0.0
C2657 C 0.52966 0.88104 0.93785 0.0
C2658 C 0.5144 0.9034 0.02778 0.0
C2659 C 0.50976 0.88448 0.04885 0.0
C2660 C 0.52303 0.88263 0.97641 0.0
C2661 C 0.51196 0.86492 0.03247 0.0
C2662 C 0.53205 0.86102 0.92316 0.0
C2663 C 0.53848 0.89861 0.87993 0.0
N2664 N 0.51839 0.86452 0.99733 0.0
N2665 N 0.53308 0.89915 0.91581 0.0
H2666 H 0.7939 0.82791 0.50808 0.0
H2667 H 0.79618 0.71909 0.64447 0.0
H2668 H 0.78652 0.76522 0.46707 0.0
H2669 H 0.81126 0.78104 0.68294 0.0
H2670 H 0.79105 0.73565 0.58019 0.0
H2671 H 0.79868 0.81117 0.57229 0.0
C2672 C 0.79319 0.81062 0.51242 0.0
C2673 C 0.78961 0.79807 0.48164 0.0
C2674 C 0.79549 0.74563 0.6027 0.0
C2675 C 0.79511 0.7786 0.55604 0.0
C2676 C 0.79856 0.73613 0.63967 0.0
C2677 C 0.80428 0.74849 0.66994 0.0
C2678 C 0.79808 0.76781 0.59535 0.0
C2679 C 0.80661 0.77067 0.66118 0.0
C2680 C 0.79596 0.80103 0.54931 0.0
C2681 C 0.78903 0.77567 0.48962 0.0
N2682 N 0.80354 0.7795 0.62504 0.0
N2683 N 0.79167 0.76673 0.52577 0.0
H2684 H 0.97504 0.1259 0.51879 0.0
H2685 H 0.00679 0.09968 0.31527 0.0
H2686 H 0.03159 0.09529 0.49886 0.0
H2687 H 0.94817 0.12573 0.33448 0.0
H2688 H 0.01588 0.09785 0.38266 0.0
H2689 H 0.9647 0.12593 0.45176 0.0
C2690 C 0.9853 0.11921 0.50033 0.0
C2691 C 0.00425 0.11063 0.51454 0.0
C2692 C 0.001 0.10393 0.37225 0.0
C2693 C 0.99245 0.11051 0.43774 0.0
C2694 C 0.99584 0.10511 0.33369 0.0
C2695 C 0.97675 0.11307 0.31912 0.0
C2696 C 0.98703 0.11084 0.39666 0.0
C2697 C 0.96303 0.11942 0.34448 0.0
C2698 C 0.97933 0.11913 0.46209 0.0
C2699 C 0.01677 0.10188 0.48933 0.0
N2700 N 0.96848 0.1183 0.38199 0.0
N2701 N 0.01068 0.10214 0.45222 0.0
H2702 H 0.61546 0.23145 0.0664 0.0
H2703 H 0.67369 0.23806 0.2698 0.0
H2704 H 0.67656 0.20768 0.0935 0.0
H2705 H 0.61292 0.26217 0.24012 0.0
H2706 H 0.67536 0.227 0.20581 0.0
H2707 H 0.61454 0.2427 0.13002 0.0
C2708 C 0.62878 0.22868 0.08558 0.0
C2709 C 0.64618 0.21866 0.07413 0.0
C2710 C 0.66166 0.23471 0.21333 0.0
C2711 C 0.6451 0.2314 0.14792 0.0
C2712 C 0.66073 0.24117 0.24988 0.0
C2713 C 0.6431 0.25105 0.26074 0.0
C2714 C 0.64487 0.23816 0.18716 0.0
C2715 C 0.62673 0.25433 0.23353 0.0
C2716 C 0.62818 0.23503 0.12215 0.0
C2717 C 0.66274 0.21515 0.10091 0.0
N2718 N 0.62803 0.24793 0.19823 0.0
N2719 N 0.66181 0.22154 0.13639 0.0
H2720 H 0.06879 0.57557 0.73523 0.0
H2721 H 0.12281 0.47997 0.87162 0.0
H2722 H 0.11068 0.53075 0.69521 0.0
H2723 H 0.08116 0.52677 0.90689 0.0
H2724 H 0.1197 0.49808 0.8081 0.0
H2725 H 0.07442 0.55808 0.79818 0.0
C2726 C 0.07937 0.56211 0.73959 0.0
C2727 C 0.08926 0.55479 0.70926 0.0
C2728 C 0.11125 0.50438 0.82975 0.0
C2729 C 0.09573 0.53415 0.7828 0.0
C2730 C 0.11307 0.49407 0.86635 0.0
C2731 C 0.10221 0.50162 0.89543 0.0
C2732 C 0.09849 0.52256 0.82164 0.0
C2733 C 0.08964 0.51989 0.88587 0.0
C2734 C 0.08255 0.55203 0.77589 0.0
C2735 C 0.10282 0.53721 0.71745 0.0
N2736 N 0.08819 0.52959 0.85022 0.0
N2737 N 0.10555 0.52745 0.75323 0.0
H2738 H 0.74532 0.86959 0.04468 0.0
H2739 H 0.73483 0.86822 0.2653 0.0
H2740 H 0.69041 0.84852 0.09204 0.0
H2741 H 0.78722 0.8406 0.22136 0.0
H2742 H 0.71879 0.87342 0.20082 0.0
H2743 H 0.76117 0.87146 0.10858 0.0
C2744 C 0.73639 0.86596 0.06843 0.0
C2745 C 0.71642 0.85902 0.06287 0.0
C2746 C 0.73396 0.86662 0.20537 0.0
C2747 C 0.73449 0.86135 0.13608 0.0
C2748 C 0.7432 0.86386 0.24203 0.0
C2749 C 0.76249 0.85416 0.24869 0.0
C2750 C 0.74431 0.86023 0.17504 0.0
C2751 C 0.77242 0.84829 0.21748 0.0
C2752 C 0.74553 0.86684 0.10486 0.0
C2753 C 0.70579 0.85405 0.09493 0.0
N2754 N 0.7633 0.85152 0.18207 0.0
N2755 N 0.7149 0.8554 0.1301 0.0
H2756 H 0.43659 0.47114 0.40375 0.0
H2757 H 0.41387 0.4804 0.17891 0.0
H2758 H 0.40963 0.5279 0.34304 0.0
H2759 H 0.43879 0.42407 0.24405 0.0
H2760 H 0.41157 0.49825 0.23758 0.0
H2761 H 0.43716 0.45406 0.34486 0.0
C2762 C 0.43065 0.48005 0.37814 0.0
C2763 C 0.42292 0.50108 0.3789 0.0
C2764 C 0.41743 0.48194 0.23895 0.0
C2765 C 0.42377 0.48141 0.31029 0.0
C2766 C 0.41865 0.47168 0.20541 0.0
C2767 C 0.42649 0.45059 0.20621 0.0
C2768 C 0.42412 0.47109 0.27368 0.0
C2769 C 0.43262 0.44028 0.24164 0.0
C2770 C 0.43108 0.47026 0.34427 0.0
C2771 C 0.41591 0.51178 0.34417 0.0
N2772 N 0.43135 0.45059 0.2736 0.0
N2773 N 0.41646 0.50186 0.31146 0.0
H2774 H 0.83691 0.15708 0.50407 0.0
H2775 H 0.74006 0.11793 0.61075 0.0
H2776 H 0.78662 0.12688 0.44757 0.0
H2777 H 0.78954 0.15269 0.66044 0.0
H2778 H 0.75724 0.11846 0.55219 0.0
H2779 H 0.82084 0.15187 0.56295 0.0
C2780 C 0.82263 0.14891 0.50416 0.0
C2781 C 0.81319 0.14234 0.47063 0.0
C2782 C 0.76434 0.1259 0.57598 0.0
C2783 C 0.79425 0.13673 0.53857 0.0
C2784 C 0.75446 0.12576 0.60945 0.0
C2785 C 0.76329 0.13525 0.641 0.0
C2786 C 0.78325 0.13559 0.57382 0.0
C2787 C 0.78217 0.14483 0.63741 0.0
C2788 C 0.81334 0.14609 0.53791 0.0
C2789 C 0.79459 0.13197 0.47272 0.0
N2790 N 0.79141 0.14475 0.60466 0.0
N2791 N 0.78563 0.12968 0.50601 0.0
H2792 H 0.8984 0.47168 0.66121 0.0
H2793 H 0.92265 0.46955 0.44356 0.0
H2794 H 0.93578 0.42383 0.61749 0.0
H2795 H 0.88687 0.52015 0.48328 0.0
H2796 H 0.92614 0.45227 0.50711 0.0
H2797 H 0.89232 0.48897 0.59698 0.0
C2798 C 0.9051 0.4646 0.63823 0.0
C2799 C 0.91763 0.44613 0.64523 0.0
C2800 C 0.91748 0.46714 0.50209 0.0
C2801 C 0.91089 0.4661 0.57128 0.0
C2802 C 0.91535 0.47705 0.46545 0.0
C2803 C 0.90432 0.49647 0.45732 0.0
C2804 C 0.90853 0.47649 0.5316 0.0
C2805 C 0.89569 0.50537 0.48778 0.0
C2806 C 0.90174 0.4746 0.60149 0.0
C2807 C 0.92604 0.43798 0.61397 0.0
N2808 N 0.89793 0.49536 0.52328 0.0
N2809 N 0.92258 0.44796 0.57883 0.0
H2810 H 0.24958 0.13228 0.08811 0.0
H2811 H 0.25521 0.13716 0.31065 0.0
H2812 H 0.20256 0.16395 0.14161 0.0
H2813 H 0.30723 0.15165 0.24857 0.0
H2814 H 0.23462 0.13584 0.25083 0.0
H2815 H 0.26976 0.12822 0.1489 0.0
C2816 C 0.24328 0.1379 0.11277 0.0
C2817 C 0.22426 0.14836 0.10973 0.0
C2818 C 0.25061 0.13897 0.25041 0.0
C2819 C 0.2472 0.14352 0.17942 0.0
C2820 C 0.26243 0.13954 0.2845 0.0
C2821 C 0.28305 0.14439 0.28472 0.0
C2822 C 0.25956 0.14266 0.21616 0.0
C2823 C 0.29144 0.14778 0.2498 0.0
C2824 C 0.25488 0.13575 0.14733 0.0
C2825 C 0.21708 0.15572 0.14262 0.0
N2826 N 0.27973 0.14671 0.21702 0.0
N2827 N 0.22845 0.15304 0.17604 0.0
H2828 H 0.57319 0.52708 0.94111 0.0
H2829 H 0.5901 0.51663 0.16723 0.0
H2830 H 0.59129 0.4676 1.00439 0.0
H2831 H 0.57196 0.57508 0.10091 0.0
H2832 H 0.59176 0.49841 0.10883 0.0
H2833 H 0.57313 0.5446 0.99975 0.0
C2834 C 0.577 0.51755 0.96724 0.0
C2835 C 0.58216 0.49563 0.96722 0.0
C2836 C 0.58753 0.51526 0.1071 0.0
C2837 C 0.58245 0.51602 0.03548 0.0
C2838 C 0.5867 0.52574 0.14053 0.0
C2839 C 0.58088 0.54754 0.13938 0.0
C2840 C 0.58252 0.52659 0.07203 0.0
C2841 C 0.57645 0.5583 0.10363 0.0
C2842 C 0.57713 0.5277 1.00093 0.0
C2843 C 0.5874 0.48452 1.0025 0.0
N2844 N 0.5773 0.54778 0.07174 0.0
N2845 N 0.58737 0.49477 0.03497 0.0
H2846 H 0.21271 0.86691 0.90091 0.0
H2847 H 0.21237 0.8389 0.68522 0.0
H2848 H 0.16493 0.83406 0.84209 0.0
H2849 H 0.26058 0.87345 0.73942 0.0
H2850 H 0.19442 0.83862 0.74229 0.0
H2851 H 0.22956 0.87209 0.84184 0.0
C2852 C 0.20548 0.8613 0.87548 0.0
C2853 C 0.1873 0.85009 0.87661 0.0
C2854 C 0.20891 0.84632 0.74182 0.0
C2855 C 0.20675 0.85547 0.80905 0.0
C2856 C 0.21931 0.84632 0.70917 0.0
C2857 C 0.23821 0.85605 0.70724 0.0
C2858 C 0.21733 0.85609 0.77331 0.0
C2859 C 0.24604 0.86585 0.73927 0.0
C2860 C 0.21523 0.86403 0.84181 0.0
C2861 C 0.17891 0.84279 0.84277 0.0
N2862 N 0.23566 0.86552 0.77092 0.0
N2863 N 0.18871 0.84546 0.81071 0.0
H2864 H 0.62271 0.97691 0.36812 0.0
H2865 H 0.56411 0.06779 0.22817 0.0
H2866 H 0.57788 0.0212 0.4006 0.0
H2867 H 0.6105 0.0271 0.19093 0.0
H2868 H 0.57006 0.05085 0.29136 0.0
H2869 H 0.61914 0.99431 0.30399 0.0
C2870 C 0.61204 0.99019 0.36197 0.0
C2871 C 0.60063 -0.00253 0.39052 0.0
C2872 C 0.5791 0.04559 0.26965 0.0
C2873 C 0.59663 0.01776 0.31641 0.0
C2874 C 0.57574 0.05536 0.23322 0.0
C2875 C 0.5868 0.04901 0.20362 0.0
C2876 C 0.59364 0.02899 0.27741 0.0
C2877 C 0.60168 0.03274 0.21263 0.0
C2878 C 0.61014 0.00024 0.32521 0.0
C2879 C 0.58731 0.01504 0.38028 0.0
N2880 N 0.60455 0.02322 0.24855 0.0
N2881 N 0.5857 0.02441 0.34445 0.0
H2882 H 0.20306 0.32034 0.60174 0.0
H2883 H 0.27189 0.38124 0.74682 0.0
H2884 H 0.22365 0.38314 0.56523 0.0
H2885 H 0.27889 0.31371 0.73235 0.0
H2886 H 0.24995 0.38508 0.68776 0.0
H2887 H 0.22538 0.32067 0.65846 0.0
C2888 C 0.21206 0.33441 0.60568 0.0
C2889 C 0.2114 0.35174 0.57812 0.0
C2890 C 0.25652 0.36954 0.69752 0.0
C2891 C 0.23723 0.3521 0.64415 0.0
C2892 C 0.26903 0.3673 0.73119 0.0
C2893 C 0.2774 0.34712 0.74474 0.0
C2894 C 0.25189 0.35136 0.67795 0.0
C2895 C 0.27301 0.32963 0.72321 0.0
C2896 C 0.22495 0.33446 0.6382 0.0
C2897 C 0.22362 0.36941 0.5855 0.0
N2898 N 0.26042 0.33211 0.69143 0.0
N2899 N 0.23602 0.36918 0.61787 0.0
H2900 H 0.89326 0.02411 0.83432 0.0
H2901 H 0.9217 0.91659 0.73813 0.0
H2902 H 0.9131 0.96465 0.89583 0.0
H2903 H 0.90012 0.97444 0.67346 0.0
H2904 H 0.91758 0.93407 0.79569 0.0
H2905 H 0.89525 0.00673 0.77542 0.0
C2906 C 0.89814 0.00746 0.83562 0.0
C2907 C 0.90297 0.99594 0.87057 0.0
C2908 C 0.91358 0.94298 0.76902 0.0
C2909 C 0.90507 0.97576 0.80264 0.0
C2910 C 0.91588 0.93294 0.73588 0.0
C2911 C 0.91123 0.94395 0.70048 0.0
C2912 C 0.90666 0.96441 0.76731 0.0
C2913 C 0.90378 0.96519 0.69992 0.0
C2914 C 0.89912 -0.00251 0.80183 0.0
C2915 C 0.9089 0.97425 0.86995 0.0
N2916 N 0.90185 0.97473 0.73271 0.0
N2917 N 0.90979 0.96499 0.8368 0.0
H2918 H 0.28634 0.65561 0.15853 0.0
H2919 H 0.28468 0.62803 0.94249 0.0
H2920 H 0.23759 0.62154 0.10493 0.0
H2921 H 0.33309 0.66013 1.00098 0.0
H2922 H 0.26806 0.62288 1.00182 0.0
H2923 H 0.30401 0.65577 0.10115 0.0
C2924 C 0.27922 0.64827 0.13465 0.0
C2925 C 0.26026 0.63871 0.13683 0.0
C2926 C 0.28248 0.63076 1.00172 0.0
C2927 C 0.2808 0.63854 0.07039 0.0
C2928 C 0.29209 0.63347 0.9679 0.0
C2929 C 0.31038 0.64447 0.96661 0.0
C2930 C 0.29121 0.63912 0.03447 0.0
C2931 C 0.31902 0.65157 1.00043 0.0
C2932 C 0.28946 0.6482 0.10181 0.0
C2933 C 0.25219 0.62901 0.10487 0.0
N2934 N 0.30934 0.64892 0.03263 0.0
N2935 N 0.26242 0.62927 0.07303 0.0
H2936 H 0.39207 0.96502 0.15391 0.0
H2937 H 0.42276 0.96742 0.93948 0.0
H2938 H 0.43456 0.92118 0.11286 0.0
H2939 H 0.38155 0.01409 0.97647 0.0
H2940 H 0.42581 0.94983 1.00278 0.0
H2941 H 0.38631 0.98235 0.08964 0.0
C2942 C 0.39995 0.95879 0.13145 0.0
C2943 C 0.41383 0.9415 0.13918 0.0
C2944 C 0.41605 0.9639 0.99721 0.0
C2945 C 0.40749 0.96152 0.06535 0.0
C2946 C 0.41419 0.97397 0.96072 0.0
C2947 C 0.40177 0.99238 0.95195 0.0
C2948 C 0.40543 0.97207 0.02586 0.0
C2949 C 0.39147 0.00013 0.98156 0.0
C2950 C 0.39678 0.96883 0.09474 0.0
C2951 C 0.42378 0.93446 0.10871 0.0
N2952 N 0.39349 0.98998 1.01694 0.0
N2953 N 0.42046 0.94443 0.07358 0.0
H2954 H 0.81273 0.64683 0.75386 0.0
H2955 H 0.71295 0.65127 0.62425 0.0
H2956 H 0.75791 0.62373 0.79898 0.0
H2957 H 0.7673 0.62755 0.58125 0.0
H2958 H 0.7291 0.64578 0.68834 0.0
H2959 H 0.79698 0.64426 0.69001 0.0
C2960 C 0.79753 0.64083 0.7504 0.0
C2961 C 0.78675 0.63522 0.78201 0.0
C2962 C 0.73737 0.64145 0.66492 0.0
C2963 C 0.76837 0.63309 0.70886 0.0
C2964 C 0.72815 0.64452 0.62836 0.0
C2965 C 0.73865 0.6395 0.59733 0.0
C2966 C 0.75755 0.63411 0.67059 0.0
C2967 C 0.75851 0.63122 0.60436 0.0
C2968 C 0.78855 0.63941 0.71394 0.0
C2969 C 0.76694 0.62789 0.7756 0.0
N2970 N 0.76745 0.62918 0.64011 0.0
N2971 N 0.75828 0.62745 0.73989 0.0
H2972 H 0.10348 0.96269 0.51404 0.0
H2973 H 0.07577 0.07025 0.61064 0.0
H2974 H 0.08473 0.02255 0.4527 0.0
H2975 H 0.09655 0.012 0.67502 0.0
H2976 H 0.07988 0.05287 0.55298 0.0
H2977 H 0.10134 0.97994 0.57303 0.0
C2978 C 0.09881 0.97941 0.51281 0.0
C2979 C 0.09433 0.99109 0.47791 0.0
C2980 C 0.0837 0.04385 0.57962 0.0
C2981 C 0.09205 0.01109 0.54588 0.0
C2982 C 0.08141 0.05383 0.6128 0.0
C2983 C 0.08585 0.04267 0.64814 0.0
C2984 C 0.09041 0.02235 0.58124 0.0
C2985 C 0.09306 0.02135 0.64861 0.0
C2986 C 0.09774 0.9893 0.54664 0.0
C2987 C 0.08865 0.01284 0.47857 0.0
N2988 N 0.095 0.01188 0.61578 0.0
N2989 N 0.08766 0.02202 0.51176 0.0
H2990 H 0.70007 0.30795 0.37652 0.0
H2991 H 0.73163 0.38731 0.20666 0.0
H2992 H 0.69086 0.37631 0.37803 0.0
H2993 H 0.75198 0.32136 0.22793 0.0
H2994 H 0.71596 0.38474 0.26697 0.0
H2995 H 0.71783 0.31356 0.32024 0.0
C2996 C 0.70169 0.32428 0.36489 0.0
C2997 C 0.69361 0.34168 0.38202 0.0
C2998 C 0.72395 0.37091 0.25841 0.0
C2999 C 0.71441 0.34828 0.3164 0.0
C3000 C 0.733 0.37234 0.22398 0.0
C3001 C 0.74307 0.35443 0.2116 0.0
C3002 C 0.72486 0.3514 0.28069 0.0
C3003 C 0.74404 0.33547 0.23541 0.0
C3004 C 0.71204 0.32747 0.33262 0.0
C3005 C 0.69674 0.36243 0.36576 0.0
N3006 N 0.73502 0.33448 0.2684 0.0
N3007 N 0.70674 0.36517 0.33353 0.0
loop_
_geom_bond_atom_site_label_1
_geom_bond_atom_site_label_2
_geom_bond_distance
_geom_bond_site_symmetry_2
_ccdc_geom_bond_type
Pr0 C2 2.880 . S
Pr0 O20 2.562 . S
Pr0 O21 2.490 . S
Pr0 O22 2.695 . S
Pr0 O23 2.512 . S
Pr0 O25 2.437 . S
Pr0 O28 2.436 . S
Pr0 O30 2.438 . S
Pr1 C11 2.880 . S
Pr1 O22 2.436 . S
Pr1 O24 2.438 . S
Pr1 O26 2.562 . S
Pr1 O27 2.490 . S
Pr1 O28 2.695 . S
Pr1 O29 2.512 . S
Pr1 O31 2.437 . S
C2 Pr0 2.880 . S
C2 C3 1.491 . S
C2 O20 1.254 . S
C2 O21 1.225 . S
C3 C2 1.491 . S
C3 C4 1.376 1_455 S
C3 C8 1.356 . S
C4 C3 1.376 1_655 S
C4 C5 1.374 . S
C4 H32 0.940 . S
C5 C4 1.374 . S
C5 C6 1.386 1_655 S
C5 H33 0.929 . S
C6 C5 1.386 1_455 S
C6 C7 1.373 . S
C7 C6 1.373 . S
C7 C8 1.409 . S
C7 H34 0.931 . S
C8 C3 1.356 . S
C8 C7 1.409 . S
C8 H35 0.930 . S
C9 O22 1.270 . S
C9 O23 1.248 . S
C10 O24 1.267 . S
C10 O25 1.278 . S
C11 Pr1 2.880 . S
C11 C12 1.491 1_554 S
C11 O26 1.254 . S
C11 O27 1.225 . S
C12 C11 1.491 1_556 S
C12 C13 1.392 . S
C12 C17 1.356 . S
C13 C12 1.392 . S
C13 C14 1.368 . S
C13 H36 0.929 1_556 S
C14 C13 1.368 . S
C14 C15 1.386 . S
C14 H37 0.929 . S
C15 C14 1.386 . S
C15 C16 1.373 . S
C16 C15 1.373 . S
C16 C17 1.409 . S
C16 H38 0.931 . S
C17 C12 1.356 . S
C17 C16 1.409 . S
C17 H39 0.930 . S
C18 O28 1.270 . S
C18 O29 1.248 . S
C19 O30 1.267 . S
C19 O31 1.278 . S
O20 Pr0 2.562 . S
O20 C2 1.254 . S
O21 Pr0 2.490 . S
O21 C2 1.225 . S
O22 Pr0 2.695 . S
O22 Pr1 2.436 . S
O22 C9 1.270 . S
O23 Pr0 2.512 . S
O23 C9 1.248 . S
O24 Pr1 2.438 . S
O24 C10 1.267 . S
O25 Pr0 2.437 . S
O25 C10 1.278 . S
O26 Pr1 2.562 . S
O26 C11 1.254 . S
O27 Pr1 2.490 . S
O27 C11 1.225 . S
O28 Pr0 2.436 . S
O28 Pr1 2.695 . S
O28 C18 1.270 . S
O29 Pr1 2.512 . S
O29 C18 1.248 . S
O30 Pr0 2.438 . S
O30 C19 1.267 . S
O31 Pr1 2.437 . S
O31 C19 1.278 . S
H32 C4 0.940 . S
H33 C5 0.929 . S
H34 C7 0.931 . S
H35 C8 0.930 . S
H36 C13 0.929 1_554 S
H37 C14 0.929 . S
H38 C16 0.931 . S
H39 C17 0.930 . S
Pr40 C42 2.880 . S
Pr40 O60 2.562 . S
Pr40 O61 2.490 . S
Pr40 O62 2.695 . S
Pr40 O63 2.512 . S
Pr40 O65 2.437 . S
Pr40 O68 2.436 . S
Pr40 O70 2.438 . S
Pr41 C51 2.880 . S
Pr41 O62 2.436 . S
Pr41 O64 2.438 . S
Pr41 O66 2.562 . S
Pr41 O67 2.490 . S
Pr41 O68 2.695 . S
Pr41 O69 2.512 . S
Pr41 O71 2.437 . S
C42 Pr40 2.880 . S
C42 C43 1.491 . S
C42 O60 1.254 . S
C42 O61 1.225 . S
C43 C42 1.491 . S
C43 C44 1.392 . S
C43 C48 1.356 . S
C44 C43 1.392 . S
C44 C45 1.368 . S
C44 H72 0.929 . S
C45 C44 1.368 . S
C45 C46 1.386 . S
C45 H73 0.929 . S
C46 C45 1.386 . S
C46 C47 1.373 . S
C47 C46 1.373 . S
C47 C48 1.409 . S
C47 H74 0.931 . S
C48 C43 1.356 . S
C48 C47 1.409 . S
C48 H75 0.930 . S
C49 O62 1.270 . S
C49 O63 1.248 . S
C50 O64 1.267 . S
C50 O65 1.278 . S
C51 Pr41 2.880 . S
C51 C52 1.491 . S
C51 O66 1.254 . S
C51 O67 1.225 . S
C52 C51 1.491 . S
C52 C53 1.392 . S
C52 C57 1.356 . S
C53 C52 1.392 . S
C53 C54 1.368 . S
C53 H76 0.929 . S
C54 C53 1.368 . S
C54 C55 1.386 . S
C54 H77 0.929 . S
C55 C54 1.386 . S
C55 C56 1.373 . S
C56 C55 1.373 . S
C56 C57 1.409 . S
C56 H78 0.931 . S
C57 C52 1.356 . S
C57 C56 1.409 . S
C57 H79 0.930 . S
C58 O68 1.270 . S
C58 O69 1.248 . S
C59 O70 1.267 . S
C59 O71 1.278 . S
O60 Pr40 2.562 . S
O60 C42 1.254 . S
O61 Pr40 2.490 . S
O61 C42 1.225 . S
O62 Pr40 2.695 . S
O62 Pr41 2.436 . S
O62 C49 1.270 . S
O63 Pr40 2.512 . S
O63 C49 1.248 . S
O64 Pr41 2.438 . S
O64 C50 1.267 . S
O65 Pr40 2.437 . S
O65 C50 1.278 . S
O66 Pr41 2.562 . S
O66 C51 1.254 . S
O67 Pr41 2.490 . S
O67 C51 1.225 . S
O68 Pr40 2.436 . S
O68 Pr41 2.695 . S
O68 C58 1.270 . S
O69 Pr41 2.512 . S
O69 C58 1.248 . S
O70 Pr40 2.438 . S
O70 C59 1.267 . S
O71 Pr41 2.437 . S
O71 C59 1.278 . S
H72 C44 0.929 . S
H73 C45 0.929 . S
H74 C47 0.931 . S
H75 C48 0.930 . S
H76 C53 0.929 . S
H77 C54 0.929 . S
H78 C56 0.931 . S
H79 C57 0.930 . S
Pr80 C82 2.880 . S
Pr80 O100 2.562 . S
Pr80 O101 2.490 . S
Pr80 O102 2.695 . S
Pr80 O103 2.512 . S
Pr80 O105 2.437 . S
Pr80 O108 2.436 . S
Pr80 O110 2.438 . S
Pr81 C91 2.880 . S
Pr81 O102 2.436 . S
Pr81 O104 2.438 . S
Pr81 O106 2.562 . S
Pr81 O107 2.490 . S
Pr81 O108 2.695 . S
Pr81 O109 2.512 . S
Pr81 O111 2.437 . S
C82 Pr80 2.880 . S
C82 C83 1.491 . S
C82 O100 1.254 . S
C82 O101 1.225 . S
C83 C82 1.491 . S
C83 C84 1.392 . S
C83 C88 1.356 . S
C84 C83 1.392 . S
C84 C85 1.368 . S
C84 H112 0.929 . S
C85 C84 1.368 . S
C85 C86 1.386 . S
C85 H113 0.929 . S
C86 C85 1.386 . S
C86 C87 1.373 . S
C87 C86 1.373 . S
C87 C88 1.409 . S
C87 H114 0.931 . S
C88 C83 1.356 . S
C88 C87 1.409 . S
C88 H115 0.930 . S
C89 O102 1.270 . S
C89 O103 1.248 . S
C90 O104 1.267 . S
C90 O105 1.278 . S
C91 Pr81 2.880 . S
C91 C92 1.491 . S
C91 O106 1.254 . S
C91 O107 1.225 . S
C92 C91 1.491 . S
C92 C93 1.392 . S
C92 C97 1.356 . S
C93 C92 1.392 . S
C93 C94 1.368 . S
C93 H116 0.929 . S
C94 C93 1.368 . S
C94 C95 1.386 . S
C94 H117 0.929 . S
C95 C94 1.386 . S
C95 C96 1.373 . S
C96 C95 1.373 . S
C96 C97 1.409 . S
C96 H118 0.931 . S
C97 C92 1.356 . S
C97 C96 1.409 . S
C97 H119 0.930 . S
C98 O108 1.270 . S
C98 O109 1.248 . S
C99 O110 1.267 . S
C99 O111 1.278 . S
O100 Pr80 2.562 . S
O100 C82 1.254 . S
O101 Pr80 2.490 . S
O101 C82 1.225 . S
O102 Pr80 2.695 . S
O102 Pr81 2.436 . S
O102 C89 1.270 . S
O103 Pr80 2.512 . S
O103 C89 1.248 . S
O104 Pr81 2.438 . S
O104 C90 1.267 . S
O105 Pr80 2.437 . S
O105 C90 1.278 . S
O106 Pr81 2.562 . S
O106 C91 1.254 . S
O107 Pr81 2.490 . S
O107 C91 1.225 . S
O108 Pr80 2.436 . S
O108 Pr81 2.695 . S
O108 C98 1.270 . S
O109 Pr81 2.512 . S
O109 C98 1.248 . S
O110 Pr80 2.438 . S
O110 C99 1.267 . S
O111 Pr81 2.437 . S
O111 C99 1.278 . S
H112 C84 0.929 . S
H113 C85 0.929 . S
H114 C87 0.931 . S
H115 C88 0.930 . S
H116 C93 0.929 . S
H117 C94 0.929 . S
H118 C96 0.931 . S
H119 C97 0.930 . S
Pr120 C122 2.880 . S
Pr120 O140 2.562 . S
Pr120 O141 2.490 . S
Pr120 O142 2.695 . S
Pr120 O143 2.512 . S
Pr120 O145 2.437 . S
Pr120 O148 2.436 . S
Pr120 O150 2.438 . S
Pr121 C131 2.880 . S
Pr121 O142 2.436 . S
Pr121 O144 2.438 . S
Pr121 O146 2.562 . S
Pr121 O147 2.490 . S
Pr121 O148 2.695 . S
Pr121 O149 2.512 . S
Pr121 O151 2.437 . S
C122 Pr120 2.880 . S
C122 C123 1.491 . S
C122 O140 1.254 . S
C122 O141 1.225 . S
C123 C122 1.491 . S
C123 C124 1.392 1_556 S
C123 C128 1.356 1_556 S
C124 C123 1.392 1_554 S
C124 C125 1.368 . S
C124 H152 0.929 1_554 S
C125 C124 1.368 . S
C125 C126 1.386 . S
C125 H153 0.929 . S
C126 C125 1.386 . S
C126 C127 1.373 . S
C127 C126 1.373 . S
C127 C128 1.409 . S
C127 H154 0.931 . S
C128 C123 1.356 1_554 S
C128 C127 1.409 . S
C128 H155 0.930 . S
C129 O142 1.270 . S
C129 O143 1.248 . S
C130 O144 1.267 . S
C130 O145 1.278 . S
C131 Pr121 2.880 . S
C131 C132 1.491 . S
C131 O146 1.254 . S
C131 O147 1.225 . S
C132 C131 1.491 . S
C132 C133 1.392 . S
C132 C137 1.356 . S
C133 C132 1.392 . S
C133 C134 1.368 . S
C133 H156 0.929 . S
C134 C133 1.368 . S
C134 C135 1.386 . S
C134 H157 0.929 . S
C135 C134 1.386 . S
C135 C136 1.373 . S
C136 C135 1.373 . S
C136 C137 1.409 . S
C136 H158 0.931 . S
C137 C132 1.356 . S
C137 C136 1.409 . S
C137 H159 0.930 . S
C138 O148 1.270 . S
C138 O149 1.248 . S
C139 O150 1.267 . S
C139 O151 1.278 . S
O140 Pr120 2.562 . S
O140 C122 1.254 . S
O141 Pr120 2.490 . S
O141 C122 1.225 . S
O142 Pr120 2.695 . S
O142 Pr121 2.436 . S
O142 C129 1.270 . S
O143 Pr120 2.512 . S
O143 C129 1.248 . S
O144 Pr121 2.438 . S
O144 C130 1.267 . S
O145 Pr120 2.437 . S
O145 C130 1.278 . S
O146 Pr121 2.562 . S
O146 C131 1.254 . S
O147 Pr121 2.490 . S
O147 C131 1.225 . S
O148 Pr120 2.436 . S
O148 Pr121 2.695 . S
O148 C138 1.270 . S
O149 Pr121 2.512 . S
O149 C138 1.248 . S
O150 Pr120 2.438 . S
O150 C139 1.267 . S
O151 Pr121 2.437 . S
O151 C139 1.278 . S
H152 C124 0.929 1_556 S
H153 C125 0.929 . S
H154 C127 0.931 . S
H155 C128 0.930 . S
H156 C133 0.929 . S
H157 C134 0.929 . S
H158 C136 0.931 . S
H159 C137 0.930 . S
Pr160 C162 2.880 . S
Pr160 O180 2.562 . S
Pr160 O181 2.490 . S
Pr160 O182 2.695 . S
Pr160 O183 2.512 . S
Pr160 O185 2.437 . S
Pr160 O188 2.436 . S
Pr160 O190 2.438 . S
Pr161 C171 2.880 . S
Pr161 O182 2.436 . S
Pr161 O184 2.438 . S
Pr161 O186 2.562 . S
Pr161 O187 2.490 . S
Pr161 O188 2.695 . S
Pr161 O189 2.512 . S
Pr161 O191 2.437 . S
C162 Pr160 2.880 . S
C162 C163 1.491 . S
C162 O180 1.254 . S
C162 O181 1.225 . S
C163 C162 1.491 . S
C163 C164 1.392 . S
C163 C168 1.356 . S
C164 C163 1.392 . S
C164 C165 1.368 . S
C164 H192 0.929 . S
C165 C164 1.368 . S
C165 C166 1.386 . S
C165 H193 0.929 . S
C166 C165 1.386 . S
C166 C167 1.373 . S
C167 C166 1.373 . S
C167 C168 1.409 . S
C167 H194 0.931 . S
C168 C163 1.356 . S
C168 C167 1.409 . S
C168 H195 0.930 . S
C169 O182 1.270 . S
C169 O183 1.248 . S
C170 O184 1.267 . S
C170 O185 1.278 . S
C171 Pr161 2.880 . S
C171 C172 1.491 . S
C171 O186 1.254 . S
C171 O187 1.225 . S
C172 C171 1.491 . S
C172 C173 1.392 . S
C172 C177 1.356 . S
C173 C172 1.392 . S
C173 C174 1.368 . S
C173 H196 0.929 . S
C174 C173 1.368 . S
C174 C175 1.386 . S
C174 H197 0.929 . S
C175 C174 1.386 . S
C175 C176 1.373 . S
C176 C175 1.373 . S
C176 C177 1.409 . S
C176 H198 0.931 . S
C177 C172 1.356 . S
C177 C176 1.409 . S
C177 H199 0.930 . S
C178 O188 1.270 . S
C178 O189 1.248 . S
C179 O190 1.267 . S
C179 O191 1.278 . S
O180 Pr160 2.562 . S
O180 C162 1.254 . S
O181 Pr160 2.490 . S
O181 C162 1.225 . S
O182 Pr160 2.695 . S
O182 Pr161 2.436 . S
O182 C169 1.270 . S
O183 Pr160 2.512 . S
O183 C169 1.248 . S
O184 Pr161 2.438 . S
O184 C170 1.267 . S
O185 Pr160 2.437 . S
O185 C170 1.278 . S
O186 Pr161 2.562 . S
O186 C171 1.254 . S
O187 Pr161 2.490 . S
O187 C171 1.225 . S
O188 Pr160 2.436 . S
O188 Pr161 2.695 . S
O188 C178 1.270 . S
O189 Pr161 2.512 . S
O189 C178 1.248 . S
O190 Pr160 2.438 . S
O190 C179 1.267 . S
O191 Pr161 2.437 . S
O191 C179 1.278 . S
H192 C164 0.929 . S
H193 C165 0.929 . S
H194 C167 0.931 . S
H195 C168 0.930 . S
H196 C173 0.929 . S
H197 C174 0.929 . S
H198 C176 0.931 . S
H199 C177 0.930 . S
Pr200 C202 2.880 1_556 S
Pr200 O220 2.562 1_556 S
Pr200 O221 2.490 1_556 S
Pr200 O222 2.695 . S
Pr200 O223 2.512 . S
Pr200 O225 2.437 . S
Pr200 O228 2.436 . S
Pr200 O230 2.438 . S
Pr201 C211 2.880 . S
Pr201 O222 2.436 . S
Pr201 O224 2.438 . S
Pr201 O226 2.562 . S
Pr201 O227 2.490 . S
Pr201 O228 2.695 . S
Pr201 O229 2.512 . S
Pr201 O231 2.437 . S
C202 Pr200 2.880 1_554 S
C202 C203 1.491 . S
C202 O220 1.254 . S
C202 O221 1.225 . S
C203 C202 1.491 . S
C203 C204 1.392 . S
C203 C208 1.356 . S
C204 C203 1.392 . S
C204 C205 1.368 . S
C204 H232 0.929 . S
C205 C204 1.368 . S
C205 C206 1.386 . S
C205 H233 0.929 . S
C206 C205 1.386 . S
C206 C207 1.373 . S
C207 C206 1.373 . S
C207 C208 1.409 . S
C207 H234 0.931 . S
C208 C203 1.356 . S
C208 C207 1.409 . S
C208 H235 0.930 . S
C209 O222 1.270 . S
C209 O223 1.248 . S
C210 O224 1.267 . S
C210 O225 1.278 . S
C211 Pr201 2.880 . S
C211 C212 1.491 . S
C211 O226 1.254 . S
C211 O227 1.225 . S
C212 C211 1.491 . S
C212 C213 1.392 . S
C212 C217 1.356 . S
C213 C212 1.392 . S
C213 C214 1.368 . S
C213 H236 0.929 . S
C214 C213 1.368 . S
C214 C215 1.386 . S
C214 H237 0.929 . S
C215 C214 1.386 . S
C215 C216 1.373 . S
C216 C215 1.373 . S
C216 C217 1.409 . S
C216 H238 0.931 . S
C217 C212 1.356 . S
C217 C216 1.409 . S
C217 H239 0.930 . S
C218 O228 1.270 . S
C218 O229 1.248 . S
C219 O230 1.267 . S
C219 O231 1.278 . S
O220 Pr200 2.562 1_554 S
O220 C202 1.254 . S
O221 Pr200 2.490 1_554 S
O221 C202 1.225 . S
O222 Pr200 2.695 . S
O222 Pr201 2.436 . S
O222 C209 1.270 . S
O223 Pr200 2.512 . S
O223 C209 1.248 . S
O224 Pr201 2.438 . S
O224 C210 1.267 . S
O225 Pr200 2.437 . S
O225 C210 1.278 . S
O226 Pr201 2.562 . S
O226 C211 1.254 . S
O227 Pr201 2.490 . S
O227 C211 1.225 . S
O228 Pr200 2.436 . S
O228 Pr201 2.695 . S
O228 C218 1.270 . S
O229 Pr201 2.512 . S
O229 C218 1.248 . S
O230 Pr200 2.438 . S
O230 C219 1.267 . S
O231 Pr201 2.437 . S
O231 C219 1.278 . S
H232 C204 0.929 . S
H233 C205 0.929 . S
H234 C207 0.931 . S
H235 C208 0.930 . S
H236 C213 0.929 . S
H237 C214 0.929 . S
H238 C216 0.931 . S
H239 C217 0.930 . S
Pr240 C242 2.880 . S
Pr240 O260 2.562 . S
Pr240 O261 2.490 . S
Pr240 O262 2.695 . S
Pr240 O263 2.512 . S
Pr240 O265 2.437 . S
Pr240 O268 2.436 . S
Pr240 O270 2.438 . S
Pr241 C251 2.880 1_554 S
Pr241 O262 2.436 . S
Pr241 O264 2.438 . S
Pr241 O266 2.562 1_554 S
Pr241 O267 2.490 1_554 S
Pr241 O268 2.695 . S
Pr241 O269 2.512 . S
Pr241 O271 2.437 . S
C242 Pr240 2.880 . S
C242 C243 1.491 . S
C242 O260 1.254 . S
C242 O261 1.225 . S
C243 C242 1.491 . S
C243 C244 1.392 . S
C243 C248 1.356 . S
C244 C243 1.392 . S
C244 C245 1.368 . S
C244 H272 0.929 . S
C245 C244 1.368 . S
C245 C246 1.386 . S
C245 H273 0.929 . S
C246 C245 1.386 . S
C246 C247 1.373 . S
C247 C246 1.373 . S
C247 C248 1.409 . S
C247 H274 0.931 . S
C248 C243 1.356 . S
C248 C247 1.409 . S
C248 H275 0.930 . S
C249 O262 1.270 . S
C249 O263 1.248 . S
C250 O264 1.267 . S
C250 O265 1.278 . S
C251 Pr241 2.880 1_556 S
C251 C252 1.491 . S
C251 O266 1.254 . S
C251 O267 1.225 . S
C252 C251 1.491 . S
C252 C253 1.392 . S
C252 C257 1.356 . S
C253 C252 1.392 . S
C253 C254 1.368 . S
C253 H276 0.929 . S
C254 C253 1.368 . S
C254 C255 1.386 . S
C254 H277 0.929 . S
C255 C254 1.386 . S
C255 C256 1.373 . S
C256 C255 1.373 . S
C256 C257 1.409 . S
C256 H278 0.931 . S
C257 C252 1.356 . S
C257 C256 1.409 . S
C257 H279 0.930 . S
C258 O268 1.270 . S
C258 O269 1.248 . S
C259 O270 1.267 . S
C259 O271 1.278 . S
O260 Pr240 2.562 . S
O260 C242 1.254 . S
O261 Pr240 2.490 . S
O261 C242 1.225 . S
O262 Pr240 2.695 . S
O262 Pr241 2.436 . S
O262 C249 1.270 . S
O263 Pr240 2.512 . S
O263 C249 1.248 . S
O264 Pr241 2.438 . S
O264 C250 1.267 . S
O265 Pr240 2.437 . S
O265 C250 1.278 . S
O266 Pr241 2.562 1_556 S
O266 C251 1.254 . S
O267 Pr241 2.490 1_556 S
O267 C251 1.225 . S
O268 Pr240 2.436 . S
O268 Pr241 2.695 . S
O268 C258 1.270 . S
O269 Pr241 2.512 . S
O269 C258 1.248 . S
O270 Pr240 2.438 . S
O270 C259 1.267 . S
O271 Pr241 2.437 . S
O271 C259 1.278 . S
H272 C244 0.929 . S
H273 C245 0.929 . S
H274 C247 0.931 . S
H275 C248 0.930 . S
H276 C253 0.929 . S
H277 C254 0.929 . S
H278 C256 0.931 . S
H279 C257 0.930 . S
Pr280 C282 2.880 . S
Pr280 O300 2.562 . S
Pr280 O301 2.490 . S
Pr280 O302 2.695 . S
Pr280 O303 2.512 . S
Pr280 O305 2.437 . S
Pr280 O308 2.436 . S
Pr280 O310 2.438 . S
Pr281 C291 2.880 . S
Pr281 O302 2.436 . S
Pr281 O304 2.438 . S
Pr281 O306 2.562 . S
Pr281 O307 2.490 . S
Pr281 O308 2.695 . S
Pr281 O309 2.512 . S
Pr281 O311 2.437 . S
C282 Pr280 2.880 . S
C282 C283 1.491 . S
C282 O300 1.254 . S
C282 O301 1.225 . S
C283 C282 1.491 . S
C283 C284 1.392 . S
C283 C288 1.356 . S
C284 C283 1.392 . S
C284 C285 1.368 . S
C284 H312 0.929 . S
C285 C284 1.368 . S
C285 C286 1.386 . S
C285 H313 0.929 . S
C286 C285 1.386 . S
C286 C287 1.373 . S
C287 C286 1.373 . S
C287 C288 1.409 . S
C287 H314 0.931 . S
C288 C283 1.356 . S
C288 C287 1.409 . S
C288 H315 0.930 . S
C289 O302 1.270 . S
C289 O303 1.248 . S
C290 O304 1.267 . S
C290 O305 1.278 . S
C291 Pr281 2.880 . S
C291 C292 1.491 . S
C291 O306 1.254 . S
C291 O307 1.225 . S
C292 C291 1.491 . S
C292 C293 1.392 . S
C292 C297 1.356 . S
C293 C292 1.392 . S
C293 C294 1.368 . S
C293 H316 0.929 . S
C294 C293 1.368 . S
C294 C295 1.386 . S
C294 H317 0.929 . S
C295 C294 1.386 . S
C295 C296 1.373 . S
C296 C295 1.373 . S
C296 C297 1.409 . S
C296 H318 0.931 . S
C297 C292 1.356 . S
C297 C296 1.409 . S
C297 H319 0.930 . S
C298 O308 1.270 . S
C298 O309 1.248 . S
C299 O310 1.267 . S
C299 O311 1.278 . S
O300 Pr280 2.562 . S
O300 C282 1.254 . S
O301 Pr280 2.490 . S
O301 C282 1.225 . S
O302 Pr280 2.695 . S
O302 Pr281 2.436 . S
O302 C289 1.270 . S
O303 Pr280 2.512 . S
O303 C289 1.248 . S
O304 Pr281 2.438 . S
O304 C290 1.267 . S
O305 Pr280 2.437 . S
O305 C290 1.278 . S
O306 Pr281 2.562 . S
O306 C291 1.254 . S
O307 Pr281 2.490 . S
O307 C291 1.225 . S
O308 Pr280 2.436 . S
O308 Pr281 2.695 . S
O308 C298 1.270 . S
O309 Pr281 2.512 . S
O309 C298 1.248 . S
O310 Pr280 2.438 . S
O310 C299 1.267 . S
O311 Pr281 2.437 . S
O311 C299 1.278 . S
H312 C284 0.929 . S
H313 C285 0.929 . S
H314 C287 0.931 . S
H315 C288 0.930 . S
H316 C293 0.929 . S
H317 C294 0.929 . S
H318 C296 0.931 . S
H319 C297 0.930 . S
Pr320 C322 2.880 . S
Pr320 O340 2.562 . S
Pr320 O341 2.490 . S
Pr320 O342 2.695 . S
Pr320 O343 2.512 . S
Pr320 O345 2.437 . S
Pr320 O348 2.436 . S
Pr320 O350 2.438 . S
Pr321 C331 2.880 . S
Pr321 O342 2.436 . S
Pr321 O344 2.438 . S
Pr321 O346 2.562 . S
Pr321 O347 2.490 . S
Pr321 O348 2.695 . S
Pr321 O349 2.512 . S
Pr321 O351 2.437 . S
C322 Pr320 2.880 . S
C322 C323 1.491 . S
C322 O340 1.254 . S
C322 O341 1.225 . S
C323 C322 1.491 . S
C323 C324 1.392 . S
C323 C328 1.356 . S
C324 C323 1.392 . S
C324 C325 1.368 . S
C324 H352 0.929 . S
C325 C324 1.368 . S
C325 C326 1.386 . S
C325 H353 0.929 . S
C326 C325 1.386 . S
C326 C327 1.373 . S
C327 C326 1.373 . S
C327 C328 1.409 . S
C327 H354 0.931 . S
C328 C323 1.356 . S
C328 C327 1.409 . S
C328 H355 0.930 . S
C329 O342 1.270 . S
C329 O343 1.248 . S
C330 O344 1.267 . S
C330 O345 1.278 . S
C331 Pr321 2.880 . S
C331 C332 1.491 . S
C331 O346 1.254 . S
C331 O347 1.225 . S
C332 C331 1.491 . S
C332 C333 1.373 1_655 S
C332 C337 1.356 . S
C333 C332 1.373 1_455 S
C333 C334 1.375 1_554 S
C333 H356 0.942 . S
C334 C333 1.375 1_556 S
C334 C335 1.386 1_455 S
C334 H357 0.929 . S
C335 C334 1.386 1_655 S
C335 C336 1.373 . S
C336 C335 1.373 . S
C336 C337 1.409 1_556 S
C336 H358 0.931 . S
C337 C332 1.356 . S
C337 C336 1.409 1_554 S
C337 H359 0.930 . S
C338 O348 1.270 . S
C338 O349 1.248 . S
C339 O350 1.267 . S
C339 O351 1.278 . S
O340 Pr320 2.562 . S
O340 C322 1.254 . S
O341 Pr320 2.490 . S
O341 C322 1.225 . S
O342 Pr320 2.695 . S
O342 Pr321 2.436 . S
O342 C329 1.270 . S
O343 Pr320 2.512 . S
O343 C329 1.248 . S
O344 Pr321 2.438 . S
O344 C330 1.267 . S
O345 Pr320 2.437 . S
O345 C330 1.278 . S
O346 Pr321 2.562 . S
O346 C331 1.254 . S
O347 Pr321 2.490 . S
O347 C331 1.225 . S
O348 Pr320 2.436 . S
O348 Pr321 2.695 . S
O348 C338 1.270 . S
O349 Pr321 2.512 . S
O349 C338 1.248 . S
O350 Pr320 2.438 . S
O350 C339 1.267 . S
O351 Pr321 2.437 . S
O351 C339 1.278 . S
H352 C324 0.929 . S
H353 C325 0.929 . S
H354 C327 0.931 . S
H355 C328 0.930 . S
H356 C333 0.942 . S
H357 C334 0.929 . S
H358 C336 0.931 . S
H359 C337 0.930 . S
Pr360 C362 2.880 . S
Pr360 O380 2.562 . S
Pr360 O381 2.490 . S
Pr360 O382 2.695 . S
Pr360 O383 2.512 . S
Pr360 O385 2.437 . S
Pr360 O388 2.436 . S
Pr360 O390 2.438 . S
Pr361 C371 2.880 1_556 S
Pr361 O382 2.436 . S
Pr361 O384 2.438 . S
Pr361 O386 2.562 1_556 S
Pr361 O387 2.490 1_556 S
Pr361 O388 2.695 . S
Pr361 O389 2.512 . S
Pr361 O391 2.437 1_556 S
C362 Pr360 2.880 . S
C362 C363 1.491 . S
C362 O380 1.254 . S
C362 O381 1.225 . S
C363 C362 1.491 . S
C363 C364 1.392 . S
C363 C368 1.356 . S
C364 C363 1.392 . S
C364 C365 1.368 . S
C364 H392 0.929 . S
C365 C364 1.368 . S
C365 C366 1.386 . S
C365 H393 0.929 . S
C366 C365 1.386 . S
C366 C367 1.373 . S
C367 C366 1.373 . S
C367 C368 1.409 . S
C367 H394 0.931 . S
C368 C363 1.356 . S
C368 C367 1.409 . S
C368 H395 0.930 . S
C369 O382 1.270 . S
C369 O383 1.248 . S
C370 O384 1.267 . S
C370 O385 1.278 . S
C371 Pr361 2.880 1_554 S
C371 C372 1.491 . S
C371 O386 1.254 . S
C371 O387 1.225 . S
C372 C371 1.491 . S
C372 C373 1.392 . S
C372 C377 1.356 . S
C373 C372 1.392 . S
C373 C374 1.368 . S
C373 H396 0.929 . S
C374 C373 1.368 . S
C374 C375 1.386 . S
C374 H397 0.929 . S
C375 C374 1.386 . S
C375 C376 1.373 . S
C376 C375 1.373 . S
C376 C377 1.409 . S
C376 H398 0.931 . S
C377 C372 1.356 . S
C377 C376 1.409 . S
C377 H399 0.930 . S
C378 O388 1.270 . S
C378 O389 1.248 . S
C379 O390 1.267 1_554 S
C379 O391 1.278 . S
O380 Pr360 2.562 . S
O380 C362 1.254 . S
O381 Pr360 2.490 . S
O381 C362 1.225 . S
O382 Pr360 2.695 . S
O382 Pr361 2.436 . S
O382 C369 1.270 . S
O383 Pr360 2.512 . S
O383 C369 1.248 . S
O384 Pr361 2.438 . S
O384 C370 1.267 . S
O385 Pr360 2.437 . S
O385 C370 1.278 . S
O386 Pr361 2.562 1_554 S
O386 C371 1.254 . S
O387 Pr361 2.490 1_554 S
O387 C371 1.225 . S
O388 Pr360 2.436 . S
O388 Pr361 2.695 . S
O388 C378 1.270 . S
O389 Pr361 2.512 . S
O389 C378 1.248 . S
O390 Pr360 2.438 . S
O390 C379 1.267 1_556 S
O391 Pr361 2.437 1_554 S
O391 C379 1.278 . S
H392 C364 0.929 . S
H393 C365 0.929 . S
H394 C367 0.931 . S
H395 C368 0.930 . S
H396 C373 0.929 . S
H397 C374 0.929 . S
H398 C376 0.931 . S
H399 C377 0.930 . S
Pr400 C402 2.880 . S
Pr400 O420 2.562 . S
Pr400 O421 2.490 . S
Pr400 O422 2.695 . S
Pr400 O423 2.512 . S
Pr400 O425 2.437 . S
Pr400 O428 2.436 . S
Pr400 O430 2.438 . S
Pr401 C411 2.880 . S
Pr401 O422 2.436 . S
Pr401 O424 2.438 . S
Pr401 O426 2.562 . S
Pr401 O427 2.490 . S
Pr401 O428 2.695 . S
Pr401 O429 2.512 . S
Pr401 O431 2.437 . S
C402 Pr400 2.880 . S
C402 C403 1.491 . S
C402 O420 1.254 . S
C402 O421 1.225 . S
C403 C402 1.491 . S
C403 C404 1.392 . S
C403 C408 1.356 . S
C404 C403 1.392 . S
C404 C405 1.368 . S
C404 H432 0.929 . S
C405 C404 1.368 . S
C405 C406 1.386 . S
C405 H433 0.929 . S
C406 C405 1.386 . S
C406 C407 1.373 . S
C407 C406 1.373 . S
C407 C408 1.409 . S
C407 H434 0.931 . S
C408 C403 1.356 . S
C408 C407 1.409 . S
C408 H435 0.930 . S
C409 O422 1.270 . S
C409 O423 1.248 . S
C410 O424 1.267 . S
C410 O425 1.278 . S
C411 Pr401 2.880 . S
C411 C412 1.491 . S
C411 O426 1.254 . S
C411 O427 1.225 . S
C412 C411 1.491 . S
C412 C413 1.392 . S
C412 C417 1.356 . S
C413 C412 1.392 . S
C413 C414 1.368 . S
C413 H436 0.929 . S
C414 C413 1.368 . S
C414 C415 1.386 . S
C414 H437 0.929 . S
C415 C414 1.386 . S
C415 C416 1.373 . S
C416 C415 1.373 . S
C416 C417 1.409 . S
C416 H438 0.931 . S
C417 C412 1.356 . S
C417 C416 1.409 . S
C417 H439 0.930 . S
C418 O428 1.270 . S
C418 O429 1.248 . S
C419 O430 1.267 . S
C419 O431 1.278 . S
O420 Pr400 2.562 . S
O420 C402 1.254 . S
O421 Pr400 2.490 . S
O421 C402 1.225 . S
O422 Pr400 2.695 . S
O422 Pr401 2.436 . S
O422 C409 1.270 . S
O423 Pr400 2.512 . S
O423 C409 1.248 . S
O424 Pr401 2.438 . S
O424 C410 1.267 . S
O425 Pr400 2.437 . S
O425 C410 1.278 . S
O426 Pr401 2.562 . S
O426 C411 1.254 . S
O427 Pr401 2.490 . S
O427 C411 1.225 . S
O428 Pr400 2.436 . S
O428 Pr401 2.695 . S
O428 C418 1.270 . S
O429 Pr401 2.512 . S
O429 C418 1.248 . S
O430 Pr400 2.438 . S
O430 C419 1.267 . S
O431 Pr401 2.437 . S
O431 C419 1.278 . S
H432 C404 0.929 . S
H433 C405 0.929 . S
H434 C407 0.931 . S
H435 C408 0.930 . S
H436 C413 0.929 . S
H437 C414 0.929 . S
H438 C416 0.931 . S
H439 C417 0.930 . S
Pr440 C442 2.880 . S
Pr440 O460 2.562 . S
Pr440 O461 2.490 . S
Pr440 O462 2.695 . S
Pr440 O463 2.512 . S
Pr440 O465 2.437 . S
Pr440 O468 2.436 . S
Pr440 O470 2.438 . S
Pr441 C451 2.880 . S
Pr441 O462 2.436 . S
Pr441 O464 2.438 . S
Pr441 O466 2.562 . S
Pr441 O467 2.490 . S
Pr441 O468 2.695 . S
Pr441 O469 2.512 . S
Pr441 O471 2.437 . S
C442 Pr440 2.880 . S
C442 C443 1.491 . S
C442 O460 1.254 . S
C442 O461 1.225 . S
C443 C442 1.491 . S
C443 C444 1.392 . S
C443 C448 1.356 . S
C444 C443 1.392 . S
C444 C445 1.368 . S
C444 H472 0.929 . S
C445 C444 1.368 . S
C445 C446 1.386 . S
C445 H473 0.929 . S
C446 C445 1.386 . S
C446 C447 1.373 . S
C447 C446 1.373 . S
C447 C448 1.409 . S
C447 H474 0.931 . S
C448 C443 1.356 . S
C448 C447 1.409 . S
C448 H475 0.930 . S
C449 O462 1.270 . S
C449 O463 1.248 . S
C450 O464 1.267 . S
C450 O465 1.278 . S
C451 Pr441 2.880 . S
C451 C452 1.491 . S
C451 O466 1.254 . S
C451 O467 1.225 . S
C452 C451 1.491 . S
C452 C453 1.392 . S
C452 C457 1.356 . S
C453 C452 1.392 . S
C453 C454 1.368 . S
C453 H476 0.929 . S
C454 C453 1.368 . S
C454 C455 1.386 . S
C454 H477 0.929 . S
C455 C454 1.386 . S
C455 C456 1.373 . S
C456 C455 1.373 . S
C456 C457 1.409 . S
C456 H478 0.931 . S
C457 C452 1.356 . S
C457 C456 1.409 . S
C457 H479 0.930 . S
C458 O468 1.270 . S
C458 O469 1.248 . S
C459 O470 1.267 . S
C459 O471 1.278 . S
O460 Pr440 2.562 . S
O460 C442 1.254 . S
O461 Pr440 2.490 . S
O461 C442 1.225 . S
O462 Pr440 2.695 . S
O462 Pr441 2.436 . S
O462 C449 1.270 . S
O463 Pr440 2.512 . S
O463 C449 1.248 . S
O464 Pr441 2.438 . S
O464 C450 1.267 . S
O465 Pr440 2.437 . S
O465 C450 1.278 . S
O466 Pr441 2.562 . S
O466 C451 1.254 . S
O467 Pr441 2.490 . S
O467 C451 1.225 . S
O468 Pr440 2.436 . S
O468 Pr441 2.695 . S
O468 C458 1.270 . S
O469 Pr441 2.512 . S
O469 C458 1.248 . S
O470 Pr440 2.438 . S
O470 C459 1.267 . S
O471 Pr441 2.437 . S
O471 C459 1.278 . S
H472 C444 0.929 . S
H473 C445 0.929 . S
H474 C447 0.931 . S
H475 C448 0.930 . S
H476 C453 0.929 . S
H477 C454 0.929 . S
H478 C456 0.931 . S
H479 C457 0.930 . S
Pr480 C482 2.880 . S
Pr480 O500 2.562 . S
Pr480 O501 2.490 . S
Pr480 O502 2.695 . S
Pr480 O503 2.512 . S
Pr480 O505 2.437 . S
Pr480 O508 2.436 . S
Pr480 O510 2.438 . S
Pr481 C491 2.880 . S
Pr481 O502 2.436 . S
Pr481 O504 2.438 . S
Pr481 O506 2.562 . S
Pr481 O507 2.490 . S
Pr481 O508 2.695 . S
Pr481 O509 2.512 . S
Pr481 O511 2.437 . S
C482 Pr480 2.880 . S
C482 C483 1.491 . S
C482 O500 1.254 . S
C482 O501 1.225 . S
C483 C482 1.491 . S
C483 C484 1.392 . S
C483 C488 1.356 . S
C484 C483 1.392 . S
C484 C485 1.368 . S
C484 H512 0.929 . S
C485 C484 1.368 . S
C485 C486 1.386 . S
C485 H513 0.929 . S
C486 C485 1.386 . S
C486 C487 1.373 . S
C487 C486 1.373 . S
C487 C488 1.409 . S
C487 H514 0.931 . S
C488 C483 1.356 . S
C488 C487 1.409 . S
C488 H515 0.930 . S
C489 O502 1.270 . S
C489 O503 1.248 . S
C490 O504 1.267 . S
C490 O505 1.278 . S
C491 Pr481 2.880 . S
C491 C492 1.491 . S
C491 O506 1.254 . S
C491 O507 1.225 . S
C492 C491 1.491 . S
C492 C493 1.392 . S
C492 C497 1.356 . S
C493 C492 1.392 . S
C493 C494 1.368 . S
C493 H516 0.929 . S
C494 C493 1.368 . S
C494 C495 1.386 . S
C494 H517 0.929 . S
C495 C494 1.386 . S
C495 C496 1.373 . S
C496 C495 1.373 . S
C496 C497 1.409 . S
C496 H518 0.931 . S
C497 C492 1.356 . S
C497 C496 1.409 . S
C497 H519 0.930 . S
C498 O508 1.270 . S
C498 O509 1.248 . S
C499 O510 1.267 . S
C499 O511 1.278 . S
O500 Pr480 2.562 . S
O500 C482 1.254 . S
O501 Pr480 2.490 . S
O501 C482 1.225 . S
O502 Pr480 2.695 . S
O502 Pr481 2.436 . S
O502 C489 1.270 . S
O503 Pr480 2.512 . S
O503 C489 1.248 . S
O504 Pr481 2.438 . S
O504 C490 1.267 . S
O505 Pr480 2.437 . S
O505 C490 1.278 . S
O506 Pr481 2.562 . S
O506 C491 1.254 . S
O507 Pr481 2.490 . S
O507 C491 1.225 . S
O508 Pr480 2.436 . S
O508 Pr481 2.695 . S
O508 C498 1.270 . S
O509 Pr481 2.512 . S
O509 C498 1.248 . S
O510 Pr480 2.438 . S
O510 C499 1.267 . S
O511 Pr481 2.437 . S
O511 C499 1.278 . S
H512 C484 0.929 . S
H513 C485 0.929 . S
H514 C487 0.931 . S
H515 C488 0.930 . S
H516 C493 0.929 . S
H517 C494 0.929 . S
H518 C496 0.931 . S
H519 C497 0.930 . S
Pr520 C522 2.880 . S
Pr520 O540 2.562 . S
Pr520 O541 2.490 . S
Pr520 O542 2.695 . S
Pr520 O543 2.512 . S
Pr520 O545 2.437 . S
Pr520 O548 2.436 . S
Pr520 O550 2.438 . S
Pr521 C531 2.880 . S
Pr521 O542 2.436 . S
Pr521 O544 2.438 . S
Pr521 O546 2.562 . S
Pr521 O547 2.490 . S
Pr521 O548 2.695 . S
Pr521 O549 2.512 . S
Pr521 O551 2.437 . S
C522 Pr520 2.880 . S
C522 C523 1.491 . S
C522 O540 1.254 . S
C522 O541 1.225 . S
C523 C522 1.491 . S
C523 C524 1.392 . S
C523 C528 1.356 . S
C524 C523 1.392 . S
C524 C525 1.368 . S
C524 H552 0.929 . S
C525 C524 1.368 . S
C525 C526 1.386 . S
C525 H553 0.929 . S
C526 C525 1.386 . S
C526 C527 1.373 . S
C527 C526 1.373 . S
C527 C528 1.409 . S
C527 H554 0.931 . S
C528 C523 1.356 . S
C528 C527 1.409 . S
C528 H555 0.930 . S
C529 O542 1.270 . S
C529 O543 1.248 . S
C530 O544 1.267 . S
C530 O545 1.278 . S
C531 Pr521 2.880 . S
C531 C532 1.491 . S
C531 O546 1.254 . S
C531 O547 1.225 . S
C532 C531 1.491 . S
C532 C533 1.392 . S
C532 C537 1.356 . S
C533 C532 1.392 . S
C533 C534 1.368 . S
C533 H556 0.929 . S
C534 C533 1.368 . S
C534 C535 1.386 . S
C534 H557 0.929 . S
C535 C534 1.386 . S
C535 C536 1.373 . S
C536 C535 1.373 . S
C536 C537 1.409 . S
C536 H558 0.931 . S
C537 C532 1.356 . S
C537 C536 1.409 . S
C537 H559 0.930 . S
C538 O548 1.270 . S
C538 O549 1.248 . S
C539 O550 1.267 . S
C539 O551 1.278 . S
O540 Pr520 2.562 . S
O540 C522 1.254 . S
O541 Pr520 2.490 . S
O541 C522 1.225 . S
O542 Pr520 2.695 . S
O542 Pr521 2.436 . S
O542 C529 1.270 . S
O543 Pr520 2.512 . S
O543 C529 1.248 . S
O544 Pr521 2.438 . S
O544 C530 1.267 . S
O545 Pr520 2.437 . S
O545 C530 1.278 . S
O546 Pr521 2.562 . S
O546 C531 1.254 . S
O547 Pr521 2.490 . S
O547 C531 1.225 . S
O548 Pr520 2.436 . S
O548 Pr521 2.695 . S
O548 C538 1.270 . S
O549 Pr521 2.512 . S
O549 C538 1.248 . S
O550 Pr520 2.438 . S
O550 C539 1.267 . S
O551 Pr521 2.437 . S
O551 C539 1.278 . S
H552 C524 0.929 . S
H553 C525 0.929 . S
H554 C527 0.931 . S
H555 C528 0.930 . S
H556 C533 0.929 . S
H557 C534 0.929 . S
H558 C536 0.931 . S
H559 C537 0.930 . S
Pr560 C562 2.880 . S
Pr560 O580 2.562 . S
Pr560 O581 2.490 . S
Pr560 O582 2.695 . S
Pr560 O583 2.512 . S
Pr560 O585 2.437 . S
Pr560 O588 2.436 . S
Pr560 O590 2.438 . S
Pr561 C571 2.880 . S
Pr561 O582 2.436 . S
Pr561 O584 2.438 . S
Pr561 O586 2.562 . S
Pr561 O587 2.490 . S
Pr561 O588 2.695 . S
Pr561 O589 2.512 . S
Pr561 O591 2.437 . S
C562 Pr560 2.880 . S
C562 C563 1.491 . S
C562 O580 1.254 . S
C562 O581 1.225 . S
C563 C562 1.491 . S
C563 C564 1.392 . S
C563 C568 1.356 . S
C564 C563 1.392 . S
C564 C565 1.368 . S
C564 H592 0.929 . S
C565 C564 1.368 . S
C565 C566 1.386 . S
C565 H593 0.929 . S
C566 C565 1.386 . S
C566 C567 1.373 . S
C567 C566 1.373 . S
C567 C568 1.409 . S
C567 H594 0.931 . S
C568 C563 1.356 . S
C568 C567 1.409 . S
C568 H595 0.930 . S
C569 O582 1.270 . S
C569 O583 1.248 . S
C570 O584 1.267 . S
C570 O585 1.278 . S
C571 Pr561 2.880 . S
C571 C572 1.491 . S
C571 O586 1.254 . S
C571 O587 1.225 . S
C572 C571 1.491 . S
C572 C573 1.392 . S
C572 C577 1.356 . S
C573 C572 1.392 . S
C573 C574 1.368 . S
C573 H596 0.929 . S
C574 C573 1.368 . S
C574 C575 1.386 . S
C574 H597 0.929 . S
C575 C574 1.386 . S
C575 C576 1.373 . S
C576 C575 1.373 . S
C576 C577 1.409 . S
C576 H598 0.931 . S
C577 C572 1.356 . S
C577 C576 1.409 . S
C577 H599 0.930 . S
C578 O588 1.270 . S
C578 O589 1.248 . S
C579 O590 1.267 . S
C579 O591 1.278 . S
O580 Pr560 2.562 . S
O580 C562 1.254 . S
O581 Pr560 2.490 . S
O581 C562 1.225 . S
O582 Pr560 2.695 . S
O582 Pr561 2.436 . S
O582 C569 1.270 . S
O583 Pr560 2.512 . S
O583 C569 1.248 . S
O584 Pr561 2.438 . S
O584 C570 1.267 . S
O585 Pr560 2.437 . S
O585 C570 1.278 . S
O586 Pr561 2.562 . S
O586 C571 1.254 . S
O587 Pr561 2.490 . S
O587 C571 1.225 . S
O588 Pr560 2.436 . S
O588 Pr561 2.695 . S
O588 C578 1.270 . S
O589 Pr561 2.512 . S
O589 C578 1.248 . S
O590 Pr560 2.438 . S
O590 C579 1.267 . S
O591 Pr561 2.437 . S
O591 C579 1.278 . S
H592 C564 0.929 . S
H593 C565 0.929 . S
H594 C567 0.931 . S
H595 C568 0.930 . S
H596 C573 0.929 . S
H597 C574 0.929 . S
H598 C576 0.931 . S
H599 C577 0.930 . S
Pr600 C602 2.880 . S
Pr600 O620 2.562 . S
Pr600 O621 2.490 . S
Pr600 O622 2.695 1_554 S
Pr600 O623 2.512 1_554 S
Pr600 O625 2.437 . S
Pr600 O628 2.436 . S
Pr600 O630 2.438 1_554 S
Pr601 C611 2.880 . S
Pr601 O622 2.436 . S
Pr601 O624 2.438 1_556 S
Pr601 O626 2.562 . S
Pr601 O627 2.490 . S
Pr601 O628 2.695 1_556 S
Pr601 O629 2.512 . S
Pr601 O631 2.437 . S
C602 Pr600 2.880 . S
C602 C603 1.491 . S
C602 O620 1.254 . S
C602 O621 1.225 . S
C603 C602 1.491 . S
C603 C604 1.392 . S
C603 C608 1.356 . S
C604 C603 1.392 . S
C604 C605 1.368 . S
C604 H632 0.929 . S
C605 C604 1.368 . S
C605 C606 1.386 . S
C605 H633 0.929 . S
C606 C605 1.386 . S
C606 C607 1.373 . S
C607 C606 1.373 . S
C607 C608 1.409 . S
C607 H634 0.931 . S
C608 C603 1.356 . S
C608 C607 1.409 . S
C608 H635 0.930 . S
C609 O622 1.270 . S
C609 O623 1.248 . S
C610 O624 1.267 . S
C610 O625 1.278 . S
C611 Pr601 2.880 . S
C611 C612 1.491 . S
C611 O626 1.254 . S
C611 O627 1.225 . S
C612 C611 1.491 . S
C612 C613 1.392 . S
C612 C617 1.356 . S
C613 C612 1.392 . S
C613 C614 1.368 . S
C613 H636 0.929 . S
C614 C613 1.368 . S
C614 C615 1.386 . S
C614 H637 0.929 . S
C615 C614 1.386 . S
C615 C616 1.373 . S
C616 C615 1.373 . S
C616 C617 1.409 . S
C616 H638 0.931 . S
C617 C612 1.356 . S
C617 C616 1.409 . S
C617 H639 0.930 . S
C618 O628 1.270 1_556 S
C618 O629 1.248 . S
C619 O630 1.267 . S
C619 O631 1.278 . S
O620 Pr600 2.562 . S
O620 C602 1.254 . S
O621 Pr600 2.490 . S
O621 C602 1.225 . S
O622 Pr600 2.695 1_556 S
O622 Pr601 2.436 . S
O622 C609 1.270 . S
O623 Pr600 2.512 1_556 S
O623 C609 1.248 . S
O624 Pr601 2.438 1_554 S
O624 C610 1.267 . S
O625 Pr600 2.437 . S
O625 C610 1.278 . S
O626 Pr601 2.562 . S
O626 C611 1.254 . S
O627 Pr601 2.490 . S
O627 C611 1.225 . S
O628 Pr600 2.436 . S
O628 Pr601 2.695 1_554 S
O628 C618 1.270 1_554 S
O629 Pr601 2.512 . S
O629 C618 1.248 . S
O630 Pr600 2.438 1_556 S
O630 C619 1.267 . S
O631 Pr601 2.437 . S
O631 C619 1.278 . S
H632 C604 0.929 . S
H633 C605 0.929 . S
H634 C607 0.931 . S
H635 C608 0.930 . S
H636 C613 0.929 . S
H637 C614 0.929 . S
H638 C616 0.931 . S
H639 C617 0.930 . S
Pr640 C642 2.880 . S
Pr640 O660 2.562 . S
Pr640 O661 2.490 . S
Pr640 O662 2.695 . S
Pr640 O663 2.512 . S
Pr640 O665 2.437 . S
Pr640 O668 2.436 . S
Pr640 O670 2.438 . S
Pr641 C651 2.880 . S
Pr641 O662 2.436 . S
Pr641 O664 2.438 . S
Pr641 O666 2.562 . S
Pr641 O667 2.490 . S
Pr641 O668 2.695 . S
Pr641 O669 2.512 . S
Pr641 O671 2.437 . S
C642 Pr640 2.880 . S
C642 C643 1.491 . S
C642 O660 1.254 . S
C642 O661 1.225 . S
C643 C642 1.491 . S
C643 C644 1.392 . S
C643 C648 1.356 . S
C644 C643 1.392 . S
C644 C645 1.368 . S
C644 H672 0.929 . S
C645 C644 1.368 . S
C645 C646 1.386 . S
C645 H673 0.929 . S
C646 C645 1.386 . S
C646 C647 1.373 . S
C647 C646 1.373 . S
C647 C648 1.409 . S
C647 H674 0.931 . S
C648 C643 1.356 . S
C648 C647 1.409 . S
C648 H675 0.930 . S
C649 O662 1.270 . S
C649 O663 1.248 . S
C650 O664 1.267 . S
C650 O665 1.278 . S
C651 Pr641 2.880 . S
C651 C652 1.491 . S
C651 O666 1.254 . S
C651 O667 1.225 . S
C652 C651 1.491 . S
C652 C653 1.392 . S
C652 C657 1.356 . S
C653 C652 1.392 . S
C653 C654 1.368 . S
C653 H676 0.929 . S
C654 C653 1.368 . S
C654 C655 1.386 . S
C654 H677 0.929 . S
C655 C654 1.386 . S
C655 C656 1.373 . S
C656 C655 1.373 . S
C656 C657 1.409 . S
C656 H678 0.931 . S
C657 C652 1.356 . S
C657 C656 1.409 . S
C657 H679 0.930 . S
C658 O668 1.270 . S
C658 O669 1.248 . S
C659 O670 1.267 . S
C659 O671 1.278 . S
O660 Pr640 2.562 . S
O660 C642 1.254 . S
O661 Pr640 2.490 . S
O661 C642 1.225 . S
O662 Pr640 2.695 . S
O662 Pr641 2.436 . S
O662 C649 1.270 . S
O663 Pr640 2.512 . S
O663 C649 1.248 . S
O664 Pr641 2.438 . S
O664 C650 1.267 . S
O665 Pr640 2.437 . S
O665 C650 1.278 . S
O666 Pr641 2.562 . S
O666 C651 1.254 . S
O667 Pr641 2.490 . S
O667 C651 1.225 . S
O668 Pr640 2.436 . S
O668 Pr641 2.695 . S
O668 C658 1.270 . S
O669 Pr641 2.512 . S
O669 C658 1.248 . S
O670 Pr640 2.438 . S
O670 C659 1.267 . S
O671 Pr641 2.437 . S
O671 C659 1.278 . S
H672 C644 0.929 . S
H673 C645 0.929 . S
H674 C647 0.931 . S
H675 C648 0.930 . S
H676 C653 0.929 . S
H677 C654 0.929 . S
H678 C656 0.931 . S
H679 C657 0.930 . S
Pr680 C682 2.880 . S
Pr680 O700 2.562 . S
Pr680 O701 2.490 . S
Pr680 O702 2.695 . S
Pr680 O703 2.512 . S
Pr680 O705 2.437 . S
Pr680 O708 2.436 . S
Pr680 O710 2.438 . S
Pr681 C691 2.880 . S
Pr681 O702 2.436 . S
Pr681 O704 2.438 . S
Pr681 O706 2.562 . S
Pr681 O707 2.490 . S
Pr681 O708 2.695 . S
Pr681 O709 2.512 . S
Pr681 O711 2.437 . S
C682 Pr680 2.880 . S
C682 C683 1.491 . S
C682 O700 1.254 . S
C682 O701 1.225 . S
C683 C682 1.491 . S
C683 C684 1.392 . S
C683 C688 1.356 . S
C684 C683 1.392 . S
C684 C685 1.368 . S
C684 H712 0.929 . S
C685 C684 1.368 . S
C685 C686 1.386 . S
C685 H713 0.929 . S
C686 C685 1.386 . S
C686 C687 1.373 . S
C687 C686 1.373 . S
C687 C688 1.409 . S
C687 H714 0.931 . S
C688 C683 1.356 . S
C688 C687 1.409 . S
C688 H715 0.930 . S
C689 O702 1.270 . S
C689 O703 1.248 . S
C690 O704 1.267 . S
C690 O705 1.278 . S
C691 Pr681 2.880 . S
C691 C692 1.491 . S
C691 O706 1.254 . S
C691 O707 1.225 . S
C692 C691 1.491 . S
C692 C693 1.392 1_556 S
C692 C697 1.356 1_556 S
C693 C692 1.392 1_554 S
C693 C694 1.368 . S
C693 H716 0.929 1_554 S
C694 C693 1.368 . S
C694 C695 1.386 . S
C694 H717 0.929 . S
C695 C694 1.386 . S
C695 C696 1.373 . S
C696 C695 1.373 . S
C696 C697 1.409 . S
C696 H718 0.931 . S
C697 C692 1.356 1_554 S
C697 C696 1.409 . S
C697 H719 0.930 . S
C698 O708 1.270 . S
C698 O709 1.248 . S
C699 O710 1.267 . S
C699 O711 1.278 . S
O700 Pr680 2.562 . S
O700 C682 1.254 . S
O701 Pr680 2.490 . S
O701 C682 1.225 . S
O702 Pr680 2.695 . S
O702 Pr681 2.436 . S
O702 C689 1.270 . S
O703 Pr680 2.512 . S
O703 C689 1.248 . S
O704 Pr681 2.438 . S
O704 C690 1.267 . S
O705 Pr680 2.437 . S
O705 C690 1.278 . S
O706 Pr681 2.562 . S
O706 C691 1.254 . S
O707 Pr681 2.490 . S
O707 C691 1.225 . S
O708 Pr680 2.436 . S
O708 Pr681 2.695 . S
O708 C698 1.270 . S
O709 Pr681 2.512 . S
O709 C698 1.248 . S
O710 Pr680 2.438 . S
O710 C699 1.267 . S
O711 Pr681 2.437 . S
O711 C699 1.278 . S
H712 C684 0.929 . S
H713 C685 0.929 . S
H714 C687 0.931 . S
H715 C688 0.930 . S
H716 C693 0.929 1_556 S
H717 C694 0.929 . S
H718 C696 0.931 . S
H719 C697 0.930 . S
Pr720 C722 2.880 . S
Pr720 O740 2.562 . S
Pr720 O741 2.490 . S
Pr720 O742 2.695 . S
Pr720 O743 2.512 . S
Pr720 O745 2.437 . S
Pr720 O748 2.436 . S
Pr720 O750 2.438 . S
Pr721 C731 2.880 . S
Pr721 O742 2.436 . S
Pr721 O744 2.438 . S
Pr721 O746 2.562 . S
Pr721 O747 2.490 . S
Pr721 O748 2.695 . S
Pr721 O749 2.512 . S
Pr721 O751 2.437 . S
C722 Pr720 2.880 . S
C722 C723 1.491 . S
C722 O740 1.254 . S
C722 O741 1.225 . S
C723 C722 1.491 . S
C723 C724 1.392 . S
C723 C728 1.356 . S
C724 C723 1.392 . S
C724 C725 1.368 . S
C724 H752 0.929 1_655 S
C725 C724 1.368 . S
C725 C726 1.386 . S
C725 H753 0.929 1_655 S
C726 C725 1.386 . S
C726 C727 1.373 . S
C727 C726 1.373 . S
C727 C728 1.409 . S
C727 H754 0.931 . S
C728 C723 1.356 . S
C728 C727 1.409 . S
C728 H755 0.930 . S
C729 O742 1.270 . S
C729 O743 1.248 . S
C730 O744 1.267 . S
C730 O745 1.278 . S
C731 Pr721 2.880 . S
C731 C732 1.491 1_554 S
C731 O746 1.254 . S
C731 O747 1.225 . S
C732 C731 1.491 1_556 S
C732 C733 1.392 . S
C732 C737 1.356 . S
C733 C732 1.392 . S
C733 C734 1.368 . S
C733 H756 0.929 . S
C734 C733 1.368 . S
C734 C735 1.386 . S
C734 H757 0.929 . S
C735 C734 1.386 . S
C735 C736 1.373 . S
C736 C735 1.373 . S
C736 C737 1.409 . S
C736 H758 0.931 . S
C737 C732 1.356 . S
C737 C736 1.409 . S
C737 H759 0.930 . S
C738 O748 1.270 . S
C738 O749 1.248 . S
C739 O750 1.267 . S
C739 O751 1.278 . S
O740 Pr720 2.562 . S
O740 C722 1.254 . S
O741 Pr720 2.490 . S
O741 C722 1.225 . S
O742 Pr720 2.695 . S
O742 Pr721 2.436 . S
O742 C729 1.270 . S
O743 Pr720 2.512 . S
O743 C729 1.248 . S
O744 Pr721 2.438 . S
O744 C730 1.267 . S
O745 Pr720 2.437 . S
O745 C730 1.278 . S
O746 Pr721 2.562 . S
O746 C731 1.254 . S
O747 Pr721 2.490 . S
O747 C731 1.225 . S
O748 Pr720 2.436 . S
O748 Pr721 2.695 . S
O748 C738 1.270 . S
O749 Pr721 2.512 . S
O749 C738 1.248 . S
O750 Pr720 2.438 . S
O750 C739 1.267 . S
O751 Pr721 2.437 . S
O751 C739 1.278 . S
H752 C724 0.929 1_455 S
H753 C725 0.929 1_455 S
H754 C727 0.931 . S
H755 C728 0.930 . S
H756 C733 0.929 . S
H757 C734 0.929 . S
H758 C736 0.931 . S
H759 C737 0.930 . S
Pr760 C762 2.880 . S
Pr760 O780 2.562 . S
Pr760 O781 2.490 . S
Pr760 O782 2.695 . S
Pr760 O783 2.512 . S
Pr760 O785 2.437 . S
Pr760 O788 2.436 . S
Pr760 O790 2.438 . S
Pr761 C771 2.880 . S
Pr761 O782 2.436 . S
Pr761 O784 2.438 . S
Pr761 O786 2.562 . S
Pr761 O787 2.490 . S
Pr761 O788 2.695 . S
Pr761 O789 2.512 . S
Pr761 O791 2.437 . S
C762 Pr760 2.880 . S
C762 C763 1.491 . S
C762 O780 1.254 . S
C762 O781 1.225 . S
C763 C762 1.491 . S
C763 C764 1.392 . S
C763 C768 1.356 . S
C764 C763 1.392 . S
C764 C765 1.368 . S
C764 H792 0.929 . S
C765 C764 1.368 . S
C765 C766 1.386 . S
C765 H793 0.929 . S
C766 C765 1.386 . S
C766 C767 1.373 . S
C767 C766 1.373 . S
C767 C768 1.409 . S
C767 H794 0.931 . S
C768 C763 1.356 . S
C768 C767 1.409 . S
C768 H795 0.930 . S
C769 O782 1.270 . S
C769 O783 1.248 . S
C770 O784 1.267 . S
C770 O785 1.278 . S
C771 Pr761 2.880 . S
C771 C772 1.491 . S
C771 O786 1.254 . S
C771 O787 1.225 . S
C772 C771 1.491 . S
C772 C773 1.392 . S
C772 C777 1.356 . S
C773 C772 1.392 . S
C773 C774 1.368 . S
C773 H796 0.929 . S
C774 C773 1.368 . S
C774 C775 1.386 . S
C774 H797 0.929 . S
C775 C774 1.386 . S
C775 C776 1.373 . S
C776 C775 1.373 . S
C776 C777 1.409 . S
C776 H798 0.931 . S
C777 C772 1.356 . S
C777 C776 1.409 . S
C777 H799 0.930 . S
C778 O788 1.270 . S
C778 O789 1.248 . S
C779 O790 1.267 . S
C779 O791 1.278 . S
O780 Pr760 2.562 . S
O780 C762 1.254 . S
O781 Pr760 2.490 . S
O781 C762 1.225 . S
O782 Pr760 2.695 . S
O782 Pr761 2.436 . S
O782 C769 1.270 . S
O783 Pr760 2.512 . S
O783 C769 1.248 . S
O784 Pr761 2.438 . S
O784 C770 1.267 . S
O785 Pr760 2.437 . S
O785 C770 1.278 . S
O786 Pr761 2.562 . S
O786 C771 1.254 . S
O787 Pr761 2.490 . S
O787 C771 1.225 . S
O788 Pr760 2.436 . S
O788 Pr761 2.695 . S
O788 C778 1.270 . S
O789 Pr761 2.512 . S
O789 C778 1.248 . S
O790 Pr760 2.438 . S
O790 C779 1.267 . S
O791 Pr761 2.437 . S
O791 C779 1.278 . S
H792 C764 0.929 . S
H793 C765 0.929 . S
H794 C767 0.931 . S
H795 C768 0.930 . S
H796 C773 0.929 . S
H797 C774 0.929 . S
H798 C776 0.931 . S
H799 C777 0.930 . S
Pr800 C802 2.880 . S
Pr800 O820 2.562 . S
Pr800 O821 2.490 . S
Pr800 O822 2.695 . S
Pr800 O823 2.512 . S
Pr800 O825 2.437 . S
Pr800 O828 2.436 . S
Pr800 O830 2.438 . S
Pr801 C811 2.880 1_554 S
Pr801 O822 2.436 . S
Pr801 O824 2.438 . S
Pr801 O826 2.562 1_554 S
Pr801 O827 2.467 1_544 S
Pr801 O828 2.695 . S
Pr801 O829 2.512 1_545 S
Pr801 O831 2.437 . S
C802 Pr800 2.880 . S
C802 C803 1.491 . S
C802 O820 1.254 . S
C802 O821 1.225 . S
C803 C802 1.491 . S
C803 C804 1.392 . S
C803 C808 1.356 . S
C804 C803 1.392 . S
C804 C805 1.368 . S
C804 H832 0.929 . S
C805 C804 1.368 . S
C805 C806 1.386 . S
C805 H833 0.929 . S
C806 C805 1.386 . S
C806 C807 1.373 . S
C807 C806 1.373 . S
C807 C808 1.409 . S
C807 H834 0.931 . S
C808 C803 1.356 . S
C808 C807 1.409 . S
C808 H835 0.930 . S
C809 O822 1.270 . S
C809 O823 1.248 . S
C810 O824 1.267 . S
C810 O825 1.278 . S
C811 Pr801 2.880 1_556 S
C811 C812 1.491 1_545 S
C811 O826 1.254 . S
C811 O827 1.245 1_545 S
C812 C811 1.491 1_565 S
C812 C813 1.392 . S
C812 C817 1.356 1_565 S
C813 C812 1.392 . S
C813 C814 1.368 . S
C813 H836 0.929 . S
C814 C813 1.368 . S
C814 C815 1.386 . S
C814 H837 0.929 . S
C815 C814 1.386 . S
C815 C816 1.341 1_565 S
C816 C815 1.341 1_545 S
C816 C817 1.423 . S
C816 H838 0.950 . S
C817 C812 1.356 1_545 S
C817 C816 1.423 . S
C817 H839 0.930 . S
C818 O828 1.270 . S
C818 O829 1.248 1_545 S
C819 O830 1.267 . S
C819 O831 1.278 . S
O820 Pr800 2.562 . S
O820 C802 1.254 . S
O821 Pr800 2.490 . S
O821 C802 1.225 . S
O822 Pr800 2.695 . S
O822 Pr801 2.436 . S
O822 C809 1.270 . S
O823 Pr800 2.512 . S
O823 C809 1.248 . S
O824 Pr801 2.438 . S
O824 C810 1.267 . S
O825 Pr800 2.437 . S
O825 C810 1.278 . S
O826 Pr801 2.562 1_556 S
O826 C811 1.254 . S
O827 Pr801 2.467 1_566 S
O827 C811 1.245 1_565 S
O828 Pr800 2.436 . S
O828 Pr801 2.695 . S
O828 C818 1.270 . S
O829 Pr801 2.512 1_565 S
O829 C818 1.248 1_565 S
O830 Pr800 2.438 . S
O830 C819 1.267 . S
O831 Pr801 2.437 . S
O831 C819 1.278 . S
H832 C804 0.929 . S
H833 C805 0.929 . S
H834 C807 0.931 . S
H835 C808 0.930 . S
H836 C813 0.929 . S
H837 C814 0.929 . S
H838 C816 0.950 . S
H839 C817 0.930 . S
Pr840 C842 2.880 . S
Pr840 O860 2.562 . S
Pr840 O861 2.490 . S
Pr840 O862 2.695 . S
Pr840 O863 2.512 . S
Pr840 O865 2.437 . S
Pr840 O868 2.436 . S
Pr840 O870 2.438 . S
Pr841 C851 2.880 . S
Pr841 O862 2.436 . S
Pr841 O864 2.438 . S
Pr841 O866 2.562 . S
Pr841 O867 2.490 . S
Pr841 O868 2.695 . S
Pr841 O869 2.512 . S
Pr841 O871 2.437 . S
C842 Pr840 2.880 . S
C842 C843 1.491 . S
C842 O860 1.254 . S
C842 O861 1.225 . S
C843 C842 1.491 . S
C843 C844 1.392 . S
C843 C848 1.356 . S
C844 C843 1.392 . S
C844 C845 1.368 . S
C844 H872 0.929 . S
C845 C844 1.368 . S
C845 C846 1.386 . S
C845 H873 0.929 . S
C846 C845 1.386 . S
C846 C847 1.373 . S
C847 C846 1.373 . S
C847 C848 1.409 . S
C847 H874 0.931 . S
C848 C843 1.356 . S
C848 C847 1.409 . S
C848 H875 0.930 . S
C849 O862 1.270 . S
C849 O863 1.248 . S
C850 O864 1.267 . S
C850 O865 1.278 . S
C851 Pr841 2.880 . S
C851 C852 1.491 . S
C851 O866 1.254 . S
C851 O867 1.225 . S
C852 C851 1.491 . S
C852 C853 1.392 . S
C852 C857 1.356 . S
C853 C852 1.392 . S
C853 C854 1.368 . S
C853 H876 0.929 . S
C854 C853 1.368 . S
C854 C855 1.386 . S
C854 H877 0.929 . S
C855 C854 1.386 . S
C855 C856 1.373 . S
C856 C855 1.373 . S
C856 C857 1.409 . S
C856 H878 0.931 . S
C857 C852 1.356 . S
C857 C856 1.409 . S
C857 H879 0.930 . S
C858 O868 1.270 . S
C858 O869 1.248 . S
C859 O870 1.267 . S
C859 O871 1.278 . S
O860 Pr840 2.562 . S
O860 C842 1.254 . S
O861 Pr840 2.490 . S
O861 C842 1.225 . S
O862 Pr840 2.695 . S
O862 Pr841 2.436 . S
O862 C849 1.270 . S
O863 Pr840 2.512 . S
O863 C849 1.248 . S
O864 Pr841 2.438 . S
O864 C850 1.267 . S
O865 Pr840 2.437 . S
O865 C850 1.278 . S
O866 Pr841 2.562 . S
O866 C851 1.254 . S
O867 Pr841 2.490 . S
O867 C851 1.225 . S
O868 Pr840 2.436 . S
O868 Pr841 2.695 . S
O868 C858 1.270 . S
O869 Pr841 2.512 . S
O869 C858 1.248 . S
O870 Pr840 2.438 . S
O870 C859 1.267 . S
O871 Pr841 2.437 . S
O871 C859 1.278 . S
H872 C844 0.929 . S
H873 C845 0.929 . S
H874 C847 0.931 . S
H875 C848 0.930 . S
H876 C853 0.929 . S
H877 C854 0.929 . S
H878 C856 0.931 . S
H879 C857 0.930 . S
Pr880 C882 2.880 . S
Pr880 O900 2.562 . S
Pr880 O901 2.490 . S
Pr880 O902 2.695 . S
Pr880 O903 2.512 . S
Pr880 O905 2.437 . S
Pr880 O908 2.436 . S
Pr880 O910 2.438 . S
Pr881 C891 2.880 . S
Pr881 O902 2.436 . S
Pr881 O904 2.438 . S
Pr881 O906 2.562 . S
Pr881 O907 2.490 1_565 S
Pr881 O908 2.695 . S
Pr881 O909 2.512 . S
Pr881 O911 2.437 . S
C882 Pr880 2.880 . S
C882 C883 1.491 . S
C882 O900 1.254 . S
C882 O901 1.225 . S
C883 C882 1.491 . S
C883 C884 1.392 . S
C883 C888 1.356 . S
C884 C883 1.392 . S
C884 C885 1.368 . S
C884 H912 0.929 . S
C885 C884 1.368 . S
C885 C886 1.386 . S
C885 H913 0.929 . S
C886 C885 1.386 . S
C886 C887 1.373 . S
C887 C886 1.373 . S
C887 C888 1.409 . S
C887 H914 0.931 . S
C888 C883 1.356 . S
C888 C887 1.409 . S
C888 H915 0.930 . S
C889 O902 1.270 . S
C889 O903 1.248 . S
C890 O904 1.267 . S
C890 O905 1.278 . S
C891 Pr881 2.880 . S
C891 C892 1.491 . S
C891 O906 1.254 . S
C891 O907 1.225 1_565 S
C892 C891 1.491 . S
C892 C893 1.392 1_565 S
C892 C897 1.356 . S
C893 C892 1.392 1_545 S
C893 C894 1.368 . S
C893 H916 0.929 . S
C894 C893 1.368 . S
C894 C895 1.386 . S
C894 H917 0.929 . S
C895 C894 1.386 . S
C895 C896 1.373 1_545 S
C896 C895 1.373 1_565 S
C896 C897 1.409 . S
C896 H918 0.931 . S
C897 C892 1.356 . S
C897 C896 1.409 . S
C897 H919 0.930 . S
C898 O908 1.270 . S
C898 O909 1.248 . S
C899 O910 1.267 . S
C899 O911 1.278 . S
O900 Pr880 2.562 . S
O900 C882 1.254 . S
O901 Pr880 2.490 . S
O901 C882 1.225 . S
O902 Pr880 2.695 . S
O902 Pr881 2.436 . S
O902 C889 1.270 . S
O903 Pr880 2.512 . S
O903 C889 1.248 . S
O904 Pr881 2.438 . S
O904 C890 1.267 . S
O905 Pr880 2.437 . S
O905 C890 1.278 . S
O906 Pr881 2.562 . S
O906 C891 1.254 . S
O907 Pr881 2.490 1_545 S
O907 C891 1.225 1_545 S
O908 Pr880 2.436 . S
O908 Pr881 2.695 . S
O908 C898 1.270 . S
O909 Pr881 2.512 . S
O909 C898 1.248 . S
O910 Pr880 2.438 . S
O910 C899 1.267 . S
O911 Pr881 2.437 . S
O911 C899 1.278 . S
H912 C884 0.929 . S
H913 C885 0.929 . S
H914 C887 0.931 . S
H915 C888 0.930 . S
H916 C893 0.929 . S
H917 C894 0.929 . S
H918 C896 0.931 . S
H919 C897 0.930 . S
Pr920 C922 2.880 . S
Pr920 O940 2.562 . S
Pr920 O941 2.490 . S
Pr920 O942 2.695 . S
Pr920 O943 2.512 . S
Pr920 O945 2.437 . S
Pr920 O948 2.436 . S
Pr920 O950 2.438 . S
Pr921 C931 2.880 . S
Pr921 O942 2.436 . S
Pr921 O944 2.438 . S
Pr921 O946 2.562 . S
Pr921 O947 2.490 . S
Pr921 O948 2.695 . S
Pr921 O949 2.512 . S
Pr921 O951 2.437 . S
C922 Pr920 2.880 . S
C922 C923 1.491 . S
C922 O940 1.254 . S
C922 O941 1.225 . S
C923 C922 1.491 . S
C923 C924 1.392 . S
C923 C928 1.356 . S
C924 C923 1.392 . S
C924 C925 1.368 1_556 S
C924 H952 0.929 . S
C925 C924 1.368 1_554 S
C925 C926 1.386 . S
C925 H953 0.929 . S
C926 C925 1.386 . S
C926 C927 1.373 . S
C927 C926 1.373 . S
C927 C928 1.409 1_554 S
C927 H954 0.931 . S
C928 C923 1.356 . S
C928 C927 1.409 1_556 S
C928 H955 0.930 . S
C929 O942 1.270 . S
C929 O943 1.248 . S
C930 O944 1.267 . S
C930 O945 1.278 . S
C931 Pr921 2.880 . S
C931 C932 1.491 . S
C931 O946 1.254 . S
C931 O947 1.225 . S
C932 C931 1.491 . S
C932 C933 1.392 . S
C932 C937 1.356 . S
C933 C932 1.392 . S
C933 C934 1.368 . S
C933 H956 0.929 . S
C934 C933 1.368 . S
C934 C935 1.386 . S
C934 H957 0.929 . S
C935 C934 1.386 . S
C935 C936 1.373 . S
C936 C935 1.373 . S
C936 C937 1.409 . S
C936 H958 0.931 . S
C937 C932 1.356 . S
C937 C936 1.409 . S
C937 H959 0.930 . S
C938 O948 1.270 . S
C938 O949 1.248 . S
C939 O950 1.267 . S
C939 O951 1.278 . S
O940 Pr920 2.562 . S
O940 C922 1.254 . S
O941 Pr920 2.490 . S
O941 C922 1.225 . S
O942 Pr920 2.695 . S
O942 Pr921 2.436 . S
O942 C929 1.270 . S
O943 Pr920 2.512 . S
O943 C929 1.248 . S
O944 Pr921 2.438 . S
O944 C930 1.267 . S
O945 Pr920 2.437 . S
O945 C930 1.278 . S
O946 Pr921 2.562 . S
O946 C931 1.254 . S
O947 Pr921 2.490 . S
O947 C931 1.225 . S
O948 Pr920 2.436 . S
O948 Pr921 2.695 . S
O948 C938 1.270 . S
O949 Pr921 2.512 . S
O949 C938 1.248 . S
O950 Pr920 2.438 . S
O950 C939 1.267 . S
O951 Pr921 2.437 . S
O951 C939 1.278 . S
H952 C924 0.929 . S
H953 C925 0.929 . S
H954 C927 0.931 . S
H955 C928 0.930 . S
H956 C933 0.929 . S
H957 C934 0.929 . S
H958 C936 0.931 . S
H959 C937 0.930 . S
Pr960 C962 2.880 . S
Pr960 O980 2.562 . S
Pr960 O981 2.490 . S
Pr960 O982 2.695 . S
Pr960 O983 2.512 . S
Pr960 O985 2.437 . S
Pr960 O988 2.436 . S
Pr960 O990 2.438 . S
Pr961 C971 2.880 . S
Pr961 O982 2.436 . S
Pr961 O984 2.438 . S
Pr961 O986 2.562 . S
Pr961 O987 2.490 . S
Pr961 O988 2.695 . S
Pr961 O989 2.512 . S
Pr961 O991 2.437 . S
C962 Pr960 2.880 . S
C962 C963 1.491 . S
C962 O980 1.254 . S
C962 O981 1.225 . S
C963 C962 1.491 . S
C963 C964 1.392 . S
C963 C968 1.356 . S
C964 C963 1.392 . S
C964 C965 1.368 . S
C964 H992 0.929 . S
C965 C964 1.368 . S
C965 C966 1.386 . S
C965 H993 0.929 . S
C966 C965 1.386 . S
C966 C967 1.373 . S
C967 C966 1.373 . S
C967 C968 1.409 . S
C967 H994 0.931 . S
C968 C963 1.356 . S
C968 C967 1.409 . S
C968 H995 0.930 . S
C969 O982 1.270 . S
C969 O983 1.248 . S
C970 O984 1.267 . S
C970 O985 1.278 . S
C971 Pr961 2.880 . S
C971 C972 1.491 . S
C971 O986 1.254 . S
C971 O987 1.225 . S
C972 C971 1.491 . S
C972 C973 1.392 . S
C972 C977 1.356 . S
C973 C972 1.392 . S
C973 C974 1.368 . S
C973 H996 0.929 . S
C974 C973 1.368 . S
C974 C975 1.386 . S
C974 H997 0.929 . S
C975 C974 1.386 . S
C975 C976 1.373 . S
C976 C975 1.373 . S
C976 C977 1.409 . S
C976 H998 0.931 . S
C977 C972 1.356 . S
C977 C976 1.409 . S
C977 H999 0.930 . S
C978 O988 1.270 . S
C978 O989 1.248 . S
C979 O990 1.267 . S
C979 O991 1.278 . S
O980 Pr960 2.562 . S
O980 C962 1.254 . S
O981 Pr960 2.490 . S
O981 C962 1.225 . S
O982 Pr960 2.695 . S
O982 Pr961 2.436 . S
O982 C969 1.270 . S
O983 Pr960 2.512 . S
O983 C969 1.248 . S
O984 Pr961 2.438 . S
O984 C970 1.267 . S
O985 Pr960 2.437 . S
O985 C970 1.278 . S
O986 Pr961 2.562 . S
O986 C971 1.254 . S
O987 Pr961 2.490 . S
O987 C971 1.225 . S
O988 Pr960 2.436 . S
O988 Pr961 2.695 . S
O988 C978 1.270 . S
O989 Pr961 2.512 . S
O989 C978 1.248 . S
O990 Pr960 2.438 . S
O990 C979 1.267 . S
O991 Pr961 2.437 . S
O991 C979 1.278 . S
H992 C964 0.929 . S
H993 C965 0.929 . S
H994 C967 0.931 . S
H995 C968 0.930 . S
H996 C973 0.929 . S
H997 C974 0.929 . S
H998 C976 0.931 . S
H999 C977 0.930 . S
Pr1000 C1002 2.880 . S
Pr1000 O1020 2.562 . S
Pr1000 O1021 2.490 . S
Pr1000 O1022 2.695 . S
Pr1000 O1023 2.512 . S
Pr1000 O1025 2.437 . S
Pr1000 O1028 2.436 . S
Pr1000 O1030 2.438 . S
Pr1001 C1011 2.880 . S
Pr1001 O1022 2.436 . S
Pr1001 O1024 2.438 . S
Pr1001 O1026 2.562 . S
Pr1001 O1027 2.490 . S
Pr1001 O1028 2.695 . S
Pr1001 O1029 2.512 . S
Pr1001 O1031 2.437 . S
C1002 Pr1000 2.880 . S
C1002 C1003 1.491 . S
C1002 O1020 1.254 . S
C1002 O1021 1.225 . S
C1003 C1002 1.491 . S
C1003 C1004 1.392 . S
C1003 C1008 1.356 . S
C1004 C1003 1.392 . S
C1004 C1005 1.368 . S
C1004 H1032 0.929 . S
C1005 C1004 1.368 . S
C1005 C1006 1.386 . S
C1005 H1033 0.929 . S
C1006 C1005 1.386 . S
C1006 C1007 1.373 . S
C1007 C1006 1.373 . S
C1007 C1008 1.409 . S
C1007 H1034 0.931 . S
C1008 C1003 1.356 . S
C1008 C1007 1.409 . S
C1008 H1035 0.930 . S
C1009 O1022 1.270 . S
C1009 O1023 1.248 . S
C1010 O1024 1.267 . S
C1010 O1025 1.278 . S
C1011 Pr1001 2.880 . S
C1011 C1012 1.491 . S
C1011 O1026 1.254 . S
C1011 O1027 1.225 . S
C1012 C1011 1.491 . S
C1012 C1013 1.392 . S
C1012 C1017 1.356 . S
C1013 C1012 1.392 . S
C1013 C1014 1.368 . S
C1013 H1036 0.929 . S
C1014 C1013 1.368 . S
C1014 C1015 1.386 . S
C1014 H1037 0.929 . S
C1015 C1014 1.386 . S
C1015 C1016 1.373 . S
C1016 C1015 1.373 . S
C1016 C1017 1.409 . S
C1016 H1038 0.931 . S
C1017 C1012 1.356 . S
C1017 C1016 1.409 . S
C1017 H1039 0.930 . S
C1018 O1028 1.270 . S
C1018 O1029 1.248 . S
C1019 O1030 1.267 . S
C1019 O1031 1.278 . S
O1020 Pr1000 2.562 . S
O1020 C1002 1.254 . S
O1021 Pr1000 2.490 . S
O1021 C1002 1.225 . S
O1022 Pr1000 2.695 . S
O1022 Pr1001 2.436 . S
O1022 C1009 1.270 . S
O1023 Pr1000 2.512 . S
O1023 C1009 1.248 . S
O1024 Pr1001 2.438 . S
O1024 C1010 1.267 . S
O1025 Pr1000 2.437 . S
O1025 C1010 1.278 . S
O1026 Pr1001 2.562 . S
O1026 C1011 1.254 . S
O1027 Pr1001 2.490 . S
O1027 C1011 1.225 . S
O1028 Pr1000 2.436 . S
O1028 Pr1001 2.695 . S
O1028 C1018 1.270 . S
O1029 Pr1001 2.512 . S
O1029 C1018 1.248 . S
O1030 Pr1000 2.438 . S
O1030 C1019 1.267 . S
O1031 Pr1001 2.437 . S
O1031 C1019 1.278 . S
H1032 C1004 0.929 . S
H1033 C1005 0.929 . S
H1034 C1007 0.931 . S
H1035 C1008 0.930 . S
H1036 C1013 0.929 . S
H1037 C1014 0.929 . S
H1038 C1016 0.931 . S
H1039 C1017 0.930 . S
Pr1040 C1042 2.880 . S
Pr1040 O1060 2.562 . S
Pr1040 O1061 2.490 . S
Pr1040 O1062 2.695 . S
Pr1040 O1063 2.512 . S
Pr1040 O1065 2.437 . S
Pr1040 O1068 2.436 . S
Pr1040 O1070 2.438 . S
Pr1041 C1051 2.880 . S
Pr1041 O1062 2.436 . S
Pr1041 O1064 2.438 . S
Pr1041 O1066 2.562 . S
Pr1041 O1067 2.490 . S
Pr1041 O1068 2.695 . S
Pr1041 O1069 2.512 . S
Pr1041 O1071 2.437 . S
C1042 Pr1040 2.880 . S
C1042 C1043 1.491 . S
C1042 O1060 1.254 . S
C1042 O1061 1.225 . S
C1043 C1042 1.491 . S
C1043 C1044 1.392 . S
C1043 C1048 1.356 . S
C1044 C1043 1.392 . S
C1044 C1045 1.368 . S
C1044 H1072 0.929 . S
C1045 C1044 1.368 . S
C1045 C1046 1.386 . S
C1045 H1073 0.929 . S
C1046 C1045 1.386 . S
C1046 C1047 1.373 . S
C1047 C1046 1.373 . S
C1047 C1048 1.409 . S
C1047 H1074 0.931 . S
C1048 C1043 1.356 . S
C1048 C1047 1.409 . S
C1048 H1075 0.930 . S
C1049 O1062 1.270 . S
C1049 O1063 1.248 . S
C1050 O1064 1.267 . S
C1050 O1065 1.278 . S
C1051 Pr1041 2.880 . S
C1051 C1052 1.491 . S
C1051 O1066 1.254 . S
C1051 O1067 1.225 . S
C1052 C1051 1.491 . S
C1052 C1053 1.392 . S
C1052 C1057 1.356 . S
C1053 C1052 1.392 . S
C1053 C1054 1.368 . S
C1053 H1076 0.929 1_455 S
C1054 C1053 1.368 . S
C1054 C1055 1.386 1_554 S
C1054 H1077 0.936 1_455 S
C1055 C1054 1.386 1_556 S
C1055 C1056 1.373 1_556 S
C1056 C1055 1.373 1_554 S
C1056 C1057 1.409 . S
C1056 H1078 0.931 1_554 S
C1057 C1052 1.356 . S
C1057 C1056 1.409 . S
C1057 H1079 0.930 . S
C1058 O1068 1.270 . S
C1058 O1069 1.248 . S
C1059 O1070 1.267 . S
C1059 O1071 1.278 . S
O1060 Pr1040 2.562 . S
O1060 C1042 1.254 . S
O1061 Pr1040 2.490 . S
O1061 C1042 1.225 . S
O1062 Pr1040 2.695 . S
O1062 Pr1041 2.436 . S
O1062 C1049 1.270 . S
O1063 Pr1040 2.512 . S
O1063 C1049 1.248 . S
O1064 Pr1041 2.438 . S
O1064 C1050 1.267 . S
O1065 Pr1040 2.437 . S
O1065 C1050 1.278 . S
O1066 Pr1041 2.562 . S
O1066 C1051 1.254 . S
O1067 Pr1041 2.490 . S
O1067 C1051 1.225 . S
O1068 Pr1040 2.436 . S
O1068 Pr1041 2.695 . S
O1068 C1058 1.270 . S
O1069 Pr1041 2.512 . S
O1069 C1058 1.248 . S
O1070 Pr1040 2.438 . S
O1070 C1059 1.267 . S
O1071 Pr1041 2.437 . S
O1071 C1059 1.278 . S
H1072 C1044 0.929 . S
H1073 C1045 0.929 . S
H1074 C1047 0.931 . S
H1075 C1048 0.930 . S
H1076 C1053 0.929 1_655 S
H1077 C1054 0.936 1_655 S
H1078 C1056 0.931 1_556 S
H1079 C1057 0.930 . S
Pr1080 C1082 2.880 1_556 S
Pr1080 O1100 2.562 1_556 S
Pr1080 O1101 2.490 1_556 S
Pr1080 O1102 2.695 . S
Pr1080 O1103 2.512 . S
Pr1080 O1105 2.437 1_556 S
Pr1080 O1108 2.436 . S
Pr1080 O1110 2.438 . S
Pr1081 C1091 2.880 . S
Pr1081 O1102 2.436 . S
Pr1081 O1104 2.438 . S
Pr1081 O1106 2.562 . S
Pr1081 O1107 2.490 . S
Pr1081 O1108 2.695 . S
Pr1081 O1109 2.512 . S
Pr1081 O1111 2.437 . S
C1082 Pr1080 2.880 1_554 S
C1082 C1083 1.491 . S
C1082 O1100 1.254 . S
C1082 O1101 1.225 . S
C1083 C1082 1.491 . S
C1083 C1084 1.392 . S
C1083 C1088 1.356 . S
C1084 C1083 1.392 . S
C1084 C1085 1.368 . S
C1084 H1112 0.929 . S
C1085 C1084 1.368 . S
C1085 C1086 1.386 . S
C1085 H1113 0.929 . S
C1086 C1085 1.386 . S
C1086 C1087 1.373 . S
C1087 C1086 1.373 . S
C1087 C1088 1.409 . S
C1087 H1114 0.931 . S
C1088 C1083 1.356 . S
C1088 C1087 1.409 . S
C1088 H1115 0.930 . S
C1089 O1102 1.270 . S
C1089 O1103 1.248 . S
C1090 O1104 1.267 1_554 S
C1090 O1105 1.278 . S
C1091 Pr1081 2.880 . S
C1091 C1092 1.491 . S
C1091 O1106 1.254 . S
C1091 O1107 1.225 . S
C1092 C1091 1.491 . S
C1092 C1093 1.392 . S
C1092 C1097 1.356 . S
C1093 C1092 1.392 . S
C1093 C1094 1.368 . S
C1093 H1116 0.929 . S
C1094 C1093 1.368 . S
C1094 C1095 1.386 . S
C1094 H1117 0.929 . S
C1095 C1094 1.386 . S
C1095 C1096 1.373 . S
C1096 C1095 1.373 . S
C1096 C1097 1.409 . S
C1096 H1118 0.931 . S
C1097 C1092 1.356 . S
C1097 C1096 1.409 . S
C1097 H1119 0.930 . S
C1098 O1108 1.270 . S
C1098 O1109 1.248 . S
C1099 O1110 1.267 . S
C1099 O1111 1.278 . S
O1100 Pr1080 2.562 1_554 S
O1100 C1082 1.254 . S
O1101 Pr1080 2.490 1_554 S
O1101 C1082 1.225 . S
O1102 Pr1080 2.695 . S
O1102 Pr1081 2.436 . S
O1102 C1089 1.270 . S
O1103 Pr1080 2.512 . S
O1103 C1089 1.248 . S
O1104 Pr1081 2.438 . S
O1104 C1090 1.267 1_556 S
O1105 Pr1080 2.437 1_554 S
O1105 C1090 1.278 . S
O1106 Pr1081 2.562 . S
O1106 C1091 1.254 . S
O1107 Pr1081 2.490 . S
O1107 C1091 1.225 . S
O1108 Pr1080 2.436 . S
O1108 Pr1081 2.695 . S
O1108 C1098 1.270 . S
O1109 Pr1081 2.512 . S
O1109 C1098 1.248 . S
O1110 Pr1080 2.438 . S
O1110 C1099 1.267 . S
O1111 Pr1081 2.437 . S
O1111 C1099 1.278 . S
H1112 C1084 0.929 . S
H1113 C1085 0.929 . S
H1114 C1087 0.931 . S
H1115 C1088 0.930 . S
H1116 C1093 0.929 . S
H1117 C1094 0.929 . S
H1118 C1096 0.931 . S
H1119 C1097 0.930 . S
Pr1120 C1122 2.880 . S
Pr1120 O1140 2.562 . S
Pr1120 O1141 2.490 1_565 S
Pr1120 O1142 2.695 . S
Pr1120 O1143 2.512 1_565 S
Pr1120 O1145 2.437 . S
Pr1120 O1148 2.436 . S
Pr1120 O1150 2.438 . S
Pr1121 C1131 2.880 . S
Pr1121 O1142 2.436 . S
Pr1121 O1144 2.438 . S
Pr1121 O1146 2.562 . S
Pr1121 O1147 2.490 . S
Pr1121 O1148 2.695 . S
Pr1121 O1149 2.512 . S
Pr1121 O1151 2.437 . S
C1122 Pr1120 2.880 . S
C1122 C1123 1.491 1_565 S
C1122 O1140 1.254 . S
C1122 O1141 1.225 1_565 S
C1123 C1122 1.491 1_545 S
C1123 C1124 1.392 . S
C1123 C1128 1.356 1_545 S
C1124 C1123 1.392 . S
C1124 C1125 1.368 . S
C1124 H1152 0.929 . S
C1125 C1124 1.368 . S
C1125 C1126 1.386 . S
C1125 H1153 0.929 . S
C1126 C1125 1.386 . S
C1126 C1127 1.339 1_545 S
C1127 C1126 1.339 1_565 S
C1127 C1128 1.424 . S
C1127 H1154 0.951 . S
C1128 C1123 1.356 1_565 S
C1128 C1127 1.424 . S
C1128 H1155 0.930 . S
C1129 O1142 1.270 . S
C1129 O1143 1.248 1_565 S
C1130 O1144 1.267 . S
C1130 O1145 1.278 . S
C1131 Pr1121 2.880 . S
C1131 C1132 1.491 . S
C1131 O1146 1.254 . S
C1131 O1147 1.225 . S
C1132 C1131 1.491 . S
C1132 C1133 1.392 . S
C1132 C1137 1.356 . S
C1133 C1132 1.392 . S
C1133 C1134 1.368 . S
C1133 H1156 0.929 . S
C1134 C1133 1.368 . S
C1134 C1135 1.386 . S
C1134 H1157 0.929 . S
C1135 C1134 1.386 . S
C1135 C1136 1.373 . S
C1136 C1135 1.373 . S
C1136 C1137 1.409 . S
C1136 H1158 0.931 . S
C1137 C1132 1.356 . S
C1137 C1136 1.409 . S
C1137 H1159 0.930 . S
C1138 O1148 1.270 . S
C1138 O1149 1.248 . S
C1139 O1150 1.267 . S
C1139 O1151 1.278 . S
O1140 Pr1120 2.562 . S
O1140 C1122 1.254 . S
O1141 Pr1120 2.490 1_545 S
O1141 C1122 1.225 1_545 S
O1142 Pr1120 2.695 . S
O1142 Pr1121 2.436 . S
O1142 C1129 1.270 . S
O1143 Pr1120 2.512 1_545 S
O1143 C1129 1.248 1_545 S
O1144 Pr1121 2.438 . S
O1144 C1130 1.267 . S
O1145 Pr1120 2.437 . S
O1145 C1130 1.278 . S
O1146 Pr1121 2.562 . S
O1146 C1131 1.254 . S
O1147 Pr1121 2.490 . S
O1147 C1131 1.225 . S
O1148 Pr1120 2.436 . S
O1148 Pr1121 2.695 . S
O1148 C1138 1.270 . S
O1149 Pr1121 2.512 . S
O1149 C1138 1.248 . S
O1150 Pr1120 2.438 . S
O1150 C1139 1.267 . S
O1151 Pr1121 2.437 . S
O1151 C1139 1.278 . S
H1152 C1124 0.929 . S
H1153 C1125 0.929 . S
H1154 C1127 0.951 . S
H1155 C1128 0.930 . S
H1156 C1133 0.929 . S
H1157 C1134 0.929 . S
H1158 C1136 0.931 . S
H1159 C1137 0.930 . S
Pr1160 C1162 2.880 . S
Pr1160 O1180 2.562 . S
Pr1160 O1181 2.490 . S
Pr1160 O1182 2.695 . S
Pr1160 O1183 2.512 . S
Pr1160 O1185 2.437 . S
Pr1160 O1188 2.436 . S
Pr1160 O1190 2.438 . S
Pr1161 C1171 2.880 . S
Pr1161 O1182 2.436 . S
Pr1161 O1184 2.438 . S
Pr1161 O1186 2.562 . S
Pr1161 O1187 2.490 . S
Pr1161 O1188 2.695 . S
Pr1161 O1189 2.512 . S
Pr1161 O1191 2.437 . S
C1162 Pr1160 2.880 . S
C1162 C1163 1.491 1_556 S
C1162 O1180 1.254 . S
C1162 O1181 1.225 . S
C1163 C1162 1.491 1_554 S
C1163 C1164 1.392 . S
C1163 C1168 1.356 . S
C1164 C1163 1.392 . S
C1164 C1165 1.368 . S
C1164 H1192 0.929 . S
C1165 C1164 1.368 . S
C1165 C1166 1.386 . S
C1165 H1193 0.929 . S
C1166 C1165 1.386 . S
C1166 C1167 1.373 . S
C1167 C1166 1.373 . S
C1167 C1168 1.409 . S
C1167 H1194 0.931 . S
C1168 C1163 1.356 . S
C1168 C1167 1.409 . S
C1168 H1195 0.930 . S
C1169 O1182 1.270 . S
C1169 O1183 1.248 . S
C1170 O1184 1.267 . S
C1170 O1185 1.278 . S
C1171 Pr1161 2.880 . S
C1171 C1172 1.491 . S
C1171 O1186 1.254 . S
C1171 O1187 1.225 . S
C1172 C1171 1.491 . S
C1172 C1173 1.392 . S
C1172 C1177 1.356 . S
C1173 C1172 1.392 . S
C1173 C1174 1.368 . S
C1173 H1196 0.929 . S
C1174 C1173 1.368 . S
C1174 C1175 1.386 . S
C1174 H1197 0.929 . S
C1175 C1174 1.386 . S
C1175 C1176 1.373 . S
C1176 C1175 1.373 . S
C1176 C1177 1.409 . S
C1176 H1198 0.931 . S
C1177 C1172 1.356 . S
C1177 C1176 1.409 . S
C1177 H1199 0.930 . S
C1178 O1188 1.270 . S
C1178 O1189 1.248 . S
C1179 O1190 1.267 . S
C1179 O1191 1.278 . S
O1180 Pr1160 2.562 . S
O1180 C1162 1.254 . S
O1181 Pr1160 2.490 . S
O1181 C1162 1.225 . S
O1182 Pr1160 2.695 . S
O1182 Pr1161 2.436 . S
O1182 C1169 1.270 . S
O1183 Pr1160 2.512 . S
O1183 C1169 1.248 . S
O1184 Pr1161 2.438 . S
O1184 C1170 1.267 . S
O1185 Pr1160 2.437 . S
O1185 C1170 1.278 . S
O1186 Pr1161 2.562 . S
O1186 C1171 1.254 . S
O1187 Pr1161 2.490 . S
O1187 C1171 1.225 . S
O1188 Pr1160 2.436 . S
O1188 Pr1161 2.695 . S
O1188 C1178 1.270 . S
O1189 Pr1161 2.512 . S
O1189 C1178 1.248 . S
O1190 Pr1160 2.438 . S
O1190 C1179 1.267 . S
O1191 Pr1161 2.437 . S
O1191 C1179 1.278 . S
H1192 C1164 0.929 . S
H1193 C1165 0.929 . S
H1194 C1167 0.931 . S
H1195 C1168 0.930 . S
H1196 C1173 0.929 . S
H1197 C1174 0.929 . S
H1198 C1176 0.931 . S
H1199 C1177 0.930 . S
Pr1200 C1202 2.880 . S
Pr1200 O1220 2.562 . S
Pr1200 O1221 2.490 1_545 S
Pr1200 O1222 2.695 . S
Pr1200 O1223 2.512 . S
Pr1200 O1225 2.437 . S
Pr1200 O1228 2.436 . S
Pr1200 O1230 2.438 . S
Pr1201 C1211 2.880 . S
Pr1201 O1222 2.436 . S
Pr1201 O1224 2.438 . S
Pr1201 O1226 2.562 . S
Pr1201 O1227 2.490 . S
Pr1201 O1228 2.695 . S
Pr1201 O1229 2.512 . S
Pr1201 O1231 2.437 . S
C1202 Pr1200 2.880 . S
C1202 C1203 1.491 . S
C1202 O1220 1.254 . S
C1202 O1221 1.225 1_545 S
C1203 C1202 1.491 . S
C1203 C1204 1.392 1_545 S
C1203 C1208 1.356 . S
C1204 C1203 1.392 1_565 S
C1204 C1205 1.368 . S
C1204 H1232 0.929 . S
C1205 C1204 1.368 . S
C1205 C1206 1.386 . S
C1205 H1233 0.929 . S
C1206 C1205 1.386 . S
C1206 C1207 1.373 1_565 S
C1207 C1206 1.373 1_545 S
C1207 C1208 1.409 . S
C1207 H1234 0.931 . S
C1208 C1203 1.356 . S
C1208 C1207 1.409 . S
C1208 H1235 0.930 . S
C1209 O1222 1.270 . S
C1209 O1223 1.248 . S
C1210 O1224 1.267 . S
C1210 O1225 1.278 . S
C1211 Pr1201 2.880 . S
C1211 C1212 1.491 . S
C1211 O1226 1.254 . S
C1211 O1227 1.225 . S
C1212 C1211 1.491 . S
C1212 C1213 1.392 . S
C1212 C1217 1.356 . S
C1213 C1212 1.392 . S
C1213 C1214 1.368 . S
C1213 H1236 0.929 . S
C1214 C1213 1.368 . S
C1214 C1215 1.386 . S
C1214 H1237 0.929 . S
C1215 C1214 1.386 . S
C1215 C1216 1.373 . S
C1216 C1215 1.373 . S
C1216 C1217 1.409 . S
C1216 H1238 0.931 . S
C1217 C1212 1.356 . S
C1217 C1216 1.409 . S
C1217 H1239 0.930 . S
C1218 O1228 1.270 . S
C1218 O1229 1.248 . S
C1219 O1230 1.267 . S
C1219 O1231 1.278 . S
O1220 Pr1200 2.562 . S
O1220 C1202 1.254 . S
O1221 Pr1200 2.490 1_565 S
O1221 C1202 1.225 1_565 S
O1222 Pr1200 2.695 . S
O1222 Pr1201 2.436 . S
O1222 C1209 1.270 . S
O1223 Pr1200 2.512 . S
O1223 C1209 1.248 . S
O1224 Pr1201 2.438 . S
O1224 C1210 1.267 . S
O1225 Pr1200 2.437 . S
O1225 C1210 1.278 . S
O1226 Pr1201 2.562 . S
O1226 C1211 1.254 . S
O1227 Pr1201 2.490 . S
O1227 C1211 1.225 . S
O1228 Pr1200 2.436 . S
O1228 Pr1201 2.695 . S
O1228 C1218 1.270 . S
O1229 Pr1201 2.512 . S
O1229 C1218 1.248 . S
O1230 Pr1200 2.438 . S
O1230 C1219 1.267 . S
O1231 Pr1201 2.437 . S
O1231 C1219 1.278 . S
H1232 C1204 0.929 . S
H1233 C1205 0.929 . S
H1234 C1207 0.931 . S
H1235 C1208 0.930 . S
H1236 C1213 0.929 . S
H1237 C1214 0.929 . S
H1238 C1216 0.931 . S
H1239 C1217 0.930 . S
Pr1240 C1242 2.880 . S
Pr1240 O1260 2.562 . S
Pr1240 O1261 2.490 . S
Pr1240 O1262 2.695 . S
Pr1240 O1263 2.512 . S
Pr1240 O1265 2.437 . S
Pr1240 O1268 2.436 . S
Pr1240 O1270 2.438 . S
Pr1241 C1251 2.880 . S
Pr1241 O1262 2.436 . S
Pr1241 O1264 2.438 . S
Pr1241 O1266 2.562 . S
Pr1241 O1267 2.490 . S
Pr1241 O1268 2.695 . S
Pr1241 O1269 2.512 . S
Pr1241 O1271 2.437 . S
C1242 Pr1240 2.880 . S
C1242 C1243 1.491 . S
C1242 O1260 1.254 . S
C1242 O1261 1.225 . S
C1243 C1242 1.491 . S
C1243 C1244 1.392 . S
C1243 C1248 1.356 . S
C1244 C1243 1.392 . S
C1244 C1245 1.368 . S
C1244 H1272 0.929 . S
C1245 C1244 1.368 . S
C1245 C1246 1.386 . S
C1245 H1273 0.929 . S
C1246 C1245 1.386 . S
C1246 C1247 1.373 . S
C1247 C1246 1.373 . S
C1247 C1248 1.409 . S
C1247 H1274 0.931 . S
C1248 C1243 1.356 . S
C1248 C1247 1.409 . S
C1248 H1275 0.930 . S
C1249 O1262 1.270 . S
C1249 O1263 1.248 . S
C1250 O1264 1.267 . S
C1250 O1265 1.278 . S
C1251 Pr1241 2.880 . S
C1251 C1252 1.491 . S
C1251 O1266 1.254 . S
C1251 O1267 1.225 . S
C1252 C1251 1.491 . S
C1252 C1253 1.392 . S
C1252 C1257 1.356 . S
C1253 C1252 1.392 . S
C1253 C1254 1.368 . S
C1253 H1276 0.929 . S
C1254 C1253 1.368 . S
C1254 C1255 1.386 . S
C1254 H1277 0.929 . S
C1255 C1254 1.386 . S
C1255 C1256 1.373 . S
C1256 C1255 1.373 . S
C1256 C1257 1.409 . S
C1256 H1278 0.931 . S
C1257 C1252 1.356 . S
C1257 C1256 1.409 . S
C1257 H1279 0.930 . S
C1258 O1268 1.270 . S
C1258 O1269 1.248 . S
C1259 O1270 1.267 . S
C1259 O1271 1.278 . S
O1260 Pr1240 2.562 . S
O1260 C1242 1.254 . S
O1261 Pr1240 2.490 . S
O1261 C1242 1.225 . S
O1262 Pr1240 2.695 . S
O1262 Pr1241 2.436 . S
O1262 C1249 1.270 . S
O1263 Pr1240 2.512 . S
O1263 C1249 1.248 . S
O1264 Pr1241 2.438 . S
O1264 C1250 1.267 . S
O1265 Pr1240 2.437 . S
O1265 C1250 1.278 . S
O1266 Pr1241 2.562 . S
O1266 C1251 1.254 . S
O1267 Pr1241 2.490 . S
O1267 C1251 1.225 . S
O1268 Pr1240 2.436 . S
O1268 Pr1241 2.695 . S
O1268 C1258 1.270 . S
O1269 Pr1241 2.512 . S
O1269 C1258 1.248 . S
O1270 Pr1240 2.438 . S
O1270 C1259 1.267 . S
O1271 Pr1241 2.437 . S
O1271 C1259 1.278 . S
H1272 C1244 0.929 . S
H1273 C1245 0.929 . S
H1274 C1247 0.931 . S
H1275 C1248 0.930 . S
H1276 C1253 0.929 . S
H1277 C1254 0.929 . S
H1278 C1256 0.931 . S
H1279 C1257 0.930 . S
H1280 C1286 0.930 . S
H1281 C1290 0.930 . S
H1282 C1295 0.929 . S
H1283 C1293 0.929 . S
H1284 C1288 0.929 . S
H1285 C1294 0.929 . S
C1286 H1280 0.930 . S
C1286 C1287 1.367 . S
C1286 C1294 1.378 . S
C1287 C1286 1.367 . S
C1287 C1295 1.433 . S
C1288 H1284 0.929 . S
C1288 C1290 1.378 . S
C1288 C1292 1.350 . S
C1289 C1292 1.463 . S
C1289 C1294 1.350 . S
C1289 N1297 1.427 . S
C1290 H1281 0.930 . S
C1290 C1288 1.378 . S
C1290 C1291 1.367 . S
C1291 C1290 1.367 . S
C1291 C1293 1.433 . S
C1292 C1288 1.350 . S
C1292 C1289 1.463 . S
C1292 N1296 1.427 . S
C1293 H1283 0.929 . S
C1293 C1291 1.433 . S
C1293 N1296 1.384 . S
C1294 H1285 0.929 . S
C1294 C1286 1.378 . S
C1294 C1289 1.350 . S
C1295 H1282 0.929 . S
C1295 C1287 1.433 . S
C1295 N1297 1.384 . S
N1296 C1292 1.427 . S
N1296 C1293 1.384 . S
N1297 C1289 1.427 . S
N1297 C1295 1.384 . S
H1298 C1304 0.930 . S
H1299 C1308 0.930 . S
H1300 C1313 0.929 . S
H1301 C1311 0.929 . S
H1302 C1306 0.929 . S
H1303 C1312 0.929 . S
C1304 H1298 0.930 . S
C1304 C1305 1.367 . S
C1304 C1312 1.378 . S
C1305 C1304 1.367 . S
C1305 C1313 1.433 . S
C1306 H1302 0.929 . S
C1306 C1308 1.378 . S
C1306 C1310 1.350 . S
C1307 C1310 1.463 . S
C1307 C1312 1.350 . S
C1307 N1315 1.427 . S
C1308 H1299 0.930 . S
C1308 C1306 1.378 . S
C1308 C1309 1.367 . S
C1309 C1308 1.367 . S
C1309 C1311 1.433 . S
C1310 C1306 1.350 . S
C1310 C1307 1.463 . S
C1310 N1314 1.427 . S
C1311 H1301 0.929 . S
C1311 C1309 1.433 . S
C1311 N1314 1.384 . S
C1312 H1303 0.929 . S
C1312 C1304 1.378 . S
C1312 C1307 1.350 . S
C1313 H1300 0.929 . S
C1313 C1305 1.433 . S
C1313 N1315 1.384 . S
N1314 C1310 1.427 . S
N1314 C1311 1.384 . S
N1315 C1307 1.427 . S
N1315 C1313 1.384 . S
H1316 C1322 0.930 . S
H1317 C1326 0.930 . S
H1318 C1331 0.929 . S
H1319 C1329 0.929 . S
H1320 C1324 0.929 . S
H1321 C1330 0.929 . S
C1322 H1316 0.930 . S
C1322 C1323 1.367 . S
C1322 C1330 1.378 . S
C1323 C1322 1.367 . S
C1323 C1331 1.433 . S
C1324 H1320 0.929 . S
C1324 C1326 1.378 . S
C1324 C1328 1.350 . S
C1325 C1328 1.463 . S
C1325 C1330 1.350 . S
C1325 N1333 1.427 . S
C1326 H1317 0.930 . S
C1326 C1324 1.378 . S
C1326 C1327 1.367 . S
C1327 C1326 1.367 . S
C1327 C1329 1.433 . S
C1328 C1324 1.350 . S
C1328 C1325 1.463 . S
C1328 N1332 1.427 . S
C1329 H1319 0.929 . S
C1329 C1327 1.433 . S
C1329 N1332 1.384 . S
C1330 H1321 0.929 . S
C1330 C1322 1.378 . S
C1330 C1325 1.350 . S
C1331 H1318 0.929 . S
C1331 C1323 1.433 . S
C1331 N1333 1.384 . S
N1332 C1328 1.427 . S
N1332 C1329 1.384 . S
N1333 C1325 1.427 . S
N1333 C1331 1.384 . S
H1334 C1340 0.930 . S
H1335 C1344 0.930 . S
H1336 C1349 0.929 . S
H1337 C1347 0.929 . S
H1338 C1342 0.929 1_554 S
H1339 C1348 0.929 . S
C1340 H1334 0.930 . S
C1340 C1341 1.367 . S
C1340 C1348 1.378 . S
C1341 C1340 1.367 . S
C1341 C1349 1.433 . S
C1342 H1338 0.929 1_556 S
C1342 C1344 1.378 . S
C1342 C1346 1.350 1_556 S
C1343 C1346 1.463 . S
C1343 C1348 1.350 . S
C1343 N1351 1.427 . S
C1344 H1335 0.930 . S
C1344 C1342 1.378 . S
C1344 C1345 1.367 . S
C1345 C1344 1.367 . S
C1345 C1347 1.433 . S
C1346 C1342 1.350 1_554 S
C1346 C1343 1.463 . S
C1346 N1350 1.427 1_554 S
C1347 H1337 0.929 . S
C1347 C1345 1.433 . S
C1347 N1350 1.384 . S
C1348 H1339 0.929 . S
C1348 C1340 1.378 . S
C1348 C1343 1.350 . S
C1349 H1336 0.929 . S
C1349 C1341 1.433 . S
C1349 N1351 1.384 . S
N1350 C1346 1.427 1_556 S
N1350 C1347 1.384 . S
N1351 C1343 1.427 . S
N1351 C1349 1.384 . S
H1352 C1358 0.930 . S
H1353 C1362 0.930 . S
H1354 C1367 0.929 . S
H1355 C1365 0.929 . S
H1356 C1360 0.929 . S
H1357 C1366 0.929 . S
C1358 H1352 0.930 . S
C1358 C1359 1.367 . S
C1358 C1366 1.378 . S
C1359 C1358 1.367 . S
C1359 C1367 1.433 . S
C1360 H1356 0.929 . S
C1360 C1362 1.378 1_554 S
C1360 C1364 1.350 . S
C1361 C1364 1.463 . S
C1361 C1366 1.350 . S
C1361 N1369 1.427 . S
C1362 H1353 0.930 . S
C1362 C1360 1.378 1_556 S
C1362 C1363 1.367 . S
C1363 C1362 1.367 . S
C1363 C1365 1.433 . S
C1364 C1360 1.350 . S
C1364 C1361 1.463 . S
C1364 N1368 1.427 1_554 S
C1365 H1355 0.929 . S
C1365 C1363 1.433 . S
C1365 N1368 1.384 . S
C1366 H1357 0.929 . S
C1366 C1358 1.378 . S
C1366 C1361 1.350 . S
C1367 H1354 0.929 . S
C1367 C1359 1.433 . S
C1367 N1369 1.384 . S
N1368 C1364 1.427 1_556 S
N1368 C1365 1.384 . S
N1369 C1361 1.427 . S
N1369 C1367 1.384 . S
H1370 C1376 0.930 . S
H1371 C1380 0.930 . S
H1372 C1385 0.929 . S
H1373 C1383 0.929 . S
H1374 C1378 0.929 . S
H1375 C1384 0.929 . S
C1376 H1370 0.930 . S
C1376 C1377 1.367 . S
C1376 C1384 1.378 . S
C1377 C1376 1.367 . S
C1377 C1385 1.433 . S
C1378 H1374 0.929 . S
C1378 C1380 1.378 . S
C1378 C1382 1.350 . S
C1379 C1382 1.463 . S
C1379 C1384 1.350 . S
C1379 N1387 1.427 . S
C1380 H1371 0.930 . S
C1380 C1378 1.378 . S
C1380 C1381 1.367 . S
C1381 C1380 1.367 . S
C1381 C1383 1.433 . S
C1382 C1378 1.350 . S
C1382 C1379 1.463 . S
C1382 N1386 1.427 . S
C1383 H1373 0.929 . S
C1383 C1381 1.433 . S
C1383 N1386 1.384 . S
C1384 H1375 0.929 . S
C1384 C1376 1.378 . S
C1384 C1379 1.350 . S
C1385 H1372 0.929 . S
C1385 C1377 1.433 . S
C1385 N1387 1.384 . S
N1386 C1382 1.427 . S
N1386 C1383 1.384 . S
N1387 C1379 1.427 . S
N1387 C1385 1.384 . S
H1388 C1394 0.930 . S
H1389 C1398 0.930 . S
H1390 C1403 0.929 . S
H1391 C1401 0.929 . S
H1392 C1396 0.929 . S
H1393 C1402 0.929 . S
C1394 H1388 0.930 . S
C1394 C1395 1.367 . S
C1394 C1402 1.378 . S
C1395 C1394 1.367 . S
C1395 C1403 1.433 . S
C1396 H1392 0.929 . S
C1396 C1398 1.378 . S
C1396 C1400 1.350 . S
C1397 C1400 1.463 . S
C1397 C1402 1.350 . S
C1397 N1405 1.427 . S
C1398 H1389 0.930 . S
C1398 C1396 1.378 . S
C1398 C1399 1.367 . S
C1399 C1398 1.367 . S
C1399 C1401 1.433 . S
C1400 C1396 1.350 . S
C1400 C1397 1.463 . S
C1400 N1404 1.427 . S
C1401 H1391 0.929 . S
C1401 C1399 1.433 . S
C1401 N1404 1.384 . S
C1402 H1393 0.929 . S
C1402 C1394 1.378 . S
C1402 C1397 1.350 . S
C1403 H1390 0.929 . S
C1403 C1395 1.433 . S
C1403 N1405 1.384 . S
N1404 C1400 1.427 . S
N1404 C1401 1.384 . S
N1405 C1397 1.427 . S
N1405 C1403 1.384 . S
H1406 C1412 0.930 . S
H1407 C1416 0.930 . S
H1408 C1421 0.929 . S
H1409 C1419 0.929 . S
H1410 C1414 0.929 . S
H1411 C1420 0.929 . S
C1412 H1406 0.930 . S
C1412 C1413 1.367 . S
C1412 C1420 1.378 . S
C1413 C1412 1.367 . S
C1413 C1421 1.433 . S
C1414 H1410 0.929 . S
C1414 C1416 1.378 . S
C1414 C1418 1.350 . S
C1415 C1418 1.463 . S
C1415 C1420 1.350 . S
C1415 N1423 1.427 . S
C1416 H1407 0.930 . S
C1416 C1414 1.378 . S
C1416 C1417 1.367 . S
C1417 C1416 1.367 . S
C1417 C1419 1.433 . S
C1418 C1414 1.350 . S
C1418 C1415 1.463 . S
C1418 N1422 1.427 . S
C1419 H1409 0.929 . S
C1419 C1417 1.433 . S
C1419 N1422 1.384 . S
C1420 H1411 0.929 . S
C1420 C1412 1.378 . S
C1420 C1415 1.350 . S
C1421 H1408 0.929 . S
C1421 C1413 1.433 . S
C1421 N1423 1.384 . S
N1422 C1418 1.427 . S
N1422 C1419 1.384 . S
N1423 C1415 1.427 . S
N1423 C1421 1.384 . S
H1424 C1430 0.930 1_545 S
H1425 C1434 0.930 . S
H1426 C1439 0.929 . S
H1427 C1437 0.929 . S
H1428 C1432 0.929 . S
H1429 C1438 0.929 . S
C1430 H1424 0.930 1_565 S
C1430 C1431 1.367 . S
C1430 C1438 1.378 . S
C1431 C1430 1.367 . S
C1431 C1439 1.433 . S
C1432 H1428 0.929 . S
C1432 C1434 1.378 . S
C1432 C1436 1.350 . S
C1433 C1436 1.463 . S
C1433 C1438 1.350 . S
C1433 N1441 1.427 . S
C1434 H1425 0.930 . S
C1434 C1432 1.378 . S
C1434 C1435 1.367 . S
C1435 C1434 1.367 . S
C1435 C1437 1.433 . S
C1436 C1432 1.350 . S
C1436 C1433 1.463 . S
C1436 N1440 1.427 . S
C1437 H1427 0.929 . S
C1437 C1435 1.433 . S
C1437 N1440 1.384 . S
C1438 H1429 0.929 . S
C1438 C1430 1.378 . S
C1438 C1433 1.350 . S
C1439 H1426 0.929 . S
C1439 C1431 1.433 . S
C1439 N1441 1.384 . S
N1440 C1436 1.427 . S
N1440 C1437 1.384 . S
N1441 C1433 1.427 . S
N1441 C1439 1.384 . S
H1442 C1448 0.930 . S
H1443 C1452 0.930 . S
H1444 C1457 0.929 . S
H1445 C1455 0.929 . S
H1446 C1450 0.929 . S
H1447 C1456 0.929 . S
C1448 H1442 0.930 . S
C1448 C1449 1.367 . S
C1448 C1456 1.378 . S
C1449 C1448 1.367 . S
C1449 C1457 1.433 . S
C1450 H1446 0.929 . S
C1450 C1452 1.378 . S
C1450 C1454 1.350 . S
C1451 C1454 1.463 . S
C1451 C1456 1.350 . S
C1451 N1459 1.427 . S
C1452 H1443 0.930 . S
C1452 C1450 1.378 . S
C1452 C1453 1.367 . S
C1453 C1452 1.367 . S
C1453 C1455 1.433 . S
C1454 C1450 1.350 . S
C1454 C1451 1.463 . S
C1454 N1458 1.427 . S
C1455 H1445 0.929 . S
C1455 C1453 1.433 . S
C1455 N1458 1.384 . S
C1456 H1447 0.929 . S
C1456 C1448 1.378 . S
C1456 C1451 1.350 . S
C1457 H1444 0.929 . S
C1457 C1449 1.433 . S
C1457 N1459 1.384 . S
N1458 C1454 1.427 . S
N1458 C1455 1.384 . S
N1459 C1451 1.427 . S
N1459 C1457 1.384 . S
H1460 C1466 0.930 . S
H1461 C1470 0.930 . S
H1462 C1475 0.929 . S
H1463 C1473 0.929 . S
H1464 C1468 0.929 . S
H1465 C1474 0.929 . S
C1466 H1460 0.930 . S
C1466 C1467 1.367 . S
C1466 C1474 1.378 . S
C1467 C1466 1.367 . S
C1467 C1475 1.433 . S
C1468 H1464 0.929 . S
C1468 C1470 1.378 . S
C1468 C1472 1.350 . S
C1469 C1472 1.463 . S
C1469 C1474 1.350 . S
C1469 N1477 1.427 . S
C1470 H1461 0.930 . S
C1470 C1468 1.378 . S
C1470 C1471 1.367 . S
C1471 C1470 1.367 . S
C1471 C1473 1.433 . S
C1472 C1468 1.350 . S
C1472 C1469 1.463 . S
C1472 N1476 1.427 . S
C1473 H1463 0.929 . S
C1473 C1471 1.433 . S
C1473 N1476 1.384 . S
C1474 H1465 0.929 . S
C1474 C1466 1.378 . S
C1474 C1469 1.350 . S
C1475 H1462 0.929 . S
C1475 C1467 1.433 . S
C1475 N1477 1.384 . S
N1476 C1472 1.427 . S
N1476 C1473 1.384 . S
N1477 C1469 1.427 . S
N1477 C1475 1.384 . S
H1478 C1484 0.930 . S
H1479 C1488 0.930 . S
H1480 C1493 0.929 . S
H1481 C1491 0.929 . S
H1482 C1486 0.929 . S
H1483 C1492 0.929 . S
C1484 H1478 0.930 . S
C1484 C1485 1.367 . S
C1484 C1492 1.378 . S
C1485 C1484 1.367 . S
C1485 C1493 1.433 . S
C1486 H1482 0.929 . S
C1486 C1488 1.378 . S
C1486 C1490 1.350 . S
C1487 C1490 1.463 . S
C1487 C1492 1.350 . S
C1487 N1495 1.427 . S
C1488 H1479 0.930 . S
C1488 C1486 1.378 . S
C1488 C1489 1.367 . S
C1489 C1488 1.367 . S
C1489 C1491 1.433 . S
C1490 C1486 1.350 . S
C1490 C1487 1.463 . S
C1490 N1494 1.427 . S
C1491 H1481 0.929 . S
C1491 C1489 1.433 . S
C1491 N1494 1.384 . S
C1492 H1483 0.929 . S
C1492 C1484 1.378 . S
C1492 C1487 1.350 . S
C1493 H1480 0.929 . S
C1493 C1485 1.433 . S
C1493 N1495 1.384 . S
N1494 C1490 1.427 . S
N1494 C1491 1.384 . S
N1495 C1487 1.427 . S
N1495 C1493 1.384 . S
H1496 C1502 0.930 . S
H1497 C1506 0.930 . S
H1498 C1511 0.929 . S
H1499 C1509 0.929 1_565 S
H1500 C1504 0.929 . S
H1501 C1510 0.929 . S
C1502 H1496 0.930 . S
C1502 C1503 1.367 . S
C1502 C1510 1.378 . S
C1503 C1502 1.367 . S
C1503 C1511 1.433 . S
C1504 H1500 0.929 . S
C1504 C1506 1.378 . S
C1504 C1508 1.350 . S
C1505 C1508 1.463 . S
C1505 C1510 1.350 . S
C1505 N1513 1.427 . S
C1506 H1497 0.930 . S
C1506 C1504 1.378 . S
C1506 C1507 1.367 . S
C1507 C1506 1.367 . S
C1507 C1509 1.433 . S
C1508 C1504 1.350 . S
C1508 C1505 1.463 . S
C1508 N1512 1.427 . S
C1509 H1499 0.929 1_545 S
C1509 C1507 1.433 . S
C1509 N1512 1.384 . S
C1510 H1501 0.929 . S
C1510 C1502 1.378 . S
C1510 C1505 1.350 . S
C1511 H1498 0.929 . S
C1511 C1503 1.433 . S
C1511 N1513 1.384 . S
N1512 C1508 1.427 . S
N1512 C1509 1.384 . S
N1513 C1505 1.427 . S
N1513 C1511 1.384 . S
H1514 C1520 0.930 . S
H1515 C1524 0.930 . S
H1516 C1529 0.929 . S
H1517 C1527 0.929 . S
H1518 C1522 0.929 . S
H1519 C1528 0.929 . S
C1520 H1514 0.930 . S
C1520 C1521 1.367 . S
C1520 C1528 1.378 . S
C1521 C1520 1.367 . S
C1521 C1529 1.433 . S
C1522 H1518 0.929 . S
C1522 C1524 1.378 . S
C1522 C1526 1.350 . S
C1523 C1526 1.463 . S
C1523 C1528 1.350 . S
C1523 N1531 1.427 . S
C1524 H1515 0.930 . S
C1524 C1522 1.378 . S
C1524 C1525 1.367 . S
C1525 C1524 1.367 . S
C1525 C1527 1.433 . S
C1526 C1522 1.350 . S
C1526 C1523 1.463 . S
C1526 N1530 1.427 . S
C1527 H1517 0.929 . S
C1527 C1525 1.433 . S
C1527 N1530 1.384 . S
C1528 H1519 0.929 . S
C1528 C1520 1.378 . S
C1528 C1523 1.350 . S
C1529 H1516 0.929 . S
C1529 C1521 1.433 . S
C1529 N1531 1.384 . S
N1530 C1526 1.427 . S
N1530 C1527 1.384 . S
N1531 C1523 1.427 . S
N1531 C1529 1.384 . S
H1532 C1538 0.930 . S
H1533 C1542 0.930 1_545 S
H1534 C1547 0.929 . S
H1535 C1545 0.929 . S
H1536 C1540 0.929 . S
H1537 C1546 0.929 . S
C1538 H1532 0.930 . S
C1538 C1539 1.367 . S
C1538 C1546 1.378 . S
C1539 C1538 1.367 . S
C1539 C1547 1.433 . S
C1540 H1536 0.929 . S
C1540 C1542 1.378 1_554 S
C1540 C1544 1.350 . S
C1541 C1544 1.463 . S
C1541 C1546 1.350 . S
C1541 N1549 1.427 . S
C1542 H1533 0.930 1_565 S
C1542 C1540 1.378 1_556 S
C1542 C1543 1.367 . S
C1543 C1542 1.367 . S
C1543 C1545 1.433 . S
C1544 C1540 1.350 . S
C1544 C1541 1.463 . S
C1544 N1548 1.427 . S
C1545 H1535 0.929 . S
C1545 C1543 1.433 . S
C1545 N1548 1.384 1_556 S
C1546 H1537 0.929 . S
C1546 C1538 1.378 . S
C1546 C1541 1.350 . S
C1547 H1534 0.929 . S
C1547 C1539 1.433 . S
C1547 N1549 1.384 . S
N1548 C1544 1.427 . S
N1548 C1545 1.384 1_554 S
N1549 C1541 1.427 . S
N1549 C1547 1.384 . S
H1550 C1556 0.930 . S
H1551 C1560 0.930 . S
H1552 C1565 0.929 . S
H1553 C1563 0.929 . S
H1554 C1558 0.929 . S
H1555 C1564 0.929 . S
C1556 H1550 0.930 . S
C1556 C1557 1.367 . S
C1556 C1564 1.378 . S
C1557 C1556 1.367 . S
C1557 C1565 1.433 . S
C1558 H1554 0.929 . S
C1558 C1560 1.378 . S
C1558 C1562 1.350 . S
C1559 C1562 1.463 . S
C1559 C1564 1.350 . S
C1559 N1567 1.427 . S
C1560 H1551 0.930 . S
C1560 C1558 1.378 . S
C1560 C1561 1.367 . S
C1561 C1560 1.367 . S
C1561 C1563 1.433 . S
C1562 C1558 1.350 . S
C1562 C1559 1.463 . S
C1562 N1566 1.427 . S
C1563 H1553 0.929 . S
C1563 C1561 1.433 . S
C1563 N1566 1.384 . S
C1564 H1555 0.929 . S
C1564 C1556 1.378 . S
C1564 C1559 1.350 . S
C1565 H1552 0.929 . S
C1565 C1557 1.433 . S
C1565 N1567 1.384 . S
N1566 C1562 1.427 . S
N1566 C1563 1.384 . S
N1567 C1559 1.427 . S
N1567 C1565 1.384 . S
H1568 C1574 0.930 . S
H1569 C1578 0.930 . S
H1570 C1583 0.929 . S
H1571 C1581 0.929 . S
H1572 C1576 0.929 . S
H1573 C1582 0.929 . S
C1574 H1568 0.930 . S
C1574 C1575 1.367 . S
C1574 C1582 1.378 . S
C1575 C1574 1.367 . S
C1575 C1583 1.433 . S
C1576 H1572 0.929 . S
C1576 C1578 1.378 . S
C1576 C1580 1.350 . S
C1577 C1580 1.463 . S
C1577 C1582 1.350 . S
C1577 N1585 1.427 . S
C1578 H1569 0.930 . S
C1578 C1576 1.378 . S
C1578 C1579 1.367 . S
C1579 C1578 1.367 . S
C1579 C1581 1.433 . S
C1580 C1576 1.350 . S
C1580 C1577 1.463 . S
C1580 N1584 1.427 . S
C1581 H1571 0.929 . S
C1581 C1579 1.433 . S
C1581 N1584 1.384 . S
C1582 H1573 0.929 . S
C1582 C1574 1.378 . S
C1582 C1577 1.350 . S
C1583 H1570 0.929 . S
C1583 C1575 1.433 . S
C1583 N1585 1.384 . S
N1584 C1580 1.427 . S
N1584 C1581 1.384 . S
N1585 C1577 1.427 . S
N1585 C1583 1.384 . S
H1586 C1592 0.930 . S
H1587 C1596 0.930 . S
H1588 C1601 0.929 . S
H1589 C1599 0.929 . S
H1590 C1594 0.929 . S
H1591 C1600 0.929 . S
C1592 H1586 0.930 . S
C1592 C1593 1.367 . S
C1592 C1600 1.378 . S
C1593 C1592 1.367 . S
C1593 C1601 1.433 . S
C1594 H1590 0.929 . S
C1594 C1596 1.378 . S
C1594 C1598 1.350 . S
C1595 C1598 1.463 . S
C1595 C1600 1.350 . S
C1595 N1603 1.427 . S
C1596 H1587 0.930 . S
C1596 C1594 1.378 . S
C1596 C1597 1.367 . S
C1597 C1596 1.367 . S
C1597 C1599 1.433 . S
C1598 C1594 1.350 . S
C1598 C1595 1.463 . S
C1598 N1602 1.427 . S
C1599 H1589 0.929 . S
C1599 C1597 1.433 . S
C1599 N1602 1.384 . S
C1600 H1591 0.929 . S
C1600 C1592 1.378 . S
C1600 C1595 1.350 . S
C1601 H1588 0.929 . S
C1601 C1593 1.433 . S
C1601 N1603 1.384 . S
N1602 C1598 1.427 . S
N1602 C1599 1.384 . S
N1603 C1595 1.427 . S
N1603 C1601 1.384 . S
H1604 C1610 0.930 . S
H1605 C1614 0.930 . S
H1606 C1619 0.929 . S
H1607 C1617 0.929 . S
H1608 C1612 0.929 . S
H1609 C1618 0.929 . S
C1610 H1604 0.930 . S
C1610 C1611 1.367 . S
C1610 C1618 1.378 . S
C1611 C1610 1.367 . S
C1611 C1619 1.433 . S
C1612 H1608 0.929 . S
C1612 C1614 1.378 . S
C1612 C1616 1.350 . S
C1613 C1616 1.463 . S
C1613 C1618 1.350 . S
C1613 N1621 1.427 . S
C1614 H1605 0.930 . S
C1614 C1612 1.378 . S
C1614 C1615 1.367 . S
C1615 C1614 1.367 . S
C1615 C1617 1.433 . S
C1616 C1612 1.350 . S
C1616 C1613 1.463 . S
C1616 N1620 1.427 . S
C1617 H1607 0.929 . S
C1617 C1615 1.433 . S
C1617 N1620 1.384 . S
C1618 H1609 0.929 . S
C1618 C1610 1.378 . S
C1618 C1613 1.350 . S
C1619 H1606 0.929 . S
C1619 C1611 1.433 . S
C1619 N1621 1.384 . S
N1620 C1616 1.427 . S
N1620 C1617 1.384 . S
N1621 C1613 1.427 . S
N1621 C1619 1.384 . S
H1622 C1628 0.930 . S
H1623 C1632 0.930 . S
H1624 C1637 0.929 . S
H1625 C1635 0.929 . S
H1626 C1630 0.929 . S
H1627 C1636 0.929 . S
C1628 H1622 0.930 . S
C1628 C1629 1.367 . S
C1628 C1636 1.378 . S
C1629 C1628 1.367 . S
C1629 C1637 1.433 . S
C1630 H1626 0.929 . S
C1630 C1632 1.378 . S
C1630 C1634 1.350 1_554 S
C1631 C1634 1.463 . S
C1631 C1636 1.350 . S
C1631 N1639 1.427 . S
C1632 H1623 0.930 . S
C1632 C1630 1.378 . S
C1632 C1633 1.367 . S
C1633 C1632 1.367 . S
C1633 C1635 1.433 1_554 S
C1634 C1630 1.350 1_556 S
C1634 C1631 1.463 . S
C1634 N1638 1.427 . S
C1635 H1625 0.929 . S
C1635 C1633 1.433 1_556 S
C1635 N1638 1.384 . S
C1636 H1627 0.929 . S
C1636 C1628 1.378 . S
C1636 C1631 1.350 . S
C1637 H1624 0.929 . S
C1637 C1629 1.433 . S
C1637 N1639 1.384 . S
N1638 C1634 1.427 . S
N1638 C1635 1.384 . S
N1639 C1631 1.427 . S
N1639 C1637 1.384 . S
H1640 C1646 0.930 . S
H1641 C1650 0.930 . S
H1642 C1655 0.929 . S
H1643 C1653 0.929 . S
H1644 C1648 0.929 . S
H1645 C1654 0.929 . S
C1646 H1640 0.930 . S
C1646 C1647 1.367 . S
C1646 C1654 1.378 . S
C1647 C1646 1.367 . S
C1647 C1655 1.433 . S
C1648 H1644 0.929 . S
C1648 C1650 1.378 . S
C1648 C1652 1.350 . S
C1649 C1652 1.463 . S
C1649 C1654 1.350 . S
C1649 N1657 1.427 . S
C1650 H1641 0.930 . S
C1650 C1648 1.378 . S
C1650 C1651 1.367 . S
C1651 C1650 1.367 . S
C1651 C1653 1.433 . S
C1652 C1648 1.350 . S
C1652 C1649 1.463 . S
C1652 N1656 1.427 . S
C1653 H1643 0.929 . S
C1653 C1651 1.433 . S
C1653 N1656 1.384 . S
C1654 H1645 0.929 . S
C1654 C1646 1.378 . S
C1654 C1649 1.350 . S
C1655 H1642 0.929 . S
C1655 C1647 1.433 . S
C1655 N1657 1.384 . S
N1656 C1652 1.427 . S
N1656 C1653 1.384 . S
N1657 C1649 1.427 . S
N1657 C1655 1.384 . S
H1658 C1664 0.930 . S
H1659 C1668 0.930 . S
H1660 C1673 0.929 . S
H1661 C1671 0.929 . S
H1662 C1666 0.929 . S
H1663 C1672 0.929 . S
C1664 H1658 0.930 . S
C1664 C1665 1.367 . S
C1664 C1672 1.378 . S
C1665 C1664 1.367 . S
C1665 C1673 1.433 . S
C1666 H1662 0.929 . S
C1666 C1668 1.378 . S
C1666 C1670 1.350 . S
C1667 C1670 1.463 . S
C1667 C1672 1.350 . S
C1667 N1675 1.427 . S
C1668 H1659 0.930 . S
C1668 C1666 1.378 . S
C1668 C1669 1.367 . S
C1669 C1668 1.367 . S
C1669 C1671 1.433 . S
C1670 C1666 1.350 . S
C1670 C1667 1.463 . S
C1670 N1674 1.427 . S
C1671 H1661 0.929 . S
C1671 C1669 1.433 . S
C1671 N1674 1.384 . S
C1672 H1663 0.929 . S
C1672 C1664 1.378 . S
C1672 C1667 1.350 . S
C1673 H1660 0.929 . S
C1673 C1665 1.433 . S
C1673 N1675 1.384 . S
N1674 C1670 1.427 . S
N1674 C1671 1.384 . S
N1675 C1667 1.427 . S
N1675 C1673 1.384 . S
H1676 C1682 0.930 . S
H1677 C1686 0.930 . S
H1678 C1691 0.929 . S
H1679 C1689 0.929 . S
H1680 C1684 0.929 . S
H1681 C1690 0.929 . S
C1682 H1676 0.930 . S
C1682 C1683 1.367 . S
C1682 C1690 1.378 1_554 S
C1683 C1682 1.367 . S
C1683 C1691 1.433 . S
C1684 H1680 0.929 . S
C1684 C1686 1.378 . S
C1684 C1688 1.350 . S
C1685 C1688 1.463 . S
C1685 C1690 1.350 . S
C1685 N1693 1.427 . S
C1686 H1677 0.930 . S
C1686 C1684 1.378 . S
C1686 C1687 1.367 . S
C1687 C1686 1.367 . S
C1687 C1689 1.433 . S
C1688 C1684 1.350 . S
C1688 C1685 1.463 . S
C1688 N1692 1.427 . S
C1689 H1679 0.929 . S
C1689 C1687 1.433 . S
C1689 N1692 1.384 . S
C1690 H1681 0.929 . S
C1690 C1682 1.378 1_556 S
C1690 C1685 1.350 . S
C1691 H1678 0.929 . S
C1691 C1683 1.433 . S
C1691 N1693 1.384 1_554 S
N1692 C1688 1.427 . S
N1692 C1689 1.384 . S
N1693 C1685 1.427 . S
N1693 C1691 1.384 1_556 S
H1694 C1700 0.930 . S
H1695 C1704 0.930 . S
H1696 C1709 0.929 . S
H1697 C1707 0.929 . S
H1698 C1702 0.929 . S
H1699 C1708 0.929 . S
C1700 H1694 0.930 . S
C1700 C1701 1.367 . S
C1700 C1708 1.378 . S
C1701 C1700 1.367 . S
C1701 C1709 1.433 . S
C1702 H1698 0.929 . S
C1702 C1704 1.378 . S
C1702 C1706 1.350 . S
C1703 C1706 1.463 . S
C1703 C1708 1.350 . S
C1703 N1711 1.427 . S
C1704 H1695 0.930 . S
C1704 C1702 1.378 . S
C1704 C1705 1.367 . S
C1705 C1704 1.367 . S
C1705 C1707 1.433 . S
C1706 C1702 1.350 . S
C1706 C1703 1.463 . S
C1706 N1710 1.427 . S
C1707 H1697 0.929 . S
C1707 C1705 1.433 . S
C1707 N1710 1.384 . S
C1708 H1699 0.929 . S
C1708 C1700 1.378 . S
C1708 C1703 1.350 . S
C1709 H1696 0.929 . S
C1709 C1701 1.433 . S
C1709 N1711 1.384 . S
N1710 C1706 1.427 . S
N1710 C1707 1.384 . S
N1711 C1703 1.427 . S
N1711 C1709 1.384 . S
H1712 C1718 0.930 . S
H1713 C1722 0.930 . S
H1714 C1727 0.929 . S
H1715 C1725 0.929 . S
H1716 C1720 0.929 1_554 S
H1717 C1726 0.929 . S
C1718 H1712 0.930 . S
C1718 C1719 1.367 . S
C1718 C1726 1.378 . S
C1719 C1718 1.367 . S
C1719 C1727 1.433 . S
C1720 H1716 0.929 1_556 S
C1720 C1722 1.378 . S
C1720 C1724 1.350 1_556 S
C1721 C1724 1.463 . S
C1721 C1726 1.350 . S
C1721 N1729 1.427 . S
C1722 H1713 0.930 . S
C1722 C1720 1.378 . S
C1722 C1723 1.367 . S
C1723 C1722 1.367 . S
C1723 C1725 1.433 . S
C1724 C1720 1.350 1_554 S
C1724 C1721 1.463 . S
C1724 N1728 1.427 1_554 S
C1725 H1715 0.929 . S
C1725 C1723 1.433 . S
C1725 N1728 1.384 . S
C1726 H1717 0.929 . S
C1726 C1718 1.378 . S
C1726 C1721 1.350 . S
C1727 H1714 0.929 . S
C1727 C1719 1.433 . S
C1727 N1729 1.384 . S
N1728 C1724 1.427 1_556 S
N1728 C1725 1.384 . S
N1729 C1721 1.427 . S
N1729 C1727 1.384 . S
H1730 C1736 0.930 . S
H1731 C1740 0.930 . S
H1732 C1745 0.929 . S
H1733 C1743 0.929 . S
H1734 C1738 0.929 . S
H1735 C1744 0.929 . S
C1736 H1730 0.930 . S
C1736 C1737 1.367 . S
C1736 C1744 1.378 . S
C1737 C1736 1.367 . S
C1737 C1745 1.433 . S
C1738 H1734 0.929 . S
C1738 C1740 1.378 . S
C1738 C1742 1.350 . S
C1739 C1742 1.463 . S
C1739 C1744 1.350 . S
C1739 N1747 1.427 . S
C1740 H1731 0.930 . S
C1740 C1738 1.378 . S
C1740 C1741 1.367 . S
C1741 C1740 1.367 . S
C1741 C1743 1.433 . S
C1742 C1738 1.350 . S
C1742 C1739 1.463 . S
C1742 N1746 1.427 . S
C1743 H1733 0.929 . S
C1743 C1741 1.433 . S
C1743 N1746 1.384 . S
C1744 H1735 0.929 . S
C1744 C1736 1.378 . S
C1744 C1739 1.350 . S
C1745 H1732 0.929 . S
C1745 C1737 1.433 . S
C1745 N1747 1.384 . S
N1746 C1742 1.427 . S
N1746 C1743 1.384 . S
N1747 C1739 1.427 . S
N1747 C1745 1.384 . S
H1748 C1754 0.930 . S
H1749 C1758 0.930 . S
H1750 C1763 0.929 . S
H1751 C1761 0.929 . S
H1752 C1756 0.929 . S
H1753 C1762 0.929 . S
C1754 H1748 0.930 . S
C1754 C1755 1.367 . S
C1754 C1762 1.378 . S
C1755 C1754 1.367 . S
C1755 C1763 1.433 . S
C1756 H1752 0.929 . S
C1756 C1758 1.378 . S
C1756 C1760 1.350 . S
C1757 C1760 1.463 . S
C1757 C1762 1.350 . S
C1757 N1765 1.427 . S
C1758 H1749 0.930 . S
C1758 C1756 1.378 . S
C1758 C1759 1.367 . S
C1759 C1758 1.367 . S
C1759 C1761 1.433 . S
C1760 C1756 1.350 . S
C1760 C1757 1.463 . S
C1760 N1764 1.427 . S
C1761 H1751 0.929 . S
C1761 C1759 1.433 . S
C1761 N1764 1.384 . S
C1762 H1753 0.929 . S
C1762 C1754 1.378 . S
C1762 C1757 1.350 . S
C1763 H1750 0.929 . S
C1763 C1755 1.433 . S
C1763 N1765 1.384 . S
N1764 C1760 1.427 . S
N1764 C1761 1.384 . S
N1765 C1757 1.427 . S
N1765 C1763 1.384 . S
H1766 C1772 0.930 . S
H1767 C1776 0.930 . S
H1768 C1781 0.929 . S
H1769 C1779 0.929 . S
H1770 C1774 0.929 . S
H1771 C1780 0.929 . S
C1772 H1766 0.930 . S
C1772 C1773 1.367 . S
C1772 C1780 1.378 . S
C1773 C1772 1.367 . S
C1773 C1781 1.433 . S
C1774 H1770 0.929 . S
C1774 C1776 1.378 . S
C1774 C1778 1.350 . S
C1775 C1778 1.463 . S
C1775 C1780 1.350 . S
C1775 N1783 1.427 . S
C1776 H1767 0.930 . S
C1776 C1774 1.378 . S
C1776 C1777 1.367 . S
C1777 C1776 1.367 . S
C1777 C1779 1.433 . S
C1778 C1774 1.350 . S
C1778 C1775 1.463 . S
C1778 N1782 1.427 . S
C1779 H1769 0.929 . S
C1779 C1777 1.433 . S
C1779 N1782 1.384 . S
C1780 H1771 0.929 . S
C1780 C1772 1.378 . S
C1780 C1775 1.350 . S
C1781 H1768 0.929 . S
C1781 C1773 1.433 . S
C1781 N1783 1.384 . S
N1782 C1778 1.427 . S
N1782 C1779 1.384 . S
N1783 C1775 1.427 . S
N1783 C1781 1.384 . S
H1784 C1790 0.930 . S
H1785 C1794 0.930 . S
H1786 C1799 0.929 . S
H1787 C1797 0.929 . S
H1788 C1792 0.929 . S
H1789 C1798 0.929 . S
C1790 H1784 0.930 . S
C1790 C1791 1.367 . S
C1790 C1798 1.378 . S
C1791 C1790 1.367 . S
C1791 C1799 1.433 . S
C1792 H1788 0.929 . S
C1792 C1794 1.378 . S
C1792 C1796 1.350 . S
C1793 C1796 1.463 . S
C1793 C1798 1.350 . S
C1793 N1801 1.427 . S
C1794 H1785 0.930 . S
C1794 C1792 1.378 . S
C1794 C1795 1.367 . S
C1795 C1794 1.367 . S
C1795 C1797 1.433 . S
C1796 C1792 1.350 . S
C1796 C1793 1.463 . S
C1796 N1800 1.427 . S
C1797 H1787 0.929 . S
C1797 C1795 1.433 . S
C1797 N1800 1.384 . S
C1798 H1789 0.929 . S
C1798 C1790 1.378 . S
C1798 C1793 1.350 . S
C1799 H1786 0.929 . S
C1799 C1791 1.433 . S
C1799 N1801 1.384 . S
N1800 C1796 1.427 . S
N1800 C1797 1.384 . S
N1801 C1793 1.427 . S
N1801 C1799 1.384 . S
H1802 C1808 0.930 . S
H1803 C1812 0.930 . S
H1804 C1817 0.929 . S
H1805 C1815 0.929 . S
H1806 C1810 0.929 . S
H1807 C1816 0.929 . S
C1808 H1802 0.930 . S
C1808 C1809 1.367 . S
C1808 C1816 1.378 . S
C1809 C1808 1.367 . S
C1809 C1817 1.433 . S
C1810 H1806 0.929 . S
C1810 C1812 1.378 . S
C1810 C1814 1.350 . S
C1811 C1814 1.463 . S
C1811 C1816 1.350 . S
C1811 N1819 1.427 . S
C1812 H1803 0.930 . S
C1812 C1810 1.378 . S
C1812 C1813 1.367 . S
C1813 C1812 1.367 . S
C1813 C1815 1.433 . S
C1814 C1810 1.350 . S
C1814 C1811 1.463 . S
C1814 N1818 1.427 . S
C1815 H1805 0.929 . S
C1815 C1813 1.433 . S
C1815 N1818 1.384 . S
C1816 H1807 0.929 . S
C1816 C1808 1.378 . S
C1816 C1811 1.350 . S
C1817 H1804 0.929 . S
C1817 C1809 1.433 . S
C1817 N1819 1.384 . S
N1818 C1814 1.427 . S
N1818 C1815 1.384 . S
N1819 C1811 1.427 . S
N1819 C1817 1.384 . S
H1820 C1826 0.930 . S
H1821 C1830 0.930 . S
H1822 C1835 0.929 . S
H1823 C1833 0.929 . S
H1824 C1828 0.929 . S
H1825 C1834 0.929 . S
C1826 H1820 0.930 . S
C1826 C1827 1.367 . S
C1826 C1834 1.378 . S
C1827 C1826 1.367 . S
C1827 C1835 1.433 . S
C1828 H1824 0.929 . S
C1828 C1830 1.378 . S
C1828 C1832 1.350 . S
C1829 C1832 1.463 . S
C1829 C1834 1.350 . S
C1829 N1837 1.427 . S
C1830 H1821 0.930 . S
C1830 C1828 1.378 . S
C1830 C1831 1.367 . S
C1831 C1830 1.367 . S
C1831 C1833 1.433 . S
C1832 C1828 1.350 . S
C1832 C1829 1.463 . S
C1832 N1836 1.427 . S
C1833 H1823 0.929 . S
C1833 C1831 1.433 . S
C1833 N1836 1.384 . S
C1834 H1825 0.929 . S
C1834 C1826 1.378 . S
C1834 C1829 1.350 . S
C1835 H1822 0.929 . S
C1835 C1827 1.433 . S
C1835 N1837 1.384 . S
N1836 C1832 1.427 . S
N1836 C1833 1.384 . S
N1837 C1829 1.427 . S
N1837 C1835 1.384 . S
H1838 C1844 0.930 . S
H1839 C1848 0.930 . S
H1840 C1853 0.929 . S
H1841 C1851 0.929 . S
H1842 C1846 0.929 . S
H1843 C1852 0.929 . S
C1844 H1838 0.930 . S
C1844 C1845 1.367 . S
C1844 C1852 1.378 . S
C1845 C1844 1.367 . S
C1845 C1853 1.433 . S
C1846 H1842 0.929 . S
C1846 C1848 1.378 . S
C1846 C1850 1.350 . S
C1847 C1850 1.463 . S
C1847 C1852 1.350 . S
C1847 N1855 1.427 . S
C1848 H1839 0.930 . S
C1848 C1846 1.378 . S
C1848 C1849 1.367 . S
C1849 C1848 1.367 . S
C1849 C1851 1.433 . S
C1850 C1846 1.350 . S
C1850 C1847 1.463 . S
C1850 N1854 1.427 . S
C1851 H1841 0.929 . S
C1851 C1849 1.433 . S
C1851 N1854 1.384 . S
C1852 H1843 0.929 . S
C1852 C1844 1.378 . S
C1852 C1847 1.350 . S
C1853 H1840 0.929 . S
C1853 C1845 1.433 . S
C1853 N1855 1.384 . S
N1854 C1850 1.427 . S
N1854 C1851 1.384 . S
N1855 C1847 1.427 . S
N1855 C1853 1.384 . S
H1856 C1862 0.930 . S
H1857 C1866 0.930 . S
H1858 C1871 0.929 . S
H1859 C1869 0.929 . S
H1860 C1864 0.929 . S
H1861 C1870 0.929 . S
C1862 H1856 0.930 . S
C1862 C1863 1.367 . S
C1862 C1870 1.378 . S
C1863 C1862 1.367 . S
C1863 C1871 1.433 . S
C1864 H1860 0.929 . S
C1864 C1866 1.378 . S
C1864 C1868 1.350 . S
C1865 C1868 1.463 1_655 S
C1865 C1870 1.350 . S
C1865 N1873 1.427 . S
C1866 H1857 0.930 . S
C1866 C1864 1.378 . S
C1866 C1867 1.367 . S
C1867 C1866 1.367 . S
C1867 C1869 1.433 . S
C1868 C1864 1.350 . S
C1868 C1865 1.463 1_455 S
C1868 N1872 1.427 . S
C1869 H1859 0.929 . S
C1869 C1867 1.433 . S
C1869 N1872 1.384 . S
C1870 H1861 0.929 . S
C1870 C1862 1.378 . S
C1870 C1865 1.350 . S
C1871 H1858 0.929 . S
C1871 C1863 1.433 . S
C1871 N1873 1.384 . S
N1872 C1868 1.427 . S
N1872 C1869 1.384 . S
N1873 C1865 1.427 . S
N1873 C1871 1.384 . S
H1874 C1880 0.930 . S
H1875 C1884 0.930 . S
H1876 C1889 0.929 . S
H1877 C1887 0.929 . S
H1878 C1882 0.929 . S
H1879 C1888 0.929 . S
C1880 H1874 0.930 . S
C1880 C1881 1.367 . S
C1880 C1888 1.378 . S
C1881 C1880 1.367 . S
C1881 C1889 1.433 . S
C1882 H1878 0.929 . S
C1882 C1884 1.378 . S
C1882 C1886 1.350 . S
C1883 C1886 1.463 . S
C1883 C1888 1.350 . S
C1883 N1891 1.427 . S
C1884 H1875 0.930 . S
C1884 C1882 1.378 . S
C1884 C1885 1.367 . S
C1885 C1884 1.367 . S
C1885 C1887 1.433 . S
C1886 C1882 1.350 . S
C1886 C1883 1.463 . S
C1886 N1890 1.427 . S
C1887 H1877 0.929 . S
C1887 C1885 1.433 . S
C1887 N1890 1.384 . S
C1888 H1879 0.929 . S
C1888 C1880 1.378 . S
C1888 C1883 1.350 . S
C1889 H1876 0.929 . S
C1889 C1881 1.433 . S
C1889 N1891 1.384 . S
N1890 C1886 1.427 . S
N1890 C1887 1.384 . S
N1891 C1883 1.427 . S
N1891 C1889 1.384 . S
H1892 C1898 0.930 . S
H1893 C1902 0.930 . S
H1894 C1907 0.929 . S
H1895 C1905 0.929 . S
H1896 C1900 0.929 . S
H1897 C1906 0.929 . S
C1898 H1892 0.930 . S
C1898 C1899 1.367 . S
C1898 C1906 1.378 . S
C1899 C1898 1.367 . S
C1899 C1907 1.433 . S
C1900 H1896 0.929 . S
C1900 C1902 1.378 . S
C1900 C1904 1.350 . S
C1901 C1904 1.463 . S
C1901 C1906 1.350 . S
C1901 N1909 1.427 . S
C1902 H1893 0.930 . S
C1902 C1900 1.378 . S
C1902 C1903 1.367 . S
C1903 C1902 1.367 . S
C1903 C1905 1.433 . S
C1904 C1900 1.350 . S
C1904 C1901 1.463 . S
C1904 N1908 1.427 . S
C1905 H1895 0.929 . S
C1905 C1903 1.433 . S
C1905 N1908 1.384 . S
C1906 H1897 0.929 . S
C1906 C1898 1.378 . S
C1906 C1901 1.350 . S
C1907 H1894 0.929 . S
C1907 C1899 1.433 . S
C1907 N1909 1.384 . S
N1908 C1904 1.427 . S
N1908 C1905 1.384 . S
N1909 C1901 1.427 . S
N1909 C1907 1.384 . S
H1910 C1916 0.930 . S
H1911 C1920 0.930 . S
H1912 C1925 0.929 . S
H1913 C1923 0.929 . S
H1914 C1918 0.929 . S
H1915 C1924 0.929 . S
C1916 H1910 0.930 . S
C1916 C1917 1.367 . S
C1916 C1924 1.378 . S
C1917 C1916 1.367 . S
C1917 C1925 1.433 . S
C1918 H1914 0.929 . S
C1918 C1920 1.378 . S
C1918 C1922 1.350 . S
C1919 C1922 1.463 . S
C1919 C1924 1.350 . S
C1919 N1927 1.427 . S
C1920 H1911 0.930 . S
C1920 C1918 1.378 . S
C1920 C1921 1.367 . S
C1921 C1920 1.367 . S
C1921 C1923 1.433 . S
C1922 C1918 1.350 . S
C1922 C1919 1.463 . S
C1922 N1926 1.427 . S
C1923 H1913 0.929 . S
C1923 C1921 1.433 . S
C1923 N1926 1.384 . S
C1924 H1915 0.929 . S
C1924 C1916 1.378 . S
C1924 C1919 1.350 . S
C1925 H1912 0.929 . S
C1925 C1917 1.433 . S
C1925 N1927 1.384 . S
N1926 C1922 1.427 . S
N1926 C1923 1.384 . S
N1927 C1919 1.427 . S
N1927 C1925 1.384 . S
H1928 C1934 0.930 . S
H1929 C1938 0.930 . S
H1930 C1943 0.929 . S
H1931 C1941 0.929 . S
H1932 C1936 0.929 . S
H1933 C1942 0.929 . S
C1934 H1928 0.930 . S
C1934 C1935 1.367 . S
C1934 C1942 1.378 . S
C1935 C1934 1.367 . S
C1935 C1943 1.433 . S
C1936 H1932 0.929 . S
C1936 C1938 1.378 . S
C1936 C1940 1.350 . S
C1937 C1940 1.463 1_655 S
C1937 C1942 1.350 . S
C1937 N1945 1.427 . S
C1938 H1929 0.930 . S
C1938 C1936 1.378 . S
C1938 C1939 1.367 . S
C1939 C1938 1.367 . S
C1939 C1941 1.433 . S
C1940 C1936 1.350 . S
C1940 C1937 1.463 1_455 S
C1940 N1944 1.427 . S
C1941 H1931 0.929 . S
C1941 C1939 1.433 . S
C1941 N1944 1.384 . S
C1942 H1933 0.929 . S
C1942 C1934 1.378 . S
C1942 C1937 1.350 . S
C1943 H1930 0.929 . S
C1943 C1935 1.433 . S
C1943 N1945 1.384 . S
N1944 C1940 1.427 . S
N1944 C1941 1.384 . S
N1945 C1937 1.427 . S
N1945 C1943 1.384 . S
H1946 C1952 0.930 . S
H1947 C1956 0.930 . S
H1948 C1961 0.929 . S
H1949 C1959 0.929 . S
H1950 C1954 0.929 . S
H1951 C1960 0.929 . S
C1952 H1946 0.930 . S
C1952 C1953 1.367 . S
C1952 C1960 1.378 . S
C1953 C1952 1.367 . S
C1953 C1961 1.433 . S
C1954 H1950 0.929 . S
C1954 C1956 1.378 . S
C1954 C1958 1.350 . S
C1955 C1958 1.463 . S
C1955 C1960 1.350 . S
C1955 N1963 1.427 . S
C1956 H1947 0.930 . S
C1956 C1954 1.378 . S
C1956 C1957 1.367 . S
C1957 C1956 1.367 . S
C1957 C1959 1.433 . S
C1958 C1954 1.350 . S
C1958 C1955 1.463 . S
C1958 N1962 1.427 . S
C1959 H1949 0.929 . S
C1959 C1957 1.433 . S
C1959 N1962 1.384 . S
C1960 H1951 0.929 . S
C1960 C1952 1.378 . S
C1960 C1955 1.350 . S
C1961 H1948 0.929 . S
C1961 C1953 1.433 . S
C1961 N1963 1.384 . S
N1962 C1958 1.427 . S
N1962 C1959 1.384 . S
N1963 C1955 1.427 . S
N1963 C1961 1.384 . S
H1964 C1970 0.930 . S
H1965 C1974 0.930 . S
H1966 C1979 0.929 . S
H1967 C1977 0.929 . S
H1968 C1972 0.929 . S
H1969 C1978 0.929 . S
C1970 H1964 0.930 . S
C1970 C1971 1.367 . S
C1970 C1978 1.378 . S
C1971 C1970 1.367 . S
C1971 C1979 1.433 . S
C1972 H1968 0.929 . S
C1972 C1974 1.378 . S
C1972 C1976 1.350 . S
C1973 C1976 1.463 . S
C1973 C1978 1.350 . S
C1973 N1981 1.427 . S
C1974 H1965 0.930 . S
C1974 C1972 1.378 . S
C1974 C1975 1.367 . S
C1975 C1974 1.367 . S
C1975 C1977 1.433 . S
C1976 C1972 1.350 . S
C1976 C1973 1.463 . S
C1976 N1980 1.427 . S
C1977 H1967 0.929 . S
C1977 C1975 1.433 . S
C1977 N1980 1.384 . S
C1978 H1969 0.929 . S
C1978 C1970 1.378 . S
C1978 C1973 1.350 . S
C1979 H1966 0.929 . S
C1979 C1971 1.433 . S
C1979 N1981 1.384 . S
N1980 C1976 1.427 . S
N1980 C1977 1.384 . S
N1981 C1973 1.427 . S
N1981 C1979 1.384 . S
H1982 C1988 0.930 . S
H1983 C1992 0.930 . S
H1984 C1997 0.929 . S
H1985 C1995 0.929 . S
H1986 C1990 0.929 . S
H1987 C1996 0.929 . S
C1988 H1982 0.930 . S
C1988 C1989 1.367 . S
C1988 C1996 1.378 . S
C1989 C1988 1.367 . S
C1989 C1997 1.433 . S
C1990 H1986 0.929 . S
C1990 C1992 1.378 . S
C1990 C1994 1.350 . S
C1991 C1994 1.463 . S
C1991 C1996 1.350 . S
C1991 N1999 1.427 . S
C1992 H1983 0.930 . S
C1992 C1990 1.378 . S
C1992 C1993 1.367 . S
C1993 C1992 1.367 . S
C1993 C1995 1.433 . S
C1994 C1990 1.350 . S
C1994 C1991 1.463 . S
C1994 N1998 1.427 . S
C1995 H1985 0.929 . S
C1995 C1993 1.433 . S
C1995 N1998 1.384 . S
C1996 H1987 0.929 . S
C1996 C1988 1.378 . S
C1996 C1991 1.350 . S
C1997 H1984 0.929 . S
C1997 C1989 1.433 . S
C1997 N1999 1.384 . S
N1998 C1994 1.427 . S
N1998 C1995 1.384 . S
N1999 C1991 1.427 . S
N1999 C1997 1.384 . S
H2000 C2006 0.930 . S
H2001 C2010 0.930 . S
H2002 C2015 0.929 . S
H2003 C2013 0.929 . S
H2004 C2008 0.929 . S
H2005 C2014 0.929 . S
C2006 H2000 0.930 . S
C2006 C2007 1.367 . S
C2006 C2014 1.378 . S
C2007 C2006 1.367 . S
C2007 C2015 1.433 . S
C2008 H2004 0.929 . S
C2008 C2010 1.378 . S
C2008 C2012 1.350 . S
C2009 C2012 1.463 . S
C2009 C2014 1.350 . S
C2009 N2017 1.427 . S
C2010 H2001 0.930 . S
C2010 C2008 1.378 . S
C2010 C2011 1.367 . S
C2011 C2010 1.367 . S
C2011 C2013 1.433 . S
C2012 C2008 1.350 . S
C2012 C2009 1.463 . S
C2012 N2016 1.427 . S
C2013 H2003 0.929 . S
C2013 C2011 1.433 . S
C2013 N2016 1.384 . S
C2014 H2005 0.929 . S
C2014 C2006 1.378 . S
C2014 C2009 1.350 . S
C2015 H2002 0.929 . S
C2015 C2007 1.433 . S
C2015 N2017 1.384 . S
N2016 C2012 1.427 . S
N2016 C2013 1.384 . S
N2017 C2009 1.427 . S
N2017 C2015 1.384 . S
H2018 C2024 0.930 . S
H2019 C2028 0.930 . S
H2020 C2033 0.929 . S
H2021 C2031 0.929 . S
H2022 C2026 0.929 . S
H2023 C2032 0.929 . S
C2024 H2018 0.930 . S
C2024 C2025 1.367 . S
C2024 C2032 1.378 . S
C2025 C2024 1.367 . S
C2025 C2033 1.433 . S
C2026 H2022 0.929 . S
C2026 C2028 1.378 . S
C2026 C2030 1.350 . S
C2027 C2030 1.463 . S
C2027 C2032 1.350 . S
C2027 N2035 1.427 . S
C2028 H2019 0.930 . S
C2028 C2026 1.378 . S
C2028 C2029 1.367 . S
C2029 C2028 1.367 . S
C2029 C2031 1.433 . S
C2030 C2026 1.350 . S
C2030 C2027 1.463 . S
C2030 N2034 1.427 . S
C2031 H2021 0.929 . S
C2031 C2029 1.433 . S
C2031 N2034 1.384 . S
C2032 H2023 0.929 . S
C2032 C2024 1.378 . S
C2032 C2027 1.350 . S
C2033 H2020 0.929 . S
C2033 C2025 1.433 . S
C2033 N2035 1.384 . S
N2034 C2030 1.427 . S
N2034 C2031 1.384 . S
N2035 C2027 1.427 . S
N2035 C2033 1.384 . S
H2036 C2042 0.930 . S
H2037 C2046 0.930 . S
H2038 C2051 0.929 . S
H2039 C2049 0.929 . S
H2040 C2044 0.929 . S
H2041 C2050 0.929 . S
C2042 H2036 0.930 . S
C2042 C2043 1.367 . S
C2042 C2050 1.378 . S
C2043 C2042 1.367 . S
C2043 C2051 1.433 . S
C2044 H2040 0.929 . S
C2044 C2046 1.378 . S
C2044 C2048 1.350 . S
C2045 C2048 1.463 . S
C2045 C2050 1.350 . S
C2045 N2053 1.427 . S
C2046 H2037 0.930 . S
C2046 C2044 1.378 . S
C2046 C2047 1.367 . S
C2047 C2046 1.367 . S
C2047 C2049 1.433 . S
C2048 C2044 1.350 . S
C2048 C2045 1.463 . S
C2048 N2052 1.427 . S
C2049 H2039 0.929 . S
C2049 C2047 1.433 . S
C2049 N2052 1.384 . S
C2050 H2041 0.929 . S
C2050 C2042 1.378 . S
C2050 C2045 1.350 . S
C2051 H2038 0.929 . S
C2051 C2043 1.433 . S
C2051 N2053 1.384 . S
N2052 C2048 1.427 . S
N2052 C2049 1.384 . S
N2053 C2045 1.427 . S
N2053 C2051 1.384 . S
H2054 C2060 0.930 . S
H2055 C2064 0.930 1_554 S
H2056 C2069 0.929 . S
H2057 C2067 0.929 . S
H2058 C2062 0.929 . S
H2059 C2068 0.929 . S
C2060 H2054 0.930 . S
C2060 C2061 1.367 . S
C2060 C2068 1.378 . S
C2061 C2060 1.367 . S
C2061 C2069 1.433 . S
C2062 H2058 0.929 . S
C2062 C2064 1.378 . S
C2062 C2066 1.350 . S
C2063 C2066 1.463 . S
C2063 C2068 1.350 . S
C2063 N2071 1.427 . S
C2064 H2055 0.930 1_556 S
C2064 C2062 1.378 . S
C2064 C2065 1.367 . S
C2065 C2064 1.367 . S
C2065 C2067 1.433 . S
C2066 C2062 1.350 . S
C2066 C2063 1.463 . S
C2066 N2070 1.427 . S
C2067 H2057 0.929 . S
C2067 C2065 1.433 . S
C2067 N2070 1.384 . S
C2068 H2059 0.929 . S
C2068 C2060 1.378 . S
C2068 C2063 1.350 . S
C2069 H2056 0.929 . S
C2069 C2061 1.433 . S
C2069 N2071 1.384 . S
N2070 C2066 1.427 . S
N2070 C2067 1.384 . S
N2071 C2063 1.427 . S
N2071 C2069 1.384 . S
H2072 C2078 0.930 . S
H2073 C2082 0.930 . S
H2074 C2087 0.929 . S
H2075 C2085 0.929 . S
H2076 C2080 0.929 . S
H2077 C2086 0.929 . S
C2078 H2072 0.930 . S
C2078 C2079 1.367 . S
C2078 C2086 1.378 . S
C2079 C2078 1.367 . S
C2079 C2087 1.433 . S
C2080 H2076 0.929 . S
C2080 C2082 1.378 . S
C2080 C2084 1.350 . S
C2081 C2084 1.463 1_545 S
C2081 C2086 1.350 . S
C2081 N2089 1.427 . S
C2082 H2073 0.930 . S
C2082 C2080 1.378 . S
C2082 C2083 1.367 . S
C2083 C2082 1.367 . S
C2083 C2085 1.433 . S
C2084 C2080 1.350 . S
C2084 C2081 1.463 1_565 S
C2084 N2088 1.427 . S
C2085 H2075 0.929 . S
C2085 C2083 1.433 . S
C2085 N2088 1.384 . S
C2086 H2077 0.929 . S
C2086 C2078 1.378 . S
C2086 C2081 1.350 . S
C2087 H2074 0.929 . S
C2087 C2079 1.433 . S
C2087 N2089 1.384 . S
N2088 C2084 1.427 . S
N2088 C2085 1.384 . S
N2089 C2081 1.427 . S
N2089 C2087 1.384 . S
H2090 C2096 0.930 . S
H2091 C2100 0.930 . S
H2092 C2105 0.929 . S
H2093 C2103 0.929 . S
H2094 C2098 0.929 1_565 S
H2095 C2104 0.929 1_545 S
C2096 H2090 0.930 . S
C2096 C2097 1.367 . S
C2096 C2104 1.378 . S
C2097 C2096 1.367 . S
C2097 C2105 1.433 . S
C2098 H2094 0.929 1_545 S
C2098 C2100 1.378 . S
C2098 C2102 1.350 . S
C2099 C2102 1.463 1_465 S
C2099 C2104 1.350 . S
C2099 N2107 1.427 . S
C2100 H2091 0.930 . S
C2100 C2098 1.378 . S
C2100 C2101 1.367 . S
C2101 C2100 1.367 . S
C2101 C2103 1.433 . S
C2102 C2098 1.350 . S
C2102 C2099 1.463 1_645 S
C2102 N2106 1.427 . S
C2103 H2093 0.929 . S
C2103 C2101 1.433 . S
C2103 N2106 1.384 . S
C2104 H2095 0.929 1_565 S
C2104 C2096 1.378 . S
C2104 C2099 1.350 . S
C2105 H2092 0.929 . S
C2105 C2097 1.433 . S
C2105 N2107 1.384 . S
N2106 C2102 1.427 . S
N2106 C2103 1.384 . S
N2107 C2099 1.427 . S
N2107 C2105 1.384 . S
H2108 C2114 0.930 . S
H2109 C2118 0.930 . S
H2110 C2123 0.929 . S
H2111 C2121 0.929 . S
H2112 C2116 0.929 . S
H2113 C2122 0.929 . S
C2114 H2108 0.930 . S
C2114 C2115 1.367 1_545 S
C2114 C2122 1.378 . S
C2115 C2114 1.367 1_565 S
C2115 C2123 1.433 . S
C2116 H2112 0.929 . S
C2116 C2118 1.378 . S
C2116 C2120 1.350 1_565 S
C2117 C2120 1.463 1_565 S
C2117 C2122 1.350 1_565 S
C2117 N2125 1.427 . S
C2118 H2109 0.930 . S
C2118 C2116 1.378 . S
C2118 C2119 1.367 1_565 S
C2119 C2118 1.367 1_545 S
C2119 C2121 1.433 . S
C2120 C2116 1.350 1_545 S
C2120 C2117 1.463 1_545 S
C2120 N2124 1.427 . S
C2121 H2111 0.929 . S
C2121 C2119 1.433 . S
C2121 N2124 1.384 . S
C2122 H2113 0.929 . S
C2122 C2114 1.378 . S
C2122 C2117 1.350 1_545 S
C2123 H2110 0.929 . S
C2123 C2115 1.433 . S
C2123 N2125 1.384 . S
N2124 C2120 1.427 . S
N2124 C2121 1.384 . S
N2125 C2117 1.427 . S
N2125 C2123 1.384 . S
H2126 C2132 0.930 . S
H2127 C2136 0.930 . S
H2128 C2141 0.929 . S
H2129 C2139 0.929 . S
H2130 C2134 0.929 1_655 S
H2131 C2140 0.929 1_455 S
C2132 H2126 0.930 . S
C2132 C2133 1.367 . S
C2132 C2140 1.378 . S
C2133 C2132 1.367 . S
C2133 C2141 1.433 1_565 S
C2134 H2130 0.929 1_455 S
C2134 C2136 1.378 . S
C2134 C2138 1.350 . S
C2135 C2138 1.463 1_665 S
C2135 C2140 1.350 . S
C2135 N2143 1.427 1_565 S
C2136 H2127 0.930 . S
C2136 C2134 1.378 . S
C2136 C2137 1.367 . S
C2137 C2136 1.367 . S
C2137 C2139 1.433 1_545 S
C2138 C2134 1.350 . S
C2138 C2135 1.463 1_445 S
C2138 N2142 1.427 1_545 S
C2139 H2129 0.929 . S
C2139 C2137 1.433 1_565 S
C2139 N2142 1.384 . S
C2140 H2131 0.929 1_655 S
C2140 C2132 1.378 . S
C2140 C2135 1.350 . S
C2141 H2128 0.929 . S
C2141 C2133 1.433 1_545 S
C2141 N2143 1.384 . S
N2142 C2138 1.427 1_565 S
N2142 C2139 1.384 . S
N2143 C2135 1.427 1_545 S
N2143 C2141 1.384 . S
H2144 C2150 0.934 . S
H2145 C2154 0.930 . S
H2146 C2159 0.929 . S
H2147 C2157 0.929 . S
H2148 C2152 0.929 . S
H2149 C2158 0.929 . S
C2150 H2144 0.934 . S
C2150 C2151 1.374 . S
C2150 C2158 1.367 1_554 S
C2151 C2150 1.374 . S
C2151 C2159 1.433 . S
C2152 H2148 0.929 . S
C2152 C2154 1.378 . S
C2152 C2156 1.350 . S
C2153 C2156 1.463 1_455 S
C2153 C2158 1.350 . S
C2153 N2161 1.427 1_455 S
C2154 H2145 0.930 . S
C2154 C2152 1.378 . S
C2154 C2155 1.367 . S
C2155 C2154 1.367 . S
C2155 C2157 1.433 . S
C2156 C2152 1.350 . S
C2156 C2153 1.463 1_655 S
C2156 N2160 1.427 . S
C2157 H2147 0.929 . S
C2157 C2155 1.433 . S
C2157 N2160 1.384 . S
C2158 H2149 0.929 . S
C2158 C2150 1.367 1_556 S
C2158 C2153 1.350 . S
C2159 H2146 0.929 . S
C2159 C2151 1.433 . S
C2159 N2161 1.384 1_454 S
N2160 C2156 1.427 . S
N2160 C2157 1.384 . S
N2161 C2153 1.427 1_655 S
N2161 C2159 1.384 1_656 S
H2162 C2168 0.930 . S
H2163 C2172 0.930 . S
H2164 C2177 0.929 . S
H2165 C2175 0.929 . S
H2166 C2170 0.929 . S
H2167 C2176 0.929 . S
C2168 H2162 0.930 . S
C2168 C2169 1.367 . S
C2168 C2176 1.378 1_556 S
C2169 C2168 1.367 . S
C2169 C2177 1.433 1_556 S
C2170 H2166 0.929 . S
C2170 C2172 1.378 . S
C2170 C2174 1.350 . S
C2171 C2174 1.463 . S
C2171 C2176 1.350 . S
C2171 N2179 1.427 . S
C2172 H2163 0.930 . S
C2172 C2170 1.378 . S
C2172 C2173 1.367 . S
C2173 C2172 1.367 . S
C2173 C2175 1.433 . S
C2174 C2170 1.350 . S
C2174 C2171 1.463 . S
C2174 N2178 1.427 . S
C2175 H2165 0.929 . S
C2175 C2173 1.433 . S
C2175 N2178 1.384 . S
C2176 H2167 0.929 . S
C2176 C2168 1.378 1_554 S
C2176 C2171 1.350 . S
C2177 H2164 0.929 . S
C2177 C2169 1.433 1_554 S
C2177 N2179 1.384 . S
N2178 C2174 1.427 . S
N2178 C2175 1.384 . S
N2179 C2171 1.427 . S
N2179 C2177 1.384 . S
H2180 C2186 0.930 . S
H2181 C2190 0.930 . S
H2182 C2195 0.929 . S
H2183 C2193 0.929 . S
H2184 C2188 0.929 . S
H2185 C2194 0.929 . S
C2186 H2180 0.930 . S
C2186 C2187 1.367 . S
C2186 C2194 1.378 . S
C2187 C2186 1.367 . S
C2187 C2195 1.433 . S
C2188 H2184 0.929 . S
C2188 C2190 1.378 . S
C2188 C2192 1.350 . S
C2189 C2192 1.463 . S
C2189 C2194 1.350 . S
C2189 N2197 1.427 . S
C2190 H2181 0.930 . S
C2190 C2188 1.378 . S
C2190 C2191 1.367 . S
C2191 C2190 1.367 . S
C2191 C2193 1.433 . S
C2192 C2188 1.350 . S
C2192 C2189 1.463 . S
C2192 N2196 1.427 . S
C2193 H2183 0.929 . S
C2193 C2191 1.433 . S
C2193 N2196 1.384 . S
C2194 H2185 0.929 . S
C2194 C2186 1.378 . S
C2194 C2189 1.350 . S
C2195 H2182 0.929 . S
C2195 C2187 1.433 . S
C2195 N2197 1.384 . S
N2196 C2192 1.427 . S
N2196 C2193 1.384 . S
N2197 C2189 1.427 . S
N2197 C2195 1.384 . S
H2198 C2204 0.930 . S
H2199 C2208 0.930 . S
H2200 C2213 0.929 . S
H2201 C2211 0.929 . S
H2202 C2206 0.929 . S
H2203 C2212 0.929 . S
C2204 H2198 0.930 . S
C2204 C2205 1.367 . S
C2204 C2212 1.378 . S
C2205 C2204 1.367 . S
C2205 C2213 1.433 . S
C2206 H2202 0.929 . S
C2206 C2208 1.378 . S
C2206 C2210 1.350 . S
C2207 C2210 1.463 . S
C2207 C2212 1.350 . S
C2207 N2215 1.427 . S
C2208 H2199 0.930 . S
C2208 C2206 1.378 . S
C2208 C2209 1.367 . S
C2209 C2208 1.367 . S
C2209 C2211 1.433 . S
C2210 C2206 1.350 . S
C2210 C2207 1.463 . S
C2210 N2214 1.427 . S
C2211 H2201 0.929 . S
C2211 C2209 1.433 . S
C2211 N2214 1.384 . S
C2212 H2203 0.929 . S
C2212 C2204 1.378 . S
C2212 C2207 1.350 . S
C2213 H2200 0.929 . S
C2213 C2205 1.433 . S
C2213 N2215 1.384 . S
N2214 C2210 1.427 . S
N2214 C2211 1.384 . S
N2215 C2207 1.427 . S
N2215 C2213 1.384 . S
H2216 C2222 0.930 . S
H2217 C2226 0.930 . S
H2218 C2231 0.929 . S
H2219 C2229 0.929 . S
H2220 C2224 0.929 . S
H2221 C2230 0.926 1_655 S
C2222 H2216 0.930 . S
C2222 C2223 1.367 . S
C2222 C2230 1.378 1_655 S
C2223 C2222 1.367 . S
C2223 C2231 1.433 1_655 S
C2224 H2220 0.929 . S
C2224 C2226 1.378 . S
C2224 C2228 1.350 . S
C2225 C2228 1.463 . S
C2225 C2230 1.350 . S
C2225 N2233 1.427 . S
C2226 H2217 0.930 . S
C2226 C2224 1.378 . S
C2226 C2227 1.367 . S
C2227 C2226 1.367 . S
C2227 C2229 1.433 . S
C2228 C2224 1.350 . S
C2228 C2225 1.463 . S
C2228 N2232 1.427 . S
C2229 H2219 0.929 . S
C2229 C2227 1.433 . S
C2229 N2232 1.384 . S
C2230 H2221 0.926 1_455 S
C2230 C2222 1.378 1_455 S
C2230 C2225 1.350 . S
C2231 H2218 0.929 . S
C2231 C2223 1.433 1_455 S
C2231 N2233 1.384 . S
N2232 C2228 1.427 . S
N2232 C2229 1.384 . S
N2233 C2225 1.427 . S
N2233 C2231 1.384 . S
H2234 C2240 0.930 . S
H2235 C2244 0.930 . S
H2236 C2249 0.929 . S
H2237 C2247 0.929 . S
H2238 C2242 0.929 . S
H2239 C2248 0.929 . S
C2240 H2234 0.930 . S
C2240 C2241 1.367 . S
C2240 C2248 1.378 . S
C2241 C2240 1.367 . S
C2241 C2249 1.433 . S
C2242 H2238 0.929 . S
C2242 C2244 1.378 . S
C2242 C2246 1.350 . S
C2243 C2246 1.463 . S
C2243 C2248 1.350 . S
C2243 N2251 1.427 . S
C2244 H2235 0.930 . S
C2244 C2242 1.378 . S
C2244 C2245 1.367 . S
C2245 C2244 1.367 . S
C2245 C2247 1.433 . S
C2246 C2242 1.350 . S
C2246 C2243 1.463 . S
C2246 N2250 1.427 . S
C2247 H2237 0.929 . S
C2247 C2245 1.433 . S
C2247 N2250 1.384 . S
C2248 H2239 0.929 . S
C2248 C2240 1.378 . S
C2248 C2243 1.350 . S
C2249 H2236 0.929 . S
C2249 C2241 1.433 . S
C2249 N2251 1.384 . S
N2250 C2246 1.427 . S
N2250 C2247 1.384 . S
N2251 C2243 1.427 . S
N2251 C2249 1.384 . S
H2252 C2258 0.930 . S
H2253 C2262 0.930 . S
H2254 C2267 0.929 . S
H2255 C2265 0.929 . S
H2256 C2260 0.929 . S
H2257 C2266 0.929 . S
C2258 H2252 0.930 . S
C2258 C2259 1.367 . S
C2258 C2266 1.378 . S
C2259 C2258 1.367 . S
C2259 C2267 1.433 . S
C2260 H2256 0.929 . S
C2260 C2262 1.378 . S
C2260 C2264 1.350 . S
C2261 C2264 1.463 . S
C2261 C2266 1.350 . S
C2261 N2269 1.427 . S
C2262 H2253 0.930 . S
C2262 C2260 1.378 . S
C2262 C2263 1.367 . S
C2263 C2262 1.367 . S
C2263 C2265 1.433 . S
C2264 C2260 1.350 . S
C2264 C2261 1.463 . S
C2264 N2268 1.427 . S
C2265 H2255 0.929 . S
C2265 C2263 1.433 . S
C2265 N2268 1.384 . S
C2266 H2257 0.929 . S
C2266 C2258 1.378 . S
C2266 C2261 1.350 . S
C2267 H2254 0.929 . S
C2267 C2259 1.433 . S
C2267 N2269 1.384 . S
N2268 C2264 1.427 . S
N2268 C2265 1.384 . S
N2269 C2261 1.427 . S
N2269 C2267 1.384 . S
H2270 C2276 0.930 . S
H2271 C2280 0.930 . S
H2272 C2285 0.929 . S
H2273 C2283 0.929 . S
H2274 C2278 0.929 . S
H2275 C2284 0.929 . S
C2276 H2270 0.930 . S
C2276 C2277 1.367 . S
C2276 C2284 1.378 . S
C2277 C2276 1.367 . S
C2277 C2285 1.433 . S
C2278 H2274 0.929 . S
C2278 C2280 1.378 . S
C2278 C2282 1.350 . S
C2279 C2282 1.463 . S
C2279 C2284 1.350 . S
C2279 N2287 1.427 . S
C2280 H2271 0.930 . S
C2280 C2278 1.378 . S
C2280 C2281 1.367 . S
C2281 C2280 1.367 . S
C2281 C2283 1.433 . S
C2282 C2278 1.350 . S
C2282 C2279 1.463 . S
C2282 N2286 1.427 . S
C2283 H2273 0.929 . S
C2283 C2281 1.433 . S
C2283 N2286 1.384 . S
C2284 H2275 0.929 . S
C2284 C2276 1.378 . S
C2284 C2279 1.350 . S
C2285 H2272 0.929 . S
C2285 C2277 1.433 . S
C2285 N2287 1.384 . S
N2286 C2282 1.427 . S
N2286 C2283 1.384 . S
N2287 C2279 1.427 . S
N2287 C2285 1.384 . S
H2288 C2294 0.930 . S
H2289 C2298 0.930 . S
H2290 C2303 0.929 . S
H2291 C2301 0.929 . S
H2292 C2296 0.929 1_455 S
H2293 C2302 0.929 . S
C2294 H2288 0.930 . S
C2294 C2295 1.367 . S
C2294 C2302 1.378 . S
C2295 C2294 1.367 . S
C2295 C2303 1.433 . S
C2296 H2292 0.929 1_655 S
C2296 C2298 1.378 . S
C2296 C2300 1.350 . S
C2297 C2300 1.463 1_455 S
C2297 C2302 1.350 . S
C2297 N2305 1.427 . S
C2298 H2289 0.930 . S
C2298 C2296 1.378 . S
C2298 C2299 1.367 . S
C2299 C2298 1.367 . S
C2299 C2301 1.433 . S
C2300 C2296 1.350 . S
C2300 C2297 1.463 1_655 S
C2300 N2304 1.427 . S
C2301 H2291 0.929 . S
C2301 C2299 1.433 . S
C2301 N2304 1.384 . S
C2302 H2293 0.929 . S
C2302 C2294 1.378 . S
C2302 C2297 1.350 . S
C2303 H2290 0.929 . S
C2303 C2295 1.433 . S
C2303 N2305 1.384 . S
N2304 C2300 1.427 . S
N2304 C2301 1.384 . S
N2305 C2297 1.427 . S
N2305 C2303 1.384 . S
H2306 C2312 0.930 . S
H2307 C2316 0.930 . S
H2308 C2321 0.929 . S
H2309 C2319 0.929 . S
H2310 C2314 0.929 . S
H2311 C2320 0.929 . S
C2312 H2306 0.930 . S
C2312 C2313 1.367 . S
C2312 C2320 1.378 . S
C2313 C2312 1.367 . S
C2313 C2321 1.433 . S
C2314 H2310 0.929 . S
C2314 C2316 1.378 . S
C2314 C2318 1.350 . S
C2315 C2318 1.463 . S
C2315 C2320 1.350 . S
C2315 N2323 1.427 . S
C2316 H2307 0.930 . S
C2316 C2314 1.378 . S
C2316 C2317 1.367 . S
C2317 C2316 1.367 . S
C2317 C2319 1.433 . S
C2318 C2314 1.350 . S
C2318 C2315 1.463 . S
C2318 N2322 1.427 . S
C2319 H2309 0.929 . S
C2319 C2317 1.433 . S
C2319 N2322 1.384 . S
C2320 H2311 0.929 . S
C2320 C2312 1.378 . S
C2320 C2315 1.350 . S
C2321 H2308 0.929 . S
C2321 C2313 1.433 . S
C2321 N2323 1.384 . S
N2322 C2318 1.427 . S
N2322 C2319 1.384 . S
N2323 C2315 1.427 . S
N2323 C2321 1.384 . S
H2324 C2330 0.930 . S
H2325 C2334 0.930 . S
H2326 C2339 0.929 . S
H2327 C2337 0.929 . S
H2328 C2332 0.929 . S
H2329 C2338 0.929 . S
C2330 H2324 0.930 . S
C2330 C2331 1.367 . S
C2330 C2338 1.378 . S
C2331 C2330 1.367 . S
C2331 C2339 1.433 . S
C2332 H2328 0.929 . S
C2332 C2334 1.378 . S
C2332 C2336 1.350 . S
C2333 C2336 1.463 . S
C2333 C2338 1.350 . S
C2333 N2341 1.427 . S
C2334 H2325 0.930 . S
C2334 C2332 1.378 . S
C2334 C2335 1.367 . S
C2335 C2334 1.367 . S
C2335 C2337 1.433 . S
C2336 C2332 1.350 . S
C2336 C2333 1.463 . S
C2336 N2340 1.427 . S
C2337 H2327 0.929 . S
C2337 C2335 1.433 . S
C2337 N2340 1.384 . S
C2338 H2329 0.929 . S
C2338 C2330 1.378 . S
C2338 C2333 1.350 . S
C2339 H2326 0.929 . S
C2339 C2331 1.433 . S
C2339 N2341 1.384 . S
N2340 C2336 1.427 . S
N2340 C2337 1.384 . S
N2341 C2333 1.427 . S
N2341 C2339 1.384 . S
H2342 C2348 0.930 . S
H2343 C2352 0.930 . S
H2344 C2357 0.929 . S
H2345 C2355 0.929 . S
H2346 C2350 0.929 . S
H2347 C2356 0.929 . S
C2348 H2342 0.930 . S
C2348 C2349 1.367 . S
C2348 C2356 1.378 . S
C2349 C2348 1.367 . S
C2349 C2357 1.433 . S
C2350 H2346 0.929 . S
C2350 C2352 1.378 . S
C2350 C2354 1.350 . S
C2351 C2354 1.463 . S
C2351 C2356 1.350 . S
C2351 N2359 1.427 . S
C2352 H2343 0.930 . S
C2352 C2350 1.378 . S
C2352 C2353 1.367 . S
C2353 C2352 1.367 . S
C2353 C2355 1.433 . S
C2354 C2350 1.350 . S
C2354 C2351 1.463 . S
C2354 N2358 1.427 . S
C2355 H2345 0.929 . S
C2355 C2353 1.433 . S
C2355 N2358 1.384 . S
C2356 H2347 0.929 . S
C2356 C2348 1.378 . S
C2356 C2351 1.350 . S
C2357 H2344 0.929 . S
C2357 C2349 1.433 . S
C2357 N2359 1.384 . S
N2358 C2354 1.427 . S
N2358 C2355 1.384 . S
N2359 C2351 1.427 . S
N2359 C2357 1.384 . S
H2360 C2366 0.930 . S
H2361 C2370 0.930 . S
H2362 C2375 0.929 . S
H2363 C2373 0.929 . S
H2364 C2368 0.929 . S
H2365 C2374 0.932 . S
C2366 H2360 0.930 . S
C2366 C2367 1.367 . S
C2366 C2374 1.378 1_455 S
C2367 C2366 1.367 . S
C2367 C2375 1.433 1_455 S
C2368 H2364 0.929 . S
C2368 C2370 1.378 . S
C2368 C2372 1.350 . S
C2369 C2372 1.463 . S
C2369 C2374 1.350 . S
C2369 N2377 1.427 . S
C2370 H2361 0.930 . S
C2370 C2368 1.378 . S
C2370 C2371 1.367 . S
C2371 C2370 1.367 . S
C2371 C2373 1.433 . S
C2372 C2368 1.350 . S
C2372 C2369 1.463 . S
C2372 N2376 1.427 . S
C2373 H2363 0.929 . S
C2373 C2371 1.433 . S
C2373 N2376 1.384 . S
C2374 H2365 0.932 . S
C2374 C2366 1.378 1_655 S
C2374 C2369 1.350 . S
C2375 H2362 0.929 . S
C2375 C2367 1.433 1_655 S
C2375 N2377 1.384 . S
N2376 C2372 1.427 . S
N2376 C2373 1.384 . S
N2377 C2369 1.427 . S
N2377 C2375 1.384 . S
H2378 C2384 0.930 . S
H2379 C2388 0.930 . S
H2380 C2393 0.929 . S
H2381 C2391 0.929 . S
H2382 C2386 0.929 . S
H2383 C2392 0.929 . S
C2384 H2378 0.930 . S
C2384 C2385 1.367 1_554 S
C2384 C2392 1.378 . S
C2385 C2384 1.367 1_556 S
C2385 C2393 1.433 . S
C2386 H2382 0.929 . S
C2386 C2388 1.378 . S
C2386 C2390 1.350 . S
C2387 C2390 1.463 . S
C2387 C2392 1.350 . S
C2387 N2395 1.427 . S
C2388 H2379 0.930 . S
C2388 C2386 1.378 . S
C2388 C2389 1.367 . S
C2389 C2388 1.367 . S
C2389 C2391 1.433 . S
C2390 C2386 1.350 . S
C2390 C2387 1.463 . S
C2390 N2394 1.427 . S
C2391 H2381 0.929 . S
C2391 C2389 1.433 . S
C2391 N2394 1.384 . S
C2392 H2383 0.929 . S
C2392 C2384 1.378 . S
C2392 C2387 1.350 . S
C2393 H2380 0.929 . S
C2393 C2385 1.433 . S
C2393 N2395 1.384 1_556 S
N2394 C2390 1.427 . S
N2394 C2391 1.384 . S
N2395 C2387 1.427 . S
N2395 C2393 1.384 1_554 S
H2396 C2402 0.930 1_554 S
H2397 C2406 0.930 . S
H2398 C2411 0.929 . S
H2399 C2409 0.929 . S
H2400 C2404 0.929 . S
H2401 C2410 0.929 . S
C2402 H2396 0.930 1_556 S
C2402 C2403 1.367 1_556 S
C2402 C2410 1.378 . S
C2403 C2402 1.367 1_554 S
C2403 C2411 1.433 1_554 S
C2404 H2400 0.929 . S
C2404 C2406 1.378 . S
C2404 C2408 1.350 . S
C2405 C2408 1.463 . S
C2405 C2410 1.350 . S
C2405 N2413 1.427 . S
C2406 H2397 0.930 . S
C2406 C2404 1.378 . S
C2406 C2407 1.367 . S
C2407 C2406 1.367 . S
C2407 C2409 1.433 . S
C2408 C2404 1.350 . S
C2408 C2405 1.463 . S
C2408 N2412 1.427 . S
C2409 H2399 0.929 . S
C2409 C2407 1.433 . S
C2409 N2412 1.384 . S
C2410 H2401 0.929 . S
C2410 C2402 1.378 . S
C2410 C2405 1.350 . S
C2411 H2398 0.929 . S
C2411 C2403 1.433 1_556 S
C2411 N2413 1.384 . S
N2412 C2408 1.427 . S
N2412 C2409 1.384 . S
N2413 C2405 1.427 . S
N2413 C2411 1.384 . S
H2414 C2420 0.930 . S
H2415 C2424 0.930 . S
H2416 C2429 0.929 . S
H2417 C2427 0.929 . S
H2418 C2422 0.929 . S
H2419 C2428 0.929 . S
C2420 H2414 0.930 . S
C2420 C2421 1.367 . S
C2420 C2428 1.378 . S
C2421 C2420 1.367 . S
C2421 C2429 1.433 . S
C2422 H2418 0.929 . S
C2422 C2424 1.378 . S
C2422 C2426 1.350 . S
C2423 C2426 1.463 . S
C2423 C2428 1.350 . S
C2423 N2431 1.427 . S
C2424 H2415 0.930 . S
C2424 C2422 1.378 . S
C2424 C2425 1.367 . S
C2425 C2424 1.367 . S
C2425 C2427 1.433 . S
C2426 C2422 1.350 . S
C2426 C2423 1.463 . S
C2426 N2430 1.427 . S
C2427 H2417 0.929 . S
C2427 C2425 1.433 . S
C2427 N2430 1.384 . S
C2428 H2419 0.929 . S
C2428 C2420 1.378 . S
C2428 C2423 1.350 . S
C2429 H2416 0.929 . S
C2429 C2421 1.433 . S
C2429 N2431 1.384 . S
N2430 C2426 1.427 . S
N2430 C2427 1.384 . S
N2431 C2423 1.427 . S
N2431 C2429 1.384 . S
H2432 C2438 0.930 . S
H2433 C2442 0.930 . S
H2434 C2447 0.929 . S
H2435 C2445 0.929 . S
H2436 C2440 0.929 . S
H2437 C2446 0.929 . S
C2438 H2432 0.930 . S
C2438 C2439 1.367 . S
C2438 C2446 1.378 . S
C2439 C2438 1.367 . S
C2439 C2447 1.433 . S
C2440 H2436 0.929 . S
C2440 C2442 1.378 . S
C2440 C2444 1.350 . S
C2441 C2444 1.463 . S
C2441 C2446 1.350 . S
C2441 N2449 1.427 . S
C2442 H2433 0.930 . S
C2442 C2440 1.378 . S
C2442 C2443 1.367 . S
C2443 C2442 1.367 . S
C2443 C2445 1.433 . S
C2444 C2440 1.350 . S
C2444 C2441 1.463 . S
C2444 N2448 1.427 . S
C2445 H2435 0.929 . S
C2445 C2443 1.433 . S
C2445 N2448 1.384 . S
C2446 H2437 0.929 . S
C2446 C2438 1.378 . S
C2446 C2441 1.350 . S
C2447 H2434 0.929 . S
C2447 C2439 1.433 . S
C2447 N2449 1.384 . S
N2448 C2444 1.427 . S
N2448 C2445 1.384 . S
N2449 C2441 1.427 . S
N2449 C2447 1.384 . S
H2450 C2456 0.930 . S
H2451 C2460 0.930 . S
H2452 C2465 0.929 . S
H2453 C2463 0.929 . S
H2454 C2458 0.929 . S
H2455 C2464 0.929 . S
C2456 H2450 0.930 . S
C2456 C2457 1.367 . S
C2456 C2464 1.378 . S
C2457 C2456 1.367 . S
C2457 C2465 1.433 . S
C2458 H2454 0.929 . S
C2458 C2460 1.378 . S
C2458 C2462 1.350 . S
C2459 C2462 1.463 . S
C2459 C2464 1.350 . S
C2459 N2467 1.427 . S
C2460 H2451 0.930 . S
C2460 C2458 1.378 . S
C2460 C2461 1.367 . S
C2461 C2460 1.367 . S
C2461 C2463 1.433 . S
C2462 C2458 1.350 . S
C2462 C2459 1.463 . S
C2462 N2466 1.427 . S
C2463 H2453 0.929 . S
C2463 C2461 1.433 . S
C2463 N2466 1.384 . S
C2464 H2455 0.929 . S
C2464 C2456 1.378 . S
C2464 C2459 1.350 . S
C2465 H2452 0.929 . S
C2465 C2457 1.433 . S
C2465 N2467 1.384 . S
N2466 C2462 1.427 . S
N2466 C2463 1.384 . S
N2467 C2459 1.427 . S
N2467 C2465 1.384 . S
H2468 C2474 0.930 1_554 S
H2469 C2478 0.930 . S
H2470 C2483 0.929 . S
H2471 C2481 0.929 . S
H2472 C2476 0.929 . S
H2473 C2482 0.929 . S
C2474 H2468 0.930 1_556 S
C2474 C2475 1.367 . S
C2474 C2482 1.378 . S
C2475 C2474 1.367 . S
C2475 C2483 1.433 . S
C2476 H2472 0.929 . S
C2476 C2478 1.378 . S
C2476 C2480 1.350 . S
C2477 C2480 1.463 1_655 S
C2477 C2482 1.350 . S
C2477 N2485 1.427 . S
C2478 H2469 0.930 . S
C2478 C2476 1.378 . S
C2478 C2479 1.367 . S
C2479 C2478 1.367 . S
C2479 C2481 1.433 . S
C2480 C2476 1.350 . S
C2480 C2477 1.463 1_455 S
C2480 N2484 1.427 . S
C2481 H2471 0.929 . S
C2481 C2479 1.433 . S
C2481 N2484 1.384 . S
C2482 H2473 0.929 . S
C2482 C2474 1.378 . S
C2482 C2477 1.350 . S
C2483 H2470 0.929 . S
C2483 C2475 1.433 . S
C2483 N2485 1.384 . S
N2484 C2480 1.427 . S
N2484 C2481 1.384 . S
N2485 C2477 1.427 . S
N2485 C2483 1.384 . S
H2486 C2492 0.930 . S
H2487 C2496 0.930 . S
H2488 C2501 0.929 . S
H2489 C2499 0.929 . S
H2490 C2494 0.929 . S
H2491 C2500 0.929 . S
C2492 H2486 0.930 . S
C2492 C2493 1.367 . S
C2492 C2500 1.378 . S
C2493 C2492 1.367 . S
C2493 C2501 1.433 . S
C2494 H2490 0.929 . S
C2494 C2496 1.378 . S
C2494 C2498 1.350 . S
C2495 C2498 1.463 . S
C2495 C2500 1.350 . S
C2495 N2503 1.427 . S
C2496 H2487 0.930 . S
C2496 C2494 1.378 . S
C2496 C2497 1.367 . S
C2497 C2496 1.367 . S
C2497 C2499 1.433 . S
C2498 C2494 1.350 . S
C2498 C2495 1.463 . S
C2498 N2502 1.427 . S
C2499 H2489 0.929 . S
C2499 C2497 1.433 . S
C2499 N2502 1.384 . S
C2500 H2491 0.929 . S
C2500 C2492 1.378 . S
C2500 C2495 1.350 . S
C2501 H2488 0.929 . S
C2501 C2493 1.433 . S
C2501 N2503 1.384 . S
N2502 C2498 1.427 . S
N2502 C2499 1.384 . S
N2503 C2495 1.427 . S
N2503 C2501 1.384 . S
H2504 C2510 0.930 . S
H2505 C2514 0.930 . S
H2506 C2519 0.929 . S
H2507 C2517 0.929 . S
H2508 C2512 0.929 . S
H2509 C2518 0.929 . S
C2510 H2504 0.930 . S
C2510 C2511 1.367 . S
C2510 C2518 1.378 . S
C2511 C2510 1.367 . S
C2511 C2519 1.433 . S
C2512 H2508 0.929 . S
C2512 C2514 1.378 . S
C2512 C2516 1.350 . S
C2513 C2516 1.463 . S
C2513 C2518 1.350 . S
C2513 N2521 1.427 . S
C2514 H2505 0.930 . S
C2514 C2512 1.378 . S
C2514 C2515 1.367 . S
C2515 C2514 1.367 . S
C2515 C2517 1.433 . S
C2516 C2512 1.350 . S
C2516 C2513 1.463 . S
C2516 N2520 1.427 . S
C2517 H2507 0.929 . S
C2517 C2515 1.433 . S
C2517 N2520 1.384 . S
C2518 H2509 0.929 . S
C2518 C2510 1.378 . S
C2518 C2513 1.350 . S
C2519 H2506 0.929 . S
C2519 C2511 1.433 . S
C2519 N2521 1.384 . S
N2520 C2516 1.427 . S
N2520 C2517 1.384 . S
N2521 C2513 1.427 . S
N2521 C2519 1.384 . S
H2522 C2528 0.930 . S
H2523 C2532 0.930 . S
H2524 C2537 0.929 . S
H2525 C2535 0.929 . S
H2526 C2530 0.929 . S
H2527 C2536 0.929 . S
C2528 H2522 0.930 . S
C2528 C2529 1.367 . S
C2528 C2536 1.378 . S
C2529 C2528 1.367 . S
C2529 C2537 1.433 . S
C2530 H2526 0.929 . S
C2530 C2532 1.378 . S
C2530 C2534 1.350 . S
C2531 C2534 1.463 . S
C2531 C2536 1.350 . S
C2531 N2539 1.427 . S
C2532 H2523 0.930 . S
C2532 C2530 1.378 . S
C2532 C2533 1.367 . S
C2533 C2532 1.367 . S
C2533 C2535 1.433 . S
C2534 C2530 1.350 . S
C2534 C2531 1.463 . S
C2534 N2538 1.427 . S
C2535 H2525 0.929 . S
C2535 C2533 1.433 . S
C2535 N2538 1.384 . S
C2536 H2527 0.929 . S
C2536 C2528 1.378 . S
C2536 C2531 1.350 . S
C2537 H2524 0.929 . S
C2537 C2529 1.433 . S
C2537 N2539 1.384 . S
N2538 C2534 1.427 . S
N2538 C2535 1.384 . S
N2539 C2531 1.427 . S
N2539 C2537 1.384 . S
H2540 C2546 0.930 . S
H2541 C2550 0.930 . S
H2542 C2555 0.929 . S
H2543 C2553 0.929 . S
H2544 C2548 0.929 . S
H2545 C2554 0.929 . S
C2546 H2540 0.930 . S
C2546 C2547 1.368 1_655 S
C2546 C2554 1.377 . S
C2547 C2546 1.368 1_455 S
C2547 C2555 1.433 . S
C2548 H2544 0.929 . S
C2548 C2550 1.378 . S
C2548 C2552 1.350 . S
C2549 C2552 1.463 . S
C2549 C2554 1.350 . S
C2549 N2557 1.427 1_655 S
C2550 H2541 0.930 . S
C2550 C2548 1.378 . S
C2550 C2551 1.367 . S
C2551 C2550 1.367 . S
C2551 C2553 1.433 . S
C2552 C2548 1.350 . S
C2552 C2549 1.463 . S
C2552 N2556 1.427 . S
C2553 H2543 0.929 . S
C2553 C2551 1.433 . S
C2553 N2556 1.384 . S
C2554 H2545 0.929 . S
C2554 C2546 1.377 . S
C2554 C2549 1.350 . S
C2555 H2542 0.929 . S
C2555 C2547 1.433 . S
C2555 N2557 1.384 . S
N2556 C2552 1.427 . S
N2556 C2553 1.384 . S
N2557 C2549 1.427 1_455 S
N2557 C2555 1.384 . S
H2558 C2564 0.930 . S
H2559 C2568 0.930 . S
H2560 C2573 0.929 . S
H2561 C2571 0.929 . S
H2562 C2566 0.929 . S
H2563 C2572 0.929 . S
C2564 H2558 0.930 . S
C2564 C2565 1.367 . S
C2564 C2572 1.378 . S
C2565 C2564 1.367 . S
C2565 C2573 1.433 . S
C2566 H2562 0.929 . S
C2566 C2568 1.378 . S
C2566 C2570 1.350 . S
C2567 C2570 1.463 . S
C2567 C2572 1.350 . S
C2567 N2575 1.427 . S
C2568 H2559 0.930 . S
C2568 C2566 1.378 . S
C2568 C2569 1.367 . S
C2569 C2568 1.367 . S
C2569 C2571 1.433 . S
C2570 C2566 1.350 . S
C2570 C2567 1.463 . S
C2570 N2574 1.427 . S
C2571 H2561 0.929 . S
C2571 C2569 1.433 . S
C2571 N2574 1.384 . S
C2572 H2563 0.929 . S
C2572 C2564 1.378 . S
C2572 C2567 1.350 . S
C2573 H2560 0.929 . S
C2573 C2565 1.433 . S
C2573 N2575 1.384 . S
N2574 C2570 1.427 . S
N2574 C2571 1.384 . S
N2575 C2567 1.427 . S
N2575 C2573 1.384 . S
H2576 C2582 0.930 . S
H2577 C2586 0.930 . S
H2578 C2591 0.929 . S
H2579 C2589 0.929 . S
H2580 C2584 0.929 . S
H2581 C2590 0.929 . S
C2582 H2576 0.930 . S
C2582 C2583 1.367 . S
C2582 C2590 1.378 . S
C2583 C2582 1.367 . S
C2583 C2591 1.433 . S
C2584 H2580 0.929 . S
C2584 C2586 1.378 . S
C2584 C2588 1.350 . S
C2585 C2588 1.463 . S
C2585 C2590 1.350 . S
C2585 N2593 1.427 . S
C2586 H2577 0.930 . S
C2586 C2584 1.378 . S
C2586 C2587 1.367 . S
C2587 C2586 1.367 . S
C2587 C2589 1.433 . S
C2588 C2584 1.350 . S
C2588 C2585 1.463 . S
C2588 N2592 1.427 . S
C2589 H2579 0.929 . S
C2589 C2587 1.433 . S
C2589 N2592 1.384 . S
C2590 H2581 0.929 . S
C2590 C2582 1.378 . S
C2590 C2585 1.350 . S
C2591 H2578 0.929 . S
C2591 C2583 1.433 . S
C2591 N2593 1.384 . S
N2592 C2588 1.427 . S
N2592 C2589 1.384 . S
N2593 C2585 1.427 . S
N2593 C2591 1.384 . S
H2594 C2600 0.930 . S
H2595 C2604 0.930 . S
H2596 C2609 0.929 . S
H2597 C2607 0.929 . S
H2598 C2602 0.929 . S
H2599 C2608 0.929 . S
C2600 H2594 0.930 . S
C2600 C2601 1.367 . S
C2600 C2608 1.378 . S
C2601 C2600 1.367 . S
C2601 C2609 1.433 . S
C2602 H2598 0.929 . S
C2602 C2604 1.378 . S
C2602 C2606 1.350 . S
C2603 C2606 1.463 . S
C2603 C2608 1.350 . S
C2603 N2611 1.427 . S
C2604 H2595 0.930 . S
C2604 C2602 1.378 . S
C2604 C2605 1.367 . S
C2605 C2604 1.367 . S
C2605 C2607 1.433 . S
C2606 C2602 1.350 . S
C2606 C2603 1.463 . S
C2606 N2610 1.427 . S
C2607 H2597 0.929 . S
C2607 C2605 1.433 . S
C2607 N2610 1.384 . S
C2608 H2599 0.929 . S
C2608 C2600 1.378 . S
C2608 C2603 1.350 . S
C2609 H2596 0.929 . S
C2609 C2601 1.433 . S
C2609 N2611 1.384 . S
N2610 C2606 1.427 . S
N2610 C2607 1.384 . S
N2611 C2603 1.427 . S
N2611 C2609 1.384 . S
H2612 C2618 0.930 . S
H2613 C2622 0.930 . S
H2614 C2627 0.929 . S
H2615 C2625 0.929 . S
H2616 C2620 0.950 . S
H2617 C2626 0.929 1_655 S
C2618 H2612 0.930 . S
C2618 C2619 1.367 . S
C2618 C2626 1.378 . S
C2619 C2618 1.367 . S
C2619 C2627 1.433 . S
C2620 H2616 0.950 . S
C2620 C2622 1.361 1_455 S
C2620 C2624 1.346 1_455 S
C2621 C2624 1.463 1_455 S
C2621 C2626 1.350 . S
C2621 N2629 1.427 . S
C2622 H2613 0.930 . S
C2622 C2620 1.361 1_655 S
C2622 C2623 1.367 . S
C2623 C2622 1.367 . S
C2623 C2625 1.433 . S
C2624 C2620 1.346 1_655 S
C2624 C2621 1.463 1_655 S
C2624 N2628 1.427 . S
C2625 H2615 0.929 . S
C2625 C2623 1.433 . S
C2625 N2628 1.384 . S
C2626 H2617 0.929 1_455 S
C2626 C2618 1.378 . S
C2626 C2621 1.350 . S
C2627 H2614 0.929 . S
C2627 C2619 1.433 . S
C2627 N2629 1.384 . S
N2628 C2624 1.427 . S
N2628 C2625 1.384 . S
N2629 C2621 1.427 . S
N2629 C2627 1.384 . S
H2630 C2636 0.930 . S
H2631 C2640 0.930 . S
H2632 C2645 0.929 . S
H2633 C2643 0.929 . S
H2634 C2638 0.929 . S
H2635 C2644 0.929 . S
C2636 H2630 0.930 . S
C2636 C2637 1.367 . S
C2636 C2644 1.378 . S
C2637 C2636 1.367 . S
C2637 C2645 1.433 . S
C2638 H2634 0.929 . S
C2638 C2640 1.378 . S
C2638 C2642 1.350 . S
C2639 C2642 1.463 . S
C2639 C2644 1.350 . S
C2639 N2647 1.427 . S
C2640 H2631 0.930 . S
C2640 C2638 1.378 . S
C2640 C2641 1.367 . S
C2641 C2640 1.367 . S
C2641 C2643 1.433 . S
C2642 C2638 1.350 . S
C2642 C2639 1.463 . S
C2642 N2646 1.427 . S
C2643 H2633 0.929 . S
C2643 C2641 1.433 . S
C2643 N2646 1.384 . S
C2644 H2635 0.929 . S
C2644 C2636 1.378 . S
C2644 C2639 1.350 . S
C2645 H2632 0.929 . S
C2645 C2637 1.433 . S
C2645 N2647 1.384 . S
N2646 C2642 1.427 . S
N2646 C2643 1.384 . S
N2647 C2639 1.427 . S
N2647 C2645 1.384 . S
H2648 C2654 0.930 . S
H2649 C2658 0.930 . S
H2650 C2663 0.929 . S
H2651 C2661 0.929 . S
H2652 C2656 0.929 . S
H2653 C2662 0.929 . S
C2654 H2648 0.930 . S
C2654 C2655 1.367 . S
C2654 C2662 1.378 . S
C2655 C2654 1.367 . S
C2655 C2663 1.433 . S
C2656 H2652 0.929 . S
C2656 C2658 1.378 1_556 S
C2656 C2660 1.350 . S
C2657 C2660 1.463 . S
C2657 C2662 1.350 . S
C2657 N2665 1.427 . S
C2658 H2649 0.930 . S
C2658 C2656 1.378 1_554 S
C2658 C2659 1.367 . S
C2659 C2658 1.367 . S
C2659 C2661 1.433 . S
C2660 C2656 1.350 . S
C2660 C2657 1.463 . S
C2660 N2664 1.427 . S
C2661 H2651 0.929 . S
C2661 C2659 1.433 . S
C2661 N2664 1.384 1_554 S
C2662 H2653 0.929 . S
C2662 C2654 1.378 . S
C2662 C2657 1.350 . S
C2663 H2650 0.929 . S
C2663 C2655 1.433 . S
C2663 N2665 1.384 . S
N2664 C2660 1.427 . S
N2664 C2661 1.384 1_556 S
N2665 C2657 1.427 . S
N2665 C2663 1.384 . S
H2666 C2672 0.930 . S
H2667 C2676 0.930 . S
H2668 C2681 0.929 . S
H2669 C2679 0.929 . S
H2670 C2674 0.929 . S
H2671 C2680 0.929 . S
C2672 H2666 0.930 . S
C2672 C2673 1.367 . S
C2672 C2680 1.378 . S
C2673 C2672 1.367 . S
C2673 C2681 1.433 . S
C2674 H2670 0.929 . S
C2674 C2676 1.378 . S
C2674 C2678 1.350 . S
C2675 C2678 1.463 . S
C2675 C2680 1.350 . S
C2675 N2683 1.427 . S
C2676 H2667 0.930 . S
C2676 C2674 1.378 . S
C2676 C2677 1.367 . S
C2677 C2676 1.367 . S
C2677 C2679 1.433 . S
C2678 C2674 1.350 . S
C2678 C2675 1.463 . S
C2678 N2682 1.427 . S
C2679 H2669 0.929 . S
C2679 C2677 1.433 . S
C2679 N2682 1.384 . S
C2680 H2671 0.929 . S
C2680 C2672 1.378 . S
C2680 C2675 1.350 . S
C2681 H2668 0.929 . S
C2681 C2673 1.433 . S
C2681 N2683 1.384 . S
N2682 C2678 1.427 . S
N2682 C2679 1.384 . S
N2683 C2675 1.427 . S
N2683 C2681 1.384 . S
H2684 C2690 0.930 . S
H2685 C2694 0.930 . S
H2686 C2699 0.929 . S
H2687 C2697 0.929 . S
H2688 C2692 0.935 . S
H2689 C2698 0.929 . S
C2690 H2684 0.930 . S
C2690 C2691 1.367 . S
C2690 C2698 1.378 . S
C2691 C2690 1.367 . S
C2691 C2699 1.433 . S
C2692 H2688 0.935 . S
C2692 C2694 1.364 1_455 S
C2692 C2696 1.358 . S
C2693 C2696 1.463 . S
C2693 C2698 1.350 . S
C2693 N2701 1.427 . S
C2694 H2685 0.930 . S
C2694 C2692 1.364 1_655 S
C2694 C2695 1.367 . S
C2695 C2694 1.367 . S
C2695 C2697 1.433 . S
C2696 C2692 1.358 . S
C2696 C2693 1.463 . S
C2696 N2700 1.427 . S
C2697 H2687 0.929 . S
C2697 C2695 1.433 . S
C2697 N2700 1.384 1_655 S
C2698 H2689 0.929 . S
C2698 C2690 1.378 . S
C2698 C2693 1.350 . S
C2699 H2686 0.929 . S
C2699 C2691 1.433 . S
C2699 N2701 1.384 . S
N2700 C2696 1.427 . S
N2700 C2697 1.384 1_455 S
N2701 C2693 1.427 . S
N2701 C2699 1.384 . S
H2702 C2708 0.930 . S
H2703 C2712 0.930 . S
H2704 C2717 0.929 . S
H2705 C2715 0.929 . S
H2706 C2710 0.929 . S
H2707 C2716 0.929 . S
C2708 H2702 0.930 . S
C2708 C2709 1.367 . S
C2708 C2716 1.378 . S
C2709 C2708 1.367 . S
C2709 C2717 1.433 . S
C2710 H2706 0.929 . S
C2710 C2712 1.378 . S
C2710 C2714 1.350 . S
C2711 C2714 1.463 . S
C2711 C2716 1.350 . S
C2711 N2719 1.427 . S
C2712 H2703 0.930 . S
C2712 C2710 1.378 . S
C2712 C2713 1.367 . S
C2713 C2712 1.367 . S
C2713 C2715 1.433 . S
C2714 C2710 1.350 . S
C2714 C2711 1.463 . S
C2714 N2718 1.427 . S
C2715 H2705 0.929 . S
C2715 C2713 1.433 . S
C2715 N2718 1.384 . S
C2716 H2707 0.929 . S
C2716 C2708 1.378 . S
C2716 C2711 1.350 . S
C2717 H2704 0.929 . S
C2717 C2709 1.433 . S
C2717 N2719 1.384 . S
N2718 C2714 1.427 . S
N2718 C2715 1.384 . S
N2719 C2711 1.427 . S
N2719 C2717 1.384 . S
H2720 C2726 0.930 . S
H2721 C2730 0.930 . S
H2722 C2735 0.929 . S
H2723 C2733 0.929 . S
H2724 C2728 0.929 . S
H2725 C2734 0.929 . S
C2726 H2720 0.930 . S
C2726 C2727 1.367 . S
C2726 C2734 1.378 . S
C2727 C2726 1.367 . S
C2727 C2735 1.433 . S
C2728 H2724 0.929 . S
C2728 C2730 1.378 . S
C2728 C2732 1.350 . S
C2729 C2732 1.463 . S
C2729 C2734 1.350 . S
C2729 N2737 1.427 . S
C2730 H2721 0.930 . S
C2730 C2728 1.378 . S
C2730 C2731 1.367 . S
C2731 C2730 1.367 . S
C2731 C2733 1.433 . S
C2732 C2728 1.350 . S
C2732 C2729 1.463 . S
C2732 N2736 1.427 . S
C2733 H2723 0.929 . S
C2733 C2731 1.433 . S
C2733 N2736 1.384 . S
C2734 H2725 0.929 . S
C2734 C2726 1.378 . S
C2734 C2729 1.350 . S
C2735 H2722 0.929 . S
C2735 C2727 1.433 . S
C2735 N2737 1.384 . S
N2736 C2732 1.427 . S
N2736 C2733 1.384 . S
N2737 C2729 1.427 . S
N2737 C2735 1.384 . S
H2738 C2744 0.930 . S
H2739 C2748 0.930 . S
H2740 C2753 0.929 . S
H2741 C2751 0.929 . S
H2742 C2746 0.929 . S
H2743 C2752 0.929 . S
C2744 H2738 0.930 . S
C2744 C2745 1.367 . S
C2744 C2752 1.378 . S
C2745 C2744 1.367 . S
C2745 C2753 1.433 . S
C2746 H2742 0.929 . S
C2746 C2748 1.378 . S
C2746 C2750 1.350 . S
C2747 C2750 1.463 . S
C2747 C2752 1.350 . S
C2747 N2755 1.427 . S
C2748 H2739 0.930 . S
C2748 C2746 1.378 . S
C2748 C2749 1.367 . S
C2749 C2748 1.367 . S
C2749 C2751 1.433 . S
C2750 C2746 1.350 . S
C2750 C2747 1.463 . S
C2750 N2754 1.427 . S
C2751 H2741 0.929 . S
C2751 C2749 1.433 . S
C2751 N2754 1.384 . S
C2752 H2743 0.929 . S
C2752 C2744 1.378 . S
C2752 C2747 1.350 . S
C2753 H2740 0.929 . S
C2753 C2745 1.433 . S
C2753 N2755 1.384 . S
N2754 C2750 1.427 . S
N2754 C2751 1.384 . S
N2755 C2747 1.427 . S
N2755 C2753 1.384 . S
H2756 C2762 0.930 . S
H2757 C2766 0.930 . S
H2758 C2771 0.929 . S
H2759 C2769 0.929 . S
H2760 C2764 0.929 . S
H2761 C2770 0.929 . S
C2762 H2756 0.930 . S
C2762 C2763 1.367 . S
C2762 C2770 1.378 . S
C2763 C2762 1.367 . S
C2763 C2771 1.433 . S
C2764 H2760 0.929 . S
C2764 C2766 1.378 . S
C2764 C2768 1.350 . S
C2765 C2768 1.463 . S
C2765 C2770 1.350 . S
C2765 N2773 1.427 . S
C2766 H2757 0.930 . S
C2766 C2764 1.378 . S
C2766 C2767 1.367 . S
C2767 C2766 1.367 . S
C2767 C2769 1.433 . S
C2768 C2764 1.350 . S
C2768 C2765 1.463 . S
C2768 N2772 1.427 . S
C2769 H2759 0.929 . S
C2769 C2767 1.433 . S
C2769 N2772 1.384 . S
C2770 H2761 0.929 . S
C2770 C2762 1.378 . S
C2770 C2765 1.350 . S
C2771 H2758 0.929 . S
C2771 C2763 1.433 . S
C2771 N2773 1.384 . S
N2772 C2768 1.427 . S
N2772 C2769 1.384 . S
N2773 C2765 1.427 . S
N2773 C2771 1.384 . S
H2774 C2780 0.930 . S
H2775 C2784 0.930 . S
H2776 C2789 0.929 . S
H2777 C2787 0.929 . S
H2778 C2782 0.929 . S
H2779 C2788 0.929 . S
C2780 H2774 0.930 . S
C2780 C2781 1.367 . S
C2780 C2788 1.378 . S
C2781 C2780 1.367 . S
C2781 C2789 1.433 . S
C2782 H2778 0.929 . S
C2782 C2784 1.378 . S
C2782 C2786 1.350 . S
C2783 C2786 1.463 . S
C2783 C2788 1.350 . S
C2783 N2791 1.427 . S
C2784 H2775 0.930 . S
C2784 C2782 1.378 . S
C2784 C2785 1.367 . S
C2785 C2784 1.367 . S
C2785 C2787 1.433 . S
C2786 C2782 1.350 . S
C2786 C2783 1.463 . S
C2786 N2790 1.427 . S
C2787 H2777 0.929 . S
C2787 C2785 1.433 . S
C2787 N2790 1.384 . S
C2788 H2779 0.929 . S
C2788 C2780 1.378 . S
C2788 C2783 1.350 . S
C2789 H2776 0.929 . S
C2789 C2781 1.433 . S
C2789 N2791 1.384 . S
N2790 C2786 1.427 . S
N2790 C2787 1.384 . S
N2791 C2783 1.427 . S
N2791 C2789 1.384 . S
H2792 C2798 0.930 . S
H2793 C2802 0.930 . S
H2794 C2807 0.929 . S
H2795 C2805 0.929 . S
H2796 C2800 0.929 . S
H2797 C2806 0.929 . S
C2798 H2792 0.930 . S
C2798 C2799 1.367 . S
C2798 C2806 1.378 . S
C2799 C2798 1.367 . S
C2799 C2807 1.433 . S
C2800 H2796 0.929 . S
C2800 C2802 1.378 . S
C2800 C2804 1.350 . S
C2801 C2804 1.463 . S
C2801 C2806 1.350 . S
C2801 N2809 1.427 . S
C2802 H2793 0.930 . S
C2802 C2800 1.378 . S
C2802 C2803 1.367 . S
C2803 C2802 1.367 . S
C2803 C2805 1.433 . S
C2804 C2800 1.350 . S
C2804 C2801 1.463 . S
C2804 N2808 1.427 . S
C2805 H2795 0.929 . S
C2805 C2803 1.433 . S
C2805 N2808 1.384 . S
C2806 H2797 0.929 . S
C2806 C2798 1.378 . S
C2806 C2801 1.350 . S
C2807 H2794 0.929 . S
C2807 C2799 1.433 . S
C2807 N2809 1.384 . S
N2808 C2804 1.427 . S
N2808 C2805 1.384 . S
N2809 C2801 1.427 . S
N2809 C2807 1.384 . S
H2810 C2816 0.930 . S
H2811 C2820 0.930 . S
H2812 C2825 0.929 . S
H2813 C2823 0.929 . S
H2814 C2818 0.929 . S
H2815 C2824 0.929 . S
C2816 H2810 0.930 . S
C2816 C2817 1.367 . S
C2816 C2824 1.378 . S
C2817 C2816 1.367 . S
C2817 C2825 1.433 . S
C2818 H2814 0.929 . S
C2818 C2820 1.378 . S
C2818 C2822 1.350 . S
C2819 C2822 1.463 . S
C2819 C2824 1.350 . S
C2819 N2827 1.427 . S
C2820 H2811 0.930 . S
C2820 C2818 1.378 . S
C2820 C2821 1.367 . S
C2821 C2820 1.367 . S
C2821 C2823 1.433 . S
C2822 C2818 1.350 . S
C2822 C2819 1.463 . S
C2822 N2826 1.427 . S
C2823 H2813 0.929 . S
C2823 C2821 1.433 . S
C2823 N2826 1.384 . S
C2824 H2815 0.929 . S
C2824 C2816 1.378 . S
C2824 C2819 1.350 . S
C2825 H2812 0.929 . S
C2825 C2817 1.433 . S
C2825 N2827 1.384 . S
N2826 C2822 1.427 . S
N2826 C2823 1.384 . S
N2827 C2819 1.427 . S
N2827 C2825 1.384 . S
H2828 C2834 0.930 . S
H2829 C2838 0.930 . S
H2830 C2843 0.929 . S
H2831 C2841 0.929 . S
H2832 C2836 0.929 . S
H2833 C2842 0.929 . S
C2834 H2828 0.930 . S
C2834 C2835 1.367 . S
C2834 C2842 1.378 1_556 S
C2835 C2834 1.367 . S
C2835 C2843 1.433 1_556 S
C2836 H2832 0.929 . S
C2836 C2838 1.378 . S
C2836 C2840 1.350 . S
C2837 C2840 1.463 . S
C2837 C2842 1.350 . S
C2837 N2845 1.427 . S
C2838 H2829 0.930 . S
C2838 C2836 1.378 . S
C2838 C2839 1.367 . S
C2839 C2838 1.367 . S
C2839 C2841 1.433 . S
C2840 C2836 1.350 . S
C2840 C2837 1.463 . S
C2840 N2844 1.427 . S
C2841 H2831 0.929 . S
C2841 C2839 1.433 . S
C2841 N2844 1.384 . S
C2842 H2833 0.929 . S
C2842 C2834 1.378 1_554 S
C2842 C2837 1.350 . S
C2843 H2830 0.929 . S
C2843 C2835 1.433 1_554 S
C2843 N2845 1.384 . S
N2844 C2840 1.427 . S
N2844 C2841 1.384 . S
N2845 C2837 1.427 . S
N2845 C2843 1.384 . S
H2846 C2852 0.930 . S
H2847 C2856 0.930 . S
H2848 C2861 0.929 . S
H2849 C2859 0.929 . S
H2850 C2854 0.929 . S
H2851 C2860 0.929 . S
C2852 H2846 0.930 . S
C2852 C2853 1.367 . S
C2852 C2860 1.378 . S
C2853 C2852 1.367 . S
C2853 C2861 1.433 . S
C2854 H2850 0.929 . S
C2854 C2856 1.378 . S
C2854 C2858 1.350 . S
C2855 C2858 1.463 . S
C2855 C2860 1.350 . S
C2855 N2863 1.427 . S
C2856 H2847 0.930 . S
C2856 C2854 1.378 . S
C2856 C2857 1.367 . S
C2857 C2856 1.367 . S
C2857 C2859 1.433 . S
C2858 C2854 1.350 . S
C2858 C2855 1.463 . S
C2858 N2862 1.427 . S
C2859 H2849 0.929 . S
C2859 C2857 1.433 . S
C2859 N2862 1.384 . S
C2860 H2851 0.929 . S
C2860 C2852 1.378 . S
C2860 C2855 1.350 . S
C2861 H2848 0.929 . S
C2861 C2853 1.433 . S
C2861 N2863 1.384 . S
N2862 C2858 1.427 . S
N2862 C2859 1.384 . S
N2863 C2855 1.427 . S
N2863 C2861 1.384 . S
H2864 C2870 0.930 . S
H2865 C2874 0.930 . S
H2866 C2879 0.929 . S
H2867 C2877 0.929 . S
H2868 C2872 0.929 . S
H2869 C2878 0.929 . S
C2870 H2864 0.930 . S
C2870 C2871 1.367 . S
C2870 C2878 1.378 . S
C2871 C2870 1.367 . S
C2871 C2879 1.433 . S
C2872 H2868 0.929 . S
C2872 C2874 1.378 . S
C2872 C2876 1.350 1_545 S
C2873 C2876 1.463 . S
C2873 C2878 1.350 . S
C2873 N2881 1.427 . S
C2874 H2865 0.930 . S
C2874 C2872 1.378 . S
C2874 C2875 1.367 . S
C2875 C2874 1.367 . S
C2875 C2877 1.433 1_545 S
C2876 C2872 1.350 1_565 S
C2876 C2873 1.463 . S
C2876 N2880 1.427 . S
C2877 H2867 0.929 . S
C2877 C2875 1.433 1_565 S
C2877 N2880 1.384 . S
C2878 H2869 0.929 . S
C2878 C2870 1.378 . S
C2878 C2873 1.350 . S
C2879 H2866 0.929 . S
C2879 C2871 1.433 . S
C2879 N2881 1.384 . S
N2880 C2876 1.427 . S
N2880 C2877 1.384 . S
N2881 C2873 1.427 . S
N2881 C2879 1.384 . S
H2882 C2888 0.930 . S
H2883 C2892 0.930 . S
H2884 C2897 0.929 . S
H2885 C2895 0.929 . S
H2886 C2890 0.929 . S
H2887 C2896 0.929 . S
C2888 H2882 0.930 . S
C2888 C2889 1.367 . S
C2888 C2896 1.378 . S
C2889 C2888 1.367 . S
C2889 C2897 1.433 . S
C2890 H2886 0.929 . S
C2890 C2892 1.378 . S
C2890 C2894 1.350 . S
C2891 C2894 1.463 . S
C2891 C2896 1.350 . S
C2891 N2899 1.427 . S
C2892 H2883 0.930 . S
C2892 C2890 1.378 . S
C2892 C2893 1.367 . S
C2893 C2892 1.367 . S
C2893 C2895 1.433 . S
C2894 C2890 1.350 . S
C2894 C2891 1.463 . S
C2894 N2898 1.427 . S
C2895 H2885 0.929 . S
C2895 C2893 1.433 . S
C2895 N2898 1.384 . S
C2896 H2887 0.929 . S
C2896 C2888 1.378 . S
C2896 C2891 1.350 . S
C2897 H2884 0.929 . S
C2897 C2889 1.433 . S
C2897 N2899 1.384 . S
N2898 C2894 1.427 . S
N2898 C2895 1.384 . S
N2899 C2891 1.427 . S
N2899 C2897 1.384 . S
H2900 C2906 0.930 . S
H2901 C2910 0.930 . S
H2902 C2915 0.931 . S
H2903 C2913 0.912 1_545 S
H2904 C2908 0.929 . S
H2905 C2914 0.929 . S
C2906 H2900 0.930 . S
C2906 C2907 1.367 . S
C2906 C2914 1.378 . S
C2907 C2906 1.367 . S
C2907 C2915 1.433 . S
C2908 H2904 0.929 . S
C2908 C2910 1.378 . S
C2908 C2912 1.350 . S
C2909 C2912 1.463 1_545 S
C2909 C2914 1.350 . S
C2909 N2917 1.427 1_545 S
C2910 H2901 0.930 . S
C2910 C2908 1.378 . S
C2910 C2911 1.367 . S
C2911 C2910 1.367 . S
C2911 C2913 1.473 . S
C2912 C2908 1.350 . S
C2912 C2909 1.463 1_565 S
C2912 N2916 1.427 1_565 S
C2913 H2903 0.912 1_565 S
C2913 C2911 1.473 . S
C2913 N2916 1.363 1_565 S
C2914 H2905 0.929 . S
C2914 C2906 1.378 . S
C2914 C2909 1.350 . S
C2915 H2902 0.931 . S
C2915 C2907 1.433 . S
C2915 N2917 1.384 1_545 S
N2916 C2912 1.427 1_545 S
N2916 C2913 1.363 1_545 S
N2917 C2909 1.427 1_565 S
N2917 C2915 1.384 1_565 S
H2918 C2924 0.930 . S
H2919 C2928 0.930 . S
H2920 C2933 0.929 . S
H2921 C2931 0.929 . S
H2922 C2926 0.929 . S
H2923 C2932 0.929 . S
C2924 H2918 0.930 . S
C2924 C2925 1.367 . S
C2924 C2932 1.378 . S
C2925 C2924 1.367 . S
C2925 C2933 1.433 . S
C2926 H2922 0.929 . S
C2926 C2928 1.378 . S
C2926 C2930 1.350 1_556 S
C2927 C2930 1.463 . S
C2927 C2932 1.350 . S
C2927 N2935 1.427 . S
C2928 H2919 0.930 . S
C2928 C2926 1.378 . S
C2928 C2929 1.367 . S
C2929 C2928 1.367 . S
C2929 C2931 1.433 . S
C2930 C2926 1.350 1_554 S
C2930 C2927 1.463 . S
C2930 N2934 1.427 . S
C2931 H2921 0.929 . S
C2931 C2929 1.433 . S
C2931 N2934 1.384 1_556 S
C2932 H2923 0.929 . S
C2932 C2924 1.378 . S
C2932 C2927 1.350 . S
C2933 H2920 0.929 . S
C2933 C2925 1.433 . S
C2933 N2935 1.384 . S
N2934 C2930 1.427 . S
N2934 C2931 1.384 1_554 S
N2935 C2927 1.427 . S
N2935 C2933 1.384 . S
H2936 C2942 0.930 . S
H2937 C2946 0.930 . S
H2938 C2951 0.929 . S
H2939 C2949 0.929 . S
H2940 C2944 0.929 1_565 S
H2941 C2950 0.929 . S
C2942 H2936 0.930 . S
C2942 C2943 1.367 1_545 S
C2942 C2950 1.378 . S
C2943 C2942 1.367 1_565 S
C2943 C2951 1.433 . S
C2944 H2940 0.929 1_545 S
C2944 C2946 1.378 . S
C2944 C2948 1.350 1_556 S
C2945 C2948 1.463 . S
C2945 C2950 1.350 . S
C2945 N2953 1.427 1_545 S
C2946 H2937 0.930 . S
C2946 C2944 1.378 . S
C2946 C2947 1.367 . S
C2947 C2946 1.367 . S
C2947 C2949 1.433 . S
C2948 C2944 1.350 1_554 S
C2948 C2945 1.463 . S
C2948 N2952 1.427 . S
C2949 H2939 0.929 . S
C2949 C2947 1.433 . S
C2949 N2952 1.384 1_556 S
C2950 H2941 0.929 . S
C2950 C2942 1.378 . S
C2950 C2945 1.350 . S
C2951 H2938 0.929 . S
C2951 C2943 1.433 . S
C2951 N2953 1.384 . S
N2952 C2948 1.427 . S
N2952 C2949 1.384 1_554 S
N2953 C2945 1.427 1_565 S
N2953 C2951 1.384 . S
H2954 C2960 0.930 . S
H2955 C2964 0.930 . S
H2956 C2969 0.929 . S
H2957 C2967 0.929 . S
H2958 C2962 0.929 . S
H2959 C2968 0.929 . S
C2960 H2954 0.930 . S
C2960 C2961 1.367 . S
C2960 C2968 1.378 . S
C2961 C2960 1.367 . S
C2961 C2969 1.433 . S
C2962 H2958 0.929 . S
C2962 C2964 1.378 . S
C2962 C2966 1.350 . S
C2963 C2966 1.463 . S
C2963 C2968 1.350 . S
C2963 N2971 1.427 . S
C2964 H2955 0.930 . S
C2964 C2962 1.378 . S
C2964 C2965 1.367 . S
C2965 C2964 1.367 . S
C2965 C2967 1.433 . S
C2966 C2962 1.350 . S
C2966 C2963 1.463 . S
C2966 N2970 1.427 . S
C2967 H2957 0.929 . S
C2967 C2965 1.433 . S
C2967 N2970 1.384 . S
C2968 H2959 0.929 . S
C2968 C2960 1.378 . S
C2968 C2963 1.350 . S
C2969 H2956 0.929 . S
C2969 C2961 1.433 . S
C2969 N2971 1.384 . S
N2970 C2966 1.427 . S
N2970 C2967 1.384 . S
N2971 C2963 1.427 . S
N2971 C2969 1.384 . S
H2972 C2978 0.930 . S
H2973 C2982 0.930 . S
H2974 C2987 0.919 1_545 S
H2975 C2985 0.920 1_565 S
H2976 C2980 0.929 . S
H2977 C2986 0.929 . S
C2978 H2972 0.930 . S
C2978 C2979 1.367 . S
C2978 C2986 1.378 . S
C2979 C2978 1.367 . S
C2979 C2987 1.433 . S
C2980 H2976 0.929 . S
C2980 C2982 1.378 . S
C2980 C2984 1.350 . S
C2981 C2984 1.463 1_565 S
C2981 C2986 1.350 . S
C2981 N2989 1.427 1_565 S
C2982 H2973 0.930 . S
C2982 C2980 1.378 . S
C2982 C2983 1.367 . S
C2983 C2982 1.367 . S
C2983 C2985 1.453 . S
C2984 C2980 1.350 . S
C2984 C2981 1.463 1_545 S
C2984 N2988 1.427 1_545 S
C2985 H2975 0.920 1_545 S
C2985 C2983 1.453 . S
C2985 N2988 1.373 1_545 S
C2986 H2977 0.929 . S
C2986 C2978 1.378 . S
C2986 C2981 1.350 . S
C2987 H2974 0.919 1_565 S
C2987 C2979 1.433 . S
C2987 N2989 1.384 1_565 S
N2988 C2984 1.427 1_565 S
N2988 C2985 1.373 1_565 S
N2989 C2981 1.427 1_545 S
N2989 C2987 1.384 1_545 S
H2990 C2996 0.930 . S
H2991 C3000 0.930 . S
H2992 C3005 0.929 . S
H2993 C3003 0.929 . S
H2994 C2998 0.929 . S
H2995 C3004 0.929 . S
C2996 H2990 0.930 . S
C2996 C2997 1.367 . S
C2996 C3004 1.378 . S
C2997 C2996 1.367 . S
C2997 C3005 1.433 . S
C2998 H2994 0.929 . S
C2998 C3000 1.378 . S
C2998 C3002 1.350 . S
C2999 C3002 1.463 . S
C2999 C3004 1.350 . S
C2999 N3007 1.427 . S
C3000 H2991 0.930 . S
C3000 C2998 1.378 . S
C3000 C3001 1.367 . S
C3001 C3000 1.367 . S
C3001 C3003 1.433 . S
C3002 C2998 1.350 . S
C3002 C2999 1.463 . S
C3002 N3006 1.427 . S
C3003 H2993 0.929 . S
C3003 C3001 1.433 . S
C3003 N3006 1.384 . S
C3004 H2995 0.929 . S
C3004 C2996 1.378 . S
C3004 C2999 1.350 . S
C3005 H2992 0.929 . S
C3005 C2997 1.433 . S
C3005 N3007 1.384 . S
N3006 C3002 1.427 . S
N3006 C3003 1.384 . S
N3007 C2999 1.427 . S
N3007 C3005 1.384 . S
C1287 C10 0.270 . S
C1291 C175 0.240 . S
C1305 C215 0.355 . S
C1309 C55 0.378 . S
C1323 C90 0.272 . S
C1327 C255 0.214 . S
C1341 C295 0.239 . S
C1345 C130 0.345 . S
C1359 C339 0.251 . S
C1363 C486 0.279 . S
C1377 C366 0.421 . S
C1381 C526 0.342 . S
C1395 C566 0.198 . S
C1399 C419 0.280 . S
C1413 C459 0.295 . S
C1417 C606 0.272 . S
C1431 C815 0.274 . S
C1435 C650 0.256 . S
C1449 C695 0.398 . S
C1453 C855 0.369 . S
C1467 C730 0.326 . S
C1471 C895 0.181 . S
C1485 C770 0.313 . S
C1489 C935 0.238 . S
C1503 C979 0.235 . S
C1507 C1126 0.248 . S
C1521 C1166 0.368 . S
C1525 C1006 0.394 . S
C1539 C1059 0.310 . S
C1543 C1206 0.213 . S
C1557 C1246 0.274 . S
C1561 C1099 0.299 . S
C1575 C849 1.933 . S
C1579 C18 1.911 . S
C1593 C889 1.349 . S
C1597 C49 1.334 . S
C1611 C929 1.873 . S
C1615 C98 1.845 . S
C1629 C138 1.406 . S
C1633 C809 1.414 . S
C1647 C169 1.411 . S
C1651 C778 1.399 . S
C1665 C658 1.926 . S
C1669 C209 1.947 . S
C1683 C249 1.339 . S
C1687 C689 1.350 . S
C1701 C289 1.874 . S
C1705 C738 1.844 . S
C1719 C329 1.909 . S
C1723 C1178 1.931 . S
C1737 C1218 1.348 . S
C1741 C378 1.334 . S
C1755 C1258 1.886 . S
C1759 C409 1.859 . S
C1773 C449 1.413 . S
C1777 C1138 1.420 . S
C1791 C498 1.408 . S
C1795 C1089 1.399 . S
C1809 C538 1.931 . S
C1813 C969 1.911 . S
C1827 C578 1.348 . S
C1831 C1018 1.334 . S
C1845 C618 1.876 1_554 S
C1849 C1049 1.847 . S
C1863 C338 0.726 . S
C1867 C9 0.726 . S
C1881 C58 0.741 . S
C1885 C1009 0.741 . S
C1899 C418 0.793 . S
C1903 C89 0.793 . S
C1917 C129 0.748 . S
C1921 C1098 0.748 . S
C1935 C489 0.513 . S
C1939 C178 0.513 . S
C1953 C1169 0.721 . S
C1957 C218 0.721 . S
C1971 C258 0.476 . S
C1975 C569 0.476 . S
C1989 C298 0.588 . S
C1993 C1249 0.588 . S
C2007 C698 0.701 . S
C2011 C369 0.701 . S
C2025 C769 0.747 . S
C2029 C458 0.747 . S
C2043 C529 0.724 . S
C2047 C858 0.724 . S
C2061 C938 0.612 . S
C2065 C609 0.612 . S
C2079 C978 0.699 . S
C2083 C649 0.699 . S
C2097 C1058 0.829 . S
C2101 C729 0.829 . S
C2115 C1129 0.535 . S
C2119 C818 0.535 . S
C2133 C898 0.493 . S
C2137 C1209 0.493 . S
C2151 C19 2.194 . S
C2155 C490 2.224 . S
C2169 C1170 1.354 . S
C2173 C46 1.327 . S
C2187 C570 2.217 . S
C2191 C99 2.194 . S
C2205 C139 1.916 . S
C2209 C1250 1.932 . S
C2223 C335 0.747 . S
C2227 C166 0.763 . S
C2241 C1010 1.637 . S
C2245 C206 1.611 . S
C2259 C415 0.825 . S
C2263 C246 0.826 . S
C2277 C1095 0.990 . S
C2281 C286 0.977 . S
C2295 C179 2.221 . S
C2299 C330 2.192 . S
C2313 C859 1.356 . S
C2317 C375 1.320 . S
C2331 C259 2.217 1_556 S
C2335 C410 2.200 . S
C2349 C450 1.912 . S
C2353 C939 1.934 . S
C2367 C6 0.746 . S
C2371 C495 0.763 . S
C2385 C699 1.640 . S
C2389 C535 1.611 . S
C2403 C575 0.807 . S
C2407 C86 0.827 . S
C2421 C615 0.970 . S
C2425 C766 0.977 . S
C2439 C1130 2.224 . S
C2443 C659 2.200 . S
C2457 C530 1.354 . S
C2461 C686 1.327 . S
C2475 C739 2.193 1_556 S
C2479 C1210 2.220 . S
C2493 C610 1.934 . S
C2497 C779 1.911 . S
C2511 C806 0.756 . S
C2515 C975 0.758 . S
C2529 C846 1.611 . S
C2533 C370 1.641 . S
C2547 C1055 0.822 . S
C2551 C886 0.804 . S
C2565 C455 0.977 . S
C2569 C926 0.969 . S
C2583 C970 2.192 . S
C2587 C819 2.220 1_556 S
C2601 C1015 1.328 . S
C2605 C219 1.354 . S
C2619 C1050 2.200 . S
C2623 C899 2.217 . S
C2637 C1090 1.912 . S
C2641 C299 1.934 . S
C2655 C646 0.754 . S
C2659 C1135 0.738 . S
C2673 C59 1.641 . S
C2677 C1175 1.611 . S
C2691 C1215 0.826 . S
C2695 C726 0.813 . S
C2709 C126 0.982 . S
C2713 C1255 0.964 . S
C2727 C170 2.335 . S
C2731 C15 2.301 . S
C2745 C210 3.136 1_554 S
C2749 C50 3.147 . S
C2763 C95 2.327 . S
C2767 C250 2.377 . S
C2781 C290 2.294 . S
C2785 C135 2.276 . S
C2799 C499 2.333 . S
C2803 C326 2.297 . S
C2817 C379 3.146 . S
C2821 C539 3.136 . S
C2835 C406 2.328 . S
C2839 C579 2.375 . S
C2853 C619 2.294 . S
C2857 C446 2.272 . S
C2871 C655 2.296 . S
C2875 C810 2.337 . S
C2889 C850 3.136 . S
C2893 C690 3.147 . S
C2907 C735 2.331 . S
C2911 C890 2.378 . S
C2925 C775 2.270 . S
C2929 C930 2.296 . S
C2943 C1139 2.333 . S
C2947 C966 2.297 . S
C2961 C1179 3.138 . S
C2965 C1019 3.149 . S
C2979 C1046 2.331 . S
C2983 C1219 2.378 . S
C2997 C1259 2.295 . S
C3001 C1086 2.277 . S
