# Generated by pormake.
# Topology uov, (4)-cn, num edge types: 1
# Building blocks:
#     Node 0, Type 0, BuildingBlock: QUQFOY_clean_sbu_1, # of connection points: 4
#     Node 1, Type 0, BuildingBlock: QUQFOY_clean_sbu_1, # of connection points: 4
#     Node 2, Type 0, BuildingBlock: QUQFOY_clean_sbu_1, # of connection points: 4
#     Node 3, Type 0, BuildingBlock: QUQFOY_clean_sbu_1, # of connection points: 4
#     Node 4, Type 0, BuildingBlock: QUQFOY_clean_sbu_1, # of connection points: 4
#     Node 5, Type 0, BuildingBlock: QUQFOY_clean_sbu_1, # of connection points: 4
#     Node 6, Type 0, BuildingBlock: QUQFOY_clean_sbu_1, # of connection points: 4
#     Node 7, Type 0, BuildingBlock: QUQFOY_clean_sbu_1, # of connection points: 4
#     Edge 8, Type (0, 0), BuildingBlock: UVAHIK_clean_linker_0, # of connection points: 2
#     Edge 9, Type (0, 0), BuildingBlock: UVAHIK_clean_linker_0, # of connection points: 2
#     Edge 10, Type (0, 0), BuildingBlock: UVAHIK_clean_linker_0, # of connection points: 2
#     Edge 11, Type (0, 0), BuildingBlock: UVAHIK_clean_linker_0, # of connection points: 2
#     Edge 12, Type (0, 0), BuildingBlock: UVAHIK_clean_linker_0, # of connection points: 2
#     Edge 13, Type (0, 0), BuildingBlock: UVAHIK_clean_linker_0, # of connection points: 2
#     Edge 14, Type (0, 0), BuildingBlock: UVAHIK_clean_linker_0, # of connection points: 2
#     Edge 15, Type (0, 0), BuildingBlock: UVAHIK_clean_linker_0, # of connection points: 2
#     Edge 16, Type (0, 0), BuildingBlock: UVAHIK_clean_linker_0, # of connection points: 2
#     Edge 17, Type (0, 0), BuildingBlock: UVAHIK_clean_linker_0, # of connection points: 2
#     Edge 18, Type (0, 0), BuildingBlock: UVAHIK_clean_linker_0, # of connection points: 2
#     Edge 19, Type (0, 0), BuildingBlock: UVAHIK_clean_linker_0, # of connection points: 2
#     Edge 20, Type (0, 0), BuildingBlock: UVAHIK_clean_linker_0, # of connection points: 2
#     Edge 21, Type (0, 0), BuildingBlock: UVAHIK_clean_linker_0, # of connection points: 2
#     Edge 22, Type (0, 0), BuildingBlock: UVAHIK_clean_linker_0, # of connection points: 2
#     Edge 23, Type (0, 0), BuildingBlock: UVAHIK_clean_linker_0, # of connection points: 2
# Relax obj value: 0.032
# Max RMSD: 0.049
# Mean RMSD: 0.049
data_MOF--net-uov--node1-QUQFOY_clean_sbu_1--edge1-UVAHIK_clean_linker_0
_symmetry_space_group_name_H-M    P1
_symmetry_Int_Tables_number       1
_symmetry_cell_setting            triclinic
loop_
_symmetry_equiv_pos_as_xyz
'x, y, z'
_cell_length_a     40.766128
_cell_length_b     40.730365
_cell_length_c     57.556478
_cell_angle_alpha  90.007306
_cell_angle_beta   89.997375
_cell_angle_gamma 90.015497
loop_
_atom_site_label
_atom_site_type_symbol
_atom_site_fract_x
_atom_site_fract_y
_atom_site_fract_z
_atom_type_partial_charge
O0 O 0.00822 0.26575 0.57257 0.0
Cd1 Cd 0.05398 0.28268 0.58098 0.0
Cd2 Cd 0.05364 0.22607 0.60728 0.0
O3 O 0.00467 0.22451 0.59725 0.0
O4 O 0.05298 0.32864 0.56964 0.0
O5 O 0.05763 0.31598 0.60684 0.0
C6 C 0.05461 0.33817 0.59095 0.0
C7 C 0.06891 0.21011 0.64481 0.0
C8 C 0.99187 0.24253 0.58163 0.0
C9 C 0.10162 0.23183 0.56682 0.0
O10 O 0.08874 0.21447 0.58274 0.0
O11 O 0.09237 0.26119 0.56346 0.0
O12 O 0.05872 0.18919 0.62967 0.0
O13 O 0.06897 0.24076 0.63903 0.0
O14 O 0.26499 0.97465 0.42756 0.0
Cd15 Cd 0.28283 0.93049 0.41614 0.0
Cd16 Cd 0.22374 0.93042 0.39398 0.0
O17 O 0.22179 0.979 0.40482 0.0
O18 O 0.32907 0.93333 0.42658 0.0
O19 O 0.31525 0.93106 0.38952 0.0
C20 C 0.3378 0.93442 0.40511 0.0
C21 C 0.20739 0.91572 0.3565 0.0
C22 C 0.2407 0.99108 0.42018 0.0
C23 C 0.23505 0.8809 0.43247 0.0
O24 O 0.21491 0.89479 0.41876 0.0
O25 O 0.26488 0.88986 0.43313 0.0
O26 O 0.18658 0.92572 0.37178 0.0
O27 O 0.23805 0.91519 0.36218 0.0
O28 O 0.98215 0.73392 0.57242 0.0
Cd29 Cd 0.93657 0.71918 0.58345 0.0
Cd30 Cd 0.9439 0.77423 0.60859 0.0
O31 O 0.99289 0.77071 0.59939 0.0
O32 O 0.93513 0.67337 0.57186 0.0
O33 O 0.93494 0.68563 0.60926 0.0
C34 C 0.93624 0.6636 0.59313 0.0
C35 C 0.9278 0.79009 0.6459 0.0
C36 C 0.00204 0.75367 0.58205 0.0
C37 C 0.89463 0.77355 0.5689 0.0
O38 O 0.91216 0.78999 0.58299 0.0
O39 O 0.89764 0.74256 0.56777 0.0
O40 O 0.94102 0.81054 0.63162 0.0
O41 O 0.92522 0.75982 0.63943 0.0
O42 O 0.73568 0.01547 0.41931 0.0
Cd43 Cd 0.71509 0.06071 0.41377 0.0
Cd44 Cd 0.77471 0.07076 0.39123 0.0
O45 O 0.78204 0.02197 0.4001 0.0
O46 O 0.66955 0.05392 0.42486 0.0
O47 O 0.68118 0.06548 0.38829 0.0
C48 C 0.65955 0.05844 0.40391 0.0
C49 C 0.79195 0.08941 0.35474 0.0
C50 C 0.76296 0.00422 0.41227 0.0
C51 C 0.75916 0.11225 0.43359 0.0
O52 O 0.77919 0.10492 0.4175 0.0
O53 O 0.73152 0.09801 0.43502 0.0
O54 O 0.81256 0.08194 0.37084 0.0
O55 O 0.76112 0.08533 0.35907 0.0
O56 O 0.98476 0.27531 0.07074 0.0
Cd57 Cd 0.93929 0.29105 0.08102 0.0
Cd58 Cd 0.93961 0.23299 0.10369 0.0
O59 O 0.98837 0.23167 0.09325 0.0
O60 O 0.93939 0.33906 0.07487 0.0
O61 O 0.93736 0.31795 0.11031 0.0
C62 C 0.93936 0.34348 0.09705 0.0
C63 C 0.92425 0.21728 0.14121 0.0
C64 C 0.00107 0.25108 0.07844 0.0
C65 C 0.89136 0.2421 0.0641 0.0
O66 O 0.90456 0.22295 0.0788 0.0
O67 O 0.90029 0.27191 0.06268 0.0
O68 O 0.93396 0.19613 0.12606 0.0
O69 O 0.92466 0.24792 0.1354 0.0
O70 O 0.26302 0.01323 0.92401 0.0
Cd71 Cd 0.28298 0.05816 0.91659 0.0
Cd72 Cd 0.22247 0.06356 0.89332 0.0
O73 O 0.21648 0.01545 0.90452 0.0
O74 O 0.32822 0.05184 0.92841 0.0
O75 O 0.31747 0.06038 0.89131 0.0
C76 C 0.33863 0.05379 0.90735 0.0
C77 C 0.20433 0.07927 0.85638 0.0
C78 C 0.23638 -4e-05 0.91754 0.0
C79 C 0.23758 0.11029 0.93329 0.0
O80 O 0.21788 0.10025 0.91775 0.0
O81 O 0.26565 0.09725 0.93579 0.0
O82 O 0.1841 0.07228 0.87283 0.0
O83 O 0.2353 0.07594 0.86055 0.0
O84 O 0.01914 0.72451 0.07268 0.0
Cd85 Cd 0.06389 0.71195 0.08626 0.0
Cd86 Cd 0.05526 0.76673 0.10978 0.0
O87 O 0.00714 0.76259 0.09846 0.0
O88 O 0.06833 0.66403 0.08059 0.0
O89 O 0.06271 0.68562 0.11572 0.0
C90 C 0.06453 0.65987 0.10265 0.0
C91 C 0.06879 0.77923 0.14815 0.0
C92 C 0.99885 0.74482 0.08126 0.0
C93 C 0.10703 0.76629 0.07237 0.0
O94 O 0.08885 0.7833 0.08569 0.0
O95 O 0.10361 0.73529 0.07144 0.0
O96 O 0.05535 0.80067 0.13471 0.0
O97 O 0.07321 0.74993 0.14013 0.0
O98 O 0.73562 0.98337 0.92887 0.0
Cd99 Cd 0.7182 0.93842 0.91878 0.0
Cd100 Cd 0.7754 0.93874 0.89357 0.0
O101 O 0.77754 0.98725 0.9048 0.0
O102 O 0.67166 0.93926 0.92868 0.0
O103 O 0.68664 0.93652 0.89179 0.0
C104 C 0.6635 0.93863 0.90706 0.0
C105 C 0.79225 0.92453 0.85605 0.0
C106 C 0.75942 -0.00035 0.92052 0.0
C107 C 0.76711 0.88873 0.93254 0.0
O108 O 0.78537 0.90208 0.91735 0.0
O109 O 0.73791 0.89856 0.93562 0.0
O110 O 0.81287 0.93365 0.87171 0.0
O111 O 0.76143 0.92516 0.86127 0.0
C112 C 0.94747 0.60652 0.57988 0.0
C113 C 0.94336 0.62873 0.59835 0.0
C114 C 0.96076 0.57551 0.58378 0.0
C115 C 0.97552 0.50914 0.62294 0.0
H116 H 0.05476 0.49626 0.58669 0.0
C117 C 0.04243 0.38346 0.61937 0.0
C118 C 0.05012 0.37328 0.59667 0.0
C119 C 0.03329 0.41608 0.62375 0.0
C120 C 0.03267 0.49938 0.59692 0.0
H121 H 0.94764 0.63482 0.63568 0.0
H122 H 0.97029 0.57972 0.64252 0.0
H123 H 0.0276 0.54955 0.58648 0.0
H124 H 0.05588 0.3896 0.56103 0.0
H125 H 0.03991 0.44583 0.56852 0.0
H126 H 0.97948 0.45835 0.6323 0.0
C127 C 0.96354 0.58686 0.62504 0.0
C128 C 0.01724 0.5299 0.59685 0.0
C129 C 0.95053 0.61826 0.6211 0.0
C130 C 0.05009 0.39661 0.57872 0.0
C131 C 0.04111 0.42902 0.58308 0.0
C132 C 0.99079 0.4783 0.62279 0.0
C133 C 0.96982 0.5658 0.60625 0.0
C134 C 0.98808 0.53478 0.60931 0.0
C135 C 0.03196 0.43908 0.60553 0.0
C136 C 0.01898 0.47283 0.60915 0.0
H137 H 0.94203 0.61363 0.56216 0.0
H138 H 0.96501 0.55943 0.56908 0.0
H139 H 0.95302 0.51245 0.63268 0.0
H140 H 0.04216 0.366 0.63356 0.0
H141 H 0.02668 0.42313 0.64128 0.0
C142 C 0.60146 0.05209 0.4162 0.0
C143 C 0.62459 0.05344 0.39817 0.0
C144 C 0.56911 0.04319 0.4117 0.0
C145 C 0.51993 0.99416 0.37166 0.0
H146 H 0.44891 0.03051 0.40837 0.0
C147 C 0.38107 0.95051 0.376 0.0
C148 C 0.37194 0.9433 0.39903 0.0
C149 C 0.41176 0.96461 0.37124 0.0
C150 C 0.46846 0.02033 0.39784 0.0
H151 H 0.63172 0.04766 0.36107 0.0
H152 H 0.57465 0.03194 0.35313 0.0
H153 H 0.50194 0.05817 0.40775 0.0
H154 H 0.38869 0.94315 0.43486 0.0
H155 H 0.44161 0.96796 0.42653 0.0
H156 H 0.48611 0.95583 0.36226 0.0
C157 C 0.58181 0.0377 0.37078 0.0
C158 C 0.49881 0.03605 0.39753 0.0
C159 C 0.61435 0.04693 0.3753 0.0
C160 C 0.39475 0.94861 0.41695 0.0
C161 C 0.42503 0.96293 0.41224 0.0
C162 C 0.48928 0.97854 0.3718 0.0
C163 C 0.55898 0.03529 0.38904 0.0
C164 C 0.52529 0.02243 0.38524 0.0
C165 C 0.43341 0.97192 0.38949 0.0
C166 C 0.46377 0.99091 0.38562 0.0
H167 H 0.60855 0.05699 0.43401 0.0
H168 H 0.55237 0.04111 0.42624 0.0
H169 H 0.5399 0.98297 0.3621 0.0
H170 H 0.36401 0.94669 0.36183 0.0
H171 H 0.4179 0.97128 0.35355 0.0
C172 C 0.96247 0.38058 0.12757 0.0
C173 C 0.94527 0.3766 0.1066 0.0
C174 C 0.97411 0.41157 0.13413 0.0
C175 C 0.96624 0.50034 0.12441 0.0
H176 H 0.06122 0.5032 0.12853 0.0
C177 C 0.06828 0.59889 0.09945 0.0
C178 C 0.05796 0.6267 0.11189 0.0
C179 C 0.05652 0.56775 0.10529 0.0
C180 C 0.03467 0.5027 0.12778 0.0
H181 H 0.92468 0.40205 0.07693 0.0
H182 H 0.944 0.45627 0.0888 0.0
H183 H 0.03301 0.4501 0.12735 0.0
H184 H 0.02849 0.64362 0.14087 0.0
H185 H 0.0072 0.58908 0.15067 0.0
H186 H 0.96795 0.55292 0.12412 0.0
C187 C 0.94885 0.43545 0.1 0.0
C188 C 0.01854 0.4724 0.12722 0.0
C189 C 0.93787 0.40443 0.09319 0.0
C190 C 0.03706 0.62257 0.1311 0.0
C191 C 0.02471 0.59146 0.13661 0.0
C192 C 0.98232 0.53063 0.12543 0.0
C193 C 0.968 0.43914 0.12012 0.0
C194 C 0.98425 0.47097 0.12485 0.0
C195 C 0.03371 0.56393 0.12337 0.0
C196 C 0.01674 0.53206 0.12645 0.0
H197 H 0.96874 0.35949 0.13814 0.0
H198 H 0.98878 0.41386 0.14975 0.0
H199 H 0.9398 0.49984 0.12255 0.0
H200 H 0.08432 0.60139 0.08454 0.0
H201 H 0.06367 0.54695 0.0947 0.0
C202 C 0.38444 0.04334 0.87886 0.0
C203 C 0.37302 0.04505 0.90192 0.0
C204 C 0.41552 0.03021 0.87401 0.0
C205 C 0.47144 0.96962 0.89693 0.0
H206 H 0.54384 0.01595 0.86808 0.0
C207 C 0.60425 0.93927 0.91734 0.0
C208 C 0.62875 0.94274 0.90039 0.0
C209 C 0.57184 0.94751 0.91241 0.0
C210 C 0.52367 0.00233 0.87564 0.0
H211 H 0.38597 0.03596 0.93796 0.0
H212 H 0.43953 0.01287 0.92942 0.0
H213 H 0.48916 0.04106 0.86878 0.0
H214 H 0.6383 0.95628 0.86459 0.0
H215 H 0.58119 0.97079 0.85589 0.0
H216 H 0.50562 0.93128 0.90435 0.0
C217 C 0.42446 0.02144 0.91514 0.0
C218 C 0.49248 0.01678 0.8761 0.0
C219 C 0.39382 0.03485 0.92 0.0
C220 C 0.61988 0.95328 0.87799 0.0
C221 C 0.58729 0.96181 0.87306 0.0
C222 C 0.50237 0.95508 0.89629 0.0
C223 C 0.43526 0.01825 0.89213 0.0
C224 C 0.4665 0.00103 0.88756 0.0
C225 C 0.56303 0.95952 0.89038 0.0
C226 C 0.52916 0.97185 0.88652 0.0
H227 H 0.36897 0.05102 0.86457 0.0
H228 H 0.42353 0.0281 0.85613 0.0
H229 H 0.45157 0.95682 0.90556 0.0
H230 H 0.61027 0.93118 0.93476 0.0
H231 H 0.55396 0.94588 0.92628 0.0
C232 C 0.2066 0.04243 0.42382 0.0
C233 C 0.23308 0.02298 0.43132 0.0
C234 C 0.19728 0.07032 0.43648 0.0
C235 C 0.19258 0.09594 0.49537 0.0
H236 H 0.18268 0.18582 0.47439 0.0
C237 C 0.14724 0.19276 0.55917 0.0
C238 C 0.12502 0.21617 0.5508 0.0
C239 C 0.16549 0.17366 0.54374 0.0
C240 C 0.18493 0.16078 0.48048 0.0
H241 H 0.27161 0.01869 0.45726 0.0
H242 H 0.25473 0.06662 0.47943 0.0
H243 H 0.20377 0.14404 0.44762 0.0
H244 H 0.10523 0.2391 0.51991 0.0
H245 H 0.13561 0.20456 0.49285 0.0
H246 H 0.17223 0.11136 0.52758 0.0
C247 C 0.24139 0.06037 0.46376 0.0
C248 C 0.19713 0.13699 0.46515 0.0
C249 C 0.25097 0.03292 0.45101 0.0
C250 C 0.12246 0.22132 0.52676 0.0
C251 C 0.14001 0.20152 0.51126 0.0
C252 C 0.1798 0.11938 0.51047 0.0
C253 C 0.21406 0.07883 0.45691 0.0
C254 C 0.20117 0.10445 0.47259 0.0
C255 C 0.16101 0.17667 0.51956 0.0
C256 C 0.17592 0.15224 0.50336 0.0
H257 H 0.19241 0.03552 0.40868 0.0
H258 H 0.17599 0.08421 0.43099 0.0
H259 H 0.19508 0.07083 0.50135 0.0
H260 H 0.14985 0.18861 0.57767 0.0
H261 H 0.1823 0.15574 0.55088 0.0
C262 C 0.19442 0.8384 0.44457 0.0
C263 C 0.22255 0.857 0.44957 0.0
C264 C 0.17927 0.81992 0.46196 0.0
C265 C 0.16011 0.82619 0.52159 0.0
H266 H 0.13016 0.73614 0.5167 0.0
C267 C 0.05904 0.77756 0.58252 0.0
C268 C 0.0349 0.75836 0.57161 0.0
C269 C 0.08881 0.7841 0.57126 0.0
C270 C 0.13811 0.7614 0.51831 0.0
H271 H 0.25765 0.86996 0.47636 0.0
H272 H 0.23025 0.83848 0.50705 0.0
H273 H 0.17025 0.75718 0.48892 0.0
H274 H 0.02359 0.73009 0.54063 0.0
H275 H 0.07421 0.7425 0.52083 0.0
H276 H 0.12616 0.83166 0.54954 0.0
C277 C 0.22045 0.83779 0.48956 0.0
C278 C 0.16131 0.77325 0.50252 0.0
C279 C 0.23612 0.85562 0.472 0.0
C280 C 0.04162 0.74493 0.54963 0.0
C281 C 0.07101 0.75182 0.53829 0.0
C282 C 0.13637 0.81461 0.53706 0.0
C283 C 0.19155 0.82035 0.48474 0.0
C284 C 0.17184 0.80596 0.5037 0.0
C285 C 0.09487 0.77193 0.54874 0.0
C286 C 0.12425 0.78234 0.53516 0.0
H287 H 0.18349 0.83905 0.42742 0.0
H288 H 0.15682 0.80686 0.45792 0.0
H289 H 0.1677 0.85164 0.52267 0.0
H290 H 0.05471 0.78802 0.59955 0.0
H291 H 0.1068 0.7992 0.58006 0.0
C292 C 0.75259 0.95226 0.43425 0.0
C293 C 0.77384 0.97163 0.42071 0.0
C294 C 0.76431 0.92468 0.44601 0.0
C295 C 0.79391 0.86216 0.46621 0.0
H296 H 0.87422 0.88324 0.49907 0.0
C297 C 0.86149 0.77572 0.53206 0.0
C298 C 0.87387 0.79142 0.55201 0.0
C299 C 0.84706 0.79413 0.51421 0.0
C300 C 0.85175 0.87699 0.49004 0.0
H301 H 0.82339 0.97547 0.40724 0.0
H302 H 0.84378 0.92708 0.42764 0.0
H303 H 0.85441 0.91998 0.46896 0.0
H304 H 0.87841 0.83832 0.56964 0.0
H305 H 0.85316 0.87011 0.53874 0.0
H306 H 0.79098 0.81954 0.4881 0.0
C307 C 0.81817 0.93366 0.42949 0.0
C308 C 0.84064 0.8978 0.47252 0.0
C309 C 0.80644 0.96129 0.4177 0.0
C310 C 0.86956 0.82548 0.5544 0.0
C311 C 0.85527 0.84376 0.53663 0.0
C312 C 0.8052 0.84115 0.48375 0.0
C313 C 0.79753 0.91583 0.44448 0.0
C314 C 0.81127 0.89101 0.46069 0.0
C315 C 0.84489 0.82847 0.51604 0.0
C316 C 0.83382 0.84885 0.4962 0.0
H317 H 0.72724 0.95934 0.4368 0.0
H318 H 0.74778 0.91161 0.45748 0.0
H319 H 0.7713 0.85618 0.45729 0.0
H320 H 0.86442 0.7495 0.5297 0.0
H321 H 0.83914 0.78173 0.49854 0.0
C322 C 0.79412 0.15841 0.44774 0.0
C323 C 0.77006 0.13457 0.45226 0.0
C324 C 0.80876 0.1756 0.46598 0.0
C325 C 0.83654 0.16084 0.5234 0.0
H326 H 0.85484 0.25417 0.52531 0.0
C327 C 0.93832 0.21167 0.58288 0.0
C328 C 0.95865 0.23538 0.57251 0.0
C329 C 0.90825 0.20325 0.57269 0.0
C330 C 0.85015 0.22801 0.52499 0.0
H331 H 0.74141 0.11098 0.47927 0.0
H332 H 0.76799 0.14038 0.51131 0.0
H333 H 0.81407 0.23302 0.49808 0.0
H334 H 0.96275 0.26957 0.54372 0.0
H335 H 0.91164 0.25416 0.52565 0.0
H336 H 0.87433 0.15513 0.54874 0.0
C337 C 0.77498 0.14605 0.4936 0.0
C338 C 0.82658 0.21603 0.50954 0.0
C339 C 0.75974 0.1294 0.47528 0.0
C340 C 0.94775 0.25125 0.55225 0.0
C341 C 0.91807 0.24257 0.54196 0.0
C342 C 0.8606 0.1727 0.53852 0.0
C343 C 0.80012 0.16874 0.4891 0.0
C344 C 0.82023 0.18226 0.5082 0.0
C345 C 0.89808 0.21809 0.55178 0.0
C346 C 0.86852 0.20634 0.53897 0.0
H347 H 0.8025 0.16286 0.43015 0.0
H348 H 0.82829 0.1928 0.4621 0.0
H349 H 0.83226 0.13462 0.5225 0.0
H350 H 0.9459 0.19919 0.59862 0.0
H351 H 0.8933 0.18469 0.58099 0.0
C352 C 0.75278 0.0416 0.95174 0.0
C353 C 0.76698 0.03232 0.93049 0.0
C354 C 0.76148 0.07102 0.96244 0.0
C355 C 0.82859 0.13231 0.96359 0.0
H356 H 0.76974 0.1748 0.00722 0.0
C357 C 0.86909 0.23883 0.02372 0.0
C358 C 0.86832 0.22821 0.04695 0.0
C359 C 0.85213 0.22137 0.00655 0.0
C360 C 0.78626 0.1634 0.99488 0.0
H361 H 0.80039 0.04748 0.90325 0.0
H362 H 0.81478 0.09969 0.92152 0.0
H363 H 0.74855 0.13274 0.98099 0.0
H364 H 0.8476 0.19262 0.07076 0.0
H365 H 0.81685 0.16297 0.04089 0.0
H366 H 0.86619 0.16334 0.97762 0.0
C367 C 0.79759 0.08367 0.93029 0.0
C368 C 0.77431 0.13906 0.98 0.0
C369 C 0.78923 0.05382 0.91972 0.0
C370 C 0.84854 0.2013 0.05298 0.0
C371 C 0.83093 0.18443 0.03594 0.0
C372 C 0.84034 0.15719 0.97812 0.0
C373 C 0.78425 0.09241 0.95203 0.0
C374 C 0.79558 0.12224 0.96479 0.0
C375 C 0.83343 0.19368 0.01251 0.0
C376 C 0.8195 0.17213 0.99438 0.0
H377 H 0.7357 0.02555 0.96063 0.0
H378 H 0.75118 0.07625 0.97937 0.0
H379 H 0.8459 0.11983 0.9524 0.0
H380 H 0.88443 0.25931 0.01859 0.0
H381 H 0.85442 0.22883 0.98856 0.0
C382 C 0.20702 0.16142 0.94241 0.0
C383 C 0.22564 0.13467 0.95012 0.0
C384 C 0.18969 0.18068 0.95827 0.0
C385 C 0.17231 0.19287 0.02197 0.0
H386 H 0.08686 0.21694 0.99778 0.0
C387 C 0.05199 0.21638 0.07509 0.0
C388 C 0.03379 0.24415 0.06835 0.0
C389 C 0.08057 0.20768 0.06305 0.0
C390 C 0.11077 0.2107 0.00473 0.0
H391 H 0.24224 0.10775 0.98031 0.0
H392 H 0.21053 0.14004 0.00799 0.0
H393 H 0.12749 0.19396 0.97184 0.0
H394 H 0.03271 0.28577 0.04474 0.0
H395 H 0.08199 0.27017 0.02366 0.0
H396 H 0.15394 0.20797 0.05535 0.0
C397 C 0.21004 0.14717 0.98988 0.0
C398 C 0.13433 0.19776 0.98981 0.0
C399 C 0.22823 0.12854 0.97403 0.0
C400 C 0.04585 0.26404 0.05028 0.0
C401 C 0.0741 0.25518 0.03818 0.0
C402 C 0.14832 0.20528 0.03706 0.0
C403 C 0.18952 0.17274 0.9821 0.0
C404 C 0.1655 0.18863 0.99813 0.0
C405 C 0.09118 0.22647 0.04401 0.0
C406 C 0.11738 0.21431 0.02849 0.0
H407 H 0.2049 0.1667 0.92402 0.0
H408 H 0.17527 0.20092 0.95163 0.0
H409 H 0.19606 0.1865 0.02905 0.0
H410 H 0.04346 0.20064 0.089 0.0
H411 H 0.09332 0.18533 0.06778 0.0
C412 C 0.13954 0.76834 0.0354 0.0
C413 C 0.12955 0.78333 0.05624 0.0
C414 C 0.15631 0.78646 0.01848 0.0
C415 C 0.20356 0.8626 0.00894 0.0
H416 H 0.16569 0.86131 0.94709 0.0
C417 C 0.25195 0.9487 0.93856 0.0
C418 C 0.22777 0.96741 0.92723 0.0
C419 C 0.24342 0.92083 0.95126 0.0
C420 C 0.17659 0.86181 0.96425 0.0
H421 H 0.13094 0.82842 0.07626 0.0
H422 H 0.16056 0.85976 0.047 0.0
H423 H 0.14606 0.82262 0.97652 0.0
H424 H 0.17596 0.97018 0.91899 0.0
H425 H 0.16094 0.92151 0.94146 0.0
H426 H 0.23314 0.90252 0.99713 0.0
C427 C 0.15534 0.83412 0.04363 0.0
C428 C 0.16561 0.83948 0.98101 0.0
C429 C 0.13825 0.81619 0.06037 0.0
C430 C 0.19514 0.95631 0.92754 0.0
C431 C 0.18656 0.92837 0.94037 0.0
C432 C 0.21466 0.88472 0.99219 0.0
C433 C 0.16384 0.8197 0.02229 0.0
C434 C 0.1785 0.84017 0.00368 0.0
C435 C 0.2105 0.91102 0.95301 0.0
C436 C 0.20089 0.88502 0.96978 0.0
H437 H 0.13305 0.74309 0.03168 0.0
H438 H 0.16282 0.77469 0.00225 0.0
H439 H 0.21406 0.86355 0.02622 0.0
H440 H 0.27742 0.95629 0.93838 0.0
H441 H 0.26251 0.90758 0.96039 0.0
C442 C 0.80451 0.84147 0.93935 0.0
C443 C 0.78138 0.86377 0.94801 0.0
C444 C 0.82217 0.82139 0.95448 0.0
C445 C 0.83124 0.79689 0.01719 0.0
H446 H 0.9221 0.78716 0.99849 0.0
C447 C 0.94464 0.77383 0.07737 0.0
C448 C 0.96699 0.75 0.06945 0.0
C449 C 0.91714 0.78205 0.06399 0.0
C450 C 0.8967 0.78936 0.00384 0.0
H451 H 0.7574 0.88181 0.97904 0.0
H452 H 0.7895 0.84823 0.00569 0.0
H453 H 0.88329 0.81182 0.9719 0.0
H454 H 0.97662 0.71446 0.04212 0.0
H455 H 0.92915 0.72934 0.01877 0.0
H456 H 0.84597 0.77609 0.04992 0.0
C457 C 0.79339 0.84518 0.98721 0.0
C458 C 0.87425 0.80327 0.98851 0.0
C459 C 0.77501 0.86459 0.97196 0.0
C460 C 0.96013 0.73316 0.04867 0.0
C461 C 0.93296 0.74161 0.03525 0.0
C462 C 0.85402 0.78352 0.03277 0.0
C463 C 0.81798 0.82405 0.97871 0.0
C464 C 0.84115 0.80727 0.99489 0.0
C465 C 0.91181 0.76678 0.04244 0.0
C466 C 0.88692 0.77963 0.02615 0.0
H467 H 0.80954 0.84016 0.92088 0.0
H468 H 0.83994 0.80459 0.94714 0.0
H469 H 0.80595 0.79918 0.02269 0.0
H470 H 0.94912 0.78713 0.09334 0.0
H471 H 0.90117 0.80166 0.06981 0.0
C472 C 0.09322 0.22101 0.68428 0.0
C473 C 0.08209 0.19868 0.6674 0.0
C474 C 0.10773 0.20966 0.70484 0.0
C475 C 0.15089 0.1378 0.72896 0.0
H476 H 0.12565 0.17293 0.78894 0.0
C477 C 0.21358 0.09941 0.81555 0.0
C478 C 0.19209 0.09247 0.83402 0.0
C479 C 0.20176 0.11358 0.79501 0.0
C480 C 0.13294 0.16288 0.7723 0.0
H481 H 0.07705 0.14693 0.65906 0.0
H482 H 0.10223 0.12733 0.69475 0.0
H483 H 0.10152 0.19575 0.75358 0.0
H484 H 0.14131 0.09476 0.84528 0.0
H485 H 0.12089 0.11935 0.8096 0.0
H486 H 0.18189 0.10458 0.74769 0.0
C487 C 0.10005 0.15356 0.69204 0.0
C488 C 0.11934 0.17615 0.75206 0.0
C489 C 0.08535 0.16485 0.67166 0.0
C490 C 0.15858 0.09975 0.83142 0.0
C491 C 0.14686 0.11413 0.81103 0.0
C492 C 0.16471 0.12474 0.74918 0.0
C493 C 0.11167 0.17579 0.70877 0.0
C494 C 0.12777 0.16339 0.73019 0.0
C495 C 0.16831 0.1214 0.79265 0.0
C496 C 0.15549 0.13679 0.77109 0.0
H497 H 0.09114 0.24722 0.68148 0.0
H498 H 0.11654 0.22737 0.71742 0.0
H499 H 0.15815 0.12772 0.71232 0.0
H500 H 0.23955 0.09419 0.81705 0.0
H501 H 0.21889 0.11901 0.78114 0.0
C502 C 0.10675 0.77185 0.18202 0.0
C503 C 0.08088 0.78899 0.17137 0.0
C504 C 0.12088 0.78369 0.20257 0.0
C505 C 0.10566 0.83559 0.25326 0.0
H506 H 0.19945 0.85158 0.25347 0.0
C507 C 0.16461 0.91231 0.32562 0.0
C508 C 0.19574 0.90327 0.33382 0.0
C509 C 0.1517 0.89799 0.30557 0.0
C510 C 0.17333 0.84682 0.25393 0.0
H511 H 0.04867 0.83113 0.1743 0.0
H512 H 0.07264 0.85115 0.21052 0.0
H513 H 0.17398 0.82483 0.22004 0.0
H514 H 0.23815 0.87264 0.32721 0.0
H515 H 0.21525 0.8467 0.29257 0.0
H516 H 0.10473 0.85668 0.28719 0.0
C517 C 0.08223 0.82883 0.20286 0.0
C518 C 0.15877 0.83154 0.23472 0.0
C519 C 0.06856 0.81739 0.18212 0.0
C520 C 0.21416 0.88026 0.32118 0.0
C521 C 0.201 0.86544 0.30128 0.0
C522 C 0.12023 0.85035 0.27258 0.0
C523 C 0.1089 0.81245 0.21305 0.0
C524 C 0.12474 0.82621 0.2341 0.0
C525 C 0.16931 0.87372 0.29342 0.0
C526 C 0.1542 0.85671 0.27307 0.0
H527 H 0.11691 0.75003 0.17403 0.0
H528 H 0.14132 0.77053 0.21018 0.0
H529 H 0.07941 0.83142 0.2533 0.0
H530 H 0.14996 0.93023 0.33488 0.0
H531 H 0.12771 0.90583 0.29973 0.0
C532 C 0.91161 0.83574 0.67249 0.0
C533 C 0.91407 0.80184 0.66823 0.0
C534 C 0.89649 0.8474 0.69262 0.0
C535 C 0.87595 0.82599 0.75235 0.0
H536 H 0.81347 0.89753 0.74718 0.0
C537 C 0.83778 0.9054 0.8304 0.0
C538 C 0.80412 0.9115 0.83354 0.0
C539 C 0.84924 0.89065 0.81008 0.0
C540 C 0.83065 0.87739 0.74887 0.0
H541 H 0.90314 0.75354 0.68205 0.0
H542 H 0.87722 0.77405 0.71766 0.0
H543 H 0.8373 0.87357 0.71203 0.0
H544 H 0.75614 0.9075 0.81753 0.0
H545 H 0.77641 0.88223 0.7816 0.0
H546 H 0.86982 0.83026 0.7892 0.0
C547 C 0.88687 0.79151 0.70521 0.0
C548 C 0.84447 0.86386 0.72879 0.0
C549 C 0.90168 0.77979 0.68486 0.0
C550 C 0.78222 0.90319 0.8156 0.0
C551 C 0.79379 0.88875 0.79507 0.0
C552 C 0.86246 0.83981 0.77243 0.0
C553 C 0.88376 0.82546 0.70912 0.0
C554 C 0.86753 0.83826 0.73035 0.0
C555 C 0.82739 0.88193 0.79227 0.0
C556 C 0.83995 0.86589 0.7709 0.0
H557 H 0.92081 0.85343 0.66004 0.0
H558 H 0.89488 0.87367 0.69533 0.0
H559 H 0.89374 0.80638 0.75406 0.0
H560 H 0.85536 0.91142 0.84386 0.0
H561 H 0.8753 0.88615 0.80826 0.0
C562 C 0.83705 0.11105 0.32965 0.0
C563 C 0.80366 0.10333 0.33245 0.0
C564 C 0.84839 0.12529 0.30911 0.0
C565 C 0.82965 0.13423 0.24723 0.0
H566 H 0.89313 0.20513 0.25023 0.0
C567 C 0.9076 0.17246 0.16843 0.0
C568 C 0.91121 0.2062 0.16393 0.0
C569 C 0.89317 0.1616 0.18903 0.0
C570 C 0.87522 0.18555 0.2491 0.0
H571 H 0.75601 0.10432 0.31575 0.0
H572 H 0.776 0.12899 0.27959 0.0
H573 H 0.86943 0.18335 0.28606 0.0
H574 H 0.903 0.25501 0.17781 0.0
H575 H 0.87804 0.23591 0.21408 0.0
H576 H 0.83564 0.13623 0.21029 0.0
C577 C 0.79332 0.12396 0.29341 0.0
C578 C 0.86186 0.17288 0.26961 0.0
C579 C 0.78188 0.10991 0.3141 0.0
C580 C 0.90065 0.22886 0.18078 0.0
C581 C 0.8864 0.21793 0.20154 0.0
C582 C 0.8432 0.14671 0.22673 0.0
C583 C 0.82669 0.132 0.29077 0.0
C584 C 0.8392 0.14684 0.26891 0.0
C585 C 0.88216 0.18417 0.20575 0.0
C586 C 0.86642 0.17226 0.22746 0.0
H587 H 0.85453 0.10634 0.34342 0.0
H588 H 0.87431 0.13071 0.30749 0.0
H589 H 0.81239 0.11406 0.24613 0.0
H590 H 0.91546 0.15431 0.15585 0.0
H591 H 0.89076 0.13543 0.19193 0.0
loop_
_geom_bond_atom_site_label_1
_geom_bond_atom_site_label_2
_geom_bond_distance
_geom_bond_site_symmetry_2
_ccdc_geom_bond_type
O0 Cd1 2.223 . S
O0 C8 1.315 . S
Cd1 O0 2.223 . S
Cd1 O4 2.297 . S
Cd1 O5 2.439 . S
Cd1 O11 2.240 . S
Cd2 O3 2.240 . S
Cd2 O10 2.223 . S
Cd2 O12 2.297 . S
Cd2 O13 2.439 . S
O3 Cd2 2.240 . S
O3 C8 1.279 . S
O4 Cd1 2.297 . S
O4 C6 1.247 . S
O5 Cd1 2.439 . S
O5 C6 1.208 . S
C6 O4 1.247 . S
C6 O5 1.208 . S
C7 O12 1.247 . S
C7 O13 1.208 . S
C8 O0 1.315 . S
C8 O3 1.279 . S
C9 O10 1.315 . S
C9 O11 1.279 . S
O10 Cd2 2.223 . S
O10 C9 1.315 . S
O11 Cd1 2.240 . S
O11 C9 1.279 . S
O12 Cd2 2.297 . S
O12 C7 1.247 . S
O13 Cd2 2.439 . S
O13 C7 1.208 . S
O14 Cd15 2.223 . S
O14 C22 1.315 . S
Cd15 O14 2.223 . S
Cd15 O18 2.297 . S
Cd15 O19 2.439 . S
Cd15 O25 2.240 . S
Cd16 O17 2.240 . S
Cd16 O24 2.223 . S
Cd16 O26 2.297 . S
Cd16 O27 2.439 . S
O17 Cd16 2.240 . S
O17 C22 1.279 . S
O18 Cd15 2.297 . S
O18 C20 1.247 . S
O19 Cd15 2.439 . S
O19 C20 1.208 . S
C20 O18 1.247 . S
C20 O19 1.208 . S
C21 O26 1.247 . S
C21 O27 1.208 . S
C22 O14 1.315 . S
C22 O17 1.279 . S
C23 O24 1.315 . S
C23 O25 1.279 . S
O24 Cd16 2.223 . S
O24 C23 1.315 . S
O25 Cd15 2.240 . S
O25 C23 1.279 . S
O26 Cd16 2.297 . S
O26 C21 1.247 . S
O27 Cd16 2.439 . S
O27 C21 1.208 . S
O28 Cd29 2.223 . S
O28 C36 1.315 . S
Cd29 O28 2.223 . S
Cd29 O32 2.297 . S
Cd29 O33 2.439 . S
Cd29 O39 2.240 . S
Cd30 O31 2.240 . S
Cd30 O38 2.223 . S
Cd30 O40 2.297 . S
Cd30 O41 2.439 . S
O31 Cd30 2.240 . S
O31 C36 1.279 . S
O32 Cd29 2.297 . S
O32 C34 1.247 . S
O33 Cd29 2.439 . S
O33 C34 1.208 . S
C34 O32 1.247 . S
C34 O33 1.208 . S
C35 O40 1.247 . S
C35 O41 1.208 . S
C36 O28 1.315 . S
C36 O31 1.279 . S
C37 O38 1.315 . S
C37 O39 1.279 . S
O38 Cd30 2.223 . S
O38 C37 1.315 . S
O39 Cd29 2.240 . S
O39 C37 1.279 . S
O40 Cd30 2.297 . S
O40 C35 1.247 . S
O41 Cd30 2.439 . S
O41 C35 1.208 . S
O42 Cd43 2.223 . S
O42 C50 1.315 . S
Cd43 O42 2.223 . S
Cd43 O46 2.297 . S
Cd43 O47 2.439 . S
Cd43 O53 2.240 . S
Cd44 O45 2.240 . S
Cd44 O52 2.223 . S
Cd44 O54 2.297 . S
Cd44 O55 2.439 . S
O45 Cd44 2.240 . S
O45 C50 1.279 . S
O46 Cd43 2.297 . S
O46 C48 1.247 . S
O47 Cd43 2.439 . S
O47 C48 1.208 . S
C48 O46 1.247 . S
C48 O47 1.208 . S
C49 O54 1.247 . S
C49 O55 1.208 . S
C50 O42 1.315 . S
C50 O45 1.279 . S
C51 O52 1.315 . S
C51 O53 1.279 . S
O52 Cd44 2.223 . S
O52 C51 1.315 . S
O53 Cd43 2.240 . S
O53 C51 1.279 . S
O54 Cd44 2.297 . S
O54 C49 1.247 . S
O55 Cd44 2.439 . S
O55 C49 1.208 . S
O56 Cd57 2.223 . S
O56 C64 1.315 . S
Cd57 O56 2.223 . S
Cd57 O60 2.297 . S
Cd57 O61 2.439 . S
Cd57 O67 2.240 . S
Cd58 O59 2.240 . S
Cd58 O66 2.223 . S
Cd58 O68 2.297 . S
Cd58 O69 2.439 . S
O59 Cd58 2.240 . S
O59 C64 1.279 . S
O60 Cd57 2.297 . S
O60 C62 1.247 . S
O61 Cd57 2.439 . S
O61 C62 1.208 . S
C62 O60 1.247 . S
C62 O61 1.208 . S
C63 O68 1.247 . S
C63 O69 1.208 . S
C64 O56 1.315 . S
C64 O59 1.279 . S
C65 O66 1.315 . S
C65 O67 1.279 . S
O66 Cd58 2.223 . S
O66 C65 1.315 . S
O67 Cd57 2.240 . S
O67 C65 1.279 . S
O68 Cd58 2.297 . S
O68 C63 1.247 . S
O69 Cd58 2.439 . S
O69 C63 1.208 . S
O70 Cd71 2.223 . S
O70 C78 1.315 . S
Cd71 O70 2.223 . S
Cd71 O74 2.297 . S
Cd71 O75 2.439 . S
Cd71 O81 2.240 . S
Cd72 O73 2.240 . S
Cd72 O80 2.223 . S
Cd72 O82 2.297 . S
Cd72 O83 2.439 . S
O73 Cd72 2.240 . S
O73 C78 1.279 . S
O74 Cd71 2.297 . S
O74 C76 1.247 . S
O75 Cd71 2.439 . S
O75 C76 1.208 . S
C76 O74 1.247 . S
C76 O75 1.208 . S
C77 O82 1.247 . S
C77 O83 1.208 . S
C78 O70 1.315 . S
C78 O73 1.279 . S
C79 O80 1.315 . S
C79 O81 1.279 . S
O80 Cd72 2.223 . S
O80 C79 1.315 . S
O81 Cd71 2.240 . S
O81 C79 1.279 . S
O82 Cd72 2.297 . S
O82 C77 1.247 . S
O83 Cd72 2.439 . S
O83 C77 1.208 . S
O84 Cd85 2.223 . S
O84 C92 1.315 . S
Cd85 O84 2.223 . S
Cd85 O88 2.297 . S
Cd85 O89 2.439 . S
Cd85 O95 2.240 . S
Cd86 O87 2.240 . S
Cd86 O94 2.223 . S
Cd86 O96 2.297 . S
Cd86 O97 2.439 . S
O87 Cd86 2.240 . S
O87 C92 1.279 . S
O88 Cd85 2.297 . S
O88 C90 1.247 . S
O89 Cd85 2.439 . S
O89 C90 1.208 . S
C90 O88 1.247 . S
C90 O89 1.208 . S
C91 O96 1.247 . S
C91 O97 1.208 . S
C92 O84 1.315 . S
C92 O87 1.279 . S
C93 O94 1.315 . S
C93 O95 1.279 . S
O94 Cd86 2.223 . S
O94 C93 1.315 . S
O95 Cd85 2.240 . S
O95 C93 1.279 . S
O96 Cd86 2.297 . S
O96 C91 1.247 . S
O97 Cd86 2.439 . S
O97 C91 1.208 . S
O98 Cd99 2.223 . S
O98 C106 1.315 . S
Cd99 O98 2.223 . S
Cd99 O102 2.297 . S
Cd99 O103 2.439 . S
Cd99 O109 2.240 . S
Cd100 O101 2.240 . S
Cd100 O108 2.223 . S
Cd100 O110 2.297 . S
Cd100 O111 2.439 . S
O101 Cd100 2.240 . S
O101 C106 1.279 . S
O102 Cd99 2.297 . S
O102 C104 1.247 . S
O103 Cd99 2.439 . S
O103 C104 1.208 . S
C104 O102 1.247 . S
C104 O103 1.208 . S
C105 O110 1.247 . S
C105 O111 1.208 . S
C106 O98 1.315 . S
C106 O101 1.279 . S
C107 O108 1.315 . S
C107 O109 1.279 . S
O108 Cd100 2.223 . S
O108 C107 1.315 . S
O109 Cd99 2.240 . S
O109 C107 1.279 . S
O110 Cd100 2.297 . S
O110 C105 1.247 . S
O111 Cd100 2.439 . S
O111 C105 1.208 . S
C112 C113 1.349 . S
C112 C114 1.327 . S
C112 H137 0.950 . S
C113 C112 1.349 . S
C113 C129 1.349 . S
C114 C112 1.327 . S
C114 C133 1.429 . S
C114 H138 0.950 . S
C115 C132 1.574 . S
C115 C134 1.368 . S
C115 H139 0.949 . S
H116 C120 0.949 . S
C117 C118 1.349 . S
C117 C119 1.327 . S
C117 H140 0.950 . S
C118 C117 1.349 . S
C118 C130 1.349 . S
C119 C117 1.327 . S
C119 C135 1.429 . S
C119 H141 0.950 . S
C120 H116 0.949 . S
C120 C128 1.574 . S
C120 C136 1.368 . S
H121 C129 0.950 . S
H122 C127 0.950 . S
H123 C128 0.949 . S
H124 C130 0.950 . S
H125 C131 0.950 . S
H126 C132 0.949 . S
C127 H122 0.950 . S
C127 C129 1.327 . S
C127 C133 1.429 . S
C128 C120 1.574 . S
C128 H123 0.949 . S
C128 C134 1.368 1_455 S
C129 C113 1.349 . S
C129 H121 0.950 . S
C129 C127 1.327 . S
C130 C118 1.349 . S
C130 H124 0.950 . S
C130 C131 1.327 . S
C131 H125 0.950 . S
C131 C130 1.327 . S
C131 C135 1.429 . S
C132 C115 1.574 . S
C132 H126 0.949 . S
C132 C136 1.368 1_655 S
C133 C114 1.429 . S
C133 C127 1.429 . S
C133 C134 1.523 . S
C134 C115 1.368 . S
C134 C128 1.368 1_655 S
C134 C133 1.523 . S
C135 C119 1.429 . S
C135 C131 1.429 . S
C135 C136 1.523 . S
C136 C120 1.368 . S
C136 C132 1.368 1_455 S
C136 C135 1.523 . S
H137 C112 0.950 . S
H138 C114 0.950 . S
H139 C115 0.949 . S
H140 C117 0.950 . S
H141 C119 0.950 . S
C142 C143 1.349 . S
C142 C144 1.327 . S
C142 H167 0.950 . S
C143 C142 1.349 . S
C143 C159 1.349 . S
C144 C142 1.327 . S
C144 C163 1.429 . S
C144 H168 0.950 . S
C145 C162 1.574 . S
C145 C164 1.368 1_565 S
C145 H169 0.949 . S
H146 C150 0.949 . S
C147 C148 1.349 . S
C147 C149 1.327 . S
C147 H170 0.950 . S
C148 C147 1.349 . S
C148 C160 1.349 . S
C149 C147 1.327 . S
C149 C165 1.429 . S
C149 H171 0.950 . S
C150 H146 0.949 . S
C150 C158 1.574 . S
C150 C166 1.368 1_545 S
H151 C159 0.950 . S
H152 C157 0.950 . S
H153 C158 0.949 . S
H154 C160 0.950 . S
H155 C161 0.950 . S
H156 C162 0.949 . S
C157 H152 0.950 . S
C157 C159 1.327 . S
C157 C163 1.429 . S
C158 C150 1.574 . S
C158 H153 0.949 . S
C158 C164 1.368 . S
C159 C143 1.349 . S
C159 H151 0.950 . S
C159 C157 1.327 . S
C160 C148 1.349 . S
C160 H154 0.950 . S
C160 C161 1.327 . S
C161 H155 0.950 . S
C161 C160 1.327 . S
C161 C165 1.429 . S
C162 C145 1.574 . S
C162 H156 0.949 . S
C162 C166 1.368 . S
C163 C144 1.429 . S
C163 C157 1.429 . S
C163 C164 1.523 . S
C164 C145 1.368 1_545 S
C164 C158 1.368 . S
C164 C163 1.523 . S
C165 C149 1.429 . S
C165 C161 1.429 . S
C165 C166 1.523 . S
C166 C150 1.368 1_565 S
C166 C162 1.368 . S
C166 C165 1.523 . S
H167 C142 0.950 . S
H168 C144 0.950 . S
H169 C145 0.949 . S
H170 C147 0.950 . S
H171 C149 0.950 . S
C172 C173 1.349 . S
C172 C174 1.327 . S
C172 H197 0.950 . S
C173 C172 1.349 . S
C173 C189 1.349 . S
C174 C172 1.327 . S
C174 C193 1.429 . S
C174 H198 0.950 . S
C175 C192 1.574 . S
C175 C194 1.368 . S
C175 H199 0.949 . S
H176 C180 0.949 . S
C177 C178 1.349 . S
C177 C179 1.327 . S
C177 H200 0.950 . S
C178 C177 1.349 . S
C178 C190 1.349 . S
C179 C177 1.327 . S
C179 C195 1.429 . S
C179 H201 0.950 . S
C180 H176 0.949 . S
C180 C188 1.574 . S
C180 C196 1.368 . S
H181 C189 0.950 . S
H182 C187 0.950 . S
H183 C188 0.949 . S
H184 C190 0.950 . S
H185 C191 0.950 . S
H186 C192 0.949 . S
C187 H182 0.950 . S
C187 C189 1.327 . S
C187 C193 1.429 . S
C188 C180 1.574 . S
C188 H183 0.949 . S
C188 C194 1.368 1_455 S
C189 C173 1.349 . S
C189 H181 0.950 . S
C189 C187 1.327 . S
C190 C178 1.349 . S
C190 H184 0.950 . S
C190 C191 1.327 . S
C191 H185 0.950 . S
C191 C190 1.327 . S
C191 C195 1.429 . S
C192 C175 1.574 . S
C192 H186 0.949 . S
C192 C196 1.368 1_655 S
C193 C174 1.429 . S
C193 C187 1.429 . S
C193 C194 1.523 . S
C194 C175 1.368 . S
C194 C188 1.368 1_655 S
C194 C193 1.523 . S
C195 C179 1.429 . S
C195 C191 1.429 . S
C195 C196 1.523 . S
C196 C180 1.368 . S
C196 C192 1.368 1_455 S
C196 C195 1.523 . S
H197 C172 0.950 . S
H198 C174 0.950 . S
H199 C175 0.949 . S
H200 C177 0.950 . S
H201 C179 0.950 . S
C202 C203 1.349 . S
C202 C204 1.327 . S
C202 H227 0.950 . S
C203 C202 1.349 . S
C203 C219 1.349 . S
C204 C202 1.327 . S
C204 C223 1.429 . S
C204 H228 0.950 . S
C205 C222 1.574 . S
C205 C224 1.368 1_565 S
C205 H229 0.949 . S
H206 C210 0.949 . S
C207 C208 1.349 . S
C207 C209 1.327 . S
C207 H230 0.950 . S
C208 C207 1.349 . S
C208 C220 1.349 . S
C209 C207 1.327 . S
C209 C225 1.429 . S
C209 H231 0.950 . S
C210 H206 0.949 . S
C210 C218 1.574 . S
C210 C226 1.368 1_545 S
H211 C219 0.950 . S
H212 C217 0.950 . S
H213 C218 0.949 . S
H214 C220 0.950 . S
H215 C221 0.950 . S
H216 C222 0.949 . S
C217 H212 0.950 . S
C217 C219 1.327 . S
C217 C223 1.429 . S
C218 C210 1.574 . S
C218 H213 0.949 . S
C218 C224 1.368 . S
C219 C203 1.349 . S
C219 H211 0.950 . S
C219 C217 1.327 . S
C220 C208 1.349 . S
C220 H214 0.950 . S
C220 C221 1.327 . S
C221 H215 0.950 . S
C221 C220 1.327 . S
C221 C225 1.429 . S
C222 C205 1.574 . S
C222 H216 0.949 . S
C222 C226 1.368 . S
C223 C204 1.429 . S
C223 C217 1.429 . S
C223 C224 1.523 . S
C224 C205 1.368 1_545 S
C224 C218 1.368 . S
C224 C223 1.523 . S
C225 C209 1.429 . S
C225 C221 1.429 . S
C225 C226 1.523 . S
C226 C210 1.368 1_565 S
C226 C222 1.368 . S
C226 C225 1.523 . S
H227 C202 0.950 . S
H228 C204 0.950 . S
H229 C205 0.949 . S
H230 C207 0.950 . S
H231 C209 0.950 . S
C232 C233 1.355 . S
C232 C234 1.319 1_565 S
C232 H257 0.952 . S
C233 C232 1.355 . S
C233 C249 1.349 . S
C234 C232 1.319 1_545 S
C234 C253 1.429 . S
C234 H258 0.950 . S
C235 C252 1.574 . S
C235 C254 1.368 . S
C235 H259 0.949 . S
H236 C240 0.949 . S
C237 C238 1.349 . S
C237 C239 1.327 . S
C237 H260 0.950 . S
C238 C237 1.349 . S
C238 C250 1.349 . S
C239 C237 1.327 . S
C239 C255 1.429 . S
C239 H261 0.950 . S
C240 H236 0.949 . S
C240 C248 1.574 . S
C240 C256 1.368 . S
H241 C249 0.950 . S
H242 C247 0.950 . S
H243 C248 0.949 . S
H244 C250 0.950 . S
H245 C251 0.950 . S
H246 C252 0.949 . S
C247 H242 0.950 . S
C247 C249 1.327 1_545 S
C247 C253 1.429 . S
C248 C240 1.574 . S
C248 H243 0.949 . S
C248 C254 1.368 . S
C249 C233 1.349 . S
C249 H241 0.950 . S
C249 C247 1.327 1_565 S
C250 C238 1.349 . S
C250 H244 0.950 . S
C250 C251 1.327 . S
C251 H245 0.950 . S
C251 C250 1.327 . S
C251 C255 1.429 . S
C252 C235 1.574 . S
C252 H246 0.949 . S
C252 C256 1.368 . S
C253 C234 1.429 . S
C253 C247 1.429 . S
C253 C254 1.523 . S
C254 C235 1.368 . S
C254 C248 1.368 . S
C254 C253 1.523 . S
C255 C239 1.429 . S
C255 C251 1.429 . S
C255 C256 1.523 . S
C256 C240 1.368 . S
C256 C252 1.368 . S
C256 C255 1.523 . S
H257 C232 0.952 . S
H258 C234 0.950 . S
H259 C235 0.949 . S
H260 C237 0.950 . S
H261 C239 0.950 . S
C262 C263 1.349 . S
C262 C264 1.327 . S
C262 H287 0.950 . S
C263 C262 1.349 . S
C263 C279 1.349 . S
C264 C262 1.327 . S
C264 C283 1.429 . S
C264 H288 0.950 . S
C265 C282 1.574 . S
C265 C284 1.368 . S
C265 H289 0.949 . S
H266 C270 0.949 . S
C267 C268 1.349 . S
C267 C269 1.327 1_655 S
C267 H290 0.950 . S
C268 C267 1.349 . S
C268 C280 1.363 . S
C269 C267 1.327 1_455 S
C269 C285 1.429 . S
C269 H291 0.950 . S
C270 H266 0.949 . S
C270 C278 1.574 . S
C270 C286 1.368 . S
H271 C279 0.950 . S
H272 C277 0.950 . S
H273 C278 0.949 . S
H274 C280 0.955 . S
H275 C281 0.950 . S
H276 C282 0.949 . S
C277 H272 0.950 . S
C277 C279 1.327 . S
C277 C283 1.429 . S
C278 C270 1.574 . S
C278 H273 0.949 . S
C278 C284 1.368 . S
C279 C263 1.349 . S
C279 H271 0.950 . S
C279 C277 1.327 . S
C280 C268 1.363 . S
C280 H274 0.955 . S
C280 C281 1.308 1_655 S
C281 H275 0.950 . S
C281 C280 1.308 1_455 S
C281 C285 1.429 . S
C282 C265 1.574 . S
C282 H276 0.949 . S
C282 C286 1.368 . S
C283 C264 1.429 . S
C283 C277 1.429 . S
C283 C284 1.523 . S
C284 C265 1.368 . S
C284 C278 1.368 . S
C284 C283 1.523 . S
C285 C269 1.429 . S
C285 C281 1.429 . S
C285 C286 1.523 . S
C286 C270 1.368 . S
C286 C282 1.368 . S
C286 C285 1.523 . S
H287 C262 0.950 . S
H288 C264 0.950 . S
H289 C265 0.949 . S
H290 C267 0.950 . S
H291 C269 0.950 . S
C292 C293 1.349 . S
C292 C294 1.327 1_545 S
C292 H317 0.950 . S
C293 C292 1.349 . S
C293 C309 1.349 1_545 S
C294 C292 1.327 1_565 S
C294 C313 1.429 . S
C294 H318 0.949 . S
C295 C312 1.574 . S
C295 C314 1.368 . S
C295 H319 0.949 . S
H296 C300 0.949 . S
C297 C298 1.349 . S
C297 C299 1.327 . S
C297 H320 0.950 . S
C298 C297 1.349 . S
C298 C310 1.349 . S
C299 C297 1.327 . S
C299 C315 1.429 . S
C299 H321 0.950 . S
C300 H296 0.949 . S
C300 C308 1.574 . S
C300 C316 1.368 . S
H301 C309 0.950 . S
H302 C307 0.950 . S
H303 C308 0.949 . S
H304 C310 0.950 . S
H305 C311 0.950 . S
H306 C312 0.949 . S
C307 H302 0.950 . S
C307 C309 1.327 . S
C307 C313 1.429 . S
C308 C300 1.574 . S
C308 H303 0.949 . S
C308 C314 1.368 . S
C309 C293 1.349 1_565 S
C309 H301 0.950 . S
C309 C307 1.327 . S
C310 C298 1.349 . S
C310 H304 0.950 . S
C310 C311 1.327 . S
C311 H305 0.950 . S
C311 C310 1.327 . S
C311 C315 1.429 . S
C312 C295 1.574 . S
C312 H306 0.949 . S
C312 C316 1.368 . S
C313 C294 1.429 . S
C313 C307 1.429 . S
C313 C314 1.523 . S
C314 C295 1.368 . S
C314 C308 1.368 . S
C314 C313 1.523 . S
C315 C299 1.429 . S
C315 C311 1.429 . S
C315 C316 1.523 . S
C316 C300 1.368 . S
C316 C312 1.368 . S
C316 C315 1.523 . S
H317 C292 0.950 . S
H318 C294 0.949 . S
H319 C295 0.949 . S
H320 C297 0.950 . S
H321 C299 0.950 . S
C322 C323 1.349 . S
C322 C324 1.327 . S
C322 H347 0.950 . S
C323 C322 1.349 . S
C323 C339 1.349 . S
C324 C322 1.327 . S
C324 C343 1.429 . S
C324 H348 0.950 . S
C325 C342 1.574 . S
C325 C344 1.368 . S
C325 H349 0.949 . S
H326 C330 0.949 . S
C327 C328 1.349 . S
C327 C329 1.327 1_455 S
C327 H350 0.950 . S
C328 C327 1.349 . S
C328 C340 1.356 . S
C329 C327 1.327 1_655 S
C329 C345 1.429 . S
C329 H351 0.950 . S
C330 H326 0.949 . S
C330 C338 1.574 . S
C330 C346 1.368 . S
H331 C339 0.950 . S
H332 C337 0.950 . S
H333 C338 0.949 . S
H334 C340 0.952 . S
H335 C341 0.950 . S
H336 C342 0.949 . S
C337 H332 0.950 . S
C337 C339 1.327 . S
C337 C343 1.429 . S
C338 C330 1.574 . S
C338 H333 0.949 . S
C338 C344 1.368 . S
C339 C323 1.349 . S
C339 H331 0.950 . S
C339 C337 1.327 . S
C340 C328 1.356 . S
C340 H334 0.952 . S
C340 C341 1.318 1_455 S
C341 H335 0.950 . S
C341 C340 1.318 1_655 S
C341 C345 1.429 . S
C342 C325 1.574 . S
C342 H336 0.949 . S
C342 C346 1.368 . S
C343 C324 1.429 . S
C343 C337 1.429 . S
C343 C344 1.523 . S
C344 C325 1.368 . S
C344 C338 1.368 . S
C344 C343 1.523 . S
C345 C329 1.429 . S
C345 C341 1.429 . S
C345 C346 1.523 . S
C346 C330 1.368 . S
C346 C342 1.368 . S
C346 C345 1.523 . S
H347 C322 0.950 . S
H348 C324 0.950 . S
H349 C325 0.949 . S
H350 C327 0.950 . S
H351 C329 0.950 . S
C352 C353 1.349 . S
C352 C354 1.327 1_565 S
C352 H377 0.950 . S
C353 C352 1.349 . S
C353 C369 1.349 . S
C354 C352 1.327 1_545 S
C354 C373 1.429 . S
C354 H378 0.950 . S
C355 C372 1.574 . S
C355 C374 1.368 . S
C355 H379 0.949 . S
H356 C360 0.949 . S
C357 C358 1.349 . S
C357 C359 1.327 . S
C357 H380 0.950 . S
C358 C357 1.349 . S
C358 C370 1.349 . S
C359 C357 1.327 . S
C359 C375 1.429 . S
C359 H381 0.950 . S
C360 H356 0.949 . S
C360 C368 1.574 . S
C360 C376 1.368 . S
H361 C369 0.950 . S
H362 C367 0.950 . S
H363 C368 0.949 . S
H364 C370 0.950 . S
H365 C371 0.950 . S
H366 C372 0.949 . S
C367 H362 0.950 . S
C367 C369 1.327 1_545 S
C367 C373 1.429 . S
C368 C360 1.574 . S
C368 H363 0.949 . S
C368 C374 1.368 1_554 S
C369 C353 1.349 . S
C369 H361 0.950 . S
C369 C367 1.327 1_565 S
C370 C358 1.349 . S
C370 H364 0.950 . S
C370 C371 1.327 . S
C371 H365 0.950 . S
C371 C370 1.327 . S
C371 C375 1.429 . S
C372 C355 1.574 . S
C372 H366 0.949 . S
C372 C376 1.368 1_556 S
C373 C354 1.429 . S
C373 C367 1.429 . S
C373 C374 1.523 . S
C374 C355 1.368 . S
C374 C368 1.368 1_556 S
C374 C373 1.523 . S
C375 C359 1.429 . S
C375 C371 1.429 . S
C375 C376 1.523 . S
C376 C360 1.368 . S
C376 C372 1.368 1_554 S
C376 C375 1.523 . S
H377 C352 0.950 . S
H378 C354 0.950 . S
H379 C355 0.949 . S
H380 C357 0.950 . S
H381 C359 0.950 . S
C382 C383 1.349 . S
C382 C384 1.327 . S
C382 H407 0.950 . S
C383 C382 1.349 . S
C383 C399 1.349 . S
C384 C382 1.327 . S
C384 C403 1.429 . S
C384 H408 0.950 . S
C385 C402 1.574 . S
C385 C404 1.368 1_554 S
C385 H409 0.949 . S
H386 C390 0.949 . S
C387 C388 1.326 1_455 S
C387 C389 1.356 . S
C387 H410 0.945 1_455 S
C388 C387 1.326 1_655 S
C388 C400 1.349 . S
C389 C387 1.356 . S
C389 C405 1.429 . S
C389 H411 0.950 . S
C390 H386 0.949 . S
C390 C398 1.574 . S
C390 C406 1.368 1_556 S
H391 C399 0.950 . S
H392 C397 0.933 1_554 S
H393 C398 0.949 . S
H394 C400 0.950 . S
H395 C401 0.950 1_556 S
H396 C402 0.949 . S
C397 H392 0.933 1_556 S
C397 C399 1.327 . S
C397 C403 1.429 . S
C398 C390 1.574 . S
C398 H393 0.949 . S
C398 C404 1.368 . S
C399 C383 1.349 . S
C399 H391 0.950 . S
C399 C397 1.327 . S
C400 C388 1.349 . S
C400 H394 0.950 . S
C400 C401 1.327 1_655 S
C401 H395 0.950 1_554 S
C401 C400 1.327 1_455 S
C401 C405 1.429 . S
C402 C385 1.574 . S
C402 H396 0.949 . S
C402 C406 1.368 . S
C403 C384 1.429 . S
C403 C397 1.429 . S
C403 C404 1.523 . S
C404 C385 1.368 1_556 S
C404 C398 1.368 . S
C404 C403 1.523 . S
C405 C389 1.429 . S
C405 C401 1.429 . S
C405 C406 1.523 . S
C406 C390 1.368 1_554 S
C406 C402 1.368 . S
C406 C405 1.523 . S
H407 C382 0.950 . S
H408 C384 0.950 . S
H409 C385 0.949 . S
H410 C387 0.945 1_655 S
H411 C389 0.950 . S
C412 C413 1.349 . S
C412 C414 1.327 . S
C412 H437 0.950 . S
C413 C412 1.349 . S
C413 C429 1.349 . S
C414 C412 1.327 . S
C414 C433 1.429 . S
C414 H438 0.950 . S
C415 C432 1.574 . S
C415 C434 1.368 . S
C415 H439 0.949 . S
H416 C420 0.949 . S
C417 C418 1.349 . S
C417 C419 1.327 1_545 S
C417 H440 0.950 . S
C418 C417 1.349 . S
C418 C430 1.349 . S
C419 C417 1.327 1_565 S
C419 C435 1.429 . S
C419 H441 0.950 . S
C420 H416 0.949 . S
C420 C428 1.574 . S
C420 C436 1.368 . S
H421 C429 0.950 . S
H422 C427 0.950 . S
H423 C428 0.949 . S
H424 C430 0.950 . S
H425 C431 0.950 . S
H426 C432 0.949 . S
C427 H422 0.950 . S
C427 C429 1.327 . S
C427 C433 1.429 . S
C428 C420 1.574 . S
C428 H423 0.949 . S
C428 C434 1.368 1_556 S
C429 C413 1.349 . S
C429 H421 0.950 . S
C429 C427 1.327 . S
C430 C418 1.349 . S
C430 H424 0.950 . S
C430 C431 1.327 1_545 S
C431 H425 0.950 . S
C431 C430 1.327 1_565 S
C431 C435 1.429 . S
C432 C415 1.574 . S
C432 H426 0.949 . S
C432 C436 1.368 1_554 S
C433 C414 1.429 . S
C433 C427 1.429 . S
C433 C434 1.523 . S
C434 C415 1.368 . S
C434 C428 1.368 1_554 S
C434 C433 1.523 . S
C435 C419 1.429 . S
C435 C431 1.429 . S
C435 C436 1.523 . S
C436 C420 1.368 . S
C436 C432 1.368 1_556 S
C436 C435 1.523 . S
H437 C412 0.950 . S
H438 C414 0.950 . S
H439 C415 0.949 . S
H440 C417 0.950 . S
H441 C419 0.950 . S
C442 C443 1.349 . S
C442 C444 1.327 . S
C442 H467 0.950 . S
C443 C442 1.349 . S
C443 C459 1.349 . S
C444 C442 1.327 . S
C444 C463 1.429 . S
C444 H468 0.950 . S
C445 C462 1.574 . S
C445 C464 1.368 1_554 S
C445 H469 0.949 . S
H446 C450 0.949 . S
C447 C448 1.349 1_655 S
C447 C449 1.327 . S
C447 H470 0.950 . S
C448 C447 1.349 1_455 S
C448 C460 1.349 . S
C449 C447 1.327 . S
C449 C465 1.429 . S
C449 H471 0.950 . S
C450 H446 0.949 . S
C450 C458 1.574 . S
C450 C466 1.368 1_556 S
H451 C459 0.950 . S
H452 C457 0.950 1_554 S
H453 C458 0.949 . S
H454 C460 0.950 . S
H455 C461 0.950 1_556 S
H456 C462 0.949 . S
C457 H452 0.950 1_556 S
C457 C459 1.327 . S
C457 C463 1.429 . S
C458 C450 1.574 . S
C458 H453 0.949 . S
C458 C464 1.368 . S
C459 C443 1.349 . S
C459 H451 0.950 . S
C459 C457 1.327 . S
C460 C448 1.349 . S
C460 H454 0.950 . S
C460 C461 1.327 1_455 S
C461 H455 0.950 1_554 S
C461 C460 1.327 1_655 S
C461 C465 1.429 . S
C462 C445 1.574 . S
C462 H456 0.949 . S
C462 C466 1.368 . S
C463 C444 1.429 . S
C463 C457 1.429 . S
C463 C464 1.523 . S
C464 C445 1.368 1_556 S
C464 C458 1.368 . S
C464 C463 1.523 . S
C465 C449 1.429 . S
C465 C461 1.429 . S
C465 C466 1.523 . S
C466 C450 1.368 1_554 S
C466 C462 1.368 . S
C466 C465 1.523 . S
H467 C442 0.950 . S
H468 C444 0.950 . S
H469 C445 0.949 . S
H470 C447 0.950 . S
H471 C449 0.950 . S
C472 C473 1.349 . S
C472 C474 1.327 . S
C472 H497 0.950 . S
C473 C472 1.349 . S
C473 C489 1.349 . S
C474 C472 1.327 . S
C474 C493 1.429 . S
C474 H498 0.950 . S
C475 C492 1.574 . S
C475 C494 1.368 . S
C475 H499 0.949 . S
H476 C480 0.949 . S
C477 C478 1.349 . S
C477 C479 1.327 . S
C477 H500 0.950 . S
C478 C477 1.349 . S
C478 C490 1.349 . S
C479 C477 1.327 . S
C479 C495 1.429 . S
C479 H501 0.950 . S
C480 H476 0.949 . S
C480 C488 1.574 . S
C480 C496 1.368 . S
H481 C489 0.950 . S
H482 C487 0.950 . S
H483 C488 0.949 . S
H484 C490 0.950 . S
H485 C491 0.950 . S
H486 C492 0.949 . S
C487 H482 0.950 . S
C487 C489 1.327 . S
C487 C493 1.429 . S
C488 C480 1.574 . S
C488 H483 0.949 . S
C488 C494 1.368 . S
C489 C473 1.349 . S
C489 H481 0.950 . S
C489 C487 1.327 . S
C490 C478 1.349 . S
C490 H484 0.950 . S
C490 C491 1.327 . S
C491 H485 0.950 . S
C491 C490 1.327 . S
C491 C495 1.429 . S
C492 C475 1.574 . S
C492 H486 0.949 . S
C492 C496 1.368 . S
C493 C474 1.429 . S
C493 C487 1.429 . S
C493 C494 1.523 . S
C494 C475 1.368 . S
C494 C488 1.368 . S
C494 C493 1.523 . S
C495 C479 1.429 . S
C495 C491 1.429 . S
C495 C496 1.523 . S
C496 C480 1.368 . S
C496 C492 1.368 . S
C496 C495 1.523 . S
H497 C472 0.950 . S
H498 C474 0.950 . S
H499 C475 0.949 . S
H500 C477 0.950 . S
H501 C479 0.950 . S
C502 C503 1.349 . S
C502 C504 1.327 . S
C502 H527 0.950 . S
C503 C502 1.349 . S
C503 C519 1.349 . S
C504 C502 1.327 . S
C504 C523 1.429 . S
C504 H528 0.950 . S
C505 C522 1.574 . S
C505 C524 1.368 . S
C505 H529 0.949 . S
H506 C510 0.949 . S
C507 C508 1.349 . S
C507 C509 1.327 . S
C507 H530 0.950 . S
C508 C507 1.349 . S
C508 C520 1.349 . S
C509 C507 1.327 . S
C509 C525 1.429 . S
C509 H531 0.950 . S
C510 H506 0.949 . S
C510 C518 1.574 . S
C510 C526 1.368 . S
H511 C519 0.950 . S
H512 C517 0.950 . S
H513 C518 0.949 . S
H514 C520 0.950 . S
H515 C521 0.950 . S
H516 C522 0.949 . S
C517 H512 0.950 . S
C517 C519 1.327 . S
C517 C523 1.429 . S
C518 C510 1.574 . S
C518 H513 0.949 . S
C518 C524 1.368 . S
C519 C503 1.349 . S
C519 H511 0.950 . S
C519 C517 1.327 . S
C520 C508 1.349 . S
C520 H514 0.950 . S
C520 C521 1.327 . S
C521 H515 0.950 . S
C521 C520 1.327 . S
C521 C525 1.429 . S
C522 C505 1.574 . S
C522 H516 0.949 . S
C522 C526 1.368 . S
C523 C504 1.429 . S
C523 C517 1.429 . S
C523 C524 1.523 . S
C524 C505 1.368 . S
C524 C518 1.368 . S
C524 C523 1.523 . S
C525 C509 1.429 . S
C525 C521 1.429 . S
C525 C526 1.523 . S
C526 C510 1.368 . S
C526 C522 1.368 . S
C526 C525 1.523 . S
H527 C502 0.950 . S
H528 C504 0.950 . S
H529 C505 0.949 . S
H530 C507 0.950 . S
H531 C509 0.950 . S
C532 C533 1.349 . S
C532 C534 1.327 . S
C532 H557 0.950 . S
C533 C532 1.349 . S
C533 C549 1.349 . S
C534 C532 1.327 . S
C534 C553 1.429 . S
C534 H558 0.950 . S
C535 C552 1.574 . S
C535 C554 1.368 . S
C535 H559 0.949 . S
H536 C540 0.949 . S
C537 C538 1.349 . S
C537 C539 1.327 . S
C537 H560 0.950 . S
C538 C537 1.349 . S
C538 C550 1.349 . S
C539 C537 1.327 . S
C539 C555 1.429 . S
C539 H561 0.950 . S
C540 H536 0.949 . S
C540 C548 1.574 . S
C540 C556 1.368 . S
H541 C549 0.950 . S
H542 C547 0.950 . S
H543 C548 0.949 . S
H544 C550 0.950 . S
H545 C551 0.950 . S
H546 C552 0.949 . S
C547 H542 0.950 . S
C547 C549 1.327 . S
C547 C553 1.429 . S
C548 C540 1.574 . S
C548 H543 0.949 . S
C548 C554 1.368 . S
C549 C533 1.349 . S
C549 H541 0.950 . S
C549 C547 1.327 . S
C550 C538 1.349 . S
C550 H544 0.950 . S
C550 C551 1.327 . S
C551 H545 0.950 . S
C551 C550 1.327 . S
C551 C555 1.429 . S
C552 C535 1.574 . S
C552 H546 0.949 . S
C552 C556 1.368 . S
C553 C534 1.429 . S
C553 C547 1.429 . S
C553 C554 1.523 . S
C554 C535 1.368 . S
C554 C548 1.368 . S
C554 C553 1.523 . S
C555 C539 1.429 . S
C555 C551 1.429 . S
C555 C556 1.523 . S
C556 C540 1.368 . S
C556 C552 1.368 . S
C556 C555 1.523 . S
H557 C532 0.950 . S
H558 C534 0.950 . S
H559 C535 0.949 . S
H560 C537 0.950 . S
H561 C539 0.950 . S
C562 C563 1.349 . S
C562 C564 1.327 . S
C562 H587 0.950 . S
C563 C562 1.349 . S
C563 C579 1.349 . S
C564 C562 1.327 . S
C564 C583 1.429 . S
C564 H588 0.950 . S
C565 C582 1.574 . S
C565 C584 1.368 . S
C565 H589 0.949 . S
H566 C570 0.949 . S
C567 C568 1.349 . S
C567 C569 1.327 . S
C567 H590 0.950 . S
C568 C567 1.349 . S
C568 C580 1.349 . S
C569 C567 1.327 . S
C569 C585 1.429 . S
C569 H591 0.950 . S
C570 H566 0.949 . S
C570 C578 1.574 . S
C570 C586 1.368 . S
H571 C579 0.950 . S
H572 C577 0.950 . S
H573 C578 0.949 . S
H574 C580 0.950 . S
H575 C581 0.950 . S
H576 C582 0.949 . S
C577 H572 0.950 . S
C577 C579 1.327 . S
C577 C583 1.429 . S
C578 C570 1.574 . S
C578 H573 0.949 . S
C578 C584 1.368 . S
C579 C563 1.349 . S
C579 H571 0.950 . S
C579 C577 1.327 . S
C580 C568 1.349 . S
C580 H574 0.950 . S
C580 C581 1.327 . S
C581 H575 0.950 . S
C581 C580 1.327 . S
C581 C585 1.429 . S
C582 C565 1.574 . S
C582 H576 0.949 . S
C582 C586 1.368 . S
C583 C564 1.429 . S
C583 C577 1.429 . S
C583 C584 1.523 . S
C584 C565 1.368 . S
C584 C578 1.368 . S
C584 C583 1.523 . S
C585 C569 1.429 . S
C585 C581 1.429 . S
C585 C586 1.523 . S
C586 C570 1.368 . S
C586 C582 1.368 . S
C586 C585 1.523 . S
H587 C562 0.950 . S
H588 C564 0.950 . S
H589 C565 0.949 . S
H590 C567 0.950 . S
H591 C569 0.950 . S
C113 C34 1.379 . S
C118 C6 1.379 . S
C143 C48 1.379 . S
C148 C20 1.379 . S
C173 C62 1.379 . S
C178 C90 1.379 . S
C203 C76 1.379 . S
C208 C104 1.379 . S
C233 C22 1.379 . S
C238 C9 1.339 . S
C263 C23 1.339 . S
C268 C36 1.379 . S
C293 C50 1.379 . S
C298 C37 1.339 . S
C323 C51 1.339 . S
C328 C8 1.379 . S
C353 C106 1.379 . S
C358 C65 1.339 . S
C383 C79 1.339 . S
C388 C64 1.379 . S
C413 C93 1.339 . S
C418 C78 1.379 . S
C443 C107 1.339 . S
C448 C92 1.379 . S
C473 C7 1.628 . S
C478 C77 1.628 . S
C503 C91 1.628 . S
C508 C21 1.628 . S
C533 C35 1.628 . S
C538 C105 1.628 . S
C563 C49 1.628 . S
C568 C63 1.628 . S
