# Generated by pormake.
# Topology can, (4)-cn, num edge types: 1
# Building blocks:
#     Node 0, Type 0, BuildingBlock: TATPOV_clean_sbu_0, # of connection points: 4
#     Node 1, Type 0, BuildingBlock: TATPOV_clean_sbu_0, # of connection points: 4
#     Node 2, Type 0, BuildingBlock: TATPOV_clean_sbu_0, # of connection points: 4
#     Node 3, Type 0, BuildingBlock: TATPOV_clean_sbu_0, # of connection points: 4
#     Node 4, Type 0, BuildingBlock: TATPOV_clean_sbu_0, # of connection points: 4
#     Node 5, Type 0, BuildingBlock: TATPOV_clean_sbu_0, # of connection points: 4
#     Node 6, Type 0, BuildingBlock: TATPOV_clean_sbu_0, # of connection points: 4
#     Node 7, Type 0, BuildingBlock: TATPOV_clean_sbu_0, # of connection points: 4
#     Node 8, Type 0, BuildingBlock: TATPOV_clean_sbu_0, # of connection points: 4
#     Node 9, Type 0, BuildingBlock: TATPOV_clean_sbu_0, # of connection points: 4
#     Node 10, Type 0, BuildingBlock: TATPOV_clean_sbu_0, # of connection points: 4
#     Node 11, Type 0, BuildingBlock: TATPOV_clean_sbu_0, # of connection points: 4
#     Edge 12, Type (0, 0), BuildingBlock: AJUNOK_clean_linker_0, # of connection points: 2
#     Edge 13, Type (0, 0), BuildingBlock: AJUNOK_clean_linker_0, # of connection points: 2
#     Edge 14, Type (0, 0), BuildingBlock: AJUNOK_clean_linker_0, # of connection points: 2
#     Edge 15, Type (0, 0), BuildingBlock: AJUNOK_clean_linker_0, # of connection points: 2
#     Edge 16, Type (0, 0), BuildingBlock: AJUNOK_clean_linker_0, # of connection points: 2
#     Edge 17, Type (0, 0), BuildingBlock: AJUNOK_clean_linker_0, # of connection points: 2
#     Edge 18, Type (0, 0), BuildingBlock: AJUNOK_clean_linker_0, # of connection points: 2
#     Edge 19, Type (0, 0), BuildingBlock: AJUNOK_clean_linker_0, # of connection points: 2
#     Edge 20, Type (0, 0), BuildingBlock: AJUNOK_clean_linker_0, # of connection points: 2
#     Edge 21, Type (0, 0), BuildingBlock: AJUNOK_clean_linker_0, # of connection points: 2
#     Edge 22, Type (0, 0), BuildingBlock: AJUNOK_clean_linker_0, # of connection points: 2
#     Edge 23, Type (0, 0), BuildingBlock: AJUNOK_clean_linker_0, # of connection points: 2
#     Edge 24, Type (0, 0), BuildingBlock: AJUNOK_clean_linker_0, # of connection points: 2
#     Edge 25, Type (0, 0), BuildingBlock: AJUNOK_clean_linker_0, # of connection points: 2
#     Edge 26, Type (0, 0), BuildingBlock: AJUNOK_clean_linker_0, # of connection points: 2
#     Edge 27, Type (0, 0), BuildingBlock: AJUNOK_clean_linker_0, # of connection points: 2
#     Edge 28, Type (0, 0), BuildingBlock: AJUNOK_clean_linker_0, # of connection points: 2
#     Edge 29, Type (0, 0), BuildingBlock: AJUNOK_clean_linker_0, # of connection points: 2
#     Edge 30, Type (0, 0), BuildingBlock: AJUNOK_clean_linker_0, # of connection points: 2
#     Edge 31, Type (0, 0), BuildingBlock: AJUNOK_clean_linker_0, # of connection points: 2
#     Edge 32, Type (0, 0), BuildingBlock: AJUNOK_clean_linker_0, # of connection points: 2
#     Edge 33, Type (0, 0), BuildingBlock: AJUNOK_clean_linker_0, # of connection points: 2
#     Edge 34, Type (0, 0), BuildingBlock: AJUNOK_clean_linker_0, # of connection points: 2
#     Edge 35, Type (0, 0), BuildingBlock: AJUNOK_clean_linker_0, # of connection points: 2
# Relax obj value: 0.055
# Max RMSD: 0.074
# Mean RMSD: 0.074
data_MOF--net-can--node1-TATPOV_clean_sbu_0--edge1-AJUNOK_clean_linker_0
_symmetry_space_group_name_H-M    P1
_symmetry_Int_Tables_number       1
_symmetry_cell_setting            triclinic
loop_
_symmetry_equiv_pos_as_xyz
'x, y, z'
_cell_length_a     41.629003
_cell_length_b     41.541032
_cell_length_c     20.722581
_cell_angle_alpha  89.706322
_cell_angle_beta   90.089926
_cell_angle_gamma 120.32012
loop_
_atom_site_label
_atom_site_type_symbol
_atom_site_fract_x
_atom_site_fract_y
_atom_site_fract_z
_atom_type_partial_charge
Zn0 Zn 1.02557 0.3923 0.22007 0.0
Zn1 Zn 0.09851 0.42341 0.22194 0.0
O2 O 0.07809 0.39109 0.30535 0.0
O3 O 1.01712 0.36144 0.29899 0.0
O4 O 0.15349 0.43917 0.22333 0.0
O5 O 1.02027 0.3704 0.1326 0.0
O6 O 0.08125 0.39802 0.13258 0.0
C7 C 0.04623 0.36811 0.32917 0.0
C8 C 0.06633 0.4741 0.2306 0.0
O9 O 0.09569 0.47175 0.22705 0.0
O10 O 0.03456 0.44472 0.22934 0.0
C11 C 0.1613 0.41363 0.2137 0.0
O12 O 0.13377 0.37953 0.20359 0.0
C13 C 0.05016 0.3783 0.10396 0.0
Zn14 Zn 0.65612 1.00971 0.71614 0.0
Zn15 Zn 0.69834 0.08307 0.71868 0.0
O16 O 0.70536 0.06335 0.80702 0.0
O17 O 0.67219 1.00222 0.80281 0.0
O18 O 0.73819 0.13834 0.71779 0.0
O19 O 0.6787 1.00344 0.63593 0.0
O20 O 0.70999 0.06464 0.63387 0.0
C21 C 0.6938 0.03153 0.83353 0.0
C22 C 0.61522 0.05042 0.7095 0.0
O23 O 0.64712 0.07989 0.71398 0.0
O24 O 0.61272 1.01869 0.70892 0.0
C25 C 0.77061 0.14747 0.73799 0.0
O26 O 0.77647 0.12113 0.75985 0.0
C27 C 0.7012 0.03352 0.60761 0.0
Zn28 Zn 0.6608 0.64848 0.21339 0.0
Zn29 Zn 0.63181 0.69171 0.21024 0.0
O30 O 0.66033 0.70241 0.29785 0.0
O31 O 0.68878 0.67003 0.29449 0.0
O32 O 0.61935 0.73305 0.19959 0.0
O33 O 0.68645 0.66403 0.12838 0.0
O34 O 0.66033 0.69851 0.12465 0.0
C35 C 0.68173 0.69232 0.32396 0.0
C36 C 0.57879 0.60891 0.21764 0.0
O37 O 0.58213 0.64112 0.21305 0.0
O38 O 0.6076 0.60584 0.21896 0.0
C39 C 0.61587 0.752 0.24423 0.0
O40 O 0.61772 0.7433 0.30459 0.0
C41 C 0.6803 0.68691 0.09839 0.0
Zn42 Zn 0.03123 0.64927 0.70589 0.0
Zn43 Zn 0.95818 0.61838 0.70615 0.0
O44 O 0.97647 0.64407 0.79527 0.0
O45 O 0.03743 0.67136 0.79337 0.0
O46 O 0.90326 0.60307 0.70452 0.0
O47 O 0.03912 0.68011 0.62718 0.0
O48 O 0.97811 0.65039 0.6226 0.0
C49 C 1.00788 0.66378 0.82293 0.0
C50 C 0.98995 0.56741 0.69607 0.0
O51 O 0.9607 0.56989 0.70079 0.0
O52 O 1.02179 0.59671 0.69628 0.0
C53 C 0.8951 0.62733 0.72268 0.0
O54 O 0.92213 0.66003 0.74159 0.0
C55 C 1.00971 0.67333 0.59793 0.0
Zn56 Zn 0.40092 0.03018 0.22354 0.0
Zn57 Zn 0.35921 0.95703 0.22678 0.0
O58 O 0.34868 0.97749 0.31071 0.0
O59 O 0.38019 0.03861 0.304 0.0
O60 O 0.31979 0.90171 0.2298 0.0
O61 O 0.38287 0.03534 0.1372 0.0
O62 O 0.3505 0.97411 0.13726 0.0
C63 C 0.35815 1.00932 0.3348 0.0
C64 C 0.44254 0.99032 0.23174 0.0
O65 O 0.41065 0.96066 0.23048 0.0
O66 O 0.44481 0.02194 0.22971 0.0
C67 C 0.28623 0.89311 0.21929 0.0
O68 O 0.27933 0.92009 0.20683 0.0
C69 C 0.36111 1.00522 0.10873 0.0
Zn70 Zn 0.39287 0.38956 0.70908 0.0
Zn71 Zn 0.42349 0.34773 0.70519 0.0
O72 O 0.39612 0.33747 0.79363 0.0
O73 O 0.36623 0.36847 0.79182 0.0
O74 O 0.43684 0.30683 0.69704 0.0
O75 O 0.36612 0.37288 0.62541 0.0
O76 O 0.39383 0.33991 0.62031 0.0
C77 C 0.37454 0.34684 0.8208 0.0
C78 C 0.4751 0.43078 0.70989 0.0
O79 O 0.47257 0.3989 0.70611 0.0
O80 O 0.44578 0.43294 0.71168 0.0
C81 C 0.43789 0.28739 0.74386 0.0
O82 O 0.43292 0.2956 0.80274 0.0
C83 C 0.37278 0.35063 0.595 0.0
Zn84 Zn 0.66777 0.04276 0.2243 0.0
Zn85 Zn 0.64091 0.96961 0.22626 0.0
O86 O 0.6675 0.98778 0.13745 0.0
O87 O 0.69126 0.04859 0.13796 0.0
O88 O 0.62764 0.91532 0.23459 0.0
O89 O 0.69771 0.05271 0.3047 0.0
O90 O 0.67205 0.99183 0.30925 0.0
C91 C 0.68618 1.01951 0.10962 0.0
C92 C 0.5862 0.99738 0.23143 0.0
O93 O 0.59111 0.96946 0.22916 0.0
O94 O 0.6141 0.0302 0.23055 0.0
C95 C 0.62187 0.89317 0.18802 0.0
O96 O 0.62275 0.90495 0.12876 0.0
C97 C 0.69291 0.02387 0.33406 0.0
Zn98 Zn 0.64416 0.65809 0.71124 0.0
Zn99 Zn 0.69239 0.63476 0.7104 0.0
O100 O 0.70028 0.66359 0.62397 0.0
O101 O 0.66158 0.68494 0.62734 0.0
O102 O 0.73775 0.62864 0.71733 0.0
O103 O 0.66115 0.68594 0.79393 0.0
O104 O 0.69759 0.66205 0.79649 0.0
C105 C 0.68662 0.68206 0.59813 0.0
C106 C 0.61136 0.57608 0.71204 0.0
O107 O 0.64474 0.58249 0.7095 0.0
O108 O 0.60532 0.60312 0.71336 0.0
C109 C 0.74577 0.60571 0.69214 0.0
O110 O 0.72167 0.5797 0.65352 0.0
C111 C 0.68498 0.68102 0.82322 0.0
Zn112 Zn 1.00509 0.6386 0.21806 0.0
Zn113 Zn 0.07618 0.68856 0.21389 0.0
O114 O 0.05314 0.69023 0.12559 0.0
O115 O 0.99323 0.64981 0.13066 0.0
O116 O 0.12753 0.73537 0.20908 0.0
O117 O 0.9942 0.65883 0.2965 0.0
O118 O 0.0547 0.69661 0.29902 0.0
C119 C 1.02098 0.67414 0.09934 0.0
C120 C 0.0559 0.60851 0.2278 0.0
O121 O 0.08234 0.64216 0.22094 0.0
O122 O 1.0224 0.60123 0.22856 0.0
C123 C 0.15848 0.74095 0.23127 0.0
O124 O 0.15972 0.71347 0.26053 0.0
C125 C 1.02267 0.68396 0.32487 0.0
Zn126 Zn 0.3901 0.99734 0.71632 0.0
Zn127 Zn 0.41658 0.07043 0.72067 0.0
O128 O 0.38677 0.05285 0.63487 0.0
O129 O 0.36143 0.99185 0.6358 0.0
O130 O 0.42954 0.12438 0.73186 0.0
O131 O 0.36536 0.98681 0.80263 0.0
O132 O 0.3887 0.04739 0.80631 0.0
C133 C 0.36615 0.02119 0.60839 0.0
C134 C 0.47169 0.04339 0.71037 0.0
O135 O 0.46657 0.0711 0.71527 0.0
O136 O 0.44393 1.01049 0.70949 0.0
C137 C 0.43358 0.14736 0.68736 0.0
O138 O 0.43098 0.13694 0.62691 0.0
C139 C 0.37013 1.01529 0.83269 0.0
Zn140 Zn 0.4116 0.38253 0.21093 0.0
Zn141 Zn 0.3624 0.40444 0.20604 0.0
O142 O 0.35802 0.37646 0.12063 0.0
O143 O 0.39823 0.35709 0.12575 0.0
O144 O 0.31646 0.40982 0.20171 0.0
O145 O 0.39166 0.3532 0.29201 0.0
O146 O 0.3547 0.37656 0.29315 0.0
C147 C 0.37313 0.35937 0.0953 0.0
C148 C 0.44297 0.46412 0.21473 0.0
O149 O 0.40953 0.45713 0.20859 0.0
O150 O 0.44967 0.43753 0.21703 0.0
C151 C 0.31217 0.43665 0.21987 0.0
O152 O 0.34072 0.4667 0.24388 0.0
C153 C 0.36718 0.35742 0.3203 0.0
Zn154 Zn 0.05159 0.40342 0.70836 0.0
Zn155 Zn 0.98067 0.35335 0.71515 0.0
O156 O 1.00029 0.34394 0.62878 0.0
O157 O 0.06083 0.38192 0.62988 0.0
O158 O 0.92955 0.30701 0.72704 0.0
O159 O 0.06529 0.39367 0.79542 0.0
O160 O 1.00557 0.35295 0.8019 0.0
C161 C 0.03217 0.35657 0.60224 0.0
C162 C 1.00054 0.4332 0.69952 0.0
O163 O 0.97429 0.39957 0.70761 0.0
O164 O 0.03407 0.44062 0.69776 0.0
C165 C 0.89892 0.29689 0.69813 0.0
O166 O 0.89763 0.31867 0.65325 0.0
C167 C 0.0379 0.36934 0.82742 0.0
C168 C 1.01377 0.34843 0.00408 0.0
C169 C 0.04866 0.36893 0.03455 0.0
C170 C 1.01072 0.34613 0.93681 0.0
C171 C 0.04239 0.3643 0.89717 0.0
H172 H 0.98833 0.33577 0.03212 0.0
H173 H 0.98307 0.33198 0.91595 0.0
S174 S 0.14066 0.41453 0.95289 0.0
N175 N 0.11588 0.40254 0.01998 0.0
N176 N 0.11016 0.39819 0.89341 0.0
C177 C 0.07765 0.38166 0.927 0.0
C178 C 0.08076 0.38394 -0.00429 0.0
C179 C 0.72103 0.06195 0.43304 0.0
C180 C 0.70585 0.02723 0.40179 0.0
C181 C 0.72336 0.06444 0.50038 0.0
C182 C 0.71061 0.03232 0.53899 0.0
H183 H 0.72843 0.0871 0.40587 0.0
H184 H 0.73221 0.09131 0.52211 0.0
S185 S 0.67935 0.93663 0.48024 0.0
N186 N 0.68583 0.96143 0.41399 0.0
N187 N 0.69034 0.96612 0.54067 0.0
C188 C 0.7003 0.99831 0.50809 0.0
C189 C 0.69787 0.99576 0.43941 0.0
C190 C 0.67299 0.70912 -0.00967 0.0
C191 C 0.69065 0.69486 0.02932 0.0
C192 C 0.67412 0.70761 0.92301 0.0
C193 C 0.69299 0.69182 0.89205 0.0
H194 H 0.65583 0.71901 0.01167 0.0
H195 H 0.65787 0.71655 0.8954 0.0
S196 S 0.75196 0.6599 -0.02792 0.0
N197 N 0.73365 0.67131 0.03209 0.0
N198 N 0.73579 0.66849 0.9054 0.0
C199 C 0.71447 0.68166 0.9303 0.0
C200 C 0.71327 0.68315 -0.001 0.0
C201 C 0.05107 0.70805 0.4328 0.0
C202 C 1.01934 0.69239 0.39319 0.0
C203 C 0.04775 0.70519 0.50007 0.0
C204 C 1.01257 0.6865 0.53028 0.0
H205 H 0.0786 0.71971 0.41194 0.0
H206 H 0.07297 0.71504 0.52807 0.0
S207 S 0.92148 0.65105 0.44876 0.0
N208 N 0.95207 0.66533 0.38931 0.0
N209 N 0.94586 0.65975 0.51587 0.0
C210 C 0.98093 0.67541 0.49159 0.0
C211 C 0.98432 0.67841 0.42297 0.0
C212 C 0.34572 0.9772 0.93354 0.0
C213 C 0.35897 1.01166 0.90155 0.0
C214 C 0.34315 0.97459 0.00093 0.0
C215 C 0.35377 1.00634 0.03895 0.0
H216 H 0.33956 0.95239 0.90682 0.0
H217 H 0.3354 0.948 0.02327 0.0
S218 S 0.38144 0.1012 -0.02165 0.0
N219 N 0.37631 0.07679 0.91262 0.0
N220 N 0.37144 0.07187 0.03928 0.0
C221 C 0.36309 0.04007 0.00734 0.0
C222 C 0.36571 0.04274 0.93864 0.0
C223 C 0.37696 0.32928 0.41971 0.0
C224 C 0.35868 0.34592 0.38899 0.0
C225 C 0.37845 0.32765 0.48701 0.0
C226 C 0.36167 0.34254 0.52627 0.0
H227 H 0.39264 0.31986 0.39186 0.0
H228 H 0.39528 0.3172 0.50806 0.0
S229 S 0.30169 0.37955 0.46993 0.0
N230 N 0.31712 0.3706 0.40299 0.0
N231 N 0.3197 0.36734 0.52965 0.0
C232 C 0.33935 0.35488 0.49628 0.0
C233 C 0.33788 0.35659 0.42756 0.0
C234 C 0.04529 0.69261 0.92242 0.0
C235 C 1.01018 0.67369 0.89222 0.0
C236 C 0.04859 0.69536 -0.01036 0.0
C237 C 1.01692 0.67926 0.02949 0.0
H238 H 0.07061 0.70359 0.89427 0.0
H239 H 0.07622 0.70807 0.01038 0.0
S240 S 0.91868 0.63422 -0.02566 0.0
N241 N 0.94318 0.64412 0.90713 0.0
N242 N 0.94934 0.64932 0.03362 0.0
C243 C 0.9817 0.66362 -0.00017 0.0
C244 C 0.97834 0.66086 0.93119 0.0
C245 C 0.36898 0.04771 0.43361 0.0
C246 C 0.34982 1.01261 0.40332 0.0
C247 C 0.37096 0.05077 0.50094 0.0
C248 C 0.35374 1.01886 0.54052 0.0
H249 H 0.3852 0.0729 0.40544 0.0
H250 H 0.38871 0.07806 0.52167 0.0
S251 S 0.29088 0.92173 0.48544 0.0
N252 N 0.30661 0.94624 0.41816 0.0
N253 N 0.31 0.95196 0.54478 0.0
C254 C 0.33032 0.98419 0.51097 0.0
C255 C 0.32842 0.98107 0.44231 0.0
C256 C 0.3875 0.33051 0.92998 0.0
C257 C 0.36547 0.33921 0.89037 0.0
C258 C 0.38752 0.33422 -0.00291 0.0
C259 C 0.3655 0.34676 0.02719 0.0
H260 H 0.40711 0.32366 0.90899 0.0
H261 H 0.4069 0.32963 0.02493 0.0
S262 S 0.29568 0.36359 0.9462 0.0
N263 N 0.31569 0.35375 0.88684 0.0
N264 N 0.31583 0.36086 0.01303 0.0
C265 C 0.34015 0.35127 -0.01125 0.0
C266 C 0.3401 0.34744 0.92032 0.0
C267 C 1.0037 0.33365 0.49389 0.0
C268 C 0.03524 0.34804 0.53384 0.0
C269 C 1.00734 0.33684 0.42664 0.0
C270 C 0.04265 0.35464 0.3968 0.0
H271 H 0.97622 0.32283 0.51452 0.0
H272 H 0.98235 0.328 0.39842 0.0
S273 S 0.13292 0.38661 0.47919 0.0
N274 N 0.10217 0.3729 0.53831 0.0
N275 N 0.10897 0.37916 0.41186 0.0
C276 C 0.07391 0.36446 0.43578 0.0
C277 C 0.0702 0.36109 0.50435 0.0
C278 C 0.68074 0.9934 0.93413 0.0
C279 C 0.70038 0.02845 0.90317 0.0
C280 C 0.67893 0.99032 0.00151 0.0
C281 C 0.69672 0.02215 0.04061 0.0
H282 H 0.66451 0.96821 0.90638 0.0
H283 H 0.66126 0.96303 0.02274 0.0
S284 S 0.7594 0.11933 -0.01616 0.0
N285 N 0.74353 0.09484 0.91698 0.0
N286 N 0.74031 0.08909 0.04367 0.0
C287 C 0.71983 0.05688 0.01041 0.0
C288 C 0.72163 0.06002 0.94169 0.0
C289 C 0.71065 0.68293 0.4226 0.0
C290 C 0.69268 0.70024 0.39291 0.0
C291 C 0.71176 0.68018 0.48982 0.0
C292 C 0.69508 0.69474 0.53 0.0
H293 H 0.72151 0.66882 0.39392 0.0
H294 H 0.72322 0.66399 0.50993 0.0
S295 S 0.65436 0.75216 0.47715 0.0
N296 N 0.66502 0.739 0.40935 0.0
N297 N 0.66727 0.73408 0.53579 0.0
C298 C 0.68141 0.71631 0.50127 0.0
C299 C 0.68022 0.71904 0.43267 0.0
C300 C 0.03407 0.54299 0.26028 0.0
C301 C 0.06272 0.57678 0.23459 0.0
C302 C 0.03655 0.51074 0.26092 0.0
C303 C 0.06784 0.51052 0.23602 0.0
H304 H 1.00884 0.54103 0.27894 0.0
H305 H 1.01313 0.48543 0.28 0.0
S306 S 0.15218 0.59227 0.16803 0.0
N307 N 0.12472 0.60878 0.18732 0.0
N308 N 0.12944 0.54769 0.18864 0.0
C309 C 0.09773 0.54449 0.21322 0.0
C310 C 0.09516 0.5777 0.21249 0.0
C311 C 0.51306 1.01781 0.6865 0.0
C312 C 0.50962 0.04834 0.70598 0.0
C313 C 0.5474 1.01952 0.68622 0.0
C314 C 0.58024 0.05184 0.70542 0.0
H315 H 0.48883 0.99188 0.67197 0.0
H316 H 0.54795 0.99481 0.67151 0.0
S317 S 0.58724 0.14055 0.75744 0.0
N318 N 0.5425 0.11276 0.74234 0.0
N319 N 0.60749 0.11597 0.74185 0.0
C320 C 0.57769 0.08322 0.72285 0.0
C321 C 0.54235 0.08147 0.72312 0.0
C322 C 0.54046 0.54243 0.24983 0.0
C323 C 0.54194 0.57414 0.22222 0.0
C324 C 0.50792 0.5077 0.24903 0.0
C325 C 0.47504 0.50277 0.22054 0.0
H326 H 0.56502 0.54414 0.27134 0.0
H327 H 0.5089 0.48427 0.27001 0.0
S328 S 0.46289 0.57729 0.14582 0.0
N329 N 0.5069 0.599 0.16892 0.0
N330 N 0.44518 0.53316 0.16742 0.0
C331 C 0.47532 0.5345 0.19554 0.0
C332 C 0.50886 0.57029 0.19637 0.0
C333 C 1.01899 0.53039 0.66382 0.0
C334 C 0.98824 0.53091 0.69062 0.0
C335 C 1.02152 0.49816 0.66466 0.0
C336 C 0.99347 0.46473 0.69244 0.0
H337 H 0.04197 0.55546 0.64317 0.0
H338 H 0.04635 0.49988 0.64456 0.0
S339 S 0.90547 0.45007 0.76442 0.0
N340 N 0.92771 0.49437 0.74198 0.0
N341 N 0.93252 0.43333 0.74366 0.0
C342 C 0.96149 0.46407 0.71638 0.0
C343 C 0.95886 0.49724 0.71545 0.0
C344 C 0.51092 0.02238 0.25016 0.0
C345 C 0.47772 0.98925 0.23534 0.0
C346 C 0.54526 0.02408 0.24999 0.0
C347 C 0.54836 0.99276 0.23501 0.0
H348 H 0.51064 0.04767 0.26148 0.0
H349 H 0.56972 0.0506 0.26121 0.0
S350 S 0.46985 0.89851 0.19542 0.0
N351 N 0.44987 0.9237 0.2074 0.0
N352 N 0.51485 0.92691 0.2071 0.0
C353 C 0.51535 0.95897 0.22193 0.0
C354 C 0.48 0.95722 0.2221 0.0
C355 C 0.54441 0.53306 0.73567 0.0
C356 C 0.5786 0.5376 0.71478 0.0
C357 C 0.51186 0.49836 0.73511 0.0
C358 C 0.51158 0.46614 0.71363 0.0
H359 H 0.54245 0.55671 0.75222 0.0
H360 H 0.48648 0.49704 0.75128 0.0
S361 S 0.59394 0.46201 0.65678 0.0
N362 N 0.61067 0.50645 0.6743 0.0
N363 N 0.54895 0.44063 0.67323 0.0
C364 C 0.54574 0.46973 0.69458 0.0
C365 C 0.57931 0.50553 0.69516 0.0
C366 C 0.20736 0.39228 0.19991 0.0
C367 C 0.2004 0.42132 0.21425 0.0
C368 C 0.24345 0.39779 0.20107 0.0
C369 C 0.27446 0.43259 0.21693 0.0
H370 H 0.18469 0.36476 0.18783 0.0
H371 H 0.24688 0.37423 0.19009 0.0
S372 S 0.27187 0.51841 0.25648 0.0
N373 N 0.22792 0.48666 0.24338 0.0
N374 N 0.29581 0.49702 0.24582 0.0
C375 C 0.26808 0.46212 0.23071 0.0
C376 C 0.23114 0.4565 0.22928 0.0
C377 C 0.83232 0.24721 0.6773 0.0
C378 C 0.86552 0.25974 0.71257 0.0
C379 C 0.80127 0.21141 0.68726 0.0
C380 C 0.80221 0.18653 0.73255 0.0
H381 H 0.83041 0.26488 0.64072 0.0
H382 H 0.77678 0.20282 0.65776 0.0
S383 S 0.88078 0.2066 0.84214 0.0
N384 N 0.89612 0.24488 0.79832 0.0
N385 N 0.83814 0.17793 0.81641 0.0
C386 C 0.83469 0.1991 0.76972 0.0
C387 C 0.86619 0.23556 0.75993 0.0
C388 C 0.61653 0.81032 0.27816 0.0
C389 C 0.61387 0.78607 0.22848 0.0
C390 C 0.61815 0.84427 0.26465 0.0
C391 C 0.6171 0.85557 0.20081 0.0
H392 H 0.61832 0.80356 0.3281 0.0
H393 H 0.62101 0.86211 0.30482 0.0
S394 S 0.60739 0.80101 0.05305 0.0
N395 N 0.60816 0.77493 0.1127 0.0
N396 N 0.61113 0.83852 0.08738 0.0
C397 C 0.61313 0.831 0.15069 0.0
C398 C 0.61154 0.79639 0.16447 0.0
C399 C 0.83007 0.59272 0.67762 0.0
C400 C 0.85627 0.62008 0.7193 0.0
C401 C 0.79424 0.58775 0.66999 0.0
C402 C 0.78305 0.60978 0.70402 0.0
H403 H 0.8376 0.5757 0.64921 0.0
H404 H 0.77546 0.56693 0.63614 0.0
S405 S 0.83996 0.68245 0.82487 0.0
N406 N 0.86756 0.66752 0.79878 0.0
N407 N 0.80058 0.65814 0.78503 0.0
C408 C 0.8086 0.63623 0.74784 0.0
C409 C 0.84506 0.64138 0.75529 0.0
C410 C 0.21908 0.8455 0.20224 0.0
C411 C 0.2549 0.85367 0.2213 0.0
C412 C 0.18852 0.80909 0.20479 0.0
C413 C 0.19216 0.77898 0.22693 0.0
H414 H 0.21435 0.86746 0.18524 0.0
H415 H 0.16166 0.80474 0.18992 0.0
S416 S 0.28012 0.78487 0.28113 0.0
N417 N 0.29241 0.82822 0.26194 0.0
N418 N 0.23497 0.75979 0.26708 0.0
C419 C 0.22792 0.78656 0.24555 0.0
C420 C 0.25922 0.82381 0.24262 0.0
C421 C 0.44067 0.24206 0.66731 0.0
C422 C 0.44045 0.25338 0.73122 0.0
C423 C 0.43948 0.20837 0.65378 0.0
C424 C 0.43805 0.18441 0.70349 0.0
H425 H 0.44083 0.25887 0.62706 0.0
H426 H 0.43886 0.20075 0.60369 0.0
S427 S 0.43982 0.20225 0.87945 0.0
N428 N 0.44089 0.23868 0.845 0.0
N429 N 0.43865 0.17561 0.81965 0.0
C430 C 0.43918 0.196 0.76772 0.0
C431 C 0.44039 0.23035 0.78152 0.0
loop_
_geom_bond_atom_site_label_1
_geom_bond_atom_site_label_2
_geom_bond_distance
_geom_bond_site_symmetry_2
_ccdc_geom_bond_type
Zn0 O3 2.031 . S
Zn0 O5 2.052 1_455 S
Zn0 O10 2.067 . S
Zn1 O2 1.962 . S
Zn1 O4 1.986 . S
Zn1 O6 1.996 . S
Zn1 O9 1.943 . S
O2 Zn1 1.962 . S
O2 C7 1.254 . S
O3 Zn0 2.031 . S
O3 C7 1.269 . S
O4 Zn1 1.986 . S
O4 C11 1.262 . S
O5 Zn0 2.052 1_655 S
O5 C13 1.227 1_655 S
O6 Zn1 1.996 . S
O6 C13 1.257 . S
C7 O2 1.254 . S
C7 O3 1.269 . S
C8 O9 1.249 . S
C8 O10 1.270 . S
O9 Zn1 1.943 . S
O9 C8 1.249 . S
O10 Zn0 2.067 . S
O10 C8 1.270 . S
C11 O4 1.262 . S
C11 O12 1.232 . S
O12 C11 1.232 . S
C13 O5 1.227 1_455 S
C13 O6 1.257 . S
Zn14 O17 2.031 . S
Zn14 O19 2.044 1_545 S
Zn14 O24 2.067 . S
Zn15 O16 1.962 . S
Zn15 O18 1.986 . S
Zn15 O20 1.996 . S
Zn15 O23 1.943 . S
O16 Zn15 1.962 . S
O16 C21 1.254 . S
O17 Zn14 2.031 . S
O17 C21 1.269 . S
O18 Zn15 1.986 . S
O18 C25 1.262 . S
O19 Zn14 2.044 1_565 S
O19 C27 1.251 1_565 S
O20 Zn15 1.996 . S
O20 C27 1.257 . S
C21 O16 1.254 . S
C21 O17 1.269 . S
C22 O23 1.249 . S
C22 O24 1.270 . S
O23 Zn15 1.943 . S
O23 C22 1.249 . S
O24 Zn14 2.067 . S
O24 C22 1.270 . S
C25 O18 1.262 . S
C25 O26 1.232 . S
O26 C25 1.232 . S
C27 O19 1.251 1_545 S
C27 O20 1.257 . S
Zn28 O31 2.031 . S
Zn28 O33 2.049 . S
Zn28 O38 2.067 . S
Zn29 O30 1.962 . S
Zn29 O32 1.986 . S
Zn29 O34 1.996 . S
Zn29 O37 1.943 . S
O30 Zn29 1.962 . S
O30 C35 1.254 . S
O31 Zn28 2.031 . S
O31 C35 1.269 . S
O32 Zn29 1.986 . S
O32 C39 1.262 . S
O33 Zn28 2.049 . S
O33 C41 1.260 . S
O34 Zn29 1.996 . S
O34 C41 1.257 . S
C35 O30 1.254 . S
C35 O31 1.269 . S
C36 O37 1.249 . S
C36 O38 1.270 . S
O37 Zn29 1.943 . S
O37 C36 1.249 . S
O38 Zn28 2.067 . S
O38 C36 1.270 . S
C39 O32 1.262 . S
C39 O40 1.232 . S
O40 C39 1.232 . S
C41 O33 1.260 . S
C41 O34 1.257 . S
Zn42 O45 2.031 . S
Zn42 O47 2.052 1_655 S
Zn42 O52 2.067 . S
Zn43 O44 1.962 . S
Zn43 O46 1.986 . S
Zn43 O48 1.996 . S
Zn43 O51 1.943 . S
O44 Zn43 1.962 . S
O44 C49 1.254 . S
O45 Zn42 2.031 . S
O45 C49 1.269 . S
O46 Zn43 1.986 . S
O46 C53 1.262 . S
O47 Zn42 2.052 1_455 S
O47 C55 1.227 1_455 S
O48 Zn43 1.996 . S
O48 C55 1.257 . S
C49 O44 1.254 . S
C49 O45 1.269 . S
C50 O51 1.249 . S
C50 O52 1.270 . S
O51 Zn43 1.943 . S
O51 C50 1.249 . S
O52 Zn42 2.067 . S
O52 C50 1.270 . S
C53 O46 1.262 . S
C53 O54 1.232 . S
O54 C53 1.232 . S
C55 O47 1.227 1_655 S
C55 O48 1.257 . S
Zn56 O59 2.031 . S
Zn56 O61 2.044 1_565 S
Zn56 O66 2.067 . S
Zn57 O58 1.962 . S
Zn57 O60 1.986 . S
Zn57 O62 1.996 . S
Zn57 O65 1.943 . S
O58 Zn57 1.962 . S
O58 C63 1.254 . S
O59 Zn56 2.031 . S
O59 C63 1.269 . S
O60 Zn57 1.986 . S
O60 C67 1.262 . S
O61 Zn56 2.044 1_545 S
O61 C69 1.251 1_545 S
O62 Zn57 1.996 . S
O62 C69 1.257 . S
C63 O58 1.254 . S
C63 O59 1.269 . S
C64 O65 1.249 . S
C64 O66 1.270 . S
O65 Zn57 1.943 . S
O65 C64 1.249 . S
O66 Zn56 2.067 . S
O66 C64 1.270 . S
C67 O60 1.262 . S
C67 O68 1.232 . S
O68 C67 1.232 . S
C69 O61 1.251 1_565 S
C69 O62 1.257 . S
Zn70 O73 2.031 . S
Zn70 O75 2.049 . S
Zn70 O80 2.067 . S
Zn71 O72 1.962 . S
Zn71 O74 1.986 . S
Zn71 O76 1.996 . S
Zn71 O79 1.943 . S
O72 Zn71 1.962 . S
O72 C77 1.254 . S
O73 Zn70 2.031 . S
O73 C77 1.269 . S
O74 Zn71 1.986 . S
O74 C81 1.262 . S
O75 Zn70 2.049 . S
O75 C83 1.260 . S
O76 Zn71 1.996 . S
O76 C83 1.257 . S
C77 O72 1.254 . S
C77 O73 1.269 . S
C78 O79 1.249 . S
C78 O80 1.270 . S
O79 Zn71 1.943 . S
O79 C78 1.249 . S
O80 Zn70 2.067 . S
O80 C78 1.270 . S
C81 O74 1.262 . S
C81 O82 1.232 . S
O82 C81 1.232 . S
C83 O75 1.260 . S
C83 O76 1.257 . S
Zn84 O87 2.031 . S
Zn84 O89 2.052 1_565 S
Zn84 O94 2.067 . S
Zn85 O86 1.962 . S
Zn85 O88 1.986 . S
Zn85 O90 1.996 . S
Zn85 O93 1.943 . S
O86 Zn85 1.962 . S
O86 C91 1.254 . S
O87 Zn84 2.031 . S
O87 C91 1.269 . S
O88 Zn85 1.986 . S
O88 C95 1.262 . S
O89 Zn84 2.052 1_545 S
O89 C97 1.227 1_545 S
O90 Zn85 1.996 . S
O90 C97 1.257 . S
C91 O86 1.254 . S
C91 O87 1.269 . S
C92 O93 1.249 . S
C92 O94 1.270 . S
O93 Zn85 1.943 . S
O93 C92 1.249 . S
O94 Zn84 2.067 . S
O94 C92 1.270 . S
C95 O88 1.262 . S
C95 O96 1.232 . S
O96 C95 1.232 . S
C97 O89 1.227 1_565 S
C97 O90 1.257 . S
Zn98 O101 2.031 . S
Zn98 O103 2.049 . S
Zn98 O108 2.067 . S
Zn99 O100 1.962 . S
Zn99 O102 1.986 . S
Zn99 O104 1.996 . S
Zn99 O107 1.943 . S
O100 Zn99 1.962 . S
O100 C105 1.254 . S
O101 Zn98 2.031 . S
O101 C105 1.269 . S
O102 Zn99 1.986 . S
O102 C109 1.262 . S
O103 Zn98 2.049 . S
O103 C111 1.260 . S
O104 Zn99 1.996 . S
O104 C111 1.257 . S
C105 O100 1.254 . S
C105 O101 1.269 . S
C106 O107 1.249 . S
C106 O108 1.270 . S
O107 Zn99 1.943 . S
O107 C106 1.249 . S
O108 Zn98 2.067 . S
O108 C106 1.270 . S
C109 O102 1.262 . S
C109 O110 1.232 . S
O110 C109 1.232 . S
C111 O103 1.260 . S
C111 O104 1.257 . S
Zn112 O115 2.031 . S
Zn112 O117 2.044 1_455 S
Zn112 O122 2.067 . S
Zn113 O114 1.962 . S
Zn113 O116 1.986 . S
Zn113 O118 1.996 . S
Zn113 O121 1.943 . S
O114 Zn113 1.962 . S
O114 C119 1.254 . S
O115 Zn112 2.031 . S
O115 C119 1.269 . S
O116 Zn113 1.986 . S
O116 C123 1.262 . S
O117 Zn112 2.044 1_655 S
O117 C125 1.251 1_655 S
O118 Zn113 1.996 . S
O118 C125 1.257 . S
C119 O114 1.254 . S
C119 O115 1.269 . S
C120 O121 1.249 . S
C120 O122 1.270 . S
O121 Zn113 1.943 . S
O121 C120 1.249 . S
O122 Zn112 2.067 . S
O122 C120 1.270 . S
C123 O116 1.262 . S
C123 O124 1.232 . S
O124 C123 1.232 . S
C125 O117 1.251 1_455 S
C125 O118 1.257 . S
Zn126 O129 2.031 . S
Zn126 O131 2.052 1_545 S
Zn126 O136 2.067 . S
Zn127 O128 1.962 . S
Zn127 O130 1.986 . S
Zn127 O132 1.996 . S
Zn127 O135 1.943 . S
O128 Zn127 1.962 . S
O128 C133 1.254 . S
O129 Zn126 2.031 . S
O129 C133 1.269 . S
O130 Zn127 1.986 . S
O130 C137 1.262 . S
O131 Zn126 2.052 1_565 S
O131 C139 1.227 1_565 S
O132 Zn127 1.996 . S
O132 C139 1.257 . S
C133 O128 1.254 . S
C133 O129 1.269 . S
C134 O135 1.249 . S
C134 O136 1.270 . S
O135 Zn127 1.943 . S
O135 C134 1.249 . S
O136 Zn126 2.067 . S
O136 C134 1.270 . S
C137 O130 1.262 . S
C137 O138 1.232 . S
O138 C137 1.232 . S
C139 O131 1.227 1_545 S
C139 O132 1.257 . S
Zn140 O143 2.031 . S
Zn140 O145 2.049 . S
Zn140 O150 2.067 . S
Zn141 O142 1.962 . S
Zn141 O144 1.986 . S
Zn141 O146 1.996 . S
Zn141 O149 1.943 . S
O142 Zn141 1.962 . S
O142 C147 1.254 . S
O143 Zn140 2.031 . S
O143 C147 1.269 . S
O144 Zn141 1.986 . S
O144 C151 1.262 . S
O145 Zn140 2.049 . S
O145 C153 1.260 . S
O146 Zn141 1.996 . S
O146 C153 1.257 . S
C147 O142 1.254 . S
C147 O143 1.269 . S
C148 O149 1.249 . S
C148 O150 1.270 . S
O149 Zn141 1.943 . S
O149 C148 1.249 . S
O150 Zn140 2.067 . S
O150 C148 1.270 . S
C151 O144 1.262 . S
C151 O152 1.232 . S
O152 C151 1.232 . S
C153 O145 1.260 . S
C153 O146 1.257 . S
Zn154 O157 2.031 . S
Zn154 O159 2.044 1_655 S
Zn154 O164 2.067 . S
Zn155 O156 1.962 . S
Zn155 O158 1.986 . S
Zn155 O160 1.996 . S
Zn155 O163 1.943 . S
O156 Zn155 1.962 . S
O156 C161 1.254 . S
O157 Zn154 2.031 . S
O157 C161 1.269 . S
O158 Zn155 1.986 . S
O158 C165 1.262 . S
O159 Zn154 2.044 1_455 S
O159 C167 1.251 1_455 S
O160 Zn155 1.996 . S
O160 C167 1.257 . S
C161 O156 1.254 . S
C161 O157 1.269 . S
C162 O163 1.249 . S
C162 O164 1.270 . S
O163 Zn155 1.943 . S
O163 C162 1.249 . S
O164 Zn154 2.067 . S
O164 C162 1.270 . S
C165 O158 1.262 . S
C165 O166 1.232 . S
O166 C165 1.232 . S
C167 O159 1.251 1_655 S
C167 O160 1.257 . S
C168 C169 1.369 . S
C168 C170 1.419 1_454 S
C168 H172 0.930 . S
C169 C168 1.369 . S
C169 C178 1.429 . S
C170 C168 1.419 1_656 S
C170 C171 1.363 . S
C170 H173 0.929 . S
C171 C170 1.363 . S
C171 C177 1.428 . S
H172 C168 0.930 . S
H173 C170 0.929 . S
S174 N175 1.613 1_556 S
S174 N176 1.610 1_455 S
N175 S174 1.613 1_554 S
N175 C178 1.350 . S
N176 S174 1.610 1_655 S
N176 C177 1.351 . S
C177 C171 1.428 . S
C177 N176 1.351 . S
C177 C178 1.434 1_656 S
C178 C169 1.429 . S
C178 N175 1.350 . S
C178 C177 1.434 1_454 S
C179 C180 1.369 1_545 S
C179 C181 1.419 . S
C179 H183 0.930 . S
C180 C179 1.369 1_565 S
C180 C189 1.429 . S
C181 C179 1.419 . S
C181 C182 1.363 . S
C181 H184 0.929 . S
C182 C181 1.363 . S
C182 C188 1.428 1_545 S
H183 C179 0.930 . S
H184 C181 0.929 . S
S185 N186 1.613 . S
S185 N187 1.610 . S
N186 S185 1.613 . S
N186 C189 1.350 . S
N187 S185 1.610 . S
N187 C188 1.351 . S
C188 C182 1.428 1_565 S
C188 N187 1.351 . S
C188 C189 1.434 . S
C189 C180 1.429 . S
C189 N186 1.350 . S
C189 C188 1.434 . S
C190 C191 1.369 . S
C190 C192 1.419 1_554 S
C190 H194 0.930 . S
C191 C190 1.369 . S
C191 C200 1.429 . S
C192 C190 1.419 1_556 S
C192 C193 1.363 . S
C192 H195 0.929 . S
C193 C192 1.363 . S
C193 C199 1.428 . S
H194 C190 0.930 . S
H195 C192 0.929 . S
S196 N197 1.613 . S
S196 N198 1.610 1_554 S
N197 S196 1.613 . S
N197 C200 1.350 . S
N198 S196 1.610 1_556 S
N198 C199 1.351 . S
C199 C193 1.428 . S
C199 N198 1.351 . S
C199 C200 1.434 1_556 S
C200 C191 1.429 . S
C200 N197 1.350 . S
C200 C199 1.434 1_554 S
C201 C202 1.369 . S
C201 C203 1.419 . S
C201 H205 0.930 . S
C202 C201 1.369 . S
C202 C211 1.429 1_455 S
C203 C201 1.419 . S
C203 C204 1.363 1_455 S
C203 H206 0.929 . S
C204 C203 1.363 1_655 S
C204 C210 1.428 . S
H205 C201 0.930 . S
H206 C203 0.929 . S
S207 N208 1.613 . S
S207 N209 1.610 . S
N208 S207 1.613 . S
N208 C211 1.350 . S
N209 S207 1.610 . S
N209 C210 1.351 . S
C210 C204 1.428 . S
C210 N209 1.351 . S
C210 C211 1.434 . S
C211 C202 1.429 1_655 S
C211 N208 1.350 . S
C211 C210 1.434 . S
C212 C213 1.369 . S
C212 C214 1.419 1_546 S
C212 H216 0.930 . S
C213 C212 1.369 . S
C213 C222 1.429 . S
C214 C212 1.419 1_564 S
C214 C215 1.363 . S
C214 H217 0.929 . S
C215 C214 1.363 . S
C215 C221 1.428 . S
H216 C212 0.930 . S
H217 C214 0.929 . S
S218 N219 1.613 1_554 S
S218 N220 1.588 1_545 S
N219 S218 1.613 1_556 S
N219 C222 1.350 . S
N220 S218 1.588 1_565 S
N220 C221 1.365 . S
C221 C215 1.428 . S
C221 N220 1.365 . S
C221 C222 1.434 1_564 S
C222 C213 1.429 . S
C222 N219 1.350 . S
C222 C221 1.434 1_546 S
C223 C224 1.369 . S
C223 C225 1.419 . S
C223 H227 0.930 . S
C224 C223 1.369 . S
C224 C233 1.429 . S
C225 C223 1.419 . S
C225 C226 1.363 . S
C225 H228 0.929 . S
C226 C225 1.363 . S
C226 C232 1.428 . S
H227 C223 0.930 . S
H228 C225 0.929 . S
S229 N230 1.613 . S
S229 N231 1.610 . S
N230 S229 1.613 . S
N230 C233 1.350 . S
N231 S229 1.610 . S
N231 C232 1.351 . S
C232 C226 1.428 . S
C232 N231 1.351 . S
C232 C233 1.434 . S
C233 C224 1.429 . S
C233 N230 1.350 . S
C233 C232 1.434 . S
C234 C235 1.369 . S
C234 C236 1.419 1_656 S
C234 H238 0.930 . S
C235 C234 1.369 . S
C235 C244 1.429 . S
C236 C234 1.419 1_454 S
C236 C237 1.363 . S
C236 H239 0.929 . S
C237 C236 1.363 . S
C237 C243 1.428 . S
H238 C234 0.930 . S
H239 C236 0.929 . S
S240 N241 1.613 1_554 S
S240 N242 1.610 1_655 S
N241 S240 1.613 1_556 S
N241 C244 1.350 . S
N242 S240 1.610 1_455 S
N242 C243 1.351 . S
C243 C237 1.428 . S
C243 N242 1.351 . S
C243 C244 1.434 1_454 S
C244 C235 1.429 . S
C244 N241 1.350 . S
C244 C243 1.434 1_656 S
C245 C246 1.369 1_545 S
C245 C247 1.419 . S
C245 H249 0.930 . S
C246 C245 1.369 1_565 S
C246 C255 1.429 . S
C247 C245 1.419 . S
C247 C248 1.363 . S
C247 H250 0.929 . S
C248 C247 1.363 . S
C248 C254 1.428 1_545 S
H249 C245 0.930 . S
H250 C247 0.929 . S
S251 N252 1.613 . S
S251 N253 1.610 . S
N252 S251 1.613 . S
N252 C255 1.350 . S
N253 S251 1.610 . S
N253 C254 1.351 . S
C254 C248 1.428 1_565 S
C254 N253 1.351 . S
C254 C255 1.434 . S
C255 C246 1.429 . S
C255 N252 1.350 . S
C255 C254 1.434 . S
C256 C257 1.369 . S
C256 C258 1.419 1_556 S
C256 H260 0.930 . S
C257 C256 1.369 . S
C257 C266 1.429 . S
C258 C256 1.419 1_554 S
C258 C259 1.363 . S
C258 H261 0.929 . S
C259 C258 1.363 . S
C259 C265 1.428 . S
H260 C256 0.930 . S
H261 C258 0.929 . S
S262 N263 1.613 . S
S262 N264 1.610 1_556 S
N263 S262 1.613 . S
N263 C266 1.350 . S
N264 S262 1.610 1_554 S
N264 C265 1.351 . S
C265 C259 1.428 . S
C265 N264 1.351 . S
C265 C266 1.434 1_554 S
C266 C257 1.429 . S
C266 N263 1.350 . S
C266 C265 1.434 1_556 S
C267 C268 1.369 . S
C267 C269 1.419 . S
C267 H271 0.930 . S
C268 C267 1.369 . S
C268 C277 1.429 1_655 S
C269 C267 1.419 . S
C269 C270 1.363 1_655 S
C269 H272 0.929 . S
C270 C269 1.363 1_455 S
C270 C276 1.428 . S
H271 C267 0.930 . S
H272 C269 0.929 . S
S273 N274 1.613 . S
S273 N275 1.610 . S
N274 S273 1.613 . S
N274 C277 1.350 . S
N275 S273 1.610 . S
N275 C276 1.351 . S
C276 C270 1.428 . S
C276 N275 1.351 . S
C276 C277 1.434 . S
C277 C268 1.429 1_455 S
C277 N274 1.350 . S
C277 C276 1.434 . S
C278 C279 1.369 1_565 S
C278 C280 1.419 1_556 S
C278 H282 0.930 . S
C279 C278 1.369 1_545 S
C279 C288 1.429 . S
C280 C278 1.419 1_554 S
C280 C281 1.363 . S
C280 H283 0.929 . S
C281 C280 1.363 . S
C281 C287 1.428 1_565 S
H282 C278 0.930 . S
H283 C280 0.929 . S
S284 N285 1.613 1_554 S
S284 N286 1.610 . S
N285 S284 1.613 1_556 S
N285 C288 1.350 . S
N286 S284 1.610 . S
N286 C287 1.351 . S
C287 C281 1.428 1_545 S
C287 N286 1.351 . S
C287 C288 1.434 1_554 S
C288 C279 1.429 . S
C288 N285 1.350 . S
C288 C287 1.434 1_556 S
C289 C290 1.369 . S
C289 C291 1.419 . S
C289 H293 0.930 . S
C290 C289 1.369 . S
C290 C299 1.429 . S
C291 C289 1.419 . S
C291 C292 1.363 . S
C291 H294 0.929 . S
C292 C291 1.363 . S
C292 C298 1.428 . S
H293 C289 0.930 . S
H294 C291 0.929 . S
S295 N296 1.613 . S
S295 N297 1.610 . S
N296 S295 1.613 . S
N296 C299 1.350 . S
N297 S295 1.610 . S
N297 C298 1.351 . S
C298 C292 1.428 . S
C298 N297 1.351 . S
C298 C299 1.434 . S
C299 C290 1.429 . S
C299 N296 1.350 . S
C299 C298 1.434 . S
C300 C301 1.369 . S
C300 C302 1.419 . S
C300 H304 0.930 . S
C301 C300 1.369 . S
C301 C310 1.429 . S
C302 C300 1.419 . S
C302 C303 1.363 . S
C302 H305 0.929 . S
C303 C302 1.363 . S
C303 C309 1.428 . S
H304 C300 0.930 . S
H305 C302 0.929 . S
S306 N307 1.613 . S
S306 N308 1.610 . S
N307 S306 1.613 . S
N307 C310 1.350 . S
N308 S306 1.610 . S
N308 C309 1.351 . S
C309 C303 1.428 . S
C309 N308 1.351 . S
C309 C310 1.434 . S
C310 C301 1.429 . S
C310 N307 1.350 . S
C310 C309 1.434 . S
C311 C312 1.369 . S
C311 C313 1.419 . S
C311 H315 0.930 . S
C312 C311 1.369 . S
C312 C321 1.429 . S
C313 C311 1.419 . S
C313 C314 1.363 . S
C313 H316 0.929 . S
C314 C313 1.363 . S
C314 C320 1.428 . S
H315 C311 0.930 . S
H316 C313 0.929 . S
S317 N318 1.613 . S
S317 N319 1.610 . S
N318 S317 1.613 . S
N318 C321 1.350 . S
N319 S317 1.610 . S
N319 C320 1.351 . S
C320 C314 1.428 . S
C320 N319 1.351 . S
C320 C321 1.434 . S
C321 C312 1.429 . S
C321 N318 1.350 . S
C321 C320 1.434 . S
C322 C323 1.369 . S
C322 C324 1.419 . S
C322 H326 0.930 . S
C323 C322 1.369 . S
C323 C332 1.429 . S
C324 C322 1.419 . S
C324 C325 1.363 . S
C324 H327 0.929 . S
C325 C324 1.363 . S
C325 C331 1.428 . S
H326 C322 0.930 . S
H327 C324 0.929 . S
S328 N329 1.613 . S
S328 N330 1.610 . S
N329 S328 1.613 . S
N329 C332 1.350 . S
N330 S328 1.610 . S
N330 C331 1.351 . S
C331 C325 1.428 . S
C331 N330 1.351 . S
C331 C332 1.434 . S
C332 C323 1.429 . S
C332 N329 1.350 . S
C332 C331 1.434 . S
C333 C334 1.369 . S
C333 C335 1.419 . S
C333 H337 0.930 . S
C334 C333 1.369 . S
C334 C343 1.429 . S
C335 C333 1.419 . S
C335 C336 1.363 . S
C335 H338 0.929 . S
C336 C335 1.363 . S
C336 C342 1.428 . S
H337 C333 0.930 . S
H338 C335 0.929 . S
S339 N340 1.613 . S
S339 N341 1.610 . S
N340 S339 1.613 . S
N340 C343 1.350 . S
N341 S339 1.610 . S
N341 C342 1.351 . S
C342 C336 1.428 . S
C342 N341 1.351 . S
C342 C343 1.434 . S
C343 C334 1.429 . S
C343 N340 1.350 . S
C343 C342 1.434 . S
C344 C345 1.369 . S
C344 C346 1.419 . S
C344 H348 0.930 . S
C345 C344 1.369 . S
C345 C354 1.429 . S
C346 C344 1.419 . S
C346 C347 1.363 . S
C346 H349 0.929 . S
C347 C346 1.363 . S
C347 C353 1.428 . S
H348 C344 0.930 . S
H349 C346 0.929 . S
S350 N351 1.613 . S
S350 N352 1.610 . S
N351 S350 1.613 . S
N351 C354 1.350 . S
N352 S350 1.610 . S
N352 C353 1.351 . S
C353 C347 1.428 . S
C353 N352 1.351 . S
C353 C354 1.434 . S
C354 C345 1.429 . S
C354 N351 1.350 . S
C354 C353 1.434 . S
C355 C356 1.369 . S
C355 C357 1.419 . S
C355 H359 0.930 . S
C356 C355 1.369 . S
C356 C365 1.429 . S
C357 C355 1.419 . S
C357 C358 1.363 . S
C357 H360 0.929 . S
C358 C357 1.363 . S
C358 C364 1.428 . S
H359 C355 0.930 . S
H360 C357 0.929 . S
S361 N362 1.613 . S
S361 N363 1.610 . S
N362 S361 1.613 . S
N362 C365 1.350 . S
N363 S361 1.610 . S
N363 C364 1.351 . S
C364 C358 1.428 . S
C364 N363 1.351 . S
C364 C365 1.434 . S
C365 C356 1.429 . S
C365 N362 1.350 . S
C365 C364 1.434 . S
C366 C367 1.369 . S
C366 C368 1.419 . S
C366 H370 0.930 . S
C367 C366 1.369 . S
C367 C376 1.429 . S
C368 C366 1.419 . S
C368 C369 1.363 . S
C368 H371 0.929 . S
C369 C368 1.363 . S
C369 C375 1.428 . S
H370 C366 0.930 . S
H371 C368 0.929 . S
S372 N373 1.613 . S
S372 N374 1.610 . S
N373 S372 1.613 . S
N373 C376 1.350 . S
N374 S372 1.610 . S
N374 C375 1.351 . S
C375 C369 1.428 . S
C375 N374 1.351 . S
C375 C376 1.434 . S
C376 C367 1.429 . S
C376 N373 1.350 . S
C376 C375 1.434 . S
C377 C378 1.369 . S
C377 C379 1.419 . S
C377 H381 0.930 . S
C378 C377 1.369 . S
C378 C387 1.429 . S
C379 C377 1.419 . S
C379 C380 1.363 . S
C379 H382 0.929 . S
C380 C379 1.363 . S
C380 C386 1.428 . S
H381 C377 0.930 . S
H382 C379 0.929 . S
S383 N384 1.613 . S
S383 N385 1.610 . S
N384 S383 1.613 . S
N384 C387 1.350 . S
N385 S383 1.610 . S
N385 C386 1.351 . S
C386 C380 1.428 . S
C386 N385 1.351 . S
C386 C387 1.434 . S
C387 C378 1.429 . S
C387 N384 1.350 . S
C387 C386 1.434 . S
C388 C389 1.369 . S
C388 C390 1.419 . S
C388 H392 0.930 . S
C389 C388 1.369 . S
C389 C398 1.429 . S
C390 C388 1.419 . S
C390 C391 1.363 . S
C390 H393 0.929 . S
C391 C390 1.363 . S
C391 C397 1.428 . S
H392 C388 0.930 . S
H393 C390 0.929 . S
S394 N395 1.613 . S
S394 N396 1.610 . S
N395 S394 1.613 . S
N395 C398 1.350 . S
N396 S394 1.610 . S
N396 C397 1.351 . S
C397 C391 1.428 . S
C397 N396 1.351 . S
C397 C398 1.434 . S
C398 C389 1.429 . S
C398 N395 1.350 . S
C398 C397 1.434 . S
C399 C400 1.369 . S
C399 C401 1.419 . S
C399 H403 0.930 . S
C400 C399 1.369 . S
C400 C409 1.429 . S
C401 C399 1.419 . S
C401 C402 1.363 . S
C401 H404 0.929 . S
C402 C401 1.363 . S
C402 C408 1.428 . S
H403 C399 0.930 . S
H404 C401 0.929 . S
S405 N406 1.613 . S
S405 N407 1.610 . S
N406 S405 1.613 . S
N406 C409 1.350 . S
N407 S405 1.610 . S
N407 C408 1.351 . S
C408 C402 1.428 . S
C408 N407 1.351 . S
C408 C409 1.434 . S
C409 C400 1.429 . S
C409 N406 1.350 . S
C409 C408 1.434 . S
C410 C411 1.369 . S
C410 C412 1.419 . S
C410 H414 0.930 . S
C411 C410 1.369 . S
C411 C420 1.429 . S
C412 C410 1.419 . S
C412 C413 1.363 . S
C412 H415 0.929 . S
C413 C412 1.363 . S
C413 C419 1.428 . S
H414 C410 0.930 . S
H415 C412 0.929 . S
S416 N417 1.613 . S
S416 N418 1.610 . S
N417 S416 1.613 . S
N417 C420 1.350 . S
N418 S416 1.610 . S
N418 C419 1.351 . S
C419 C413 1.428 . S
C419 N418 1.351 . S
C419 C420 1.434 . S
C420 C411 1.429 . S
C420 N417 1.350 . S
C420 C419 1.434 . S
C421 C422 1.369 . S
C421 C423 1.419 . S
C421 H425 0.930 . S
C422 C421 1.369 . S
C422 C431 1.429 . S
C423 C421 1.419 . S
C423 C424 1.363 . S
C423 H426 0.929 . S
C424 C423 1.363 . S
C424 C430 1.428 . S
H425 C421 0.930 . S
H426 C423 0.929 . S
S427 N428 1.613 . S
S427 N429 1.610 . S
N428 S427 1.613 . S
N428 C431 1.350 . S
N429 S427 1.610 . S
N429 C430 1.351 . S
C430 C424 1.428 . S
C430 N429 1.351 . S
C430 C431 1.434 . S
C431 C422 1.429 . S
C431 N428 1.350 . S
C431 C430 1.434 . S
C169 C13 1.313 . S
C171 C167 1.316 . S
C180 C97 1.325 . S
C182 C27 1.315 . S
C191 C41 1.312 . S
C193 C111 1.318 . S
C202 C125 1.315 . S
C204 C55 1.323 . S
C213 C139 1.325 . S
C215 C69 1.319 . S
C224 C153 1.320 . S
C226 C83 1.313 . S
C235 C49 1.479 . S
C237 C119 1.478 . S
C246 C63 1.482 . S
C248 C133 1.480 . S
C257 C77 1.479 . S
C259 C147 1.481 . S
C268 C161 1.479 . S
C270 C7 1.481 . S
C279 C21 1.481 . S
C281 C91 1.479 . S
C290 C35 1.481 . S
C292 C105 1.479 . S
C301 C120 1.420 . S
C303 C8 1.415 . S
C312 C134 1.423 . S
C314 C22 1.419 . S
C323 C36 1.415 . S
C325 C148 1.420 . S
C334 C50 1.419 . S
C336 C162 1.414 . S
C345 C64 1.421 . S
C347 C92 1.421 . S
C356 C106 1.423 . S
C358 C78 1.420 . S
C367 C11 1.392 . S
C369 C151 1.389 . S
C378 C165 1.391 . S
C380 C25 1.389 . S
C389 C39 1.392 . S
C391 C95 1.389 . S
C400 C53 1.389 . S
C402 C109 1.392 . S
C411 C67 1.392 . S
C413 C123 1.389 . S
C422 C81 1.389 . S
C424 C137 1.392 . S
