# Generated by pormake.
# Topology bcg, (8)-cn, num edge types: 1
# Building blocks:
#     Node 0, Type 0, BuildingBlock: TAGTUT_clean_sbu_1, # of connection points: 8
#     Node 1, Type 0, BuildingBlock: TAGTUT_clean_sbu_1, # of connection points: 8
#     Node 2, Type 0, BuildingBlock: TAGTUT_clean_sbu_1, # of connection points: 8
#     Node 3, Type 0, BuildingBlock: TAGTUT_clean_sbu_1, # of connection points: 8
#     Edge 4, Type (0, 0), BuildingBlock: FUNLAD_clean_linker_0, # of connection points: 2
#     Edge 5, Type (0, 0), BuildingBlock: FUNLAD_clean_linker_0, # of connection points: 2
#     Edge 6, Type (0, 0), BuildingBlock: FUNLAD_clean_linker_0, # of connection points: 2
#     Edge 7, Type (0, 0), BuildingBlock: FUNLAD_clean_linker_0, # of connection points: 2
#     Edge 8, Type (0, 0), BuildingBlock: FUNLAD_clean_linker_0, # of connection points: 2
#     Edge 9, Type (0, 0), BuildingBlock: FUNLAD_clean_linker_0, # of connection points: 2
#     Edge 10, Type (0, 0), BuildingBlock: FUNLAD_clean_linker_0, # of connection points: 2
#     Edge 11, Type (0, 0), BuildingBlock: FUNLAD_clean_linker_0, # of connection points: 2
#     Edge 12, Type (0, 0), BuildingBlock: FUNLAD_clean_linker_0, # of connection points: 2
#     Edge 13, Type (0, 0), BuildingBlock: FUNLAD_clean_linker_0, # of connection points: 2
#     Edge 14, Type (0, 0), BuildingBlock: FUNLAD_clean_linker_0, # of connection points: 2
#     Edge 15, Type (0, 0), BuildingBlock: FUNLAD_clean_linker_0, # of connection points: 2
#     Edge 16, Type (0, 0), BuildingBlock: FUNLAD_clean_linker_0, # of connection points: 2
#     Edge 17, Type (0, 0), BuildingBlock: FUNLAD_clean_linker_0, # of connection points: 2
#     Edge 18, Type (0, 0), BuildingBlock: FUNLAD_clean_linker_0, # of connection points: 2
#     Edge 19, Type (0, 0), BuildingBlock: FUNLAD_clean_linker_0, # of connection points: 2
# Relax obj value: 0.095
# Max RMSD: 0.203
# Mean RMSD: 0.203
data_MOF--net-bcg--node1-TAGTUT_clean_sbu_1--edge1-FUNLAD_clean_linker_0
_symmetry_space_group_name_H-M    P1
_symmetry_Int_Tables_number       1
_symmetry_cell_setting            triclinic
loop_
_symmetry_equiv_pos_as_xyz
'x, y, z'
_cell_length_a     17.712052
_cell_length_b     31.351225
_cell_length_c     37.225967
_cell_angle_alpha  84.774721
_cell_angle_beta   90.059262
_cell_angle_gamma 89.917941
loop_
_atom_site_label
_atom_site_type_symbol
_atom_site_fract_x
_atom_site_fract_y
_atom_site_fract_z
_atom_type_partial_charge
C0 C 0.20914 0.24543 0.14017 0.0
C1 C 0.41053 0.25706 0.07962 0.0
C2 C 0.26672 0.34841 0.97648 0.0
Mg3 Mg 0.27611 0.19598 0.07881 0.0
O4 O 0.22452 0.23822 0.04992 0.0
Mg5 Mg 0.23764 0.29979 0.0586 0.0
Mg6 Mg 0.24345 0.24393 0.99691 0.0
O7 O 0.26165 0.24998 0.94396 0.0
Mg8 Mg 0.20552 0.29179 0.91678 0.0
Mg9 Mg 0.24942 0.18859 0.93457 0.0
C10 C 0.21696 0.13974 0.0177 0.0
C11 C 0.40497 0.20477 0.97904 0.0
O12 O 0.20756 0.27968 0.11837 0.0
O13 O 0.2306 0.20921 0.13031 0.0
O14 O 0.3637 0.28835 0.07462 0.0
O15 O 0.3901 0.21815 0.07831 0.0
O16 O 0.23844 0.14132 0.0506 0.0
O17 O 0.21774 0.1734 0.99515 0.0
C18 C 0.08208 0.28364 0.0144 0.0
O19 O 0.12229 0.26205 0.99404 0.0
O20 O 0.11113 0.3027 0.04037 0.0
O21 O 0.2786 0.21056 0.87433 0.0
O22 O 0.24999 0.28074 0.8651 0.0
O23 O 0.12311 0.19858 0.91882 0.0
C24 C 0.27404 0.24583 0.85376 0.0
O25 O 0.09247 0.26801 0.91753 0.0
O26 O 0.242 0.34718 0.94411 0.0
C27 C 0.07437 0.22895 0.91499 0.0
O28 O 0.26943 0.31434 -0.00154 0.0
O29 O 0.36469 0.22582 -0.0002 0.0
O30 O 0.37601 0.18631 0.95272 0.0
C31 C 0.70362 0.72252 0.1409 0.0
C32 C 0.90544 0.74749 0.08102 0.0
C33 C 0.75797 0.85226 0.98901 0.0
Mg34 Mg 0.77234 0.68657 0.07316 0.0
O35 O 0.71832 0.73211 0.0496 0.0
Mg36 Mg 0.73132 0.79068 0.06598 0.0
Mg37 Mg 0.73662 0.74682 0.99707 0.0
O38 O 0.75454 0.76174 0.94462 0.0
Mg39 Mg 0.69738 0.80664 0.92206 0.0
Mg40 Mg 0.74342 0.70333 0.9277 0.0
C41 C 0.71436 0.64135 0.00516 0.0
C42 C 0.89982 0.71029 0.97427 0.0
O43 O 0.70245 0.76012 0.12384 0.0
O44 O 0.72513 0.68924 0.12607 0.0
O45 O 0.85773 0.77838 0.0796 0.0
O46 O 0.88568 0.70927 0.07618 0.0
O47 O 0.73777 0.63775 0.03804 0.0
O48 O 0.7113 0.67809 0.98669 0.0
C49 C 0.57414 0.78416 0.02003 0.0
O50 O 0.61243 0.76651 0.99617 0.0
O51 O 0.60474 0.79611 0.04886 0.0
O52 O 0.77255 0.7353 0.86986 0.0
O53 O 0.74458 0.8055 0.86929 0.0
O54 O 0.61707 0.71421 0.91373 0.0
C55 C 0.76906 0.77341 0.85373 0.0
O56 O 0.58487 0.78229 0.91911 0.0
O57 O 0.73205 0.85603 0.95658 0.0
C58 C 0.56748 0.74403 0.91314 0.0
O59 O 0.76244 0.81541 0.00715 0.0
O60 O 0.86078 0.72733 -0.00181 0.0
O61 O 0.86995 0.69868 0.94517 0.0
C62 C 0.214 0.77774 0.35112 0.0
C63 C 0.41146 0.75328 0.41428 0.0
C64 C 0.26022 0.65942 0.51064 0.0
Mg65 Mg 0.28219 0.81758 0.41734 0.0
O66 O 0.22309 0.77482 0.44168 0.0
Mg67 Mg 0.23386 0.71441 0.42935 0.0
Mg68 Mg 0.23715 0.76462 0.49474 0.0
O69 O 0.25213 0.75476 0.5479 0.0
Mg70 Mg 0.19735 0.71135 0.57369 0.0
Mg71 Mg 0.2397 0.81533 0.55955 0.0
C72 C 0.2182 0.86998 0.47942 0.0
C73 C 0.39778 0.80073 0.51692 0.0
O74 O 0.20856 0.74119 0.36978 0.0
O75 O 0.23846 0.81133 0.36448 0.0
O76 O 0.36121 0.72376 0.41629 0.0
O77 O 0.3948 0.79234 0.41793 0.0
O78 O 0.24563 0.87087 0.44739 0.0
O79 O 0.21237 0.83458 0.49953 0.0
C80 C 0.07607 0.72932 0.47221 0.0
O81 O 0.11554 0.74808 0.4948 0.0
O82 O 0.10617 0.7125 0.44533 0.0
O83 O 0.26559 0.79056 0.61882 0.0
O84 O 0.23972 0.72009 0.62683 0.0
O85 O 0.11226 0.80427 0.5731 0.0
C86 C 0.26175 0.75502 0.63889 0.0
O87 O 0.08388 0.73474 0.57227 0.0
O88 O 0.23638 0.65876 0.54333 0.0
C89 C 0.06431 0.77345 0.57557 0.0
O90 O 0.26112 0.69446 0.48976 0.0
O91 O 0.35863 0.78126 0.49468 0.0
O92 O 0.36737 0.8181 0.54346 0.0
C93 C 0.71063 0.28178 0.35288 0.0
C94 C 0.91093 0.25641 0.41373 0.0
C95 C 0.76448 0.16045 0.51016 0.0
Mg96 Mg 0.78176 0.32031 0.41911 0.0
O97 O 0.72412 0.27699 0.44351 0.0
Mg98 Mg 0.73452 0.21694 0.43002 0.0
Mg99 Mg 0.74081 0.26582 0.49638 0.0
O100 O 0.75836 0.25483 0.54931 0.0
Mg101 Mg 0.7041 0.21081 0.57451 0.0
Mg102 Mg 0.74554 0.3149 0.56232 0.0
C103 C 0.72006 0.37114 0.48283 0.0
C104 C 0.90186 0.30256 0.51768 0.0
O105 O 0.70624 0.24483 0.371 0.0
O106 O 0.73546 0.31507 0.36659 0.0
O107 O 0.86091 0.22681 0.41576 0.0
O108 O 0.89436 0.2953 0.4181 0.0
O109 O 0.74626 0.37262 0.45052 0.0
O110 O 0.71535 0.33545 0.50265 0.0
C111 C 0.57901 0.23001 0.47502 0.0
O112 O 0.61945 0.24859 0.49736 0.0
O113 O 0.60779 0.21396 0.44746 0.0
O114 O 0.77397 0.28856 0.62128 0.0
O115 O 0.74706 0.21811 0.62763 0.0
O116 O 0.61868 0.30316 0.57667 0.0
C117 C 0.76993 0.25239 0.64051 0.0
O118 O 0.5908 0.23382 0.5741 0.0
O119 O 0.74163 0.15901 0.54304 0.0
C120 C 0.57105 0.27221 0.5785 0.0
O121 O 0.76523 0.19596 0.48989 0.0
O122 O 0.86206 0.28332 0.49549 0.0
O123 O 0.87239 0.31889 0.54496 0.0
C124 C 0.51663 0.24081 0.00257 0.0
C125 C 0.48762 0.2076 0.98363 0.0
C126 C 0.59376 0.24607 0.00673 0.0
C127 C 0.64465 0.21901 0.99101 0.0
C128 C 0.61621 0.1854 0.97228 0.0
C129 C 0.53814 0.17985 0.9684 0.0
C130 C 0.72734 0.22482 0.99421 0.0
C131 C 0.75973 0.2628 -0.00052 0.0
C132 C 0.84245 0.26871 0.00269 0.0
C133 C 0.87073 0.30317 0.02044 0.0
C134 C 0.94878 0.30895 0.02427 0.0
C135 C -0.00056 0.28053 0.00997 0.0
H136 H 0.87494 0.21489 0.97301 0.0
C137 C 0.97062 0.24639 0.99211 0.0
C138 C 0.89356 0.24092 0.98799 0.0
H139 H 0.00767 0.22293 0.9818 0.0
H140 H 0.4797 0.26378 0.01363 0.0
H141 H 0.61273 0.27137 0.02245 0.0
H142 H 0.65446 0.16384 0.96019 0.0
H143 H 0.51749 0.15416 0.95348 0.0
H144 H 0.76194 0.19666 0.99181 0.0
H145 H 0.72491 0.29091 0.00181 0.0
H146 H 0.83237 0.3253 0.03178 0.0
H147 H 0.9693 0.33535 0.03838 0.0
C148 C 0.03004 0.7296 0.95289 0.0
C149 C 0.98258 0.70897 0.97918 0.0
C150 C 0.10644 0.73636 0.96052 0.0
C151 C 0.13679 0.72228 0.9946 0.0
C152 C 0.09012 0.69912 0.01983 0.0
C153 C 0.01369 0.69295 0.01237 0.0
C154 C 0.21644 0.73083 0.00488 0.0
C155 C 0.25682 0.76474 0.9906 0.0
C156 C 0.33662 0.77319 0.00074 0.0
C157 C 0.38288 0.79675 0.97556 0.0
C158 C 0.45961 0.80251 0.98267 0.0
C159 C 0.49133 0.78579 0.01551 0.0
H160 H 0.33337 0.74161 0.05524 0.0
C161 C 0.44429 0.76487 0.04183 0.0
C162 C 0.36765 0.75845 0.03452 0.0
H163 H 0.46759 0.75157 0.06736 0.0
H164 H 0.00724 0.7424 0.92711 0.0
H165 H 0.14112 0.7529 0.9398 0.0
H166 H 0.11227 0.68701 0.04593 0.0
H167 H 0.97849 0.6763 0.03282 0.0
H168 H 0.24151 0.70885 0.02578 0.0
H169 H 0.23164 0.78671 0.96972 0.0
H170 H 0.36015 0.80945 0.94974 0.0
H171 H 0.49457 0.81936 0.96222 0.0
C172 C 0.50952 0.7625 0.49611 0.0
C173 C 0.48049 0.79665 0.51395 0.0
C174 C 0.58666 0.75586 0.49365 0.0
C175 C 0.63749 0.78338 0.50887 0.0
C176 C 0.60887 0.81718 0.52735 0.0
C177 C 0.5308 0.82379 0.52994 0.0
C178 C 0.72018 0.77637 0.5073 0.0
C179 C 0.75386 0.75444 0.48207 0.0
C180 C 0.83652 0.74724 0.48049 0.0
C181 C 0.86485 0.71383 0.46145 0.0
C182 C 0.94284 0.70703 0.4588 0.0
C183 C -0.00659 0.73357 0.4753 0.0
H184 H 0.86911 0.80144 0.50971 0.0
C185 C 0.96471 0.76728 0.49377 0.0
C186 C 0.88762 0.77413 0.49628 0.0
H187 H 0.00199 0.78964 0.50544 0.0
H188 H 0.47247 0.73967 0.4849 0.0
H189 H 0.6055 0.72822 0.48073 0.0
H190 H 0.64698 0.83848 0.53981 0.0
H191 H 0.50998 0.84991 0.54432 0.0
H192 H 0.75367 0.78985 0.52787 0.0
H193 H 0.72025 0.74104 0.46148 0.0
H194 H 0.82656 0.693 0.44858 0.0
H195 H 0.96341 0.68124 0.44395 0.0
C196 C 0.01386 0.26848 0.49266 0.0
C197 C 0.98451 0.30017 0.51318 0.0
C198 C 0.09096 0.264 0.48798 0.0
C199 C 0.14154 0.29022 0.50478 0.0
C200 C 0.11275 0.32219 0.52525 0.0
C201 C 0.03464 0.32702 0.52963 0.0
C202 C 0.22423 0.28529 0.5008 0.0
C203 C 0.25724 0.24823 0.49326 0.0
C204 C 0.33982 0.24325 0.4889 0.0
C205 C 0.36791 0.21072 0.46881 0.0
C206 C 0.44584 0.20569 0.46403 0.0
C207 C 0.49653 0.2329 0.4797 0.0
H208 H 0.3725 0.29442 0.5215 0.0
C209 C 0.46796 0.26523 0.49976 0.0
C210 C 0.391 0.26994 0.50481 0.0
H211 H 0.50516 0.28773 0.51125 0.0
H212 H 0.97722 0.24619 0.48059 0.0
H213 H 0.11009 0.24003 0.47093 0.0
H214 H 0.15076 0.34309 0.53823 0.0
H215 H 0.01366 0.35153 0.54577 0.0
H216 H 0.25828 0.31331 0.50439 0.0
H217 H 0.22305 0.22022 0.48979 0.0
H218 H 0.32946 0.18949 0.45648 0.0
H219 H 0.46626 0.18069 0.44826 0.0
C220 C 0.67164 0.56506 0.01423 0.0
C221 C 0.67507 0.60385 0.992 0.0
C222 C 0.61928 0.53347 0.00745 0.0
C223 C 0.56912 0.53979 0.97816 0.0
C224 C 0.57733 0.57661 0.954 0.0
C225 C 0.62953 0.60842 0.96091 0.0
C226 C 0.50743 0.50889 0.97245 0.0
C227 C 0.47255 0.48565 -1e-05 0.0
C228 C 0.41158 0.45391 0.99519 0.0
C229 C 0.39915 0.4209 0.02269 0.0
C230 C 0.34743 0.38815 0.01794 0.0
C231 C 0.30658 0.38776 0.98558 0.0
H232 H 0.3715 0.48123 0.94284 0.0
C233 C 0.31457 0.42272 0.95929 0.0
C234 C 0.36638 0.45539 0.964 0.0
H235 H 0.28343 0.42394 0.93416 0.0
H236 H 0.7066 0.55991 0.03813 0.0
H237 H 0.61722 0.50457 0.02569 0.0
H238 H 0.5406 0.58185 0.93071 0.0
H239 H 0.63102 0.63752 0.94301 0.0
H240 H 0.48929 0.50642 0.94488 0.0
H241 H 0.49088 0.48888 0.02746 0.0
H242 H 0.43197 0.41935 0.04736 0.0
H243 H 0.34237 0.36214 0.03891 0.0
C244 C 0.67125 0.44593 0.46897 0.0
C245 C 0.67924 0.40942 0.4937 0.0
C246 C 0.61796 0.47755 0.47468 0.0
C247 C 0.57141 0.47353 0.50537 0.0
C248 C 0.58394 0.4391 0.5316 0.0
C249 C 0.63702 0.40729 0.52579 0.0
C250 C 0.50911 0.50429 0.51075 0.0
C251 C 0.47169 0.52624 0.48325 0.0
C252 C 0.40919 0.55693 0.48859 0.0
C253 C 0.3954 0.59076 0.46195 0.0
C254 C 0.3421 0.62252 0.46762 0.0
C255 C 0.30113 0.62102 0.50003 0.0
H256 H 0.36975 0.52678 0.54002 0.0
C257 C 0.31031 0.58507 0.52525 0.0
C258 C 0.36363 0.55343 0.51963 0.0
H259 H 0.27903 0.5823 0.55033 0.0
H260 H 0.70338 0.44912 0.44413 0.0
H261 H 0.61259 0.50463 0.45464 0.0
H262 H 0.55007 0.43567 0.55591 0.0
H263 H 0.64205 0.38002 0.54561 0.0
H264 H 0.49234 0.50773 0.53837 0.0
H265 H 0.48853 0.52274 0.45565 0.0
H266 H 0.42838 0.59375 0.43734 0.0
H267 H 0.33588 0.64924 0.44739 0.0
C268 C 0.16634 0.06606 0.0349 0.0
C269 C 0.1767 0.10059 0.00839 0.0
C270 C 0.1136 0.03394 0.02996 0.0
C271 C 0.06974 0.03555 -0.00166 0.0
C272 C 0.08471 0.06794 0.97063 0.0
C273 C 0.13746 0.10013 0.9756 0.0
C274 C 0.00754 1.00459 0.99336 0.0
C275 C 0.97072 0.98237 0.02084 0.0
C276 C 0.90787 0.9522 0.01509 0.0
C277 C 0.89719 0.91609 0.03979 0.0
C278 C 0.84359 0.88493 0.03308 0.0
C279 C 0.79903 0.88948 0.00166 0.0
H280 H 0.86295 0.987 0.96663 0.0
C281 C 0.80508 0.92767 0.97878 0.0
C282 C 0.85891 0.95858 0.98535 0.0
H283 H 0.77107 0.93278 0.95457 0.0
H284 H 0.19628 0.06484 0.06036 0.0
H285 H 0.10665 0.00849 0.05133 0.0
H286 H 0.05306 0.06951 0.94562 0.0
H287 H 0.14452 0.12573 0.95443 0.0
H288 H 0.99 1.00114 0.96581 0.0
H289 H 0.988 0.98514 0.04849 0.0
H290 H 0.93296 0.91086 0.06341 0.0
H291 H 0.84007 0.85632 0.0515 0.0
C292 C 0.81291 0.08552 0.52304 0.0
C293 C 0.80457 0.12227 0.49862 0.0
C294 C 0.8656 0.05384 0.51671 0.0
C295 C 0.91133 0.05808 0.48574 0.0
C296 C 0.8983 0.09276 0.45981 0.0
C297 C 0.84565 0.12459 0.46621 0.0
C298 C 0.97319 0.02724 0.47985 0.0
C299 C 0.01092 0.00507 0.50712 0.0
C300 C 0.07224 0.9738 0.5015 0.0
C301 C 0.08533 0.93986 0.52812 0.0
C302 C 0.13743 0.90758 0.52232 0.0
C303 C 0.17811 0.9087 0.48983 0.0
H304 H 0.11146 1.00343 0.44986 0.0
C305 C 0.16958 0.94465 0.46455 0.0
C306 C 0.11725 0.97678 0.47028 0.0
H307 H 0.20051 0.94703 0.43937 0.0
H308 H 0.78149 0.08212 0.54808 0.0
H309 H 0.87119 0.02654 0.53652 0.0
H310 H 0.93144 0.09633 0.43527 0.0
H311 H 0.84007 0.15196 0.44659 0.0
H312 H 0.98917 0.02381 0.45212 0.0
H313 H -0.00506 0.0087 0.53482 0.0
H314 H 0.05266 0.93722 0.55282 0.0
H315 H 0.14301 0.88079 0.54257 0.0
C316 C 0.6858 0.25046 0.29433 0.0
C317 C 0.68961 0.28634 0.31428 0.0
C318 C 0.66928 0.25547 0.25743 0.0
C319 C 0.65584 0.29649 0.2399 0.0
C320 C 0.65892 0.33217 0.25993 0.0
C321 C 0.67634 0.32725 0.29661 0.0
C322 C 0.62981 0.30267 0.20197 0.0
C323 C 0.64839 0.27627 0.17678 0.0
C324 C 0.60446 0.27539 0.14289 0.0
C325 C 0.59318 0.23575 0.12907 0.0
C326 C 0.53467 0.23066 0.1047 0.0
C327 C 0.48668 0.26525 0.09382 0.0
H328 H 0.57486 0.34298 0.13592 0.0
C329 C 0.50585 0.3063 0.10315 0.0
C330 C 0.56455 0.31138 0.12746 0.0
H331 H 0.47162 0.33393 0.09425 0.0
H332 H 0.69599 0.21855 0.30714 0.0
H333 H 0.66477 0.22708 0.24306 0.0
H334 H 0.64743 0.36399 0.24719 0.0
H335 H 0.67862 0.35558 0.3112 0.0
H336 H 0.58945 0.32837 0.19571 0.0
H337 H 0.68876 0.25063 0.18342 0.0
H338 H 0.62465 0.20773 0.13973 0.0
H339 H 0.52297 0.19879 0.09711 0.0
C340 C 0.68205 0.75328 0.19986 0.0
C341 C 0.68367 0.71756 0.17964 0.0
C342 C 0.66641 0.74828 0.23679 0.0
C343 C 0.65169 0.70742 0.25423 0.0
C344 C 0.6526 0.67184 0.23396 0.0
C345 C 0.66917 0.67675 0.19715 0.0
C346 C 0.62651 0.70161 0.29231 0.0
C347 C 0.64668 0.72797 0.31732 0.0
C348 C 0.60329 0.73015 0.35121 0.0
C349 C 0.59483 0.77016 0.36483 0.0
C350 C 0.53713 0.77679 0.38925 0.0
C351 C 0.48713 0.74337 0.40037 0.0
H352 H 0.56939 0.66331 0.35861 0.0
C353 C 0.50351 0.70181 0.39124 0.0
C354 C 0.56134 0.6952 0.36689 0.0
H355 H 0.46771 0.675 0.40037 0.0
H356 H 0.6932 0.78515 0.18723 0.0
H357 H 0.66353 0.77666 0.25126 0.0
H358 H 0.64006 0.64015 0.24663 0.0
H359 H 0.66985 0.64855 0.18236 0.0
H360 H 0.5852 0.67656 0.29879 0.0
H361 H 0.6882 0.75286 0.31047 0.0
H362 H 0.62791 0.79739 0.35396 0.0
H363 H 0.52748 0.809 0.39657 0.0
C364 C 0.29725 0.79347 0.69241 0.0
C365 C 0.27903 0.75504 0.67779 0.0
C366 C 0.31126 0.79391 0.72922 0.0
C367 C 0.30754 0.75607 0.75243 0.0
C368 C 0.28864 0.71755 0.73789 0.0
C369 C 0.27442 0.71713 0.70098 0.0
C370 C 0.33063 0.75824 0.79061 0.0
C371 C 0.32766 0.72548 0.81671 0.0
C372 C 0.37172 0.72722 0.8504 0.0
C373 C 0.41418 0.69124 0.86327 0.0
C374 C 0.47387 0.69552 0.88724 0.0
C375 C 0.49161 0.73592 0.8986 0.0
H376 H 0.34791 0.79377 0.85781 0.0
C377 C 0.44208 0.77035 0.8897 0.0
C378 C 0.38214 0.76592 0.86605 0.0
H379 H 0.45321 0.80176 0.89838 0.0
H380 H 0.30075 0.82338 0.67547 0.0
H381 H 0.32615 0.82404 0.73952 0.0
H382 H 0.28619 0.68743 0.75441 0.0
H383 H 0.26017 0.68696 0.69064 0.0
H384 H 0.35793 0.78781 0.79656 0.0
H385 H 0.30326 0.69498 0.81148 0.0
H386 H 0.40609 0.66081 0.85215 0.0
H387 H 0.50993 0.66807 0.89421 0.0
C388 C 0.29001 0.28498 0.7927 0.0
C389 C 0.29235 0.24623 0.81493 0.0
C390 C 0.30349 0.28578 0.75576 0.0
C391 C 0.31931 0.24767 0.73996 0.0
C392 C 0.3219 0.20895 0.7622 0.0
C393 C 0.30847 0.20817 0.79926 0.0
C394 C 0.34063 0.24731 0.70138 0.0
C395 C 0.33256 0.28087 0.67624 0.0
C396 C 0.37563 0.28254 0.64213 0.0
C397 C 0.417 0.31963 0.6314 0.0
C398 C 0.47642 0.31794 0.60691 0.0
C399 C 0.49454 0.27911 0.59278 0.0
H400 H 0.35286 0.21726 0.63062 0.0
C401 C 0.44511 0.24414 0.59917 0.0
C402 C 0.3862 0.24579 0.62382 0.0
H403 H 0.45592 0.21416 0.58775 0.0
H404 H 0.27799 0.31502 0.8038 0.0
H405 H 0.30314 0.31658 0.7402 0.0
H406 H 0.33494 0.17916 0.7509 0.0
H407 H 0.31032 0.17773 0.81553 0.0
H408 H 0.37043 0.21897 0.69417 0.0
H409 H 0.30459 0.31 0.68262 0.0
H410 H 0.40863 0.34862 0.64469 0.0
H411 H 0.51227 0.34581 0.60187 0.0
C412 C 0.18766 0.74485 0.29344 0.0
C413 C 0.19411 0.78143 0.31238 0.0
C414 C 0.17102 0.74886 0.25656 0.0
C415 C 0.1602 0.78959 0.238 0.0
C416 C 0.16631 0.82602 0.25699 0.0
C417 C 0.18377 0.82207 0.29367 0.0
C418 C 0.13337 0.79485 0.20019 0.0
C419 C 0.14864 0.7667 0.17592 0.0
C420 C 0.10243 0.76484 0.14286 0.0
C421 C 0.08714 0.72452 0.1311 0.0
C422 C 0.02714 0.71935 0.1076 0.0
C423 C 0.98188 0.7546 0.09528 0.0
H424 H 0.07746 0.83287 0.13341 0.0
C425 C 0.00428 0.79582 0.10289 0.0
C426 C 0.06436 0.80095 0.12642 0.0
H427 H 0.97193 0.82381 0.09296 0.0
H428 H 0.1955 0.71313 0.30705 0.0
H429 H 0.16411 0.71997 0.24306 0.0
H430 H 0.15689 0.85766 0.24344 0.0
H431 H 0.18816 0.85094 0.30745 0.0
H432 H 0.09467 0.82124 0.19339 0.0
H433 H 0.18746 0.74042 0.18307 0.0
H434 H 0.11682 0.6963 0.14271 0.0
H435 H 0.01241 0.68719 0.10175 0.0
C436 C 0.0375 0.28012 0.39008 0.0
C437 C 0.98669 0.24667 0.3999 0.0
C438 C 0.09646 0.27392 0.36627 0.0
C439 C 0.10531 0.23418 0.35207 0.0
C440 C 0.06227 0.19919 0.36635 0.0
C441 C 0.00307 0.20538 0.39008 0.0
C442 C 0.14812 0.23021 0.3184 0.0
C443 C 0.14252 0.26088 0.29066 0.0
C444 C 0.16394 0.25564 0.25272 0.0
C445 C 0.16052 0.29186 0.22763 0.0
C446 C 0.17388 0.28845 0.19109 0.0
C447 C 0.19097 0.24858 0.17865 0.0
H448 H 0.18269 0.1866 0.2583 0.0
C449 C 0.19454 0.21223 0.20369 0.0
C450 C 0.18104 0.21563 0.2403 0.0
H451 H 0.20775 0.181 0.19507 0.0
H452 H 0.02796 0.31204 0.39811 0.0
H453 H 0.13117 0.30104 0.35679 0.0
H454 H 0.06926 0.16802 0.35637 0.0
H455 H 0.96624 0.17861 0.39799 0.0
H456 H 0.17343 0.19942 0.31474 0.0
H457 H 0.11465 0.29084 0.29522 0.0
H458 H 0.14676 0.32303 0.23627 0.0
H459 H 0.17107 0.31721 0.17266 0.0
C460 C 0.94601 0.25337 0.89422 0.0
C461 C -0.00125 0.21996 0.90062 0.0
C462 C 0.88713 0.24979 0.86977 0.0
C463 C 0.8806 0.21285 0.85123 0.0
C464 C 0.92574 0.17715 0.86195 0.0
C465 C 0.98458 0.18063 0.88651 0.0
C466 C 0.83733 0.21302 0.8171 0.0
C467 C 0.83604 0.24812 0.79324 0.0
C468 C 0.81503 0.24832 0.75451 0.0
C469 C 0.783 0.2128 0.73963 0.0
C470 C 0.76975 0.21395 0.70256 0.0
C471 C 0.78735 0.25066 0.67952 0.0
H472 H 0.85636 0.31302 0.74203 0.0
C473 C 0.81801 0.28635 0.69445 0.0
C474 C 0.83167 0.28513 0.73146 0.0
H475 H 0.83172 0.31528 0.67758 0.0
H476 H 0.95381 0.28361 0.90567 0.0
H477 H 0.85054 0.27714 0.86336 0.0
H478 H 0.92052 0.14793 0.84867 0.0
H479 H 0.02309 0.15388 0.89157 0.0
H480 H 0.81877 0.18229 0.80928 0.0
H481 H 0.85981 0.27774 0.8013 0.0
H482 H 0.76785 0.18399 0.75615 0.0
H483 H 0.74486 0.18609 0.69205 0.0
C484 C 0.97121 0.82058 0.60337 0.0
C485 C 0.98831 0.78104 0.59027 0.0
C486 C 0.9141 0.82329 0.62891 0.0
C487 C 0.87365 0.78641 0.6418 0.0
C488 C 0.88236 0.74899 0.62425 0.0
C489 C 0.93925 0.74628 0.59862 0.0
C490 C 0.83151 0.78369 0.67642 0.0
C491 C 0.85185 0.80676 0.70367 0.0
C492 C 0.8258 0.79739 0.74137 0.0
C493 C 0.82457 0.83083 0.7639 0.0
C494 C 0.80662 0.82285 0.80036 0.0
C495 C 0.79093 0.781 0.81533 0.0
H496 H 0.81299 0.72863 0.73986 0.0
C497 C 0.79304 0.7473 0.79292 0.0
C498 C 0.81005 0.75541 0.75621 0.0
H499 H 0.78097 0.71474 0.80363 0.0
H500 H 0.00624 0.84844 0.59655 0.0
H501 H 0.90562 0.8535 0.64026 0.0
H502 H 0.85028 0.72048 0.63285 0.0
H503 H 0.94928 0.71567 0.58812 0.0
H504 H 0.79039 0.75814 0.68132 0.0
H505 H 0.89306 0.83226 0.69911 0.0
H506 H 0.83779 0.86329 0.75327 0.0
H507 H 0.80573 0.84956 0.81688 0.0
loop_
_geom_bond_atom_site_label_1
_geom_bond_atom_site_label_2
_geom_bond_distance
_geom_bond_site_symmetry_2
_ccdc_geom_bond_type
C0 O12 1.241 . S
C0 O13 1.280 . S
C1 O14 1.277 . S
C1 O15 1.245 . S
C2 O26 1.247 . S
C2 O28 1.289 1_556 S
Mg3 O4 1.926 . S
Mg3 O13 1.984 . S
Mg3 O15 1.988 . S
Mg3 O16 2.061 . S
O4 Mg3 1.926 . S
O4 Mg5 1.986 . S
O4 Mg6 1.935 . S
Mg5 O4 1.986 . S
Mg5 O12 2.042 . S
Mg5 O14 2.041 . S
Mg5 O20 2.038 . S
Mg5 O28 2.238 . S
Mg6 O4 1.935 . S
Mg6 O7 1.898 1_554 S
Mg6 O17 2.100 1_554 S
Mg6 O19 2.075 1_554 S
Mg6 O28 2.113 . S
Mg6 O29 2.082 . S
O7 Mg6 1.898 1_556 S
O7 Mg8 1.926 . S
O7 Mg9 1.986 . S
Mg8 O7 1.926 . S
Mg8 O22 1.984 . S
Mg8 O25 1.988 . S
Mg8 O26 2.061 . S
Mg9 O7 1.986 . S
Mg9 O17 2.238 . S
Mg9 O21 2.042 . S
Mg9 O23 2.041 . S
Mg9 O30 2.038 . S
C10 O16 1.247 . S
C10 O17 1.289 1_554 S
C11 O29 1.245 1_556 S
C11 O30 1.274 . S
O12 C0 1.241 . S
O12 Mg5 2.042 . S
O13 C0 1.280 . S
O13 Mg3 1.984 . S
O14 C1 1.277 . S
O14 Mg5 2.041 . S
O15 C1 1.245 . S
O15 Mg3 1.988 . S
O16 Mg3 2.061 . S
O16 C10 1.247 . S
O17 Mg6 2.100 1_556 S
O17 Mg9 2.238 . S
O17 C10 1.289 1_556 S
C18 O19 1.245 1_554 S
C18 O20 1.274 . S
O19 Mg6 2.075 1_556 S
O19 C18 1.245 1_556 S
O20 Mg5 2.038 . S
O20 C18 1.274 . S
O21 Mg9 2.042 . S
O21 C24 1.241 . S
O22 Mg8 1.984 . S
O22 C24 1.280 . S
O23 Mg9 2.041 . S
O23 C27 1.277 . S
C24 O21 1.241 . S
C24 O22 1.280 . S
O25 Mg8 1.988 . S
O25 C27 1.245 . S
O26 C2 1.247 . S
O26 Mg8 2.061 . S
C27 O23 1.277 . S
C27 O25 1.245 . S
O28 C2 1.289 1_554 S
O28 Mg5 2.238 . S
O28 Mg6 2.113 . S
O29 Mg6 2.082 . S
O29 C11 1.245 1_554 S
O30 Mg9 2.038 . S
O30 C11 1.274 . S
C31 O43 1.241 . S
C31 O44 1.280 . S
C32 O45 1.277 . S
C32 O46 1.245 . S
C33 O57 1.247 . S
C33 O59 1.289 1_556 S
Mg34 O35 1.926 . S
Mg34 O44 1.984 . S
Mg34 O46 1.988 . S
Mg34 O47 2.061 . S
O35 Mg34 1.926 . S
O35 Mg36 1.986 . S
O35 Mg37 1.936 . S
Mg36 O35 1.986 . S
Mg36 O43 2.042 . S
Mg36 O45 2.041 . S
Mg36 O51 2.038 . S
Mg36 O59 2.238 . S
Mg37 O35 1.936 . S
Mg37 O38 1.898 1_554 S
Mg37 O48 2.100 1_554 S
Mg37 O50 2.075 1_554 S
Mg37 O59 2.113 . S
Mg37 O60 2.082 . S
O38 Mg37 1.898 1_556 S
O38 Mg39 1.926 . S
O38 Mg40 1.986 . S
Mg39 O38 1.926 . S
Mg39 O53 1.984 . S
Mg39 O56 1.988 . S
Mg39 O57 2.061 . S
Mg40 O38 1.986 . S
Mg40 O48 2.238 . S
Mg40 O52 2.042 . S
Mg40 O54 2.041 . S
Mg40 O61 2.038 . S
C41 O47 1.247 . S
C41 O48 1.289 1_554 S
C42 O60 1.245 1_556 S
C42 O61 1.274 . S
O43 C31 1.241 . S
O43 Mg36 2.042 . S
O44 C31 1.280 . S
O44 Mg34 1.984 . S
O45 C32 1.277 . S
O45 Mg36 2.041 . S
O46 C32 1.245 . S
O46 Mg34 1.988 . S
O47 Mg34 2.061 . S
O47 C41 1.247 . S
O48 Mg37 2.100 1_556 S
O48 Mg40 2.238 . S
O48 C41 1.289 1_556 S
C49 O50 1.245 1_554 S
C49 O51 1.274 . S
O50 Mg37 2.075 1_556 S
O50 C49 1.245 1_556 S
O51 Mg36 2.038 . S
O51 C49 1.274 . S
O52 Mg40 2.042 . S
O52 C55 1.241 . S
O53 Mg39 1.984 . S
O53 C55 1.280 . S
O54 Mg40 2.041 . S
O54 C58 1.277 . S
C55 O52 1.241 . S
C55 O53 1.280 . S
O56 Mg39 1.988 . S
O56 C58 1.245 . S
O57 C33 1.247 . S
O57 Mg39 2.061 . S
C58 O54 1.277 . S
C58 O56 1.245 . S
O59 C33 1.289 1_554 S
O59 Mg36 2.238 . S
O59 Mg37 2.113 . S
O60 Mg37 2.082 . S
O60 C42 1.245 1_554 S
O61 Mg40 2.038 . S
O61 C42 1.274 . S
C62 O74 1.241 . S
C62 O75 1.280 . S
C63 O76 1.277 . S
C63 O77 1.245 . S
C64 O88 1.247 . S
C64 O90 1.289 . S
Mg65 O66 1.926 . S
Mg65 O75 1.984 . S
Mg65 O77 1.988 . S
Mg65 O78 2.061 . S
O66 Mg65 1.926 . S
O66 Mg67 1.986 . S
O66 Mg68 1.917 . S
Mg67 O66 1.986 . S
Mg67 O74 2.042 . S
Mg67 O76 2.041 . S
Mg67 O82 2.038 . S
Mg67 O90 2.238 . S
Mg68 O66 1.917 . S
Mg68 O69 1.917 . S
Mg68 O79 2.106 . S
Mg68 O81 2.079 . S
Mg68 O90 2.106 . S
Mg68 O91 2.079 . S
O69 Mg68 1.917 . S
O69 Mg70 1.926 . S
O69 Mg71 1.986 . S
Mg70 O69 1.926 . S
Mg70 O84 1.984 . S
Mg70 O87 1.988 . S
Mg70 O88 2.061 . S
Mg71 O69 1.986 . S
Mg71 O79 2.238 . S
Mg71 O83 2.042 . S
Mg71 O85 2.041 . S
Mg71 O92 2.038 . S
C72 O78 1.247 . S
C72 O79 1.289 . S
C73 O91 1.245 . S
C73 O92 1.274 . S
O74 C62 1.241 . S
O74 Mg67 2.042 . S
O75 C62 1.280 . S
O75 Mg65 1.984 . S
O76 C63 1.277 . S
O76 Mg67 2.041 . S
O77 C63 1.245 . S
O77 Mg65 1.988 . S
O78 Mg65 2.061 . S
O78 C72 1.247 . S
O79 Mg68 2.106 . S
O79 Mg71 2.238 . S
O79 C72 1.289 . S
C80 O81 1.245 . S
C80 O82 1.274 . S
O81 Mg68 2.079 . S
O81 C80 1.245 . S
O82 Mg67 2.038 . S
O82 C80 1.274 . S
O83 Mg71 2.042 . S
O83 C86 1.241 . S
O84 Mg70 1.984 . S
O84 C86 1.280 . S
O85 Mg71 2.041 . S
O85 C89 1.277 . S
C86 O83 1.241 . S
C86 O84 1.280 . S
O87 Mg70 1.988 . S
O87 C89 1.245 . S
O88 C64 1.247 . S
O88 Mg70 2.061 . S
C89 O85 1.277 . S
C89 O87 1.245 . S
O90 C64 1.289 . S
O90 Mg67 2.238 . S
O90 Mg68 2.106 . S
O91 Mg68 2.079 . S
O91 C73 1.245 . S
O92 Mg71 2.038 . S
O92 C73 1.274 . S
C93 O105 1.241 . S
C93 O106 1.280 . S
C94 O107 1.277 . S
C94 O108 1.245 . S
C95 O119 1.247 . S
C95 O121 1.289 . S
Mg96 O97 1.926 . S
Mg96 O106 1.984 . S
Mg96 O108 1.988 . S
Mg96 O109 2.061 . S
O97 Mg96 1.926 . S
O97 Mg98 1.986 . S
O97 Mg99 1.917 . S
Mg98 O97 1.986 . S
Mg98 O105 2.042 . S
Mg98 O107 2.041 . S
Mg98 O113 2.038 . S
Mg98 O121 2.238 . S
Mg99 O97 1.917 . S
Mg99 O100 1.917 . S
Mg99 O110 2.106 . S
Mg99 O112 2.079 . S
Mg99 O121 2.106 . S
Mg99 O122 2.079 . S
O100 Mg99 1.917 . S
O100 Mg101 1.926 . S
O100 Mg102 1.986 . S
Mg101 O100 1.926 . S
Mg101 O115 1.984 . S
Mg101 O118 1.988 . S
Mg101 O119 2.061 . S
Mg102 O100 1.986 . S
Mg102 O110 2.238 . S
Mg102 O114 2.042 . S
Mg102 O116 2.041 . S
Mg102 O123 2.038 . S
C103 O109 1.247 . S
C103 O110 1.289 . S
C104 O122 1.245 . S
C104 O123 1.274 . S
O105 C93 1.241 . S
O105 Mg98 2.042 . S
O106 C93 1.280 . S
O106 Mg96 1.984 . S
O107 C94 1.277 . S
O107 Mg98 2.041 . S
O108 C94 1.245 . S
O108 Mg96 1.988 . S
O109 Mg96 2.061 . S
O109 C103 1.247 . S
O110 Mg99 2.106 . S
O110 Mg102 2.238 . S
O110 C103 1.289 . S
C111 O112 1.245 . S
C111 O113 1.274 . S
O112 Mg99 2.079 . S
O112 C111 1.245 . S
O113 Mg98 2.038 . S
O113 C111 1.274 . S
O114 Mg102 2.042 . S
O114 C117 1.241 . S
O115 Mg101 1.984 . S
O115 C117 1.280 . S
O116 Mg102 2.041 . S
O116 C120 1.277 . S
C117 O114 1.241 . S
C117 O115 1.280 . S
O118 Mg101 1.988 . S
O118 C120 1.245 . S
O119 C95 1.247 . S
O119 Mg101 2.061 . S
C120 O116 1.277 . S
C120 O118 1.245 . S
O121 C95 1.289 . S
O121 Mg98 2.238 . S
O121 Mg99 2.106 . S
O122 Mg99 2.079 . S
O122 C104 1.245 . S
O123 Mg102 2.038 . S
O123 C104 1.274 . S
C124 C125 1.386 1_554 S
C124 C126 1.383 . S
C124 H140 0.951 . S
C125 C124 1.386 1_556 S
C125 C129 1.383 . S
C126 C124 1.383 . S
C126 C127 1.402 1_554 S
C126 H141 0.951 . S
C127 C126 1.402 1_556 S
C127 C128 1.375 . S
C127 C130 1.481 . S
C128 C127 1.375 . S
C128 C129 1.367 . S
C128 H142 0.951 . S
C129 C125 1.383 . S
C129 C128 1.367 . S
C129 H143 0.950 . S
C130 C127 1.481 . S
C130 C131 1.297 1_556 S
C130 H144 0.950 . S
C131 C130 1.297 1_554 S
C131 C132 1.479 . S
C131 H145 0.950 . S
C132 C131 1.479 . S
C132 C133 1.375 . S
C132 C138 1.404 1_554 S
C133 C132 1.375 . S
C133 C134 1.369 . S
C133 H146 0.950 . S
C134 C133 1.369 . S
C134 C135 1.392 1_655 S
C134 H147 0.944 1_655 S
C135 C134 1.392 1_455 S
C135 C137 1.384 1_454 S
H136 C138 0.949 . S
C137 C135 1.384 1_656 S
C137 C138 1.385 . S
C137 H139 0.950 1_655 S
C138 C132 1.404 1_556 S
C138 H136 0.949 . S
C138 C137 1.385 . S
H139 C137 0.950 1_455 S
H140 C124 0.951 . S
H141 C126 0.951 . S
H142 C128 0.951 . S
H143 C129 0.950 . S
H144 C130 0.950 . S
H145 C131 0.950 . S
H146 C133 0.950 . S
H147 C134 0.944 1_455 S
C148 C149 1.386 1_455 S
C148 C150 1.383 . S
C148 H164 0.951 1_556 S
C149 C148 1.386 1_655 S
C149 C153 1.383 1_655 S
C150 C148 1.383 . S
C150 C151 1.402 . S
C150 H165 0.951 . S
C151 C150 1.402 . S
C151 C152 1.375 . S
C151 C154 1.481 . S
C152 C151 1.375 . S
C152 C153 1.367 . S
C152 H166 0.951 . S
C153 C149 1.383 1_455 S
C153 C152 1.367 . S
C153 H167 0.950 1_455 S
C154 C151 1.481 . S
C154 C155 1.297 . S
C154 H168 0.950 . S
C155 C154 1.297 . S
C155 C156 1.479 . S
C155 H169 0.950 . S
C156 C155 1.479 . S
C156 C157 1.375 . S
C156 C162 1.404 . S
C157 C156 1.375 . S
C157 C158 1.367 1_556 S
C157 H170 0.950 . S
C158 C157 1.367 1_554 S
C158 C159 1.392 1_554 S
C158 H171 0.953 . S
C159 C158 1.392 1_556 S
C159 C161 1.384 . S
H160 C162 0.949 . S
C161 C159 1.384 . S
C161 C162 1.385 . S
C161 H163 0.950 . S
C162 C156 1.404 . S
C162 H160 0.949 . S
C162 C161 1.385 . S
H163 C161 0.950 . S
H164 C148 0.951 1_554 S
H165 C150 0.951 . S
H166 C152 0.951 . S
H167 C153 0.950 1_655 S
H168 C154 0.950 . S
H169 C155 0.950 . S
H170 C157 0.950 . S
H171 C158 0.953 . S
C172 C173 1.386 . S
C172 C174 1.383 . S
C172 H188 0.951 . S
C173 C172 1.386 . S
C173 C177 1.383 . S
C174 C172 1.383 . S
C174 C175 1.402 . S
C174 H189 0.951 . S
C175 C174 1.402 . S
C175 C176 1.375 . S
C175 C178 1.481 . S
C176 C175 1.375 . S
C176 C177 1.367 . S
C176 H190 0.951 . S
C177 C173 1.383 . S
C177 C176 1.367 . S
C177 H191 0.950 . S
C178 C175 1.481 . S
C178 C179 1.297 . S
C178 H192 0.950 . S
C179 C178 1.297 . S
C179 C180 1.479 . S
C179 H193 0.950 . S
C180 C179 1.479 . S
C180 C181 1.375 . S
C180 C186 1.404 . S
C181 C180 1.375 . S
C181 C182 1.369 . S
C181 H194 0.950 . S
C182 C181 1.369 . S
C182 C183 1.392 1_655 S
C182 H195 0.951 . S
C183 C182 1.392 1_455 S
C183 C185 1.384 1_455 S
H184 C186 0.949 . S
C185 C183 1.384 1_655 S
C185 C186 1.385 . S
C185 H187 0.950 1_655 S
C186 C180 1.404 . S
C186 H184 0.949 . S
C186 C185 1.385 . S
H187 C185 0.950 1_455 S
H188 C172 0.951 . S
H189 C174 0.951 . S
H190 C176 0.951 . S
H191 C177 0.950 . S
H192 C178 0.950 . S
H193 C179 0.950 . S
H194 C181 0.950 . S
H195 C182 0.951 . S
C196 C197 1.386 1_455 S
C196 C198 1.383 . S
C196 H212 0.951 1_455 S
C197 C196 1.386 1_655 S
C197 C201 1.383 1_655 S
C198 C196 1.383 . S
C198 C199 1.402 . S
C198 H213 0.951 . S
C199 C198 1.402 . S
C199 C200 1.375 . S
C199 C202 1.481 . S
C200 C199 1.375 . S
C200 C201 1.367 . S
C200 H214 0.951 . S
C201 C197 1.383 1_455 S
C201 C200 1.367 . S
C201 H215 0.950 . S
C202 C199 1.481 . S
C202 C203 1.297 . S
C202 H216 0.950 . S
C203 C202 1.297 . S
C203 C204 1.479 . S
C203 H217 0.950 . S
C204 C203 1.479 . S
C204 C205 1.375 . S
C204 C210 1.404 . S
C205 C204 1.375 . S
C205 C206 1.369 . S
C205 H218 0.950 . S
C206 C205 1.369 . S
C206 C207 1.392 . S
C206 H219 0.951 . S
C207 C206 1.392 . S
C207 C209 1.384 . S
H208 C210 0.949 . S
C209 C207 1.384 . S
C209 C210 1.385 . S
C209 H211 0.950 . S
C210 C204 1.404 . S
C210 H208 0.949 . S
C210 C209 1.385 . S
H211 C209 0.950 . S
H212 C196 0.951 1_655 S
H213 C198 0.951 . S
H214 C200 0.951 . S
H215 C201 0.950 . S
H216 C202 0.950 . S
H217 C203 0.950 . S
H218 C205 0.950 . S
H219 C206 0.951 . S
C220 C221 1.379 1_554 S
C220 C222 1.383 . S
C220 H236 0.951 . S
C221 C220 1.379 1_556 S
C221 C225 1.391 . S
C222 C220 1.383 . S
C222 C223 1.402 1_554 S
C222 H237 0.951 . S
C223 C222 1.402 1_556 S
C223 C224 1.375 . S
C223 C226 1.481 . S
C224 C223 1.375 . S
C224 C225 1.367 . S
C224 H238 0.951 . S
C225 C221 1.391 . S
C225 C224 1.367 . S
C225 H239 0.950 . S
C226 C223 1.481 . S
C226 C227 1.297 1_556 S
C226 H240 0.950 . S
C227 C226 1.297 1_554 S
C227 C228 1.479 . S
C227 H241 0.950 . S
C228 C227 1.479 . S
C228 C229 1.375 . S
C228 C234 1.404 1_554 S
C229 C228 1.375 . S
C229 C230 1.369 . S
C229 H242 0.950 . S
C230 C229 1.369 . S
C230 C231 1.392 . S
C230 H243 0.951 . S
C231 C230 1.392 . S
C231 C233 1.384 1_554 S
H232 C234 0.949 . S
C233 C231 1.384 1_556 S
C233 C234 1.385 . S
C233 H235 0.950 . S
C234 C228 1.404 1_556 S
C234 H232 0.949 . S
C234 C233 1.385 . S
H235 C233 0.950 . S
H236 C220 0.951 . S
H237 C222 0.951 . S
H238 C224 0.951 . S
H239 C225 0.950 . S
H240 C226 0.950 . S
H241 C227 0.950 . S
H242 C229 0.950 . S
H243 C230 0.951 . S
C244 C245 1.386 . S
C244 C246 1.383 . S
C244 H260 0.951 . S
C245 C244 1.386 . S
C245 C249 1.383 . S
C246 C244 1.383 . S
C246 C247 1.402 . S
C246 H261 0.951 . S
C247 C246 1.402 . S
C247 C248 1.375 . S
C247 C250 1.481 . S
C248 C247 1.375 . S
C248 C249 1.367 . S
C248 H262 0.951 . S
C249 C245 1.383 . S
C249 C248 1.367 . S
C249 H263 0.950 . S
C250 C247 1.481 . S
C250 C251 1.297 . S
C250 H264 0.950 . S
C251 C250 1.297 . S
C251 C252 1.479 . S
C251 H265 0.950 . S
C252 C251 1.479 . S
C252 C253 1.375 . S
C252 C258 1.404 . S
C253 C252 1.375 . S
C253 C254 1.369 . S
C253 H266 0.950 . S
C254 C253 1.369 . S
C254 C255 1.392 . S
C254 H267 0.951 . S
C255 C254 1.392 . S
C255 C257 1.384 . S
H256 C258 0.949 . S
C257 C255 1.384 . S
C257 C258 1.385 . S
C257 H259 0.950 . S
C258 C252 1.404 . S
C258 H256 0.949 . S
C258 C257 1.385 . S
H259 C257 0.950 . S
H260 C244 0.951 . S
H261 C246 0.951 . S
H262 C248 0.951 . S
H263 C249 0.950 . S
H264 C250 0.950 . S
H265 C251 0.950 . S
H266 C253 0.950 . S
H267 C254 0.951 . S
C268 C269 1.386 1_554 S
C268 C270 1.383 . S
C268 H284 0.951 . S
C269 C268 1.386 1_556 S
C269 C273 1.383 . S
C270 C268 1.383 . S
C270 C271 1.402 1_554 S
C270 H285 0.951 . S
C271 C270 1.402 1_556 S
C271 C272 1.375 . S
C271 C274 1.481 1_455 S
C272 C271 1.375 . S
C272 C273 1.367 . S
C272 H286 0.951 . S
C273 C269 1.383 . S
C273 C272 1.367 . S
C273 H287 0.950 . S
C274 C271 1.481 1_655 S
C274 C275 1.297 1_546 S
C274 H288 0.950 . S
C275 C274 1.297 1_564 S
C275 C276 1.479 . S
C275 H289 0.950 1_565 S
C276 C275 1.479 . S
C276 C277 1.375 . S
C276 C282 1.404 1_554 S
C277 C276 1.375 . S
C277 C278 1.369 . S
C277 H290 0.950 . S
C278 C277 1.369 . S
C278 C279 1.392 . S
C278 H291 0.951 . S
C279 C278 1.392 . S
C279 C281 1.384 1_554 S
H280 C282 0.949 . S
C281 C279 1.384 1_556 S
C281 C282 1.385 . S
C281 H283 0.950 . S
C282 C276 1.404 1_556 S
C282 H280 0.949 . S
C282 C281 1.385 . S
H283 C281 0.950 . S
H284 C268 0.951 . S
H285 C270 0.951 . S
H286 C272 0.951 . S
H287 C273 0.950 . S
H288 C274 0.950 . S
H289 C275 0.950 1_545 S
H290 C277 0.950 . S
H291 C278 0.951 . S
C292 C293 1.386 . S
C292 C294 1.383 . S
C292 H308 0.951 . S
C293 C292 1.386 . S
C293 C297 1.383 . S
C294 C292 1.383 . S
C294 C295 1.402 . S
C294 H309 0.951 . S
C295 C294 1.402 . S
C295 C296 1.375 . S
C295 C298 1.481 1_655 S
C296 C295 1.375 . S
C296 C297 1.367 . S
C296 H310 0.951 1_655 S
C297 C293 1.383 . S
C297 C296 1.367 . S
C297 H311 0.950 . S
C298 C295 1.481 1_455 S
C298 C299 1.297 1_445 S
C298 H312 0.950 . S
C299 C298 1.297 1_665 S
C299 C300 1.479 1_655 S
C299 H313 0.950 . S
C300 C299 1.479 1_455 S
C300 C301 1.375 . S
C300 C306 1.404 . S
C301 C300 1.375 . S
C301 C302 1.369 . S
C301 H314 0.950 1_455 S
C302 C301 1.369 . S
C302 C303 1.392 . S
C302 H315 0.951 . S
C303 C302 1.392 . S
C303 C305 1.384 . S
H304 C306 0.949 . S
C305 C303 1.384 . S
C305 C306 1.385 . S
C305 H307 0.950 . S
C306 C300 1.404 . S
C306 H304 0.949 . S
C306 C305 1.385 . S
H307 C305 0.950 . S
H308 C292 0.951 . S
H309 C294 0.951 . S
H310 C296 0.951 1_455 S
H311 C297 0.950 . S
H312 C298 0.950 . S
H313 C299 0.950 . S
H314 C301 0.950 1_655 S
H315 C302 0.951 . S
C316 C317 1.386 . S
C316 C318 1.383 . S
C316 H332 0.951 . S
C317 C316 1.386 . S
C317 C321 1.383 . S
C318 C316 1.383 . S
C318 C319 1.402 . S
C318 H333 0.951 . S
C319 C318 1.402 . S
C319 C320 1.375 . S
C319 C322 1.481 . S
C320 C319 1.375 . S
C320 C321 1.367 . S
C320 H334 0.951 . S
C321 C317 1.383 . S
C321 C320 1.367 . S
C321 H335 0.950 . S
C322 C319 1.481 . S
C322 C323 1.297 . S
C322 H336 0.950 . S
C323 C322 1.297 . S
C323 C324 1.479 . S
C323 H337 0.950 . S
C324 C323 1.479 . S
C324 C325 1.375 . S
C324 C330 1.404 . S
C325 C324 1.375 . S
C325 C326 1.369 . S
C325 H338 0.950 . S
C326 C325 1.369 . S
C326 C327 1.392 . S
C326 H339 0.951 . S
C327 C326 1.392 . S
C327 C329 1.384 . S
H328 C330 0.949 . S
C329 C327 1.384 . S
C329 C330 1.385 . S
C329 H331 0.950 . S
C330 C324 1.404 . S
C330 H328 0.949 . S
C330 C329 1.385 . S
H331 C329 0.950 . S
H332 C316 0.951 . S
H333 C318 0.951 . S
H334 C320 0.951 . S
H335 C321 0.950 . S
H336 C322 0.950 . S
H337 C323 0.950 . S
H338 C325 0.950 . S
H339 C326 0.951 . S
C340 C341 1.386 . S
C340 C342 1.383 . S
C340 H356 0.951 . S
C341 C340 1.386 . S
C341 C345 1.383 . S
C342 C340 1.383 . S
C342 C343 1.402 . S
C342 H357 0.951 . S
C343 C342 1.402 . S
C343 C344 1.375 . S
C343 C346 1.481 . S
C344 C343 1.375 . S
C344 C345 1.367 . S
C344 H358 0.951 . S
C345 C341 1.383 . S
C345 C344 1.367 . S
C345 H359 0.950 . S
C346 C343 1.481 . S
C346 C347 1.297 . S
C346 H360 0.950 . S
C347 C346 1.297 . S
C347 C348 1.479 . S
C347 H361 0.950 . S
C348 C347 1.479 . S
C348 C349 1.375 . S
C348 C354 1.404 . S
C349 C348 1.375 . S
C349 C350 1.369 . S
C349 H362 0.950 . S
C350 C349 1.369 . S
C350 C351 1.392 . S
C350 H363 0.951 . S
C351 C350 1.392 . S
C351 C353 1.384 . S
H352 C354 0.949 . S
C353 C351 1.384 . S
C353 C354 1.385 . S
C353 H355 0.950 . S
C354 C348 1.404 . S
C354 H352 0.949 . S
C354 C353 1.385 . S
H355 C353 0.950 . S
H356 C340 0.951 . S
H357 C342 0.951 . S
H358 C344 0.951 . S
H359 C345 0.950 . S
H360 C346 0.950 . S
H361 C347 0.950 . S
H362 C349 0.950 . S
H363 C350 0.951 . S
C364 C365 1.386 . S
C364 C366 1.383 . S
C364 H380 0.951 . S
C365 C364 1.386 . S
C365 C369 1.383 . S
C366 C364 1.383 . S
C366 C367 1.402 . S
C366 H381 0.951 . S
C367 C366 1.402 . S
C367 C368 1.375 . S
C367 C370 1.481 . S
C368 C367 1.375 . S
C368 C369 1.367 . S
C368 H382 0.951 . S
C369 C365 1.383 . S
C369 C368 1.367 . S
C369 H383 0.950 . S
C370 C367 1.481 . S
C370 C371 1.297 . S
C370 H384 0.950 . S
C371 C370 1.297 . S
C371 C372 1.479 . S
C371 H385 0.950 . S
C372 C371 1.479 . S
C372 C373 1.375 . S
C372 C378 1.404 . S
C373 C372 1.375 . S
C373 C374 1.369 . S
C373 H386 0.950 . S
C374 C373 1.369 . S
C374 C375 1.392 . S
C374 H387 0.951 . S
C375 C374 1.392 . S
C375 C377 1.384 . S
H376 C378 0.949 . S
C377 C375 1.384 . S
C377 C378 1.385 . S
C377 H379 0.950 . S
C378 C372 1.404 . S
C378 H376 0.949 . S
C378 C377 1.385 . S
H379 C377 0.950 . S
H380 C364 0.951 . S
H381 C366 0.951 . S
H382 C368 0.951 . S
H383 C369 0.950 . S
H384 C370 0.950 . S
H385 C371 0.950 . S
H386 C373 0.950 . S
H387 C374 0.951 . S
C388 C389 1.386 . S
C388 C390 1.383 . S
C388 H404 0.951 . S
C389 C388 1.386 . S
C389 C393 1.383 . S
C390 C388 1.383 . S
C390 C391 1.402 . S
C390 H405 0.951 . S
C391 C390 1.402 . S
C391 C392 1.375 . S
C391 C394 1.481 . S
C392 C391 1.375 . S
C392 C393 1.367 . S
C392 H406 0.951 . S
C393 C389 1.383 . S
C393 C392 1.367 . S
C393 H407 0.950 . S
C394 C391 1.481 . S
C394 C395 1.297 . S
C394 H408 0.950 . S
C395 C394 1.297 . S
C395 C396 1.479 . S
C395 H409 0.950 . S
C396 C395 1.479 . S
C396 C397 1.375 . S
C396 C402 1.404 . S
C397 C396 1.375 . S
C397 C398 1.369 . S
C397 H410 0.950 . S
C398 C397 1.369 . S
C398 C399 1.392 . S
C398 H411 0.951 . S
C399 C398 1.392 . S
C399 C401 1.384 . S
H400 C402 0.949 . S
C401 C399 1.384 . S
C401 C402 1.385 . S
C401 H403 0.950 . S
C402 C396 1.404 . S
C402 H400 0.949 . S
C402 C401 1.385 . S
H403 C401 0.950 . S
H404 C388 0.951 . S
H405 C390 0.951 . S
H406 C392 0.951 . S
H407 C393 0.950 . S
H408 C394 0.950 . S
H409 C395 0.950 . S
H410 C397 0.950 . S
H411 C398 0.951 . S
C412 C413 1.386 . S
C412 C414 1.380 1_455 S
C412 H428 0.951 . S
C413 C412 1.386 . S
C413 C417 1.383 . S
C414 C412 1.380 1_655 S
C414 C415 1.400 1_655 S
C414 H429 0.955 . S
C415 C414 1.400 1_455 S
C415 C416 1.375 . S
C415 C418 1.481 1_455 S
C416 C415 1.375 . S
C416 C417 1.367 . S
C416 H430 0.951 . S
C417 C413 1.383 . S
C417 C416 1.367 . S
C417 H431 0.950 . S
C418 C415 1.481 1_655 S
C418 C419 1.297 . S
C418 H432 0.950 1_655 S
C419 C418 1.297 . S
C419 C420 1.479 . S
C419 H433 0.950 . S
C420 C419 1.479 . S
C420 C421 1.375 . S
C420 C426 1.404 . S
C421 C420 1.375 . S
C421 C422 1.369 . S
C421 H434 0.950 . S
C422 C421 1.369 . S
C422 C423 1.392 . S
C422 H435 0.951 . S
C423 C422 1.392 . S
C423 C425 1.384 . S
H424 C426 0.949 . S
C425 C423 1.384 . S
C425 C426 1.385 . S
C425 H427 0.950 . S
C426 C420 1.404 . S
C426 H424 0.949 . S
C426 C425 1.385 . S
H427 C425 0.950 . S
H428 C412 0.951 . S
H429 C414 0.955 . S
H430 C416 0.951 . S
H431 C417 0.950 . S
H432 C418 0.950 1_455 S
H433 C419 0.950 . S
H434 C421 0.950 . S
H435 C422 0.951 . S
C436 C437 1.386 . S
C436 C438 1.383 . S
C436 H452 0.951 . S
C437 C436 1.386 . S
C437 C441 1.383 . S
C438 C436 1.383 . S
C438 C439 1.402 . S
C438 H453 0.951 1_655 S
C439 C438 1.402 . S
C439 C440 1.375 . S
C439 C442 1.481 . S
C440 C439 1.375 . S
C440 C441 1.367 . S
C440 H454 0.951 . S
C441 C437 1.383 . S
C441 C440 1.367 . S
C441 H455 0.950 . S
C442 C439 1.481 . S
C442 C443 1.297 1_655 S
C442 H456 0.950 . S
C443 C442 1.297 1_455 S
C443 C444 1.479 . S
C443 H457 0.950 . S
C444 C443 1.479 . S
C444 C445 1.375 . S
C444 C450 1.404 . S
C445 C444 1.375 . S
C445 C446 1.369 . S
C445 H458 0.950 . S
C446 C445 1.369 . S
C446 C447 1.392 . S
C446 H459 0.951 . S
C447 C446 1.392 . S
C447 C449 1.384 . S
H448 C450 0.949 1_655 S
C449 C447 1.384 . S
C449 C450 1.385 . S
C449 H451 0.950 1_455 S
C450 C444 1.404 . S
C450 H448 0.949 1_455 S
C450 C449 1.385 . S
H451 C449 0.950 1_655 S
H452 C436 0.951 . S
H453 C438 0.951 1_455 S
H454 C440 0.951 . S
H455 C441 0.950 . S
H456 C442 0.950 . S
H457 C443 0.950 . S
H458 C445 0.950 . S
H459 C446 0.951 . S
C460 C461 1.386 . S
C460 C462 1.383 . S
C460 H476 0.951 1_455 S
C461 C460 1.386 . S
C461 C465 1.383 . S
C462 C460 1.383 . S
C462 C463 1.402 . S
C462 H477 0.951 1_455 S
C463 C462 1.402 . S
C463 C464 1.375 . S
C463 C466 1.481 . S
C464 C463 1.375 . S
C464 C465 1.367 . S
C464 H478 0.951 . S
C465 C461 1.383 . S
C465 C464 1.367 . S
C465 H479 0.950 . S
C466 C463 1.481 . S
C466 C467 1.297 1_455 S
C466 H480 0.950 . S
C467 C466 1.297 1_655 S
C467 C468 1.479 . S
C467 H481 0.950 . S
C468 C467 1.479 . S
C468 C469 1.375 . S
C468 C474 1.404 1_655 S
C469 C468 1.375 . S
C469 C470 1.369 . S
C469 H482 0.950 . S
C470 C469 1.369 . S
C470 C471 1.392 . S
C470 H483 0.951 . S
C471 C470 1.392 . S
C471 C473 1.384 . S
H472 C474 0.949 . S
C473 C471 1.384 . S
C473 C474 1.385 1_655 S
C473 H475 0.950 1_655 S
C474 C468 1.404 1_455 S
C474 H472 0.949 . S
C474 C473 1.385 1_455 S
H475 C473 0.950 1_455 S
H476 C460 0.951 1_655 S
H477 C462 0.951 1_655 S
H478 C464 0.951 . S
H479 C465 0.950 . S
H480 C466 0.950 . S
H481 C467 0.950 . S
H482 C469 0.950 . S
H483 C470 0.951 . S
C484 C485 1.386 . S
C484 C486 1.383 . S
C484 H500 0.951 . S
C485 C484 1.386 . S
C485 C489 1.383 . S
C486 C484 1.383 . S
C486 C487 1.402 . S
C486 H501 0.951 1_455 S
C487 C486 1.402 . S
C487 C488 1.375 . S
C487 C490 1.481 . S
C488 C487 1.375 . S
C488 C489 1.367 . S
C488 H502 0.951 . S
C489 C485 1.383 . S
C489 C488 1.367 . S
C489 H503 0.950 . S
C490 C487 1.481 . S
C490 C491 1.297 1_455 S
C490 H504 0.950 . S
C491 C490 1.297 1_655 S
C491 C492 1.479 . S
C491 H505 0.950 . S
C492 C491 1.479 . S
C492 C493 1.375 . S
C492 C498 1.404 . S
C493 C492 1.375 . S
C493 C494 1.369 . S
C493 H506 0.950 . S
C494 C493 1.369 . S
C494 C495 1.392 . S
C494 H507 0.951 . S
C495 C494 1.392 . S
C495 C497 1.384 . S
H496 C498 0.949 . S
C497 C495 1.384 . S
C497 C498 1.385 . S
C497 H499 0.950 . S
C498 C492 1.404 . S
C498 H496 0.949 . S
C498 C497 1.385 . S
H499 C497 0.950 . S
H500 C484 0.951 . S
H501 C486 0.951 1_655 S
H502 C488 0.951 . S
H503 C489 0.950 . S
H504 C490 0.950 . S
H505 C491 0.950 . S
H506 C493 0.950 . S
H507 C494 0.951 . S
C125 C11 1.410 . S
C135 C18 1.387 . S
C149 C42 1.397 . S
C159 C49 1.431 1_556 S
C173 C73 1.434 . S
C183 C80 1.392 . S
C197 C104 1.433 . S
C207 C111 1.383 . S
C221 C41 1.582 1_556 S
C231 C2 1.585 1_554 S
C245 C103 1.585 . S
C255 C64 1.584 . S
C269 C10 1.591 1_556 S
C279 C33 1.573 1_554 S
C293 C95 1.592 . S
C303 C72 1.541 . S
C317 C93 1.093 . S
C327 C1 1.089 . S
C341 C31 1.148 . S
C351 C63 1.017 . S
C365 C86 1.056 . S
C375 C58 1.043 . S
C389 C24 1.122 . S
C399 C120 1.033 . S
C413 C62 1.116 . S
C423 C32 1.052 . S
C437 C94 1.108 . S
C447 C0 1.069 . S
C461 C27 1.061 . S
C471 C117 1.046 . S
C485 C89 1.093 . S
C495 C55 1.004 . S
