# Generated by pormake.
# Topology umn, (4)-cn, num edge types: 1
# Building blocks:
#     Node 0, Type 0, BuildingBlock: GALJAG_clean_sbu_0, # of connection points: 4
#     Node 1, Type 0, BuildingBlock: GALJAG_clean_sbu_0, # of connection points: 4
#     Node 2, Type 0, BuildingBlock: GALJAG_clean_sbu_0, # of connection points: 4
#     Node 3, Type 0, BuildingBlock: GALJAG_clean_sbu_0, # of connection points: 4
#     Node 4, Type 0, BuildingBlock: GALJAG_clean_sbu_0, # of connection points: 4
#     Node 5, Type 0, BuildingBlock: GALJAG_clean_sbu_0, # of connection points: 4
#     Node 6, Type 0, BuildingBlock: GALJAG_clean_sbu_0, # of connection points: 4
#     Node 7, Type 0, BuildingBlock: GALJAG_clean_sbu_0, # of connection points: 4
#     Node 8, Type 0, BuildingBlock: GALJAG_clean_sbu_0, # of connection points: 4
#     Node 9, Type 0, BuildingBlock: GALJAG_clean_sbu_0, # of connection points: 4
#     Node 10, Type 0, BuildingBlock: GALJAG_clean_sbu_0, # of connection points: 4
#     Node 11, Type 0, BuildingBlock: GALJAG_clean_sbu_0, # of connection points: 4
#     Node 12, Type 0, BuildingBlock: GALJAG_clean_sbu_0, # of connection points: 4
#     Node 13, Type 0, BuildingBlock: GALJAG_clean_sbu_0, # of connection points: 4
#     Node 14, Type 0, BuildingBlock: GALJAG_clean_sbu_0, # of connection points: 4
#     Node 15, Type 0, BuildingBlock: GALJAG_clean_sbu_0, # of connection points: 4
#     Node 16, Type 0, BuildingBlock: GALJAG_clean_sbu_0, # of connection points: 4
#     Node 17, Type 0, BuildingBlock: GALJAG_clean_sbu_0, # of connection points: 4
#     Node 18, Type 0, BuildingBlock: GALJAG_clean_sbu_0, # of connection points: 4
#     Node 19, Type 0, BuildingBlock: GALJAG_clean_sbu_0, # of connection points: 4
#     Node 20, Type 0, BuildingBlock: GALJAG_clean_sbu_0, # of connection points: 4
#     Node 21, Type 0, BuildingBlock: GALJAG_clean_sbu_0, # of connection points: 4
#     Node 22, Type 0, BuildingBlock: GALJAG_clean_sbu_0, # of connection points: 4
#     Node 23, Type 0, BuildingBlock: GALJAG_clean_sbu_0, # of connection points: 4
#     Node 24, Type 0, BuildingBlock: GALJAG_clean_sbu_0, # of connection points: 4
#     Node 25, Type 0, BuildingBlock: GALJAG_clean_sbu_0, # of connection points: 4
#     Node 26, Type 0, BuildingBlock: GALJAG_clean_sbu_0, # of connection points: 4
#     Node 27, Type 0, BuildingBlock: GALJAG_clean_sbu_0, # of connection points: 4
#     Node 28, Type 0, BuildingBlock: GALJAG_clean_sbu_0, # of connection points: 4
#     Node 29, Type 0, BuildingBlock: GALJAG_clean_sbu_0, # of connection points: 4
#     Node 30, Type 0, BuildingBlock: GALJAG_clean_sbu_0, # of connection points: 4
#     Node 31, Type 0, BuildingBlock: GALJAG_clean_sbu_0, # of connection points: 4
#     Node 32, Type 0, BuildingBlock: GALJAG_clean_sbu_0, # of connection points: 4
#     Node 33, Type 0, BuildingBlock: GALJAG_clean_sbu_0, # of connection points: 4
#     Node 34, Type 0, BuildingBlock: GALJAG_clean_sbu_0, # of connection points: 4
#     Node 35, Type 0, BuildingBlock: GALJAG_clean_sbu_0, # of connection points: 4
#     Edge 36, Type (0, 0), BuildingBlock: MIFKUJ_clean_linker_0, # of connection points: 2
#     Edge 37, Type (0, 0), BuildingBlock: MIFKUJ_clean_linker_0, # of connection points: 2
#     Edge 38, Type (0, 0), BuildingBlock: MIFKUJ_clean_linker_0, # of connection points: 2
#     Edge 39, Type (0, 0), BuildingBlock: MIFKUJ_clean_linker_0, # of connection points: 2
#     Edge 40, Type (0, 0), BuildingBlock: MIFKUJ_clean_linker_0, # of connection points: 2
#     Edge 41, Type (0, 0), BuildingBlock: MIFKUJ_clean_linker_0, # of connection points: 2
#     Edge 42, Type (0, 0), BuildingBlock: MIFKUJ_clean_linker_0, # of connection points: 2
#     Edge 43, Type (0, 0), BuildingBlock: MIFKUJ_clean_linker_0, # of connection points: 2
#     Edge 44, Type (0, 0), BuildingBlock: MIFKUJ_clean_linker_0, # of connection points: 2
#     Edge 45, Type (0, 0), BuildingBlock: MIFKUJ_clean_linker_0, # of connection points: 2
#     Edge 46, Type (0, 0), BuildingBlock: MIFKUJ_clean_linker_0, # of connection points: 2
#     Edge 47, Type (0, 0), BuildingBlock: MIFKUJ_clean_linker_0, # of connection points: 2
#     Edge 48, Type (0, 0), BuildingBlock: MIFKUJ_clean_linker_0, # of connection points: 2
#     Edge 49, Type (0, 0), BuildingBlock: MIFKUJ_clean_linker_0, # of connection points: 2
#     Edge 50, Type (0, 0), BuildingBlock: MIFKUJ_clean_linker_0, # of connection points: 2
#     Edge 51, Type (0, 0), BuildingBlock: MIFKUJ_clean_linker_0, # of connection points: 2
#     Edge 52, Type (0, 0), BuildingBlock: MIFKUJ_clean_linker_0, # of connection points: 2
#     Edge 53, Type (0, 0), BuildingBlock: MIFKUJ_clean_linker_0, # of connection points: 2
#     Edge 54, Type (0, 0), BuildingBlock: MIFKUJ_clean_linker_0, # of connection points: 2
#     Edge 55, Type (0, 0), BuildingBlock: MIFKUJ_clean_linker_0, # of connection points: 2
#     Edge 56, Type (0, 0), BuildingBlock: MIFKUJ_clean_linker_0, # of connection points: 2
#     Edge 57, Type (0, 0), BuildingBlock: MIFKUJ_clean_linker_0, # of connection points: 2
#     Edge 58, Type (0, 0), BuildingBlock: MIFKUJ_clean_linker_0, # of connection points: 2
#     Edge 59, Type (0, 0), BuildingBlock: MIFKUJ_clean_linker_0, # of connection points: 2
#     Edge 60, Type (0, 0), BuildingBlock: MIFKUJ_clean_linker_0, # of connection points: 2
#     Edge 61, Type (0, 0), BuildingBlock: MIFKUJ_clean_linker_0, # of connection points: 2
#     Edge 62, Type (0, 0), BuildingBlock: MIFKUJ_clean_linker_0, # of connection points: 2
#     Edge 63, Type (0, 0), BuildingBlock: MIFKUJ_clean_linker_0, # of connection points: 2
#     Edge 64, Type (0, 0), BuildingBlock: MIFKUJ_clean_linker_0, # of connection points: 2
#     Edge 65, Type (0, 0), BuildingBlock: MIFKUJ_clean_linker_0, # of connection points: 2
#     Edge 66, Type (0, 0), BuildingBlock: MIFKUJ_clean_linker_0, # of connection points: 2
#     Edge 67, Type (0, 0), BuildingBlock: MIFKUJ_clean_linker_0, # of connection points: 2
#     Edge 68, Type (0, 0), BuildingBlock: MIFKUJ_clean_linker_0, # of connection points: 2
#     Edge 69, Type (0, 0), BuildingBlock: MIFKUJ_clean_linker_0, # of connection points: 2
#     Edge 70, Type (0, 0), BuildingBlock: MIFKUJ_clean_linker_0, # of connection points: 2
#     Edge 71, Type (0, 0), BuildingBlock: MIFKUJ_clean_linker_0, # of connection points: 2
#     Edge 72, Type (0, 0), BuildingBlock: MIFKUJ_clean_linker_0, # of connection points: 2
#     Edge 73, Type (0, 0), BuildingBlock: MIFKUJ_clean_linker_0, # of connection points: 2
#     Edge 74, Type (0, 0), BuildingBlock: MIFKUJ_clean_linker_0, # of connection points: 2
#     Edge 75, Type (0, 0), BuildingBlock: MIFKUJ_clean_linker_0, # of connection points: 2
#     Edge 76, Type (0, 0), BuildingBlock: MIFKUJ_clean_linker_0, # of connection points: 2
#     Edge 77, Type (0, 0), BuildingBlock: MIFKUJ_clean_linker_0, # of connection points: 2
#     Edge 78, Type (0, 0), BuildingBlock: MIFKUJ_clean_linker_0, # of connection points: 2
#     Edge 79, Type (0, 0), BuildingBlock: MIFKUJ_clean_linker_0, # of connection points: 2
#     Edge 80, Type (0, 0), BuildingBlock: MIFKUJ_clean_linker_0, # of connection points: 2
#     Edge 81, Type (0, 0), BuildingBlock: MIFKUJ_clean_linker_0, # of connection points: 2
#     Edge 82, Type (0, 0), BuildingBlock: MIFKUJ_clean_linker_0, # of connection points: 2
#     Edge 83, Type (0, 0), BuildingBlock: MIFKUJ_clean_linker_0, # of connection points: 2
#     Edge 84, Type (0, 0), BuildingBlock: MIFKUJ_clean_linker_0, # of connection points: 2
#     Edge 85, Type (0, 0), BuildingBlock: MIFKUJ_clean_linker_0, # of connection points: 2
#     Edge 86, Type (0, 0), BuildingBlock: MIFKUJ_clean_linker_0, # of connection points: 2
#     Edge 87, Type (0, 0), BuildingBlock: MIFKUJ_clean_linker_0, # of connection points: 2
#     Edge 88, Type (0, 0), BuildingBlock: MIFKUJ_clean_linker_0, # of connection points: 2
#     Edge 89, Type (0, 0), BuildingBlock: MIFKUJ_clean_linker_0, # of connection points: 2
#     Edge 90, Type (0, 0), BuildingBlock: MIFKUJ_clean_linker_0, # of connection points: 2
#     Edge 91, Type (0, 0), BuildingBlock: MIFKUJ_clean_linker_0, # of connection points: 2
#     Edge 92, Type (0, 0), BuildingBlock: MIFKUJ_clean_linker_0, # of connection points: 2
#     Edge 93, Type (0, 0), BuildingBlock: MIFKUJ_clean_linker_0, # of connection points: 2
#     Edge 94, Type (0, 0), BuildingBlock: MIFKUJ_clean_linker_0, # of connection points: 2
#     Edge 95, Type (0, 0), BuildingBlock: MIFKUJ_clean_linker_0, # of connection points: 2
#     Edge 96, Type (0, 0), BuildingBlock: MIFKUJ_clean_linker_0, # of connection points: 2
#     Edge 97, Type (0, 0), BuildingBlock: MIFKUJ_clean_linker_0, # of connection points: 2
#     Edge 98, Type (0, 0), BuildingBlock: MIFKUJ_clean_linker_0, # of connection points: 2
#     Edge 99, Type (0, 0), BuildingBlock: MIFKUJ_clean_linker_0, # of connection points: 2
#     Edge 100, Type (0, 0), BuildingBlock: MIFKUJ_clean_linker_0, # of connection points: 2
#     Edge 101, Type (0, 0), BuildingBlock: MIFKUJ_clean_linker_0, # of connection points: 2
#     Edge 102, Type (0, 0), BuildingBlock: MIFKUJ_clean_linker_0, # of connection points: 2
#     Edge 103, Type (0, 0), BuildingBlock: MIFKUJ_clean_linker_0, # of connection points: 2
#     Edge 104, Type (0, 0), BuildingBlock: MIFKUJ_clean_linker_0, # of connection points: 2
#     Edge 105, Type (0, 0), BuildingBlock: MIFKUJ_clean_linker_0, # of connection points: 2
#     Edge 106, Type (0, 0), BuildingBlock: MIFKUJ_clean_linker_0, # of connection points: 2
#     Edge 107, Type (0, 0), BuildingBlock: MIFKUJ_clean_linker_0, # of connection points: 2
# Relax obj value: 0.191
# Max RMSD: 0.184
# Mean RMSD: 0.184
data_MOF--net-umn--node1-GALJAG_clean_sbu_0--edge1-MIFKUJ_clean_linker_0
_symmetry_space_group_name_H-M    P1
_symmetry_Int_Tables_number       1
_symmetry_cell_setting            triclinic
loop_
_symmetry_equiv_pos_as_xyz
'x, y, z'
_cell_length_a     108.28145
_cell_length_b     108.27681
_cell_length_c     47.890058
_cell_angle_alpha  90.0218
_cell_angle_beta   89.991615
_cell_angle_gamma 120.02322
loop_
_atom_site_label
_atom_site_type_symbol
_atom_site_fract_x
_atom_site_fract_y
_atom_site_fract_z
_atom_type_partial_charge
In0 In 0.36001 0.0982 0.22559 0.0
O1 O 0.3668 0.10137 0.27214 0.0
O2 O 0.34572 0.09631 0.26156 0.0
C3 C 0.38263 0.10295 0.19388 0.0
C4 C 0.3555 0.11878 0.20639 0.0
C5 C 0.34327 0.07 0.21795 0.0
O6 O 0.38299 0.10238 0.22028 0.0
O7 O 0.37123 0.10164 0.18412 0.0
O8 O 0.3394 0.07876 0.21076 0.0
O9 O 0.35558 0.07552 0.22839 0.0
C10 C 0.35463 0.09871 0.28066 0.0
O11 O 0.34811 0.10589 0.199 0.0
O12 O 0.36545 0.12143 0.22351 0.0
In13 In 0.89642 0.26508 0.22704 0.0
O14 O 0.88888 0.26206 0.27298 0.0
O15 O 0.90371 0.25558 0.25995 0.0
C16 C 0.88944 0.27953 0.19092 0.0
C17 C 0.88037 0.23892 0.20654 0.0
C18 C 0.92371 0.28495 0.23099 0.0
O19 O 0.88692 0.27947 0.21689 0.0
O20 O 0.89495 0.27212 0.18383 0.0
O21 O 0.91974 0.27361 0.217 0.0
O22 O 0.91381 0.28638 0.24163 0.0
C23 C 0.89674 0.25687 0.27976 0.0
O24 O 0.89363 0.24629 0.20153 0.0
O25 O 0.87527 0.24491 0.22169 0.0
In26 In 0.73394 0.63356 0.22805 0.0
O27 O 0.75226 0.64899 0.20051 0.0
O28 O 0.75127 0.62948 0.2125 0.0
C29 C 0.72071 0.64756 0.24365 0.0
C30 C 0.7432 0.63576 0.28095 0.0
C31 C 0.71457 0.61484 0.1918 0.0
O32 O 0.73182 0.65341 0.22854 0.0
O33 O 0.71611 0.6346 0.24956 0.0
O34 O 0.71947 0.61064 0.21143 0.0
O35 O 0.71947 0.62814 0.19084 0.0
C36 C 0.75793 0.64121 0.19957 0.0
O37 O 0.73267 0.62422 0.27209 0.0
O38 O 0.74934 0.64528 0.26264 0.0
In39 In 0.09844 0.36641 0.28352 0.0
O40 O 0.105 0.37178 0.23713 0.0
O41 O 0.09103 0.35017 0.24916 0.0
C42 C 0.10652 0.38942 0.31646 0.0
C43 C 0.11557 0.35684 0.30064 0.0
C44 C 0.07053 0.35641 0.2894 0.0
O45 O 0.10579 0.39027 0.29014 0.0
O46 O 0.10393 0.3774 0.3253 0.0
O47 O 0.07682 0.35108 0.30283 0.0
O48 O 0.07837 0.3667 0.27355 0.0
C49 C 0.09761 0.35881 0.22963 0.0
O50 O 0.10242 0.35055 0.30669 0.0
O51 O 0.12008 0.36809 0.28624 0.0
In52 In 0.63329 0.73367 0.28773 0.0
O53 O 0.62771 0.73343 0.24075 0.0
O54 O 0.64886 0.7392 0.25217 0.0
C55 C 0.60908 0.71706 0.3167 0.0
C56 C 0.6407 0.7603 0.30302 0.0
C57 C 0.64698 0.72017 0.30471 0.0
O58 O 0.61035 0.71471 0.29124 0.0
O59 O 0.61957 0.72815 0.32655 0.0
O60 O 0.65224 0.73346 0.30779 0.0
O61 O 0.63487 0.7138 0.29323 0.0
C62 C 0.64032 0.73742 0.23273 0.0
O63 O 0.64698 0.75392 0.31198 0.0
O64 O 0.63048 0.75315 0.28641 0.0
In65 In 0.26074 0.89382 0.27323 0.0
O66 O 0.26773 0.8913 0.22911 0.0
O67 O 0.24596 0.88471 0.23604 0.0
C68 C 0.27954 0.89414 0.31084 0.0
C69 C 0.23645 0.8771 0.30055 0.0
C70 C 0.26948 0.92129 0.26314 0.0
O71 O 0.27543 0.88564 0.29024 0.0
O72 O 0.27425 0.90217 0.31187 0.0
O73 O 0.25723 0.91289 0.27286 0.0
O74 O 0.27729 0.91587 0.25925 0.0
C75 C 0.25551 0.88686 0.21857 0.0
O76 O 0.24197 0.8905 0.2993 0.0
O77 O 0.24335 0.8721 0.28821 0.0
In78 In 0.63182 0.8954 0.78281 0.0
O79 O 0.62532 0.89156 0.73605 0.0
O80 O 0.64707 0.89982 0.7473 0.0
C81 C 0.6092 0.88862 0.81593 0.0
C82 C 0.6387 0.87618 0.8001 0.0
C83 C 0.64505 0.92367 0.7905 0.0
O84 O 0.60819 0.88859 0.78953 0.0
O85 O 0.62127 0.89143 0.82497 0.0
O86 O 0.65074 0.91641 0.79748 0.0
O87 O 0.63272 0.91662 0.78019 0.0
C88 C 0.63803 0.89607 0.72794 0.0
O89 O 0.64572 0.88919 0.80699 0.0
O90 O 0.62794 0.87276 0.78474 0.0
In91 In 0.1016 0.73269 0.77432 0.0
O92 O 0.10676 0.75041 0.80546 0.0
O93 O 0.12417 0.74997 0.78581 0.0
C94 C 0.075 0.72817 0.77853 0.0
C95 C 0.10259 0.73469 0.71761 0.0
C96 C 0.10317 0.71206 0.80333 0.0
O97 O 0.08555 0.7406 0.77565 0.0
O98 O 0.07801 0.71834 0.77957 0.0
O99 O 0.11221 0.71909 0.78455 0.0
O100 O 0.09376 0.71544 0.80701 0.0
C101 C 0.1201 0.75622 0.8026 0.0
O102 O 0.09542 0.72299 0.7302 0.0
O103 O 0.11025 0.74502 0.73341 0.0
In104 In 0.26563 0.36503 0.78142 0.0
O105 O 0.2682 0.37225 0.73511 0.0
O106 O 0.25569 0.35017 0.74537 0.0
C107 C 0.28157 0.3853 0.81902 0.0
C108 C 0.23935 0.35819 0.7977 0.0
C109 C 0.28021 0.35127 0.78389 0.0
O110 O 0.2812 0.38855 0.79364 0.0
O111 O 0.27369 0.37226 0.82475 0.0
O112 O 0.26759 0.34583 0.79307 0.0
O113 O 0.28553 0.36379 0.77432 0.0
C114 C 0.26072 0.35948 0.72643 0.0
O115 O 0.24506 0.35088 0.80428 0.0
O116 O 0.24706 0.3692 0.78325 0.0
In117 In 0.89972 0.6371 0.72737 0.0
O118 O 0.89332 0.65046 0.70183 0.0
O119 O 0.87671 0.63033 0.71659 0.0
C120 C 0.92747 0.65606 0.73327 0.0
C121 C 0.89456 0.63791 0.78231 0.0
C122 C 0.90048 0.61877 0.68998 0.0
O123 O 0.919 0.65926 0.72151 0.0
O124 O 0.92194 0.64329 0.7414 0.0
O125 O 0.89362 0.61427 0.7127 0.0
O126 O 0.90663 0.63209 0.68681 0.0
C127 C 0.8801 0.64167 0.70319 0.0
O128 O 0.8963 0.62805 0.77223 0.0
O129 O 0.89449 0.64642 0.76449 0.0
In130 In 0.35884 0.25699 0.71547 0.0
O131 O 0.36554 0.26075 0.7621 0.0
O132 O 0.34392 0.24622 0.75171 0.0
C133 C 0.38178 0.2725 0.68285 0.0
C134 C 0.35188 0.23094 0.6975 0.0
C135 C 0.34564 0.27189 0.7056 0.0
O136 O 0.38265 0.27345 0.70926 0.0
O137 O 0.36968 0.26343 0.67358 0.0
O138 O 0.33968 0.25866 0.70084 0.0
O139 O 0.35814 0.27746 0.71511 0.0
C140 C 0.35301 0.25228 0.77074 0.0
O141 O 0.34497 0.23706 0.69079 0.0
O142 O 0.36249 0.23806 0.71337 0.0
In143 In 0.73099 0.09725 0.72467 0.0
O144 O 0.75162 0.10326 0.70243 0.0
O145 O 0.75034 0.11963 0.72483 0.0
C146 C 0.7158 0.06921 0.71545 0.0
C147 C 0.73482 0.09474 0.77973 0.0
C148 C 0.71563 0.10407 0.69014 0.0
O149 O 0.72877 0.07655 0.70844 0.0
O150 O 0.71051 0.07613 0.72643 0.0
O151 O 0.71446 0.10442 0.71647 0.0
O152 O 0.72485 0.10101 0.68202 0.0
C153 C 0.7578 0.11616 0.71 0.0
O154 O 0.7292 0.10196 0.7714 0.0
O155 O 0.73846 0.08929 0.76049 0.0
In156 In 0.03148 0.43337 0.56024 0.0
O157 O 0.01814 0.44127 0.53933 0.0
O158 O 0.03665 0.45657 0.56149 0.0
C159 C 0.01601 0.40567 0.54684 0.0
C160 C 0.02556 0.43111 0.61557 0.0
C161 C 0.05407 0.43984 0.52701 0.0
O162 O 0.01173 0.41437 0.54193 0.0
O163 O 0.02812 0.41099 0.55818 0.0
O164 O 0.05458 0.43835 0.55317 0.0
O165 O 0.04255 0.4387 0.51835 0.0
C166 C 0.02576 0.45404 0.54729 0.0
O167 O 0.03821 0.43583 0.60692 0.0
O168 O 0.01642 0.42781 0.59656 0.0
In169 In 0.56003 0.59594 0.55959 0.0
O170 O 0.55425 0.57609 0.53491 0.0
O171 O 0.53752 0.57708 0.55677 0.0
C172 C 0.5884 0.6108 0.55535 0.0
C173 C 0.55981 0.58921 0.61392 0.0
C174 C 0.55448 0.61207 0.52463 0.0
O175 O 0.58117 0.59821 0.54611 0.0
O176 O 0.58124 0.61593 0.56588 0.0
O177 O 0.55427 0.61348 0.55093 0.0
O178 O 0.55689 0.60236 0.51675 0.0
C179 C 0.54117 0.56993 0.54137 0.0
O180 O 0.55412 0.59645 0.60612 0.0
O181 O 0.56515 0.58553 0.59451 0.0
In182 In 0.39634 0.96363 0.55945 0.0
O183 O 0.39519 0.95714 0.60597 0.0
O184 O 0.4062 0.97915 0.59446 0.0
C185 C 0.3801 0.94257 0.52351 0.0
C186 C 0.42253 0.97048 0.5427 0.0
C187 C 0.3814 0.97706 0.55847 0.0
O188 O 0.37996 0.94013 0.5495 0.0
O189 O 0.38858 0.95529 0.51631 0.0
O190 O 0.39379 0.98256 0.54803 0.0
O191 O 0.37639 0.96453 0.56779 0.0
C192 C 0.40204 0.9701 0.61388 0.0
O193 O 0.41664 0.97756 0.53556 0.0
O194 O 0.41503 0.9597 0.55789 0.0
In195 In 0.76309 0.6963 0.61595 0.0
O196 O 0.76882 0.70246 0.56921 0.0
O197 O 0.75481 0.6808 0.5803 0.0
C198 C 0.77028 0.71893 0.64957 0.0
C199 C 0.78194 0.68843 0.63067 0.0
C200 C 0.7351 0.68329 0.62583 0.0
O201 O 0.7686 0.71958 0.62349 0.0
O202 O 0.76899 0.70729 0.65786 0.0
O203 O 0.74251 0.67772 0.63263 0.0
O204 O 0.74192 0.6955 0.61484 0.0
C205 C 0.76116 0.68965 0.56104 0.0
O206 O 0.76907 0.68176 0.63858 0.0
O207 O 0.78537 0.6993 0.61565 0.0
In208 In 0.29259 0.05759 0.61445 0.0
O209 O 0.28647 0.05775 0.56795 0.0
O210 O 0.30626 0.0592 0.57734 0.0
C211 C 0.26842 0.04158 0.64409 0.0
C212 C 0.30124 0.08497 0.62591 0.0
C213 C 0.30795 0.04649 0.63506 0.0
O214 O 0.27023 0.03786 0.62009 0.0
O215 O 0.27832 0.05358 0.65198 0.0
O216 O 0.31223 0.05968 0.63594 0.0
O217 O 0.2958 0.0389 0.62418 0.0
C218 C 0.29806 0.05916 0.55874 0.0
O219 O 0.30741 0.07858 0.63541 0.0
O220 O 0.29047 0.07744 0.61078 0.0
In221 In 0.92846 0.23009 0.61269 0.0
O222 O 0.90903 0.22513 0.63842 0.0
O223 O 0.91096 0.20762 0.623 0.0
C224 C 0.94135 0.25825 0.60475 0.0
C225 C 0.92056 0.22487 0.55869 0.0
C226 C 0.94635 0.2288 0.65016 0.0
O227 O 0.92954 0.2515 0.6174 0.0
O228 O 0.94677 0.25083 0.59714 0.0
O229 O 0.94442 0.22292 0.62637 0.0
O230 O 0.93927 0.23499 0.6544 0.0
C231 C 0.90364 0.21175 0.63654 0.0
O232 O 0.93094 0.22367 0.5678 0.0
O233 O 0.91415 0.22792 0.57698 0.0
In234 In 0.29739 0.23218 0.11047 0.0
O235 O 0.31242 0.22737 0.13461 0.0
O236 O 0.29632 0.21067 0.10986 0.0
C237 C 0.31063 0.25997 0.12309 0.0
C238 C 0.30287 0.23421 0.05491 0.0
C239 C 0.27388 0.22446 0.14193 0.0
O240 O 0.31622 0.25235 0.12787 0.0
O241 O 0.29831 0.25346 0.11249 0.0
O242 O 0.27424 0.22733 0.1162 0.0
O243 O 0.28489 0.22461 0.15086 0.0
C244 C 0.30685 0.21465 0.12612 0.0
O245 O 0.29078 0.22504 0.06447 0.0
O246 O 0.31167 0.24203 0.07315 0.0
In247 In 0.76507 0.06722 0.11834 0.0
O248 O 0.76846 0.06413 0.07152 0.0
O249 O 0.75942 0.07695 0.08261 0.0
C250 C 0.77106 0.05053 0.15088 0.0
C251 C 0.7858 0.09329 0.13299 0.0
C252 C 0.73711 0.05466 0.12948 0.0
O253 O 0.76971 0.0488 0.12464 0.0
O254 O 0.76998 0.06088 0.15997 0.0
O255 O 0.74562 0.06756 0.13548 0.0
O256 O 0.74279 0.04813 0.11843 0.0
C257 C 0.76333 0.07179 0.06329 0.0
O258 O 0.77315 0.08789 0.14183 0.0
O259 O 0.78813 0.08538 0.11697 0.0
In260 In 0.93081 0.69953 0.1158 0.0
O261 O 0.9091 0.68457 0.13423 0.0
O262 O 0.91151 0.70256 0.1115 0.0
C263 C 0.94254 0.68466 0.13581 0.0
C264 C 0.93066 0.69457 0.06011 0.0
C265 C 0.9464 0.72294 0.14769 0.0
O266 O 0.92918 0.6796 0.13541 0.0
O267 O 0.94983 0.69722 0.12659 0.0
O268 O 0.94994 0.72212 0.12285 0.0
O269 O 0.93471 0.71246 0.15537 0.0
C270 C 0.90333 0.69142 0.12515 0.0
O271 O 0.93197 0.70614 0.06922 0.0
O272 O 0.92987 0.68608 0.07884 0.0
In273 In 0.56307 0.9659 0.0555 0.0
O274 O 0.55639 0.95882 0.1014 0.0
O275 O 0.5655 0.98073 0.09027 0.0
C276 C 0.55906 0.94454 0.021 0.0
C277 C 0.54385 0.97187 0.03447 0.0
C278 C 0.59155 0.98077 0.05657 0.0
O279 O 0.5578 0.94274 0.04726 0.0
O280 O 0.562 0.95678 0.01278 0.0
O281 O 0.58427 0.98573 0.04577 0.0
O282 O 0.58444 0.96813 0.06546 0.0
C283 C 0.56062 0.97153 0.10939 0.0
O284 O 0.557 0.97917 0.02876 0.0
O285 O 0.54035 0.96131 0.05045 0.0
In286 In 0.02749 0.59784 0.0524 0.0
O287 O 0.01306 0.57803 0.02743 0.0
O288 O 0.03123 0.57914 0.04749 0.0
C289 C 0.01482 0.61348 0.05398 0.0
C290 C 0.02136 0.59092 0.10661 0.0
C291 C 0.04819 0.61406 0.01577 0.0
O292 O 0.00888 0.60119 0.04297 0.0
O293 O 0.02735 0.61801 0.06292 0.0
O294 O 0.05112 0.61345 0.04127 0.0
O295 O 0.03518 0.60645 0.00949 0.0
C296 C 0.02025 0.57201 0.03256 0.0
O297 O 0.03426 0.59818 0.09852 0.0
O298 O 0.01221 0.58705 0.08742 0.0
In299 In 0.39887 0.43589 0.06771 0.0
O300 O 0.39696 0.44216 0.11333 0.0
O301 O 0.40418 0.42739 0.10562 0.0
C302 C 0.38407 0.44137 0.02926 0.0
C303 C 0.426 0.4544 0.05416 0.0
C304 C 0.38365 0.40765 0.06198 0.0
O305 O 0.38294 0.44328 0.0551 0.0
O306 O 0.39291 0.4374 0.02352 0.0
O307 O 0.39669 0.41473 0.05516 0.0
O308 O 0.37826 0.41495 0.07067 0.0
C309 C 0.40103 0.43392 0.12338 0.0
O310 O 0.42 0.44128 0.04827 0.0
O311 O 0.41825 0.45825 0.06689 0.0
In312 In 0.70176 0.76736 0.89802 0.0
O313 O 0.68598 0.77091 0.87364 0.0
O314 O 0.7041 0.78913 0.89146 0.0
C315 C 0.6914 0.73922 0.89829 0.0
C316 C 0.69541 0.76894 0.95186 0.0
C317 C 0.72336 0.77371 0.86235 0.0
O318 O 0.68499 0.74474 0.88596 0.0
O319 O 0.70301 0.74794 0.90987 0.0
O320 O 0.72554 0.77566 0.88846 0.0
O321 O 0.71063 0.76916 0.85484 0.0
C322 C 0.69266 0.78428 0.87748 0.0
O323 O 0.70829 0.77417 0.94399 0.0
O324 O 0.68627 0.7634 0.93268 0.0
In325 In 0.2286 0.92924 0.89338 0.0
O326 O 0.22433 0.90852 0.87309 0.0
O327 O 0.20753 0.90845 0.89647 0.0
C328 C 0.25586 0.94408 0.87718 0.0
C329 C 0.2321 0.92809 0.94922 0.0
C330 C 0.21935 0.94362 0.86158 0.0
O331 O 0.24855 0.93068 0.87437 0.0
O332 O 0.24927 0.94986 0.8876 0.0
O333 O 0.22266 0.94671 0.88701 0.0
O334 O 0.21982 0.93284 0.85316 0.0
C335 C 0.2117 0.90143 0.8821 0.0
O336 O 0.22124 0.92807 0.93935 0.0
O337 O 0.24097 0.92904 0.93121 0.0
In338 In 0.06887 0.30107 0.895 0.0
O339 O 0.08793 0.31572 0.86853 0.0
O340 O 0.08682 0.29682 0.88512 0.0
C341 C 0.05386 0.31403 0.90411 0.0
C342 C 0.07733 0.30522 0.9486 0.0
C343 C 0.05154 0.28188 0.85711 0.0
O344 O 0.06584 0.32031 0.89186 0.0
O345 O 0.04935 0.30116 0.91056 0.0
O346 O 0.05349 0.27789 0.88088 0.0
O347 O 0.05836 0.29518 0.8531 0.0
C348 C 0.09373 0.30811 0.87087 0.0
O349 O 0.06797 0.29291 0.94002 0.0
O350 O 0.08257 0.31469 0.92994 0.0
In351 In 0.43028 0.03069 0.94808 0.0
O352 O 0.43598 0.03808 0.90208 0.0
O353 O 0.42785 0.01622 0.91256 0.0
C354 C 0.43541 0.05175 0.98425 0.0
C355 C 0.44908 0.02369 0.96717 0.0
C356 C 0.40181 0.01697 0.94819 0.0
O357 O 0.43674 0.05401 0.95811 0.0
O358 O 0.43192 0.03923 0.99151 0.0
O359 O 0.40869 0.01126 0.95754 0.0
O360 O 0.40933 0.02968 0.93995 0.0
C361 C 0.43209 0.02553 0.89363 0.0
O362 O 0.43593 0.0166 0.9731 0.0
O363 O 0.4528 0.03458 0.95199 0.0
In364 In 0.96533 0.39904 0.95249 0.0
O365 O 0.97948 0.42002 0.97439 0.0
O366 O 0.96249 0.41843 0.94924 0.0
C367 C 0.97839 0.38495 0.96967 0.0
C368 C 0.97221 0.40151 0.89754 0.0
C369 C 0.9413 0.3831 0.98235 0.0
O370 O 0.98386 0.39824 0.9733 0.0
O371 O 0.96638 0.37891 0.95778 0.0
O372 O 0.9421 0.38082 0.95664 0.0
O373 O 0.95221 0.39383 0.9921 0.0
C374 C 0.97302 0.42611 0.96481 0.0
O375 O 0.95968 0.3979 0.90542 0.0
O376 O 0.98081 0.40367 0.91711 0.0
In377 In 0.59667 0.56159 0.94664 0.0
O378 O 0.59426 0.55422 0.90064 0.0
O379 O 0.58566 0.56726 0.91371 0.0
C380 C 0.61205 0.55438 0.98002 0.0
C381 C 0.57074 0.54527 0.96816 0.0
C382 C 0.6156 0.58944 0.94684 0.0
O383 O 0.61222 0.55308 0.95367 0.0
O384 O 0.60386 0.55866 0.98876 0.0
O385 O 0.60475 0.58417 0.96258 0.0
O386 O 0.61684 0.58065 0.93147 0.0
C387 C 0.58769 0.56079 0.89391 0.0
O388 O 0.57765 0.55868 0.97142 0.0
O389 O 0.57703 0.54011 0.95414 0.0
In390 In 0.96944 0.56596 0.44127 0.0
O391 O 0.98478 0.56329 0.46944 0.0
O392 O 0.96512 0.54471 0.45874 0.0
C393 C 0.98615 0.59319 0.42671 0.0
C394 C 0.97032 0.55786 0.38838 0.0
C395 C 0.95008 0.5673 0.47487 0.0
O396 O 0.99024 0.58712 0.44398 0.0
O397 O 0.97353 0.58563 0.41787 0.0
O398 O 0.94632 0.55741 0.45703 0.0
O399 O 0.96325 0.57618 0.47534 0.0
C400 C 0.97692 0.54991 0.47142 0.0
O401 O 0.95964 0.55852 0.39733 0.0
O402 O 0.97959 0.56012 0.40663 0.0
In403 In 0.43059 0.39755 0.4493 0.0
O404 O 0.43572 0.41723 0.47417 0.0
O405 O 0.45303 0.41628 0.45488 0.0
C406 C 0.40376 0.39241 0.45644 0.0
C407 C 0.43243 0.39906 0.39273 0.0
C408 C 0.43533 0.37949 0.48081 0.0
O409 O 0.40747 0.38344 0.46272 0.0
O410 O 0.41367 0.4041 0.44735 0.0
O411 O 0.43285 0.37751 0.45492 0.0
O412 O 0.4359 0.39063 0.49006 0.0
C413 C 0.44897 0.42336 0.46945 0.0
O414 O 0.42284 0.38831 0.40534 0.0
O415 O 0.44182 0.40825 0.40856 0.0
In416 In 0.59328 0.02829 0.44562 0.0
O417 O 0.57421 0.01337 0.47181 0.0
O418 O 0.57515 0.03225 0.4555 0.0
C419 C 0.60949 0.01669 0.43655 0.0
C420 C 0.58443 0.02288 0.39233 0.0
C421 C 0.61071 0.0473 0.48355 0.0
O422 O 0.59773 0.01003 0.44955 0.0
O423 O 0.61312 0.02926 0.42905 0.0
O424 O 0.60818 0.05147 0.4605 0.0
O425 O 0.60425 0.03395 0.48697 0.0
C426 C 0.56828 0.02086 0.46949 0.0
O427 O 0.5929 0.03561 0.40035 0.0
O428 O 0.58028 0.01358 0.41133 0.0
In429 In 0.23246 0.30199 0.38754 0.0
O430 O 0.22828 0.29572 0.43438 0.0
O431 O 0.2376 0.31755 0.42266 0.0
C432 C 0.2268 0.2797 0.35412 0.0
C433 C 0.21209 0.30756 0.37172 0.0
C434 C 0.26071 0.31715 0.38007 0.0
O435 O 0.22758 0.27885 0.38041 0.0
O436 O 0.22842 0.2914 0.34545 0.0
O437 O 0.25248 0.32129 0.37067 0.0
O438 O 0.25456 0.30517 0.39209 0.0
C439 C 0.23345 0.30859 0.44222 0.0
O440 O 0.22492 0.31496 0.36389 0.0
O441 O 0.20945 0.29711 0.38742 0.0
In442 In 0.69954 0.93307 0.39195 0.0
O443 O 0.70521 0.93286 0.4387 0.0
O444 O 0.68454 0.92893 0.42798 0.0
C445 C 0.72376 0.94854 0.3623 0.0
C446 C 0.69048 0.906 0.37732 0.0
C447 C 0.68689 0.94752 0.37459 0.0
O448 O 0.72262 0.95167 0.38729 0.0
O449 O 0.71318 0.93723 0.35344 0.0
O450 O 0.68117 0.93418 0.37147 0.0
O451 O 0.69897 0.95347 0.38621 0.0
C452 C 0.69294 0.92993 0.44711 0.0
O453 O 0.6847 0.91289 0.36848 0.0
O454 O 0.701 0.91285 0.39347 0.0
In455 In 0.06431 0.76743 0.39616 0.0
O456 O 0.05477 0.75631 0.43787 0.0
O457 O 0.07137 0.77779 0.43942 0.0
C458 C 0.04702 0.77321 0.36445 0.0
C459 C 0.09139 0.78583 0.38185 0.0
C460 C 0.05839 0.74106 0.38124 0.0
O461 O 0.04405 0.76911 0.38952 0.0
O462 O 0.05892 0.77516 0.35637 0.0
O463 O 0.06931 0.74933 0.39524 0.0
O464 O 0.05062 0.74618 0.37448 0.0
C465 C 0.06326 0.76664 0.45292 0.0
O466 O 0.08549 0.77262 0.3771 0.0
O467 O 0.08352 0.78987 0.39344 0.0
H468 H 0.29644 0.94178 0.25059 0.0
H469 H 0.30504 0.9669 0.24082 0.0
H470 H 0.26239 0.95987 0.25023 0.0
H471 H 0.25364 0.93457 0.26062 0.0
H472 H 0.28138 0.9778 0.19953 0.0
H473 H 0.27861 0.97455 0.29981 0.0
H474 H 0.28192 0.96629 0.3457 0.0
H475 H 0.32713 0.98722 0.33182 0.0
H476 H 0.32405 0.9954 0.28564 0.0
H477 H 0.3146 0.05527 0.20722 0.0
H478 H 0.29852 0.02947 0.21206 0.0
H479 H 0.33454 0.02411 0.23091 0.0
H480 H 0.35054 0.04974 0.22656 0.0
H481 H 0.31406 0.01227 0.27005 0.0
H482 H 0.31713 0.01335 0.1691 0.0
H483 H 0.31461 0.02085 0.12184 0.0
H484 H 0.26979 0.00385 0.13563 0.0
H485 H 0.27208 0.99641 0.18315 0.0
C486 C 0.28887 0.94554 0.25054 0.0
C487 C 0.27441 0.93631 0.25663 0.0
C488 C 0.29378 0.95985 0.24488 0.0
C489 C 0.28431 0.96512 0.24492 0.0
C490 C 0.26979 0.95589 0.25013 0.0
C491 C 0.26486 0.94154 0.25623 0.0
C492 C 0.29005 0.98049 0.241 0.0
C493 C 0.28826 0.98542 0.21511 0.0
C494 C 0.29915 0.99026 0.26127 0.0
C495 C 0.30108 0.9855 0.28918 0.0
C496 C 0.28924 0.97729 0.30645 0.0
C497 C 0.29108 0.97264 0.33253 0.0
C498 C 0.30473 0.9762 0.34165 0.0
C499 C 0.31657 0.98446 0.32473 0.0
C500 C 0.31478 0.98912 0.29861 0.0
C501 C 0.31907 0.04852 0.21192 0.0
C502 C 0.33377 0.05446 0.21676 0.0
C503 C 0.3099 0.03382 0.21465 0.0
C504 C 0.31537 0.02494 0.22199 0.0
C505 C 0.33012 0.03082 0.22546 0.0
C506 C 0.33924 0.04545 0.22291 0.0
C507 C 0.30583 0.00968 0.22814 0.0
C508 C 0.30692 0.00475 0.2546 0.0
C509 C 0.29617 -3e-05 0.20829 0.0
C510 C 0.29481 0.00451 0.17981 0.0
C511 C 0.30676 0.01135 0.16216 0.0
C512 C 0.30537 0.01555 0.1353 0.0
C513 C 0.29206 0.01288 0.12577 0.0
C514 C 0.2801 0.00595 0.14306 0.0
C515 C 0.28144 0.00173 0.16995 0.0
H516 H 0.291 0.01614 0.10497 0.0
H517 H 0.30613 0.97259 0.36185 0.0
H518 H 0.05454 0.36041 0.25129 0.0
H519 H 0.02882 0.3499 0.25053 0.0
H520 H 0.0257 0.3292 0.32944 0.0
H521 H 0.05168 0.33919 0.32941 0.0
H522 H 0.00638 0.31135 0.29829 0.0
H523 H 0.01869 0.3578 0.32319 0.0
H524 H 0.03178 0.38409 0.32328 0.0
H525 H 0.01746 0.38435 0.2398 0.0
H526 H 0.00446 0.35807 0.23901 0.0
H527 H 0.93408 0.30789 0.26563 0.0
H528 H 0.95825 0.3215 0.28423 0.0
H529 H 0.97137 0.29779 0.23151 0.0
H530 H 0.9471 0.28385 0.21332 0.0
H531 H 0.98358 0.33857 0.26487 0.0
H532 H 0.99322 0.28959 0.26748 0.0
H533 H 0.97886 0.26363 0.27511 0.0
H534 H 0.94709 0.26906 0.31807 0.0
H535 H 0.96138 0.29506 0.31126 0.0
C536 C 0.0484 0.35374 0.26864 0.0
C537 C 0.05505 0.35063 0.29046 0.0
C538 C 0.03369 0.34783 0.26833 0.0
C539 C 0.02532 0.33904 0.29028 0.0
C540 C 0.03196 0.33604 0.31237 0.0
C541 C 0.04675 0.34173 0.31237 0.0
C542 C 0.00959 0.33221 0.28857 0.0
C543 C 0.00137 0.31733 0.29131 0.0
C544 C 0.00289 0.34006 0.28073 0.0
C545 C 0.01062 0.35592 0.28104 0.0
C546 C 0.01839 0.36345 0.30479 0.0
C547 C 0.02579 0.37836 0.30497 0.0
C548 C 0.02545 0.38589 0.28156 0.0
C549 C 0.01769 0.37851 0.25793 0.0
C550 C 0.01028 0.3636 0.25763 0.0
C551 C 0.94216 0.30571 0.25769 0.0
C552 C 0.93872 0.29474 0.2382 0.0
C553 C 0.95595 0.31349 0.26838 0.0
C554 C 0.96647 0.31041 0.2597 0.0
C555 C 0.96327 0.30007 0.23895 0.0
C556 C 0.94946 0.29222 0.22838 0.0
C557 C 0.98075 0.31774 0.27271 0.0
C558 C 0.98858 0.33267 0.27234 0.0
C559 C 0.98689 0.30999 0.28407 0.0
C560 C 0.97837 0.29432 0.28869 0.0
C561 C 0.98323 0.28527 0.27875 0.0
C562 C 0.97509 0.27053 0.28292 0.0
C563 C 0.96207 0.2647 0.29704 0.0
C564 C 0.95717 0.27359 0.30711 0.0
C565 C 0.9653 0.28833 0.3031 0.0
H566 H 0.95578 0.25329 0.30019 0.0
H567 H 0.03119 0.39743 0.28174 0.0
H568 H 0.69538 0.63621 0.27077 0.0
H569 H 0.68383 0.6488 0.28977 0.0
H570 H 0.71909 0.68887 0.26197 0.0
H571 H 0.73078 0.6763 0.24266 0.0
H572 H 0.70769 0.68836 0.3191 0.0
H573 H 0.69292 0.67615 0.22243 0.0
H574 H 0.68331 0.65947 0.18271 0.0
H575 H 0.64459 0.63345 0.22818 0.0
H576 H 0.65407 0.64988 0.26836 0.0
H577 H 0.67576 0.73191 0.30924 0.0
H578 H 0.68896 0.71908 0.30866 0.0
H579 H 0.64934 0.67904 0.31397 0.0
H580 H 0.63612 0.69184 0.31294 0.0
H581 H 0.66305 0.67867 0.27136 0.0
H582 H 0.676 0.69154 0.36627 0.0
H583 H 0.6852 0.70723 0.40745 0.0
H584 H 0.72635 0.73085 0.3687 0.0
H585 H 0.71735 0.71543 0.32707 0.0
C586 C 0.7007 0.6477 0.26872 0.0
C587 C 0.71387 0.65528 0.25488 0.0
C588 C 0.69414 0.65486 0.27972 0.0
C589 C 0.70064 0.6697 0.27717 0.0
C590 C 0.71398 0.67739 0.26415 0.0
C591 C 0.72054 0.6702 0.2529 0.0
C592 C 0.69287 0.67695 0.28601 0.0
C593 C 0.698 0.68644 0.30862 0.0
C594 C 0.68003 0.67395 0.27276 0.0
C595 C 0.67426 0.66416 0.24849 0.0
C596 C 0.6824 0.66681 0.22404 0.0
C597 C 0.67697 0.65741 0.20143 0.0
C598 C 0.66336 0.64539 0.20294 0.0
C599 C 0.65514 0.64276 0.22705 0.0
C600 C 0.66053 0.65212 0.24973 0.0
C601 C 0.66992 0.72039 0.31104 0.0
C602 C 0.65495 0.71281 0.31081 0.0
C603 C 0.67747 0.71306 0.31089 0.0
C604 C 0.67015 0.69808 0.31124 0.0
C605 C 0.65521 0.69059 0.31349 0.0
C606 C 0.64767 0.6979 0.31297 0.0
C607 C 0.67775 0.69024 0.30477 0.0
C608 C 0.67264 0.68061 0.28231 0.0
C609 C 0.6905 0.69304 0.31843 0.0
C610 C 0.69595 0.7024 0.3434 0.0
C611 C 0.68698 0.70016 0.36639 0.0
C612 C 0.69216 0.70899 0.38985 0.0
C613 C 0.70634 0.72006 0.39066 0.0
C614 C 0.71536 0.72229 0.36803 0.0
C615 C 0.71023 0.71349 0.34451 0.0
H616 H 0.71033 0.72688 0.40885 0.0
H617 H 0.65917 0.63812 0.18542 0.0
H618 H 0.63366 0.94096 0.7884 0.0
H619 H 0.64627 0.96636 0.77703 0.0
H620 H 0.68639 0.96691 0.77941 0.0
H621 H 0.67382 0.94154 0.79157 0.0
H622 H 0.6894 0.9921 0.79712 0.0
H623 H 0.66877 0.9604 0.72018 0.0
H624 H 0.64973 0.94063 0.69321 0.0
H625 H 0.62643 0.96306 0.68933 0.0
H626 H 0.64524 0.98287 0.71667 0.0
H627 H 0.72691 0.05168 0.70976 0.0
H628 H 0.71479 0.02619 0.72071 0.0
H629 H 0.6752 0.02604 0.73202 0.0
H630 H 0.68724 0.05153 0.72134 0.0
H631 H 0.67276 0.00061 0.70627 0.0
H632 H 0.69491 0.03273 0.78472 0.0
H633 H 0.71569 0.05269 0.80766 0.0
H634 H 0.73768 0.02892 0.80641 0.0
H635 H 0.71725 0.00903 0.7824 0.0
C636 C 0.6452 0.94661 0.78725 0.0
C637 C 0.65279 0.93932 0.79037 0.0
C638 C 0.65238 0.96108 0.7807 0.0
C639 C 0.6672 0.96836 0.77664 0.0
C640 C 0.67493 0.96142 0.78228 0.0
C641 C 0.66775 0.94695 0.78921 0.0
C642 C 0.67432 0.98259 0.76345 0.0
C643 C 0.68585 0.99394 0.77716 0.0
C644 C 0.66968 0.98492 0.73732 0.0
C645 C 0.65837 0.97307 0.72067 0.0
C646 C 0.65955 0.96108 0.7137 0.0
C647 C 0.6488 0.94986 0.69835 0.0
C648 C 0.63687 0.95058 0.6896 0.0
C649 C 0.63568 0.96252 0.69615 0.0
C650 C 0.64638 0.97375 0.71157 0.0
C651 C 0.71553 0.04611 0.71375 0.0
C652 C 0.70802 0.05355 0.71514 0.0
C653 C 0.70866 0.0316 0.72005 0.0
C654 C 0.69421 0.0244 0.72758 0.0
C655 C 0.68639 0.0315 0.72635 0.0
C656 C 0.69328 0.04603 0.72036 0.0
C657 C 0.68767 0.01008 0.7401 0.0
C658 C 0.67627 -0.00127 0.72623 0.0
C659 C 0.69258 0.00772 0.76585 0.0
C660 C 0.70462 0.01946 0.78136 0.0
C661 C 0.70424 0.03182 0.78901 0.0
C662 C 0.71598 0.04315 0.8021 0.0
C663 C 0.72804 0.04211 0.80831 0.0
C664 C 0.72836 0.02973 0.80146 0.0
C665 C 0.71672 0.01845 0.78802 0.0
H666 H 0.73708 0.05083 0.81863 0.0
H667 H 0.62856 0.94189 0.67771 0.0
H668 H 0.05191 0.70343 0.79401 0.0
H669 H 0.02701 0.69607 0.78552 0.0
H670 H 0.03931 0.73793 0.75373 0.0
H671 H 0.06454 0.74547 0.7621 0.0
H672 H 0.0122 0.72317 0.78719 0.0
H673 H 0.03507 0.71718 0.70846 0.0
H674 H 0.0507 0.7107 0.68264 0.0
H675 H 0.02368 0.6668 0.70559 0.0
H676 H 0.00803 0.67313 0.73185 0.0
H677 H 0.94177 0.6846 0.72111 0.0
H678 H 0.96732 0.70148 0.7279 0.0
H679 H 0.97274 0.66758 0.76184 0.0
H680 H 0.94741 0.65078 0.75528 0.0
H681 H 0.99198 0.6834 0.71868 0.0
H682 H 0.97236 0.6909 0.80517 0.0
H683 H 0.95719 0.69781 0.83172 0.0
H684 H 0.97805 0.73897 0.79255 0.0
H685 H 0.99329 0.73229 0.76566 0.0
C686 C 0.04933 0.71118 0.78571 0.0
C687 C 0.06011 0.72494 0.77828 0.0
C688 C 0.03512 0.70698 0.78097 0.0
C689 C 0.03145 0.71641 0.76855 0.0
C690 C 0.04205 0.73053 0.76318 0.0
C691 C 0.05639 0.73479 0.76796 0.0
C692 C 0.01676 0.7107 0.75837 0.0
C693 C 0.00779 0.71471 0.77172 0.0
C694 C 0.01113 0.69968 0.73818 0.0
C695 C 0.02041 0.69569 0.72219 0.0
C696 C 0.03252 0.70618 0.70808 0.0
C697 C 0.04138 0.70253 0.69337 0.0
C698 C 0.03819 0.68834 0.69249 0.0
C699 C 0.02613 0.67779 0.70628 0.0
C700 C 0.01725 0.68142 0.72105 0.0
C701 C 0.94845 0.6808 0.73005 0.0
C702 C 0.94268 0.66638 0.73749 0.0
C703 C 0.96297 0.69043 0.734 0.0
C704 C 0.97182 0.68571 0.7453 0.0
C705 C 0.96603 0.67137 0.75296 0.0
C706 C 0.95158 0.6618 0.74921 0.0
C707 C 0.98728 0.69539 0.74843 0.0
C708 C 0.99642 0.69212 0.73359 0.0
C709 C 0.99301 0.70709 0.76707 0.0
C710 C 0.98382 0.71104 0.78316 0.0
C711 C 0.97361 0.70137 0.80203 0.0
C712 C 0.96503 0.70525 0.81718 0.0
C713 C 0.9666 0.71877 0.8137 0.0
C714 C 0.97681 0.72848 0.79516 0.0
C715 C 0.98543 0.72467 0.78 0.0
H716 H 0.95995 0.72175 0.82545 0.0
H717 H 0.04506 0.68551 0.68111 0.0
H718 H 0.35746 0.30056 0.70126 0.0
H719 H 0.34555 0.31427 0.71008 0.0
H720 H 0.30514 0.27519 0.71677 0.0
H721 H 0.31695 0.26142 0.70687 0.0
H722 H 0.30213 0.2973 0.69618 0.0
H723 H 0.32586 0.28842 0.77166 0.0
H724 H 0.34662 0.28881 0.79366 0.0
H725 H 0.36946 0.33459 0.79197 0.0
H726 H 0.34908 0.33448 0.76871 0.0
H727 H 0.26853 0.32247 0.78779 0.0
H728 H 0.27962 0.30856 0.77345 0.0
H729 H 0.31926 0.34745 0.75813 0.0
H730 H 0.30822 0.36144 0.77216 0.0
H731 H 0.32214 0.32501 0.78355 0.0
H732 H 0.29896 0.33376 0.706 0.0
H733 H 0.27846 0.33342 0.68275 0.0
H734 H 0.25437 0.28779 0.69 0.0
H735 H 0.27463 0.28789 0.7138 0.0
C736 C 0.34597 0.29493 0.70368 0.0
C737 C 0.33811 0.27997 0.70393 0.0
C738 C 0.3392 0.30276 0.70872 0.0
C739 C 0.32457 0.29569 0.71486 0.0
C740 C 0.31647 0.2808 0.71228 0.0
C741 C 0.32322 0.27296 0.7067 0.0
C742 C 0.31824 0.30356 0.72799 0.0
C743 C 0.30641 0.30325 0.71539 0.0
C744 C 0.32391 0.31134 0.75308 0.0
C745 C 0.33598 0.31143 0.76812 0.0
C746 C 0.33535 0.29857 0.77571 0.0
C747 C 0.34709 0.29874 0.78829 0.0
C748 C 0.35935 0.31171 0.7942 0.0
C749 C 0.35995 0.32455 0.78737 0.0
C750 C 0.34834 0.32444 0.77435 0.0
C751 C 0.2797 0.32804 0.78201 0.0
C752 C 0.28751 0.34301 0.7808 0.0
C753 C 0.28598 0.3201 0.77374 0.0
C754 C 0.30015 0.32704 0.76442 0.0
C755 C 0.30828 0.34196 0.76519 0.0
C756 C 0.30197 0.34991 0.77315 0.0
C757 C 0.30616 0.31885 0.75157 0.0
C758 C 0.31788 0.31905 0.76434 0.0
C759 C 0.30036 0.31094 0.72675 0.0
C760 C 0.28826 0.31084 0.71196 0.0
C761 C 0.28925 0.32366 0.70284 0.0
C762 C 0.27768 0.32352 0.68954 0.0
C763 C 0.26511 0.3106 0.68497 0.0
C764 C 0.2641 0.2978 0.69361 0.0
C765 C 0.27563 0.29789 0.707 0.0
H766 H 0.25617 0.3105 0.67467 0.0
H767 H 0.36839 0.31182 0.80413 0.0
H768 H 0.9871 0.39062 0.5427 0.0
H769 H 0.97188 0.36466 0.54559 0.0
H770 H 0.00919 0.36002 0.54494 0.0
H771 H 0.02449 0.38599 0.54269 0.0
H772 H 0.98309 0.33814 0.51292 0.0
H773 H -0.00037 0.36192 0.60363 0.0
H774 H 0.00263 0.3801 0.63826 0.0
H775 H 0.95728 0.3629 0.64042 0.0
H776 H 0.95405 0.34478 0.60538 0.0
H777 H 0.96743 0.27508 0.58167 0.0
H778 H 0.97761 0.29969 0.56595 0.0
H779 H 0.93996 0.30013 0.59412 0.0
H780 H 0.92982 0.2755 0.61052 0.0
H781 H 0.96302 0.32391 0.60842 0.0
H782 H 0.9455 0.29767 0.5246 0.0
H783 H 0.94144 0.27987 0.48829 0.0
H784 H 0.98633 0.30124 0.47079 0.0
H785 H 0.99071 0.31905 0.50729 0.0
C786 C 0.99203 0.38404 0.54243 0.0
C787 C 0.00693 0.39023 0.54283 0.0
C788 C 0.98334 0.36926 0.54406 0.0
C789 C 0.98948 0.36055 0.54562 0.0
C790 C 0.00432 0.36664 0.54367 0.0
C791 C 0.01302 0.38143 0.54256 0.0
C792 C 0.98071 0.34542 0.55327 0.0
C793 C 0.97871 0.33495 0.53376 0.0
C794 C 0.97469 0.34141 0.58022 0.0
C795 C 0.97662 0.35212 0.60165 0.0
C796 C 0.99031 0.3621 0.61131 0.0
C797 C 0.99206 0.37238 0.63103 0.0
C798 C 0.98016 0.37268 0.64147 0.0
C799 C 0.96649 0.36267 0.63227 0.0
C800 C 0.9647 0.3524 0.61248 0.0
C801 C 0.96135 0.28044 0.58465 0.0
C802 C 0.94784 0.27341 0.59727 0.0
C803 C 0.96711 0.29445 0.57542 0.0
C804 C 0.95939 0.30161 0.57829 0.0
C805 C 0.94603 0.29473 0.59152 0.0
C806 C 0.94028 0.28071 0.60095 0.0
C807 C 0.96556 0.31644 0.56823 0.0
C808 C 0.96712 0.32695 0.58735 0.0
C809 C 0.97099 0.32042 0.54075 0.0
C810 C 0.96844 0.30966 0.51887 0.0
C811 C 0.95453 0.29851 0.5132 0.0
C812 C 0.95216 0.28843 0.49253 0.0
C813 C 0.96362 0.28941 0.47726 0.0
C814 C 0.97746 0.30049 0.48263 0.0
C815 C 0.97989 0.31059 0.50329 0.0
H816 H 0.96175 0.28161 0.46124 0.0
H817 H 0.98153 0.38065 0.65673 0.0
H818 H 0.60609 0.63901 0.56515 0.0
H819 H 0.63152 0.65077 0.57618 0.0
H820 H 0.63124 0.61127 0.56222 0.0
H821 H 0.60576 0.59942 0.55083 0.0
H822 H 0.64211 0.62437 0.61518 0.0
H823 H 0.64838 0.63624 0.51779 0.0
H824 H 0.64438 0.64556 0.47382 0.0
H825 H 0.66077 0.6869 0.51117 0.0
H826 H 0.66468 0.67778 0.55552 0.0
H827 H 0.7176 0.65451 0.628 0.0
H828 H 0.6921 0.64147 0.61752 0.0
H829 H 0.69187 0.68121 0.61405 0.0
H830 H 0.71747 0.69429 0.62348 0.0
H831 H 0.68114 0.66689 0.5685 0.0
H832 H 0.67418 0.6556 0.66596 0.0
H833 H 0.67747 0.64672 0.71113 0.0
H834 H 0.6618 0.60506 0.67573 0.0
H835 H 0.6586 0.61375 0.6302 0.0
C836 C 0.61152 0.63291 0.56386 0.0
C837 C 0.60402 0.61833 0.55723 0.0
C838 C 0.62601 0.63963 0.57014 0.0
C839 C 0.63315 0.63183 0.57005 0.0
C840 C 0.62583 0.6174 0.56239 0.0
C841 C 0.61135 0.61071 0.55573 0.0
C842 C 0.64799 0.63858 0.57998 0.0
C843 C 0.65075 0.63352 0.6048 0.0
C844 C 0.65901 0.65076 0.56676 0.0
C845 C 0.65671 0.65629 0.54007 0.0
C846 C 0.65101 0.64729 0.51672 0.0
C847 C 0.64879 0.65254 0.4917 0.0
C848 C 0.65229 0.6668 0.48972 0.0
C849 C 0.65805 0.67585 0.51274 0.0
C850 C 0.66029 0.67065 0.53781 0.0
C851 C 0.712 0.66041 0.62578 0.0
C852 C 0.71945 0.67538 0.6263 0.0
C853 C 0.69744 0.65295 0.61981 0.0
C854 C 0.6901 0.66038 0.61491 0.0
C855 C 0.69736 0.67529 0.61753 0.0
C856 C 0.71195 0.68274 0.62304 0.0
C857 C 0.67533 0.65284 0.6041 0.0
C858 C 0.67256 0.65773 0.57899 0.0
C859 C 0.66427 0.6406 0.61726 0.0
C860 C 0.6663 0.63537 0.64457 0.0
C861 C 0.67157 0.64458 0.66772 0.0
C862 C 0.67339 0.63957 0.69341 0.0
C863 C 0.66989 0.62534 0.69628 0.0
C864 C 0.66453 0.61609 0.67346 0.0
C865 C 0.6627 0.62105 0.64772 0.0
H866 H 0.67129 0.62148 0.71619 0.0
H867 H 0.65056 0.67085 0.47033 0.0
H868 H 0.30038 0.01862 0.64168 0.0
H869 H 0.3164 0.00888 0.63883 0.0
H870 H 0.35271 0.05151 0.63849 0.0
H871 H 0.33676 0.06133 0.64174 0.0
H872 H 0.34906 0.03594 0.58971 0.0
H873 H 0.35199 0.0304 0.68726 0.0
H874 H 0.34386 0.02333 0.73573 0.0
H875 H 0.32061 0.97932 0.71106 0.0
H876 H 0.3284 0.98613 0.66233 0.0
H877 H 0.39321 0.00595 0.55656 0.0
H878 H 0.38306 0.01981 0.57602 0.0
H879 H 0.34384 0.98087 0.59395 0.0
H880 H 0.35405 0.96697 0.57518 0.0
H881 H 0.35291 0.99768 0.63869 0.0
H882 H 0.34643 0.00338 0.54075 0.0
H883 H 0.35401 0.00999 0.49185 0.0
H884 H 0.38288 0.05314 0.517 0.0
H885 H 0.3756 0.04674 0.56613 0.0
C886 C 0.3118 0.02589 0.64204 0.0
C887 C 0.31736 0.04071 0.64139 0.0
C888 C 0.32093 0.02032 0.6406 0.0
C889 C 0.3357 0.0295 0.63828 0.0
C890 C 0.34133 0.04428 0.64033 0.0
C891 C 0.3322 0.04986 0.64216 0.0
C892 C 0.34466 0.02381 0.62777 0.0
C893 C 0.35024 0.02782 0.60071 0.0
C894 C 0.34576 0.01295 0.64186 0.0
C895 C 0.34069 0.00881 0.67103 0.0
C896 C 0.345 0.01923 0.69207 0.0
C897 C 0.34049 0.01526 0.71963 0.0
C898 C 0.3317 0.00089 0.72646 0.0
C899 C 0.3274 0.99045 0.70574 0.0
C900 C 0.33187 0.99436 0.67814 0.0
C901 C 0.38231 0.00037 0.56403 0.0
C902 C 0.37439 0.9854 0.56439 0.0
C903 C 0.37655 0.0083 0.57526 0.0
C904 C 0.36273 0.00134 0.58655 0.0
C905 C 0.35458 0.98642 0.58559 0.0
C906 C 0.36037 0.9785 0.57463 0.0
C907 C 0.35688 0.00952 0.60036 0.0
C908 C 0.35193 0.00596 0.62794 0.0
C909 C 0.35617 0.0207 0.58665 0.0
C910 C 0.3606 0.02454 0.55715 0.0
C911 C 0.35449 0.01425 0.53588 0.0
C912 C 0.35871 0.01796 0.50812 0.0
C913 C 0.36896 0.03196 0.50134 0.0
C914 C 0.37498 0.04229 0.5223 0.0
C915 C 0.3708 0.03863 0.5501 0.0
H916 H 0.37221 0.03482 0.47983 0.0
H917 H 0.32825 0.99784 0.74782 0.0
H918 H 0.39487 0.39011 0.0608 0.0
H919 H 0.38276 0.36489 0.07336 0.0
H920 H 0.34294 0.36474 0.08085 0.0
H921 H 0.35514 0.39012 0.06925 0.0
H922 H 0.34702 0.35326 0.12514 0.0
H923 H 0.3497 0.34749 0.02663 0.0
H924 H 0.36118 0.35154 0.98046 0.0
H925 H 0.38819 0.33604 0.01107 0.0
H926 H 0.377 0.33207 0.05756 0.0
H927 H 0.2999 0.27789 0.12133 0.0
H928 H 0.31345 0.30378 0.11567 0.0
H929 H 0.3528 0.30311 0.12368 0.0
H930 H 0.33929 0.27717 0.1296 0.0
H931 H 0.34997 0.31507 0.07368 0.0
H932 H 0.34524 0.31939 0.17216 0.0
H933 H 0.33238 0.31462 0.2169 0.0
H934 H 0.30739 0.33205 0.18427 0.0
H935 H 0.31997 0.33674 0.13917 0.0
C936 C 0.38348 0.38461 0.06451 0.0
C937 C 0.37592 0.39202 0.06411 0.0
C938 C 0.37656 0.37021 0.0717 0.0
C939 C 0.36194 0.36294 0.078 0.0
C940 C 0.35425 0.37018 0.07624 0.0
C941 C 0.3612 0.38463 0.06943 0.0
C942 C 0.35485 0.34805 0.08815 0.0
C943 C 0.3475 0.34487 0.11369 0.0
C944 C 0.35583 0.3372 0.07358 0.0
C945 C 0.36262 0.33962 0.04567 0.0
C946 C 0.35818 0.34506 0.02359 0.0
C947 C 0.36461 0.34732 0.99735 0.0
C948 C 0.37543 0.34409 0.99286 0.0
C949 C 0.37982 0.33856 0.01459 0.0
C950 C 0.37343 0.33629 0.04089 0.0
C951 C 0.31143 0.28331 0.12263 0.0
C952 C 0.31858 0.27557 0.12564 0.0
C953 C 0.31914 0.29808 0.11948 0.0
C954 C 0.33409 0.30527 0.11919 0.0
C955 C 0.34125 0.29768 0.12388 0.0
C956 C 0.33353 0.28291 0.12735 0.0
C957 C 0.34209 0.32032 0.11047 0.0
C958 C 0.34959 0.32352 0.08517 0.0
C959 C 0.34106 0.33111 0.12504 0.0
C960 C 0.33348 0.32831 0.15218 0.0
C961 C 0.33692 0.32209 0.17443 0.0
C962 C 0.3297 0.31943 0.19988 0.0
C963 C 0.31905 0.323 0.20341 0.0
C964 C 0.31563 0.32928 0.1815 0.0
C965 C 0.32282 0.33196 0.156 0.0
H966 H 0.31348 0.32093 0.22313 0.0
H967 H 0.3804 0.34583 0.97252 0.0
H968 H 0.60739 0.00978 0.05736 0.0
H969 H 0.63177 0.02425 0.07483 0.0
H970 H 0.6345 0.98615 0.08654 0.0
H971 H 0.60998 0.97163 0.07008 0.0
H972 H 0.64353 0.00203 0.13137 0.0
H973 H 0.65191 0.01034 0.03235 0.0
H974 H 0.64859 0.01766 0.98547 0.0
H975 H 0.66176 0.05973 0.01614 0.0
H976 H 0.66499 0.05261 0.06331 0.0
H977 H 0.71751 0.02643 0.12799 0.0
H978 H 0.69173 0.01577 0.12283 0.0
H979 H 0.69583 0.05739 0.12977 0.0
H980 H 0.72171 0.06815 0.13528 0.0
H981 H 0.68268 0.04267 0.08056 0.0
H982 H 0.67797 0.03428 0.17868 0.0
H983 H 0.68201 0.02622 0.22415 0.0
H984 H 0.66275 0.98326 0.19351 0.0
H985 H 0.65878 0.99108 0.1477 0.0
C986 C 0.61331 0.00454 0.06316 0.0
C987 C 0.60687 0.98962 0.06233 0.0
C988 C 0.62721 0.01281 0.0732 0.0
C989 C 0.63494 0.00627 0.08196 0.0
C990 C 0.62867 0.99139 0.08009 0.0
C991 C 0.61473 0.98313 0.07048 0.0
C992 C 0.64941 0.01479 0.09394 0.0
C993 C 0.65213 0.01084 0.12016 0.0
C994 C 0.66048 0.02661 0.07975 0.0
C995 C 0.65852 0.03089 0.05142 0.0
C996 C 0.65398 0.02112 0.02915 0.0
C997 C 0.65214 0.02524 1.00251 0.0
C998 C 0.65492 0.03914 0.99785 0.0
C999 C 0.65959 0.04896 0.0198 0.0
C1000 C 0.66143 0.04489 0.04648 0.0
C1001 C 0.71287 0.03326 0.12914 0.0
C1002 C 0.72155 0.0481 0.13182 0.0
C1003 C 0.69816 0.02716 0.12632 0.0
C1004 C 0.69193 0.03582 0.12596 0.0
C1005 C 0.70049 0.05057 0.13012 0.0
C1006 C 0.71522 0.05667 0.13333 0.0
C1007 C 0.67688 0.0296 0.11752 0.0
C1008 C 0.67403 0.034 0.09197 0.0
C1009 C 0.66577 0.01806 0.13211 0.0
C1010 C 0.66816 0.0133 0.15966 0.0
C1011 C 0.6747 0.02313 0.18154 0.0
C1012 C 0.67696 0.0186 0.20741 0.0
C1013 C 0.67266 0.00424 0.21171 0.0
C1014 C 0.66607 0.99438 0.19015 0.0
C1015 C 0.6638 -0.00115 0.16424 0.0
H1016 H 0.6744 0.00075 0.23175 0.0
H1017 H 0.65349 0.04231 0.97722 0.0
H1018 H 0.97029 0.69389 0.14785 0.0
H1019 H 0.98242 0.68022 0.14117 0.0
H1020 H 0.94189 0.64208 0.12743 0.0
H1021 H 0.92965 0.65566 0.13468 0.0
H1022 H 0.96309 0.6367 0.15038 0.0
H1023 H 0.95644 0.66196 0.07409 0.0
H1024 H 0.95789 0.68321 0.05195 0.0
H1025 H 0.00346 0.70564 0.06057 0.0
H1026 H 0.00226 0.68463 0.08338 0.0
H1027 H 0.98607 0.6027 0.05321 0.0
H1028 H 0.97318 0.61416 0.07167 0.0
H1029 H 0.01316 0.65261 0.08757 0.0
H1030 H 0.02611 0.6412 0.06941 0.0
H1031 H 0.99184 0.65721 0.06432 0.0
H1032 H -0.00165 0.63112 0.1388 0.0
H1033 H 0.99656 0.60965 0.16058 0.0
H1034 H 0.95091 0.58826 0.15423 0.0
H1035 H 0.95244 0.60952 0.13187 0.0
C1036 C 0.96394 0.68249 0.14451 0.0
C1037 C 0.9491 0.67586 0.1411 0.0
C1038 C 0.97086 0.67469 0.14074 0.0
C1039 C 0.96303 0.66027 0.13306 0.0
C1040 C 0.94809 0.65324 0.13318 0.0
C1041 C 0.94112 0.66102 0.13727 0.0
C1042 C 0.9704 0.65345 0.11973 0.0
C1043 C 0.96929 0.64109 0.13147 0.0
C1044 C 0.97847 0.65925 0.09504 0.0
C1045 C 0.97925 0.67177 0.08069 0.0
C1046 C 0.96676 0.67145 0.07143 0.0
C1047 C 0.96753 0.68345 0.05876 0.0
C1048 C 0.98075 0.69577 0.05488 0.0
C1049 C 0.99323 0.6961 0.06362 0.0
C1050 C 0.99251 0.68415 0.07643 0.0
C1051 C 0.99209 0.61369 0.06008 0.0
C1052 C 0.00707 0.62108 0.06001 0.0
C1053 C 0.98473 0.62016 0.0708 0.0
C1054 C 0.99227 0.63411 0.08132 0.0
C1055 C 0.00719 0.64179 0.07966 0.0
C1056 C 0.01455 0.63529 0.06927 0.0
C1057 C 0.98469 0.64055 0.0951 0.0
C1058 C 0.98568 0.65283 0.08328 0.0
C1059 C 0.97647 0.6346 0.11956 0.0
C1060 C 0.97552 0.62187 0.13337 0.0
C1061 C 0.98793 0.6218 0.14181 0.0
C1062 C 0.98697 0.60967 0.15429 0.0
C1063 C 0.97363 0.59759 0.15873 0.0
C1064 C 0.96123 0.59763 0.15074 0.0
C1065 C 0.96214 0.60971 0.13817 0.0
H1066 H 0.97289 0.58822 0.16841 0.0
H1067 H 0.98133 0.70504 0.04507 0.0
H1068 H 0.63195 0.60359 0.90241 0.0
H1069 H 0.64692 0.62926 0.8967 0.0
H1070 H 0.63737 0.63565 0.98128 0.0
H1071 H 0.62156 0.60984 0.98637 0.0
H1072 H 0.63485 0.65299 0.95062 0.0
H1073 H 0.6724 0.64211 0.95925 0.0
H1074 H 0.68602 0.62988 0.9498 0.0
H1075 H 0.69029 0.64234 0.8637 0.0
H1076 H 0.67681 0.65476 0.87263 0.0
H1077 H 0.70326 0.72551 0.9248 0.0
H1078 H 0.69207 0.70008 0.93494 0.0
H1079 H 0.65478 0.69247 0.88834 0.0
H1080 H 0.66582 0.71803 0.87862 0.0
H1081 H 0.68246 0.67659 0.90541 0.0
H1082 H 0.6253 0.66746 0.92181 0.0
H1083 H 0.61382 0.68113 0.93674 0.0
H1084 H 0.65132 0.70981 0.98308 0.0
H1085 H 0.66295 0.6962 0.96876 0.0
C1086 C 0.63318 0.61048 0.91989 0.0
C1087 C 0.62561 0.60482 0.9448 0.0
C1088 C 0.64186 0.62515 0.91671 0.0
C1089 C 0.64351 0.63442 0.93872 0.0
C1090 C 0.63626 0.62871 0.96399 0.0
C1091 C 0.62726 0.61401 0.96692 0.0
C1092 C 0.65181 0.65006 0.9344 0.0
C1093 C 0.64531 0.65813 0.94095 0.0
C1094 C 0.66555 0.65689 0.9221 0.0
C1095 C 0.67351 0.64928 0.91659 0.0
C1096 C 0.67617 0.64217 0.93827 0.0
C1097 C 0.68388 0.63522 0.93301 0.0
C1098 C 0.68893 0.63525 0.90615 0.0
C1099 C 0.68636 0.64231 0.88449 0.0
C1100 C 0.67874 0.64936 0.88966 0.0
C1101 C 0.69272 0.71841 0.91649 0.0
C1102 C 0.68531 0.72373 0.9012 0.0
C1103 C 0.68637 0.70389 0.92225 0.0
C1104 C 0.67252 0.69447 0.91281 0.0
C1105 C 0.66539 0.69964 0.89626 0.0
C1106 C 0.67172 0.7142 0.8906 0.0
C1107 C 0.66536 0.67932 0.9212 0.0
C1108 C 0.67205 0.6714 0.91532 0.0
C1109 C 0.65202 0.67273 0.93497 0.0
C1110 C 0.64504 0.68088 0.94396 0.0
C1111 C 0.63107 0.67665 0.93527 0.0
C1112 C 0.62454 0.68439 0.94362 0.0
C1113 C 0.63185 0.69636 0.96077 0.0
C1114 C 0.64569 0.70057 0.96971 0.0
C1115 C 0.65226 0.69286 0.96146 0.0
H1116 H 0.62678 0.70234 0.96719 0.0
H1117 H 0.69487 0.62984 0.90215 0.0
H1118 H 0.38442 0.02791 0.93964 0.0
H1119 H 0.35949 0.01495 0.92469 0.0
H1120 H 0.3596 0.97523 0.92966 0.0
H1121 H 0.38457 0.98814 0.94505 0.0
H1122 H 0.3495 0.98071 0.87714 0.0
H1123 H 0.342 0.98002 0.97629 0.0
H1124 H 0.34561 0.9907 0.02318 0.0
H1125 H 0.32956 0.0176 0.99464 0.0
H1126 H 0.32607 0.00723 0.94744 0.0
H1127 H 0.27378 0.9335 0.86902 0.0
H1128 H 0.29966 0.9466 0.87536 0.0
H1129 H 0.29887 0.98589 0.88368 0.0
H1130 H 0.27302 0.97285 0.87771 0.0
H1131 H 0.30968 0.98038 0.929 0.0
H1132 H 0.31698 0.98186 0.83072 0.0
H1133 H 0.31431 0.97278 0.78259 0.0
H1134 H 0.33104 0.94592 0.80751 0.0
H1135 H 0.33368 0.95475 0.85589 0.0
C1136 C 0.37905 0.01639 0.93803 0.0
C1137 C 0.38634 0.00898 0.94353 0.0
C1138 C 0.36487 0.00903 0.92943 0.0
C1139 C 0.35783 0.99419 0.92599 0.0
C1140 C 0.36495 0.9867 0.93216 0.0
C1141 C 0.37911 0.99405 0.94118 0.0
C1142 C 0.34315 0.98665 0.91514 0.0
C1143 C 0.34068 0.98039 0.88857 0.0
C1144 C 0.3319 0.98675 0.92982 0.0
C1145 C 0.3339 0.99294 0.95825 0.0
C1146 C 0.33936 0.9883 0.97995 0.0
C1147 C 0.34136 0.99428 0.0066 0.0
C1148 C 0.33785 0.00484 0.01187 0.0
C1149 C 0.33229 0.00942 0.99052 0.0
C1150 C 0.33029 0.00349 0.96382 0.0
C1151 C 0.27919 0.94499 0.87128 0.0
C1152 C 0.27142 0.95215 0.87337 0.0
C1153 C 0.29397 0.95247 0.87484 0.0
C1154 C 0.30112 0.96718 0.88026 0.0
C1155 C 0.2935 0.97451 0.87974 0.0
C1156 C 0.27876 0.96705 0.8763 0.0
C1157 C 0.31592 0.97445 0.89075 0.0
C1158 C 0.31843 0.98065 0.91741 0.0
C1159 C 0.3272 0.9744 0.87598 0.0
C1160 C 0.32538 0.96885 0.84703 0.0
C1161 C 0.31994 0.9739 0.82602 0.0
C1162 C 0.31848 0.96883 0.79867 0.0
C1163 C 0.32246 0.95874 0.79202 0.0
C1164 C 0.32794 0.95372 0.81271 0.0
C1165 C 0.32944 0.95877 0.84009 0.0
H1166 H 0.32134 0.95485 0.77082 0.0
H1167 H 0.33941 0.00946 0.03252 0.0
H1168 H 0.02622 0.30181 0.92035 0.0
H1169 H 0.01369 0.31382 0.93755 0.0
H1170 H 0.05163 0.35468 0.92534 0.0
H1171 H 0.06425 0.34271 0.90776 0.0
H1172 H 0.03743 0.35086 0.97875 0.0
H1173 H 0.02736 0.34588 0.87989 0.0
H1174 H 0.0193 0.33269 0.83545 0.0
H1175 H 0.97793 0.30524 0.87078 0.0
H1176 H 0.98582 0.31816 0.91557 0.0
H1177 H 0.00701 0.39626 0.97715 0.0
H1178 H 0.02009 0.38331 0.97412 0.0
H1179 H 0.98026 0.34341 0.97129 0.0
H1180 H 0.9672 0.35635 0.97321 0.0
H1181 H 0.9955 0.34612 0.92743 0.0
H1182 H 0.00458 0.3522 0.0252 0.0
H1183 H 0.01245 0.36489 0.07013 0.0
H1184 H 0.05516 0.38963 0.03871 0.0
H1185 H 0.04752 0.37726 0.99339 0.0
C1186 C 0.03186 0.31336 0.92113 0.0
C1187 C 0.04613 0.32137 0.9125 0.0
C1188 C 0.02472 0.32017 0.93103 0.0
C1189 C 0.03178 0.33509 0.93264 0.0
C1190 C 0.04606 0.34314 0.92423 0.0
C1191 C 0.05318 0.33632 0.91396 0.0
C1192 C 0.02405 0.34222 0.94252 0.0
C1193 C 0.02837 0.35004 0.96747 0.0
C1194 C 0.01199 0.34066 0.92809 0.0
C1195 C 0.00723 0.33289 0.90117 0.0
C1196 C 0.01659 0.33695 0.87826 0.0
C1197 C 0.01204 0.32954 0.85299 0.0
C1198 C -0.00187 0.31811 0.85032 0.0
C1199 C 0.98872 0.31408 0.87289 0.0
C1200 C 0.99321 0.32145 0.89821 0.0
C1201 C 0.00108 0.38471 0.97674 0.0
C1202 C 0.98613 0.37727 0.97504 0.0
C1203 C 0.00856 0.37731 0.97512 0.0
C1204 C 0.00114 0.3624 0.97232 0.0
C1205 C 0.98618 0.35492 0.97323 0.0
C1206 C 0.97873 0.36231 0.9744 0.0
C1207 C 0.00879 0.35486 0.96395 0.0
C1208 C 0.00449 0.34695 0.93905 0.0
C1209 C 0.02081 0.35632 0.97856 0.0
C1210 C 0.02542 0.3639 0.00573 0.0
C1211 C 0.01562 0.36046 0.02773 0.0
C1212 C 0.02005 0.36758 0.05331 0.0
C1213 C 0.03428 0.3781 0.05724 0.0
C1214 C 0.04413 0.3815 0.03562 0.0
C1215 C 0.03975 0.37443 0.00998 0.0
H1216 H 0.03769 0.38358 0.07707 0.0
H1217 H 0.99463 0.31239 0.83073 0.0
H1218 H 0.07069 0.72627 0.40174 0.0
H1219 H 0.06056 0.7004 0.40084 0.0
H1220 H 0.02623 0.69614 0.3484 0.0
H1221 H 0.03616 0.72195 0.34959 0.0
H1222 H 0.01669 0.68132 0.39567 0.0
H1223 H 0.05003 0.68681 0.32447 0.0
H1224 H 0.07368 0.69661 0.30247 0.0
H1225 H 0.08763 0.68033 0.36975 0.0
H1226 H 0.06411 0.67061 0.39239 0.0
H1227 H 0.97985 0.60715 0.38728 0.0
H1228 H 0.99451 0.63183 0.37222 0.0
H1229 H 0.02788 0.63718 0.42867 0.0
H1230 H 0.01328 0.61227 0.44366 0.0
H1231 H 0.03821 0.65104 0.37689 0.0
H1232 H 0.00607 0.64763 0.44984 0.0
H1233 H 0.98262 0.63793 0.47273 0.0
H1234 H 0.96696 0.6509 0.40286 0.0
H1235 H 0.99026 0.6605 0.37935 0.0
C1236 C 0.06119 0.71984 0.38943 0.0
C1237 C 0.05407 0.72605 0.37608 0.0
C1238 C 0.05546 0.70508 0.38881 0.0
C1239 C 0.04264 0.69638 0.3746 0.0
C1240 C 0.03612 0.70269 0.35954 0.0
C1241 C 0.04179 0.71742 0.36026 0.0
C1242 C 0.03492 0.68079 0.37895 0.0
C1243 C 0.02131 0.67467 0.39099 0.0
C1244 C 0.04117 0.67225 0.37382 0.0
C1245 C 0.05533 0.67809 0.36026 0.0
C1246 C 0.05818 0.68543 0.33472 0.0
C1247 C 0.07155 0.69095 0.3221 0.0
C1248 C 0.08216 0.68913 0.33474 0.0
C1249 C 0.0794 0.68175 0.36 0.0
C1250 C 0.06604 0.67622 0.37272 0.0
C1251 C 0.99033 0.61354 0.39643 0.0
C1252 C 0.99535 0.60791 0.41701 0.0
C1253 C -0.0013 0.62761 0.3877 0.0
C1254 C 0.01216 0.63632 0.39961 0.0
C1255 C 0.0175 0.63057 0.41928 0.0
C1256 C 0.00912 0.61643 0.42798 0.0
C1257 C 0.02003 0.6517 0.39327 0.0
C1258 C 0.03363 0.65775 0.38118 0.0
C1259 C 0.01385 0.66028 0.39849 0.0
C1260 C -0.00014 0.65465 0.41272 0.0
C1261 C -0.00241 0.64832 0.43926 0.0
C1262 C 0.98433 0.64285 0.45236 0.0
C1263 C 0.9733 0.64376 0.43922 0.0
C1264 C 0.97551 0.65018 0.41299 0.0
C1265 C 0.98874 0.65565 0.39978 0.0
H1266 H 0.96304 0.63952 0.44939 0.0
H1267 H 0.09251 0.69341 0.32493 0.0
H1268 H 0.27654 0.34487 0.36272 0.0
H1269 H 0.30149 0.36159 0.37496 0.0
H1270 H 0.30462 0.32731 0.41372 0.0
H1271 H 0.2799 0.3106 0.40145 0.0
H1272 H 0.31056 0.35071 0.44928 0.0
H1273 H 0.32234 0.34067 0.35773 0.0
H1274 H 0.32211 0.33966 0.3063 0.0
H1275 H 0.33851 0.38484 0.3023 0.0
H1276 H 0.33861 0.38608 0.35376 0.0
H1277 H 0.38075 0.3681 0.47529 0.0
H1278 H 0.35582 0.35988 0.46482 0.0
H1279 H 0.36783 0.40011 0.42502 0.0
H1280 H 0.3929 0.40835 0.43522 0.0
H1281 H 0.35339 0.37882 0.39057 0.0
H1282 H 0.3455 0.38934 0.48211 0.0
H1283 H 0.34622 0.39051 0.53353 0.0
H1284 H 0.32287 0.34478 0.53801 0.0
H1285 H 0.32221 0.3433 0.48663 0.0
C1286 C 0.28269 0.34085 0.37315 0.0
C1287 C 0.27627 0.32649 0.38144 0.0
C1288 C 0.29689 0.3504 0.38015 0.0
C1289 C 0.30474 0.34565 0.39551 0.0
C1290 C 0.29864 0.33115 0.40205 0.0
C1291 C 0.28454 0.32162 0.39493 0.0
C1292 C 0.31875 0.35583 0.40735 0.0
C1293 C 0.31999 0.35682 0.43653 0.0
C1294 C 0.33079 0.36425 0.39052 0.0
C1295 C 0.33021 0.36342 0.3596 0.0
C1296 C 0.32566 0.35035 0.3459 0.0
C1297 C 0.32562 0.34975 0.31673 0.0
C1298 C 0.33021 0.36216 0.30104 0.0
C1299 C 0.33487 0.37522 0.31448 0.0
C1300 C 0.33491 0.37587 0.34364 0.0
C1301 C 0.37805 0.37534 0.46503 0.0
C1302 C 0.38873 0.38878 0.45578 0.0
C1303 C 0.36377 0.37068 0.45923 0.0
C1304 C 0.35997 0.37942 0.44421 0.0
C1305 C 0.37056 0.39324 0.43669 0.0
C1306 C 0.38485 0.39793 0.44256 0.0
C1307 C 0.34541 0.37317 0.43262 0.0
C1308 C 0.34397 0.37296 0.40344 0.0
C1309 C 0.33318 0.36544 0.44946 0.0
C1310 C 0.33389 0.36622 0.48044 0.0
C1311 C 0.34065 0.37952 0.49404 0.0
C1312 C 0.34102 0.38024 0.52319 0.0
C1313 C 0.33461 0.36773 0.53902 0.0
C1314 C 0.32785 0.35446 0.52573 0.0
C1315 C 0.32747 0.35368 0.49658 0.0
H1316 H 0.33487 0.36831 0.5616 0.0
H1317 H 0.33023 0.36168 0.27846 0.0
H1318 H 0.6583 0.93648 0.3686 0.0
H1319 H 0.64555 0.94971 0.37092 0.0
H1320 H 0.68566 0.9894 0.37006 0.0
H1321 H 0.69845 0.97614 0.3688 0.0
H1322 H 0.6712 0.98852 0.41335 0.0
H1323 H 0.66036 0.97998 0.3168 0.0
H1324 H 0.65219 0.96623 0.27301 0.0
H1325 H 0.61027 0.94067 0.30756 0.0
H1326 H 0.61822 0.95415 0.35171 0.0
H1327 H 0.63682 0.03004 0.41792 0.0
H1328 H 0.65035 0.01894 0.40133 0.0
H1329 H 0.61461 0.97732 0.41968 0.0
H1330 H 0.60102 0.98837 0.43666 0.0
H1331 H 0.62754 0.9808 0.36435 0.0
H1332 H 0.64006 0.98894 0.46242 0.0
H1333 H 0.64876 0.00368 0.50497 0.0
H1334 H 0.68868 0.03136 0.46461 0.0
H1335 H 0.68012 0.01689 0.42165 0.0
C1336 C 0.66437 0.94803 0.36807 0.0
C1337 C 0.67932 0.95533 0.36896 0.0
C1338 C 0.65707 0.95559 0.36926 0.0
C1339 C 0.66466 0.97056 0.37075 0.0
C1340 C 0.67961 0.97786 0.36914 0.0
C1341 C 0.68689 0.97029 0.36839 0.0
C1342 C 0.65718 0.97837 0.37827 0.0
C1343 C 0.66185 0.98706 0.40217 0.0
C1344 C 0.64477 0.97621 0.36417 0.0
C1345 C 0.63993 0.96801 0.33767 0.0
C1346 C 0.64943 0.97135 0.31516 0.0
C1347 C 0.64483 0.96362 0.29025 0.0
C1348 C 0.63073 0.95256 0.28753 0.0
C1349 C 0.62119 0.94923 0.3097 0.0
C1350 C 0.62573 0.95693 0.33467 0.0
C1351 C 0.63189 0.01853 0.41862 0.0
C1352 C 0.61792 0.01003 0.42866 0.0
C1353 C 0.6396 0.01223 0.40908 0.0
C1354 C 0.6334 0.99736 0.40925 0.0
C1355 C 0.61948 0.98883 0.41933 0.0
C1356 C 0.61181 0.99514 0.42922 0.0
C1357 C 0.6416 0.99075 0.39926 0.0
C1358 C 0.63702 0.98231 0.3751 0.0
C1359 C 0.65421 0.99326 0.41286 0.0
C1360 C 0.65939 0.00192 0.43873 0.0
C1361 C 0.65064 0.99824 0.46253 0.0
C1362 C 0.65556 0.00653 0.48674 0.0
C1363 C 0.66925 0.01847 0.48746 0.0
C1364 C 0.67806 0.02212 0.464 0.0
C1365 C 0.67319 0.01387 0.43973 0.0
H1366 H 0.67303 0.02488 0.50622 0.0
H1367 H 0.62719 0.94659 0.26822 0.0
H1368 H 0.32157 0.06031 0.53604 0.0
H1369 H 0.33097 0.06754 0.48897 0.0
H1370 H 0.29469 0.07188 0.46711 0.0
H1371 H 0.28507 0.06448 0.51457 0.0
H1372 H 0.30216 0.05938 0.42496 0.0
H1373 H 0.32575 0.10106 0.48241 0.0
H1374 H 0.33928 0.1151 0.52339 0.0
H1375 H 0.37426 0.10899 0.50109 0.0
H1376 H 0.36085 0.09473 0.46017 0.0
H1377 H 0.33127 0.09836 0.30205 0.0
H1378 H 0.32201 0.09248 0.34951 0.0
H1379 H 0.3585 0.08906 0.37411 0.0
H1380 H 0.36805 0.09529 0.32638 0.0
H1381 H 0.35075 0.1014 0.415 0.0
H1382 H 0.32699 0.05934 0.35811 0.0
H1383 H 0.31345 0.04528 0.31712 0.0
H1384 H 0.27878 0.05205 0.33854 0.0
H1385 H 0.29219 0.06633 0.37945 0.0
C1386 C 0.31547 0.06266 0.5212 0.0
C1387 C 0.3026 0.0619 0.5291 0.0
C1388 C 0.32092 0.06687 0.49429 0.0
C1389 C 0.31369 0.07054 0.47465 0.0
C1390 C 0.30049 0.06919 0.48201 0.0
C1391 C 0.295 0.06494 0.50908 0.0
C1392 C 0.32018 0.07606 0.44675 0.0
C1393 C 0.31269 0.0687 0.42276 0.0
C1394 C 0.33408 0.08803 0.44389 0.0
C1395 C 0.34224 0.09672 0.46834 0.0
C1396 C 0.33628 0.10263 0.48634 0.0
C1397 C 0.34394 0.11064 0.50955 0.0
C1398 C 0.35761 0.11292 0.51487 0.0
C1399 C 0.36367 0.10721 0.49695 0.0
C1400 C 0.35605 0.09917 0.47373 0.0
C1401 C 0.33745 0.09655 0.31762 0.0
C1402 C 0.35035 0.09717 0.31042 0.0
C1403 C 0.33209 0.09311 0.34475 0.0
C1404 C 0.33937 0.08998 0.36526 0.0
C1405 C 0.35265 0.09134 0.35857 0.0
C1406 C 0.35811 0.09492 0.33133 0.0
C1407 C 0.33274 0.08471 0.39319 0.0
C1408 C 0.34021 0.09211 0.41719 0.0
C1409 C 0.31882 0.07276 0.39607 0.0
C1410 C 0.31065 0.06401 0.37171 0.0
C1411 C 0.31651 0.0579 0.35398 0.0
C1412 C 0.30886 0.04989 0.33078 0.0
C1413 C 0.29528 0.0478 0.3252 0.0
C1414 C 0.2893 0.05368 0.34288 0.0
C1415 C 0.29692 0.06173 0.36609 0.0
H1416 H 0.28937 0.0416 0.30722 0.0
H1417 H 0.36352 0.11912 0.53285 0.0
H1418 H 0.89719 0.22443 0.53741 0.0
H1419 H 0.89283 0.22828 0.48933 0.0
H1420 H 0.93133 0.22887 0.46369 0.0
H1421 H 0.93601 0.22539 0.51249 0.0
H1422 H 0.9304 0.25095 0.44233 0.0
H1423 H 0.89742 0.20092 0.44608 0.0
H1424 H 0.87794 0.17864 0.46591 0.0
H1425 H 0.8492 0.19494 0.45817 0.0
H1426 H 0.86856 0.21741 0.43863 0.0
H1427 H 0.91677 0.25076 0.29786 0.0
H1428 H 0.9203 0.24441 0.34468 0.0
H1429 H 0.88458 0.24794 0.3743 0.0
H1430 H 0.88094 0.25442 0.32691 0.0
H1431 H 0.88417 0.22329 0.39293 0.0
H1432 H 0.91761 0.27344 0.38918 0.0
H1433 H 0.93745 0.29584 0.37059 0.0
H1434 H 0.96572 0.27899 0.37844 0.0
H1435 H 0.94599 0.25637 0.39659 0.0
C1436 C 0.90464 0.22512 0.52153 0.0
C1437 C 0.91696 0.2246 0.52878 0.0
C1438 C 0.90208 0.22726 0.49392 0.0
C1439 C 0.91166 0.22874 0.47272 0.0
C1440 C 0.92375 0.22773 0.47969 0.0
C1441 C 0.92637 0.22562 0.50751 0.0
C1442 C 0.90945 0.23235 0.44381 0.0
C1443 C 0.9204 0.24472 0.43128 0.0
C1444 C 0.89622 0.2245 0.42972 0.0
C1445 C 0.88448 0.2109 0.44108 0.0
C1446 C 0.88697 0.19979 0.44876 0.0
C1447 C 0.87595 0.18712 0.45993 0.0
C1448 C 0.86235 0.18539 0.46336 0.0
C1449 C 0.85974 0.1963 0.45552 0.0
C1450 C 0.87073 0.209 0.44435 0.0
C1451 C 0.9096 0.25019 0.31425 0.0
C1452 C 0.89852 0.25306 0.30863 0.0
C1453 C 0.91171 0.24662 0.3411 0.0
C1454 C 0.9028 0.24581 0.36307 0.0
C1455 C 0.89161 0.24854 0.35761 0.0
C1456 C 0.88955 0.25227 0.33061 0.0
C1457 C 0.90513 0.24186 0.39152 0.0
C1458 C 0.8942 0.22944 0.40393 0.0
C1459 C 0.91842 0.24961 0.40542 0.0
C1460 C 0.93026 0.26313 0.39401 0.0
C1461 C 0.92801 0.27444 0.38665 0.0
C1462 C 0.93926 0.28719 0.37626 0.0
C1463 C 0.95284 0.28884 0.37338 0.0
C1464 C 0.9552 0.27771 0.38077 0.0
C1465 C 0.94398 0.26491 0.39107 0.0
H1466 H 0.96154 0.29874 0.36543 0.0
H1467 H 0.85384 0.17558 0.47206 0.0
H1468 H 0.7431 0.66314 0.54142 0.0
H1469 H 0.74094 0.65406 0.49423 0.0
H1470 H 0.77349 0.69562 0.46625 0.0
H1471 H 0.77563 0.70496 0.51405 0.0
H1472 H 0.75098 0.68274 0.42907 0.0
H1473 H 0.78151 0.66955 0.47716 0.0
H1474 H 0.78874 0.65908 0.51506 0.0
H1475 H 0.75204 0.61802 0.49942 0.0
H1476 H 0.74447 0.62828 0.46169 0.0
H1477 H 0.76545 0.65982 0.30223 0.0
H1478 H 0.7687 0.66838 0.35019 0.0
H1479 H 0.73222 0.62873 0.37582 0.0
H1480 H 0.72866 0.62008 0.32729 0.0
H1481 H 0.75696 0.64066 0.41381 0.0
H1482 H 0.72616 0.65357 0.36649 0.0
H1483 H 0.71874 0.66364 0.32817 0.0
H1484 H 0.75547 0.70485 0.34232 0.0
H1485 H 0.76328 0.69497 0.38037 0.0
C1486 C 0.74982 0.67043 0.52531 0.0
C1487 C 0.75964 0.68479 0.53159 0.0
C1488 C 0.74859 0.66517 0.49828 0.0
C1489 C 0.75723 0.67405 0.47674 0.0
C1490 C 0.76677 0.68853 0.48261 0.0
C1491 C 0.768 0.69387 0.50988 0.0
C1492 C 0.75624 0.668 0.44834 0.0
C1493 C 0.75253 0.6737 0.42567 0.0
C1494 C 0.75784 0.6559 0.44398 0.0
C1495 C 0.76236 0.64972 0.46673 0.0
C1496 C 0.77492 0.65831 0.48195 0.0
C1497 C 0.77908 0.65241 0.50338 0.0
C1498 C 0.77084 0.6379 0.50966 0.0
C1499 C 0.75841 0.62926 0.49453 0.0
C1500 C 0.75418 0.63511 0.47311 0.0
C1501 C 0.75823 0.65276 0.31807 0.0
C1502 C 0.74672 0.63927 0.31088 0.0
C1503 C 0.76009 0.65773 0.34549 0.0
C1504 C 0.75058 0.6493 0.36644 0.0
C1505 C 0.73964 0.63542 0.35985 0.0
C1506 C 0.73766 0.63046 0.33219 0.0
C1507 C 0.75172 0.65542 0.39471 0.0
C1508 C 0.75546 0.64973 0.41727 0.0
C1509 C 0.75009 0.66748 0.39897 0.0
C1510 C 0.7454 0.67348 0.37611 0.0
C1511 C 0.73275 0.66475 0.36124 0.0
C1512 C 0.72845 0.67042 0.3396 0.0
C1513 C 0.73664 0.68487 0.33277 0.0
C1514 C 0.74914 0.69366 0.3476 0.0
C1515 C 0.75351 0.68803 0.36922 0.0
H1516 H 0.73329 0.68925 0.31605 0.0
H1517 H 0.77409 0.63333 0.52618 0.0
H1518 H 0.0819 0.33153 0.21143 0.0
H1519 H 0.07928 0.32244 0.1641 0.0
H1520 H 0.10768 0.36501 0.13395 0.0
H1521 H 0.11022 0.37433 0.1818 0.0
H1522 H 0.08452 0.3507 0.1 0.0
H1523 H 0.11905 0.34118 0.14098 0.0
H1524 H 0.12909 0.33215 0.17627 0.0
H1525 H 0.09467 0.28946 0.16275 0.0
H1526 H 0.08422 0.29829 0.12775 0.0
H1527 H 0.09777 0.3307 0.96879 0.0
H1528 H 0.10139 0.33911 0.01683 0.0
H1529 H 0.06862 0.29757 0.0443 0.0
H1530 H 0.06472 0.289 0.99566 0.0
H1531 H 0.09398 0.31126 0.07926 0.0
H1532 H 0.05954 0.32111 0.03784 0.0
H1533 H 0.05013 0.33039 1.0016 0.0
H1534 H 0.08508 0.37276 0.01529 0.0
H1535 H 0.09488 0.36371 0.05121 0.0
C1536 C 0.08764 0.33903 0.19482 0.0
C1537 C 0.09635 0.35368 0.20045 0.0
C1538 C 0.08616 0.33377 0.16771 0.0
C1539 C 0.09344 0.34298 0.14546 0.0
C1540 C 0.10201 0.35768 0.15083 0.0
C1541 C 0.10349 0.36299 0.17815 0.0
C1542 C 0.09194 0.33711 0.11673 0.0
C1543 C 0.0868 0.34223 0.09539 0.0
C1544 C 0.09455 0.32578 0.11081 0.0
C1545 C 0.10078 0.32042 0.13191 0.0
C1546 C 0.11354 0.32988 0.14571 0.0
C1547 C 0.11932 0.32479 0.16564 0.0
C1548 C 0.11253 0.31023 0.17177 0.0
C1549 C 0.09992 0.30074 0.15799 0.0
C1550 C 0.09406 0.30578 0.13811 0.0
C1551 C 0.09141 0.32324 0.985 0.0
C1552 C 0.08087 0.30918 0.97835 0.0
C1553 C 0.09349 0.32811 0.01248 0.0
C1554 C 0.08512 0.31905 0.03404 0.0
C1555 C 0.07513 0.30475 0.02786 0.0
C1556 C 0.07295 0.29985 1.00013 0.0
C1557 C 0.08656 0.32484 0.06271 0.0
C1558 C 0.09169 0.31971 0.08396 0.0
C1559 C 0.08398 0.33619 0.06851 0.0
C1560 C 0.07803 0.3417 0.04705 0.0
C1561 C 0.0653 0.33239 0.03295 0.0
C1562 C 0.05988 0.33761 0.01248 0.0
C1563 C 0.06703 0.35215 0.0061 0.0
C1564 C 0.07958 0.3615 0.02023 0.0
C1565 C 0.08506 0.35633 0.04065 0.0
H1566 H 0.06283 0.35617 0.99024 0.0
H1567 H 0.11705 0.3063 0.18713 0.0
H1568 H 0.6255 0.73751 0.18588 0.0
H1569 H 0.63473 0.74378 0.13794 0.0
H1570 H 0.67548 0.75027 0.16555 0.0
H1571 H 0.66647 0.74428 0.21308 0.0
H1572 H 0.67932 0.77156 0.13282 0.0
H1573 H 0.65158 0.72022 0.12881 0.0
H1574 H 0.62988 0.69666 0.13357 0.0
H1575 H 0.60822 0.7088 0.07406 0.0
H1576 H 0.62975 0.73251 0.06922 0.0
H1577 H 0.71057 0.77202 1.00013 0.0
H1578 H 0.70128 0.76765 0.04812 0.0
H1579 H 0.66055 0.75996 0.01754 0.0
H1580 H 0.66962 0.76394 0.96991 0.0
H1581 H 0.65638 0.73969 0.05173 0.0
H1582 H 0.68419 0.79082 0.05471 0.0
H1583 H 0.70585 0.81439 0.04973 0.0
H1584 H 0.72729 0.80283 0.11085 0.0
H1585 H 0.70581 0.77911 0.11593 0.0
C1586 C 0.63638 0.74019 0.18161 0.0
C1587 C 0.64523 0.74039 0.20328 0.0
C1588 C 0.64166 0.74376 0.15423 0.0
C1589 C 0.65582 0.74747 0.14805 0.0
C1590 C 0.66457 0.74754 0.16971 0.0
C1591 C 0.65935 0.74403 0.19692 0.0
C1592 C 0.66174 0.75144 0.11923 0.0
C1593 C 0.67437 0.76452 0.11512 0.0
C1594 C 0.65516 0.74243 0.09597 0.0
C1595 C 0.64222 0.72819 0.0989 0.0
C1596 C 0.64215 0.71791 0.11692 0.0
C1597 C 0.62989 0.70452 0.1196 0.0
C1598 C 0.61767 0.70125 0.1042 0.0
C1599 C 0.61769 0.71136 0.08602 0.0
C1600 C 0.62992 0.72477 0.08329 0.0
C1601 C 0.69972 0.76963 1.00378 0.0
C1602 C 0.69083 0.7683 0.98126 0.0
C1603 C 0.6944 0.76713 0.03121 0.0
C1604 C 0.68017 0.76347 0.03656 0.0
C1605 C 0.6715 0.76265 0.01405 0.0
C1606 C 0.67674 0.765 0.98679 0.0
C1607 C 0.67399 0.75983 0.06525 0.0
C1608 C 0.66131 0.74678 0.06936 0.0
C1609 C 0.68051 0.76888 0.08849 0.0
C1610 C 0.69343 0.78314 0.08549 0.0
C1611 C 0.69356 0.79326 0.06693 0.0
C1612 C 0.7058 0.80666 0.06411 0.0
C1613 C 0.71795 0.81009 0.0799 0.0
C1614 C 0.71788 0.80015 0.0986 0.0
C1615 C 0.70567 0.78674 0.10148 0.0
H1616 H 0.72742 0.82047 0.0777 0.0
H1617 H 0.60819 0.69088 0.10629 0.0
H1618 H 0.27542 0.90023 0.17744 0.0
H1619 H 0.27104 0.90669 0.13095 0.0
H1620 H 0.22568 0.88229 0.14557 0.0
H1621 H 0.22999 0.8757 0.19181 0.0
H1622 H 0.23166 0.88028 0.09175 0.0
H1623 H 0.24364 0.91737 0.15867 0.0
H1624 H 0.25816 0.93477 0.19495 0.0
H1625 H 0.29275 0.95604 0.13692 0.0
H1626 H 0.27852 0.9386 0.10036 0.0
H1627 H 0.21162 0.91499 0.98974 0.0
H1628 H 0.21504 0.90771 0.03645 0.0
H1629 H 0.26039 0.92855 0.02196 0.0
H1630 H 0.25704 0.93569 0.9755 0.0
H1631 H 0.25362 0.93243 0.07644 0.0
H1632 H 0.24113 0.89424 0.01003 0.0
H1633 H 0.22582 0.87695 0.97424 0.0
H1634 H 0.19113 0.858 0.03267 0.0
H1635 H 0.20618 0.87534 0.0687 0.0
C1636 C 0.26452 0.89585 0.17038 0.0
C1637 C 0.25305 0.88751 0.18834 0.0
C1638 C 0.26202 0.89969 0.14393 0.0
C1639 C 0.24803 0.89525 0.13504 0.0
C1640 C 0.23656 0.88593 0.15202 0.0
C1641 C 0.23905 0.88214 0.17845 0.0
C1642 C 0.24533 0.90114 0.10917 0.0
C1643 C 0.23635 0.89168 0.08856 0.0
C1644 C 0.25146 0.91603 0.10492 0.0
C1645 C 0.26006 0.92656 0.12685 0.0
C1646 C 0.25439 0.92567 0.1537 0.0
C1647 C 0.26256 0.93556 0.17432 0.0
C1648 C 0.27639 0.94648 0.16828 0.0
C1649 C 0.28205 0.94756 0.14158 0.0
C1650 C 0.27394 0.93767 0.1209 0.0
C1651 C 0.22232 0.91828 0.99684 0.0
C1652 C 0.23405 0.92585 0.97899 0.0
C1653 C 0.22426 0.91404 0.0234 0.0
C1654 C 0.23797 0.91746 0.03254 0.0
C1655 C 0.24974 0.92578 0.01536 0.0
C1656 C 0.24779 0.92983 0.98879 0.0
C1657 C 0.24007 0.91157 0.059 0.0
C1658 C 0.24893 0.92104 0.07972 0.0
C1659 C 0.23373 0.8967 0.06348 0.0
C1660 C 0.22473 0.88618 0.04195 0.0
C1661 C 0.2302 0.88646 0.01518 0.0
C1662 C 0.22158 0.87664 0.99486 0.0
C1663 C 0.2075 0.86641 1.00115 0.0
C1664 C 0.20203 0.86595 0.02781 0.0
C1665 C 0.2106 0.87576 0.04819 0.0
H1666 H 0.20084 0.85882 0.9854 0.0
H1667 H 0.28269 0.95414 0.18424 0.0
H1668 H 0.66287 0.89924 0.70807 0.0
H1669 H 0.67192 0.90438 0.66044 0.0
H1670 H 0.63299 0.90236 0.63303 0.0
H1671 H 0.62365 0.89679 0.68102 0.0
H1672 H 0.64191 0.89005 0.59547 0.0
H1673 H 0.66394 0.93488 0.64427 0.0
H1674 H 0.67754 0.95166 0.68213 0.0
H1675 H 0.71359 0.94658 0.66449 0.0
H1676 H 0.70021 0.9297 0.62655 0.0
H1677 H 0.66793 0.926 0.46789 0.0
H1678 H 0.65882 0.91978 0.51532 0.0
H1679 H 0.69759 0.92094 0.54086 0.0
H1680 H 0.70695 0.92743 0.49301 0.0
H1681 H 0.68889 0.93345 0.57931 0.0
H1682 H 0.66714 0.88918 0.52958 0.0
H1683 H 0.65372 0.87267 0.49123 0.0
H1684 H 0.61713 0.87664 0.5106 0.0
H1685 H 0.63041 0.89334 0.54883 0.0
C1686 C 0.65615 0.89977 0.6919 0.0
C1687 C 0.64256 0.8977 0.69833 0.0
C1688 C 0.66139 0.90281 0.66466 0.0
C1689 C 0.65331 0.90412 0.64319 0.0
C1690 C 0.63948 0.9015 0.64928 0.0
C1691 C 0.63413 0.89829 0.67666 0.0
C1692 C 0.65948 0.90844 0.61463 0.0
C1693 C 0.65208 0.89965 0.5919 0.0
C1694 C 0.67295 0.92077 0.60997 0.0
C1695 C 0.68103 0.93093 0.63273 0.0
C1696 C 0.67473 0.93727 0.64858 0.0
C1697 C 0.6824 0.94681 0.67003 0.0
C1698 C 0.69638 0.95014 0.67581 0.0
C1699 C 0.70275 0.94398 0.66003 0.0
C1700 C 0.69515 0.93445 0.6385 0.0
C1701 C 0.6746 0.925 0.48356 0.0
C1702 C 0.68816 0.92713 0.47662 0.0
C1703 C 0.66931 0.92136 0.5107 0.0
C1704 C 0.67737 0.91959 0.53158 0.0
C1705 C 0.69113 0.92215 0.52502 0.0
C1706 C 0.69647 0.92586 0.49772 0.0
C1707 C 0.67132 0.91509 0.56016 0.0
C1708 C 0.67873 0.92384 0.58289 0.0
C1709 C 0.65786 0.90273 0.5648 0.0
C1710 C 0.64982 0.89261 0.54193 0.0
C1711 C 0.65627 0.88662 0.52554 0.0
C1712 C 0.64868 0.87721 0.50384 0.0
C1713 C 0.63459 0.87363 0.49844 0.0
C1714 C 0.62805 0.87943 0.51479 0.0
C1715 C 0.6356 0.88886 0.53649 0.0
H1716 H 0.62874 0.86635 0.48163 0.0
H1717 H 0.70229 0.95752 0.69245 0.0
H1718 H 0.08522 0.78515 0.48633 0.0
H1719 H 0.09182 0.78002 0.53196 0.0
H1720 H 0.05362 0.73874 0.53237 0.0
H1721 H 0.04699 0.74375 0.4866 0.0
H1722 H 0.06049 0.75263 0.58522 0.0
H1723 H 0.08311 0.74061 0.51144 0.0
H1724 H 0.09788 0.74575 0.46914 0.0
H1725 H 0.13376 0.77926 0.51241 0.0
H1726 H 0.11912 0.77445 0.55486 0.0
H1727 H 0.07975 0.71707 0.6851 0.0
H1728 H 0.07299 0.72291 0.64031 0.0
H1729 H 0.1123 0.76325 0.63916 0.0
H1730 H 0.11902 0.75758 0.6842 0.0
H1731 H 0.10517 0.75039 0.58683 0.0
H1732 H 0.08406 0.76286 0.66012 0.0
H1733 H 0.06981 0.76038 0.70206 0.0
H1734 H 0.03197 0.72872 0.66057 0.0
H1735 H 0.04606 0.73068 0.61863 0.0
C1736 C 0.07804 0.77512 0.49642 0.0
C1737 C 0.0656 0.76483 0.4828 0.0
C1738 C 0.08188 0.77216 0.52241 0.0
C1739 C 0.07332 0.7589 0.53535 0.0
C1740 C 0.06041 0.74901 0.52271 0.0
C1741 C 0.05662 0.7519 0.49658 0.0
C1742 C 0.07828 0.75499 0.56107 0.0
C1743 C 0.07013 0.75192 0.58551 0.0
C1744 C 0.09111 0.7545 0.56161 0.0
C1745 C 0.09998 0.75726 0.53624 0.0
C1746 C 0.09412 0.74914 0.51187 0.0
C1747 C 0.10247 0.75199 0.48788 0.0
C1748 C 0.11674 0.76285 0.48807 0.0
C1749 C 0.1227 0.77086 0.51228 0.0
C1750 C 0.11438 0.76807 0.53632 0.0
C1751 C 0.08712 0.72703 0.67498 0.0
C1752 C 0.09995 0.73686 0.68814 0.0
C1753 C 0.08318 0.73041 0.64951 0.0
C1754 C 0.09206 0.7436 0.63656 0.0
C1755 C 0.10527 0.75304 0.64881 0.0
C1756 C 0.10912 0.74977 0.67449 0.0
C1757 C 0.08727 0.74783 0.61101 0.0
C1758 C 0.09547 0.751 0.58658 0.0
C1759 C 0.07456 0.74857 0.6106 0.0
C1760 C 0.06616 0.7468 0.6363 0.0
C1761 C 0.07275 0.75518 0.66008 0.0
C1762 C 0.06469 0.7539 0.68384 0.0
C1763 C 0.05 0.74444 0.68393 0.0
C1764 C 0.04336 0.73608 0.66042 0.0
C1765 C 0.05138 0.73722 0.63669 0.0
H1766 H 0.04375 0.74359 0.70221 0.0
H1767 H 0.12319 0.76504 0.46947 0.0
H1768 H 0.24422 0.33569 0.46091 0.0
H1769 H 0.24877 0.34434 0.50879 0.0
H1770 H 0.23179 0.30129 0.53877 0.0
H1771 H 0.22708 0.29243 0.49033 0.0
H1772 H 0.22225 0.31678 0.56927 0.0
H1773 H 0.26741 0.3237 0.53663 0.0
H1774 H 0.28783 0.33242 0.50431 0.0
H1775 H 0.29744 0.37553 0.51775 0.0
H1776 H 0.27696 0.36707 0.54984 0.0
H1777 H 0.24807 0.33255 0.7062 0.0
H1778 H 0.24352 0.32465 0.65796 0.0
H1779 H 0.26299 0.36834 0.63034 0.0
H1780 H 0.26786 0.37647 0.67927 0.0
H1781 H 0.27124 0.35305 0.59826 0.0
H1782 H 0.22694 0.34715 0.6299 0.0
H1783 H 0.20655 0.33941 0.66191 0.0
H1784 H 0.19507 0.29567 0.64959 0.0
H1785 H 0.21555 0.30316 0.61784 0.0
C1786 C 0.24139 0.32799 0.47761 0.0
C1787 C 0.23533 0.31334 0.47176 0.0
C1788 C 0.24408 0.333 0.50503 0.0
C1789 C 0.24086 0.32352 0.52738 0.0
C1790 C 0.23444 0.30882 0.52179 0.0
C1791 C 0.23176 0.30376 0.49416 0.0
C1792 C 0.2442 0.3291 0.55646 0.0
C1793 C 0.23299 0.32453 0.57574 0.0
C1794 C 0.25815 0.33964 0.56461 0.0
C1795 C 0.27054 0.34473 0.54544 0.0
C1796 C 0.2738 0.33503 0.53253 0.0
C1797 C 0.2854 0.33993 0.51428 0.0
C1798 C 0.29388 0.35451 0.5089 0.0
C1799 C 0.29084 0.36424 0.52189 0.0
C1800 C 0.27925 0.3594 0.54013 0.0
C1801 C 0.25136 0.34055 0.68998 0.0
C1802 C 0.25819 0.35517 0.69664 0.0
C1803 C 0.2487 0.33597 0.66231 0.0
C1804 C 0.25265 0.34585 0.64048 0.0
C1805 C 0.25976 0.36051 0.64689 0.0
C1806 C 0.2625 0.36515 0.6748 0.0
C1807 C 0.24931 0.34067 0.61113 0.0
C1808 C 0.26049 0.3453 0.59179 0.0
C1809 C 0.23531 0.33032 0.60281 0.0
C1810 C 0.22286 0.32573 0.62164 0.0
C1811 C 0.22013 0.33588 0.63415 0.0
C1812 C 0.20855 0.33154 0.65224 0.0
C1813 C 0.19954 0.31706 0.65783 0.0
C1814 C 0.20207 0.30689 0.64526 0.0
C1815 C 0.21366 0.31117 0.62719 0.0
H1816 H 0.19058 0.31373 0.67185 0.0
H1817 H 0.3028 0.35829 0.49467 0.0
H1818 H 0.92468 0.70679 0.01556 0.0
H1819 H 0.9186 0.69732 0.96774 0.0
H1820 H 0.92635 0.6632 0.98997 0.0
H1821 H 0.93228 0.67246 0.03745 0.0
H1822 H 0.93665 0.67395 0.93732 0.0
H1823 H 0.8932 0.65742 0.99077 0.0
H1824 H 0.87628 0.66071 0.01992 0.0
H1825 H 0.87147 0.68516 0.95465 0.0
H1826 H 0.88853 0.68218 0.92525 0.0
H1827 H 0.90164 0.62612 0.826 0.0
H1828 H 0.90714 0.63522 0.87404 0.0
H1829 H 0.89498 0.66654 0.85421 0.0
H1830 H 0.88914 0.65731 0.80676 0.0
H1831 H 0.88724 0.65768 0.90549 0.0
H1832 H 0.92961 0.67377 0.85089 0.0
H1833 H 0.94633 0.6707 0.82074 0.0
H1834 H 0.9541 0.64865 0.88679 0.0
H1835 H 0.93701 0.65112 0.91703 0.0
C1836 C 0.92533 0.69743 0.01005 0.0
C1837 C 0.92893 0.69037 0.03028 0.0
C1838 C 0.92178 0.69198 0.9828 0.0
C1839 C 0.92188 0.67945 0.97536 0.0
C1840 C 0.9262 0.67286 0.99518 0.0
C1841 C 0.92958 0.67818 0.02236 0.0
C1842 C 0.91666 0.6726 0.94761 0.0
C1843 C 0.92582 0.67028 0.93042 0.0
C1844 C 0.9026 0.66803 0.9384 0.0
C1845 C 0.89225 0.6697 0.95594 0.0
C1846 C 0.88861 0.66358 0.98272 0.0
C1847 C 0.87899 0.66538 0.99927 0.0
C1848 C 0.87283 0.67317 0.98917 0.0
C1849 C 0.87626 0.67915 0.96246 0.0
C1850 C 0.8859 0.6774 0.94584 0.0
C1851 C 0.89977 0.63468 0.83215 0.0
C1852 C 0.89505 0.64106 0.81254 0.0
C1853 C 0.90306 0.63998 0.85952 0.0
C1854 C 0.9018 0.65181 0.86759 0.0
C1855 C 0.89613 0.65749 0.84852 0.0
C1856 C 0.8928 0.65218 0.82133 0.0
C1857 C 0.90721 0.65894 0.89511 0.0
C1858 C 0.89809 0.66134 0.91227 0.0
C1859 C 0.92137 0.66373 0.90412 0.0
C1860 C 0.93189 0.6625 0.88615 0.0
C1861 C 0.93478 0.66816 0.85893 0.0
C1862 C 0.94433 0.66652 0.84181 0.0
C1863 C 0.95129 0.65951 0.85186 0.0
C1864 C 0.9487 0.65408 0.87903 0.0
C1865 C 0.93905 0.65556 0.89615 0.0
H1866 H 0.95871 0.65829 0.83859 0.0
H1867 H 0.86539 0.67455 1.00202 0.0
H1868 H 0.28882 0.21599 0.011 0.0
H1869 H 0.29708 0.21858 0.96231 0.0
H1870 H 0.33452 0.25854 0.98322 0.0
H1871 H 0.32639 0.25606 0.03136 0.0
H1872 H 0.32316 0.26057 0.93473 0.0
H1873 H 0.33645 0.22856 0.97665 0.0
H1874 H 0.33226 0.20695 1.00187 0.0
H1875 H 0.30355 0.18066 0.9374 0.0
H1876 H 0.30741 0.20214 0.91198 0.0
H1877 H 0.36694 0.26933 0.81592 0.0
H1878 H 0.35818 0.2661 0.86429 0.0
H1879 H 0.32061 0.2268 0.84076 0.0
H1880 H 0.3292 0.23002 0.79269 0.0
H1881 H 0.33168 0.22412 0.89026 0.0
H1882 H 0.31768 0.25575 0.8492 0.0
H1883 H 0.32033 0.27711 0.82532 0.0
H1884 H 0.34991 0.30389 0.8882 0.0
H1885 H 0.34742 0.28265 0.91249 0.0
C1886 C 0.29874 0.22535 0.00508 0.0
C1887 C 0.30697 0.23579 0.02503 0.0
C1888 C 0.3035 0.22679 0.97734 0.0
C1889 C 0.31651 0.23871 0.96916 0.0
C1890 C 0.32448 0.24926 0.98897 0.0
C1891 C 0.31981 0.24779 0.01656 0.0
C1892 C 0.32203 0.24029 0.94013 0.0
C1893 C 0.32518 0.25267 0.92515 0.0
C1894 C 0.32442 0.22987 0.92737 0.0
C1895 C 0.32209 0.21695 0.94258 0.0
C1896 C 0.32914 0.21817 0.96797 0.0
C1897 C 0.32684 0.20595 0.98228 0.0
C1898 C 0.31761 0.19244 0.97129 0.0
C1899 C 0.31068 0.19113 0.94592 0.0
C1900 C 0.31292 0.20333 0.93154 0.0
C1901 C 0.35691 0.25993 0.82121 0.0
C1902 C 0.34876 0.24993 0.80054 0.0
C1903 C 0.35186 0.25815 0.84876 0.0
C1904 C 0.33867 0.24625 0.8561 0.0
C1905 C 0.33079 0.23605 0.83563 0.0
C1906 C 0.33572 0.23793 0.80814 0.0
C1907 C 0.33288 0.24445 0.88495 0.0
C1908 C 0.32968 0.23203 0.89988 0.0
C1909 C 0.33043 0.25482 0.8977 0.0
C1910 C 0.33248 0.26763 0.88248 0.0
C1911 C 0.32488 0.2662 0.85775 0.0
C1912 C 0.32629 0.27828 0.84423 0.0
C1913 C 0.3353 0.29185 0.85523 0.0
C1914 C 0.34294 0.29337 0.87972 0.0
C1915 C 0.34151 0.28132 0.8934 0.0
H1916 H 0.33632 0.30119 0.84482 0.0
H1917 H 0.31584 0.18299 0.98239 0.0
H1918 H 0.74402 0.07731 0.7995 0.0
H1919 H 0.74831 0.07337 0.84766 0.0
H1920 H 0.73505 0.10277 0.87582 0.0
H1921 H 0.73071 0.10686 0.82708 0.0
H1922 H 0.76008 0.10756 0.9006 0.0
H1923 H 0.71361 0.06771 0.88555 0.0
H1924 H 0.69438 0.04615 0.86309 0.0
H1925 H 0.71841 0.02476 0.87382 0.0
H1926 H 0.73791 0.04628 0.89592 0.0
H1927 H 0.75486 0.08984 0.04362 0.0
H1928 H 0.75044 0.09374 0.99554 0.0
H1929 H 0.76299 0.0638 0.96722 0.0
H1930 H 0.76737 0.0597 0.01589 0.0
H1931 H 0.73822 0.05924 0.94255 0.0
H1932 H 0.78481 0.09927 0.95716 0.0
H1933 H 0.80345 0.12045 0.98168 0.0
H1934 H 0.77883 0.14132 0.97241 0.0
H1935 H 0.75994 0.12017 0.94817 0.0
C1936 C 0.74193 0.08293 0.81586 0.0
C1937 C 0.737 0.09241 0.80943 0.0
C1938 C 0.74432 0.08057 0.84346 0.0
C1939 C 0.74183 0.08761 0.86541 0.0
C1940 C 0.73697 0.09716 0.85918 0.0
C1941 C 0.73447 0.09948 0.83138 0.0
C1942 C 0.7449 0.08528 0.89464 0.0
C1943 C 0.75511 0.09702 0.90994 0.0
C1944 C 0.73877 0.07146 0.90651 0.0
C1945 C 0.72729 0.05867 0.89223 0.0
C1946 C 0.71488 0.05847 0.88284 0.0
C1947 C 0.70389 0.04623 0.8703 0.0
C1948 C 0.70514 0.03407 0.86719 0.0
C1949 C 0.71742 0.03416 0.87642 0.0
C1950 C 0.72845 0.04638 0.88891 0.0
C1951 C 0.75679 0.08412 0.02722 0.0
C1952 C 0.76151 0.07446 0.0336 0.0
C1953 C 0.7543 0.08643 0.99966 0.0
C1954 C 0.75652 0.0792 0.97767 0.0
C1955 C 0.76125 0.06954 0.98387 0.0
C1956 C 0.76381 0.06724 0.01162 0.0
C1957 C 0.75341 0.0815 0.94845 0.0
C1958 C 0.74319 0.06977 0.93315 0.0
C1959 C 0.75953 0.09532 0.93656 0.0
C1960 C 0.7709 0.10808 0.95106 0.0
C1961 C 0.78332 0.10833 0.96054 0.0
C1962 C 0.79394 0.12034 0.97436 0.0
C1963 C 0.79231 0.13221 0.97866 0.0
C1964 C 0.78007 0.13211 0.96909 0.0
C1965 C 0.76941 0.12012 0.95528 0.0
H1966 H 0.80055 0.1415 0.98936 0.0
H1967 H 0.69663 0.0246 0.85744 0.0
H1968 H 0.00032 0.42633 0.6365 0.0
H1969 H 0.9921 0.42176 0.6847 0.0
H1970 H 0.03241 0.42656 0.71061 0.0
H1971 H 0.04083 0.43126 0.66186 0.0
H1972 H 0.00852 0.40214 0.73285 0.0
H1973 H 0.02578 0.45212 0.7263 0.0
H1974 H 0.02854 0.47423 0.70573 0.0
H1975 H 0.98361 0.45825 0.71496 0.0
H1976 H 0.98054 0.43594 0.73521 0.0
H1977 H 0.99734 0.40526 0.87788 0.0
H1978 H 0.00628 0.41001 0.83014 0.0
H1979 H 0.96712 0.4073 0.80231 0.0
H1980 H 0.95804 0.40254 0.85055 0.0
H1981 H 0.99094 0.43091 0.78128 0.0
H1982 H 0.97368 0.38079 0.78743 0.0
H1983 H 0.97098 0.35871 0.80806 0.0
H1984 H 0.016 0.37497 0.79968 0.0
H1985 H 0.01901 0.39725 0.77935 0.0
C1986 C 0.00752 0.42653 0.65241 0.0
C1987 C 0.02126 0.4292 0.64536 0.0
C1988 C 0.00279 0.42394 0.68001 0.0
C1989 C 0.01165 0.42391 0.70131 0.0
C1990 C 0.02541 0.42657 0.69447 0.0
C1991 C 0.03024 0.42933 0.6667 0.0
C1992 C 0.00623 0.42074 0.73048 0.0
C1993 C 0.00491 0.40856 0.74366 0.0
C1994 C 0.00112 0.42889 0.74424 0.0
C1995 C 0.00291 0.44229 0.73203 0.0
C1996 C 0.01646 0.45326 0.72371 0.0
C1997 C 0.01809 0.46584 0.71215 0.0
C1998 C 0.00625 0.46763 0.70897 0.0
C1999 C 0.99276 0.45684 0.7174 0.0
C2000 C 0.99108 0.44423 0.72895 0.0
C2001 C 0.99055 0.40556 0.86163 0.0
C2002 C 0.97695 0.4035 0.86801 0.0
C2003 C 0.99567 0.40823 0.83427 0.0
C2004 C 0.98735 0.4089 0.81255 0.0
C2005 C 0.97372 0.4068 0.81875 0.0
C2006 C 0.96851 0.40402 0.84625 0.0
C2007 C 0.99318 0.41227 0.78366 0.0
C2008 C 0.99457 0.42448 0.77051 0.0
C2009 C -0.00164 0.40415 0.76995 0.0
C2010 C 0.99659 0.39075 0.78212 0.0
C2011 C 0.98303 0.37971 0.79021 0.0
C2012 C 0.98144 0.36715 0.8018 0.0
C2013 C 0.99332 0.36545 0.80525 0.0
C2014 C 0.00681 0.37631 0.79703 0.0
C2015 C 0.00846 0.3889 0.78544 0.0
H2016 H 0.99207 0.35572 0.81423 0.0
H2017 H 0.00753 0.47738 0.70003 0.0
H2018 H 0.5935 0.55138 0.84473 0.0
H2019 H 0.58741 0.55507 0.79716 0.0
H2020 H 0.56604 0.57638 0.83076 0.0
H2021 H 0.57182 0.57254 0.87789 0.0
H2022 H 0.551 0.55989 0.78896 0.0
H2023 H 0.60007 0.59507 0.80448 0.0
H2024 H 0.6253 0.60392 0.81627 0.0
H2025 H 0.62893 0.58059 0.74729 0.0
H2026 H 0.60364 0.5714 0.73536 0.0
H2027 H 0.55113 0.59662 0.66244 0.0
H2028 H 0.55452 0.59095 0.71068 0.0
H2029 H 0.57435 0.56769 0.6794 0.0
H2030 H 0.57111 0.57329 0.63184 0.0
H2031 H 0.58998 0.58547 0.72034 0.0
H2032 H 0.54052 0.55041 0.70506 0.0
H2033 H 0.51541 0.54225 0.69338 0.0
H2034 H 0.51277 0.56635 0.76203 0.0
H2035 H 0.53794 0.57481 0.7739 0.0
C2036 C 0.58737 0.5567 0.84191 0.0
C2037 C 0.58322 0.56173 0.86507 0.0
C2038 C 0.58396 0.55888 0.81474 0.0
C2039 C 0.57642 0.56619 0.81032 0.0
C2040 C 0.57187 0.57074 0.83353 0.0
C2041 C 0.57524 0.56857 0.86053 0.0
C2042 C 0.57361 0.56959 0.78166 0.0
C2043 C 0.55956 0.5656 0.77406 0.0
C2044 C 0.58472 0.57695 0.76204 0.0
C2045 C 0.59991 0.58242 0.76923 0.0
C2046 C 0.60621 0.59172 0.79198 0.0
C2047 C 0.62053 0.59681 0.79866 0.0
C2048 C 0.6287 0.59278 0.78259 0.0
C2049 C 0.62258 0.58367 0.75976 0.0
C2050 C 0.60825 0.57852 0.75303 0.0
C2051 C 0.55611 0.59022 0.66595 0.0
C2052 C 0.56087 0.58544 0.64329 0.0
C2053 C 0.55803 0.58696 0.69348 0.0
C2054 C 0.5647 0.57887 0.69868 0.0
C2055 C 0.56926 0.574 0.676 0.0
C2056 C 0.56734 0.5772 0.64873 0.0
C2057 C 0.56737 0.57566 0.72756 0.0
C2058 C 0.58143 0.57973 0.73524 0.0
C2059 C 0.55628 0.56846 0.74726 0.0
C2060 C 0.54116 0.56337 0.74017 0.0
C2061 C 0.53462 0.55407 0.71752 0.0
C2062 C 0.52037 0.54937 0.71089 0.0
C2063 C 0.51251 0.55381 0.7269 0.0
C2064 C 0.51888 0.56294 0.74962 0.0
C2065 C 0.53313 0.56768 0.75632 0.0
H2066 H 0.50148 0.55016 0.72175 0.0
H2067 H 0.63979 0.59675 0.78777 0.0
H2068 H 0.42887 0.00063 0.87421 0.0
H2069 H 0.42446 0.99178 0.82653 0.0
H2070 H 0.42899 0.0316 0.79785 0.0
H2071 H 0.43324 0.04056 0.84622 0.0
H2072 H 0.40537 0.00901 0.77625 0.0
H2073 H 0.45449 0.02279 0.78334 0.0
H2074 H 0.47604 0.02431 0.80412 0.0
H2075 H 0.45714 0.97883 0.79827 0.0
H2076 H 0.43538 0.97701 0.77781 0.0
H2077 H 0.40964 0.99645 0.63277 0.0
H2078 H 0.41447 0.00533 0.68043 0.0
H2079 H 0.40522 0.96393 0.70984 0.0
H2080 H 0.40016 0.95478 0.66152 0.0
H2081 H 0.43109 0.98721 0.73086 0.0
H2082 H 0.38192 0.97391 0.72256 0.0
H2083 H 0.36085 0.97306 0.70086 0.0
H2084 H 0.38051 0.01856 0.70789 0.0
H2085 H 0.40181 0.01974 0.72926 0.0
C2086 C 0.42912 0.00763 0.85777 0.0
C2087 C 0.43141 0.02132 0.86399 0.0
C2088 C 0.42665 0.00254 0.83043 0.0
C2089 C 0.42649 0.01103 0.8085 0.0
C2090 C 0.42909 0.02487 0.81446 0.0
C2091 C 0.43162 0.03002 0.84202 0.0
C2092 C 0.42292 0.00504 0.77973 0.0
C2093 C 0.41115 0.00447 0.76612 0.0
C2094 C 0.43019 -0.00128 0.76683 0.0
C2095 C 0.44325 -0.00024 0.77924 0.0
C2096 C 0.45487 0.0131 0.7867 0.0
C2097 C 0.46714 0.01401 0.79838 0.0
C2098 C 0.46795 0.00167 0.80254 0.0
C2099 C 0.45649 0.98838 0.79504 0.0
C2100 C 0.4442 0.9874 0.78337 0.0
C2101 C 0.40859 0.98915 0.6493 0.0
C2102 C 0.40457 0.97489 0.64335 0.0
C2103 C 0.41128 0.99426 0.6766 0.0
C2104 C 0.4101 0.98529 0.69871 0.0
C2105 C 0.40613 0.97101 0.69301 0.0
C2106 C 0.40323 0.96579 0.6655 0.0
C2107 C 0.41356 0.99116 0.72749 0.0
C2108 C 0.42531 0.99173 0.74106 0.0
C2109 C 0.40634 0.99758 0.74022 0.0
C2110 C 0.39354 0.99692 0.72728 0.0
C2111 C 0.38182 0.98376 0.71924 0.0
C2112 C 0.36982 0.98321 0.70704 0.0
C2113 C 0.36936 0.99575 0.70293 0.0
C2114 C 0.38089 0.00886 0.71106 0.0
C2115 C 0.39293 0.00947 0.72324 0.0
H2116 H 0.36007 0.99531 0.6935 0.0
H2117 H 0.47748 0.00241 0.81147 0.0
H2118 H 0.56914 0.99821 0.128 0.0
H2119 H 0.57193 0.0066 0.17592 0.0
H2120 H 0.55577 0.96367 0.20586 0.0
H2121 H 0.55297 0.95506 0.15731 0.0
H2122 H 0.54478 0.97966 0.23438 0.0
H2123 H 0.58989 0.98474 0.20788 0.0
H2124 H 0.61073 0.99234 0.17713 0.0
H2125 H 0.62151 0.03606 0.18635 0.0
H2126 H 0.6006 0.0287 0.21683 0.0
H2127 H 0.56808 0.99594 0.37316 0.0
H2128 H 0.56305 0.9877 0.32526 0.0
H2129 H 0.58645 0.03121 0.2961 0.0
H2130 H 0.59207 0.03961 0.34474 0.0
H2131 H 0.59347 0.01515 0.26643 0.0
H2132 H 0.54888 0.01057 0.29318 0.0
H2133 H 0.52774 0.00331 0.32289 0.0
H2134 H 0.51562 0.95929 0.31232 0.0
H2135 H 0.53679 0.96629 0.28285 0.0
C2136 C 0.56607 0.99046 0.14467 0.0
C2137 C 0.56091 0.97594 0.13881 0.0
C2138 C 0.56772 0.99532 0.1721 0.0
C2139 C 0.56426 0.98581 0.19444 0.0
C2140 C 0.55856 0.97119 0.18884 0.0
C2141 C 0.55697 0.96629 0.16117 0.0
C2142 C 0.56701 0.99139 0.22347 0.0
C2143 C 0.55543 0.98724 0.2416 0.0
C2144 C 0.58088 0.00168 0.23247 0.0
C2145 C 0.59359 0.00615 0.21446 0.0
C2146 C 0.59664 0.99597 0.20319 0.0
C2147 C 0.60848 0.00023 0.18583 0.0
C2148 C 0.61742 0.01467 0.17973 0.0
C2149 C 0.61457 0.02488 0.19107 0.0
C2150 C 0.60273 0.02067 0.20841 0.0
C2151 C 0.57207 0.00385 0.35667 0.0
C2152 C 0.58043 0.01848 0.36284 0.0
C2153 C 0.56909 -0.00092 0.32916 0.0
C2154 C 0.57412 0.0088 0.30692 0.0
C2155 C 0.58238 0.02348 0.31291 0.0
C2156 C 0.58552 0.02829 0.34067 0.0
C2157 C 0.57121 0.00341 0.27761 0.0
C2158 C 0.58278 0.0076 0.25933 0.0
C2159 C 0.55731 0.99323 0.26841 0.0
C2160 C 0.54449 0.98897 0.28596 0.0
C2161 C 0.54176 -0.00065 0.29734 0.0
C2162 C 0.52976 0.99528 0.31412 0.0
C2163 C 0.52036 0.98085 0.31954 0.0
C2164 C 0.52291 0.97046 0.30812 0.0
C2165 C 0.5349 0.97447 0.29134 0.0
H2166 H 0.51108 0.97772 0.33255 0.0
H2167 H 0.62658 0.01794 0.16627 0.0
H2168 H 0.99368 0.55842 0.36641 0.0
H2169 H 0.00171 0.56293 0.31805 0.0
H2170 H 0.96253 0.56111 0.29365 0.0
H2171 H 0.95446 0.55693 0.34257 0.0
H2172 H 0.97474 0.54648 0.25623 0.0
H2173 H 0.98579 0.59124 0.29861 0.0
H2174 H 0.99513 0.60921 0.33614 0.0
H2175 H 0.03667 0.61386 0.32636 0.0
H2176 H 0.0275 0.59576 0.28888 0.0
H2177 H 0.99457 0.58035 0.12645 0.0
H2178 H 0.98604 0.57379 0.17399 0.0
H2179 H 0.02875 0.58686 0.20173 0.0
H2180 H 0.03755 0.59378 0.15353 0.0
H2181 H 0.015 0.59535 0.23814 0.0
H2182 H 0.00432 0.55156 0.19369 0.0
H2183 H 0.99485 0.53323 0.15676 0.0
H2184 H 0.95267 0.52624 0.17099 0.0
H2185 H 0.96192 0.54468 0.20776 0.0
C2186 C 0.98659 0.55869 0.35077 0.0
C2187 C 0.97343 0.55738 0.35839 0.0
C2188 C 0.99125 0.56132 0.32312 0.0
C2189 C 0.9828 0.56251 0.30241 0.0
C2190 C 0.96921 0.56025 0.30945 0.0
C2191 C 0.9646 0.5578 0.33734 0.0
C2192 C 0.9887 0.56712 0.27395 0.0
C2193 C 0.9834 0.5572 0.2521 0.0
C2194 C 0.00029 0.581 0.26892 0.0
C2195 C 0.00592 0.59202 0.29116 0.0
C2196 C 0.99688 0.59599 0.30463 0.0
C2197 C 0.00215 0.60622 0.32587 0.0
C2198 C 0.01647 0.61263 0.33376 0.0
C2199 C 0.02557 0.60887 0.32028 0.0
C2200 C 0.02035 0.59863 0.299 0.0
C2201 C 0.00222 0.58182 0.14254 0.0
C2202 C 0.01674 0.5874 0.1361 0.0
C2203 C 0.99728 0.57803 0.1698 0.0
C2204 C 0.00667 0.57953 0.19139 0.0
C2205 C 0.02128 0.5855 0.18532 0.0
C2206 C 0.0263 0.58941 0.15783 0.0
C2207 C 0.00098 0.57473 0.22009 0.0
C2208 C 0.00637 0.5846 0.24212 0.0
C2209 C 0.98946 0.56077 0.22529 0.0
C2210 C 0.98384 0.54958 0.20334 0.0
C2211 C 0.99304 0.54618 0.18882 0.0
C2212 C 0.98771 0.53576 0.16793 0.0
C2213 C 0.97317 0.5286 0.1615 0.0
C2214 C 0.96393 0.53181 0.17599 0.0
C2215 C 0.96921 0.54223 0.19688 0.0
H2216 H 0.96907 0.52054 0.14531 0.0
H2217 H 0.02053 0.62054 0.35023 0.0
H2218 H 0.4122 0.45322 0.16664 0.0
H2219 H 0.4171 0.44811 0.21432 0.0
H2220 H 0.39639 0.40327 0.19444 0.0
H2221 H 0.3918 0.40835 0.14712 0.0
H2222 H 0.38995 0.40865 0.24843 0.0
H2223 H 0.43072 0.4219 0.18821 0.0
H2224 H 0.45013 0.43794 0.15651 0.0
H2225 H 0.46738 0.4701 0.22032 0.0
H2226 H 0.44794 0.45431 0.25226 0.0
H2227 H 0.41519 0.38056 0.35217 0.0
H2228 H 0.40965 0.38684 0.30657 0.0
H2229 H 0.43963 0.43127 0.32263 0.0
H2230 H 0.44582 0.42492 0.36714 0.0
H2231 H 0.44091 0.42734 0.27155 0.0
H2232 H 0.40096 0.41349 0.33358 0.0
H2233 H 0.3816 0.3973 0.36527 0.0
H2234 H 0.36237 0.36676 0.29905 0.0
H2235 H 0.38172 0.38264 0.26711 0.0
C2236 C 0.40841 0.44228 0.17282 0.0
C2237 C 0.40162 0.43117 0.15337 0.0
C2238 C 0.41128 0.43937 0.1999 0.0
C2239 C 0.40718 0.4253 0.20783 0.0
C2240 C 0.39962 0.41417 0.18883 0.0
C2241 C 0.39702 0.41709 0.16181 0.0
C2242 C 0.41162 0.42208 0.23496 0.0
C2243 C 0.40108 0.41271 0.25357 0.0
C2244 C 0.42614 0.4275 0.24173 0.0
C2245 C 0.43778 0.437 0.22249 0.0
C2246 C 0.43857 0.43244 0.19537 0.0
C2247 C 0.44959 0.44148 0.17739 0.0
C2248 C 0.45996 0.45504 0.18638 0.0
C2249 C 0.45933 0.4596 0.21338 0.0
C2250 C 0.44831 0.45062 0.23142 0.0
C2251 C 0.42084 0.39161 0.3456 0.0
C2252 C 0.43093 0.40223 0.36326 0.0
C2253 C 0.41751 0.39524 0.3197 0.0
C2254 C 0.42383 0.40962 0.31141 0.0
C2255 C 0.43447 0.42012 0.32846 0.0
C2256 C 0.43806 0.41646 0.35396 0.0
C2257 C 0.41923 0.41387 0.28545 0.0
C2258 C 0.42975 0.4234 0.26687 0.0
C2259 C 0.40465 0.40865 0.27886 0.0
C2260 C 0.39289 0.3992 0.29802 0.0
C2261 C 0.39265 0.40329 0.32582 0.0
C2262 C 0.38167 0.39416 0.34383 0.0
C2263 C 0.37081 0.38098 0.33418 0.0
C2264 C 0.37082 0.37695 0.30649 0.0
C2265 C 0.38179 0.38601 0.28844 0.0
H2266 H 0.36238 0.37387 0.34813 0.0
H2267 H 0.4685 0.46201 0.17248 0.0
H2268 H 0.29765 0.18741 0.10872 0.0
H2269 H 0.30704 0.17193 0.12243 0.0
H2270 H 0.33782 0.2051 0.17607 0.0
H2271 H 0.32865 0.22072 0.16209 0.0
H2272 H 0.3499 0.19277 0.14643 0.0
H2273 H 0.30837 0.17714 0.20357 0.0
H2274 H 0.28303 0.16879 0.21332 0.0
H2275 H 0.27067 0.13158 0.16294 0.0
H2276 H 0.29594 0.13982 0.15256 0.0
H2277 H 0.36761 0.14665 0.22303 0.0
H2278 H 0.36049 0.16396 0.20892 0.0
H2279 H 0.32887 0.13273 0.15344 0.0
H2280 H 0.33576 0.1154 0.16767 0.0
H2281 H 0.31773 0.14478 0.18599 0.0
H2282 H 0.35946 0.16079 0.1283 0.0
H2283 H 0.38486 0.16925 0.11896 0.0
H2284 H 0.39692 0.2058 0.17118 0.0
H2285 H 0.37158 0.19744 0.18115 0.0
C2286 C 0.3064 0.19139 0.12345 0.0
C2287 C 0.31238 0.20523 0.13446 0.0
C2288 C 0.31174 0.18254 0.13131 0.0
C2289 C 0.32302 0.18734 0.1505 0.0
C2290 C 0.3291 0.20121 0.16125 0.0
C2291 C 0.32381 0.21008 0.15333 0.0
C2292 C 0.32843 0.17784 0.15942 0.0
C2293 C 0.34292 0.18235 0.15544 0.0
C2294 C 0.31925 0.16418 0.17078 0.0
C2295 C 0.30404 0.15917 0.17709 0.0
C2296 C 0.30024 0.16723 0.1944 0.0
C2297 C 0.28589 0.16251 0.20007 0.0
C2298 C 0.27524 0.14968 0.1887 0.0
C2299 C 0.27893 0.14153 0.1717 0.0
C2300 C 0.29326 0.14621 0.16594 0.0
C2301 C 0.35925 0.14355 0.20763 0.0
C2302 C 0.35219 0.12968 0.19652 0.0
C2303 C 0.35522 0.15344 0.19954 0.0
C2304 C 0.34417 0.14961 0.18009 0.0
C2305 C 0.33738 0.13587 0.16856 0.0
C2306 C 0.34135 0.126 0.17666 0.0
C2307 C 0.33915 0.15961 0.17262 0.0
C2308 C 0.32472 0.15521 0.17701 0.0
C2309 C 0.3484 0.17336 0.16173 0.0
C2310 C 0.36363 0.17841 0.15571 0.0
C2311 C 0.36753 0.17057 0.13799 0.0
C2312 C 0.38192 0.17536 0.13254 0.0
C2313 C 0.3925 0.18803 0.14453 0.0
C2314 C 0.38871 0.19597 0.16194 0.0
C2315 C 0.37434 0.19121 0.16748 0.0
H2316 H 0.40363 0.19173 0.14029 0.0
H2317 H 0.26414 0.14604 0.19312 0.0
H2318 H 0.81366 0.10787 0.11583 0.0
H2319 H 0.83125 0.13291 0.12538 0.0
H2320 H 0.80018 0.13691 0.17503 0.0
H2321 H 0.78261 0.11205 0.1655 0.0
H2322 H 0.81342 0.15854 0.13742 0.0
H2323 H 0.8267 0.13436 0.2058 0.0
H2324 H 0.83418 0.11736 0.22124 0.0
H2325 H 0.87197 0.13892 0.17093 0.0
H2326 H 0.86461 0.15594 0.1549 0.0
H2327 H 0.85214 0.22091 0.2163 0.0
H2328 H 0.83752 0.19638 0.20009 0.0
H2329 H 0.8738 0.19922 0.15677 0.0
H2330 H 0.88861 0.22379 0.17336 0.0
H2331 H 0.85961 0.1746 0.18544 0.0
H2332 H 0.84752 0.20011 0.12029 0.0
H2333 H 0.84019 0.21722 0.10486 0.0
H2334 H 0.80033 0.19325 0.14805 0.0
H2335 H 0.8075 0.1761 0.1641 0.0
C2336 C 0.81064 0.11408 0.12894 0.0
C2337 C 0.79677 0.10804 0.13991 0.0
C2338 C 0.82069 0.12835 0.13439 0.0
C2339 C 0.81699 0.13672 0.15092 0.0
C2340 C 0.80321 0.13063 0.16213 0.0
C2341 C 0.79321 0.11642 0.15675 0.0
C2342 C 0.82728 0.15195 0.15617 0.0
C2343 C 0.82348 0.16206 0.14811 0.0
C2344 C 0.84059 0.15653 0.16923 0.0
C2345 C 0.84502 0.14631 0.17889 0.0
C2346 C 0.83654 0.1354 0.19784 0.0
C2347 C 0.84077 0.12577 0.20674 0.0
C2348 C 0.85351 0.12703 0.197 0.0
C2349 C 0.86208 0.13794 0.17841 0.0
C2350 C 0.85789 0.14758 0.16942 0.0
C2351 C 0.857 0.21634 0.20321 0.0
C2352 C 0.8715 0.22426 0.196 0.0
C2353 C 0.84862 0.20235 0.19388 0.0
C2354 C 0.85454 0.19606 0.17692 0.0
C2355 C 0.86904 0.20391 0.16976 0.0
C2356 C 0.87745 0.21793 0.17917 0.0
C2357 C 0.84558 0.18116 0.16732 0.0
C2358 C 0.84964 0.17112 0.17445 0.0
C2359 C 0.8325 0.17662 0.1533 0.0
C2360 C 0.8281 0.18687 0.14356 0.0
C2361 C 0.83723 0.19854 0.12667 0.0
C2362 C 0.8331 0.20824 0.11778 0.0
C2363 C 0.81981 0.20633 0.12551 0.0
C2364 C 0.81062 0.19471 0.14209 0.0
C2365 C 0.81471 0.18499 0.15106 0.0
H2366 H 0.81663 0.21385 0.11861 0.0
H2367 H 0.85677 0.11957 0.20392 0.0
H2368 H 0.77495 0.66636 0.17244 0.0
H2369 H 0.79938 0.67528 0.15589 0.0
H2370 H 0.79701 0.63592 0.18118 0.0
H2371 H 0.77268 0.62696 0.19783 0.0
H2372 H 0.82042 0.6595 0.20221 0.0
H2373 H 0.79682 0.64335 0.11313 0.0
H2374 H 0.78118 0.64219 0.07458 0.0
H2375 H 0.80757 0.68726 0.06112 0.0
H2376 H 0.82327 0.68872 0.09987 0.0
H2377 H 0.88333 0.66625 0.14768 0.0
H2378 H 0.85832 0.65837 0.15692 0.0
H2379 H 0.86404 0.69796 0.1238 0.0
H2380 H 0.88911 0.70578 0.11374 0.0
H2381 H 0.83922 0.67599 0.1067 0.0
H2382 H 0.86298 0.6926 0.19413 0.0
H2383 H 0.87874 0.69459 0.23312 0.0
H2384 H 0.85213 0.64996 0.25076 0.0
H2385 H 0.8363 0.64765 0.21161 0.0
C2386 C 0.77957 0.65953 0.17406 0.0
C2387 C 0.77195 0.646 0.18653 0.0
C2388 C 0.7935 0.66463 0.16455 0.0
C2389 C 0.79998 0.65625 0.16733 0.0
C2390 C 0.7922 0.64255 0.17893 0.0
C2391 C 0.77829 0.63744 0.18835 0.0
C2392 C 0.81517 0.66205 0.16003 0.0
C2393 C 0.8245 0.66293 0.18124 0.0
C2394 C 0.82054 0.66705 0.13294 0.0
C2395 C 0.81113 0.66617 0.1096 0.0
C2396 C 0.79922 0.65304 0.10212 0.0
C2397 C 0.79036 0.65232 0.0802 0.0
C2398 C 0.79336 0.66465 0.06546 0.0
C2399 C 0.80525 0.67772 0.07258 0.0
C2400 C 0.81414 0.67849 0.0945 0.0
C2401 C 0.87927 0.67328 0.14233 0.0
C2402 C 0.88818 0.68668 0.13022 0.0
C2403 C 0.86498 0.66878 0.14769 0.0
C2404 C 0.85938 0.67769 0.14152 0.0
C2405 C 0.86817 0.69095 0.12883 0.0
C2406 C 0.88248 0.69542 0.1232 0.0
C2407 C 0.84441 0.67314 0.14877 0.0
C2408 C 0.83514 0.67258 0.12767 0.0
C2409 C 0.83907 0.66857 0.17608 0.0
C2410 C 0.84852 0.66993 0.19978 0.0
C2411 C 0.86054 0.68318 0.2062 0.0
C2412 C 0.86948 0.68437 0.22835 0.0
C2413 C 0.86646 0.6724 0.24437 0.0
C2414 C 0.85446 0.65922 0.23832 0.0
C2415 C 0.8455 0.65797 0.21617 0.0
H2416 H 0.87339 0.67334 0.26151 0.0
H2417 H 0.78649 0.66407 0.0485 0.0
H2418 H 0.14384 0.36808 0.28916 0.0
H2419 H 0.15906 0.35821 0.30149 0.0
H2420 H 0.12358 0.32291 0.34296 0.0
H2421 H 0.10831 0.33283 0.33097 0.0
H2422 H 0.148 0.33365 0.37355 0.0
H2423 H 0.13362 0.31861 0.27912 0.0
H2424 H 0.1303 0.32161 0.22919 0.0
H2425 H 0.17554 0.34852 0.21917 0.0
H2426 H 0.17912 0.34596 0.26922 0.0
H2427 H 0.18384 0.29369 0.386 0.0
H2428 H 0.16612 0.30057 0.3739 0.0
H2429 H 0.19816 0.33673 0.32792 0.0
H2430 H 0.21579 0.3298 0.33949 0.0
H2431 H 0.17376 0.32353 0.29949 0.0
H2432 H 0.18822 0.34052 0.39349 0.0
H2433 H 0.19216 0.33824 0.44349 0.0
H2434 H 0.14752 0.3084 0.45418 0.0
H2435 H 0.14334 0.31035 0.40412 0.0
C2436 C 0.13929 0.35825 0.30099 0.0
C2437 C 0.12489 0.35119 0.30901 0.0
C2438 C 0.14798 0.35259 0.3079 0.0
C2439 C 0.14237 0.33973 0.32278 0.0
C2440 C 0.12808 0.33282 0.33137 0.0
C2441 C 0.11938 0.33848 0.32447 0.0
C2442 C 0.15147 0.3335 0.32929 0.0
C2443 C 0.15346 0.33121 0.35735 0.0
C2444 C 0.15877 0.33058 0.30812 0.0
C2445 C 0.15662 0.33218 0.278 0.0
C2446 C 0.14285 0.32528 0.26634 0.0
C2447 C 0.14092 0.32688 0.23798 0.0
C2448 C 0.1527 0.33524 0.221 0.0
C2449 C 0.16643 0.34205 0.23235 0.0
C2450 C 0.16841 0.34052 0.26071 0.0
C2451 C 0.18706 0.30305 0.3732 0.0
C2452 C 0.20118 0.31124 0.36374 0.0
C2453 C 0.17696 0.30701 0.36642 0.0
C2454 C 0.18088 0.31925 0.35027 0.0
C2455 C 0.19492 0.32725 0.3404 0.0
C2456 C 0.20498 0.32329 0.34709 0.0
C2457 C 0.17048 0.3239 0.34376 0.0
C2458 C 0.16822 0.32586 0.31568 0.0
C2459 C 0.16301 0.32661 0.36491 0.0
C2460 C 0.1655 0.32545 0.395 0.0
C2461 C 0.17926 0.33338 0.40646 0.0
C2462 C 0.18153 0.33216 0.43481 0.0
C2463 C 0.1701 0.32315 0.45198 0.0
C2464 C 0.15637 0.31535 0.44084 0.0
C2465 C 0.15404 0.31651 0.41248 0.0
H2466 H 0.17188 0.32222 0.47393 0.0
H2467 H 0.15122 0.33643 0.19903 0.0
H2468 H 0.70161 0.88919 0.39189 0.0
H2469 H 0.69271 0.8643 0.37869 0.0
H2470 H 0.65865 0.86421 0.33175 0.0
H2471 H 0.66742 0.88904 0.34501 0.0
H2472 H 0.64915 0.84041 0.36395 0.0
H2473 H 0.68661 0.8665 0.298 0.0
H2474 H 0.71095 0.88408 0.28279 0.0
H2475 H 0.72775 0.86142 0.32778 0.0
H2476 H 0.70351 0.84381 0.34361 0.0
H2477 H 0.62855 0.77618 0.28802 0.0
H2478 H 0.63664 0.80101 0.3007 0.0
H2479 H 0.67109 0.80253 0.34871 0.0
H2480 H 0.66315 0.77782 0.33602 0.0
H2481 H 0.6801 0.82569 0.31491 0.0
H2482 H 0.64254 0.79976 0.38133 0.0
H2483 H 0.61816 0.78221 0.39635 0.0
H2484 H 0.60147 0.80457 0.35003 0.0
H2485 H 0.62575 0.82216 0.3344 0.0
C2486 C 0.69224 0.88386 0.37874 0.0
C2487 C 0.68523 0.89104 0.36938 0.0
C2488 C 0.68719 0.86968 0.37116 0.0
C2489 C 0.6751 0.86249 0.35406 0.0
C2490 C 0.66801 0.8696 0.34495 0.0
C2491 C 0.67306 0.88378 0.35245 0.0
C2492 C 0.66983 0.84753 0.34573 0.0
C2493 C 0.65584 0.8372 0.35289 0.0
C2494 C 0.67868 0.84337 0.33176 0.0
C2495 C 0.69326 0.85392 0.32222 0.0
C2496 C 0.69551 0.86533 0.30485 0.0
C2497 C 0.70928 0.87529 0.29608 0.0
C2498 C 0.72089 0.87389 0.30438 0.0
C2499 C 0.71874 0.86251 0.32141 0.0
C2500 C 0.70499 0.85253 0.33026 0.0
C2501 C 0.63782 0.78181 0.30135 0.0
C2502 C 0.64522 0.77509 0.31107 0.0
C2503 C 0.64239 0.79595 0.30863 0.0
C2504 C 0.65441 0.80354 0.32576 0.0
C2505 C 0.66181 0.79684 0.33544 0.0
C2506 C 0.65723 0.78272 0.32826 0.0
C2507 C 0.65945 0.81855 0.33329 0.0
C2508 C 0.6734 0.8289 0.32594 0.0
C2509 C 0.65056 0.82273 0.34704 0.0
C2510 C 0.63595 0.81218 0.35645 0.0
C2511 C 0.63366 0.80087 0.37415 0.0
C2512 C 0.61986 0.79093 0.38281 0.0
C2513 C 0.60827 0.79225 0.37409 0.0
C2514 C 0.61046 0.80355 0.35673 0.0
C2515 C 0.62424 0.81351 0.34798 0.0
H2516 H 0.59759 0.78455 0.38082 0.0
H2517 H 0.73155 0.88161 0.29756 0.0
H2518 H 0.10668 0.81463 0.39034 0.0
H2519 H 0.13196 0.83073 0.37999 0.0
H2520 H 0.13537 0.79529 0.348 0.0
H2521 H 0.11021 0.77915 0.35852 0.0
H2522 H 0.15758 0.81221 0.38212 0.0
H2523 H 0.13301 0.81811 0.30387 0.0
H2524 H 0.11566 0.82324 0.28105 0.0
H2525 H 0.13641 0.86517 0.31719 0.0
H2526 H 0.15378 0.8602 0.34055 0.0
H2527 H 0.22108 0.84801 0.30161 0.0
H2528 H 0.19692 0.83303 0.31971 0.0
H2529 H 0.1962 0.8706 0.34743 0.0
H2530 H 0.22025 0.88563 0.32897 0.0
H2531 H 0.17285 0.85343 0.31832 0.0
H2532 H 0.19847 0.84809 0.39423 0.0
H2533 H 0.2159 0.84294 0.41662 0.0
H2534 H 0.19338 0.8001 0.38496 0.0
H2535 H 0.17592 0.80505 0.36202 0.0
C2536 C 0.11283 0.8103 0.38104 0.0
C2537 C 0.10649 0.79567 0.37511 0.0
C2538 C 0.12723 0.81949 0.37513 0.0
C2539 C 0.13548 0.81419 0.36309 0.0
C2540 C 0.12918 0.79957 0.35735 0.0
C2541 C 0.1148 0.79039 0.36323 0.0
C2542 C 0.15066 0.82386 0.3562 0.0
C2543 C 0.16094 0.82116 0.36798 0.0
C2544 C 0.155 0.83571 0.3383 0.0
C2545 C 0.1446 0.83873 0.3242 0.0
C2546 C 0.1338 0.82838 0.30714 0.0
C2547 C 0.12398 0.83127 0.29407 0.0
C2548 C 0.12491 0.84451 0.29773 0.0
C2549 C 0.13569 0.85491 0.31441 0.0
C2550 C 0.14553 0.85207 0.32755 0.0
C2551 C 0.21583 0.85305 0.31188 0.0
C2552 C 0.2225 0.86797 0.31383 0.0
C2553 C 0.20206 0.84449 0.3223 0.0
C2554 C 0.19481 0.85072 0.33506 0.0
C2555 C 0.20161 0.8656 0.33764 0.0
C2556 C 0.21535 0.87416 0.32715 0.0
C2557 C 0.17982 0.84176 0.34411 0.0
C2558 C 0.16955 0.84458 0.33268 0.0
C2559 C 0.1755 0.83002 0.36232 0.0
C2560 C 0.18595 0.82699 0.3762 0.0
C2561 C 0.1973 0.8376 0.39185 0.0
C2562 C 0.20717 0.83471 0.40468 0.0
C2563 C 0.20577 0.82121 0.40217 0.0
C2564 C 0.19446 0.81056 0.38687 0.0
C2565 C 0.18456 0.8134 0.37397 0.0
H2566 H 0.21343 0.819 0.41211 0.0
H2567 H 0.11729 0.84672 0.2876 0.0
H2568 H 0.66263 0.88185 0.82879 0.0
H2569 H 0.67102 0.86531 0.84017 0.0
H2570 H 0.63361 0.83093 0.80148 0.0
H2571 H 0.62509 0.84748 0.78995 0.0
H2572 H 0.64055 0.82355 0.8529 0.0
H2573 H 0.66334 0.84504 0.76643 0.0
H2574 H 0.6773 0.86495 0.73406 0.0
H2575 H 0.71333 0.88123 0.78925 0.0
H2576 H 0.69951 0.86153 0.8222 0.0
H2577 H 0.66784 0.77607 0.84942 0.0
H2578 H 0.65812 0.79112 0.83467 0.0
H2579 H 0.69515 0.82812 0.86811 0.0
H2580 H 0.70501 0.81315 0.88273 0.0
H2581 H 0.68761 0.83332 0.81697 0.0
H2582 H 0.66468 0.81269 0.90431 0.0
H2583 H 0.6508 0.79309 0.93737 0.0
H2584 H 0.61513 0.77546 0.88112 0.0
H2585 H 0.62889 0.79485 0.84752 0.0
C2586 C 0.65614 0.87075 0.82283 0.0
C2587 C 0.64324 0.86594 0.80837 0.0
C2588 C 0.66097 0.86135 0.82926 0.0
C2589 C 0.65301 0.84697 0.82134 0.0
C2590 C 0.63991 0.84202 0.80765 0.0
C2591 C 0.63508 0.85146 0.80106 0.0
C2592 C 0.65855 0.83724 0.82708 0.0
C2593 C 0.65072 0.82552 0.84469 0.0
C2594 C 0.67196 0.84005 0.81676 0.0
C2595 C 0.68034 0.85187 0.79691 0.0
C2596 C 0.6742 0.85292 0.77178 0.0
C2597 C 0.6821 0.86416 0.75331 0.0
C2598 C 0.69618 0.87437 0.75962 0.0
C2599 C 0.70241 0.87333 0.7844 0.0
C2600 C 0.69456 0.86212 0.80297 0.0
C2601 C 0.67395 0.78743 0.85349 0.0
C2602 C 0.68715 0.79345 0.86732 0.0
C2603 C 0.66836 0.79599 0.84515 0.0
C2604 C 0.67585 0.81069 0.85061 0.0
C2605 C 0.68921 0.81679 0.86376 0.0
C2606 C 0.6948 0.80823 0.87215 0.0
C2607 C 0.66967 0.81969 0.84302 0.0
C2608 C 0.67739 0.83128 0.82504 0.0
C2609 C 0.65618 0.81678 0.85306 0.0
C2610 C 0.64787 0.80513 0.87326 0.0
C2611 C 0.65392 0.80457 0.89888 0.0
C2612 C 0.64607 0.79351 0.91774 0.0
C2613 C 0.6321 0.78301 0.91131 0.0
C2614 C 0.62595 0.78358 0.88605 0.0
C2615 C 0.63377 0.79461 0.86709 0.0
H2616 H 0.62604 0.77446 0.92595 0.0
H2617 H 0.70228 0.88306 0.74529 0.0
H2618 H 0.14898 0.77211 0.79596 0.0
H2619 H 0.16488 0.79612 0.814 0.0
H2620 H 0.12952 0.79523 0.85741 0.0
H2621 H 0.11354 0.77134 0.83915 0.0
H2622 H 0.14367 0.81885 0.82684 0.0
H2623 H 0.15592 0.79366 0.89311 0.0
H2624 H 0.16354 0.77681 0.90876 0.0
H2625 H 0.20331 0.80104 0.8654 0.0
H2626 H 0.19584 0.81793 0.84914 0.0
H2627 H 0.18426 0.88407 0.89907 0.0
H2628 H 0.169 0.85864 0.88922 0.0
H2629 H 0.20313 0.8587 0.84257 0.0
H2630 H 0.21851 0.88412 0.85258 0.0
H2631 H 0.18947 0.83533 0.87666 0.0
H2632 H 0.17675 0.85969 0.80859 0.0
H2633 H 0.16919 0.87654 0.79257 0.0
H2634 H 0.13025 0.85366 0.83912 0.0
H2635 H 0.13767 0.83678 0.85575 0.0
C2636 C 0.14465 0.77696 0.8097 0.0
C2637 C 0.13003 0.7699 0.81606 0.0
C2638 C 0.15375 0.79064 0.82007 0.0
C2639 C 0.14838 0.79742 0.83713 0.0
C2640 C 0.13386 0.79019 0.84424 0.0
C2641 C 0.12477 0.77653 0.83385 0.0
C2642 C 0.15764 0.81244 0.84582 0.0
C2643 C 0.15356 0.82241 0.83818 0.0
C2644 C 0.17072 0.81712 0.85991 0.0
C2645 C 0.17526 0.80699 0.86969 0.0
C2646 C 0.16624 0.79533 0.88671 0.0
C2647 C 0.17054 0.78578 0.89573 0.0
C2648 C 0.18388 0.78783 0.88802 0.0
C2649 C 0.19297 0.79946 0.87133 0.0
C2650 C 0.18871 0.80903 0.86223 0.0
C2651 C 0.18851 0.87866 0.88674 0.0
C2652 C 0.20253 0.88608 0.87641 0.0
C2653 C 0.17979 0.86415 0.88112 0.0
C2654 C 0.18491 0.85685 0.86496 0.0
C2655 C 0.19899 0.86417 0.85509 0.0
C2656 C 0.20773 0.87868 0.8607 0.0
C2657 C 0.17545 0.84166 0.85773 0.0
C2658 C 0.17952 0.83171 0.86552 0.0
C2659 C 0.16235 0.83697 0.84373 0.0
C2660 C 0.15784 0.84706 0.83365 0.0
C2661 C 0.16663 0.85832 0.81559 0.0
C2662 C 0.16236 0.86786 0.80637 0.0
C2663 C 0.14927 0.86619 0.81489 0.0
C2664 C 0.1404 0.85495 0.83258 0.0
C2665 C 0.14462 0.84539 0.84189 0.0
H2666 H 0.14598 0.87359 0.80772 0.0
H2667 H 0.18719 0.78043 0.89503 0.0
H2668 H 0.10965 0.29533 0.87876 0.0
H2669 H 0.13426 0.3041 0.86385 0.0
H2670 H 0.13469 0.33972 0.82261 0.0
H2671 H 0.11004 0.33103 0.83748 0.0
H2672 H 0.14812 0.32721 0.79173 0.0
H2673 H 0.14879 0.34545 0.88368 0.0
H2674 H 0.14185 0.34356 0.93321 0.0
H2675 H 0.15912 0.31613 0.94883 0.0
H2676 H 0.16596 0.31767 0.89925 0.0
H2677 H 0.22372 0.37049 0.78191 0.0
H2678 H 0.19864 0.36214 0.79262 0.0
H2679 H 0.19643 0.3274 0.84074 0.0
H2680 H 0.22146 0.33572 0.83032 0.0
H2681 H 0.18383 0.34024 0.86749 0.0
H2682 H 0.18294 0.3215 0.77624 0.0
H2683 H 0.18961 0.32269 0.72666 0.0
H2684 H 0.1727 0.35029 0.70951 0.0
H2685 H 0.16612 0.34945 0.7591 0.0
C2686 C 0.11492 0.30494 0.86623 0.0
C2687 C 0.108 0.31258 0.85946 0.0
C2688 C 0.12896 0.30993 0.85779 0.0
C2689 C 0.13628 0.32262 0.84243 0.0
C2690 C 0.12919 0.32992 0.8345 0.0
C2691 C 0.11515 0.32497 0.84308 0.0
C2692 C 0.15159 0.3287 0.83617 0.0
C2693 C 0.15599 0.33026 0.80822 0.0
C2694 C 0.16174 0.3324 0.8578 0.0
C2695 C 0.15777 0.33157 0.88769 0.0
C2696 C 0.15101 0.33892 0.89763 0.0
C2697 C 0.14711 0.33793 0.92572 0.0
C2698 C 0.15001 0.3297 0.94414 0.0
C2699 C 0.15686 0.32248 0.93452 0.0
C2700 C 0.16076 0.32342 0.90643 0.0
C2701 C 0.2179 0.36112 0.79491 0.0
C2702 C 0.22451 0.35372 0.80525 0.0
C2703 C 0.20358 0.35633 0.80087 0.0
C2704 C 0.19567 0.34407 0.8172 0.0
C2705 C 0.20235 0.33687 0.82806 0.0
C2706 C 0.21664 0.34163 0.82205 0.0
C2707 C 0.18041 0.33867 0.823 0.0
C2708 C 0.176 0.33725 0.85093 0.0
C2709 C 0.17028 0.33504 0.80132 0.0
C2710 C 0.17418 0.33554 0.77146 0.0
C2711 C 0.18076 0.32793 0.76195 0.0
C2712 C 0.1845 0.32852 0.73384 0.0
C2713 C 0.18161 0.33659 0.71497 0.0
C2714 C 0.17495 0.34406 0.72416 0.0
C2715 C 0.1712 0.34352 0.75227 0.0
H2716 H 0.18451 0.33702 0.69321 0.0
H2717 H 0.14699 0.32895 0.96588 0.0
H2718 H 0.88522 0.6647 0.67197 0.0
H2719 H 0.86804 0.67177 0.65742 0.0
H2720 H 0.83394 0.63358 0.69451 0.0
H2721 H 0.8511 0.62631 0.70888 0.0
H2722 H 0.82618 0.64015 0.64417 0.0
H2723 H 0.84795 0.66388 0.73014 0.0
H2724 H 0.86803 0.67853 0.76173 0.0
H2725 H 0.88291 0.714 0.70539 0.0
H2726 H 0.86303 0.69948 0.67324 0.0
H2727 H 0.77623 0.66407 0.65788 0.0
H2728 H 0.79281 0.65555 0.66818 0.0
H2729 H 0.82698 0.69318 0.62964 0.0
H2730 H 0.81044 0.70179 0.61925 0.0
H2731 H 0.83453 0.68668 0.68047 0.0
H2732 H 0.81249 0.663 0.59483 0.0
H2733 H 0.79228 0.64841 0.56357 0.0
H2734 H 0.77771 0.61283 0.61954 0.0
H2735 H 0.79774 0.62731 0.65143 0.0
C2736 C 0.87404 0.65771 0.67675 0.0
C2737 C 0.86949 0.64502 0.6918 0.0
C2738 C 0.86426 0.66179 0.66849 0.0
C2739 C 0.84979 0.65331 0.67535 0.0
C2740 C 0.84509 0.64028 0.68914 0.0
C2741 C 0.85489 0.63616 0.69737 0.0
C2742 C 0.83975 0.65848 0.66941 0.0
C2743 C 0.82789 0.65023 0.65237 0.0
C2744 C 0.84217 0.67176 0.67975 0.0
C2745 C 0.85408 0.68055 0.69916 0.0
C2746 C 0.85556 0.67477 0.72439 0.0
C2747 C 0.8669 0.68305 0.74241 0.0
C2748 C 0.87676 0.69717 0.73554 0.0
C2749 C 0.87528 0.70305 0.71067 0.0
C2750 C 0.86397 0.69481 0.69255 0.0
C2751 C 0.78728 0.67055 0.65167 0.0
C2752 C 0.79206 0.68358 0.63772 0.0
C2753 C 0.79671 0.66564 0.65745 0.0
C2754 C 0.81106 0.67368 0.64939 0.0
C2755 C 0.81592 0.68682 0.63594 0.0
C2756 C 0.80647 0.69171 0.63 0.0
C2757 C 0.82099 0.66839 0.65514 0.0
C2758 C 0.83283 0.67661 0.67223 0.0
C2759 C 0.81852 0.65508 0.64489 0.0
C2760 C 0.80653 0.64629 0.62566 0.0
C2761 C 0.80491 0.6521 0.60059 0.0
C2762 C 0.79349 0.64384 0.58273 0.0
C2763 C 0.78369 0.6297 0.58958 0.0
C2764 C 0.78531 0.62379 0.61428 0.0
C2765 C 0.79669 0.63202 0.63225 0.0
H2766 H 0.77485 0.62331 0.57573 0.0
H2767 H 0.88553 0.70357 0.74952 0.0
H2768 H 0.32899 0.21369 0.66525 0.0
H2769 H 0.32097 0.18916 0.65116 0.0
H2770 H 0.35676 0.19069 0.694 0.0
H2771 H 0.36494 0.21538 0.70814 0.0
H2772 H 0.35156 0.17758 0.64161 0.0
H2773 H 0.32562 0.1748 0.72497 0.0
H2774 H 0.31052 0.18027 0.75514 0.0
H2775 H 0.27681 0.16193 0.69452 0.0
H2776 H 0.2918 0.15653 0.66378 0.0
H2777 H 0.3254 0.10339 0.6538 0.0
H2778 H 0.33432 0.12861 0.66344 0.0
H2779 H 0.29797 0.12609 0.62105 0.0
H2780 H 0.28893 0.10075 0.61132 0.0
H2781 H 0.30347 0.13983 0.67203 0.0
H2782 H 0.3291 0.14188 0.58921 0.0
H2783 H 0.3441 0.1362 0.55923 0.0
H2784 H 0.37829 0.1557 0.61863 0.0
H2785 H 0.36341 0.16132 0.6492 0.0
C2786 C 0.33521 0.20885 0.67156 0.0
C2787 C 0.34754 0.21639 0.68796 0.0
C2788 C 0.3306 0.19483 0.66353 0.0
C2789 C 0.3382 0.18811 0.67183 0.0
C2790 C 0.35076 0.19574 0.68747 0.0
C2791 C 0.35537 0.20978 0.69559 0.0
C2792 C 0.3327 0.17295 0.6649 0.0
C2793 C 0.34112 0.16928 0.64852 0.0
C2794 C 0.31895 0.16223 0.67344 0.0
C2795 C 0.30988 0.16539 0.69195 0.0
C2796 C 0.31503 0.17204 0.71797 0.0
C2797 C 0.30648 0.17511 0.73519 0.0
C2798 C 0.29273 0.17149 0.72672 0.0
C2799 C 0.28748 0.16475 0.70104 0.0
C2800 C 0.29599 0.16167 0.68372 0.0
C2801 C 0.3193 0.1082 0.64652 0.0
C2802 C 0.30648 0.10014 0.6318 0.0
C2803 C 0.32445 0.12261 0.65192 0.0
C2804 C 0.31687 0.1292 0.64269 0.0
C2805 C 0.30398 0.12116 0.62824 0.0
C2806 C 0.29885 0.10673 0.62268 0.0
C2807 C 0.32231 0.14443 0.64873 0.0
C2808 C 0.31388 0.14812 0.66501 0.0
C2809 C 0.33604 0.15514 0.64008 0.0
C2810 C 0.34508 0.1519 0.62163 0.0
C2811 C 0.33977 0.14486 0.596 0.0
C2812 C 0.34826 0.14166 0.57887 0.0
C2813 C 0.36212 0.14555 0.58705 0.0
C2814 C 0.36754 0.15268 0.61234 0.0
C2815 C 0.35909 0.15589 0.62956 0.0
H2816 H 0.36867 0.14305 0.57377 0.0
H2817 H 0.28613 0.17387 0.74009 0.0
H2818 H 0.88866 0.18281 0.63069 0.0
H2819 H 0.86401 0.16657 0.64498 0.0
H2820 H 0.86161 0.20185 0.68091 0.0
H2821 H 0.88628 0.21815 0.66686 0.0
H2822 H 0.84892 0.17788 0.71408 0.0
H2823 H 0.84811 0.1903 0.61798 0.0
H2824 H 0.8551 0.19299 0.56837 0.0
H2825 H 0.83906 0.14791 0.5623 0.0
H2826 H 0.83216 0.14499 0.61202 0.0
H2827 H 0.77341 0.14457 0.72252 0.0
H2828 H 0.79848 0.161 0.71118 0.0
H2829 H 0.80103 0.12685 0.67017 0.0
H2830 H 0.77596 0.11048 0.68093 0.0
H2831 H 0.81375 0.15057 0.63978 0.0
H2832 H 0.81463 0.13802 0.73573 0.0
H2833 H 0.80783 0.13524 0.78545 0.0
H2834 H 0.82381 0.18029 0.79195 0.0
H2835 H 0.83052 0.18331 0.74214 0.0
C2836 C 0.88293 0.18708 0.64191 0.0
C2837 C 0.88933 0.20174 0.64751 0.0
C2838 C 0.86885 0.17781 0.64996 0.0
C2839 C 0.86097 0.18307 0.66363 0.0
C2840 C 0.86753 0.19761 0.67029 0.0
C2841 C 0.88159 0.2069 0.6622 0.0
C2842 C 0.8457 0.17352 0.66999 0.0
C2843 C 0.84118 0.17202 0.69784 0.0
C2844 C 0.83571 0.16573 0.64877 0.0
C2845 C 0.83975 0.16745 0.6188 0.0
C2846 C 0.84617 0.18098 0.60613 0.0
C2847 C 0.85011 0.18254 0.57798 0.0
C2848 C 0.84756 0.17064 0.56221 0.0
C2849 C 0.84104 0.15713 0.57455 0.0
C2850 C 0.83711 0.15551 0.60271 0.0
C2851 C 0.77932 0.1406 0.71101 0.0
C2852 C 0.77276 0.12625 0.70266 0.0
C2853 C 0.79364 0.14997 0.70467 0.0
C2854 C 0.80165 0.14509 0.69014 0.0
C2855 C 0.79504 0.13082 0.68142 0.0
C2856 C 0.78073 0.12148 0.68763 0.0
C2857 C 0.81693 0.15482 0.68394 0.0
C2858 C 0.82147 0.1564 0.65607 0.0
C2859 C 0.82693 0.16265 0.70516 0.0
C2860 C 0.82294 0.16086 0.73514 0.0
C2861 C 0.81659 0.14732 0.74771 0.0
C2862 C 0.81277 0.1457 0.77592 0.0
C2863 C 0.81535 0.15758 0.79183 0.0
C2864 C 0.82179 0.1711 0.77959 0.0
C2865 C 0.82562 0.17277 0.75138 0.0
H2866 H 0.81238 0.15631 0.81367 0.0
H2867 H 0.85061 0.17187 0.54042 0.0
H2868 H 0.00066 0.44956 0.52608 0.0
H2869 H 0.99361 0.4672 0.51614 0.0
H2870 H 0.03473 0.50078 0.54406 0.0
H2871 H 0.04173 0.48296 0.55502 0.0
H2872 H 0.01397 0.50508 0.56289 0.0
H2873 H 0.0269 0.49499 0.47414 0.0
H2874 H 0.02704 0.47992 0.43566 0.0
H2875 H 0.98203 0.46259 0.42394 0.0
H2876 H 0.98158 0.47741 0.46261 0.0
H2877 H 0.00258 0.55843 0.49657 0.0
H2878 H 0.01176 0.54316 0.51305 0.0
H2879 H 0.97155 0.50581 0.49296 0.0
H2880 H 0.96235 0.52098 0.47623 0.0
H2881 H 0.99412 0.50522 0.4696 0.0
H2882 H 0.98153 0.51517 0.56026 0.0
H2883 H 0.98202 0.53076 0.59832 0.0
H2884 H 0.02743 0.54932 0.6053 0.0
H2885 H 0.02724 0.53398 0.567 0.0
C2886 C 0.00824 0.4607 0.53005 0.0
C2887 C 0.0218 0.46492 0.54108 0.0
C2888 C 0.00421 0.47078 0.52427 0.0
C2889 C 0.01374 0.48533 0.52883 0.0
C2890 C 0.02724 0.4896 0.54026 0.0
C2891 C 0.03124 0.47945 0.5464 0.0
C2892 C 0.00946 0.49596 0.52157 0.0
C2893 C 0.00985 0.5053 0.54235 0.0
C2894 C 0.00394 0.49611 0.49486 0.0
C2895 C 0.00419 0.48725 0.47141 0.0
C2896 C 0.01701 0.4879 0.46347 0.0
C2897 C 0.01715 0.47941 0.44161 0.0
C2898 C 0.00455 0.47029 0.4274 0.0
C2899 C 0.99179 0.46966 0.43497 0.0
C2900 C 0.99158 0.47812 0.45684 0.0
C2901 C 0.99562 0.54696 0.49612 0.0
C2902 C 0.98178 0.54087 0.48498 0.0
C2903 C 0.00087 0.53826 0.50561 0.0
C2904 C 0.99232 0.52337 0.5042 0.0
C2905 C 0.97831 0.51729 0.49413 0.0
C2906 C 0.97307 0.52597 0.48466 0.0
C2907 C -0.00172 0.51408 0.51109 0.0
C2908 C -0.00171 0.50505 0.49011 0.0
C2909 C 0.00428 0.51435 0.53748 0.0
C2910 C 0.00439 0.52353 0.56057 0.0
C2911 C 0.99164 0.52266 0.56975 0.0
C2912 C 0.99186 0.53144 0.5914 0.0
C2913 C 0.00475 0.54105 0.60417 0.0
C2914 C 0.01745 0.54189 0.59536 0.0
C2915 C 0.01729 0.53314 0.5737 0.0
H2916 H 0.0049 0.54783 0.62093 0.0
H2917 H 0.00468 0.46372 0.41049 0.0
H2918 H 0.54701 0.55265 0.50966 0.0
H2919 H 0.53087 0.52776 0.49742 0.0
H2920 H 0.49656 0.52899 0.54081 0.0
H2921 H 0.51278 0.55393 0.55358 0.0
H2922 H 0.49813 0.5057 0.55463 0.0
H2923 H 0.49739 0.52882 0.47005 0.0
H2924 H 0.50768 0.54508 0.42989 0.0
H2925 H 0.52778 0.52174 0.4018 0.0
H2926 H 0.51777 0.50545 0.44204 0.0
H2927 H 0.44244 0.44024 0.50084 0.0
H2928 H 0.45819 0.46516 0.51362 0.0
H2929 H 0.49329 0.46459 0.47216 0.0
H2930 H 0.4775 0.43963 0.45897 0.0
H2931 H 0.49096 0.48759 0.45735 0.0
H2932 H 0.49175 0.46458 0.54245 0.0
H2933 H 0.48125 0.44832 0.58255 0.0
H2934 H 0.46075 0.47146 0.60948 0.0
H2935 H 0.47097 0.48775 0.5693 0.0
C2936 C 0.536 0.54767 0.51642 0.0
C2937 C 0.53113 0.55521 0.53254 0.0
C2938 C 0.52678 0.53346 0.50932 0.0
C2939 C 0.5125 0.52659 0.51799 0.0
C2940 C 0.50756 0.53413 0.5339 0.0
C2941 C 0.5168 0.54836 0.54107 0.0
C2942 C 0.5029 0.51138 0.51125 0.0
C2943 C 0.49637 0.50175 0.53333 0.0
C2944 C 0.50093 0.50624 0.48351 0.0
C2945 C 0.50693 0.51599 0.45922 0.0
C2946 C 0.5041 0.52722 0.45544 0.0
C2947 C 0.50986 0.53643 0.43263 0.0
C2948 C 0.51841 0.53446 0.41334 0.0
C2949 C 0.52117 0.52326 0.41678 0.0
C2950 C 0.51544 0.51403 0.43957 0.0
C2951 C 0.45354 0.44538 0.49466 0.0
C2952 C 0.45877 0.43802 0.47893 0.0
C2953 C 0.46253 0.4596 0.50205 0.0
C2954 C 0.4769 0.46666 0.49398 0.0
C2955 C 0.48221 0.45929 0.47857 0.0
C2956 C 0.47321 0.44505 0.47117 0.0
C2957 C 0.48625 0.48191 0.50072 0.0
C2958 C 0.49272 0.49154 0.47864 0.0
C2959 C 0.48813 0.48705 0.52845 0.0
C2960 C 0.48202 0.4773 0.55271 0.0
C2961 C 0.48491 0.46613 0.55679 0.0
C2962 C 0.47903 0.45692 0.57956 0.0
C2963 C 0.47031 0.45883 0.59851 0.0
C2964 C 0.4675 0.46999 0.59477 0.0
C2965 C 0.47334 0.47922 0.57202 0.0
H2966 H 0.46577 0.45169 0.61613 0.0
H2967 H 0.52286 0.5416 0.3957 0.0
H2968 H 0.55223 0.03355 0.46215 0.0
H2969 H 0.52773 0.02476 0.47751 0.0
H2970 H 0.52746 0.98896 0.51773 0.0
H2971 H 0.5519 0.99753 0.50183 0.0
H2972 H 0.50415 0.98034 0.48729 0.0
H2973 H 0.52888 0.01661 0.55592 0.0
H2974 H 0.5459 0.04068 0.57334 0.0
H2975 H 0.52324 0.05783 0.52949 0.0
H2976 H 0.5062 0.03388 0.51148 0.0
H2977 H 0.43787 0.95767 0.55692 0.0
H2978 H 0.46297 0.96603 0.54649 0.0
H2979 H 0.46577 0.00178 0.50114 0.0
H2980 H 0.44075 0.99357 0.51172 0.0
H2981 H 0.48794 0.00992 0.53696 0.0
H2982 H 0.46399 0.97377 0.46666 0.0
H2983 H 0.44698 0.94965 0.44938 0.0
H2984 H 0.46828 0.93227 0.49712 0.0
H2985 H 0.48531 0.95627 0.51498 0.0
C2986 C 0.547 0.02389 0.47452 0.0
C2987 C 0.55395 0.01621 0.4808 0.0
C2988 C 0.53302 0.01891 0.48338 0.0
C2989 C 0.52582 0.00628 0.499 0.0
C2990 C 0.53283 -0.00127 0.50571 0.0
C2991 C 0.5468 0.00366 0.4967 0.0
C2992 C 0.51072 0.00059 0.50707 0.0
C2993 C 0.50064 0.98672 0.49861 0.0
C2994 C 0.50612 0.00903 0.52128 0.0
C2995 C 0.51633 0.02345 0.53216 0.0
C2996 C 0.52759 0.02553 0.54982 0.0
C2997 C 0.53723 0.03915 0.55983 0.0
C2998 C 0.53567 0.05078 0.55248 0.0
C2999 C 0.52444 0.04881 0.53515 0.0
C3000 C 0.51478 0.03521 0.52506 0.0
C3001 C 0.44382 0.96725 0.54456 0.0
C3002 C 0.43737 0.97496 0.53508 0.0
C3003 C 0.45813 0.972 0.53859 0.0
C3004 C 0.46618 0.98448 0.52294 0.0
C3005 C 0.45973 0.99213 0.5133 0.0
C3006 C 0.44543 0.9874 0.51925 0.0
C3007 C 0.48141 0.98975 0.51697 0.0
C3008 C 0.4915 0.00353 0.52584 0.0
C3009 C 0.48603 0.98122 0.5032 0.0
C3010 C 0.47583 0.96679 0.49238 0.0
C3011 C 0.46498 0.96479 0.47365 0.0
C3012 C 0.45535 0.95114 0.46372 0.0
C3013 C 0.45652 0.93943 0.47221 0.0
C3014 C 0.46737 0.94134 0.49059 0.0
C3015 C 0.47702 0.95497 0.50061 0.0
H3016 H 0.44906 0.92887 0.4645 0.0
H3017 H 0.54315 0.06132 0.56025 0.0
H3018 H 0.47725 0.03571 0.95362 0.0
H3019 H 0.4933 0.02663 0.96492 0.0
H3020 H 0.45956 0.99189 0.01101 0.0
H3021 H 0.4435 0.00097 1.00004 0.0
H3022 H 0.48501 0.00341 0.03827 0.0
H3023 H 0.46698 0.98637 0.94612 0.0
H3024 H 0.4618 0.98881 0.89693 0.0
H3025 H 0.50655 0.01567 0.88074 0.0
H3026 H 0.51199 0.01358 0.92996 0.0
H3027 H 0.51549 0.95915 0.04687 0.0
H3028 H 0.49903 0.96756 0.03434 0.0
H3029 H 0.53254 0.00248 0.98821 0.0
H3030 H 0.549 0.99407 1.00037 0.0
H3031 H 0.50701 0.99064 0.96078 0.0
H3032 H 0.525 0.00793 0.05298 0.0
H3033 H 0.5302 0.00566 0.10224 0.0
H3034 H 0.4855 0.97839 0.11831 0.0
H3035 H 0.48005 0.98032 0.06901 0.0
C3036 C 0.4733 0.02622 0.96638 0.0
C3037 C 0.45912 0.019 0.97584 0.0
C3038 C 0.48245 0.02102 0.9727 0.0
C3039 C 0.47752 0.00849 0.98845 0.0
C3040 C 0.46352 0.00155 0.99875 0.0
C3041 C 0.45438 0.00674 0.99243 0.0
C3042 C 0.48684 0.0024 0.99365 0.0
C3043 C 0.48969 0.00044 0.02135 0.0
C3044 C 0.49311 -0.00121 0.9715 0.0
C3045 C 0.48988 -7e-05 0.9418 0.0
C3046 C 0.47571 0.99288 0.93212 0.0
C3047 C 0.47273 0.99419 0.90423 0.0
C3048 C 0.48384 0.00242 0.88575 0.0
C3049 C 0.49795 0.00932 0.89509 0.0
C3050 C 0.50099 0.00807 0.92298 0.0
C3051 C 0.5193 0.96852 0.03378 0.0
C3052 C 0.53354 0.97603 0.02475 0.0
C3053 C 0.50991 0.97333 0.02675 0.0
C3054 C 0.51466 0.98575 0.01071 0.0
C3055 C 0.5287 0.9929 1.00067 0.0
C3056 C 0.53809 0.9881 0.0077 0.0
C3057 C 0.50518 0.99165 0.0054 0.0
C3058 C 0.50232 0.99358 0.97769 0.0
C3059 C 0.49889 0.99524 0.02754 0.0
C3060 C 0.50214 0.99415 0.05724 0.0
C3061 C 0.51629 0.00136 0.06697 0.0
C3062 C 0.51928 0.00015 0.0949 0.0
C3063 C 0.50819 0.99186 0.11338 0.0
C3064 C 0.49408 0.98479 0.10397 0.0
C3065 C 0.49104 0.98595 0.07604 0.0
H3066 H 0.51053 0.99093 0.135 0.0
H3067 H 0.4815 0.00343 0.86418 0.0
H3068 H 0.03355 0.55665 0.04191 0.0
H3069 H 0.02548 0.53208 0.0277 0.0
H3070 H 0.98894 0.52998 0.98694 0.0
H3071 H 0.99686 0.5545 1.00139 0.0
H3072 H 0.9814 0.50694 0.01907 0.0
H3073 H 0.0164 0.53251 0.94878 0.0
H3074 H 0.03999 0.55025 0.93041 0.0
H3075 H 0.05923 0.52927 0.97315 0.0
H3076 H 0.03578 0.51151 0.99213 0.0
H3077 H 0.9601 0.44115 0.94911 0.0
H3078 H 0.96816 0.46627 0.95875 0.0
H3079 H 0.00445 0.4701 1.00367 0.0
H3080 H 0.9965 0.44504 0.99405 0.0
H3081 H 0.01177 0.49237 0.96732 0.0
H3082 H 0.97688 0.46748 0.03905 0.0
H3083 H 0.95329 0.44979 0.0575 0.0
H3084 H 0.93382 0.46966 0.01165 0.0
H3085 H 0.95729 0.48735 0.99259 0.0
C3086 C 0.02386 0.55099 0.02974 0.0
C3087 C 0.01583 0.55747 0.02273 0.0
C3088 C 0.01929 0.53698 0.02156 0.0
C3089 C 0.00668 0.52926 0.00607 0.0
C3090 C -0.00129 0.53577 0.99887 0.0
C3091 C 0.00326 0.54977 0.00706 0.0
C3092 C 0.00154 0.51423 0.9983 0.0
C3093 C 0.98794 0.50377 0.00734 0.0
C3094 C 0.01022 0.51011 0.98354 0.0
C3095 C 0.02434 0.52075 0.97208 0.0
C3096 C 0.02568 0.53174 0.95445 0.0
C3097 C 0.03902 0.54179 0.94389 0.0
C3098 C 0.05111 0.54091 0.95066 0.0
C3099 C 0.04986 0.52995 0.96795 0.0
C3100 C 0.03654 0.51988 0.97859 0.0
C3101 C 0.96978 0.44735 0.96108 0.0
C3102 C 0.97766 0.44115 0.97092 0.0
C3103 C 0.97435 0.46167 0.9666 0.0
C3104 C 0.98685 0.46999 0.98204 0.0
C3105 C 0.99478 0.46385 0.99169 0.0
C3106 C 0.99019 0.44953 0.98629 0.0
C3107 C 0.99168 0.48512 0.98821 0.0
C3108 C 0.00521 0.49558 0.97889 0.0
C3109 C 0.98294 0.48925 1.00268 0.0
C3110 C 0.96882 0.47864 0.01415 0.0
C3111 C 0.96755 0.468 0.0327 0.0
C3112 C 0.95421 0.45799 0.04331 0.0
C3113 C 0.94206 0.45858 0.03569 0.0
C3114 C 0.94324 0.4692 0.0175 0.0
C3115 C 0.95656 0.47923 0.0068 0.0
H3116 H 0.93173 0.45082 0.04393 0.0
H3117 H 0.06143 0.5487 0.94247 0.0
H3118 H 0.44502 0.44793 0.03112 0.0
H3119 H 0.46993 0.46434 0.01918 0.0
H3120 H 0.46582 0.49978 0.04856 0.0
H3121 H 0.44079 0.48337 0.06058 0.0
H3122 H 0.47956 0.50495 0.99739 0.0
H3123 H 0.48286 0.48846 0.08792 0.0
H3124 H 0.47793 0.47052 0.12434 0.0
H3125 H 0.49808 0.45258 0.07466 0.0
H3126 H 0.50293 0.47028 0.03765 0.0
H3127 H 0.55417 0.55411 0.99438 0.0
H3128 H 0.52973 0.53929 0.01132 0.0
H3129 H 0.53011 0.50149 0.98408 0.0
H3130 H 0.55456 0.51624 0.96713 0.0
H3131 H 0.51842 0.49857 0.03675 0.0
H3132 H 0.51384 0.51421 0.94524 0.0
H3133 H 0.51844 0.53194 0.90847 0.0
H3134 H 0.50058 0.55145 0.96028 0.0
H3135 H 0.49607 0.53395 0.99755 0.0
C3136 C 0.44941 0.45921 0.03505 0.0
C3137 C 0.441 0.46439 0.04684 0.0
C3138 C 0.46365 0.46856 0.02832 0.0
C3139 C 0.46972 0.48323 0.03326 0.0
C3140 C 0.46131 0.48847 0.04468 0.0
C3141 C 0.44705 0.4791 0.05158 0.0
C3142 C 0.48485 0.49304 0.02624 0.0
C3143 C 0.4881 0.50373 0.00634 0.0
C3144 C 0.4959 0.49122 0.03758 0.0
C3145 C 0.49314 0.48063 0.05989 0.0
C3146 C 0.48615 0.48062 0.08465 0.0
C3147 C 0.48338 0.4705 0.10542 0.0
C3148 C 0.48766 0.46039 0.10181 0.0
C3149 C 0.49476 0.46041 0.07742 0.0
C3150 C 0.49753 0.47049 0.05654 0.0
C3151 C 0.54906 0.54264 0.99212 0.0
C3152 C 0.55622 0.53632 0.97934 0.0
C3153 C 0.53511 0.5342 1.00173 0.0
C3154 C 0.52811 0.51933 0.99871 0.0
C3155 C 0.53535 0.51297 0.98657 0.0
C3156 C 0.54928 0.5214 0.97682 0.0
C3157 C 0.51312 0.51039 0.00771 0.0
C3158 C 0.5099 0.49986 0.02797 0.0
C3159 C 0.5021 0.51236 0.99672 0.0
C3160 C 0.50477 0.52287 0.97431 0.0
C3161 C 0.51101 0.52236 0.9489 0.0
C3162 C 0.51358 0.53235 0.92794 0.0
C3163 C 0.50984 0.54284 0.93207 0.0
C3164 C 0.50349 0.54333 0.95713 0.0
C3165 C 0.50092 0.53337 0.97818 0.0
H3166 H 0.51183 0.55056 0.91582 0.0
H3167 H 0.4855 0.45256 0.11793 0.0
H3168 H 0.44244 0.05301 0.03878 0.0
H3169 H 0.43879 0.06634 0.07581 0.0
H3170 H 0.42556 0.08663 0.01467 0.0
H3171 H 0.42969 0.07356 0.97724 0.0
H3172 H 0.43932 0.10464 0.05827 0.0
H3173 H 0.40099 0.05672 0.04687 0.0
H3174 H 0.38988 0.0306 0.0427 0.0
H3175 H 0.40448 0.02852 0.125 0.0
H3176 H 0.41587 0.05468 0.12949 0.0
H3177 H 0.38725 0.11101 0.13946 0.0
H3178 H 0.40183 0.10696 0.10585 0.0
H3179 H 0.4169 0.09072 0.17178 0.0
H3180 H 0.40237 0.09492 0.20571 0.0
H3181 H 0.40411 0.0718 0.12759 0.0
H3182 H 0.44009 0.12066 0.13963 0.0
H3183 H 0.4497 0.14663 0.14208 0.0
H3184 H 0.43749 0.14682 0.05685 0.0
H3185 H 0.42762 0.1208 0.054 0.0
C3186 C 0.43912 0.0606 0.03314 0.0
C3187 C 0.43622 0.06217 0.00519 0.0
C3188 C 0.43698 0.06817 0.05434 0.0
C3189 C 0.43153 0.0772 0.04812 0.0
C3190 C 0.42969 0.07966 0.01999 0.0
C3191 C 0.43207 0.07221 0.99861 0.0
C3192 C 0.42636 0.08275 0.07106 0.0
C3193 C 0.43155 0.09747 0.07332 0.0
C3194 C 0.41632 0.07341 0.09093 0.0
C3195 C 0.40941 0.05767 0.08839 0.0
C3196 C 0.40192 0.0507 0.06399 0.0
C3197 C 0.39556 0.03589 0.06158 0.0
C3198 C 0.39651 0.02791 0.08354 0.0
C3199 C 0.40378 0.03472 0.10799 0.0
C3200 C 0.41018 0.04954 0.11048 0.0
C3201 C 0.39397 0.10694 0.14695 0.0
C3202 C 0.39365 0.10325 0.17519 0.0
C3203 C 0.40234 0.10467 0.12771 0.0
C3204 C 0.41047 0.09855 0.13628 0.0
C3205 C 0.41073 0.09551 0.16475 0.0
C3206 C 0.4025 0.09797 0.18413 0.0
C3207 C 0.41714 0.09372 0.11502 0.0
C3208 C 0.41208 0.07904 0.11287 0.0
C3209 C 0.42706 0.10309 0.09506 0.0
C3210 C 0.43301 0.11874 0.09668 0.0
C3211 C 0.43934 0.12621 0.12148 0.0
C3212 C 0.44486 0.14095 0.12292 0.0
C3213 C 0.44418 0.14837 0.09965 0.0
C3214 C 0.438 0.14106 0.07487 0.0
C3215 C 0.43246 0.12632 0.07331 0.0
H3216 H 0.44846 0.15978 0.10082 0.0
H3217 H 0.39158 0.01644 0.08164 0.0
H3218 H 0.89281 0.30616 0.19838 0.0
H3219 H 0.89624 0.32324 0.16127 0.0
H3220 H 0.88608 0.29054 0.09937 0.0
H3221 H 0.88319 0.27374 0.1362 0.0
H3222 H 0.91036 0.31235 0.08766 0.0
H3223 H 0.86473 0.30625 0.11197 0.0
H3224 H 0.84628 0.30553 0.14322 0.0
H3225 H 0.87385 0.34959 0.16431 0.0
H3226 H 0.89255 0.35053 0.13346 0.0
H3227 H 0.92114 0.35542 0.971 0.0
H3228 H 0.90665 0.33699 0.00527 0.0
H3229 H 0.92176 0.36874 0.0704 0.0
H3230 H 0.93622 0.38718 0.03632 0.0
H3231 H 0.89334 0.34703 0.07894 0.0
H3232 H 0.93942 0.35224 0.05886 0.0
H3233 H 0.95829 0.35315 0.02858 0.0
H3234 H 0.92973 0.31043 1.00056 0.0
H3235 H 0.91061 0.30936 0.03037 0.0
C3236 C 0.89085 0.30254 0.1769 0.0
C3237 C 0.88778 0.28867 0.1701 0.0
C3238 C 0.89283 0.31231 0.15565 0.0
C3239 C 0.89148 0.30823 0.12738 0.0
C3240 C 0.8873 0.29401 0.12092 0.0
C3241 C 0.88558 0.28439 0.142 0.0
C3242 C 0.89612 0.31899 0.10449 0.0
C3243 C 0.90635 0.31969 0.08548 0.0
C3244 C 0.89131 0.32895 0.10202 0.0
C3245 C 0.88009 0.32842 0.12058 0.0
C3246 C 0.8669 0.31576 0.12344 0.0
C3247 C 0.85639 0.31531 0.14105 0.0
C3248 C 0.8589 0.32749 0.15579 0.0
C3249 C 0.87192 0.34016 0.1529 0.0
C3250 C 0.88248 0.34065 0.13533 0.0
C3251 C 0.92101 0.35854 0.99244 0.0
C3252 C 0.92993 0.37272 1.00102 0.0
C3253 C 0.91278 0.34799 0.01203 0.0
C3254 C 0.91331 0.35146 0.04047 0.0
C3255 C 0.9212 0.36581 0.04861 0.0
C3256 C 0.9295 0.37634 0.02909 0.0
C3257 C 0.90729 0.34009 0.06209 0.0
C3258 C 0.89705 0.33944 0.08096 0.0
C3259 C 0.91207 0.33013 0.06459 0.0
C3260 C 0.92354 0.33078 0.04659 0.0
C3261 C 0.93713 0.3431 0.04604 0.0
C3262 C 0.94787 0.34363 0.029 0.0
C3263 C 0.9452 0.33187 0.01261 0.0
C3264 C 0.93177 0.31955 0.01323 0.0
C3265 C 0.92098 0.31897 0.03019 0.0
H3266 H 0.95353 0.33227 0.99951 0.0
H3267 H 0.85075 0.32713 0.16941 0.0
H3268 H 0.60813 0.54845 0.03525 0.0
H3269 H 0.62666 0.55387 0.06991 0.0
H3270 H 0.65747 0.56421 0.00403 0.0
H3271 H 0.63885 0.55882 0.96907 0.0
H3272 H 0.6472 0.54781 0.08599 0.0
H3273 H 0.68556 0.59639 0.02004 0.0
H3274 H 0.6843 0.61069 0.98117 0.0
H3275 H 0.64253 0.60106 0.00779 0.0
H3276 H 0.64365 0.58687 0.04699 0.0
H3277 H 0.70936 0.58863 0.1727 0.0
H3278 H 0.69303 0.57443 0.13485 0.0
H3279 H 0.6791 0.60534 0.12745 0.0
H3280 H 0.69579 0.61972 0.16385 0.0
H3281 H 0.68274 0.59939 0.07893 0.0
H3282 H 0.65879 0.57062 0.15953 0.0
H3283 H 0.65633 0.55649 0.2017 0.0
H3284 H 0.66413 0.52778 0.153 0.0
H3285 H 0.6668 0.54185 0.11057 0.0
C3286 C 0.61875 0.55139 0.0281 0.0
C3287 C 0.6221 0.55336 0.99949 0.0
C3288 C 0.62933 0.55443 0.04797 0.0
C3289 C 0.64351 0.55967 0.03963 0.0
C3290 C 0.64661 0.56028 0.01094 0.0
C3291 C 0.63595 0.55712 0.99096 0.0
C3292 C 0.65508 0.5667 0.06073 0.0
C3293 C 0.65514 0.55904 0.08432 0.0
C3294 C 0.66512 0.58146 0.05903 0.0
C3295 C 0.66464 0.59045 0.03619 0.0
C3296 C 0.67616 0.59741 0.01766 0.0
C3297 C 0.67546 0.60549 0.99557 0.0
C3298 C 0.66332 0.60676 0.99196 0.0
C3299 C 0.65191 0.60005 0.01056 0.0
C3300 C 0.65257 0.59199 0.0327 0.0
C3301 C 0.7027 0.59226 0.16305 0.0
C3302 C 0.70386 0.60528 0.17114 0.0
C3303 C 0.69335 0.58415 0.14144 0.0
C3304 C 0.68474 0.58875 0.12813 0.0
C3305 C 0.6857 0.60158 0.13695 0.0
C3306 C 0.6952 0.60977 0.15795 0.0
C3307 C 0.67488 0.58058 0.1047 0.0
C3308 C 0.67511 0.58808 0.08052 0.0
C3309 C 0.66473 0.56581 0.10652 0.0
C3310 C 0.66317 0.55738 0.13197 0.0
C3311 C 0.66009 0.56136 0.15787 0.0
C3312 C 0.65864 0.55335 0.1818 0.0
C3313 C 0.66012 0.54127 0.18005 0.0
C3314 C 0.66302 0.53715 0.15434 0.0
C3315 C 0.6645 0.54514 0.13034 0.0
H3316 H 0.65899 0.53508 0.1986 0.0
H3317 H 0.66274 0.61293 0.97478 0.0
H3318 H 0.09898 0.40987 0.30871 0.0
H3319 H 0.09533 0.42345 0.34557 0.0
H3320 H 0.11311 0.40716 0.40611 0.0
H3321 H 0.11634 0.39331 0.36958 0.0
H3322 H 0.08814 0.40184 0.42261 0.0
H3323 H 0.12948 0.44354 0.38794 0.0
H3324 H 0.1448 0.46099 0.35242 0.0
H3325 H 0.11203 0.47121 0.33507 0.0
H3326 H 0.09643 0.45368 0.37022 0.0
H3327 H 0.07619 0.43494 0.53722 0.0
H3328 H 0.09072 0.43148 0.50217 0.0
H3329 H 0.0707 0.44274 0.43691 0.0
H3330 H 0.0563 0.44631 0.47171 0.0
H3331 H 0.09895 0.45208 0.42473 0.0
H3332 H 0.05696 0.40886 0.45417 0.0
H3333 H 0.04097 0.39136 0.48896 0.0
H3334 H 0.07458 0.38375 0.51468 0.0
H3335 H 0.09085 0.40141 0.48034 0.0
C3336 C 0.10256 0.4096 0.32971 0.0
C3337 C 0.10791 0.40052 0.33631 0.0
C3338 C 0.10045 0.41735 0.35083 0.0
C3339 C 0.10389 0.41631 0.37877 0.0
C3340 C 0.11026 0.40808 0.38484 0.0
C3341 C 0.11218 0.40022 0.36389 0.0
C3342 C 0.09932 0.42228 0.40206 0.0
C3343 C 0.09082 0.41292 0.42331 0.0
C3344 C 0.10237 0.43662 0.40268 0.0
C3345 C 0.11174 0.4472 0.38157 0.0
C3346 C 0.12549 0.44943 0.3764 0.0
C3347 C 0.13424 0.45935 0.35636 0.0
C3348 C 0.12938 0.46718 0.34146 0.0
C3349 C 0.11577 0.46513 0.34661 0.0
C3350 C 0.10698 0.45521 0.36662 0.0
C3351 C 0.0752 0.43707 0.51549 0.0
C3352 C 0.065 0.44074 0.5072 0.0
C3353 C 0.08345 0.43504 0.49546 0.0
C3354 C 0.08163 0.43664 0.46685 0.0
C3355 C 0.07229 0.44143 0.45881 0.0
C3356 C 0.06401 0.4434 0.47876 0.0
C3357 C 0.08799 0.43165 0.44519 0.0
C3358 C 0.0966 0.4411 0.42417 0.0
C3359 C 0.085 0.41735 0.44457 0.0
C3360 C 0.07517 0.40657 0.46493 0.0
C3361 C 0.06097 0.40353 0.46738 0.0
C3362 C 0.05185 0.39358 0.48701 0.0
C3363 C 0.05677 0.38648 0.50408 0.0
C3364 C 0.0708 0.38928 0.50149 0.0
C3365 C 0.07997 0.39926 0.48195 0.0
H3366 H 0.04969 0.37878 0.51926 0.0
H3367 H 0.13616 0.47486 0.32595 0.0
H3368 H 0.56017 0.63959 0.53256 0.0
H3369 H 0.56446 0.65712 0.49579 0.0
H3370 H 0.55212 0.6243 0.43331 0.0
H3371 H 0.54807 0.60694 0.4697 0.0
H3372 H 0.57778 0.64604 0.42262 0.0
H3373 H 0.53221 0.64054 0.44613 0.0
H3374 H 0.51389 0.64013 0.47729 0.0
H3375 H 0.54198 0.68406 0.49853 0.0
H3376 H 0.56057 0.68469 0.46777 0.0
H3377 H 0.58964 0.68909 0.3055 0.0
H3378 H 0.57517 0.67065 0.33976 0.0
H3379 H 0.58898 0.70263 0.40432 0.0
H3380 H 0.60334 0.72108 0.37023 0.0
H3381 H 0.56121 0.68104 0.41297 0.0
H3382 H 0.60718 0.68606 0.39463 0.0
H3383 H 0.6264 0.68705 0.36538 0.0
H3384 H 0.5982 0.64439 0.3366 0.0
H3385 H 0.57875 0.64322 0.36547 0.0
C3386 C 0.55796 0.63607 0.51104 0.0
C3387 C 0.55388 0.62193 0.50398 0.0
C3388 C 0.56043 0.64609 0.49002 0.0
C3389 C 0.55869 0.64206 0.4617 0.0
C3390 C 0.55364 0.62771 0.45493 0.0
C3391 C 0.55129 0.61777 0.4758 0.0
C3392 C 0.56364 0.6529 0.43897 0.0
C3393 C 0.57389 0.65348 0.42023 0.0
C3394 C 0.55899 0.66296 0.43633 0.0
C3395 C 0.54784 0.66262 0.45484 0.0
C3396 C 0.53453 0.65008 0.45763 0.0
C3397 C 0.52409 0.64982 0.47518 0.0
C3398 C 0.52678 0.66205 0.48993 0.0
C3399 C 0.53992 0.67459 0.48711 0.0
C3400 C 0.55041 0.67491 0.4696 0.0
C3401 C 0.58924 0.69225 0.32679 0.0
C3402 C 0.59774 0.70652 0.33522 0.0
C3403 C 0.58103 0.68169 0.3464 0.0
C3404 C 0.5812 0.68523 0.37472 0.0
C3405 C 0.5887 0.69963 0.38264 0.0
C3406 C 0.59694 0.71017 0.36311 0.0
C3407 C 0.5751 0.67393 0.3965 0.0
C3408 C 0.56484 0.6734 0.41519 0.0
C3409 C 0.57981 0.66393 0.39937 0.0
C3410 C 0.59147 0.66461 0.38194 0.0
C3411 C 0.60504 0.67694 0.38187 0.0
C3412 C 0.61598 0.67753 0.3654 0.0
C3413 C 0.61351 0.66581 0.34907 0.0
C3414 C 0.60009 0.65347 0.34922 0.0
C3415 C 0.58911 0.65283 0.36564 0.0
H3416 H 0.622 0.66626 0.33637 0.0
H3417 H 0.51868 0.66182 0.50351 0.0
H3418 H 0.35695 0.9158 0.53283 0.0
H3419 H 0.33916 0.90025 0.49818 0.0
H3420 H 0.36318 0.93054 0.43335 0.0
H3421 H 0.38094 0.94569 0.46732 0.0
H3422 H 0.32214 0.90541 0.46978 0.0
H3423 H 0.35834 0.9169 0.37081 0.0
H3424 H 0.38143 0.91885 0.3592 0.0
H3425 H 0.37816 0.89376 0.43118 0.0
H3426 H 0.35495 0.89146 0.44303 0.0
H3427 H 0.29138 0.91389 0.35176 0.0
H3428 H 0.30719 0.91528 0.38905 0.0
H3429 H 0.30632 0.8775 0.3577 0.0
H3430 H 0.29047 0.87618 0.31942 0.0
H3431 H 0.33282 0.89702 0.37314 0.0
H3432 H 0.28804 0.87534 0.41719 0.0
H3433 H 0.26422 0.87131 0.42969 0.0
H3434 H 0.28328 0.91226 0.46974 0.0
H3435 H 0.30722 0.91665 0.45713 0.0
C3436 C 0.35858 0.91891 0.51105 0.0
C3437 C 0.37033 0.93199 0.50284 0.0
C3438 C 0.34839 0.91006 0.49127 0.0
C3439 C 0.34985 0.9141 0.46298 0.0
C3440 C 0.3619 0.92692 0.45479 0.0
C3441 C 0.37203 0.93569 0.4744 0.0
C3442 C 0.33821 0.90603 0.44236 0.0
C3443 C 0.32444 0.90338 0.44879 0.0
C3444 C 0.341 0.90287 0.41513 0.0
C3445 C 0.35489 0.90405 0.40786 0.0
C3446 C 0.36248 0.9117 0.38406 0.0
C3447 C 0.37561 0.91289 0.37746 0.0
C3448 C 0.38127 0.90645 0.39446 0.0
C3449 C 0.37379 0.89877 0.41807 0.0
C3450 C 0.36065 0.89754 0.42475 0.0
C3451 C 0.29449 0.90582 0.35268 0.0
C3452 C 0.28957 0.89485 0.3327 0.0
C3453 C 0.30349 0.90659 0.37421 0.0
C3454 C 0.30769 0.8963 0.37667 0.0
C3455 C 0.3031 0.88547 0.35639 0.0
C3456 C 0.29407 0.88473 0.33455 0.0
C3457 C 0.31714 0.89736 0.40025 0.0
C3458 C 0.33045 0.89869 0.39435 0.0
C3459 C 0.31383 0.89894 0.42818 0.0
C3460 C 0.29945 0.89633 0.43614 0.0
C3461 C 0.28716 0.88352 0.42855 0.0
C3462 C 0.27363 0.88117 0.43566 0.0
C3463 C 0.27224 0.89152 0.45049 0.0
C3464 C 0.28438 0.90424 0.45828 0.0
C3465 C 0.29794 0.90665 0.4512 0.0
H3466 H 0.26175 0.88968 0.45596 0.0
H3467 H 0.39144 0.9074 0.38933 0.0
H3468 H 0.58705 0.89322 0.80434 0.0
H3469 H 0.57294 0.89777 0.83862 0.0
H3470 H 0.59276 0.88726 0.90546 0.0
H3471 H 0.60686 0.88275 0.87143 0.0
H3472 H 0.56399 0.87905 0.91691 0.0
H3473 H 0.60791 0.92015 0.88581 0.0
H3474 H 0.6244 0.93621 0.84976 0.0
H3475 H 0.59263 0.94611 0.82205 0.0
H3476 H 0.57584 0.92987 0.8576 0.0
H3477 H 0.56534 0.92325 0.03012 0.0
H3478 H 0.56892 0.90912 0.99432 0.0
H3479 H 0.55501 0.92777 0.93084 0.0
H3480 H 0.55202 0.94224 0.9663 0.0
H3481 H 0.57878 0.93044 0.91574 0.0
H3482 H 0.53547 0.89113 0.95069 0.0
H3483 H 0.51898 0.87471 0.98629 0.0
H3484 H 0.54908 0.86132 0.00698 0.0
H3485 H 0.56584 0.87781 0.97175 0.0
C3486 C 0.58802 0.89141 0.82627 0.0
C3487 C 0.59815 0.88778 0.83525 0.0
C3488 C 0.58001 0.89406 0.84584 0.0
C3489 C 0.58196 0.89304 0.87461 0.0
C3490 C 0.59109 0.88812 0.8834 0.0
C3491 C 0.59918 0.8856 0.86391 0.0
C3492 C 0.57626 0.89905 0.89549 0.0
C3493 C 0.56719 0.89028 0.91677 0.0
C3494 C 0.58038 0.91368 0.89512 0.0
C3495 C 0.59057 0.92367 0.87413 0.0
C3496 C 0.60441 0.92568 0.87189 0.0
C3497 C 0.61381 0.93481 0.85156 0.0
C3498 C 0.60955 0.94215 0.83358 0.0
C3499 C 0.5959 0.94039 0.83595 0.0
C3500 C 0.58643 0.93122 0.85618 0.0
C3501 C 0.56272 0.92404 0.0086 0.0
C3502 C 0.55847 0.93387 1.00094 0.0
C3503 C 0.56474 0.91594 0.98811 0.0
C3504 C 0.56223 0.91734 0.95973 0.0
C3505 C 0.55713 0.92655 0.95247 0.0
C3506 C 0.55537 0.93478 0.97279 0.0
C3507 C 0.56625 0.91043 0.9373 0.0
C3508 C 0.57524 0.91913 0.91579 0.0
C3509 C 0.56202 0.89574 0.93755 0.0
C3510 C 0.55196 0.8858 0.95873 0.0
C3511 C 0.53862 0.88477 0.96298 0.0
C3512 C 0.52922 0.87543 0.98307 0.0
C3513 C 0.533 0.867 0.99893 0.0
C3514 C 0.54617 0.86787 0.99469 0.0
C3515 C 0.55562 0.87719 0.97464 0.0
H3516 H 0.5257 0.85978 0.01448 0.0
H3517 H 0.61684 0.94922 0.81786 0.0
H3518 H 0.04322 0.61521 0.96079 0.0
H3519 H 0.05925 0.63129 0.92561 0.0
H3520 H 0.09318 0.65015 0.98632 0.0
H3521 H 0.0768 0.63403 0.02241 0.0
H3522 H 0.09214 0.67039 0.95673 0.0
H3523 H 0.09471 0.62968 0.93198 0.0
H3524 H 0.08614 0.60427 0.92261 0.0
H3525 H 0.06139 0.60517 0.85343 0.0
H3526 H 0.06962 0.63052 0.86261 0.0
H3527 H 0.12507 0.71294 0.83375 0.0
H3528 H 0.12268 0.69576 0.8702 0.0
H3529 H 0.07846 0.66878 0.84786 0.0
H3530 H 0.08073 0.68597 0.81235 0.0
H3531 H 0.09314 0.65351 0.86085 0.0
H3532 H 0.08609 0.69225 0.8969 0.0
H3533 H 0.09472 0.71766 0.90664 0.0
H3534 H 0.12934 0.7202 0.95494 0.0
H3535 H 0.121 0.69483 0.94512 0.0
C3536 C 0.05412 0.62264 0.96678 0.0
C3537 C 0.05873 0.6233 0.99447 0.0
C3538 C 0.06336 0.6318 0.94646 0.0
C3539 C 0.07756 0.64178 0.95303 0.0
C3540 C 0.08231 0.64244 0.98065 0.0
C3541 C 0.07297 0.63322 1.00122 0.0
C3542 C 0.08681 0.65201 0.93111 0.0
C3543 C 0.09276 0.6667 0.936 0.0
C3544 C 0.0877 0.64729 0.90394 0.0
C3545 C 0.0828 0.63204 0.89804 0.0
C3546 C 0.08739 0.62445 0.91484 0.0
C3547 C 0.08259 0.61005 0.90956 0.0
C3548 C 0.07323 0.60311 0.88744 0.0
C3549 C 0.06866 0.61057 0.87053 0.0
C3550 C 0.07342 0.62497 0.87573 0.0
C3551 C 0.11501 0.70311 0.83615 0.0
C3552 C 0.10309 0.70066 0.82024 0.0
C3553 C 0.11362 0.69337 0.85702 0.0
C3554 C 0.10037 0.68101 0.86176 0.0
C3555 C 0.08879 0.67818 0.84448 0.0
C3556 C 0.09009 0.68799 0.8242 0.0
C3557 C 0.09779 0.67167 0.88636 0.0
C3558 C 0.09304 0.65717 0.88189 0.0
C3559 C 0.09815 0.67656 0.91392 0.0
C3560 C 0.10304 0.69173 0.91999 0.0
C3561 C 0.0956 0.69826 0.90941 0.0
C3562 C 0.10043 0.71265 0.91497 0.0
C3563 C 0.1126 0.72055 0.93132 0.0
C3564 C 0.11994 0.71408 0.94222 0.0
C3565 C 0.11517 0.6997 0.93666 0.0
H3566 H 0.11632 0.73169 0.9356 0.0
H3567 H 0.06951 0.59196 0.88341 0.0
H3568 H 0.29771 0.41481 0.81721 0.0
H3569 H 0.31433 0.43062 0.85327 0.0
H3570 H 0.30417 0.39387 0.90434 0.0
H3571 H 0.28729 0.37841 0.86962 0.0
H3572 H 0.30685 0.41299 0.93695 0.0
H3573 H 0.33518 0.41211 0.85856 0.0
H3574 H 0.34357 0.41635 0.80971 0.0
H3575 H 0.35721 0.46084 0.81844 0.0
H3576 H 0.34876 0.45681 0.86729 0.0
H3577 H 0.38325 0.43419 0.97492 0.0
H3578 H 0.36578 0.43102 0.93993 0.0
H3579 H 0.34638 0.44701 0.99749 0.0
H3580 H 0.3636 0.44944 0.03361 0.0
H3581 H 0.35751 0.44471 0.91119 0.0
H3582 H 0.31077 0.43066 0.98506 0.0
H3583 H 0.30299 0.42225 0.03326 0.0
H3584 H 0.32723 0.40072 0.03255 0.0
H3585 H 0.33502 0.40889 0.98428 0.0
C3586 C 0.29896 0.41021 0.83633 0.0
C3587 C 0.2912 0.39537 0.84052 0.0
C3588 C 0.3085 0.41922 0.85689 0.0
C3589 C 0.31067 0.41348 0.8816 0.0
C3590 C 0.30267 0.39868 0.88576 0.0
C3591 C 0.29303 0.38979 0.86567 0.0
C3592 C 0.32167 0.4224 0.90282 0.0
C3593 C 0.31791 0.42007 0.93123 0.0
C3594 C 0.33614 0.43171 0.89567 0.0
C3595 C 0.34116 0.43413 0.86636 0.0
C3596 C 0.33988 0.42277 0.84996 0.0
C3597 C 0.34466 0.42514 0.82231 0.0
C3598 C 0.35087 0.43884 0.81095 0.0
C3599 C 0.35236 0.45022 0.82725 0.0
C3600 C 0.34757 0.44791 0.8549 0.0
C3601 C 0.37538 0.4372 0.9802 0.0
C3602 C 0.37471 0.44189 0.00724 0.0
C3603 C 0.3654 0.43546 0.95996 0.0
C3604 C 0.35454 0.43854 0.96599 0.0
C3605 C 0.35443 0.44423 0.99242 0.0
C3606 C 0.36433 0.44571 0.01302 0.0
C3607 C 0.34282 0.43445 0.94521 0.0
C3608 C 0.34641 0.43791 0.91692 0.0
C3609 C 0.32827 0.42557 0.95238 0.0
C3610 C 0.32362 0.42056 0.9813 0.0
C3611 C 0.31442 0.42413 0.99523 0.0
C3612 C 0.31001 0.4194 0.02253 0.0
C3613 C 0.31466 0.41101 0.036 0.0
C3614 C 0.32368 0.40727 0.02214 0.0
C3615 C 0.3281 0.41195 0.99483 0.0
H3616 H 0.31124 0.40737 0.05714 0.0
H3617 H 0.35457 0.44066 0.78954 0.0
H3618 H 0.88769 0.58929 0.68813 0.0
H3619 H 0.89002 0.57491 0.65076 0.0
H3620 H 0.91833 0.61347 0.60599 0.0
H3621 H 0.91587 0.62763 0.64238 0.0
H3622 H 0.89983 0.59462 0.5711 0.0
H3623 H 0.9302 0.59445 0.6464 0.0
H3624 H 0.93471 0.58885 0.69395 0.0
H3625 H 0.90524 0.54437 0.68001 0.0
H3626 H 0.90045 0.54975 0.63245 0.0
H3627 H 0.95382 0.59164 0.49808 0.0
H3628 H 0.93906 0.59449 0.53303 0.0
H3629 H 0.90964 0.54917 0.5318 0.0
H3630 H 0.92436 0.54626 0.49587 0.0
H3631 H 0.92105 0.56399 0.58853 0.0
H3632 H 0.89597 0.56513 0.50756 0.0
H3633 H 0.89372 0.57212 0.45966 0.0
H3634 H 0.91505 0.61616 0.48423 0.0
H3635 H 0.91762 0.60947 0.53219 0.0
C3636 C 0.89436 0.59463 0.67024 0.0
C3637 C 0.90158 0.6096 0.66824 0.0
C3638 C 0.89571 0.58642 0.64894 0.0
C3639 C 0.90436 0.5931 0.62547 0.0
C3640 C 0.91149 0.60802 0.62365 0.0
C3641 C 0.91012 0.61614 0.64466 0.0
C3642 C 0.90645 0.58495 0.60265 0.0
C3643 C 0.90437 0.58783 0.57497 0.0
C3644 C 0.91196 0.57571 0.60754 0.0
C3645 C 0.91482 0.57251 0.63608 0.0
C3646 C 0.9246 0.58349 0.65358 0.0
C3647 C 0.92722 0.58036 0.6805 0.0
C3648 C 0.92022 0.56627 0.69004 0.0
C3649 C 0.91062 0.55528 0.67263 0.0
C3650 C 0.90795 0.55836 0.6457 0.0
C3651 C 0.94413 0.58227 0.50498 0.0
C3652 C 0.94022 0.56873 0.49423 0.0
C3653 C 0.93571 0.58392 0.52496 0.0
C3654 C 0.92328 0.57205 0.535 0.0
C3655 C 0.91921 0.55846 0.52426 0.0
C3656 C 0.92755 0.55682 0.50367 0.0
C3657 C 0.91502 0.57424 0.55723 0.0
C3658 C 0.91599 0.57031 0.58472 0.0
C3659 C 0.90866 0.58268 0.55224 0.0
C3660 C 0.90702 0.58678 0.52348 0.0
C3661 C 0.90026 0.57631 0.50272 0.0
C3662 C 0.89891 0.58022 0.47556 0.0
C3663 C 0.90425 0.59458 0.46891 0.0
C3664 C 0.91091 0.60505 0.48942 0.0
C3665 C 0.91229 0.6012 0.51661 0.0
H3666 H 0.9032 0.59758 0.44786 0.0
H3667 H 0.92227 0.56387 0.71088 0.0
H3668 H 0.40508 0.29849 0.69516 0.0
H3669 H 0.42 0.31711 0.66144 0.0
H3670 H 0.39837 0.28795 0.5936 0.0
H3671 H 0.38359 0.26937 0.62702 0.0
H3672 H 0.42652 0.30634 0.58083 0.0
H3673 H 0.38586 0.3085 0.6161 0.0
H3674 H 0.37072 0.30969 0.65326 0.0
H3675 H 0.40579 0.34939 0.68191 0.0
H3676 H 0.4212 0.34833 0.64508 0.0
H3677 H 0.42534 0.35103 0.47152 0.0
H3678 H 0.42159 0.33305 0.50675 0.0
H3679 H 0.4422 0.36621 0.5686 0.0
H3680 H 0.44562 0.38408 0.53375 0.0
H3681 H 0.41727 0.34674 0.58672 0.0
H3682 H 0.45696 0.34576 0.54485 0.0
H3683 H 0.47103 0.34378 0.50641 0.0
H3684 H 0.43698 0.30144 0.48836 0.0
H3685 H 0.42263 0.30324 0.52645 0.0
C3686 C 0.40385 0.29593 0.6731 0.0
C3687 C 0.39306 0.28254 0.6637 0.0
C3688 C 0.41232 0.30658 0.65385 0.0
C3689 C 0.41012 0.30398 0.62498 0.0
C3690 C 0.40024 0.29022 0.61572 0.0
C3691 C 0.39175 0.27962 0.63489 0.0
C3692 C 0.41654 0.31588 0.6045 0.0
C3693 C 0.42453 0.3152 0.58205 0.0
C3694 C 0.414 0.32747 0.60618 0.0
C3695 C 0.40472 0.32825 0.62807 0.0
C3696 C 0.39037 0.31743 0.63045 0.0
C3697 C 0.38174 0.31809 0.65143 0.0
C3698 C 0.3873 0.32958 0.67001 0.0
C3699 C 0.4015 0.34048 0.66755 0.0
C3700 C 0.41019 0.33986 0.64661 0.0
C3701 C 0.4294 0.35448 0.49245 0.0
C3702 C 0.43569 0.36894 0.49993 0.0
C3703 C 0.42727 0.3442 0.5126 0.0
C3704 C 0.43161 0.34825 0.54043 0.0
C3705 C 0.43869 0.36279 0.54737 0.0
C3706 C 0.44068 0.37301 0.52738 0.0
C3707 C 0.42741 0.33736 0.5629 0.0
C3708 C 0.41963 0.33812 0.58567 0.0
C3709 C 0.43005 0.32582 0.56126 0.0
C3710 C 0.43868 0.32469 0.53839 0.0
C3711 C 0.45243 0.33607 0.53255 0.0
C3712 C 0.46046 0.33497 0.51085 0.0
C3713 C 0.45489 0.3225 0.49492 0.0
C3714 C 0.44128 0.3111 0.5007 0.0
C3715 C 0.4332 0.31214 0.52238 0.0
H3716 H 0.46113 0.32167 0.47812 0.0
H3717 H 0.3806 0.33006 0.68626 0.0
H3718 H 0.62224 0.07645 0.49051 0.0
H3719 H 0.63889 0.09142 0.52742 0.0
H3720 H 0.63918 0.05448 0.56052 0.0
H3721 H 0.62235 0.03966 0.52502 0.0
H3722 H 0.63794 0.06831 0.60155 0.0
H3723 H 0.66673 0.08135 0.51714 0.0
H3724 H 0.67344 0.09091 0.46935 0.0
H3725 H 0.67799 0.13081 0.49634 0.0
H3726 H 0.67116 0.12141 0.54426 0.0
H3727 H 0.71679 0.10309 0.63371 0.0
H3728 H 0.69828 0.0992 0.60051 0.0
H3729 H 0.6736 0.10354 0.66661 0.0
H3730 H 0.69202 0.1068 0.70052 0.0
H3731 H 0.6848 0.11048 0.57906 0.0
H3732 H 0.63858 0.08011 0.6557 0.0
H3733 H 0.63363 0.06762 0.70101 0.0
H3734 H 0.66662 0.05751 0.68526 0.0
H3735 H 0.67163 0.06978 0.63975 0.0
C3736 C 0.62587 0.0716 0.50579 0.0
C3737 C 0.62094 0.05687 0.50492 0.0
C3738 C 0.6354 0.08014 0.52684 0.0
C3739 C 0.64036 0.07412 0.54691 0.0
C3740 C 0.63543 0.05943 0.54569 0.0
C3741 C 0.62582 0.05094 0.52518 0.0
C3742 C 0.65089 0.08278 0.56903 0.0
C3743 C 0.64811 0.07765 0.59662 0.0
C3744 C 0.66421 0.09499 0.56288 0.0
C3745 C 0.66825 0.10062 0.53413 0.0
C3746 C 0.66906 0.09212 0.51281 0.0
C3747 C 0.6729 0.09752 0.48572 0.0
C3748 C 0.67609 0.11145 0.47978 0.0
C3749 C 0.67548 0.12002 0.50095 0.0
C3750 C 0.67162 0.11466 0.52807 0.0
C3751 C 0.70755 0.10347 0.64124 0.0
C3752 C 0.70576 0.105 0.66988 0.0
C3753 C 0.69696 0.10133 0.62209 0.0
C3754 C 0.68434 0.10077 0.63099 0.0
C3755 C 0.68309 0.10361 0.65925 0.0
C3756 C 0.69366 0.10556 0.67862 0.0
C3757 C 0.6721 0.09552 0.61114 0.0
C3758 C 0.67448 0.10138 0.58412 0.0
C3759 C 0.65862 0.08355 0.61743 0.0
C3760 C 0.6556 0.07602 0.64458 0.0
C3761 C 0.64475 0.07519 0.66193 0.0
C3762 C 0.64193 0.06815 0.68762 0.0
C3763 C 0.64984 0.06183 0.69606 0.0
C3764 C 0.66054 0.06246 0.67875 0.0
C3765 C 0.66337 0.06945 0.65302 0.0
H3766 H 0.64766 0.05641 0.71597 0.0
H3767 H 0.67907 0.11561 0.4588 0.0
H3768 H 0.76243 0.73924 0.64294 0.0
H3769 H 0.75975 0.75334 0.68 0.0
H3770 H 0.77816 0.73711 0.73929 0.0
H3771 H 0.78039 0.72271 0.70258 0.0
H3772 H 0.75446 0.73331 0.75898 0.0
H3773 H 0.79506 0.77335 0.71846 0.0
H3774 H 0.80971 0.78974 0.68094 0.0
H3775 H 0.77738 0.80082 0.6656 0.0
H3776 H 0.76244 0.78434 0.70278 0.0
H3777 H 0.74668 0.77068 0.87178 0.0
H3778 H 0.76043 0.76637 0.83614 0.0
H3779 H 0.73746 0.77406 0.77129 0.0
H3780 H 0.7237 0.77824 0.80665 0.0
H3781 H 0.7662 0.78385 0.7569 0.0
H3782 H 0.72474 0.7416 0.79273 0.0
H3783 H 0.70994 0.72544 0.83042 0.0
H3784 H 0.74432 0.71864 0.85418 0.0
H3785 H 0.75942 0.735 0.81692 0.0
C3786 C 0.76627 0.73901 0.66371 0.0
C3787 C 0.77158 0.72985 0.66987 0.0
C3788 C 0.76474 0.74708 0.68495 0.0
C3789 C 0.76875 0.74633 0.7126 0.0
C3790 C 0.77489 0.73784 0.71826 0.0
C3791 C 0.77623 0.72966 0.69719 0.0
C3792 C 0.76521 0.75311 0.73608 0.0
C3793 C 0.75736 0.74446 0.75871 0.0
C3794 C 0.76862 0.76757 0.73564 0.0
C3795 C 0.77758 0.77751 0.71328 0.0
C3796 C 0.79102 0.77919 0.70695 0.0
C3797 C 0.79939 0.78852 0.68577 0.0
C3798 C 0.79446 0.7963 0.67086 0.0
C3799 C 0.78117 0.79478 0.67715 0.0
C3800 C 0.77276 0.78546 0.69831 0.0
C3801 C 0.74493 0.77192 0.84995 0.0
C3802 C 0.73407 0.77469 0.84195 0.0
C3803 C 0.75273 0.76939 0.8296 0.0
C3804 C 0.74984 0.76973 0.80104 0.0
C3805 C 0.73988 0.77374 0.79315 0.0
C3806 C 0.73199 0.77609 0.8134 0.0
C3807 C 0.75561 0.76405 0.77955 0.0
C3808 C 0.76366 0.77281 0.75726 0.0
C3809 C 0.75241 0.74968 0.78021 0.0
C3810 C 0.74327 0.73965 0.80228 0.0
C3811 C 0.72918 0.73674 0.80613 0.0
C3812 C 0.72073 0.72754 0.8274 0.0
C3813 C 0.7262 0.72105 0.84474 0.0
C3814 C 0.74011 0.72371 0.84077 0.0
C3815 C 0.74862 0.73294 0.81959 0.0
H3816 H 0.71965 0.71393 0.8612 0.0
H3817 H 0.80096 0.80351 0.65447 0.0
H3818 H 0.26229 0.04816 0.69509 0.0
H3819 H 0.2485 0.03149 0.73221 0.0
H3820 H 0.23584 0.99619 0.6756 0.0
H3821 H 0.24969 0.01289 0.63812 0.0
H3822 H 0.21424 0.99214 0.71704 0.0
H3823 H 0.26349 0.00461 0.71025 0.0
H3824 H 0.28933 0.02141 0.70635 0.0
H3825 H 0.28878 0.04039 0.78475 0.0
H3826 H 0.26285 0.02386 0.78883 0.0
H3827 H 0.20966 0.93775 0.80805 0.0
H3828 H 0.21273 0.95493 0.77188 0.0
H3829 H 0.22941 0.98864 0.83321 0.0
H3830 H 0.22641 0.97143 0.8696 0.0
H3831 H 0.24767 0.99437 0.79041 0.0
H3832 H 0.19824 0.97926 0.79941 0.0
H3833 H 0.17245 0.9621 0.80218 0.0
H3834 H 0.17323 0.94724 0.71943 0.0
H3835 H 0.19908 0.96417 0.7163 0.0
C3836 C 0.25624 0.03688 0.69024 0.0
C3837 C 0.25722 0.03182 0.66377 0.0
C3838 C 0.24836 0.02737 0.71152 0.0
C3839 C 0.24134 0.01261 0.70676 0.0
C3840 C 0.24119 0.00755 0.67968 0.0
C3841 C 0.24912 0.0171 0.6583 0.0
C3842 C 0.23607 0.00263 0.73082 0.0
C3843 C 0.22151 0.99252 0.73303 0.0
C3844 C 0.24558 0.00331 0.75184 0.0
C3845 C 0.2612 0.01311 0.74969 0.0
C3846 C 0.26885 0.01244 0.72654 0.0
C3847 C 0.28352 0.0219 0.72431 0.0
C3848 C 0.29068 0.03199 0.74526 0.0
C3849 C 0.28321 0.03259 0.76852 0.0
C3850 C 0.26853 0.02318 0.7708 0.0
C3851 C 0.21358 0.94875 0.81402 0.0
C3852 C 0.21785 0.95325 0.84166 0.0
C3853 C 0.2153 0.95857 0.79329 0.0
C3854 C 0.22132 0.9731 0.79978 0.0
C3855 C 0.22474 0.97748 0.82772 0.0
C3856 C 0.22293 0.96762 0.84854 0.0
C3857 C 0.22574 0.98382 0.77697 0.0
C3858 C 0.24027 0.99406 0.77478 0.0
C3859 C 0.21619 0.98312 0.75594 0.0
C3860 C 0.20064 0.97292 0.75772 0.0
C3861 C 0.19295 0.97225 0.78189 0.0
C3862 C 0.17831 0.96258 0.7835 0.0
C3863 C 0.17121 0.95356 0.76102 0.0
C3864 C 0.17874 0.95422 0.73684 0.0
C3865 C 0.19339 0.96387 0.73512 0.0
H3866 H 0.15988 0.94608 0.76231 0.0
H3867 H 0.30204 0.0393 0.7435 0.0
H3868 H 0.95118 0.24104 0.70121 0.0
H3869 H 0.96879 0.2438 0.73562 0.0
H3870 H 0.98191 0.22001 0.68314 0.0
H3871 H 0.96432 0.21754 0.64775 0.0
H3872 H 0.97369 0.22746 0.76723 0.0
H3873 H 0.01804 0.23361 0.69402 0.0
H3874 H 0.02576 0.23962 0.64495 0.0
H3875 H 0.00622 0.26566 0.64074 0.0
H3876 H -0.00148 0.25992 0.68983 0.0
H3877 H 0.03413 0.25252 0.85885 0.0
H3878 H 0.01672 0.23733 0.82322 0.0
H3879 H 0.02905 0.27441 0.77172 0.0
H3880 H 0.04649 0.28933 0.80632 0.0
H3881 H 0.02463 0.25357 0.73949 0.0
H3882 H -0.00079 0.25982 0.81764 0.0
H3883 H 0.99146 0.25731 0.86679 0.0
H3884 H 0.97301 0.21185 0.86119 0.0
H3885 H 0.9808 0.21414 0.81206 0.0
C3886 C 0.95772 0.23628 0.69691 0.0
C3887 C 0.95643 0.22918 0.67156 0.0
C3888 C 0.96776 0.23779 0.71681 0.0
C3889 C 0.97678 0.23219 0.71207 0.0
C3890 C 0.97518 0.22457 0.6872 0.0
C3891 C 0.96512 0.22313 0.66702 0.0
C3892 C 0.98837 0.23541 0.7326 0.0
C3893 C 0.98484 0.23295 0.7611 0.0
C3894 C 0.00293 0.24259 0.72482 0.0
C3895 C 0.00755 0.24617 0.69539 0.0
C3896 C 0.01541 0.24062 0.68258 0.0
C3897 C 0.01978 0.24398 0.65479 0.0
C3898 C 0.01643 0.25296 0.6397 0.0
C3899 C 0.00875 0.25866 0.6524 0.0
C3900 C 0.00438 0.25535 0.68019 0.0
C3901 C 0.0332 0.25734 0.83973 0.0
C3902 C 0.04162 0.27214 0.83552 0.0
C3903 C 0.02324 0.24867 0.81942 0.0
C3904 C 0.02146 0.25472 0.79477 0.0
C3905 C 0.03023 0.26942 0.79035 0.0
C3906 C 0.04017 0.27799 0.81036 0.0
C3907 C 0.00995 0.24628 0.77414 0.0
C3908 C 0.01349 0.24764 0.74562 0.0
C3909 C 0.99539 0.23853 0.78191 0.0
C3910 C 0.99074 0.23716 0.81138 0.0
C3911 C 0.99358 0.2493 0.82698 0.0
C3912 C 0.98917 0.24792 0.8548 0.0
C3913 C 0.98179 0.23443 0.86714 0.0
C3914 C 0.97877 0.2223 0.85164 0.0
C3915 C 0.98317 0.22363 0.82382 0.0
H3916 H 0.97838 0.23338 0.88868 0.0
H3917 H 0.01982 0.25555 0.61819 0.0
H3918 H 0.2695 0.21535 0.19589 0.0
H3919 H 0.25604 0.21989 0.23134 0.0
H3920 H 0.24071 0.23737 0.16829 0.0
H3921 H 0.25422 0.23285 0.13263 0.0
H3922 H 0.25458 0.25604 0.21042 0.0
H3923 H 0.21762 0.20723 0.20336 0.0
H3924 H 0.20747 0.18116 0.20247 0.0
H3925 H 0.22235 0.18229 0.28605 0.0
H3926 H 0.23278 0.20842 0.28732 0.0
H3927 H 0.21793 0.27633 0.30038 0.0
H3928 H 0.22092 0.26214 0.26432 0.0
H3929 H 0.23706 0.24472 0.32585 0.0
H3930 H 0.23379 0.2588 0.3624 0.0
H3931 H 0.22134 0.22492 0.2841 0.0
H3932 H 0.26004 0.27294 0.2904 0.0
H3933 H 0.27142 0.29914 0.29244 0.0
H3934 H 0.25489 0.29954 0.21115 0.0
H3935 H 0.2432 0.27329 0.20883 0.0
C3936 C 0.2629 0.21975 0.18941 0.0
C3937 C 0.26297 0.22381 0.16148 0.0
C3938 C 0.25518 0.22231 0.20973 0.0
C3939 C 0.24737 0.229 0.20253 0.0
C3940 C 0.24666 0.23219 0.17432 0.0
C3941 C 0.25431 0.22952 0.15392 0.0
C3942 C 0.2417 0.23441 0.22478 0.0
C3943 C 0.24705 0.24917 0.22613 0.0
C3944 C 0.23237 0.22553 0.24602 0.0
C3945 C 0.22609 0.20981 0.24534 0.0
C3946 C 0.21884 0.20195 0.22147 0.0
C3947 C 0.21301 0.18715 0.22092 0.0
C3948 C 0.21429 0.18008 0.24416 0.0
C3949 C 0.22138 0.18779 0.26805 0.0
C3950 C 0.22723 0.20259 0.26871 0.0
C3951 C 0.22179 0.26922 0.3064 0.0
C3952 C 0.22577 0.26878 0.33415 0.0
C3953 C 0.22352 0.26113 0.28574 0.0
C3954 C 0.22952 0.25261 0.29225 0.0
C3955 C 0.23247 0.25127 0.32033 0.0
C3956 C 0.23059 0.2593 0.34119 0.0
C3957 C 0.23409 0.24649 0.26936 0.0
C3958 C 0.22869 0.23171 0.26809 0.0
C3959 C 0.24357 0.25534 0.24828 0.0
C3960 C 0.25061 0.27113 0.24958 0.0
C3961 C 0.25872 0.2786 0.27306 0.0
C3962 C 0.26525 0.29346 0.27425 0.0
C3963 C 0.26385 0.301 0.25197 0.0
C3964 C 0.25594 0.29368 0.22842 0.0
C3965 C 0.24937 0.27881 0.22715 0.0
H3966 H 0.26892 0.3125 0.25292 0.0
H3967 H 0.20977 0.16862 0.24369 0.0
H3968 H 0.77844 0.05477 0.20571 0.0
H3969 H 0.77546 0.0369 0.24014 0.0
H3970 H 0.76207 0.00518 0.17511 0.0
H3971 H 0.76501 0.02314 0.14036 0.0
H3972 H 0.74292 0.99684 0.21743 0.0
H3973 H 0.79326 0.01591 0.21029 0.0
H3974 H 0.81857 0.03472 0.20941 0.0
H3975 H 0.81517 0.04671 0.2933 0.0
H3976 H 0.78977 0.0281 0.29457 0.0
H3977 H 0.72978 0.94259 0.31061 0.0
H3978 H 0.74307 0.95976 0.2738 0.0
H3979 H 0.7556 0.99434 0.33221 0.0
H3980 H 0.74239 0.97714 0.36937 0.0
H3981 H 0.77664 0.0002 0.29126 0.0
H3982 H 0.72661 0.98429 0.29679 0.0
H3983 H 0.70104 0.9663 0.29929 0.0
H3984 H 0.70365 0.94966 0.21946 0.0
H3985 H 0.72933 0.96742 0.21674 0.0
C3986 C 0.77519 0.04407 0.19859 0.0
C3987 C 0.77192 0.04035 0.17032 0.0
C3988 C 0.77355 0.03386 0.21833 0.0
C3989 C 0.76859 0.01969 0.21026 0.0
C3990 C 0.76595 0.01607 0.18181 0.0
C3991 C 0.76771 0.02634 0.16195 0.0
C3992 C 0.76466 0.00847 0.23192 0.0
C3993 C 0.75041 0.9974 0.23312 0.0
C3994 C 0.77427 0.00947 0.25309 0.0
C3995 C 0.78957 0.02066 0.25244 0.0
C3996 C 0.79787 0.02262 0.22848 0.0
C3997 C 0.81225 0.03324 0.22793 0.0
C3998 C 0.81847 0.04192 0.25126 0.0
C3999 C 0.81034 0.03998 0.27523 0.0
C4000 C 0.79595 0.02938 0.2759 0.0
C4001 C 0.73574 0.95383 0.31587 0.0
C4002 C 0.73491 0.95853 0.34281 0.0
C4003 C 0.7433 0.96363 0.29477 0.0
C4004 C 0.75007 0.97834 0.30012 0.0
C4005 C 0.75041 0.98304 0.32761 0.0
C4006 C 0.74287 0.97319 0.34885 0.0
C4007 C 0.75499 0.98863 0.2765 0.0
C4008 C 0.76929 -0.00046 0.27516 0.0
C4009 C 0.7454 0.98765 0.25532 0.0
C4010 C 0.72993 0.97707 0.25671 0.0
C4011 C 0.72176 0.97672 0.27987 0.0
C4012 C 0.70725 0.96658 0.28132 0.0
C4013 C 0.70074 0.95682 0.25958 0.0
C4014 C 0.70872 0.95721 0.23631 0.0
C4015 C 0.72326 0.96732 0.2348 0.0
H4016 H 0.6895 0.94897 0.26072 0.0
H4017 H 0.8296 0.05014 0.25079 0.0
H4018 H 0.05178 0.78209 0.31036 0.0
H4019 H 0.03402 0.77793 0.27478 0.0
H4020 H 0.00086 0.7602 0.33718 0.0
H4021 H 0.01867 0.76411 0.37297 0.0
H4022 H 0.9944 0.74248 0.29459 0.0
H4023 H 0.01029 0.7922 0.30292 0.0
H4024 H 0.02781 0.81793 0.30486 0.0
H4025 H 0.04163 0.81628 0.22161 0.0
H4026 H 0.02433 0.7905 0.21929 0.0
H4027 H 0.93995 0.72767 0.20006 0.0
H4028 H 0.95671 0.74088 0.23752 0.0
H4029 H 0.9918 0.75519 0.17978 0.0
H4030 H 0.975 0.74204 0.14196 0.0
H4031 H 0.99633 0.77579 0.22128 0.0
H4032 H 0.98283 0.72629 0.21473 0.0
H4033 H 0.96567 0.7005 0.21165 0.0
H4034 H 0.94814 0.70182 0.29131 0.0
H4035 H 0.96504 0.7277 0.2946 0.0
C4036 C 0.04075 0.77761 0.31669 0.0
C4037 C 0.03663 0.77339 0.34451 0.0
C4038 C 0.03059 0.77529 0.29627 0.0
C4039 C 0.01607 0.7688 0.30322 0.0
C4040 C 0.012 0.76523 0.33129 0.0
C4041 C 0.02219 0.76755 0.35177 0.0
C4042 C 0.0051 0.76435 0.28078 0.0
C4043 C 0.99466 0.74987 0.27899 0.0
C4044 C 0.00568 0.77385 0.25975 0.0
C4045 C 0.01607 0.78938 0.26102 0.0
C4046 C 0.01713 0.7973 0.2851 0.0
C4047 C 0.02702 0.8119 0.28625 0.0
C4048 C 0.03585 0.81873 0.26339 0.0
C4049 C 0.03479 0.81097 0.2393 0.0
C4050 C 0.02493 0.79637 0.23804 0.0
C4051 C 0.9512 0.73395 0.19511 0.0
C4052 C 0.95617 0.73369 0.16811 0.0
C4053 C 0.96078 0.74147 0.21659 0.0
C4054 C 0.97552 0.74879 0.21157 0.0
C4055 C 0.98046 0.74958 0.18413 0.0
C4056 C 0.97085 0.74207 0.16253 0.0
C4057 C 0.98569 0.75402 0.23542 0.0
C4058 C 0.996 0.76853 0.23726 0.0
C4059 C 0.98511 0.74456 0.25647 0.0
C4060 C 0.97509 0.72896 0.25477 0.0
C4061 C 0.97524 0.7211 0.2315 0.0
C4062 C 0.96557 0.70647 0.22972 0.0
C4063 C 0.9558 0.69953 0.25125 0.0
C4064 C 0.9557 0.70721 0.27463 0.0
C4065 C 0.96533 0.72186 0.27646 0.0
H4066 H 0.94832 0.6882 0.24984 0.0
H4067 H 0.0435 0.83003 0.26433 0.0
loop_
_geom_bond_atom_site_label_1
_geom_bond_atom_site_label_2
_geom_bond_distance
_geom_bond_site_symmetry_2
_ccdc_geom_bond_type
In0 O1 2.294 . S
In0 O2 2.326 . S
In0 O6 2.266 . S
In0 O7 2.326 . S
In0 O8 2.266 . S
In0 O9 2.326 . S
In0 O11 2.294 . S
In0 O12 2.326 . S
O1 In0 2.294 . S
O1 C10 1.240 . S
O2 In0 2.326 . S
O2 C10 1.252 . S
C3 O6 1.252 . S
C3 O7 1.260 . S
C4 O11 1.240 . S
C4 O12 1.252 . S
C5 O8 1.252 . S
C5 O9 1.260 . S
O6 In0 2.266 . S
O6 C3 1.252 . S
O7 In0 2.326 . S
O7 C3 1.260 . S
O8 In0 2.266 . S
O8 C5 1.252 . S
O9 In0 2.326 . S
O9 C5 1.260 . S
C10 O1 1.240 . S
C10 O2 1.252 . S
O11 In0 2.294 . S
O11 C4 1.240 . S
O12 In0 2.326 . S
O12 C4 1.252 . S
In13 O14 2.294 . S
In13 O15 2.326 . S
In13 O19 2.266 . S
In13 O20 2.326 . S
In13 O21 2.266 . S
In13 O22 2.326 . S
In13 O24 2.294 . S
In13 O25 2.326 . S
O14 In13 2.294 . S
O14 C23 1.240 . S
O15 In13 2.326 . S
O15 C23 1.252 . S
C16 O19 1.252 . S
C16 O20 1.260 . S
C17 O24 1.240 . S
C17 O25 1.252 . S
C18 O21 1.252 . S
C18 O22 1.260 . S
O19 In13 2.266 . S
O19 C16 1.252 . S
O20 In13 2.326 . S
O20 C16 1.260 . S
O21 In13 2.266 . S
O21 C18 1.252 . S
O22 In13 2.326 . S
O22 C18 1.260 . S
C23 O14 1.240 . S
C23 O15 1.252 . S
O24 In13 2.294 . S
O24 C17 1.240 . S
O25 In13 2.326 . S
O25 C17 1.252 . S
In26 O27 2.294 . S
In26 O28 2.326 . S
In26 O32 2.266 . S
In26 O33 2.326 . S
In26 O34 2.266 . S
In26 O35 2.326 . S
In26 O37 2.294 . S
In26 O38 2.326 . S
O27 In26 2.294 . S
O27 C36 1.240 . S
O28 In26 2.326 . S
O28 C36 1.252 . S
C29 O32 1.252 . S
C29 O33 1.260 . S
C30 O37 1.240 . S
C30 O38 1.252 . S
C31 O34 1.252 . S
C31 O35 1.260 . S
O32 In26 2.266 . S
O32 C29 1.252 . S
O33 In26 2.326 . S
O33 C29 1.260 . S
O34 In26 2.266 . S
O34 C31 1.252 . S
O35 In26 2.326 . S
O35 C31 1.260 . S
C36 O27 1.240 . S
C36 O28 1.252 . S
O37 In26 2.294 . S
O37 C30 1.240 . S
O38 In26 2.326 . S
O38 C30 1.252 . S
In39 O40 2.294 . S
In39 O41 2.326 . S
In39 O45 2.266 . S
In39 O46 2.326 . S
In39 O47 2.266 . S
In39 O48 2.326 . S
In39 O50 2.294 . S
In39 O51 2.326 . S
O40 In39 2.294 . S
O40 C49 1.240 . S
O41 In39 2.326 . S
O41 C49 1.252 . S
C42 O45 1.252 . S
C42 O46 1.260 . S
C43 O50 1.240 . S
C43 O51 1.252 . S
C44 O47 1.252 . S
C44 O48 1.260 . S
O45 In39 2.266 . S
O45 C42 1.252 . S
O46 In39 2.326 . S
O46 C42 1.260 . S
O47 In39 2.266 . S
O47 C44 1.252 . S
O48 In39 2.326 . S
O48 C44 1.260 . S
C49 O40 1.240 . S
C49 O41 1.252 . S
O50 In39 2.294 . S
O50 C43 1.240 . S
O51 In39 2.326 . S
O51 C43 1.252 . S
In52 O53 2.294 . S
In52 O54 2.326 . S
In52 O58 2.266 . S
In52 O59 2.326 . S
In52 O60 2.266 . S
In52 O61 2.326 . S
In52 O63 2.294 . S
In52 O64 2.326 . S
O53 In52 2.294 . S
O53 C62 1.240 . S
O54 In52 2.326 . S
O54 C62 1.252 . S
C55 O58 1.252 . S
C55 O59 1.260 . S
C56 O63 1.240 . S
C56 O64 1.252 . S
C57 O60 1.252 . S
C57 O61 1.260 . S
O58 In52 2.266 . S
O58 C55 1.252 . S
O59 In52 2.326 . S
O59 C55 1.260 . S
O60 In52 2.266 . S
O60 C57 1.252 . S
O61 In52 2.326 . S
O61 C57 1.260 . S
C62 O53 1.240 . S
C62 O54 1.252 . S
O63 In52 2.294 . S
O63 C56 1.240 . S
O64 In52 2.326 . S
O64 C56 1.252 . S
In65 O66 2.294 . S
In65 O67 2.326 . S
In65 O71 2.266 . S
In65 O72 2.326 . S
In65 O73 2.266 . S
In65 O74 2.326 . S
In65 O76 2.294 . S
In65 O77 2.326 . S
O66 In65 2.294 . S
O66 C75 1.240 . S
O67 In65 2.326 . S
O67 C75 1.252 . S
C68 O71 1.252 . S
C68 O72 1.260 . S
C69 O76 1.240 . S
C69 O77 1.252 . S
C70 O73 1.252 . S
C70 O74 1.260 . S
O71 In65 2.266 . S
O71 C68 1.252 . S
O72 In65 2.326 . S
O72 C68 1.260 . S
O73 In65 2.266 . S
O73 C70 1.252 . S
O74 In65 2.326 . S
O74 C70 1.260 . S
C75 O66 1.240 . S
C75 O67 1.252 . S
O76 In65 2.294 . S
O76 C69 1.240 . S
O77 In65 2.326 . S
O77 C69 1.252 . S
In78 O79 2.294 . S
In78 O80 2.326 . S
In78 O84 2.266 . S
In78 O85 2.326 . S
In78 O86 2.266 . S
In78 O87 2.326 . S
In78 O89 2.294 . S
In78 O90 2.326 . S
O79 In78 2.294 . S
O79 C88 1.240 . S
O80 In78 2.326 . S
O80 C88 1.252 . S
C81 O84 1.252 . S
C81 O85 1.260 . S
C82 O89 1.240 . S
C82 O90 1.252 . S
C83 O86 1.252 . S
C83 O87 1.260 . S
O84 In78 2.266 . S
O84 C81 1.252 . S
O85 In78 2.326 . S
O85 C81 1.260 . S
O86 In78 2.266 . S
O86 C83 1.252 . S
O87 In78 2.326 . S
O87 C83 1.260 . S
C88 O79 1.240 . S
C88 O80 1.252 . S
O89 In78 2.294 . S
O89 C82 1.240 . S
O90 In78 2.326 . S
O90 C82 1.252 . S
In91 O92 2.294 . S
In91 O93 2.326 . S
In91 O97 2.266 . S
In91 O98 2.326 . S
In91 O99 2.266 . S
In91 O100 2.326 . S
In91 O102 2.294 . S
In91 O103 2.326 . S
O92 In91 2.294 . S
O92 C101 1.240 . S
O93 In91 2.326 . S
O93 C101 1.252 . S
C94 O97 1.252 . S
C94 O98 1.260 . S
C95 O102 1.240 . S
C95 O103 1.252 . S
C96 O99 1.252 . S
C96 O100 1.260 . S
O97 In91 2.266 . S
O97 C94 1.252 . S
O98 In91 2.326 . S
O98 C94 1.260 . S
O99 In91 2.266 . S
O99 C96 1.252 . S
O100 In91 2.326 . S
O100 C96 1.260 . S
C101 O92 1.240 . S
C101 O93 1.252 . S
O102 In91 2.294 . S
O102 C95 1.240 . S
O103 In91 2.326 . S
O103 C95 1.252 . S
In104 O105 2.294 . S
In104 O106 2.326 . S
In104 O110 2.266 . S
In104 O111 2.326 . S
In104 O112 2.266 . S
In104 O113 2.326 . S
In104 O115 2.294 . S
In104 O116 2.326 . S
O105 In104 2.294 . S
O105 C114 1.240 . S
O106 In104 2.326 . S
O106 C114 1.252 . S
C107 O110 1.252 . S
C107 O111 1.260 . S
C108 O115 1.240 . S
C108 O116 1.252 . S
C109 O112 1.252 . S
C109 O113 1.260 . S
O110 In104 2.266 . S
O110 C107 1.252 . S
O111 In104 2.326 . S
O111 C107 1.260 . S
O112 In104 2.266 . S
O112 C109 1.252 . S
O113 In104 2.326 . S
O113 C109 1.260 . S
C114 O105 1.240 . S
C114 O106 1.252 . S
O115 In104 2.294 . S
O115 C108 1.240 . S
O116 In104 2.326 . S
O116 C108 1.252 . S
In117 O118 2.294 . S
In117 O119 2.326 . S
In117 O123 2.266 . S
In117 O124 2.326 . S
In117 O125 2.266 . S
In117 O126 2.326 . S
In117 O128 2.294 . S
In117 O129 2.326 . S
O118 In117 2.294 . S
O118 C127 1.240 . S
O119 In117 2.326 . S
O119 C127 1.252 . S
C120 O123 1.252 . S
C120 O124 1.260 . S
C121 O128 1.240 . S
C121 O129 1.252 . S
C122 O125 1.252 . S
C122 O126 1.260 . S
O123 In117 2.266 . S
O123 C120 1.252 . S
O124 In117 2.326 . S
O124 C120 1.260 . S
O125 In117 2.266 . S
O125 C122 1.252 . S
O126 In117 2.326 . S
O126 C122 1.260 . S
C127 O118 1.240 . S
C127 O119 1.252 . S
O128 In117 2.294 . S
O128 C121 1.240 . S
O129 In117 2.326 . S
O129 C121 1.252 . S
In130 O131 2.294 . S
In130 O132 2.326 . S
In130 O136 2.266 . S
In130 O137 2.326 . S
In130 O138 2.266 . S
In130 O139 2.326 . S
In130 O141 2.294 . S
In130 O142 2.326 . S
O131 In130 2.294 . S
O131 C140 1.240 . S
O132 In130 2.326 . S
O132 C140 1.252 . S
C133 O136 1.252 . S
C133 O137 1.260 . S
C134 O141 1.240 . S
C134 O142 1.252 . S
C135 O138 1.252 . S
C135 O139 1.260 . S
O136 In130 2.266 . S
O136 C133 1.252 . S
O137 In130 2.326 . S
O137 C133 1.260 . S
O138 In130 2.266 . S
O138 C135 1.252 . S
O139 In130 2.326 . S
O139 C135 1.260 . S
C140 O131 1.240 . S
C140 O132 1.252 . S
O141 In130 2.294 . S
O141 C134 1.240 . S
O142 In130 2.326 . S
O142 C134 1.252 . S
In143 O144 2.294 . S
In143 O145 2.326 . S
In143 O149 2.266 . S
In143 O150 2.326 . S
In143 O151 2.266 . S
In143 O152 2.326 . S
In143 O154 2.294 . S
In143 O155 2.326 . S
O144 In143 2.294 . S
O144 C153 1.240 . S
O145 In143 2.326 . S
O145 C153 1.252 . S
C146 O149 1.252 . S
C146 O150 1.260 . S
C147 O154 1.240 . S
C147 O155 1.252 . S
C148 O151 1.252 . S
C148 O152 1.260 . S
O149 In143 2.266 . S
O149 C146 1.252 . S
O150 In143 2.326 . S
O150 C146 1.260 . S
O151 In143 2.266 . S
O151 C148 1.252 . S
O152 In143 2.326 . S
O152 C148 1.260 . S
C153 O144 1.240 . S
C153 O145 1.252 . S
O154 In143 2.294 . S
O154 C147 1.240 . S
O155 In143 2.326 . S
O155 C147 1.252 . S
In156 O157 2.294 . S
In156 O158 2.326 . S
In156 O162 2.266 . S
In156 O163 2.326 . S
In156 O164 2.266 . S
In156 O165 2.326 . S
In156 O167 2.294 . S
In156 O168 2.326 . S
O157 In156 2.294 . S
O157 C166 1.240 . S
O158 In156 2.326 . S
O158 C166 1.252 . S
C159 O162 1.252 . S
C159 O163 1.260 . S
C160 O167 1.240 . S
C160 O168 1.252 . S
C161 O164 1.252 . S
C161 O165 1.260 . S
O162 In156 2.266 . S
O162 C159 1.252 . S
O163 In156 2.326 . S
O163 C159 1.260 . S
O164 In156 2.266 . S
O164 C161 1.252 . S
O165 In156 2.326 . S
O165 C161 1.260 . S
C166 O157 1.240 . S
C166 O158 1.252 . S
O167 In156 2.294 . S
O167 C160 1.240 . S
O168 In156 2.326 . S
O168 C160 1.252 . S
In169 O170 2.294 . S
In169 O171 2.326 . S
In169 O175 2.266 . S
In169 O176 2.326 . S
In169 O177 2.266 . S
In169 O178 2.326 . S
In169 O180 2.294 . S
In169 O181 2.326 . S
O170 In169 2.294 . S
O170 C179 1.240 . S
O171 In169 2.326 . S
O171 C179 1.252 . S
C172 O175 1.252 . S
C172 O176 1.260 . S
C173 O180 1.240 . S
C173 O181 1.252 . S
C174 O177 1.252 . S
C174 O178 1.260 . S
O175 In169 2.266 . S
O175 C172 1.252 . S
O176 In169 2.326 . S
O176 C172 1.260 . S
O177 In169 2.266 . S
O177 C174 1.252 . S
O178 In169 2.326 . S
O178 C174 1.260 . S
C179 O170 1.240 . S
C179 O171 1.252 . S
O180 In169 2.294 . S
O180 C173 1.240 . S
O181 In169 2.326 . S
O181 C173 1.252 . S
In182 O183 2.294 . S
In182 O184 2.326 . S
In182 O188 2.266 . S
In182 O189 2.326 . S
In182 O190 2.266 . S
In182 O191 2.326 . S
In182 O193 2.294 . S
In182 O194 2.326 . S
O183 In182 2.294 . S
O183 C192 1.240 . S
O184 In182 2.326 . S
O184 C192 1.252 . S
C185 O188 1.252 . S
C185 O189 1.260 . S
C186 O193 1.240 . S
C186 O194 1.252 . S
C187 O190 1.252 . S
C187 O191 1.260 . S
O188 In182 2.266 . S
O188 C185 1.252 . S
O189 In182 2.326 . S
O189 C185 1.260 . S
O190 In182 2.266 . S
O190 C187 1.252 . S
O191 In182 2.326 . S
O191 C187 1.260 . S
C192 O183 1.240 . S
C192 O184 1.252 . S
O193 In182 2.294 . S
O193 C186 1.240 . S
O194 In182 2.326 . S
O194 C186 1.252 . S
In195 O196 2.294 . S
In195 O197 2.326 . S
In195 O201 2.266 . S
In195 O202 2.326 . S
In195 O203 2.266 . S
In195 O204 2.326 . S
In195 O206 2.294 . S
In195 O207 2.326 . S
O196 In195 2.294 . S
O196 C205 1.240 . S
O197 In195 2.326 . S
O197 C205 1.252 . S
C198 O201 1.252 . S
C198 O202 1.260 . S
C199 O206 1.240 . S
C199 O207 1.252 . S
C200 O203 1.252 . S
C200 O204 1.260 . S
O201 In195 2.266 . S
O201 C198 1.252 . S
O202 In195 2.326 . S
O202 C198 1.260 . S
O203 In195 2.266 . S
O203 C200 1.252 . S
O204 In195 2.326 . S
O204 C200 1.260 . S
C205 O196 1.240 . S
C205 O197 1.252 . S
O206 In195 2.294 . S
O206 C199 1.240 . S
O207 In195 2.326 . S
O207 C199 1.252 . S
In208 O209 2.294 . S
In208 O210 2.326 . S
In208 O214 2.266 . S
In208 O215 2.326 . S
In208 O216 2.266 . S
In208 O217 2.326 . S
In208 O219 2.294 . S
In208 O220 2.326 . S
O209 In208 2.294 . S
O209 C218 1.240 . S
O210 In208 2.326 . S
O210 C218 1.252 . S
C211 O214 1.252 . S
C211 O215 1.260 . S
C212 O219 1.240 . S
C212 O220 1.252 . S
C213 O216 1.252 . S
C213 O217 1.260 . S
O214 In208 2.266 . S
O214 C211 1.252 . S
O215 In208 2.326 . S
O215 C211 1.260 . S
O216 In208 2.266 . S
O216 C213 1.252 . S
O217 In208 2.326 . S
O217 C213 1.260 . S
C218 O209 1.240 . S
C218 O210 1.252 . S
O219 In208 2.294 . S
O219 C212 1.240 . S
O220 In208 2.326 . S
O220 C212 1.252 . S
In221 O222 2.294 . S
In221 O223 2.326 . S
In221 O227 2.266 . S
In221 O228 2.326 . S
In221 O229 2.266 . S
In221 O230 2.326 . S
In221 O232 2.294 . S
In221 O233 2.326 . S
O222 In221 2.294 . S
O222 C231 1.240 . S
O223 In221 2.326 . S
O223 C231 1.252 . S
C224 O227 1.252 . S
C224 O228 1.260 . S
C225 O232 1.240 . S
C225 O233 1.252 . S
C226 O229 1.252 . S
C226 O230 1.260 . S
O227 In221 2.266 . S
O227 C224 1.252 . S
O228 In221 2.326 . S
O228 C224 1.260 . S
O229 In221 2.266 . S
O229 C226 1.252 . S
O230 In221 2.326 . S
O230 C226 1.260 . S
C231 O222 1.240 . S
C231 O223 1.252 . S
O232 In221 2.294 . S
O232 C225 1.240 . S
O233 In221 2.326 . S
O233 C225 1.252 . S
In234 O235 2.294 . S
In234 O236 2.326 . S
In234 O240 2.266 . S
In234 O241 2.326 . S
In234 O242 2.266 . S
In234 O243 2.326 . S
In234 O245 2.294 . S
In234 O246 2.326 . S
O235 In234 2.294 . S
O235 C244 1.240 . S
O236 In234 2.326 . S
O236 C244 1.252 . S
C237 O240 1.252 . S
C237 O241 1.260 . S
C238 O245 1.240 . S
C238 O246 1.252 . S
C239 O242 1.252 . S
C239 O243 1.260 . S
O240 In234 2.266 . S
O240 C237 1.252 . S
O241 In234 2.326 . S
O241 C237 1.260 . S
O242 In234 2.266 . S
O242 C239 1.252 . S
O243 In234 2.326 . S
O243 C239 1.260 . S
C244 O235 1.240 . S
C244 O236 1.252 . S
O245 In234 2.294 . S
O245 C238 1.240 . S
O246 In234 2.326 . S
O246 C238 1.252 . S
In247 O248 2.294 . S
In247 O249 2.326 . S
In247 O253 2.266 . S
In247 O254 2.326 . S
In247 O255 2.266 . S
In247 O256 2.326 . S
In247 O258 2.294 . S
In247 O259 2.326 . S
O248 In247 2.294 . S
O248 C257 1.240 . S
O249 In247 2.326 . S
O249 C257 1.252 . S
C250 O253 1.252 . S
C250 O254 1.260 . S
C251 O258 1.240 . S
C251 O259 1.252 . S
C252 O255 1.252 . S
C252 O256 1.260 . S
O253 In247 2.266 . S
O253 C250 1.252 . S
O254 In247 2.326 . S
O254 C250 1.260 . S
O255 In247 2.266 . S
O255 C252 1.252 . S
O256 In247 2.326 . S
O256 C252 1.260 . S
C257 O248 1.240 . S
C257 O249 1.252 . S
O258 In247 2.294 . S
O258 C251 1.240 . S
O259 In247 2.326 . S
O259 C251 1.252 . S
In260 O261 2.294 . S
In260 O262 2.326 . S
In260 O266 2.266 . S
In260 O267 2.326 . S
In260 O268 2.266 . S
In260 O269 2.326 . S
In260 O271 2.294 . S
In260 O272 2.326 . S
O261 In260 2.294 . S
O261 C270 1.240 . S
O262 In260 2.326 . S
O262 C270 1.252 . S
C263 O266 1.252 . S
C263 O267 1.260 . S
C264 O271 1.240 . S
C264 O272 1.252 . S
C265 O268 1.252 . S
C265 O269 1.260 . S
O266 In260 2.266 . S
O266 C263 1.252 . S
O267 In260 2.326 . S
O267 C263 1.260 . S
O268 In260 2.266 . S
O268 C265 1.252 . S
O269 In260 2.326 . S
O269 C265 1.260 . S
C270 O261 1.240 . S
C270 O262 1.252 . S
O271 In260 2.294 . S
O271 C264 1.240 . S
O272 In260 2.326 . S
O272 C264 1.252 . S
In273 O274 2.294 . S
In273 O275 2.326 . S
In273 O279 2.266 . S
In273 O280 2.326 . S
In273 O281 2.266 . S
In273 O282 2.326 . S
In273 O284 2.294 . S
In273 O285 2.326 . S
O274 In273 2.294 . S
O274 C283 1.240 . S
O275 In273 2.326 . S
O275 C283 1.252 . S
C276 O279 1.252 . S
C276 O280 1.260 . S
C277 O284 1.240 . S
C277 O285 1.252 . S
C278 O281 1.252 . S
C278 O282 1.260 . S
O279 In273 2.266 . S
O279 C276 1.252 . S
O280 In273 2.326 . S
O280 C276 1.260 . S
O281 In273 2.266 . S
O281 C278 1.252 . S
O282 In273 2.326 . S
O282 C278 1.260 . S
C283 O274 1.240 . S
C283 O275 1.252 . S
O284 In273 2.294 . S
O284 C277 1.240 . S
O285 In273 2.326 . S
O285 C277 1.252 . S
In286 O287 2.294 . S
In286 O288 2.326 . S
In286 O292 2.266 . S
In286 O293 2.326 . S
In286 O294 2.266 . S
In286 O295 2.326 . S
In286 O297 2.294 . S
In286 O298 2.326 . S
O287 In286 2.294 . S
O287 C296 1.240 . S
O288 In286 2.326 . S
O288 C296 1.252 . S
C289 O292 1.252 . S
C289 O293 1.260 . S
C290 O297 1.240 . S
C290 O298 1.252 . S
C291 O294 1.252 . S
C291 O295 1.260 . S
O292 In286 2.266 . S
O292 C289 1.252 . S
O293 In286 2.326 . S
O293 C289 1.260 . S
O294 In286 2.266 . S
O294 C291 1.252 . S
O295 In286 2.326 . S
O295 C291 1.260 . S
C296 O287 1.240 . S
C296 O288 1.252 . S
O297 In286 2.294 . S
O297 C290 1.240 . S
O298 In286 2.326 . S
O298 C290 1.252 . S
In299 O300 2.294 . S
In299 O301 2.326 . S
In299 O305 2.266 . S
In299 O306 2.326 . S
In299 O307 2.266 . S
In299 O308 2.326 . S
In299 O310 2.294 . S
In299 O311 2.326 . S
O300 In299 2.294 . S
O300 C309 1.240 . S
O301 In299 2.326 . S
O301 C309 1.252 . S
C302 O305 1.252 . S
C302 O306 1.260 . S
C303 O310 1.240 . S
C303 O311 1.252 . S
C304 O307 1.252 . S
C304 O308 1.260 . S
O305 In299 2.266 . S
O305 C302 1.252 . S
O306 In299 2.326 . S
O306 C302 1.260 . S
O307 In299 2.266 . S
O307 C304 1.252 . S
O308 In299 2.326 . S
O308 C304 1.260 . S
C309 O300 1.240 . S
C309 O301 1.252 . S
O310 In299 2.294 . S
O310 C303 1.240 . S
O311 In299 2.326 . S
O311 C303 1.252 . S
In312 O313 2.294 . S
In312 O314 2.326 . S
In312 O318 2.266 . S
In312 O319 2.326 . S
In312 O320 2.266 . S
In312 O321 2.326 . S
In312 O323 2.294 . S
In312 O324 2.326 . S
O313 In312 2.294 . S
O313 C322 1.240 . S
O314 In312 2.326 . S
O314 C322 1.252 . S
C315 O318 1.252 . S
C315 O319 1.260 . S
C316 O323 1.240 . S
C316 O324 1.252 . S
C317 O320 1.252 . S
C317 O321 1.260 . S
O318 In312 2.266 . S
O318 C315 1.252 . S
O319 In312 2.326 . S
O319 C315 1.260 . S
O320 In312 2.266 . S
O320 C317 1.252 . S
O321 In312 2.326 . S
O321 C317 1.260 . S
C322 O313 1.240 . S
C322 O314 1.252 . S
O323 In312 2.294 . S
O323 C316 1.240 . S
O324 In312 2.326 . S
O324 C316 1.252 . S
In325 O326 2.294 . S
In325 O327 2.326 . S
In325 O331 2.266 . S
In325 O332 2.326 . S
In325 O333 2.266 . S
In325 O334 2.326 . S
In325 O336 2.294 . S
In325 O337 2.326 . S
O326 In325 2.294 . S
O326 C335 1.240 . S
O327 In325 2.326 . S
O327 C335 1.252 . S
C328 O331 1.252 . S
C328 O332 1.260 . S
C329 O336 1.240 . S
C329 O337 1.252 . S
C330 O333 1.252 . S
C330 O334 1.260 . S
O331 In325 2.266 . S
O331 C328 1.252 . S
O332 In325 2.326 . S
O332 C328 1.260 . S
O333 In325 2.266 . S
O333 C330 1.252 . S
O334 In325 2.326 . S
O334 C330 1.260 . S
C335 O326 1.240 . S
C335 O327 1.252 . S
O336 In325 2.294 . S
O336 C329 1.240 . S
O337 In325 2.326 . S
O337 C329 1.252 . S
In338 O339 2.294 . S
In338 O340 2.326 . S
In338 O344 2.266 . S
In338 O345 2.326 . S
In338 O346 2.266 . S
In338 O347 2.326 . S
In338 O349 2.294 . S
In338 O350 2.326 . S
O339 In338 2.294 . S
O339 C348 1.240 . S
O340 In338 2.326 . S
O340 C348 1.252 . S
C341 O344 1.252 . S
C341 O345 1.260 . S
C342 O349 1.240 . S
C342 O350 1.252 . S
C343 O346 1.252 . S
C343 O347 1.260 . S
O344 In338 2.266 . S
O344 C341 1.252 . S
O345 In338 2.326 . S
O345 C341 1.260 . S
O346 In338 2.266 . S
O346 C343 1.252 . S
O347 In338 2.326 . S
O347 C343 1.260 . S
C348 O339 1.240 . S
C348 O340 1.252 . S
O349 In338 2.294 . S
O349 C342 1.240 . S
O350 In338 2.326 . S
O350 C342 1.252 . S
In351 O352 2.294 . S
In351 O353 2.326 . S
In351 O357 2.266 . S
In351 O358 2.326 . S
In351 O359 2.266 . S
In351 O360 2.326 . S
In351 O362 2.294 . S
In351 O363 2.326 . S
O352 In351 2.294 . S
O352 C361 1.240 . S
O353 In351 2.326 . S
O353 C361 1.252 . S
C354 O357 1.252 . S
C354 O358 1.260 . S
C355 O362 1.240 . S
C355 O363 1.252 . S
C356 O359 1.252 . S
C356 O360 1.260 . S
O357 In351 2.266 . S
O357 C354 1.252 . S
O358 In351 2.326 . S
O358 C354 1.260 . S
O359 In351 2.266 . S
O359 C356 1.252 . S
O360 In351 2.326 . S
O360 C356 1.260 . S
C361 O352 1.240 . S
C361 O353 1.252 . S
O362 In351 2.294 . S
O362 C355 1.240 . S
O363 In351 2.326 . S
O363 C355 1.252 . S
In364 O365 2.294 . S
In364 O366 2.326 . S
In364 O370 2.266 . S
In364 O371 2.326 . S
In364 O372 2.266 . S
In364 O373 2.326 . S
In364 O375 2.294 . S
In364 O376 2.326 . S
O365 In364 2.294 . S
O365 C374 1.240 . S
O366 In364 2.326 . S
O366 C374 1.252 . S
C367 O370 1.252 . S
C367 O371 1.260 . S
C368 O375 1.240 . S
C368 O376 1.252 . S
C369 O372 1.252 . S
C369 O373 1.260 . S
O370 In364 2.266 . S
O370 C367 1.252 . S
O371 In364 2.326 . S
O371 C367 1.260 . S
O372 In364 2.266 . S
O372 C369 1.252 . S
O373 In364 2.326 . S
O373 C369 1.260 . S
C374 O365 1.240 . S
C374 O366 1.252 . S
O375 In364 2.294 . S
O375 C368 1.240 . S
O376 In364 2.326 . S
O376 C368 1.252 . S
In377 O378 2.294 . S
In377 O379 2.326 . S
In377 O383 2.266 . S
In377 O384 2.326 . S
In377 O385 2.266 . S
In377 O386 2.326 . S
In377 O388 2.294 . S
In377 O389 2.326 . S
O378 In377 2.294 . S
O378 C387 1.240 . S
O379 In377 2.326 . S
O379 C387 1.252 . S
C380 O383 1.252 . S
C380 O384 1.260 . S
C381 O388 1.240 . S
C381 O389 1.252 . S
C382 O385 1.252 . S
C382 O386 1.260 . S
O383 In377 2.266 . S
O383 C380 1.252 . S
O384 In377 2.326 . S
O384 C380 1.260 . S
O385 In377 2.266 . S
O385 C382 1.252 . S
O386 In377 2.326 . S
O386 C382 1.260 . S
C387 O378 1.240 . S
C387 O379 1.252 . S
O388 In377 2.294 . S
O388 C381 1.240 . S
O389 In377 2.326 . S
O389 C381 1.252 . S
In390 O391 2.294 . S
In390 O392 2.326 . S
In390 O396 2.266 . S
In390 O397 2.326 . S
In390 O398 2.266 . S
In390 O399 2.326 . S
In390 O401 2.294 . S
In390 O402 2.326 . S
O391 In390 2.294 . S
O391 C400 1.240 . S
O392 In390 2.326 . S
O392 C400 1.252 . S
C393 O396 1.252 . S
C393 O397 1.260 . S
C394 O401 1.240 . S
C394 O402 1.252 . S
C395 O398 1.252 . S
C395 O399 1.260 . S
O396 In390 2.266 . S
O396 C393 1.252 . S
O397 In390 2.326 . S
O397 C393 1.260 . S
O398 In390 2.266 . S
O398 C395 1.252 . S
O399 In390 2.326 . S
O399 C395 1.260 . S
C400 O391 1.240 . S
C400 O392 1.252 . S
O401 In390 2.294 . S
O401 C394 1.240 . S
O402 In390 2.326 . S
O402 C394 1.252 . S
In403 O404 2.294 . S
In403 O405 2.326 . S
In403 O409 2.266 . S
In403 O410 2.326 . S
In403 O411 2.266 . S
In403 O412 2.326 . S
In403 O414 2.294 . S
In403 O415 2.326 . S
O404 In403 2.294 . S
O404 C413 1.240 . S
O405 In403 2.326 . S
O405 C413 1.252 . S
C406 O409 1.252 . S
C406 O410 1.260 . S
C407 O414 1.240 . S
C407 O415 1.252 . S
C408 O411 1.252 . S
C408 O412 1.260 . S
O409 In403 2.266 . S
O409 C406 1.252 . S
O410 In403 2.326 . S
O410 C406 1.260 . S
O411 In403 2.266 . S
O411 C408 1.252 . S
O412 In403 2.326 . S
O412 C408 1.260 . S
C413 O404 1.240 . S
C413 O405 1.252 . S
O414 In403 2.294 . S
O414 C407 1.240 . S
O415 In403 2.326 . S
O415 C407 1.252 . S
In416 O417 2.294 . S
In416 O418 2.326 . S
In416 O422 2.266 . S
In416 O423 2.326 . S
In416 O424 2.266 . S
In416 O425 2.326 . S
In416 O427 2.294 . S
In416 O428 2.326 . S
O417 In416 2.294 . S
O417 C426 1.240 . S
O418 In416 2.326 . S
O418 C426 1.252 . S
C419 O422 1.252 . S
C419 O423 1.260 . S
C420 O427 1.240 . S
C420 O428 1.252 . S
C421 O424 1.252 . S
C421 O425 1.260 . S
O422 In416 2.266 . S
O422 C419 1.252 . S
O423 In416 2.326 . S
O423 C419 1.260 . S
O424 In416 2.266 . S
O424 C421 1.252 . S
O425 In416 2.326 . S
O425 C421 1.260 . S
C426 O417 1.240 . S
C426 O418 1.252 . S
O427 In416 2.294 . S
O427 C420 1.240 . S
O428 In416 2.326 . S
O428 C420 1.252 . S
In429 O430 2.294 . S
In429 O431 2.326 . S
In429 O435 2.266 . S
In429 O436 2.326 . S
In429 O437 2.266 . S
In429 O438 2.326 . S
In429 O440 2.294 . S
In429 O441 2.326 . S
O430 In429 2.294 . S
O430 C439 1.240 . S
O431 In429 2.326 . S
O431 C439 1.252 . S
C432 O435 1.252 . S
C432 O436 1.260 . S
C433 O440 1.240 . S
C433 O441 1.252 . S
C434 O437 1.252 . S
C434 O438 1.260 . S
O435 In429 2.266 . S
O435 C432 1.252 . S
O436 In429 2.326 . S
O436 C432 1.260 . S
O437 In429 2.266 . S
O437 C434 1.252 . S
O438 In429 2.326 . S
O438 C434 1.260 . S
C439 O430 1.240 . S
C439 O431 1.252 . S
O440 In429 2.294 . S
O440 C433 1.240 . S
O441 In429 2.326 . S
O441 C433 1.252 . S
In442 O443 2.294 . S
In442 O444 2.326 . S
In442 O448 2.266 . S
In442 O449 2.326 . S
In442 O450 2.266 . S
In442 O451 2.326 . S
In442 O453 2.294 . S
In442 O454 2.326 . S
O443 In442 2.294 . S
O443 C452 1.240 . S
O444 In442 2.326 . S
O444 C452 1.252 . S
C445 O448 1.252 . S
C445 O449 1.260 . S
C446 O453 1.240 . S
C446 O454 1.252 . S
C447 O450 1.252 . S
C447 O451 1.260 . S
O448 In442 2.266 . S
O448 C445 1.252 . S
O449 In442 2.326 . S
O449 C445 1.260 . S
O450 In442 2.266 . S
O450 C447 1.252 . S
O451 In442 2.326 . S
O451 C447 1.260 . S
C452 O443 1.240 . S
C452 O444 1.252 . S
O453 In442 2.294 . S
O453 C446 1.240 . S
O454 In442 2.326 . S
O454 C446 1.252 . S
In455 O456 2.294 . S
In455 O457 2.326 . S
In455 O461 2.266 . S
In455 O462 2.326 . S
In455 O463 2.266 . S
In455 O464 2.326 . S
In455 O466 2.294 . S
In455 O467 2.326 . S
O456 In455 2.294 . S
O456 C465 1.240 . S
O457 In455 2.326 . S
O457 C465 1.252 . S
C458 O461 1.252 . S
C458 O462 1.260 . S
C459 O466 1.240 . S
C459 O467 1.252 . S
C460 O463 1.252 . S
C460 O464 1.260 . S
O461 In455 2.266 . S
O461 C458 1.252 . S
O462 In455 2.326 . S
O462 C458 1.260 . S
O463 In455 2.266 . S
O463 C460 1.252 . S
O464 In455 2.326 . S
O464 C460 1.260 . S
C465 O456 1.240 . S
C465 O457 1.252 . S
O466 In455 2.294 . S
O466 C459 1.240 . S
O467 In455 2.326 . S
O467 C459 1.252 . S
H468 C486 0.951 . S
H469 C488 0.951 . S
H470 C490 0.950 . S
H471 C491 0.950 . S
H472 C493 0.950 . S
H473 C496 0.950 . S
H474 C497 0.950 . S
H475 C499 0.950 . S
H476 C500 0.950 1_545 S
H477 C501 0.951 . S
H478 C503 0.951 . S
H479 C505 0.950 . S
H480 C506 0.950 . S
H481 C508 0.950 . S
H482 C511 0.950 . S
H483 C512 0.950 . S
H484 C514 0.950 . S
H485 C515 0.950 1_565 S
C486 H468 0.951 . S
C486 C487 1.366 . S
C486 C488 1.388 . S
C487 C486 1.366 . S
C487 C491 1.385 . S
C488 H469 0.951 . S
C488 C486 1.388 . S
C488 C489 1.366 . S
C489 C488 1.366 . S
C489 C490 1.414 . S
C489 C492 1.499 . S
C490 H470 0.950 . S
C490 C489 1.414 . S
C490 C491 1.374 . S
C491 H471 0.950 . S
C491 C487 1.385 . S
C491 C490 1.374 . S
C492 C489 1.499 . S
C492 C493 1.373 . S
C492 C494 1.389 . S
C493 H472 0.950 . S
C493 C492 1.373 . S
C493 C509 1.377 1_565 S
C494 C492 1.389 . S
C494 C495 1.524 . S
C494 C508 1.377 1_565 S
C495 C494 1.524 . S
C495 C496 1.397 . S
C495 C500 1.363 . S
C496 H473 0.950 . S
C496 C495 1.397 . S
C496 C497 1.334 . S
C497 H474 0.950 . S
C497 C496 1.334 . S
C497 C498 1.287 . S
C498 C497 1.287 . S
C498 C499 1.524 . S
C498 H517 0.913 . S
C499 H475 0.950 . S
C499 C498 1.524 . S
C499 C500 1.415 . S
C500 H476 0.950 1_565 S
C500 C495 1.363 . S
C500 C499 1.415 . S
C501 H477 0.951 . S
C501 C502 1.366 . S
C501 C503 1.388 . S
C502 C501 1.366 . S
C502 C506 1.385 . S
C503 H478 0.951 . S
C503 C501 1.388 . S
C503 C504 1.366 . S
C504 C503 1.366 . S
C504 C505 1.414 . S
C504 C507 1.499 . S
C505 H479 0.950 . S
C505 C504 1.414 . S
C505 C506 1.374 . S
C506 H480 0.950 . S
C506 C502 1.385 . S
C506 C505 1.374 . S
C507 C504 1.499 . S
C507 C508 1.373 . S
C507 C509 1.389 . S
C508 H481 0.950 . S
C508 C494 1.377 1_545 S
C508 C507 1.373 . S
C509 C493 1.377 1_545 S
C509 C507 1.389 . S
C509 C510 1.524 . S
C510 C509 1.524 . S
C510 C511 1.397 . S
C510 C515 1.363 . S
C511 H482 0.950 . S
C511 C510 1.397 . S
C511 C512 1.334 . S
C512 H483 0.950 . S
C512 C511 1.334 . S
C512 C513 1.287 . S
C513 C512 1.287 . S
C513 C514 1.524 . S
C513 H516 0.999 . S
C514 H484 0.950 . S
C514 C513 1.524 . S
C514 C515 1.415 . S
C515 H485 0.950 1_545 S
C515 C510 1.363 . S
C515 C514 1.415 . S
H516 C513 0.999 . S
H517 C498 0.913 . S
H518 C536 0.951 . S
H519 C538 0.951 . S
H520 C540 0.950 . S
H521 C541 0.950 . S
H522 C543 0.950 . S
H523 C546 0.950 . S
H524 C547 0.950 . S
H525 C549 0.950 . S
H526 C550 0.950 . S
H527 C551 0.951 . S
H528 C553 0.951 . S
H529 C555 0.950 . S
H530 C556 0.950 . S
H531 C558 0.950 . S
H532 C561 0.950 . S
H533 C562 0.950 . S
H534 C564 0.950 . S
H535 C565 0.950 . S
C536 H518 0.951 . S
C536 C537 1.366 . S
C536 C538 1.388 . S
C537 C536 1.366 . S
C537 C541 1.385 . S
C538 H519 0.951 . S
C538 C536 1.388 . S
C538 C539 1.366 . S
C539 C538 1.366 . S
C539 C540 1.414 . S
C539 C542 1.499 . S
C540 H520 0.950 . S
C540 C539 1.414 . S
C540 C541 1.374 . S
C541 H521 0.950 . S
C541 C537 1.385 . S
C541 C540 1.374 . S
C542 C539 1.499 . S
C542 C543 1.373 . S
C542 C544 1.389 . S
C543 H522 0.950 . S
C543 C542 1.373 . S
C543 C559 1.377 1_455 S
C544 C542 1.389 . S
C544 C545 1.524 . S
C544 C558 1.377 1_455 S
C545 C544 1.524 . S
C545 C546 1.397 . S
C545 C550 1.363 . S
C546 H523 0.950 . S
C546 C545 1.397 . S
C546 C547 1.334 . S
C547 H524 0.950 . S
C547 C546 1.334 . S
C547 C548 1.287 . S
C548 C547 1.287 . S
C548 C549 1.524 . S
C548 H567 0.913 . S
C549 H525 0.950 . S
C549 C548 1.524 . S
C549 C550 1.415 . S
C550 H526 0.950 . S
C550 C545 1.363 . S
C550 C549 1.415 . S
C551 H527 0.951 . S
C551 C552 1.366 . S
C551 C553 1.388 . S
C552 C551 1.366 . S
C552 C556 1.385 . S
C553 H528 0.951 . S
C553 C551 1.388 . S
C553 C554 1.366 . S
C554 C553 1.366 . S
C554 C555 1.414 . S
C554 C557 1.499 . S
C555 H529 0.950 . S
C555 C554 1.414 . S
C555 C556 1.374 . S
C556 H530 0.950 . S
C556 C552 1.385 . S
C556 C555 1.374 . S
C557 C554 1.499 . S
C557 C558 1.373 . S
C557 C559 1.389 . S
C558 H531 0.950 . S
C558 C544 1.377 1_655 S
C558 C557 1.373 . S
C559 C543 1.377 1_655 S
C559 C557 1.389 . S
C559 C560 1.524 . S
C560 C559 1.524 . S
C560 C561 1.397 . S
C560 C565 1.363 . S
C561 H532 0.950 . S
C561 C560 1.397 . S
C561 C562 1.334 . S
C562 H533 0.950 . S
C562 C561 1.334 . S
C562 C563 1.287 . S
C563 C562 1.287 . S
C563 C564 1.524 . S
C563 H566 0.999 . S
C564 H534 0.950 . S
C564 C563 1.524 . S
C564 C565 1.415 . S
C565 H535 0.950 . S
C565 C560 1.363 . S
C565 C564 1.415 . S
H566 C563 0.999 . S
H567 C548 0.913 . S
H568 C586 0.951 . S
H569 C588 0.951 . S
H570 C590 0.950 . S
H571 C591 0.950 . S
H572 C593 0.950 . S
H573 C596 0.950 . S
H574 C597 0.950 . S
H575 C599 0.950 . S
H576 C600 0.950 . S
H577 C601 0.951 . S
H578 C603 0.951 . S
H579 C605 0.950 . S
H580 C606 0.950 . S
H581 C608 0.950 . S
H582 C611 0.950 . S
H583 C612 0.950 . S
H584 C614 0.950 . S
H585 C615 0.950 . S
C586 H568 0.951 . S
C586 C587 1.366 . S
C586 C588 1.388 . S
C587 C586 1.366 . S
C587 C591 1.385 . S
C588 H569 0.951 . S
C588 C586 1.388 . S
C588 C589 1.366 . S
C589 C588 1.366 . S
C589 C590 1.414 . S
C589 C592 1.499 . S
C590 H570 0.950 . S
C590 C589 1.414 . S
C590 C591 1.374 . S
C591 H571 0.950 . S
C591 C587 1.385 . S
C591 C590 1.374 . S
C592 C589 1.499 . S
C592 C593 1.373 . S
C592 C594 1.389 . S
C593 H572 0.950 . S
C593 C592 1.373 . S
C593 C609 1.377 . S
C594 C592 1.389 . S
C594 C595 1.524 . S
C594 C608 1.377 . S
C595 C594 1.524 . S
C595 C596 1.397 . S
C595 C600 1.363 . S
C596 H573 0.950 . S
C596 C595 1.397 . S
C596 C597 1.334 . S
C597 H574 0.950 . S
C597 C596 1.334 . S
C597 C598 1.287 . S
C598 C597 1.287 . S
C598 C599 1.524 . S
C598 H617 0.913 . S
C599 H575 0.950 . S
C599 C598 1.524 . S
C599 C600 1.415 . S
C600 H576 0.950 . S
C600 C595 1.363 . S
C600 C599 1.415 . S
C601 H577 0.951 . S
C601 C602 1.366 . S
C601 C603 1.388 . S
C602 C601 1.366 . S
C602 C606 1.385 . S
C603 H578 0.951 . S
C603 C601 1.388 . S
C603 C604 1.366 . S
C604 C603 1.366 . S
C604 C605 1.414 . S
C604 C607 1.499 . S
C605 H579 0.950 . S
C605 C604 1.414 . S
C605 C606 1.374 . S
C606 H580 0.950 . S
C606 C602 1.385 . S
C606 C605 1.374 . S
C607 C604 1.499 . S
C607 C608 1.373 . S
C607 C609 1.389 . S
C608 H581 0.950 . S
C608 C594 1.377 . S
C608 C607 1.373 . S
C609 C593 1.377 . S
C609 C607 1.389 . S
C609 C610 1.524 . S
C610 C609 1.524 . S
C610 C611 1.397 . S
C610 C615 1.363 . S
C611 H582 0.950 . S
C611 C610 1.397 . S
C611 C612 1.334 . S
C612 H583 0.950 . S
C612 C611 1.334 . S
C612 C613 1.287 . S
C613 C612 1.287 . S
C613 C614 1.524 . S
C613 H616 0.999 . S
C614 H584 0.950 . S
C614 C613 1.524 . S
C614 C615 1.415 . S
C615 H585 0.950 . S
C615 C610 1.363 . S
C615 C614 1.415 . S
H616 C613 0.999 . S
H617 C598 0.913 . S
H618 C636 0.951 . S
H619 C638 0.951 . S
H620 C640 0.950 . S
H621 C641 0.950 . S
H622 C643 0.950 . S
H623 C646 0.950 . S
H624 C647 0.950 . S
H625 C649 0.950 . S
H626 C650 0.950 . S
H627 C651 0.951 . S
H628 C653 0.951 . S
H629 C655 0.950 . S
H630 C656 0.950 . S
H631 C658 0.950 . S
H632 C661 0.950 . S
H633 C662 0.950 . S
H634 C664 0.950 . S
H635 C665 0.950 . S
C636 H618 0.951 . S
C636 C637 1.366 . S
C636 C638 1.388 . S
C637 C636 1.366 . S
C637 C641 1.385 . S
C638 H619 0.951 . S
C638 C636 1.388 . S
C638 C639 1.366 . S
C639 C638 1.366 . S
C639 C640 1.414 . S
C639 C642 1.499 . S
C640 H620 0.950 . S
C640 C639 1.414 . S
C640 C641 1.374 . S
C641 H621 0.950 . S
C641 C637 1.385 . S
C641 C640 1.374 . S
C642 C639 1.499 . S
C642 C643 1.373 . S
C642 C644 1.389 . S
C643 H622 0.950 . S
C643 C642 1.373 . S
C643 C659 1.377 1_565 S
C644 C642 1.389 . S
C644 C645 1.524 . S
C644 C658 1.377 1_565 S
C645 C644 1.524 . S
C645 C646 1.397 . S
C645 C650 1.363 . S
C646 H623 0.950 . S
C646 C645 1.397 . S
C646 C647 1.334 . S
C647 H624 0.950 . S
C647 C646 1.334 . S
C647 C648 1.287 . S
C648 C647 1.287 . S
C648 C649 1.524 . S
C648 H667 0.913 . S
C649 H625 0.950 . S
C649 C648 1.524 . S
C649 C650 1.415 . S
C650 H626 0.950 . S
C650 C645 1.363 . S
C650 C649 1.415 . S
C651 H627 0.951 . S
C651 C652 1.366 . S
C651 C653 1.388 . S
C652 C651 1.366 . S
C652 C656 1.385 . S
C653 H628 0.951 . S
C653 C651 1.388 . S
C653 C654 1.366 . S
C654 C653 1.366 . S
C654 C655 1.414 . S
C654 C657 1.499 . S
C655 H629 0.950 . S
C655 C654 1.414 . S
C655 C656 1.374 . S
C656 H630 0.950 . S
C656 C652 1.385 . S
C656 C655 1.374 . S
C657 C654 1.499 . S
C657 C658 1.373 . S
C657 C659 1.389 . S
C658 H631 0.950 . S
C658 C644 1.377 1_545 S
C658 C657 1.373 . S
C659 C643 1.377 1_545 S
C659 C657 1.389 . S
C659 C660 1.524 . S
C660 C659 1.524 . S
C660 C661 1.397 . S
C660 C665 1.363 . S
C661 H632 0.950 . S
C661 C660 1.397 . S
C661 C662 1.334 . S
C662 H633 0.950 . S
C662 C661 1.334 . S
C662 C663 1.287 . S
C663 C662 1.287 . S
C663 C664 1.524 . S
C663 H666 0.999 . S
C664 H634 0.950 . S
C664 C663 1.524 . S
C664 C665 1.415 . S
C665 H635 0.950 . S
C665 C660 1.363 . S
C665 C664 1.415 . S
H666 C663 0.999 . S
H667 C648 0.913 . S
H668 C686 0.951 . S
H669 C688 0.951 . S
H670 C690 0.950 . S
H671 C691 0.950 . S
H672 C693 0.950 . S
H673 C696 0.950 . S
H674 C697 0.950 . S
H675 C699 0.950 . S
H676 C700 0.950 . S
H677 C701 0.951 . S
H678 C703 0.951 . S
H679 C705 0.950 . S
H680 C706 0.950 . S
H681 C708 0.950 . S
H682 C711 0.950 . S
H683 C712 0.950 . S
H684 C714 0.950 . S
H685 C715 0.950 . S
C686 H668 0.951 . S
C686 C687 1.366 . S
C686 C688 1.388 . S
C687 C686 1.366 . S
C687 C691 1.385 . S
C688 H669 0.951 . S
C688 C686 1.388 . S
C688 C689 1.366 . S
C689 C688 1.366 . S
C689 C690 1.414 . S
C689 C692 1.499 . S
C690 H670 0.950 . S
C690 C689 1.414 . S
C690 C691 1.374 . S
C691 H671 0.950 . S
C691 C687 1.385 . S
C691 C690 1.374 . S
C692 C689 1.499 . S
C692 C693 1.373 . S
C692 C694 1.389 . S
C693 H672 0.950 . S
C693 C692 1.373 . S
C693 C709 1.377 1_455 S
C694 C692 1.389 . S
C694 C695 1.524 . S
C694 C708 1.377 1_455 S
C695 C694 1.524 . S
C695 C696 1.397 . S
C695 C700 1.363 . S
C696 H673 0.950 . S
C696 C695 1.397 . S
C696 C697 1.334 . S
C697 H674 0.950 . S
C697 C696 1.334 . S
C697 C698 1.287 . S
C698 C697 1.287 . S
C698 C699 1.524 . S
C698 H717 0.913 . S
C699 H675 0.950 . S
C699 C698 1.524 . S
C699 C700 1.415 . S
C700 H676 0.950 . S
C700 C695 1.363 . S
C700 C699 1.415 . S
C701 H677 0.951 . S
C701 C702 1.366 . S
C701 C703 1.388 . S
C702 C701 1.366 . S
C702 C706 1.385 . S
C703 H678 0.951 . S
C703 C701 1.388 . S
C703 C704 1.366 . S
C704 C703 1.366 . S
C704 C705 1.414 . S
C704 C707 1.499 . S
C705 H679 0.950 . S
C705 C704 1.414 . S
C705 C706 1.374 . S
C706 H680 0.950 . S
C706 C702 1.385 . S
C706 C705 1.374 . S
C707 C704 1.499 . S
C707 C708 1.373 . S
C707 C709 1.389 . S
C708 H681 0.950 . S
C708 C694 1.377 1_655 S
C708 C707 1.373 . S
C709 C693 1.377 1_655 S
C709 C707 1.389 . S
C709 C710 1.524 . S
C710 C709 1.524 . S
C710 C711 1.397 . S
C710 C715 1.363 . S
C711 H682 0.950 . S
C711 C710 1.397 . S
C711 C712 1.334 . S
C712 H683 0.950 . S
C712 C711 1.334 . S
C712 C713 1.287 . S
C713 C712 1.287 . S
C713 C714 1.524 . S
C713 H716 0.999 . S
C714 H684 0.950 . S
C714 C713 1.524 . S
C714 C715 1.415 . S
C715 H685 0.950 . S
C715 C710 1.363 . S
C715 C714 1.415 . S
H716 C713 0.999 . S
H717 C698 0.913 . S
H718 C736 0.951 . S
H719 C738 0.951 . S
H720 C740 0.950 . S
H721 C741 0.950 . S
H722 C743 0.950 . S
H723 C746 0.950 . S
H724 C747 0.950 . S
H725 C749 0.950 . S
H726 C750 0.950 . S
H727 C751 0.951 . S
H728 C753 0.951 . S
H729 C755 0.950 . S
H730 C756 0.950 . S
H731 C758 0.950 . S
H732 C761 0.950 . S
H733 C762 0.950 . S
H734 C764 0.950 . S
H735 C765 0.950 . S
C736 H718 0.951 . S
C736 C737 1.366 . S
C736 C738 1.388 . S
C737 C736 1.366 . S
C737 C741 1.385 . S
C738 H719 0.951 . S
C738 C736 1.388 . S
C738 C739 1.366 . S
C739 C738 1.366 . S
C739 C740 1.414 . S
C739 C742 1.499 . S
C740 H720 0.950 . S
C740 C739 1.414 . S
C740 C741 1.374 . S
C741 H721 0.950 . S
C741 C737 1.385 . S
C741 C740 1.374 . S
C742 C739 1.499 . S
C742 C743 1.373 . S
C742 C744 1.389 . S
C743 H722 0.950 . S
C743 C742 1.373 . S
C743 C759 1.377 . S
C744 C742 1.389 . S
C744 C745 1.524 . S
C744 C758 1.377 . S
C745 C744 1.524 . S
C745 C746 1.397 . S
C745 C750 1.363 . S
C746 H723 0.950 . S
C746 C745 1.397 . S
C746 C747 1.334 . S
C747 H724 0.950 . S
C747 C746 1.334 . S
C747 C748 1.287 . S
C748 C747 1.287 . S
C748 C749 1.524 . S
C748 H767 0.913 . S
C749 H725 0.950 . S
C749 C748 1.524 . S
C749 C750 1.415 . S
C750 H726 0.950 . S
C750 C745 1.363 . S
C750 C749 1.415 . S
C751 H727 0.951 . S
C751 C752 1.366 . S
C751 C753 1.388 . S
C752 C751 1.366 . S
C752 C756 1.385 . S
C753 H728 0.951 . S
C753 C751 1.388 . S
C753 C754 1.366 . S
C754 C753 1.366 . S
C754 C755 1.414 . S
C754 C757 1.499 . S
C755 H729 0.950 . S
C755 C754 1.414 . S
C755 C756 1.374 . S
C756 H730 0.950 . S
C756 C752 1.385 . S
C756 C755 1.374 . S
C757 C754 1.499 . S
C757 C758 1.373 . S
C757 C759 1.389 . S
C758 H731 0.950 . S
C758 C744 1.377 . S
C758 C757 1.373 . S
C759 C743 1.377 . S
C759 C757 1.389 . S
C759 C760 1.524 . S
C760 C759 1.524 . S
C760 C761 1.397 . S
C760 C765 1.363 . S
C761 H732 0.950 . S
C761 C760 1.397 . S
C761 C762 1.334 . S
C762 H733 0.950 . S
C762 C761 1.334 . S
C762 C763 1.287 . S
C763 C762 1.287 . S
C763 C764 1.524 . S
C763 H766 0.999 . S
C764 H734 0.950 . S
C764 C763 1.524 . S
C764 C765 1.415 . S
C765 H735 0.950 . S
C765 C760 1.363 . S
C765 C764 1.415 . S
H766 C763 0.999 . S
H767 C748 0.913 . S
H768 C786 0.951 . S
H769 C788 0.951 . S
H770 C790 0.950 . S
H771 C791 0.950 . S
H772 C793 0.950 1_455 S
H773 C796 0.950 . S
H774 C797 0.950 . S
H775 C799 0.950 . S
H776 C800 0.950 . S
H777 C801 0.951 . S
H778 C803 0.951 . S
H779 C805 0.950 . S
H780 C806 0.950 . S
H781 C808 0.950 . S
H782 C811 0.950 . S
H783 C812 0.950 . S
H784 C814 0.950 . S
H785 C815 0.950 . S
C786 H768 0.951 . S
C786 C787 1.366 1_655 S
C786 C788 1.388 . S
C787 C786 1.366 1_455 S
C787 C791 1.385 . S
C788 H769 0.951 . S
C788 C786 1.388 . S
C788 C789 1.366 . S
C789 C788 1.366 . S
C789 C790 1.414 1_655 S
C789 C792 1.499 . S
C790 H770 0.950 . S
C790 C789 1.414 1_455 S
C790 C791 1.374 . S
C791 H771 0.950 . S
C791 C787 1.385 . S
C791 C790 1.374 . S
C792 C789 1.499 . S
C792 C793 1.373 . S
C792 C794 1.389 . S
C793 H772 0.950 1_655 S
C793 C792 1.373 . S
C793 C809 1.377 . S
C794 C792 1.389 . S
C794 C795 1.524 . S
C794 C808 1.377 . S
C795 C794 1.524 . S
C795 C796 1.397 . S
C795 C800 1.363 . S
C796 H773 0.950 . S
C796 C795 1.397 . S
C796 C797 1.334 . S
C797 H774 0.950 . S
C797 C796 1.334 . S
C797 C798 1.287 . S
C798 C797 1.287 . S
C798 C799 1.524 . S
C798 H817 0.913 . S
C799 H775 0.950 . S
C799 C798 1.524 . S
C799 C800 1.415 . S
C800 H776 0.950 . S
C800 C795 1.363 . S
C800 C799 1.415 . S
C801 H777 0.951 . S
C801 C802 1.366 . S
C801 C803 1.388 . S
C802 C801 1.366 . S
C802 C806 1.385 . S
C803 H778 0.951 . S
C803 C801 1.388 . S
C803 C804 1.366 . S
C804 C803 1.366 . S
C804 C805 1.414 . S
C804 C807 1.499 . S
C805 H779 0.950 . S
C805 C804 1.414 . S
C805 C806 1.374 . S
C806 H780 0.950 . S
C806 C802 1.385 . S
C806 C805 1.374 . S
C807 C804 1.499 . S
C807 C808 1.373 . S
C807 C809 1.389 . S
C808 H781 0.950 . S
C808 C794 1.377 . S
C808 C807 1.373 . S
C809 C793 1.377 . S
C809 C807 1.389 . S
C809 C810 1.524 . S
C810 C809 1.524 . S
C810 C811 1.397 . S
C810 C815 1.363 1_655 S
C811 H782 0.950 . S
C811 C810 1.397 . S
C811 C812 1.334 . S
C812 H783 0.950 . S
C812 C811 1.334 . S
C812 C813 1.287 1_655 S
C813 C812 1.287 1_455 S
C813 C814 1.524 . S
C813 H816 0.999 . S
C814 H784 0.950 . S
C814 C813 1.524 . S
C814 C815 1.415 . S
C815 H785 0.950 . S
C815 C810 1.363 1_455 S
C815 C814 1.415 . S
H816 C813 0.999 . S
H817 C798 0.913 . S
H818 C836 0.951 . S
H819 C838 0.951 . S
H820 C840 0.950 . S
H821 C841 0.950 . S
H822 C843 0.950 . S
H823 C846 0.950 . S
H824 C847 0.950 . S
H825 C849 0.950 . S
H826 C850 0.950 . S
H827 C851 0.951 . S
H828 C853 0.951 . S
H829 C855 0.950 . S
H830 C856 0.950 . S
H831 C858 0.950 . S
H832 C861 0.950 . S
H833 C862 0.950 . S
H834 C864 0.950 . S
H835 C865 0.950 . S
C836 H818 0.951 . S
C836 C837 1.366 . S
C836 C838 1.388 . S
C837 C836 1.366 . S
C837 C841 1.385 . S
C838 H819 0.951 . S
C838 C836 1.388 . S
C838 C839 1.366 . S
C839 C838 1.366 . S
C839 C840 1.414 . S
C839 C842 1.499 . S
C840 H820 0.950 . S
C840 C839 1.414 . S
C840 C841 1.374 . S
C841 H821 0.950 . S
C841 C837 1.385 . S
C841 C840 1.374 . S
C842 C839 1.499 . S
C842 C843 1.373 . S
C842 C844 1.389 . S
C843 H822 0.950 . S
C843 C842 1.373 . S
C843 C859 1.377 . S
C844 C842 1.389 . S
C844 C845 1.524 . S
C844 C858 1.377 . S
C845 C844 1.524 . S
C845 C846 1.397 . S
C845 C850 1.363 . S
C846 H823 0.950 . S
C846 C845 1.397 . S
C846 C847 1.334 . S
C847 H824 0.950 . S
C847 C846 1.334 . S
C847 C848 1.287 . S
C848 C847 1.287 . S
C848 C849 1.524 . S
C848 H867 0.913 . S
C849 H825 0.950 . S
C849 C848 1.524 . S
C849 C850 1.415 . S
C850 H826 0.950 . S
C850 C845 1.363 . S
C850 C849 1.415 . S
C851 H827 0.951 . S
C851 C852 1.366 . S
C851 C853 1.388 . S
C852 C851 1.366 . S
C852 C856 1.385 . S
C853 H828 0.951 . S
C853 C851 1.388 . S
C853 C854 1.366 . S
C854 C853 1.366 . S
C854 C855 1.414 . S
C854 C857 1.499 . S
C855 H829 0.950 . S
C855 C854 1.414 . S
C855 C856 1.374 . S
C856 H830 0.950 . S
C856 C852 1.385 . S
C856 C855 1.374 . S
C857 C854 1.499 . S
C857 C858 1.373 . S
C857 C859 1.389 . S
C858 H831 0.950 . S
C858 C844 1.377 . S
C858 C857 1.373 . S
C859 C843 1.377 . S
C859 C857 1.389 . S
C859 C860 1.524 . S
C860 C859 1.524 . S
C860 C861 1.397 . S
C860 C865 1.363 . S
C861 H832 0.950 . S
C861 C860 1.397 . S
C861 C862 1.334 . S
C862 H833 0.950 . S
C862 C861 1.334 . S
C862 C863 1.287 . S
C863 C862 1.287 . S
C863 C864 1.524 . S
C863 H866 0.999 . S
C864 H834 0.950 . S
C864 C863 1.524 . S
C864 C865 1.415 . S
C865 H835 0.950 . S
C865 C860 1.363 . S
C865 C864 1.415 . S
H866 C863 0.999 . S
H867 C848 0.913 . S
H868 C886 0.951 . S
H869 C888 0.951 . S
H870 C890 0.950 . S
H871 C891 0.950 . S
H872 C893 0.950 . S
H873 C896 0.950 . S
H874 C897 0.950 . S
H875 C899 0.950 . S
H876 C900 0.950 . S
H877 C901 0.951 . S
H878 C903 0.951 . S
H879 C905 0.950 . S
H880 C906 0.950 . S
H881 C908 0.950 1_565 S
H882 C911 0.950 . S
H883 C912 0.950 . S
H884 C914 0.950 . S
H885 C915 0.950 . S
C886 H868 0.951 . S
C886 C887 1.366 . S
C886 C888 1.388 . S
C887 C886 1.366 . S
C887 C891 1.385 . S
C888 H869 0.951 . S
C888 C886 1.388 . S
C888 C889 1.366 . S
C889 C888 1.366 . S
C889 C890 1.414 . S
C889 C892 1.499 . S
C890 H870 0.950 . S
C890 C889 1.414 . S
C890 C891 1.374 . S
C891 H871 0.950 . S
C891 C887 1.385 . S
C891 C890 1.374 . S
C892 C889 1.499 . S
C892 C893 1.373 . S
C892 C894 1.389 . S
C893 H872 0.950 . S
C893 C892 1.373 . S
C893 C909 1.377 . S
C894 C892 1.389 . S
C894 C895 1.524 . S
C894 C908 1.377 . S
C895 C894 1.524 . S
C895 C896 1.397 . S
C895 C900 1.363 1_545 S
C896 H873 0.950 . S
C896 C895 1.397 . S
C896 C897 1.334 . S
C897 H874 0.950 . S
C897 C896 1.334 . S
C897 C898 1.287 1_545 S
C898 C897 1.287 1_565 S
C898 C899 1.524 . S
C898 H917 0.913 . S
C899 H875 0.950 . S
C899 C898 1.524 . S
C899 C900 1.415 . S
C900 H876 0.950 . S
C900 C895 1.363 1_565 S
C900 C899 1.415 . S
C901 H877 0.951 . S
C901 C902 1.366 1_545 S
C901 C903 1.388 . S
C902 C901 1.366 1_565 S
C902 C906 1.385 . S
C903 H878 0.951 . S
C903 C901 1.388 . S
C903 C904 1.366 . S
C904 C903 1.366 . S
C904 C905 1.414 1_545 S
C904 C907 1.499 . S
C905 H879 0.950 . S
C905 C904 1.414 1_565 S
C905 C906 1.374 . S
C906 H880 0.950 . S
C906 C902 1.385 . S
C906 C905 1.374 . S
C907 C904 1.499 . S
C907 C908 1.373 . S
C907 C909 1.389 . S
C908 H881 0.950 1_545 S
C908 C894 1.377 . S
C908 C907 1.373 . S
C909 C893 1.377 . S
C909 C907 1.389 . S
C909 C910 1.524 . S
C910 C909 1.524 . S
C910 C911 1.397 . S
C910 C915 1.363 . S
C911 H882 0.950 . S
C911 C910 1.397 . S
C911 C912 1.334 . S
C912 H883 0.950 . S
C912 C911 1.334 . S
C912 C913 1.287 . S
C913 C912 1.287 . S
C913 C914 1.524 . S
C913 H916 0.999 . S
C914 H884 0.950 . S
C914 C913 1.524 . S
C914 C915 1.415 . S
C915 H885 0.950 . S
C915 C910 1.363 . S
C915 C914 1.415 . S
H916 C913 0.999 . S
H917 C898 0.913 . S
H918 C936 0.951 . S
H919 C938 0.951 . S
H920 C940 0.950 . S
H921 C941 0.950 . S
H922 C943 0.950 . S
H923 C946 0.950 . S
H924 C947 0.950 1_556 S
H925 C949 0.950 . S
H926 C950 0.950 . S
H927 C951 0.951 . S
H928 C953 0.951 . S
H929 C955 0.950 . S
H930 C956 0.950 . S
H931 C958 0.950 . S
H932 C961 0.950 . S
H933 C962 0.950 . S
H934 C964 0.950 . S
H935 C965 0.950 . S
C936 H918 0.951 . S
C936 C937 1.366 . S
C936 C938 1.388 . S
C937 C936 1.366 . S
C937 C941 1.385 . S
C938 H919 0.951 . S
C938 C936 1.388 . S
C938 C939 1.366 . S
C939 C938 1.366 . S
C939 C940 1.414 . S
C939 C942 1.499 . S
C940 H920 0.950 . S
C940 C939 1.414 . S
C940 C941 1.374 . S
C941 H921 0.950 . S
C941 C937 1.385 . S
C941 C940 1.374 . S
C942 C939 1.499 . S
C942 C943 1.373 . S
C942 C944 1.389 . S
C943 H922 0.950 . S
C943 C942 1.373 . S
C943 C959 1.377 . S
C944 C942 1.389 . S
C944 C945 1.524 . S
C944 C958 1.377 . S
C945 C944 1.524 . S
C945 C946 1.397 . S
C945 C950 1.363 . S
C946 H923 0.950 . S
C946 C945 1.397 . S
C946 C947 1.334 . S
C947 H924 0.950 1_554 S
C947 C946 1.334 . S
C947 C948 1.287 . S
C948 C947 1.287 . S
C948 C949 1.524 . S
C948 H967 0.913 1_554 S
C949 H925 0.950 . S
C949 C948 1.524 . S
C949 C950 1.415 . S
C950 H926 0.950 . S
C950 C945 1.363 . S
C950 C949 1.415 . S
C951 H927 0.951 . S
C951 C952 1.366 . S
C951 C953 1.388 . S
C952 C951 1.366 . S
C952 C956 1.385 . S
C953 H928 0.951 . S
C953 C951 1.388 . S
C953 C954 1.366 . S
C954 C953 1.366 . S
C954 C955 1.414 . S
C954 C957 1.499 . S
C955 H929 0.950 . S
C955 C954 1.414 . S
C955 C956 1.374 . S
C956 H930 0.950 . S
C956 C952 1.385 . S
C956 C955 1.374 . S
C957 C954 1.499 . S
C957 C958 1.373 . S
C957 C959 1.389 . S
C958 H931 0.950 . S
C958 C944 1.377 . S
C958 C957 1.373 . S
C959 C943 1.377 . S
C959 C957 1.389 . S
C959 C960 1.524 . S
C960 C959 1.524 . S
C960 C961 1.397 . S
C960 C965 1.363 . S
C961 H932 0.950 . S
C961 C960 1.397 . S
C961 C962 1.334 . S
C962 H933 0.950 . S
C962 C961 1.334 . S
C962 C963 1.287 . S
C963 C962 1.287 . S
C963 C964 1.524 . S
C963 H966 0.999 . S
C964 H934 0.950 . S
C964 C963 1.524 . S
C964 C965 1.415 . S
C965 H935 0.950 . S
C965 C960 1.363 . S
C965 C964 1.415 . S
H966 C963 0.999 . S
H967 C948 0.913 1_556 S
H968 C986 0.951 . S
H969 C988 0.951 . S
H970 C990 0.950 . S
H971 C991 0.950 . S
H972 C993 0.950 1_565 S
H973 C996 0.950 . S
H974 C997 0.950 1_556 S
H975 C999 0.950 . S
H976 C1000 0.950 . S
H977 C1001 0.951 . S
H978 C1003 0.951 . S
H979 C1005 0.950 . S
H980 C1006 0.950 . S
H981 C1008 0.950 . S
H982 C1011 0.950 . S
H983 C1012 0.950 . S
H984 C1014 0.950 . S
H985 C1015 0.950 . S
C986 H968 0.951 . S
C986 C987 1.366 1_545 S
C986 C988 1.388 . S
C987 C986 1.366 1_565 S
C987 C991 1.385 . S
C988 H969 0.951 . S
C988 C986 1.388 . S
C988 C989 1.366 . S
C989 C988 1.366 . S
C989 C990 1.414 1_545 S
C989 C992 1.499 . S
C990 H970 0.950 . S
C990 C989 1.414 1_565 S
C990 C991 1.374 . S
C991 H971 0.950 . S
C991 C987 1.385 . S
C991 C990 1.374 . S
C992 C989 1.499 . S
C992 C993 1.373 . S
C992 C994 1.389 . S
C993 H972 0.950 1_545 S
C993 C992 1.373 . S
C993 C1009 1.377 . S
C994 C992 1.389 . S
C994 C995 1.524 . S
C994 C1008 1.377 . S
C995 C994 1.524 . S
C995 C996 1.397 . S
C995 C1000 1.363 . S
C996 H973 0.950 . S
C996 C995 1.397 . S
C996 C997 1.334 . S
C997 H974 0.950 1_554 S
C997 C996 1.334 . S
C997 C998 1.287 . S
C998 C997 1.287 . S
C998 C999 1.524 . S
C998 H1017 0.913 1_554 S
C999 H975 0.950 . S
C999 C998 1.524 . S
C999 C1000 1.415 . S
C1000 H976 0.950 . S
C1000 C995 1.363 . S
C1000 C999 1.415 . S
C1001 H977 0.951 . S
C1001 C1002 1.366 . S
C1001 C1003 1.388 . S
C1002 C1001 1.366 . S
C1002 C1006 1.385 . S
C1003 H978 0.951 . S
C1003 C1001 1.388 . S
C1003 C1004 1.366 . S
C1004 C1003 1.366 . S
C1004 C1005 1.414 . S
C1004 C1007 1.499 . S
C1005 H979 0.950 . S
C1005 C1004 1.414 . S
C1005 C1006 1.374 . S
C1006 H980 0.950 . S
C1006 C1002 1.385 . S
C1006 C1005 1.374 . S
C1007 C1004 1.499 . S
C1007 C1008 1.373 . S
C1007 C1009 1.389 . S
C1008 H981 0.950 . S
C1008 C994 1.377 . S
C1008 C1007 1.373 . S
C1009 C993 1.377 . S
C1009 C1007 1.389 . S
C1009 C1010 1.524 . S
C1010 C1009 1.524 . S
C1010 C1011 1.397 . S
C1010 C1015 1.363 1_545 S
C1011 H982 0.950 . S
C1011 C1010 1.397 . S
C1011 C1012 1.334 . S
C1012 H983 0.950 . S
C1012 C1011 1.334 . S
C1012 C1013 1.287 1_545 S
C1013 C1012 1.287 1_565 S
C1013 C1014 1.524 . S
C1013 H1016 0.999 . S
C1014 H984 0.950 . S
C1014 C1013 1.524 . S
C1014 C1015 1.415 . S
C1015 H985 0.950 . S
C1015 C1010 1.363 1_565 S
C1015 C1014 1.415 . S
H1016 C1013 0.999 . S
H1017 C998 0.913 1_556 S
H1018 C1036 0.951 . S
H1019 C1038 0.951 . S
H1020 C1040 0.950 . S
H1021 C1041 0.950 . S
H1022 C1043 0.950 . S
H1023 C1046 0.950 . S
H1024 C1047 0.950 . S
H1025 C1049 0.950 . S
H1026 C1050 0.950 . S
H1027 C1051 0.951 . S
H1028 C1053 0.951 . S
H1029 C1055 0.950 . S
H1030 C1056 0.950 . S
H1031 C1058 0.950 1_455 S
H1032 C1061 0.950 . S
H1033 C1062 0.950 . S
H1034 C1064 0.950 . S
H1035 C1065 0.950 . S
C1036 H1018 0.951 . S
C1036 C1037 1.366 . S
C1036 C1038 1.388 . S
C1037 C1036 1.366 . S
C1037 C1041 1.385 . S
C1038 H1019 0.951 . S
C1038 C1036 1.388 . S
C1038 C1039 1.366 . S
C1039 C1038 1.366 . S
C1039 C1040 1.414 . S
C1039 C1042 1.499 . S
C1040 H1020 0.950 . S
C1040 C1039 1.414 . S
C1040 C1041 1.374 . S
C1041 H1021 0.950 . S
C1041 C1037 1.385 . S
C1041 C1040 1.374 . S
C1042 C1039 1.499 . S
C1042 C1043 1.373 . S
C1042 C1044 1.389 . S
C1043 H1022 0.950 . S
C1043 C1042 1.373 . S
C1043 C1059 1.377 . S
C1044 C1042 1.389 . S
C1044 C1045 1.524 . S
C1044 C1058 1.377 . S
C1045 C1044 1.524 . S
C1045 C1046 1.397 . S
C1045 C1050 1.363 1_655 S
C1046 H1023 0.950 . S
C1046 C1045 1.397 . S
C1046 C1047 1.334 . S
C1047 H1024 0.950 . S
C1047 C1046 1.334 . S
C1047 C1048 1.283 1_655 S
C1048 C1047 1.283 1_455 S
C1048 C1049 1.528 . S
C1048 H1067 0.912 . S
C1049 H1025 0.950 . S
C1049 C1048 1.528 . S
C1049 C1050 1.415 . S
C1050 H1026 0.950 . S
C1050 C1045 1.363 1_455 S
C1050 C1049 1.415 . S
C1051 H1027 0.951 . S
C1051 C1052 1.366 1_655 S
C1051 C1053 1.388 . S
C1052 C1051 1.366 1_455 S
C1052 C1056 1.385 . S
C1053 H1028 0.951 . S
C1053 C1051 1.388 . S
C1053 C1054 1.366 . S
C1054 C1053 1.366 . S
C1054 C1055 1.414 1_655 S
C1054 C1057 1.499 . S
C1055 H1029 0.950 . S
C1055 C1054 1.414 1_455 S
C1055 C1056 1.374 . S
C1056 H1030 0.950 . S
C1056 C1052 1.385 . S
C1056 C1055 1.374 . S
C1057 C1054 1.499 . S
C1057 C1058 1.373 . S
C1057 C1059 1.389 . S
C1058 H1031 0.950 1_655 S
C1058 C1044 1.377 . S
C1058 C1057 1.373 . S
C1059 C1043 1.377 . S
C1059 C1057 1.389 . S
C1059 C1060 1.524 . S
C1060 C1059 1.524 . S
C1060 C1061 1.397 . S
C1060 C1065 1.363 . S
C1061 H1032 0.950 . S
C1061 C1060 1.397 . S
C1061 C1062 1.334 . S
C1062 H1033 0.950 . S
C1062 C1061 1.334 . S
C1062 C1063 1.287 . S
C1063 C1062 1.287 . S
C1063 C1064 1.524 . S
C1063 H1066 0.999 . S
C1064 H1034 0.950 . S
C1064 C1063 1.524 . S
C1064 C1065 1.415 . S
C1065 H1035 0.950 . S
C1065 C1060 1.363 . S
C1065 C1064 1.415 . S
H1066 C1063 0.999 . S
H1067 C1048 0.912 . S
H1068 C1086 0.951 . S
H1069 C1088 0.951 . S
H1070 C1090 0.950 . S
H1071 C1091 0.950 . S
H1072 C1093 0.950 . S
H1073 C1096 0.950 . S
H1074 C1097 0.950 . S
H1075 C1099 0.950 . S
H1076 C1100 0.950 . S
H1077 C1101 0.951 . S
H1078 C1103 0.951 . S
H1079 C1105 0.950 . S
H1080 C1106 0.950 . S
H1081 C1108 0.950 . S
H1082 C1111 0.950 . S
H1083 C1112 0.950 . S
H1084 C1114 0.950 1_554 S
H1085 C1115 0.950 . S
C1086 H1068 0.951 . S
C1086 C1087 1.366 . S
C1086 C1088 1.388 . S
C1087 C1086 1.366 . S
C1087 C1091 1.385 . S
C1088 H1069 0.951 . S
C1088 C1086 1.388 . S
C1088 C1089 1.366 . S
C1089 C1088 1.366 . S
C1089 C1090 1.414 . S
C1089 C1092 1.499 . S
C1090 H1070 0.950 . S
C1090 C1089 1.414 . S
C1090 C1091 1.374 . S
C1091 H1071 0.950 . S
C1091 C1087 1.385 . S
C1091 C1090 1.374 . S
C1092 C1089 1.499 . S
C1092 C1093 1.373 . S
C1092 C1094 1.389 . S
C1093 H1072 0.950 . S
C1093 C1092 1.373 . S
C1093 C1109 1.377 . S
C1094 C1092 1.389 . S
C1094 C1095 1.524 . S
C1094 C1108 1.377 . S
C1095 C1094 1.524 . S
C1095 C1096 1.397 . S
C1095 C1100 1.363 . S
C1096 H1073 0.950 . S
C1096 C1095 1.397 . S
C1096 C1097 1.334 . S
C1097 H1074 0.950 . S
C1097 C1096 1.334 . S
C1097 C1098 1.287 . S
C1098 C1097 1.287 . S
C1098 C1099 1.524 . S
C1098 H1117 0.913 . S
C1099 H1075 0.950 . S
C1099 C1098 1.524 . S
C1099 C1100 1.415 . S
C1100 H1076 0.950 . S
C1100 C1095 1.363 . S
C1100 C1099 1.415 . S
C1101 H1077 0.951 . S
C1101 C1102 1.366 . S
C1101 C1103 1.388 . S
C1102 C1101 1.366 . S
C1102 C1106 1.385 . S
C1103 H1078 0.951 . S
C1103 C1101 1.388 . S
C1103 C1104 1.366 . S
C1104 C1103 1.366 . S
C1104 C1105 1.414 . S
C1104 C1107 1.499 . S
C1105 H1079 0.950 . S
C1105 C1104 1.414 . S
C1105 C1106 1.374 . S
C1106 H1080 0.950 . S
C1106 C1102 1.385 . S
C1106 C1105 1.374 . S
C1107 C1104 1.499 . S
C1107 C1108 1.373 . S
C1107 C1109 1.389 . S
C1108 H1081 0.950 . S
C1108 C1094 1.377 . S
C1108 C1107 1.373 . S
C1109 C1093 1.377 . S
C1109 C1107 1.389 . S
C1109 C1110 1.524 . S
C1110 C1109 1.524 . S
C1110 C1111 1.397 . S
C1110 C1115 1.363 . S
C1111 H1082 0.950 . S
C1111 C1110 1.397 . S
C1111 C1112 1.334 . S
C1112 H1083 0.950 . S
C1112 C1111 1.334 . S
C1112 C1113 1.287 . S
C1113 C1112 1.287 . S
C1113 C1114 1.524 . S
C1113 H1116 0.999 . S
C1114 H1084 0.950 1_556 S
C1114 C1113 1.524 . S
C1114 C1115 1.415 . S
C1115 H1085 0.950 . S
C1115 C1110 1.363 . S
C1115 C1114 1.415 . S
H1116 C1113 0.999 . S
H1117 C1098 0.913 . S
H1118 C1136 0.951 . S
H1119 C1138 0.951 . S
H1120 C1140 0.950 . S
H1121 C1141 0.950 . S
H1122 C1143 0.950 . S
H1123 C1146 0.950 . S
H1124 C1147 0.950 . S
H1125 C1149 0.950 . S
H1126 C1150 0.950 . S
H1127 C1151 0.951 . S
H1128 C1153 0.951 . S
H1129 C1155 0.950 . S
H1130 C1156 0.950 . S
H1131 C1158 0.950 . S
H1132 C1161 0.950 . S
H1133 C1162 0.950 . S
H1134 C1164 0.950 . S
H1135 C1165 0.950 . S
C1136 H1118 0.951 . S
C1136 C1137 1.366 . S
C1136 C1138 1.388 . S
C1137 C1136 1.366 . S
C1137 C1141 1.385 1_545 S
C1138 H1119 0.951 . S
C1138 C1136 1.388 . S
C1138 C1139 1.366 1_545 S
C1139 C1138 1.366 1_565 S
C1139 C1140 1.414 . S
C1139 C1142 1.499 . S
C1140 H1120 0.950 . S
C1140 C1139 1.414 . S
C1140 C1141 1.374 . S
C1141 H1121 0.950 . S
C1141 C1137 1.385 1_565 S
C1141 C1140 1.374 . S
C1142 C1139 1.499 . S
C1142 C1143 1.373 . S
C1142 C1144 1.389 . S
C1143 H1122 0.950 . S
C1143 C1142 1.373 . S
C1143 C1159 1.377 . S
C1144 C1142 1.389 . S
C1144 C1145 1.524 . S
C1144 C1158 1.377 . S
C1145 C1144 1.524 . S
C1145 C1146 1.397 . S
C1145 C1150 1.363 1_565 S
C1146 H1123 0.950 . S
C1146 C1145 1.397 . S
C1146 C1147 1.334 1_556 S
C1147 H1124 0.950 . S
C1147 C1146 1.334 1_554 S
C1147 C1148 1.363 . S
C1148 C1147 1.363 . S
C1148 C1149 1.455 1_565 S
C1148 H1167 0.905 1_565 S
C1149 H1125 0.950 . S
C1149 C1148 1.455 1_545 S
C1149 C1150 1.415 1_554 S
C1150 H1126 0.950 . S
C1150 C1145 1.363 1_545 S
C1150 C1149 1.415 1_556 S
C1151 H1127 0.951 . S
C1151 C1152 1.366 . S
C1151 C1153 1.388 . S
C1152 C1151 1.366 . S
C1152 C1156 1.385 . S
C1153 H1128 0.951 . S
C1153 C1151 1.388 . S
C1153 C1154 1.366 . S
C1154 C1153 1.366 . S
C1154 C1155 1.414 . S
C1154 C1157 1.499 . S
C1155 H1129 0.950 . S
C1155 C1154 1.414 . S
C1155 C1156 1.374 . S
C1156 H1130 0.950 . S
C1156 C1152 1.385 . S
C1156 C1155 1.374 . S
C1157 C1154 1.499 . S
C1157 C1158 1.373 . S
C1157 C1159 1.389 . S
C1158 H1131 0.950 . S
C1158 C1144 1.377 . S
C1158 C1157 1.373 . S
C1159 C1143 1.377 . S
C1159 C1157 1.389 . S
C1159 C1160 1.524 . S
C1160 C1159 1.524 . S
C1160 C1161 1.397 . S
C1160 C1165 1.363 . S
C1161 H1132 0.950 . S
C1161 C1160 1.397 . S
C1161 C1162 1.334 . S
C1162 H1133 0.950 . S
C1162 C1161 1.334 . S
C1162 C1163 1.287 . S
C1163 C1162 1.287 . S
C1163 C1164 1.524 . S
C1163 H1166 0.999 . S
C1164 H1134 0.950 . S
C1164 C1163 1.524 . S
C1164 C1165 1.415 . S
C1165 H1135 0.950 . S
C1165 C1160 1.363 . S
C1165 C1164 1.415 . S
H1166 C1163 0.999 . S
H1167 C1148 0.905 1_545 S
H1168 C1186 0.951 . S
H1169 C1188 0.951 . S
H1170 C1190 0.950 . S
H1171 C1191 0.950 . S
H1172 C1193 0.950 . S
H1173 C1196 0.950 . S
H1174 C1197 0.950 . S
H1175 C1199 0.950 . S
H1176 C1200 0.971 . S
H1177 C1201 0.951 . S
H1178 C1203 0.951 . S
H1179 C1205 0.950 . S
H1180 C1206 0.950 . S
H1181 C1208 1.015 . S
H1182 C1211 0.950 . S
H1183 C1212 0.950 . S
H1184 C1214 0.950 . S
H1185 C1215 0.950 . S
C1186 H1168 0.951 . S
C1186 C1187 1.366 . S
C1186 C1188 1.388 . S
C1187 C1186 1.366 . S
C1187 C1191 1.385 . S
C1188 H1169 0.951 . S
C1188 C1186 1.388 . S
C1188 C1189 1.366 . S
C1189 C1188 1.366 . S
C1189 C1190 1.414 . S
C1189 C1192 1.499 . S
C1190 H1170 0.950 . S
C1190 C1189 1.414 . S
C1190 C1191 1.374 . S
C1191 H1171 0.950 . S
C1191 C1187 1.385 . S
C1191 C1190 1.374 . S
C1192 C1189 1.499 . S
C1192 C1193 1.373 . S
C1192 C1194 1.389 . S
C1193 H1172 0.950 . S
C1193 C1192 1.373 . S
C1193 C1209 1.377 . S
C1194 C1192 1.389 . S
C1194 C1195 1.524 . S
C1194 C1208 1.377 . S
C1195 C1194 1.524 . S
C1195 C1196 1.397 . S
C1195 C1200 1.345 1_455 S
C1196 H1173 0.950 . S
C1196 C1195 1.397 . S
C1196 C1197 1.334 . S
C1197 H1174 0.950 . S
C1197 C1196 1.334 . S
C1197 C1198 1.287 . S
C1198 C1197 1.287 . S
C1198 C1199 1.524 1_455 S
C1198 H1217 0.913 . S
C1199 H1175 0.950 . S
C1199 C1198 1.524 1_655 S
C1199 C1200 1.414 . S
C1200 H1176 0.971 . S
C1200 C1195 1.345 1_655 S
C1200 C1199 1.414 . S
C1201 H1177 0.951 . S
C1201 C1202 1.366 1_455 S
C1201 C1203 1.388 . S
C1202 C1201 1.366 1_655 S
C1202 C1206 1.385 . S
C1203 H1178 0.951 . S
C1203 C1201 1.388 . S
C1203 C1204 1.366 . S
C1204 C1203 1.366 . S
C1204 C1205 1.414 1_455 S
C1204 C1207 1.499 . S
C1205 H1179 0.950 . S
C1205 C1204 1.414 1_655 S
C1205 C1206 1.374 . S
C1206 H1180 0.950 . S
C1206 C1202 1.385 . S
C1206 C1205 1.374 . S
C1207 C1204 1.499 . S
C1207 C1208 1.373 . S
C1207 C1209 1.389 . S
C1208 H1181 1.015 . S
C1208 C1194 1.377 . S
C1208 C1207 1.373 . S
C1209 C1193 1.377 . S
C1209 C1207 1.389 . S
C1209 C1210 1.524 . S
C1210 C1209 1.524 . S
C1210 C1211 1.397 . S
C1210 C1215 1.363 . S
C1211 H1182 0.950 . S
C1211 C1210 1.397 . S
C1211 C1212 1.334 1_556 S
C1212 H1183 0.950 . S
C1212 C1211 1.334 1_554 S
C1212 C1213 1.287 . S
C1213 C1212 1.287 . S
C1213 C1214 1.524 . S
C1213 H1216 0.999 . S
C1214 H1184 0.950 . S
C1214 C1213 1.524 . S
C1214 C1215 1.415 1_554 S
C1215 H1185 0.950 . S
C1215 C1210 1.363 . S
C1215 C1214 1.415 1_556 S
H1216 C1213 0.999 . S
H1217 C1198 0.913 . S
H1218 C1236 0.951 . S
H1219 C1238 0.951 . S
H1220 C1240 0.950 . S
H1221 C1241 0.950 . S
H1222 C1243 0.950 . S
H1223 C1246 0.950 . S
H1224 C1247 0.950 . S
H1225 C1249 0.950 . S
H1226 C1250 0.950 . S
H1227 C1251 0.951 . S
H1228 C1253 0.951 . S
H1229 C1255 0.950 . S
H1230 C1256 0.950 . S
H1231 C1258 0.950 . S
H1232 C1261 0.950 . S
H1233 C1262 0.950 . S
H1234 C1264 0.950 . S
H1235 C1265 0.950 . S
C1236 H1218 0.951 . S
C1236 C1237 1.366 . S
C1236 C1238 1.388 . S
C1237 C1236 1.366 . S
C1237 C1241 1.385 . S
C1238 H1219 0.951 . S
C1238 C1236 1.388 . S
C1238 C1239 1.366 . S
C1239 C1238 1.366 . S
C1239 C1240 1.414 . S
C1239 C1242 1.499 . S
C1240 H1220 0.950 . S
C1240 C1239 1.414 . S
C1240 C1241 1.374 . S
C1241 H1221 0.950 . S
C1241 C1237 1.385 . S
C1241 C1240 1.374 . S
C1242 C1239 1.499 . S
C1242 C1243 1.373 . S
C1242 C1244 1.389 . S
C1243 H1222 0.950 . S
C1243 C1242 1.373 . S
C1243 C1259 1.377 . S
C1244 C1242 1.389 . S
C1244 C1245 1.524 . S
C1244 C1258 1.377 . S
C1245 C1244 1.524 . S
C1245 C1246 1.397 . S
C1245 C1250 1.363 . S
C1246 H1223 0.950 . S
C1246 C1245 1.397 . S
C1246 C1247 1.334 . S
C1247 H1224 0.950 . S
C1247 C1246 1.334 . S
C1247 C1248 1.287 . S
C1248 C1247 1.287 . S
C1248 C1249 1.524 . S
C1248 H1267 0.913 . S
C1249 H1225 0.950 . S
C1249 C1248 1.524 . S
C1249 C1250 1.415 . S
C1250 H1226 0.950 . S
C1250 C1245 1.363 . S
C1250 C1249 1.415 . S
C1251 H1227 0.951 . S
C1251 C1252 1.366 . S
C1251 C1253 1.388 . S
C1252 C1251 1.366 . S
C1252 C1256 1.385 1_655 S
C1253 H1228 0.951 . S
C1253 C1251 1.388 . S
C1253 C1254 1.366 1_655 S
C1254 C1253 1.366 1_455 S
C1254 C1255 1.414 . S
C1254 C1257 1.499 . S
C1255 H1229 0.950 . S
C1255 C1254 1.414 . S
C1255 C1256 1.374 . S
C1256 H1230 0.950 . S
C1256 C1252 1.385 1_455 S
C1256 C1255 1.374 . S
C1257 C1254 1.499 . S
C1257 C1258 1.373 . S
C1257 C1259 1.389 . S
C1258 H1231 0.950 . S
C1258 C1244 1.377 . S
C1258 C1257 1.373 . S
C1259 C1243 1.377 . S
C1259 C1257 1.389 . S
C1259 C1260 1.524 1_455 S
C1260 C1259 1.524 1_655 S
C1260 C1261 1.397 . S
C1260 C1265 1.363 . S
C1261 H1232 0.950 . S
C1261 C1260 1.397 . S
C1261 C1262 1.334 . S
C1262 H1233 0.950 . S
C1262 C1261 1.334 . S
C1262 C1263 1.287 . S
C1263 C1262 1.287 . S
C1263 C1264 1.524 . S
C1263 H1266 0.999 . S
C1264 H1234 0.950 . S
C1264 C1263 1.524 . S
C1264 C1265 1.415 . S
C1265 H1235 0.950 . S
C1265 C1260 1.363 . S
C1265 C1264 1.415 . S
H1266 C1263 0.999 . S
H1267 C1248 0.913 . S
H1268 C1286 0.951 . S
H1269 C1288 0.951 . S
H1270 C1290 0.950 . S
H1271 C1291 0.950 . S
H1272 C1293 0.950 . S
H1273 C1296 0.950 . S
H1274 C1297 0.950 . S
H1275 C1299 0.950 . S
H1276 C1300 0.950 . S
H1277 C1301 0.951 . S
H1278 C1303 0.951 . S
H1279 C1305 0.950 . S
H1280 C1306 0.950 . S
H1281 C1308 0.950 . S
H1282 C1311 0.950 . S
H1283 C1312 0.950 . S
H1284 C1314 0.950 . S
H1285 C1315 0.950 . S
C1286 H1268 0.951 . S
C1286 C1287 1.366 . S
C1286 C1288 1.388 . S
C1287 C1286 1.366 . S
C1287 C1291 1.385 . S
C1288 H1269 0.951 . S
C1288 C1286 1.388 . S
C1288 C1289 1.366 . S
C1289 C1288 1.366 . S
C1289 C1290 1.414 . S
C1289 C1292 1.499 . S
C1290 H1270 0.950 . S
C1290 C1289 1.414 . S
C1290 C1291 1.374 . S
C1291 H1271 0.950 . S
C1291 C1287 1.385 . S
C1291 C1290 1.374 . S
C1292 C1289 1.499 . S
C1292 C1293 1.373 . S
C1292 C1294 1.389 . S
C1293 H1272 0.950 . S
C1293 C1292 1.373 . S
C1293 C1309 1.377 . S
C1294 C1292 1.389 . S
C1294 C1295 1.524 . S
C1294 C1308 1.377 . S
C1295 C1294 1.524 . S
C1295 C1296 1.397 . S
C1295 C1300 1.363 . S
C1296 H1273 0.950 . S
C1296 C1295 1.397 . S
C1296 C1297 1.334 . S
C1297 H1274 0.950 . S
C1297 C1296 1.334 . S
C1297 C1298 1.287 . S
C1298 C1297 1.287 . S
C1298 C1299 1.524 . S
C1298 H1317 0.913 . S
C1299 H1275 0.950 . S
C1299 C1298 1.524 . S
C1299 C1300 1.415 . S
C1300 H1276 0.950 . S
C1300 C1295 1.363 . S
C1300 C1299 1.415 . S
C1301 H1277 0.951 . S
C1301 C1302 1.366 . S
C1301 C1303 1.388 . S
C1302 C1301 1.366 . S
C1302 C1306 1.385 . S
C1303 H1278 0.951 . S
C1303 C1301 1.388 . S
C1303 C1304 1.366 . S
C1304 C1303 1.366 . S
C1304 C1305 1.414 . S
C1304 C1307 1.499 . S
C1305 H1279 0.950 . S
C1305 C1304 1.414 . S
C1305 C1306 1.374 . S
C1306 H1280 0.950 . S
C1306 C1302 1.385 . S
C1306 C1305 1.374 . S
C1307 C1304 1.499 . S
C1307 C1308 1.373 . S
C1307 C1309 1.389 . S
C1308 H1281 0.950 . S
C1308 C1294 1.377 . S
C1308 C1307 1.373 . S
C1309 C1293 1.377 . S
C1309 C1307 1.389 . S
C1309 C1310 1.524 . S
C1310 C1309 1.524 . S
C1310 C1311 1.397 . S
C1310 C1315 1.363 . S
C1311 H1282 0.950 . S
C1311 C1310 1.397 . S
C1311 C1312 1.334 . S
C1312 H1283 0.950 . S
C1312 C1311 1.334 . S
C1312 C1313 1.287 . S
C1313 C1312 1.287 . S
C1313 C1314 1.524 . S
C1313 H1316 0.999 . S
C1314 H1284 0.950 . S
C1314 C1313 1.524 . S
C1314 C1315 1.415 . S
C1315 H1285 0.950 . S
C1315 C1310 1.363 . S
C1315 C1314 1.415 . S
H1316 C1313 0.999 . S
H1317 C1298 0.913 . S
H1318 C1336 0.951 . S
H1319 C1338 0.951 . S
H1320 C1340 0.950 . S
H1321 C1341 0.950 . S
H1322 C1343 0.950 . S
H1323 C1346 0.950 . S
H1324 C1347 0.950 . S
H1325 C1349 0.950 . S
H1326 C1350 0.950 . S
H1327 C1351 0.951 . S
H1328 C1353 0.951 . S
H1329 C1355 0.950 . S
H1330 C1356 0.950 . S
H1331 C1358 0.950 . S
H1332 C1361 0.950 1_565 S
H1333 C1362 0.950 . S
H1334 C1364 0.950 . S
H1335 C1365 0.950 . S
C1336 H1318 0.951 . S
C1336 C1337 1.366 . S
C1336 C1338 1.388 . S
C1337 C1336 1.366 . S
C1337 C1341 1.385 . S
C1338 H1319 0.951 . S
C1338 C1336 1.388 . S
C1338 C1339 1.366 . S
C1339 C1338 1.366 . S
C1339 C1340 1.414 . S
C1339 C1342 1.499 . S
C1340 H1320 0.950 . S
C1340 C1339 1.414 . S
C1340 C1341 1.374 . S
C1341 H1321 0.950 . S
C1341 C1337 1.385 . S
C1341 C1340 1.374 . S
C1342 C1339 1.499 . S
C1342 C1343 1.373 . S
C1342 C1344 1.389 . S
C1343 H1322 0.950 . S
C1343 C1342 1.373 . S
C1343 C1359 1.377 . S
C1344 C1342 1.389 . S
C1344 C1345 1.524 . S
C1344 C1358 1.377 . S
C1345 C1344 1.524 . S
C1345 C1346 1.397 . S
C1345 C1350 1.363 . S
C1346 H1323 0.950 . S
C1346 C1345 1.397 . S
C1346 C1347 1.334 . S
C1347 H1324 0.950 . S
C1347 C1346 1.334 . S
C1347 C1348 1.287 . S
C1348 C1347 1.287 . S
C1348 C1349 1.524 . S
C1348 H1367 0.913 . S
C1349 H1325 0.950 . S
C1349 C1348 1.524 . S
C1349 C1350 1.415 . S
C1350 H1326 0.950 . S
C1350 C1345 1.363 . S
C1350 C1349 1.415 . S
C1351 H1327 0.951 . S
C1351 C1352 1.366 . S
C1351 C1353 1.388 . S
C1352 C1351 1.366 . S
C1352 C1356 1.385 1_545 S
C1353 H1328 0.951 . S
C1353 C1351 1.388 . S
C1353 C1354 1.366 1_545 S
C1354 C1353 1.366 1_565 S
C1354 C1355 1.414 . S
C1354 C1357 1.499 . S
C1355 H1329 0.950 . S
C1355 C1354 1.414 . S
C1355 C1356 1.374 . S
C1356 H1330 0.950 . S
C1356 C1352 1.385 1_565 S
C1356 C1355 1.374 . S
C1357 C1354 1.499 . S
C1357 C1358 1.373 . S
C1357 C1359 1.389 . S
C1358 H1331 0.950 . S
C1358 C1344 1.377 . S
C1358 C1357 1.373 . S
C1359 C1343 1.377 . S
C1359 C1357 1.389 . S
C1359 C1360 1.524 1_565 S
C1360 C1359 1.524 1_545 S
C1360 C1361 1.397 . S
C1360 C1365 1.363 . S
C1361 H1332 0.950 1_545 S
C1361 C1360 1.397 . S
C1361 C1362 1.334 . S
C1362 H1333 0.950 . S
C1362 C1361 1.334 . S
C1362 C1363 1.287 . S
C1363 C1362 1.287 . S
C1363 C1364 1.524 . S
C1363 H1366 0.999 . S
C1364 H1334 0.950 . S
C1364 C1363 1.524 . S
C1364 C1365 1.415 . S
C1365 H1335 0.950 . S
C1365 C1360 1.363 . S
C1365 C1364 1.415 . S
H1366 C1363 0.999 . S
H1367 C1348 0.913 . S
H1368 C1386 0.951 . S
H1369 C1388 0.951 . S
H1370 C1390 0.950 . S
H1371 C1391 0.950 . S
H1372 C1393 0.950 . S
H1373 C1396 0.950 . S
H1374 C1397 0.950 . S
H1375 C1399 0.950 . S
H1376 C1400 0.950 . S
H1377 C1401 0.951 . S
H1378 C1403 0.951 . S
H1379 C1405 0.950 . S
H1380 C1406 0.950 . S
H1381 C1408 0.950 . S
H1382 C1411 0.950 . S
H1383 C1412 0.950 . S
H1384 C1414 0.950 . S
H1385 C1415 0.950 . S
C1386 H1368 0.951 . S
C1386 C1387 1.366 . S
C1386 C1388 1.388 . S
C1387 C1386 1.366 . S
C1387 C1391 1.385 . S
C1388 H1369 0.951 . S
C1388 C1386 1.388 . S
C1388 C1389 1.366 . S
C1389 C1388 1.366 . S
C1389 C1390 1.414 . S
C1389 C1392 1.499 . S
C1390 H1370 0.950 . S
C1390 C1389 1.414 . S
C1390 C1391 1.374 . S
C1391 H1371 0.950 . S
C1391 C1387 1.385 . S
C1391 C1390 1.374 . S
C1392 C1389 1.499 . S
C1392 C1393 1.373 . S
C1392 C1394 1.389 . S
C1393 H1372 0.950 . S
C1393 C1392 1.373 . S
C1393 C1409 1.377 . S
C1394 C1392 1.389 . S
C1394 C1395 1.524 . S
C1394 C1408 1.377 . S
C1395 C1394 1.524 . S
C1395 C1396 1.397 . S
C1395 C1400 1.363 . S
C1396 H1373 0.950 . S
C1396 C1395 1.397 . S
C1396 C1397 1.334 . S
C1397 H1374 0.950 . S
C1397 C1396 1.334 . S
C1397 C1398 1.287 . S
C1398 C1397 1.287 . S
C1398 C1399 1.524 . S
C1398 H1417 0.913 . S
C1399 H1375 0.950 . S
C1399 C1398 1.524 . S
C1399 C1400 1.415 . S
C1400 H1376 0.950 . S
C1400 C1395 1.363 . S
C1400 C1399 1.415 . S
C1401 H1377 0.951 . S
C1401 C1402 1.366 . S
C1401 C1403 1.388 . S
C1402 C1401 1.366 . S
C1402 C1406 1.385 . S
C1403 H1378 0.951 . S
C1403 C1401 1.388 . S
C1403 C1404 1.366 . S
C1404 C1403 1.366 . S
C1404 C1405 1.414 . S
C1404 C1407 1.499 . S
C1405 H1379 0.950 . S
C1405 C1404 1.414 . S
C1405 C1406 1.374 . S
C1406 H1380 0.950 . S
C1406 C1402 1.385 . S
C1406 C1405 1.374 . S
C1407 C1404 1.499 . S
C1407 C1408 1.373 . S
C1407 C1409 1.389 . S
C1408 H1381 0.950 . S
C1408 C1394 1.377 . S
C1408 C1407 1.373 . S
C1409 C1393 1.377 . S
C1409 C1407 1.389 . S
C1409 C1410 1.524 . S
C1410 C1409 1.524 . S
C1410 C1411 1.397 . S
C1410 C1415 1.363 . S
C1411 H1382 0.950 . S
C1411 C1410 1.397 . S
C1411 C1412 1.334 . S
C1412 H1383 0.950 . S
C1412 C1411 1.334 . S
C1412 C1413 1.287 . S
C1413 C1412 1.287 . S
C1413 C1414 1.524 . S
C1413 H1416 0.999 . S
C1414 H1384 0.950 . S
C1414 C1413 1.524 . S
C1414 C1415 1.415 . S
C1415 H1385 0.950 . S
C1415 C1410 1.363 . S
C1415 C1414 1.415 . S
H1416 C1413 0.999 . S
H1417 C1398 0.913 . S
H1418 C1436 0.951 . S
H1419 C1438 0.951 . S
H1420 C1440 0.950 . S
H1421 C1441 0.950 . S
H1422 C1443 0.950 . S
H1423 C1446 0.950 . S
H1424 C1447 0.950 . S
H1425 C1449 0.950 . S
H1426 C1450 0.950 . S
H1427 C1451 0.951 . S
H1428 C1453 0.951 . S
H1429 C1455 0.950 . S
H1430 C1456 0.950 . S
H1431 C1458 0.950 . S
H1432 C1461 0.950 . S
H1433 C1462 0.950 . S
H1434 C1464 0.950 . S
H1435 C1465 0.950 . S
C1436 H1418 0.951 . S
C1436 C1437 1.366 . S
C1436 C1438 1.388 . S
C1437 C1436 1.366 . S
C1437 C1441 1.385 . S
C1438 H1419 0.951 . S
C1438 C1436 1.388 . S
C1438 C1439 1.366 . S
C1439 C1438 1.366 . S
C1439 C1440 1.414 . S
C1439 C1442 1.499 . S
C1440 H1420 0.950 . S
C1440 C1439 1.414 . S
C1440 C1441 1.374 . S
C1441 H1421 0.950 . S
C1441 C1437 1.385 . S
C1441 C1440 1.374 . S
C1442 C1439 1.499 . S
C1442 C1443 1.373 . S
C1442 C1444 1.389 . S
C1443 H1422 0.950 . S
C1443 C1442 1.373 . S
C1443 C1459 1.377 . S
C1444 C1442 1.389 . S
C1444 C1445 1.524 . S
C1444 C1458 1.377 . S
C1445 C1444 1.524 . S
C1445 C1446 1.397 . S
C1445 C1450 1.363 . S
C1446 H1423 0.950 . S
C1446 C1445 1.397 . S
C1446 C1447 1.334 . S
C1447 H1424 0.950 . S
C1447 C1446 1.334 . S
C1447 C1448 1.287 . S
C1448 C1447 1.287 . S
C1448 C1449 1.524 . S
C1448 H1467 0.913 . S
C1449 H1425 0.950 . S
C1449 C1448 1.524 . S
C1449 C1450 1.415 . S
C1450 H1426 0.950 . S
C1450 C1445 1.363 . S
C1450 C1449 1.415 . S
C1451 H1427 0.951 . S
C1451 C1452 1.366 . S
C1451 C1453 1.388 . S
C1452 C1451 1.366 . S
C1452 C1456 1.385 . S
C1453 H1428 0.951 . S
C1453 C1451 1.388 . S
C1453 C1454 1.366 . S
C1454 C1453 1.366 . S
C1454 C1455 1.414 . S
C1454 C1457 1.499 . S
C1455 H1429 0.950 . S
C1455 C1454 1.414 . S
C1455 C1456 1.374 . S
C1456 H1430 0.950 . S
C1456 C1452 1.385 . S
C1456 C1455 1.374 . S
C1457 C1454 1.499 . S
C1457 C1458 1.373 . S
C1457 C1459 1.389 . S
C1458 H1431 0.950 . S
C1458 C1444 1.377 . S
C1458 C1457 1.373 . S
C1459 C1443 1.377 . S
C1459 C1457 1.389 . S
C1459 C1460 1.524 . S
C1460 C1459 1.524 . S
C1460 C1461 1.397 . S
C1460 C1465 1.363 . S
C1461 H1432 0.950 . S
C1461 C1460 1.397 . S
C1461 C1462 1.334 . S
C1462 H1433 0.950 . S
C1462 C1461 1.334 . S
C1462 C1463 1.287 . S
C1463 C1462 1.287 . S
C1463 C1464 1.524 . S
C1463 H1466 0.999 . S
C1464 H1434 0.950 . S
C1464 C1463 1.524 . S
C1464 C1465 1.415 . S
C1465 H1435 0.950 . S
C1465 C1460 1.363 . S
C1465 C1464 1.415 . S
H1466 C1463 0.999 . S
H1467 C1448 0.913 . S
H1468 C1486 0.951 . S
H1469 C1488 0.951 . S
H1470 C1490 0.950 . S
H1471 C1491 0.950 . S
H1472 C1493 0.950 . S
H1473 C1496 0.950 . S
H1474 C1497 0.950 . S
H1475 C1499 0.950 . S
H1476 C1500 0.950 . S
H1477 C1501 0.951 . S
H1478 C1503 0.951 . S
H1479 C1505 0.950 . S
H1480 C1506 0.950 . S
H1481 C1508 0.950 . S
H1482 C1511 0.950 . S
H1483 C1512 0.950 . S
H1484 C1514 0.950 . S
H1485 C1515 0.950 . S
C1486 H1468 0.951 . S
C1486 C1487 1.366 . S
C1486 C1488 1.388 . S
C1487 C1486 1.366 . S
C1487 C1491 1.385 . S
C1488 H1469 0.951 . S
C1488 C1486 1.388 . S
C1488 C1489 1.366 . S
C1489 C1488 1.366 . S
C1489 C1490 1.414 . S
C1489 C1492 1.499 . S
C1490 H1470 0.950 . S
C1490 C1489 1.414 . S
C1490 C1491 1.374 . S
C1491 H1471 0.950 . S
C1491 C1487 1.385 . S
C1491 C1490 1.374 . S
C1492 C1489 1.499 . S
C1492 C1493 1.373 . S
C1492 C1494 1.389 . S
C1493 H1472 0.950 . S
C1493 C1492 1.373 . S
C1493 C1509 1.377 . S
C1494 C1492 1.389 . S
C1494 C1495 1.524 . S
C1494 C1508 1.377 . S
C1495 C1494 1.524 . S
C1495 C1496 1.397 . S
C1495 C1500 1.363 . S
C1496 H1473 0.950 . S
C1496 C1495 1.397 . S
C1496 C1497 1.334 . S
C1497 H1474 0.950 . S
C1497 C1496 1.334 . S
C1497 C1498 1.287 . S
C1498 C1497 1.287 . S
C1498 C1499 1.524 . S
C1498 H1517 0.913 . S
C1499 H1475 0.950 . S
C1499 C1498 1.524 . S
C1499 C1500 1.415 . S
C1500 H1476 0.950 . S
C1500 C1495 1.363 . S
C1500 C1499 1.415 . S
C1501 H1477 0.951 . S
C1501 C1502 1.366 . S
C1501 C1503 1.388 . S
C1502 C1501 1.366 . S
C1502 C1506 1.385 . S
C1503 H1478 0.951 . S
C1503 C1501 1.388 . S
C1503 C1504 1.366 . S
C1504 C1503 1.366 . S
C1504 C1505 1.414 . S
C1504 C1507 1.499 . S
C1505 H1479 0.950 . S
C1505 C1504 1.414 . S
C1505 C1506 1.374 . S
C1506 H1480 0.950 . S
C1506 C1502 1.385 . S
C1506 C1505 1.374 . S
C1507 C1504 1.499 . S
C1507 C1508 1.373 . S
C1507 C1509 1.389 . S
C1508 H1481 0.950 . S
C1508 C1494 1.377 . S
C1508 C1507 1.373 . S
C1509 C1493 1.377 . S
C1509 C1507 1.389 . S
C1509 C1510 1.524 . S
C1510 C1509 1.524 . S
C1510 C1511 1.397 . S
C1510 C1515 1.363 . S
C1511 H1482 0.950 . S
C1511 C1510 1.397 . S
C1511 C1512 1.334 . S
C1512 H1483 0.950 . S
C1512 C1511 1.334 . S
C1512 C1513 1.287 . S
C1513 C1512 1.287 . S
C1513 C1514 1.524 . S
C1513 H1516 0.999 . S
C1514 H1484 0.950 . S
C1514 C1513 1.524 . S
C1514 C1515 1.415 . S
C1515 H1485 0.950 . S
C1515 C1510 1.363 . S
C1515 C1514 1.415 . S
H1516 C1513 0.999 . S
H1517 C1498 0.913 . S
H1518 C1536 0.951 . S
H1519 C1538 0.951 . S
H1520 C1540 0.950 . S
H1521 C1541 0.950 . S
H1522 C1543 0.950 . S
H1523 C1546 0.950 . S
H1524 C1547 0.950 . S
H1525 C1549 0.950 . S
H1526 C1550 0.950 . S
H1527 C1551 0.951 . S
H1528 C1553 0.951 . S
H1529 C1555 0.950 . S
H1530 C1556 0.950 . S
H1531 C1558 0.950 . S
H1532 C1561 0.950 . S
H1533 C1562 0.950 . S
H1534 C1564 0.950 . S
H1535 C1565 0.950 . S
C1536 H1518 0.951 . S
C1536 C1537 1.366 . S
C1536 C1538 1.388 . S
C1537 C1536 1.366 . S
C1537 C1541 1.385 . S
C1538 H1519 0.951 . S
C1538 C1536 1.388 . S
C1538 C1539 1.366 . S
C1539 C1538 1.366 . S
C1539 C1540 1.414 . S
C1539 C1542 1.499 . S
C1540 H1520 0.950 . S
C1540 C1539 1.414 . S
C1540 C1541 1.374 . S
C1541 H1521 0.950 . S
C1541 C1537 1.385 . S
C1541 C1540 1.374 . S
C1542 C1539 1.499 . S
C1542 C1543 1.373 . S
C1542 C1544 1.389 . S
C1543 H1522 0.950 . S
C1543 C1542 1.373 . S
C1543 C1559 1.377 . S
C1544 C1542 1.389 . S
C1544 C1545 1.524 . S
C1544 C1558 1.377 . S
C1545 C1544 1.524 . S
C1545 C1546 1.397 . S
C1545 C1550 1.363 . S
C1546 H1523 0.950 . S
C1546 C1545 1.397 . S
C1546 C1547 1.334 . S
C1547 H1524 0.950 . S
C1547 C1546 1.334 . S
C1547 C1548 1.287 . S
C1548 C1547 1.287 . S
C1548 C1549 1.524 . S
C1548 H1567 0.913 . S
C1549 H1525 0.950 . S
C1549 C1548 1.524 . S
C1549 C1550 1.415 . S
C1550 H1526 0.950 . S
C1550 C1545 1.363 . S
C1550 C1549 1.415 . S
C1551 H1527 0.951 . S
C1551 C1552 1.366 . S
C1551 C1553 1.388 1_556 S
C1552 C1551 1.366 . S
C1552 C1556 1.385 1_556 S
C1553 H1528 0.951 . S
C1553 C1551 1.388 1_554 S
C1553 C1554 1.366 . S
C1554 C1553 1.366 . S
C1554 C1555 1.414 . S
C1554 C1557 1.499 . S
C1555 H1529 0.950 . S
C1555 C1554 1.414 . S
C1555 C1556 1.374 . S
C1556 H1530 0.950 . S
C1556 C1552 1.385 1_554 S
C1556 C1555 1.374 . S
C1557 C1554 1.499 . S
C1557 C1558 1.373 . S
C1557 C1559 1.389 . S
C1558 H1531 0.950 . S
C1558 C1544 1.377 . S
C1558 C1557 1.373 . S
C1559 C1543 1.377 . S
C1559 C1557 1.389 . S
C1559 C1560 1.524 . S
C1560 C1559 1.524 . S
C1560 C1561 1.397 . S
C1560 C1565 1.363 . S
C1561 H1532 0.950 . S
C1561 C1560 1.397 . S
C1561 C1562 1.334 . S
C1562 H1533 0.950 . S
C1562 C1561 1.334 . S
C1562 C1563 1.287 . S
C1563 C1562 1.287 . S
C1563 C1564 1.524 . S
C1563 H1566 0.999 1_554 S
C1564 H1534 0.950 . S
C1564 C1563 1.524 . S
C1564 C1565 1.415 . S
C1565 H1535 0.950 . S
C1565 C1560 1.363 . S
C1565 C1564 1.415 . S
H1566 C1563 0.999 1_556 S
H1567 C1548 0.913 . S
H1568 C1586 0.951 . S
H1569 C1588 0.951 . S
H1570 C1590 0.950 . S
H1571 C1591 0.950 . S
H1572 C1593 0.950 . S
H1573 C1596 0.950 . S
H1574 C1597 0.950 . S
H1575 C1599 0.950 . S
H1576 C1600 0.950 . S
H1577 C1601 0.951 . S
H1578 C1603 0.951 . S
H1579 C1605 0.950 . S
H1580 C1606 0.950 . S
H1581 C1608 0.950 . S
H1582 C1611 0.950 . S
H1583 C1612 0.950 . S
H1584 C1614 0.950 . S
H1585 C1615 0.950 . S
C1586 H1568 0.951 . S
C1586 C1587 1.366 . S
C1586 C1588 1.388 . S
C1587 C1586 1.366 . S
C1587 C1591 1.385 . S
C1588 H1569 0.951 . S
C1588 C1586 1.388 . S
C1588 C1589 1.366 . S
C1589 C1588 1.366 . S
C1589 C1590 1.414 . S
C1589 C1592 1.499 . S
C1590 H1570 0.950 . S
C1590 C1589 1.414 . S
C1590 C1591 1.374 . S
C1591 H1571 0.950 . S
C1591 C1587 1.385 . S
C1591 C1590 1.374 . S
C1592 C1589 1.499 . S
C1592 C1593 1.373 . S
C1592 C1594 1.389 . S
C1593 H1572 0.950 . S
C1593 C1592 1.373 . S
C1593 C1609 1.377 . S
C1594 C1592 1.389 . S
C1594 C1595 1.524 . S
C1594 C1608 1.377 . S
C1595 C1594 1.524 . S
C1595 C1596 1.397 . S
C1595 C1600 1.363 . S
C1596 H1573 0.950 . S
C1596 C1595 1.397 . S
C1596 C1597 1.334 . S
C1597 H1574 0.950 . S
C1597 C1596 1.334 . S
C1597 C1598 1.287 . S
C1598 C1597 1.287 . S
C1598 C1599 1.524 . S
C1598 H1617 0.913 . S
C1599 H1575 0.950 . S
C1599 C1598 1.524 . S
C1599 C1600 1.415 . S
C1600 H1576 0.950 . S
C1600 C1595 1.363 . S
C1600 C1599 1.415 . S
C1601 H1577 0.951 . S
C1601 C1602 1.366 1_554 S
C1601 C1603 1.388 . S
C1602 C1601 1.366 1_556 S
C1602 C1606 1.385 . S
C1603 H1578 0.951 . S
C1603 C1601 1.388 . S
C1603 C1604 1.366 . S
C1604 C1603 1.366 . S
C1604 C1605 1.414 . S
C1604 C1607 1.499 . S
C1605 H1579 0.950 . S
C1605 C1604 1.414 . S
C1605 C1606 1.374 1_554 S
C1606 H1580 0.950 . S
C1606 C1602 1.385 . S
C1606 C1605 1.374 1_556 S
C1607 C1604 1.499 . S
C1607 C1608 1.373 . S
C1607 C1609 1.389 . S
C1608 H1581 0.950 . S
C1608 C1594 1.377 . S
C1608 C1607 1.373 . S
C1609 C1593 1.377 . S
C1609 C1607 1.389 . S
C1609 C1610 1.524 . S
C1610 C1609 1.524 . S
C1610 C1611 1.397 . S
C1610 C1615 1.363 . S
C1611 H1582 0.950 . S
C1611 C1610 1.397 . S
C1611 C1612 1.334 . S
C1612 H1583 0.950 . S
C1612 C1611 1.334 . S
C1612 C1613 1.287 . S
C1613 C1612 1.287 . S
C1613 C1614 1.524 . S
C1613 H1616 0.999 . S
C1614 H1584 0.950 . S
C1614 C1613 1.524 . S
C1614 C1615 1.415 . S
C1615 H1585 0.950 . S
C1615 C1610 1.363 . S
C1615 C1614 1.415 . S
H1616 C1613 0.999 . S
H1617 C1598 0.913 . S
H1618 C1636 0.951 . S
H1619 C1638 0.951 . S
H1620 C1640 0.950 . S
H1621 C1641 0.950 . S
H1622 C1643 0.950 . S
H1623 C1646 0.950 . S
H1624 C1647 0.950 . S
H1625 C1649 0.950 . S
H1626 C1650 0.950 . S
H1627 C1651 0.951 . S
H1628 C1653 0.951 . S
H1629 C1655 0.950 . S
H1630 C1656 0.950 . S
H1631 C1658 0.950 . S
H1632 C1661 0.950 . S
H1633 C1662 0.950 1_556 S
H1634 C1664 0.950 . S
H1635 C1665 0.950 . S
C1636 H1618 0.951 . S
C1636 C1637 1.366 . S
C1636 C1638 1.388 . S
C1637 C1636 1.366 . S
C1637 C1641 1.385 . S
C1638 H1619 0.951 . S
C1638 C1636 1.388 . S
C1638 C1639 1.366 . S
C1639 C1638 1.366 . S
C1639 C1640 1.414 . S
C1639 C1642 1.499 . S
C1640 H1620 0.950 . S
C1640 C1639 1.414 . S
C1640 C1641 1.374 . S
C1641 H1621 0.950 . S
C1641 C1637 1.385 . S
C1641 C1640 1.374 . S
C1642 C1639 1.499 . S
C1642 C1643 1.373 . S
C1642 C1644 1.389 . S
C1643 H1622 0.950 . S
C1643 C1642 1.373 . S
C1643 C1659 1.377 . S
C1644 C1642 1.389 . S
C1644 C1645 1.524 . S
C1644 C1658 1.377 . S
C1645 C1644 1.524 . S
C1645 C1646 1.397 . S
C1645 C1650 1.363 . S
C1646 H1623 0.950 . S
C1646 C1645 1.397 . S
C1646 C1647 1.334 . S
C1647 H1624 0.950 . S
C1647 C1646 1.334 . S
C1647 C1648 1.287 . S
C1648 C1647 1.287 . S
C1648 C1649 1.524 . S
C1648 H1667 0.913 . S
C1649 H1625 0.950 . S
C1649 C1648 1.524 . S
C1649 C1650 1.415 . S
C1650 H1626 0.950 . S
C1650 C1645 1.363 . S
C1650 C1649 1.415 . S
C1651 H1627 0.951 . S
C1651 C1652 1.366 . S
C1651 C1653 1.388 1_556 S
C1652 C1651 1.366 . S
C1652 C1656 1.385 . S
C1653 H1628 0.951 . S
C1653 C1651 1.388 1_554 S
C1653 C1654 1.366 . S
C1654 C1653 1.366 . S
C1654 C1655 1.414 . S
C1654 C1657 1.499 . S
C1655 H1629 0.950 . S
C1655 C1654 1.414 . S
C1655 C1656 1.374 1_554 S
C1656 H1630 0.950 . S
C1656 C1652 1.385 . S
C1656 C1655 1.374 1_556 S
C1657 C1654 1.499 . S
C1657 C1658 1.373 . S
C1657 C1659 1.389 . S
C1658 H1631 0.950 . S
C1658 C1644 1.377 . S
C1658 C1657 1.373 . S
C1659 C1643 1.377 . S
C1659 C1657 1.389 . S
C1659 C1660 1.524 . S
C1660 C1659 1.524 . S
C1660 C1661 1.397 . S
C1660 C1665 1.363 . S
C1661 H1632 0.950 . S
C1661 C1660 1.397 . S
C1661 C1662 1.334 . S
C1662 H1633 0.950 1_554 S
C1662 C1661 1.334 . S
C1662 C1663 1.287 . S
C1663 C1662 1.287 . S
C1663 C1664 1.524 . S
C1663 H1666 0.999 1_554 S
C1664 H1634 0.950 . S
C1664 C1663 1.524 . S
C1664 C1665 1.415 . S
C1665 H1635 0.950 . S
C1665 C1660 1.363 . S
C1665 C1664 1.415 . S
H1666 C1663 0.999 1_556 S
H1667 C1648 0.913 . S
H1668 C1686 0.951 . S
H1669 C1688 0.951 . S
H1670 C1690 0.950 . S
H1671 C1691 0.950 . S
H1672 C1693 0.950 . S
H1673 C1696 0.950 . S
H1674 C1697 0.950 . S
H1675 C1699 0.950 . S
H1676 C1700 0.950 . S
H1677 C1701 0.951 . S
H1678 C1703 0.951 . S
H1679 C1705 0.950 . S
H1680 C1706 0.950 . S
H1681 C1708 0.950 . S
H1682 C1711 0.950 . S
H1683 C1712 0.950 . S
H1684 C1714 0.950 . S
H1685 C1715 0.950 . S
C1686 H1668 0.951 . S
C1686 C1687 1.366 . S
C1686 C1688 1.388 . S
C1687 C1686 1.366 . S
C1687 C1691 1.385 . S
C1688 H1669 0.951 . S
C1688 C1686 1.388 . S
C1688 C1689 1.366 . S
C1689 C1688 1.366 . S
C1689 C1690 1.414 . S
C1689 C1692 1.499 . S
C1690 H1670 0.950 . S
C1690 C1689 1.414 . S
C1690 C1691 1.374 . S
C1691 H1671 0.950 . S
C1691 C1687 1.385 . S
C1691 C1690 1.374 . S
C1692 C1689 1.499 . S
C1692 C1693 1.373 . S
C1692 C1694 1.389 . S
C1693 H1672 0.950 . S
C1693 C1692 1.373 . S
C1693 C1709 1.377 . S
C1694 C1692 1.389 . S
C1694 C1695 1.524 . S
C1694 C1708 1.377 . S
C1695 C1694 1.524 . S
C1695 C1696 1.397 . S
C1695 C1700 1.363 . S
C1696 H1673 0.950 . S
C1696 C1695 1.397 . S
C1696 C1697 1.334 . S
C1697 H1674 0.950 . S
C1697 C1696 1.334 . S
C1697 C1698 1.287 . S
C1698 C1697 1.287 . S
C1698 C1699 1.524 . S
C1698 H1717 0.913 . S
C1699 H1675 0.950 . S
C1699 C1698 1.524 . S
C1699 C1700 1.415 . S
C1700 H1676 0.950 . S
C1700 C1695 1.363 . S
C1700 C1699 1.415 . S
C1701 H1677 0.951 . S
C1701 C1702 1.366 . S
C1701 C1703 1.388 . S
C1702 C1701 1.366 . S
C1702 C1706 1.385 . S
C1703 H1678 0.951 . S
C1703 C1701 1.388 . S
C1703 C1704 1.366 . S
C1704 C1703 1.366 . S
C1704 C1705 1.414 . S
C1704 C1707 1.499 . S
C1705 H1679 0.950 . S
C1705 C1704 1.414 . S
C1705 C1706 1.374 . S
C1706 H1680 0.950 . S
C1706 C1702 1.385 . S
C1706 C1705 1.374 . S
C1707 C1704 1.499 . S
C1707 C1708 1.373 . S
C1707 C1709 1.389 . S
C1708 H1681 0.950 . S
C1708 C1694 1.377 . S
C1708 C1707 1.373 . S
C1709 C1693 1.377 . S
C1709 C1707 1.389 . S
C1709 C1710 1.524 . S
C1710 C1709 1.524 . S
C1710 C1711 1.397 . S
C1710 C1715 1.363 . S
C1711 H1682 0.950 . S
C1711 C1710 1.397 . S
C1711 C1712 1.334 . S
C1712 H1683 0.950 . S
C1712 C1711 1.334 . S
C1712 C1713 1.287 . S
C1713 C1712 1.287 . S
C1713 C1714 1.524 . S
C1713 H1716 0.999 . S
C1714 H1684 0.950 . S
C1714 C1713 1.524 . S
C1714 C1715 1.415 . S
C1715 H1685 0.950 . S
C1715 C1710 1.363 . S
C1715 C1714 1.415 . S
H1716 C1713 0.999 . S
H1717 C1698 0.913 . S
H1718 C1736 0.951 . S
H1719 C1738 0.951 . S
H1720 C1740 0.950 . S
H1721 C1741 0.950 . S
H1722 C1743 0.950 . S
H1723 C1746 0.950 . S
H1724 C1747 0.950 . S
H1725 C1749 0.950 . S
H1726 C1750 0.950 . S
H1727 C1751 0.951 . S
H1728 C1753 0.951 . S
H1729 C1755 0.950 . S
H1730 C1756 0.950 . S
H1731 C1758 0.950 . S
H1732 C1761 0.950 . S
H1733 C1762 0.950 . S
H1734 C1764 0.950 . S
H1735 C1765 0.950 . S
C1736 H1718 0.951 . S
C1736 C1737 1.366 . S
C1736 C1738 1.388 . S
C1737 C1736 1.366 . S
C1737 C1741 1.385 . S
C1738 H1719 0.951 . S
C1738 C1736 1.388 . S
C1738 C1739 1.366 . S
C1739 C1738 1.366 . S
C1739 C1740 1.414 . S
C1739 C1742 1.499 . S
C1740 H1720 0.950 . S
C1740 C1739 1.414 . S
C1740 C1741 1.374 . S
C1741 H1721 0.950 . S
C1741 C1737 1.385 . S
C1741 C1740 1.374 . S
C1742 C1739 1.499 . S
C1742 C1743 1.373 . S
C1742 C1744 1.389 . S
C1743 H1722 0.950 . S
C1743 C1742 1.373 . S
C1743 C1759 1.377 . S
C1744 C1742 1.389 . S
C1744 C1745 1.524 . S
C1744 C1758 1.377 . S
C1745 C1744 1.524 . S
C1745 C1746 1.397 . S
C1745 C1750 1.363 . S
C1746 H1723 0.950 . S
C1746 C1745 1.397 . S
C1746 C1747 1.334 . S
C1747 H1724 0.950 . S
C1747 C1746 1.334 . S
C1747 C1748 1.287 . S
C1748 C1747 1.287 . S
C1748 C1749 1.524 . S
C1748 H1767 0.913 . S
C1749 H1725 0.950 . S
C1749 C1748 1.524 . S
C1749 C1750 1.415 . S
C1750 H1726 0.950 . S
C1750 C1745 1.363 . S
C1750 C1749 1.415 . S
C1751 H1727 0.951 . S
C1751 C1752 1.366 . S
C1751 C1753 1.388 . S
C1752 C1751 1.366 . S
C1752 C1756 1.385 . S
C1753 H1728 0.951 . S
C1753 C1751 1.388 . S
C1753 C1754 1.366 . S
C1754 C1753 1.366 . S
C1754 C1755 1.414 . S
C1754 C1757 1.499 . S
C1755 H1729 0.950 . S
C1755 C1754 1.414 . S
C1755 C1756 1.374 . S
C1756 H1730 0.950 . S
C1756 C1752 1.385 . S
C1756 C1755 1.374 . S
C1757 C1754 1.499 . S
C1757 C1758 1.373 . S
C1757 C1759 1.389 . S
C1758 H1731 0.950 . S
C1758 C1744 1.377 . S
C1758 C1757 1.373 . S
C1759 C1743 1.377 . S
C1759 C1757 1.389 . S
C1759 C1760 1.524 . S
C1760 C1759 1.524 . S
C1760 C1761 1.397 . S
C1760 C1765 1.363 . S
C1761 H1732 0.950 . S
C1761 C1760 1.397 . S
C1761 C1762 1.334 . S
C1762 H1733 0.950 . S
C1762 C1761 1.334 . S
C1762 C1763 1.287 . S
C1763 C1762 1.287 . S
C1763 C1764 1.524 . S
C1763 H1766 0.999 . S
C1764 H1734 0.950 . S
C1764 C1763 1.524 . S
C1764 C1765 1.415 . S
C1765 H1735 0.950 . S
C1765 C1760 1.363 . S
C1765 C1764 1.415 . S
H1766 C1763 0.999 . S
H1767 C1748 0.913 . S
H1768 C1786 0.951 . S
H1769 C1788 0.951 . S
H1770 C1790 0.950 . S
H1771 C1791 0.950 . S
H1772 C1793 0.950 . S
H1773 C1796 0.950 . S
H1774 C1797 0.950 . S
H1775 C1799 0.950 . S
H1776 C1800 0.950 . S
H1777 C1801 0.951 . S
H1778 C1803 0.951 . S
H1779 C1805 0.950 . S
H1780 C1806 0.950 . S
H1781 C1808 0.950 . S
H1782 C1811 0.950 . S
H1783 C1812 0.950 . S
H1784 C1814 0.950 . S
H1785 C1815 0.950 . S
C1786 H1768 0.951 . S
C1786 C1787 1.366 . S
C1786 C1788 1.388 . S
C1787 C1786 1.366 . S
C1787 C1791 1.385 . S
C1788 H1769 0.951 . S
C1788 C1786 1.388 . S
C1788 C1789 1.366 . S
C1789 C1788 1.366 . S
C1789 C1790 1.414 . S
C1789 C1792 1.499 . S
C1790 H1770 0.950 . S
C1790 C1789 1.414 . S
C1790 C1791 1.374 . S
C1791 H1771 0.950 . S
C1791 C1787 1.385 . S
C1791 C1790 1.374 . S
C1792 C1789 1.499 . S
C1792 C1793 1.373 . S
C1792 C1794 1.389 . S
C1793 H1772 0.950 . S
C1793 C1792 1.373 . S
C1793 C1809 1.377 . S
C1794 C1792 1.389 . S
C1794 C1795 1.524 . S
C1794 C1808 1.377 . S
C1795 C1794 1.524 . S
C1795 C1796 1.397 . S
C1795 C1800 1.363 . S
C1796 H1773 0.950 . S
C1796 C1795 1.397 . S
C1796 C1797 1.334 . S
C1797 H1774 0.950 . S
C1797 C1796 1.334 . S
C1797 C1798 1.287 . S
C1798 C1797 1.287 . S
C1798 C1799 1.524 . S
C1798 H1817 0.913 . S
C1799 H1775 0.950 . S
C1799 C1798 1.524 . S
C1799 C1800 1.415 . S
C1800 H1776 0.950 . S
C1800 C1795 1.363 . S
C1800 C1799 1.415 . S
C1801 H1777 0.951 . S
C1801 C1802 1.366 . S
C1801 C1803 1.388 . S
C1802 C1801 1.366 . S
C1802 C1806 1.385 . S
C1803 H1778 0.951 . S
C1803 C1801 1.388 . S
C1803 C1804 1.366 . S
C1804 C1803 1.366 . S
C1804 C1805 1.414 . S
C1804 C1807 1.499 . S
C1805 H1779 0.950 . S
C1805 C1804 1.414 . S
C1805 C1806 1.374 . S
C1806 H1780 0.950 . S
C1806 C1802 1.385 . S
C1806 C1805 1.374 . S
C1807 C1804 1.499 . S
C1807 C1808 1.373 . S
C1807 C1809 1.389 . S
C1808 H1781 0.950 . S
C1808 C1794 1.377 . S
C1808 C1807 1.373 . S
C1809 C1793 1.377 . S
C1809 C1807 1.389 . S
C1809 C1810 1.524 . S
C1810 C1809 1.524 . S
C1810 C1811 1.397 . S
C1810 C1815 1.363 . S
C1811 H1782 0.950 . S
C1811 C1810 1.397 . S
C1811 C1812 1.334 . S
C1812 H1783 0.950 . S
C1812 C1811 1.334 . S
C1812 C1813 1.287 . S
C1813 C1812 1.287 . S
C1813 C1814 1.524 . S
C1813 H1816 0.999 . S
C1814 H1784 0.950 . S
C1814 C1813 1.524 . S
C1814 C1815 1.415 . S
C1815 H1785 0.950 . S
C1815 C1810 1.363 . S
C1815 C1814 1.415 . S
H1816 C1813 0.999 . S
H1817 C1798 0.913 . S
H1818 C1836 0.951 . S
H1819 C1838 0.951 . S
H1820 C1840 0.950 . S
H1821 C1841 0.950 . S
H1822 C1843 0.950 . S
H1823 C1846 0.950 . S
H1824 C1847 0.950 . S
H1825 C1849 0.950 . S
H1826 C1850 0.950 . S
H1827 C1851 0.951 . S
H1828 C1853 0.951 . S
H1829 C1855 0.950 . S
H1830 C1856 0.950 . S
H1831 C1858 0.950 . S
H1832 C1861 0.950 . S
H1833 C1862 0.950 . S
H1834 C1864 0.950 . S
H1835 C1865 0.950 . S
C1836 H1818 0.951 . S
C1836 C1837 1.366 1_556 S
C1836 C1838 1.388 . S
C1837 C1836 1.366 1_554 S
C1837 C1841 1.385 . S
C1838 H1819 0.951 . S
C1838 C1836 1.388 . S
C1838 C1839 1.366 . S
C1839 C1838 1.366 . S
C1839 C1840 1.414 . S
C1839 C1842 1.499 . S
C1840 H1820 0.950 . S
C1840 C1839 1.414 . S
C1840 C1841 1.374 1_556 S
C1841 H1821 0.950 . S
C1841 C1837 1.385 . S
C1841 C1840 1.374 1_554 S
C1842 C1839 1.499 . S
C1842 C1843 1.373 . S
C1842 C1844 1.389 . S
C1843 H1822 0.950 . S
C1843 C1842 1.373 . S
C1843 C1859 1.377 . S
C1844 C1842 1.389 . S
C1844 C1845 1.524 . S
C1844 C1858 1.377 . S
C1845 C1844 1.524 . S
C1845 C1846 1.397 . S
C1845 C1850 1.363 . S
C1846 H1823 0.950 . S
C1846 C1845 1.397 . S
C1846 C1847 1.334 . S
C1847 H1824 0.950 . S
C1847 C1846 1.334 . S
C1847 C1848 1.287 . S
C1848 C1847 1.287 . S
C1848 C1849 1.524 . S
C1848 H1867 0.913 . S
C1849 H1825 0.950 . S
C1849 C1848 1.524 . S
C1849 C1850 1.415 . S
C1850 H1826 0.950 . S
C1850 C1845 1.363 . S
C1850 C1849 1.415 . S
C1851 H1827 0.951 . S
C1851 C1852 1.366 . S
C1851 C1853 1.388 . S
C1852 C1851 1.366 . S
C1852 C1856 1.385 . S
C1853 H1828 0.951 . S
C1853 C1851 1.388 . S
C1853 C1854 1.366 . S
C1854 C1853 1.366 . S
C1854 C1855 1.414 . S
C1854 C1857 1.499 . S
C1855 H1829 0.950 . S
C1855 C1854 1.414 . S
C1855 C1856 1.374 . S
C1856 H1830 0.950 . S
C1856 C1852 1.385 . S
C1856 C1855 1.374 . S
C1857 C1854 1.499 . S
C1857 C1858 1.373 . S
C1857 C1859 1.389 . S
C1858 H1831 0.950 . S
C1858 C1844 1.377 . S
C1858 C1857 1.373 . S
C1859 C1843 1.377 . S
C1859 C1857 1.389 . S
C1859 C1860 1.524 . S
C1860 C1859 1.524 . S
C1860 C1861 1.397 . S
C1860 C1865 1.363 . S
C1861 H1832 0.950 . S
C1861 C1860 1.397 . S
C1861 C1862 1.334 . S
C1862 H1833 0.950 . S
C1862 C1861 1.334 . S
C1862 C1863 1.287 . S
C1863 C1862 1.287 . S
C1863 C1864 1.524 . S
C1863 H1866 0.999 . S
C1864 H1834 0.950 . S
C1864 C1863 1.524 . S
C1864 C1865 1.415 . S
C1865 H1835 0.950 . S
C1865 C1860 1.363 . S
C1865 C1864 1.415 . S
H1866 C1863 0.999 . S
H1867 C1848 0.913 . S
H1868 C1886 0.946 1_554 S
H1869 C1888 0.951 . S
H1870 C1890 0.950 . S
H1871 C1891 0.950 . S
H1872 C1893 0.950 . S
H1873 C1896 0.950 . S
H1874 C1897 0.950 1_554 S
H1875 C1899 0.950 . S
H1876 C1900 0.950 . S
H1877 C1901 0.951 . S
H1878 C1903 0.951 . S
H1879 C1905 0.950 . S
H1880 C1906 0.950 . S
H1881 C1908 0.950 . S
H1882 C1911 0.950 . S
H1883 C1912 0.950 . S
H1884 C1914 0.950 . S
H1885 C1915 0.950 . S
C1886 H1868 0.946 1_556 S
C1886 C1887 1.338 1_556 S
C1886 C1888 1.422 . S
C1887 C1886 1.338 1_554 S
C1887 C1891 1.385 . S
C1888 H1869 0.951 . S
C1888 C1886 1.422 . S
C1888 C1889 1.366 . S
C1889 C1888 1.366 . S
C1889 C1890 1.414 . S
C1889 C1892 1.499 . S
C1890 H1870 0.950 . S
C1890 C1889 1.414 . S
C1890 C1891 1.374 1_556 S
C1891 H1871 0.950 . S
C1891 C1887 1.385 . S
C1891 C1890 1.374 1_554 S
C1892 C1889 1.499 . S
C1892 C1893 1.373 . S
C1892 C1894 1.389 . S
C1893 H1872 0.950 . S
C1893 C1892 1.373 . S
C1893 C1909 1.377 . S
C1894 C1892 1.389 . S
C1894 C1895 1.524 . S
C1894 C1908 1.377 . S
C1895 C1894 1.524 . S
C1895 C1896 1.397 . S
C1895 C1900 1.363 . S
C1896 H1873 0.950 . S
C1896 C1895 1.397 . S
C1896 C1897 1.334 . S
C1897 H1874 0.950 1_556 S
C1897 C1896 1.334 . S
C1897 C1898 1.287 . S
C1898 C1897 1.287 . S
C1898 C1899 1.524 . S
C1898 H1917 0.913 . S
C1899 H1875 0.950 . S
C1899 C1898 1.524 . S
C1899 C1900 1.415 . S
C1900 H1876 0.950 . S
C1900 C1895 1.363 . S
C1900 C1899 1.415 . S
C1901 H1877 0.951 . S
C1901 C1902 1.366 . S
C1901 C1903 1.388 . S
C1902 C1901 1.366 . S
C1902 C1906 1.385 . S
C1903 H1878 0.951 . S
C1903 C1901 1.388 . S
C1903 C1904 1.366 . S
C1904 C1903 1.366 . S
C1904 C1905 1.414 . S
C1904 C1907 1.499 . S
C1905 H1879 0.950 . S
C1905 C1904 1.414 . S
C1905 C1906 1.374 . S
C1906 H1880 0.950 . S
C1906 C1902 1.385 . S
C1906 C1905 1.374 . S
C1907 C1904 1.499 . S
C1907 C1908 1.373 . S
C1907 C1909 1.389 . S
C1908 H1881 0.950 . S
C1908 C1894 1.377 . S
C1908 C1907 1.373 . S
C1909 C1893 1.377 . S
C1909 C1907 1.389 . S
C1909 C1910 1.524 . S
C1910 C1909 1.524 . S
C1910 C1911 1.397 . S
C1910 C1915 1.363 . S
C1911 H1882 0.950 . S
C1911 C1910 1.397 . S
C1911 C1912 1.334 . S
C1912 H1883 0.950 . S
C1912 C1911 1.334 . S
C1912 C1913 1.287 . S
C1913 C1912 1.287 . S
C1913 C1914 1.524 . S
C1913 H1916 0.999 . S
C1914 H1884 0.950 . S
C1914 C1913 1.524 . S
C1914 C1915 1.415 . S
C1915 H1885 0.950 . S
C1915 C1910 1.363 . S
C1915 C1914 1.415 . S
H1916 C1913 0.999 . S
H1917 C1898 0.913 . S
H1918 C1936 0.951 . S
H1919 C1938 0.951 . S
H1920 C1940 0.950 . S
H1921 C1941 0.950 . S
H1922 C1943 0.950 . S
H1923 C1946 0.950 . S
H1924 C1947 0.950 . S
H1925 C1949 0.950 . S
H1926 C1950 0.950 . S
H1927 C1951 0.951 . S
H1928 C1953 0.951 . S
H1929 C1955 0.950 . S
H1930 C1956 0.950 . S
H1931 C1958 0.950 . S
H1932 C1961 0.950 . S
H1933 C1962 0.950 . S
H1934 C1964 0.950 . S
H1935 C1965 0.950 . S
C1936 H1918 0.951 . S
C1936 C1937 1.366 . S
C1936 C1938 1.388 . S
C1937 C1936 1.366 . S
C1937 C1941 1.385 . S
C1938 H1919 0.951 . S
C1938 C1936 1.388 . S
C1938 C1939 1.366 . S
C1939 C1938 1.366 . S
C1939 C1940 1.414 . S
C1939 C1942 1.499 . S
C1940 H1920 0.950 . S
C1940 C1939 1.414 . S
C1940 C1941 1.374 . S
C1941 H1921 0.950 . S
C1941 C1937 1.385 . S
C1941 C1940 1.374 . S
C1942 C1939 1.499 . S
C1942 C1943 1.373 . S
C1942 C1944 1.389 . S
C1943 H1922 0.950 . S
C1943 C1942 1.373 . S
C1943 C1959 1.377 . S
C1944 C1942 1.389 . S
C1944 C1945 1.524 . S
C1944 C1958 1.377 . S
C1945 C1944 1.524 . S
C1945 C1946 1.397 . S
C1945 C1950 1.363 . S
C1946 H1923 0.950 . S
C1946 C1945 1.397 . S
C1946 C1947 1.334 . S
C1947 H1924 0.950 . S
C1947 C1946 1.334 . S
C1947 C1948 1.287 . S
C1948 C1947 1.287 . S
C1948 C1949 1.524 . S
C1948 H1967 0.913 . S
C1949 H1925 0.950 . S
C1949 C1948 1.524 . S
C1949 C1950 1.415 . S
C1950 H1926 0.950 . S
C1950 C1945 1.363 . S
C1950 C1949 1.415 . S
C1951 H1927 0.951 . S
C1951 C1952 1.366 . S
C1951 C1953 1.388 1_554 S
C1952 C1951 1.366 . S
C1952 C1956 1.385 1_554 S
C1953 H1928 0.951 . S
C1953 C1951 1.388 1_556 S
C1953 C1954 1.366 . S
C1954 C1953 1.366 . S
C1954 C1955 1.414 . S
C1954 C1957 1.499 . S
C1955 H1929 0.950 . S
C1955 C1954 1.414 . S
C1955 C1956 1.374 . S
C1956 H1930 0.950 . S
C1956 C1952 1.385 1_556 S
C1956 C1955 1.374 . S
C1957 C1954 1.499 . S
C1957 C1958 1.373 . S
C1957 C1959 1.389 . S
C1958 H1931 0.950 . S
C1958 C1944 1.377 . S
C1958 C1957 1.373 . S
C1959 C1943 1.377 . S
C1959 C1957 1.389 . S
C1959 C1960 1.524 . S
C1960 C1959 1.524 . S
C1960 C1961 1.397 . S
C1960 C1965 1.363 . S
C1961 H1932 0.950 . S
C1961 C1960 1.397 . S
C1961 C1962 1.334 . S
C1962 H1933 0.950 . S
C1962 C1961 1.334 . S
C1962 C1963 1.287 . S
C1963 C1962 1.287 . S
C1963 C1964 1.524 . S
C1963 H1966 0.999 . S
C1964 H1934 0.950 . S
C1964 C1963 1.524 . S
C1964 C1965 1.415 . S
C1965 H1935 0.950 . S
C1965 C1960 1.363 . S
C1965 C1964 1.415 . S
H1966 C1963 0.999 . S
H1967 C1948 0.913 . S
H1968 C1986 0.951 . S
H1969 C1988 0.951 . S
H1970 C1990 0.950 . S
H1971 C1991 0.950 . S
H1972 C1993 0.950 . S
H1973 C1996 0.950 . S
H1974 C1997 0.950 . S
H1975 C1999 0.950 . S
H1976 C2000 0.950 1_655 S
H1977 C2001 0.951 . S
H1978 C2003 0.951 . S
H1979 C2005 0.950 . S
H1980 C2006 0.950 . S
H1981 C2008 0.950 . S
H1982 C2011 0.950 . S
H1983 C2012 0.950 . S
H1984 C2014 0.950 . S
H1985 C2015 0.950 1_455 S
C1986 H1968 0.951 . S
C1986 C1987 1.366 . S
C1986 C1988 1.388 . S
C1987 C1986 1.366 . S
C1987 C1991 1.385 . S
C1988 H1969 0.951 . S
C1988 C1986 1.388 . S
C1988 C1989 1.366 . S
C1989 C1988 1.366 . S
C1989 C1990 1.414 . S
C1989 C1992 1.499 . S
C1990 H1970 0.950 . S
C1990 C1989 1.414 . S
C1990 C1991 1.374 . S
C1991 H1971 0.950 . S
C1991 C1987 1.385 . S
C1991 C1990 1.374 . S
C1992 C1989 1.499 . S
C1992 C1993 1.373 . S
C1992 C1994 1.389 . S
C1993 H1972 0.950 . S
C1993 C1992 1.373 . S
C1993 C2009 1.377 1_455 S
C1994 C1992 1.389 . S
C1994 C1995 1.524 . S
C1994 C2008 1.377 1_455 S
C1995 C1994 1.524 . S
C1995 C1996 1.397 . S
C1995 C2000 1.363 . S
C1996 H1973 0.950 . S
C1996 C1995 1.397 . S
C1996 C1997 1.334 . S
C1997 H1974 0.950 . S
C1997 C1996 1.334 . S
C1997 C1998 1.287 . S
C1998 C1997 1.287 . S
C1998 C1999 1.524 . S
C1998 H2017 0.913 . S
C1999 H1975 0.950 . S
C1999 C1998 1.524 . S
C1999 C2000 1.415 . S
C2000 H1976 0.950 1_455 S
C2000 C1995 1.363 . S
C2000 C1999 1.415 . S
C2001 H1977 0.951 . S
C2001 C2002 1.366 . S
C2001 C2003 1.388 . S
C2002 C2001 1.366 . S
C2002 C2006 1.385 . S
C2003 H1978 0.951 . S
C2003 C2001 1.388 . S
C2003 C2004 1.366 . S
C2004 C2003 1.366 . S
C2004 C2005 1.414 . S
C2004 C2007 1.499 . S
C2005 H1979 0.950 . S
C2005 C2004 1.414 . S
C2005 C2006 1.374 . S
C2006 H1980 0.950 . S
C2006 C2002 1.385 . S
C2006 C2005 1.374 . S
C2007 C2004 1.499 . S
C2007 C2008 1.373 . S
C2007 C2009 1.389 . S
C2008 H1981 0.950 . S
C2008 C1994 1.377 1_655 S
C2008 C2007 1.373 . S
C2009 C1993 1.377 1_655 S
C2009 C2007 1.389 . S
C2009 C2010 1.524 . S
C2010 C2009 1.524 . S
C2010 C2011 1.397 . S
C2010 C2015 1.363 . S
C2011 H1982 0.950 . S
C2011 C2010 1.397 . S
C2011 C2012 1.334 . S
C2012 H1983 0.950 . S
C2012 C2011 1.334 . S
C2012 C2013 1.287 . S
C2013 C2012 1.287 . S
C2013 C2014 1.524 . S
C2013 H2016 0.999 . S
C2014 H1984 0.950 . S
C2014 C2013 1.524 . S
C2014 C2015 1.415 . S
C2015 H1985 0.950 1_655 S
C2015 C2010 1.363 . S
C2015 C2014 1.415 . S
H2016 C2013 0.999 . S
H2017 C1998 0.913 . S
H2018 C2036 0.951 . S
H2019 C2038 0.951 . S
H2020 C2040 0.950 . S
H2021 C2041 0.950 . S
H2022 C2043 0.950 . S
H2023 C2046 0.950 . S
H2024 C2047 0.950 . S
H2025 C2049 0.950 . S
H2026 C2050 0.950 . S
H2027 C2051 0.951 . S
H2028 C2053 0.951 . S
H2029 C2055 0.950 . S
H2030 C2056 0.950 . S
H2031 C2058 0.950 . S
H2032 C2061 0.950 . S
H2033 C2062 0.950 . S
H2034 C2064 0.950 . S
H2035 C2065 0.950 . S
C2036 H2018 0.951 . S
C2036 C2037 1.366 . S
C2036 C2038 1.388 . S
C2037 C2036 1.366 . S
C2037 C2041 1.385 . S
C2038 H2019 0.951 . S
C2038 C2036 1.388 . S
C2038 C2039 1.366 . S
C2039 C2038 1.366 . S
C2039 C2040 1.414 . S
C2039 C2042 1.499 . S
C2040 H2020 0.950 . S
C2040 C2039 1.414 . S
C2040 C2041 1.374 . S
C2041 H2021 0.950 . S
C2041 C2037 1.385 . S
C2041 C2040 1.374 . S
C2042 C2039 1.499 . S
C2042 C2043 1.373 . S
C2042 C2044 1.389 . S
C2043 H2022 0.950 . S
C2043 C2042 1.373 . S
C2043 C2059 1.377 . S
C2044 C2042 1.389 . S
C2044 C2045 1.524 . S
C2044 C2058 1.377 . S
C2045 C2044 1.524 . S
C2045 C2046 1.397 . S
C2045 C2050 1.363 . S
C2046 H2023 0.950 . S
C2046 C2045 1.397 . S
C2046 C2047 1.334 . S
C2047 H2024 0.950 . S
C2047 C2046 1.334 . S
C2047 C2048 1.287 . S
C2048 C2047 1.287 . S
C2048 C2049 1.524 . S
C2048 H2067 0.913 . S
C2049 H2025 0.950 . S
C2049 C2048 1.524 . S
C2049 C2050 1.415 . S
C2050 H2026 0.950 . S
C2050 C2045 1.363 . S
C2050 C2049 1.415 . S
C2051 H2027 0.951 . S
C2051 C2052 1.366 . S
C2051 C2053 1.388 . S
C2052 C2051 1.366 . S
C2052 C2056 1.385 . S
C2053 H2028 0.951 . S
C2053 C2051 1.388 . S
C2053 C2054 1.366 . S
C2054 C2053 1.366 . S
C2054 C2055 1.414 . S
C2054 C2057 1.499 . S
C2055 H2029 0.950 . S
C2055 C2054 1.414 . S
C2055 C2056 1.374 . S
C2056 H2030 0.950 . S
C2056 C2052 1.385 . S
C2056 C2055 1.374 . S
C2057 C2054 1.499 . S
C2057 C2058 1.373 . S
C2057 C2059 1.389 . S
C2058 H2031 0.950 . S
C2058 C2044 1.377 . S
C2058 C2057 1.373 . S
C2059 C2043 1.377 . S
C2059 C2057 1.389 . S
C2059 C2060 1.524 . S
C2060 C2059 1.524 . S
C2060 C2061 1.397 . S
C2060 C2065 1.363 . S
C2061 H2032 0.950 . S
C2061 C2060 1.397 . S
C2061 C2062 1.334 . S
C2062 H2033 0.950 . S
C2062 C2061 1.334 . S
C2062 C2063 1.287 . S
C2063 C2062 1.287 . S
C2063 C2064 1.524 . S
C2063 H2066 0.999 . S
C2064 H2034 0.950 . S
C2064 C2063 1.524 . S
C2064 C2065 1.415 . S
C2065 H2035 0.950 . S
C2065 C2060 1.363 . S
C2065 C2064 1.415 . S
H2066 C2063 0.999 . S
H2067 C2048 0.913 . S
H2068 C2086 0.951 . S
H2069 C2088 0.951 . S
H2070 C2090 0.950 . S
H2071 C2091 0.950 . S
H2072 C2093 0.928 . S
H2073 C2096 0.950 . S
H2074 C2097 0.950 . S
H2075 C2099 0.950 . S
H2076 C2100 0.950 . S
H2077 C2101 0.951 . S
H2078 C2103 0.951 . S
H2079 C2105 0.950 . S
H2080 C2106 0.950 . S
H2081 C2108 0.928 . S
H2082 C2111 0.950 . S
H2083 C2112 0.950 . S
H2084 C2114 0.950 . S
H2085 C2115 0.950 . S
C2086 H2068 0.951 . S
C2086 C2087 1.366 . S
C2086 C2088 1.388 . S
C2087 C2086 1.366 . S
C2087 C2091 1.385 . S
C2088 H2069 0.951 . S
C2088 C2086 1.388 . S
C2088 C2089 1.366 . S
C2089 C2088 1.366 . S
C2089 C2090 1.414 . S
C2089 C2092 1.499 . S
C2090 H2070 0.950 . S
C2090 C2089 1.414 . S
C2090 C2091 1.374 . S
C2091 H2071 0.950 . S
C2091 C2087 1.385 . S
C2091 C2090 1.374 . S
C2092 C2089 1.499 . S
C2092 C2093 1.364 1_545 S
C2092 C2094 1.389 . S
C2093 H2072 0.928 . S
C2093 C2092 1.364 1_565 S
C2093 C2109 1.413 . S
C2094 C2092 1.389 . S
C2094 C2095 1.524 . S
C2094 C2108 1.414 . S
C2095 C2094 1.524 . S
C2095 C2096 1.397 . S
C2095 C2100 1.363 . S
C2096 H2073 0.950 . S
C2096 C2095 1.397 . S
C2096 C2097 1.334 . S
C2097 H2074 0.950 . S
C2097 C2096 1.334 . S
C2097 C2098 1.287 . S
C2098 C2097 1.287 . S
C2098 C2099 1.524 . S
C2098 H2117 0.913 . S
C2099 H2075 0.950 . S
C2099 C2098 1.524 . S
C2099 C2100 1.415 . S
C2100 H2076 0.950 . S
C2100 C2095 1.363 . S
C2100 C2099 1.415 . S
C2101 H2077 0.951 . S
C2101 C2102 1.366 . S
C2101 C2103 1.388 . S
C2102 C2101 1.366 . S
C2102 C2106 1.385 . S
C2103 H2078 0.951 . S
C2103 C2101 1.388 . S
C2103 C2104 1.366 . S
C2104 C2103 1.366 . S
C2104 C2105 1.414 . S
C2104 C2107 1.499 . S
C2105 H2079 0.950 . S
C2105 C2104 1.414 . S
C2105 C2106 1.374 . S
C2106 H2080 0.950 . S
C2106 C2102 1.385 . S
C2106 C2105 1.374 . S
C2107 C2104 1.499 . S
C2107 C2108 1.364 1_565 S
C2107 C2109 1.389 . S
C2108 H2081 0.928 . S
C2108 C2094 1.414 . S
C2108 C2107 1.364 1_545 S
C2109 C2093 1.413 . S
C2109 C2107 1.389 . S
C2109 C2110 1.524 . S
C2110 C2109 1.524 . S
C2110 C2111 1.397 . S
C2110 C2115 1.363 . S
C2111 H2082 0.950 . S
C2111 C2110 1.397 . S
C2111 C2112 1.334 . S
C2112 H2083 0.950 . S
C2112 C2111 1.334 . S
C2112 C2113 1.287 . S
C2113 C2112 1.287 . S
C2113 C2114 1.524 . S
C2113 H2116 0.999 . S
C2114 H2084 0.950 . S
C2114 C2113 1.524 . S
C2114 C2115 1.415 . S
C2115 H2085 0.950 . S
C2115 C2110 1.363 . S
C2115 C2114 1.415 . S
H2116 C2113 0.999 . S
H2117 C2098 0.913 . S
H2118 C2136 0.951 . S
H2119 C2138 0.951 . S
H2120 C2140 0.950 . S
H2121 C2141 0.950 . S
H2122 C2143 0.950 . S
H2123 C2146 0.950 . S
H2124 C2147 0.950 . S
H2125 C2149 0.950 . S
H2126 C2150 0.950 . S
H2127 C2151 0.951 . S
H2128 C2153 0.951 . S
H2129 C2155 0.950 . S
H2130 C2156 0.950 . S
H2131 C2158 0.950 . S
H2132 C2161 0.950 . S
H2133 C2162 0.950 . S
H2134 C2164 0.950 . S
H2135 C2165 0.950 . S
C2136 H2118 0.951 . S
C2136 C2137 1.366 . S
C2136 C2138 1.388 . S
C2137 C2136 1.366 . S
C2137 C2141 1.385 . S
C2138 H2119 0.951 . S
C2138 C2136 1.388 . S
C2138 C2139 1.366 . S
C2139 C2138 1.366 . S
C2139 C2140 1.414 . S
C2139 C2142 1.499 . S
C2140 H2120 0.950 . S
C2140 C2139 1.414 . S
C2140 C2141 1.374 . S
C2141 H2121 0.950 . S
C2141 C2137 1.385 . S
C2141 C2140 1.374 . S
C2142 C2139 1.499 . S
C2142 C2143 1.373 . S
C2142 C2144 1.389 1_565 S
C2143 H2122 0.950 . S
C2143 C2142 1.373 . S
C2143 C2159 1.377 . S
C2144 C2142 1.389 1_545 S
C2144 C2145 1.524 . S
C2144 C2158 1.377 . S
C2145 C2144 1.524 . S
C2145 C2146 1.397 . S
C2145 C2150 1.363 . S
C2146 H2123 0.950 . S
C2146 C2145 1.397 . S
C2146 C2147 1.334 . S
C2147 H2124 0.950 . S
C2147 C2146 1.334 . S
C2147 C2148 1.287 . S
C2148 C2147 1.287 . S
C2148 C2149 1.524 . S
C2148 H2167 0.913 . S
C2149 H2125 0.950 . S
C2149 C2148 1.524 . S
C2149 C2150 1.415 . S
C2150 H2126 0.950 . S
C2150 C2145 1.363 . S
C2150 C2149 1.415 . S
C2151 H2127 0.951 . S
C2151 C2152 1.366 . S
C2151 C2153 1.388 . S
C2152 C2151 1.366 . S
C2152 C2156 1.385 . S
C2153 H2128 0.951 . S
C2153 C2151 1.388 . S
C2153 C2154 1.366 . S
C2154 C2153 1.366 . S
C2154 C2155 1.414 . S
C2154 C2157 1.499 . S
C2155 H2129 0.950 . S
C2155 C2154 1.414 . S
C2155 C2156 1.374 . S
C2156 H2130 0.950 . S
C2156 C2152 1.385 . S
C2156 C2155 1.374 . S
C2157 C2154 1.499 . S
C2157 C2158 1.373 . S
C2157 C2159 1.389 1_545 S
C2158 H2131 0.950 . S
C2158 C2144 1.377 . S
C2158 C2157 1.373 . S
C2159 C2143 1.377 . S
C2159 C2157 1.389 1_565 S
C2159 C2160 1.524 . S
C2160 C2159 1.524 . S
C2160 C2161 1.397 . S
C2160 C2165 1.363 . S
C2161 H2132 0.950 . S
C2161 C2160 1.397 . S
C2161 C2162 1.334 . S
C2162 H2133 0.950 . S
C2162 C2161 1.334 . S
C2162 C2163 1.287 . S
C2163 C2162 1.287 . S
C2163 C2164 1.524 . S
C2163 H2166 0.999 . S
C2164 H2134 0.950 . S
C2164 C2163 1.524 . S
C2164 C2165 1.415 . S
C2165 H2135 0.950 . S
C2165 C2160 1.363 . S
C2165 C2164 1.415 . S
H2166 C2163 0.999 . S
H2167 C2148 0.913 . S
H2168 C2186 0.951 . S
H2169 C2188 0.951 1_455 S
H2170 C2190 0.950 . S
H2171 C2191 0.950 . S
H2172 C2193 0.950 . S
H2173 C2196 0.911 1_655 S
H2174 C2197 0.950 1_655 S
H2175 C2199 0.950 . S
H2176 C2200 0.950 . S
H2177 C2201 0.951 . S
H2178 C2203 0.951 1_655 S
H2179 C2205 0.950 . S
H2180 C2206 0.950 . S
H2181 C2208 0.950 . S
H2182 C2211 0.911 1_455 S
H2183 C2212 0.950 1_455 S
H2184 C2214 0.950 . S
H2185 C2215 0.950 . S
C2186 H2168 0.951 . S
C2186 C2187 1.366 . S
C2186 C2188 1.388 . S
C2187 C2186 1.366 . S
C2187 C2191 1.385 . S
C2188 H2169 0.951 1_655 S
C2188 C2186 1.388 . S
C2188 C2189 1.366 . S
C2189 C2188 1.366 . S
C2189 C2190 1.414 . S
C2189 C2192 1.499 . S
C2190 H2170 0.950 . S
C2190 C2189 1.414 . S
C2190 C2191 1.374 . S
C2191 H2171 0.950 . S
C2191 C2187 1.385 . S
C2191 C2190 1.374 . S
C2192 C2189 1.499 . S
C2192 C2193 1.373 . S
C2192 C2194 1.389 1_655 S
C2193 H2172 0.950 . S
C2193 C2192 1.373 . S
C2193 C2209 1.377 . S
C2194 C2192 1.389 1_455 S
C2194 C2195 1.524 . S
C2194 C2208 1.377 . S
C2195 C2194 1.524 . S
C2195 C2196 1.441 . S
C2195 C2200 1.363 . S
C2196 H2173 0.911 1_455 S
C2196 C2195 1.441 . S
C2196 C2197 1.329 . S
C2197 H2174 0.950 1_455 S
C2197 C2196 1.329 . S
C2197 C2198 1.287 . S
C2198 C2197 1.287 . S
C2198 C2199 1.524 . S
C2198 H2217 0.913 . S
C2199 H2175 0.950 . S
C2199 C2198 1.524 . S
C2199 C2200 1.415 . S
C2200 H2176 0.950 . S
C2200 C2195 1.363 . S
C2200 C2199 1.415 . S
C2201 H2177 0.951 . S
C2201 C2202 1.366 . S
C2201 C2203 1.388 . S
C2202 C2201 1.366 . S
C2202 C2206 1.385 . S
C2203 H2178 0.951 1_455 S
C2203 C2201 1.388 . S
C2203 C2204 1.366 . S
C2204 C2203 1.366 . S
C2204 C2205 1.414 . S
C2204 C2207 1.499 . S
C2205 H2179 0.950 . S
C2205 C2204 1.414 . S
C2205 C2206 1.374 . S
C2206 H2180 0.950 . S
C2206 C2202 1.385 . S
C2206 C2205 1.374 . S
C2207 C2204 1.499 . S
C2207 C2208 1.373 . S
C2207 C2209 1.389 1_455 S
C2208 H2181 0.950 . S
C2208 C2194 1.377 . S
C2208 C2207 1.373 . S
C2209 C2193 1.377 . S
C2209 C2207 1.389 1_655 S
C2209 C2210 1.524 . S
C2210 C2209 1.524 . S
C2210 C2211 1.441 . S
C2210 C2215 1.363 . S
C2211 H2182 0.911 1_655 S
C2211 C2210 1.441 . S
C2211 C2212 1.329 . S
C2212 H2183 0.950 1_655 S
C2212 C2211 1.329 . S
C2212 C2213 1.287 . S
C2213 C2212 1.287 . S
C2213 C2214 1.524 . S
C2213 H2216 0.999 . S
C2214 H2184 0.950 . S
C2214 C2213 1.524 . S
C2214 C2215 1.415 . S
C2215 H2185 0.950 . S
C2215 C2210 1.363 . S
C2215 C2214 1.415 . S
H2216 C2213 0.999 . S
H2217 C2198 0.913 . S
H2218 C2236 0.951 . S
H2219 C2238 0.951 . S
H2220 C2240 0.950 . S
H2221 C2241 0.950 . S
H2222 C2243 0.950 . S
H2223 C2246 0.950 . S
H2224 C2247 0.950 . S
H2225 C2249 0.950 . S
H2226 C2250 0.950 . S
H2227 C2251 0.951 . S
H2228 C2253 0.951 . S
H2229 C2255 0.950 . S
H2230 C2256 0.950 . S
H2231 C2258 0.950 . S
H2232 C2261 0.950 . S
H2233 C2262 0.950 . S
H2234 C2264 0.950 . S
H2235 C2265 0.950 . S
C2236 H2218 0.951 . S
C2236 C2237 1.366 . S
C2236 C2238 1.388 . S
C2237 C2236 1.366 . S
C2237 C2241 1.385 . S
C2238 H2219 0.951 . S
C2238 C2236 1.388 . S
C2238 C2239 1.366 . S
C2239 C2238 1.366 . S
C2239 C2240 1.414 . S
C2239 C2242 1.499 . S
C2240 H2220 0.950 . S
C2240 C2239 1.414 . S
C2240 C2241 1.374 . S
C2241 H2221 0.950 . S
C2241 C2237 1.385 . S
C2241 C2240 1.374 . S
C2242 C2239 1.499 . S
C2242 C2243 1.373 . S
C2242 C2244 1.389 . S
C2243 H2222 0.950 . S
C2243 C2242 1.373 . S
C2243 C2259 1.377 . S
C2244 C2242 1.389 . S
C2244 C2245 1.524 . S
C2244 C2258 1.377 . S
C2245 C2244 1.524 . S
C2245 C2246 1.397 . S
C2245 C2250 1.363 . S
C2246 H2223 0.950 . S
C2246 C2245 1.397 . S
C2246 C2247 1.334 . S
C2247 H2224 0.950 . S
C2247 C2246 1.334 . S
C2247 C2248 1.287 . S
C2248 C2247 1.287 . S
C2248 C2249 1.524 . S
C2248 H2267 0.913 . S
C2249 H2225 0.950 . S
C2249 C2248 1.524 . S
C2249 C2250 1.415 . S
C2250 H2226 0.950 . S
C2250 C2245 1.363 . S
C2250 C2249 1.415 . S
C2251 H2227 0.951 . S
C2251 C2252 1.366 . S
C2251 C2253 1.388 . S
C2252 C2251 1.366 . S
C2252 C2256 1.385 . S
C2253 H2228 0.951 . S
C2253 C2251 1.388 . S
C2253 C2254 1.366 . S
C2254 C2253 1.366 . S
C2254 C2255 1.414 . S
C2254 C2257 1.499 . S
C2255 H2229 0.950 . S
C2255 C2254 1.414 . S
C2255 C2256 1.374 . S
C2256 H2230 0.950 . S
C2256 C2252 1.385 . S
C2256 C2255 1.374 . S
C2257 C2254 1.499 . S
C2257 C2258 1.373 . S
C2257 C2259 1.389 . S
C2258 H2231 0.950 . S
C2258 C2244 1.377 . S
C2258 C2257 1.373 . S
C2259 C2243 1.377 . S
C2259 C2257 1.389 . S
C2259 C2260 1.524 . S
C2260 C2259 1.524 . S
C2260 C2261 1.397 . S
C2260 C2265 1.363 . S
C2261 H2232 0.950 . S
C2261 C2260 1.397 . S
C2261 C2262 1.334 . S
C2262 H2233 0.950 . S
C2262 C2261 1.334 . S
C2262 C2263 1.287 . S
C2263 C2262 1.287 . S
C2263 C2264 1.524 . S
C2263 H2266 0.999 . S
C2264 H2234 0.950 . S
C2264 C2263 1.524 . S
C2264 C2265 1.415 . S
C2265 H2235 0.950 . S
C2265 C2260 1.363 . S
C2265 C2264 1.415 . S
H2266 C2263 0.999 . S
H2267 C2248 0.913 . S
H2268 C2286 0.951 . S
H2269 C2288 0.951 . S
H2270 C2290 0.950 . S
H2271 C2291 0.950 . S
H2272 C2293 0.950 . S
H2273 C2296 0.950 . S
H2274 C2297 0.950 . S
H2275 C2299 0.950 . S
H2276 C2300 0.950 . S
H2277 C2301 0.951 . S
H2278 C2303 0.951 . S
H2279 C2305 0.950 . S
H2280 C2306 0.950 . S
H2281 C2308 0.950 . S
H2282 C2311 0.950 . S
H2283 C2312 0.950 . S
H2284 C2314 0.950 . S
H2285 C2315 0.950 . S
C2286 H2268 0.951 . S
C2286 C2287 1.366 . S
C2286 C2288 1.388 . S
C2287 C2286 1.366 . S
C2287 C2291 1.385 . S
C2288 H2269 0.951 . S
C2288 C2286 1.388 . S
C2288 C2289 1.366 . S
C2289 C2288 1.366 . S
C2289 C2290 1.414 . S
C2289 C2292 1.499 . S
C2290 H2270 0.950 . S
C2290 C2289 1.414 . S
C2290 C2291 1.374 . S
C2291 H2271 0.950 . S
C2291 C2287 1.385 . S
C2291 C2290 1.374 . S
C2292 C2289 1.499 . S
C2292 C2293 1.373 . S
C2292 C2294 1.389 . S
C2293 H2272 0.950 . S
C2293 C2292 1.373 . S
C2293 C2309 1.377 . S
C2294 C2292 1.389 . S
C2294 C2295 1.524 . S
C2294 C2308 1.377 . S
C2295 C2294 1.524 . S
C2295 C2296 1.397 . S
C2295 C2300 1.363 . S
C2296 H2273 0.950 . S
C2296 C2295 1.397 . S
C2296 C2297 1.334 . S
C2297 H2274 0.950 . S
C2297 C2296 1.334 . S
C2297 C2298 1.287 . S
C2298 C2297 1.287 . S
C2298 C2299 1.524 . S
C2298 H2317 0.913 . S
C2299 H2275 0.950 . S
C2299 C2298 1.524 . S
C2299 C2300 1.415 . S
C2300 H2276 0.950 . S
C2300 C2295 1.363 . S
C2300 C2299 1.415 . S
C2301 H2277 0.951 . S
C2301 C2302 1.366 . S
C2301 C2303 1.388 . S
C2302 C2301 1.366 . S
C2302 C2306 1.385 . S
C2303 H2278 0.951 . S
C2303 C2301 1.388 . S
C2303 C2304 1.366 . S
C2304 C2303 1.366 . S
C2304 C2305 1.414 . S
C2304 C2307 1.499 . S
C2305 H2279 0.950 . S
C2305 C2304 1.414 . S
C2305 C2306 1.374 . S
C2306 H2280 0.950 . S
C2306 C2302 1.385 . S
C2306 C2305 1.374 . S
C2307 C2304 1.499 . S
C2307 C2308 1.373 . S
C2307 C2309 1.389 . S
C2308 H2281 0.950 . S
C2308 C2294 1.377 . S
C2308 C2307 1.373 . S
C2309 C2293 1.377 . S
C2309 C2307 1.389 . S
C2309 C2310 1.524 . S
C2310 C2309 1.524 . S
C2310 C2311 1.397 . S
C2310 C2315 1.363 . S
C2311 H2282 0.950 . S
C2311 C2310 1.397 . S
C2311 C2312 1.334 . S
C2312 H2283 0.950 . S
C2312 C2311 1.334 . S
C2312 C2313 1.287 . S
C2313 C2312 1.287 . S
C2313 C2314 1.524 . S
C2313 H2316 0.999 . S
C2314 H2284 0.950 . S
C2314 C2313 1.524 . S
C2314 C2315 1.415 . S
C2315 H2285 0.950 . S
C2315 C2310 1.363 . S
C2315 C2314 1.415 . S
H2316 C2313 0.999 . S
H2317 C2298 0.913 . S
H2318 C2336 0.951 . S
H2319 C2338 0.951 . S
H2320 C2340 0.950 . S
H2321 C2341 0.950 . S
H2322 C2343 0.950 . S
H2323 C2346 0.950 . S
H2324 C2347 0.950 . S
H2325 C2349 0.950 . S
H2326 C2350 0.950 . S
H2327 C2351 0.951 . S
H2328 C2353 0.951 . S
H2329 C2355 0.950 . S
H2330 C2356 0.950 . S
H2331 C2358 0.950 . S
H2332 C2361 0.950 . S
H2333 C2362 0.950 . S
H2334 C2364 0.950 . S
H2335 C2365 0.950 . S
C2336 H2318 0.951 . S
C2336 C2337 1.366 . S
C2336 C2338 1.388 . S
C2337 C2336 1.366 . S
C2337 C2341 1.385 . S
C2338 H2319 0.951 . S
C2338 C2336 1.388 . S
C2338 C2339 1.366 . S
C2339 C2338 1.366 . S
C2339 C2340 1.414 . S
C2339 C2342 1.499 . S
C2340 H2320 0.950 . S
C2340 C2339 1.414 . S
C2340 C2341 1.374 . S
C2341 H2321 0.950 . S
C2341 C2337 1.385 . S
C2341 C2340 1.374 . S
C2342 C2339 1.499 . S
C2342 C2343 1.373 . S
C2342 C2344 1.389 . S
C2343 H2322 0.950 . S
C2343 C2342 1.373 . S
C2343 C2359 1.377 . S
C2344 C2342 1.389 . S
C2344 C2345 1.524 . S
C2344 C2358 1.377 . S
C2345 C2344 1.524 . S
C2345 C2346 1.397 . S
C2345 C2350 1.363 . S
C2346 H2323 0.950 . S
C2346 C2345 1.397 . S
C2346 C2347 1.334 . S
C2347 H2324 0.950 . S
C2347 C2346 1.334 . S
C2347 C2348 1.287 . S
C2348 C2347 1.287 . S
C2348 C2349 1.524 . S
C2348 H2367 0.913 . S
C2349 H2325 0.950 . S
C2349 C2348 1.524 . S
C2349 C2350 1.415 . S
C2350 H2326 0.950 . S
C2350 C2345 1.363 . S
C2350 C2349 1.415 . S
C2351 H2327 0.951 . S
C2351 C2352 1.366 . S
C2351 C2353 1.388 . S
C2352 C2351 1.366 . S
C2352 C2356 1.385 . S
C2353 H2328 0.951 . S
C2353 C2351 1.388 . S
C2353 C2354 1.366 . S
C2354 C2353 1.366 . S
C2354 C2355 1.414 . S
C2354 C2357 1.499 . S
C2355 H2329 0.950 . S
C2355 C2354 1.414 . S
C2355 C2356 1.374 . S
C2356 H2330 0.950 . S
C2356 C2352 1.385 . S
C2356 C2355 1.374 . S
C2357 C2354 1.499 . S
C2357 C2358 1.373 . S
C2357 C2359 1.389 . S
C2358 H2331 0.950 . S
C2358 C2344 1.377 . S
C2358 C2357 1.373 . S
C2359 C2343 1.377 . S
C2359 C2357 1.389 . S
C2359 C2360 1.524 . S
C2360 C2359 1.524 . S
C2360 C2361 1.397 . S
C2360 C2365 1.363 . S
C2361 H2332 0.950 . S
C2361 C2360 1.397 . S
C2361 C2362 1.334 . S
C2362 H2333 0.950 . S
C2362 C2361 1.334 . S
C2362 C2363 1.287 . S
C2363 C2362 1.287 . S
C2363 C2364 1.524 . S
C2363 H2366 0.999 . S
C2364 H2334 0.950 . S
C2364 C2363 1.524 . S
C2364 C2365 1.415 . S
C2365 H2335 0.950 . S
C2365 C2360 1.363 . S
C2365 C2364 1.415 . S
H2366 C2363 0.999 . S
H2367 C2348 0.913 . S
H2368 C2386 0.951 . S
H2369 C2388 0.951 . S
H2370 C2390 0.950 . S
H2371 C2391 0.950 . S
H2372 C2393 0.950 . S
H2373 C2396 0.950 . S
H2374 C2397 0.950 . S
H2375 C2399 0.950 . S
H2376 C2400 0.950 . S
H2377 C2401 0.951 . S
H2378 C2403 0.951 . S
H2379 C2405 0.950 . S
H2380 C2406 0.950 . S
H2381 C2408 0.950 . S
H2382 C2411 0.950 . S
H2383 C2412 0.950 . S
H2384 C2414 0.950 . S
H2385 C2415 0.950 . S
C2386 H2368 0.951 . S
C2386 C2387 1.366 . S
C2386 C2388 1.388 . S
C2387 C2386 1.366 . S
C2387 C2391 1.385 . S
C2388 H2369 0.951 . S
C2388 C2386 1.388 . S
C2388 C2389 1.366 . S
C2389 C2388 1.366 . S
C2389 C2390 1.414 . S
C2389 C2392 1.499 . S
C2390 H2370 0.950 . S
C2390 C2389 1.414 . S
C2390 C2391 1.374 . S
C2391 H2371 0.950 . S
C2391 C2387 1.385 . S
C2391 C2390 1.374 . S
C2392 C2389 1.499 . S
C2392 C2393 1.373 . S
C2392 C2394 1.389 . S
C2393 H2372 0.950 . S
C2393 C2392 1.373 . S
C2393 C2409 1.377 . S
C2394 C2392 1.389 . S
C2394 C2395 1.524 . S
C2394 C2408 1.377 . S
C2395 C2394 1.524 . S
C2395 C2396 1.397 . S
C2395 C2400 1.363 . S
C2396 H2373 0.950 . S
C2396 C2395 1.397 . S
C2396 C2397 1.334 . S
C2397 H2374 0.950 . S
C2397 C2396 1.334 . S
C2397 C2398 1.287 . S
C2398 C2397 1.287 . S
C2398 C2399 1.524 . S
C2398 H2417 0.913 . S
C2399 H2375 0.950 . S
C2399 C2398 1.524 . S
C2399 C2400 1.415 . S
C2400 H2376 0.950 . S
C2400 C2395 1.363 . S
C2400 C2399 1.415 . S
C2401 H2377 0.951 . S
C2401 C2402 1.366 . S
C2401 C2403 1.388 . S
C2402 C2401 1.366 . S
C2402 C2406 1.385 . S
C2403 H2378 0.951 . S
C2403 C2401 1.388 . S
C2403 C2404 1.366 . S
C2404 C2403 1.366 . S
C2404 C2405 1.414 . S
C2404 C2407 1.499 . S
C2405 H2379 0.950 . S
C2405 C2404 1.414 . S
C2405 C2406 1.374 . S
C2406 H2380 0.950 . S
C2406 C2402 1.385 . S
C2406 C2405 1.374 . S
C2407 C2404 1.499 . S
C2407 C2408 1.373 . S
C2407 C2409 1.389 . S
C2408 H2381 0.950 . S
C2408 C2394 1.377 . S
C2408 C2407 1.373 . S
C2409 C2393 1.377 . S
C2409 C2407 1.389 . S
C2409 C2410 1.524 . S
C2410 C2409 1.524 . S
C2410 C2411 1.397 . S
C2410 C2415 1.363 . S
C2411 H2382 0.950 . S
C2411 C2410 1.397 . S
C2411 C2412 1.334 . S
C2412 H2383 0.950 . S
C2412 C2411 1.334 . S
C2412 C2413 1.287 . S
C2413 C2412 1.287 . S
C2413 C2414 1.524 . S
C2413 H2416 0.999 . S
C2414 H2384 0.950 . S
C2414 C2413 1.524 . S
C2414 C2415 1.415 . S
C2415 H2385 0.950 . S
C2415 C2410 1.363 . S
C2415 C2414 1.415 . S
H2416 C2413 0.999 . S
H2417 C2398 0.913 . S
H2418 C2436 0.951 . S
H2419 C2438 0.951 . S
H2420 C2440 0.950 . S
H2421 C2441 0.950 . S
H2422 C2443 0.950 . S
H2423 C2446 0.950 . S
H2424 C2447 0.950 . S
H2425 C2449 0.950 . S
H2426 C2450 0.950 . S
H2427 C2451 0.951 . S
H2428 C2453 0.951 . S
H2429 C2455 0.950 . S
H2430 C2456 0.950 . S
H2431 C2458 0.950 . S
H2432 C2461 0.950 . S
H2433 C2462 0.950 . S
H2434 C2464 0.950 . S
H2435 C2465 0.950 . S
C2436 H2418 0.951 . S
C2436 C2437 1.366 . S
C2436 C2438 1.388 . S
C2437 C2436 1.366 . S
C2437 C2441 1.385 . S
C2438 H2419 0.951 . S
C2438 C2436 1.388 . S
C2438 C2439 1.366 . S
C2439 C2438 1.366 . S
C2439 C2440 1.414 . S
C2439 C2442 1.499 . S
C2440 H2420 0.950 . S
C2440 C2439 1.414 . S
C2440 C2441 1.374 . S
C2441 H2421 0.950 . S
C2441 C2437 1.385 . S
C2441 C2440 1.374 . S
C2442 C2439 1.499 . S
C2442 C2443 1.373 . S
C2442 C2444 1.389 . S
C2443 H2422 0.950 . S
C2443 C2442 1.373 . S
C2443 C2459 1.377 . S
C2444 C2442 1.389 . S
C2444 C2445 1.524 . S
C2444 C2458 1.377 . S
C2445 C2444 1.524 . S
C2445 C2446 1.397 . S
C2445 C2450 1.363 . S
C2446 H2423 0.950 . S
C2446 C2445 1.397 . S
C2446 C2447 1.334 . S
C2447 H2424 0.950 . S
C2447 C2446 1.334 . S
C2447 C2448 1.287 . S
C2448 C2447 1.287 . S
C2448 C2449 1.524 . S
C2448 H2467 0.913 . S
C2449 H2425 0.950 . S
C2449 C2448 1.524 . S
C2449 C2450 1.415 . S
C2450 H2426 0.950 . S
C2450 C2445 1.363 . S
C2450 C2449 1.415 . S
C2451 H2427 0.951 . S
C2451 C2452 1.366 . S
C2451 C2453 1.388 . S
C2452 C2451 1.366 . S
C2452 C2456 1.385 . S
C2453 H2428 0.951 . S
C2453 C2451 1.388 . S
C2453 C2454 1.366 . S
C2454 C2453 1.366 . S
C2454 C2455 1.414 . S
C2454 C2457 1.499 . S
C2455 H2429 0.950 . S
C2455 C2454 1.414 . S
C2455 C2456 1.374 . S
C2456 H2430 0.950 . S
C2456 C2452 1.385 . S
C2456 C2455 1.374 . S
C2457 C2454 1.499 . S
C2457 C2458 1.373 . S
C2457 C2459 1.389 . S
C2458 H2431 0.950 . S
C2458 C2444 1.377 . S
C2458 C2457 1.373 . S
C2459 C2443 1.377 . S
C2459 C2457 1.389 . S
C2459 C2460 1.524 . S
C2460 C2459 1.524 . S
C2460 C2461 1.397 . S
C2460 C2465 1.363 . S
C2461 H2432 0.950 . S
C2461 C2460 1.397 . S
C2461 C2462 1.334 . S
C2462 H2433 0.950 . S
C2462 C2461 1.334 . S
C2462 C2463 1.287 . S
C2463 C2462 1.287 . S
C2463 C2464 1.524 . S
C2463 H2466 0.999 . S
C2464 H2434 0.950 . S
C2464 C2463 1.524 . S
C2464 C2465 1.415 . S
C2465 H2435 0.950 . S
C2465 C2460 1.363 . S
C2465 C2464 1.415 . S
H2466 C2463 0.999 . S
H2467 C2448 0.913 . S
H2468 C2486 0.951 . S
H2469 C2488 0.951 . S
H2470 C2490 0.950 . S
H2471 C2491 0.950 . S
H2472 C2493 0.950 . S
H2473 C2496 0.950 . S
H2474 C2497 0.950 . S
H2475 C2499 0.950 . S
H2476 C2500 0.950 . S
H2477 C2501 0.951 . S
H2478 C2503 0.951 . S
H2479 C2505 0.950 . S
H2480 C2506 0.950 . S
H2481 C2508 0.950 . S
H2482 C2511 0.950 . S
H2483 C2512 0.950 . S
H2484 C2514 0.950 . S
H2485 C2515 0.950 . S
C2486 H2468 0.951 . S
C2486 C2487 1.366 . S
C2486 C2488 1.388 . S
C2487 C2486 1.366 . S
C2487 C2491 1.385 . S
C2488 H2469 0.951 . S
C2488 C2486 1.388 . S
C2488 C2489 1.366 . S
C2489 C2488 1.366 . S
C2489 C2490 1.414 . S
C2489 C2492 1.499 . S
C2490 H2470 0.950 . S
C2490 C2489 1.414 . S
C2490 C2491 1.374 . S
C2491 H2471 0.950 . S
C2491 C2487 1.385 . S
C2491 C2490 1.374 . S
C2492 C2489 1.499 . S
C2492 C2493 1.373 . S
C2492 C2494 1.389 . S
C2493 H2472 0.950 . S
C2493 C2492 1.373 . S
C2493 C2509 1.377 . S
C2494 C2492 1.389 . S
C2494 C2495 1.524 . S
C2494 C2508 1.377 . S
C2495 C2494 1.524 . S
C2495 C2496 1.397 . S
C2495 C2500 1.363 . S
C2496 H2473 0.950 . S
C2496 C2495 1.397 . S
C2496 C2497 1.334 . S
C2497 H2474 0.950 . S
C2497 C2496 1.334 . S
C2497 C2498 1.287 . S
C2498 C2497 1.287 . S
C2498 C2499 1.524 . S
C2498 H2517 0.913 . S
C2499 H2475 0.950 . S
C2499 C2498 1.524 . S
C2499 C2500 1.415 . S
C2500 H2476 0.950 . S
C2500 C2495 1.363 . S
C2500 C2499 1.415 . S
C2501 H2477 0.951 . S
C2501 C2502 1.366 . S
C2501 C2503 1.388 . S
C2502 C2501 1.366 . S
C2502 C2506 1.385 . S
C2503 H2478 0.951 . S
C2503 C2501 1.388 . S
C2503 C2504 1.366 . S
C2504 C2503 1.366 . S
C2504 C2505 1.414 . S
C2504 C2507 1.499 . S
C2505 H2479 0.950 . S
C2505 C2504 1.414 . S
C2505 C2506 1.374 . S
C2506 H2480 0.950 . S
C2506 C2502 1.385 . S
C2506 C2505 1.374 . S
C2507 C2504 1.499 . S
C2507 C2508 1.373 . S
C2507 C2509 1.389 . S
C2508 H2481 0.950 . S
C2508 C2494 1.377 . S
C2508 C2507 1.373 . S
C2509 C2493 1.377 . S
C2509 C2507 1.389 . S
C2509 C2510 1.524 . S
C2510 C2509 1.524 . S
C2510 C2511 1.397 . S
C2510 C2515 1.363 . S
C2511 H2482 0.950 . S
C2511 C2510 1.397 . S
C2511 C2512 1.334 . S
C2512 H2483 0.950 . S
C2512 C2511 1.334 . S
C2512 C2513 1.287 . S
C2513 C2512 1.287 . S
C2513 C2514 1.524 . S
C2513 H2516 0.999 . S
C2514 H2484 0.950 . S
C2514 C2513 1.524 . S
C2514 C2515 1.415 . S
C2515 H2485 0.950 . S
C2515 C2510 1.363 . S
C2515 C2514 1.415 . S
H2516 C2513 0.999 . S
H2517 C2498 0.913 . S
H2518 C2536 0.951 . S
H2519 C2538 0.951 . S
H2520 C2540 0.950 . S
H2521 C2541 0.950 . S
H2522 C2543 0.950 . S
H2523 C2546 0.950 . S
H2524 C2547 0.950 . S
H2525 C2549 0.950 . S
H2526 C2550 0.950 . S
H2527 C2551 0.951 . S
H2528 C2553 0.951 . S
H2529 C2555 0.950 . S
H2530 C2556 0.950 . S
H2531 C2558 0.950 . S
H2532 C2561 0.950 . S
H2533 C2562 0.950 . S
H2534 C2564 0.950 . S
H2535 C2565 0.950 . S
C2536 H2518 0.951 . S
C2536 C2537 1.366 . S
C2536 C2538 1.388 . S
C2537 C2536 1.366 . S
C2537 C2541 1.385 . S
C2538 H2519 0.951 . S
C2538 C2536 1.388 . S
C2538 C2539 1.366 . S
C2539 C2538 1.366 . S
C2539 C2540 1.414 . S
C2539 C2542 1.499 . S
C2540 H2520 0.950 . S
C2540 C2539 1.414 . S
C2540 C2541 1.374 . S
C2541 H2521 0.950 . S
C2541 C2537 1.385 . S
C2541 C2540 1.374 . S
C2542 C2539 1.499 . S
C2542 C2543 1.373 . S
C2542 C2544 1.389 . S
C2543 H2522 0.950 . S
C2543 C2542 1.373 . S
C2543 C2559 1.377 . S
C2544 C2542 1.389 . S
C2544 C2545 1.524 . S
C2544 C2558 1.377 . S
C2545 C2544 1.524 . S
C2545 C2546 1.397 . S
C2545 C2550 1.363 . S
C2546 H2523 0.950 . S
C2546 C2545 1.397 . S
C2546 C2547 1.334 . S
C2547 H2524 0.950 . S
C2547 C2546 1.334 . S
C2547 C2548 1.287 . S
C2548 C2547 1.287 . S
C2548 C2549 1.524 . S
C2548 H2567 0.913 . S
C2549 H2525 0.950 . S
C2549 C2548 1.524 . S
C2549 C2550 1.415 . S
C2550 H2526 0.950 . S
C2550 C2545 1.363 . S
C2550 C2549 1.415 . S
C2551 H2527 0.951 . S
C2551 C2552 1.366 . S
C2551 C2553 1.388 . S
C2552 C2551 1.366 . S
C2552 C2556 1.385 . S
C2553 H2528 0.951 . S
C2553 C2551 1.388 . S
C2553 C2554 1.366 . S
C2554 C2553 1.366 . S
C2554 C2555 1.414 . S
C2554 C2557 1.499 . S
C2555 H2529 0.950 . S
C2555 C2554 1.414 . S
C2555 C2556 1.374 . S
C2556 H2530 0.950 . S
C2556 C2552 1.385 . S
C2556 C2555 1.374 . S
C2557 C2554 1.499 . S
C2557 C2558 1.373 . S
C2557 C2559 1.389 . S
C2558 H2531 0.950 . S
C2558 C2544 1.377 . S
C2558 C2557 1.373 . S
C2559 C2543 1.377 . S
C2559 C2557 1.389 . S
C2559 C2560 1.524 . S
C2560 C2559 1.524 . S
C2560 C2561 1.397 . S
C2560 C2565 1.363 . S
C2561 H2532 0.950 . S
C2561 C2560 1.397 . S
C2561 C2562 1.334 . S
C2562 H2533 0.950 . S
C2562 C2561 1.334 . S
C2562 C2563 1.287 . S
C2563 C2562 1.287 . S
C2563 C2564 1.524 . S
C2563 H2566 0.999 . S
C2564 H2534 0.950 . S
C2564 C2563 1.524 . S
C2564 C2565 1.415 . S
C2565 H2535 0.950 . S
C2565 C2560 1.363 . S
C2565 C2564 1.415 . S
H2566 C2563 0.999 . S
H2567 C2548 0.913 . S
H2568 C2586 0.951 . S
H2569 C2588 0.951 . S
H2570 C2590 0.950 . S
H2571 C2591 0.950 . S
H2572 C2593 0.950 . S
H2573 C2596 0.950 . S
H2574 C2597 0.950 . S
H2575 C2599 0.950 . S
H2576 C2600 0.950 . S
H2577 C2601 0.951 . S
H2578 C2603 0.951 . S
H2579 C2605 0.950 . S
H2580 C2606 0.950 . S
H2581 C2608 0.950 . S
H2582 C2611 0.950 . S
H2583 C2612 0.950 . S
H2584 C2614 0.950 . S
H2585 C2615 0.950 . S
C2586 H2568 0.951 . S
C2586 C2587 1.366 . S
C2586 C2588 1.388 . S
C2587 C2586 1.366 . S
C2587 C2591 1.385 . S
C2588 H2569 0.951 . S
C2588 C2586 1.388 . S
C2588 C2589 1.366 . S
C2589 C2588 1.366 . S
C2589 C2590 1.414 . S
C2589 C2592 1.499 . S
C2590 H2570 0.950 . S
C2590 C2589 1.414 . S
C2590 C2591 1.374 . S
C2591 H2571 0.950 . S
C2591 C2587 1.385 . S
C2591 C2590 1.374 . S
C2592 C2589 1.499 . S
C2592 C2593 1.373 . S
C2592 C2594 1.389 . S
C2593 H2572 0.950 . S
C2593 C2592 1.373 . S
C2593 C2609 1.377 . S
C2594 C2592 1.389 . S
C2594 C2595 1.524 . S
C2594 C2608 1.377 . S
C2595 C2594 1.524 . S
C2595 C2596 1.397 . S
C2595 C2600 1.363 . S
C2596 H2573 0.950 . S
C2596 C2595 1.397 . S
C2596 C2597 1.334 . S
C2597 H2574 0.950 . S
C2597 C2596 1.334 . S
C2597 C2598 1.287 . S
C2598 C2597 1.287 . S
C2598 C2599 1.524 . S
C2598 H2617 0.913 . S
C2599 H2575 0.950 . S
C2599 C2598 1.524 . S
C2599 C2600 1.415 . S
C2600 H2576 0.950 . S
C2600 C2595 1.363 . S
C2600 C2599 1.415 . S
C2601 H2577 0.951 . S
C2601 C2602 1.366 . S
C2601 C2603 1.388 . S
C2602 C2601 1.366 . S
C2602 C2606 1.385 . S
C2603 H2578 0.951 . S
C2603 C2601 1.388 . S
C2603 C2604 1.366 . S
C2604 C2603 1.366 . S
C2604 C2605 1.414 . S
C2604 C2607 1.499 . S
C2605 H2579 0.950 . S
C2605 C2604 1.414 . S
C2605 C2606 1.374 . S
C2606 H2580 0.950 . S
C2606 C2602 1.385 . S
C2606 C2605 1.374 . S
C2607 C2604 1.499 . S
C2607 C2608 1.373 . S
C2607 C2609 1.389 . S
C2608 H2581 0.950 . S
C2608 C2594 1.377 . S
C2608 C2607 1.373 . S
C2609 C2593 1.377 . S
C2609 C2607 1.389 . S
C2609 C2610 1.524 . S
C2610 C2609 1.524 . S
C2610 C2611 1.397 . S
C2610 C2615 1.363 . S
C2611 H2582 0.950 . S
C2611 C2610 1.397 . S
C2611 C2612 1.334 . S
C2612 H2583 0.950 . S
C2612 C2611 1.334 . S
C2612 C2613 1.287 . S
C2613 C2612 1.287 . S
C2613 C2614 1.524 . S
C2613 H2616 0.999 . S
C2614 H2584 0.950 . S
C2614 C2613 1.524 . S
C2614 C2615 1.415 . S
C2615 H2585 0.950 . S
C2615 C2610 1.363 . S
C2615 C2614 1.415 . S
H2616 C2613 0.999 . S
H2617 C2598 0.913 . S
H2618 C2636 0.951 . S
H2619 C2638 0.951 . S
H2620 C2640 0.950 . S
H2621 C2641 0.950 . S
H2622 C2643 0.950 . S
H2623 C2646 0.950 . S
H2624 C2647 0.950 . S
H2625 C2649 0.950 . S
H2626 C2650 0.950 . S
H2627 C2651 0.951 . S
H2628 C2653 0.951 . S
H2629 C2655 0.950 . S
H2630 C2656 0.950 . S
H2631 C2658 0.950 . S
H2632 C2661 0.950 . S
H2633 C2662 0.950 . S
H2634 C2664 0.950 . S
H2635 C2665 0.950 . S
C2636 H2618 0.951 . S
C2636 C2637 1.366 . S
C2636 C2638 1.388 . S
C2637 C2636 1.366 . S
C2637 C2641 1.385 . S
C2638 H2619 0.951 . S
C2638 C2636 1.388 . S
C2638 C2639 1.366 . S
C2639 C2638 1.366 . S
C2639 C2640 1.414 . S
C2639 C2642 1.499 . S
C2640 H2620 0.950 . S
C2640 C2639 1.414 . S
C2640 C2641 1.374 . S
C2641 H2621 0.950 . S
C2641 C2637 1.385 . S
C2641 C2640 1.374 . S
C2642 C2639 1.499 . S
C2642 C2643 1.373 . S
C2642 C2644 1.389 . S
C2643 H2622 0.950 . S
C2643 C2642 1.373 . S
C2643 C2659 1.377 . S
C2644 C2642 1.389 . S
C2644 C2645 1.524 . S
C2644 C2658 1.377 . S
C2645 C2644 1.524 . S
C2645 C2646 1.397 . S
C2645 C2650 1.363 . S
C2646 H2623 0.950 . S
C2646 C2645 1.397 . S
C2646 C2647 1.334 . S
C2647 H2624 0.950 . S
C2647 C2646 1.334 . S
C2647 C2648 1.287 . S
C2648 C2647 1.287 . S
C2648 C2649 1.524 . S
C2648 H2667 0.913 . S
C2649 H2625 0.950 . S
C2649 C2648 1.524 . S
C2649 C2650 1.415 . S
C2650 H2626 0.950 . S
C2650 C2645 1.363 . S
C2650 C2649 1.415 . S
C2651 H2627 0.951 . S
C2651 C2652 1.366 . S
C2651 C2653 1.388 . S
C2652 C2651 1.366 . S
C2652 C2656 1.385 . S
C2653 H2628 0.951 . S
C2653 C2651 1.388 . S
C2653 C2654 1.366 . S
C2654 C2653 1.366 . S
C2654 C2655 1.414 . S
C2654 C2657 1.499 . S
C2655 H2629 0.950 . S
C2655 C2654 1.414 . S
C2655 C2656 1.374 . S
C2656 H2630 0.950 . S
C2656 C2652 1.385 . S
C2656 C2655 1.374 . S
C2657 C2654 1.499 . S
C2657 C2658 1.373 . S
C2657 C2659 1.389 . S
C2658 H2631 0.950 . S
C2658 C2644 1.377 . S
C2658 C2657 1.373 . S
C2659 C2643 1.377 . S
C2659 C2657 1.389 . S
C2659 C2660 1.524 . S
C2660 C2659 1.524 . S
C2660 C2661 1.397 . S
C2660 C2665 1.363 . S
C2661 H2632 0.950 . S
C2661 C2660 1.397 . S
C2661 C2662 1.334 . S
C2662 H2633 0.950 . S
C2662 C2661 1.334 . S
C2662 C2663 1.287 . S
C2663 C2662 1.287 . S
C2663 C2664 1.524 . S
C2663 H2666 0.999 . S
C2664 H2634 0.950 . S
C2664 C2663 1.524 . S
C2664 C2665 1.415 . S
C2665 H2635 0.950 . S
C2665 C2660 1.363 . S
C2665 C2664 1.415 . S
H2666 C2663 0.999 . S
H2667 C2648 0.913 . S
H2668 C2686 0.951 . S
H2669 C2688 0.951 . S
H2670 C2690 0.950 . S
H2671 C2691 0.950 . S
H2672 C2693 0.950 . S
H2673 C2696 0.950 . S
H2674 C2697 0.950 . S
H2675 C2699 0.950 . S
H2676 C2700 0.950 . S
H2677 C2701 0.951 . S
H2678 C2703 0.951 . S
H2679 C2705 0.950 . S
H2680 C2706 0.950 . S
H2681 C2708 0.950 . S
H2682 C2711 0.950 . S
H2683 C2712 0.950 . S
H2684 C2714 0.950 . S
H2685 C2715 0.950 . S
C2686 H2668 0.951 . S
C2686 C2687 1.366 . S
C2686 C2688 1.388 . S
C2687 C2686 1.366 . S
C2687 C2691 1.385 . S
C2688 H2669 0.951 . S
C2688 C2686 1.388 . S
C2688 C2689 1.366 . S
C2689 C2688 1.366 . S
C2689 C2690 1.414 . S
C2689 C2692 1.499 . S
C2690 H2670 0.950 . S
C2690 C2689 1.414 . S
C2690 C2691 1.374 . S
C2691 H2671 0.950 . S
C2691 C2687 1.385 . S
C2691 C2690 1.374 . S
C2692 C2689 1.499 . S
C2692 C2693 1.373 . S
C2692 C2694 1.389 . S
C2693 H2672 0.950 . S
C2693 C2692 1.373 . S
C2693 C2709 1.377 . S
C2694 C2692 1.389 . S
C2694 C2695 1.524 . S
C2694 C2708 1.377 . S
C2695 C2694 1.524 . S
C2695 C2696 1.397 . S
C2695 C2700 1.363 . S
C2696 H2673 0.950 . S
C2696 C2695 1.397 . S
C2696 C2697 1.334 . S
C2697 H2674 0.950 . S
C2697 C2696 1.334 . S
C2697 C2698 1.287 . S
C2698 C2697 1.287 . S
C2698 C2699 1.524 . S
C2698 H2717 0.913 . S
C2699 H2675 0.950 . S
C2699 C2698 1.524 . S
C2699 C2700 1.415 . S
C2700 H2676 0.950 . S
C2700 C2695 1.363 . S
C2700 C2699 1.415 . S
C2701 H2677 0.951 . S
C2701 C2702 1.366 . S
C2701 C2703 1.388 . S
C2702 C2701 1.366 . S
C2702 C2706 1.385 . S
C2703 H2678 0.951 . S
C2703 C2701 1.388 . S
C2703 C2704 1.366 . S
C2704 C2703 1.366 . S
C2704 C2705 1.414 . S
C2704 C2707 1.499 . S
C2705 H2679 0.950 . S
C2705 C2704 1.414 . S
C2705 C2706 1.374 . S
C2706 H2680 0.950 . S
C2706 C2702 1.385 . S
C2706 C2705 1.374 . S
C2707 C2704 1.499 . S
C2707 C2708 1.373 . S
C2707 C2709 1.389 . S
C2708 H2681 0.950 . S
C2708 C2694 1.377 . S
C2708 C2707 1.373 . S
C2709 C2693 1.377 . S
C2709 C2707 1.389 . S
C2709 C2710 1.524 . S
C2710 C2709 1.524 . S
C2710 C2711 1.397 . S
C2710 C2715 1.363 . S
C2711 H2682 0.950 . S
C2711 C2710 1.397 . S
C2711 C2712 1.334 . S
C2712 H2683 0.950 . S
C2712 C2711 1.334 . S
C2712 C2713 1.287 . S
C2713 C2712 1.287 . S
C2713 C2714 1.524 . S
C2713 H2716 0.999 . S
C2714 H2684 0.950 . S
C2714 C2713 1.524 . S
C2714 C2715 1.415 . S
C2715 H2685 0.950 . S
C2715 C2710 1.363 . S
C2715 C2714 1.415 . S
H2716 C2713 0.999 . S
H2717 C2698 0.913 . S
H2718 C2736 0.951 . S
H2719 C2738 0.951 . S
H2720 C2740 0.950 . S
H2721 C2741 0.950 . S
H2722 C2743 0.950 . S
H2723 C2746 0.950 . S
H2724 C2747 0.950 . S
H2725 C2749 0.950 . S
H2726 C2750 0.950 . S
H2727 C2751 0.951 . S
H2728 C2753 0.951 . S
H2729 C2755 0.950 . S
H2730 C2756 0.950 . S
H2731 C2758 0.950 . S
H2732 C2761 0.950 . S
H2733 C2762 0.950 . S
H2734 C2764 0.950 . S
H2735 C2765 0.950 . S
C2736 H2718 0.951 . S
C2736 C2737 1.366 . S
C2736 C2738 1.388 . S
C2737 C2736 1.366 . S
C2737 C2741 1.385 . S
C2738 H2719 0.951 . S
C2738 C2736 1.388 . S
C2738 C2739 1.366 . S
C2739 C2738 1.366 . S
C2739 C2740 1.414 . S
C2739 C2742 1.499 . S
C2740 H2720 0.950 . S
C2740 C2739 1.414 . S
C2740 C2741 1.374 . S
C2741 H2721 0.950 . S
C2741 C2737 1.385 . S
C2741 C2740 1.374 . S
C2742 C2739 1.499 . S
C2742 C2743 1.373 . S
C2742 C2744 1.389 . S
C2743 H2722 0.950 . S
C2743 C2742 1.373 . S
C2743 C2759 1.377 . S
C2744 C2742 1.389 . S
C2744 C2745 1.524 . S
C2744 C2758 1.377 . S
C2745 C2744 1.524 . S
C2745 C2746 1.397 . S
C2745 C2750 1.363 . S
C2746 H2723 0.950 . S
C2746 C2745 1.397 . S
C2746 C2747 1.334 . S
C2747 H2724 0.950 . S
C2747 C2746 1.334 . S
C2747 C2748 1.287 . S
C2748 C2747 1.287 . S
C2748 C2749 1.524 . S
C2748 H2767 0.913 . S
C2749 H2725 0.950 . S
C2749 C2748 1.524 . S
C2749 C2750 1.415 . S
C2750 H2726 0.950 . S
C2750 C2745 1.363 . S
C2750 C2749 1.415 . S
C2751 H2727 0.951 . S
C2751 C2752 1.366 . S
C2751 C2753 1.388 . S
C2752 C2751 1.366 . S
C2752 C2756 1.385 . S
C2753 H2728 0.951 . S
C2753 C2751 1.388 . S
C2753 C2754 1.366 . S
C2754 C2753 1.366 . S
C2754 C2755 1.414 . S
C2754 C2757 1.499 . S
C2755 H2729 0.950 . S
C2755 C2754 1.414 . S
C2755 C2756 1.374 . S
C2756 H2730 0.950 . S
C2756 C2752 1.385 . S
C2756 C2755 1.374 . S
C2757 C2754 1.499 . S
C2757 C2758 1.373 . S
C2757 C2759 1.389 . S
C2758 H2731 0.950 . S
C2758 C2744 1.377 . S
C2758 C2757 1.373 . S
C2759 C2743 1.377 . S
C2759 C2757 1.389 . S
C2759 C2760 1.524 . S
C2760 C2759 1.524 . S
C2760 C2761 1.397 . S
C2760 C2765 1.363 . S
C2761 H2732 0.950 . S
C2761 C2760 1.397 . S
C2761 C2762 1.334 . S
C2762 H2733 0.950 . S
C2762 C2761 1.334 . S
C2762 C2763 1.287 . S
C2763 C2762 1.287 . S
C2763 C2764 1.524 . S
C2763 H2766 0.999 . S
C2764 H2734 0.950 . S
C2764 C2763 1.524 . S
C2764 C2765 1.415 . S
C2765 H2735 0.950 . S
C2765 C2760 1.363 . S
C2765 C2764 1.415 . S
H2766 C2763 0.999 . S
H2767 C2748 0.913 . S
H2768 C2786 0.951 . S
H2769 C2788 0.951 . S
H2770 C2790 0.950 . S
H2771 C2791 0.950 . S
H2772 C2793 0.950 . S
H2773 C2796 0.950 . S
H2774 C2797 0.950 . S
H2775 C2799 0.950 . S
H2776 C2800 0.950 . S
H2777 C2801 0.951 . S
H2778 C2803 0.951 . S
H2779 C2805 0.950 . S
H2780 C2806 0.950 . S
H2781 C2808 0.950 . S
H2782 C2811 0.950 . S
H2783 C2812 0.950 . S
H2784 C2814 0.950 . S
H2785 C2815 0.950 . S
C2786 H2768 0.951 . S
C2786 C2787 1.366 . S
C2786 C2788 1.388 . S
C2787 C2786 1.366 . S
C2787 C2791 1.385 . S
C2788 H2769 0.951 . S
C2788 C2786 1.388 . S
C2788 C2789 1.366 . S
C2789 C2788 1.366 . S
C2789 C2790 1.414 . S
C2789 C2792 1.499 . S
C2790 H2770 0.950 . S
C2790 C2789 1.414 . S
C2790 C2791 1.374 . S
C2791 H2771 0.950 . S
C2791 C2787 1.385 . S
C2791 C2790 1.374 . S
C2792 C2789 1.499 . S
C2792 C2793 1.373 . S
C2792 C2794 1.389 . S
C2793 H2772 0.950 . S
C2793 C2792 1.373 . S
C2793 C2809 1.377 . S
C2794 C2792 1.389 . S
C2794 C2795 1.524 . S
C2794 C2808 1.377 . S
C2795 C2794 1.524 . S
C2795 C2796 1.397 . S
C2795 C2800 1.363 . S
C2796 H2773 0.950 . S
C2796 C2795 1.397 . S
C2796 C2797 1.334 . S
C2797 H2774 0.950 . S
C2797 C2796 1.334 . S
C2797 C2798 1.287 . S
C2798 C2797 1.287 . S
C2798 C2799 1.524 . S
C2798 H2817 0.913 . S
C2799 H2775 0.950 . S
C2799 C2798 1.524 . S
C2799 C2800 1.415 . S
C2800 H2776 0.950 . S
C2800 C2795 1.363 . S
C2800 C2799 1.415 . S
C2801 H2777 0.951 . S
C2801 C2802 1.366 . S
C2801 C2803 1.388 . S
C2802 C2801 1.366 . S
C2802 C2806 1.385 . S
C2803 H2778 0.951 . S
C2803 C2801 1.388 . S
C2803 C2804 1.366 . S
C2804 C2803 1.366 . S
C2804 C2805 1.414 . S
C2804 C2807 1.499 . S
C2805 H2779 0.950 . S
C2805 C2804 1.414 . S
C2805 C2806 1.374 . S
C2806 H2780 0.950 . S
C2806 C2802 1.385 . S
C2806 C2805 1.374 . S
C2807 C2804 1.499 . S
C2807 C2808 1.373 . S
C2807 C2809 1.389 . S
C2808 H2781 0.950 . S
C2808 C2794 1.377 . S
C2808 C2807 1.373 . S
C2809 C2793 1.377 . S
C2809 C2807 1.389 . S
C2809 C2810 1.524 . S
C2810 C2809 1.524 . S
C2810 C2811 1.397 . S
C2810 C2815 1.363 . S
C2811 H2782 0.950 . S
C2811 C2810 1.397 . S
C2811 C2812 1.334 . S
C2812 H2783 0.950 . S
C2812 C2811 1.334 . S
C2812 C2813 1.287 . S
C2813 C2812 1.287 . S
C2813 C2814 1.524 . S
C2813 H2816 0.999 . S
C2814 H2784 0.950 . S
C2814 C2813 1.524 . S
C2814 C2815 1.415 . S
C2815 H2785 0.950 . S
C2815 C2810 1.363 . S
C2815 C2814 1.415 . S
H2816 C2813 0.999 . S
H2817 C2798 0.913 . S
H2818 C2836 0.951 . S
H2819 C2838 0.951 . S
H2820 C2840 0.950 . S
H2821 C2841 0.950 . S
H2822 C2843 0.950 . S
H2823 C2846 0.950 . S
H2824 C2847 0.950 . S
H2825 C2849 0.950 . S
H2826 C2850 0.950 . S
H2827 C2851 0.951 . S
H2828 C2853 0.951 . S
H2829 C2855 0.950 . S
H2830 C2856 0.950 . S
H2831 C2858 0.950 . S
H2832 C2861 0.950 . S
H2833 C2862 0.950 . S
H2834 C2864 0.950 . S
H2835 C2865 0.950 . S
C2836 H2818 0.951 . S
C2836 C2837 1.366 . S
C2836 C2838 1.388 . S
C2837 C2836 1.366 . S
C2837 C2841 1.385 . S
C2838 H2819 0.951 . S
C2838 C2836 1.388 . S
C2838 C2839 1.366 . S
C2839 C2838 1.366 . S
C2839 C2840 1.414 . S
C2839 C2842 1.499 . S
C2840 H2820 0.950 . S
C2840 C2839 1.414 . S
C2840 C2841 1.374 . S
C2841 H2821 0.950 . S
C2841 C2837 1.385 . S
C2841 C2840 1.374 . S
C2842 C2839 1.499 . S
C2842 C2843 1.373 . S
C2842 C2844 1.389 . S
C2843 H2822 0.950 . S
C2843 C2842 1.373 . S
C2843 C2859 1.377 . S
C2844 C2842 1.389 . S
C2844 C2845 1.524 . S
C2844 C2858 1.377 . S
C2845 C2844 1.524 . S
C2845 C2846 1.397 . S
C2845 C2850 1.363 . S
C2846 H2823 0.950 . S
C2846 C2845 1.397 . S
C2846 C2847 1.334 . S
C2847 H2824 0.950 . S
C2847 C2846 1.334 . S
C2847 C2848 1.287 . S
C2848 C2847 1.287 . S
C2848 C2849 1.524 . S
C2848 H2867 0.913 . S
C2849 H2825 0.950 . S
C2849 C2848 1.524 . S
C2849 C2850 1.415 . S
C2850 H2826 0.950 . S
C2850 C2845 1.363 . S
C2850 C2849 1.415 . S
C2851 H2827 0.951 . S
C2851 C2852 1.366 . S
C2851 C2853 1.388 . S
C2852 C2851 1.366 . S
C2852 C2856 1.385 . S
C2853 H2828 0.951 . S
C2853 C2851 1.388 . S
C2853 C2854 1.366 . S
C2854 C2853 1.366 . S
C2854 C2855 1.414 . S
C2854 C2857 1.499 . S
C2855 H2829 0.950 . S
C2855 C2854 1.414 . S
C2855 C2856 1.374 . S
C2856 H2830 0.950 . S
C2856 C2852 1.385 . S
C2856 C2855 1.374 . S
C2857 C2854 1.499 . S
C2857 C2858 1.373 . S
C2857 C2859 1.389 . S
C2858 H2831 0.950 . S
C2858 C2844 1.377 . S
C2858 C2857 1.373 . S
C2859 C2843 1.377 . S
C2859 C2857 1.389 . S
C2859 C2860 1.524 . S
C2860 C2859 1.524 . S
C2860 C2861 1.397 . S
C2860 C2865 1.363 . S
C2861 H2832 0.950 . S
C2861 C2860 1.397 . S
C2861 C2862 1.334 . S
C2862 H2833 0.950 . S
C2862 C2861 1.334 . S
C2862 C2863 1.287 . S
C2863 C2862 1.287 . S
C2863 C2864 1.524 . S
C2863 H2866 0.999 . S
C2864 H2834 0.950 . S
C2864 C2863 1.524 . S
C2864 C2865 1.415 . S
C2865 H2835 0.950 . S
C2865 C2860 1.363 . S
C2865 C2864 1.415 . S
H2866 C2863 0.999 . S
H2867 C2848 0.913 . S
H2868 C2886 0.951 . S
H2869 C2888 0.905 1_655 S
H2870 C2890 0.950 . S
H2871 C2891 0.950 . S
H2872 C2893 0.950 . S
H2873 C2896 0.950 . S
H2874 C2897 0.950 . S
H2875 C2899 0.950 . S
H2876 C2900 0.950 . S
H2877 C2901 0.951 . S
H2878 C2903 0.905 1_455 S
H2879 C2905 0.950 . S
H2880 C2906 0.950 . S
H2881 C2908 0.950 . S
H2882 C2911 0.950 . S
H2883 C2912 0.950 . S
H2884 C2914 0.950 . S
H2885 C2915 0.950 . S
C2886 H2868 0.951 . S
C2886 C2887 1.366 . S
C2886 C2888 1.388 . S
C2887 C2886 1.366 . S
C2887 C2891 1.385 . S
C2888 H2869 0.905 1_455 S
C2888 C2886 1.388 . S
C2888 C2889 1.366 . S
C2889 C2888 1.366 . S
C2889 C2890 1.414 . S
C2889 C2892 1.499 . S
C2890 H2870 0.950 . S
C2890 C2889 1.414 . S
C2890 C2891 1.374 . S
C2891 H2871 0.950 . S
C2891 C2887 1.385 . S
C2891 C2890 1.374 . S
C2892 C2889 1.499 . S
C2892 C2893 1.373 . S
C2892 C2894 1.389 1_455 S
C2893 H2872 0.950 . S
C2893 C2892 1.373 . S
C2893 C2909 1.377 . S
C2894 C2892 1.389 1_655 S
C2894 C2895 1.524 . S
C2894 C2908 1.377 . S
C2895 C2894 1.524 . S
C2895 C2896 1.397 . S
C2895 C2900 1.363 . S
C2896 H2873 0.950 . S
C2896 C2895 1.397 . S
C2896 C2897 1.334 . S
C2897 H2874 0.950 . S
C2897 C2896 1.334 . S
C2897 C2898 1.287 . S
C2898 C2897 1.287 . S
C2898 C2899 1.524 . S
C2898 H2917 0.913 . S
C2899 H2875 0.950 . S
C2899 C2898 1.524 . S
C2899 C2900 1.415 . S
C2900 H2876 0.950 . S
C2900 C2895 1.363 . S
C2900 C2899 1.415 . S
C2901 H2877 0.951 . S
C2901 C2902 1.366 . S
C2901 C2903 1.388 . S
C2902 C2901 1.366 . S
C2902 C2906 1.385 . S
C2903 H2878 0.905 1_655 S
C2903 C2901 1.388 . S
C2903 C2904 1.366 . S
C2904 C2903 1.366 . S
C2904 C2905 1.414 . S
C2904 C2907 1.499 . S
C2905 H2879 0.950 . S
C2905 C2904 1.414 . S
C2905 C2906 1.374 . S
C2906 H2880 0.950 . S
C2906 C2902 1.385 . S
C2906 C2905 1.374 . S
C2907 C2904 1.499 . S
C2907 C2908 1.373 . S
C2907 C2909 1.389 1_655 S
C2908 H2881 0.950 . S
C2908 C2894 1.377 . S
C2908 C2907 1.373 . S
C2909 C2893 1.377 . S
C2909 C2907 1.389 1_455 S
C2909 C2910 1.524 . S
C2910 C2909 1.524 . S
C2910 C2911 1.397 . S
C2910 C2915 1.363 . S
C2911 H2882 0.950 . S
C2911 C2910 1.397 . S
C2911 C2912 1.334 . S
C2912 H2883 0.950 . S
C2912 C2911 1.334 . S
C2912 C2913 1.287 . S
C2913 C2912 1.287 . S
C2913 C2914 1.524 . S
C2913 H2916 0.999 . S
C2914 H2884 0.950 . S
C2914 C2913 1.524 . S
C2914 C2915 1.415 . S
C2915 H2885 0.950 . S
C2915 C2910 1.363 . S
C2915 C2914 1.415 . S
H2916 C2913 0.999 . S
H2917 C2898 0.913 . S
H2918 C2936 0.951 . S
H2919 C2938 0.951 . S
H2920 C2940 0.950 . S
H2921 C2941 0.950 . S
H2922 C2943 0.950 . S
H2923 C2946 0.950 . S
H2924 C2947 0.950 . S
H2925 C2949 0.950 . S
H2926 C2950 0.950 . S
H2927 C2951 0.951 . S
H2928 C2953 0.951 . S
H2929 C2955 0.950 . S
H2930 C2956 0.950 . S
H2931 C2958 0.950 . S
H2932 C2961 0.950 . S
H2933 C2962 0.950 . S
H2934 C2964 0.950 . S
H2935 C2965 0.950 . S
C2936 H2918 0.951 . S
C2936 C2937 1.366 . S
C2936 C2938 1.388 . S
C2937 C2936 1.366 . S
C2937 C2941 1.385 . S
C2938 H2919 0.951 . S
C2938 C2936 1.388 . S
C2938 C2939 1.366 . S
C2939 C2938 1.366 . S
C2939 C2940 1.414 . S
C2939 C2942 1.499 . S
C2940 H2920 0.950 . S
C2940 C2939 1.414 . S
C2940 C2941 1.374 . S
C2941 H2921 0.950 . S
C2941 C2937 1.385 . S
C2941 C2940 1.374 . S
C2942 C2939 1.499 . S
C2942 C2943 1.373 . S
C2942 C2944 1.389 . S
C2943 H2922 0.950 . S
C2943 C2942 1.373 . S
C2943 C2959 1.377 . S
C2944 C2942 1.389 . S
C2944 C2945 1.524 . S
C2944 C2958 1.377 . S
C2945 C2944 1.524 . S
C2945 C2946 1.397 . S
C2945 C2950 1.363 . S
C2946 H2923 0.950 . S
C2946 C2945 1.397 . S
C2946 C2947 1.334 . S
C2947 H2924 0.950 . S
C2947 C2946 1.334 . S
C2947 C2948 1.287 . S
C2948 C2947 1.287 . S
C2948 C2949 1.524 . S
C2948 H2967 0.913 . S
C2949 H2925 0.950 . S
C2949 C2948 1.524 . S
C2949 C2950 1.415 . S
C2950 H2926 0.950 . S
C2950 C2945 1.363 . S
C2950 C2949 1.415 . S
C2951 H2927 0.951 . S
C2951 C2952 1.366 . S
C2951 C2953 1.388 . S
C2952 C2951 1.366 . S
C2952 C2956 1.385 . S
C2953 H2928 0.951 . S
C2953 C2951 1.388 . S
C2953 C2954 1.366 . S
C2954 C2953 1.366 . S
C2954 C2955 1.414 . S
C2954 C2957 1.499 . S
C2955 H2929 0.950 . S
C2955 C2954 1.414 . S
C2955 C2956 1.374 . S
C2956 H2930 0.950 . S
C2956 C2952 1.385 . S
C2956 C2955 1.374 . S
C2957 C2954 1.499 . S
C2957 C2958 1.373 . S
C2957 C2959 1.389 . S
C2958 H2931 0.950 . S
C2958 C2944 1.377 . S
C2958 C2957 1.373 . S
C2959 C2943 1.377 . S
C2959 C2957 1.389 . S
C2959 C2960 1.524 . S
C2960 C2959 1.524 . S
C2960 C2961 1.397 . S
C2960 C2965 1.363 . S
C2961 H2932 0.950 . S
C2961 C2960 1.397 . S
C2961 C2962 1.334 . S
C2962 H2933 0.950 . S
C2962 C2961 1.334 . S
C2962 C2963 1.287 . S
C2963 C2962 1.287 . S
C2963 C2964 1.524 . S
C2963 H2966 0.999 . S
C2964 H2934 0.950 . S
C2964 C2963 1.524 . S
C2964 C2965 1.415 . S
C2965 H2935 0.950 . S
C2965 C2960 1.363 . S
C2965 C2964 1.415 . S
H2966 C2963 0.999 . S
H2967 C2948 0.913 . S
H2968 C2986 0.951 . S
H2969 C2988 0.951 . S
H2970 C2990 0.950 . S
H2971 C2991 0.950 . S
H2972 C2993 0.950 . S
H2973 C2996 0.950 . S
H2974 C2997 0.950 . S
H2975 C2999 0.950 . S
H2976 C3000 0.950 . S
H2977 C3001 0.951 . S
H2978 C3003 0.951 . S
H2979 C3005 0.950 . S
H2980 C3006 0.950 . S
H2981 C3008 0.950 . S
H2982 C3011 0.950 . S
H2983 C3012 0.950 . S
H2984 C3014 0.950 . S
H2985 C3015 0.950 . S
C2986 H2968 0.951 . S
C2986 C2987 1.366 . S
C2986 C2988 1.388 . S
C2987 C2986 1.366 . S
C2987 C2991 1.385 . S
C2988 H2969 0.951 . S
C2988 C2986 1.388 . S
C2988 C2989 1.366 . S
C2989 C2988 1.366 . S
C2989 C2990 1.414 . S
C2989 C2992 1.499 . S
C2990 H2970 0.950 . S
C2990 C2989 1.414 . S
C2990 C2991 1.374 . S
C2991 H2971 0.950 . S
C2991 C2987 1.385 . S
C2991 C2990 1.374 . S
C2992 C2989 1.499 . S
C2992 C2993 1.373 1_545 S
C2992 C2994 1.389 . S
C2993 H2972 0.950 . S
C2993 C2992 1.373 1_565 S
C2993 C3009 1.377 . S
C2994 C2992 1.389 . S
C2994 C2995 1.524 . S
C2994 C3008 1.377 . S
C2995 C2994 1.524 . S
C2995 C2996 1.397 . S
C2995 C3000 1.363 . S
C2996 H2973 0.950 . S
C2996 C2995 1.397 . S
C2996 C2997 1.334 . S
C2997 H2974 0.950 . S
C2997 C2996 1.334 . S
C2997 C2998 1.287 . S
C2998 C2997 1.287 . S
C2998 C2999 1.524 . S
C2998 H3017 0.913 . S
C2999 H2975 0.950 . S
C2999 C2998 1.524 . S
C2999 C3000 1.415 . S
C3000 H2976 0.950 . S
C3000 C2995 1.363 . S
C3000 C2999 1.415 . S
C3001 H2977 0.951 . S
C3001 C3002 1.366 . S
C3001 C3003 1.388 . S
C3002 C3001 1.366 . S
C3002 C3006 1.385 . S
C3003 H2978 0.951 . S
C3003 C3001 1.388 . S
C3003 C3004 1.366 . S
C3004 C3003 1.366 . S
C3004 C3005 1.414 . S
C3004 C3007 1.499 . S
C3005 H2979 0.950 . S
C3005 C3004 1.414 . S
C3005 C3006 1.374 . S
C3006 H2980 0.950 . S
C3006 C3002 1.385 . S
C3006 C3005 1.374 . S
C3007 C3004 1.499 . S
C3007 C3008 1.373 1_565 S
C3007 C3009 1.389 . S
C3008 H2981 0.950 . S
C3008 C2994 1.377 . S
C3008 C3007 1.373 1_545 S
C3009 C2993 1.377 . S
C3009 C3007 1.389 . S
C3009 C3010 1.524 . S
C3010 C3009 1.524 . S
C3010 C3011 1.397 . S
C3010 C3015 1.363 . S
C3011 H2982 0.950 . S
C3011 C3010 1.397 . S
C3011 C3012 1.334 . S
C3012 H2983 0.950 . S
C3012 C3011 1.334 . S
C3012 C3013 1.287 . S
C3013 C3012 1.287 . S
C3013 C3014 1.524 . S
C3013 H3016 0.999 . S
C3014 H2984 0.950 . S
C3014 C3013 1.524 . S
C3014 C3015 1.415 . S
C3015 H2985 0.950 . S
C3015 C3010 1.363 . S
C3015 C3014 1.415 . S
H3016 C3013 0.999 . S
H3017 C2998 0.913 . S
H3018 C3036 0.951 . S
H3019 C3038 0.951 . S
H3020 C3040 0.950 1_565 S
H3021 C3041 0.950 . S
H3022 C3043 0.950 . S
H3023 C3046 0.950 . S
H3024 C3047 0.950 . S
H3025 C3049 0.950 . S
H3026 C3050 0.950 . S
H3027 C3051 0.951 . S
H3028 C3053 0.951 . S
H3029 C3055 0.950 1_545 S
H3030 C3056 0.950 . S
H3031 C3058 0.950 . S
H3032 C3061 0.950 . S
H3033 C3062 0.950 . S
H3034 C3064 0.950 . S
H3035 C3065 0.950 . S
C3036 H3018 0.951 . S
C3036 C3037 1.366 . S
C3036 C3038 1.388 . S
C3037 C3036 1.366 . S
C3037 C3041 1.385 . S
C3038 H3019 0.951 . S
C3038 C3036 1.388 . S
C3038 C3039 1.366 . S
C3039 C3038 1.366 . S
C3039 C3040 1.414 . S
C3039 C3042 1.499 . S
C3040 H3020 0.950 1_545 S
C3040 C3039 1.414 . S
C3040 C3041 1.374 . S
C3041 H3021 0.950 . S
C3041 C3037 1.385 . S
C3041 C3040 1.374 . S
C3042 C3039 1.499 . S
C3042 C3043 1.373 1_556 S
C3042 C3044 1.389 . S
C3043 H3022 0.950 . S
C3043 C3042 1.373 1_554 S
C3043 C3059 1.377 1_545 S
C3044 C3042 1.389 . S
C3044 C3045 1.524 . S
C3044 C3058 1.377 1_545 S
C3045 C3044 1.524 . S
C3045 C3046 1.397 1_545 S
C3045 C3050 1.363 . S
C3046 H3023 0.950 . S
C3046 C3045 1.397 1_565 S
C3046 C3047 1.334 . S
C3047 H3024 0.950 . S
C3047 C3046 1.334 . S
C3047 C3048 1.288 . S
C3048 C3047 1.288 . S
C3048 C3049 1.521 1_565 S
C3048 H3067 0.914 . S
C3049 H3025 0.950 . S
C3049 C3048 1.521 1_545 S
C3049 C3050 1.415 . S
C3050 H3026 0.950 . S
C3050 C3045 1.363 . S
C3050 C3049 1.415 . S
C3051 H3027 0.951 . S
C3051 C3052 1.366 . S
C3051 C3053 1.388 . S
C3052 C3051 1.366 . S
C3052 C3056 1.385 . S
C3053 H3028 0.951 . S
C3053 C3051 1.388 . S
C3053 C3054 1.366 . S
C3054 C3053 1.366 . S
C3054 C3055 1.414 . S
C3054 C3057 1.499 . S
C3055 H3029 0.950 1_565 S
C3055 C3054 1.414 . S
C3055 C3056 1.374 . S
C3056 H3030 0.950 . S
C3056 C3052 1.385 . S
C3056 C3055 1.374 . S
C3057 C3054 1.499 . S
C3057 C3058 1.373 1_554 S
C3057 C3059 1.389 . S
C3058 H3031 0.950 . S
C3058 C3044 1.377 1_565 S
C3058 C3057 1.373 1_556 S
C3059 C3043 1.377 1_565 S
C3059 C3057 1.389 . S
C3059 C3060 1.524 . S
C3060 C3059 1.524 . S
C3060 C3061 1.397 1_565 S
C3060 C3065 1.363 . S
C3061 H3032 0.950 . S
C3061 C3060 1.397 1_545 S
C3061 C3062 1.334 . S
C3062 H3033 0.950 . S
C3062 C3061 1.334 . S
C3062 C3063 1.288 . S
C3063 C3062 1.288 . S
C3063 C3064 1.521 1_545 S
C3063 H3066 0.999 . S
C3064 H3034 0.950 . S
C3064 C3063 1.521 1_565 S
C3064 C3065 1.415 . S
C3065 H3035 0.950 . S
C3065 C3060 1.363 . S
C3065 C3064 1.415 . S
H3066 C3063 0.999 . S
H3067 C3048 0.914 . S
H3068 C3086 0.951 . S
H3069 C3088 0.951 . S
H3070 C3090 0.950 1_655 S
H3071 C3091 0.932 1_655 S
H3072 C3093 0.950 . S
H3073 C3096 0.950 . S
H3074 C3097 0.950 . S
H3075 C3099 0.950 . S
H3076 C3100 0.950 . S
H3077 C3101 0.951 . S
H3078 C3103 0.951 . S
H3079 C3105 0.950 1_455 S
H3080 C3106 0.932 1_455 S
H3081 C3108 0.950 . S
H3082 C3111 0.950 . S
H3083 C3112 0.950 . S
H3084 C3114 0.950 . S
H3085 C3115 0.950 . S
C3086 H3068 0.951 . S
C3086 C3087 1.366 . S
C3086 C3088 1.388 . S
C3087 C3086 1.366 . S
C3087 C3091 1.385 . S
C3088 H3069 0.951 . S
C3088 C3086 1.388 . S
C3088 C3089 1.366 . S
C3089 C3088 1.366 . S
C3089 C3090 1.414 . S
C3089 C3092 1.499 . S
C3090 H3070 0.950 1_455 S
C3090 C3089 1.414 . S
C3090 C3091 1.374 . S
C3091 H3071 0.932 1_455 S
C3091 C3087 1.385 . S
C3091 C3090 1.374 . S
C3092 C3089 1.499 . S
C3092 C3093 1.373 1_455 S
C3092 C3094 1.389 1_554 S
C3093 H3072 0.950 . S
C3093 C3092 1.373 1_655 S
C3093 C3109 1.377 . S
C3094 C3092 1.389 1_556 S
C3094 C3095 1.524 . S
C3094 C3108 1.377 . S
C3095 C3094 1.524 . S
C3095 C3096 1.397 . S
C3095 C3100 1.363 . S
C3096 H3073 0.950 . S
C3096 C3095 1.397 . S
C3096 C3097 1.334 . S
C3097 H3074 0.950 . S
C3097 C3096 1.334 . S
C3097 C3098 1.287 . S
C3098 C3097 1.287 . S
C3098 C3099 1.524 . S
C3098 H3117 0.913 . S
C3099 H3075 0.950 . S
C3099 C3098 1.524 . S
C3099 C3100 1.415 . S
C3100 H3076 0.950 . S
C3100 C3095 1.363 . S
C3100 C3099 1.415 . S
C3101 H3077 0.951 . S
C3101 C3102 1.366 . S
C3101 C3103 1.388 . S
C3102 C3101 1.366 . S
C3102 C3106 1.385 . S
C3103 H3078 0.951 . S
C3103 C3101 1.388 . S
C3103 C3104 1.366 . S
C3104 C3103 1.366 . S
C3104 C3105 1.414 . S
C3104 C3107 1.499 . S
C3105 H3079 0.950 1_655 S
C3105 C3104 1.414 . S
C3105 C3106 1.374 . S
C3106 H3080 0.932 1_655 S
C3106 C3102 1.385 . S
C3106 C3105 1.374 . S
C3107 C3104 1.499 . S
C3107 C3108 1.373 1_655 S
C3107 C3109 1.389 1_556 S
C3108 H3081 0.950 . S
C3108 C3094 1.377 . S
C3108 C3107 1.373 1_455 S
C3109 C3093 1.377 . S
C3109 C3107 1.389 1_554 S
C3109 C3110 1.524 . S
C3110 C3109 1.524 . S
C3110 C3111 1.397 . S
C3110 C3115 1.363 . S
C3111 H3082 0.950 . S
C3111 C3110 1.397 . S
C3111 C3112 1.334 . S
C3112 H3083 0.950 . S
C3112 C3111 1.334 . S
C3112 C3113 1.287 . S
C3113 C3112 1.287 . S
C3113 C3114 1.524 . S
C3113 H3116 0.999 . S
C3114 H3084 0.950 . S
C3114 C3113 1.524 . S
C3114 C3115 1.415 . S
C3115 H3085 0.950 . S
C3115 C3110 1.363 . S
C3115 C3114 1.415 . S
H3116 C3113 0.999 . S
H3117 C3098 0.913 . S
H3118 C3136 0.951 . S
H3119 C3138 0.951 . S
H3120 C3140 0.950 . S
H3121 C3141 0.950 . S
H3122 C3143 0.950 . S
H3123 C3146 0.950 . S
H3124 C3147 0.950 . S
H3125 C3149 0.950 . S
H3126 C3150 0.950 . S
H3127 C3151 0.951 . S
H3128 C3153 0.951 . S
H3129 C3155 0.950 . S
H3130 C3156 0.950 . S
H3131 C3158 0.950 . S
H3132 C3161 0.950 . S
H3133 C3162 0.950 . S
H3134 C3164 0.950 . S
H3135 C3165 0.950 . S
C3136 H3118 0.951 . S
C3136 C3137 1.366 . S
C3136 C3138 1.388 . S
C3137 C3136 1.366 . S
C3137 C3141 1.385 . S
C3138 H3119 0.951 . S
C3138 C3136 1.388 . S
C3138 C3139 1.366 . S
C3139 C3138 1.366 . S
C3139 C3140 1.414 . S
C3139 C3142 1.499 . S
C3140 H3120 0.950 . S
C3140 C3139 1.414 . S
C3140 C3141 1.374 . S
C3141 H3121 0.950 . S
C3141 C3137 1.385 . S
C3141 C3140 1.374 . S
C3142 C3139 1.499 . S
C3142 C3143 1.373 1_554 S
C3142 C3144 1.389 . S
C3143 H3122 0.950 . S
C3143 C3142 1.373 1_556 S
C3143 C3159 1.377 . S
C3144 C3142 1.389 . S
C3144 C3145 1.524 . S
C3144 C3158 1.377 . S
C3145 C3144 1.524 . S
C3145 C3146 1.397 . S
C3145 C3150 1.363 . S
C3146 H3123 0.950 . S
C3146 C3145 1.397 . S
C3146 C3147 1.334 . S
C3147 H3124 0.950 . S
C3147 C3146 1.334 . S
C3147 C3148 1.287 . S
C3148 C3147 1.287 . S
C3148 C3149 1.524 . S
C3148 H3167 0.913 . S
C3149 H3125 0.950 . S
C3149 C3148 1.524 . S
C3149 C3150 1.415 . S
C3150 H3126 0.950 . S
C3150 C3145 1.363 . S
C3150 C3149 1.415 . S
C3151 H3127 0.951 . S
C3151 C3152 1.366 . S
C3151 C3153 1.388 . S
C3152 C3151 1.366 . S
C3152 C3156 1.385 . S
C3153 H3128 0.951 . S
C3153 C3151 1.388 . S
C3153 C3154 1.366 . S
C3154 C3153 1.366 . S
C3154 C3155 1.414 . S
C3154 C3157 1.499 . S
C3155 H3129 0.950 . S
C3155 C3154 1.414 . S
C3155 C3156 1.374 . S
C3156 H3130 0.950 . S
C3156 C3152 1.385 . S
C3156 C3155 1.374 . S
C3157 C3154 1.499 . S
C3157 C3158 1.373 1_556 S
C3157 C3159 1.389 . S
C3158 H3131 0.950 . S
C3158 C3144 1.377 . S
C3158 C3157 1.373 1_554 S
C3159 C3143 1.377 . S
C3159 C3157 1.389 . S
C3159 C3160 1.524 . S
C3160 C3159 1.524 . S
C3160 C3161 1.397 . S
C3160 C3165 1.363 . S
C3161 H3132 0.950 . S
C3161 C3160 1.397 . S
C3161 C3162 1.334 . S
C3162 H3133 0.950 . S
C3162 C3161 1.334 . S
C3162 C3163 1.287 . S
C3163 C3162 1.287 . S
C3163 C3164 1.524 . S
C3163 H3166 0.999 . S
C3164 H3134 0.950 . S
C3164 C3163 1.524 . S
C3164 C3165 1.415 . S
C3165 H3135 0.950 . S
C3165 C3160 1.363 . S
C3165 C3164 1.415 . S
H3166 C3163 0.999 . S
H3167 C3148 0.913 . S
H3168 C3186 0.951 . S
H3169 C3188 0.951 . S
H3170 C3190 0.950 . S
H3171 C3191 0.950 . S
H3172 C3193 0.950 . S
H3173 C3196 0.950 . S
H3174 C3197 0.950 . S
H3175 C3199 0.950 . S
H3176 C3200 0.950 . S
H3177 C3201 0.951 . S
H3178 C3203 0.951 . S
H3179 C3205 0.950 . S
H3180 C3206 0.950 . S
H3181 C3208 0.950 . S
H3182 C3211 0.950 . S
H3183 C3212 0.950 . S
H3184 C3214 0.950 . S
H3185 C3215 0.950 . S
C3186 H3168 0.951 . S
C3186 C3187 1.366 1_554 S
C3186 C3188 1.388 . S
C3187 C3186 1.366 1_556 S
C3187 C3191 1.385 . S
C3188 H3169 0.951 . S
C3188 C3186 1.388 . S
C3188 C3189 1.366 . S
C3189 C3188 1.366 . S
C3189 C3190 1.414 . S
C3189 C3192 1.499 . S
C3190 H3170 0.950 . S
C3190 C3189 1.414 . S
C3190 C3191 1.374 1_554 S
C3191 H3171 0.950 . S
C3191 C3187 1.385 . S
C3191 C3190 1.374 1_556 S
C3192 C3189 1.499 . S
C3192 C3193 1.373 . S
C3192 C3194 1.389 . S
C3193 H3172 0.950 . S
C3193 C3192 1.373 . S
C3193 C3209 1.377 . S
C3194 C3192 1.389 . S
C3194 C3195 1.524 . S
C3194 C3208 1.377 . S
C3195 C3194 1.524 . S
C3195 C3196 1.397 . S
C3195 C3200 1.363 . S
C3196 H3173 0.950 . S
C3196 C3195 1.397 . S
C3196 C3197 1.334 . S
C3197 H3174 0.950 . S
C3197 C3196 1.334 . S
C3197 C3198 1.287 . S
C3198 C3197 1.287 . S
C3198 C3199 1.524 . S
C3198 H3217 0.913 . S
C3199 H3175 0.950 . S
C3199 C3198 1.524 . S
C3199 C3200 1.415 . S
C3200 H3176 0.950 . S
C3200 C3195 1.363 . S
C3200 C3199 1.415 . S
C3201 H3177 0.951 . S
C3201 C3202 1.366 . S
C3201 C3203 1.388 . S
C3202 C3201 1.366 . S
C3202 C3206 1.385 . S
C3203 H3178 0.951 . S
C3203 C3201 1.388 . S
C3203 C3204 1.366 . S
C3204 C3203 1.366 . S
C3204 C3205 1.414 . S
C3204 C3207 1.499 . S
C3205 H3179 0.950 . S
C3205 C3204 1.414 . S
C3205 C3206 1.374 . S
C3206 H3180 0.950 . S
C3206 C3202 1.385 . S
C3206 C3205 1.374 . S
C3207 C3204 1.499 . S
C3207 C3208 1.373 . S
C3207 C3209 1.389 . S
C3208 H3181 0.950 . S
C3208 C3194 1.377 . S
C3208 C3207 1.373 . S
C3209 C3193 1.377 . S
C3209 C3207 1.389 . S
C3209 C3210 1.524 . S
C3210 C3209 1.524 . S
C3210 C3211 1.397 . S
C3210 C3215 1.363 . S
C3211 H3182 0.950 . S
C3211 C3210 1.397 . S
C3211 C3212 1.334 . S
C3212 H3183 0.950 . S
C3212 C3211 1.334 . S
C3212 C3213 1.287 . S
C3213 C3212 1.287 . S
C3213 C3214 1.524 . S
C3213 H3216 0.999 . S
C3214 H3184 0.950 . S
C3214 C3213 1.524 . S
C3214 C3215 1.415 . S
C3215 H3185 0.950 . S
C3215 C3210 1.363 . S
C3215 C3214 1.415 . S
H3216 C3213 0.999 . S
H3217 C3198 0.913 . S
H3218 C3236 0.951 . S
H3219 C3238 0.951 . S
H3220 C3240 0.950 . S
H3221 C3241 0.950 . S
H3222 C3243 0.950 . S
H3223 C3246 0.950 . S
H3224 C3247 0.950 . S
H3225 C3249 0.950 . S
H3226 C3250 0.950 . S
H3227 C3251 0.951 . S
H3228 C3253 0.951 . S
H3229 C3255 0.950 . S
H3230 C3256 0.950 . S
H3231 C3258 0.950 . S
H3232 C3261 0.950 . S
H3233 C3262 0.950 . S
H3234 C3264 0.950 . S
H3235 C3265 0.950 . S
C3236 H3218 0.951 . S
C3236 C3237 1.366 . S
C3236 C3238 1.388 . S
C3237 C3236 1.366 . S
C3237 C3241 1.385 . S
C3238 H3219 0.951 . S
C3238 C3236 1.388 . S
C3238 C3239 1.366 . S
C3239 C3238 1.366 . S
C3239 C3240 1.414 . S
C3239 C3242 1.499 . S
C3240 H3220 0.950 . S
C3240 C3239 1.414 . S
C3240 C3241 1.374 . S
C3241 H3221 0.950 . S
C3241 C3237 1.385 . S
C3241 C3240 1.374 . S
C3242 C3239 1.499 . S
C3242 C3243 1.373 . S
C3242 C3244 1.389 . S
C3243 H3222 0.950 . S
C3243 C3242 1.373 . S
C3243 C3259 1.377 . S
C3244 C3242 1.389 . S
C3244 C3245 1.524 . S
C3244 C3258 1.377 . S
C3245 C3244 1.524 . S
C3245 C3246 1.397 . S
C3245 C3250 1.363 . S
C3246 H3223 0.950 . S
C3246 C3245 1.397 . S
C3246 C3247 1.334 . S
C3247 H3224 0.950 . S
C3247 C3246 1.334 . S
C3247 C3248 1.287 . S
C3248 C3247 1.287 . S
C3248 C3249 1.524 . S
C3248 H3267 0.913 . S
C3249 H3225 0.950 . S
C3249 C3248 1.524 . S
C3249 C3250 1.415 . S
C3250 H3226 0.950 . S
C3250 C3245 1.363 . S
C3250 C3249 1.415 . S
C3251 H3227 0.951 . S
C3251 C3252 1.366 . S
C3251 C3253 1.388 1_556 S
C3252 C3251 1.366 . S
C3252 C3256 1.385 1_556 S
C3253 H3228 0.951 . S
C3253 C3251 1.388 1_554 S
C3253 C3254 1.366 . S
C3254 C3253 1.366 . S
C3254 C3255 1.414 . S
C3254 C3257 1.499 . S
C3255 H3229 0.950 . S
C3255 C3254 1.414 . S
C3255 C3256 1.374 . S
C3256 H3230 0.950 . S
C3256 C3252 1.385 1_554 S
C3256 C3255 1.374 . S
C3257 C3254 1.499 . S
C3257 C3258 1.373 . S
C3257 C3259 1.389 . S
C3258 H3231 0.950 . S
C3258 C3244 1.377 . S
C3258 C3257 1.373 . S
C3259 C3243 1.377 . S
C3259 C3257 1.389 . S
C3259 C3260 1.524 . S
C3260 C3259 1.524 . S
C3260 C3261 1.397 . S
C3260 C3265 1.363 . S
C3261 H3232 0.950 . S
C3261 C3260 1.397 . S
C3261 C3262 1.334 . S
C3262 H3233 0.950 . S
C3262 C3261 1.334 . S
C3262 C3263 1.287 . S
C3263 C3262 1.287 . S
C3263 C3264 1.524 . S
C3263 H3266 0.999 . S
C3264 H3234 0.950 . S
C3264 C3263 1.524 . S
C3264 C3265 1.415 . S
C3265 H3235 0.950 . S
C3265 C3260 1.363 . S
C3265 C3264 1.415 . S
H3266 C3263 0.999 . S
H3267 C3248 0.913 . S
H3268 C3286 0.951 . S
H3269 C3288 0.951 . S
H3270 C3290 0.950 . S
H3271 C3291 0.950 . S
H3272 C3293 0.950 . S
H3273 C3296 0.950 . S
H3274 C3297 0.961 . S
H3275 C3299 0.950 . S
H3276 C3300 0.950 . S
H3277 C3301 0.951 . S
H3278 C3303 0.951 . S
H3279 C3305 0.950 . S
H3280 C3306 0.950 . S
H3281 C3308 0.950 . S
H3282 C3311 0.950 . S
H3283 C3312 0.950 . S
H3284 C3314 0.950 . S
H3285 C3315 0.950 . S
C3286 H3268 0.951 . S
C3286 C3287 1.366 1_554 S
C3286 C3288 1.388 . S
C3287 C3286 1.366 1_556 S
C3287 C3291 1.385 . S
C3288 H3269 0.951 . S
C3288 C3286 1.388 . S
C3288 C3289 1.366 . S
C3289 C3288 1.366 . S
C3289 C3290 1.414 . S
C3289 C3292 1.499 . S
C3290 H3270 0.950 . S
C3290 C3289 1.414 . S
C3290 C3291 1.374 1_554 S
C3291 H3271 0.950 . S
C3291 C3287 1.385 . S
C3291 C3290 1.374 1_556 S
C3292 C3289 1.499 . S
C3292 C3293 1.373 . S
C3292 C3294 1.389 . S
C3293 H3272 0.950 . S
C3293 C3292 1.373 . S
C3293 C3309 1.377 . S
C3294 C3292 1.389 . S
C3294 C3295 1.524 . S
C3294 C3308 1.377 . S
C3295 C3294 1.524 . S
C3295 C3296 1.397 . S
C3295 C3300 1.363 . S
C3296 H3273 0.950 . S
C3296 C3295 1.397 . S
C3296 C3297 1.327 1_554 S
C3297 H3274 0.961 . S
C3297 C3296 1.327 1_556 S
C3297 C3298 1.283 1_556 S
C3298 C3297 1.283 1_554 S
C3298 C3299 1.524 . S
C3298 H3317 0.913 1_554 S
C3299 H3275 0.950 . S
C3299 C3298 1.524 . S
C3299 C3300 1.415 . S
C3300 H3276 0.950 . S
C3300 C3295 1.363 . S
C3300 C3299 1.415 . S
C3301 H3277 0.951 . S
C3301 C3302 1.366 . S
C3301 C3303 1.388 . S
C3302 C3301 1.366 . S
C3302 C3306 1.385 . S
C3303 H3278 0.951 . S
C3303 C3301 1.388 . S
C3303 C3304 1.366 . S
C3304 C3303 1.366 . S
C3304 C3305 1.414 . S
C3304 C3307 1.499 . S
C3305 H3279 0.950 . S
C3305 C3304 1.414 . S
C3305 C3306 1.374 . S
C3306 H3280 0.950 . S
C3306 C3302 1.385 . S
C3306 C3305 1.374 . S
C3307 C3304 1.499 . S
C3307 C3308 1.373 . S
C3307 C3309 1.389 . S
C3308 H3281 0.950 . S
C3308 C3294 1.377 . S
C3308 C3307 1.373 . S
C3309 C3293 1.377 . S
C3309 C3307 1.389 . S
C3309 C3310 1.524 . S
C3310 C3309 1.524 . S
C3310 C3311 1.397 . S
C3310 C3315 1.363 . S
C3311 H3282 0.950 . S
C3311 C3310 1.397 . S
C3311 C3312 1.334 . S
C3312 H3283 0.950 . S
C3312 C3311 1.334 . S
C3312 C3313 1.287 . S
C3313 C3312 1.287 . S
C3313 C3314 1.524 . S
C3313 H3316 0.999 . S
C3314 H3284 0.950 . S
C3314 C3313 1.524 . S
C3314 C3315 1.415 . S
C3315 H3285 0.950 . S
C3315 C3310 1.363 . S
C3315 C3314 1.415 . S
H3316 C3313 0.999 . S
H3317 C3298 0.913 1_556 S
H3318 C3336 0.951 . S
H3319 C3338 0.951 . S
H3320 C3340 0.950 . S
H3321 C3341 0.950 . S
H3322 C3343 0.950 . S
H3323 C3346 0.950 . S
H3324 C3347 0.950 . S
H3325 C3349 0.950 . S
H3326 C3350 0.950 . S
H3327 C3351 0.951 . S
H3328 C3353 0.951 . S
H3329 C3355 0.950 . S
H3330 C3356 0.950 . S
H3331 C3358 0.950 . S
H3332 C3361 0.950 . S
H3333 C3362 0.950 . S
H3334 C3364 0.950 . S
H3335 C3365 0.950 . S
C3336 H3318 0.951 . S
C3336 C3337 1.366 . S
C3336 C3338 1.388 . S
C3337 C3336 1.366 . S
C3337 C3341 1.385 . S
C3338 H3319 0.951 . S
C3338 C3336 1.388 . S
C3338 C3339 1.366 . S
C3339 C3338 1.366 . S
C3339 C3340 1.414 . S
C3339 C3342 1.499 . S
C3340 H3320 0.950 . S
C3340 C3339 1.414 . S
C3340 C3341 1.374 . S
C3341 H3321 0.950 . S
C3341 C3337 1.385 . S
C3341 C3340 1.374 . S
C3342 C3339 1.499 . S
C3342 C3343 1.373 . S
C3342 C3344 1.389 . S
C3343 H3322 0.950 . S
C3343 C3342 1.373 . S
C3343 C3359 1.377 . S
C3344 C3342 1.389 . S
C3344 C3345 1.524 . S
C3344 C3358 1.377 . S
C3345 C3344 1.524 . S
C3345 C3346 1.397 . S
C3345 C3350 1.363 . S
C3346 H3323 0.950 . S
C3346 C3345 1.397 . S
C3346 C3347 1.334 . S
C3347 H3324 0.950 . S
C3347 C3346 1.334 . S
C3347 C3348 1.287 . S
C3348 C3347 1.287 . S
C3348 C3349 1.524 . S
C3348 H3367 0.913 . S
C3349 H3325 0.950 . S
C3349 C3348 1.524 . S
C3349 C3350 1.415 . S
C3350 H3326 0.950 . S
C3350 C3345 1.363 . S
C3350 C3349 1.415 . S
C3351 H3327 0.951 . S
C3351 C3352 1.366 . S
C3351 C3353 1.388 . S
C3352 C3351 1.366 . S
C3352 C3356 1.385 . S
C3353 H3328 0.951 . S
C3353 C3351 1.388 . S
C3353 C3354 1.366 . S
C3354 C3353 1.366 . S
C3354 C3355 1.414 . S
C3354 C3357 1.499 . S
C3355 H3329 0.950 . S
C3355 C3354 1.414 . S
C3355 C3356 1.374 . S
C3356 H3330 0.950 . S
C3356 C3352 1.385 . S
C3356 C3355 1.374 . S
C3357 C3354 1.499 . S
C3357 C3358 1.373 . S
C3357 C3359 1.389 . S
C3358 H3331 0.950 . S
C3358 C3344 1.377 . S
C3358 C3357 1.373 . S
C3359 C3343 1.377 . S
C3359 C3357 1.389 . S
C3359 C3360 1.524 . S
C3360 C3359 1.524 . S
C3360 C3361 1.397 . S
C3360 C3365 1.363 . S
C3361 H3332 0.950 . S
C3361 C3360 1.397 . S
C3361 C3362 1.334 . S
C3362 H3333 0.950 . S
C3362 C3361 1.334 . S
C3362 C3363 1.287 . S
C3363 C3362 1.287 . S
C3363 C3364 1.524 . S
C3363 H3366 0.999 . S
C3364 H3334 0.950 . S
C3364 C3363 1.524 . S
C3364 C3365 1.415 . S
C3365 H3335 0.950 . S
C3365 C3360 1.363 . S
C3365 C3364 1.415 . S
H3366 C3363 0.999 . S
H3367 C3348 0.913 . S
H3368 C3386 0.951 . S
H3369 C3388 0.951 . S
H3370 C3390 0.950 . S
H3371 C3391 0.950 . S
H3372 C3393 0.950 . S
H3373 C3396 0.950 . S
H3374 C3397 0.950 . S
H3375 C3399 0.950 . S
H3376 C3400 0.950 . S
H3377 C3401 0.951 . S
H3378 C3403 0.951 . S
H3379 C3405 0.950 . S
H3380 C3406 0.950 . S
H3381 C3408 0.950 . S
H3382 C3411 0.950 . S
H3383 C3412 0.950 . S
H3384 C3414 0.950 . S
H3385 C3415 0.950 . S
C3386 H3368 0.951 . S
C3386 C3387 1.366 . S
C3386 C3388 1.388 . S
C3387 C3386 1.366 . S
C3387 C3391 1.385 . S
C3388 H3369 0.951 . S
C3388 C3386 1.388 . S
C3388 C3389 1.366 . S
C3389 C3388 1.366 . S
C3389 C3390 1.414 . S
C3389 C3392 1.499 . S
C3390 H3370 0.950 . S
C3390 C3389 1.414 . S
C3390 C3391 1.374 . S
C3391 H3371 0.950 . S
C3391 C3387 1.385 . S
C3391 C3390 1.374 . S
C3392 C3389 1.499 . S
C3392 C3393 1.373 . S
C3392 C3394 1.389 . S
C3393 H3372 0.950 . S
C3393 C3392 1.373 . S
C3393 C3409 1.377 . S
C3394 C3392 1.389 . S
C3394 C3395 1.524 . S
C3394 C3408 1.377 . S
C3395 C3394 1.524 . S
C3395 C3396 1.397 . S
C3395 C3400 1.363 . S
C3396 H3373 0.950 . S
C3396 C3395 1.397 . S
C3396 C3397 1.334 . S
C3397 H3374 0.950 . S
C3397 C3396 1.334 . S
C3397 C3398 1.287 . S
C3398 C3397 1.287 . S
C3398 C3399 1.524 . S
C3398 H3417 0.913 . S
C3399 H3375 0.950 . S
C3399 C3398 1.524 . S
C3399 C3400 1.415 . S
C3400 H3376 0.950 . S
C3400 C3395 1.363 . S
C3400 C3399 1.415 . S
C3401 H3377 0.951 . S
C3401 C3402 1.366 . S
C3401 C3403 1.388 . S
C3402 C3401 1.366 . S
C3402 C3406 1.385 . S
C3403 H3378 0.951 . S
C3403 C3401 1.388 . S
C3403 C3404 1.366 . S
C3404 C3403 1.366 . S
C3404 C3405 1.414 . S
C3404 C3407 1.499 . S
C3405 H3379 0.950 . S
C3405 C3404 1.414 . S
C3405 C3406 1.374 . S
C3406 H3380 0.950 . S
C3406 C3402 1.385 . S
C3406 C3405 1.374 . S
C3407 C3404 1.499 . S
C3407 C3408 1.373 . S
C3407 C3409 1.389 . S
C3408 H3381 0.950 . S
C3408 C3394 1.377 . S
C3408 C3407 1.373 . S
C3409 C3393 1.377 . S
C3409 C3407 1.389 . S
C3409 C3410 1.524 . S
C3410 C3409 1.524 . S
C3410 C3411 1.397 . S
C3410 C3415 1.363 . S
C3411 H3382 0.950 . S
C3411 C3410 1.397 . S
C3411 C3412 1.334 . S
C3412 H3383 0.950 . S
C3412 C3411 1.334 . S
C3412 C3413 1.287 . S
C3413 C3412 1.287 . S
C3413 C3414 1.524 . S
C3413 H3416 0.999 . S
C3414 H3384 0.950 . S
C3414 C3413 1.524 . S
C3414 C3415 1.415 . S
C3415 H3385 0.950 . S
C3415 C3410 1.363 . S
C3415 C3414 1.415 . S
H3416 C3413 0.999 . S
H3417 C3398 0.913 . S
H3418 C3436 0.951 . S
H3419 C3438 0.951 . S
H3420 C3440 0.950 . S
H3421 C3441 0.950 . S
H3422 C3443 0.950 . S
H3423 C3446 0.950 . S
H3424 C3447 0.950 . S
H3425 C3449 0.950 . S
H3426 C3450 0.950 . S
H3427 C3451 0.951 . S
H3428 C3453 0.951 . S
H3429 C3455 0.950 . S
H3430 C3456 0.950 . S
H3431 C3458 0.950 . S
H3432 C3461 0.950 . S
H3433 C3462 0.950 . S
H3434 C3464 0.950 . S
H3435 C3465 0.950 . S
C3436 H3418 0.951 . S
C3436 C3437 1.366 . S
C3436 C3438 1.388 . S
C3437 C3436 1.366 . S
C3437 C3441 1.385 . S
C3438 H3419 0.951 . S
C3438 C3436 1.388 . S
C3438 C3439 1.366 . S
C3439 C3438 1.366 . S
C3439 C3440 1.414 . S
C3439 C3442 1.499 . S
C3440 H3420 0.950 . S
C3440 C3439 1.414 . S
C3440 C3441 1.374 . S
C3441 H3421 0.950 . S
C3441 C3437 1.385 . S
C3441 C3440 1.374 . S
C3442 C3439 1.499 . S
C3442 C3443 1.373 . S
C3442 C3444 1.389 . S
C3443 H3422 0.950 . S
C3443 C3442 1.373 . S
C3443 C3459 1.377 . S
C3444 C3442 1.389 . S
C3444 C3445 1.524 . S
C3444 C3458 1.377 . S
C3445 C3444 1.524 . S
C3445 C3446 1.397 . S
C3445 C3450 1.363 . S
C3446 H3423 0.950 . S
C3446 C3445 1.397 . S
C3446 C3447 1.334 . S
C3447 H3424 0.950 . S
C3447 C3446 1.334 . S
C3447 C3448 1.287 . S
C3448 C3447 1.287 . S
C3448 C3449 1.524 . S
C3448 H3467 0.913 . S
C3449 H3425 0.950 . S
C3449 C3448 1.524 . S
C3449 C3450 1.415 . S
C3450 H3426 0.950 . S
C3450 C3445 1.363 . S
C3450 C3449 1.415 . S
C3451 H3427 0.951 . S
C3451 C3452 1.366 . S
C3451 C3453 1.388 . S
C3452 C3451 1.366 . S
C3452 C3456 1.385 . S
C3453 H3428 0.951 . S
C3453 C3451 1.388 . S
C3453 C3454 1.366 . S
C3454 C3453 1.366 . S
C3454 C3455 1.414 . S
C3454 C3457 1.499 . S
C3455 H3429 0.950 . S
C3455 C3454 1.414 . S
C3455 C3456 1.374 . S
C3456 H3430 0.950 . S
C3456 C3452 1.385 . S
C3456 C3455 1.374 . S
C3457 C3454 1.499 . S
C3457 C3458 1.373 . S
C3457 C3459 1.389 . S
C3458 H3431 0.950 . S
C3458 C3444 1.377 . S
C3458 C3457 1.373 . S
C3459 C3443 1.377 . S
C3459 C3457 1.389 . S
C3459 C3460 1.524 . S
C3460 C3459 1.524 . S
C3460 C3461 1.397 . S
C3460 C3465 1.363 . S
C3461 H3432 0.950 . S
C3461 C3460 1.397 . S
C3461 C3462 1.334 . S
C3462 H3433 0.950 . S
C3462 C3461 1.334 . S
C3462 C3463 1.287 . S
C3463 C3462 1.287 . S
C3463 C3464 1.524 . S
C3463 H3466 0.999 . S
C3464 H3434 0.950 . S
C3464 C3463 1.524 . S
C3464 C3465 1.415 . S
C3465 H3435 0.950 . S
C3465 C3460 1.363 . S
C3465 C3464 1.415 . S
H3466 C3463 0.999 . S
H3467 C3448 0.913 . S
H3468 C3486 0.951 . S
H3469 C3488 0.951 . S
H3470 C3490 0.950 . S
H3471 C3491 0.950 . S
H3472 C3493 0.950 . S
H3473 C3496 0.950 . S
H3474 C3497 0.950 . S
H3475 C3499 0.950 . S
H3476 C3500 0.950 . S
H3477 C3501 0.951 . S
H3478 C3503 0.951 . S
H3479 C3505 0.950 . S
H3480 C3506 0.950 . S
H3481 C3508 0.950 . S
H3482 C3511 0.950 . S
H3483 C3512 0.942 1_554 S
H3484 C3514 0.950 . S
H3485 C3515 0.950 . S
C3486 H3468 0.951 . S
C3486 C3487 1.366 . S
C3486 C3488 1.388 . S
C3487 C3486 1.366 . S
C3487 C3491 1.385 . S
C3488 H3469 0.951 . S
C3488 C3486 1.388 . S
C3488 C3489 1.366 . S
C3489 C3488 1.366 . S
C3489 C3490 1.414 . S
C3489 C3492 1.499 . S
C3490 H3470 0.950 . S
C3490 C3489 1.414 . S
C3490 C3491 1.374 . S
C3491 H3471 0.950 . S
C3491 C3487 1.385 . S
C3491 C3490 1.374 . S
C3492 C3489 1.499 . S
C3492 C3493 1.373 . S
C3492 C3494 1.389 . S
C3493 H3472 0.950 . S
C3493 C3492 1.373 . S
C3493 C3509 1.377 . S
C3494 C3492 1.389 . S
C3494 C3495 1.524 . S
C3494 C3508 1.377 . S
C3495 C3494 1.524 . S
C3495 C3496 1.397 . S
C3495 C3500 1.363 . S
C3496 H3473 0.950 . S
C3496 C3495 1.397 . S
C3496 C3497 1.334 . S
C3497 H3474 0.950 . S
C3497 C3496 1.334 . S
C3497 C3498 1.287 . S
C3498 C3497 1.287 . S
C3498 C3499 1.524 . S
C3498 H3517 0.913 . S
C3499 H3475 0.950 . S
C3499 C3498 1.524 . S
C3499 C3500 1.415 . S
C3500 H3476 0.950 . S
C3500 C3495 1.363 . S
C3500 C3499 1.415 . S
C3501 H3477 0.951 . S
C3501 C3502 1.366 . S
C3501 C3503 1.388 1_554 S
C3502 C3501 1.366 . S
C3502 C3506 1.385 1_554 S
C3503 H3478 0.951 . S
C3503 C3501 1.388 1_556 S
C3503 C3504 1.366 . S
C3504 C3503 1.366 . S
C3504 C3505 1.414 . S
C3504 C3507 1.499 . S
C3505 H3479 0.950 . S
C3505 C3504 1.414 . S
C3505 C3506 1.374 . S
C3506 H3480 0.950 . S
C3506 C3502 1.385 1_556 S
C3506 C3505 1.374 . S
C3507 C3504 1.499 . S
C3507 C3508 1.373 . S
C3507 C3509 1.389 . S
C3508 H3481 0.950 . S
C3508 C3494 1.377 . S
C3508 C3507 1.373 . S
C3509 C3493 1.377 . S
C3509 C3507 1.389 . S
C3509 C3510 1.524 . S
C3510 C3509 1.524 . S
C3510 C3511 1.397 . S
C3510 C3515 1.363 . S
C3511 H3482 0.950 . S
C3511 C3510 1.397 . S
C3511 C3512 1.351 . S
C3512 H3483 0.942 1_556 S
C3512 C3511 1.351 . S
C3512 C3513 1.278 1_556 S
C3513 C3512 1.278 1_554 S
C3513 C3514 1.524 . S
C3513 H3516 0.999 . S
C3514 H3484 0.950 . S
C3514 C3513 1.524 . S
C3514 C3515 1.415 1_554 S
C3515 H3485 0.950 . S
C3515 C3510 1.363 . S
C3515 C3514 1.415 1_556 S
H3516 C3513 0.999 . S
H3517 C3498 0.913 . S
H3518 C3536 0.951 . S
H3519 C3538 0.951 . S
H3520 C3540 0.950 . S
H3521 C3541 0.950 . S
H3522 C3543 0.950 . S
H3523 C3546 0.950 . S
H3524 C3547 0.950 . S
H3525 C3549 0.950 . S
H3526 C3550 0.950 . S
H3527 C3551 0.951 . S
H3528 C3553 0.951 . S
H3529 C3555 0.950 . S
H3530 C3556 0.950 . S
H3531 C3558 0.950 . S
H3532 C3561 0.950 . S
H3533 C3562 0.950 . S
H3534 C3564 0.950 . S
H3535 C3565 0.950 . S
C3536 H3518 0.951 . S
C3536 C3537 1.366 1_556 S
C3536 C3538 1.388 . S
C3537 C3536 1.366 1_554 S
C3537 C3541 1.385 . S
C3538 H3519 0.951 . S
C3538 C3536 1.388 . S
C3538 C3539 1.366 . S
C3539 C3538 1.366 . S
C3539 C3540 1.414 . S
C3539 C3542 1.499 . S
C3540 H3520 0.950 . S
C3540 C3539 1.414 . S
C3540 C3541 1.374 1_556 S
C3541 H3521 0.950 . S
C3541 C3537 1.385 . S
C3541 C3540 1.374 1_554 S
C3542 C3539 1.499 . S
C3542 C3543 1.373 . S
C3542 C3544 1.389 . S
C3543 H3522 0.950 . S
C3543 C3542 1.373 . S
C3543 C3559 1.377 . S
C3544 C3542 1.389 . S
C3544 C3545 1.524 . S
C3544 C3558 1.377 . S
C3545 C3544 1.524 . S
C3545 C3546 1.397 . S
C3545 C3550 1.363 . S
C3546 H3523 0.950 . S
C3546 C3545 1.397 . S
C3546 C3547 1.334 . S
C3547 H3524 0.950 . S
C3547 C3546 1.334 . S
C3547 C3548 1.287 . S
C3548 C3547 1.287 . S
C3548 C3549 1.524 . S
C3548 H3567 0.913 . S
C3549 H3525 0.950 . S
C3549 C3548 1.524 . S
C3549 C3550 1.415 . S
C3550 H3526 0.950 . S
C3550 C3545 1.363 . S
C3550 C3549 1.415 . S
C3551 H3527 0.951 . S
C3551 C3552 1.366 . S
C3551 C3553 1.388 . S
C3552 C3551 1.366 . S
C3552 C3556 1.385 . S
C3553 H3528 0.951 . S
C3553 C3551 1.388 . S
C3553 C3554 1.366 . S
C3554 C3553 1.366 . S
C3554 C3555 1.414 . S
C3554 C3557 1.499 . S
C3555 H3529 0.950 . S
C3555 C3554 1.414 . S
C3555 C3556 1.374 . S
C3556 H3530 0.950 . S
C3556 C3552 1.385 . S
C3556 C3555 1.374 . S
C3557 C3554 1.499 . S
C3557 C3558 1.373 . S
C3557 C3559 1.389 . S
C3558 H3531 0.950 . S
C3558 C3544 1.377 . S
C3558 C3557 1.373 . S
C3559 C3543 1.377 . S
C3559 C3557 1.389 . S
C3559 C3560 1.524 . S
C3560 C3559 1.524 . S
C3560 C3561 1.397 . S
C3560 C3565 1.363 . S
C3561 H3532 0.950 . S
C3561 C3560 1.397 . S
C3561 C3562 1.334 . S
C3562 H3533 0.950 . S
C3562 C3561 1.334 . S
C3562 C3563 1.287 . S
C3563 C3562 1.287 . S
C3563 C3564 1.524 . S
C3563 H3566 0.999 . S
C3564 H3534 0.950 . S
C3564 C3563 1.524 . S
C3564 C3565 1.415 . S
C3565 H3535 0.950 . S
C3565 C3560 1.363 . S
C3565 C3564 1.415 . S
H3566 C3563 0.999 . S
H3567 C3548 0.913 . S
H3568 C3586 0.951 . S
H3569 C3588 0.951 . S
H3570 C3590 0.950 . S
H3571 C3591 0.950 . S
H3572 C3593 0.950 . S
H3573 C3596 0.950 . S
H3574 C3597 0.950 . S
H3575 C3599 0.950 . S
H3576 C3600 0.950 . S
H3577 C3601 0.951 . S
H3578 C3603 0.951 . S
H3579 C3605 0.950 . S
H3580 C3606 0.950 . S
H3581 C3608 0.950 . S
H3582 C3611 0.950 . S
H3583 C3612 0.950 . S
H3584 C3614 0.950 1_554 S
H3585 C3615 0.950 . S
C3586 H3568 0.951 . S
C3586 C3587 1.366 . S
C3586 C3588 1.388 . S
C3587 C3586 1.366 . S
C3587 C3591 1.385 . S
C3588 H3569 0.951 . S
C3588 C3586 1.388 . S
C3588 C3589 1.366 . S
C3589 C3588 1.366 . S
C3589 C3590 1.414 . S
C3589 C3592 1.499 . S
C3590 H3570 0.950 . S
C3590 C3589 1.414 . S
C3590 C3591 1.374 . S
C3591 H3571 0.950 . S
C3591 C3587 1.385 . S
C3591 C3590 1.374 . S
C3592 C3589 1.499 . S
C3592 C3593 1.373 . S
C3592 C3594 1.389 . S
C3593 H3572 0.950 . S
C3593 C3592 1.373 . S
C3593 C3609 1.377 . S
C3594 C3592 1.389 . S
C3594 C3595 1.524 . S
C3594 C3608 1.377 . S
C3595 C3594 1.524 . S
C3595 C3596 1.397 . S
C3595 C3600 1.363 . S
C3596 H3573 0.950 . S
C3596 C3595 1.397 . S
C3596 C3597 1.334 . S
C3597 H3574 0.950 . S
C3597 C3596 1.334 . S
C3597 C3598 1.287 . S
C3598 C3597 1.287 . S
C3598 C3599 1.524 . S
C3598 H3617 0.913 . S
C3599 H3575 0.950 . S
C3599 C3598 1.524 . S
C3599 C3600 1.415 . S
C3600 H3576 0.950 . S
C3600 C3595 1.363 . S
C3600 C3599 1.415 . S
C3601 H3577 0.951 . S
C3601 C3602 1.366 . S
C3601 C3603 1.388 1_554 S
C3602 C3601 1.366 . S
C3602 C3606 1.385 1_554 S
C3603 H3578 0.951 . S
C3603 C3601 1.388 1_556 S
C3603 C3604 1.366 . S
C3604 C3603 1.366 . S
C3604 C3605 1.414 . S
C3604 C3607 1.499 . S
C3605 H3579 0.950 . S
C3605 C3604 1.414 . S
C3605 C3606 1.374 . S
C3606 H3580 0.950 . S
C3606 C3602 1.385 1_556 S
C3606 C3605 1.374 . S
C3607 C3604 1.499 . S
C3607 C3608 1.373 . S
C3607 C3609 1.389 . S
C3608 H3581 0.950 . S
C3608 C3594 1.377 . S
C3608 C3607 1.373 . S
C3609 C3593 1.377 . S
C3609 C3607 1.389 . S
C3609 C3610 1.524 . S
C3610 C3609 1.524 . S
C3610 C3611 1.397 . S
C3610 C3615 1.363 . S
C3611 H3582 0.950 . S
C3611 C3610 1.397 . S
C3611 C3612 1.334 1_556 S
C3612 H3583 0.950 . S
C3612 C3611 1.334 1_554 S
C3612 C3613 1.287 . S
C3613 C3612 1.287 . S
C3613 C3614 1.524 1_554 S
C3613 H3616 0.999 . S
C3614 H3584 0.950 1_556 S
C3614 C3613 1.524 1_556 S
C3614 C3615 1.415 . S
C3615 H3585 0.950 . S
C3615 C3610 1.363 . S
C3615 C3614 1.415 . S
H3616 C3613 0.999 . S
H3617 C3598 0.913 . S
H3618 C3636 0.951 . S
H3619 C3638 0.951 . S
H3620 C3640 0.950 . S
H3621 C3641 0.950 . S
H3622 C3643 0.950 . S
H3623 C3646 0.950 . S
H3624 C3647 0.950 . S
H3625 C3649 0.950 . S
H3626 C3650 0.950 . S
H3627 C3651 0.951 . S
H3628 C3653 0.951 . S
H3629 C3655 0.950 . S
H3630 C3656 0.950 . S
H3631 C3658 0.950 . S
H3632 C3661 0.950 . S
H3633 C3662 0.950 . S
H3634 C3664 0.950 . S
H3635 C3665 0.950 . S
C3636 H3618 0.951 . S
C3636 C3637 1.366 . S
C3636 C3638 1.388 . S
C3637 C3636 1.366 . S
C3637 C3641 1.385 . S
C3638 H3619 0.951 . S
C3638 C3636 1.388 . S
C3638 C3639 1.366 . S
C3639 C3638 1.366 . S
C3639 C3640 1.414 . S
C3639 C3642 1.499 . S
C3640 H3620 0.950 . S
C3640 C3639 1.414 . S
C3640 C3641 1.374 . S
C3641 H3621 0.950 . S
C3641 C3637 1.385 . S
C3641 C3640 1.374 . S
C3642 C3639 1.499 . S
C3642 C3643 1.373 . S
C3642 C3644 1.389 . S
C3643 H3622 0.950 . S
C3643 C3642 1.373 . S
C3643 C3659 1.377 . S
C3644 C3642 1.389 . S
C3644 C3645 1.524 . S
C3644 C3658 1.377 . S
C3645 C3644 1.524 . S
C3645 C3646 1.397 . S
C3645 C3650 1.363 . S
C3646 H3623 0.950 . S
C3646 C3645 1.397 . S
C3646 C3647 1.334 . S
C3647 H3624 0.950 . S
C3647 C3646 1.334 . S
C3647 C3648 1.287 . S
C3648 C3647 1.287 . S
C3648 C3649 1.524 . S
C3648 H3667 0.913 . S
C3649 H3625 0.950 . S
C3649 C3648 1.524 . S
C3649 C3650 1.415 . S
C3650 H3626 0.950 . S
C3650 C3645 1.363 . S
C3650 C3649 1.415 . S
C3651 H3627 0.951 . S
C3651 C3652 1.366 . S
C3651 C3653 1.388 . S
C3652 C3651 1.366 . S
C3652 C3656 1.385 . S
C3653 H3628 0.951 . S
C3653 C3651 1.388 . S
C3653 C3654 1.366 . S
C3654 C3653 1.366 . S
C3654 C3655 1.414 . S
C3654 C3657 1.499 . S
C3655 H3629 0.950 . S
C3655 C3654 1.414 . S
C3655 C3656 1.374 . S
C3656 H3630 0.950 . S
C3656 C3652 1.385 . S
C3656 C3655 1.374 . S
C3657 C3654 1.499 . S
C3657 C3658 1.373 . S
C3657 C3659 1.389 . S
C3658 H3631 0.950 . S
C3658 C3644 1.377 . S
C3658 C3657 1.373 . S
C3659 C3643 1.377 . S
C3659 C3657 1.389 . S
C3659 C3660 1.524 . S
C3660 C3659 1.524 . S
C3660 C3661 1.397 . S
C3660 C3665 1.363 . S
C3661 H3632 0.950 . S
C3661 C3660 1.397 . S
C3661 C3662 1.334 . S
C3662 H3633 0.950 . S
C3662 C3661 1.334 . S
C3662 C3663 1.287 . S
C3663 C3662 1.287 . S
C3663 C3664 1.524 . S
C3663 H3666 0.999 . S
C3664 H3634 0.950 . S
C3664 C3663 1.524 . S
C3664 C3665 1.415 . S
C3665 H3635 0.950 . S
C3665 C3660 1.363 . S
C3665 C3664 1.415 . S
H3666 C3663 0.999 . S
H3667 C3648 0.913 . S
H3668 C3686 0.951 . S
H3669 C3688 0.951 . S
H3670 C3690 0.950 . S
H3671 C3691 0.950 . S
H3672 C3693 0.950 . S
H3673 C3696 0.950 . S
H3674 C3697 0.950 . S
H3675 C3699 0.950 . S
H3676 C3700 0.950 . S
H3677 C3701 0.951 . S
H3678 C3703 0.951 . S
H3679 C3705 0.950 . S
H3680 C3706 0.950 . S
H3681 C3708 0.950 . S
H3682 C3711 0.950 . S
H3683 C3712 0.950 . S
H3684 C3714 0.950 . S
H3685 C3715 0.950 . S
C3686 H3668 0.951 . S
C3686 C3687 1.366 . S
C3686 C3688 1.388 . S
C3687 C3686 1.366 . S
C3687 C3691 1.385 . S
C3688 H3669 0.951 . S
C3688 C3686 1.388 . S
C3688 C3689 1.366 . S
C3689 C3688 1.366 . S
C3689 C3690 1.414 . S
C3689 C3692 1.499 . S
C3690 H3670 0.950 . S
C3690 C3689 1.414 . S
C3690 C3691 1.374 . S
C3691 H3671 0.950 . S
C3691 C3687 1.385 . S
C3691 C3690 1.374 . S
C3692 C3689 1.499 . S
C3692 C3693 1.373 . S
C3692 C3694 1.389 . S
C3693 H3672 0.950 . S
C3693 C3692 1.373 . S
C3693 C3709 1.377 . S
C3694 C3692 1.389 . S
C3694 C3695 1.524 . S
C3694 C3708 1.377 . S
C3695 C3694 1.524 . S
C3695 C3696 1.397 . S
C3695 C3700 1.363 . S
C3696 H3673 0.950 . S
C3696 C3695 1.397 . S
C3696 C3697 1.334 . S
C3697 H3674 0.950 . S
C3697 C3696 1.334 . S
C3697 C3698 1.287 . S
C3698 C3697 1.287 . S
C3698 C3699 1.524 . S
C3698 H3717 0.913 . S
C3699 H3675 0.950 . S
C3699 C3698 1.524 . S
C3699 C3700 1.415 . S
C3700 H3676 0.950 . S
C3700 C3695 1.363 . S
C3700 C3699 1.415 . S
C3701 H3677 0.951 . S
C3701 C3702 1.366 . S
C3701 C3703 1.388 . S
C3702 C3701 1.366 . S
C3702 C3706 1.385 . S
C3703 H3678 0.951 . S
C3703 C3701 1.388 . S
C3703 C3704 1.366 . S
C3704 C3703 1.366 . S
C3704 C3705 1.414 . S
C3704 C3707 1.499 . S
C3705 H3679 0.950 . S
C3705 C3704 1.414 . S
C3705 C3706 1.374 . S
C3706 H3680 0.950 . S
C3706 C3702 1.385 . S
C3706 C3705 1.374 . S
C3707 C3704 1.499 . S
C3707 C3708 1.373 . S
C3707 C3709 1.389 . S
C3708 H3681 0.950 . S
C3708 C3694 1.377 . S
C3708 C3707 1.373 . S
C3709 C3693 1.377 . S
C3709 C3707 1.389 . S
C3709 C3710 1.524 . S
C3710 C3709 1.524 . S
C3710 C3711 1.397 . S
C3710 C3715 1.363 . S
C3711 H3682 0.950 . S
C3711 C3710 1.397 . S
C3711 C3712 1.334 . S
C3712 H3683 0.950 . S
C3712 C3711 1.334 . S
C3712 C3713 1.287 . S
C3713 C3712 1.287 . S
C3713 C3714 1.524 . S
C3713 H3716 0.999 . S
C3714 H3684 0.950 . S
C3714 C3713 1.524 . S
C3714 C3715 1.415 . S
C3715 H3685 0.950 . S
C3715 C3710 1.363 . S
C3715 C3714 1.415 . S
H3716 C3713 0.999 . S
H3717 C3698 0.913 . S
H3718 C3736 0.951 . S
H3719 C3738 0.951 . S
H3720 C3740 0.950 . S
H3721 C3741 0.950 . S
H3722 C3743 0.950 . S
H3723 C3746 0.950 . S
H3724 C3747 0.950 . S
H3725 C3749 0.950 . S
H3726 C3750 0.950 . S
H3727 C3751 0.951 . S
H3728 C3753 0.951 . S
H3729 C3755 0.950 . S
H3730 C3756 0.950 . S
H3731 C3758 0.950 . S
H3732 C3761 0.950 . S
H3733 C3762 0.950 . S
H3734 C3764 0.950 . S
H3735 C3765 0.950 . S
C3736 H3718 0.951 . S
C3736 C3737 1.366 . S
C3736 C3738 1.388 . S
C3737 C3736 1.366 . S
C3737 C3741 1.385 . S
C3738 H3719 0.951 . S
C3738 C3736 1.388 . S
C3738 C3739 1.366 . S
C3739 C3738 1.366 . S
C3739 C3740 1.414 . S
C3739 C3742 1.499 . S
C3740 H3720 0.950 . S
C3740 C3739 1.414 . S
C3740 C3741 1.374 . S
C3741 H3721 0.950 . S
C3741 C3737 1.385 . S
C3741 C3740 1.374 . S
C3742 C3739 1.499 . S
C3742 C3743 1.373 . S
C3742 C3744 1.389 . S
C3743 H3722 0.950 . S
C3743 C3742 1.373 . S
C3743 C3759 1.377 . S
C3744 C3742 1.389 . S
C3744 C3745 1.524 . S
C3744 C3758 1.377 . S
C3745 C3744 1.524 . S
C3745 C3746 1.397 . S
C3745 C3750 1.363 . S
C3746 H3723 0.950 . S
C3746 C3745 1.397 . S
C3746 C3747 1.334 . S
C3747 H3724 0.950 . S
C3747 C3746 1.334 . S
C3747 C3748 1.287 . S
C3748 C3747 1.287 . S
C3748 C3749 1.524 . S
C3748 H3767 0.913 . S
C3749 H3725 0.950 . S
C3749 C3748 1.524 . S
C3749 C3750 1.415 . S
C3750 H3726 0.950 . S
C3750 C3745 1.363 . S
C3750 C3749 1.415 . S
C3751 H3727 0.951 . S
C3751 C3752 1.366 . S
C3751 C3753 1.388 . S
C3752 C3751 1.366 . S
C3752 C3756 1.385 . S
C3753 H3728 0.951 . S
C3753 C3751 1.388 . S
C3753 C3754 1.366 . S
C3754 C3753 1.366 . S
C3754 C3755 1.414 . S
C3754 C3757 1.499 . S
C3755 H3729 0.950 . S
C3755 C3754 1.414 . S
C3755 C3756 1.374 . S
C3756 H3730 0.950 . S
C3756 C3752 1.385 . S
C3756 C3755 1.374 . S
C3757 C3754 1.499 . S
C3757 C3758 1.373 . S
C3757 C3759 1.389 . S
C3758 H3731 0.950 . S
C3758 C3744 1.377 . S
C3758 C3757 1.373 . S
C3759 C3743 1.377 . S
C3759 C3757 1.389 . S
C3759 C3760 1.524 . S
C3760 C3759 1.524 . S
C3760 C3761 1.397 . S
C3760 C3765 1.363 . S
C3761 H3732 0.950 . S
C3761 C3760 1.397 . S
C3761 C3762 1.334 . S
C3762 H3733 0.950 . S
C3762 C3761 1.334 . S
C3762 C3763 1.287 . S
C3763 C3762 1.287 . S
C3763 C3764 1.524 . S
C3763 H3766 0.999 . S
C3764 H3734 0.950 . S
C3764 C3763 1.524 . S
C3764 C3765 1.415 . S
C3765 H3735 0.950 . S
C3765 C3760 1.363 . S
C3765 C3764 1.415 . S
H3766 C3763 0.999 . S
H3767 C3748 0.913 . S
H3768 C3786 0.951 . S
H3769 C3788 0.951 . S
H3770 C3790 0.950 . S
H3771 C3791 0.950 . S
H3772 C3793 0.950 . S
H3773 C3796 0.950 . S
H3774 C3797 0.950 . S
H3775 C3799 0.950 . S
H3776 C3800 0.950 . S
H3777 C3801 0.951 . S
H3778 C3803 0.951 . S
H3779 C3805 0.950 . S
H3780 C3806 0.950 . S
H3781 C3808 0.950 . S
H3782 C3811 0.950 . S
H3783 C3812 0.950 . S
H3784 C3814 0.950 . S
H3785 C3815 0.950 . S
C3786 H3768 0.951 . S
C3786 C3787 1.366 . S
C3786 C3788 1.388 . S
C3787 C3786 1.366 . S
C3787 C3791 1.385 . S
C3788 H3769 0.951 . S
C3788 C3786 1.388 . S
C3788 C3789 1.366 . S
C3789 C3788 1.366 . S
C3789 C3790 1.414 . S
C3789 C3792 1.499 . S
C3790 H3770 0.950 . S
C3790 C3789 1.414 . S
C3790 C3791 1.374 . S
C3791 H3771 0.950 . S
C3791 C3787 1.385 . S
C3791 C3790 1.374 . S
C3792 C3789 1.499 . S
C3792 C3793 1.373 . S
C3792 C3794 1.389 . S
C3793 H3772 0.950 . S
C3793 C3792 1.373 . S
C3793 C3809 1.377 . S
C3794 C3792 1.389 . S
C3794 C3795 1.524 . S
C3794 C3808 1.377 . S
C3795 C3794 1.524 . S
C3795 C3796 1.397 . S
C3795 C3800 1.363 . S
C3796 H3773 0.950 . S
C3796 C3795 1.397 . S
C3796 C3797 1.334 . S
C3797 H3774 0.950 . S
C3797 C3796 1.334 . S
C3797 C3798 1.287 . S
C3798 C3797 1.287 . S
C3798 C3799 1.524 . S
C3798 H3817 0.913 . S
C3799 H3775 0.950 . S
C3799 C3798 1.524 . S
C3799 C3800 1.415 . S
C3800 H3776 0.950 . S
C3800 C3795 1.363 . S
C3800 C3799 1.415 . S
C3801 H3777 0.951 . S
C3801 C3802 1.366 . S
C3801 C3803 1.388 . S
C3802 C3801 1.366 . S
C3802 C3806 1.385 . S
C3803 H3778 0.951 . S
C3803 C3801 1.388 . S
C3803 C3804 1.366 . S
C3804 C3803 1.366 . S
C3804 C3805 1.414 . S
C3804 C3807 1.499 . S
C3805 H3779 0.950 . S
C3805 C3804 1.414 . S
C3805 C3806 1.374 . S
C3806 H3780 0.950 . S
C3806 C3802 1.385 . S
C3806 C3805 1.374 . S
C3807 C3804 1.499 . S
C3807 C3808 1.373 . S
C3807 C3809 1.389 . S
C3808 H3781 0.950 . S
C3808 C3794 1.377 . S
C3808 C3807 1.373 . S
C3809 C3793 1.377 . S
C3809 C3807 1.389 . S
C3809 C3810 1.524 . S
C3810 C3809 1.524 . S
C3810 C3811 1.397 . S
C3810 C3815 1.363 . S
C3811 H3782 0.950 . S
C3811 C3810 1.397 . S
C3811 C3812 1.334 . S
C3812 H3783 0.950 . S
C3812 C3811 1.334 . S
C3812 C3813 1.287 . S
C3813 C3812 1.287 . S
C3813 C3814 1.524 . S
C3813 H3816 0.999 . S
C3814 H3784 0.950 . S
C3814 C3813 1.524 . S
C3814 C3815 1.415 . S
C3815 H3785 0.950 . S
C3815 C3810 1.363 . S
C3815 C3814 1.415 . S
H3816 C3813 0.999 . S
H3817 C3798 0.913 . S
H3818 C3836 0.951 . S
H3819 C3838 0.951 . S
H3820 C3840 0.950 . S
H3821 C3841 0.950 . S
H3822 C3843 0.950 . S
H3823 C3846 0.950 . S
H3824 C3847 0.950 . S
H3825 C3849 0.950 . S
H3826 C3850 0.950 . S
H3827 C3851 0.951 . S
H3828 C3853 0.951 . S
H3829 C3855 0.950 . S
H3830 C3856 0.950 . S
H3831 C3858 0.950 . S
H3832 C3861 0.950 . S
H3833 C3862 0.950 . S
H3834 C3864 0.950 . S
H3835 C3865 0.950 . S
C3836 H3818 0.951 . S
C3836 C3837 1.366 . S
C3836 C3838 1.388 . S
C3837 C3836 1.366 . S
C3837 C3841 1.385 . S
C3838 H3819 0.951 . S
C3838 C3836 1.388 . S
C3838 C3839 1.366 . S
C3839 C3838 1.366 . S
C3839 C3840 1.414 . S
C3839 C3842 1.499 . S
C3840 H3820 0.950 . S
C3840 C3839 1.414 . S
C3840 C3841 1.374 . S
C3841 H3821 0.950 . S
C3841 C3837 1.385 . S
C3841 C3840 1.374 . S
C3842 C3839 1.499 . S
C3842 C3843 1.373 . S
C3842 C3844 1.389 . S
C3843 H3822 0.950 . S
C3843 C3842 1.373 . S
C3843 C3859 1.377 1_545 S
C3844 C3842 1.389 . S
C3844 C3845 1.524 . S
C3844 C3858 1.377 1_545 S
C3845 C3844 1.524 . S
C3845 C3846 1.397 . S
C3845 C3850 1.363 . S
C3846 H3823 0.950 . S
C3846 C3845 1.397 . S
C3846 C3847 1.334 . S
C3847 H3824 0.950 . S
C3847 C3846 1.334 . S
C3847 C3848 1.287 . S
C3848 C3847 1.287 . S
C3848 C3849 1.524 . S
C3848 H3867 0.913 . S
C3849 H3825 0.950 . S
C3849 C3848 1.524 . S
C3849 C3850 1.415 . S
C3850 H3826 0.950 . S
C3850 C3845 1.363 . S
C3850 C3849 1.415 . S
C3851 H3827 0.951 . S
C3851 C3852 1.366 . S
C3851 C3853 1.388 . S
C3852 C3851 1.366 . S
C3852 C3856 1.385 . S
C3853 H3828 0.951 . S
C3853 C3851 1.388 . S
C3853 C3854 1.366 . S
C3854 C3853 1.366 . S
C3854 C3855 1.414 . S
C3854 C3857 1.499 . S
C3855 H3829 0.950 . S
C3855 C3854 1.414 . S
C3855 C3856 1.374 . S
C3856 H3830 0.950 . S
C3856 C3852 1.385 . S
C3856 C3855 1.374 . S
C3857 C3854 1.499 . S
C3857 C3858 1.373 . S
C3857 C3859 1.389 . S
C3858 H3831 0.950 . S
C3858 C3844 1.377 1_565 S
C3858 C3857 1.373 . S
C3859 C3843 1.377 1_565 S
C3859 C3857 1.389 . S
C3859 C3860 1.524 . S
C3860 C3859 1.524 . S
C3860 C3861 1.397 . S
C3860 C3865 1.363 . S
C3861 H3832 0.950 . S
C3861 C3860 1.397 . S
C3861 C3862 1.334 . S
C3862 H3833 0.950 . S
C3862 C3861 1.334 . S
C3862 C3863 1.287 . S
C3863 C3862 1.287 . S
C3863 C3864 1.524 . S
C3863 H3866 0.999 . S
C3864 H3834 0.950 . S
C3864 C3863 1.524 . S
C3864 C3865 1.415 . S
C3865 H3835 0.950 . S
C3865 C3860 1.363 . S
C3865 C3864 1.415 . S
H3866 C3863 0.999 . S
H3867 C3848 0.913 . S
H3868 C3886 0.951 . S
H3869 C3888 0.951 . S
H3870 C3890 0.950 . S
H3871 C3891 0.950 . S
H3872 C3893 0.950 . S
H3873 C3896 0.950 . S
H3874 C3897 0.950 . S
H3875 C3899 0.950 . S
H3876 C3900 0.950 . S
H3877 C3901 0.951 . S
H3878 C3903 0.951 . S
H3879 C3905 0.950 . S
H3880 C3906 0.950 . S
H3881 C3908 0.950 . S
H3882 C3911 0.950 . S
H3883 C3912 0.950 . S
H3884 C3914 0.950 . S
H3885 C3915 0.950 . S
C3886 H3868 0.951 . S
C3886 C3887 1.366 . S
C3886 C3888 1.388 . S
C3887 C3886 1.366 . S
C3887 C3891 1.385 . S
C3888 H3869 0.951 . S
C3888 C3886 1.388 . S
C3888 C3889 1.366 . S
C3889 C3888 1.366 . S
C3889 C3890 1.414 . S
C3889 C3892 1.499 . S
C3890 H3870 0.950 . S
C3890 C3889 1.414 . S
C3890 C3891 1.374 . S
C3891 H3871 0.950 . S
C3891 C3887 1.385 . S
C3891 C3890 1.374 . S
C3892 C3889 1.499 . S
C3892 C3893 1.373 . S
C3892 C3894 1.389 1_655 S
C3893 H3872 0.950 . S
C3893 C3892 1.373 . S
C3893 C3909 1.377 . S
C3894 C3892 1.389 1_455 S
C3894 C3895 1.524 . S
C3894 C3908 1.377 . S
C3895 C3894 1.524 . S
C3895 C3896 1.397 . S
C3895 C3900 1.363 . S
C3896 H3873 0.950 . S
C3896 C3895 1.397 . S
C3896 C3897 1.334 . S
C3897 H3874 0.950 . S
C3897 C3896 1.334 . S
C3897 C3898 1.287 . S
C3898 C3897 1.287 . S
C3898 C3899 1.524 . S
C3898 H3917 0.913 . S
C3899 H3875 0.950 . S
C3899 C3898 1.524 . S
C3899 C3900 1.415 . S
C3900 H3876 0.950 . S
C3900 C3895 1.363 . S
C3900 C3899 1.415 . S
C3901 H3877 0.951 . S
C3901 C3902 1.366 . S
C3901 C3903 1.388 . S
C3902 C3901 1.366 . S
C3902 C3906 1.385 . S
C3903 H3878 0.951 . S
C3903 C3901 1.388 . S
C3903 C3904 1.366 . S
C3904 C3903 1.366 . S
C3904 C3905 1.414 . S
C3904 C3907 1.499 . S
C3905 H3879 0.950 . S
C3905 C3904 1.414 . S
C3905 C3906 1.374 . S
C3906 H3880 0.950 . S
C3906 C3902 1.385 . S
C3906 C3905 1.374 . S
C3907 C3904 1.499 . S
C3907 C3908 1.373 . S
C3907 C3909 1.389 1_455 S
C3908 H3881 0.950 . S
C3908 C3894 1.377 . S
C3908 C3907 1.373 . S
C3909 C3893 1.377 . S
C3909 C3907 1.389 1_655 S
C3909 C3910 1.524 . S
C3910 C3909 1.524 . S
C3910 C3911 1.397 . S
C3910 C3915 1.363 . S
C3911 H3882 0.950 . S
C3911 C3910 1.397 . S
C3911 C3912 1.334 . S
C3912 H3883 0.950 . S
C3912 C3911 1.334 . S
C3912 C3913 1.287 . S
C3913 C3912 1.287 . S
C3913 C3914 1.524 . S
C3913 H3916 0.999 . S
C3914 H3884 0.950 . S
C3914 C3913 1.524 . S
C3914 C3915 1.415 . S
C3915 H3885 0.950 . S
C3915 C3910 1.363 . S
C3915 C3914 1.415 . S
H3916 C3913 0.999 . S
H3917 C3898 0.913 . S
H3918 C3936 0.951 . S
H3919 C3938 0.951 . S
H3920 C3940 0.950 . S
H3921 C3941 0.950 . S
H3922 C3943 0.950 . S
H3923 C3946 0.950 . S
H3924 C3947 0.950 . S
H3925 C3949 0.950 . S
H3926 C3950 0.950 . S
H3927 C3951 0.951 . S
H3928 C3953 0.951 . S
H3929 C3955 0.950 . S
H3930 C3956 0.950 . S
H3931 C3958 0.950 . S
H3932 C3961 0.950 . S
H3933 C3962 0.950 . S
H3934 C3964 0.950 . S
H3935 C3965 0.950 . S
C3936 H3918 0.951 . S
C3936 C3937 1.366 . S
C3936 C3938 1.388 . S
C3937 C3936 1.366 . S
C3937 C3941 1.385 . S
C3938 H3919 0.951 . S
C3938 C3936 1.388 . S
C3938 C3939 1.366 . S
C3939 C3938 1.366 . S
C3939 C3940 1.414 . S
C3939 C3942 1.499 . S
C3940 H3920 0.950 . S
C3940 C3939 1.414 . S
C3940 C3941 1.374 . S
C3941 H3921 0.950 . S
C3941 C3937 1.385 . S
C3941 C3940 1.374 . S
C3942 C3939 1.499 . S
C3942 C3943 1.373 . S
C3942 C3944 1.389 . S
C3943 H3922 0.950 . S
C3943 C3942 1.373 . S
C3943 C3959 1.377 . S
C3944 C3942 1.389 . S
C3944 C3945 1.524 . S
C3944 C3958 1.377 . S
C3945 C3944 1.524 . S
C3945 C3946 1.397 . S
C3945 C3950 1.363 . S
C3946 H3923 0.950 . S
C3946 C3945 1.397 . S
C3946 C3947 1.334 . S
C3947 H3924 0.950 . S
C3947 C3946 1.334 . S
C3947 C3948 1.287 . S
C3948 C3947 1.287 . S
C3948 C3949 1.524 . S
C3948 H3967 0.913 . S
C3949 H3925 0.950 . S
C3949 C3948 1.524 . S
C3949 C3950 1.415 . S
C3950 H3926 0.950 . S
C3950 C3945 1.363 . S
C3950 C3949 1.415 . S
C3951 H3927 0.951 . S
C3951 C3952 1.366 . S
C3951 C3953 1.388 . S
C3952 C3951 1.366 . S
C3952 C3956 1.385 . S
C3953 H3928 0.951 . S
C3953 C3951 1.388 . S
C3953 C3954 1.366 . S
C3954 C3953 1.366 . S
C3954 C3955 1.414 . S
C3954 C3957 1.499 . S
C3955 H3929 0.950 . S
C3955 C3954 1.414 . S
C3955 C3956 1.374 . S
C3956 H3930 0.950 . S
C3956 C3952 1.385 . S
C3956 C3955 1.374 . S
C3957 C3954 1.499 . S
C3957 C3958 1.373 . S
C3957 C3959 1.389 . S
C3958 H3931 0.950 . S
C3958 C3944 1.377 . S
C3958 C3957 1.373 . S
C3959 C3943 1.377 . S
C3959 C3957 1.389 . S
C3959 C3960 1.524 . S
C3960 C3959 1.524 . S
C3960 C3961 1.397 . S
C3960 C3965 1.363 . S
C3961 H3932 0.950 . S
C3961 C3960 1.397 . S
C3961 C3962 1.334 . S
C3962 H3933 0.950 . S
C3962 C3961 1.334 . S
C3962 C3963 1.287 . S
C3963 C3962 1.287 . S
C3963 C3964 1.524 . S
C3963 H3966 0.999 . S
C3964 H3934 0.950 . S
C3964 C3963 1.524 . S
C3964 C3965 1.415 . S
C3965 H3935 0.950 . S
C3965 C3960 1.363 . S
C3965 C3964 1.415 . S
H3966 C3963 0.999 . S
H3967 C3948 0.913 . S
H3968 C3986 0.951 . S
H3969 C3988 0.951 . S
H3970 C3990 0.950 . S
H3971 C3991 0.950 . S
H3972 C3993 0.950 . S
H3973 C3996 0.950 . S
H3974 C3997 0.950 . S
H3975 C3999 0.950 . S
H3976 C4000 0.950 . S
H3977 C4001 0.951 . S
H3978 C4003 0.951 . S
H3979 C4005 0.950 . S
H3980 C4006 0.950 . S
H3981 C4008 0.950 . S
H3982 C4011 0.950 . S
H3983 C4012 0.950 . S
H3984 C4014 0.950 . S
H3985 C4015 0.950 . S
C3986 H3968 0.951 . S
C3986 C3987 1.366 . S
C3986 C3988 1.388 . S
C3987 C3986 1.366 . S
C3987 C3991 1.385 . S
C3988 H3969 0.951 . S
C3988 C3986 1.388 . S
C3988 C3989 1.366 . S
C3989 C3988 1.366 . S
C3989 C3990 1.414 . S
C3989 C3992 1.499 . S
C3990 H3970 0.950 . S
C3990 C3989 1.414 . S
C3990 C3991 1.374 . S
C3991 H3971 0.950 . S
C3991 C3987 1.385 . S
C3991 C3990 1.374 . S
C3992 C3989 1.499 . S
C3992 C3993 1.373 1_545 S
C3992 C3994 1.389 . S
C3993 H3972 0.950 . S
C3993 C3992 1.373 1_565 S
C3993 C4009 1.377 . S
C3994 C3992 1.389 . S
C3994 C3995 1.524 . S
C3994 C4008 1.377 . S
C3995 C3994 1.524 . S
C3995 C3996 1.397 . S
C3995 C4000 1.363 . S
C3996 H3973 0.950 . S
C3996 C3995 1.397 . S
C3996 C3997 1.334 . S
C3997 H3974 0.950 . S
C3997 C3996 1.334 . S
C3997 C3998 1.287 . S
C3998 C3997 1.287 . S
C3998 C3999 1.524 . S
C3998 H4017 0.913 . S
C3999 H3975 0.950 . S
C3999 C3998 1.524 . S
C3999 C4000 1.415 . S
C4000 H3976 0.950 . S
C4000 C3995 1.363 . S
C4000 C3999 1.415 . S
C4001 H3977 0.951 . S
C4001 C4002 1.366 . S
C4001 C4003 1.388 . S
C4002 C4001 1.366 . S
C4002 C4006 1.385 . S
C4003 H3978 0.951 . S
C4003 C4001 1.388 . S
C4003 C4004 1.366 . S
C4004 C4003 1.366 . S
C4004 C4005 1.414 . S
C4004 C4007 1.499 . S
C4005 H3979 0.950 . S
C4005 C4004 1.414 . S
C4005 C4006 1.374 . S
C4006 H3980 0.950 . S
C4006 C4002 1.385 . S
C4006 C4005 1.374 . S
C4007 C4004 1.499 . S
C4007 C4008 1.373 1_565 S
C4007 C4009 1.389 . S
C4008 H3981 0.950 . S
C4008 C3994 1.377 . S
C4008 C4007 1.373 1_545 S
C4009 C3993 1.377 . S
C4009 C4007 1.389 . S
C4009 C4010 1.524 . S
C4010 C4009 1.524 . S
C4010 C4011 1.397 . S
C4010 C4015 1.363 . S
C4011 H3982 0.950 . S
C4011 C4010 1.397 . S
C4011 C4012 1.334 . S
C4012 H3983 0.950 . S
C4012 C4011 1.334 . S
C4012 C4013 1.287 . S
C4013 C4012 1.287 . S
C4013 C4014 1.524 . S
C4013 H4016 0.999 . S
C4014 H3984 0.950 . S
C4014 C4013 1.524 . S
C4014 C4015 1.415 . S
C4015 H3985 0.950 . S
C4015 C4010 1.363 . S
C4015 C4014 1.415 . S
H4016 C4013 0.999 . S
H4017 C3998 0.913 . S
H4018 C4036 0.951 . S
H4019 C4038 0.951 . S
H4020 C4040 0.950 . S
H4021 C4041 0.950 . S
H4022 C4043 0.950 . S
H4023 C4046 0.950 . S
H4024 C4047 0.950 . S
H4025 C4049 0.950 . S
H4026 C4050 0.950 . S
H4027 C4051 0.951 . S
H4028 C4053 0.951 . S
H4029 C4055 0.950 . S
H4030 C4056 0.950 . S
H4031 C4058 0.950 . S
H4032 C4061 0.950 . S
H4033 C4062 0.950 . S
H4034 C4064 0.950 . S
H4035 C4065 0.950 . S
C4036 H4018 0.951 . S
C4036 C4037 1.366 . S
C4036 C4038 1.388 . S
C4037 C4036 1.366 . S
C4037 C4041 1.385 . S
C4038 H4019 0.951 . S
C4038 C4036 1.388 . S
C4038 C4039 1.366 . S
C4039 C4038 1.366 . S
C4039 C4040 1.414 . S
C4039 C4042 1.499 . S
C4040 H4020 0.950 . S
C4040 C4039 1.414 . S
C4040 C4041 1.374 . S
C4041 H4021 0.950 . S
C4041 C4037 1.385 . S
C4041 C4040 1.374 . S
C4042 C4039 1.499 . S
C4042 C4043 1.373 1_455 S
C4042 C4044 1.389 . S
C4043 H4022 0.950 . S
C4043 C4042 1.373 1_655 S
C4043 C4059 1.377 . S
C4044 C4042 1.389 . S
C4044 C4045 1.524 . S
C4044 C4058 1.377 . S
C4045 C4044 1.524 . S
C4045 C4046 1.397 . S
C4045 C4050 1.363 . S
C4046 H4023 0.950 . S
C4046 C4045 1.397 . S
C4046 C4047 1.334 . S
C4047 H4024 0.950 . S
C4047 C4046 1.334 . S
C4047 C4048 1.287 . S
C4048 C4047 1.287 . S
C4048 C4049 1.524 . S
C4048 H4067 0.913 . S
C4049 H4025 0.950 . S
C4049 C4048 1.524 . S
C4049 C4050 1.415 . S
C4050 H4026 0.950 . S
C4050 C4045 1.363 . S
C4050 C4049 1.415 . S
C4051 H4027 0.951 . S
C4051 C4052 1.366 . S
C4051 C4053 1.388 . S
C4052 C4051 1.366 . S
C4052 C4056 1.385 . S
C4053 H4028 0.951 . S
C4053 C4051 1.388 . S
C4053 C4054 1.366 . S
C4054 C4053 1.366 . S
C4054 C4055 1.414 . S
C4054 C4057 1.499 . S
C4055 H4029 0.950 . S
C4055 C4054 1.414 . S
C4055 C4056 1.374 . S
C4056 H4030 0.950 . S
C4056 C4052 1.385 . S
C4056 C4055 1.374 . S
C4057 C4054 1.499 . S
C4057 C4058 1.373 1_655 S
C4057 C4059 1.389 . S
C4058 H4031 0.950 . S
C4058 C4044 1.377 . S
C4058 C4057 1.373 1_455 S
C4059 C4043 1.377 . S
C4059 C4057 1.389 . S
C4059 C4060 1.524 . S
C4060 C4059 1.524 . S
C4060 C4061 1.397 . S
C4060 C4065 1.363 . S
C4061 H4032 0.950 . S
C4061 C4060 1.397 . S
C4061 C4062 1.334 . S
C4062 H4033 0.950 . S
C4062 C4061 1.334 . S
C4062 C4063 1.287 . S
C4063 C4062 1.287 . S
C4063 C4064 1.524 . S
C4063 H4066 0.999 . S
C4064 H4034 0.950 . S
C4064 C4063 1.524 . S
C4064 C4065 1.415 . S
C4065 H4035 0.950 . S
C4065 C4060 1.363 . S
C4065 C4064 1.415 . S
H4066 C4063 0.999 . S
H4067 C4048 0.913 . S
C487 C70 0.999 . S
C502 C5 0.999 . S
C537 C44 1.000 . S
C552 C18 0.999 . S
C587 C29 0.999 . S
C602 C57 0.999 . S
C637 C83 1.000 . S
C652 C146 1.000 . S
C687 C94 1.000 . S
C702 C120 1.000 . S
C737 C135 1.000 . S
C752 C109 1.000 . S
C787 C159 1.000 . S
C802 C224 1.000 . S
C837 C172 0.999 . S
C852 C200 0.999 . S
C887 C213 0.999 . S
C902 C187 0.999 . S
C937 C304 0.999 . S
C952 C237 0.999 . S
C987 C278 0.999 . S
C1002 C252 0.999 . S
C1037 C263 1.000 . S
C1052 C289 1.000 . S
C1087 C382 1.000 . S
C1102 C315 1.000 . S
C1137 C356 0.999 . S
C1152 C328 0.999 . S
C1187 C341 0.999 . S
C1202 C367 0.999 . S
C1237 C460 0.999 . S
C1252 C393 0.999 . S
C1287 C434 1.000 . S
C1302 C406 0.999 . S
C1337 C447 0.999 . S
C1352 C419 0.999 . S
C1387 C218 1.300 . S
C1402 C10 1.300 . S
C1437 C225 1.298 . S
C1452 C23 1.299 . S
C1487 C205 1.299 . S
C1502 C30 1.299 . S
C1537 C49 1.299 . S
C1552 C342 1.300 . S
C1587 C62 1.299 . S
C1602 C316 1.298 . S
C1637 C75 1.300 . S
C1652 C329 1.299 . S
C1687 C88 1.300 . S
C1702 C452 1.299 . S
C1737 C465 1.300 . S
C1752 C95 1.300 . S
C1787 C439 1.300 . S
C1802 C114 1.299 . S
C1837 C264 1.299 . S
C1852 C121 1.299 . S
C1887 C238 1.299 . S
C1902 C140 1.300 . S
C1937 C147 1.299 . S
C1952 C257 1.299 . S
C1987 C160 1.299 . S
C2002 C368 1.299 . S
C2037 C387 1.299 . S
C2052 C173 1.298 . S
C2087 C361 1.298 . S
C2102 C192 1.299 . S
C2137 C283 1.300 . S
C2152 C420 1.300 . S
C2187 C394 1.300 . S
C2202 C290 1.299 . S
C2237 C309 1.299 . S
C2252 C407 1.300 . S
C2287 C244 1.691 . S
C2302 C4 1.691 . S
C2337 C251 1.691 . S
C2352 C17 1.691 . S
C2387 C36 1.691 . S
C2402 C270 1.691 . S
C2437 C43 1.691 . S
C2452 C433 1.691 . S
C2487 C446 1.691 . S
C2502 C56 1.691 . S
C2537 C459 1.691 . S
C2552 C69 1.691 . S
C2587 C82 1.691 . S
C2602 C322 1.691 . S
C2637 C101 1.691 . S
C2652 C335 1.691 . S
C2687 C348 1.691 . S
C2702 C108 1.691 . S
C2737 C127 1.691 . S
C2752 C199 1.691 . S
C2787 C134 1.691 . S
C2802 C212 1.691 . S
C2837 C231 1.691 . S
C2852 C153 1.691 . S
C2887 C166 1.691 . S
C2902 C400 1.691 . S
C2937 C179 1.691 . S
C2952 C413 1.691 . S
C2987 C426 1.691 . S
C3002 C186 1.691 . S
C3037 C355 1.691 . S
C3052 C277 1.691 . S
C3087 C296 1.691 . S
C3102 C374 1.691 . S
C3137 C303 1.691 . S
C3152 C381 1.691 . S
C3187 C354 1.591 . S
C3202 C3 1.590 . S
C3237 C16 1.589 . S
C3252 C369 1.590 . S
C3287 C380 1.590 . S
C3302 C31 1.590 . S
C3337 C42 1.590 . S
C3352 C161 1.590 . S
C3387 C174 1.590 . S
C3402 C55 1.590 . S
C3437 C185 1.590 . S
C3452 C68 1.590 . S
C3487 C81 1.590 . S
C3502 C276 1.590 . S
C3537 C291 1.590 . S
C3552 C96 1.590 . S
C3587 C107 1.590 . S
C3602 C302 1.590 . S
C3637 C122 1.590 . S
C3652 C395 1.590 . S
C3687 C133 1.590 . S
C3702 C408 1.590 . S
C3737 C421 1.590 . S
C3752 C148 1.590 . S
C3787 C198 1.590 . S
C3802 C317 1.591 . S
C3837 C211 1.590 . S
C3852 C330 1.589 . S
C3887 C226 1.590 . S
C3902 C343 1.590 . S
C3937 C239 1.590 . S
C3952 C432 1.591 . S
C3987 C250 1.590 . S
C4002 C445 1.590 . S
C4037 C458 1.590 . S
C4052 C265 1.590 . S
