# Generated by pormake.
# Topology lcs, (4)-cn, num edge types: 1
# Building blocks:
#     Node 0, Type 0, BuildingBlock: NAHDIM_clean_sbu_0, # of connection points: 4
#     Node 1, Type 0, BuildingBlock: NAHDIM_clean_sbu_0, # of connection points: 4
#     Node 2, Type 0, BuildingBlock: NAHDIM_clean_sbu_0, # of connection points: 4
#     Node 3, Type 0, BuildingBlock: NAHDIM_clean_sbu_0, # of connection points: 4
#     Node 4, Type 0, BuildingBlock: NAHDIM_clean_sbu_0, # of connection points: 4
#     Node 5, Type 0, BuildingBlock: NAHDIM_clean_sbu_0, # of connection points: 4
#     Node 6, Type 0, BuildingBlock: NAHDIM_clean_sbu_0, # of connection points: 4
#     Node 7, Type 0, BuildingBlock: NAHDIM_clean_sbu_0, # of connection points: 4
#     Node 8, Type 0, BuildingBlock: NAHDIM_clean_sbu_0, # of connection points: 4
#     Node 9, Type 0, BuildingBlock: NAHDIM_clean_sbu_0, # of connection points: 4
#     Node 10, Type 0, BuildingBlock: NAHDIM_clean_sbu_0, # of connection points: 4
#     Node 11, Type 0, BuildingBlock: NAHDIM_clean_sbu_0, # of connection points: 4
#     Node 12, Type 0, BuildingBlock: NAHDIM_clean_sbu_0, # of connection points: 4
#     Node 13, Type 0, BuildingBlock: NAHDIM_clean_sbu_0, # of connection points: 4
#     Node 14, Type 0, BuildingBlock: NAHDIM_clean_sbu_0, # of connection points: 4
#     Node 15, Type 0, BuildingBlock: NAHDIM_clean_sbu_0, # of connection points: 4
#     Node 16, Type 0, BuildingBlock: NAHDIM_clean_sbu_0, # of connection points: 4
#     Node 17, Type 0, BuildingBlock: NAHDIM_clean_sbu_0, # of connection points: 4
#     Node 18, Type 0, BuildingBlock: NAHDIM_clean_sbu_0, # of connection points: 4
#     Node 19, Type 0, BuildingBlock: NAHDIM_clean_sbu_0, # of connection points: 4
#     Node 20, Type 0, BuildingBlock: NAHDIM_clean_sbu_0, # of connection points: 4
#     Node 21, Type 0, BuildingBlock: NAHDIM_clean_sbu_0, # of connection points: 4
#     Node 22, Type 0, BuildingBlock: NAHDIM_clean_sbu_0, # of connection points: 4
#     Node 23, Type 0, BuildingBlock: NAHDIM_clean_sbu_0, # of connection points: 4
#     Edge 24, Type (0, 0), BuildingBlock: TEMPAE_clean_linker_10, # of connection points: 2
#     Edge 25, Type (0, 0), BuildingBlock: TEMPAE_clean_linker_10, # of connection points: 2
#     Edge 26, Type (0, 0), BuildingBlock: TEMPAE_clean_linker_10, # of connection points: 2
#     Edge 27, Type (0, 0), BuildingBlock: TEMPAE_clean_linker_10, # of connection points: 2
#     Edge 28, Type (0, 0), BuildingBlock: TEMPAE_clean_linker_10, # of connection points: 2
#     Edge 29, Type (0, 0), BuildingBlock: TEMPAE_clean_linker_10, # of connection points: 2
#     Edge 30, Type (0, 0), BuildingBlock: TEMPAE_clean_linker_10, # of connection points: 2
#     Edge 31, Type (0, 0), BuildingBlock: TEMPAE_clean_linker_10, # of connection points: 2
#     Edge 32, Type (0, 0), BuildingBlock: TEMPAE_clean_linker_10, # of connection points: 2
#     Edge 33, Type (0, 0), BuildingBlock: TEMPAE_clean_linker_10, # of connection points: 2
#     Edge 34, Type (0, 0), BuildingBlock: TEMPAE_clean_linker_10, # of connection points: 2
#     Edge 35, Type (0, 0), BuildingBlock: TEMPAE_clean_linker_10, # of connection points: 2
#     Edge 36, Type (0, 0), BuildingBlock: TEMPAE_clean_linker_10, # of connection points: 2
#     Edge 37, Type (0, 0), BuildingBlock: TEMPAE_clean_linker_10, # of connection points: 2
#     Edge 38, Type (0, 0), BuildingBlock: TEMPAE_clean_linker_10, # of connection points: 2
#     Edge 39, Type (0, 0), BuildingBlock: TEMPAE_clean_linker_10, # of connection points: 2
#     Edge 40, Type (0, 0), BuildingBlock: TEMPAE_clean_linker_10, # of connection points: 2
#     Edge 41, Type (0, 0), BuildingBlock: TEMPAE_clean_linker_10, # of connection points: 2
#     Edge 42, Type (0, 0), BuildingBlock: TEMPAE_clean_linker_10, # of connection points: 2
#     Edge 43, Type (0, 0), BuildingBlock: TEMPAE_clean_linker_10, # of connection points: 2
#     Edge 44, Type (0, 0), BuildingBlock: TEMPAE_clean_linker_10, # of connection points: 2
#     Edge 45, Type (0, 0), BuildingBlock: TEMPAE_clean_linker_10, # of connection points: 2
#     Edge 46, Type (0, 0), BuildingBlock: TEMPAE_clean_linker_10, # of connection points: 2
#     Edge 47, Type (0, 0), BuildingBlock: TEMPAE_clean_linker_10, # of connection points: 2
#     Edge 48, Type (0, 0), BuildingBlock: TEMPAE_clean_linker_10, # of connection points: 2
#     Edge 49, Type (0, 0), BuildingBlock: TEMPAE_clean_linker_10, # of connection points: 2
#     Edge 50, Type (0, 0), BuildingBlock: TEMPAE_clean_linker_10, # of connection points: 2
#     Edge 51, Type (0, 0), BuildingBlock: TEMPAE_clean_linker_10, # of connection points: 2
#     Edge 52, Type (0, 0), BuildingBlock: TEMPAE_clean_linker_10, # of connection points: 2
#     Edge 53, Type (0, 0), BuildingBlock: TEMPAE_clean_linker_10, # of connection points: 2
#     Edge 54, Type (0, 0), BuildingBlock: TEMPAE_clean_linker_10, # of connection points: 2
#     Edge 55, Type (0, 0), BuildingBlock: TEMPAE_clean_linker_10, # of connection points: 2
#     Edge 56, Type (0, 0), BuildingBlock: TEMPAE_clean_linker_10, # of connection points: 2
#     Edge 57, Type (0, 0), BuildingBlock: TEMPAE_clean_linker_10, # of connection points: 2
#     Edge 58, Type (0, 0), BuildingBlock: TEMPAE_clean_linker_10, # of connection points: 2
#     Edge 59, Type (0, 0), BuildingBlock: TEMPAE_clean_linker_10, # of connection points: 2
#     Edge 60, Type (0, 0), BuildingBlock: TEMPAE_clean_linker_10, # of connection points: 2
#     Edge 61, Type (0, 0), BuildingBlock: TEMPAE_clean_linker_10, # of connection points: 2
#     Edge 62, Type (0, 0), BuildingBlock: TEMPAE_clean_linker_10, # of connection points: 2
#     Edge 63, Type (0, 0), BuildingBlock: TEMPAE_clean_linker_10, # of connection points: 2
#     Edge 64, Type (0, 0), BuildingBlock: TEMPAE_clean_linker_10, # of connection points: 2
#     Edge 65, Type (0, 0), BuildingBlock: TEMPAE_clean_linker_10, # of connection points: 2
#     Edge 66, Type (0, 0), BuildingBlock: TEMPAE_clean_linker_10, # of connection points: 2
#     Edge 67, Type (0, 0), BuildingBlock: TEMPAE_clean_linker_10, # of connection points: 2
#     Edge 68, Type (0, 0), BuildingBlock: TEMPAE_clean_linker_10, # of connection points: 2
#     Edge 69, Type (0, 0), BuildingBlock: TEMPAE_clean_linker_10, # of connection points: 2
#     Edge 70, Type (0, 0), BuildingBlock: TEMPAE_clean_linker_10, # of connection points: 2
#     Edge 71, Type (0, 0), BuildingBlock: TEMPAE_clean_linker_10, # of connection points: 2
# Relax obj value: 0.090
# Max RMSD: 0.162
# Mean RMSD: 0.151
data_MOF--net-lcs--node1-NAHDIM_clean_sbu_0--edge1-TEMPAE_clean_linker_10
_symmetry_space_group_name_H-M    P1
_symmetry_Int_Tables_number       1
_symmetry_cell_setting            triclinic
loop_
_symmetry_equiv_pos_as_xyz
'x, y, z'
_cell_length_a     50.781818
_cell_length_b     48.977793
_cell_length_c     48.955241
_cell_angle_alpha  91.7136
_cell_angle_beta   90.602893
_cell_angle_gamma 91.170682
loop_
_atom_site_label
_atom_site_type_symbol
_atom_site_fract_x
_atom_site_fract_y
_atom_site_fract_z
_atom_type_partial_charge
C0 C 0.94391 0.25714 0.40159 0.0
O1 O 0.94732 0.23061 0.40066 0.0
O2 O 0.972 0.22543 0.34124 0.0
Zn3 Zn 0.98629 0.2586 0.36186 0.0
O4 O 0.99477 0.28915 0.33677 0.0
C5 C 0.036 0.23444 0.3696 0.0
O6 O 0.03223 0.22893 0.3434 0.0
O7 O 0.95869 0.27241 0.38754 0.0
C8 C 0.00207 0.28676 0.31208 0.0
O9 O 0.00503 0.26231 0.30092 0.0
C10 C 0.94838 0.22397 0.33247 0.0
O11 O 0.9333 0.2453 0.33566 0.0
O12 O 0.01871 0.24785 0.38257 0.0
C13 C 0.06598 0.71396 0.62763 0.0
O14 O 0.06547 0.70662 0.65322 0.0
O15 O 0.00962 0.7155 0.66819 0.0
Zn16 Zn 0.0243 0.74665 0.64688 0.0
O17 O 0.04327 0.77504 0.67069 0.0
C18 C 0.97145 0.76343 0.63694 0.0
O19 O 0.9676 0.7514 0.66024 0.0
O20 O 0.0498 0.73156 0.61965 0.0
C21 C 0.03118 0.79187 0.68605 0.0
O22 O 0.0054 0.79 0.68753 0.0
C23 C 0.01329 0.71139 0.69343 0.0
O24 O 0.02823 0.72855 0.70813 0.0
O25 O 0.99444 0.76401 0.62693 0.0
C26 C 0.44159 0.77769 0.88429 0.0
O27 O 0.43818 0.77306 0.85794 0.0
O28 O 0.47437 0.72038 0.85212 0.0
Zn29 Zn 0.49054 0.75403 0.87099 0.0
O30 O 0.50324 0.78261 0.8451 0.0
C31 C 0.54071 0.73172 0.88117 0.0
O32 O 0.53965 0.72904 0.85441 0.0
O33 O 0.46323 0.77117 0.89536 0.0
C34 C 0.51128 0.77915 0.82076 0.0
O35 O 0.51168 0.75446 0.80958 0.0
C36 C 0.46165 0.71899 0.82959 0.0
O37 O 0.45856 0.74116 0.81557 0.0
O38 O 0.52141 0.7423 0.89362 0.0
C39 C 0.53732 0.20831 0.08301 0.0
O40 O 0.51649 0.19226 0.08554 0.0
O41 O 0.50359 0.20566 0.14673 0.0
Zn42 Zn 0.51212 0.23904 0.12567 0.0
O43 O 0.52673 0.26888 0.15066 0.0
C44 C 0.4765 0.27402 0.09717 0.0
O45 O 0.49641 0.29158 0.09873 0.0
O46 O 0.53942 0.22998 0.09784 0.0
C47 C 0.51269 0.28349 0.1664 0.0
O48 O 0.48711 0.27894 0.16694 0.0
C49 C 0.52114 0.19102 0.15726 0.0
O50 O 0.54607 0.1983 0.15513 0.0
O51 O 0.47901 0.25058 0.10716 0.0
C52 C 0.04908 0.79216 0.11455 0.0
O53 O 0.04916 0.78613 0.14052 0.0
O54 O 0.00825 0.73694 0.13757 0.0
Zn55 Zn -0.00288 0.7715 0.11979 0.0
O56 O 0.98456 0.79913 0.14759 0.0
C57 C 0.96399 0.73927 0.08237 0.0
O58 O 0.9816 0.72059 0.08686 0.0
O59 O 0.02822 0.78756 0.10044 0.0
C60 C 0.96213 0.79591 0.15841 0.0
O61 O 0.94795 0.77388 0.15191 0.0
C62 C 0.00927 0.73349 0.16319 0.0
O63 O 0.00264 0.7535 0.18003 0.0
O64 O 0.96711 0.76287 0.09357 0.0
C65 C 0.45852 0.72092 0.4184 0.0
O66 O 0.45567 0.7343 0.39573 0.0
O67 O 0.52847 0.70665 0.38599 0.0
Zn68 Zn 0.51223 0.73594 0.40948 0.0
O69 O 0.49966 0.76715 0.38725 0.0
C70 C 0.55908 0.76328 0.42555 0.0
O71 O 0.55904 0.76661 0.39902 0.0
O72 O 0.48137 0.71929 0.42902 0.0
C73 C 0.50561 0.77143 0.36258 0.0
O74 O 0.52158 0.75477 0.34974 0.0
C75 C 0.51513 0.69136 0.36936 0.0
O76 O 0.4898 0.69542 0.3663 0.0
O77 O 0.54002 0.75019 0.43601 0.0
C78 C 0.53467 0.30264 0.5889 0.0
O79 O 0.51961 0.32075 0.60096 0.0
O80 O 0.50757 0.22998 0.62892 0.0
Zn81 Zn 0.49678 0.26399 0.61023 0.0
O82 O 0.48542 0.29258 0.63771 0.0
C83 C 0.44876 0.27069 0.57876 0.0
O84 O 0.45182 0.29654 0.58634 0.0
O85 O 0.52809 0.27749 0.58937 0.0
C86 C 0.46456 0.28892 0.65134 0.0
O87 O 0.45102 0.26592 0.64775 0.0
C88 C 0.51093 0.22794 0.65453 0.0
O89 O 0.50722 0.24928 0.67081 0.0
O90 O 0.46612 0.25378 0.58557 0.0
C91 C 0.95193 0.20952 0.8971 0.0
O92 O 0.95247 0.21124 0.87038 0.0
O93 O 0.01496 0.2009 0.86553 0.0
Zn94 Zn 0.00263 0.2318 0.88974 0.0
O95 O 0.99064 0.26326 0.86755 0.0
C96 C 0.05601 0.24188 0.90723 0.0
O97 O 0.06051 0.23014 0.8833 0.0
O98 O 0.97195 0.21777 0.91104 0.0
C99 C 0.00666 0.27963 0.85632 0.0
O100 O 0.03209 0.27579 0.85876 0.0
C101 C 0.01199 0.19908 0.83974 0.0
O102 O -0.0001 0.21853 0.82699 0.0
O103 O 0.03235 0.24456 0.91496 0.0
C104 C 0.42273 0.93366 0.27689 0.0
O105 O 0.40001 0.93076 0.26392 0.0
O106 O 0.39105 0.98025 0.23561 0.0
Zn107 Zn 0.41299 0.9904 0.26896 0.0
O108 O 0.38978 0.00448 0.29917 0.0
C109 C 0.45165 0.01795 0.23686 0.0
O110 O 0.44868 -0.00419 0.22122 0.0
O111 O 0.43233 0.95755 0.28144 0.0
C112 C 0.38572 0.02994 0.30192 0.0
O113 O 0.39665 0.04671 0.28471 0.0
C114 C 0.38006 -0.00177 0.22147 0.0
O115 O 0.38259 0.02409 0.22916 0.0
O116 O 0.43892 0.0198 0.259 0.0
C117 C 0.19214 0.15244 0.46353 0.0
O118 O 0.19043 0.12704 0.47136 0.0
O119 O 0.23364 0.12644 0.51602 0.0
Zn120 Zn 0.24506 0.14692 0.48281 0.0
O121 O 0.26086 0.12184 0.45438 0.0
C122 C 0.27683 0.18326 0.51823 0.0
O123 O 0.2613 0.17412 0.53736 0.0
O124 O 0.21394 0.16544 0.46649 0.0
C125 C 0.28467 0.11488 0.45739 0.0
O126 O 0.29768 0.12322 0.47955 0.0
C127 C 0.23763 0.10128 0.5198 0.0
O128 O 0.2497 0.08674 0.50096 0.0
O129 O 0.27294 0.17507 0.49363 0.0
C130 C 0.16489 0.02181 0.69154 0.0
O131 O 0.13973 0.01495 0.69148 0.0
O132 O 0.13153 0.04434 0.75336 0.0
Zn133 Zn 0.15601 0.01313 0.74691 0.0
O134 O 0.13523 0.97826 0.73857 0.0
C135 C 0.16849 0.01552 0.80386 0.0
O136 O 0.14464 0.02539 0.8044 0.0
O137 O 0.1776 0.02212 0.71406 0.0
C138 C 0.13089 0.95984 0.75581 0.0
O139 O 0.1403 0.9631 0.78081 0.0
C140 C 0.10657 0.04257 0.75145 0.0
O141 O 0.09526 0.01904 0.74428 0.0
O142 O 0.17842 0.00893 0.78088 0.0
C143 C 0.29972 0.88434 0.97836 0.0
O144 O 0.29575 0.90891 0.96931 0.0
O145 O 0.27095 0.92249 0.04414 0.0
Zn146 Zn 0.25651 0.89932 0.01238 0.0
O147 O 0.24187 0.92162 0.98205 0.0
C148 C 0.20726 0.88885 0.03631 0.0
O149 O 0.20793 0.91571 0.03698 0.0
O150 O 0.28503 0.8753 -0.00292 0.0
C151 C 0.24687 0.94662 0.97765 0.0
O152 O 0.26272 0.9607 0.9944 0.0
C153 C 0.29403 0.93307 0.04461 0.0
O154 O 0.30897 0.93013 0.02305 0.0
O155 O 0.22671 0.8762 0.02632 0.0
C156 C 0.30131 0.33183 0.02244 0.0
O157 O 0.2969 0.3331 -0.00398 0.0
O158 O 0.24032 0.38642 0.05454 0.0
Zn159 Zn 0.25368 0.36188 0.02453 0.0
O160 O 0.26606 0.38326 0.99247 0.0
C161 C 0.20328 0.34671 0.00409 0.0
O162 O 0.2015 0.37342 0.00551 0.0
O163 O 0.28469 0.34193 0.03891 0.0
C164 C 0.25731 0.40584 0.9845 0.0
O165 O 0.23818 0.41765 -0.00206 0.0
C166 C 0.25093 0.40934 0.06147 0.0
O167 O 0.27174 0.41819 0.04841 0.0
O168 O 0.22454 0.33592 0.01184 0.0
C169 C 0.69806 0.13548 0.99112 0.0
O170 O 0.70131 0.1333 0.96456 0.0
O171 O 0.75386 0.07667 0.02376 0.0
Zn172 Zn 0.74362 0.10086 0.99345 0.0
O173 O 0.73053 0.07783 0.96132 0.0
C174 C 0.79657 0.11211 0.97909 0.0
O175 O 0.79762 0.08557 0.98204 0.0
O176 O 0.7142 0.12409 0.00693 0.0
C177 C 0.73648 0.08344 0.93696 0.0
O178 O 0.75205 0.10457 0.93261 0.0
C179 C 0.73634 0.06343 0.03652 0.0
O180 O 0.71154 0.06525 0.02899 0.0
O181 O 0.77489 0.12396 0.98322 0.0
C182 C 0.09349 0.56288 0.2292 0.0
O183 O 0.11909 0.56399 0.23345 0.0
O184 O 0.12916 0.50151 0.20959 0.0
Zn185 Zn 0.10453 0.50892 0.24071 0.0
O186 O 0.12472 0.51868 0.27513 0.0
C187 C 0.06613 0.46275 0.23386 0.0
O188 O 0.05744 0.47434 0.21175 0.0
O189 O 0.08137 0.5401 0.23133 0.0
C190 C 0.13945 0.50115 0.28582 0.0
O191 O 0.14185 0.4771 0.27358 0.0
C192 C 0.15371 0.50713 0.2103 0.0
O193 O 0.16431 0.51905 0.23226 0.0
O194 O 0.08443 0.47436 0.24808 0.0
C195 C 0.81935 0.85806 0.54945 0.0
O196 O 0.81837 0.88486 0.55075 0.0
O197 O 0.76002 0.89298 0.55681 0.0
Zn198 Zn 0.76884 0.86572 0.527 0.0
O199 O 0.77785 0.88413 0.49211 0.0
C200 C 0.71438 0.84844 0.52639 0.0
O201 O 0.71186 0.87193 0.53964 0.0
O202 O 0.7998 0.84448 0.5394 0.0
C203 C 0.75983 0.89374 0.4772 0.0
O204 O 0.73531 0.89245 0.48543 0.0
C205 C 0.75936 0.91874 0.55463 0.0
O206 O 0.76578 0.9297 0.5314 0.0
O207 O 0.73725 0.84083 0.51952 0.0
C208 C 0.80365 0.98644 0.20974 0.0
O209 O 0.81236 0.96147 0.21152 0.0
O210 O 0.86157 0.96747 0.24189 0.0
Zn211 Zn 0.83821 -0.00295 0.25616 0.0
O212 O 0.85941 0.0316 0.26348 0.0
C213 C 0.81037 0.96174 0.29258 0.0
O214 O 0.81056 0.94466 0.27138 0.0
O215 O 0.81138 0.00464 0.22723 0.0
C216 C 0.86722 0.03882 0.2874 0.0
O217 O 0.86202 0.02286 0.30784 0.0
C218 C 0.87535 0.95244 0.25689 0.0
O219 O 0.87531 0.9566 0.28353 0.0
O220 O 0.82062 0.98545 0.29051 0.0
C221 C 0.19802 0.62104 0.50717 0.0
O222 O 0.19097 0.60056 0.49057 0.0
O223 O 0.25873 0.57343 0.52942 0.0
Zn224 Zn 0.25052 0.59971 0.49991 0.0
O225 O 0.23926 0.58001 0.46498 0.0
C226 C 0.3024 0.61059 0.48118 0.0
O227 O 0.3005 0.58448 0.47431 0.0
O228 O 0.22223 0.62481 0.51329 0.0
C229 C 0.22713 0.55705 0.46418 0.0
O230 O 0.22167 0.54501 0.48711 0.0
C231 C 0.24125 0.56515 0.54583 0.0
O232 O 0.21686 0.57305 0.54277 0.0
O233 O 0.28306 0.62199 0.49277 0.0
C234 C 0.31183 0.48414 0.71588 0.0
O235 O 0.31655 0.45809 0.71871 0.0
O236 O 0.37038 0.46051 0.74405 0.0
Zn237 Zn 0.34939 0.49106 0.76019 0.0
O238 O 0.37256 0.52396 0.76855 0.0
C239 C 0.34091 0.48401 0.81758 0.0
O240 O 0.36371 0.49711 0.81971 0.0
O241 O 0.32305 0.50166 0.73199 0.0
C242 C 0.36137 0.54543 0.77728 0.0
O243 O 0.33574 0.54477 0.78072 0.0
C244 C 0.38536 0.4453 0.75755 0.0
O245 O 0.38826 0.44972 0.78402 0.0
O246 O 0.33093 0.47902 0.794 0.0
C247 C 0.59032 0.05603 0.7227 0.0
O248 O 0.61526 0.05728 0.73007 0.0
O249 O 0.62639 0.99442 0.70084 0.0
Zn250 Zn 0.60079 0.00113 0.73128 0.0
O251 O 0.62032 0.01109 0.76616 0.0
C252 C 0.58992 0.944 0.73309 0.0
O253 O 0.61418 0.94344 0.7241 0.0
O254 O 0.57844 0.03292 0.72171 0.0
C255 C 0.63892 -0.00278 0.77583 0.0
O256 O 0.646 0.97475 0.76284 0.0
C257 C 0.64965 0.0045 0.70036 0.0
O258 O 0.65806 0.02072 0.72059 0.0
O259 O 0.57907 0.96694 0.73701 0.0
C260 C 0.69408 0.64899 0.97885 0.0
O261 O 0.69345 0.62241 0.98173 0.0
O262 O 0.73063 0.61988 0.03426 0.0
Zn263 Zn 0.74414 0.64111 0.0025 0.0
O264 O 0.75873 0.61652 0.97305 0.0
C265 C 0.7907 0.67526 -0.0002 0.0
O266 O 0.78727 0.67068 0.9734 0.0
O267 O 0.71457 0.66253 0.98662 0.0
C268 C 0.77673 0.59977 0.97834 0.0
O269 O 0.78476 0.59744 0.00375 0.0
C270 C 0.72435 0.59461 0.03342 0.0
O271 O 0.72647 0.58047 0.01035 0.0
O272 O 0.7739 0.66562 0.0162 0.0
C273 C 0.93004 0.44587 0.77238 0.0
O274 O 0.92538 0.44765 0.74605 0.0
O275 O 0.87927 0.48264 0.74179 0.0
Zn276 Zn 0.89924 0.49482 0.77586 0.0
O277 O 0.87466 0.5055 0.80611 0.0
C278 C 0.91312 0.55089 0.76734 0.0
O279 O 0.88828 0.55401 0.77372 0.0
O280 O 0.92117 0.46401 0.78874 0.0
C281 C 0.88478 0.51797 0.82693 0.0
O282 O 0.91031 0.52296 0.82763 0.0
C283 C 0.85916 0.4947 0.73282 0.0
O284 O 0.85001 0.51572 0.74675 0.0
O285 O 0.92257 0.52705 0.767 0.0
C286 C 0.78607 0.34969 0.48073 0.0
O287 O 0.76559 0.35292 0.46461 0.0
O288 O 0.76995 0.4103 0.54774 0.0
Zn289 Zn 0.75972 0.39026 0.51273 0.0
O290 O 0.75576 0.4158 0.48165 0.0
C291 C 0.71909 0.36064 0.54047 0.0
O292 O 0.73684 0.36119 0.56022 0.0
O293 O 0.78764 0.3633 0.5032 0.0
C294 C 0.73518 0.42999 0.47995 0.0
O295 O 0.71783 0.42896 0.49964 0.0
C296 C 0.7869 0.42972 0.54912 0.0
O297 O 0.79797 0.43794 0.52657 0.0
O298 O 0.72484 0.37115 0.51783 0.0
C299 C 0.64492 0.51385 0.20143 0.0
O300 O 0.61912 0.51298 0.2033 0.0
O301 O 0.61642 0.52675 0.26696 0.0
Zn302 Zn 0.6378 0.49502 0.25411 0.0
O303 O 0.61353 0.46397 0.24209 0.0
C304 C 0.67322 0.50073 0.30057 0.0
O305 O 0.67208 0.52681 0.29524 0.0
O306 O 0.65867 0.5066 0.22171 0.0
C307 C 0.60686 0.44468 0.25754 0.0
O308 O 0.61593 0.4448 0.28278 0.0
C309 C 0.60349 0.52573 0.28898 0.0
O310 O 0.60401 0.50339 0.30316 0.0
O311 O 0.66095 0.48342 0.28504 0.0
C312 C 0.03234 0.42459 0.23029 0.0
C313 C 0.05548 0.43593 0.24217 0.0
C314 C 0.02196 0.39946 0.23888 0.0
C315 C 0.03521 0.38535 0.2596 0.0
C316 C 0.05893 0.3964 0.27111 0.0
C317 C 0.06867 0.42156 0.26236 0.0
C318 C -0.00347 0.38835 0.2263 0.0
C319 C 0.07379 0.38189 0.2931 0.0
C320 C 0.00019 0.33717 0.30678 0.0
C321 C 0.00827 0.3116 0.29672 0.0
C322 C 0.00763 0.36126 0.29392 0.0
C323 C 0.02379 0.3598 0.27058 0.0
C324 C 0.03112 0.33399 0.25962 0.0
C325 C 0.02315 0.31014 0.27277 0.0
C326 C -0.00083 0.38836 0.30608 0.0
C327 C 0.04848 0.33165 0.23486 0.0
H328 H 0.02207 0.43557 0.21465 0.0
H329 H 0.08672 0.43001 0.27147 0.0
H330 H -0.00088 0.36713 0.21838 0.0
H331 H 0.98108 0.38762 0.24214 0.0
H332 H 0.98945 0.40098 0.20935 0.0
H333 H 0.09266 0.39252 0.29887 0.0
H334 H 0.0615 0.38049 0.31163 0.0
H335 H 0.0781 0.36071 0.28608 0.0
H336 H 0.98839 0.33845 0.32509 0.0
H337 H 0.0294 0.29043 0.26486 0.0
H338 H 0.99054 0.40108 0.29003 0.0
H339 H 0.0166 0.39971 0.31477 0.0
H340 H 0.9845 0.38587 0.32254 0.0
H341 H 0.04075 0.34412 0.21814 0.0
H342 H 0.05011 0.31018 0.22719 0.0
H343 H 0.06853 0.33971 0.24017 0.0
C344 C 0.92517 0.77961 0.6361 0.0
C345 C 0.94938 0.77667 0.62295 0.0
C346 C 0.90418 0.79261 0.62342 0.0
C347 C 0.90742 0.80268 0.59684 0.0
C348 C 0.93169 0.79948 0.58329 0.0
C349 C 0.95245 0.78661 0.59657 0.0
C350 C 0.87862 0.79585 0.63859 0.0
C351 C 0.93575 0.80978 0.55484 0.0
C352 C 0.84489 0.81567 0.55659 0.0
C353 C 0.84243 0.84398 0.56052 0.0
C354 C 0.86628 0.80201 0.56781 0.0
C355 C 0.88549 0.81701 0.58351 0.0
C356 C 0.8833 0.84563 0.58726 0.0
C357 C 0.86185 0.85879 0.57561 0.0
C358 C 0.86814 0.77149 0.56318 0.0
C359 C 0.90332 0.86227 0.60405 0.0
H360 H 0.92266 0.77205 0.65651 0.0
H361 H 0.97109 0.7843 0.58624 0.0
H362 H 0.87415 0.81784 0.64121 0.0
H363 H 0.86216 0.78606 0.62658 0.0
H364 H 0.87925 0.78669 0.65907 0.0
H365 H 0.95558 0.805 0.54684 0.0
H366 H 0.92065 0.80054 0.54065 0.0
H367 H 0.93331 0.83223 0.55484 0.0
H368 H 0.83003 0.80412 0.54483 0.0
H369 H 0.86007 0.88067 0.57876 0.0
H370 H 0.86692 0.76118 0.58301 0.0
H371 H 0.88745 0.76642 0.55415 0.0
H372 H 0.85223 0.76303 0.54945 0.0
H373 H 0.90356 0.85518 0.62537 0.0
H374 H 0.8991 0.88444 0.60444 0.0
H375 H 0.92333 0.85931 0.59575 0.0
C376 C 0.36509 0.59288 0.79719 0.0
C377 C 0.3769 0.5707 0.78376 0.0
C378 C 0.37955 0.6169 0.80379 0.0
C379 C 0.40642 0.61886 0.79655 0.0
C380 C 0.41841 0.59667 0.78271 0.0
C381 C 0.40353 0.57277 0.77659 0.0
C382 C 0.36615 0.64007 0.81879 0.0
C383 C 0.44697 0.59815 0.77449 0.0
C384 C 0.43615 0.69052 0.79476 0.0
C385 C 0.44894 0.69285 0.82027 0.0
C386 C 0.42279 0.66626 0.78642 0.0
C387 C 0.42206 0.64395 0.80414 0.0
C388 C 0.43538 0.64598 0.82967 0.0
C389 C 0.44875 0.67036 0.83738 0.0
C390 C 0.40901 0.6647 0.75892 0.0
C391 C 0.43491 0.62265 0.84917 0.0
H392 H 0.34454 0.59141 0.80285 0.0
H393 H 0.41275 0.55574 0.76608 0.0
H394 H 0.3763 0.64456 0.83865 0.0
H395 H 0.36748 0.65889 0.80677 0.0
H396 H 0.34506 0.63537 0.82272 0.0
H397 H 0.45311 0.57942 0.7631 0.0
H398 H 0.45046 0.61602 0.76149 0.0
H399 H 0.45972 0.60107 0.79292 0.0
H400 H 0.43632 0.70774 0.78137 0.0
H401 H 0.45858 0.67197 0.85714 0.0
H402 H 0.38746 0.66219 0.76176 0.0
H403 H 0.41563 0.64661 0.74688 0.0
H404 H 0.41272 0.68326 0.74692 0.0
H405 H 0.41434 0.61826 0.85542 0.0
H406 H 0.44704 0.62717 0.86784 0.0
H407 H 0.44227 0.60384 0.83893 0.0
C408 C 0.58092 0.21782 0.06167 0.0
C409 C 0.55931 0.20002 0.06525 0.0
C410 C 0.60315 0.20927 0.04724 0.0
C411 C 0.60381 0.18223 0.03631 0.0
C412 C 0.5816 0.16456 0.03879 0.0
C413 C 0.55956 0.17372 0.05316 0.0
C414 C 0.62636 0.22877 0.04478 0.0
C415 C 0.58162 0.13555 0.02744 0.0
C416 C 0.65641 0.16146 0.98555 0.0
C417 C 0.67469 0.14902 0.00262 0.0
C418 C 0.63339 0.17285 -0.00376 0.0
C419 C 0.62856 0.17158 0.0246 0.0
C420 C 0.64717 0.1595 0.04197 0.0
C421 C 0.67002 0.14845 0.03079 0.0
C422 C 0.61406 0.1858 0.97718 0.0
C423 C 0.64269 0.15772 0.07234 0.0
H424 H 0.58079 0.23828 0.07074 0.0
H425 H 0.54291 0.15987 0.05575 0.0
H426 H 0.64309 0.22163 0.05725 0.0
H427 H 0.63301 0.22927 0.02328 0.0
H428 H 0.62167 0.24987 0.05182 0.0
H429 H 0.56205 0.1252 0.02907 0.0
H430 H 0.58745 0.13517 0.00566 0.0
H431 H 0.59632 0.12366 0.03876 0.0
H432 H 0.65991 0.16203 0.96377 0.0
H433 H 0.68402 0.13888 0.04415 0.0
H434 H 0.61008 0.207 0.98437 0.0
H435 H 0.59503 0.17426 0.97718 0.0
H436 H 0.62132 0.1863 0.95587 0.0
H437 H 0.63996 0.17843 0.08153 0.0
H438 H 0.65932 0.14807 0.08307 0.0
H439 H 0.62443 0.14562 0.07603 0.0
C440 C 0.09356 0.61209 0.21741 0.0
C441 C 0.07941 0.58764 0.22127 0.0
C442 C 0.08087 0.63557 0.20893 0.0
C443 C 0.05332 0.63464 0.20429 0.0
C444 C 0.03879 0.61021 0.20865 0.0
C445 C 0.05203 0.58694 0.21704 0.0
C446 C 0.09707 0.66123 0.20443 0.0
C447 C 0.00935 0.60855 0.20403 0.0
C448 C 0.02025 0.70338 0.20201 0.0
C449 C 0.01896 0.7075 0.1738 0.0
C450 C 0.03063 0.67935 0.21226 0.0
C451 C 0.04003 0.65905 0.19385 0.0
C452 C 0.03817 0.66278 0.16535 0.0
C453 C 0.02761 0.68693 0.15567 0.0
C454 C 0.03219 0.67598 0.24279 0.0
C455 C 0.04805 0.64161 0.14507 0.0
H456 H 0.11471 0.61285 0.22067 0.0
H457 H 0.04095 0.56815 0.22008 0.0
H458 H 0.09553 0.6669 0.1827 0.0
H459 H 0.08935 0.67848 0.21696 0.0
H460 H 0.1182 0.65879 0.20971 0.0
H461 H 0.00078 0.58844 0.20957 0.0
H462 H -0.00036 0.62482 0.21626 0.0
H463 H 0.00471 0.61199 0.18223 0.0
H464 H 0.01347 0.71911 0.21616 0.0
H465 H 0.02661 0.68987 0.13383 0.0
H466 H 0.05312 0.67557 0.24946 0.0
H467 H 0.02289 0.65624 0.24833 0.0
H468 H 0.02239 0.69277 0.25428 0.0
H469 H 0.06962 0.63947 0.14773 0.0
H470 H 0.04394 0.647 0.12358 0.0
H471 H 0.03874 0.6214 0.14879 0.0
C472 C 0.58421 0.76685 0.46991 0.0
C473 C 0.58112 0.77447 0.44269 0.0
C474 C 0.60545 0.77709 0.48601 0.0
C475 C 0.62378 0.7956 0.47464 0.0
C476 C 0.62062 0.8035 0.44725 0.0
C477 C 0.59942 0.79273 0.43158 0.0
C478 C 0.60838 0.76805 0.51508 0.0
C479 C 0.6396 0.82345 0.43449 0.0
C480 C 0.66577 0.84464 0.51863 0.0
C481 C 0.6907 0.83302 0.51631 0.0
C482 C 0.64352 0.83203 0.50615 0.0
C483 C 0.64625 0.80706 0.49125 0.0
C484 C 0.67106 0.79444 0.49016 0.0
C485 C 0.69305 0.80765 0.5026 0.0
C486 C 0.61742 0.84621 0.50763 0.0
C487 C 0.67464 0.76763 0.47475 0.0
H488 H 0.57018 0.75264 0.47857 0.0
H489 H 0.59711 0.79882 0.4106 0.0
H490 H 0.62773 0.75833 0.51788 0.0
H491 H 0.60795 0.78603 0.52939 0.0
H492 H 0.59258 0.75333 0.52076 0.0
H493 H 0.63418 0.82769 0.41301 0.0
H494 H 0.64014 0.84303 0.4465 0.0
H495 H 0.6598 0.81525 0.43484 0.0
H496 H 0.66374 0.8642 0.52925 0.0
H497 H 0.71222 0.79843 0.50093 0.0
H498 H 0.60168 0.83185 0.51413 0.0
H499 H 0.61185 0.85322 0.48705 0.0
H500 H 0.61807 0.86419 0.52203 0.0
H501 H 0.65943 0.75244 0.48078 0.0
H502 H 0.69442 0.75906 0.47839 0.0
H503 H 0.67214 0.77066 0.45251 0.0
C504 C 0.4313 0.30731 0.68399 0.0
C505 C 0.45493 0.31088 0.66983 0.0
C506 C 0.42099 0.32865 0.70006 0.0
C507 C 0.43464 0.35413 0.702 0.0
C508 C 0.45894 0.35757 0.68852 0.0
C509 C 0.46881 0.3359 0.67259 0.0
C510 C 0.39501 0.32422 0.71418 0.0
C511 C 0.47407 0.38445 0.69015 0.0
C512 C 0.39396 0.41698 0.71548 0.0
C513 C 0.39858 0.42229 0.74347 0.0
C514 C 0.40568 0.39493 0.70179 0.0
C515 C 0.42251 0.37776 0.7164 0.0
C516 C 0.42749 0.38309 0.74459 0.0
C517 C 0.41542 0.40531 0.75782 0.0
C518 C 0.39987 0.38989 0.67171 0.0
C519 C 0.44541 0.36522 0.76075 0.0
H520 H 0.42052 0.28801 0.68207 0.0
H521 H 0.48714 0.33879 0.66182 0.0
H522 H 0.3969 0.33004 0.7362 0.0
H523 H 0.37994 0.33749 0.70522 0.0
H524 H 0.38784 0.30266 0.71223 0.0
H525 H 0.49358 0.38316 0.68019 0.0
H526 H 0.46255 0.40036 0.68002 0.0
H527 H 0.47709 0.39127 0.71179 0.0
H528 H 0.38096 0.42996 0.70421 0.0
H529 H 0.4191 0.40929 0.77944 0.0
H530 H 0.39066 0.36932 0.6683 0.0
H531 H 0.41847 0.39032 0.66002 0.0
H532 H 0.38647 0.40529 0.66331 0.0
H533 H 0.43755 0.3439 0.7602 0.0
H534 H 0.44756 0.37236 0.78243 0.0
H535 H 0.46521 0.36483 0.7514 0.0
C536 C 0.92785 0.19554 0.93903 0.0
C537 C 0.9288 0.1971 0.91048 0.0
C538 C 0.90641 0.18283 0.95176 0.0
C539 C 0.88553 0.17135 0.93552 0.0
C540 C 0.88619 0.17323 0.90675 0.0
C541 C 0.90779 0.18613 0.89459 0.0
C542 C 0.90627 0.18132 0.98252 0.0
C543 C 0.8643 0.16117 0.88875 0.0
C544 C 0.843 0.11397 0.96275 0.0
C545 C 0.81983 0.12762 0.9695 0.0
C546 C 0.86474 0.1281 0.95222 0.0
C547 C 0.86332 0.15657 0.94844 0.0
C548 C 0.84025 0.1706 0.95584 0.0
C549 C 0.81874 0.15594 0.96624 0.0
C550 C 0.88901 0.11242 0.9445 0.0
C551 C 0.83808 0.20098 0.95221 0.0
H552 H 0.94398 0.20404 0.95146 0.0
H553 H 0.90834 0.18726 0.87252 0.0
H554 H 0.88798 0.19027 0.99075 0.0
H555 H 0.90646 0.15966 0.98849 0.0
H556 H 0.92349 0.19224 0.99225 0.0
H557 H 0.86749 0.16499 0.86676 0.0
H558 H 0.86276 0.13878 0.89143 0.0
H559 H 0.84516 0.1699 0.8948 0.0
H560 H 0.84403 0.09211 0.96524 0.0
H561 H 0.80094 0.16665 0.9715 0.0
H562 H 0.90663 0.12164 0.95504 0.0
H563 H 0.89232 0.11365 0.92219 0.0
H564 H 0.88737 0.09055 0.94975 0.0
H565 H 0.8548 0.21202 0.96267 0.0
H566 H 0.81937 0.20908 0.96037 0.0
H567 H 0.83918 0.20555 0.93019 0.0
C568 C 0.32492 0.09327 0.43826 0.0
C569 C 0.29814 0.09921 0.43552 0.0
C570 C 0.33854 0.08033 0.4169 0.0
C571 C 0.32504 0.07312 0.39221 0.0
C572 C 0.2978 0.0782 0.38963 0.0
C573 C 0.28466 0.09121 0.41132 0.0
C574 C 0.3676 0.07522 0.42043 0.0
C575 C 0.28273 0.07067 0.36365 0.0
C576 C 0.36612 0.06897 0.32804 0.0
C577 C 0.3695 0.04074 0.3246 0.0
C578 C 0.35145 0.07971 0.3498 0.0
C579 C 0.33981 0.06177 0.36857 0.0
C580 C 0.34283 0.03322 0.36504 0.0
C581 C 0.35768 0.02303 0.34309 0.0
C582 C 0.3487 0.1103 0.35291 0.0
C583 C 0.33063 0.0135 0.38462 0.0
H584 H 0.33548 0.09927 0.45692 0.0
H585 H 0.26394 0.09562 0.40907 0.0
H586 H 0.37174 0.05342 0.41585 0.0
H587 H 0.37897 0.0875 0.40577 0.0
H588 H 0.37483 0.08059 0.44144 0.0
H589 H 0.26129 0.07428 0.36558 0.0
H590 H 0.2904 0.08292 0.34665 0.0
H591 H 0.28556 0.04885 0.35794 0.0
H592 H 0.37515 0.08281 0.31385 0.0
H593 H 0.36015 0.00118 0.34055 0.0
H594 H 0.35738 0.11765 0.37275 0.0
H595 H 0.32757 0.1156 0.35301 0.0
H596 H 0.35855 0.1214 0.33626 0.0
H597 H 0.33886 0.01749 0.40548 0.0
H598 H 0.33416 0.99185 0.37856 0.0
H599 H 0.30908 0.01654 0.38572 0.0
C600 C 0.2035 0.04096 0.66633 0.0
C601 C 0.17747 0.03078 0.66607 0.0
C602 C 0.21483 0.0513 0.6426 0.0
C603 C 0.19976 0.05142 0.6181 0.0
C604 C 0.17377 0.04042 0.61754 0.0
C605 C 0.16295 0.03024 0.64151 0.0
C606 C 0.24264 0.0628 0.64394 0.0
C607 C 0.1571 0.04011 0.59179 0.0
C608 C 0.21543 0.10415 0.56513 0.0
C609 C 0.22861 0.08857 0.54524 0.0
C610 C 0.20635 0.09238 0.58913 0.0
C611 C 0.21055 0.06434 0.59339 0.0
C612 C 0.22415 0.04855 0.5736 0.0
C613 C 0.233 0.06086 0.54973 0.0
C614 C 0.19189 0.10988 0.60974 0.0
C615 C 0.22901 0.0186 0.57748 0.0
H616 H 0.21487 0.0414 0.6852 0.0
H617 H 0.14288 0.02229 0.64107 0.0
H618 H 0.2547 0.05315 0.62769 0.0
H619 H 0.24249 0.08504 0.64024 0.0
H620 H 0.25227 0.05965 0.66405 0.0
H621 H 0.13776 0.02955 0.5944 0.0
H622 H 0.15354 0.06137 0.5857 0.0
H623 H 0.1676 0.02978 0.57476 0.0
H624 H 0.21201 0.12559 0.56189 0.0
H625 H 0.24324 0.04868 0.53452 0.0
H626 H 0.20173 0.10917 0.63004 0.0
H627 H 0.1715 0.10178 0.61206 0.0
H628 H 0.19094 0.13154 0.60375 0.0
H629 H 0.23952 0.01575 0.59713 0.0
H630 H 0.24078 0.00944 0.56068 0.0
H631 H 0.20993 0.00724 0.57847 0.0
C632 C 0.16967 0.01438 0.85483 0.0
C633 C 0.18217 0.00946 0.82978 0.0
C634 C 0.18106 0.00639 0.87947 0.0
C635 C 0.20562 0.99327 0.87909 0.0
C636 C 0.21891 0.98933 0.85404 0.0
C637 C 0.207 -0.00258 0.82964 0.0
C638 C 0.16623 0.0109 0.90576 0.0
C639 C 0.24522 0.97556 0.85287 0.0
C640 C 0.24285 0.98594 0.94624 0.0
C641 C 0.23598 0.95906 0.95285 0.0
C642 C 0.23318 -0.00258 0.92224 0.0
C643 C 0.21626 0.98163 0.90454 0.0
C644 C 0.20914 0.95458 0.91121 0.0
C645 C 0.21908 0.94364 0.93525 0.0
C646 C 0.24115 0.02635 0.91576 0.0
C647 C 0.19103 0.93712 0.89292 0.0
H648 H 0.15053 0.02378 0.85518 0.0
H649 H 0.21686 0.99369 0.8104 0.0
H650 H 0.16003 0.99089 0.91389 0.0
H651 H 0.17916 0.02127 0.92144 0.0
H652 H 0.14842 0.02335 0.90288 0.0
H653 H 0.25405 0.97621 0.83223 0.0
H654 H 0.25919 0.98544 0.86788 0.0
H655 H 0.24277 0.95387 0.85846 0.0
H656 H 0.25592 -0.00202 0.9597 0.0
H657 H 0.21363 0.92286 0.94016 0.0
H658 H 0.22339 0.03902 0.91392 0.0
H659 H 0.25127 0.02663 0.89579 0.0
H660 H 0.25446 0.03591 0.93164 0.0
H661 H 0.17182 0.94722 0.8905 0.0
H662 H 0.1874 0.91647 0.90107 0.0
H663 H 0.19965 0.93477 0.87228 0.0
C664 C 0.3308 0.95659 0.07098 0.0
C665 C 0.30481 0.9463 0.07004 0.0
C666 C 0.34214 0.96684 0.09554 0.0
C667 C 0.32713 0.96682 0.11974 0.0
C668 C 0.30058 0.95747 0.11874 0.0
C669 C 0.28972 0.94732 0.09389 0.0
C670 C 0.37051 0.97674 0.09578 0.0
C671 C 0.28393 0.95725 0.14411 0.0
C672 C 0.36513 0.96283 0.18654 0.0
C673 C 0.36562 0.99017 0.19597 0.0
C674 C 0.35243 0.95497 0.1619 0.0
C675 C 0.33979 0.9749 0.14635 0.0
C676 C 0.33981 0.00244 0.15594 0.0
C677 C 0.35279 0.00978 0.18063 0.0
C678 C 0.35289 0.92538 0.15231 0.0
C679 C 0.32641 0.0242 0.13995 0.0
H680 H 0.34256 0.95602 0.05263 0.0
H681 H 0.26958 0.93952 0.09334 0.0
H682 H 0.37221 -0.0024 0.10517 0.0
H683 H 0.38257 0.96319 0.10841 0.0
H684 H 0.37892 0.97708 0.07493 0.0
H685 H 0.26309 0.95131 0.13952 0.0
H686 H 0.29205 0.94263 0.15872 0.0
H687 H 0.28445 0.97772 0.15447 0.0
H688 H 0.375 0.94754 0.19825 0.0
H689 H 0.35301 0.03093 0.1878 0.0
H690 H 0.36296 0.92365 0.13235 0.0
H691 H 0.33248 0.91729 0.14918 0.0
H692 H 0.36316 0.91234 0.16706 0.0
H693 H 0.33574 0.02597 0.11967 0.0
H694 H 0.32745 0.04452 0.15067 0.0
H695 H 0.3054 0.01843 0.13626 0.0
C696 C 0.33213 0.3223 0.061 0.0
C697 C 0.3264 0.32111 0.03288 0.0
C698 C 0.35655 0.31402 0.07106 0.0
C699 C 0.37566 0.30421 0.05258 0.0
C700 C 0.36983 0.30239 0.02425 0.0
C701 C 0.34525 0.3109 0.01472 0.0
C702 C 0.36208 0.31623 0.10144 0.0
C703 C 0.38969 0.29187 0.00397 0.0
C704 C 0.44707 0.30829 0.07634 0.0
C705 C 0.45107 0.28158 0.08479 0.0
C706 C 0.42268 0.31586 0.0655 0.0
C707 C 0.40189 0.29621 0.06296 0.0
C708 C 0.40594 0.26911 0.07101 0.0
C709 C 0.43047 0.26213 0.08187 0.0
C710 C 0.41903 0.345 0.05717 0.0
C711 C 0.38426 0.24758 0.06849 0.0
H712 H 0.31768 0.33017 0.07518 0.0
H713 H 0.34097 0.30988 0.99298 0.0
H714 H 0.36745 0.296 0.10917 0.0
H715 H 0.3791 0.33036 0.10558 0.0
H716 H 0.34492 0.32379 0.11311 0.0
H717 H 0.38179 0.29096 0.98271 0.0
H718 H 0.40757 0.30529 0.00469 0.0
H719 H 0.3959 0.27112 0.00944 0.0
H720 H 0.46287 0.32343 0.07853 0.0
H721 H 0.43342 0.2414 0.08825 0.0
H722 H 0.4033 0.3545 0.06958 0.0
H723 H 0.41262 0.34541 0.03546 0.0
H724 H 0.43735 0.35762 0.05983 0.0
H725 H 0.36738 0.25364 0.08136 0.0
H726 H 0.39089 0.22721 0.07481 0.0
H727 H 0.37696 0.24577 0.04706 0.0
C728 C 0.96601 0.84171 0.18235 0.0
C729 C 0.95136 0.81759 0.17653 0.0
C730 C 0.95515 0.86341 0.19748 0.0
C731 C 0.92902 0.86091 0.20701 0.0
C732 C 0.91452 0.83622 0.20218 0.0
C733 C 0.92587 0.81484 0.187 0.0
C734 C 0.97124 0.8894 0.20231 0.0
C735 C 0.88662 0.83277 0.21209 0.0
C736 C 0.90402 0.91159 0.26057 0.0
C737 C 0.89005 0.92959 0.24433 0.0
C738 C 0.91707 0.88923 0.24874 0.0
C739 C 0.91609 0.88485 0.22003 0.0
C740 C 0.90232 0.90315 0.20353 0.0
C741 C 0.88949 0.92527 0.21586 0.0
C742 C 0.9316 0.87011 0.26693 0.0
C743 C 0.90085 0.89918 0.17281 0.0
H744 H 0.98579 0.84395 0.17448 0.0
H745 H 0.91446 0.79623 0.18274 0.0
H746 H 0.96228 0.90618 0.1909 0.0
H747 H 0.97126 0.89558 0.22429 0.0
H748 H 0.99196 0.88724 0.19562 0.0
H749 H 0.8788 0.8116 0.20855 0.0
H750 H 0.88559 0.83806 0.23424 0.0
H751 H 0.87362 0.84695 0.20128 0.0
H752 H 0.90453 0.91477 0.28258 0.0
H753 H 0.87877 0.93907 0.20313 0.0
H754 H 0.95245 0.86874 0.26058 0.0
H755 H 0.92274 0.84926 0.2648 0.0
H756 H 0.93111 0.8768 0.2888 0.0
H757 H 0.92099 0.89885 0.16425 0.0
H758 H 0.88971 0.91554 0.16289 0.0
H759 H 0.89118 0.87921 0.16738 0.0
C760 C 0.15124 0.62926 0.51985 0.0
C761 C 0.17786 0.63745 0.52127 0.0
C762 C 0.13232 0.64284 0.53555 0.0
C763 C 0.14021 0.66525 0.55286 0.0
C764 C 0.16682 0.67442 0.5534 0.0
C765 C 0.18536 0.66033 0.53767 0.0
C766 C 0.10412 0.63243 0.53454 0.0
C767 C 0.1759 0.69846 0.57138 0.0
C768 C 0.08777 0.71165 0.58199 0.0
C769 C 0.08493 0.70165 0.60839 0.0
C770 C 0.10575 0.70007 0.56364 0.0
C771 C 0.12105 0.67786 0.57186 0.0
C772 C 0.11818 0.66761 0.59842 0.0
C773 C 0.10023 0.67971 0.61639 0.0
C774 C 0.10847 0.71163 0.53554 0.0
C775 C 0.13404 0.64382 0.60785 0.0
H776 H 0.14529 0.61161 0.50722 0.0
H777 H 0.20587 0.6669 0.5387 0.0
H778 H 0.09876 0.62418 0.55465 0.0
H779 H 0.09059 0.64937 0.53047 0.0
H780 H 0.10084 0.61606 0.51859 0.0
H781 H 0.19676 0.70444 0.56768 0.0
H782 H 0.16336 0.71632 0.56786 0.0
H783 H 0.17392 0.69325 0.59317 0.0
H784 H 0.07606 0.72866 0.57569 0.0
H785 H 0.09808 0.6718 0.63671 0.0
H786 H 0.104 0.6955 0.51969 0.0
H787 H 0.12908 0.71874 0.53244 0.0
H788 H 0.09517 0.729 0.53235 0.0
H789 H 0.13036 0.62577 0.59399 0.0
H790 H 0.12921 0.63809 0.62903 0.0
H791 H 0.15538 0.64898 0.60701 0.0
C792 C 0.00286 0.68318 0.73403 0.0
C793 C 0.00031 0.68757 0.70595 0.0
C794 C 0.98996 0.66096 0.74599 0.0
C795 C 0.97419 0.64277 0.72944 0.0
C796 C 0.97183 0.64692 0.70106 0.0
C797 C 0.98489 0.66924 0.68968 0.0
C798 C 0.9929 0.65711 0.77634 0.0
C799 C 0.95521 0.62795 0.68271 0.0
C800 C 0.95574 0.57142 0.75171 0.0
C801 C 0.92949 0.57472 0.75961 0.0
C802 C 0.9709 0.59364 0.74277 0.0
C803 C 0.9595 0.61972 0.7417 0.0
C804 C 0.93331 0.62336 0.75048 0.0
C805 C 0.91862 0.60081 0.75934 0.0
C806 C -0.0012 0.58902 0.73361 0.0
C807 C 0.92048 0.65088 0.74962 0.0
H808 H 0.01475 0.69724 0.74673 0.0
H809 H 0.98284 0.6724 0.66794 0.0
H810 H 0.9734 0.65857 0.78622 0.0
H811 H 0.00039 0.63645 0.78023 0.0
H812 H 0.00652 0.67257 0.78621 0.0
H813 H 0.95591 0.63369 0.66095 0.0
H814 H 0.96203 0.60667 0.68425 0.0
H815 H 0.9344 0.62819 0.68941 0.0
H816 H 0.96433 0.55135 0.752 0.0
H817 H 0.89841 0.60359 0.76555 0.0
H818 H 0.0125 0.60391 0.74414 0.0
H819 H 0.00024 0.59236 0.71136 0.0
H820 H 0.0054 0.56803 0.73769 0.0
H821 H 0.93295 0.66662 0.76056 0.0
H822 H 0.90061 0.65068 0.75891 0.0
H823 H 0.91854 0.65713 0.7281 0.0
C824 C 0.17124 0.19235 0.44171 0.0
C825 C 0.16916 0.16553 0.4509 0.0
C826 C 0.1498 0.20472 0.42908 0.0
C827 C 0.12571 0.18992 0.42557 0.0
C828 C 0.12337 0.16299 0.43512 0.0
C829 C 0.14512 0.15112 0.44766 0.0
C830 C 0.15303 0.23348 0.41914 0.0
C831 C 0.09797 0.14659 0.43177 0.0
C832 C 0.06264 0.22805 0.41225 0.0
C833 C 0.05944 0.22406 0.3839 0.0
C834 C 0.08428 0.2173 0.42608 0.0
C835 C 0.10315 0.20227 0.41118 0.0
C836 C 0.10025 0.19854 0.38252 0.0
C837 C 0.07843 0.20946 0.36924 0.0
C838 C 0.08675 0.2217 0.45667 0.0
C839 C 0.12002 0.18269 0.36593 0.0
H840 H 0.18972 0.20367 0.44417 0.0
H841 H 0.14331 0.13042 0.45475 0.0
H842 H 0.15004 0.23355 0.39665 0.0
H843 H 0.13788 0.24676 0.42839 0.0
H844 H 0.17281 0.24249 0.42415 0.0
H845 H 0.09914 0.1262 0.44102 0.0
H846 H 0.08156 0.15784 0.44138 0.0
H847 H 0.09301 0.14364 0.40974 0.0
H848 H 0.04807 0.23931 0.42373 0.0
H849 H 0.07616 0.20632 0.34732 0.0
H850 H 0.10598 0.23173 0.46201 0.0
H851 H 0.0862 0.2017 0.46674 0.0
H852 H 0.07076 0.23445 0.46514 0.0
H853 H 0.14001 0.19188 0.36904 0.0
H854 H 0.11524 0.1822 0.34372 0.0
H855 H 0.12069 0.16137 0.37291 0.0
C856 C 0.58534 0.39862 0.26233 0.0
C857 C 0.59024 0.42162 0.2466 0.0
C858 C 0.57112 0.37588 0.25139 0.0
C859 C 0.56157 0.37624 0.22414 0.0
C860 C 0.56565 0.39976 0.20851 0.0
C861 C 0.57996 0.42215 0.21992 0.0
C862 C 0.56712 0.35113 0.26865 0.0
C863 C 0.55567 0.40096 0.1794 0.0
C864 C 0.55255 0.30998 0.18292 0.0
C865 C 0.52509 0.30626 0.18279 0.0
C866 C 0.56467 0.33228 0.19695 0.0
C867 C 0.54896 0.35139 0.21118 0.0
C868 C 0.52128 0.34742 0.21177 0.0
C869 C 0.50965 0.32484 0.19756 0.0
C870 C 0.59428 0.33575 0.19594 0.0
C871 C 0.50393 0.3674 0.22676 0.0
H872 H 0.59313 0.39808 0.28299 0.0
H873 H 0.58348 0.43991 0.20768 0.0
H874 H 0.546 0.3449 0.26875 0.0
H875 H 0.57812 0.33372 0.25976 0.0
H876 H 0.57395 0.35489 0.29009 0.0
H877 H 0.559 0.4214 0.17065 0.0
H878 H 0.56582 0.38556 0.16644 0.0
H879 H 0.53429 0.39588 0.17836 0.0
H880 H 0.56467 0.29564 0.1717 0.0
H881 H 0.48842 0.32209 0.1976 0.0
H882 H 0.60264 0.33774 0.21694 0.0
H883 H 0.59949 0.3548 0.18534 0.0
H884 H 0.60374 0.31835 0.18509 0.0
H885 H 0.51079 0.37044 0.24824 0.0
H886 H 0.48296 0.36048 0.22671 0.0
H887 H 0.50523 0.38756 0.21706 0.0
C888 C 0.3227 0.8398 0.97225 0.0
C889 C 0.32123 0.86772 0.96699 0.0
C890 C 0.34254 0.82379 0.96059 0.0
C891 C 0.36145 0.83611 0.94356 0.0
C892 C 0.36045 0.86443 0.93879 0.0
C893 C 0.34027 0.87985 0.95044 0.0
C894 C 0.34288 0.79359 0.96592 0.0
C895 C 0.38041 0.87836 0.92094 0.0
C896 C 0.42579 0.80126 0.92705 0.0
C897 C 0.42074 0.79109 0.90038 0.0
C898 C 0.40645 0.81544 0.94169 0.0
C899 C 0.38147 0.81927 0.92942 0.0
C900 C 0.37602 0.80829 0.90285 0.0
C901 C 0.39575 0.79445 0.88863 0.0
C902 C 0.41299 0.82704 0.96993 0.0
C903 C 0.34955 0.81175 0.88916 0.0
H904 H 0.30803 0.83031 0.98502 0.0
H905 H 0.33941 0.90147 0.94648 0.0
H906 H 0.3395 0.78177 0.94646 0.0
H907 H 0.36245 0.78791 0.97398 0.0
H908 H 0.32757 0.78741 0.98069 0.0
H909 H 0.37776 0.90081 0.92055 0.0
H910 H 0.40066 0.8744 0.92832 0.0
H911 H 0.37868 0.86989 0.89971 0.0
H912 H 0.44506 0.79874 0.93625 0.0
H913 H 0.39161 0.78644 0.86811 0.0
H914 H 0.39806 0.82014 0.98474 0.0
H915 H 0.41247 0.84967 0.96984 0.0
H916 H 0.43276 0.82095 0.97718 0.0
H917 H 0.33355 0.80438 0.90251 0.0
H918 H 0.34795 0.80053 0.86913 0.0
H919 H 0.34626 0.83373 0.88582 0.0
C920 C 0.9506 0.40014 0.76573 0.0
C921 C 0.94391 0.42211 0.78316 0.0
C922 C 0.96213 0.37672 0.77607 0.0
C923 C 0.96716 0.37534 0.80449 0.0
C924 C 0.96117 0.39777 0.82206 0.0
C925 C 0.94959 0.42087 0.8112 0.0
C926 C 0.96825 0.35316 0.75673 0.0
C927 C 0.96639 0.39711 0.85247 0.0
C928 C 0.96956 0.30654 0.83782 0.0
C929 C -0.00328 0.30336 0.84163 0.0
C930 C 0.95973 0.32958 0.82514 0.0
C931 C 0.97749 0.34998 0.81614 0.0
C932 C 0.00495 0.34663 0.81937 0.0
C933 C 0.01426 0.32331 0.83205 0.0
C934 C 0.9303 0.33237 0.82192 0.0
C935 C 0.02446 0.36799 0.81006 0.0
H936 H 0.94631 0.40095 0.74404 0.0
H937 H 0.94462 0.43781 0.8248 0.0
H938 H 0.98914 0.3474 0.75908 0.0
H939 H 0.95596 0.33504 0.76176 0.0
H940 H 0.96451 0.35805 0.73503 0.0
H941 H 0.96183 0.41678 0.86312 0.0
H942 H 0.95424 0.38065 0.86145 0.0
H943 H 0.98733 0.39243 0.85649 0.0
H944 H 0.95587 0.29115 0.84502 0.0
H945 H 0.03528 0.32099 0.83488 0.0
H946 H 0.92511 0.3356 0.8002 0.0
H947 H 0.92372 0.35051 0.83391 0.0
H948 H 0.91922 0.3141 0.82887 0.0
H949 H 0.02105 0.37219 0.78817 0.0
H950 H 0.04519 0.36169 0.81282 0.0
H951 H 0.02165 0.38743 0.82179 0.0
C952 C 0.3072 0.20573 0.55299 0.0
C953 C 0.3003 0.20049 0.5255 0.0
C954 C 0.33087 0.21949 0.56022 0.0
C955 C 0.34795 0.22837 0.53944 0.0
C956 C 0.34052 0.22429 0.51166 0.0
C957 C 0.31681 0.21032 0.50501 0.0
C958 C 0.33815 0.22343 0.59009 0.0
C959 C 0.35811 0.23369 0.48896 0.0
C960 C 0.40284 0.27828 0.56173 0.0
C961 C 0.42382 0.26057 0.56578 0.0
C962 C 0.37817 0.26825 0.5523 0.0
C963 C 0.37445 0.23988 0.54687 0.0
C964 C 0.39583 0.22208 0.54989 0.0
C965 C 0.42024 0.23265 0.55925 0.0
C966 C 0.35587 0.28785 0.54907 0.0
C967 C 0.39266 0.19169 0.54423 0.0
H968 H 0.29454 0.19829 0.56895 0.0
H969 H 0.31154 0.20651 0.4837 0.0
H970 H 0.35577 0.2113 0.59477 0.0
H971 H 0.34332 0.24518 0.59485 0.0
H972 H 0.32194 0.21702 0.60372 0.0
H973 H 0.34833 0.23141 0.46858 0.0
H974 H 0.36414 0.25542 0.4925 0.0
H975 H 0.37631 0.22155 0.48867 0.0
H976 H 0.40544 0.29989 0.56667 0.0
H977 H 0.43636 0.21882 0.56218 0.0
H978 H 0.34046 0.28355 0.56436 0.0
H979 H 0.34657 0.28501 0.52855 0.0
H980 H 0.36253 0.3095 0.55187 0.0
H981 H 0.37831 0.18292 0.55868 0.0
H982 H 0.41154 0.18085 0.54632 0.0
H983 H 0.3847 0.18766 0.52328 0.0
C984 C 0.55454 0.66311 0.35957 0.0
C985 C 0.52774 0.66806 0.35512 0.0
C986 C 0.56644 0.64015 0.34769 0.0
C987 C 0.55121 0.62174 0.33089 0.0
C988 C 0.52432 0.62693 0.32577 0.0
C989 C 0.51288 0.65005 0.33797 0.0
C990 C 0.59521 0.63531 0.35358 0.0
C991 C 0.50752 0.60778 0.30784 0.0
C992 C 0.58871 0.57374 0.28393 0.0
C993 C 0.58901 0.54985 0.29905 0.0
C994 C 0.57601 0.59715 0.29378 0.0
C995 C 0.56334 0.59665 0.31936 0.0
C996 C 0.56313 0.57246 0.33449 0.0
C997 C 0.57596 0.54933 0.32414 0.0
C998 C 0.57658 0.62258 0.27707 0.0
C999 C 0.54981 0.57118 0.36187 0.0
H1000 H 0.5662 0.67695 0.37274 0.0
H1001 H 0.49218 0.65376 0.33438 0.0
H1002 H 0.59732 0.61583 0.36432 0.0
H1003 H 0.6062 0.63336 0.33417 0.0
H1004 H 0.60448 0.65204 0.36639 0.0
H1005 H 0.48722 0.61533 0.30497 0.0
H1006 H 0.51666 0.60499 0.2875 0.0
H1007 H 0.50627 0.58738 0.31708 0.0
H1008 H 0.59868 0.5743 0.26448 0.0
H1009 H 0.57605 0.53095 0.33592 0.0
H1010 H 0.58736 0.63929 0.28851 0.0
H1011 H 0.55625 0.6296 0.27341 0.0
H1012 H 0.58624 0.61923 0.25702 0.0
H1013 H 0.55944 0.58606 0.37652 0.0
H1014 H 0.55059 0.55052 0.37058 0.0
H1015 H 0.52888 0.57696 0.35989 0.0
C1016 C 0.09533 0.81049 0.11827 0.0
C1017 C 0.07272 0.80479 0.10223 0.0
C1018 C 0.11762 0.82326 0.10723 0.0
C1019 C 0.1173 0.83047 0.07945 0.0
C1020 C 0.09473 0.82435 0.063 0.0
C1021 C 0.07269 0.8116 0.07459 0.0
C1022 C 0.14133 0.82946 0.12542 0.0
C1023 C 0.09371 0.83169 0.03327 0.0
C1024 C 0.16336 0.88809 0.05889 0.0
C1025 C 0.18421 0.87376 0.04706 0.0
C1026 C 0.14142 0.87422 0.06935 0.0
C1027 C 0.14026 0.84532 0.06792 0.0
C1028 C 0.16115 0.83071 0.05588 0.0
C1029 C 0.18292 0.84511 0.04561 0.0
C1030 C 0.11955 0.89052 0.08212 0.0
C1031 C 0.16056 0.79987 0.05396 0.0
H1032 H 0.09558 0.80525 0.13963 0.0
H1033 H 0.05533 0.80719 0.06203 0.0
H1034 H 0.15912 0.8202 0.1164 0.0
H1035 H 0.14502 0.85186 0.127 0.0
H1036 H 0.13875 0.8217 0.14634 0.0
H1037 H 0.07509 0.82459 0.02301 0.0
H1038 H 0.09559 0.85417 0.03152 0.0
H1039 H 0.1105 0.82256 0.02222 0.0
H1040 H 0.16418 0.91022 0.0601 0.0
H1041 H 0.19892 0.83389 0.03646 0.0
H1042 H 0.11715 0.88498 0.10377 0.0
H1043 H 0.10062 0.88555 0.0714 0.0
H1044 H 0.12334 0.9129 0.08138 0.0
H1045 H 0.1595 0.79149 0.07473 0.0
H1046 H 0.17817 0.79159 0.04361 0.0
H1047 H 0.14268 0.79246 0.04256 0.0
C1048 C 0.74023 0.9623 0.57271 0.0
C1049 C 0.74827 0.93554 0.5771 0.0
C1050 C 0.72629 0.97689 0.59279 0.0
C1051 C 0.72043 0.96439 0.61778 0.0
C1052 C 0.72994 0.93807 0.62293 0.0
C1053 C 0.7437 0.92395 0.60251 0.0
C1054 C 0.71654 0.00499 0.58666 0.0
C1055 C 0.72431 0.92415 0.64943 0.0
C1056 C 0.69443 0.00364 0.67946 0.0
C1057 C 0.66754 -0.0035 0.67802 0.0
C1058 C 0.71188 0.99422 0.65939 0.0
C1059 C 0.70211 0.97738 0.63742 0.0
C1060 C 0.67484 0.97105 0.6353 0.0
C1061 C 0.65789 0.98065 0.65565 0.0
C1062 C 0.74085 0.00136 0.66228 0.0
C1063 C 0.66365 0.95326 0.61206 0.0
H1064 H 0.74377 0.97142 0.55315 0.0
H1065 H 0.75015 0.9034 0.60618 0.0
H1066 H 0.69484 0.00404 0.5837 0.0
H1067 H 0.72085 0.01946 0.60407 0.0
H1068 H 0.72555 0.01319 0.56794 0.0
H1069 H 0.7352 0.90483 0.65125 0.0
H1070 H 0.72967 0.9379 0.66713 0.0
H1071 H 0.70291 0.91938 0.65072 0.0
H1072 H 0.70201 0.01596 0.69666 0.0
H1073 H 0.63711 0.97524 0.65426 0.0
H1074 H 0.74856 0.00925 0.64286 0.0
H1075 H 0.75192 0.98271 0.66683 0.0
H1076 H 0.74488 0.01687 0.67891 0.0
H1077 H 0.66977 0.96142 0.59215 0.0
H1078 H 0.64179 0.95181 0.61239 0.0
H1079 H 0.6715 0.93235 0.6133 0.0
C1080 C 0.80047 0.9712 0.34182 0.0
C1081 C 0.8003 0.9529 0.31921 0.0
C1082 C 0.79269 0.96266 0.36765 0.0
C1083 C 0.78462 0.93515 0.37093 0.0
C1084 C 0.78373 0.91675 0.34807 0.0
C1085 C 0.79156 0.92586 0.32245 0.0
C1086 C 0.79376 0.98289 0.39156 0.0
C1087 C 0.77521 0.88725 0.35083 0.0
C1088 C 0.79222 0.905 0.44093 0.0
C1089 C 0.76627 0.90527 0.45045 0.0
C1090 C 0.79845 0.91483 0.41514 0.0
C1091 C 0.77827 0.92528 0.39852 0.0
C1092 C 0.75211 0.926 0.40814 0.0
C1093 C 0.7464 0.91595 0.434 0.0
C1094 C 0.8266 0.91375 0.40555 0.0
C1095 C 0.73012 0.93714 0.391 0.0
H1096 H 0.80711 0.99217 0.33948 0.0
H1097 H 0.79133 0.91161 0.30507 0.0
H1098 H 0.77442 0.98341 0.40187 0.0
H1099 H 0.80851 0.97642 0.40681 0.0
H1100 H 0.7991 0.00388 0.38528 0.0
H1101 H 0.77444 0.8759 0.33084 0.0
H1102 H 0.78912 0.87693 0.36455 0.0
H1103 H 0.75546 0.886 0.36026 0.0
H1104 H 0.80768 0.89679 0.4535 0.0
H1105 H 0.72631 0.91628 0.44123 0.0
H1106 H 0.83382 0.93453 0.40061 0.0
H1107 H 0.82765 0.90089 0.38656 0.0
H1108 H 0.84002 0.90531 0.4211 0.0
H1109 H 0.73493 0.95847 0.38551 0.0
H1110 H 0.71095 0.93684 0.40173 0.0
H1111 H 0.72795 0.92493 0.37163 0.0
C1112 C 0.77027 0.04613 0.0685 0.0
C1113 C 0.7437 0.04798 0.06083 0.0
C1114 C 0.77759 0.03359 0.09268 0.0
C1115 C 0.75786 0.02261 0.10962 0.0
C1116 C 0.73107 0.02347 0.10154 0.0
C1117 C 0.72428 0.03617 0.07719 0.0
C1118 C 0.80642 0.03297 0.10055 0.0
C1119 C 0.70954 0.01184 0.11907 0.0
C1120 C 0.78406 0.97588 0.16342 0.0
C1121 C 0.78813 0.99434 0.18561 0.0
C1122 C 0.7728 0.9844 0.13887 0.0
C1123 C 0.76545 0.01196 0.13659 0.0
C1124 C 0.76797 0.03019 0.15948 0.0
C1125 C 0.77928 0.02116 0.18372 0.0
C1126 C 0.77022 0.96433 0.11494 0.0
C1127 C 0.76018 0.05971 0.15789 0.0
H1128 H 0.78542 0.05503 0.05588 0.0
H1129 H 0.70371 0.03744 0.07135 0.0
H1130 H 0.80995 0.04538 0.11962 0.0
H1131 H 0.81221 0.01176 0.10468 0.0
H1132 H 0.81937 0.04107 0.0844 0.0
H1133 H 0.68998 0.01183 0.1087 0.0
H1134 H 0.71406 0.99062 0.12457 0.0
H1135 H 0.70837 0.02411 0.13843 0.0
H1136 H 0.79069 0.95507 0.16476 0.0
H1137 H 0.78209 0.03547 0.20087 0.0
H1138 H 0.78489 0.96967 0.09923 0.0
H1139 H 0.75042 0.96539 0.10529 0.0
H1140 H 0.77353 0.94299 0.12103 0.0
H1141 H 0.77367 0.07052 0.14395 0.0
H1142 H 0.76098 0.07049 0.17818 0.0
H1143 H 0.73995 0.06112 0.14935 0.0
C1144 C 0.67587 0.994 0.80978 0.0
C1145 C 0.65347 0.0074 0.80052 0.0
C1146 C 0.69049 0.00435 0.83241 0.0
C1147 C 0.68243 0.0286 0.84607 0.0
C1148 C 0.65956 0.04191 0.83714 0.0
C1149 C 0.64538 0.03117 0.81446 0.0
C1150 C 0.7148 0.98965 0.84142 0.0
C1151 C 0.65029 0.06776 0.85128 0.0
C1152 C 0.70527 0.0472 0.9183 0.0
C1153 C 0.72433 0.06766 0.91372 0.0
C1154 C 0.69207 0.03361 0.89641 0.0
C1155 C 0.69814 0.0406 0.86933 0.0
C1156 C 0.71805 0.06048 0.86454 0.0
C1157 C 0.73089 0.07381 0.88681 0.0
C1158 C 0.67094 0.01251 0.90228 0.0
C1159 C 0.72514 0.06835 0.8359 0.0
H1160 H 0.68224 0.97563 0.79911 0.0
H1161 H 0.62805 0.04161 0.8075 0.0
H1162 H 0.73241 0.0032 0.83944 0.0
H1163 H 0.7133 0.98455 0.86329 0.0
H1164 H 0.71788 0.97053 0.82921 0.0
H1165 H 0.63169 0.07516 0.84224 0.0
H1166 H 0.6471 0.06423 0.87329 0.0
H1167 H 0.66563 0.08411 0.84992 0.0
H1168 H 0.70015 0.04226 0.93904 0.0
H1169 H 0.74571 0.08946 0.88309 0.0
H1170 H 0.6745 0.99325 0.89053 0.0
H1171 H 0.65148 0.01998 0.89563 0.0
H1172 H 0.66996 0.00795 0.92435 0.0
H1173 H 0.72971 0.0499 0.82329 0.0
H1174 H 0.74233 0.08275 0.83561 0.0
H1175 H 0.7081 0.07816 0.82611 0.0
C1176 C 0.5853 0.71113 0.88231 0.0
C1177 C 0.56375 0.72177 0.89647 0.0
C1178 C 0.60688 0.70063 0.89635 0.0
C1179 C 0.6069 0.70069 0.92526 0.0
C1180 C 0.58545 0.71187 0.93972 0.0
C1181 C 0.56413 0.72232 0.92514 0.0
C1182 C 0.62944 0.68895 0.88021 0.0
C1183 C 0.58479 0.71224 0.97055 0.0
C1184 C 0.64879 0.64738 0.95838 0.0
C1185 C 0.67147 0.66264 0.96613 0.0
C1186 C 0.62746 0.65965 0.94553 0.0
C1187 C 0.62884 0.68788 0.94022 0.0
C1188 C 0.65149 0.70353 0.94834 0.0
C1189 C 0.67256 0.69072 0.96123 0.0
C1190 C 0.60362 0.64228 0.93722 0.0
C1191 C 0.65365 0.73369 0.94297 0.0
H1192 H 0.58525 0.71074 0.86017 0.0
H1193 H 0.54757 0.73055 0.93624 0.0
H1194 H 0.64829 0.69897 0.88692 0.0
H1195 H 0.63104 0.66683 0.88405 0.0
H1196 H 0.62693 0.69154 0.85787 0.0
H1197 H 0.56726 0.7228 0.97875 0.0
H1198 H 0.58455 0.691 0.97783 0.0
H1199 H 0.60279 0.7226 0.97916 0.0
H1200 H 0.64773 0.6257 0.96217 0.0
H1201 H 0.69 0.70267 0.96718 0.0
H1202 H 0.60101 0.6422 0.91468 0.0
H1203 H 0.58561 0.65102 0.9463 0.0
H1204 H 0.60527 0.62083 0.94368 0.0
H1205 H 0.65297 0.73689 0.92064 0.0
H1206 H 0.67215 0.74316 0.95148 0.0
H1207 H 0.63668 0.74447 0.95204 0.0
C1208 C 0.10294 0.09153 0.76625 0.0
C1209 C 0.09058 0.06628 0.75969 0.0
C1210 C 0.08857 0.11352 0.77671 0.0
C1211 C 0.06117 0.11016 0.7808 0.0
C1212 C 0.04833 0.08514 0.77306 0.0
C1213 C 0.06321 0.06346 0.76254 0.0
C1214 C 0.10295 0.13995 0.78458 0.0
C1215 C 0.01912 0.08085 0.77709 0.0
C1216 C 0.03417 0.1541 0.83846 0.0
C1217 C 0.02298 0.17557 0.82433 0.0
C1218 C 0.04593 0.13229 0.82442 0.0
C1219 C 0.04661 0.13196 0.79553 0.0
C1220 C 0.03476 0.15317 0.78106 0.0
C1221 C 0.02303 0.17476 0.79566 0.0
C1222 C 0.05826 0.10996 0.84059 0.0
C1223 C 0.03516 0.15346 0.75024 0.0
H1224 H 0.12405 0.09398 0.76387 0.0
H1225 H 0.05349 0.04404 0.75742 0.0
H1226 H 0.09297 0.15749 0.77546 0.0
H1227 H 0.10262 0.14316 0.80711 0.0
H1228 H 0.1238 0.14004 0.77793 0.0
H1229 H 0.01169 0.06134 0.76743 0.0
H1230 H 0.01488 0.0806 0.79927 0.0
H1231 H 0.00804 0.09794 0.76846 0.0
H1232 H 0.03406 0.15445 0.86061 0.0
H1233 H 0.01437 0.19126 0.78461 0.0
H1234 H 0.07982 0.10989 0.83712 0.0
H1235 H 0.05018 0.0897 0.83359 0.0
H1236 H 0.05484 0.11254 0.86289 0.0
H1237 H 0.05576 0.15579 0.74323 0.0
H1238 H 0.02347 0.17035 0.74202 0.0
H1239 H 0.02727 0.13378 0.74143 0.0
C1240 C 0.90352 0.25238 0.43027 0.0
C1241 C 0.92152 0.26909 0.4166 0.0
C1242 C 0.88116 0.26343 0.44274 0.0
C1243 C 0.87672 0.2918 0.44139 0.0
C1244 C 0.89518 0.30884 0.42824 0.0
C1245 C 0.91735 0.2973 0.41607 0.0
C1246 C 0.86196 0.24468 0.45675 0.0
C1247 C 0.89116 0.33921 0.42637 0.0
C1248 C 0.80794 0.32022 0.44546 0.0
C1249 C 0.80814 0.33239 0.47176 0.0
C1250 C 0.82979 0.30599 0.4357 0.0
C1251 C 0.85232 0.30376 0.4527 0.0
C1252 C 0.85221 0.31493 0.47969 0.0
C1253 C 0.83013 0.32917 0.48889 0.0
C1254 C 0.82917 0.29436 0.40677 0.0
C1255 C 0.8758 0.31279 0.49847 0.0
H1256 H 0.90661 0.23057 0.43081 0.0
H1257 H 0.93117 0.31041 0.40563 0.0
H1258 H 0.85841 0.25235 0.47792 0.0
H1259 H 0.84275 0.24436 0.44574 0.0
H1260 H 0.86909 0.22342 0.45752 0.0
H1261 H 0.90781 0.34974 0.41622 0.0
H1262 H 0.8728 0.34293 0.41468 0.0
H1263 H 0.88884 0.34858 0.4471 0.0
H1264 H 0.79101 0.3225 0.43212 0.0
H1265 H 0.83039 0.33835 0.50932 0.0
H1266 H 0.83461 0.27253 0.40647 0.0
H1267 H 0.84389 0.30539 0.39436 0.0
H1268 H 0.8095 0.29607 0.3969 0.0
H1269 H 0.88222 0.29131 0.49915 0.0
H1270 H 0.87166 0.32024 0.51962 0.0
H1271 H 0.8925 0.32505 0.49052 0.0
C1272 C 0.54948 0.91754 0.74607 0.0
C1273 C 0.57669 0.91851 0.74154 0.0
C1274 C 0.53725 0.89409 0.75638 0.0
C1275 C 0.55274 0.87141 0.76285 0.0
C1276 C 0.58007 0.87199 0.75751 0.0
C1277 C 0.59167 0.89543 0.74665 0.0
C1278 C 0.50794 0.89395 0.76122 0.0
C1279 C 0.59734 0.8484 0.76458 0.0
C1280 C 0.5298 0.82659 0.82005 0.0
C1281 C 0.52107 0.80288 0.80566 0.0
C1282 C 0.53998 0.84907 0.80629 0.0
C1283 C 0.54092 0.84804 0.77739 0.0
C1284 C 0.53153 0.82442 0.76268 0.0
C1285 C 0.52199 0.80193 0.77704 0.0
C1286 C 0.5503 0.87368 0.82274 0.0
C1287 C 0.5317 0.82287 0.73184 0.0
H1288 H 0.53779 0.93525 0.74191 0.0
H1289 H 0.61273 0.89608 0.74327 0.0
H1290 H 0.4986 0.87498 0.75233 0.0
H1291 H 0.50415 0.89428 0.7835 0.0
H1292 H 0.49831 0.91183 0.75226 0.0
H1293 H 0.61795 0.85144 0.75771 0.0
H1294 H 0.59757 0.84594 0.78704 0.0
H1295 H 0.58933 0.82907 0.75513 0.0
H1296 H 0.52926 0.82736 0.84219 0.0
H1297 H 0.51504 0.7837 0.76586 0.0
H1298 H 0.53968 0.89219 0.81683 0.0
H1299 H 0.57146 0.87727 0.81833 0.0
H1300 H 0.54814 0.87119 0.84509 0.0
H1301 H 0.52119 0.8405 0.72352 0.0
H1302 H 0.52229 0.80369 0.72346 0.0
H1303 H 0.55226 0.82409 0.72447 0.0
C1304 C 0.95374 0.17524 0.31729 0.0
C1305 C 0.93727 0.19754 0.32187 0.0
C1306 C 0.94326 0.14933 0.30987 0.0
C1307 C 0.91565 0.14561 0.30714 0.0
C1308 C 0.89897 0.16822 0.31081 0.0
C1309 C 0.91 0.19396 0.31804 0.0
C1310 C 0.96168 0.12576 0.30583 0.0
C1311 C 0.86941 0.16501 0.30811 0.0
C1312 C 0.88732 0.08211 0.27035 0.0
C1313 C 0.88068 0.06564 0.29233 0.0
C1314 C 0.89904 0.10807 0.27482 0.0
C1315 C 0.90409 0.11782 0.3019 0.0
C1316 C 0.89773 0.10118 0.32414 0.0
C1317 C 0.88618 0.07524 0.31908 0.0
C1318 C 0.90576 0.12518 0.2506 0.0
C1319 C 0.90278 0.11093 0.35333 0.0
H1320 H 0.97486 0.17789 0.32004 0.0
H1321 H 0.89714 0.21107 0.32155 0.0
H1322 H 0.95824 0.1106 0.32187 0.0
H1323 H 0.95772 0.1152 0.2858 0.0
H1324 H 0.98271 0.13245 0.30676 0.0
H1325 H 0.85931 0.18486 0.31016 0.0
H1326 H 0.86399 0.15529 0.28802 0.0
H1327 H 0.86193 0.15137 0.32411 0.0
H1328 H 0.88321 0.0748 0.24959 0.0
H1329 H 0.88108 0.06268 0.33617 0.0
H1330 H 0.92697 0.13108 0.25125 0.0
H1331 H 0.89447 0.14434 0.25147 0.0
H1332 H 0.90132 0.11427 0.23081 0.0
H1333 H 0.92398 0.11616 0.35644 0.0
H1334 H 0.89696 0.09537 0.3683 0.0
H1335 H 0.89162 0.12978 0.35771 0.0
C1336 C 0.59162 0.10517 0.71095 0.0
C1337 C 0.57687 0.08107 0.71465 0.0
C1338 C 0.5796 0.1289 0.70223 0.0
C1339 C 0.55208 0.12864 0.69737 0.0
C1340 C 0.53693 0.1046 0.7017 0.0
C1341 C 0.54955 0.08099 0.71014 0.0
C1342 C 0.59646 0.15408 0.69756 0.0
C1343 C 0.50749 0.10373 0.69701 0.0
C1344 C 0.52117 0.19835 0.69393 0.0
C1345 C 0.51996 0.20195 0.66564 0.0
C1346 C 0.53074 0.17414 0.7046 0.0
C1347 C 0.53953 0.15324 0.68652 0.0
C1348 C 0.53784 0.15653 0.65795 0.0
C1349 C 0.52796 0.18079 0.64785 0.0
C1350 C 0.53203 0.17119 0.7352 0.0
C1351 C 0.54725 0.13477 0.63803 0.0
H1352 H 0.61275 0.10538 0.71435 0.0
H1353 H 0.53803 0.06247 0.71313 0.0
H1354 H 0.59519 0.15956 0.67576 0.0
H1355 H 0.58914 0.17166 0.70987 0.0
H1356 H 0.61749 0.1511 0.70297 0.0
H1357 H 0.49836 0.08397 0.70285 0.0
H1358 H 0.49819 0.1205 0.70893 0.0
H1359 H 0.50301 0.10693 0.67512 0.0
H1360 H 0.51484 0.21454 0.70779 0.0
H1361 H 0.52707 0.18338 0.62595 0.0
H1362 H 0.55289 0.17029 0.74201 0.0
H1363 H 0.52217 0.1518 0.74096 0.0
H1364 H 0.52262 0.18842 0.74637 0.0
H1365 H 0.56872 0.13195 0.64096 0.0
H1366 H 0.54354 0.14001 0.61643 0.0
H1367 H 0.53729 0.11492 0.64191 0.0
C1368 C 0.16124 0.34212 0.97748 0.0
C1369 C 0.18131 0.32978 0.99229 0.0
C1370 C 0.14083 0.32646 0.965 0.0
C1371 C 0.14021 0.29777 0.96777 0.0
C1372 C 0.16003 0.28522 0.98329 0.0
C1373 C 0.18051 0.30137 0.9952 0.0
C1374 C 0.12026 0.34057 0.94829 0.0
C1375 C 0.15974 0.25473 0.98703 0.0
C1376 C 0.07423 0.26325 0.95073 0.0
C1377 C 0.0781 0.25402 0.9237 0.0
C1378 C 0.09467 0.2765 0.96581 0.0
C1379 C 0.11937 0.28099 0.95338 0.0
C1380 C 0.12358 0.27108 0.92636 0.0
C1381 C 0.10295 0.25753 0.91192 0.0
C1382 C 0.08961 0.28641 0.99474 0.0
C1383 C 0.14953 0.27576 0.91227 0.0
H1384 H 0.16179 0.36405 0.97505 0.0
H1385 H 0.19589 0.29176 0.00678 0.0
H1386 H 0.12068 0.33276 0.92679 0.0
H1387 H 0.10032 0.33599 0.95622 0.0
H1388 H 0.12335 0.3631 0.9485 0.0
H1389 H 0.17568 0.24836 0.00103 0.0
H1390 H 0.1405 0.24796 0.9953 0.0
H1391 H 0.16212 0.24398 0.96697 0.0
H1392 H 0.05513 0.2604 0.96002 0.0
H1393 H 0.10608 0.2505 0.89103 0.0
H1394 H 0.09008 0.30907 -0.00419 0.0
H1395 H 0.10531 0.27942 0.00868 0.0
H1396 H 0.07023 0.27908 0.00227 0.0
H1397 H 0.15311 0.298 0.90997 0.0
H1398 H 0.15004 0.26557 0.8917 0.0
H1399 H 0.16596 0.26808 0.92481 0.0
C1400 C 0.43826 0.69225 0.4545 0.0
C1401 C 0.43572 0.70619 0.43002 0.0
C1402 C 0.41705 0.67701 0.46477 0.0
C1403 C 0.39287 0.67557 0.4501 0.0
C1404 C 0.39007 0.68998 0.42565 0.0
C1405 C 0.4115 0.70519 0.41597 0.0
C1406 C 0.42063 0.66208 0.49105 0.0
C1407 C 0.3646 0.68885 0.40938 0.0
C1408 C 0.34595 0.61522 0.45828 0.0
C1409 C 0.32629 0.62677 0.47457 0.0
C1410 C 0.36805 0.63073 0.45067 0.0
C1411 C 0.37062 0.65838 0.45975 0.0
C1412 C 0.35123 0.66994 0.47683 0.0
C1413 C 0.32922 0.65402 0.48396 0.0
C1414 C 0.38829 0.61775 0.43229 0.0
C1415 C 0.35343 0.6993 0.48707 0.0
H1416 H 0.4569 0.693 0.46551 0.0
H1417 H 0.40935 0.71589 0.39704 0.0
H1418 H 0.4052 0.66803 0.50583 0.0
H1419 H 0.41838 0.63974 0.48701 0.0
H1420 H 0.44026 0.66633 0.50066 0.0
H1421 H 0.36547 0.70174 0.3911 0.0
H1422 H 0.35999 0.66747 0.40255 0.0
H1423 H 0.34811 0.69577 0.42237 0.0
H1424 H 0.34384 0.59418 0.45096 0.0
H1425 H 0.31419 0.66304 0.49671 0.0
H1426 H 0.40817 0.61993 0.4418 0.0
H1427 H 0.38892 0.62839 0.4126 0.0
H1428 H 0.38396 0.59571 0.42797 0.0
H1429 H 0.37275 0.7032 0.4974 0.0
H1430 H 0.33755 0.70468 0.50159 0.0
H1431 H 0.3524 0.71312 0.46956 0.0
C1432 C 0.87758 0.54856 0.86765 0.0
C1433 C 0.86805 0.52793 0.84947 0.0
C1434 C 0.86177 0.55897 0.88865 0.0
C1435 C 0.83598 0.54811 0.89187 0.0
C1436 C 0.82642 0.52688 0.87393 0.0
C1437 C 0.8425 0.51721 0.85273 0.0
C1438 C 0.87252 0.58194 0.90709 0.0
C1439 C 0.79919 0.51449 0.87706 0.0
C1440 C 0.80588 0.56258 0.9613 0.0
C1441 C 0.79005 0.58494 0.95587 0.0
C1442 C 0.82013 0.54961 0.94039 0.0
C1443 C 0.81888 0.55963 0.91359 0.0
C1444 C 0.80247 0.58181 0.90788 0.0
C1445 C 0.78806 0.59404 0.92905 0.0
C1446 C 0.83704 0.52567 0.94712 0.0
C1447 C 0.80093 0.59334 0.87964 0.0
H1448 H 0.89726 0.55703 0.86512 0.0
H1449 H 0.83512 0.50113 0.83881 0.0
H1450 H 0.85982 0.60002 0.9056 0.0
H1451 H 0.87229 0.57571 0.92868 0.0
H1452 H 0.89298 0.5881 0.90184 0.0
H1453 H 0.79517 0.49728 0.8622 0.0
H1454 H 0.79681 0.50694 0.89806 0.0
H1455 H 0.78415 0.53027 0.87409 0.0
H1456 H 0.80732 0.55535 0.98197 0.0
H1457 H 0.77595 0.61141 0.92475 0.0
H1458 H 0.85812 0.53136 0.94469 0.0
H1459 H 0.8326 0.50819 0.93274 0.0
H1460 H 0.83407 0.51889 0.96834 0.0
H1461 H 0.82054 0.60165 0.87394 0.0
H1462 H 0.78638 0.6099 0.87834 0.0
H1463 H 0.79546 0.57698 0.86435 0.0
C1464 C 0.64192 0.53348 0.15505 0.0
C1465 C 0.65751 0.52384 0.17639 0.0
C1466 C 0.65339 0.54391 0.13153 0.0
C1467 C 0.68114 0.54464 0.12921 0.0
C1468 C 0.69702 0.53448 0.15041 0.0
C1469 C 0.685 0.52424 0.17381 0.0
C1470 C 0.63581 0.55466 0.10938 0.0
C1471 C 0.72668 0.53482 0.14855 0.0
C1472 C 0.70849 0.55336 0.05799 0.0
C1473 C 0.71419 0.58151 0.05816 0.0
C1474 C 0.69824 0.54092 0.08119 0.0
C1475 C 0.69348 0.55707 0.10502 0.0
C1476 C 0.69951 0.58541 0.10544 0.0
C1477 C 0.70984 0.59727 0.08204 0.0
C1478 C 0.69215 0.5106 0.08007 0.0
C1479 C 0.69458 0.60333 0.13044 0.0
H1480 H 0.62066 0.53321 0.15684 0.0
H1481 H 0.69718 0.51674 0.19016 0.0
H1482 H 0.64003 0.57676 0.10687 0.0
H1483 H 0.63988 0.54412 0.08955 0.0
H1484 H 0.61456 0.55187 0.11397 0.0
H1485 H 0.73614 0.52502 0.16622 0.0
H1486 H 0.73281 0.52406 0.12947 0.0
H1487 H 0.73418 0.5562 0.1477 0.0
H1488 H 0.71189 0.54101 0.03968 0.0
H1489 H 0.7142 0.61904 0.08238 0.0
H1490 H 0.67071 0.50695 0.08273 0.0
H1491 H 0.70241 0.50056 0.09706 0.0
H1492 H 0.69812 0.50073 0.06043 0.0
H1493 H 0.67325 0.603 0.13514 0.0
H1494 H 0.7011 0.62486 0.12772 0.0
H1495 H 0.70508 0.59535 0.14842 0.0
C1496 C 0.74734 0.44485 0.43312 0.0
C1497 C 0.72927 0.4446 0.45462 0.0
C1498 C 0.74072 0.45589 0.40788 0.0
C1499 C 0.7154 0.4668 0.40403 0.0
C1500 C 0.69753 0.4677 0.42602 0.0
C1501 C 0.70471 0.45667 0.45108 0.0
C1502 C 0.7604 0.45483 0.38499 0.0
C1503 C 0.67032 0.47916 0.42272 0.0
C1504 C 0.69931 0.51072 0.3436 0.0
C1505 C 0.68619 0.49176 0.32593 0.0
C1506 C 0.70969 0.50276 0.36879 0.0
C1507 C 0.70672 0.47526 0.3765 0.0
C1508 C 0.6942 0.45588 0.35839 0.0
C1509 C 0.68417 0.46435 0.33331 0.0
C1510 C 0.72316 0.52392 0.38748 0.0
C1511 C 0.6906 0.42635 0.36588 0.0
H1512 H 0.76643 0.43572 0.43573 0.0
H1513 H 0.69065 0.45667 0.46759 0.0
H1514 H 0.75323 0.44022 0.36868 0.0
H1515 H 0.76254 0.47514 0.37572 0.0
H1516 H 0.7801 0.44831 0.39207 0.0
H1517 H 0.65947 0.48009 0.4423 0.0
H1518 H 0.67161 0.5 0.41452 0.0
H1519 H 0.65873 0.4662 0.40778 0.0
H1520 H 0.70104 0.53192 0.33802 0.0
H1521 H 0.6741 0.44953 0.31979 0.0
H1522 H 0.7428 0.51678 0.39392 0.0
H1523 H 0.71139 0.52695 0.40625 0.0
H1524 H 0.72567 0.54393 0.37761 0.0
H1525 H 0.7099 0.41757 0.37118 0.0
H1526 H 0.68137 0.41365 0.34906 0.0
H1527 H 0.67799 0.42501 0.38418 0.0
C1528 C 0.82554 0.49965 0.69552 0.0
C1529 C 0.84703 0.4858 0.70629 0.0
C1530 C 0.81447 0.49185 0.66998 0.0
C1531 C 0.82516 0.46968 0.6549 0.0
C1532 C 0.84672 0.4555 0.66574 0.0
C1533 C 0.85738 0.46372 0.69128 0.0
C1534 C 0.79145 0.50739 0.65907 0.0
C1535 C 0.85863 0.4317 0.65029 0.0
C1536 C 0.7846 0.43127 0.60015 0.0
C1537 C 0.79533 0.4415 0.57611 0.0
C1538 C 0.79364 0.44079 0.62595 0.0
C1539 C 0.81385 0.4611 0.62778 0.0
C1540 C 0.8242 0.47214 0.60363 0.0
C1541 C 0.81483 0.46218 0.57807 0.0
C1542 C 0.7821 0.42853 0.65123 0.0
C1543 C 0.84571 0.49391 0.6048 0.0
H1544 H 0.81743 0.51674 0.70696 0.0
H1545 H 0.87399 0.45288 0.69941 0.0
H1546 H 0.79666 0.5164 0.63927 0.0
H1547 H 0.77437 0.49327 0.65517 0.0
H1548 H 0.78534 0.52405 0.67339 0.0
H1549 H 0.8753 0.42279 0.66162 0.0
H1550 H 0.84342 0.41546 0.64623 0.0
H1551 H 0.86585 0.43839 0.6302 0.0
H1552 H 0.76946 0.41535 0.59887 0.0
H1553 H 0.82315 0.47029 0.55962 0.0
H1554 H 0.775 0.44489 0.6653 0.0
H1555 H 0.79756 0.41747 0.66233 0.0
H1556 H 0.76548 0.41405 0.64635 0.0
H1557 H 0.83972 0.51143 0.61804 0.0
H1558 H 0.85053 0.50151 0.58425 0.0
H1559 H 0.86381 0.48558 0.61398 0.0
C1560 C 0.46976 0.06551 0.24401 0.0
C1561 C 0.46693 0.04181 0.22732 0.0
C1562 C 0.48132 0.08942 0.23406 0.0
C1563 C 0.49015 0.08966 0.20675 0.0
C1564 C 0.48861 0.06543 0.19027 0.0
C1565 C 0.47706 0.04175 0.20078 0.0
C1566 C 0.48282 0.11482 0.25233 0.0
C1567 C 0.49782 0.0649 0.16103 0.0
C1568 C 0.48693 0.15674 0.17047 0.0
C1569 C 0.51343 0.1654 0.17063 0.0
C1570 C 0.47919 0.13217 0.18221 0.0
C1571 C 0.49838 0.11586 0.19458 0.0
C1572 C 0.52514 0.12456 0.1951 0.0
C1573 C 0.53238 0.14924 0.18304 0.0
C1574 C 0.45044 0.12355 0.18118 0.0
C1575 C 0.54608 0.10773 0.20826 0.0
H1576 H 0.46217 0.06567 0.26463 0.0
H1577 H 0.47507 0.0235 0.18779 0.0
H1578 H 0.50285 0.12425 0.25191 0.0
H1579 H 0.46886 0.13007 0.24473 0.0
H1580 H 0.47784 0.11048 0.27384 0.0
H1581 H 0.4977 0.04388 0.15185 0.0
H1582 H 0.48474 0.07761 0.14857 0.0
H1583 H 0.51803 0.07376 0.1598 0.0
H1584 H 0.47215 0.16905 0.1609 0.0
H1585 H 0.55289 0.15581 0.18327 0.0
H1586 H 0.44301 0.12099 0.20219 0.0
H1587 H 0.44806 0.1035 0.17017 0.0
H1588 H 0.438 0.13859 0.17081 0.0
H1589 H 0.5412 0.10444 0.22997 0.0
H1590 H 0.56594 0.11759 0.20738 0.0
H1591 H 0.54677 0.0873 0.19791 0.0
C1592 C 0.07331 0.81698 0.69798 0.0
C1593 C 0.04581 0.81481 0.70002 0.0
C1594 C 0.08722 0.83987 0.70892 0.0
C1595 C 0.0733 0.86111 0.72218 0.0
C1596 C 0.04568 0.8586 0.72521 0.0
C1597 C 0.03225 0.83544 0.71412 0.0
C1598 C 0.11671 0.84176 0.70542 0.0
C1599 C 0.03019 0.88082 0.73928 0.0
C1600 C 0.11234 0.91345 0.7658 0.0
C1601 C 0.11565 0.93479 0.74757 0.0
C1602 C 0.09839 0.88939 0.75794 0.0
C1603 C 0.08746 0.88669 0.73126 0.0
C1604 C 0.09046 0.90828 0.71289 0.0
C1605 C 0.10454 0.93205 0.72125 0.0
C1606 C 0.09559 0.86676 0.77805 0.0
C1607 C 0.07901 0.90619 0.68428 0.0
H1608 H 0.08397 0.80106 0.68726 0.0
H1609 H 0.01102 0.8339 0.71586 0.0
H1610 H 0.12174 0.85891 0.69199 0.0
H1611 H 0.12661 0.84611 0.72543 0.0
H1612 H 0.12479 0.82269 0.69629 0.0
H1613 H 0.00913 0.87488 0.7417 0.0
H1614 H 0.03879 0.88594 0.75977 0.0
H1615 H 0.03128 0.89964 0.72724 0.0
H1616 H 0.12085 0.91541 0.78618 0.0
H1617 H 0.10691 0.94846 0.70706 0.0
H1618 H 0.10499 0.84804 0.76981 0.0
H1619 H 0.07446 0.86164 0.78107 0.0
H1620 H 0.10472 0.87232 0.79822 0.0
H1621 H 0.08772 0.88873 0.67287 0.0
H1622 H 0.08263 0.92504 0.67271 0.0
H1623 H 0.05744 0.90222 0.68508 0.0
C1624 C 0.47591 0.81141 0.362 0.0
C1625 C 0.49442 0.79502 0.34862 0.0
C1626 C 0.46494 0.83378 0.34921 0.0
C1627 C 0.4727 0.84002 0.32239 0.0
C1628 C 0.4914 0.82363 0.30875 0.0
C1629 C 0.50202 0.80126 0.32202 0.0
C1630 C 0.44498 0.85073 0.3644 0.0
C1631 C 0.50016 0.82975 0.28016 0.0
C1632 C 0.42528 0.88324 0.28285 0.0
C1633 C 0.43642 0.9095 0.28701 0.0
C1634 C 0.43732 0.8603 0.29356 0.0
C1635 C 0.46107 0.86371 0.30877 0.0
C1636 C 0.47283 0.89004 0.31238 0.0
C1637 C 0.46035 0.91263 0.30147 0.0
C1638 C 0.42421 0.83252 0.28927 0.0
C1639 C 0.49819 0.89445 0.32844 0.0
H1640 H 0.46985 0.80671 0.38253 0.0
H1641 H 0.51633 0.78872 0.31157 0.0
H1642 H 0.45208 0.87228 0.36642 0.0
H1643 H 0.42614 0.85062 0.35271 0.0
H1644 H 0.44104 0.84313 0.38514 0.0
H1645 H 0.51494 0.81509 0.27242 0.0
H1646 H 0.48294 0.82904 0.266 0.0
H1647 H 0.50884 0.8507 0.27973 0.0
H1648 H 0.40686 0.88061 0.2716 0.0
H1649 H 0.46918 0.93283 0.30466 0.0
H1650 H 0.41796 0.82459 0.30924 0.0
H1651 H 0.43834 0.81783 0.28038 0.0
H1652 H 0.40666 0.8331 0.27557 0.0
H1653 H 0.49504 0.88919 0.35006 0.0
H1654 H 0.50564 0.91591 0.32789 0.0
H1655 H 0.51358 0.88078 0.32027 0.0
C1656 C 0.82029 0.6904 0.03873 0.0
C1657 C 0.8153 0.68861 0.01049 0.0
C1658 C 0.84456 0.70043 0.04913 0.0
C1659 C 0.86428 0.70903 0.03087 0.0
C1660 C 0.85903 0.70826 0.0024 0.0
C1661 C 0.83461 0.698 0.99254 0.0
C1662 C 0.84941 0.70092 0.07965 0.0
C1663 C 0.87951 0.71749 0.98234 0.0
C1664 C 0.92043 0.75197 0.06249 0.0
C1665 C 0.93951 0.73216 0.06681 0.0
C1666 C 0.89615 0.74493 0.04993 0.0
C1667 C 0.89079 0.71744 0.04164 0.0
C1668 C 0.9103 0.69755 0.0451 0.0
C1669 C 0.93444 0.70516 0.05758 0.0
C1670 C 0.87591 0.76674 0.04636 0.0
C1671 C 0.90531 0.66799 0.03654 0.0
H1672 H 0.80549 0.68325 0.05278 0.0
H1673 H 0.83089 0.69678 0.97069 0.0
H1674 H 0.86553 0.68686 0.08456 0.0
H1675 H 0.85579 0.72171 0.08691 0.0
H1676 H 0.83162 0.69472 0.09114 0.0
H1677 H 0.87167 0.71755 0.96107 0.0
H1678 H 0.88697 0.73834 0.9881 0.0
H1679 H 0.89656 0.70369 0.98289 0.0
H1680 H 0.92421 0.77291 0.06944 0.0
H1681 H 0.94908 0.68974 0.06077 0.0
H1682 H 0.85869 0.76249 0.05944 0.0
H1683 H 0.86867 0.76656 0.02489 0.0
H1684 H 0.88388 0.7875 0.05186 0.0
H1685 H 0.88904 0.65934 0.04877 0.0
H1686 H 0.92299 0.65534 0.03933 0.0
H1687 H 0.89905 0.6664 0.01476 0.0
C1688 C 0.57712 0.2914 0.56602 0.0
C1689 C 0.5605 0.31098 0.57773 0.0
C1690 C 0.6027 0.29853 0.55788 0.0
C1691 C 0.61188 0.32587 0.56158 0.0
C1692 C 0.5949 0.34592 0.57245 0.0
C1693 C 0.56939 0.33824 0.58036 0.0
C1694 C 0.62019 0.27662 0.54619 0.0
C1695 C 0.60399 0.37532 0.57663 0.0
C1696 C 0.6852 0.34014 0.57082 0.0
C1697 C 0.69207 0.35002 0.54521 0.0
C1698 C 0.65924 0.33177 0.57623 0.0
C1699 C 0.6397 0.33327 0.55552 0.0
C1700 C 0.64661 0.34258 0.52942 0.0
C1701 C 0.67273 0.35086 0.52457 0.0
C1702 C 0.65262 0.32189 0.60432 0.0
C1703 C 0.62632 0.34434 0.50681 0.0
H1704 H 0.57038 0.2703 0.56379 0.0
H1705 H 0.55668 0.35352 0.58931 0.0
H1706 H 0.62852 0.28304 0.52647 0.0
H1707 H 0.63699 0.27353 0.56035 0.0
H1708 H 0.60948 0.25678 0.54281 0.0
H1709 H 0.58792 0.38869 0.58386 0.0
H1710 H 0.6203 0.37661 0.59191 0.0
H1711 H 0.61175 0.38332 0.55728 0.0
H1712 H 0.70001 0.33937 0.58686 0.0
H1713 H 0.67787 0.35843 0.5047 0.0
H1714 H 0.64338 0.30118 0.60271 0.0
H1715 H 0.63812 0.33563 0.61406 0.0
H1716 H 0.67025 0.32115 0.61789 0.0
H1717 H 0.61618 0.32424 0.50327 0.0
H1718 H 0.63513 0.3508 0.4873 0.0
H1719 H 0.61108 0.35919 0.51287 0.0
C1720 C 0.22372 0.41337 0.10328 0.0
C1721 C 0.23939 0.42598 0.08373 0.0
C1722 C 0.21172 0.42876 0.12403 0.0
C1723 C 0.21501 0.45755 0.1249 0.0
C1724 C 0.23106 0.47042 0.1054 0.0
C1725 C 0.24332 0.4544 0.08515 0.0
C1726 C 0.19515 0.41423 0.14479 0.0
C1727 C 0.2346 0.50109 0.10544 0.0
C1728 C 0.15933 0.49269 0.16153 0.0
C1729 C 0.17042 0.49783 0.18755 0.0
C1730 C 0.17421 0.48113 0.14039 0.0
C1731 C 0.20062 0.47398 0.14562 0.0
C1732 C 0.21224 0.48013 0.17155 0.0
C1733 C 0.19704 0.49227 0.19217 0.0
C1734 C 0.1613 0.47542 0.11282 0.0
C1735 C 0.24021 0.47241 0.17801 0.0
H1736 H 0.22086 0.39136 0.10238 0.0
H1737 H 0.25534 0.4642 0.06994 0.0
H1738 H 0.2019 0.42019 0.1658 0.0
H1739 H 0.17432 0.42034 0.14281 0.0
H1740 H 0.19596 0.39165 0.14226 0.0
H1741 H 0.24867 0.50783 0.08964 0.0
H1742 H 0.21533 0.51062 0.10159 0.0
H1743 H 0.24179 0.50887 0.12574 0.0
H1744 H 0.13882 0.49728 0.15783 0.0
H1745 H 0.20564 0.49615 0.21231 0.0
H1746 H 0.15855 0.45305 0.10937 0.0
H1747 H 0.17407 0.48297 0.09629 0.0
H1748 H 0.14178 0.48509 0.11114 0.0
H1749 H 0.24149 0.44983 0.17825 0.0
H1750 H 0.24712 0.48099 0.19816 0.0
H1751 H 0.25376 0.47963 0.16201 0.0
C1752 C 0.33806 0.48073 0.86832 0.0
C1753 C 0.32739 0.47453 0.84227 0.0
C1754 C 0.32599 0.47099 0.89186 0.0
C1755 C 0.30277 0.45462 0.88925 0.0
C1756 C 0.29158 0.44877 0.86308 0.0
C1757 C 0.30401 0.45883 0.83989 0.0
C1758 C 0.33843 0.47771 0.91947 0.0
C1759 C 0.26685 0.43131 0.85953 0.0
C1760 C 0.28831 0.40496 0.94528 0.0
C1761 C 0.26882 0.41854 0.96019 0.0
C1762 C 0.29947 0.41651 0.92216 0.0
C1763 C 0.29101 0.44232 0.91377 0.0
C1764 C 0.2714 0.45621 0.92872 0.0
C1765 C 0.26048 0.44412 0.95178 0.0
C1766 C 0.32031 0.40104 0.90667 0.0
C1767 C 0.26199 0.48382 0.92037 0.0
H1768 H 0.35603 0.49296 0.87035 0.0
H1769 H 0.2956 0.45401 0.81984 0.0
H1770 H 0.32376 0.48705 0.93334 0.0
H1771 H 0.34502 0.45867 0.92892 0.0
H1772 H 0.35564 0.49195 0.91811 0.0
H1773 H 0.25996 0.42979 0.83791 0.0
H1774 H 0.27055 0.41041 0.86662 0.0
H1775 H 0.25084 0.43982 0.87223 0.0
H1776 H 0.29486 0.38517 0.9516 0.0
H1777 H 0.24546 0.45475 0.96322 0.0
H1778 H 0.3388 0.41346 0.90622 0.0
H1779 H 0.31379 0.39717 0.88518 0.0
H1780 H 0.32466 0.38115 0.91588 0.0
H1781 H 0.27881 0.49862 0.92024 0.0
H1782 H 0.24669 0.49199 0.93427 0.0
H1783 H 0.25374 0.48237 0.89929 0.0
C1784 C 0.22991 0.54114 0.58869 0.0
C1785 C 0.24878 0.54879 0.56947 0.0
C1786 C 0.2373 0.52801 0.61259 0.0
C1787 C 0.26418 0.52254 0.61734 0.0
C1788 C 0.28313 0.52911 0.59745 0.0
C1789 C 0.27519 0.54211 0.57373 0.0
C1790 C 0.21654 0.52108 0.63326 0.0
C1791 C 0.31201 0.52354 0.60178 0.0
C1792 C 0.29215 0.52134 0.68917 0.0
C1793 C 0.29642 0.4934 0.69222 0.0
C1794 C 0.28057 0.53095 0.66531 0.0
C1795 C 0.27301 0.51215 0.64402 0.0
C1796 C 0.27596 0.48379 0.64752 0.0
C1797 C 0.28766 0.47472 0.67164 0.0
C1798 C 0.27764 0.56137 0.66239 0.0
C1799 C 0.2679 0.46315 0.62532 0.0
H1800 H 0.20942 0.54606 0.58546 0.0
H1801 H 0.28988 0.54779 0.5589 0.0
H1802 H 0.21842 0.49964 0.6396 0.0
H1803 H 0.21938 0.53439 0.65184 0.0
H1804 H 0.19628 0.52388 0.62519 0.0
H1805 H 0.32394 0.52816 0.58353 0.0
H1806 H 0.31975 0.5362 0.61937 0.0
H1807 H 0.31472 0.50183 0.60678 0.0
H1808 H 0.29864 0.5359 0.70507 0.0
H1809 H 0.29078 0.45308 0.6739 0.0
H1810 H 0.25714 0.56604 0.65635 0.0
H1811 H 0.29073 0.5686 0.64598 0.0
H1812 H 0.28271 0.57307 0.68158 0.0
H1813 H 0.24766 0.46706 0.61786 0.0
H1814 H 0.26864 0.44185 0.63242 0.0
H1815 H 0.28129 0.46511 0.60769 0.0
C1816 C 0.17421 0.49146 0.32057 0.0
C1817 C 0.15361 0.5078 0.31175 0.0
C1818 C 0.18776 0.49768 0.34518 0.0
C1819 C 0.18021 0.52052 0.36145 0.0
C1820 C 0.15931 0.53695 0.35272 0.0
C1821 C 0.14639 0.53051 0.32787 0.0
C1822 C 0.21022 0.47996 0.35369 0.0
C1823 C 0.15051 0.5613 0.3697 0.0
C1824 C 0.19672 0.52566 0.43715 0.0
C1825 C 0.21698 0.54555 0.43781 0.0
C1826 C 0.18507 0.51664 0.4123 0.0
C1827 C 0.19419 0.52753 0.38758 0.0
C1828 C 0.21548 0.54663 0.38803 0.0
C1829 C 0.22651 0.55557 0.41318 0.0
C1830 C 0.16223 0.49642 0.4126 0.0
C1831 C 0.22601 0.55836 0.36203 0.0
H1832 H 0.17994 0.47396 0.3081 0.0
H1833 H 0.13038 0.54312 0.32123 0.0
H1834 H 0.22856 0.49254 0.3561 0.0
H1835 H 0.20606 0.47109 0.37382 0.0
H1836 H 0.21373 0.46304 0.33864 0.0
H1837 H 0.13354 0.57162 0.36027 0.0
H1838 H 0.1448 0.55477 0.39036 0.0
H1839 H 0.16701 0.57637 0.37237 0.0
H1840 H 0.18926 0.51787 0.45613 0.0
H1841 H 0.24235 0.57075 0.41357 0.0
H1842 H 0.16585 0.47887 0.39839 0.0
H1843 H 0.14407 0.50634 0.40543 0.0
H1844 H 0.15867 0.48856 0.43332 0.0
H1845 H 0.23044 0.5417 0.34703 0.0
H1846 H 0.24415 0.57106 0.36571 0.0
H1847 H 0.21086 0.57122 0.35262 0.0
loop_
_geom_bond_atom_site_label_1
_geom_bond_atom_site_label_2
_geom_bond_distance
_geom_bond_site_symmetry_2
_ccdc_geom_bond_type
C0 O1 1.160 . S
C0 O7 1.185 . S
O1 C0 1.160 . S
O2 Zn3 1.899 1_655 S
O2 C10 1.284 . S
Zn3 O2 1.899 1_455 S
Zn3 O4 2.032 . S
Zn3 O7 2.085 1_455 S
Zn3 O12 1.979 . S
O4 Zn3 2.032 . S
O4 C8 1.278 . S
C5 O6 1.203 . S
C5 O12 1.267 . S
O6 C5 1.203 . S
O7 C0 1.185 . S
O7 Zn3 2.085 1_655 S
C8 O4 1.278 . S
C8 O9 1.211 . S
O9 C8 1.211 . S
C10 O2 1.284 . S
C10 O11 1.273 1_655 S
O11 C10 1.273 1_455 S
O12 Zn3 1.979 . S
O12 C5 1.267 . S
C13 O14 1.160 . S
C13 O20 1.185 . S
O14 C13 1.160 . S
O15 Zn16 1.899 1_655 S
O15 C23 1.284 . S
Zn16 O15 1.899 1_455 S
Zn16 O17 2.032 . S
Zn16 O20 2.086 . S
Zn16 O25 1.977 1_455 S
O17 Zn16 2.032 . S
O17 C21 1.278 . S
C18 O19 1.203 . S
C18 O25 1.267 . S
O19 C18 1.203 . S
O20 C13 1.185 . S
O20 Zn16 2.086 . S
C21 O17 1.278 . S
C21 O22 1.208 . S
O22 C21 1.208 . S
C23 O15 1.284 . S
C23 O24 1.273 . S
O24 C23 1.273 . S
O25 Zn16 1.977 1_655 S
O25 C18 1.267 . S
C26 O27 1.160 . S
C26 O33 1.185 . S
O27 C26 1.160 . S
O28 Zn29 1.899 . S
O28 C36 1.284 . S
Zn29 O28 1.899 . S
Zn29 O30 2.032 . S
Zn29 O33 2.086 . S
Zn29 O38 1.977 . S
O30 Zn29 2.032 . S
O30 C34 1.278 . S
C31 O32 1.203 . S
C31 O38 1.267 . S
O32 C31 1.203 . S
O33 C26 1.185 . S
O33 Zn29 2.086 . S
C34 O30 1.278 . S
C34 O35 1.211 . S
O35 C34 1.211 . S
C36 O28 1.284 . S
C36 O37 1.273 . S
O37 C36 1.273 . S
O38 Zn29 1.977 . S
O38 C31 1.267 . S
C39 O40 1.160 . S
C39 O46 1.185 . S
O40 C39 1.160 . S
O41 Zn42 1.899 . S
O41 C49 1.284 . S
Zn42 O41 1.899 . S
Zn42 O43 2.032 . S
Zn42 O46 2.086 . S
Zn42 O51 1.977 . S
O43 Zn42 2.032 . S
O43 C47 1.278 . S
C44 O45 1.203 . S
C44 O51 1.267 . S
O45 C44 1.203 . S
O46 C39 1.185 . S
O46 Zn42 2.086 . S
C47 O43 1.278 . S
C47 O48 1.211 . S
O48 C47 1.211 . S
C49 O41 1.284 . S
C49 O50 1.273 . S
O50 C49 1.273 . S
O51 Zn42 1.977 . S
O51 C44 1.267 . S
C52 O53 1.160 . S
C52 O59 1.185 . S
O53 C52 1.160 . S
O54 Zn55 1.899 . S
O54 C62 1.284 . S
Zn55 O54 1.899 . S
Zn55 O56 2.032 . S
Zn55 O59 2.086 . S
Zn55 O64 1.977 1_455 S
O56 Zn55 2.032 . S
O56 C60 1.278 1_455 S
C57 O58 1.203 . S
C57 O64 1.267 . S
O58 C57 1.203 . S
O59 C52 1.185 . S
O59 Zn55 2.086 . S
C60 O56 1.278 1_655 S
C60 O61 1.211 . S
O61 C60 1.211 . S
C62 O54 1.284 . S
C62 O63 1.273 . S
O63 C62 1.273 . S
O64 Zn55 1.977 1_655 S
O64 C57 1.267 . S
C65 O66 1.160 . S
C65 O72 1.185 . S
O66 C65 1.160 . S
O67 Zn68 1.899 . S
O67 C75 1.284 . S
Zn68 O67 1.899 . S
Zn68 O69 2.032 . S
Zn68 O72 2.086 . S
Zn68 O77 1.977 . S
O69 Zn68 2.032 . S
O69 C73 1.278 . S
C70 O71 1.203 . S
C70 O77 1.267 . S
O71 C70 1.203 . S
O72 C65 1.185 . S
O72 Zn68 2.086 . S
C73 O69 1.278 . S
C73 O74 1.211 . S
O74 C73 1.211 . S
C75 O67 1.284 . S
C75 O76 1.273 . S
O76 C75 1.273 . S
O77 Zn68 1.977 . S
O77 C70 1.267 . S
C78 O79 1.160 . S
C78 O85 1.185 . S
O79 C78 1.160 . S
O80 Zn81 1.899 . S
O80 C88 1.284 . S
Zn81 O80 1.899 . S
Zn81 O82 2.032 . S
Zn81 O85 2.086 . S
Zn81 O90 1.977 . S
O82 Zn81 2.032 . S
O82 C86 1.278 . S
C83 O84 1.203 . S
C83 O90 1.267 . S
O84 C83 1.203 . S
O85 C78 1.185 . S
O85 Zn81 2.086 . S
C86 O82 1.278 . S
C86 O87 1.211 . S
O87 C86 1.211 . S
C88 O80 1.284 . S
C88 O89 1.273 . S
O89 C88 1.273 . S
O90 Zn81 1.977 . S
O90 C83 1.267 . S
C91 O92 1.160 . S
C91 O98 1.185 . S
O92 C91 1.160 . S
O93 Zn94 1.899 . S
O93 C101 1.284 . S
Zn94 O93 1.899 . S
Zn94 O95 2.032 1_455 S
Zn94 O98 2.086 1_455 S
Zn94 O103 1.977 . S
O95 Zn94 2.032 1_655 S
O95 C99 1.278 . S
C96 O97 1.203 . S
C96 O103 1.267 . S
O97 C96 1.203 . S
O98 C91 1.185 . S
O98 Zn94 2.086 1_655 S
C99 O95 1.278 . S
C99 O100 1.211 1_655 S
O100 C99 1.211 1_455 S
C101 O93 1.284 . S
C101 O102 1.273 . S
O102 C101 1.273 . S
O103 Zn94 1.977 . S
O103 C96 1.267 . S
C104 O105 1.160 . S
C104 O111 1.185 . S
O105 C104 1.160 . S
O106 Zn107 1.899 1_565 S
O106 C114 1.284 . S
Zn107 O106 1.899 1_545 S
Zn107 O108 2.032 . S
Zn107 O111 2.086 1_545 S
Zn107 O116 1.977 . S
O108 Zn107 2.032 . S
O108 C112 1.278 . S
C109 O110 1.203 . S
C109 O116 1.267 . S
O110 C109 1.203 . S
O111 C104 1.185 . S
O111 Zn107 2.086 1_565 S
C112 O108 1.278 . S
C112 O113 1.211 . S
O113 C112 1.211 . S
C114 O106 1.284 . S
C114 O115 1.273 1_565 S
O115 C114 1.273 1_545 S
O116 Zn107 1.977 . S
O116 C109 1.267 . S
C117 O118 1.160 . S
C117 O124 1.185 . S
O118 C117 1.160 . S
O119 Zn120 1.899 . S
O119 C127 1.284 . S
Zn120 O119 1.899 . S
Zn120 O121 2.032 . S
Zn120 O124 2.086 . S
Zn120 O129 1.977 . S
O121 Zn120 2.032 . S
O121 C125 1.278 . S
C122 O123 1.203 . S
C122 O129 1.267 . S
O123 C122 1.203 . S
O124 C117 1.185 . S
O124 Zn120 2.086 . S
C125 O121 1.278 . S
C125 O126 1.211 . S
O126 C125 1.211 . S
C127 O119 1.284 . S
C127 O128 1.273 . S
O128 C127 1.273 . S
O129 Zn120 1.977 . S
O129 C122 1.267 . S
C130 O131 1.160 . S
C130 O137 1.185 . S
O131 C130 1.160 . S
O132 Zn133 1.899 . S
O132 C140 1.284 . S
Zn133 O132 1.899 . S
Zn133 O134 2.032 1_545 S
Zn133 O137 2.086 . S
Zn133 O142 1.977 1_545 S
O134 Zn133 2.032 1_565 S
O134 C138 1.278 . S
C135 O136 1.203 . S
C135 O142 1.267 . S
O136 C135 1.203 . S
O137 C130 1.185 . S
O137 Zn133 2.086 . S
C138 O134 1.278 . S
C138 O139 1.211 . S
O139 C138 1.211 . S
C140 O132 1.284 . S
C140 O141 1.273 . S
O141 C140 1.273 . S
O142 Zn133 1.977 1_565 S
O142 C135 1.267 . S
C143 O144 1.160 . S
C143 O150 1.185 . S
O144 C143 1.160 . S
O145 Zn146 1.899 . S
O145 C153 1.284 . S
Zn146 O145 1.899 . S
Zn146 O147 2.032 1_554 S
Zn146 O150 2.086 1_554 S
Zn146 O155 1.977 . S
O147 Zn146 2.032 1_556 S
O147 C151 1.278 . S
C148 O149 1.203 . S
C148 O155 1.267 . S
O149 C148 1.203 . S
O150 C143 1.185 . S
O150 Zn146 2.086 1_556 S
C151 O147 1.278 . S
C151 O152 1.211 . S
O152 C151 1.211 . S
C153 O145 1.284 . S
C153 O154 1.273 . S
O154 C153 1.273 . S
O155 Zn146 1.977 . S
O155 C148 1.267 . S
C156 O157 1.160 . S
C156 O163 1.185 . S
O157 C156 1.160 . S
O158 Zn159 1.899 . S
O158 C166 1.284 . S
Zn159 O158 1.899 . S
Zn159 O160 2.032 1_554 S
Zn159 O163 2.086 . S
Zn159 O168 1.977 1_554 S
O160 Zn159 2.032 1_556 S
O160 C164 1.278 . S
C161 O162 1.203 . S
C161 O168 1.267 . S
O162 C161 1.203 . S
O163 C156 1.185 . S
O163 Zn159 2.086 . S
C164 O160 1.278 . S
C164 O165 1.211 . S
O165 C164 1.211 . S
C166 O158 1.284 . S
C166 O167 1.273 . S
O167 C166 1.273 . S
O168 Zn159 1.977 1_556 S
O168 C161 1.267 . S
C169 O170 1.160 . S
C169 O176 1.185 . S
O170 C169 1.160 . S
O171 Zn172 1.899 . S
O171 C179 1.284 . S
Zn172 O171 1.899 . S
Zn172 O173 2.032 1_554 S
Zn172 O176 2.086 . S
Zn172 O181 1.977 1_554 S
O173 Zn172 2.032 1_556 S
O173 C177 1.278 . S
C174 O175 1.203 . S
C174 O181 1.267 . S
O175 C174 1.203 . S
O176 C169 1.185 . S
O176 Zn172 2.086 . S
C177 O173 1.278 . S
C177 O178 1.211 . S
O178 C177 1.211 . S
C179 O171 1.284 . S
C179 O180 1.273 . S
O180 C179 1.273 . S
O181 Zn172 1.977 1_556 S
O181 C174 1.267 . S
C182 O183 1.160 . S
C182 O189 1.185 . S
O183 C182 1.160 . S
O184 Zn185 1.899 . S
O184 C192 1.284 . S
Zn185 O184 1.899 . S
Zn185 O186 2.032 . S
Zn185 O189 2.086 . S
Zn185 O194 1.977 . S
O186 Zn185 2.032 . S
O186 C190 1.278 . S
C187 O188 1.203 . S
C187 O194 1.267 . S
O188 C187 1.203 . S
O189 C182 1.185 . S
O189 Zn185 2.086 . S
C190 O186 1.278 . S
C190 O191 1.211 . S
O191 C190 1.211 . S
C192 O184 1.284 . S
C192 O193 1.273 . S
O193 C192 1.273 . S
O194 Zn185 1.977 . S
O194 C187 1.267 . S
C195 O196 1.160 . S
C195 O202 1.185 . S
O196 C195 1.160 . S
O197 Zn198 1.899 . S
O197 C205 1.284 . S
Zn198 O197 1.899 . S
Zn198 O199 2.032 . S
Zn198 O202 2.086 . S
Zn198 O207 1.977 . S
O199 Zn198 2.032 . S
O199 C203 1.278 . S
C200 O201 1.203 . S
C200 O207 1.267 . S
O201 C200 1.203 . S
O202 C195 1.185 . S
O202 Zn198 2.086 . S
C203 O199 1.278 . S
C203 O204 1.211 . S
O204 C203 1.211 . S
C205 O197 1.284 . S
C205 O206 1.273 . S
O206 C205 1.273 . S
O207 Zn198 1.977 . S
O207 C200 1.267 . S
C208 O209 1.160 . S
C208 O215 1.185 . S
O209 C208 1.160 . S
O210 Zn211 1.899 . S
O210 C218 1.284 . S
Zn211 O210 1.899 . S
Zn211 O212 2.032 1_565 S
Zn211 O215 2.086 1_565 S
Zn211 O220 1.977 . S
O212 Zn211 2.032 1_545 S
O212 C216 1.278 . S
C213 O214 1.203 . S
C213 O220 1.267 . S
O214 C213 1.203 . S
O215 C208 1.185 . S
O215 Zn211 2.086 1_545 S
C216 O212 1.278 . S
C216 O217 1.211 . S
O217 C216 1.211 . S
C218 O210 1.284 . S
C218 O219 1.273 . S
O219 C218 1.273 . S
O220 Zn211 1.977 . S
O220 C213 1.267 . S
C221 O222 1.160 . S
C221 O228 1.185 . S
O222 C221 1.160 . S
O223 Zn224 1.899 . S
O223 C231 1.284 . S
Zn224 O223 1.899 . S
Zn224 O225 2.032 . S
Zn224 O228 2.086 . S
Zn224 O233 1.977 . S
O225 Zn224 2.032 . S
O225 C229 1.278 . S
C226 O227 1.203 . S
C226 O233 1.267 . S
O227 C226 1.203 . S
O228 C221 1.185 . S
O228 Zn224 2.086 . S
C229 O225 1.278 . S
C229 O230 1.211 . S
O230 C229 1.211 . S
C231 O223 1.284 . S
C231 O232 1.273 . S
O232 C231 1.273 . S
O233 Zn224 1.977 . S
O233 C226 1.267 . S
C234 O235 1.160 . S
C234 O241 1.185 . S
O235 C234 1.160 . S
O236 Zn237 1.899 . S
O236 C244 1.284 . S
Zn237 O236 1.899 . S
Zn237 O238 2.032 . S
Zn237 O241 2.086 . S
Zn237 O246 1.977 . S
O238 Zn237 2.032 . S
O238 C242 1.278 . S
C239 O240 1.203 . S
C239 O246 1.267 . S
O240 C239 1.203 . S
O241 C234 1.185 . S
O241 Zn237 2.086 . S
C242 O238 1.278 . S
C242 O243 1.211 . S
O243 C242 1.211 . S
C244 O236 1.284 . S
C244 O245 1.273 . S
O245 C244 1.273 . S
O246 Zn237 1.977 . S
O246 C239 1.267 . S
C247 O248 1.160 . S
C247 O254 1.185 . S
O248 C247 1.160 . S
O249 Zn250 1.899 1_565 S
O249 C257 1.284 . S
Zn250 O249 1.899 1_545 S
Zn250 O251 2.032 . S
Zn250 O254 2.086 . S
Zn250 O259 1.977 1_545 S
O251 Zn250 2.032 . S
O251 C255 1.278 . S
C252 O253 1.203 . S
C252 O259 1.267 . S
O253 C252 1.203 . S
O254 C247 1.185 . S
O254 Zn250 2.086 . S
C255 O251 1.278 . S
C255 O256 1.211 1_545 S
O256 C255 1.211 1_565 S
C257 O249 1.284 . S
C257 O258 1.273 . S
O258 C257 1.273 . S
O259 Zn250 1.977 1_565 S
O259 C252 1.267 . S
C260 O261 1.160 . S
C260 O267 1.185 . S
O261 C260 1.160 . S
O262 Zn263 1.899 . S
O262 C270 1.284 . S
Zn263 O262 1.899 . S
Zn263 O264 2.032 1_554 S
Zn263 O267 2.086 1_554 S
Zn263 O272 1.977 . S
O264 Zn263 2.032 1_556 S
O264 C268 1.278 . S
C265 O266 1.203 . S
C265 O272 1.267 . S
O266 C265 1.203 . S
O267 C260 1.185 . S
O267 Zn263 2.086 1_556 S
C268 O264 1.278 . S
C268 O269 1.211 . S
O269 C268 1.211 . S
C270 O262 1.284 . S
C270 O271 1.273 . S
O271 C270 1.273 . S
O272 Zn263 1.977 . S
O272 C265 1.267 . S
C273 O274 1.160 . S
C273 O280 1.185 . S
O274 C273 1.160 . S
O275 Zn276 1.899 . S
O275 C283 1.284 . S
Zn276 O275 1.899 . S
Zn276 O277 2.032 . S
Zn276 O280 2.086 . S
Zn276 O285 1.977 . S
O277 Zn276 2.032 . S
O277 C281 1.278 . S
C278 O279 1.203 . S
C278 O285 1.267 . S
O279 C278 1.203 . S
O280 C273 1.185 . S
O280 Zn276 2.086 . S
C281 O277 1.278 . S
C281 O282 1.211 . S
O282 C281 1.211 . S
C283 O275 1.284 . S
C283 O284 1.273 . S
O284 C283 1.273 . S
O285 Zn276 1.977 . S
O285 C278 1.267 . S
C286 O287 1.160 . S
C286 O293 1.185 . S
O287 C286 1.160 . S
O288 Zn289 1.899 . S
O288 C296 1.284 . S
Zn289 O288 1.899 . S
Zn289 O290 2.032 . S
Zn289 O293 2.086 . S
Zn289 O298 1.977 . S
O290 Zn289 2.032 . S
O290 C294 1.278 . S
C291 O292 1.203 . S
C291 O298 1.267 . S
O292 C291 1.203 . S
O293 C286 1.185 . S
O293 Zn289 2.086 . S
C294 O290 1.278 . S
C294 O295 1.211 . S
O295 C294 1.211 . S
C296 O288 1.284 . S
C296 O297 1.273 . S
O297 C296 1.273 . S
O298 Zn289 1.977 . S
O298 C291 1.267 . S
C299 O300 1.160 . S
C299 O306 1.185 . S
O300 C299 1.160 . S
O301 Zn302 1.899 . S
O301 C309 1.284 . S
Zn302 O301 1.899 . S
Zn302 O303 2.032 . S
Zn302 O306 2.086 . S
Zn302 O311 1.977 . S
O303 Zn302 2.032 . S
O303 C307 1.278 . S
C304 O305 1.203 . S
C304 O311 1.267 . S
O305 C304 1.203 . S
O306 C299 1.185 . S
O306 Zn302 2.086 . S
C307 O303 1.278 . S
C307 O308 1.211 . S
O308 C307 1.211 . S
C309 O301 1.284 . S
C309 O310 1.273 . S
O310 C309 1.273 . S
O311 Zn302 1.977 . S
O311 C304 1.267 . S
C312 C313 1.391 . S
C312 C314 1.394 . S
C312 H328 0.931 . S
C313 C312 1.391 . S
C313 C317 1.376 . S
C314 C312 1.394 . S
C314 C315 1.369 . S
C314 C318 1.531 . S
C315 C314 1.369 . S
C315 C316 1.410 . S
C315 C323 1.503 . S
C316 C315 1.410 . S
C316 C317 1.392 . S
C316 C319 1.511 . S
C317 C313 1.376 . S
C317 C316 1.392 . S
C317 H329 0.929 . S
C318 C314 1.531 . S
C318 H330 0.960 . S
C318 H331 0.962 . S
C318 H332 0.960 . S
C319 C316 1.511 . S
C319 H333 0.961 . S
C319 H334 0.961 . S
C319 H335 0.961 . S
C320 C321 1.370 . S
C320 C322 1.363 . S
C320 H336 0.904 1_455 S
C321 C320 1.370 . S
C321 C325 1.408 . S
C322 C320 1.363 . S
C322 C323 1.370 . S
C322 C326 1.524 . S
C323 C315 1.503 . S
C323 C322 1.370 . S
C323 C324 1.403 . S
C324 C323 1.403 . S
C324 C325 1.404 . S
C324 C327 1.539 . S
C325 C321 1.408 . S
C325 C324 1.404 . S
C325 H337 0.930 . S
C326 C322 1.524 . S
C326 H338 0.956 . S
C326 H339 0.961 . S
C326 H340 0.961 1_455 S
C327 C324 1.539 . S
C327 H341 0.958 . S
C327 H342 0.961 . S
C327 H343 0.960 . S
H328 C312 0.931 . S
H329 C317 0.929 . S
H330 C318 0.960 . S
H331 C318 0.962 . S
H332 C318 0.960 . S
H333 C319 0.961 . S
H334 C319 0.961 . S
H335 C319 0.961 . S
H336 C320 0.904 1_655 S
H337 C325 0.930 . S
H338 C326 0.956 . S
H339 C326 0.961 . S
H340 C326 0.961 1_655 S
H341 C327 0.958 . S
H342 C327 0.961 . S
H343 C327 0.960 . S
C344 C345 1.391 . S
C344 C346 1.394 . S
C344 H360 0.931 . S
C345 C344 1.391 . S
C345 C349 1.376 . S
C346 C344 1.394 . S
C346 C347 1.369 . S
C346 C350 1.531 . S
C347 C346 1.369 . S
C347 C348 1.410 . S
C347 C355 1.503 . S
C348 C347 1.410 . S
C348 C349 1.392 . S
C348 C351 1.511 . S
C349 C345 1.376 . S
C349 C348 1.392 . S
C349 H361 0.929 . S
C350 C346 1.531 . S
C350 H362 0.960 . S
C350 H363 0.962 . S
C350 H364 0.960 . S
C351 C348 1.511 . S
C351 H365 0.961 . S
C351 H366 0.961 . S
C351 H367 0.961 . S
C352 C353 1.370 . S
C352 C354 1.363 . S
C352 H368 0.931 . S
C353 C352 1.370 . S
C353 C357 1.408 . S
C354 C352 1.363 . S
C354 C355 1.370 . S
C354 C358 1.524 . S
C355 C347 1.503 . S
C355 C354 1.370 . S
C355 C356 1.403 . S
C356 C355 1.403 . S
C356 C357 1.404 . S
C356 C359 1.539 . S
C357 C353 1.408 . S
C357 C356 1.404 . S
C357 H369 0.930 . S
C358 C354 1.524 . S
C358 H370 0.956 . S
C358 H371 0.961 . S
C358 H372 0.961 . S
C359 C356 1.539 . S
C359 H373 0.958 . S
C359 H374 0.961 . S
C359 H375 0.960 . S
H360 C344 0.931 . S
H361 C349 0.929 . S
H362 C350 0.960 . S
H363 C350 0.962 . S
H364 C350 0.960 . S
H365 C351 0.961 . S
H366 C351 0.961 . S
H367 C351 0.961 . S
H368 C352 0.931 . S
H369 C357 0.930 . S
H370 C358 0.956 . S
H371 C358 0.961 . S
H372 C358 0.961 . S
H373 C359 0.958 . S
H374 C359 0.961 . S
H375 C359 0.960 . S
C376 C377 1.391 . S
C376 C378 1.394 . S
C376 H392 0.931 . S
C377 C376 1.391 . S
C377 C381 1.376 . S
C378 C376 1.394 . S
C378 C379 1.369 . S
C378 C382 1.531 . S
C379 C378 1.369 . S
C379 C380 1.410 . S
C379 C387 1.503 . S
C380 C379 1.410 . S
C380 C381 1.392 . S
C380 C383 1.511 . S
C381 C377 1.376 . S
C381 C380 1.392 . S
C381 H393 0.929 . S
C382 C378 1.531 . S
C382 H394 0.960 . S
C382 H395 0.962 . S
C382 H396 0.960 . S
C383 C380 1.511 . S
C383 H397 0.961 . S
C383 H398 0.961 . S
C383 H399 0.961 . S
C384 C385 1.370 . S
C384 C386 1.363 . S
C384 H400 0.931 . S
C385 C384 1.370 . S
C385 C389 1.408 . S
C386 C384 1.363 . S
C386 C387 1.370 . S
C386 C390 1.524 . S
C387 C379 1.503 . S
C387 C386 1.370 . S
C387 C388 1.403 . S
C388 C387 1.403 . S
C388 C389 1.404 . S
C388 C391 1.539 . S
C389 C385 1.408 . S
C389 C388 1.404 . S
C389 H401 0.930 . S
C390 C386 1.524 . S
C390 H402 0.956 . S
C390 H403 0.961 . S
C390 H404 0.961 . S
C391 C388 1.539 . S
C391 H405 0.958 . S
C391 H406 0.961 . S
C391 H407 0.960 . S
H392 C376 0.931 . S
H393 C381 0.929 . S
H394 C382 0.960 . S
H395 C382 0.962 . S
H396 C382 0.960 . S
H397 C383 0.961 . S
H398 C383 0.961 . S
H399 C383 0.961 . S
H400 C384 0.931 . S
H401 C389 0.930 . S
H402 C390 0.956 . S
H403 C390 0.961 . S
H404 C390 0.961 . S
H405 C391 0.958 . S
H406 C391 0.961 . S
H407 C391 0.960 . S
C408 C409 1.391 . S
C408 C410 1.394 . S
C408 H424 0.931 . S
C409 C408 1.391 . S
C409 C413 1.376 . S
C410 C408 1.394 . S
C410 C411 1.369 . S
C410 C414 1.531 . S
C411 C410 1.369 . S
C411 C412 1.410 . S
C411 C419 1.503 . S
C412 C411 1.410 . S
C412 C413 1.392 . S
C412 C415 1.511 . S
C413 C409 1.376 . S
C413 C412 1.392 . S
C413 H425 0.929 . S
C414 C410 1.531 . S
C414 H426 0.960 . S
C414 H427 0.962 . S
C414 H428 0.960 . S
C415 C412 1.511 . S
C415 H429 0.961 . S
C415 H430 0.961 . S
C415 H431 0.961 . S
C416 C417 1.370 . S
C416 C418 1.363 . S
C416 H432 0.931 . S
C417 C416 1.370 . S
C417 C421 1.408 . S
C418 C416 1.363 . S
C418 C419 1.370 . S
C418 C422 1.524 . S
C419 C411 1.503 . S
C419 C418 1.370 . S
C419 C420 1.403 . S
C420 C419 1.403 . S
C420 C421 1.404 . S
C420 C423 1.539 . S
C421 C417 1.408 . S
C421 C420 1.404 . S
C421 H433 0.930 . S
C422 C418 1.524 . S
C422 H434 0.956 . S
C422 H435 0.961 . S
C422 H436 0.961 . S
C423 C420 1.539 . S
C423 H437 0.958 . S
C423 H438 0.961 . S
C423 H439 0.960 . S
H424 C408 0.931 . S
H425 C413 0.929 . S
H426 C414 0.960 . S
H427 C414 0.962 . S
H428 C414 0.960 . S
H429 C415 0.961 . S
H430 C415 0.961 . S
H431 C415 0.961 . S
H432 C416 0.931 . S
H433 C421 0.930 . S
H434 C422 0.956 . S
H435 C422 0.961 . S
H436 C422 0.961 . S
H437 C423 0.958 . S
H438 C423 0.961 . S
H439 C423 0.960 . S
C440 C441 1.391 . S
C440 C442 1.394 . S
C440 H456 0.931 . S
C441 C440 1.391 . S
C441 C445 1.376 . S
C442 C440 1.394 . S
C442 C443 1.369 . S
C442 C446 1.531 . S
C443 C442 1.369 . S
C443 C444 1.410 . S
C443 C451 1.503 . S
C444 C443 1.410 . S
C444 C445 1.392 . S
C444 C447 1.511 . S
C445 C441 1.376 . S
C445 C444 1.392 . S
C445 H457 0.929 . S
C446 C442 1.531 . S
C446 H458 0.960 . S
C446 H459 0.962 . S
C446 H460 0.960 . S
C447 C444 1.511 . S
C447 H461 0.961 . S
C447 H462 0.961 . S
C447 H463 0.961 . S
C448 C449 1.370 . S
C448 C450 1.363 . S
C448 H464 0.931 . S
C449 C448 1.370 . S
C449 C453 1.408 . S
C450 C448 1.363 . S
C450 C451 1.370 . S
C450 C454 1.524 . S
C451 C443 1.503 . S
C451 C450 1.370 . S
C451 C452 1.403 . S
C452 C451 1.403 . S
C452 C453 1.404 . S
C452 C455 1.539 . S
C453 C449 1.408 . S
C453 C452 1.404 . S
C453 H465 0.930 . S
C454 C450 1.524 . S
C454 H466 0.956 . S
C454 H467 0.961 . S
C454 H468 0.961 . S
C455 C452 1.539 . S
C455 H469 0.958 . S
C455 H470 0.961 . S
C455 H471 0.960 . S
H456 C440 0.931 . S
H457 C445 0.929 . S
H458 C446 0.960 . S
H459 C446 0.962 . S
H460 C446 0.960 . S
H461 C447 0.961 . S
H462 C447 0.961 . S
H463 C447 0.961 . S
H464 C448 0.931 . S
H465 C453 0.930 . S
H466 C454 0.956 . S
H467 C454 0.961 . S
H468 C454 0.961 . S
H469 C455 0.958 . S
H470 C455 0.961 . S
H471 C455 0.960 . S
C472 C473 1.391 . S
C472 C474 1.394 . S
C472 H488 0.931 . S
C473 C472 1.391 . S
C473 C477 1.376 . S
C474 C472 1.394 . S
C474 C475 1.369 . S
C474 C478 1.531 . S
C475 C474 1.369 . S
C475 C476 1.410 . S
C475 C483 1.503 . S
C476 C475 1.410 . S
C476 C477 1.392 . S
C476 C479 1.511 . S
C477 C473 1.376 . S
C477 C476 1.392 . S
C477 H489 0.929 . S
C478 C474 1.531 . S
C478 H490 0.960 . S
C478 H491 0.962 . S
C478 H492 0.960 . S
C479 C476 1.511 . S
C479 H493 0.961 . S
C479 H494 0.961 . S
C479 H495 0.961 . S
C480 C481 1.370 . S
C480 C482 1.363 . S
C480 H496 0.931 . S
C481 C480 1.370 . S
C481 C485 1.408 . S
C482 C480 1.363 . S
C482 C483 1.370 . S
C482 C486 1.524 . S
C483 C475 1.503 . S
C483 C482 1.370 . S
C483 C484 1.403 . S
C484 C483 1.403 . S
C484 C485 1.404 . S
C484 C487 1.539 . S
C485 C481 1.408 . S
C485 C484 1.404 . S
C485 H497 0.930 . S
C486 C482 1.524 . S
C486 H498 0.956 . S
C486 H499 0.961 . S
C486 H500 0.961 . S
C487 C484 1.539 . S
C487 H501 0.958 . S
C487 H502 0.961 . S
C487 H503 0.960 . S
H488 C472 0.931 . S
H489 C477 0.929 . S
H490 C478 0.960 . S
H491 C478 0.962 . S
H492 C478 0.960 . S
H493 C479 0.961 . S
H494 C479 0.961 . S
H495 C479 0.961 . S
H496 C480 0.931 . S
H497 C485 0.930 . S
H498 C486 0.956 . S
H499 C486 0.961 . S
H500 C486 0.961 . S
H501 C487 0.958 . S
H502 C487 0.961 . S
H503 C487 0.960 . S
C504 C505 1.391 . S
C504 C506 1.394 . S
C504 H520 0.931 . S
C505 C504 1.391 . S
C505 C509 1.376 . S
C506 C504 1.394 . S
C506 C507 1.369 . S
C506 C510 1.531 . S
C507 C506 1.369 . S
C507 C508 1.410 . S
C507 C515 1.503 . S
C508 C507 1.410 . S
C508 C509 1.392 . S
C508 C511 1.511 . S
C509 C505 1.376 . S
C509 C508 1.392 . S
C509 H521 0.929 . S
C510 C506 1.531 . S
C510 H522 0.960 . S
C510 H523 0.962 . S
C510 H524 0.960 . S
C511 C508 1.511 . S
C511 H525 0.961 . S
C511 H526 0.961 . S
C511 H527 0.961 . S
C512 C513 1.370 . S
C512 C514 1.363 . S
C512 H528 0.931 . S
C513 C512 1.370 . S
C513 C517 1.408 . S
C514 C512 1.363 . S
C514 C515 1.370 . S
C514 C518 1.524 . S
C515 C507 1.503 . S
C515 C514 1.370 . S
C515 C516 1.403 . S
C516 C515 1.403 . S
C516 C517 1.404 . S
C516 C519 1.539 . S
C517 C513 1.408 . S
C517 C516 1.404 . S
C517 H529 0.930 . S
C518 C514 1.524 . S
C518 H530 0.956 . S
C518 H531 0.961 . S
C518 H532 0.961 . S
C519 C516 1.539 . S
C519 H533 0.958 . S
C519 H534 0.961 . S
C519 H535 0.960 . S
H520 C504 0.931 . S
H521 C509 0.929 . S
H522 C510 0.960 . S
H523 C510 0.962 . S
H524 C510 0.960 . S
H525 C511 0.961 . S
H526 C511 0.961 . S
H527 C511 0.961 . S
H528 C512 0.931 . S
H529 C517 0.930 . S
H530 C518 0.956 . S
H531 C518 0.961 . S
H532 C518 0.961 . S
H533 C519 0.958 . S
H534 C519 0.961 . S
H535 C519 0.960 . S
C536 C537 1.391 . S
C536 C538 1.394 . S
C536 H552 0.931 . S
C537 C536 1.391 . S
C537 C541 1.376 . S
C538 C536 1.394 . S
C538 C539 1.369 . S
C538 C542 1.531 . S
C539 C538 1.369 . S
C539 C540 1.410 . S
C539 C547 1.503 . S
C540 C539 1.410 . S
C540 C541 1.392 . S
C540 C543 1.511 . S
C541 C537 1.376 . S
C541 C540 1.392 . S
C541 H553 0.929 . S
C542 C538 1.531 . S
C542 H554 0.960 1_556 S
C542 H555 0.962 . S
C542 H556 0.960 1_556 S
C543 C540 1.511 . S
C543 H557 0.961 . S
C543 H558 0.961 . S
C543 H559 0.961 . S
C544 C545 1.370 . S
C544 C546 1.363 . S
C544 H560 0.931 . S
C545 C544 1.370 . S
C545 C549 1.408 . S
C546 C544 1.363 . S
C546 C547 1.370 . S
C546 C550 1.524 . S
C547 C539 1.503 . S
C547 C546 1.370 . S
C547 C548 1.403 . S
C548 C547 1.403 . S
C548 C549 1.404 . S
C548 C551 1.539 . S
C549 C545 1.408 . S
C549 C548 1.404 . S
C549 H561 0.930 . S
C550 C546 1.524 . S
C550 H562 0.956 . S
C550 H563 0.961 . S
C550 H564 0.961 . S
C551 C548 1.539 . S
C551 H565 0.958 . S
C551 H566 0.961 . S
C551 H567 0.960 . S
H552 C536 0.931 . S
H553 C541 0.929 . S
H554 C542 0.960 1_554 S
H555 C542 0.962 . S
H556 C542 0.960 1_554 S
H557 C543 0.961 . S
H558 C543 0.961 . S
H559 C543 0.961 . S
H560 C544 0.931 . S
H561 C549 0.930 . S
H562 C550 0.956 . S
H563 C550 0.961 . S
H564 C550 0.961 . S
H565 C551 0.958 . S
H566 C551 0.961 . S
H567 C551 0.960 . S
C568 C569 1.391 . S
C568 C570 1.394 . S
C568 H584 0.931 . S
C569 C568 1.391 . S
C569 C573 1.376 . S
C570 C568 1.394 . S
C570 C571 1.369 . S
C570 C574 1.531 . S
C571 C570 1.369 . S
C571 C572 1.410 . S
C571 C579 1.503 . S
C572 C571 1.410 . S
C572 C573 1.392 . S
C572 C575 1.511 . S
C573 C569 1.376 . S
C573 C572 1.392 . S
C573 H585 0.929 . S
C574 C570 1.531 . S
C574 H586 0.960 . S
C574 H587 0.962 . S
C574 H588 0.960 . S
C575 C572 1.511 . S
C575 H589 0.961 . S
C575 H590 0.961 . S
C575 H591 0.961 . S
C576 C577 1.370 . S
C576 C578 1.363 . S
C576 H592 0.931 . S
C577 C576 1.370 . S
C577 C581 1.408 . S
C578 C576 1.363 . S
C578 C579 1.370 . S
C578 C582 1.524 . S
C579 C571 1.503 . S
C579 C578 1.370 . S
C579 C580 1.403 . S
C580 C579 1.403 . S
C580 C581 1.404 . S
C580 C583 1.539 . S
C581 C577 1.408 . S
C581 C580 1.404 . S
C581 H593 0.930 . S
C582 C578 1.524 . S
C582 H594 0.956 . S
C582 H595 0.961 . S
C582 H596 0.961 . S
C583 C580 1.539 . S
C583 H597 0.958 1_545 S
C583 H598 0.961 . S
C583 H599 0.960 . S
H584 C568 0.931 . S
H585 C573 0.929 . S
H586 C574 0.960 . S
H587 C574 0.962 . S
H588 C574 0.960 . S
H589 C575 0.961 . S
H590 C575 0.961 . S
H591 C575 0.961 . S
H592 C576 0.931 . S
H593 C581 0.930 . S
H594 C582 0.956 . S
H595 C582 0.961 . S
H596 C582 0.961 . S
H597 C583 0.958 1_565 S
H598 C583 0.961 . S
H599 C583 0.960 . S
C600 C601 1.391 . S
C600 C602 1.394 . S
C600 H616 0.931 . S
C601 C600 1.391 . S
C601 C605 1.376 . S
C602 C600 1.394 . S
C602 C603 1.369 . S
C602 C606 1.531 . S
C603 C602 1.369 . S
C603 C604 1.410 . S
C603 C611 1.503 . S
C604 C603 1.410 . S
C604 C605 1.392 . S
C604 C607 1.511 . S
C605 C601 1.376 . S
C605 C604 1.392 . S
C605 H617 0.929 . S
C606 C602 1.531 . S
C606 H618 0.960 . S
C606 H619 0.962 . S
C606 H620 0.960 1_545 S
C607 C604 1.511 . S
C607 H621 0.961 . S
C607 H622 0.961 . S
C607 H623 0.961 . S
C608 C609 1.370 . S
C608 C610 1.363 . S
C608 H624 0.931 . S
C609 C608 1.370 . S
C609 C613 1.408 . S
C610 C608 1.363 . S
C610 C611 1.370 . S
C610 C614 1.524 . S
C611 C603 1.503 . S
C611 C610 1.370 . S
C611 C612 1.403 . S
C612 C611 1.403 . S
C612 C613 1.404 . S
C612 C615 1.539 . S
C613 C609 1.408 . S
C613 C612 1.404 . S
C613 H625 0.930 . S
C614 C610 1.524 . S
C614 H626 0.956 . S
C614 H627 0.961 . S
C614 H628 0.961 . S
C615 C612 1.539 . S
C615 H629 0.958 . S
C615 H630 0.961 . S
C615 H631 0.960 . S
H616 C600 0.931 . S
H617 C605 0.929 . S
H618 C606 0.960 . S
H619 C606 0.962 . S
H620 C606 0.960 1_565 S
H621 C607 0.961 . S
H622 C607 0.961 . S
H623 C607 0.961 . S
H624 C608 0.931 . S
H625 C613 0.930 . S
H626 C614 0.956 . S
H627 C614 0.961 . S
H628 C614 0.961 . S
H629 C615 0.958 . S
H630 C615 0.961 . S
H631 C615 0.960 . S
C632 C633 1.391 . S
C632 C634 1.394 . S
C632 H648 0.931 . S
C633 C632 1.391 . S
C633 C637 1.376 . S
C634 C632 1.394 . S
C634 C635 1.369 . S
C634 C638 1.531 . S
C635 C634 1.369 . S
C635 C636 1.410 . S
C635 C643 1.503 . S
C636 C635 1.410 . S
C636 C637 1.392 . S
C636 C639 1.511 . S
C637 C633 1.376 . S
C637 C636 1.392 . S
C637 H649 0.929 1_565 S
C638 C634 1.531 . S
C638 H650 0.960 . S
C638 H651 0.962 . S
C638 H652 0.960 . S
C639 C636 1.511 . S
C639 H653 0.961 1_565 S
C639 H654 0.961 . S
C639 H655 0.961 . S
C640 C641 1.370 . S
C640 C642 1.363 . S
C640 H656 0.931 . S
C641 C640 1.370 . S
C641 C645 1.408 . S
C642 C640 1.363 . S
C642 C643 1.370 . S
C642 C646 1.524 . S
C643 C635 1.503 . S
C643 C642 1.370 . S
C643 C644 1.403 . S
C644 C643 1.403 . S
C644 C645 1.404 . S
C644 C647 1.539 . S
C645 C641 1.408 . S
C645 C644 1.404 . S
C645 H657 0.930 . S
C646 C642 1.524 . S
C646 H658 0.956 . S
C646 H659 0.961 . S
C646 H660 0.961 . S
C647 C644 1.539 . S
C647 H661 0.958 . S
C647 H662 0.961 . S
C647 H663 0.960 . S
H648 C632 0.931 . S
H649 C637 0.929 1_545 S
H650 C638 0.960 . S
H651 C638 0.962 . S
H652 C638 0.960 . S
H653 C639 0.961 1_545 S
H654 C639 0.961 . S
H655 C639 0.961 . S
H656 C640 0.931 . S
H657 C645 0.930 . S
H658 C646 0.956 . S
H659 C646 0.961 . S
H660 C646 0.961 . S
H661 C647 0.958 . S
H662 C647 0.961 . S
H663 C647 0.960 . S
C664 C665 1.391 . S
C664 C666 1.394 . S
C664 H680 0.931 . S
C665 C664 1.391 . S
C665 C669 1.376 . S
C666 C664 1.394 . S
C666 C667 1.369 . S
C666 C670 1.531 . S
C667 C666 1.369 . S
C667 C668 1.410 . S
C667 C675 1.503 . S
C668 C667 1.410 . S
C668 C669 1.392 . S
C668 C671 1.511 . S
C669 C665 1.376 . S
C669 C668 1.392 . S
C669 H681 0.929 . S
C670 C666 1.531 . S
C670 H682 0.960 . S
C670 H683 0.962 . S
C670 H684 0.960 . S
C671 C668 1.511 . S
C671 H685 0.961 . S
C671 H686 0.961 . S
C671 H687 0.961 . S
C672 C673 1.370 . S
C672 C674 1.363 . S
C672 H688 0.931 1_565 S
C673 C672 1.370 . S
C673 C677 1.408 . S
C674 C672 1.363 . S
C674 C675 1.370 . S
C674 C678 1.524 . S
C675 C667 1.503 . S
C675 C674 1.370 . S
C675 C676 1.403 . S
C676 C675 1.403 . S
C676 C677 1.404 . S
C676 C679 1.539 . S
C677 C673 1.408 . S
C677 C676 1.404 . S
C677 H689 0.930 . S
C678 C674 1.524 . S
C678 H690 0.956 1_565 S
C678 H691 0.961 . S
C678 H692 0.961 1_565 S
C679 C676 1.539 . S
C679 H693 0.958 . S
C679 H694 0.961 . S
C679 H695 0.960 . S
H680 C664 0.931 . S
H681 C669 0.929 . S
H682 C670 0.960 . S
H683 C670 0.962 . S
H684 C670 0.960 . S
H685 C671 0.961 . S
H686 C671 0.961 . S
H687 C671 0.961 . S
H688 C672 0.931 1_545 S
H689 C677 0.930 . S
H690 C678 0.956 1_545 S
H691 C678 0.961 . S
H692 C678 0.961 1_545 S
H693 C679 0.958 . S
H694 C679 0.961 . S
H695 C679 0.960 . S
C696 C697 1.391 . S
C696 C698 1.394 . S
C696 H712 0.931 . S
C697 C696 1.391 . S
C697 C701 1.376 . S
C698 C696 1.394 . S
C698 C699 1.369 . S
C698 C702 1.531 . S
C699 C698 1.369 . S
C699 C700 1.410 . S
C699 C707 1.503 . S
C700 C699 1.410 . S
C700 C701 1.392 . S
C700 C703 1.511 . S
C701 C697 1.376 . S
C701 C700 1.392 . S
C701 H713 0.929 . S
C702 C698 1.531 . S
C702 H714 0.960 . S
C702 H715 0.962 . S
C702 H716 0.960 . S
C703 C700 1.511 . S
C703 H717 0.961 . S
C703 H718 0.961 . S
C703 H719 0.961 . S
C704 C705 1.370 . S
C704 C706 1.363 . S
C704 H720 0.931 . S
C705 C704 1.370 . S
C705 C709 1.408 . S
C706 C704 1.363 . S
C706 C707 1.370 . S
C706 C710 1.524 . S
C707 C699 1.503 . S
C707 C706 1.370 . S
C707 C708 1.403 . S
C708 C707 1.403 . S
C708 C709 1.404 . S
C708 C711 1.539 . S
C709 C705 1.408 . S
C709 C708 1.404 . S
C709 H721 0.930 . S
C710 C706 1.524 . S
C710 H722 0.956 . S
C710 H723 0.961 . S
C710 H724 0.961 . S
C711 C708 1.539 . S
C711 H725 0.958 . S
C711 H726 0.961 . S
C711 H727 0.960 . S
H712 C696 0.931 . S
H713 C701 0.929 . S
H714 C702 0.960 . S
H715 C702 0.962 . S
H716 C702 0.960 . S
H717 C703 0.961 . S
H718 C703 0.961 . S
H719 C703 0.961 . S
H720 C704 0.931 . S
H721 C709 0.930 . S
H722 C710 0.956 . S
H723 C710 0.961 . S
H724 C710 0.961 . S
H725 C711 0.958 . S
H726 C711 0.961 . S
H727 C711 0.960 . S
C728 C729 1.391 . S
C728 C730 1.394 . S
C728 H744 0.931 . S
C729 C728 1.391 . S
C729 C733 1.376 . S
C730 C728 1.394 . S
C730 C731 1.369 . S
C730 C734 1.531 . S
C731 C730 1.369 . S
C731 C732 1.410 . S
C731 C739 1.503 . S
C732 C731 1.410 . S
C732 C733 1.392 . S
C732 C735 1.511 . S
C733 C729 1.376 . S
C733 C732 1.392 . S
C733 H745 0.929 . S
C734 C730 1.531 . S
C734 H746 0.960 . S
C734 H747 0.962 . S
C734 H748 0.960 . S
C735 C732 1.511 . S
C735 H749 0.961 . S
C735 H750 0.961 . S
C735 H751 0.961 . S
C736 C737 1.370 . S
C736 C738 1.363 . S
C736 H752 0.931 . S
C737 C736 1.370 . S
C737 C741 1.408 . S
C738 C736 1.363 . S
C738 C739 1.370 . S
C738 C742 1.524 . S
C739 C731 1.503 . S
C739 C738 1.370 . S
C739 C740 1.403 . S
C740 C739 1.403 . S
C740 C741 1.404 . S
C740 C743 1.539 . S
C741 C737 1.408 . S
C741 C740 1.404 . S
C741 H753 0.930 . S
C742 C738 1.524 . S
C742 H754 0.956 . S
C742 H755 0.961 . S
C742 H756 0.961 . S
C743 C740 1.539 . S
C743 H757 0.958 . S
C743 H758 0.961 . S
C743 H759 0.960 . S
H744 C728 0.931 . S
H745 C733 0.929 . S
H746 C734 0.960 . S
H747 C734 0.962 . S
H748 C734 0.960 . S
H749 C735 0.961 . S
H750 C735 0.961 . S
H751 C735 0.961 . S
H752 C736 0.931 . S
H753 C741 0.930 . S
H754 C742 0.956 . S
H755 C742 0.961 . S
H756 C742 0.961 . S
H757 C743 0.958 . S
H758 C743 0.961 . S
H759 C743 0.960 . S
C760 C761 1.391 . S
C760 C762 1.394 . S
C760 H776 0.931 . S
C761 C760 1.391 . S
C761 C765 1.376 . S
C762 C760 1.394 . S
C762 C763 1.369 . S
C762 C766 1.531 . S
C763 C762 1.369 . S
C763 C764 1.410 . S
C763 C771 1.503 . S
C764 C763 1.410 . S
C764 C765 1.392 . S
C764 C767 1.511 . S
C765 C761 1.376 . S
C765 C764 1.392 . S
C765 H777 0.929 . S
C766 C762 1.531 . S
C766 H778 0.960 . S
C766 H779 0.962 . S
C766 H780 0.960 . S
C767 C764 1.511 . S
C767 H781 0.961 . S
C767 H782 0.961 . S
C767 H783 0.961 . S
C768 C769 1.370 . S
C768 C770 1.363 . S
C768 H784 0.931 . S
C769 C768 1.370 . S
C769 C773 1.408 . S
C770 C768 1.363 . S
C770 C771 1.370 . S
C770 C774 1.524 . S
C771 C763 1.503 . S
C771 C770 1.370 . S
C771 C772 1.403 . S
C772 C771 1.403 . S
C772 C773 1.404 . S
C772 C775 1.539 . S
C773 C769 1.408 . S
C773 C772 1.404 . S
C773 H785 0.930 . S
C774 C770 1.524 . S
C774 H786 0.956 . S
C774 H787 0.961 . S
C774 H788 0.961 . S
C775 C772 1.539 . S
C775 H789 0.958 . S
C775 H790 0.961 . S
C775 H791 0.960 . S
H776 C760 0.931 . S
H777 C765 0.929 . S
H778 C766 0.960 . S
H779 C766 0.962 . S
H780 C766 0.960 . S
H781 C767 0.961 . S
H782 C767 0.961 . S
H783 C767 0.961 . S
H784 C768 0.931 . S
H785 C773 0.930 . S
H786 C774 0.956 . S
H787 C774 0.961 . S
H788 C774 0.961 . S
H789 C775 0.958 . S
H790 C775 0.961 . S
H791 C775 0.960 . S
C792 C793 1.391 . S
C792 C794 1.394 . S
C792 H808 0.931 . S
C793 C792 1.391 . S
C793 C797 1.376 . S
C794 C792 1.394 . S
C794 C795 1.369 . S
C794 C798 1.531 . S
C795 C794 1.369 . S
C795 C796 1.410 . S
C795 C803 1.503 . S
C796 C795 1.410 . S
C796 C797 1.392 . S
C796 C799 1.511 . S
C797 C793 1.376 . S
C797 C796 1.392 . S
C797 H809 0.929 1_655 S
C798 C794 1.531 . S
C798 H810 0.960 . S
C798 H811 0.962 . S
C798 H812 0.960 . S
C799 C796 1.511 . S
C799 H813 0.961 1_655 S
C799 H814 0.961 . S
C799 H815 0.961 . S
C800 C801 1.370 . S
C800 C802 1.363 . S
C800 H816 0.931 . S
C801 C800 1.370 . S
C801 C805 1.408 . S
C802 C800 1.363 . S
C802 C803 1.370 . S
C802 C806 1.524 . S
C803 C795 1.503 . S
C803 C802 1.370 . S
C803 C804 1.403 . S
C804 C803 1.403 . S
C804 C805 1.404 . S
C804 C807 1.539 . S
C805 C801 1.408 . S
C805 C804 1.404 . S
C805 H817 0.930 . S
C806 C802 1.524 . S
C806 H818 0.956 . S
C806 H819 0.961 . S
C806 H820 0.961 . S
C807 C804 1.539 . S
C807 H821 0.958 . S
C807 H822 0.961 . S
C807 H823 0.960 . S
H808 C792 0.931 . S
H809 C797 0.929 1_455 S
H810 C798 0.960 . S
H811 C798 0.962 . S
H812 C798 0.960 . S
H813 C799 0.961 1_455 S
H814 C799 0.961 . S
H815 C799 0.961 . S
H816 C800 0.931 . S
H817 C805 0.930 . S
H818 C806 0.956 . S
H819 C806 0.961 . S
H820 C806 0.961 . S
H821 C807 0.958 . S
H822 C807 0.961 . S
H823 C807 0.960 . S
C824 C825 1.391 . S
C824 C826 1.394 . S
C824 H840 0.931 . S
C825 C824 1.391 . S
C825 C829 1.376 . S
C826 C824 1.394 . S
C826 C827 1.369 . S
C826 C830 1.531 . S
C827 C826 1.369 . S
C827 C828 1.410 . S
C827 C835 1.503 . S
C828 C827 1.410 . S
C828 C829 1.392 . S
C828 C831 1.511 . S
C829 C825 1.376 . S
C829 C828 1.392 . S
C829 H841 0.929 . S
C830 C826 1.531 . S
C830 H842 0.960 . S
C830 H843 0.962 . S
C830 H844 0.960 . S
C831 C828 1.511 . S
C831 H845 0.961 . S
C831 H846 0.961 . S
C831 H847 0.961 . S
C832 C833 1.370 . S
C832 C834 1.363 . S
C832 H848 0.931 . S
C833 C832 1.370 . S
C833 C837 1.408 . S
C834 C832 1.363 . S
C834 C835 1.370 . S
C834 C838 1.524 . S
C835 C827 1.503 . S
C835 C834 1.370 . S
C835 C836 1.403 . S
C836 C835 1.403 . S
C836 C837 1.404 . S
C836 C839 1.539 . S
C837 C833 1.408 . S
C837 C836 1.404 . S
C837 H849 0.930 . S
C838 C834 1.524 . S
C838 H850 0.956 . S
C838 H851 0.961 . S
C838 H852 0.961 . S
C839 C836 1.539 . S
C839 H853 0.958 . S
C839 H854 0.961 . S
C839 H855 0.960 . S
H840 C824 0.931 . S
H841 C829 0.929 . S
H842 C830 0.960 . S
H843 C830 0.962 . S
H844 C830 0.960 . S
H845 C831 0.961 . S
H846 C831 0.961 . S
H847 C831 0.961 . S
H848 C832 0.931 . S
H849 C837 0.930 . S
H850 C838 0.956 . S
H851 C838 0.961 . S
H852 C838 0.961 . S
H853 C839 0.958 . S
H854 C839 0.961 . S
H855 C839 0.960 . S
C856 C857 1.391 . S
C856 C858 1.394 . S
C856 H872 0.931 . S
C857 C856 1.391 . S
C857 C861 1.376 . S
C858 C856 1.394 . S
C858 C859 1.369 . S
C858 C862 1.531 . S
C859 C858 1.369 . S
C859 C860 1.410 . S
C859 C867 1.503 . S
C860 C859 1.410 . S
C860 C861 1.392 . S
C860 C863 1.511 . S
C861 C857 1.376 . S
C861 C860 1.392 . S
C861 H873 0.929 . S
C862 C858 1.531 . S
C862 H874 0.960 . S
C862 H875 0.962 . S
C862 H876 0.960 . S
C863 C860 1.511 . S
C863 H877 0.961 . S
C863 H878 0.961 . S
C863 H879 0.961 . S
C864 C865 1.370 . S
C864 C866 1.363 . S
C864 H880 0.931 . S
C865 C864 1.370 . S
C865 C869 1.408 . S
C866 C864 1.363 . S
C866 C867 1.370 . S
C866 C870 1.524 . S
C867 C859 1.503 . S
C867 C866 1.370 . S
C867 C868 1.403 . S
C868 C867 1.403 . S
C868 C869 1.404 . S
C868 C871 1.539 . S
C869 C865 1.408 . S
C869 C868 1.404 . S
C869 H881 0.930 . S
C870 C866 1.524 . S
C870 H882 0.956 . S
C870 H883 0.961 . S
C870 H884 0.961 . S
C871 C868 1.539 . S
C871 H885 0.958 . S
C871 H886 0.961 . S
C871 H887 0.960 . S
H872 C856 0.931 . S
H873 C861 0.929 . S
H874 C862 0.960 . S
H875 C862 0.962 . S
H876 C862 0.960 . S
H877 C863 0.961 . S
H878 C863 0.961 . S
H879 C863 0.961 . S
H880 C864 0.931 . S
H881 C869 0.930 . S
H882 C870 0.956 . S
H883 C870 0.961 . S
H884 C870 0.961 . S
H885 C871 0.958 . S
H886 C871 0.961 . S
H887 C871 0.960 . S
C888 C889 1.391 . S
C888 C890 1.394 . S
C888 H904 0.931 . S
C889 C888 1.391 . S
C889 C893 1.376 . S
C890 C888 1.394 . S
C890 C891 1.369 . S
C890 C894 1.531 . S
C891 C890 1.369 . S
C891 C892 1.410 . S
C891 C899 1.503 . S
C892 C891 1.410 . S
C892 C893 1.392 . S
C892 C895 1.511 . S
C893 C889 1.376 . S
C893 C892 1.392 . S
C893 H905 0.929 . S
C894 C890 1.531 . S
C894 H906 0.960 . S
C894 H907 0.962 . S
C894 H908 0.960 . S
C895 C892 1.511 . S
C895 H909 0.961 . S
C895 H910 0.961 . S
C895 H911 0.961 . S
C896 C897 1.370 . S
C896 C898 1.363 . S
C896 H912 0.931 . S
C897 C896 1.370 . S
C897 C901 1.408 . S
C898 C896 1.363 . S
C898 C899 1.370 . S
C898 C902 1.524 . S
C899 C891 1.503 . S
C899 C898 1.370 . S
C899 C900 1.403 . S
C900 C899 1.403 . S
C900 C901 1.404 . S
C900 C903 1.539 . S
C901 C897 1.408 . S
C901 C900 1.404 . S
C901 H913 0.930 . S
C902 C898 1.524 . S
C902 H914 0.956 . S
C902 H915 0.961 . S
C902 H916 0.961 . S
C903 C900 1.539 . S
C903 H917 0.958 . S
C903 H918 0.961 . S
C903 H919 0.960 . S
H904 C888 0.931 . S
H905 C893 0.929 . S
H906 C894 0.960 . S
H907 C894 0.962 . S
H908 C894 0.960 . S
H909 C895 0.961 . S
H910 C895 0.961 . S
H911 C895 0.961 . S
H912 C896 0.931 . S
H913 C901 0.930 . S
H914 C902 0.956 . S
H915 C902 0.961 . S
H916 C902 0.961 . S
H917 C903 0.958 . S
H918 C903 0.961 . S
H919 C903 0.960 . S
C920 C921 1.391 . S
C920 C922 1.394 . S
C920 H936 0.931 . S
C921 C920 1.391 . S
C921 C925 1.376 . S
C922 C920 1.394 . S
C922 C923 1.369 . S
C922 C926 1.531 . S
C923 C922 1.369 . S
C923 C924 1.410 . S
C923 C931 1.503 . S
C924 C923 1.410 . S
C924 C925 1.392 . S
C924 C927 1.511 . S
C925 C921 1.376 . S
C925 C924 1.392 . S
C925 H937 0.929 . S
C926 C922 1.531 . S
C926 H938 0.960 . S
C926 H939 0.962 . S
C926 H940 0.960 . S
C927 C924 1.511 . S
C927 H941 0.961 . S
C927 H942 0.961 . S
C927 H943 0.961 . S
C928 C929 1.370 . S
C928 C930 1.363 . S
C928 H944 0.931 . S
C929 C928 1.370 . S
C929 C933 1.408 . S
C930 C928 1.363 . S
C930 C931 1.370 . S
C930 C934 1.524 . S
C931 C923 1.503 . S
C931 C930 1.370 . S
C931 C932 1.403 . S
C932 C931 1.403 . S
C932 C933 1.404 . S
C932 C935 1.539 1_655 S
C933 C929 1.408 . S
C933 C932 1.404 . S
C933 H945 0.930 1_655 S
C934 C930 1.524 . S
C934 H946 0.956 . S
C934 H947 0.961 . S
C934 H948 0.961 . S
C935 C932 1.539 1_455 S
C935 H949 0.958 . S
C935 H950 0.961 . S
C935 H951 0.964 . S
H936 C920 0.931 . S
H937 C925 0.929 . S
H938 C926 0.960 . S
H939 C926 0.962 . S
H940 C926 0.960 . S
H941 C927 0.961 . S
H942 C927 0.961 . S
H943 C927 0.961 . S
H944 C928 0.931 . S
H945 C933 0.930 1_455 S
H946 C934 0.956 . S
H947 C934 0.961 . S
H948 C934 0.961 . S
H949 C935 0.958 . S
H950 C935 0.961 . S
H951 C935 0.964 . S
C952 C953 1.391 . S
C952 C954 1.394 . S
C952 H968 0.931 . S
C953 C952 1.391 . S
C953 C957 1.376 . S
C954 C952 1.394 . S
C954 C955 1.369 . S
C954 C958 1.531 . S
C955 C954 1.369 . S
C955 C956 1.410 . S
C955 C963 1.503 . S
C956 C955 1.410 . S
C956 C957 1.392 . S
C956 C959 1.511 . S
C957 C953 1.376 . S
C957 C956 1.392 . S
C957 H969 0.929 . S
C958 C954 1.531 . S
C958 H970 0.960 . S
C958 H971 0.962 . S
C958 H972 0.960 . S
C959 C956 1.511 . S
C959 H973 0.961 . S
C959 H974 0.961 . S
C959 H975 0.961 . S
C960 C961 1.370 . S
C960 C962 1.363 . S
C960 H976 0.931 . S
C961 C960 1.370 . S
C961 C965 1.408 . S
C962 C960 1.363 . S
C962 C963 1.370 . S
C962 C966 1.524 . S
C963 C955 1.503 . S
C963 C962 1.370 . S
C963 C964 1.403 . S
C964 C963 1.403 . S
C964 C965 1.404 . S
C964 C967 1.539 . S
C965 C961 1.408 . S
C965 C964 1.404 . S
C965 H977 0.930 . S
C966 C962 1.524 . S
C966 H978 0.956 . S
C966 H979 0.961 . S
C966 H980 0.961 . S
C967 C964 1.539 . S
C967 H981 0.958 . S
C967 H982 0.961 . S
C967 H983 0.960 . S
H968 C952 0.931 . S
H969 C957 0.929 . S
H970 C958 0.960 . S
H971 C958 0.962 . S
H972 C958 0.960 . S
H973 C959 0.961 . S
H974 C959 0.961 . S
H975 C959 0.961 . S
H976 C960 0.931 . S
H977 C965 0.930 . S
H978 C966 0.956 . S
H979 C966 0.961 . S
H980 C966 0.961 . S
H981 C967 0.958 . S
H982 C967 0.961 . S
H983 C967 0.960 . S
C984 C985 1.391 . S
C984 C986 1.394 . S
C984 H1000 0.931 . S
C985 C984 1.391 . S
C985 C989 1.376 . S
C986 C984 1.394 . S
C986 C987 1.369 . S
C986 C990 1.531 . S
C987 C986 1.369 . S
C987 C988 1.410 . S
C987 C995 1.503 . S
C988 C987 1.410 . S
C988 C989 1.392 . S
C988 C991 1.511 . S
C989 C985 1.376 . S
C989 C988 1.392 . S
C989 H1001 0.929 . S
C990 C986 1.531 . S
C990 H1002 0.960 . S
C990 H1003 0.962 . S
C990 H1004 0.960 . S
C991 C988 1.511 . S
C991 H1005 0.961 . S
C991 H1006 0.961 . S
C991 H1007 0.961 . S
C992 C993 1.370 . S
C992 C994 1.363 . S
C992 H1008 0.931 . S
C993 C992 1.370 . S
C993 C997 1.408 . S
C994 C992 1.363 . S
C994 C995 1.370 . S
C994 C998 1.524 . S
C995 C987 1.503 . S
C995 C994 1.370 . S
C995 C996 1.403 . S
C996 C995 1.403 . S
C996 C997 1.404 . S
C996 C999 1.539 . S
C997 C993 1.408 . S
C997 C996 1.404 . S
C997 H1009 0.930 . S
C998 C994 1.524 . S
C998 H1010 0.956 . S
C998 H1011 0.961 . S
C998 H1012 0.961 . S
C999 C996 1.539 . S
C999 H1013 0.958 . S
C999 H1014 0.961 . S
C999 H1015 0.960 . S
H1000 C984 0.931 . S
H1001 C989 0.929 . S
H1002 C990 0.960 . S
H1003 C990 0.962 . S
H1004 C990 0.960 . S
H1005 C991 0.961 . S
H1006 C991 0.961 . S
H1007 C991 0.961 . S
H1008 C992 0.931 . S
H1009 C997 0.930 . S
H1010 C998 0.956 . S
H1011 C998 0.961 . S
H1012 C998 0.961 . S
H1013 C999 0.958 . S
H1014 C999 0.961 . S
H1015 C999 0.960 . S
C1016 C1017 1.391 . S
C1016 C1018 1.394 . S
C1016 H1032 0.931 . S
C1017 C1016 1.391 . S
C1017 C1021 1.376 . S
C1018 C1016 1.394 . S
C1018 C1019 1.369 . S
C1018 C1022 1.531 . S
C1019 C1018 1.369 . S
C1019 C1020 1.410 . S
C1019 C1027 1.503 . S
C1020 C1019 1.410 . S
C1020 C1021 1.392 . S
C1020 C1023 1.511 . S
C1021 C1017 1.376 . S
C1021 C1020 1.392 . S
C1021 H1033 0.929 . S
C1022 C1018 1.531 . S
C1022 H1034 0.960 . S
C1022 H1035 0.962 . S
C1022 H1036 0.960 . S
C1023 C1020 1.511 . S
C1023 H1037 0.961 . S
C1023 H1038 0.961 . S
C1023 H1039 0.961 . S
C1024 C1025 1.370 . S
C1024 C1026 1.363 . S
C1024 H1040 0.931 . S
C1025 C1024 1.370 . S
C1025 C1029 1.408 . S
C1026 C1024 1.363 . S
C1026 C1027 1.370 . S
C1026 C1030 1.524 . S
C1027 C1019 1.503 . S
C1027 C1026 1.370 . S
C1027 C1028 1.403 . S
C1028 C1027 1.403 . S
C1028 C1029 1.404 . S
C1028 C1031 1.539 . S
C1029 C1025 1.408 . S
C1029 C1028 1.404 . S
C1029 H1041 0.930 . S
C1030 C1026 1.524 . S
C1030 H1042 0.956 . S
C1030 H1043 0.961 . S
C1030 H1044 0.961 . S
C1031 C1028 1.539 . S
C1031 H1045 0.958 . S
C1031 H1046 0.961 . S
C1031 H1047 0.960 . S
H1032 C1016 0.931 . S
H1033 C1021 0.929 . S
H1034 C1022 0.960 . S
H1035 C1022 0.962 . S
H1036 C1022 0.960 . S
H1037 C1023 0.961 . S
H1038 C1023 0.961 . S
H1039 C1023 0.961 . S
H1040 C1024 0.931 . S
H1041 C1029 0.930 . S
H1042 C1030 0.956 . S
H1043 C1030 0.961 . S
H1044 C1030 0.961 . S
H1045 C1031 0.958 . S
H1046 C1031 0.961 . S
H1047 C1031 0.960 . S
C1048 C1049 1.391 . S
C1048 C1050 1.394 . S
C1048 H1064 0.931 . S
C1049 C1048 1.391 . S
C1049 C1053 1.376 . S
C1050 C1048 1.394 . S
C1050 C1051 1.369 . S
C1050 C1054 1.531 . S
C1051 C1050 1.369 . S
C1051 C1052 1.410 . S
C1051 C1059 1.503 . S
C1052 C1051 1.410 . S
C1052 C1053 1.392 . S
C1052 C1055 1.511 . S
C1053 C1049 1.376 . S
C1053 C1052 1.392 . S
C1053 H1065 0.929 . S
C1054 C1050 1.531 . S
C1054 H1066 0.960 . S
C1054 H1067 0.962 . S
C1054 H1068 0.960 . S
C1055 C1052 1.511 . S
C1055 H1069 0.961 . S
C1055 H1070 0.961 . S
C1055 H1071 0.961 . S
C1056 C1057 1.370 . S
C1056 C1058 1.363 . S
C1056 H1072 0.931 . S
C1057 C1056 1.370 . S
C1057 C1061 1.408 . S
C1058 C1056 1.363 . S
C1058 C1059 1.370 . S
C1058 C1062 1.524 . S
C1059 C1051 1.503 . S
C1059 C1058 1.370 . S
C1059 C1060 1.403 . S
C1060 C1059 1.403 . S
C1060 C1061 1.404 . S
C1060 C1063 1.539 . S
C1061 C1057 1.408 . S
C1061 C1060 1.404 . S
C1061 H1073 0.930 . S
C1062 C1058 1.524 . S
C1062 H1074 0.956 . S
C1062 H1075 0.961 . S
C1062 H1076 0.961 . S
C1063 C1060 1.539 . S
C1063 H1077 0.958 . S
C1063 H1078 0.961 . S
C1063 H1079 0.960 . S
H1064 C1048 0.931 . S
H1065 C1053 0.929 . S
H1066 C1054 0.960 . S
H1067 C1054 0.962 . S
H1068 C1054 0.960 . S
H1069 C1055 0.961 . S
H1070 C1055 0.961 . S
H1071 C1055 0.961 . S
H1072 C1056 0.931 . S
H1073 C1061 0.930 . S
H1074 C1062 0.956 . S
H1075 C1062 0.961 . S
H1076 C1062 0.961 . S
H1077 C1063 0.958 . S
H1078 C1063 0.961 . S
H1079 C1063 0.960 . S
C1080 C1081 1.391 . S
C1080 C1082 1.394 . S
C1080 H1096 0.931 . S
C1081 C1080 1.391 . S
C1081 C1085 1.376 . S
C1082 C1080 1.394 . S
C1082 C1083 1.369 . S
C1082 C1086 1.531 . S
C1083 C1082 1.369 . S
C1083 C1084 1.410 . S
C1083 C1091 1.503 . S
C1084 C1083 1.410 . S
C1084 C1085 1.392 . S
C1084 C1087 1.511 . S
C1085 C1081 1.376 . S
C1085 C1084 1.392 . S
C1085 H1097 0.929 . S
C1086 C1082 1.531 . S
C1086 H1098 0.960 . S
C1086 H1099 0.962 . S
C1086 H1100 0.960 1_565 S
C1087 C1084 1.511 . S
C1087 H1101 0.961 . S
C1087 H1102 0.961 . S
C1087 H1103 0.961 . S
C1088 C1089 1.370 . S
C1088 C1090 1.363 . S
C1088 H1104 0.931 . S
C1089 C1088 1.370 . S
C1089 C1093 1.408 . S
C1090 C1088 1.363 . S
C1090 C1091 1.370 . S
C1090 C1094 1.524 . S
C1091 C1083 1.503 . S
C1091 C1090 1.370 . S
C1091 C1092 1.403 . S
C1092 C1091 1.403 . S
C1092 C1093 1.404 . S
C1092 C1095 1.539 . S
C1093 C1089 1.408 . S
C1093 C1092 1.404 . S
C1093 H1105 0.930 . S
C1094 C1090 1.524 . S
C1094 H1106 0.956 . S
C1094 H1107 0.961 . S
C1094 H1108 0.961 . S
C1095 C1092 1.539 . S
C1095 H1109 0.958 . S
C1095 H1110 0.961 . S
C1095 H1111 0.960 . S
H1096 C1080 0.931 . S
H1097 C1085 0.929 . S
H1098 C1086 0.960 . S
H1099 C1086 0.962 . S
H1100 C1086 0.960 1_545 S
H1101 C1087 0.961 . S
H1102 C1087 0.961 . S
H1103 C1087 0.961 . S
H1104 C1088 0.931 . S
H1105 C1093 0.930 . S
H1106 C1094 0.956 . S
H1107 C1094 0.961 . S
H1108 C1094 0.961 . S
H1109 C1095 0.958 . S
H1110 C1095 0.961 . S
H1111 C1095 0.960 . S
C1112 C1113 1.391 . S
C1112 C1114 1.394 . S
C1112 H1128 0.931 . S
C1113 C1112 1.391 . S
C1113 C1117 1.376 . S
C1114 C1112 1.394 . S
C1114 C1115 1.369 . S
C1114 C1118 1.531 . S
C1115 C1114 1.369 . S
C1115 C1116 1.410 . S
C1115 C1123 1.503 . S
C1116 C1115 1.410 . S
C1116 C1117 1.392 . S
C1116 C1119 1.511 . S
C1117 C1113 1.376 . S
C1117 C1116 1.392 . S
C1117 H1129 0.929 . S
C1118 C1114 1.531 . S
C1118 H1130 0.960 . S
C1118 H1131 0.962 . S
C1118 H1132 0.960 . S
C1119 C1116 1.511 . S
C1119 H1133 0.961 . S
C1119 H1134 0.961 . S
C1119 H1135 0.961 . S
C1120 C1121 1.370 . S
C1120 C1122 1.363 . S
C1120 H1136 0.931 . S
C1121 C1120 1.370 . S
C1121 C1125 1.408 . S
C1122 C1120 1.363 . S
C1122 C1123 1.370 . S
C1122 C1126 1.524 . S
C1123 C1115 1.503 . S
C1123 C1122 1.370 . S
C1123 C1124 1.403 . S
C1124 C1123 1.403 . S
C1124 C1125 1.404 . S
C1124 C1127 1.539 . S
C1125 C1121 1.408 . S
C1125 C1124 1.404 . S
C1125 H1137 0.930 . S
C1126 C1122 1.524 . S
C1126 H1138 0.956 . S
C1126 H1139 0.961 . S
C1126 H1140 0.938 1_545 S
C1127 C1124 1.539 . S
C1127 H1141 0.958 . S
C1127 H1142 0.961 . S
C1127 H1143 0.960 . S
H1128 C1112 0.931 . S
H1129 C1117 0.929 . S
H1130 C1118 0.960 . S
H1131 C1118 0.962 . S
H1132 C1118 0.960 . S
H1133 C1119 0.961 . S
H1134 C1119 0.961 . S
H1135 C1119 0.961 . S
H1136 C1120 0.931 . S
H1137 C1125 0.930 . S
H1138 C1126 0.956 . S
H1139 C1126 0.961 . S
H1140 C1126 0.938 1_565 S
H1141 C1127 0.958 . S
H1142 C1127 0.961 . S
H1143 C1127 0.960 . S
C1144 C1145 1.391 . S
C1144 C1146 1.394 . S
C1144 H1160 0.931 . S
C1145 C1144 1.391 . S
C1145 C1149 1.376 . S
C1146 C1144 1.394 . S
C1146 C1147 1.369 . S
C1146 C1150 1.531 . S
C1147 C1146 1.369 . S
C1147 C1148 1.410 . S
C1147 C1155 1.503 . S
C1148 C1147 1.410 . S
C1148 C1149 1.392 . S
C1148 C1151 1.511 . S
C1149 C1145 1.376 . S
C1149 C1148 1.392 . S
C1149 H1161 0.929 . S
C1150 C1146 1.531 . S
C1150 H1162 0.960 . S
C1150 H1163 0.962 . S
C1150 H1164 0.960 . S
C1151 C1148 1.511 . S
C1151 H1165 0.961 . S
C1151 H1166 0.961 . S
C1151 H1167 0.961 . S
C1152 C1153 1.370 . S
C1152 C1154 1.363 . S
C1152 H1168 0.931 . S
C1153 C1152 1.370 . S
C1153 C1157 1.408 . S
C1154 C1152 1.363 . S
C1154 C1155 1.370 . S
C1154 C1158 1.524 . S
C1155 C1147 1.503 . S
C1155 C1154 1.370 . S
C1155 C1156 1.403 . S
C1156 C1155 1.403 . S
C1156 C1157 1.404 . S
C1156 C1159 1.539 . S
C1157 C1153 1.408 . S
C1157 C1156 1.404 . S
C1157 H1169 0.930 . S
C1158 C1154 1.524 . S
C1158 H1170 0.956 . S
C1158 H1171 0.961 . S
C1158 H1172 0.961 . S
C1159 C1156 1.539 . S
C1159 H1173 0.958 . S
C1159 H1174 0.961 . S
C1159 H1175 0.960 . S
H1160 C1144 0.931 . S
H1161 C1149 0.929 . S
H1162 C1150 0.960 . S
H1163 C1150 0.962 . S
H1164 C1150 0.960 . S
H1165 C1151 0.961 . S
H1166 C1151 0.961 . S
H1167 C1151 0.961 . S
H1168 C1152 0.931 . S
H1169 C1157 0.930 . S
H1170 C1158 0.956 . S
H1171 C1158 0.961 . S
H1172 C1158 0.961 . S
H1173 C1159 0.958 . S
H1174 C1159 0.961 . S
H1175 C1159 0.960 . S
C1176 C1177 1.391 . S
C1176 C1178 1.394 . S
C1176 H1192 0.931 . S
C1177 C1176 1.391 . S
C1177 C1181 1.376 . S
C1178 C1176 1.394 . S
C1178 C1179 1.369 . S
C1178 C1182 1.531 . S
C1179 C1178 1.369 . S
C1179 C1180 1.410 . S
C1179 C1187 1.503 . S
C1180 C1179 1.410 . S
C1180 C1181 1.392 . S
C1180 C1183 1.511 . S
C1181 C1177 1.376 . S
C1181 C1180 1.392 . S
C1181 H1193 0.929 . S
C1182 C1178 1.531 . S
C1182 H1194 0.960 . S
C1182 H1195 0.962 . S
C1182 H1196 0.960 . S
C1183 C1180 1.511 . S
C1183 H1197 0.961 . S
C1183 H1198 0.961 . S
C1183 H1199 0.961 . S
C1184 C1185 1.370 . S
C1184 C1186 1.363 . S
C1184 H1200 0.931 . S
C1185 C1184 1.370 . S
C1185 C1189 1.408 . S
C1186 C1184 1.363 . S
C1186 C1187 1.370 . S
C1186 C1190 1.524 . S
C1187 C1179 1.503 . S
C1187 C1186 1.370 . S
C1187 C1188 1.403 . S
C1188 C1187 1.403 . S
C1188 C1189 1.404 . S
C1188 C1191 1.539 . S
C1189 C1185 1.408 . S
C1189 C1188 1.404 . S
C1189 H1201 0.930 . S
C1190 C1186 1.524 . S
C1190 H1202 0.956 . S
C1190 H1203 0.961 . S
C1190 H1204 0.961 . S
C1191 C1188 1.539 . S
C1191 H1205 0.958 . S
C1191 H1206 0.961 . S
C1191 H1207 0.960 . S
H1192 C1176 0.931 . S
H1193 C1181 0.929 . S
H1194 C1182 0.960 . S
H1195 C1182 0.962 . S
H1196 C1182 0.960 . S
H1197 C1183 0.961 . S
H1198 C1183 0.961 . S
H1199 C1183 0.961 . S
H1200 C1184 0.931 . S
H1201 C1189 0.930 . S
H1202 C1190 0.956 . S
H1203 C1190 0.961 . S
H1204 C1190 0.961 . S
H1205 C1191 0.958 . S
H1206 C1191 0.961 . S
H1207 C1191 0.960 . S
C1208 C1209 1.391 . S
C1208 C1210 1.394 . S
C1208 H1224 0.931 . S
C1209 C1208 1.391 . S
C1209 C1213 1.376 . S
C1210 C1208 1.394 . S
C1210 C1211 1.369 . S
C1210 C1214 1.531 . S
C1211 C1210 1.369 . S
C1211 C1212 1.410 . S
C1211 C1219 1.503 . S
C1212 C1211 1.410 . S
C1212 C1213 1.392 . S
C1212 C1215 1.511 . S
C1213 C1209 1.376 . S
C1213 C1212 1.392 . S
C1213 H1225 0.929 . S
C1214 C1210 1.531 . S
C1214 H1226 0.960 . S
C1214 H1227 0.962 . S
C1214 H1228 0.960 . S
C1215 C1212 1.511 . S
C1215 H1229 0.961 . S
C1215 H1230 0.961 . S
C1215 H1231 0.961 . S
C1216 C1217 1.370 . S
C1216 C1218 1.363 . S
C1216 H1232 0.931 . S
C1217 C1216 1.370 . S
C1217 C1221 1.408 . S
C1218 C1216 1.363 . S
C1218 C1219 1.370 . S
C1218 C1222 1.524 . S
C1219 C1211 1.503 . S
C1219 C1218 1.370 . S
C1219 C1220 1.403 . S
C1220 C1219 1.403 . S
C1220 C1221 1.404 . S
C1220 C1223 1.539 . S
C1221 C1217 1.408 . S
C1221 C1220 1.404 . S
C1221 H1233 0.930 . S
C1222 C1218 1.524 . S
C1222 H1234 0.956 . S
C1222 H1235 0.961 . S
C1222 H1236 0.961 . S
C1223 C1220 1.539 . S
C1223 H1237 0.958 . S
C1223 H1238 0.961 . S
C1223 H1239 0.960 . S
H1224 C1208 0.931 . S
H1225 C1213 0.929 . S
H1226 C1214 0.960 . S
H1227 C1214 0.962 . S
H1228 C1214 0.960 . S
H1229 C1215 0.961 . S
H1230 C1215 0.961 . S
H1231 C1215 0.961 . S
H1232 C1216 0.931 . S
H1233 C1221 0.930 . S
H1234 C1222 0.956 . S
H1235 C1222 0.961 . S
H1236 C1222 0.961 . S
H1237 C1223 0.958 . S
H1238 C1223 0.961 . S
H1239 C1223 0.960 . S
C1240 C1241 1.391 . S
C1240 C1242 1.394 . S
C1240 H1256 0.931 . S
C1241 C1240 1.391 . S
C1241 C1245 1.376 . S
C1242 C1240 1.394 . S
C1242 C1243 1.369 . S
C1242 C1246 1.531 . S
C1243 C1242 1.369 . S
C1243 C1244 1.410 . S
C1243 C1251 1.503 . S
C1244 C1243 1.410 . S
C1244 C1245 1.392 . S
C1244 C1247 1.511 . S
C1245 C1241 1.376 . S
C1245 C1244 1.392 . S
C1245 H1257 0.929 . S
C1246 C1242 1.531 . S
C1246 H1258 0.960 . S
C1246 H1259 0.962 . S
C1246 H1260 0.960 . S
C1247 C1244 1.511 . S
C1247 H1261 0.961 . S
C1247 H1262 0.961 . S
C1247 H1263 0.961 . S
C1248 C1249 1.370 . S
C1248 C1250 1.363 . S
C1248 H1264 0.931 . S
C1249 C1248 1.370 . S
C1249 C1253 1.408 . S
C1250 C1248 1.363 . S
C1250 C1251 1.370 . S
C1250 C1254 1.524 . S
C1251 C1243 1.503 . S
C1251 C1250 1.370 . S
C1251 C1252 1.403 . S
C1252 C1251 1.403 . S
C1252 C1253 1.404 . S
C1252 C1255 1.539 . S
C1253 C1249 1.408 . S
C1253 C1252 1.404 . S
C1253 H1265 0.930 . S
C1254 C1250 1.524 . S
C1254 H1266 0.956 . S
C1254 H1267 0.961 . S
C1254 H1268 0.961 . S
C1255 C1252 1.539 . S
C1255 H1269 0.958 . S
C1255 H1270 0.961 . S
C1255 H1271 0.960 . S
H1256 C1240 0.931 . S
H1257 C1245 0.929 . S
H1258 C1246 0.960 . S
H1259 C1246 0.962 . S
H1260 C1246 0.960 . S
H1261 C1247 0.961 . S
H1262 C1247 0.961 . S
H1263 C1247 0.961 . S
H1264 C1248 0.931 . S
H1265 C1253 0.930 . S
H1266 C1254 0.956 . S
H1267 C1254 0.961 . S
H1268 C1254 0.961 . S
H1269 C1255 0.958 . S
H1270 C1255 0.961 . S
H1271 C1255 0.960 . S
C1272 C1273 1.391 . S
C1272 C1274 1.394 . S
C1272 H1288 0.931 . S
C1273 C1272 1.391 . S
C1273 C1277 1.376 . S
C1274 C1272 1.394 . S
C1274 C1275 1.369 . S
C1274 C1278 1.531 . S
C1275 C1274 1.369 . S
C1275 C1276 1.410 . S
C1275 C1283 1.503 . S
C1276 C1275 1.410 . S
C1276 C1277 1.392 . S
C1276 C1279 1.511 . S
C1277 C1273 1.376 . S
C1277 C1276 1.392 . S
C1277 H1289 0.929 . S
C1278 C1274 1.531 . S
C1278 H1290 0.960 . S
C1278 H1291 0.962 . S
C1278 H1292 0.960 . S
C1279 C1276 1.511 . S
C1279 H1293 0.961 . S
C1279 H1294 0.961 . S
C1279 H1295 0.961 . S
C1280 C1281 1.370 . S
C1280 C1282 1.363 . S
C1280 H1296 0.931 . S
C1281 C1280 1.370 . S
C1281 C1285 1.408 . S
C1282 C1280 1.363 . S
C1282 C1283 1.370 . S
C1282 C1286 1.524 . S
C1283 C1275 1.503 . S
C1283 C1282 1.370 . S
C1283 C1284 1.403 . S
C1284 C1283 1.403 . S
C1284 C1285 1.404 . S
C1284 C1287 1.539 . S
C1285 C1281 1.408 . S
C1285 C1284 1.404 . S
C1285 H1297 0.930 . S
C1286 C1282 1.524 . S
C1286 H1298 0.956 . S
C1286 H1299 0.961 . S
C1286 H1300 0.961 . S
C1287 C1284 1.539 . S
C1287 H1301 0.958 . S
C1287 H1302 0.961 . S
C1287 H1303 0.960 . S
H1288 C1272 0.931 . S
H1289 C1277 0.929 . S
H1290 C1278 0.960 . S
H1291 C1278 0.962 . S
H1292 C1278 0.960 . S
H1293 C1279 0.961 . S
H1294 C1279 0.961 . S
H1295 C1279 0.961 . S
H1296 C1280 0.931 . S
H1297 C1285 0.930 . S
H1298 C1286 0.956 . S
H1299 C1286 0.961 . S
H1300 C1286 0.961 . S
H1301 C1287 0.958 . S
H1302 C1287 0.961 . S
H1303 C1287 0.960 . S
C1304 C1305 1.391 . S
C1304 C1306 1.394 . S
C1304 H1320 0.931 1_655 S
C1305 C1304 1.391 . S
C1305 C1309 1.376 . S
C1306 C1304 1.394 . S
C1306 C1307 1.369 . S
C1306 C1310 1.531 . S
C1307 C1306 1.369 . S
C1307 C1308 1.410 . S
C1307 C1315 1.503 . S
C1308 C1307 1.410 . S
C1308 C1309 1.392 . S
C1308 C1311 1.511 . S
C1309 C1305 1.376 . S
C1309 C1308 1.392 . S
C1309 H1321 0.929 . S
C1310 C1306 1.531 . S
C1310 H1322 0.960 . S
C1310 H1323 0.962 1_655 S
C1310 H1324 0.960 1_655 S
C1311 C1308 1.511 . S
C1311 H1325 0.961 . S
C1311 H1326 0.961 . S
C1311 H1327 0.961 . S
C1312 C1313 1.370 . S
C1312 C1314 1.363 . S
C1312 H1328 0.931 . S
C1313 C1312 1.370 . S
C1313 C1317 1.408 . S
C1314 C1312 1.363 . S
C1314 C1315 1.370 . S
C1314 C1318 1.524 . S
C1315 C1307 1.503 . S
C1315 C1314 1.370 . S
C1315 C1316 1.403 . S
C1316 C1315 1.403 . S
C1316 C1317 1.404 . S
C1316 C1319 1.539 . S
C1317 C1313 1.408 . S
C1317 C1316 1.404 . S
C1317 H1329 0.930 . S
C1318 C1314 1.524 . S
C1318 H1330 0.956 . S
C1318 H1331 0.961 . S
C1318 H1332 0.961 . S
C1319 C1316 1.539 . S
C1319 H1333 0.958 . S
C1319 H1334 0.961 . S
C1319 H1335 0.960 . S
H1320 C1304 0.931 1_455 S
H1321 C1309 0.929 . S
H1322 C1310 0.960 . S
H1323 C1310 0.962 1_455 S
H1324 C1310 0.960 1_455 S
H1325 C1311 0.961 . S
H1326 C1311 0.961 . S
H1327 C1311 0.961 . S
H1328 C1312 0.931 . S
H1329 C1317 0.930 . S
H1330 C1318 0.956 . S
H1331 C1318 0.961 . S
H1332 C1318 0.961 . S
H1333 C1319 0.958 . S
H1334 C1319 0.961 . S
H1335 C1319 0.960 . S
C1336 C1337 1.391 . S
C1336 C1338 1.394 . S
C1336 H1352 0.931 . S
C1337 C1336 1.391 . S
C1337 C1341 1.376 . S
C1338 C1336 1.394 . S
C1338 C1339 1.369 . S
C1338 C1342 1.531 . S
C1339 C1338 1.369 . S
C1339 C1340 1.410 . S
C1339 C1347 1.503 . S
C1340 C1339 1.410 . S
C1340 C1341 1.392 . S
C1340 C1343 1.511 . S
C1341 C1337 1.376 . S
C1341 C1340 1.392 . S
C1341 H1353 0.929 . S
C1342 C1338 1.531 . S
C1342 H1354 0.960 . S
C1342 H1355 0.962 . S
C1342 H1356 0.960 . S
C1343 C1340 1.511 . S
C1343 H1357 0.961 . S
C1343 H1358 0.961 . S
C1343 H1359 0.961 . S
C1344 C1345 1.370 . S
C1344 C1346 1.363 . S
C1344 H1360 0.931 . S
C1345 C1344 1.370 . S
C1345 C1349 1.408 . S
C1346 C1344 1.363 . S
C1346 C1347 1.370 . S
C1346 C1350 1.524 . S
C1347 C1339 1.503 . S
C1347 C1346 1.370 . S
C1347 C1348 1.403 . S
C1348 C1347 1.403 . S
C1348 C1349 1.404 . S
C1348 C1351 1.539 . S
C1349 C1345 1.408 . S
C1349 C1348 1.404 . S
C1349 H1361 0.930 . S
C1350 C1346 1.524 . S
C1350 H1362 0.956 . S
C1350 H1363 0.961 . S
C1350 H1364 0.961 . S
C1351 C1348 1.539 . S
C1351 H1365 0.958 . S
C1351 H1366 0.961 . S
C1351 H1367 0.960 . S
H1352 C1336 0.931 . S
H1353 C1341 0.929 . S
H1354 C1342 0.960 . S
H1355 C1342 0.962 . S
H1356 C1342 0.960 . S
H1357 C1343 0.961 . S
H1358 C1343 0.961 . S
H1359 C1343 0.961 . S
H1360 C1344 0.931 . S
H1361 C1349 0.930 . S
H1362 C1350 0.956 . S
H1363 C1350 0.961 . S
H1364 C1350 0.961 . S
H1365 C1351 0.958 . S
H1366 C1351 0.961 . S
H1367 C1351 0.960 . S
C1368 C1369 1.391 . S
C1368 C1370 1.394 . S
C1368 H1384 0.931 . S
C1369 C1368 1.391 . S
C1369 C1373 1.376 . S
C1370 C1368 1.394 . S
C1370 C1371 1.369 . S
C1370 C1374 1.531 . S
C1371 C1370 1.369 . S
C1371 C1372 1.410 . S
C1371 C1379 1.503 . S
C1372 C1371 1.410 . S
C1372 C1373 1.392 . S
C1372 C1375 1.511 . S
C1373 C1369 1.376 . S
C1373 C1372 1.392 . S
C1373 H1385 0.929 . S
C1374 C1370 1.531 . S
C1374 H1386 0.960 . S
C1374 H1387 0.962 . S
C1374 H1388 0.960 . S
C1375 C1372 1.511 . S
C1375 H1389 0.961 . S
C1375 H1390 0.961 . S
C1375 H1391 0.961 . S
C1376 C1377 1.370 . S
C1376 C1378 1.363 . S
C1376 H1392 0.931 . S
C1377 C1376 1.370 . S
C1377 C1381 1.408 . S
C1378 C1376 1.363 . S
C1378 C1379 1.370 . S
C1378 C1382 1.524 . S
C1379 C1371 1.503 . S
C1379 C1378 1.370 . S
C1379 C1380 1.403 . S
C1380 C1379 1.403 . S
C1380 C1381 1.404 . S
C1380 C1383 1.539 . S
C1381 C1377 1.408 . S
C1381 C1380 1.404 . S
C1381 H1393 0.930 . S
C1382 C1378 1.524 . S
C1382 H1394 0.956 . S
C1382 H1395 0.961 1_556 S
C1382 H1396 0.961 1_556 S
C1383 C1380 1.539 . S
C1383 H1397 0.958 . S
C1383 H1398 0.961 . S
C1383 H1399 0.960 . S
H1384 C1368 0.931 . S
H1385 C1373 0.929 . S
H1386 C1374 0.960 . S
H1387 C1374 0.962 . S
H1388 C1374 0.960 . S
H1389 C1375 0.961 . S
H1390 C1375 0.961 . S
H1391 C1375 0.961 . S
H1392 C1376 0.931 . S
H1393 C1381 0.930 . S
H1394 C1382 0.956 . S
H1395 C1382 0.961 1_554 S
H1396 C1382 0.961 1_554 S
H1397 C1383 0.958 . S
H1398 C1383 0.961 . S
H1399 C1383 0.960 . S
C1400 C1401 1.391 . S
C1400 C1402 1.394 . S
C1400 H1416 0.931 . S
C1401 C1400 1.391 . S
C1401 C1405 1.376 . S
C1402 C1400 1.394 . S
C1402 C1403 1.369 . S
C1402 C1406 1.531 . S
C1403 C1402 1.369 . S
C1403 C1404 1.410 . S
C1403 C1411 1.503 . S
C1404 C1403 1.410 . S
C1404 C1405 1.392 . S
C1404 C1407 1.511 . S
C1405 C1401 1.376 . S
C1405 C1404 1.392 . S
C1405 H1417 0.929 . S
C1406 C1402 1.531 . S
C1406 H1418 0.960 . S
C1406 H1419 0.962 . S
C1406 H1420 0.960 . S
C1407 C1404 1.511 . S
C1407 H1421 0.961 . S
C1407 H1422 0.961 . S
C1407 H1423 0.961 . S
C1408 C1409 1.370 . S
C1408 C1410 1.363 . S
C1408 H1424 0.931 . S
C1409 C1408 1.370 . S
C1409 C1413 1.408 . S
C1410 C1408 1.363 . S
C1410 C1411 1.370 . S
C1410 C1414 1.524 . S
C1411 C1403 1.503 . S
C1411 C1410 1.370 . S
C1411 C1412 1.403 . S
C1412 C1411 1.403 . S
C1412 C1413 1.404 . S
C1412 C1415 1.539 . S
C1413 C1409 1.408 . S
C1413 C1412 1.404 . S
C1413 H1425 0.930 . S
C1414 C1410 1.524 . S
C1414 H1426 0.956 . S
C1414 H1427 0.961 . S
C1414 H1428 0.961 . S
C1415 C1412 1.539 . S
C1415 H1429 0.958 . S
C1415 H1430 0.961 . S
C1415 H1431 0.960 . S
H1416 C1400 0.931 . S
H1417 C1405 0.929 . S
H1418 C1406 0.960 . S
H1419 C1406 0.962 . S
H1420 C1406 0.960 . S
H1421 C1407 0.961 . S
H1422 C1407 0.961 . S
H1423 C1407 0.961 . S
H1424 C1408 0.931 . S
H1425 C1413 0.930 . S
H1426 C1414 0.956 . S
H1427 C1414 0.961 . S
H1428 C1414 0.961 . S
H1429 C1415 0.958 . S
H1430 C1415 0.961 . S
H1431 C1415 0.960 . S
C1432 C1433 1.391 . S
C1432 C1434 1.394 . S
C1432 H1448 0.931 . S
C1433 C1432 1.391 . S
C1433 C1437 1.376 . S
C1434 C1432 1.394 . S
C1434 C1435 1.369 . S
C1434 C1438 1.531 . S
C1435 C1434 1.369 . S
C1435 C1436 1.410 . S
C1435 C1443 1.503 . S
C1436 C1435 1.410 . S
C1436 C1437 1.392 . S
C1436 C1439 1.511 . S
C1437 C1433 1.376 . S
C1437 C1436 1.392 . S
C1437 H1449 0.929 . S
C1438 C1434 1.531 . S
C1438 H1450 0.960 . S
C1438 H1451 0.962 . S
C1438 H1452 0.960 . S
C1439 C1436 1.511 . S
C1439 H1453 0.961 . S
C1439 H1454 0.961 . S
C1439 H1455 0.961 . S
C1440 C1441 1.370 . S
C1440 C1442 1.363 . S
C1440 H1456 0.931 . S
C1441 C1440 1.370 . S
C1441 C1445 1.408 . S
C1442 C1440 1.363 . S
C1442 C1443 1.370 . S
C1442 C1446 1.524 . S
C1443 C1435 1.503 . S
C1443 C1442 1.370 . S
C1443 C1444 1.403 . S
C1444 C1443 1.403 . S
C1444 C1445 1.404 . S
C1444 C1447 1.539 . S
C1445 C1441 1.408 . S
C1445 C1444 1.404 . S
C1445 H1457 0.930 . S
C1446 C1442 1.524 . S
C1446 H1458 0.956 . S
C1446 H1459 0.961 . S
C1446 H1460 0.961 . S
C1447 C1444 1.539 . S
C1447 H1461 0.958 . S
C1447 H1462 0.961 . S
C1447 H1463 0.960 . S
H1448 C1432 0.931 . S
H1449 C1437 0.929 . S
H1450 C1438 0.960 . S
H1451 C1438 0.962 . S
H1452 C1438 0.960 . S
H1453 C1439 0.961 . S
H1454 C1439 0.961 . S
H1455 C1439 0.961 . S
H1456 C1440 0.931 . S
H1457 C1445 0.930 . S
H1458 C1446 0.956 . S
H1459 C1446 0.961 . S
H1460 C1446 0.961 . S
H1461 C1447 0.958 . S
H1462 C1447 0.961 . S
H1463 C1447 0.960 . S
C1464 C1465 1.391 . S
C1464 C1466 1.394 . S
C1464 H1480 0.931 . S
C1465 C1464 1.391 . S
C1465 C1469 1.376 . S
C1466 C1464 1.394 . S
C1466 C1467 1.369 . S
C1466 C1470 1.531 . S
C1467 C1466 1.369 . S
C1467 C1468 1.410 . S
C1467 C1475 1.503 . S
C1468 C1467 1.410 . S
C1468 C1469 1.392 . S
C1468 C1471 1.511 . S
C1469 C1465 1.376 . S
C1469 C1468 1.392 . S
C1469 H1481 0.929 . S
C1470 C1466 1.531 . S
C1470 H1482 0.960 . S
C1470 H1483 0.962 . S
C1470 H1484 0.960 . S
C1471 C1468 1.511 . S
C1471 H1485 0.961 . S
C1471 H1486 0.961 . S
C1471 H1487 0.961 . S
C1472 C1473 1.370 . S
C1472 C1474 1.363 . S
C1472 H1488 0.931 . S
C1473 C1472 1.370 . S
C1473 C1477 1.408 . S
C1474 C1472 1.363 . S
C1474 C1475 1.370 . S
C1474 C1478 1.524 . S
C1475 C1467 1.503 . S
C1475 C1474 1.370 . S
C1475 C1476 1.403 . S
C1476 C1475 1.403 . S
C1476 C1477 1.404 . S
C1476 C1479 1.539 . S
C1477 C1473 1.408 . S
C1477 C1476 1.404 . S
C1477 H1489 0.930 . S
C1478 C1474 1.524 . S
C1478 H1490 0.956 . S
C1478 H1491 0.961 . S
C1478 H1492 0.961 . S
C1479 C1476 1.539 . S
C1479 H1493 0.958 . S
C1479 H1494 0.961 . S
C1479 H1495 0.960 . S
H1480 C1464 0.931 . S
H1481 C1469 0.929 . S
H1482 C1470 0.960 . S
H1483 C1470 0.962 . S
H1484 C1470 0.960 . S
H1485 C1471 0.961 . S
H1486 C1471 0.961 . S
H1487 C1471 0.961 . S
H1488 C1472 0.931 . S
H1489 C1477 0.930 . S
H1490 C1478 0.956 . S
H1491 C1478 0.961 . S
H1492 C1478 0.961 . S
H1493 C1479 0.958 . S
H1494 C1479 0.961 . S
H1495 C1479 0.960 . S
C1496 C1497 1.391 . S
C1496 C1498 1.394 . S
C1496 H1512 0.931 . S
C1497 C1496 1.391 . S
C1497 C1501 1.376 . S
C1498 C1496 1.394 . S
C1498 C1499 1.369 . S
C1498 C1502 1.531 . S
C1499 C1498 1.369 . S
C1499 C1500 1.410 . S
C1499 C1507 1.503 . S
C1500 C1499 1.410 . S
C1500 C1501 1.392 . S
C1500 C1503 1.511 . S
C1501 C1497 1.376 . S
C1501 C1500 1.392 . S
C1501 H1513 0.929 . S
C1502 C1498 1.531 . S
C1502 H1514 0.960 . S
C1502 H1515 0.962 . S
C1502 H1516 0.960 . S
C1503 C1500 1.511 . S
C1503 H1517 0.961 . S
C1503 H1518 0.961 . S
C1503 H1519 0.961 . S
C1504 C1505 1.370 . S
C1504 C1506 1.363 . S
C1504 H1520 0.931 . S
C1505 C1504 1.370 . S
C1505 C1509 1.408 . S
C1506 C1504 1.363 . S
C1506 C1507 1.370 . S
C1506 C1510 1.524 . S
C1507 C1499 1.503 . S
C1507 C1506 1.370 . S
C1507 C1508 1.403 . S
C1508 C1507 1.403 . S
C1508 C1509 1.404 . S
C1508 C1511 1.539 . S
C1509 C1505 1.408 . S
C1509 C1508 1.404 . S
C1509 H1521 0.930 . S
C1510 C1506 1.524 . S
C1510 H1522 0.956 . S
C1510 H1523 0.961 . S
C1510 H1524 0.961 . S
C1511 C1508 1.539 . S
C1511 H1525 0.958 . S
C1511 H1526 0.961 . S
C1511 H1527 0.960 . S
H1512 C1496 0.931 . S
H1513 C1501 0.929 . S
H1514 C1502 0.960 . S
H1515 C1502 0.962 . S
H1516 C1502 0.960 . S
H1517 C1503 0.961 . S
H1518 C1503 0.961 . S
H1519 C1503 0.961 . S
H1520 C1504 0.931 . S
H1521 C1509 0.930 . S
H1522 C1510 0.956 . S
H1523 C1510 0.961 . S
H1524 C1510 0.961 . S
H1525 C1511 0.958 . S
H1526 C1511 0.961 . S
H1527 C1511 0.960 . S
C1528 C1529 1.391 . S
C1528 C1530 1.394 . S
C1528 H1544 0.931 . S
C1529 C1528 1.391 . S
C1529 C1533 1.376 . S
C1530 C1528 1.394 . S
C1530 C1531 1.369 . S
C1530 C1534 1.531 . S
C1531 C1530 1.369 . S
C1531 C1532 1.410 . S
C1531 C1539 1.503 . S
C1532 C1531 1.410 . S
C1532 C1533 1.392 . S
C1532 C1535 1.511 . S
C1533 C1529 1.376 . S
C1533 C1532 1.392 . S
C1533 H1545 0.929 . S
C1534 C1530 1.531 . S
C1534 H1546 0.960 . S
C1534 H1547 0.962 . S
C1534 H1548 0.960 . S
C1535 C1532 1.511 . S
C1535 H1549 0.961 . S
C1535 H1550 0.961 . S
C1535 H1551 0.961 . S
C1536 C1537 1.370 . S
C1536 C1538 1.363 . S
C1536 H1552 0.931 . S
C1537 C1536 1.370 . S
C1537 C1541 1.408 . S
C1538 C1536 1.363 . S
C1538 C1539 1.370 . S
C1538 C1542 1.524 . S
C1539 C1531 1.503 . S
C1539 C1538 1.370 . S
C1539 C1540 1.403 . S
C1540 C1539 1.403 . S
C1540 C1541 1.404 . S
C1540 C1543 1.539 . S
C1541 C1537 1.408 . S
C1541 C1540 1.404 . S
C1541 H1553 0.930 . S
C1542 C1538 1.524 . S
C1542 H1554 0.956 . S
C1542 H1555 0.961 . S
C1542 H1556 0.961 . S
C1543 C1540 1.539 . S
C1543 H1557 0.958 . S
C1543 H1558 0.961 . S
C1543 H1559 0.960 . S
H1544 C1528 0.931 . S
H1545 C1533 0.929 . S
H1546 C1534 0.960 . S
H1547 C1534 0.962 . S
H1548 C1534 0.960 . S
H1549 C1535 0.961 . S
H1550 C1535 0.961 . S
H1551 C1535 0.961 . S
H1552 C1536 0.931 . S
H1553 C1541 0.930 . S
H1554 C1542 0.956 . S
H1555 C1542 0.961 . S
H1556 C1542 0.961 . S
H1557 C1543 0.958 . S
H1558 C1543 0.961 . S
H1559 C1543 0.960 . S
C1560 C1561 1.391 . S
C1560 C1562 1.394 . S
C1560 H1576 0.931 . S
C1561 C1560 1.391 . S
C1561 C1565 1.376 . S
C1562 C1560 1.394 . S
C1562 C1563 1.369 . S
C1562 C1566 1.531 . S
C1563 C1562 1.369 . S
C1563 C1564 1.410 . S
C1563 C1571 1.503 . S
C1564 C1563 1.410 . S
C1564 C1565 1.392 . S
C1564 C1567 1.511 . S
C1565 C1561 1.376 . S
C1565 C1564 1.392 . S
C1565 H1577 0.929 . S
C1566 C1562 1.531 . S
C1566 H1578 0.960 . S
C1566 H1579 0.962 . S
C1566 H1580 0.960 . S
C1567 C1564 1.511 . S
C1567 H1581 0.961 . S
C1567 H1582 0.961 . S
C1567 H1583 0.961 . S
C1568 C1569 1.370 . S
C1568 C1570 1.363 . S
C1568 H1584 0.931 . S
C1569 C1568 1.370 . S
C1569 C1573 1.408 . S
C1570 C1568 1.363 . S
C1570 C1571 1.370 . S
C1570 C1574 1.524 . S
C1571 C1563 1.503 . S
C1571 C1570 1.370 . S
C1571 C1572 1.403 . S
C1572 C1571 1.403 . S
C1572 C1573 1.404 . S
C1572 C1575 1.539 . S
C1573 C1569 1.408 . S
C1573 C1572 1.404 . S
C1573 H1585 0.930 . S
C1574 C1570 1.524 . S
C1574 H1586 0.956 . S
C1574 H1587 0.961 . S
C1574 H1588 0.961 . S
C1575 C1572 1.539 . S
C1575 H1589 0.958 . S
C1575 H1590 0.961 . S
C1575 H1591 0.960 . S
H1576 C1560 0.931 . S
H1577 C1565 0.929 . S
H1578 C1566 0.960 . S
H1579 C1566 0.962 . S
H1580 C1566 0.960 . S
H1581 C1567 0.961 . S
H1582 C1567 0.961 . S
H1583 C1567 0.961 . S
H1584 C1568 0.931 . S
H1585 C1573 0.930 . S
H1586 C1574 0.956 . S
H1587 C1574 0.961 . S
H1588 C1574 0.961 . S
H1589 C1575 0.958 . S
H1590 C1575 0.961 . S
H1591 C1575 0.960 . S
C1592 C1593 1.391 . S
C1592 C1594 1.394 . S
C1592 H1608 0.931 . S
C1593 C1592 1.391 . S
C1593 C1597 1.376 . S
C1594 C1592 1.394 . S
C1594 C1595 1.369 . S
C1594 C1598 1.531 . S
C1595 C1594 1.369 . S
C1595 C1596 1.410 . S
C1595 C1603 1.503 . S
C1596 C1595 1.410 . S
C1596 C1597 1.392 . S
C1596 C1599 1.511 . S
C1597 C1593 1.376 . S
C1597 C1596 1.392 . S
C1597 H1609 0.929 . S
C1598 C1594 1.531 . S
C1598 H1610 0.960 . S
C1598 H1611 0.962 . S
C1598 H1612 0.960 . S
C1599 C1596 1.511 . S
C1599 H1613 0.961 . S
C1599 H1614 0.961 . S
C1599 H1615 0.961 . S
C1600 C1601 1.370 . S
C1600 C1602 1.363 . S
C1600 H1616 0.931 . S
C1601 C1600 1.370 . S
C1601 C1605 1.408 . S
C1602 C1600 1.363 . S
C1602 C1603 1.370 . S
C1602 C1606 1.524 . S
C1603 C1595 1.503 . S
C1603 C1602 1.370 . S
C1603 C1604 1.403 . S
C1604 C1603 1.403 . S
C1604 C1605 1.404 . S
C1604 C1607 1.539 . S
C1605 C1601 1.408 . S
C1605 C1604 1.404 . S
C1605 H1617 0.930 . S
C1606 C1602 1.524 . S
C1606 H1618 0.956 . S
C1606 H1619 0.961 . S
C1606 H1620 0.961 . S
C1607 C1604 1.539 . S
C1607 H1621 0.958 . S
C1607 H1622 0.961 . S
C1607 H1623 0.960 . S
H1608 C1592 0.931 . S
H1609 C1597 0.929 . S
H1610 C1598 0.960 . S
H1611 C1598 0.962 . S
H1612 C1598 0.960 . S
H1613 C1599 0.961 . S
H1614 C1599 0.961 . S
H1615 C1599 0.961 . S
H1616 C1600 0.931 . S
H1617 C1605 0.930 . S
H1618 C1606 0.956 . S
H1619 C1606 0.961 . S
H1620 C1606 0.961 . S
H1621 C1607 0.958 . S
H1622 C1607 0.961 . S
H1623 C1607 0.960 . S
C1624 C1625 1.391 . S
C1624 C1626 1.394 . S
C1624 H1640 0.931 . S
C1625 C1624 1.391 . S
C1625 C1629 1.376 . S
C1626 C1624 1.394 . S
C1626 C1627 1.369 . S
C1626 C1630 1.531 . S
C1627 C1626 1.369 . S
C1627 C1628 1.410 . S
C1627 C1635 1.503 . S
C1628 C1627 1.410 . S
C1628 C1629 1.392 . S
C1628 C1631 1.511 . S
C1629 C1625 1.376 . S
C1629 C1628 1.392 . S
C1629 H1641 0.929 . S
C1630 C1626 1.531 . S
C1630 H1642 0.960 . S
C1630 H1643 0.962 . S
C1630 H1644 0.960 . S
C1631 C1628 1.511 . S
C1631 H1645 0.961 . S
C1631 H1646 0.961 . S
C1631 H1647 0.961 . S
C1632 C1633 1.370 . S
C1632 C1634 1.363 . S
C1632 H1648 0.931 . S
C1633 C1632 1.370 . S
C1633 C1637 1.408 . S
C1634 C1632 1.363 . S
C1634 C1635 1.370 . S
C1634 C1638 1.524 . S
C1635 C1627 1.503 . S
C1635 C1634 1.370 . S
C1635 C1636 1.403 . S
C1636 C1635 1.403 . S
C1636 C1637 1.404 . S
C1636 C1639 1.539 . S
C1637 C1633 1.408 . S
C1637 C1636 1.404 . S
C1637 H1649 0.930 . S
C1638 C1634 1.524 . S
C1638 H1650 0.956 . S
C1638 H1651 0.961 . S
C1638 H1652 0.961 . S
C1639 C1636 1.539 . S
C1639 H1653 0.958 . S
C1639 H1654 0.961 . S
C1639 H1655 0.960 . S
H1640 C1624 0.931 . S
H1641 C1629 0.929 . S
H1642 C1630 0.960 . S
H1643 C1630 0.962 . S
H1644 C1630 0.960 . S
H1645 C1631 0.961 . S
H1646 C1631 0.961 . S
H1647 C1631 0.961 . S
H1648 C1632 0.931 . S
H1649 C1637 0.930 . S
H1650 C1638 0.956 . S
H1651 C1638 0.961 . S
H1652 C1638 0.961 . S
H1653 C1639 0.958 . S
H1654 C1639 0.961 . S
H1655 C1639 0.960 . S
C1656 C1657 1.391 . S
C1656 C1658 1.394 . S
C1656 H1672 0.931 . S
C1657 C1656 1.391 . S
C1657 C1661 1.376 . S
C1658 C1656 1.394 . S
C1658 C1659 1.369 . S
C1658 C1662 1.531 . S
C1659 C1658 1.369 . S
C1659 C1660 1.410 . S
C1659 C1667 1.503 . S
C1660 C1659 1.410 . S
C1660 C1661 1.392 . S
C1660 C1663 1.511 . S
C1661 C1657 1.376 . S
C1661 C1660 1.392 . S
C1661 H1673 0.929 . S
C1662 C1658 1.531 . S
C1662 H1674 0.960 . S
C1662 H1675 0.962 . S
C1662 H1676 0.960 . S
C1663 C1660 1.511 . S
C1663 H1677 0.961 . S
C1663 H1678 0.961 . S
C1663 H1679 0.961 . S
C1664 C1665 1.370 . S
C1664 C1666 1.363 . S
C1664 H1680 0.931 . S
C1665 C1664 1.370 . S
C1665 C1669 1.408 . S
C1666 C1664 1.363 . S
C1666 C1667 1.370 . S
C1666 C1670 1.524 . S
C1667 C1659 1.503 . S
C1667 C1666 1.370 . S
C1667 C1668 1.403 . S
C1668 C1667 1.403 . S
C1668 C1669 1.404 . S
C1668 C1671 1.539 . S
C1669 C1665 1.408 . S
C1669 C1668 1.404 . S
C1669 H1681 0.930 . S
C1670 C1666 1.524 . S
C1670 H1682 0.956 . S
C1670 H1683 0.961 . S
C1670 H1684 0.961 . S
C1671 C1668 1.539 . S
C1671 H1685 0.958 . S
C1671 H1686 0.961 . S
C1671 H1687 0.960 . S
H1672 C1656 0.931 . S
H1673 C1661 0.929 . S
H1674 C1662 0.960 . S
H1675 C1662 0.962 . S
H1676 C1662 0.960 . S
H1677 C1663 0.961 . S
H1678 C1663 0.961 . S
H1679 C1663 0.961 . S
H1680 C1664 0.931 . S
H1681 C1669 0.930 . S
H1682 C1670 0.956 . S
H1683 C1670 0.961 . S
H1684 C1670 0.961 . S
H1685 C1671 0.958 . S
H1686 C1671 0.961 . S
H1687 C1671 0.960 . S
C1688 C1689 1.391 . S
C1688 C1690 1.394 . S
C1688 H1704 0.931 . S
C1689 C1688 1.391 . S
C1689 C1693 1.376 . S
C1690 C1688 1.394 . S
C1690 C1691 1.369 . S
C1690 C1694 1.531 . S
C1691 C1690 1.369 . S
C1691 C1692 1.410 . S
C1691 C1699 1.503 . S
C1692 C1691 1.410 . S
C1692 C1693 1.392 . S
C1692 C1695 1.511 . S
C1693 C1689 1.376 . S
C1693 C1692 1.392 . S
C1693 H1705 0.929 . S
C1694 C1690 1.531 . S
C1694 H1706 0.960 . S
C1694 H1707 0.962 . S
C1694 H1708 0.960 . S
C1695 C1692 1.511 . S
C1695 H1709 0.961 . S
C1695 H1710 0.961 . S
C1695 H1711 0.961 . S
C1696 C1697 1.370 . S
C1696 C1698 1.363 . S
C1696 H1712 0.931 . S
C1697 C1696 1.370 . S
C1697 C1701 1.408 . S
C1698 C1696 1.363 . S
C1698 C1699 1.370 . S
C1698 C1702 1.524 . S
C1699 C1691 1.503 . S
C1699 C1698 1.370 . S
C1699 C1700 1.403 . S
C1700 C1699 1.403 . S
C1700 C1701 1.404 . S
C1700 C1703 1.539 . S
C1701 C1697 1.408 . S
C1701 C1700 1.404 . S
C1701 H1713 0.930 . S
C1702 C1698 1.524 . S
C1702 H1714 0.956 . S
C1702 H1715 0.961 . S
C1702 H1716 0.961 . S
C1703 C1700 1.539 . S
C1703 H1717 0.958 . S
C1703 H1718 0.961 . S
C1703 H1719 0.960 . S
H1704 C1688 0.931 . S
H1705 C1693 0.929 . S
H1706 C1694 0.960 . S
H1707 C1694 0.962 . S
H1708 C1694 0.960 . S
H1709 C1695 0.961 . S
H1710 C1695 0.961 . S
H1711 C1695 0.961 . S
H1712 C1696 0.931 . S
H1713 C1701 0.930 . S
H1714 C1702 0.956 . S
H1715 C1702 0.961 . S
H1716 C1702 0.961 . S
H1717 C1703 0.958 . S
H1718 C1703 0.961 . S
H1719 C1703 0.960 . S
C1720 C1721 1.391 . S
C1720 C1722 1.394 . S
C1720 H1736 0.931 . S
C1721 C1720 1.391 . S
C1721 C1725 1.376 . S
C1722 C1720 1.394 . S
C1722 C1723 1.369 . S
C1722 C1726 1.531 . S
C1723 C1722 1.369 . S
C1723 C1724 1.410 . S
C1723 C1731 1.503 . S
C1724 C1723 1.410 . S
C1724 C1725 1.392 . S
C1724 C1727 1.511 . S
C1725 C1721 1.376 . S
C1725 C1724 1.392 . S
C1725 H1737 0.929 . S
C1726 C1722 1.531 . S
C1726 H1738 0.960 . S
C1726 H1739 0.962 . S
C1726 H1740 0.960 . S
C1727 C1724 1.511 . S
C1727 H1741 0.961 . S
C1727 H1742 0.961 . S
C1727 H1743 0.961 . S
C1728 C1729 1.370 . S
C1728 C1730 1.363 . S
C1728 H1744 0.931 . S
C1729 C1728 1.370 . S
C1729 C1733 1.408 . S
C1730 C1728 1.363 . S
C1730 C1731 1.370 . S
C1730 C1734 1.524 . S
C1731 C1723 1.503 . S
C1731 C1730 1.370 . S
C1731 C1732 1.403 . S
C1732 C1731 1.403 . S
C1732 C1733 1.404 . S
C1732 C1735 1.539 . S
C1733 C1729 1.408 . S
C1733 C1732 1.404 . S
C1733 H1745 0.930 . S
C1734 C1730 1.524 . S
C1734 H1746 0.956 . S
C1734 H1747 0.961 . S
C1734 H1748 0.961 . S
C1735 C1732 1.539 . S
C1735 H1749 0.958 . S
C1735 H1750 0.961 . S
C1735 H1751 0.960 . S
H1736 C1720 0.931 . S
H1737 C1725 0.929 . S
H1738 C1726 0.960 . S
H1739 C1726 0.962 . S
H1740 C1726 0.960 . S
H1741 C1727 0.961 . S
H1742 C1727 0.961 . S
H1743 C1727 0.961 . S
H1744 C1728 0.931 . S
H1745 C1733 0.930 . S
H1746 C1734 0.956 . S
H1747 C1734 0.961 . S
H1748 C1734 0.961 . S
H1749 C1735 0.958 . S
H1750 C1735 0.961 . S
H1751 C1735 0.960 . S
C1752 C1753 1.391 . S
C1752 C1754 1.394 . S
C1752 H1768 0.931 . S
C1753 C1752 1.391 . S
C1753 C1757 1.376 . S
C1754 C1752 1.394 . S
C1754 C1755 1.369 . S
C1754 C1758 1.531 . S
C1755 C1754 1.369 . S
C1755 C1756 1.410 . S
C1755 C1763 1.503 . S
C1756 C1755 1.410 . S
C1756 C1757 1.392 . S
C1756 C1759 1.511 . S
C1757 C1753 1.376 . S
C1757 C1756 1.392 . S
C1757 H1769 0.929 . S
C1758 C1754 1.531 . S
C1758 H1770 0.960 . S
C1758 H1771 0.962 . S
C1758 H1772 0.960 . S
C1759 C1756 1.511 . S
C1759 H1773 0.961 . S
C1759 H1774 0.961 . S
C1759 H1775 0.961 . S
C1760 C1761 1.370 . S
C1760 C1762 1.363 . S
C1760 H1776 0.931 . S
C1761 C1760 1.370 . S
C1761 C1765 1.408 . S
C1762 C1760 1.363 . S
C1762 C1763 1.370 . S
C1762 C1766 1.524 . S
C1763 C1755 1.503 . S
C1763 C1762 1.370 . S
C1763 C1764 1.403 . S
C1764 C1763 1.403 . S
C1764 C1765 1.404 . S
C1764 C1767 1.539 . S
C1765 C1761 1.408 . S
C1765 C1764 1.404 . S
C1765 H1777 0.930 . S
C1766 C1762 1.524 . S
C1766 H1778 0.956 . S
C1766 H1779 0.961 . S
C1766 H1780 0.961 . S
C1767 C1764 1.539 . S
C1767 H1781 0.958 . S
C1767 H1782 0.961 . S
C1767 H1783 0.960 . S
H1768 C1752 0.931 . S
H1769 C1757 0.929 . S
H1770 C1758 0.960 . S
H1771 C1758 0.962 . S
H1772 C1758 0.960 . S
H1773 C1759 0.961 . S
H1774 C1759 0.961 . S
H1775 C1759 0.961 . S
H1776 C1760 0.931 . S
H1777 C1765 0.930 . S
H1778 C1766 0.956 . S
H1779 C1766 0.961 . S
H1780 C1766 0.961 . S
H1781 C1767 0.958 . S
H1782 C1767 0.961 . S
H1783 C1767 0.960 . S
C1784 C1785 1.391 . S
C1784 C1786 1.394 . S
C1784 H1800 0.931 . S
C1785 C1784 1.391 . S
C1785 C1789 1.376 . S
C1786 C1784 1.394 . S
C1786 C1787 1.369 . S
C1786 C1790 1.531 . S
C1787 C1786 1.369 . S
C1787 C1788 1.410 . S
C1787 C1795 1.503 . S
C1788 C1787 1.410 . S
C1788 C1789 1.392 . S
C1788 C1791 1.511 . S
C1789 C1785 1.376 . S
C1789 C1788 1.392 . S
C1789 H1801 0.929 . S
C1790 C1786 1.531 . S
C1790 H1802 0.960 . S
C1790 H1803 0.962 . S
C1790 H1804 0.960 . S
C1791 C1788 1.511 . S
C1791 H1805 0.961 . S
C1791 H1806 0.961 . S
C1791 H1807 0.961 . S
C1792 C1793 1.370 . S
C1792 C1794 1.363 . S
C1792 H1808 0.931 . S
C1793 C1792 1.370 . S
C1793 C1797 1.408 . S
C1794 C1792 1.363 . S
C1794 C1795 1.370 . S
C1794 C1798 1.524 . S
C1795 C1787 1.503 . S
C1795 C1794 1.370 . S
C1795 C1796 1.403 . S
C1796 C1795 1.403 . S
C1796 C1797 1.404 . S
C1796 C1799 1.539 . S
C1797 C1793 1.408 . S
C1797 C1796 1.404 . S
C1797 H1809 0.930 . S
C1798 C1794 1.524 . S
C1798 H1810 0.956 . S
C1798 H1811 0.961 . S
C1798 H1812 0.961 . S
C1799 C1796 1.539 . S
C1799 H1813 0.958 . S
C1799 H1814 0.961 . S
C1799 H1815 0.960 . S
H1800 C1784 0.931 . S
H1801 C1789 0.929 . S
H1802 C1790 0.960 . S
H1803 C1790 0.962 . S
H1804 C1790 0.960 . S
H1805 C1791 0.961 . S
H1806 C1791 0.961 . S
H1807 C1791 0.961 . S
H1808 C1792 0.931 . S
H1809 C1797 0.930 . S
H1810 C1798 0.956 . S
H1811 C1798 0.961 . S
H1812 C1798 0.961 . S
H1813 C1799 0.958 . S
H1814 C1799 0.961 . S
H1815 C1799 0.960 . S
C1816 C1817 1.391 . S
C1816 C1818 1.394 . S
C1816 H1832 0.931 . S
C1817 C1816 1.391 . S
C1817 C1821 1.376 . S
C1818 C1816 1.394 . S
C1818 C1819 1.369 . S
C1818 C1822 1.531 . S
C1819 C1818 1.369 . S
C1819 C1820 1.410 . S
C1819 C1827 1.503 . S
C1820 C1819 1.410 . S
C1820 C1821 1.392 . S
C1820 C1823 1.511 . S
C1821 C1817 1.376 . S
C1821 C1820 1.392 . S
C1821 H1833 0.929 . S
C1822 C1818 1.531 . S
C1822 H1834 0.960 . S
C1822 H1835 0.962 . S
C1822 H1836 0.960 . S
C1823 C1820 1.511 . S
C1823 H1837 0.961 . S
C1823 H1838 0.961 . S
C1823 H1839 0.961 . S
C1824 C1825 1.370 . S
C1824 C1826 1.363 . S
C1824 H1840 0.931 . S
C1825 C1824 1.370 . S
C1825 C1829 1.408 . S
C1826 C1824 1.363 . S
C1826 C1827 1.370 . S
C1826 C1830 1.524 . S
C1827 C1819 1.503 . S
C1827 C1826 1.370 . S
C1827 C1828 1.403 . S
C1828 C1827 1.403 . S
C1828 C1829 1.404 . S
C1828 C1831 1.539 . S
C1829 C1825 1.408 . S
C1829 C1828 1.404 . S
C1829 H1841 0.930 . S
C1830 C1826 1.524 . S
C1830 H1842 0.956 . S
C1830 H1843 0.961 . S
C1830 H1844 0.961 . S
C1831 C1828 1.539 . S
C1831 H1845 0.958 . S
C1831 H1846 0.961 . S
C1831 H1847 0.960 . S
H1832 C1816 0.931 . S
H1833 C1821 0.929 . S
H1834 C1822 0.960 . S
H1835 C1822 0.962 . S
H1836 C1822 0.960 . S
H1837 C1823 0.961 . S
H1838 C1823 0.961 . S
H1839 C1823 0.961 . S
H1840 C1824 0.931 . S
H1841 C1829 0.930 . S
H1842 C1830 0.956 . S
H1843 C1830 0.961 . S
H1844 C1830 0.961 . S
H1845 C1831 0.958 . S
H1846 C1831 0.961 . S
H1847 C1831 0.960 . S
C313 C187 1.220 . S
C321 C8 1.261 . S
C345 C18 1.200 . S
C353 C195 1.196 . S
C377 C242 1.291 . S
C385 C36 1.304 . S
C409 C39 1.175 . S
C417 C169 1.175 . S
C441 C182 1.279 . S
C449 C62 1.320 . S
C473 C70 1.227 . S
C481 C200 1.224 . S
C505 C86 1.254 . S
C513 C244 1.257 . S
C537 C91 1.221 . S
C545 C174 1.198 . S
C569 C125 1.267 . S
C577 C112 1.259 . S
C601 C130 1.283 . S
C609 C127 1.324 . S
C633 C135 1.290 . S
C641 C151 1.272 . S
C665 C153 1.284 . S
C673 C114 1.290 . S
C697 C156 1.236 . S
C705 C44 1.206 . S
C729 C60 1.193 . S
C737 C218 1.265 . S
C761 C221 1.149 . S
C769 C13 1.173 . S
C793 C23 1.441 . S
C801 C278 1.392 . S
C825 C117 1.373 . S
C833 C5 1.355 . S
C857 C307 1.393 . S
C865 C47 1.409 . S
C889 C143 1.384 . S
C897 C26 1.347 . S
C921 C273 1.467 . S
C929 C99 1.453 . S
C953 C122 1.370 . S
C961 C83 1.383 . S
C985 C75 1.436 . S
C993 C309 1.437 . S
C1017 C52 1.320 . S
C1025 C148 1.374 . S
C1049 C205 1.439 . S
C1057 C257 1.441 . S
C1081 C213 1.528 . S
C1089 C203 1.488 . S
C1113 C179 1.406 . S
C1121 C208 1.372 . S
C1145 C255 1.432 . S
C1153 C177 1.391 . S
C1177 C31 1.366 . S
C1185 C260 1.364 . S
C1209 C140 1.439 . S
C1217 C101 1.441 . S
C1241 C0 1.367 . S
C1249 C286 1.350 . S
C1273 C252 1.229 . S
C1281 C34 1.271 . S
C1305 C10 1.301 . S
C1313 C216 1.266 . S
C1337 C247 1.277 . S
C1345 C88 1.320 . S
C1369 C161 1.238 . S
C1377 C96 1.197 . S
C1401 C65 1.223 . S
C1409 C226 1.196 . S
C1433 C281 1.238 . S
C1441 C268 1.239 . S
C1465 C299 1.283 . S
C1473 C270 1.322 . S
C1497 C294 1.239 . S
C1505 C304 1.260 . S
C1529 C283 1.279 . S
C1537 C296 1.291 . S
C1561 C109 1.425 . S
C1569 C49 1.441 . S
C1593 C21 1.395 . S
C1601 C138 1.417 . S
C1625 C73 1.425 . S
C1633 C104 1.472 . S
C1657 C265 1.332 . S
C1665 C57 1.363 . S
C1689 C78 1.376 . S
C1697 C291 1.361 . S
C1721 C166 1.437 . S
C1729 C192 1.437 . S
C1753 C239 1.510 . S
C1761 C164 1.498 . S
C1785 C231 1.411 . S
C1793 C234 1.346 . S
C1817 C190 1.424 . S
C1825 C229 1.398 . S
