# Generated by pormake.
# Topology sof, (5)-cn, num edge types: 1
# Building blocks:
#     Node 0, Type 0, BuildingBlock: XOMCOT_clean_sbu_1, # of connection points: 5
#     Node 1, Type 0, BuildingBlock: XOMCOT_clean_sbu_1, # of connection points: 5
#     Node 2, Type 0, BuildingBlock: XOMCOT_clean_sbu_1, # of connection points: 5
#     Node 3, Type 0, BuildingBlock: XOMCOT_clean_sbu_1, # of connection points: 5
#     Node 4, Type 0, BuildingBlock: XOMCOT_clean_sbu_1, # of connection points: 5
#     Node 5, Type 0, BuildingBlock: XOMCOT_clean_sbu_1, # of connection points: 5
#     Node 6, Type 0, BuildingBlock: XOMCOT_clean_sbu_1, # of connection points: 5
#     Node 7, Type 0, BuildingBlock: XOMCOT_clean_sbu_1, # of connection points: 5
#     Edge 8, Type (0, 0), BuildingBlock: KIFKEQ_clean_linker_1, # of connection points: 2
#     Edge 9, Type (0, 0), BuildingBlock: KIFKEQ_clean_linker_1, # of connection points: 2
#     Edge 10, Type (0, 0), BuildingBlock: KIFKEQ_clean_linker_1, # of connection points: 2
#     Edge 11, Type (0, 0), BuildingBlock: KIFKEQ_clean_linker_1, # of connection points: 2
#     Edge 12, Type (0, 0), BuildingBlock: KIFKEQ_clean_linker_1, # of connection points: 2
#     Edge 13, Type (0, 0), BuildingBlock: KIFKEQ_clean_linker_1, # of connection points: 2
#     Edge 14, Type (0, 0), BuildingBlock: KIFKEQ_clean_linker_1, # of connection points: 2
#     Edge 15, Type (0, 0), BuildingBlock: KIFKEQ_clean_linker_1, # of connection points: 2
#     Edge 16, Type (0, 0), BuildingBlock: KIFKEQ_clean_linker_1, # of connection points: 2
#     Edge 17, Type (0, 0), BuildingBlock: KIFKEQ_clean_linker_1, # of connection points: 2
#     Edge 18, Type (0, 0), BuildingBlock: KIFKEQ_clean_linker_1, # of connection points: 2
#     Edge 19, Type (0, 0), BuildingBlock: KIFKEQ_clean_linker_1, # of connection points: 2
#     Edge 20, Type (0, 0), BuildingBlock: KIFKEQ_clean_linker_1, # of connection points: 2
#     Edge 21, Type (0, 0), BuildingBlock: KIFKEQ_clean_linker_1, # of connection points: 2
#     Edge 22, Type (0, 0), BuildingBlock: KIFKEQ_clean_linker_1, # of connection points: 2
#     Edge 23, Type (0, 0), BuildingBlock: KIFKEQ_clean_linker_1, # of connection points: 2
#     Edge 24, Type (0, 0), BuildingBlock: KIFKEQ_clean_linker_1, # of connection points: 2
#     Edge 25, Type (0, 0), BuildingBlock: KIFKEQ_clean_linker_1, # of connection points: 2
#     Edge 26, Type (0, 0), BuildingBlock: KIFKEQ_clean_linker_1, # of connection points: 2
#     Edge 27, Type (0, 0), BuildingBlock: KIFKEQ_clean_linker_1, # of connection points: 2
# Relax obj value: 0.150
# Max RMSD: 0.158
# Mean RMSD: 0.158
data_MOF--net-sof--node1-XOMCOT_clean_sbu_1--edge1-KIFKEQ_clean_linker_1
_symmetry_space_group_name_H-M    P1
_symmetry_Int_Tables_number       1
_symmetry_cell_setting            triclinic
loop_
_symmetry_equiv_pos_as_xyz
'x, y, z'
_cell_length_a     57.844493
_cell_length_b     17.714164
_cell_length_c     48.967377
_cell_angle_alpha  90.022191
_cell_angle_beta   89.96916
_cell_angle_gamma 90.009739
loop_
_atom_site_label
_atom_site_type_symbol
_atom_site_fract_x
_atom_site_fract_y
_atom_site_fract_z
_atom_type_partial_charge
C0 C 0.11368 0.1666 0.10058 0.0
C1 C 0.1155 0.24376 0.0983 0.0
N2 N 0.09833 0.27575 0.11294 0.0
N3 N 0.09559 0.14973 0.11679 0.0
C4 C 0.08642 0.21717 0.1237 0.0
H5 H 0.12502 0.12548 0.09126 0.0
Co6 Co 0.08612 0.05372 0.12749 0.0
C7 C 0.07374 0.07275 0.18626 0.0
O8 O 0.08284 1.00645 0.19168 0.0
N9 N 0.07598 0.95642 0.1376 0.0
C10 C 0.05209 0.86443 0.15045 0.0
C11 C 0.05498 0.94115 0.14834 0.0
C12 C 0.08516 0.88753 0.13254 0.0
N13 N 0.07111 0.83045 0.14039 0.0
O14 O 0.05737 0.06772 0.10887 0.0
H15 H 0.04226 0.98333 0.15374 0.0
H16 H 0.10124 0.87876 0.12193 0.0
O17 O 0.07366 0.09698 0.16162 0.0
C18 C 0.0603 0.05087 0.08377 0.0
O19 O 0.08122 0.03277 0.07555 0.0
N20 N 0.11556 0.03822 0.14284 0.0
C21 C 0.16285 0.02391 0.15279 0.0
C22 C 0.14892 0.06685 0.17032 0.0
C23 C 0.12532 0.07509 0.16454 0.0
C24 C 0.1291 0.9974 0.12552 0.0
C25 C 0.15262 0.98846 0.13031 0.0
H26 H 0.11553 0.11494 0.17649 0.0
H27 H 0.12184 0.97572 0.10676 0.0
H28 H 0.07114 0.22293 0.13622 0.0
H29 H 0.12881 0.27362 0.08715 0.0
H30 H 0.03693 0.83629 0.15843 0.0
H31 H 0.15647 0.09758 0.18724 0.0
H32 H 0.16292 0.95648 0.11589 0.0
C33 C 0.3868 0.84201 0.09901 0.0
C34 C 0.38465 0.76493 0.09671 0.0
N35 N 0.40053 0.73242 0.11304 0.0
N36 N 0.4038 0.85808 0.11691 0.0
C37 C 0.412 0.79021 0.12487 0.0
H38 H 0.37655 0.88373 0.08839 0.0
Co39 Co 0.4129 0.95426 0.12776 0.0
C40 C 0.42587 0.9365 0.18638 0.0
O41 O 0.41671 1.00281 0.19172 0.0
N42 N 0.42259 0.05195 0.13789 0.0
C43 C 0.44624 0.14566 0.14981 0.0
C44 C 0.44384 0.06871 0.14764 0.0
C45 C 0.41268 0.12013 0.1336 0.0
N46 N 0.42662 0.17794 0.14083 0.0
O47 O 0.44164 0.94177 0.10887 0.0
H48 H 0.45709 0.02746 0.1521 0.0
H49 H 0.39585 0.12813 0.12465 0.0
O50 O 0.42575 0.91164 0.1618 0.0
C51 C 0.43856 0.96042 0.08396 0.0
O52 O 0.41763 0.97959 0.07617 0.0
N53 N 0.38346 0.96804 0.14328 0.0
C54 C 0.33611 0.97918 0.15329 0.0
C55 C 0.35035 0.93826 0.17106 0.0
C56 C 0.374 0.93154 0.16525 0.0
C57 C 0.36962 1.00697 0.12576 0.0
C58 C 0.34604 0.01421 0.13054 0.0
H59 H 0.38409 0.89314 0.17743 0.0
H60 H 0.37676 0.02891 0.10696 0.0
H61 H 0.4259 0.78316 0.13938 0.0
H62 H 0.37249 0.73522 0.0838 0.0
H63 H 0.46162 0.17553 0.15627 0.0
H64 H 0.34305 0.90792 0.18822 0.0
H65 H 0.33548 0.04469 0.11597 0.0
C66 C 0.11381 0.34558 0.42941 0.0
C67 C 0.11589 0.26849 0.43195 0.0
N68 N 0.1008 0.2358 0.41466 0.0
N69 N 0.09748 0.36128 0.41062 0.0
C70 C 0.0898 0.29327 0.40212 0.0
H71 H 0.12355 0.3876 0.44057 0.0
Co72 Co 0.08797 0.45716 0.40027 0.0
C73 C 0.07331 0.44054 0.34216 0.0
O74 O 0.0817 0.50787 0.33674 0.0
N75 N 0.07784 0.5548 0.39068 0.0
C76 C 0.05344 0.64834 0.38109 0.0
C77 C 0.05601 0.57144 0.38296 0.0
C78 C 0.08805 0.62301 0.39377 0.0
N79 N 0.07364 0.68096 0.388 0.0
O80 O 0.05966 0.44352 0.41993 0.0
H81 H 0.04251 0.53013 0.37977 0.0
H82 H 0.10548 0.63072 0.40088 0.0
O83 O 0.07441 0.41494 0.36658 0.0
C84 C 0.06262 0.4625 0.44482 0.0
O85 O 0.08345 0.48271 0.45267 0.0
N86 N 0.11698 0.47181 0.38376 0.0
C87 C 0.16323 0.49383 0.3693 0.0
C88 C 0.1487 0.44879 0.3531 0.0
C89 C 0.12569 0.43712 0.36101 0.0
C90 C 0.13129 0.51153 0.40048 0.0
C91 C 0.15425 0.52452 0.39346 0.0
H92 H 0.11545 0.39776 0.34941 0.0
H93 H 0.1249 0.5318 0.41991 0.0
H94 H 0.07603 0.28578 0.38746 0.0
H95 H 0.12777 0.23887 0.44524 0.0
H96 H 0.03757 0.6777 0.37625 0.0
H97 H 0.15512 0.42175 0.33477 0.0
H98 H 0.16507 0.5561 0.40743 0.0
C99 C 0.38573 0.66664 0.43027 0.0
C100 C 0.38356 0.74373 0.43265 0.0
N101 N 0.3986 0.77664 0.41526 0.0
N102 N 0.40199 0.65081 0.41143 0.0
C103 C 0.40958 0.71877 0.40277 0.0
H104 H 0.37617 0.62472 0.44168 0.0
Co105 Co 0.41148 0.55476 0.40102 0.0
C106 C 0.42611 0.57127 0.34284 0.0
O107 O 0.4175 0.50424 0.33744 0.0
N108 N 0.42156 0.45723 0.39139 0.0
C109 C 0.44623 0.36449 0.38163 0.0
C110 C 0.44338 0.44127 0.38332 0.0
C111 C 0.41162 0.38871 0.39487 0.0
N112 N 0.42623 0.33147 0.38898 0.0
O113 O 0.43976 0.56824 0.42076 0.0
H114 H 0.45667 0.48304 0.37969 0.0
H115 H 0.39453 0.38003 0.40308 0.0
O116 O 0.42513 0.59689 0.36729 0.0
C117 C 0.43663 0.54881 0.44558 0.0
O118 O 0.41578 0.52795 0.45315 0.0
N119 N 0.38247 0.54036 0.38452 0.0
C120 C 0.33553 0.52904 0.37222 0.0
C121 C 0.35042 0.56971 0.35512 0.0
C122 C 0.3738 0.57659 0.36207 0.0
C123 C 0.36802 0.50161 0.40143 0.0
C124 C 0.34459 0.49444 0.39554 0.0
H125 H 0.38428 0.61497 0.35034 0.0
H126 H 0.37454 0.47952 0.42051 0.0
H127 H 0.42286 0.7256 0.3875 0.0
H128 H 0.37206 0.77291 0.44651 0.0
H129 H 0.46195 0.33527 0.37598 0.0
H130 H 0.34376 0.59986 0.33756 0.0
H131 H 0.33348 0.46427 0.40962 0.0
C132 C 0.88143 0.84725 0.92711 0.0
C133 C 0.87939 0.77018 0.92979 0.0
N134 N 0.89617 0.737 0.91485 0.0
N135 N 0.89929 0.86291 0.9104 0.0
C136 C 0.9081 0.79487 0.9036 0.0
H137 H 0.87061 0.88922 0.93681 0.0
Co138 Co 0.90933 0.95852 0.89995 0.0
C139 C 0.92747 0.938 0.84287 0.0
O140 O 0.92142 1.00708 0.83623 0.0
N141 N 0.91994 0.05575 0.89039 0.0
C142 C 0.9451 0.14865 0.88276 0.0
C143 C 0.94215 0.07182 0.88402 0.0
C144 C 0.90986 0.12431 0.89332 0.0
N145 N 0.92477 0.18167 0.88872 0.0
O146 O 0.93679 0.94514 0.92124 0.0
H147 H 0.95562 0.03009 0.88141 0.0
H148 H 0.89241 0.13282 0.90044 0.0
O149 O 0.92389 0.91399 0.86719 0.0
C150 C 0.93309 0.97292 0.94489 0.0
O151 O 0.91238 0.99977 0.95018 0.0
N152 N 0.88107 0.97319 0.88184 0.0
C153 C 0.83468 0.9848 0.86709 0.0
C154 C 0.85029 0.94594 0.85034 0.0
C155 C 0.87341 0.9391 0.85844 0.0
C156 C 0.86596 0.01114 0.89818 0.0
C157 C 0.84277 0.0182 0.89112 0.0
H158 H 0.88445 0.9024 0.84674 0.0
H159 H 0.87174 0.0326 0.91769 0.0
H160 H 0.92303 0.78812 0.89062 0.0
H161 H 0.86664 0.74127 0.94211 0.0
H162 H 0.96112 0.17789 0.87846 0.0
H163 H 0.84435 0.91709 0.83214 0.0
H164 H 0.83106 0.04712 0.90487 0.0
C165 C 0.61619 0.16591 0.9265 0.0
C166 C 0.61835 0.24301 0.92898 0.0
N167 N 0.6017 0.27583 0.91382 0.0
N168 N 0.59842 0.15021 0.90966 0.0
C169 C 0.58978 0.21821 0.90251 0.0
H170 H 0.62696 0.12391 0.93623 0.0
Co171 Co 0.5889 0.05442 0.89912 0.0
C172 C 0.57339 0.07347 0.84149 0.0
O173 O 0.5824 1.00736 0.83554 0.0
N174 N 0.57874 0.95657 0.88934 0.0
C175 C 0.55455 0.86303 0.87874 0.0
C176 C 0.55718 0.94 0.88051 0.0
C177 C 0.58857 0.8882 0.89359 0.0
N178 N 0.57432 0.8305 0.88711 0.0
O179 O 0.56118 0.06619 0.92009 0.0
H180 H 0.54387 0.98141 0.87651 0.0
H181 H 0.60553 0.87994 0.90212 0.0
O182 O 0.57435 0.09779 0.86612 0.0
C183 C 0.56489 0.03798 0.94367 0.0
O184 O 0.58567 0.01166 0.94892 0.0
N185 N 0.61747 0.04135 0.88131 0.0
C186 C 0.66314 0.02024 0.86433 0.0
C187 C 0.64831 0.06836 0.84979 0.0
C188 C 0.62561 0.07945 0.85898 0.0
C189 C 0.63221 0.99903 0.8966 0.0
C190 C 0.65485 0.98626 0.88824 0.0
H191 H 0.61514 0.121 0.84872 0.0
H192 H 0.62656 0.97723 0.9161 0.0
H193 H 0.57523 0.22545 0.88894 0.0
H194 H 0.63106 0.27248 0.9412 0.0
H195 H 0.53892 0.83337 0.87301 0.0
H196 H 0.65429 0.09818 0.83183 0.0
H197 H 0.66604 0.95246 0.90107 0.0
C198 C 0.8823 0.66996 0.59973 0.0
C199 C 0.88012 0.74701 0.59721 0.0
N200 N 0.89713 0.77999 0.61174 0.0
N201 N 0.90043 0.65434 0.61606 0.0
C202 C 0.90934 0.72244 0.62267 0.0
H203 H 0.87126 0.62803 0.5904 0.0
Co204 Co 0.91 0.55862 0.62697 0.0
C205 C 0.92731 0.57994 0.68429 0.0
O206 O 0.92056 0.51165 0.69108 0.0
N207 N 0.92009 0.46112 0.63699 0.0
C208 C 0.94427 0.36678 0.6465 0.0
C209 C 0.94191 0.4438 0.6446 0.0
C210 C 0.90975 0.39316 0.63364 0.0
N211 N 0.92402 0.33493 0.63943 0.0
O212 O 0.9378 0.57033 0.60615 0.0
H213 H 0.95556 0.4847 0.64764 0.0
H214 H 0.89238 0.38571 0.62615 0.0
O215 O 0.92433 0.60348 0.65981 0.0
C216 C 0.93442 0.5414 0.58261 0.0
O217 O 0.91375 0.51457 0.57709 0.0
N218 N 0.88141 0.54551 0.64467 0.0
C219 C 0.83486 0.53514 0.65901 0.0
C220 C 0.8504 0.57425 0.67575 0.0
C221 C 0.8736 0.5805 0.66784 0.0
C222 C 0.86633 0.5076 0.62828 0.0
C223 C 0.84307 0.50115 0.63513 0.0
H224 H 0.8846 0.61738 0.67951 0.0
H225 H 0.87221 0.48568 0.60887 0.0
H226 H 0.92433 0.72978 0.63555 0.0
H227 H 0.86708 0.77636 0.58545 0.0
H228 H 0.96001 0.33657 0.6513 0.0
H229 H 0.84439 0.60363 0.69381 0.0
H230 H 0.83142 0.47205 0.62137 0.0
C231 C 0.61539 0.35218 0.6015 0.0
C232 C 0.61754 0.27509 0.599 0.0
N233 N 0.60112 0.24224 0.61452 0.0
N234 N 0.59786 0.36786 0.61871 0.0
C235 C 0.58934 0.29985 0.62607 0.0
H236 H 0.626 0.3942 0.59152 0.0
Co237 Co 0.58844 0.46365 0.62939 0.0
C238 C 0.57354 0.44463 0.68728 0.0
O239 O 0.58262 0.51071 0.69314 0.0
N240 N 0.57839 0.56147 0.63933 0.0
C241 C 0.55434 0.65503 0.65035 0.0
C242 C 0.55693 0.57806 0.64851 0.0
C243 C 0.58819 0.62982 0.63494 0.0
N244 N 0.57403 0.68754 0.64166 0.0
O245 O 0.56047 0.45164 0.60893 0.0
H246 H 0.54366 0.53666 0.65273 0.0
H247 H 0.60506 0.63806 0.62614 0.0
O248 O 0.57429 0.42032 0.66265 0.0
C249 C 0.5638 0.48036 0.58535 0.0
O250 O 0.58443 0.50747 0.57977 0.0
N251 N 0.61724 0.47694 0.64666 0.0
C252 C 0.66313 0.49851 0.6627 0.0
C253 C 0.64848 0.45072 0.67766 0.0
C254 C 0.62566 0.43938 0.66895 0.0
C255 C 0.63178 0.51897 0.63097 0.0
C256 C 0.65452 0.53191 0.63885 0.0
H257 H 0.61532 0.39808 0.67953 0.0
H258 H 0.62586 0.54049 0.61154 0.0
H259 H 0.57499 0.29258 0.63994 0.0
H260 H 0.63008 0.24563 0.58652 0.0
H261 H 0.53879 0.68471 0.65634 0.0
H262 H 0.65467 0.42138 0.69562 0.0
H263 H 0.66554 0.56545 0.6257 0.0
H264 H 0.19453 0.06001 0.11444 0.0
H265 H 0.18835 0.98459 0.19789 0.0
H266 H 0.2363 0.04832 0.11708 0.0
H267 H 0.23057 0.97045 0.20047 0.0
H268 H 0.31042 0.02336 0.19764 0.0
H269 H 0.26814 0.03628 0.19989 0.0
H270 H 0.26286 0.9453 0.11819 0.0
H271 H 0.3047 0.935 0.11582 0.0
C272 C 0.20221 0.04056 0.13336 0.0
C273 C 0.18828 0.02202 0.15582 0.0
C274 C 0.22613 0.03345 0.13486 0.0
C275 C 0.23677 1.0067 0.15878 0.0
C276 C 0.2229 0.99111 0.18174 0.0
C277 C 0.1988 0.99901 0.18029 0.0
C278 C 0.30005 1.00569 0.18037 0.0
C279 C 0.31069 0.97945 0.1564 0.0
C280 C 0.27592 0.01289 0.18163 0.0
C281 C 0.26216 0.99335 0.15899 0.0
C282 C 0.27294 0.96317 0.13568 0.0
C283 C 0.29689 0.9568 0.13434 0.0
H284 H 0.30258 0.57427 0.40777 0.0
H285 H 0.31178 0.48454 0.32655 0.0
H286 H 0.26073 0.57102 0.40184 0.0
H287 H 0.26951 0.48031 0.32063 0.0
H288 H 0.19412 0.38989 0.34909 0.0
H289 H 0.23606 0.40406 0.34514 0.0
H290 H 0.23051 0.63604 0.37124 0.0
H291 H 0.18865 0.62287 0.37454 0.0
C292 C 0.29556 0.55396 0.38862 0.0
C293 C 0.31028 0.52927 0.36766 0.0
C294 C 0.27166 0.55263 0.38513 0.0
C295 C 0.26194 0.5257 0.36073 0.0
C296 C 0.27663 0.50125 0.33963 0.0
C297 C 0.30069 0.50389 0.34296 0.0
C298 C 0.20175 0.44453 0.35321 0.0
C299 C 0.18807 0.50493 0.36257 0.0
C300 C 0.22576 0.45253 0.35098 0.0
C301 C 0.23647 0.52083 0.35823 0.0
C302 C 0.22268 0.58244 0.36592 0.0
C303 C 0.19874 0.57472 0.36791 0.0
H304 H 0.80142 0.92813 0.89976 0.0
H305 H 0.8117 0.0386 0.82219 0.0
H306 H 0.75969 0.93131 0.8929 0.0
H307 H 0.76951 0.04284 0.81533 0.0
H308 H 0.69401 0.12697 0.84627 0.0
H309 H 0.73587 0.11233 0.84138 0.0
H310 H 0.72968 0.87529 0.86035 0.0
H311 H 0.68791 0.88931 0.86476 0.0
C312 C 0.79465 0.9527 0.88114 0.0
C313 C 0.80961 0.9834 0.86154 0.0
C314 C 0.77082 0.95406 0.87711 0.0
C315 C 0.76141 0.98701 0.85352 0.0
C316 C 0.77638 0.01714 0.83368 0.0
C317 C 0.80039 0.01452 0.83753 0.0
C318 C 0.70149 0.0713 0.84856 0.0
C319 C 0.6877 0.00952 0.85636 0.0
C320 C 0.72545 0.06299 0.84578 0.0
C321 C 0.73598 0.99291 0.85087 0.0
C322 C 0.72201 0.93017 0.85673 0.0
C323 C 0.69813 0.93831 0.85933 0.0
H324 H 0.69419 0.39264 0.68099 0.0
H325 H 0.68795 0.62936 0.66103 0.0
H326 H 0.73607 0.40764 0.68543 0.0
H327 H 0.72974 0.64365 0.66494 0.0
H328 H 0.80157 0.58948 0.62585 0.0
H329 H 0.75982 0.58605 0.63267 0.0
H330 H 0.76964 0.47898 0.71104 0.0
H331 H 0.81183 0.48348 0.70422 0.0
C332 C 0.70164 0.4482 0.67825 0.0
C333 C 0.68779 0.50956 0.6702 0.0
C334 C 0.72562 0.45672 0.68077 0.0
C335 C 0.7361 0.52656 0.67516 0.0
C336 C 0.72209 0.58893 0.66897 0.0
C337 C 0.6982 0.58062 0.66665 0.0
C338 C 0.79479 0.56581 0.64462 0.0
C339 C 0.80976 0.53646 0.66447 0.0
C340 C 0.77095 0.56431 0.64863 0.0
C341 C 0.76154 0.53253 0.67244 0.0
C342 C 0.77651 0.50373 0.69251 0.0
C343 C 0.80053 0.50652 0.68869 0.0
H344 H 0.0631 0.05329 0.02853 0.0
H345 H 0.01395 0.03387 0.09453 0.0
H346 H 0.03243 0.03291 0.9955 0.0
H347 H 0.98312 0.01061 0.06139 0.0
H348 H 0.93019 0.04631 0.99351 0.0
H349 H 0.96031 0.06713 0.02703 0.0
H350 H 0.00797 0.93774 0.97767 0.0
H351 H 0.97779 0.91932 0.94335 0.0
C352 C 0.04566 0.04462 0.03599 0.0
C353 C 0.04092 0.04529 0.06416 0.0
C354 C 0.02808 0.03209 0.01701 0.0
C355 C 0.00527 0.01904 0.02565 0.0
C356 C 0.00043 0.02113 0.0539 0.0
C357 C 0.01807 0.03452 0.07295 0.0
C358 C 0.94707 0.02194 0.98975 0.0
C359 C 0.95159 0.9812 0.96564 0.0
C360 C 0.96436 0.03356 1.00917 0.0
C361 C 0.98666 1.00428 1.0052 0.0
C362 C 0.99111 0.96231 0.98126 0.0
C363 C 0.97378 0.95118 0.96163 0.0
H364 H 0.48513 0.97455 0.09404 0.0
H365 H 0.43515 0.96136 0.02878 0.0
H366 H 0.51572 0.99756 0.06052 0.0
H367 H 0.46555 0.98146 0.99536 0.0
H368 H 0.52039 0.09352 0.94291 0.0
H369 H 0.49041 0.07537 0.97755 0.0
H370 H 0.53781 0.9412 0.02549 0.0
H371 H 0.56772 0.96171 0.99167 0.0
C372 C 0.48077 0.97526 0.07253 0.0
C373 C 0.45776 0.96626 0.06407 0.0
C374 C 0.49826 0.98849 0.05326 0.0
C375 C 0.49313 0.99217 0.02511 0.0
C376 C 0.47014 0.98101 0.01679 0.0
C377 C 0.45271 0.96864 0.036 0.0
C378 C 0.52437 0.06059 0.96094 0.0
C379 C 0.54644 0.02924 0.96448 0.0
C380 C 0.50716 0.04965 0.98075 0.0
C381 C 0.5116 1.00653 1.00442 0.0
C382 C 0.53377 0.97573 1.00788 0.0
C383 C 0.55094 0.98717 0.98828 0.0
H384 H 0.01615 0.47434 0.43411 0.0
H385 H 0.06555 0.46579 0.50009 0.0
H386 H 0.98517 0.49735 0.46707 0.0
H387 H 0.03473 0.48583 0.53301 0.0
H388 H 0.97877 0.5981 0.58395 0.0
H389 H 0.00929 0.57924 0.55003 0.0
H390 H 0.96291 0.44151 0.50195 0.0
H391 H 0.93247 0.46275 0.53504 0.0
C392 C 0.0203 0.47604 0.45567 0.0
C393 C 0.04326 0.46833 0.46449 0.0
C394 C 0.00257 0.48925 0.47462 0.0
C395 C 0.0074 0.49417 0.50282 0.0
C396 C 0.03035 0.48435 0.51152 0.0
C397 C 0.04803 0.47202 0.49261 0.0
C398 C 0.97513 0.56423 0.56605 0.0
C399 C 0.95318 0.53216 0.56223 0.0
C400 C 0.99265 0.55287 0.54665 0.0
C401 C 0.98864 0.50861 0.52314 0.0
C402 C 0.96661 0.47696 0.51943 0.0
C403 C 0.94913 0.48883 0.53861 0.0
H404 H 0.43301 0.54448 0.50078 0.0
H405 H 0.48333 0.5403 0.43566 0.0
H406 H 0.46353 0.52694 0.53422 0.0
H407 H 0.51404 0.51982 0.46915 0.0
H408 H 0.56553 0.55957 0.53793 0.0
H409 H 0.53532 0.57791 0.50438 0.0
H410 H 0.48956 0.43625 0.5518 0.0
H411 H 0.51984 0.42027 0.5862 0.0
C412 C 0.45067 0.53969 0.49359 0.0
C413 C 0.45578 0.54395 0.46556 0.0
C414 C 0.46818 0.52881 0.51281 0.0
C415 C 0.49132 0.52106 0.50452 0.0
C416 C 0.49648 0.52637 0.4764 0.0
C417 C 0.4789 0.53812 0.45714 0.0
C418 C 0.54905 0.53204 0.54127 0.0
C419 C 0.54511 0.48841 0.56483 0.0
C420 C 0.53171 0.54223 0.52182 0.0
C421 C 0.50992 0.50854 0.52518 0.0
C422 C 0.50601 0.46412 0.54867 0.0
C423 C 0.52338 0.45445 0.56835 0.0
H424 H 0.07842 0.46712 0.28756 0.0
H425 H 0.05512 0.29717 0.3445 0.0
H426 H 0.07441 0.37801 0.25026 0.0
H427 H 0.0504 0.20811 0.30691 0.0
H428 H 0.07892 0.04682 0.24088 0.0
H429 H 0.07464 0.13605 0.27811 0.0
H430 H 0.05057 0.30525 0.22126 0.0
H431 H 0.05563 0.21617 0.18372 0.0
C432 C 0.07198 0.41111 0.2921 0.0
C433 C 0.0674 0.38916 0.31918 0.0
C434 C 0.06953 0.35986 0.27057 0.0
C435 C 0.06225 0.28528 0.27543 0.0
C436 C 0.05652 0.2645 0.30238 0.0
C437 C 0.05911 0.31575 0.32398 0.0
C438 C 0.07244 0.10273 0.23627 0.0
C439 C 0.06788 0.12442 0.20918 0.0
C440 C 0.06981 0.15402 0.25777 0.0
C441 C 0.06239 0.22841 0.25284 0.0
C442 C 0.05676 0.24899 0.22585 0.0
C443 C 0.05952 0.1977 0.20428 0.0
H444 H 0.44442 0.71459 0.34507 0.0
H445 H 0.42129 0.54404 0.28825 0.0
H446 H 0.44931 0.8032 0.30737 0.0
H447 H 0.42553 0.63265 0.25084 0.0
H448 H 0.44458 0.79378 0.18419 0.0
H449 H 0.44968 0.70534 0.22191 0.0
H450 H 0.42489 0.87462 0.27835 0.0
H451 H 0.42048 0.96315 0.24094 0.0
C452 C 0.44051 0.69577 0.32456 0.0
C453 C 0.43218 0.62236 0.31982 0.0
C454 C 0.44321 0.74675 0.30289 0.0
C455 C 0.43758 0.72566 0.27595 0.0
C456 C 0.43031 0.65103 0.27115 0.0
C457 C 0.42773 0.60009 0.29275 0.0
C458 C 0.44051 0.81238 0.20469 0.0
C459 C 0.43187 0.88543 0.20941 0.0
C460 C 0.44332 0.76149 0.22636 0.0
C461 C 0.43749 0.78227 0.25328 0.0
C462 C 0.42985 0.85652 0.25806 0.0
C463 C 0.42717 0.90739 0.23646 0.0
H464 H 0.92239 0.78427 0.84261 0.0
H465 H 0.94538 0.97022 0.79259 0.0
H466 H 0.92654 0.6991 0.80414 0.0
H467 H 0.95044 0.88442 0.75407 0.0
H468 H 0.92314 0.73399 0.68416 0.0
H469 H 0.92733 0.81939 0.72263 0.0
H470 H 0.94982 0.63328 0.77317 0.0
H471 H 0.94469 0.54742 0.73473 0.0
C472 C 0.92903 0.80664 0.82362 0.0
C473 C 0.93355 0.88417 0.82075 0.0
C474 C 0.93146 0.75757 0.8014 0.0
C475 C 0.93871 0.78452 0.77571 0.0
C476 C 0.94434 0.8616 0.77328 0.0
C477 C 0.94163 0.91082 0.79545 0.0
C478 C 0.92947 0.71151 0.70328 0.0
C479 C 0.93354 0.63378 0.70633 0.0
C480 C 0.93192 0.76068 0.72548 0.0
C481 C 0.93875 0.73356 0.7513 0.0
C482 C 0.94401 0.65625 0.75388 0.0
C483 C 0.94127 0.60697 0.73175 0.0
H484 H 0.57755 0.04836 0.78671 0.0
H485 H 0.55497 0.21651 0.84479 0.0
H486 H 0.57302 0.13842 0.74987 0.0
H487 H 0.54963 0.30654 0.80761 0.0
H488 H 0.57822 0.46942 0.74202 0.0
H489 H 0.57357 0.37949 0.77891 0.0
H490 H 0.54922 0.21234 0.72137 0.0
H491 H 0.55467 0.30219 0.68416 0.0
C492 C 0.57113 0.10417 0.79161 0.0
C493 C 0.56695 0.12534 0.81886 0.0
C494 C 0.56837 0.15597 0.77033 0.0
C495 C 0.56113 0.23039 0.77561 0.0
C496 C 0.55571 0.25031 0.80275 0.0
C497 C 0.55863 0.19849 0.82411 0.0
C498 C 0.57157 0.41385 0.73718 0.0
C499 C 0.56714 0.39288 0.70997 0.0
C500 C 0.56874 0.36214 0.75849 0.0
C501 C 0.56119 0.28802 0.75327 0.0
C502 C 0.55554 0.26832 0.72618 0.0
C503 C 0.55853 0.32004 0.7048 0.0
H504 H 0.03896 0.7178 0.14132 0.0
H505 H 0.11226 0.75921 0.13198 0.0
H506 H 0.04561 0.58336 0.13526 0.0
H507 H 0.11862 0.62477 0.12514 0.0
H508 H 0.1144 0.39235 0.08206 0.0
H509 H 0.10808 0.5265 0.08951 0.0
H510 H 0.06591 0.47614 0.15989 0.0
H511 H 0.07266 0.3419 0.1531 0.0
C512 C 0.05651 0.69871 0.13818 0.0
C513 C 0.07504 0.75027 0.13709 0.0
C514 C 0.06028 0.62138 0.13464 0.0
C515 C 0.08261 0.59365 0.12963 0.0
C516 C 0.10116 0.64472 0.1286 0.0
C517 C 0.09745 0.72199 0.13245 0.0
C518 C 0.10398 0.4094 0.09933 0.0
C519 C 0.09409 0.35549 0.11694 0.0
C520 C 0.10034 0.48653 0.10354 0.0
C521 C 0.08652 0.51174 0.12529 0.0
C522 C 0.07644 0.45824 0.14278 0.0
C523 C 0.08027 0.38109 0.13876 0.0
H524 H 0.44385 0.29191 0.17149 0.0
H525 H 0.39973 0.24475 0.10249 0.0
H526 H 0.43725 0.42685 0.16536 0.0
H527 H 0.39332 0.37935 0.09609 0.0
H528 H 0.36867 0.62097 0.10884 0.0
H529 H 0.37459 0.48651 0.11636 0.0
H530 H 0.44655 0.52836 0.1346 0.0
H531 H 0.4405 0.66299 0.12736 0.0
C532 C 0.43285 0.31041 0.15493 0.0
C533 C 0.42228 0.25756 0.13754 0.0
C534 C 0.4291 0.38775 0.15135 0.0
C535 C 0.41477 0.4141 0.1302 0.0
C536 C 0.40413 0.36111 0.11288 0.0
C537 C 0.4078 0.28381 0.11655 0.0
C538 C 0.38579 0.60143 0.11424 0.0
C539 C 0.40412 0.65278 0.11743 0.0
C540 C 0.3892 0.52427 0.11856 0.0
C541 C 0.41106 0.49645 0.12605 0.0
C542 C 0.42939 0.54788 0.12928 0.0
C543 C 0.42594 0.62513 0.12508 0.0
H544 H 0.10564 0.12422 0.45189 0.0
H545 H 0.08768 0.16711 0.36778 0.0
H546 H 0.09922 0.98971 0.4449 0.0
H547 H 0.08178 0.03237 0.36045 0.0
H548 H 0.05 0.79689 0.36469 0.0
H549 H 0.05641 0.93114 0.37132 0.0
H550 H 0.11497 0.88186 0.42307 0.0
H551 H 0.10774 0.74796 0.41788 0.0
C552 C 0.10056 0.10471 0.43182 0.0
C553 C 0.09715 0.15622 0.41041 0.0
C554 C 0.09694 0.02754 0.42775 0.0
C555 C 0.09003 0.99991 0.40207 0.0
C556 C 0.08671 0.05161 0.38062 0.0
C557 C 0.09013 0.12888 0.38478 0.0
C558 C 0.06411 0.81443 0.37771 0.0
C559 C 0.07823 0.76085 0.39082 0.0
C560 C 0.06798 0.89172 0.38123 0.0
C561 C 0.08619 0.9176 0.39779 0.0
C562 C 0.10055 0.86413 0.41051 0.0
C563 C 0.09658 0.78689 0.40717 0.0
H564 H 0.36956 0.89194 0.4286 0.0
H565 H 0.43605 0.84435 0.39201 0.0
H566 H 0.37621 0.02622 0.42238 0.0
H567 H 0.44201 0.97803 0.38439 0.0
H568 H 0.45738 0.22441 0.40299 0.0
H569 H 0.45036 0.09018 0.40917 0.0
H570 H 0.37844 0.12302 0.38837 0.0
H571 H 0.38552 0.25805 0.38272 0.0
C572 C 0.38559 0.90971 0.41922 0.0
C573 C 0.40228 0.85654 0.41098 0.0
C574 C 0.38926 0.98698 0.4153 0.0
C575 C 0.40966 0.01318 0.40289 0.0
C576 C 0.42623 0.96009 0.39438 0.0
C577 C 0.42264 0.88293 0.39846 0.0
C578 C 0.44012 0.2029 0.39949 0.0
C579 C 0.42202 0.25181 0.39226 0.0
C580 C 0.43608 0.12581 0.403 0.0
C581 C 0.41384 0.09549 0.39917 0.0
C582 C 0.39571 0.1445 0.39188 0.0
C583 C 0.39975 0.22184 0.38857 0.0
H584 H 0.86648 0.62125 0.92581 0.0
H585 H 0.93513 0.66891 0.89527 0.0
H586 H 0.87341 0.48715 0.91991 0.0
H587 H 0.94144 0.53535 0.88791 0.0
H588 H 0.95529 0.28769 0.90563 0.0
H589 H 0.94817 0.42174 0.91215 0.0
H590 H 0.8774 0.39113 0.88607 0.0
H591 H 0.88455 0.25622 0.88013 0.0
C592 C 0.88306 0.60363 0.91786 0.0
C593 C 0.90023 0.65693 0.91118 0.0
C594 C 0.88691 0.52635 0.9141 0.0
C595 C 0.90799 0.50007 0.90339 0.0
C596 C 0.92511 0.55323 0.89657 0.0
C597 C 0.92133 0.63041 0.9005 0.0
C598 C 0.93827 0.30965 0.90105 0.0
C599 C 0.9205 0.26132 0.89224 0.0
C600 C 0.93417 0.38669 0.90476 0.0
C601 C 0.91222 0.41767 0.89955 0.0
C602 C 0.89443 0.36922 0.89069 0.0
C603 C 0.89851 0.29191 0.8872 0.0
H604 H 0.55594 0.71592 0.85768 0.0
H605 H 0.60226 0.76411 0.92455 0.0
H606 H 0.56272 0.58106 0.86381 0.0
H607 H 0.60888 0.62961 0.93092 0.0
H608 H 0.63347 0.388 0.91687 0.0
H609 H 0.62706 0.52245 0.90988 0.0
H610 H 0.55461 0.47953 0.89505 0.0
H611 H 0.56112 0.34495 0.9018 0.0
C612 C 0.56746 0.69768 0.87379 0.0
C613 C 0.57861 0.75084 0.89054 0.0
C614 C 0.57132 0.62038 0.87737 0.0
C615 C 0.58635 0.59433 0.89788 0.0
C616 C 0.59751 0.6476 0.91461 0.0
C617 C 0.59372 0.72487 0.91095 0.0
C618 C 0.61614 0.40727 0.91235 0.0
C619 C 0.59781 0.35558 0.90994 0.0
C620 C 0.61245 0.48446 0.90834 0.0
C621 C 0.5903 0.512 0.90192 0.0
C622 C 0.57196 0.46026 0.89953 0.0
C623 C 0.57568 0.38301 0.90344 0.0
H624 H 0.9378 0.85037 0.62247 0.0
H625 H 0.86495 0.89109 0.6103 0.0
H626 H 0.94402 0.98502 0.62956 0.0
H627 H 0.87105 0.0255 0.61768 0.0
H628 H 0.89454 0.26906 0.6035 0.0
H629 H 0.88801 0.13455 0.59685 0.0
H630 H 0.9366 0.08515 0.66142 0.0
H631 H 0.94331 0.21994 0.66776 0.0
C632 C 0.92308 0.88793 0.62153 0.0
C633 C 0.90089 0.85982 0.61573 0.0
C634 C 0.92662 0.96523 0.62566 0.0
C635 C 0.90804 0.01635 0.62422 0.0
C636 C 0.88584 0.9881 0.61848 0.0
C637 C 0.88232 0.91089 0.61423 0.0
C638 C 0.90362 0.2296 0.6165 0.0
C639 C 0.91945 0.25533 0.63619 0.0
C640 C 0.89989 0.15231 0.61268 0.0
C641 C 0.9118 0.09875 0.62855 0.0
C642 C 0.92743 0.12462 0.64847 0.0
C643 C 0.93124 0.20192 0.65219 0.0
H644 H 0.60156 0.75396 0.60377 0.0
H645 H 0.55602 0.80208 0.67144 0.0
H646 H 0.60813 0.88847 0.59731 0.0
H647 H 0.56275 0.93694 0.66522 0.0
H648 H 0.56069 0.17306 0.62731 0.0
H649 H 0.55428 0.03848 0.63417 0.0
H650 H 0.62654 0.99567 0.61799 0.0
H651 H 0.63285 0.13014 0.61088 0.0
C652 C 0.59319 0.79319 0.61752 0.0
C653 C 0.5783 0.7672 0.63818 0.0
C654 C 0.59695 0.87046 0.61382 0.0
C655 C 0.58598 0.92372 0.63075 0.0
C656 C 0.57118 0.89764 0.65152 0.0
C657 C 0.56735 0.82033 0.65514 0.0
C658 C 0.57524 0.13502 0.6254 0.0
C659 C 0.59728 0.16249 0.61848 0.0
C660 C 0.57157 0.05777 0.62938 0.0
C661 C 0.58989 1.00606 0.62664 0.0
C662 C 0.61195 0.03364 0.61981 0.0
C663 C 0.61558 0.11083 0.61573 0.0
loop_
_geom_bond_atom_site_label_1
_geom_bond_atom_site_label_2
_geom_bond_distance
_geom_bond_site_symmetry_2
_ccdc_geom_bond_type
C0 C1 1.351 . S
C0 N3 1.368 . S
C0 H5 0.931 . S
C1 C0 1.351 . S
C1 N2 1.373 . S
C1 H29 0.930 . S
N2 C1 1.373 . S
N2 C4 1.340 . S
N3 C0 1.368 . S
N3 C4 1.321 . S
N3 Co6 2.135 . S
C4 N2 1.340 . S
C4 N3 1.321 . S
C4 H28 0.930 . S
H5 C0 0.931 . S
Co6 N3 2.135 . S
Co6 N9 2.121 1_545 S
Co6 O14 2.055 . S
Co6 O17 2.039 . S
Co6 N20 2.140 . S
C7 O8 1.227 . S
C7 O17 1.265 . S
O8 C7 1.227 . S
N9 Co6 2.121 1_565 S
N9 C11 1.375 . S
N9 C12 1.313 . S
C10 C11 1.338 . S
C10 N13 1.377 . S
C10 H30 0.930 . S
C11 N9 1.375 . S
C11 C10 1.338 . S
C11 H15 0.931 . S
C12 N9 1.313 . S
C12 N13 1.344 . S
C12 H16 0.930 . S
N13 C10 1.377 . S
N13 C12 1.344 . S
O14 Co6 2.055 . S
O14 C18 1.253 . S
H15 C11 0.931 . S
H16 C12 0.930 . S
O17 Co6 2.039 . S
O17 C7 1.265 . S
C18 O14 1.253 . S
C18 O19 1.227 . S
O19 C18 1.227 . S
N20 Co6 2.140 . S
N20 C23 1.346 . S
N20 C24 1.345 . S
C21 C22 1.387 . S
C21 C25 1.391 . S
C22 C21 1.387 . S
C22 C23 1.369 . S
C22 H31 0.929 . S
C23 N20 1.346 . S
C23 C22 1.369 . S
C23 H26 0.928 . S
C24 N20 1.345 . S
C24 C25 1.371 . S
C24 H27 0.931 1_545 S
C25 C21 1.391 . S
C25 C24 1.371 . S
C25 H32 0.930 1_545 S
H26 C23 0.928 . S
H27 C24 0.931 1_565 S
H28 C4 0.930 . S
H29 C1 0.930 . S
H30 C10 0.930 . S
H31 C22 0.929 . S
H32 C25 0.930 1_565 S
C33 C34 1.351 . S
C33 N36 1.368 . S
C33 H38 0.931 . S
C34 C33 1.351 . S
C34 N35 1.373 . S
C34 H62 0.930 . S
N35 C34 1.373 . S
N35 C37 1.340 . S
N36 C33 1.368 . S
N36 C37 1.321 . S
N36 Co39 2.135 . S
C37 N35 1.340 . S
C37 N36 1.321 . S
C37 H61 0.930 . S
H38 C33 0.931 . S
Co39 N36 2.135 . S
Co39 N42 2.121 1_565 S
Co39 O47 2.055 . S
Co39 O50 2.039 . S
Co39 N53 2.140 . S
C40 O41 1.227 . S
C40 O50 1.265 . S
O41 C40 1.227 . S
N42 Co39 2.121 1_545 S
N42 C44 1.375 . S
N42 C45 1.313 . S
C43 C44 1.338 . S
C43 N46 1.377 . S
C43 H63 0.930 . S
C44 N42 1.375 . S
C44 C43 1.338 . S
C44 H48 0.931 . S
C45 N42 1.313 . S
C45 N46 1.344 . S
C45 H49 0.930 . S
N46 C43 1.377 . S
N46 C45 1.344 . S
O47 Co39 2.055 . S
O47 C51 1.253 . S
H48 C44 0.931 . S
H49 C45 0.930 . S
O50 Co39 2.039 . S
O50 C40 1.265 . S
C51 O47 1.253 . S
C51 O52 1.227 . S
O52 C51 1.227 . S
N53 Co39 2.140 . S
N53 C56 1.346 . S
N53 C57 1.345 . S
C54 C55 1.387 . S
C54 C58 1.391 . S
C55 C54 1.387 . S
C55 C56 1.369 . S
C55 H64 0.929 . S
C56 N53 1.346 . S
C56 C55 1.369 . S
C56 H59 0.928 . S
C57 N53 1.345 . S
C57 C58 1.371 . S
C57 H60 0.931 1_565 S
C58 C54 1.391 . S
C58 C57 1.371 . S
C58 H65 0.930 1_565 S
H59 C56 0.928 . S
H60 C57 0.931 1_545 S
H61 C37 0.930 . S
H62 C34 0.930 . S
H63 C43 0.930 . S
H64 C55 0.929 . S
H65 C58 0.930 1_545 S
C66 C67 1.351 . S
C66 N69 1.368 . S
C66 H71 0.931 . S
C67 C66 1.351 . S
C67 N68 1.373 . S
C67 H95 0.930 . S
N68 C67 1.373 . S
N68 C70 1.340 . S
N69 C66 1.368 . S
N69 C70 1.321 . S
N69 Co72 2.135 . S
C70 N68 1.340 . S
C70 N69 1.321 . S
C70 H94 0.930 . S
H71 C66 0.931 . S
Co72 N69 2.135 . S
Co72 N75 2.121 . S
Co72 O80 2.055 . S
Co72 O83 2.039 . S
Co72 N86 2.140 . S
C73 O74 1.227 . S
C73 O83 1.265 . S
O74 C73 1.227 . S
N75 Co72 2.121 . S
N75 C77 1.375 . S
N75 C78 1.313 . S
C76 C77 1.338 . S
C76 N79 1.377 . S
C76 H96 0.930 . S
C77 N75 1.375 . S
C77 C76 1.338 . S
C77 H81 0.931 . S
C78 N75 1.313 . S
C78 N79 1.344 . S
C78 H82 0.930 . S
N79 C76 1.377 . S
N79 C78 1.344 . S
O80 Co72 2.055 . S
O80 C84 1.253 . S
H81 C77 0.931 . S
H82 C78 0.930 . S
O83 Co72 2.039 . S
O83 C73 1.265 . S
C84 O80 1.253 . S
C84 O85 1.227 . S
O85 C84 1.227 . S
N86 Co72 2.140 . S
N86 C89 1.346 . S
N86 C90 1.345 . S
C87 C88 1.387 . S
C87 C91 1.391 . S
C88 C87 1.387 . S
C88 C89 1.369 . S
C88 H97 0.929 . S
C89 N86 1.346 . S
C89 C88 1.369 . S
C89 H92 0.928 . S
C90 N86 1.345 . S
C90 C91 1.371 . S
C90 H93 0.931 . S
C91 C87 1.391 . S
C91 C90 1.371 . S
C91 H98 0.930 . S
H92 C89 0.928 . S
H93 C90 0.931 . S
H94 C70 0.930 . S
H95 C67 0.930 . S
H96 C76 0.930 . S
H97 C88 0.929 . S
H98 C91 0.930 . S
C99 C100 1.351 . S
C99 N102 1.368 . S
C99 H104 0.931 . S
C100 C99 1.351 . S
C100 N101 1.373 . S
C100 H128 0.930 . S
N101 C100 1.373 . S
N101 C103 1.340 . S
N102 C99 1.368 . S
N102 C103 1.321 . S
N102 Co105 2.135 . S
C103 N101 1.340 . S
C103 N102 1.321 . S
C103 H127 0.930 . S
H104 C99 0.931 . S
Co105 N102 2.135 . S
Co105 N108 2.121 . S
Co105 O113 2.055 . S
Co105 O116 2.039 . S
Co105 N119 2.140 . S
C106 O107 1.227 . S
C106 O116 1.265 . S
O107 C106 1.227 . S
N108 Co105 2.121 . S
N108 C110 1.375 . S
N108 C111 1.313 . S
C109 C110 1.338 . S
C109 N112 1.377 . S
C109 H129 0.930 . S
C110 N108 1.375 . S
C110 C109 1.338 . S
C110 H114 0.931 . S
C111 N108 1.313 . S
C111 N112 1.344 . S
C111 H115 0.930 . S
N112 C109 1.377 . S
N112 C111 1.344 . S
O113 Co105 2.055 . S
O113 C117 1.253 . S
H114 C110 0.931 . S
H115 C111 0.930 . S
O116 Co105 2.039 . S
O116 C106 1.265 . S
C117 O113 1.253 . S
C117 O118 1.227 . S
O118 C117 1.227 . S
N119 Co105 2.140 . S
N119 C122 1.346 . S
N119 C123 1.345 . S
C120 C121 1.387 . S
C120 C124 1.391 . S
C121 C120 1.387 . S
C121 C122 1.369 . S
C121 H130 0.929 . S
C122 N119 1.346 . S
C122 C121 1.369 . S
C122 H125 0.928 . S
C123 N119 1.345 . S
C123 C124 1.371 . S
C123 H126 0.931 . S
C124 C120 1.391 . S
C124 C123 1.371 . S
C124 H131 0.930 . S
H125 C122 0.928 . S
H126 C123 0.931 . S
H127 C103 0.930 . S
H128 C100 0.930 . S
H129 C109 0.930 . S
H130 C121 0.929 . S
H131 C124 0.930 . S
C132 C133 1.351 . S
C132 N135 1.368 . S
C132 H137 0.931 . S
C133 C132 1.351 . S
C133 N134 1.373 . S
C133 H161 0.930 . S
N134 C133 1.373 . S
N134 C136 1.340 . S
N135 C132 1.368 . S
N135 C136 1.321 . S
N135 Co138 2.135 . S
C136 N134 1.340 . S
C136 N135 1.321 . S
C136 H160 0.930 . S
H137 C132 0.931 . S
Co138 N135 2.135 . S
Co138 N141 2.121 1_565 S
Co138 O146 2.055 . S
Co138 O149 2.039 . S
Co138 N152 2.140 . S
C139 O140 1.227 . S
C139 O149 1.265 . S
O140 C139 1.227 . S
N141 Co138 2.121 1_545 S
N141 C143 1.375 . S
N141 C144 1.313 . S
C142 C143 1.338 . S
C142 N145 1.377 . S
C142 H162 0.930 . S
C143 N141 1.375 . S
C143 C142 1.338 . S
C143 H147 0.931 . S
C144 N141 1.313 . S
C144 N145 1.344 . S
C144 H148 0.930 . S
N145 C142 1.377 . S
N145 C144 1.344 . S
O146 Co138 2.055 . S
O146 C150 1.253 . S
H147 C143 0.931 . S
H148 C144 0.930 . S
O149 Co138 2.039 . S
O149 C139 1.265 . S
C150 O146 1.253 . S
C150 O151 1.227 . S
O151 C150 1.227 . S
N152 Co138 2.140 . S
N152 C155 1.346 . S
N152 C156 1.345 . S
C153 C154 1.387 . S
C153 C157 1.391 . S
C154 C153 1.387 . S
C154 C155 1.369 . S
C154 H163 0.929 . S
C155 N152 1.346 . S
C155 C154 1.369 . S
C155 H158 0.928 . S
C156 N152 1.345 . S
C156 C157 1.371 . S
C156 H159 0.931 1_565 S
C157 C153 1.391 . S
C157 C156 1.371 . S
C157 H164 0.930 1_565 S
H158 C155 0.928 . S
H159 C156 0.931 1_545 S
H160 C136 0.930 . S
H161 C133 0.930 . S
H162 C142 0.930 . S
H163 C154 0.929 . S
H164 C157 0.930 1_545 S
C165 C166 1.351 . S
C165 N168 1.368 . S
C165 H170 0.931 . S
C166 C165 1.351 . S
C166 N167 1.373 . S
C166 H194 0.930 . S
N167 C166 1.373 . S
N167 C169 1.340 . S
N168 C165 1.368 . S
N168 C169 1.321 . S
N168 Co171 2.135 . S
C169 N167 1.340 . S
C169 N168 1.321 . S
C169 H193 0.930 . S
H170 C165 0.931 . S
Co171 N168 2.135 . S
Co171 N174 2.121 1_545 S
Co171 O179 2.055 . S
Co171 O182 2.039 . S
Co171 N185 2.140 . S
C172 O173 1.227 . S
C172 O182 1.265 . S
O173 C172 1.227 . S
N174 Co171 2.121 1_565 S
N174 C176 1.375 . S
N174 C177 1.313 . S
C175 C176 1.338 . S
C175 N178 1.377 . S
C175 H195 0.930 . S
C176 N174 1.375 . S
C176 C175 1.338 . S
C176 H180 0.931 . S
C177 N174 1.313 . S
C177 N178 1.344 . S
C177 H181 0.930 . S
N178 C175 1.377 . S
N178 C177 1.344 . S
O179 Co171 2.055 . S
O179 C183 1.253 . S
H180 C176 0.931 . S
H181 C177 0.930 . S
O182 Co171 2.039 . S
O182 C172 1.265 . S
C183 O179 1.253 . S
C183 O184 1.227 . S
O184 C183 1.227 . S
N185 Co171 2.140 . S
N185 C188 1.346 . S
N185 C189 1.345 . S
C186 C187 1.387 . S
C186 C190 1.391 . S
C187 C186 1.387 . S
C187 C188 1.369 . S
C187 H196 0.929 . S
C188 N185 1.346 . S
C188 C187 1.369 . S
C188 H191 0.928 . S
C189 N185 1.345 . S
C189 C190 1.371 . S
C189 H192 0.931 1_545 S
C190 C186 1.391 . S
C190 C189 1.371 . S
C190 H197 0.930 1_545 S
H191 C188 0.928 . S
H192 C189 0.931 1_565 S
H193 C169 0.930 . S
H194 C166 0.930 . S
H195 C175 0.930 . S
H196 C187 0.929 . S
H197 C190 0.930 1_565 S
C198 C199 1.351 . S
C198 N201 1.368 . S
C198 H203 0.931 . S
C199 C198 1.351 . S
C199 N200 1.373 . S
C199 H227 0.930 . S
N200 C199 1.373 . S
N200 C202 1.340 . S
N201 C198 1.368 . S
N201 C202 1.321 . S
N201 Co204 2.135 . S
C202 N200 1.340 . S
C202 N201 1.321 . S
C202 H226 0.930 . S
H203 C198 0.931 . S
Co204 N201 2.135 . S
Co204 N207 2.121 . S
Co204 O212 2.055 . S
Co204 O215 2.039 . S
Co204 N218 2.140 . S
C205 O206 1.227 . S
C205 O215 1.265 . S
O206 C205 1.227 . S
N207 Co204 2.121 . S
N207 C209 1.375 . S
N207 C210 1.313 . S
C208 C209 1.338 . S
C208 N211 1.377 . S
C208 H228 0.930 . S
C209 N207 1.375 . S
C209 C208 1.338 . S
C209 H213 0.931 . S
C210 N207 1.313 . S
C210 N211 1.344 . S
C210 H214 0.930 . S
N211 C208 1.377 . S
N211 C210 1.344 . S
O212 Co204 2.055 . S
O212 C216 1.253 . S
H213 C209 0.931 . S
H214 C210 0.930 . S
O215 Co204 2.039 . S
O215 C205 1.265 . S
C216 O212 1.253 . S
C216 O217 1.227 . S
O217 C216 1.227 . S
N218 Co204 2.140 . S
N218 C221 1.346 . S
N218 C222 1.345 . S
C219 C220 1.387 . S
C219 C223 1.391 . S
C220 C219 1.387 . S
C220 C221 1.369 . S
C220 H229 0.929 . S
C221 N218 1.346 . S
C221 C220 1.369 . S
C221 H224 0.928 . S
C222 N218 1.345 . S
C222 C223 1.371 . S
C222 H225 0.931 . S
C223 C219 1.391 . S
C223 C222 1.371 . S
C223 H230 0.930 . S
H224 C221 0.928 . S
H225 C222 0.931 . S
H226 C202 0.930 . S
H227 C199 0.930 . S
H228 C208 0.930 . S
H229 C220 0.929 . S
H230 C223 0.930 . S
C231 C232 1.351 . S
C231 N234 1.368 . S
C231 H236 0.931 . S
C232 C231 1.351 . S
C232 N233 1.373 . S
C232 H260 0.930 . S
N233 C232 1.373 . S
N233 C235 1.340 . S
N234 C231 1.368 . S
N234 C235 1.321 . S
N234 Co237 2.135 . S
C235 N233 1.340 . S
C235 N234 1.321 . S
C235 H259 0.930 . S
H236 C231 0.931 . S
Co237 N234 2.135 . S
Co237 N240 2.121 . S
Co237 O245 2.055 . S
Co237 O248 2.039 . S
Co237 N251 2.140 . S
C238 O239 1.227 . S
C238 O248 1.265 . S
O239 C238 1.227 . S
N240 Co237 2.121 . S
N240 C242 1.375 . S
N240 C243 1.313 . S
C241 C242 1.338 . S
C241 N244 1.377 . S
C241 H261 0.930 . S
C242 N240 1.375 . S
C242 C241 1.338 . S
C242 H246 0.931 . S
C243 N240 1.313 . S
C243 N244 1.344 . S
C243 H247 0.930 . S
N244 C241 1.377 . S
N244 C243 1.344 . S
O245 Co237 2.055 . S
O245 C249 1.253 . S
H246 C242 0.931 . S
H247 C243 0.930 . S
O248 Co237 2.039 . S
O248 C238 1.265 . S
C249 O245 1.253 . S
C249 O250 1.227 . S
O250 C249 1.227 . S
N251 Co237 2.140 . S
N251 C254 1.346 . S
N251 C255 1.345 . S
C252 C253 1.387 . S
C252 C256 1.391 . S
C253 C252 1.387 . S
C253 C254 1.369 . S
C253 H262 0.929 . S
C254 N251 1.346 . S
C254 C253 1.369 . S
C254 H257 0.928 . S
C255 N251 1.345 . S
C255 C256 1.371 . S
C255 H258 0.931 . S
C256 C252 1.391 . S
C256 C255 1.371 . S
C256 H263 0.930 . S
H257 C254 0.928 . S
H258 C255 0.931 . S
H259 C235 0.930 . S
H260 C232 0.930 . S
H261 C241 0.930 . S
H262 C253 0.929 . S
H263 C256 0.930 . S
H264 C272 0.950 . S
H265 C277 0.950 . S
H266 C274 0.950 . S
H267 C276 0.950 . S
H268 C278 0.950 . S
H269 C280 0.950 . S
H270 C282 0.950 . S
H271 C283 0.950 . S
C272 H264 0.950 . S
C272 C273 1.386 1_565 S
C272 C274 1.391 . S
C273 C272 1.386 1_545 S
C273 C277 1.393 . S
C274 H266 0.950 . S
C274 C272 1.391 . S
C274 C275 1.400 1_565 S
C275 C274 1.400 1_545 S
C275 C276 1.398 . S
C275 C281 1.491 1_545 S
C276 H267 0.950 . S
C276 C275 1.398 . S
C276 C277 1.391 . S
C277 H265 0.950 . S
C277 C273 1.393 . S
C277 C276 1.391 . S
C278 H268 0.950 . S
C278 C279 1.386 1_545 S
C278 C280 1.391 . S
C279 C278 1.386 1_565 S
C279 C283 1.393 . S
C280 H269 0.950 . S
C280 C278 1.391 . S
C280 C281 1.400 1_545 S
C281 C275 1.491 1_565 S
C281 C280 1.400 1_565 S
C281 C282 1.398 . S
C282 H270 0.950 . S
C282 C281 1.398 . S
C282 C283 1.391 . S
C283 H271 0.950 . S
C283 C279 1.393 . S
C283 C282 1.391 . S
H284 C292 0.950 . S
H285 C297 0.950 . S
H286 C294 0.950 . S
H287 C296 0.950 . S
H288 C298 0.950 . S
H289 C300 0.950 . S
H290 C302 0.950 . S
H291 C303 0.950 . S
C292 H284 0.950 . S
C292 C293 1.386 . S
C292 C294 1.391 . S
C293 C292 1.386 . S
C293 C297 1.393 . S
C294 H286 0.950 . S
C294 C292 1.391 . S
C294 C295 1.400 . S
C295 C294 1.400 . S
C295 C296 1.398 . S
C295 C301 1.491 . S
C296 H287 0.950 . S
C296 C295 1.398 . S
C296 C297 1.391 . S
C297 H285 0.950 . S
C297 C293 1.393 . S
C297 C296 1.391 . S
C298 H288 0.950 . S
C298 C299 1.386 . S
C298 C300 1.391 . S
C299 C298 1.386 . S
C299 C303 1.393 . S
C300 H289 0.950 . S
C300 C298 1.391 . S
C300 C301 1.400 . S
C301 C295 1.491 . S
C301 C300 1.400 . S
C301 C302 1.398 . S
C302 H290 0.950 . S
C302 C301 1.398 . S
C302 C303 1.391 . S
C303 H291 0.950 . S
C303 C299 1.393 . S
C303 C302 1.391 . S
H304 C312 0.950 . S
H305 C317 0.950 . S
H306 C314 0.950 . S
H307 C316 0.950 . S
H308 C318 0.950 . S
H309 C320 0.950 . S
H310 C322 0.950 . S
H311 C323 0.950 . S
C312 H304 0.950 . S
C312 C313 1.386 . S
C312 C314 1.391 . S
C313 C312 1.386 . S
C313 C317 1.393 1_565 S
C314 H306 0.950 . S
C314 C312 1.391 . S
C314 C315 1.400 . S
C315 C314 1.400 . S
C315 C316 1.398 1_565 S
C315 C321 1.491 1_565 S
C316 H307 0.950 . S
C316 C315 1.398 1_545 S
C316 C317 1.391 . S
C317 H305 0.950 . S
C317 C313 1.393 1_545 S
C317 C316 1.391 . S
C318 H308 0.950 . S
C318 C319 1.386 . S
C318 C320 1.391 . S
C319 C318 1.386 . S
C319 C323 1.393 1_545 S
C320 H309 0.950 . S
C320 C318 1.391 . S
C320 C321 1.400 . S
C321 C315 1.491 1_545 S
C321 C320 1.400 . S
C321 C322 1.398 1_545 S
C322 H310 0.950 . S
C322 C321 1.398 1_565 S
C322 C323 1.391 . S
C323 H311 0.950 . S
C323 C319 1.393 1_565 S
C323 C322 1.391 . S
H324 C332 0.950 . S
H325 C337 0.950 . S
H326 C334 0.950 . S
H327 C336 0.950 . S
H328 C338 0.950 . S
H329 C340 0.950 . S
H330 C342 0.950 . S
H331 C343 0.950 . S
C332 H324 0.950 . S
C332 C333 1.386 . S
C332 C334 1.391 . S
C333 C332 1.386 . S
C333 C337 1.393 . S
C334 H326 0.950 . S
C334 C332 1.391 . S
C334 C335 1.400 . S
C335 C334 1.400 . S
C335 C336 1.398 . S
C335 C341 1.491 . S
C336 H327 0.950 . S
C336 C335 1.398 . S
C336 C337 1.391 . S
C337 H325 0.950 . S
C337 C333 1.393 . S
C337 C336 1.391 . S
C338 H328 0.950 . S
C338 C339 1.386 . S
C338 C340 1.391 . S
C339 C338 1.386 . S
C339 C343 1.393 . S
C340 H329 0.950 . S
C340 C338 1.391 . S
C340 C341 1.400 . S
C341 C335 1.491 . S
C341 C340 1.400 . S
C341 C342 1.398 . S
C342 H330 0.950 . S
C342 C341 1.398 . S
C342 C343 1.391 . S
C343 H331 0.950 . S
C343 C339 1.393 . S
C343 C342 1.391 . S
H344 C352 0.950 1_565 S
H345 C357 0.950 . S
H346 C354 0.950 1_556 S
H347 C356 0.950 1_655 S
H348 C358 0.950 1_545 S
H349 C360 0.950 1_554 S
H350 C362 0.950 1_455 S
H351 C363 0.950 . S
C352 H344 0.950 1_545 S
C352 C353 1.386 . S
C352 C354 1.391 1_545 S
C353 C352 1.386 . S
C353 C357 1.393 . S
C354 H346 0.950 1_554 S
C354 C352 1.391 1_565 S
C354 C355 1.400 1_565 S
C355 C354 1.400 1_545 S
C355 C356 1.398 . S
C355 C361 1.491 1_444 S
C356 H347 0.950 1_455 S
C356 C355 1.398 . S
C356 C357 1.391 . S
C357 H345 0.950 . S
C357 C353 1.393 . S
C357 C356 1.391 . S
C358 H348 0.950 1_565 S
C358 C359 1.386 . S
C358 C360 1.391 1_565 S
C359 C358 1.386 . S
C359 C363 1.393 . S
C360 H349 0.950 1_556 S
C360 C358 1.391 1_545 S
C360 C361 1.400 1_545 S
C361 C355 1.491 1_666 S
C361 C360 1.400 1_565 S
C361 C362 1.398 . S
C362 H350 0.950 1_655 S
C362 C361 1.398 . S
C362 C363 1.391 . S
C363 H351 0.950 . S
C363 C359 1.393 . S
C363 C362 1.391 . S
H364 C372 0.950 . S
H365 C377 0.950 1_545 S
H366 C374 0.950 . S
H367 C376 0.950 1_556 S
H368 C378 0.950 . S
H369 C380 0.950 . S
H370 C382 0.950 1_554 S
H371 C383 0.950 1_565 S
C372 H364 0.950 . S
C372 C373 1.386 . S
C372 C374 1.391 . S
C373 C372 1.386 . S
C373 C377 1.393 . S
C374 H366 0.950 . S
C374 C372 1.391 . S
C374 C375 1.400 . S
C375 C374 1.400 . S
C375 C376 1.398 1_565 S
C375 C381 1.491 1_564 S
C376 H367 0.950 1_554 S
C376 C375 1.398 1_545 S
C376 C377 1.391 1_545 S
C377 H365 0.950 1_565 S
C377 C373 1.393 . S
C377 C376 1.391 1_565 S
C378 H368 0.950 . S
C378 C379 1.386 . S
C378 C380 1.391 . S
C379 C378 1.386 . S
C379 C383 1.393 . S
C380 H369 0.950 . S
C380 C378 1.391 . S
C380 C381 1.400 . S
C381 C375 1.491 1_546 S
C381 C380 1.400 . S
C381 C382 1.398 1_545 S
C382 H370 0.950 1_556 S
C382 C381 1.398 1_565 S
C382 C383 1.391 1_565 S
C383 H371 0.950 1_545 S
C383 C379 1.393 . S
C383 C382 1.391 1_545 S
H384 C392 0.950 . S
H385 C397 0.950 . S
H386 C394 0.950 1_655 S
H387 C396 0.950 . S
H388 C398 0.950 . S
H389 C400 0.950 1_455 S
H390 C402 0.950 . S
H391 C403 0.950 . S
C392 H384 0.950 . S
C392 C393 1.386 . S
C392 C394 1.391 . S
C393 C392 1.386 . S
C393 C397 1.393 . S
C394 H386 0.950 1_455 S
C394 C392 1.391 . S
C394 C395 1.400 . S
C395 C394 1.400 . S
C395 C396 1.398 . S
C395 C401 1.491 1_455 S
C396 H387 0.950 . S
C396 C395 1.398 . S
C396 C397 1.391 . S
C397 H385 0.950 . S
C397 C393 1.393 . S
C397 C396 1.391 . S
C398 H388 0.950 . S
C398 C399 1.386 . S
C398 C400 1.391 . S
C399 C398 1.386 . S
C399 C403 1.393 . S
C400 H389 0.950 1_655 S
C400 C398 1.391 . S
C400 C401 1.400 . S
C401 C395 1.491 1_655 S
C401 C400 1.400 . S
C401 C402 1.398 . S
C402 H390 0.950 . S
C402 C401 1.398 . S
C402 C403 1.391 . S
C403 H391 0.950 . S
C403 C399 1.393 . S
C403 C402 1.391 . S
H404 C412 0.950 . S
H405 C417 0.950 . S
H406 C414 0.950 . S
H407 C416 0.950 . S
H408 C418 0.950 . S
H409 C420 0.950 . S
H410 C422 0.950 . S
H411 C423 0.950 . S
C412 H404 0.950 . S
C412 C413 1.386 . S
C412 C414 1.391 . S
C413 C412 1.386 . S
C413 C417 1.393 . S
C414 H406 0.950 . S
C414 C412 1.391 . S
C414 C415 1.400 . S
C415 C414 1.400 . S
C415 C416 1.398 . S
C415 C421 1.491 . S
C416 H407 0.950 . S
C416 C415 1.398 . S
C416 C417 1.391 . S
C417 H405 0.950 . S
C417 C413 1.393 . S
C417 C416 1.391 . S
C418 H408 0.950 . S
C418 C419 1.386 . S
C418 C420 1.391 . S
C419 C418 1.386 . S
C419 C423 1.393 . S
C420 H409 0.950 . S
C420 C418 1.391 . S
C420 C421 1.400 . S
C421 C415 1.491 . S
C421 C420 1.400 . S
C421 C422 1.398 . S
C422 H410 0.950 . S
C422 C421 1.398 . S
C422 C423 1.391 . S
C423 H411 0.950 . S
C423 C419 1.393 . S
C423 C422 1.391 . S
H424 C432 0.950 . S
H425 C437 0.950 . S
H426 C434 0.950 . S
H427 C436 0.950 . S
H428 C438 0.950 . S
H429 C440 0.950 . S
H430 C442 0.950 . S
H431 C443 0.950 . S
C432 H424 0.950 . S
C432 C433 1.386 . S
C432 C434 1.391 . S
C433 C432 1.386 . S
C433 C437 1.393 . S
C434 H426 0.950 . S
C434 C432 1.391 . S
C434 C435 1.400 . S
C435 C434 1.400 . S
C435 C436 1.398 . S
C435 C441 1.491 . S
C436 H427 0.950 . S
C436 C435 1.398 . S
C436 C437 1.391 . S
C437 H425 0.950 . S
C437 C433 1.393 . S
C437 C436 1.391 . S
C438 H428 0.950 . S
C438 C439 1.386 . S
C438 C440 1.391 . S
C439 C438 1.386 . S
C439 C443 1.393 . S
C440 H429 0.950 . S
C440 C438 1.391 . S
C440 C441 1.400 . S
C441 C435 1.491 . S
C441 C440 1.400 . S
C441 C442 1.398 . S
C442 H430 0.950 . S
C442 C441 1.398 . S
C442 C443 1.391 . S
C443 H431 0.950 . S
C443 C439 1.393 . S
C443 C442 1.391 . S
H444 C452 0.950 . S
H445 C457 0.950 . S
H446 C454 0.950 . S
H447 C456 0.950 . S
H448 C458 0.950 . S
H449 C460 0.950 . S
H450 C462 0.950 . S
H451 C463 0.950 . S
C452 H444 0.950 . S
C452 C453 1.386 . S
C452 C454 1.391 . S
C453 C452 1.386 . S
C453 C457 1.393 . S
C454 H446 0.950 . S
C454 C452 1.391 . S
C454 C455 1.400 . S
C455 C454 1.400 . S
C455 C456 1.398 . S
C455 C461 1.491 . S
C456 H447 0.950 . S
C456 C455 1.398 . S
C456 C457 1.391 . S
C457 H445 0.950 . S
C457 C453 1.393 . S
C457 C456 1.391 . S
C458 H448 0.950 . S
C458 C459 1.386 . S
C458 C460 1.391 . S
C459 C458 1.386 . S
C459 C463 1.393 . S
C460 H449 0.950 . S
C460 C458 1.391 . S
C460 C461 1.400 . S
C461 C455 1.491 . S
C461 C460 1.400 . S
C461 C462 1.398 . S
C462 H450 0.950 . S
C462 C461 1.398 . S
C462 C463 1.391 . S
C463 H451 0.950 . S
C463 C459 1.393 . S
C463 C462 1.391 . S
H464 C472 0.950 . S
H465 C477 0.950 . S
H466 C474 0.950 . S
H467 C476 0.950 . S
H468 C478 0.950 . S
H469 C480 0.950 . S
H470 C482 0.950 . S
H471 C483 0.950 . S
C472 H464 0.950 . S
C472 C473 1.386 . S
C472 C474 1.391 . S
C473 C472 1.386 . S
C473 C477 1.393 . S
C474 H466 0.950 . S
C474 C472 1.391 . S
C474 C475 1.400 . S
C475 C474 1.400 . S
C475 C476 1.398 . S
C475 C481 1.491 . S
C476 H467 0.950 . S
C476 C475 1.398 . S
C476 C477 1.391 . S
C477 H465 0.950 . S
C477 C473 1.393 . S
C477 C476 1.391 . S
C478 H468 0.950 . S
C478 C479 1.386 . S
C478 C480 1.391 . S
C479 C478 1.386 . S
C479 C483 1.393 . S
C480 H469 0.950 . S
C480 C478 1.391 . S
C480 C481 1.400 . S
C481 C475 1.491 . S
C481 C480 1.400 . S
C481 C482 1.398 . S
C482 H470 0.950 . S
C482 C481 1.398 . S
C482 C483 1.391 . S
C483 H471 0.950 . S
C483 C479 1.393 . S
C483 C482 1.391 . S
H484 C492 0.950 . S
H485 C497 0.950 . S
H486 C494 0.950 . S
H487 C496 0.950 . S
H488 C498 0.950 . S
H489 C500 0.950 . S
H490 C502 0.950 . S
H491 C503 0.950 . S
C492 H484 0.950 . S
C492 C493 1.386 . S
C492 C494 1.391 . S
C493 C492 1.386 . S
C493 C497 1.393 . S
C494 H486 0.950 . S
C494 C492 1.391 . S
C494 C495 1.400 . S
C495 C494 1.400 . S
C495 C496 1.398 . S
C495 C501 1.491 . S
C496 H487 0.950 . S
C496 C495 1.398 . S
C496 C497 1.391 . S
C497 H485 0.950 . S
C497 C493 1.393 . S
C497 C496 1.391 . S
C498 H488 0.950 . S
C498 C499 1.386 . S
C498 C500 1.391 . S
C499 C498 1.386 . S
C499 C503 1.393 . S
C500 H489 0.950 . S
C500 C498 1.391 . S
C500 C501 1.400 . S
C501 C495 1.491 . S
C501 C500 1.400 . S
C501 C502 1.398 . S
C502 H490 0.950 . S
C502 C501 1.398 . S
C502 C503 1.391 . S
C503 H491 0.950 . S
C503 C499 1.393 . S
C503 C502 1.391 . S
H504 C512 0.950 . S
H505 C517 0.950 . S
H506 C514 0.950 . S
H507 C516 0.950 . S
H508 C518 0.950 . S
H509 C520 0.950 . S
H510 C522 0.950 . S
H511 C523 0.950 . S
C512 H504 0.950 . S
C512 C513 1.386 . S
C512 C514 1.391 . S
C513 C512 1.386 . S
C513 C517 1.393 . S
C514 H506 0.950 . S
C514 C512 1.391 . S
C514 C515 1.400 . S
C515 C514 1.400 . S
C515 C516 1.398 . S
C515 C521 1.491 . S
C516 H507 0.950 . S
C516 C515 1.398 . S
C516 C517 1.391 . S
C517 H505 0.950 . S
C517 C513 1.393 . S
C517 C516 1.391 . S
C518 H508 0.950 . S
C518 C519 1.386 . S
C518 C520 1.391 . S
C519 C518 1.386 . S
C519 C523 1.393 . S
C520 H509 0.950 . S
C520 C518 1.391 . S
C520 C521 1.400 . S
C521 C515 1.491 . S
C521 C520 1.400 . S
C521 C522 1.398 . S
C522 H510 0.950 . S
C522 C521 1.398 . S
C522 C523 1.391 . S
C523 H511 0.950 . S
C523 C519 1.393 . S
C523 C522 1.391 . S
H524 C532 0.950 . S
H525 C537 0.950 . S
H526 C534 0.950 . S
H527 C536 0.950 . S
H528 C538 0.950 . S
H529 C540 0.950 . S
H530 C542 0.950 . S
H531 C543 0.950 . S
C532 H524 0.950 . S
C532 C533 1.386 . S
C532 C534 1.391 . S
C533 C532 1.386 . S
C533 C537 1.393 . S
C534 H526 0.950 . S
C534 C532 1.391 . S
C534 C535 1.400 . S
C535 C534 1.400 . S
C535 C536 1.398 . S
C535 C541 1.491 . S
C536 H527 0.950 . S
C536 C535 1.398 . S
C536 C537 1.391 . S
C537 H525 0.950 . S
C537 C533 1.393 . S
C537 C536 1.391 . S
C538 H528 0.950 . S
C538 C539 1.386 . S
C538 C540 1.391 . S
C539 C538 1.386 . S
C539 C543 1.393 . S
C540 H529 0.950 . S
C540 C538 1.391 . S
C540 C541 1.400 . S
C541 C535 1.491 . S
C541 C540 1.400 . S
C541 C542 1.398 . S
C542 H530 0.950 . S
C542 C541 1.398 . S
C542 C543 1.391 . S
C543 H531 0.950 . S
C543 C539 1.393 . S
C543 C542 1.391 . S
H544 C552 0.950 . S
H545 C557 0.950 . S
H546 C554 0.950 . S
H547 C556 0.950 . S
H548 C558 0.950 . S
H549 C560 0.950 . S
H550 C562 0.950 . S
H551 C563 0.950 . S
C552 H544 0.950 . S
C552 C553 1.386 . S
C552 C554 1.391 1_545 S
C553 C552 1.386 . S
C553 C557 1.393 . S
C554 H546 0.950 . S
C554 C552 1.391 1_565 S
C554 C555 1.400 . S
C555 C554 1.400 . S
C555 C556 1.398 . S
C555 C561 1.491 . S
C556 H547 0.950 . S
C556 C555 1.398 . S
C556 C557 1.391 1_565 S
C557 H545 0.950 . S
C557 C553 1.393 . S
C557 C556 1.391 1_545 S
C558 H548 0.950 . S
C558 C559 1.386 . S
C558 C560 1.391 . S
C559 C558 1.386 . S
C559 C563 1.393 . S
C560 H549 0.950 . S
C560 C558 1.391 . S
C560 C561 1.400 . S
C561 C555 1.491 . S
C561 C560 1.400 . S
C561 C562 1.398 . S
C562 H550 0.950 . S
C562 C561 1.398 . S
C562 C563 1.391 . S
C563 H551 0.950 . S
C563 C559 1.393 . S
C563 C562 1.391 . S
H564 C572 0.950 . S
H565 C577 0.950 . S
H566 C574 0.950 . S
H567 C576 0.950 . S
H568 C578 0.950 . S
H569 C580 0.950 . S
H570 C582 0.950 . S
H571 C583 0.950 . S
C572 H564 0.950 . S
C572 C573 1.386 . S
C572 C574 1.391 1_565 S
C573 C572 1.386 . S
C573 C577 1.393 . S
C574 H566 0.950 . S
C574 C572 1.391 1_545 S
C574 C575 1.400 . S
C575 C574 1.400 . S
C575 C576 1.398 . S
C575 C581 1.491 . S
C576 H567 0.950 . S
C576 C575 1.398 . S
C576 C577 1.391 1_545 S
C577 H565 0.950 . S
C577 C573 1.393 . S
C577 C576 1.391 1_565 S
C578 H568 0.950 . S
C578 C579 1.386 . S
C578 C580 1.391 . S
C579 C578 1.386 . S
C579 C583 1.393 . S
C580 H569 0.950 . S
C580 C578 1.391 . S
C580 C581 1.400 . S
C581 C575 1.491 . S
C581 C580 1.400 . S
C581 C582 1.398 . S
C582 H570 0.950 . S
C582 C581 1.398 . S
C582 C583 1.391 . S
C583 H571 0.950 . S
C583 C579 1.393 . S
C583 C582 1.391 . S
H584 C592 0.950 . S
H585 C597 0.950 . S
H586 C594 0.950 . S
H587 C596 0.950 . S
H588 C598 0.950 . S
H589 C600 0.950 . S
H590 C602 0.950 . S
H591 C603 0.950 . S
C592 H584 0.950 . S
C592 C593 1.386 . S
C592 C594 1.391 . S
C593 C592 1.386 . S
C593 C597 1.393 . S
C594 H586 0.950 . S
C594 C592 1.391 . S
C594 C595 1.400 . S
C595 C594 1.400 . S
C595 C596 1.398 . S
C595 C601 1.491 . S
C596 H587 0.950 . S
C596 C595 1.398 . S
C596 C597 1.391 . S
C597 H585 0.950 . S
C597 C593 1.393 . S
C597 C596 1.391 . S
C598 H588 0.950 . S
C598 C599 1.386 . S
C598 C600 1.391 . S
C599 C598 1.386 . S
C599 C603 1.393 . S
C600 H589 0.950 . S
C600 C598 1.391 . S
C600 C601 1.400 . S
C601 C595 1.491 . S
C601 C600 1.400 . S
C601 C602 1.398 . S
C602 H590 0.950 . S
C602 C601 1.398 . S
C602 C603 1.391 . S
C603 H591 0.950 . S
C603 C599 1.393 . S
C603 C602 1.391 . S
H604 C612 0.950 . S
H605 C617 0.950 . S
H606 C614 0.950 . S
H607 C616 0.950 . S
H608 C618 0.950 . S
H609 C620 0.950 . S
H610 C622 0.950 . S
H611 C623 0.950 . S
C612 H604 0.950 . S
C612 C613 1.386 . S
C612 C614 1.391 . S
C613 C612 1.386 . S
C613 C617 1.393 . S
C614 H606 0.950 . S
C614 C612 1.391 . S
C614 C615 1.400 . S
C615 C614 1.400 . S
C615 C616 1.398 . S
C615 C621 1.491 . S
C616 H607 0.950 . S
C616 C615 1.398 . S
C616 C617 1.391 . S
C617 H605 0.950 . S
C617 C613 1.393 . S
C617 C616 1.391 . S
C618 H608 0.950 . S
C618 C619 1.386 . S
C618 C620 1.391 . S
C619 C618 1.386 . S
C619 C623 1.393 . S
C620 H609 0.950 . S
C620 C618 1.391 . S
C620 C621 1.400 . S
C621 C615 1.491 . S
C621 C620 1.400 . S
C621 C622 1.398 . S
C622 H610 0.950 . S
C622 C621 1.398 . S
C622 C623 1.391 . S
C623 H611 0.950 . S
C623 C619 1.393 . S
C623 C622 1.391 . S
H624 C632 0.950 . S
H625 C637 0.950 . S
H626 C634 0.950 . S
H627 C636 0.950 . S
H628 C638 0.950 . S
H629 C640 0.950 . S
H630 C642 0.950 . S
H631 C643 0.950 . S
C632 H624 0.950 . S
C632 C633 1.386 . S
C632 C634 1.391 1_565 S
C633 C632 1.386 . S
C633 C637 1.393 . S
C634 H626 0.950 . S
C634 C632 1.391 1_545 S
C634 C635 1.400 . S
C635 C634 1.400 . S
C635 C636 1.398 . S
C635 C641 1.491 . S
C636 H627 0.950 . S
C636 C635 1.398 . S
C636 C637 1.391 1_545 S
C637 H625 0.950 . S
C637 C633 1.393 . S
C637 C636 1.391 1_565 S
C638 H628 0.950 . S
C638 C639 1.386 . S
C638 C640 1.391 . S
C639 C638 1.386 . S
C639 C643 1.393 . S
C640 H629 0.950 . S
C640 C638 1.391 . S
C640 C641 1.400 . S
C641 C635 1.491 . S
C641 C640 1.400 . S
C641 C642 1.398 . S
C642 H630 0.950 . S
C642 C641 1.398 . S
C642 C643 1.391 . S
C643 H631 0.950 . S
C643 C639 1.393 . S
C643 C642 1.391 . S
H644 C652 0.950 . S
H645 C657 0.950 . S
H646 C654 0.950 . S
H647 C656 0.950 . S
H648 C658 0.950 . S
H649 C660 0.950 . S
H650 C662 0.950 . S
H651 C663 0.950 . S
C652 H644 0.950 . S
C652 C653 1.386 . S
C652 C654 1.391 . S
C653 C652 1.386 . S
C653 C657 1.393 . S
C654 H646 0.950 . S
C654 C652 1.391 . S
C654 C655 1.400 . S
C655 C654 1.400 . S
C655 C656 1.398 . S
C655 C661 1.491 . S
C656 H647 0.950 . S
C656 C655 1.398 . S
C656 C657 1.391 . S
C657 H645 0.950 . S
C657 C653 1.393 . S
C657 C656 1.391 . S
C658 H648 0.950 . S
C658 C659 1.386 . S
C658 C660 1.391 1_545 S
C659 C658 1.386 . S
C659 C663 1.393 . S
C660 H649 0.950 . S
C660 C658 1.391 1_565 S
C660 C661 1.400 . S
C661 C655 1.491 . S
C661 C660 1.400 . S
C661 C662 1.398 . S
C662 H650 0.950 . S
C662 C661 1.398 . S
C662 C663 1.391 1_565 S
C663 H651 0.950 . S
C663 C659 1.393 . S
C663 C662 1.391 1_545 S
C273 C21 1.530 . S
C279 C54 1.524 . S
C293 C120 1.519 . S
C299 C87 1.529 . S
C313 C153 1.526 . S
C319 C186 1.517 . S
C333 C252 1.530 . S
C339 C219 1.520 . S
C353 C18 1.144 . S
C359 C150 1.144 . S
C373 C51 1.151 . S
C379 C183 1.151 . S
C393 C84 1.151 . S
C399 C216 1.151 . S
C413 C117 1.144 . S
C419 C249 1.144 . S
C433 C73 1.409 . S
C439 C7 1.425 . S
C453 C106 1.420 . S
C459 C40 1.406 . S
C473 C139 1.406 . S
C479 C205 1.419 . S
C493 C172 1.424 . S
C499 C238 1.408 . S
C513 N13 1.288 . S
C519 N2 1.286 . S
C533 N46 1.291 . S
C539 N35 1.290 . S
C553 N68 1.273 . S
C559 N79 1.275 . S
C573 N101 1.272 . S
C579 N112 1.274 . S
C593 N134 1.287 . S
C599 N145 1.288 . S
C613 N178 1.270 . S
C619 N167 1.267 . S
C633 N200 1.277 . S
C639 N211 1.279 . S
C653 N244 1.286 . S
C659 N233 1.285 . S
