# Generated by pormake.
# Topology kag, (6)-cn, num edge types: 1
# Building blocks:
#     Node 0, Type 0, BuildingBlock: BETFEN_clean_sbu_0, # of connection points: 6
#     Node 1, Type 0, BuildingBlock: BETFEN_clean_sbu_0, # of connection points: 6
#     Node 2, Type 0, BuildingBlock: BETFEN_clean_sbu_0, # of connection points: 6
#     Edge 3, Type (0, 0), BuildingBlock: CIFDUS_clean_linker_0, # of connection points: 2
#     Edge 4, Type (0, 0), BuildingBlock: CIFDUS_clean_linker_0, # of connection points: 2
#     Edge 5, Type (0, 0), BuildingBlock: CIFDUS_clean_linker_0, # of connection points: 2
#     Edge 6, Type (0, 0), BuildingBlock: CIFDUS_clean_linker_0, # of connection points: 2
#     Edge 7, Type (0, 0), BuildingBlock: CIFDUS_clean_linker_0, # of connection points: 2
#     Edge 8, Type (0, 0), BuildingBlock: CIFDUS_clean_linker_0, # of connection points: 2
#     Edge 9, Type (0, 0), BuildingBlock: CIFDUS_clean_linker_0, # of connection points: 2
#     Edge 10, Type (0, 0), BuildingBlock: CIFDUS_clean_linker_0, # of connection points: 2
#     Edge 11, Type (0, 0), BuildingBlock: CIFDUS_clean_linker_0, # of connection points: 2
# Relax obj value: 0.093
# Max RMSD: 0.212
# Mean RMSD: 0.110
data_MOF--net-kag--node1-BETFEN_clean_sbu_0--edge1-CIFDUS_clean_linker_0
_symmetry_space_group_name_H-M    P1
_symmetry_Int_Tables_number       1
_symmetry_cell_setting            triclinic
loop_
_symmetry_equiv_pos_as_xyz
'x, y, z'
_cell_length_a     27.811303
_cell_length_b     38.714894
_cell_length_c     12.774226
_cell_angle_alpha  95.257574
_cell_angle_beta   90.972383
_cell_angle_gamma 93.506624
loop_
_atom_site_label
_atom_site_type_symbol
_atom_site_fract_x
_atom_site_fract_y
_atom_site_fract_z
_atom_type_partial_charge
Pr0 Pr 1.06424 0.47941 1.00077 0.0
Pr1 Pr 0.06895 0.55876 0.99147 0.0
C2 C 1.04724 0.41345 0.05036 0.0
C3 C 1.01282 0.38259 0.03027 0.0
C4 C 1.00682 0.36465 0.92964 0.0
C5 C 0.97633 0.33441 0.91345 0.0
C6 C 0.95104 0.3213 0.99735 0.0
C7 C 0.95679 0.33946 0.09783 0.0
C8 C 0.98738 0.3697 0.11403 0.0
C9 C 1.06388 0.50027 0.7978 0.0
C10 C 0.96128 0.52119 0.9897 0.0
C11 C 0.08232 0.62513 0.94613 0.0
C12 C 0.11323 0.65733 0.97132 0.0
C13 C 0.10258 0.68108 0.05642 0.0
C14 C 0.12935 0.71277 0.0753 0.0
C15 C 0.16716 0.72152 1.0092 0.0
C16 C 0.17834 0.69757 0.92505 0.0
C17 C 0.15151 0.66584 0.90606 0.0
C18 C 0.06996 0.53732 0.19455 0.0
C19 C 0.17245 0.5197 0.99297 0.0
O20 O 1.0327 0.44046 0.10777 0.0
O21 O 0.07474 0.4219 0.9733 0.0
O22 O 1.04122 0.51374 0.87382 0.0
O23 O 0.08484 0.47297 0.8225 0.0
O24 O 0.9874 0.54724 0.95593 0.0
O25 O 0.98206 0.49382 0.02138 0.0
O26 O 0.10075 0.59918 0.8908 0.0
O27 O 1.05347 0.61525 0.01914 0.0
O28 O 0.09264 0.52424 0.11811 0.0
O29 O 1.04837 0.56434 0.17008 0.0
O30 O 0.1484 0.49224 0.02621 0.0
O31 O 0.14942 0.54608 0.96281 0.0
H32 H 1.02612 0.37365 0.86338 0.0
H33 H 0.97339 0.32088 0.83534 0.0
H34 H 0.93749 0.33041 0.16401 0.0
H35 H 0.99149 0.38288 0.19253 0.0
H36 H 0.07305 0.67549 0.10771 0.0
H37 H 0.12029 0.73051 0.14156 0.0
H38 H 0.20694 0.70376 0.87204 0.0
H39 H 0.16016 0.64829 0.83899 0.0
Pr40 Pr 0.63214 0.01788 1.00092 0.0
Pr41 Pr 0.5144 1.00625 0.03781 0.0
C42 C 0.71657 0.03894 0.92099 0.0
C43 C 0.7468 0.07207 0.9362 0.0
C44 C 0.79435 0.07242 0.97516 0.0
C45 C 0.82239 0.1038 0.9941 0.0
C46 C 0.80357 0.13554 0.97386 0.0
C47 C 0.75606 0.13511 0.9341 0.0
C48 C 0.72798 0.10382 0.91578 0.0
C49 C 0.61196 0.02169 0.21854 0.0
C50 C 0.56216 0.08659 0.03975 0.0
C51 C 0.429 0.98946 0.12005 0.0
C52 C 0.39926 0.95641 0.11543 0.0
C53 C 0.35449 0.95317 0.062 0.0
C54 C 0.32837 0.92103 0.04795 0.0
C55 C 0.34647 0.89155 0.08759 0.0
C56 C 0.39064 0.89509 0.14366 0.0
C57 C 0.4168 0.92712 0.15732 0.0
C58 C 0.5347 1.00229 0.81992 0.0
C59 C 0.58301 0.93726 1.00946 0.0
O60 O 0.67511 0.03992 0.8716 0.0
O61 O 0.71408 0.01996 1.0009 0.0
O62 O 0.58228 0.01685 0.14158 0.0
O63 O 0.65506 0.02535 0.18178 0.0
O64 O 0.52428 0.06648 0.06212 0.0
O65 O 0.60388 0.07431 0.01056 0.0
O66 O 0.46977 0.99071 0.1733 0.0
O67 O 0.4327 1.0042 0.03198 0.0
O68 O 0.5644 1.00743 0.89679 0.0
O69 O 0.49172 0.99807 0.85678 0.0
O70 O 0.62095 0.95617 0.97843 0.0
O71 O 0.54259 0.95093 0.04068 0.0
H72 H 0.80973 0.04841 0.99176 0.0
H73 H 0.85899 0.10316 0.02382 0.0
H74 H 0.74018 0.15908 0.91901 0.0
H75 H 0.6913 0.10466 0.8867 0.0
H76 H 0.34031 0.97531 0.02865 0.0
H77 H 0.29465 0.91908 1.00351 0.0
H78 H 0.40517 0.87304 0.17677 0.0
H79 H 0.45121 0.92866 0.19901 0.0
Pr80 Pr 0.57161 0.54844 1.00458 0.0
Pr81 Pr 0.5596 0.47201 1.00925 0.0
C82 C 0.57444 0.61712 0.9801 0.0
C83 C 0.57617 0.65532 0.97154 0.0
C84 C 0.57875 0.67856 0.06303 0.0
C85 C 0.58415 0.71452 0.05691 0.0
C86 C 0.58699 0.72848 0.95903 0.0
C87 C 0.58402 0.70519 0.86723 0.0
C88 C 0.57871 0.66906 0.87344 0.0
C89 C 0.58563 0.52686 0.20524 0.0
C90 C 0.46137 0.51024 0.03219 0.0
C91 C 0.56368 0.40392 0.03216 0.0
C92 C 0.5656 0.36636 0.04417 0.0
C93 C 0.53393 0.34201 0.98543 0.0
C94 C 0.53846 0.30636 0.98915 0.0
C95 C 0.57496 0.29425 0.05121 0.0
C96 C 0.60612 0.31865 0.1114 0.0
C97 C 0.60139 0.35433 0.10816 0.0
C98 C 0.54805 0.49342 0.80752 0.0
C99 C 0.67133 0.50759 0.9956 0.0
O100 O 0.57583 0.5937 0.89964 0.0
O101 O 0.56924 0.60444 0.07076 0.0
O102 O 0.55156 0.51531 0.14239 0.0
O103 O 0.61406 0.54949 0.16426 0.0
O104 O 0.48423 0.48501 0.06913 0.0
O105 O 0.48605 0.53565 0.98923 0.0
O106 O 0.58862 0.42787 0.09277 0.0
O107 O 0.53544 0.41561 0.96254 0.0
O108 O 0.58127 0.50515 0.87221 0.0
O109 O 0.51985 0.47029 0.84651 0.0
O110 O 0.65237 0.53659 0.97345 0.0
O111 O 0.64371 0.48086 0.02037 0.0
H112 H 0.57757 0.66897 0.14004 0.0
H113 H 0.58715 0.73135 0.12954 0.0
H114 H 0.58549 0.71485 0.79037 0.0
H115 H 0.57711 0.65189 0.80141 0.0
H116 H 0.50618 0.35046 0.93482 0.0
H117 H 0.5142 0.28827 0.941 0.0
H118 H 0.63426 0.31013 0.16086 0.0
H119 H 0.62649 0.37248 0.1539 0.0
H120 H 0.09649 0.46784 0.61789 0.0
H121 H 1.02717 0.55928 0.74005 0.0
H122 H 1.02286 0.57894 0.56399 0.0
H123 H 1.03801 0.56983 0.37474 0.0
H124 H 0.10756 0.47853 0.25236 0.0
H125 H 0.1121 0.4589 0.42859 0.0
C126 C 0.08051 0.49207 0.60575 0.0
C127 C 1.06204 0.51204 0.69141 0.0
C128 C 0.07793 0.50312 0.50422 0.0
C129 C 1.0414 0.54338 0.67498 0.0
C130 C 1.03893 0.55464 0.57441 0.0
C131 C 1.05411 0.54564 0.38684 0.0
C132 C 0.07242 0.52564 0.30105 0.0
C133 C 1.05688 0.53465 0.48838 0.0
C134 C 0.09334 0.49441 0.31751 0.0
C135 C 0.09595 0.48317 0.41816 0.0
H136 H 0.53245 0.99444 0.31931 0.0
H137 H 0.67194 0.04788 0.37891 0.0
H138 H 0.66251 0.04587 0.56783 0.0
H139 H 0.61445 0.02899 0.71895 0.0
H140 H 0.47462 0.97603 0.6595 0.0
H141 H 0.48416 0.97782 0.4705 0.0
C142 C 0.56033 1.00614 0.37352 0.0
C143 C 0.60255 0.02167 0.33388 0.0
C144 C 0.55484 1.00467 0.4834 0.0
C145 C 0.63889 0.03584 0.40638 0.0
C146 C 0.63362 0.03465 0.51502 0.0
C147 C 0.58642 0.01747 0.66477 0.0
C148 C 0.54411 1.0021 0.70449 0.0
C149 C 0.59187 0.01897 0.5549 0.0
C150 C 0.50774 0.98795 0.632 0.0
C151 C 0.51306 0.98903 0.52331 0.0
H152 H 0.61683 0.52687 0.69674 0.0
H153 H 0.4782 0.47014 0.6633 0.0
H154 H 0.47799 0.47436 0.47387 0.0
H155 H 0.51737 0.49372 0.3167 0.0
H156 H 0.65593 0.55053 0.34912 0.0
H157 H 0.65628 0.54639 0.53891 0.0
C158 C 0.58652 0.51563 0.6479 0.0
C159 C 0.54763 0.4982 0.69394 0.0
C160 C 0.58679 0.51788 0.5385 0.0
C161 C 0.50864 0.48364 0.62971 0.0
C162 C 0.50851 0.48596 0.52127 0.0
C163 C 0.54772 0.50501 0.36533 0.0
C164 C 0.58655 0.52237 0.319 0.0
C165 C 0.5475 0.50282 0.47463 0.0
C166 C 0.62556 0.53702 0.38299 0.0
C167 C 0.62575 0.53476 0.49161 0.0
H168 H 0.23609 0.4736 0.05737 0.0
H169 H 0.23103 0.57303 0.93111 0.0
H170 H 0.31863 0.57951 0.93363 0.0
H171 H 0.39793 0.557 0.97004 0.0
H172 H 0.4027 0.45782 0.09797 0.0
H173 H 0.31518 0.45152 0.09606 0.0
C174 C 0.25407 0.49665 0.03014 0.0
C175 C 0.22642 0.52261 0.99372 0.0
C176 C 0.30501 0.50045 0.03206 0.0
C177 C 0.25086 0.55238 0.9593 0.0
C178 C 0.30128 0.55624 0.96076 0.0
C179 C 0.37987 0.53409 0.99793 0.0
C180 C 0.40745 0.50807 0.03423 0.0
C181 C 0.32889 0.53046 0.99686 0.0
C182 C 0.38294 0.47852 0.06989 0.0
C183 C 0.33257 0.47474 0.06866 0.0
H184 H 0.81146 0.18952 0.85063 0.0
H185 H 0.86218 0.15692 0.14479 0.0
H186 H 0.9113 0.21147 0.17911 0.0
H187 H 0.94113 0.26808 0.12405 0.0
H188 H 0.88943 0.30084 0.83068 0.0
H189 H 0.83965 0.24668 0.79779 0.0
C190 C 0.83295 0.19445 0.92269 0.0
C191 C 0.83319 0.16901 0.99478 0.0
C192 C 0.86117 0.22591 0.94195 0.0
C193 C 0.86179 0.17575 0.08714 0.0
C194 C 0.88972 0.20706 0.10713 0.0
C195 C 0.91855 0.2636 0.05348 0.0
C196 C 0.91931 0.28862 0.97987 0.0
C197 C 0.88986 0.23229 0.03491 0.0
C198 C 0.89024 0.28195 0.88811 0.0
C199 C 0.8615 0.25101 0.8694 0.0
H200 H 0.63172 0.88839 0.88585 0.0
H201 H 0.53561 0.89977 0.14709 0.0
H202 H 0.52809 0.83732 0.15348 0.0
H203 H 0.54554 0.77908 0.08273 0.0
H204 H 0.64173 0.76528 0.82309 0.0
H205 H 0.65154 0.82839 0.81722 0.0
C206 C 0.60971 0.87714 0.94484 0.0
C207 C 0.58418 0.89901 0.01552 0.0
C208 C 0.60488 0.84053 0.94775 0.0
C209 C 0.5554 0.8838 0.09088 0.0
C210 C 0.55098 0.84792 0.09483 0.0
C211 C 0.56924 0.78972 0.02555 0.0
C212 C 0.59289 0.76711 0.95379 0.0
C213 C 0.57505 0.82599 0.02316 0.0
C214 C 0.6225 0.78179 0.87877 0.0
C215 C 0.62847 0.81802 0.87586 0.0
H216 H 0.89042 0.47018 0.01982 0.0
H217 H 0.91154 0.57774 0.95727 0.0
H218 H 0.82503 0.58305 0.95205 0.0
H219 H 0.74246 0.55767 0.96497 0.0
H220 H 0.72041 0.45017 0.02675 0.0
H221 H 0.80718 0.44457 0.03187 0.0
C222 C 0.8761 0.49477 1.00524 0.0
C223 C 0.90789 0.52339 0.98873 0.0
C224 C 0.82569 0.4978 1.00174 0.0
C225 C 0.88833 0.55505 0.96971 0.0
C226 C 0.8386 0.55825 0.96674 0.0
C227 C 0.75656 0.53298 0.97921 0.0
C228 C 0.72456 0.50449 0.9954 0.0
C229 C 0.80682 0.52982 0.98237 0.0
C230 C 0.74386 0.47271 0.01406 0.0
C231 C 0.79371 0.4694 0.01714 0.0
H232 H 0.26392 0.73574 0.99994 0.0
H233 H 0.13021 0.78455 0.05679 0.0
H234 H 0.17385 0.84131 0.08691 0.0
H235 H 0.24989 0.87702 0.09819 0.0
H236 H 0.38345 0.8286 0.03538 0.0
H237 H 0.33995 0.77174 1.00686 0.0
C238 C 0.24434 0.75885 0.01806 0.0
C239 C 0.19396 0.75592 0.02659 0.0
C240 C 0.2696 0.79144 0.03465 0.0
C241 C 0.1691 0.78604 0.05141 0.0
C242 C 0.19397 0.81853 0.06803 0.0
C243 C 0.26943 0.85409 0.07718 0.0
C244 C 0.31982 0.85708 0.06926 0.0
C245 C 0.2442 0.82153 0.06 0.0
C246 C 0.3447 0.82699 0.04358 0.0
C247 C 0.31984 0.79447 0.02658 0.0
H248 H 0.50497 0.24259 0.06283 0.0
H249 H 0.65878 0.26071 0.03878 0.0
H250 H 0.66869 0.19824 0.03369 0.0
H251 H 0.63339 0.13831 0.03344 0.0
H252 H 0.47929 0.12075 0.05884 0.0
H253 H 0.46991 0.18301 0.06513 0.0
C254 C 0.54064 0.23286 0.05599 0.0
C255 C 0.58103 0.25631 0.05109 0.0
C256 C 0.54607 0.19695 0.05316 0.0
C257 C 0.6271 0.24328 0.04383 0.0
C258 C 0.63278 0.20753 0.0403 0.0
C259 C 0.59774 0.14806 0.04038 0.0
C260 C 0.55715 0.12469 0.04562 0.0
C261 C 0.59248 0.18409 0.04462 0.0
C262 C 0.51128 0.13797 0.05515 0.0
C263 C 0.50578 0.17366 0.05854 0.0
loop_
_geom_bond_atom_site_label_1
_geom_bond_atom_site_label_2
_geom_bond_distance
_geom_bond_site_symmetry_2
_ccdc_geom_bond_type
Pr0 C2 2.880 . S
Pr0 O20 2.562 1_556 S
Pr0 O21 2.490 . S
Pr0 O22 2.695 1_655 S
Pr0 O23 2.512 . S
Pr0 O25 2.437 . S
Pr0 O28 2.436 1_556 S
Pr0 O30 2.438 1_655 S
Pr1 C11 2.880 . S
Pr1 O22 2.436 1_554 S
Pr1 O24 2.438 1_455 S
Pr1 O26 2.562 1_554 S
Pr1 O27 2.490 . S
Pr1 O28 2.695 1_455 S
Pr1 O29 2.512 . S
Pr1 O31 2.437 . S
C2 Pr0 2.880 . S
C2 C3 1.491 . S
C2 O20 1.254 1_556 S
C2 O21 1.225 . S
C3 C2 1.491 . S
C3 C4 1.392 . S
C3 C8 1.356 1_556 S
C4 C3 1.392 . S
C4 C5 1.368 . S
C4 H32 0.929 . S
C5 C4 1.368 . S
C5 C6 1.386 . S
C5 H33 0.929 . S
C6 C5 1.386 . S
C6 C7 1.373 1_556 S
C7 C6 1.373 1_554 S
C7 C8 1.409 . S
C7 H34 0.931 . S
C8 C3 1.356 1_554 S
C8 C7 1.409 . S
C8 H35 0.930 . S
C9 O22 1.270 . S
C9 O23 1.248 1_455 S
C10 O24 1.267 1_556 S
C10 O25 1.278 . S
C11 Pr1 2.880 . S
C11 C12 1.491 . S
C11 O26 1.254 1_554 S
C11 O27 1.225 . S
C12 C11 1.491 . S
C12 C13 1.392 . S
C12 C17 1.356 1_554 S
C13 C12 1.392 . S
C13 C14 1.368 . S
C13 H36 0.929 . S
C14 C13 1.368 . S
C14 C15 1.386 . S
C14 H37 0.929 . S
C15 C14 1.386 . S
C15 C16 1.373 1_554 S
C16 C15 1.373 1_556 S
C16 C17 1.409 . S
C16 H38 0.931 . S
C17 C12 1.356 1_556 S
C17 C16 1.409 . S
C17 H39 0.930 . S
C18 O28 1.270 1_455 S
C18 O29 1.248 . S
C19 O30 1.267 1_554 S
C19 O31 1.278 . S
O20 Pr0 2.562 1_554 S
O20 C2 1.254 1_554 S
O21 Pr0 2.490 . S
O21 C2 1.225 . S
O22 Pr0 2.695 1_455 S
O22 Pr1 2.436 1_556 S
O22 C9 1.270 . S
O23 Pr0 2.512 . S
O23 C9 1.248 1_655 S
O24 Pr1 2.438 1_655 S
O24 C10 1.267 1_554 S
O25 Pr0 2.437 . S
O25 C10 1.278 . S
O26 Pr1 2.562 1_556 S
O26 C11 1.254 1_556 S
O27 Pr1 2.490 . S
O27 C11 1.225 . S
O28 Pr0 2.436 1_554 S
O28 Pr1 2.695 1_655 S
O28 C18 1.270 1_655 S
O29 Pr1 2.512 . S
O29 C18 1.248 . S
O30 Pr0 2.438 1_455 S
O30 C19 1.267 1_556 S
O31 Pr1 2.437 . S
O31 C19 1.278 . S
H32 C4 0.929 . S
H33 C5 0.929 . S
H34 C7 0.931 . S
H35 C8 0.930 . S
H36 C13 0.929 . S
H37 C14 0.929 . S
H38 C16 0.931 . S
H39 C17 0.930 . S
Pr40 C42 2.880 . S
Pr40 O60 2.562 1_554 S
Pr40 O61 2.490 . S
Pr40 O62 2.695 1_545 S
Pr40 O63 2.512 . S
Pr40 O65 2.437 . S
Pr40 O68 2.436 1_554 S
Pr40 O70 2.438 1_545 S
Pr41 C51 2.880 . S
Pr41 O62 2.436 1_556 S
Pr41 O64 2.438 1_565 S
Pr41 O66 2.562 1_556 S
Pr41 O67 2.490 . S
Pr41 O68 2.695 1_565 S
Pr41 O69 2.512 . S
Pr41 O71 2.437 . S
C42 Pr40 2.880 . S
C42 C43 1.491 1_554 S
C42 O60 1.254 1_554 S
C42 O61 1.225 . S
C43 C42 1.491 1_556 S
C43 C44 1.389 1_556 S
C43 C48 1.360 . S
C44 C43 1.389 1_554 S
C44 C45 1.368 . S
C44 H72 0.929 . S
C45 C44 1.368 . S
C45 C46 1.386 1_554 S
C45 H73 0.929 . S
C46 C45 1.386 1_556 S
C46 C47 1.373 . S
C47 C46 1.373 . S
C47 C48 1.409 . S
C47 H74 0.931 . S
C48 C43 1.360 . S
C48 C47 1.409 . S
C48 H75 0.930 . S
C49 O62 1.270 1_545 S
C49 O63 1.248 . S
C50 O64 1.266 1_554 S
C50 O65 1.278 . S
C51 Pr41 2.880 . S
C51 C52 1.491 1_556 S
C51 O66 1.254 1_556 S
C51 O67 1.225 . S
C52 C51 1.491 1_554 S
C52 C53 1.392 1_554 S
C52 C57 1.356 . S
C53 C52 1.392 1_556 S
C53 C54 1.368 . S
C53 H76 0.929 . S
C54 C53 1.368 . S
C54 C55 1.386 1_556 S
C54 H77 0.929 . S
C55 C54 1.386 1_554 S
C55 C56 1.373 . S
C56 C55 1.373 . S
C56 C57 1.409 . S
C56 H78 0.931 . S
C57 C52 1.356 . S
C57 C56 1.409 . S
C57 H79 0.930 . S
C58 O68 1.270 1_565 S
C58 O69 1.248 . S
C59 O70 1.267 1_556 S
C59 O71 1.278 . S
O60 Pr40 2.562 1_556 S
O60 C42 1.254 1_556 S
O61 Pr40 2.490 . S
O61 C42 1.225 . S
O62 Pr40 2.695 1_565 S
O62 Pr41 2.436 1_554 S
O62 C49 1.270 1_565 S
O63 Pr40 2.512 . S
O63 C49 1.248 . S
O64 Pr41 2.438 1_545 S
O64 C50 1.266 1_556 S
O65 Pr40 2.437 . S
O65 C50 1.278 . S
O66 Pr41 2.562 1_554 S
O66 C51 1.254 1_554 S
O67 Pr41 2.490 . S
O67 C51 1.225 . S
O68 Pr40 2.436 1_556 S
O68 Pr41 2.695 1_545 S
O68 C58 1.270 1_545 S
O69 Pr41 2.512 . S
O69 C58 1.248 . S
O70 Pr40 2.438 1_565 S
O70 C59 1.267 1_554 S
O71 Pr41 2.437 . S
O71 C59 1.278 . S
H72 C44 0.929 . S
H73 C45 0.929 . S
H74 C47 0.931 . S
H75 C48 0.930 . S
H76 C53 0.929 . S
H77 C54 0.929 . S
H78 C56 0.931 . S
H79 C57 0.930 . S
Pr80 C82 2.880 . S
Pr80 O100 2.562 1_554 S
Pr80 O101 2.490 . S
Pr80 O102 2.695 . S
Pr80 O103 2.512 . S
Pr80 O105 2.437 . S
Pr80 O108 2.436 1_554 S
Pr80 O110 2.438 . S
Pr81 C91 2.880 . S
Pr81 O102 2.436 1_556 S
Pr81 O104 2.438 . S
Pr81 O106 2.562 1_556 S
Pr81 O107 2.490 . S
Pr81 O108 2.695 . S
Pr81 O109 2.512 . S
Pr81 O111 2.437 . S
C82 Pr80 2.880 . S
C82 C83 1.491 . S
C82 O100 1.254 1_554 S
C82 O101 1.225 . S
C83 C82 1.491 . S
C83 C84 1.392 . S
C83 C88 1.356 1_554 S
C84 C83 1.392 . S
C84 C85 1.368 . S
C84 H112 0.929 . S
C85 C84 1.368 . S
C85 C86 1.392 . S
C85 H113 0.929 . S
C86 C85 1.392 . S
C86 C87 1.368 1_554 S
C87 C86 1.368 1_556 S
C87 C88 1.409 . S
C87 H114 0.931 . S
C88 C83 1.356 1_556 S
C88 C87 1.409 . S
C88 H115 0.930 . S
C89 O102 1.270 . S
C89 O103 1.248 . S
C90 O104 1.267 1_554 S
C90 O105 1.278 . S
C91 Pr81 2.880 . S
C91 C92 1.491 . S
C91 O106 1.254 1_556 S
C91 O107 1.225 . S
C92 C91 1.491 . S
C92 C93 1.392 . S
C92 C97 1.356 1_556 S
C93 C92 1.392 . S
C93 C94 1.368 . S
C93 H116 0.929 . S
C94 C93 1.368 . S
C94 C95 1.386 1_556 S
C94 H117 0.929 . S
C95 C94 1.386 1_554 S
C95 C96 1.373 . S
C96 C95 1.373 . S
C96 C97 1.409 . S
C96 H118 0.931 . S
C97 C92 1.356 1_554 S
C97 C96 1.409 . S
C97 H119 0.930 . S
C98 O108 1.270 . S
C98 O109 1.248 . S
C99 O110 1.267 1_556 S
C99 O111 1.278 . S
O100 Pr80 2.562 1_556 S
O100 C82 1.254 1_556 S
O101 Pr80 2.490 . S
O101 C82 1.225 . S
O102 Pr80 2.695 . S
O102 Pr81 2.436 1_554 S
O102 C89 1.270 . S
O103 Pr80 2.512 . S
O103 C89 1.248 . S
O104 Pr81 2.438 . S
O104 C90 1.267 1_556 S
O105 Pr80 2.437 . S
O105 C90 1.278 . S
O106 Pr81 2.562 1_554 S
O106 C91 1.254 1_554 S
O107 Pr81 2.490 . S
O107 C91 1.225 . S
O108 Pr80 2.436 1_556 S
O108 Pr81 2.695 . S
O108 C98 1.270 . S
O109 Pr81 2.512 . S
O109 C98 1.248 . S
O110 Pr80 2.438 . S
O110 C99 1.267 1_554 S
O111 Pr81 2.437 . S
O111 C99 1.278 . S
H112 C84 0.929 . S
H113 C85 0.929 . S
H114 C87 0.931 . S
H115 C88 0.930 . S
H116 C93 0.929 . S
H117 C94 0.929 . S
H118 C96 0.931 . S
H119 C97 0.930 . S
H120 C126 0.930 . S
H121 C129 0.930 . S
H122 C130 0.930 . S
H123 C131 0.930 . S
H124 C134 0.930 . S
H125 C135 0.930 . S
C126 H120 0.930 . S
C126 C127 1.355 . S
C126 C128 1.415 . S
C127 C126 1.355 . S
C127 C129 1.419 1_455 S
C128 C126 1.415 . S
C128 C133 1.425 1_455 S
C128 C135 1.409 . S
C129 H121 0.930 . S
C129 C127 1.419 1_655 S
C129 C130 1.362 . S
C130 H122 0.930 . S
C130 C129 1.362 . S
C130 C133 1.409 . S
C131 H123 0.930 . S
C131 C132 1.355 1_655 S
C131 C133 1.415 . S
C132 C131 1.355 1_455 S
C132 C134 1.419 . S
C133 C128 1.425 1_655 S
C133 C130 1.409 . S
C133 C131 1.415 . S
C134 H124 0.930 . S
C134 C132 1.419 . S
C134 C135 1.362 . S
C135 H125 0.930 . S
C135 C128 1.409 . S
C135 C134 1.362 . S
H136 C142 0.930 . S
H137 C145 0.930 . S
H138 C146 0.930 . S
H139 C147 0.930 . S
H140 C150 0.930 . S
H141 C151 0.930 . S
C142 H136 0.930 . S
C142 C143 1.355 1_565 S
C142 C144 1.415 . S
C143 C142 1.355 1_545 S
C143 C145 1.419 . S
C144 C142 1.415 . S
C144 C149 1.425 1_565 S
C144 C151 1.409 . S
C145 H137 0.930 . S
C145 C143 1.419 . S
C145 C146 1.362 . S
C146 H138 0.930 . S
C146 C145 1.362 . S
C146 C149 1.409 . S
C147 H139 0.930 . S
C147 C148 1.355 1_545 S
C147 C149 1.415 . S
C148 C147 1.355 1_565 S
C148 C150 1.419 . S
C149 C144 1.425 1_545 S
C149 C146 1.409 . S
C149 C147 1.415 . S
C150 H140 0.930 . S
C150 C148 1.419 . S
C150 C151 1.362 . S
C151 H141 0.930 . S
C151 C144 1.409 . S
C151 C150 1.362 . S
H152 C158 0.930 . S
H153 C161 0.930 . S
H154 C162 0.930 . S
H155 C163 0.930 . S
H156 C166 0.930 . S
H157 C167 0.930 . S
C158 H152 0.930 . S
C158 C159 1.355 . S
C158 C160 1.415 . S
C159 C158 1.355 . S
C159 C161 1.419 . S
C160 C158 1.415 . S
C160 C165 1.425 . S
C160 C167 1.409 . S
C161 H153 0.930 . S
C161 C159 1.419 . S
C161 C162 1.362 . S
C162 H154 0.930 . S
C162 C161 1.362 . S
C162 C165 1.409 . S
C163 H155 0.930 . S
C163 C164 1.355 . S
C163 C165 1.415 . S
C164 C163 1.355 . S
C164 C166 1.419 . S
C165 C160 1.425 . S
C165 C162 1.409 . S
C165 C163 1.415 . S
C166 H156 0.930 . S
C166 C164 1.419 . S
C166 C167 1.362 . S
C167 H157 0.930 . S
C167 C160 1.409 . S
C167 C166 1.362 . S
H168 C174 0.930 . S
H169 C177 0.930 . S
H170 C178 0.930 . S
H171 C179 0.930 . S
H172 C182 0.930 . S
H173 C183 0.930 . S
C174 H168 0.930 . S
C174 C175 1.355 1_554 S
C174 C176 1.415 . S
C175 C174 1.355 1_556 S
C175 C177 1.419 . S
C176 C174 1.415 . S
C176 C181 1.425 1_554 S
C176 C183 1.409 . S
C177 H169 0.930 . S
C177 C175 1.419 . S
C177 C178 1.362 . S
C178 H170 0.930 . S
C178 C177 1.362 . S
C178 C181 1.409 . S
C179 H171 0.930 . S
C179 C180 1.355 . S
C179 C181 1.415 . S
C180 C179 1.355 . S
C180 C182 1.419 1_556 S
C181 C176 1.425 1_556 S
C181 C178 1.409 . S
C181 C179 1.415 . S
C182 H172 0.930 . S
C182 C180 1.419 1_554 S
C182 C183 1.362 . S
C183 H173 0.930 . S
C183 C176 1.409 . S
C183 C182 1.362 . S
H184 C190 0.930 . S
H185 C193 0.930 . S
H186 C194 0.930 . S
H187 C195 0.930 . S
H188 C198 0.930 . S
H189 C199 0.930 . S
C190 H184 0.930 . S
C190 C191 1.355 1_556 S
C190 C192 1.415 . S
C191 C190 1.355 1_554 S
C191 C193 1.419 . S
C192 C190 1.415 . S
C192 C197 1.425 1_556 S
C192 C199 1.409 . S
C193 H185 0.930 . S
C193 C191 1.419 . S
C193 C194 1.362 . S
C194 H186 0.930 . S
C194 C193 1.362 . S
C194 C197 1.409 . S
C195 H187 0.930 . S
C195 C196 1.355 1_554 S
C195 C197 1.415 . S
C196 C195 1.355 1_556 S
C196 C198 1.419 . S
C197 C192 1.425 1_554 S
C197 C194 1.409 . S
C197 C195 1.415 . S
C198 H188 0.930 . S
C198 C196 1.419 . S
C198 C199 1.362 . S
C199 H189 0.930 . S
C199 C192 1.409 . S
C199 C198 1.362 . S
H200 C206 0.930 . S
H201 C209 0.930 . S
H202 C210 0.930 . S
H203 C211 0.930 . S
H204 C214 0.930 . S
H205 C215 0.930 . S
C206 H200 0.930 . S
C206 C207 1.355 1_556 S
C206 C208 1.415 . S
C207 C206 1.355 1_554 S
C207 C209 1.419 . S
C208 C206 1.415 . S
C208 C213 1.425 1_556 S
C208 C215 1.409 . S
C209 H201 0.930 . S
C209 C207 1.419 . S
C209 C210 1.362 . S
C210 H202 0.930 . S
C210 C209 1.362 . S
C210 C213 1.409 . S
C211 H203 0.930 . S
C211 C212 1.355 1_554 S
C211 C213 1.415 . S
C212 C211 1.355 1_556 S
C212 C214 1.419 . S
C213 C208 1.425 1_554 S
C213 C210 1.409 . S
C213 C211 1.415 . S
C214 H204 0.930 . S
C214 C212 1.419 . S
C214 C215 1.362 . S
C215 H205 0.930 . S
C215 C208 1.409 . S
C215 C214 1.362 . S
H216 C222 0.930 . S
H217 C225 0.930 . S
H218 C226 0.930 . S
H219 C227 0.930 . S
H220 C230 0.930 . S
H221 C231 0.930 . S
C222 H216 0.930 . S
C222 C223 1.355 1_556 S
C222 C224 1.415 . S
C223 C222 1.355 1_554 S
C223 C225 1.419 . S
C224 C222 1.415 . S
C224 C229 1.425 1_556 S
C224 C231 1.409 . S
C225 H217 0.930 . S
C225 C223 1.419 . S
C225 C226 1.362 . S
C226 H218 0.930 . S
C226 C225 1.362 . S
C226 C229 1.409 . S
C227 H219 0.930 . S
C227 C228 1.355 . S
C227 C229 1.415 . S
C228 C227 1.355 . S
C228 C230 1.419 1_554 S
C229 C224 1.425 1_554 S
C229 C226 1.409 . S
C229 C227 1.415 . S
C230 H220 0.930 . S
C230 C228 1.419 1_556 S
C230 C231 1.362 . S
C231 H221 0.930 . S
C231 C224 1.409 . S
C231 C230 1.362 . S
H232 C238 0.930 . S
H233 C241 0.930 . S
H234 C242 0.930 . S
H235 C243 0.930 . S
H236 C246 0.930 . S
H237 C247 0.930 . S
C238 H232 0.930 . S
C238 C239 1.355 . S
C238 C240 1.415 . S
C239 C238 1.355 . S
C239 C241 1.419 1_554 S
C240 C238 1.415 . S
C240 C245 1.425 1_554 S
C240 C247 1.409 . S
C241 H233 0.930 . S
C241 C239 1.419 1_556 S
C241 C242 1.362 . S
C242 H234 0.930 . S
C242 C241 1.362 . S
C242 C245 1.409 . S
C243 H235 0.930 . S
C243 C244 1.355 1_556 S
C243 C245 1.415 . S
C244 C243 1.355 1_554 S
C244 C246 1.419 . S
C245 C240 1.425 1_556 S
C245 C242 1.409 . S
C245 C243 1.415 . S
C246 H236 0.930 . S
C246 C244 1.419 . S
C246 C247 1.362 . S
C247 H237 0.930 . S
C247 C240 1.409 . S
C247 C246 1.362 . S
H248 C254 0.930 . S
H249 C257 0.930 . S
H250 C258 0.930 . S
H251 C259 0.930 . S
H252 C262 0.930 . S
H253 C263 0.930 . S
C254 H248 0.930 . S
C254 C255 1.355 . S
C254 C256 1.415 . S
C255 C254 1.355 . S
C255 C257 1.419 1_554 S
C256 C254 1.415 . S
C256 C261 1.425 1_554 S
C256 C263 1.409 . S
C257 H249 0.930 . S
C257 C255 1.419 1_556 S
C257 C258 1.362 . S
C258 H250 0.930 . S
C258 C257 1.362 . S
C258 C261 1.409 . S
C259 H251 0.930 . S
C259 C260 1.355 1_556 S
C259 C261 1.415 . S
C260 C259 1.355 1_554 S
C260 C262 1.419 . S
C261 C256 1.425 1_556 S
C261 C258 1.409 . S
C261 C259 1.415 . S
C262 H252 0.930 . S
C262 C260 1.419 . S
C262 C263 1.362 . S
C263 H253 0.930 . S
C263 C256 1.409 . S
C263 C262 1.362 . S
C127 C9 1.452 . S
C132 C18 1.452 . S
C143 C49 1.436 . S
C148 C58 1.436 . S
C159 C98 1.443 . S
C164 C89 1.443 . S
C175 C19 2.621 1_556 S
C180 C90 2.543 1_556 S
C191 C46 0.916 1_554 S
C196 C6 0.917 . S
C207 C59 2.118 1_554 S
C212 C86 2.032 1_556 S
C223 C10 2.618 1_554 S
C228 C99 2.579 1_554 S
C239 C15 0.868 . S
C244 C55 0.869 . S
C255 C95 2.083 . S
C260 C50 2.140 . S
