# Generated by pormake.
# Topology upc, (4)-cn, num edge types: 1
# Building blocks:
#     Node 0, Type 0, BuildingBlock: QUQFOY_clean_sbu_1, # of connection points: 4
#     Node 1, Type 0, BuildingBlock: QUQFOY_clean_sbu_1, # of connection points: 4
#     Node 2, Type 0, BuildingBlock: QUQFOY_clean_sbu_1, # of connection points: 4
#     Node 3, Type 0, BuildingBlock: QUQFOY_clean_sbu_1, # of connection points: 4
#     Node 4, Type 0, BuildingBlock: QUQFOY_clean_sbu_1, # of connection points: 4
#     Node 5, Type 0, BuildingBlock: QUQFOY_clean_sbu_1, # of connection points: 4
#     Node 6, Type 0, BuildingBlock: QUQFOY_clean_sbu_1, # of connection points: 4
#     Node 7, Type 0, BuildingBlock: QUQFOY_clean_sbu_1, # of connection points: 4
#     Node 8, Type 0, BuildingBlock: QUQFOY_clean_sbu_1, # of connection points: 4
#     Node 9, Type 0, BuildingBlock: QUQFOY_clean_sbu_1, # of connection points: 4
#     Node 10, Type 0, BuildingBlock: QUQFOY_clean_sbu_1, # of connection points: 4
#     Node 11, Type 0, BuildingBlock: QUQFOY_clean_sbu_1, # of connection points: 4
#     Node 12, Type 0, BuildingBlock: QUQFOY_clean_sbu_1, # of connection points: 4
#     Node 13, Type 0, BuildingBlock: QUQFOY_clean_sbu_1, # of connection points: 4
#     Node 14, Type 0, BuildingBlock: QUQFOY_clean_sbu_1, # of connection points: 4
#     Node 15, Type 0, BuildingBlock: QUQFOY_clean_sbu_1, # of connection points: 4
#     Edge 16, Type (0, 0), BuildingBlock: OJICUG_clean_linker_0, # of connection points: 2
#     Edge 17, Type (0, 0), BuildingBlock: OJICUG_clean_linker_0, # of connection points: 2
#     Edge 18, Type (0, 0), BuildingBlock: OJICUG_clean_linker_0, # of connection points: 2
#     Edge 19, Type (0, 0), BuildingBlock: OJICUG_clean_linker_0, # of connection points: 2
#     Edge 20, Type (0, 0), BuildingBlock: OJICUG_clean_linker_0, # of connection points: 2
#     Edge 21, Type (0, 0), BuildingBlock: OJICUG_clean_linker_0, # of connection points: 2
#     Edge 22, Type (0, 0), BuildingBlock: OJICUG_clean_linker_0, # of connection points: 2
#     Edge 23, Type (0, 0), BuildingBlock: OJICUG_clean_linker_0, # of connection points: 2
#     Edge 24, Type (0, 0), BuildingBlock: OJICUG_clean_linker_0, # of connection points: 2
#     Edge 25, Type (0, 0), BuildingBlock: OJICUG_clean_linker_0, # of connection points: 2
#     Edge 26, Type (0, 0), BuildingBlock: OJICUG_clean_linker_0, # of connection points: 2
#     Edge 27, Type (0, 0), BuildingBlock: OJICUG_clean_linker_0, # of connection points: 2
#     Edge 28, Type (0, 0), BuildingBlock: OJICUG_clean_linker_0, # of connection points: 2
#     Edge 29, Type (0, 0), BuildingBlock: OJICUG_clean_linker_0, # of connection points: 2
#     Edge 30, Type (0, 0), BuildingBlock: OJICUG_clean_linker_0, # of connection points: 2
#     Edge 31, Type (0, 0), BuildingBlock: OJICUG_clean_linker_0, # of connection points: 2
#     Edge 32, Type (0, 0), BuildingBlock: OJICUG_clean_linker_0, # of connection points: 2
#     Edge 33, Type (0, 0), BuildingBlock: OJICUG_clean_linker_0, # of connection points: 2
#     Edge 34, Type (0, 0), BuildingBlock: OJICUG_clean_linker_0, # of connection points: 2
#     Edge 35, Type (0, 0), BuildingBlock: OJICUG_clean_linker_0, # of connection points: 2
#     Edge 36, Type (0, 0), BuildingBlock: OJICUG_clean_linker_0, # of connection points: 2
#     Edge 37, Type (0, 0), BuildingBlock: OJICUG_clean_linker_0, # of connection points: 2
#     Edge 38, Type (0, 0), BuildingBlock: OJICUG_clean_linker_0, # of connection points: 2
#     Edge 39, Type (0, 0), BuildingBlock: OJICUG_clean_linker_0, # of connection points: 2
#     Edge 40, Type (0, 0), BuildingBlock: OJICUG_clean_linker_0, # of connection points: 2
#     Edge 41, Type (0, 0), BuildingBlock: OJICUG_clean_linker_0, # of connection points: 2
#     Edge 42, Type (0, 0), BuildingBlock: OJICUG_clean_linker_0, # of connection points: 2
#     Edge 43, Type (0, 0), BuildingBlock: OJICUG_clean_linker_0, # of connection points: 2
#     Edge 44, Type (0, 0), BuildingBlock: OJICUG_clean_linker_0, # of connection points: 2
#     Edge 45, Type (0, 0), BuildingBlock: OJICUG_clean_linker_0, # of connection points: 2
#     Edge 46, Type (0, 0), BuildingBlock: OJICUG_clean_linker_0, # of connection points: 2
#     Edge 47, Type (0, 0), BuildingBlock: OJICUG_clean_linker_0, # of connection points: 2
# Relax obj value: 0.078
# Max RMSD: 0.195
# Mean RMSD: 0.195
data_MOF--net-upc--node1-QUQFOY_clean_sbu_1--edge1-OJICUG_clean_linker_0
_symmetry_space_group_name_H-M    P1
_symmetry_Int_Tables_number       1
_symmetry_cell_setting            triclinic
loop_
_symmetry_equiv_pos_as_xyz
'x, y, z'
_cell_length_a     27.496546
_cell_length_b     27.508756
_cell_length_c     31.246524
_cell_angle_alpha  90.011432
_cell_angle_beta   89.942009
_cell_angle_gamma 89.97658
loop_
_atom_site_label
_atom_site_type_symbol
_atom_site_fract_x
_atom_site_fract_y
_atom_site_fract_z
_atom_type_partial_charge
O0 O 0.04416 0.5652 0.23094 0.0
Cd1 Cd 0.03854 0.62951 0.19845 0.0
Cd2 Cd 0.12673 0.6324 0.22379 0.0
O3 O 0.12384 0.55788 0.22744 0.0
O4 O 0.98631 0.6163 0.15528 0.0
O5 O 0.06424 0.62371 0.13863 0.0
C6 C 0.02068 0.61179 0.12726 0.0
C7 C 0.18376 0.67609 0.1862 0.0
C8 C 0.08235 0.53954 0.23435 0.0
C9 C 0.05797 0.69857 0.26839 0.0
O10 O 0.09572 0.67222 0.27255 0.0
O11 O 0.03061 0.69272 0.23576 0.0
O12 O 0.19564 0.65246 0.22031 0.0
O13 O 0.14005 0.672 0.17167 0.0
O14 O 0.98305 0.04977 0.17385 0.0
Cd15 Cd 0.94607 0.01716 0.12306 0.0
Cd16 Cd 0.88935 0.1255 0.17846 0.0
O17 O 0.95593 0.11633 0.20813 0.0
O18 O 0.98893 0.97123 0.09067 0.0
O19 O 0.96507 0.04278 0.06546 0.0
C20 C 0.99098 0.0038 0.06083 0.0
C21 C 0.832 0.18451 0.19124 0.0
C22 C 0.98782 0.08303 0.20221 0.0
C23 C 0.8528 0.03382 0.14543 0.0
O24 O 0.87513 0.0725 0.13572 0.0
O25 O 0.8747 0.9946 0.1366 0.0
O26 O 0.83475 0.14689 0.21597 0.0
O27 O 0.86397 0.18978 0.16112 0.0
O28 O 0.45358 0.94008 0.2311 0.0
Cd29 Cd 0.45844 0.87572 0.1986 0.0
Cd30 Cd 0.37034 0.87363 0.22507 0.0
O31 O 0.37389 0.9481 0.22928 0.0
O32 O 0.51075 0.8886 0.15529 0.0
O33 O 0.4328 0.88163 0.13879 0.0
C34 C 0.47642 0.89327 0.12732 0.0
C35 C 0.31309 0.83066 0.18719 0.0
C36 C 0.41569 0.96603 0.2354 0.0
C37 C 0.43917 0.8067 0.26876 0.0
O38 O 0.40152 0.83313 0.27324 0.0
O39 O 0.46636 0.81256 0.23596 0.0
O40 O 0.30132 0.85389 0.22157 0.0
O41 O 0.3568 0.83478 0.1726 0.0
O42 O 0.517 0.44788 0.18033 0.0
Cd43 Cd 0.55399 0.48026 0.12936 0.0
Cd44 Cd 0.60864 0.37082 0.18534 0.0
O45 O 0.54238 0.38124 0.21543 0.0
O46 O 0.51137 0.526 0.09662 0.0
O47 O 0.5349 0.45401 0.07206 0.0
C48 C 0.50914 0.49303 0.06711 0.0
C49 C 0.66453 0.30988 0.1955 0.0
C50 C 0.51125 0.41513 0.209 0.0
C51 C 0.64658 0.4621 0.15203 0.0
O52 O 0.62323 0.42388 0.14284 0.0
O53 O 0.62581 0.50173 0.14255 0.0
O54 O 0.66353 0.34683 0.22114 0.0
O55 O 0.63146 0.30628 0.16616 0.0
O56 O 0.04934 0.98519 0.36206 0.0
Cd57 Cd 0.01708 0.94837 0.41314 0.0
Cd58 Cd 0.12572 0.89194 0.35835 0.0
O59 O 0.11603 0.95802 0.32792 0.0
O60 O 0.97151 0.99125 0.44591 0.0
O61 O 0.04334 0.96732 0.47049 0.0
C62 C 0.00442 0.99326 0.47545 0.0
C63 C 0.18603 0.83549 0.34733 0.0
C64 C 0.08256 0.9898 0.33361 0.0
C65 C 0.0339 0.85517 0.39108 0.0
O66 O 0.0725 0.87758 0.40088 0.0
O67 O 0.99457 0.87697 0.3998 0.0
O68 O 0.14881 0.83702 0.32206 0.0
O69 O 0.19019 0.86822 0.37691 0.0
O70 O 0.56362 0.04489 0.30671 0.0
Cd71 Cd 0.62797 0.03783 0.33893 0.0
Cd72 Cd 0.6319 0.12633 0.31471 0.0
O73 O 0.55727 0.12453 0.31153 0.0
O74 O 0.61428 0.98515 0.38162 0.0
O75 O 0.62277 0.06271 0.39903 0.0
C76 C 0.61039 0.01915 0.41003 0.0
C77 C 0.67654 0.18208 0.35284 0.0
C78 C 0.5384 0.08344 0.30402 0.0
C79 C 0.69691 0.05749 0.26894 0.0
O80 O 0.67098 0.09559 0.26532 0.0
O81 O 0.69095 0.02976 0.30132 0.0
O82 O 0.65288 0.19487 0.31901 0.0
O83 O 0.67206 0.13816 0.36677 0.0
O84 O 0.44917 0.52032 0.36497 0.0
Cd85 Cd 0.48258 0.55797 0.41501 0.0
Cd86 Cd 0.37279 0.61249 0.35928 0.0
O87 O 0.3822 0.54553 0.33028 0.0
O88 O 0.52873 0.51553 0.44749 0.0
O89 O 0.45722 0.53959 0.47283 0.0
C90 C 0.4962 0.51368 0.47743 0.0
C91 C 0.31253 0.66883 0.34791 0.0
C92 C 0.41595 0.51427 0.3368 0.0
C93 C 0.46457 0.65039 0.39149 0.0
O94 O 0.42629 0.62739 0.40126 0.0
O95 O 0.5042 0.62948 0.40079 0.0
O96 O 0.3495 0.66668 0.32231 0.0
O97 O 0.30857 0.63672 0.37804 0.0
O98 O 0.93833 0.4536 0.30942 0.0
Cd99 Cd 0.87432 0.45708 0.34265 0.0
Cd100 Cd 0.87323 0.36927 0.31559 0.0
O101 O 0.9476 0.37406 0.31063 0.0
O102 O 0.88702 0.5089 0.38638 0.0
O103 O 0.88135 0.43064 0.4021 0.0
C104 C 0.89253 0.47423 0.41392 0.0
C105 C 0.83134 0.31103 0.3533 0.0
C106 C 0.96481 0.41619 0.30458 0.0
C107 C 0.80469 0.43748 0.27309 0.0
O108 O 0.83166 0.40031 0.26807 0.0
O109 O 0.81056 0.46444 0.306 0.0
O110 O 0.85447 0.29997 0.31867 0.0
O111 O 0.83512 0.35458 0.36826 0.0
O112 O 0.94969 0.48379 0.86299 0.0
Cd113 Cd 0.98156 0.44687 0.91417 0.0
Cd114 Cd 0.87279 0.3916 0.85821 0.0
O115 O 0.88317 0.45776 0.82811 0.0
O116 O 0.02734 0.48956 0.94678 0.0
O117 O 0.95525 0.46635 0.97141 0.0
C118 C 0.99432 0.49204 0.97627 0.0
C119 C 0.81238 0.33547 0.84681 0.0
C120 C 0.91691 0.48909 0.8343 0.0
C121 C 0.964 0.354 0.89173 0.0
O122 O 0.92554 0.37696 0.90103 0.0
O123 O 0.00345 0.37519 0.90105 0.0
O124 O 0.84982 0.33688 0.82171 0.0
O125 O 0.80807 0.36818 0.87641 0.0
O126 O 0.06279 0.95281 0.80525 0.0
Cd127 Cd 0.12702 0.95718 0.83795 0.0
Cd128 Cd 0.12851 0.86872 0.81189 0.0
O129 O 0.05407 0.87323 0.8073 0.0
O130 O 0.11443 0.00976 0.88108 0.0
O131 O 0.12069 0.93184 0.89784 0.0
C132 C 0.10945 0.97559 0.90918 0.0
C133 C 0.17044 0.81145 0.85072 0.0
C134 C 0.03655 0.91517 0.80095 0.0
C135 C 0.1965 0.93673 0.76824 0.0
O136 O 0.16993 0.89919 0.76387 0.0
O137 O 0.19045 0.96426 0.80077 0.0
O138 O 0.14759 0.79953 0.81621 0.0
O139 O 0.16653 0.85536 0.86481 0.0
O140 O 0.54928 0.01976 0.86292 0.0
Cd141 Cd 0.51656 0.05698 0.91361 0.0
Cd142 Cd 0.62588 0.11238 0.8585 0.0
O143 O 0.61619 0.046 0.8286 0.0
O144 O 0.47063 0.0144 0.94627 0.0
O145 O 0.54244 0.03802 0.97108 0.0
C146 C 0.50342 0.01224 0.97592 0.0
C147 C 0.68598 0.16886 0.84706 0.0
C148 C 0.58255 0.01451 0.83459 0.0
C149 C 0.53439 0.1499 0.89138 0.0
O150 O 0.57272 0.12694 0.90103 0.0
O151 O 0.49481 0.12863 0.90016 0.0
O152 O 0.64874 0.16704 0.82183 0.0
O153 O 0.69029 0.13639 0.87684 0.0
O154 O 0.43879 0.54438 0.81256 0.0
Cd155 Cd 0.37389 0.53771 0.84416 0.0
Cd156 Cd 0.3701 0.62565 0.81846 0.0
O157 O 0.44467 0.62415 0.8153 0.0
O158 O 0.38717 0.48534 0.88714 0.0
O159 O 0.37824 0.56295 0.90422 0.0
C160 C 0.39069 0.51948 0.91543 0.0
C161 C 0.32511 0.68233 0.85524 0.0
C162 C 0.46386 0.58293 0.80905 0.0
C163 C 0.3056 0.55592 0.77336 0.0
O164 O 0.33145 0.594 0.76937 0.0
O165 O 0.31139 0.52875 0.80613 0.0
O166 O 0.34903 0.69422 0.82126 0.0
O167 O 0.32957 0.63881 0.87014 0.0
O168 O 0.95489 0.0643 0.73096 0.0
Cd169 Cd 0.96014 0.12878 0.69872 0.0
Cd170 Cd 0.87189 0.13111 0.72437 0.0
O171 O 0.87526 0.05655 0.72748 0.0
O172 O 0.01239 0.11604 0.65531 0.0
O173 O 0.9344 0.1232 0.63894 0.0
C174 C 0.978 0.11158 0.62736 0.0
C175 C 0.81504 0.17498 0.68682 0.0
C176 C 0.91686 0.0384 0.73425 0.0
C177 C 0.94033 0.19742 0.76899 0.0
O178 O 0.90277 0.17084 0.77322 0.0
O179 O 0.96767 0.19184 0.73626 0.0
O180 O 0.80295 0.15113 0.72077 0.0
O181 O 0.85884 0.17096 0.6724 0.0
O182 O 0.48413 0.94881 0.67559 0.0
Cd183 Cd 0.4468 0.97935 0.62402 0.0
Cd184 Cd 0.39257 0.87069 0.68042 0.0
O185 O 0.45836 0.88236 0.7108 0.0
O186 O 0.48888 0.02526 0.59092 0.0
O187 O 0.46659 0.95265 0.56699 0.0
C188 C 0.49173 0.992 0.56171 0.0
C189 C 0.33711 0.80972 0.69216 0.0
C190 C 0.48943 0.91634 0.70457 0.0
C191 C 0.35393 0.96097 0.64619 0.0
O192 O 0.37729 0.9227 0.63708 0.0
O193 O 0.37484 0.00056 0.63687 0.0
O194 O 0.33788 0.84744 0.7169 0.0
O195 O 0.37012 0.80547 0.66278 0.0
O196 O 0.54747 0.44099 0.73249 0.0
Cd197 Cd 0.54199 0.37676 0.69983 0.0
Cd198 Cd 0.62997 0.37374 0.72641 0.0
O199 O 0.62725 0.44813 0.73133 0.0
O200 O 0.48952 0.39027 0.65693 0.0
O201 O 0.5673 0.3826 0.63985 0.0
C202 C 0.52369 0.39468 0.62872 0.0
C203 C 0.68679 0.33048 0.68819 0.0
C204 C 0.58557 0.46649 0.73725 0.0
C205 C 0.56053 0.30718 0.76977 0.0
O206 O 0.59841 0.33321 0.77437 0.0
O207 O 0.53346 0.31351 0.73701 0.0
O208 O 0.69876 0.35327 0.72273 0.0
O209 O 0.64314 0.33521 0.67366 0.0
O210 O 0.02045 0.54788 0.67676 0.0
Cd211 Cd 0.05753 0.51371 0.62676 0.0
Cd212 Cd 0.11388 0.62311 0.68114 0.0
O213 O 0.04697 0.61492 0.71057 0.0
O214 O 0.01438 0.46797 0.59456 0.0
O215 O 0.03923 0.539 0.56894 0.0
C216 C 0.0128 0.50037 0.56455 0.0
C217 C 0.17081 0.68288 0.69202 0.0
C218 C 0.01517 0.58157 0.70465 0.0
C219 C 0.15043 0.53047 0.64968 0.0
O220 O 0.1281 0.56899 0.63951 0.0
O221 O 0.12877 0.49111 0.64093 0.0
O222 O 0.16837 0.64619 0.71785 0.0
O223 O 0.13874 0.68684 0.66187 0.0
C224 C 0.1982 0.76201 0.16826 0.0
C225 C 0.2161 0.71429 0.17047 0.0
H226 H 0.21599 0.83772 0.17251 0.0
C227 C 0.26631 0.70598 0.16832 0.0
H228 H 0.15951 0.76911 0.1706 0.0
C229 C 0.29846 0.74519 0.16769 0.0
C230 C 0.28058 0.79284 0.17105 0.0
H231 H 0.28069 0.66939 0.17052 0.0
H232 H 0.33716 0.73802 0.16957 0.0
C233 C 0.23035 0.8012 0.16945 0.0
C234 C 0.76971 0.23156 0.23311 0.0
C235 C 0.78986 0.21736 0.19367 0.0
H236 H 0.71424 0.27353 0.26476 0.0
C237 C 0.76766 0.23245 0.15555 0.0
H238 H 0.78612 0.21996 0.26292 0.0
C239 C 0.72578 0.26092 0.15662 0.0
C240 C 0.70611 0.27617 0.19581 0.0
H241 H 0.78213 0.22134 0.1248 0.0
H242 H 0.70949 0.27212 0.12663 0.0
C243 C 0.72863 0.26182 0.23416 0.0
C244 C 0.2353 0.77351 0.38487 0.0
C245 C 0.21965 0.79388 0.34612 0.0
H246 H 0.27557 0.71687 0.41547 0.0
C247 C 0.23379 0.7722 0.3073 0.0
H248 H 0.22427 0.78916 0.41519 0.0
C249 C 0.26432 0.73133 0.30745 0.0
C250 C 0.27905 0.71053 0.34643 0.0
H251 H 0.22179 0.78717 0.27703 0.0
H252 H 0.27583 0.71564 0.27728 0.0
C253 C 0.26406 0.73183 0.38503 0.0
C254 C 0.80201 0.22782 0.36941 0.0
C255 C 0.79373 0.27807 0.3692 0.0
H256 H 0.76975 0.15714 0.36674 0.0
C257 C 0.74613 0.29589 0.37358 0.0
H258 H 0.83848 0.21352 0.36555 0.0
C259 C 0.70684 0.26386 0.37254 0.0
C260 C 0.71503 0.21376 0.36896 0.0
H261 H 0.73899 0.33463 0.37279 0.0
H262 H 0.67023 0.27835 0.37112 0.0
C263 C 0.76276 0.19572 0.37019 0.0
C264 C 0.76307 0.27342 0.8842 0.0
C265 C 0.77873 0.29393 0.8455 0.0
H266 H 0.72283 0.21665 0.91468 0.0
C267 C 0.76462 0.2724 0.80663 0.0
H268 H 0.77407 0.28894 0.91456 0.0
C269 C 0.73411 0.23154 0.8067 0.0
C270 C 0.71939 0.21059 0.84564 0.0
H271 H 0.77666 0.28748 0.77639 0.0
H272 H 0.72263 0.21597 0.7765 0.0
C273 C 0.73433 0.23173 0.88428 0.0
C274 C 0.29442 0.76449 0.87314 0.0
C275 C 0.28628 0.71434 0.87029 0.0
H276 H 0.26235 0.8353 0.87146 0.0
C277 C 0.23851 0.69639 0.87082 0.0
H278 H 0.33108 0.7789 0.87221 0.0
C279 C 0.19933 0.72852 0.86863 0.0
C280 C 0.20768 0.77875 0.86769 0.0
H281 H 0.2316 0.65775 0.86789 0.0
H282 H 0.16297 0.71418 0.8643 0.0
C283 C 0.25514 0.7966 0.87277 0.0
C284 C 0.70067 0.24486 0.66881 0.0
C285 C 0.7189 0.29239 0.67185 0.0
H286 H 0.71793 0.16894 0.67183 0.0
C287 C 0.76916 0.30036 0.66988 0.0
H288 H 0.66193 0.23802 0.671 0.0
C289 C 0.80104 0.26092 0.66862 0.0
C290 C 0.78283 0.21335 0.67117 0.0
H291 H 0.78378 0.33679 0.67271 0.0
H292 H 0.83978 0.26776 0.67067 0.0
C293 C 0.73255 0.20541 0.66938 0.0
C294 C 0.2328 0.73186 0.73231 0.0
C295 C 0.21268 0.7161 0.69337 0.0
H296 H 0.28795 0.77539 0.76257 0.0
C297 C 0.23465 0.73 0.65476 0.0
H298 H 0.21657 0.72119 0.76249 0.0
C299 C 0.27626 0.75886 0.65486 0.0
C300 C 0.29587 0.77567 0.69354 0.0
H301 H 0.2202 0.71768 0.62438 0.0
H302 H 0.29236 0.76913 0.62452 0.0
C303 C 0.27359 0.76248 0.73235 0.0
C304 C 0.01945 0.4237 0.24342 0.0
C305 C 0.01377 0.4236 0.28797 0.0
H306 H 0.04889 0.46255 0.19009 0.0
C307 C 0.04631 0.45004 0.31348 0.0
H308 H 0.9942 0.40392 0.22329 0.0
C309 C 0.07812 0.48311 0.29448 0.0
C310 C 0.07671 0.49002 0.2501 0.0
H311 H 0.04197 0.4507 0.34796 0.0
H312 H 0.09756 0.50848 0.31476 0.0
C313 C 0.05073 0.45728 0.22443 0.0
C314 C 0.01875 0.09041 0.27679 0.0
C315 C 0.02648 0.07566 0.23433 0.0
H316 H 0.03208 0.07463 0.3427 0.0
C317 C 0.06484 0.04331 0.22536 0.0
H318 H 0.99004 0.11585 0.28473 0.0
C319 C 0.0891 0.01971 0.25864 0.0
C320 C 0.07494 0.02806 0.30117 0.0
H321 H 0.07243 0.03218 0.19276 0.0
H322 H 0.11436 0.99084 0.25075 0.0
C323 C 0.04278 0.06659 0.31007 0.0
C324 C 0.48161 0.07972 0.24424 0.0
C325 C 0.48865 0.07868 0.28861 0.0
H326 H 0.44924 0.04299 0.19112 0.0
C327 C 0.45577 0.05315 0.31455 0.0
H328 H 0.50704 0.09887 0.22376 0.0
C329 C 0.42219 0.02165 0.29587 0.0
C330 C 0.42223 0.01535 0.25139 0.0
H331 H 0.46109 0.05166 0.34889 0.0
H332 H 0.40248 0.99659 0.31628 0.0
C333 C 0.44851 0.04773 0.22556 0.0
C334 C 0.43416 0.45586 0.23053 0.0
C335 C 0.47237 0.42383 0.24071 0.0
H336 H 0.38466 0.50959 0.25395 0.0
C337 C 0.4799 0.41105 0.28366 0.0
H338 H 0.4268 0.46553 0.19755 0.0
C339 C 0.45578 0.43646 0.31602 0.0
C340 C 0.42372 0.4746 0.30571 0.0
H341 H 0.50856 0.38597 0.29252 0.0
H342 H 0.46631 0.42992 0.34894 0.0
C343 C 0.4098 0.48103 0.2629 0.0
C344 C 0.93712 0.54309 0.72661 0.0
C345 C 0.97577 0.5748 0.73621 0.0
H346 H 0.88644 0.49118 0.75112 0.0
C347 C 0.98293 0.5892 0.77881 0.0
H348 H 0.93001 0.53224 0.69387 0.0
C349 C 0.95796 0.56554 0.81168 0.0
C350 C 0.92545 0.52753 0.8022 0.0
H351 H 0.01188 0.61413 0.7872 0.0
H352 H 0.96819 0.57321 0.84448 0.0
C353 C 0.91193 0.51966 0.75947 0.0
C354 C 0.95483 0.9478 0.81159 0.0
C355 C 0.98719 0.92215 0.7852 0.0
H356 H 0.90311 0.0058 0.81447 0.0
C357 C 0.98065 0.92293 0.74077 0.0
H358 H 0.95982 0.94793 0.846 0.0
C359 C 0.94866 0.95651 0.72273 0.0
C360 C 0.92289 0.98862 0.74925 0.0
H361 H 0.00574 0.90376 0.71996 0.0
H362 H 0.9498 0.96237 0.68844 0.0
C363 C 0.92236 0.98093 0.79354 0.0
C364 C 0.54315 0.93702 0.8124 0.0
C365 C 0.57504 0.97552 0.8028 0.0
H366 H 0.4912 0.8864 0.78792 0.0
C367 C 0.58929 0.98284 0.76016 0.0
H368 H 0.53237 0.92981 0.84516 0.0
C369 C 0.56554 0.95799 0.72731 0.0
C370 C 0.52759 0.9254 0.73681 0.0
H371 H 0.61432 0.01172 0.75176 0.0
H372 H 0.57323 0.96823 0.6945 0.0
C373 C 0.51966 0.91192 0.77955 0.0
C374 C 0.55315 0.54863 0.72927 0.0
C375 C 0.57942 0.51542 0.75426 0.0
H376 H 0.49493 0.60018 0.72889 0.0
C377 C 0.57973 0.52051 0.79886 0.0
H378 H 0.55224 0.54483 0.69475 0.0
C379 C 0.54633 0.55158 0.8184 0.0
C380 C 0.51346 0.57802 0.79319 0.0
H381 H 0.59946 0.49481 0.8186 0.0
H382 H 0.54118 0.54915 0.85273 0.0
C383 C 0.52032 0.58031 0.74882 0.0
C384 C 0.07961 0.74151 0.3365 0.0
C385 C 0.04805 0.73671 0.30125 0.0
H386 H 0.09922 0.78217 0.3923 0.0
C387 C 0.0089 0.76952 0.2976 0.0
H388 H 0.11003 0.71697 0.34077 0.0
C389 C 0.00268 0.80715 0.3277 0.0
C390 C 0.03576 0.81283 0.36168 0.0
H391 H 0.98378 0.76682 0.27104 0.0
H392 H 0.97317 0.83278 0.32347 0.0
C393 C 0.07347 0.77894 0.36622 0.0
C394 C 0.80514 0.00239 0.20898 0.0
C395 C 0.81052 0.03545 0.17493 0.0
H396 H 0.76524 0.98344 0.2659 0.0
C397 C 0.77642 0.07299 0.17049 0.0
H398 H 0.83094 0.97301 0.21313 0.0
C399 C 0.73914 0.07904 0.20042 0.0
C400 C 0.73472 0.04755 0.23576 0.0
H401 H 0.77941 0.09872 0.14435 0.0
H402 H 0.71445 0.10937 0.19625 0.0
C403 C 0.76766 0.00851 0.23927 0.0
C404 C 0.42404 0.72596 0.36641 0.0
C405 C 0.46224 0.69258 0.36198 0.0
H406 H 0.38682 0.78745 0.34089 0.0
C407 C 0.49541 0.69867 0.32807 0.0
H408 H 0.39822 0.72244 0.39246 0.0
C409 C 0.48884 0.73619 0.29794 0.0
C410 C 0.44927 0.76851 0.30152 0.0
H411 H 0.52529 0.67343 0.32393 0.0
H412 H 0.5141 0.73923 0.27146 0.0
C413 C 0.41758 0.7633 0.33667 0.0
C414 C 0.72234 0.42154 0.17664 0.0
C415 C 0.68912 0.45985 0.18114 0.0
H416 H 0.78415 0.38445 0.2017 0.0
C417 C 0.69571 0.49326 0.21477 0.0
H418 H 0.7184 0.39553 0.15082 0.0
C419 C 0.73365 0.48687 0.24451 0.0
C420 C 0.7659 0.44726 0.24081 0.0
H421 H 0.67058 0.52321 0.21896 0.0
H422 H 0.73713 0.51234 0.27076 0.0
C423 C 0.76011 0.41527 0.20597 0.0
C424 C 0.98947 0.26807 0.7985 0.0
C425 C 0.95005 0.23558 0.80188 0.0
H426 H 0.02537 0.33105 0.82461 0.0
C427 C 0.91808 0.24069 0.83685 0.0
H428 H 0.01492 0.26512 0.77215 0.0
C429 C 0.92411 0.27812 0.86658 0.0
C430 C 0.96216 0.31167 0.86233 0.0
H431 H 0.88741 0.21641 0.84089 0.0
H432 H 0.89806 0.2816 0.89246 0.0
C433 C 0.99561 0.30567 0.82862 0.0
C434 C 0.30489 0.99242 0.70896 0.0
C435 C 0.31146 0.95882 0.67547 0.0
H436 H 0.2637 0.01176 0.76507 0.0
C437 C 0.27834 0.92039 0.67133 0.0
H438 H 0.32993 0.02247 0.71287 0.0
C439 C 0.24075 0.91419 0.70092 0.0
C440 C 0.23502 0.94639 0.73564 0.0
H441 H 0.28226 0.8942 0.64563 0.0
H442 H 0.21679 0.88328 0.69696 0.0
C443 C 0.26713 0.98613 0.73893 0.0
C444 C 0.57474 0.22592 0.86716 0.0
C445 C 0.53674 0.19244 0.86226 0.0
H446 H 0.61201 0.2877 0.84225 0.0
C447 C 0.5039 0.1987 0.82817 0.0
H448 H 0.60031 0.22224 0.89333 0.0
C449 C 0.51065 0.23648 0.79832 0.0
C450 C 0.55008 0.26886 0.80234 0.0
H451 H 0.47419 0.17338 0.82367 0.0
H452 H 0.4857 0.23963 0.77167 0.0
C453 C 0.58138 0.2635 0.83769 0.0
C454 C 0.23516 0.50637 0.74396 0.0
C455 C 0.268 0.54545 0.74018 0.0
H456 H 0.17212 0.47043 0.71797 0.0
C457 C 0.26365 0.57653 0.70455 0.0
H458 H 0.23753 0.48161 0.77081 0.0
C459 C 0.22654 0.57007 0.67461 0.0
C460 C 0.19254 0.5325 0.67929 0.0
H461 H 0.28826 0.60686 0.70016 0.0
H462 H 0.22362 0.59549 0.64824 0.0
C463 C 0.19785 0.49982 0.71363 0.0
C464 C 0.05001 0.58023 0.05626 0.0
C465 C 0.01194 0.58653 0.08588 0.0
H466 H 0.0745 0.54545 0.99874 0.0
C467 C 0.96749 0.56276 0.07825 0.0
H468 H 0.08485 0.5977 0.06124 0.0
C469 C 0.96181 0.53215 0.04275 0.0
C470 C 0.00033 0.52477 1.01381 0.0
H471 H 0.93751 0.56638 0.10053 0.0
H472 H 0.92731 0.51387 0.03827 0.0
C473 C 0.04421 0.54989 0.02058 0.0
C474 C 0.07842 0.94711 0.98058 0.0
C475 C 0.08451 0.98483 0.95065 0.0
H476 H 0.04413 0.92334 0.03856 0.0
C477 C 0.06086 0.0294 0.95813 0.0
H478 H 0.0958 0.9122 0.97573 0.0
C479 C 0.03056 0.03552 0.99382 0.0
C480 C 0.0234 0.99736 0.0231 0.0
H481 H 0.06432 0.05911 0.93559 0.0
H482 H 0.01235 0.07009 0.99818 0.0
C483 C 0.04842 0.95337 1.01646 0.0
C484 C 0.44735 0.92455 0.0562 0.0
C485 C 0.48531 0.91837 0.08588 0.0
H486 H 0.42311 0.95903 0.99851 0.0
C487 C 0.5298 0.94209 0.07822 0.0
H488 H 0.41248 0.90712 0.0612 0.0
C489 C 0.53562 0.97252 0.04262 0.0
C490 C 0.49722 0.97976 1.0136 0.0
H491 H 0.55969 0.93857 0.10056 0.0
H492 H 0.57015 0.99076 0.03812 0.0
C493 C 0.4533 0.95469 0.02041 0.0
C494 C 0.42127 0.54861 0.98677 0.0
C495 C 0.41552 0.51068 0.95699 0.0
H496 H 0.45537 0.57299 0.04459 0.0
C497 C 0.43948 0.46633 0.96465 0.0
H498 H 0.40365 0.58337 0.98178 0.0
C499 C 0.46978 0.46064 1.00033 0.0
C500 C 0.47667 0.49904 0.02942 0.0
H501 H 0.43628 0.43645 0.94226 0.0
H502 H 0.48824 0.42623 1.00481 0.0
C503 C 0.45132 0.5428 0.02263 0.0
C504 C 0.0369 0.03265 0.54222 0.0
C505 C 0.99844 0.02568 0.51322 0.0
H506 H 0.06115 0.06619 0.60028 0.0
C507 C 0.9546 0.05087 0.52019 0.0
H508 H 0.07137 0.0143 0.5376 0.0
C509 C 0.94878 0.08085 0.55612 0.0
C510 C 0.98679 0.08672 0.58579 0.0
H511 H 0.92435 0.04674 0.49832 0.0
H512 H 0.91396 0.09836 0.56124 0.0
C513 C 0.03121 0.06291 0.57796 0.0
C514 C 0.57941 0.04799 0.48135 0.0
C515 C 0.5854 0.01014 0.45151 0.0
H516 H 0.54512 0.07215 0.5392 0.0
C517 C 0.56162 0.96568 0.45911 0.0
H518 H 0.5969 0.08282 0.47642 0.0
C519 C 0.53131 0.9598 0.49482 0.0
C520 C 0.52421 0.99813 0.52398 0.0
H521 H 0.56501 0.93587 0.43666 0.0
H522 H 0.51301 0.92532 0.49928 0.0
C523 C 0.54934 0.04201 0.5172 0.0
C524 C 0.55248 0.42585 0.55743 0.0
C525 C 0.51469 0.4199 0.58737 0.0
H526 H 0.57648 0.46015 0.49954 0.0
C527 C 0.47028 0.44389 0.58004 0.0
H528 H 0.58729 0.40822 0.56218 0.0
C529 C 0.46435 0.47433 0.54447 0.0
C530 C 0.50257 0.48131 0.51515 0.0
H531 H 0.44052 0.44055 0.60258 0.0
H532 H 0.42988 0.49275 0.5402 0.0
C533 C 0.54642 0.45602 0.52167 0.0
C534 C 0.92443 0.44473 0.48469 0.0
C535 C 0.91805 0.48283 0.45517 0.0
H536 H 0.95934 0.42021 0.54209 0.0
C537 C 0.94194 0.52721 0.46276 0.0
H538 H 0.90688 0.40995 0.47972 0.0
C539 C 0.97272 0.53281 0.49813 0.0
C540 C 0.9801 0.49431 0.52702 0.0
H541 H 0.93829 0.5572 0.44054 0.0
H542 H 0.99106 0.56727 0.5026 0.0
C543 C 0.95489 0.45048 0.52028 0.0
loop_
_geom_bond_atom_site_label_1
_geom_bond_atom_site_label_2
_geom_bond_distance
_geom_bond_site_symmetry_2
_ccdc_geom_bond_type
O0 Cd1 2.223 . S
O0 C8 1.315 . S
Cd1 O0 2.223 . S
Cd1 O4 2.297 . S
Cd1 O5 2.439 1_655 S
Cd1 O11 2.240 1_655 S
Cd2 O3 2.240 . S
Cd2 O10 2.223 . S
Cd2 O12 2.297 . S
Cd2 O13 2.439 . S
O3 Cd2 2.240 . S
O3 C8 1.279 1_455 S
O4 Cd1 2.297 . S
O4 C6 1.247 . S
O5 Cd1 2.439 1_455 S
O5 C6 1.208 1_455 S
C6 O4 1.247 . S
C6 O5 1.208 1_655 S
C7 O12 1.247 . S
C7 O13 1.208 . S
C8 O0 1.315 . S
C8 O3 1.279 1_655 S
C9 O10 1.315 . S
C9 O11 1.279 . S
O10 Cd2 2.223 . S
O10 C9 1.315 . S
O11 Cd1 2.240 1_455 S
O11 C9 1.279 . S
O12 Cd2 2.297 . S
O12 C7 1.247 . S
O13 Cd2 2.439 . S
O13 C7 1.208 . S
O14 Cd15 2.223 . S
O14 C22 1.315 . S
Cd15 O14 2.223 . S
Cd15 O18 2.297 . S
Cd15 O19 2.439 1_565 S
Cd15 O25 2.240 1_565 S
Cd16 O17 2.240 . S
Cd16 O24 2.223 . S
Cd16 O26 2.297 . S
Cd16 O27 2.439 . S
O17 Cd16 2.240 . S
O17 C22 1.279 1_545 S
O18 Cd15 2.297 . S
O18 C20 1.247 . S
O19 Cd15 2.439 1_545 S
O19 C20 1.208 1_545 S
C20 O18 1.247 . S
C20 O19 1.208 1_565 S
C21 O26 1.247 . S
C21 O27 1.208 . S
C22 O14 1.315 . S
C22 O17 1.279 1_565 S
C23 O24 1.315 . S
C23 O25 1.279 . S
O24 Cd16 2.223 . S
O24 C23 1.315 . S
O25 Cd15 2.240 1_545 S
O25 C23 1.279 . S
O26 Cd16 2.297 . S
O26 C21 1.247 . S
O27 Cd16 2.439 . S
O27 C21 1.208 . S
O28 Cd29 2.223 . S
O28 C36 1.315 . S
Cd29 O28 2.223 . S
Cd29 O32 2.297 . S
Cd29 O33 2.439 . S
Cd29 O39 2.240 . S
Cd30 O31 2.240 . S
Cd30 O38 2.223 . S
Cd30 O40 2.297 . S
Cd30 O41 2.439 . S
O31 Cd30 2.240 . S
O31 C36 1.279 . S
O32 Cd29 2.297 . S
O32 C34 1.247 . S
O33 Cd29 2.439 . S
O33 C34 1.208 . S
C34 O32 1.247 . S
C34 O33 1.208 . S
C35 O40 1.247 . S
C35 O41 1.208 . S
C36 O28 1.315 . S
C36 O31 1.279 . S
C37 O38 1.315 . S
C37 O39 1.279 . S
O38 Cd30 2.223 . S
O38 C37 1.315 . S
O39 Cd29 2.240 . S
O39 C37 1.279 . S
O40 Cd30 2.297 . S
O40 C35 1.247 . S
O41 Cd30 2.439 . S
O41 C35 1.208 . S
O42 Cd43 2.223 . S
O42 C50 1.315 . S
Cd43 O42 2.223 . S
Cd43 O46 2.297 . S
Cd43 O47 2.439 . S
Cd43 O53 2.240 . S
Cd44 O45 2.240 . S
Cd44 O52 2.223 . S
Cd44 O54 2.297 . S
Cd44 O55 2.439 . S
O45 Cd44 2.240 . S
O45 C50 1.279 . S
O46 Cd43 2.297 . S
O46 C48 1.247 . S
O47 Cd43 2.439 . S
O47 C48 1.208 . S
C48 O46 1.247 . S
C48 O47 1.208 . S
C49 O54 1.247 . S
C49 O55 1.208 . S
C50 O42 1.315 . S
C50 O45 1.279 . S
C51 O52 1.315 . S
C51 O53 1.279 . S
O52 Cd44 2.223 . S
O52 C51 1.315 . S
O53 Cd43 2.240 . S
O53 C51 1.279 . S
O54 Cd44 2.297 . S
O54 C49 1.247 . S
O55 Cd44 2.439 . S
O55 C49 1.208 . S
O56 Cd57 2.223 . S
O56 C64 1.315 . S
Cd57 O56 2.223 . S
Cd57 O60 2.297 . S
Cd57 O61 2.439 1_655 S
Cd57 O67 2.240 1_655 S
Cd58 O59 2.240 . S
Cd58 O66 2.223 . S
Cd58 O68 2.297 . S
Cd58 O69 2.439 . S
O59 Cd58 2.240 . S
O59 C64 1.279 1_455 S
O60 Cd57 2.297 . S
O60 C62 1.247 . S
O61 Cd57 2.439 1_455 S
O61 C62 1.208 1_455 S
C62 O60 1.247 . S
C62 O61 1.208 1_655 S
C63 O68 1.247 . S
C63 O69 1.208 . S
C64 O56 1.315 . S
C64 O59 1.279 1_655 S
C65 O66 1.315 . S
C65 O67 1.279 . S
O66 Cd58 2.223 . S
O66 C65 1.315 . S
O67 Cd57 2.240 1_455 S
O67 C65 1.279 . S
O68 Cd58 2.297 . S
O68 C63 1.247 . S
O69 Cd58 2.439 . S
O69 C63 1.208 . S
O70 Cd71 2.223 . S
O70 C78 1.315 . S
Cd71 O70 2.223 . S
Cd71 O74 2.297 . S
Cd71 O75 2.439 1_565 S
Cd71 O81 2.240 1_565 S
Cd72 O73 2.240 . S
Cd72 O80 2.223 . S
Cd72 O82 2.297 . S
Cd72 O83 2.439 . S
O73 Cd72 2.240 . S
O73 C78 1.279 1_545 S
O74 Cd71 2.297 . S
O74 C76 1.247 . S
O75 Cd71 2.439 1_545 S
O75 C76 1.208 1_545 S
C76 O74 1.247 . S
C76 O75 1.208 1_565 S
C77 O82 1.247 . S
C77 O83 1.208 . S
C78 O70 1.315 . S
C78 O73 1.279 1_565 S
C79 O80 1.315 . S
C79 O81 1.279 . S
O80 Cd72 2.223 . S
O80 C79 1.315 . S
O81 Cd71 2.240 1_545 S
O81 C79 1.279 . S
O82 Cd72 2.297 . S
O82 C77 1.247 . S
O83 Cd72 2.439 . S
O83 C77 1.208 . S
O84 Cd85 2.223 . S
O84 C92 1.315 . S
Cd85 O84 2.223 . S
Cd85 O88 2.297 . S
Cd85 O89 2.439 . S
Cd85 O95 2.240 . S
Cd86 O87 2.240 . S
Cd86 O94 2.223 . S
Cd86 O96 2.297 . S
Cd86 O97 2.439 . S
O87 Cd86 2.240 . S
O87 C92 1.279 . S
O88 Cd85 2.297 . S
O88 C90 1.247 . S
O89 Cd85 2.439 . S
O89 C90 1.208 . S
C90 O88 1.247 . S
C90 O89 1.208 . S
C91 O96 1.247 . S
C91 O97 1.208 . S
C92 O84 1.315 . S
C92 O87 1.279 . S
C93 O94 1.315 . S
C93 O95 1.279 . S
O94 Cd86 2.223 . S
O94 C93 1.315 . S
O95 Cd85 2.240 . S
O95 C93 1.279 . S
O96 Cd86 2.297 . S
O96 C91 1.247 . S
O97 Cd86 2.439 . S
O97 C91 1.208 . S
O98 Cd99 2.223 . S
O98 C106 1.315 . S
Cd99 O98 2.223 . S
Cd99 O102 2.297 . S
Cd99 O103 2.439 . S
Cd99 O109 2.240 . S
Cd100 O101 2.240 . S
Cd100 O108 2.223 . S
Cd100 O110 2.297 . S
Cd100 O111 2.439 . S
O101 Cd100 2.240 . S
O101 C106 1.279 . S
O102 Cd99 2.297 . S
O102 C104 1.247 . S
O103 Cd99 2.439 . S
O103 C104 1.208 . S
C104 O102 1.247 . S
C104 O103 1.208 . S
C105 O110 1.247 . S
C105 O111 1.208 . S
C106 O98 1.315 . S
C106 O101 1.279 . S
C107 O108 1.315 . S
C107 O109 1.279 . S
O108 Cd100 2.223 . S
O108 C107 1.315 . S
O109 Cd99 2.240 . S
O109 C107 1.279 . S
O110 Cd100 2.297 . S
O110 C105 1.247 . S
O111 Cd100 2.439 . S
O111 C105 1.208 . S
O112 Cd113 2.223 . S
O112 C120 1.315 . S
Cd113 O112 2.223 . S
Cd113 O116 2.297 . S
Cd113 O117 2.439 1_455 S
Cd113 O123 2.240 1_455 S
Cd114 O115 2.240 . S
Cd114 O122 2.223 . S
Cd114 O124 2.297 . S
Cd114 O125 2.439 . S
O115 Cd114 2.240 . S
O115 C120 1.279 1_655 S
O116 Cd113 2.297 . S
O116 C118 1.247 . S
O117 Cd113 2.439 1_655 S
O117 C118 1.208 1_655 S
C118 O116 1.247 . S
C118 O117 1.208 1_455 S
C119 O124 1.247 . S
C119 O125 1.208 . S
C120 O112 1.315 . S
C120 O115 1.279 1_455 S
C121 O122 1.315 . S
C121 O123 1.279 . S
O122 Cd114 2.223 . S
O122 C121 1.315 . S
O123 Cd113 2.240 1_655 S
O123 C121 1.279 . S
O124 Cd114 2.297 . S
O124 C119 1.247 . S
O125 Cd114 2.439 . S
O125 C119 1.208 . S
O126 Cd127 2.223 . S
O126 C134 1.315 . S
Cd127 O126 2.223 . S
Cd127 O130 2.297 . S
Cd127 O131 2.439 1_545 S
Cd127 O137 2.240 1_545 S
Cd128 O129 2.240 . S
Cd128 O136 2.223 . S
Cd128 O138 2.297 . S
Cd128 O139 2.439 . S
O129 Cd128 2.240 . S
O129 C134 1.279 1_565 S
O130 Cd127 2.297 . S
O130 C132 1.247 . S
O131 Cd127 2.439 1_565 S
O131 C132 1.208 1_565 S
C132 O130 1.247 . S
C132 O131 1.208 1_545 S
C133 O138 1.247 . S
C133 O139 1.208 . S
C134 O126 1.315 . S
C134 O129 1.279 1_545 S
C135 O136 1.315 . S
C135 O137 1.279 . S
O136 Cd128 2.223 . S
O136 C135 1.315 . S
O137 Cd127 2.240 1_565 S
O137 C135 1.279 . S
O138 Cd128 2.297 . S
O138 C133 1.247 . S
O139 Cd128 2.439 . S
O139 C133 1.208 . S
O140 Cd141 2.223 . S
O140 C148 1.315 . S
Cd141 O140 2.223 . S
Cd141 O144 2.297 . S
Cd141 O145 2.439 . S
Cd141 O151 2.240 . S
Cd142 O143 2.240 . S
Cd142 O150 2.223 . S
Cd142 O152 2.297 . S
Cd142 O153 2.439 . S
O143 Cd142 2.240 . S
O143 C148 1.279 . S
O144 Cd141 2.297 . S
O144 C146 1.247 . S
O145 Cd141 2.439 . S
O145 C146 1.208 . S
C146 O144 1.247 . S
C146 O145 1.208 . S
C147 O152 1.247 . S
C147 O153 1.208 . S
C148 O140 1.315 . S
C148 O143 1.279 . S
C149 O150 1.315 . S
C149 O151 1.279 . S
O150 Cd142 2.223 . S
O150 C149 1.315 . S
O151 Cd141 2.240 . S
O151 C149 1.279 . S
O152 Cd142 2.297 . S
O152 C147 1.247 . S
O153 Cd142 2.439 . S
O153 C147 1.208 . S
O154 Cd155 2.223 . S
O154 C162 1.315 . S
Cd155 O154 2.223 . S
Cd155 O158 2.297 . S
Cd155 O159 2.439 . S
Cd155 O165 2.240 . S
Cd156 O157 2.240 . S
Cd156 O164 2.223 . S
Cd156 O166 2.297 . S
Cd156 O167 2.439 . S
O157 Cd156 2.240 . S
O157 C162 1.279 . S
O158 Cd155 2.297 . S
O158 C160 1.247 . S
O159 Cd155 2.439 . S
O159 C160 1.208 . S
C160 O158 1.247 . S
C160 O159 1.208 . S
C161 O166 1.247 . S
C161 O167 1.208 . S
C162 O154 1.315 . S
C162 O157 1.279 . S
C163 O164 1.315 . S
C163 O165 1.279 . S
O164 Cd156 2.223 . S
O164 C163 1.315 . S
O165 Cd155 2.240 . S
O165 C163 1.279 . S
O166 Cd156 2.297 . S
O166 C161 1.247 . S
O167 Cd156 2.439 . S
O167 C161 1.208 . S
O168 Cd169 2.223 . S
O168 C176 1.315 . S
Cd169 O168 2.223 . S
Cd169 O172 2.297 . S
Cd169 O173 2.439 1_455 S
Cd169 O179 2.240 1_455 S
Cd170 O171 2.240 . S
Cd170 O178 2.223 . S
Cd170 O180 2.297 . S
Cd170 O181 2.439 . S
O171 Cd170 2.240 . S
O171 C176 1.279 1_655 S
O172 Cd169 2.297 . S
O172 C174 1.247 . S
O173 Cd169 2.439 1_655 S
O173 C174 1.208 1_655 S
C174 O172 1.247 . S
C174 O173 1.208 1_455 S
C175 O180 1.247 . S
C175 O181 1.208 . S
C176 O168 1.315 . S
C176 O171 1.279 1_455 S
C177 O178 1.315 . S
C177 O179 1.279 . S
O178 Cd170 2.223 . S
O178 C177 1.315 . S
O179 Cd169 2.240 1_655 S
O179 C177 1.279 . S
O180 Cd170 2.297 . S
O180 C175 1.247 . S
O181 Cd170 2.439 . S
O181 C175 1.208 . S
O182 Cd183 2.223 . S
O182 C190 1.315 . S
Cd183 O182 2.223 . S
Cd183 O186 2.297 . S
Cd183 O187 2.439 1_545 S
Cd183 O193 2.240 1_545 S
Cd184 O185 2.240 . S
Cd184 O192 2.223 . S
Cd184 O194 2.297 . S
Cd184 O195 2.439 . S
O185 Cd184 2.240 . S
O185 C190 1.279 1_565 S
O186 Cd183 2.297 . S
O186 C188 1.247 . S
O187 Cd183 2.439 1_565 S
O187 C188 1.208 1_565 S
C188 O186 1.247 . S
C188 O187 1.208 1_545 S
C189 O194 1.247 . S
C189 O195 1.208 . S
C190 O182 1.315 . S
C190 O185 1.279 1_545 S
C191 O192 1.315 . S
C191 O193 1.279 . S
O192 Cd184 2.223 . S
O192 C191 1.315 . S
O193 Cd183 2.240 1_565 S
O193 C191 1.279 . S
O194 Cd184 2.297 . S
O194 C189 1.247 . S
O195 Cd184 2.439 . S
O195 C189 1.208 . S
O196 Cd197 2.223 . S
O196 C204 1.315 . S
Cd197 O196 2.223 . S
Cd197 O200 2.297 . S
Cd197 O201 2.439 . S
Cd197 O207 2.240 . S
Cd198 O199 2.240 . S
Cd198 O206 2.223 . S
Cd198 O208 2.297 . S
Cd198 O209 2.439 . S
O199 Cd198 2.240 . S
O199 C204 1.279 . S
O200 Cd197 2.297 . S
O200 C202 1.247 . S
O201 Cd197 2.439 . S
O201 C202 1.208 . S
C202 O200 1.247 . S
C202 O201 1.208 . S
C203 O208 1.247 . S
C203 O209 1.208 . S
C204 O196 1.315 . S
C204 O199 1.279 . S
C205 O206 1.315 . S
C205 O207 1.279 . S
O206 Cd198 2.223 . S
O206 C205 1.315 . S
O207 Cd197 2.240 . S
O207 C205 1.279 . S
O208 Cd198 2.297 . S
O208 C203 1.247 . S
O209 Cd198 2.439 . S
O209 C203 1.208 . S
O210 Cd211 2.223 . S
O210 C218 1.315 . S
Cd211 O210 2.223 . S
Cd211 O214 2.297 . S
Cd211 O215 2.439 . S
Cd211 O221 2.240 . S
Cd212 O213 2.240 . S
Cd212 O220 2.223 . S
Cd212 O222 2.297 . S
Cd212 O223 2.439 . S
O213 Cd212 2.240 . S
O213 C218 1.279 . S
O214 Cd211 2.297 . S
O214 C216 1.247 . S
O215 Cd211 2.439 . S
O215 C216 1.208 . S
C216 O214 1.247 . S
C216 O215 1.208 . S
C217 O222 1.247 . S
C217 O223 1.208 . S
C218 O210 1.315 . S
C218 O213 1.279 . S
C219 O220 1.315 . S
C219 O221 1.279 . S
O220 Cd212 2.223 . S
O220 C219 1.315 . S
O221 Cd211 2.240 . S
O221 C219 1.279 . S
O222 Cd212 2.297 . S
O222 C217 1.247 . S
O223 Cd212 2.439 . S
O223 C217 1.208 . S
C224 C225 1.387 . S
C224 H228 0.950 . S
C224 C233 1.390 . S
C225 C224 1.387 . S
C225 C227 1.387 . S
H226 C233 0.950 . S
C227 C225 1.387 . S
C227 C229 1.390 . S
C227 H231 0.950 . S
H228 C224 0.950 . S
C229 C227 1.390 . S
C229 C230 1.387 . S
C229 H232 0.950 . S
C230 C229 1.387 . S
C230 C233 1.387 . S
H231 C227 0.950 . S
H232 C229 0.950 . S
C233 C224 1.390 . S
C233 H226 0.950 . S
C233 C230 1.387 . S
C234 C235 1.387 . S
C234 H238 0.950 . S
C234 C243 1.390 . S
C235 C234 1.387 . S
C235 C237 1.387 . S
H236 C243 0.950 . S
C237 C235 1.387 . S
C237 C239 1.390 . S
C237 H241 0.950 . S
H238 C234 0.950 . S
C239 C237 1.390 . S
C239 C240 1.387 . S
C239 H242 0.950 . S
C240 C239 1.387 . S
C240 C243 1.387 . S
H241 C237 0.950 . S
H242 C239 0.950 . S
C243 C234 1.390 . S
C243 H236 0.950 . S
C243 C240 1.387 . S
C244 C245 1.387 . S
C244 H248 0.950 . S
C244 C253 1.390 . S
C245 C244 1.387 . S
C245 C247 1.387 . S
H246 C253 0.950 . S
C247 C245 1.387 . S
C247 C249 1.390 . S
C247 H251 0.950 . S
H248 C244 0.950 . S
C249 C247 1.390 . S
C249 C250 1.387 . S
C249 H252 0.950 . S
C250 C249 1.387 . S
C250 C253 1.387 . S
H251 C247 0.950 . S
H252 C249 0.950 . S
C253 C244 1.390 . S
C253 H246 0.950 . S
C253 C250 1.387 . S
C254 C255 1.387 . S
C254 H258 0.950 . S
C254 C263 1.390 . S
C255 C254 1.387 . S
C255 C257 1.387 . S
H256 C263 0.950 . S
C257 C255 1.387 . S
C257 C259 1.390 . S
C257 H261 0.950 . S
H258 C254 0.950 . S
C259 C257 1.390 . S
C259 C260 1.387 . S
C259 H262 0.950 . S
C260 C259 1.387 . S
C260 C263 1.387 . S
H261 C257 0.950 . S
H262 C259 0.950 . S
C263 C254 1.390 . S
C263 H256 0.950 . S
C263 C260 1.387 . S
C264 C265 1.387 . S
C264 H268 0.950 . S
C264 C273 1.390 . S
C265 C264 1.387 . S
C265 C267 1.387 . S
H266 C273 0.950 . S
C267 C265 1.387 . S
C267 C269 1.390 . S
C267 H271 0.950 . S
H268 C264 0.950 . S
C269 C267 1.390 . S
C269 C270 1.387 . S
C269 H272 0.950 . S
C270 C269 1.387 . S
C270 C273 1.387 . S
H271 C267 0.950 . S
H272 C269 0.950 . S
C273 C264 1.390 . S
C273 H266 0.950 . S
C273 C270 1.387 . S
C274 C275 1.387 . S
C274 H278 0.950 . S
C274 C283 1.390 . S
C275 C274 1.387 . S
C275 C277 1.387 . S
H276 C283 0.950 . S
C277 C275 1.387 . S
C277 C279 1.390 . S
C277 H281 0.950 . S
H278 C274 0.950 . S
C279 C277 1.390 . S
C279 C280 1.387 . S
C279 H282 0.950 . S
C280 C279 1.387 . S
C280 C283 1.387 . S
H281 C277 0.950 . S
H282 C279 0.950 . S
C283 C274 1.390 . S
C283 H276 0.950 . S
C283 C280 1.387 . S
C284 C285 1.387 . S
C284 H288 0.950 . S
C284 C293 1.390 . S
C285 C284 1.387 . S
C285 C287 1.387 . S
H286 C293 0.950 . S
C287 C285 1.387 . S
C287 C289 1.390 . S
C287 H291 0.950 . S
H288 C284 0.950 . S
C289 C287 1.390 . S
C289 C290 1.387 . S
C289 H292 0.950 . S
C290 C289 1.387 . S
C290 C293 1.387 . S
H291 C287 0.950 . S
H292 C289 0.950 . S
C293 C284 1.390 . S
C293 H286 0.950 . S
C293 C290 1.387 . S
C294 C295 1.387 . S
C294 H298 0.950 . S
C294 C303 1.390 . S
C295 C294 1.387 . S
C295 C297 1.387 . S
H296 C303 0.950 . S
C297 C295 1.387 . S
C297 C299 1.390 . S
C297 H301 0.950 . S
H298 C294 0.950 . S
C299 C297 1.390 . S
C299 C300 1.387 . S
C299 H302 0.950 . S
C300 C299 1.387 . S
C300 C303 1.387 . S
H301 C297 0.950 . S
H302 C299 0.950 . S
C303 C294 1.390 . S
C303 H296 0.950 . S
C303 C300 1.387 . S
C304 C305 1.387 . S
C304 H308 0.950 . S
C304 C313 1.390 . S
C305 C304 1.387 . S
C305 C307 1.387 . S
H306 C313 0.950 . S
C307 C305 1.387 . S
C307 C309 1.390 . S
C307 H311 0.950 . S
H308 C304 0.950 . S
C309 C307 1.390 . S
C309 C310 1.387 . S
C309 H312 0.950 1_655 S
C310 C309 1.387 . S
C310 C313 1.387 . S
H311 C307 0.950 . S
H312 C309 0.950 1_455 S
C313 C304 1.390 . S
C313 H306 0.950 . S
C313 C310 1.387 . S
C314 C315 1.387 . S
C314 H318 0.950 . S
C314 C323 1.390 . S
C315 C314 1.387 . S
C315 C317 1.387 . S
H316 C323 0.950 . S
C317 C315 1.387 . S
C317 C319 1.390 . S
C317 H321 0.950 . S
H318 C314 0.950 . S
C319 C317 1.390 . S
C319 C320 1.387 . S
C319 H322 0.950 1_655 S
C320 C319 1.387 . S
C320 C323 1.387 . S
H321 C317 0.950 . S
H322 C319 0.950 1_455 S
C323 C314 1.390 . S
C323 H316 0.950 . S
C323 C320 1.387 . S
C324 C325 1.387 . S
C324 H328 0.950 1_565 S
C324 C333 1.390 . S
C325 C324 1.387 . S
C325 C327 1.387 . S
H326 C333 0.950 . S
C327 C325 1.387 . S
C327 C329 1.390 . S
C327 H331 0.950 . S
H328 C324 0.950 1_545 S
C329 C327 1.390 . S
C329 C330 1.387 . S
C329 H332 0.950 . S
C330 C329 1.387 . S
C330 C333 1.387 . S
H331 C327 0.950 . S
H332 C329 0.950 . S
C333 C324 1.390 . S
C333 H326 0.950 . S
C333 C330 1.387 . S
C334 C335 1.387 . S
C334 H338 0.950 . S
C334 C343 1.390 . S
C335 C334 1.387 . S
C335 C337 1.387 . S
H336 C343 0.950 . S
C337 C335 1.387 . S
C337 C339 1.390 . S
C337 H341 0.950 . S
H338 C334 0.950 . S
C339 C337 1.390 . S
C339 C340 1.387 . S
C339 H342 0.950 . S
C340 C339 1.387 . S
C340 C343 1.387 . S
H341 C337 0.950 . S
H342 C339 0.950 . S
C343 C334 1.390 . S
C343 H336 0.950 . S
C343 C340 1.387 . S
C344 C345 1.387 . S
C344 H348 0.950 . S
C344 C353 1.390 . S
C345 C344 1.387 . S
C345 C347 1.387 . S
H346 C353 0.950 . S
C347 C345 1.387 . S
C347 C349 1.390 . S
C347 H351 0.950 . S
H348 C344 0.950 . S
C349 C347 1.390 . S
C349 C350 1.387 . S
C349 H352 0.950 . S
C350 C349 1.387 . S
C350 C353 1.387 . S
H351 C347 0.950 . S
H352 C349 0.950 . S
C353 C344 1.390 . S
C353 H346 0.950 . S
C353 C350 1.387 . S
C354 C355 1.387 . S
C354 H358 0.950 . S
C354 C363 1.390 . S
C355 C354 1.387 . S
C355 C357 1.387 . S
H356 C363 0.950 . S
C357 C355 1.387 . S
C357 C359 1.390 . S
C357 H361 0.950 1_545 S
H358 C354 0.950 . S
C359 C357 1.390 . S
C359 C360 1.387 . S
C359 H362 0.950 . S
C360 C359 1.387 . S
C360 C363 1.387 . S
H361 C357 0.950 1_565 S
H362 C359 0.950 . S
C363 C354 1.390 . S
C363 H356 0.950 . S
C363 C360 1.387 . S
C364 C365 1.387 . S
C364 H368 0.950 . S
C364 C373 1.390 . S
C365 C364 1.387 . S
C365 C367 1.387 . S
H366 C373 0.950 . S
C367 C365 1.387 . S
C367 C369 1.390 . S
C367 H371 0.950 . S
H368 C364 0.950 . S
C369 C367 1.390 . S
C369 C370 1.387 . S
C369 H372 0.950 . S
C370 C369 1.387 . S
C370 C373 1.387 . S
H371 C367 0.950 . S
H372 C369 0.950 . S
C373 C364 1.390 . S
C373 H366 0.950 . S
C373 C370 1.387 . S
C374 C375 1.387 . S
C374 H378 0.950 . S
C374 C383 1.390 . S
C375 C374 1.387 . S
C375 C377 1.387 . S
H376 C383 0.950 . S
C377 C375 1.387 . S
C377 C379 1.390 . S
C377 H381 0.950 . S
H378 C374 0.950 . S
C379 C377 1.390 . S
C379 C380 1.387 . S
C379 H382 0.950 . S
C380 C379 1.387 . S
C380 C383 1.387 . S
H381 C377 0.950 . S
H382 C379 0.950 . S
C383 C374 1.390 . S
C383 H376 0.950 . S
C383 C380 1.387 . S
C384 C385 1.387 1_655 S
C384 H388 0.950 . S
C384 C393 1.390 . S
C385 C384 1.387 1_455 S
C385 C387 1.387 . S
H386 C393 0.950 . S
C387 C385 1.387 . S
C387 C389 1.390 . S
C387 H391 0.950 . S
H388 C384 0.950 . S
C389 C387 1.390 . S
C389 C390 1.387 . S
C389 H392 0.950 . S
C390 C389 1.387 . S
C390 C393 1.387 1_455 S
H391 C387 0.950 . S
H392 C389 0.950 . S
C393 C384 1.390 . S
C393 H386 0.950 . S
C393 C390 1.387 1_655 S
C394 C395 1.387 1_565 S
C394 H398 0.950 . S
C394 C403 1.390 . S
C395 C394 1.387 1_545 S
C395 C397 1.387 . S
H396 C403 0.950 . S
C397 C395 1.387 . S
C397 C399 1.390 . S
C397 H401 0.950 . S
H398 C394 0.950 . S
C399 C397 1.390 . S
C399 C400 1.387 . S
C399 H402 0.950 . S
C400 C399 1.387 . S
C400 C403 1.387 1_545 S
H401 C397 0.950 . S
H402 C399 0.950 . S
C403 C394 1.390 . S
C403 H396 0.950 . S
C403 C400 1.387 1_565 S
C404 C405 1.387 . S
C404 H408 0.950 . S
C404 C413 1.390 . S
C405 C404 1.387 . S
C405 C407 1.387 . S
H406 C413 0.950 . S
C407 C405 1.387 . S
C407 C409 1.390 . S
C407 H411 0.950 . S
H408 C404 0.950 . S
C409 C407 1.390 . S
C409 C410 1.387 . S
C409 H412 0.950 . S
C410 C409 1.387 . S
C410 C413 1.387 . S
H411 C407 0.950 . S
H412 C409 0.950 . S
C413 C404 1.390 . S
C413 H406 0.950 . S
C413 C410 1.387 . S
C414 C415 1.387 . S
C414 H418 0.950 . S
C414 C423 1.390 . S
C415 C414 1.387 . S
C415 C417 1.387 . S
H416 C423 0.950 . S
C417 C415 1.387 . S
C417 C419 1.390 . S
C417 H421 0.950 . S
H418 C414 0.950 . S
C419 C417 1.390 . S
C419 C420 1.387 . S
C419 H422 0.950 . S
C420 C419 1.387 . S
C420 C423 1.387 . S
H421 C417 0.950 . S
H422 C419 0.950 . S
C423 C414 1.390 . S
C423 H416 0.950 . S
C423 C420 1.387 . S
C424 C425 1.387 1_455 S
C424 H428 0.950 . S
C424 C433 1.390 . S
C425 C424 1.387 1_655 S
C425 C427 1.387 . S
H426 C433 0.950 . S
C427 C425 1.387 . S
C427 C429 1.390 . S
C427 H431 0.950 . S
H428 C424 0.950 . S
C429 C427 1.390 . S
C429 C430 1.387 . S
C429 H432 0.950 . S
C430 C429 1.387 . S
C430 C433 1.387 1_655 S
H431 C427 0.950 . S
H432 C429 0.950 . S
C433 C424 1.390 . S
C433 H426 0.950 . S
C433 C430 1.387 1_455 S
C434 C435 1.387 1_545 S
C434 H438 0.950 . S
C434 C443 1.390 . S
C435 C434 1.387 1_565 S
C435 C437 1.387 . S
H436 C443 0.950 . S
C437 C435 1.387 . S
C437 C439 1.390 . S
C437 H441 0.950 . S
H438 C434 0.950 . S
C439 C437 1.390 . S
C439 C440 1.387 . S
C439 H442 0.950 . S
C440 C439 1.387 . S
C440 C443 1.387 1_565 S
H441 C437 0.950 . S
H442 C439 0.950 . S
C443 C434 1.390 . S
C443 H436 0.950 . S
C443 C440 1.387 1_545 S
C444 C445 1.387 . S
C444 H448 0.950 . S
C444 C453 1.390 . S
C445 C444 1.387 . S
C445 C447 1.387 . S
H446 C453 0.950 . S
C447 C445 1.387 . S
C447 C449 1.390 . S
C447 H451 0.950 . S
H448 C444 0.950 . S
C449 C447 1.390 . S
C449 C450 1.387 . S
C449 H452 0.950 . S
C450 C449 1.387 . S
C450 C453 1.387 . S
H451 C447 0.950 . S
H452 C449 0.950 . S
C453 C444 1.390 . S
C453 H446 0.950 . S
C453 C450 1.387 . S
C454 C455 1.387 . S
C454 H458 0.950 . S
C454 C463 1.390 . S
C455 C454 1.387 . S
C455 C457 1.387 . S
H456 C463 0.950 . S
C457 C455 1.387 . S
C457 C459 1.390 . S
C457 H461 0.950 . S
H458 C454 0.950 . S
C459 C457 1.390 . S
C459 C460 1.387 . S
C459 H462 0.950 . S
C460 C459 1.387 . S
C460 C463 1.387 . S
H461 C457 0.950 . S
H462 C459 0.950 . S
C463 C454 1.390 . S
C463 H456 0.950 . S
C463 C460 1.387 . S
C464 C465 1.387 1_455 S
C464 H468 0.950 . S
C464 C473 1.390 . S
C465 C464 1.387 1_655 S
C465 C467 1.387 1_554 S
H466 C473 0.950 . S
C467 C465 1.387 1_556 S
C467 C469 1.390 . S
C467 H471 0.950 . S
H468 C464 0.950 . S
C469 C467 1.390 . S
C469 C470 1.387 1_655 S
C469 H472 0.950 . S
C470 C469 1.387 1_455 S
C470 C473 1.387 1_556 S
H471 C467 0.950 . S
H472 C469 0.950 . S
C473 C464 1.390 . S
C473 H466 0.950 . S
C473 C470 1.387 1_554 S
C474 C475 1.387 1_565 S
C474 H478 0.950 . S
C474 C483 1.390 1_456 S
C475 C474 1.387 1_545 S
C475 C477 1.387 . S
H476 C483 0.950 . S
C477 C475 1.387 . S
C477 C479 1.390 1_456 S
C477 H481 0.950 . S
H478 C474 0.950 . S
C479 C477 1.390 1_654 S
C479 C480 1.387 1_545 S
C479 H482 0.950 . S
C480 C479 1.387 1_565 S
C480 C483 1.387 . S
H481 C477 0.950 . S
H482 C479 0.950 . S
C483 C474 1.390 1_654 S
C483 H476 0.950 . S
C483 C480 1.387 . S
C484 C485 1.387 . S
C484 H488 0.950 . S
C484 C493 1.390 1_565 S
C485 C484 1.387 . S
C485 C487 1.387 1_554 S
H486 C493 0.950 . S
C487 C485 1.387 1_556 S
C487 C489 1.390 1_565 S
C487 H491 0.950 . S
H488 C484 0.950 . S
C489 C487 1.390 1_545 S
C489 C490 1.387 . S
C489 H492 0.950 . S
C490 C489 1.387 . S
C490 C493 1.387 1_556 S
H491 C487 0.950 . S
H492 C489 0.950 . S
C493 C484 1.390 1_545 S
C493 H486 0.950 . S
C493 C490 1.387 1_554 S
C494 C495 1.387 . S
C494 H498 0.950 . S
C494 C503 1.396 . S
C495 C494 1.387 . S
C495 C497 1.382 1_556 S
H496 C503 0.950 . S
C497 C495 1.382 1_554 S
C497 C499 1.396 . S
C497 H501 0.950 . S
H498 C494 0.950 . S
C499 C497 1.396 . S
C499 C500 1.387 . S
C499 H502 0.950 . S
C500 C499 1.387 . S
C500 C503 1.382 1_554 S
H501 C497 0.950 . S
H502 C499 0.950 . S
C503 C494 1.396 . S
C503 H496 0.950 . S
C503 C500 1.382 1_556 S
C504 C505 1.387 1_455 S
C504 H508 0.950 . S
C504 C513 1.390 1_565 S
C505 C504 1.387 1_655 S
C505 C507 1.387 . S
H506 C513 0.950 . S
C507 C505 1.387 . S
C507 C509 1.390 1_565 S
C507 H511 0.950 . S
H508 C504 0.950 . S
C509 C507 1.390 1_545 S
C509 C510 1.387 1_655 S
C509 H512 0.950 . S
C510 C509 1.387 1_455 S
C510 C513 1.387 . S
H511 C507 0.950 . S
H512 C509 0.950 . S
C513 C504 1.390 1_545 S
C513 H506 0.950 . S
C513 C510 1.387 . S
C514 C515 1.387 1_545 S
C514 H518 0.950 . S
C514 C523 1.390 . S
C515 C514 1.387 1_565 S
C515 C517 1.387 . S
H516 C523 0.950 . S
C517 C515 1.387 . S
C517 C519 1.390 . S
C517 H521 0.950 . S
H518 C514 0.950 . S
C519 C517 1.390 . S
C519 C520 1.387 1_565 S
C519 H522 0.950 . S
C520 C519 1.387 1_545 S
C520 C523 1.387 . S
H521 C517 0.950 . S
H522 C519 0.950 . S
C523 C514 1.390 . S
C523 H516 0.950 . S
C523 C520 1.387 . S
C524 C525 1.387 . S
C524 H528 0.950 . S
C524 C533 1.390 . S
C525 C524 1.387 . S
C525 C527 1.387 . S
H526 C533 0.950 . S
C527 C525 1.387 . S
C527 C529 1.390 . S
C527 H531 0.950 . S
H528 C524 0.950 . S
C529 C527 1.390 . S
C529 C530 1.387 . S
C529 H532 0.950 . S
C530 C529 1.387 . S
C530 C533 1.387 . S
H531 C527 0.950 . S
H532 C529 0.950 . S
C533 C524 1.390 . S
C533 H526 0.950 . S
C533 C530 1.387 . S
C534 C535 1.387 . S
C534 H538 0.950 . S
C534 C543 1.390 1_655 S
C535 C534 1.387 . S
C535 C537 1.387 . S
H536 C543 0.950 . S
C537 C535 1.387 . S
C537 C539 1.390 1_655 S
C537 H541 0.950 . S
H538 C534 0.950 . S
C539 C537 1.390 1_455 S
C539 C540 1.387 . S
C539 H542 0.950 . S
C540 C539 1.387 . S
C540 C543 1.387 . S
H541 C537 0.950 . S
H542 C539 0.950 . S
C543 C534 1.390 1_455 S
C543 H536 0.950 . S
C543 C540 1.387 . S
C225 C7 1.537 . S
C230 C35 1.537 . S
C235 C21 1.537 . S
C240 C49 1.537 . S
C245 C63 1.537 . S
C250 C91 1.537 . S
C255 C105 1.537 . S
C260 C77 1.537 . S
C265 C119 1.537 . S
C270 C147 1.537 . S
C275 C161 1.537 . S
C280 C133 1.537 . S
C285 C203 1.537 . S
C290 C175 1.537 . S
C295 C217 1.537 . S
C300 C189 1.537 . S
C305 C106 1.604 . S
C310 C8 1.604 . S
C315 C22 1.605 . S
C320 C64 1.603 . S
C325 C78 1.604 . S
C330 C36 1.603 . S
C335 C50 1.604 . S
C340 C92 1.605 . S
C345 C218 1.604 . S
C350 C120 1.603 . S
C355 C134 1.604 . S
C360 C176 1.603 . S
C365 C148 1.605 . S
C370 C190 1.603 . S
C375 C204 1.605 . S
C380 C162 1.604 . S
C385 C9 1.146 . S
C390 C65 1.146 . S
C395 C23 1.146 . S
C400 C79 1.146 . S
C405 C93 1.146 . S
C410 C37 1.146 . S
C415 C51 1.146 . S
C420 C107 1.146 . S
C425 C177 1.140 . S
C430 C121 1.140 . S
C435 C191 1.140 . S
C440 C135 1.140 . S
C445 C149 1.146 . S
C450 C205 1.146 . S
C455 C163 1.140 . S
C460 C219 1.140 . S
C465 C6 1.907 . S
C470 C118 1.907 . S
C475 C132 1.904 . S
C480 C20 1.904 . S
C485 C34 1.906 . S
C490 C146 1.906 . S
C495 C160 1.904 . S
C500 C48 1.904 . S
C505 C62 1.906 . S
C510 C174 1.906 . S
C515 C76 1.907 . S
C520 C188 1.907 . S
C525 C202 1.904 . S
C530 C90 1.904 . S
C535 C104 1.907 . S
C540 C216 1.907 . S
