# Generated by pormake.
# Topology umz, (4)-cn, num edge types: 1
# Building blocks:
#     Node 0, Type 0, BuildingBlock: AZAVOO_clean_sbu_0, # of connection points: 4
#     Node 1, Type 0, BuildingBlock: AZAVOO_clean_sbu_0, # of connection points: 4
#     Node 2, Type 0, BuildingBlock: AZAVOO_clean_sbu_0, # of connection points: 4
#     Node 3, Type 0, BuildingBlock: AZAVOO_clean_sbu_0, # of connection points: 4
#     Node 4, Type 0, BuildingBlock: AZAVOO_clean_sbu_0, # of connection points: 4
#     Node 5, Type 0, BuildingBlock: AZAVOO_clean_sbu_0, # of connection points: 4
#     Node 6, Type 0, BuildingBlock: AZAVOO_clean_sbu_0, # of connection points: 4
#     Node 7, Type 0, BuildingBlock: AZAVOO_clean_sbu_0, # of connection points: 4
#     Node 8, Type 0, BuildingBlock: AZAVOO_clean_sbu_0, # of connection points: 4
#     Node 9, Type 0, BuildingBlock: AZAVOO_clean_sbu_0, # of connection points: 4
#     Node 10, Type 0, BuildingBlock: AZAVOO_clean_sbu_0, # of connection points: 4
#     Node 11, Type 0, BuildingBlock: AZAVOO_clean_sbu_0, # of connection points: 4
#     Node 12, Type 0, BuildingBlock: AZAVOO_clean_sbu_0, # of connection points: 4
#     Node 13, Type 0, BuildingBlock: AZAVOO_clean_sbu_0, # of connection points: 4
#     Node 14, Type 0, BuildingBlock: AZAVOO_clean_sbu_0, # of connection points: 4
#     Node 15, Type 0, BuildingBlock: AZAVOO_clean_sbu_0, # of connection points: 4
#     Edge 16, Type (0, 0), BuildingBlock: KIFKEQ_clean_linker_1, # of connection points: 2
#     Edge 17, Type (0, 0), BuildingBlock: KIFKEQ_clean_linker_1, # of connection points: 2
#     Edge 18, Type (0, 0), BuildingBlock: KIFKEQ_clean_linker_1, # of connection points: 2
#     Edge 19, Type (0, 0), BuildingBlock: KIFKEQ_clean_linker_1, # of connection points: 2
#     Edge 20, Type (0, 0), BuildingBlock: KIFKEQ_clean_linker_1, # of connection points: 2
#     Edge 21, Type (0, 0), BuildingBlock: KIFKEQ_clean_linker_1, # of connection points: 2
#     Edge 22, Type (0, 0), BuildingBlock: KIFKEQ_clean_linker_1, # of connection points: 2
#     Edge 23, Type (0, 0), BuildingBlock: KIFKEQ_clean_linker_1, # of connection points: 2
#     Edge 24, Type (0, 0), BuildingBlock: KIFKEQ_clean_linker_1, # of connection points: 2
#     Edge 25, Type (0, 0), BuildingBlock: KIFKEQ_clean_linker_1, # of connection points: 2
#     Edge 26, Type (0, 0), BuildingBlock: KIFKEQ_clean_linker_1, # of connection points: 2
#     Edge 27, Type (0, 0), BuildingBlock: KIFKEQ_clean_linker_1, # of connection points: 2
#     Edge 28, Type (0, 0), BuildingBlock: KIFKEQ_clean_linker_1, # of connection points: 2
#     Edge 29, Type (0, 0), BuildingBlock: KIFKEQ_clean_linker_1, # of connection points: 2
#     Edge 30, Type (0, 0), BuildingBlock: KIFKEQ_clean_linker_1, # of connection points: 2
#     Edge 31, Type (0, 0), BuildingBlock: KIFKEQ_clean_linker_1, # of connection points: 2
#     Edge 32, Type (0, 0), BuildingBlock: KIFKEQ_clean_linker_1, # of connection points: 2
#     Edge 33, Type (0, 0), BuildingBlock: KIFKEQ_clean_linker_1, # of connection points: 2
#     Edge 34, Type (0, 0), BuildingBlock: KIFKEQ_clean_linker_1, # of connection points: 2
#     Edge 35, Type (0, 0), BuildingBlock: KIFKEQ_clean_linker_1, # of connection points: 2
#     Edge 36, Type (0, 0), BuildingBlock: KIFKEQ_clean_linker_1, # of connection points: 2
#     Edge 37, Type (0, 0), BuildingBlock: KIFKEQ_clean_linker_1, # of connection points: 2
#     Edge 38, Type (0, 0), BuildingBlock: KIFKEQ_clean_linker_1, # of connection points: 2
#     Edge 39, Type (0, 0), BuildingBlock: KIFKEQ_clean_linker_1, # of connection points: 2
#     Edge 40, Type (0, 0), BuildingBlock: KIFKEQ_clean_linker_1, # of connection points: 2
#     Edge 41, Type (0, 0), BuildingBlock: KIFKEQ_clean_linker_1, # of connection points: 2
#     Edge 42, Type (0, 0), BuildingBlock: KIFKEQ_clean_linker_1, # of connection points: 2
#     Edge 43, Type (0, 0), BuildingBlock: KIFKEQ_clean_linker_1, # of connection points: 2
#     Edge 44, Type (0, 0), BuildingBlock: KIFKEQ_clean_linker_1, # of connection points: 2
#     Edge 45, Type (0, 0), BuildingBlock: KIFKEQ_clean_linker_1, # of connection points: 2
#     Edge 46, Type (0, 0), BuildingBlock: KIFKEQ_clean_linker_1, # of connection points: 2
#     Edge 47, Type (0, 0), BuildingBlock: KIFKEQ_clean_linker_1, # of connection points: 2
# Relax obj value: 0.268
# Max RMSD: 0.180
# Mean RMSD: 0.180
data_MOF--net-umz--node1-AZAVOO_clean_sbu_0--edge1-KIFKEQ_clean_linker_1
_symmetry_space_group_name_H-M    P1
_symmetry_Int_Tables_number       1
_symmetry_cell_setting            triclinic
loop_
_symmetry_equiv_pos_as_xyz
'x, y, z'
_cell_length_a     61.894938
_cell_length_b     61.86442
_cell_length_c     20.688578
_cell_angle_alpha  90.055582
_cell_angle_beta   90.024735
_cell_angle_gamma 90.046767
loop_
_atom_site_label
_atom_site_type_symbol
_atom_site_fract_x
_atom_site_fract_y
_atom_site_fract_z
_atom_type_partial_charge
Mg0 Mg 0.98841 0.62259 0.96719 0.0
O1 O 0.0133 0.61224 0.04256 0.0
O2 O 0.04653 0.62227 0.014 0.0
Mg3 Mg 0.04263 0.64063 0.91834 0.0
C4 C 0.03357 0.61288 0.05288 0.0
C5 C 0.96387 0.59466 0.06572 0.0
O6 O 0.97896 0.58166 0.04378 0.0
O7 O 0.98962 0.65807 1.00077 0.0
O8 O 0.02294 0.66715 0.96831 0.0
O9 O 0.99574 0.59203 0.91246 0.0
O10 O 0.01246 0.62307 0.89595 0.0
C11 C 0.00491 0.67186 0.99481 0.0
C12 C 0.01073 0.60282 0.88311 0.0
O13 O 0.96222 0.61348 0.04138 0.0
Mg14 Mg 0.87338 0.99075 0.46113 0.0
O15 O 0.88474 0.01664 0.53243 0.0
O16 O 0.87784 0.04936 0.49258 0.0
Mg17 Mg 0.85937 0.04424 0.39755 0.0
C18 C 0.8858 0.03717 0.53626 0.0
C19 C 0.896 0.95464 0.54371 0.0
O20 O 0.90974 0.95578 0.49545 0.0
O21 O 0.83783 0.99489 0.48935 0.0
O22 O 0.83086 0.02765 0.44841 0.0
O23 O 0.90502 0.99496 0.4082 0.0
O24 O 0.87506 0.01258 0.38454 0.0
C25 C 0.8249 0.01055 0.47809 0.0
C26 C 0.89525 0.00953 0.37409 0.0
O27 O 0.87907 0.96625 0.54215 0.0
Mg28 Mg 0.51024 0.87609 0.94623 0.0
O29 O 0.48668 0.88845 0.02267 0.0
O30 O 0.45292 0.87934 0.99736 0.0
Mg31 Mg 0.45503 0.86001 0.90265 0.0
C32 C 0.4665 0.88869 0.03446 0.0
C33 C 0.53728 0.90384 0.0388 0.0
O34 O 0.52373 0.91771 0.01299 0.0
O35 O 0.5079 0.84097 0.98182 0.0
O36 O 0.47415 0.83279 0.95126 0.0
O37 O 0.50378 0.90641 0.88928 0.0
O38 O 0.48573 0.87593 0.87634 0.0
C39 C 0.49222 0.82759 0.97674 0.0
C40 C 0.48825 0.89591 0.86141 0.0
O41 O 0.53706 0.8844 0.01867 0.0
Mg42 Mg 0.62328 0.51633 0.41749 0.0
O43 O 0.60872 0.4898 0.48019 0.0
O44 O 0.61557 0.45726 0.43906 0.0
Mg45 Mg 0.6374 0.46299 0.35105 0.0
C46 C 0.60671 0.46934 0.48146 0.0
C47 C 0.59461 0.53885 0.51777 0.0
O48 O 0.58102 0.52732 0.48315 0.0
O49 O 0.65749 0.51021 0.4582 0.0
O50 O 0.66411 0.47816 0.41235 0.0
O51 O 0.59389 0.51409 0.3519 0.0
O52 O 0.62379 0.49553 0.33731 0.0
C53 C 0.67003 0.49417 0.44715 0.0
C54 C 0.60432 0.49949 0.31978 0.0
O55 O 0.61437 0.53932 0.50078 0.0
Mg56 Mg 0.98665 0.88187 0.0627 0.0
O57 O 0.01448 0.89259 0.9988 0.0
O58 O 0.04635 0.88443 0.04208 0.0
Mg59 Mg 0.03819 0.8648 0.13328 0.0
C60 C 0.03502 0.89311 0.99758 0.0
C61 C 0.94604 0.88769 0.96197 0.0
O62 O 0.9336 0.87721 0.00275 0.0
O63 O 0.98972 0.84656 0.02976 0.0
O64 O 0.02154 0.838 0.07454 0.0
O65 O 0.99138 0.91253 0.11984 0.0
O66 O 0.00679 0.88138 0.14397 0.0
C67 C 0.00486 0.83303 0.04122 0.0
C68 C 0.00464 0.90165 0.15566 0.0
O69 O 0.96576 0.89099 0.97592 0.0
Mg70 Mg 0.61618 0.98984 0.55502 0.0
O71 O 0.60208 0.01561 0.4879 0.0
O72 O 0.61115 0.0484 0.52343 0.0
Mg73 Mg 0.63356 0.04358 0.61017 0.0
C74 C 0.60119 0.03613 0.48376 0.0
C75 C 0.61624 0.95556 0.43613 0.0
O76 O 0.63739 0.95728 0.43722 0.0
O77 O 0.6502 0.99352 0.51222 0.0
O78 O 0.6592 0.02637 0.54905 0.0
O79 O 0.58755 0.99434 0.62074 0.0
O80 O 0.61825 0.01215 0.63105 0.0
C81 C 0.66362 0.00914 0.51769 0.0
C82 C 0.5987 0.00916 0.64989 0.0
O83 O 0.60503 0.96549 0.47828 0.0
Mg84 Mg 0.51009 0.61798 0.03877 0.0
O85 O 0.48629 0.60473 0.96432 0.0
O86 O 0.45262 0.61444 0.98847 0.0
Mg87 Mg 0.4549 0.63449 0.08153 0.0
C88 C 0.46611 0.60457 0.95241 0.0
C89 C 0.53683 0.58936 0.9476 0.0
O90 O 0.5242 0.57554 0.97758 0.0
O91 O 0.50757 0.65272 1.00005 0.0
O92 O 0.47398 0.66128 0.03089 0.0
O93 O 0.50414 0.58841 0.09994 0.0
O94 O 0.48563 0.61866 0.10907 0.0
C95 C 0.49198 0.6662 0.00457 0.0
C96 C 0.48843 0.59895 0.12663 0.0
O97 O 0.53642 0.60908 0.96517 0.0
Mg98 Mg 0.87805 0.50905 0.57393 0.0
O99 O 0.8906 0.48338 0.50396 0.0
O100 O 0.88247 0.45058 0.54126 0.0
Mg101 Mg 0.86279 0.45521 0.63399 0.0
C102 C 0.89134 0.46286 0.49943 0.0
C103 C 0.87952 0.53405 0.43922 0.0
O104 O 0.86403 0.5204 0.42428 0.0
O105 O 0.84281 0.50512 0.53819 0.0
O106 O 0.83563 0.47285 0.5815 0.0
O107 O 0.90843 0.5048 0.63368 0.0
O108 O 0.87831 0.48671 0.65025 0.0
C109 C 0.8297 0.48961 0.55022 0.0
C110 C 0.89819 0.48988 0.66507 0.0
O111 O 0.88718 0.53404 0.49636 0.0
Mg112 Mg 0.01161 0.37809 0.07532 0.0
O113 O 0.98629 0.39062 0.00394 0.0
O114 O 0.95338 0.38148 0.03808 0.0
Mg115 Mg 0.95775 0.36047 0.12797 0.0
C116 C 0.96581 0.39106 0.99811 0.0
C117 C 0.03684 0.38089 0.9424 0.0
O118 O 0.02327 0.36537 0.92712 0.0
O119 O 0.00922 0.34318 0.03742 0.0
O120 O 0.9761 0.33435 0.07185 0.0
O121 O 0.00594 0.40776 0.13625 0.0
O122 O 0.9885 0.377 0.14952 0.0
C123 C 0.99372 0.32964 0.04298 0.0
C124 C 0.99097 0.39692 0.16559 0.0
O125 O 0.03686 0.38831 0.99985 0.0
Mg126 Mg 0.12213 0.00913 0.56663 0.0
O127 O 0.1077 0.98435 0.49752 0.0
O128 O 0.11628 0.95079 0.5263 0.0
Mg129 Mg 0.13691 0.95417 0.61815 0.0
C130 C 0.10671 0.96402 0.4887 0.0
C131 C 0.09315 0.03462 0.47376 0.0
O132 O 0.07959 0.0228 0.50749 0.0
O133 O 0.15648 0.0046 0.52538 0.0
O134 O 0.16378 0.97158 0.56342 0.0
O135 O 0.09288 0.00512 0.63119 0.0
O136 O 0.12267 0.98601 0.64103 0.0
C137 C 0.16941 0.98866 0.53313 0.0
C138 C 0.10323 0.98964 0.65962 0.0
O139 O 0.11307 0.03424 0.4891 0.0
Mg140 Mg 0.4898 0.12733 0.05187 0.0
O141 O 0.51568 0.1123 0.98787 0.0
O142 O 0.54835 0.11791 0.02991 0.0
Mg143 Mg 0.54347 0.1386 0.12075 0.0
C144 C 0.53609 0.10982 0.98657 0.0
C145 C 0.45782 0.10228 0.96077 0.0
O146 O 0.46117 0.08756 0.00536 0.0
O147 O 0.49758 0.16174 0.0154 0.0
O148 O 0.5296 0.16679 0.06309 0.0
O149 O 0.49058 0.09709 0.11429 0.0
O150 O 0.51043 0.12599 0.13211 0.0
C151 C 0.51394 0.17365 0.02858 0.0
C152 C 0.50555 0.10654 0.14768 0.0
O153 O 0.46635 0.12087 0.96771 0.0
Mg154 Mg 0.38011 0.48429 0.53452 0.0
O155 O 0.39079 0.51136 0.46728 0.0
O156 O 0.3837 0.54358 0.51029 0.0
Mg157 Mg 0.36529 0.53673 0.60448 0.0
C158 C 0.39163 0.5319 0.46531 0.0
C159 C 0.40448 0.45176 0.44247 0.0
O160 O 0.41877 0.45272 0.48937 0.0
O161 O 0.34444 0.48821 0.50622 0.0
O162 O 0.33727 0.52049 0.55042 0.0
O163 O 0.41167 0.48861 0.58827 0.0
O164 O 0.38126 0.50505 0.61415 0.0
C165 C 0.33145 0.50374 0.51866 0.0
C166 C 0.40153 0.50242 0.62424 0.0
O167 O 0.38665 0.46173 0.4489 0.0
Mg168 Mg 0.00834 0.12002 0.95987 0.0
O169 O 0.98393 0.10795 0.03412 0.0
O170 O 0.95067 0.11885 0.00936 0.0
Mg171 Mg 0.95384 0.1386 0.91619 0.0
C172 C 0.96375 0.1086 0.04577 0.0
C173 C 0.03378 0.0904 0.05157 0.0
O174 O 0.02048 0.07716 0.02174 0.0
O175 O 0.00709 0.1549 0.99866 0.0
O176 O 0.97379 0.16455 0.96775 0.0
O177 O 0.00124 0.09054 0.89904 0.0
O178 O 0.98391 0.12144 0.88924 0.0
C179 C 0.99191 0.16886 0.99437 0.0
C180 C 0.98592 0.10157 0.87216 0.0
O181 O 0.03427 0.1101 0.03393 0.0
Mg182 Mg 0.37931 0.00947 0.44916 0.0
O183 O 0.39058 0.98374 0.51953 0.0
O184 O 0.38295 0.95073 0.48285 0.0
Mg185 Mg 0.36648 0.95561 0.384 0.0
C186 C 0.39102 0.96328 0.52552 0.0
C187 C 0.40288 0.04358 0.53783 0.0
O188 O 0.41762 0.04117 0.49273 0.0
O189 O 0.34324 0.00476 0.47623 0.0
O190 O 0.3376 0.97276 0.42883 0.0
O191 O 0.41129 0.00534 0.39625 0.0
O192 O 0.38149 0.98761 0.37224 0.0
C193 C 0.33064 0.9893 0.45933 0.0
C194 C 0.40162 0.99079 0.36173 0.0
O195 O 0.38494 0.0337 0.53185 0.0
Mg196 Mg 0.49427 0.38097 0.91635 0.0
O197 O 0.51951 0.39659 0.98207 0.0
O198 O 0.55239 0.39056 0.9422 0.0
Mg199 Mg 0.54831 0.36929 0.85205 0.0
C200 C 0.53992 0.39906 0.98424 0.0
C201 C 0.46365 0.40601 0.01133 0.0
O202 O 0.46962 0.42203 0.97371 0.0
O203 O 0.5016 0.34677 0.95412 0.0
O204 O 0.53383 0.34104 0.90864 0.0
O205 O 0.49541 0.4109 0.85264 0.0
O206 O 0.51545 0.38198 0.83773 0.0
C207 C 0.51775 0.33452 0.94209 0.0
C208 C 0.51061 0.40129 0.8207 0.0
O209 O 0.4701 0.38699 0.99829 0.0
Mg210 Mg 0.12054 0.49138 0.46688 0.0
O211 O 0.11031 0.51608 0.54312 0.0
O212 O 0.12028 0.54938 0.51509 0.0
Mg213 Mg 0.13835 0.54571 0.41879 0.0
C214 C 0.11095 0.53634 0.55386 0.0
C215 C 0.09333 0.46645 0.56631 0.0
O216 O 0.08002 0.48143 0.54543 0.0
O217 O 0.15608 0.49251 0.49897 0.0
O218 O 0.16518 0.52586 0.46673 0.0
O219 O 0.08981 0.4987 0.41322 0.0
O220 O 0.12076 0.51554 0.3962 0.0
C221 C 0.16993 0.50772 0.49255 0.0
C222 C 0.1005 0.51376 0.38376 0.0
O223 O 0.11197 0.46502 0.54077 0.0
H224 H 0.96933 0.69688 0.97178 0.0
H225 H 0.03333 0.69849 0.05406 0.0
H226 H 0.96762 0.7364 0.97695 0.0
H227 H 0.03134 0.7376 0.06284 0.0
H228 H 0.03622 0.80566 1.00099 0.0
H229 H 0.03405 0.76658 0.99155 0.0
H230 H 0.96593 0.76906 0.03745 0.0
H231 H 0.96804 0.80853 0.04327 0.0
C232 C 0.98271 0.70568 0.99303 0.0
C233 C 0.0015 0.69472 0.01233 0.0
C234 C 0.9818 0.72833 0.99575 0.0
C235 C -0.00041 0.74035 0.01863 0.0
C236 C 0.01765 0.72906 0.04252 0.0
C237 C 0.0187 0.70658 0.03858 0.0
C238 C 0.02069 0.79787 0.00761 0.0
C239 C 0.00232 0.81009 0.02293 0.0
C240 C 0.01947 0.7754 0.00326 0.0
C241 C -5e-05 0.76447 0.01583 0.0
C242 C 0.98125 0.77684 0.02756 0.0
C243 C 0.98241 0.79947 0.03065 0.0
H244 H 0.68943 0.03899 0.46084 0.0
H245 H 0.68894 0.97347 0.53169 0.0
H246 H 0.72855 0.03761 0.45037 0.0
H247 H 0.72831 0.97237 0.52562 0.0
H248 H 0.80031 0.974 0.46848 0.0
H249 H 0.76091 0.97188 0.46882 0.0
H250 H 0.75772 0.03967 0.51965 0.0
H251 H 0.79687 0.04188 0.51518 0.0
C252 C 0.69776 0.02416 0.47322 0.0
C253 C 0.68622 0.00634 0.49689 0.0
C254 C 0.72024 0.02345 0.46845 0.0
C255 C 0.73182 0.00512 0.4892 0.0
C256 C 0.72007 0.98677 0.5091 0.0
C257 C 0.69746 0.98733 0.51236 0.0
C258 C 0.7911 0.98831 0.48079 0.0
C259 C 0.8016 0.00812 0.49166 0.0
C260 C 0.76848 0.98714 0.48078 0.0
C261 C 0.75593 0.00572 0.49273 0.0
C262 C 0.76667 0.02518 0.50769 0.0
C263 C 0.78917 0.02642 0.50629 0.0
H264 H 0.46256 0.79978 0.02516 0.0
H265 H 0.5287 0.80318 0.9602 0.0
H266 H 0.46478 0.76058 0.02852 0.0
H267 H 0.53076 0.76365 0.96062 0.0
H268 H 0.52854 0.69055 0.02054 0.0
H269 H 0.53069 0.73007 0.01925 0.0
H270 H 0.46485 0.73301 0.94994 0.0
H271 H 0.46253 0.69382 0.95421 0.0
C272 C 0.47769 0.79208 0.0124 0.0
C273 C 0.49542 0.8045 0.99227 0.0
C274 C 0.4789 0.76958 0.01332 0.0
C275 C 0.49773 0.75884 0.99275 0.0
C276 C 0.51597 0.77133 0.97653 0.0
C277 C 0.51485 0.79399 0.97661 0.0
C278 C 0.51476 0.69971 0.00353 0.0
C279 C 0.49532 0.68917 0.98782 0.0
C280 C 0.51593 0.72236 0.00313 0.0
C281 C 0.49773 0.73481 0.98636 0.0
C282 C 0.47893 0.72404 0.96556 0.0
C283 C 0.47767 0.70154 0.96697 0.0
H284 H 0.69394 0.52837 0.49567 0.0
H285 H 0.69816 0.46058 0.44634 0.0
H286 H 0.7328 0.52856 0.52031 0.0
H287 H 0.73643 0.46101 0.46843 0.0
H288 H 0.79817 0.46047 0.5775 0.0
H289 H 0.75988 0.46325 0.55885 0.0
H290 H 0.76902 0.52515 0.46643 0.0
H291 H 0.80805 0.52277 0.48745 0.0
C292 C 0.70304 0.51351 0.49071 0.0
C293 C 0.69286 0.49444 0.46932 0.0
C294 C 0.72532 0.5137 0.50395 0.0
C295 C 0.73774 0.4948 0.49638 0.0
C296 C 0.72739 0.47579 0.47581 0.0
C297 C 0.70533 0.47558 0.46286 0.0
C298 C 0.79226 0.47473 0.55287 0.0
C299 C 0.8064 0.49133 0.53348 0.0
C300 C 0.77014 0.47627 0.54204 0.0
C301 C 0.76133 0.49432 0.51062 0.0
C302 C 0.77531 0.51109 0.49122 0.0
C303 C 0.79767 0.50961 0.50258 0.0
H304 H 0.03025 0.30491 0.05268 0.0
H305 H 0.96352 0.3028 0.9927 0.0
H306 H 0.03209 0.26539 0.04634 0.0
H307 H 0.96549 0.2637 0.9834 0.0
H308 H 0.02856 0.19304 0.97757 0.0
H309 H 0.03115 0.23253 0.9833 0.0
H310 H 0.96608 0.23519 0.0588 0.0
H311 H 0.96331 0.19612 0.05013 0.0
C312 C 0.01622 0.29603 0.03604 0.0
C313 C 0.99669 0.30685 0.02359 0.0
C314 C 0.01721 0.27339 0.03273 0.0
C315 C 0.99874 0.26125 0.01627 0.0
C316 C 0.9798 0.27238 0.99872 0.0
C317 C 0.97873 0.29485 0.00304 0.0
C318 C 0.01506 0.20212 0.99683 0.0
C319 C 0.99569 0.19159 0.01309 0.0
C320 C 0.01648 0.22475 0.99978 0.0
C321 C 0.99859 0.23715 0.01966 0.0
C322 C 0.9799 0.2263 0.04085 0.0
C323 C 0.97839 0.20385 0.0369 0.0
H324 H 0.30716 0.01933 0.53017 0.0
H325 H 0.30002 0.96299 0.40806 0.0
H326 H 0.26766 0.02084 0.54261 0.0
H327 H 0.26134 0.96499 0.41859 0.0
H328 H 0.19776 0.95561 0.51954 0.0
H329 H 0.23631 0.9575 0.50277 0.0
H330 H 0.23243 0.02695 0.48435 0.0
H331 H 0.19327 0.02511 0.50346 0.0
C332 C 0.29727 0.00734 0.50603 0.0
C333 C 0.30689 0.99082 0.46915 0.0
C334 C 0.27466 0.00833 0.51258 0.0
C335 C 0.26135 0.99289 0.4821 0.0
C336 C 0.27106 0.97685 0.44399 0.0
C337 C 0.29339 0.97573 0.43799 0.0
C338 C 0.20496 0.97134 0.51134 0.0
C339 C 0.19234 0.99021 0.51278 0.0
C340 C 0.22716 0.97242 0.50145 0.0
C341 C 0.23752 0.99238 0.49208 0.0
C342 C 0.22494 0.01134 0.49204 0.0
C343 C 0.2025 0.01026 0.50204 0.0
H344 H 0.5475 0.20172 0.04101 0.0
H345 H 0.48119 0.19839 0.97586 0.0
H346 H 0.5476 0.24033 0.02462 0.0
H347 H 0.48161 0.23752 0.95692 0.0
H348 H 0.48438 0.31132 0.99734 0.0
H349 H 0.48289 0.2722 0.01535 0.0
H350 H 0.54781 0.26611 0.9409 0.0
H351 H 0.54963 0.30475 0.92534 0.0
C352 C 0.53297 0.20916 0.02217 0.0
C353 C 0.51431 0.19682 0.00977 0.0
C354 C 0.53308 0.23143 0.01251 0.0
C355 C 0.51462 0.24212 0.98942 0.0
C356 C 0.49602 0.22981 0.97558 0.0
C357 C 0.49587 0.20736 0.98559 0.0
C358 C 0.49844 0.30163 0.98586 0.0
C359 C 0.51715 0.31128 0.96019 0.0
C360 C 0.49747 0.27918 0.99534 0.0
C361 C 0.5152 0.26596 0.97941 0.0
C362 C 0.53394 0.27574 0.95465 0.0
C363 C 0.53495 0.29802 0.94554 0.0
H364 H 0.3044 0.53548 0.47936 0.0
H365 H 0.30607 0.46763 0.52697 0.0
H366 H 0.26519 0.53432 0.47527 0.0
H367 H 0.26654 0.46657 0.52654 0.0
H368 H 0.19806 0.53602 0.54622 0.0
H369 H 0.23719 0.53306 0.55034 0.0
H370 H 0.23317 0.46859 0.47011 0.0
H371 H 0.19372 0.4713 0.46963 0.0
C372 C 0.2963 0.52023 0.48829 0.0
C373 C 0.30823 0.50167 0.5035 0.0
C374 C 0.27378 0.5196 0.48703 0.0
C375 C 0.26255 0.50051 0.50266 0.0
C376 C 0.27457 0.48158 0.51434 0.0
C377 C 0.29723 0.48213 0.51432 0.0
C378 C 0.20556 0.52103 0.53099 0.0
C379 C 0.19292 0.5039 0.50764 0.0
C380 C 0.22802 0.51941 0.53227 0.0
C381 C 0.2385 0.50083 0.50854 0.0
C382 C 0.22574 0.48316 0.48868 0.0
C383 C 0.20312 0.48464 0.48865 0.0
H384 H 0.0344 0.6221 0.7893 0.0
H385 H 0.02246 0.56011 0.8779 0.0
H386 H 0.05974 0.60556 0.71492 0.0
H387 H 0.04899 0.54353 0.80602 0.0
H388 H 0.07804 0.51686 0.61928 0.0
H389 H 0.05486 0.53236 0.70126 0.0
H390 H 0.0934 0.59075 0.69963 0.0
H391 H 0.11578 0.57556 0.61407 0.0
C392 C 0.03746 0.60491 0.79337 0.0
C393 C 0.02638 0.59237 0.83915 0.0
C394 C 0.05222 0.59541 0.75105 0.0
C395 C 0.05669 0.57313 0.75423 0.0
C396 C 0.04578 0.56064 0.80103 0.0
C397 C 0.03061 0.57012 0.84255 0.0
C398 C 0.0817 0.53295 0.63672 0.0
C399 C 0.09867 0.54504 0.6096 0.0
C400 C 0.06842 0.54185 0.68434 0.0
C401 C 0.07198 0.56299 0.7072 0.0
C402 C 0.08967 0.57468 0.68219 0.0
C403 C 0.10269 0.56591 0.63346 0.0
H404 H 0.98331 0.07492 0.10802 0.0
H405 H 0.92484 0.113 0.1068 0.0
H406 H 0.96777 0.05115 0.18922 0.0
H407 H 0.90968 0.08998 0.1906 0.0
H408 H 0.87761 0.03111 0.27385 0.0
H409 H 0.89506 0.05553 0.19885 0.0
H410 H 0.95608 0.04542 0.29624 0.0
H411 H 0.9385 0.0199 0.36989 0.0
C412 C 0.96726 0.07847 0.126 0.0
C413 C 0.95518 0.09571 0.10034 0.0
C414 C 0.95837 0.06486 0.17296 0.0
C415 C 0.9373 0.06837 0.1961 0.0
C416 C 0.9257 0.08632 0.17265 0.0
C417 C 0.93444 0.09968 0.1249 0.0
C418 C 0.89478 0.03405 0.27921 0.0
C419 C 0.90669 0.02364 0.32781 0.0
C420 C 0.90479 0.04827 0.23651 0.0
C421 C 0.92697 0.05285 0.24185 0.0
C422 C 0.939 0.04221 0.29023 0.0
C423 C 0.92897 0.02761 0.33255 0.0
H424 H 0.47716 0.93872 0.85397 0.0
H425 H 0.46503 0.87649 0.76688 0.0
H426 H 0.45143 0.95532 0.77966 0.0
H427 H 0.44063 0.89301 0.68976 0.0
H428 H 0.38597 0.92359 0.58259 0.0
H429 H 0.40762 0.90808 0.6694 0.0
H430 H 0.44641 0.9663 0.67519 0.0
H431 H 0.42383 0.98213 0.59222 0.0
C432 C 0.46915 0.92867 0.81836 0.0
C433 C 0.47308 0.90636 0.8161 0.0
C434 C 0.45446 0.93815 0.77538 0.0
C435 C 0.44379 0.9256 0.72807 0.0
C436 C 0.44796 0.90324 0.72611 0.0
C437 C 0.46219 0.89374 0.77001 0.0
C438 C 0.39898 0.93309 0.60317 0.0
C439 C 0.40317 0.95405 0.5806 0.0
C440 C 0.41158 0.92416 0.65262 0.0
C441 C 0.42907 0.93576 0.67943 0.0
C442 C 0.43294 0.9569 0.65716 0.0
C443 C 0.42003 0.96599 0.60899 0.0
H444 H 0.57929 0.41891 0.9832 0.0
H445 H 0.52119 0.41267 0.09725 0.0
H446 H 0.59366 0.44457 0.06086 0.0
H447 H 0.53604 0.43762 0.1772 0.0
H448 H 0.56148 0.49774 0.28266 0.0
H449 H 0.54544 0.47405 0.20055 0.0
H450 H 0.60836 0.44637 0.16329 0.0
H451 H 0.62427 0.47073 0.24084 0.0
C452 C 0.56973 0.42272 0.02553 0.0
C453 C 0.54918 0.41357 0.03422 0.0
C454 C 0.57799 0.43746 0.07038 0.0
C455 C 0.56613 0.44316 0.12594 0.0
C456 C 0.54555 0.43392 0.13471 0.0
C457 C 0.53712 0.41941 0.08918 0.0
C458 C 0.57182 0.48671 0.25629 0.0
C459 C 0.59411 0.48598 0.26894 0.0
C460 C 0.56263 0.47297 0.20967 0.0
C461 C 0.57556 0.45818 0.17503 0.0
C462 C 0.59785 0.4577 0.18779 0.0
C463 C 0.60698 0.47153 0.23338 0.0
H464 H 0.07479 0.98551 0.42412 0.0
H465 H 0.10715 0.92376 0.43357 0.0
H466 H 0.04997 0.97124 0.34376 0.0
H467 H 0.08309 0.90974 0.35042 0.0
H468 H 0.02301 0.88254 0.25939 0.0
H469 H 0.04776 0.89814 0.33741 0.0
H470 H 0.04421 0.95948 0.23768 0.0
H471 H 0.01832 0.94389 0.16131 0.0
C472 C 0.07684 0.96895 0.40825 0.0
C473 C 0.09286 0.9557 0.43574 0.0
C474 C 0.06263 0.96078 0.3617 0.0
C475 C 0.06427 0.93922 0.34066 0.0
C476 C 0.08087 0.92624 0.36654 0.0
C477 C 0.09484 0.93431 0.41393 0.0
C478 C 0.02742 0.89941 0.25438 0.0
C479 C 0.01874 0.91201 0.20431 0.0
C480 C 0.04184 0.90834 0.29878 0.0
C481 C 0.04837 0.93005 0.29366 0.0
C482 C 0.03944 0.94277 0.24378 0.0
C483 C 0.02463 0.93387 0.19984 0.0
H484 H 0.5763 0.09159 0.98382 0.0
H485 H 0.51698 0.09614 0.87444 0.0
H486 H 0.59076 0.06661 0.90412 0.0
H487 H 0.53179 0.07182 0.79312 0.0
H488 H 0.5566 0.01084 0.6921 0.0
H489 H 0.54142 0.03513 0.77356 0.0
H490 H 0.60412 0.06484 0.79854 0.0
H491 H 0.61935 0.03994 0.72086 0.0
C492 C 0.56647 0.08753 0.9422 0.0
C493 C 0.54551 0.09592 0.93549 0.0
C494 C 0.57478 0.07321 0.89626 0.0
C495 C 0.56247 0.06714 0.84191 0.0
C496 C 0.5416 0.0758 0.83481 0.0
C497 C 0.53319 0.08993 0.88119 0.0
C498 C 0.56711 0.0225 0.71535 0.0
C499 C 0.58914 0.02357 0.69941 0.0
C500 C 0.55839 0.03657 0.76164 0.0
C501 C 0.57152 0.05205 0.79271 0.0
C502 C 0.59354 0.05298 0.77656 0.0
C503 C 0.60225 0.03884 0.73106 0.0
H504 H 0.4058 0.57376 0.45695 0.0
H505 H 0.40548 0.51315 0.35289 0.0
H506 H 0.42891 0.58947 0.37431 0.0
H507 H 0.42798 0.52909 0.26902 0.0
H508 H 0.48836 0.55706 0.17057 0.0
H509 H 0.46413 0.54101 0.25047 0.0
H510 H 0.43001 0.60172 0.26655 0.0
H511 H 0.45474 0.61789 0.18987 0.0
C512 C 0.41033 0.56389 0.41587 0.0
C513 C 0.40378 0.54219 0.41171 0.0
C514 C 0.42357 0.57292 0.36824 0.0
C515 C 0.43043 0.56055 0.31488 0.0
C516 C 0.42339 0.53899 0.30994 0.0
C517 C 0.4103 0.52991 0.35784 0.0
C518 C 0.47566 0.56694 0.19121 0.0
C519 C 0.47344 0.58873 0.1734 0.0
C520 C 0.46165 0.55771 0.2367 0.0
C521 C 0.44505 0.57005 0.26514 0.0
C522 C 0.44276 0.59177 0.24659 0.0
C523 C 0.45684 0.601 0.20175 0.0
H524 H 0.9253 0.40807 0.99507 0.0
H525 H 0.98478 0.40545 0.88626 0.0
H526 H 0.91013 0.43265 0.91613 0.0
H527 H 0.96914 0.42927 0.80462 0.0
H528 H 0.9411 0.48889 0.70114 0.0
H529 H 0.95794 0.46502 0.78095 0.0
H530 H 0.8962 0.43409 0.8133 0.0
H531 H 0.87942 0.45874 0.73869 0.0
C532 C 0.93499 0.41241 0.95346 0.0
C533 C 0.95618 0.40465 0.94674 0.0
C534 C 0.92626 0.42651 0.90782 0.0
C535 C 0.93828 0.43291 0.85328 0.0
C536 C 0.95947 0.42498 0.84628 0.0
C537 C 0.96837 0.41113 0.89275 0.0
C538 C 0.93119 0.47705 0.72575 0.0
C539 C 0.90894 0.47561 0.71284 0.0
C540 C 0.94086 0.46321 0.77108 0.0
C541 C 0.92847 0.44755 0.804 0.0
C542 C 0.90628 0.44613 0.79025 0.0
C543 C 0.89665 0.46012 0.74619 0.0
H544 H 0.98964 0.43933 0.20556 0.0
H545 H 0.95865 0.37745 0.23343 0.0
H546 H 0.9651 0.45542 0.28465 0.0
H547 H 0.93342 0.39361 0.30812 0.0
H548 H 0.90726 0.4218 0.49328 0.0
H549 H 0.93145 0.40667 0.41295 0.0
H550 H 0.92912 0.46654 0.30541 0.0
H551 H 0.90562 0.48203 0.38791 0.0
C552 C 0.97746 0.42922 0.22789 0.0
C553 C 0.97604 0.40713 0.2126 0.0
C554 C 0.96324 0.43847 0.27284 0.0
C555 C 0.94719 0.42585 0.30308 0.0
C556 C 0.94574 0.40382 0.28697 0.0
C557 C 0.96009 0.39457 0.24305 0.0
C558 C 0.91173 0.43169 0.45223 0.0
C559 C 0.90444 0.4531 0.44701 0.0
C560 C 0.9256 0.42298 0.40582 0.0
C561 C 0.93229 0.43531 0.35224 0.0
C562 C 0.92465 0.45664 0.34643 0.0
C563 C 0.91099 0.46547 0.39345 0.0
H564 H 0.07661 0.90827 0.99369 0.0
H565 H 0.01721 0.90687 0.884 0.0
H566 H 0.09268 0.93195 0.91294 0.0
H567 H 0.03349 0.92988 0.80207 0.0
H568 H 0.06113 0.98976 0.7022 0.0
H569 H 0.0449 0.96608 0.78334 0.0
H570 H 0.10606 0.93331 0.80678 0.0
H571 H 0.12237 0.95754 0.72906 0.0
C572 C 0.06711 0.9127 0.95178 0.0
C573 C 0.04563 0.90566 0.94543 0.0
C574 C 0.07632 0.92628 0.90528 0.0
C575 C 0.06437 0.93297 0.85086 0.0
C576 C 0.04305 0.92547 0.84386 0.0
C577 C 0.03378 0.91207 0.89063 0.0
C578 C 0.07108 0.97753 0.72492 0.0
C579 C 0.09299 0.97544 0.70855 0.0
C580 C 0.06175 0.96382 0.77109 0.0
C581 C 0.07413 0.94766 0.80169 0.0
C582 C 0.09605 0.94568 0.78511 0.0
C583 C 0.10536 0.95946 0.73962 0.0
H584 H 0.58657 0.01795 0.37094 0.0
H585 H 0.58315 0.07624 0.48545 0.0
H586 H 0.56267 0.03415 0.29053 0.0
H587 H 0.55845 0.09195 0.40762 0.0
H588 H 0.53509 0.12447 0.22837 0.0
H589 H 0.55814 0.10691 0.30589 0.0
H590 H 0.5271 0.04575 0.26494 0.0
H591 H 0.50479 0.06342 0.18251 0.0
C592 C 0.58063 0.03419 0.37905 0.0
C593 C 0.58701 0.04594 0.4341 0.0
C594 C 0.56673 0.04341 0.33326 0.0
C595 C 0.55864 0.06447 0.34202 0.0
C596 C 0.56475 0.07595 0.39799 0.0
C597 C 0.57891 0.06691 0.44295 0.0
C598 C 0.53329 0.10721 0.23488 0.0
C599 C 0.5183 0.09531 0.19819 0.0
C600 C 0.54635 0.09713 0.28054 0.0
C601 C 0.54451 0.07485 0.29244 0.0
C602 C 0.52921 0.06289 0.25657 0.0
C603 C 0.51626 0.07303 0.20976 0.0
H604 H 0.44426 0.5149 0.62735 0.0
H605 H 0.38356 0.52183 0.72787 0.0
H606 H 0.46085 0.54098 0.70162 0.0
H607 H 0.40008 0.54683 0.80328 0.0
H608 H 0.42663 0.60639 0.89327 0.0
H609 H 0.41244 0.5823 0.81048 0.0
H610 H 0.4729 0.54732 0.80857 0.0
H611 H 0.48741 0.57213 0.88897 0.0
C612 C 0.43459 0.52175 0.66588 0.0
C613 C 0.41261 0.51647 0.67161 0.0
C614 C 0.44405 0.53668 0.70851 0.0
C615 C 0.43175 0.54636 0.75809 0.0
C616 C 0.40995 0.54035 0.76467 0.0
C617 C 0.4005 0.52579 0.72174 0.0
C618 C 0.43696 0.59369 0.8747 0.0
C619 C 0.45807 0.5911 0.89817 0.0
C620 C 0.42878 0.57972 0.82753 0.0
C621 C 0.44135 0.56251 0.80347 0.0
C622 C 0.46276 0.56041 0.82542 0.0
C623 C 0.47105 0.57462 0.87189 0.0
H624 H 0.90001 0.01761 0.64725 0.0
H625 H 0.90068 0.07869 0.54613 0.0
H626 H 0.92323 0.03285 0.73085 0.0
H627 H 0.92453 0.09364 0.62801 0.0
H628 H 0.95244 0.12132 0.80998 0.0
H629 H 0.92683 0.1057 0.73488 0.0
H630 H 0.9594 0.04411 0.74978 0.0
H631 H 0.98444 0.05962 0.82853 0.0
C632 C 0.90505 0.03432 0.64291 0.0
C633 C 0.8984 0.04694 0.58998 0.0
C634 C 0.91857 0.04301 0.69061 0.0
C635 C 0.92593 0.06448 0.68632 0.0
C636 C 0.91896 0.07716 0.63379 0.0
C637 C 0.90528 0.06856 0.58652 0.0
C638 C 0.954 0.10435 0.79827 0.0
C639 C 0.97041 0.09169 0.82603 0.0
C640 C 0.93941 0.09542 0.75425 0.0
C641 C 0.941 0.07362 0.73569 0.0
C642 C 0.95743 0.06088 0.76354 0.0
C643 C 0.97192 0.0698 0.80835 0.0
H644 H 0.44451 0.97858 0.35965 0.0
H645 H 0.38401 0.97105 0.25834 0.0
H646 H 0.46128 0.95229 0.28633 0.0
H647 H 0.40066 0.94591 0.18394 0.0
H648 H 0.4271 0.88661 0.09407 0.0
H649 H 0.41299 0.91053 0.17731 0.0
H650 H 0.47353 0.94547 0.17992 0.0
H651 H 0.48797 0.92078 0.09922 0.0
C652 C 0.43493 0.97156 0.32114 0.0
C653 C 0.41295 0.97673 0.31492 0.0
C654 C 0.44449 0.9565 0.27908 0.0
C655 C 0.43227 0.94658 0.22961 0.0
C656 C 0.41048 0.95252 0.22252 0.0
C657 C 0.40094 0.96719 0.26486 0.0
C658 C 0.43747 0.89924 0.11296 0.0
C659 C 0.45857 0.90187 0.08949 0.0
C660 C 0.42934 0.91313 0.16039 0.0
C661 C 0.44193 0.93033 0.18465 0.0
C662 C 0.46335 0.93241 0.16291 0.0
C663 C 0.47162 0.91826 0.11624 0.0
H664 H 0.54047 0.38275 0.74253 0.0
H665 H 0.50984 0.44406 0.78225 0.0
H666 H 0.56352 0.39964 0.66357 0.0
H667 H 0.53226 0.46102 0.69875 0.0
H668 H 0.59216 0.48795 0.59347 0.0
H669 H 0.56813 0.47229 0.67416 0.0
H670 H 0.5638 0.41383 0.56011 0.0
H671 H 0.5886 0.42907 0.48147 0.0
C672 C 0.5386 0.39993 0.73438 0.0
C673 C 0.52351 0.41211 0.7697 0.0
C674 C 0.55167 0.4096 0.68795 0.0
C675 C 0.54978 0.43173 0.6741 0.0
C676 C 0.5344 0.44398 0.70865 0.0
C677 C 0.5214 0.43425 0.75611 0.0
C678 C 0.5862 0.47167 0.58597 0.0
C679 C 0.59255 0.45963 0.53142 0.0
C680 C 0.57221 0.46277 0.63196 0.0
C681 C 0.56402 0.44171 0.62411 0.0
C682 C 0.57014 0.42988 0.56885 0.0
C683 C 0.58437 0.43864 0.52347 0.0
H684 H 0.11966 0.53745 0.28991 0.0
H685 H 0.05773 0.52517 0.37829 0.0
H686 H 0.10301 0.5625 0.21501 0.0
H687 H 0.041 0.55142 0.30581 0.0
H688 H 0.01439 0.57975 0.118 0.0
H689 H 0.02998 0.55685 0.20056 0.0
H690 H 0.08792 0.59605 0.19931 0.0
H691 H 0.07265 0.61813 0.11324 0.0
C692 C 0.10246 0.54038 0.29384 0.0
C693 C 0.08997 0.52929 0.3397 0.0
C694 C 0.09288 0.55497 0.25121 0.0
C695 C 0.07058 0.55925 0.25414 0.0
C696 C 0.05813 0.54834 0.30104 0.0
C697 C 0.0677 0.53335 0.3429 0.0
C698 C 0.0304 0.5836 0.13563 0.0
C699 C 0.04236 0.60066 0.10854 0.0
C700 C 0.03935 0.57049 0.18357 0.0
C701 C 0.06038 0.57434 0.20673 0.0
C702 C 0.07193 0.59211 0.18165 0.0
C703 C 0.06313 0.60495 0.13261 0.0
H704 H 0.86412 0.5433 0.31821 0.0
H705 H 0.91917 0.55347 0.44314 0.0
H706 H 0.88368 0.56049 0.22902 0.0
H707 H 0.9387 0.57026 0.35375 0.0
H708 H 0.97333 0.56357 0.15363 0.0
H709 H 0.95194 0.55197 0.24611 0.0
H710 H 0.9025 0.59822 0.19663 0.0
H711 H 0.92426 0.61032 0.10393 0.0
C712 C 0.88025 0.54946 0.3269 0.0
C713 C 0.89012 0.54692 0.38771 0.0
C714 C 0.89139 0.55936 0.27592 0.0
C715 C 0.91272 0.56655 0.28449 0.0
C716 C 0.9223 0.56472 0.34581 0.0
C717 C 0.91106 0.55519 0.39703 0.0
C718 C 0.95791 0.57132 0.16228 0.0
C719 C 0.95044 0.58782 0.12133 0.0
C720 C 0.94575 0.56476 0.21557 0.0
C721 C 0.92563 0.57427 0.22864 0.0
C722 C 0.91797 0.59065 0.1875 0.0
C723 C 0.93041 0.59757 0.13469 0.0
H724 H 0.87362 0.95247 0.65795 0.0
H725 H 0.93056 0.92791 0.56205 0.0
H726 H 0.88469 0.93457 0.75768 0.0
H727 H 0.94136 0.90971 0.66123 0.0
H728 H 0.96857 0.90789 0.86637 0.0
H729 H 0.95516 0.92187 0.76456 0.0
H730 H 0.89091 0.89975 0.81227 0.0
H731 H 0.90434 0.88591 0.91565 0.0
C732 C 0.88832 0.94299 0.65781 0.0
C733 C 0.90132 0.94181 0.60213 0.0
C734 C 0.89461 0.93264 0.71496 0.0
C735 C 0.91403 0.92089 0.71768 0.0
C736 C 0.92652 0.91897 0.66116 0.0
C737 C 0.92026 0.92932 0.60415 0.0
C738 C 0.95156 0.90591 0.85538 0.0
C739 C 0.93752 0.89577 0.89941 0.0
C740 C 0.9439 0.9138 0.79656 0.0
C741 C 0.92198 0.91181 0.77993 0.0
C742 C 0.90787 0.90165 0.82381 0.0
C743 C 0.91558 0.89365 0.8829 0.0
H744 H 0.56825 0.88025 0.10325 0.0
H745 H 0.53627 0.94234 0.10229 0.0
H746 H 0.58803 0.89084 0.20114 0.0
H747 H 0.55588 0.95273 0.19922 0.0
H748 H 0.57297 0.95432 0.41103 0.0
H749 H 0.555 0.94053 0.31491 0.0
H750 H 0.61624 0.91879 0.23934 0.0
H751 H 0.63445 0.93266 0.33607 0.0
C752 C 0.56556 0.89617 0.12353 0.0
C753 C 0.55063 0.91042 0.09502 0.0
C754 C 0.5769 0.90223 0.17944 0.0
C755 C 0.57329 0.92251 0.2082 0.0
C756 C 0.55873 0.93685 0.1788 0.0
C757 C 0.54761 0.93093 0.12288 0.0
C758 C 0.58266 0.94639 0.37444 0.0
C759 C 0.60521 0.94477 0.38114 0.0
C760 C 0.57234 0.93861 0.31913 0.0
C761 C 0.58426 0.92884 0.26925 0.0
C762 C 0.60666 0.92624 0.27708 0.0
C763 C 0.61707 0.93423 0.33238 0.0
H764 H 0.55468 0.53583 0.57171 0.0
H765 H 0.61781 0.56371 0.60425 0.0
H766 H 0.54289 0.5487 0.67679 0.0
H767 H 0.60578 0.57673 0.71049 0.0
H768 H 0.56262 0.6138 0.8672 0.0
H769 H 0.57803 0.6028 0.76297 0.0
H770 H 0.55265 0.53845 0.79034 0.0
H771 H 0.53736 0.54925 0.89355 0.0
C772 C 0.56604 0.54487 0.60101 0.0
C773 C 0.58725 0.54863 0.57951 0.0
C774 C 0.55928 0.55212 0.66156 0.0
C775 C 0.57349 0.56347 0.70227 0.0
C776 C 0.59449 0.56801 0.68009 0.0
C777 C 0.60136 0.56054 0.61937 0.0
C778 C 0.56061 0.59723 0.85131 0.0
C779 C 0.54861 0.58246 0.88858 0.0
C780 C 0.56946 0.59095 0.79172 0.0
C781 C 0.56627 0.56986 0.76812 0.0
C782 C 0.55505 0.55493 0.80669 0.0
C783 C 0.54639 0.56111 0.86614 0.0
H784 H 0.06258 0.4753 0.65595 0.0
H785 H 0.11012 0.42726 0.60376 0.0
H786 H 0.05217 0.45376 0.74943 0.0
H787 H 0.09927 0.40538 0.69747 0.0
H788 H 0.04632 0.36565 0.82158 0.0
H789 H 0.06258 0.38565 0.73184 0.0
H790 H 0.07115 0.44104 0.85611 0.0
H791 H 0.05525 0.42105 0.94612 0.0
C792 C 0.07075 0.46007 0.66427 0.0
C793 C 0.08712 0.45292 0.62232 0.0
C794 C 0.0649 0.44784 0.71814 0.0
C795 C 0.075 0.42799 0.73081 0.0
C796 C 0.09125 0.42066 0.68868 0.0
C797 C 0.09745 0.43316 0.63526 0.0
C798 C 0.05204 0.38196 0.83006 0.0
C799 C 0.0494 0.39179 0.89089 0.0
C800 C 0.06141 0.39335 0.77876 0.0
C801 C 0.06796 0.41491 0.78704 0.0
C802 C 0.06609 0.42447 0.84842 0.0
C803 C 0.05709 0.41297 0.89998 0.0
H804 H 0.0326 0.05028 0.10516 0.0
H805 H 0.06118 0.11345 0.13129 0.0
H806 H 0.04813 0.0385 0.207 0.0
H807 H 0.07685 0.10145 0.23423 0.0
H808 H 0.11645 0.05934 0.38727 0.0
H809 H 0.10383 0.07384 0.28341 0.0
H810 H 0.04006 0.04868 0.32171 0.0
H811 H 0.05242 0.03434 0.42441 0.0
C812 C 0.04238 0.06164 0.13226 0.0
C813 C 0.04549 0.08289 0.1101 0.0
C814 C 0.05118 0.05489 0.19096 0.0
C815 C 0.06345 0.06913 0.2291 0.0
C816 C 0.06746 0.09012 0.20583 0.0
C817 C 0.05846 0.09698 0.14697 0.0
C818 C 0.09968 0.05715 0.37375 0.0
C819 C 0.0855 0.04556 0.4141 0.0
C820 C 0.09247 0.06547 0.31437 0.0
C821 C 0.07104 0.06212 0.29404 0.0
C822 C 0.05677 0.05119 0.33546 0.0
C823 C 0.06387 0.04308 0.39466 0.0
H824 H 0.37969 0.04508 0.65075 0.0
H825 H 0.43821 0.06888 0.56194 0.0
H826 H 0.39045 0.06159 0.75317 0.0
H827 H 0.44898 0.08522 0.66428 0.0
H828 H 0.4556 0.12526 0.84751 0.0
H829 H 0.43997 0.11355 0.74469 0.0
H830 H 0.41903 0.05401 0.83367 0.0
H831 H 0.43448 0.0657 0.93625 0.0
C832 C 0.39471 0.05405 0.65278 0.0
C833 C 0.40814 0.05555 0.59812 0.0
C834 C 0.40093 0.06341 0.71162 0.0
C835 C 0.42063 0.07464 0.71704 0.0
C836 C 0.43362 0.07686 0.6617 0.0
C837 C 0.42749 0.06737 0.60305 0.0
C838 C 0.44739 0.10981 0.84536 0.0
C839 C 0.44637 0.09639 0.90013 0.0
C840 C 0.43856 0.10304 0.78632 0.0
C841 C 0.42832 0.0828 0.78086 0.0
C842 C 0.4266 0.06978 0.83627 0.0
C843 C 0.43558 0.07644 0.89507 0.0
H844 H 0.45743 0.37899 0.11456 0.0
H845 H 0.44308 0.44333 0.04584 0.0
H846 H 0.44084 0.38776 0.21853 0.0
H847 H 0.42651 0.45202 0.14961 0.0
H848 H 0.38329 0.45544 0.3268 0.0
H849 H 0.39518 0.44242 0.22118 0.0
H850 H 0.45086 0.41274 0.30996 0.0
H851 H 0.43903 0.42573 0.41562 0.0
C852 C 0.45049 0.3949 0.12127 0.0
C853 C 0.45164 0.41049 0.07193 0.0
C854 C 0.4411 0.39995 0.18097 0.0
C855 C 0.43242 0.42059 0.19232 0.0
C856 C 0.43287 0.43591 0.14217 0.0
C857 C 0.44248 0.43095 0.0828 0.0
C858 C 0.3979 0.44586 0.324 0.0
C859 C 0.41026 0.4417 0.37969 0.0
C860 C 0.40477 0.43853 0.26339 0.0
C861 C 0.42401 0.42665 0.25719 0.0
C862 C 0.43588 0.42171 0.31321 0.0
C863 C 0.42915 0.42924 0.37373 0.0
loop_
_geom_bond_atom_site_label_1
_geom_bond_atom_site_label_2
_geom_bond_distance
_geom_bond_site_symmetry_2
_ccdc_geom_bond_type
Mg0 O1 2.028 . S
Mg0 O7 1.986 . S
Mg0 O9 2.114 . S
Mg0 O10 2.251 . S
Mg0 O13 2.010 1_455 S
O1 Mg0 2.028 . S
O1 C4 1.250 . S
O2 Mg3 2.028 . S
O2 C4 1.248 . S
Mg3 O2 2.028 . S
Mg3 O8 2.032 . S
Mg3 O10 2.079 . S
C4 O1 1.250 . S
C4 O2 1.248 . S
C5 O6 1.264 . S
C5 O13 1.249 . S
O6 C5 1.264 . S
O7 Mg0 1.986 . S
O7 C11 1.246 . S
O8 Mg3 2.032 . S
O8 C11 1.259 . S
O9 Mg0 2.114 . S
O9 C12 1.252 1_554 S
O10 Mg0 2.251 . S
O10 Mg3 2.079 . S
O10 C12 1.273 1_554 S
C11 O7 1.246 . S
C11 O8 1.259 . S
C12 O9 1.252 1_556 S
C12 O10 1.273 1_556 S
O13 Mg0 2.010 1_655 S
O13 C5 1.249 . S
Mg14 O15 2.028 . S
Mg14 O21 1.986 . S
Mg14 O23 2.114 . S
Mg14 O24 2.251 . S
Mg14 O27 2.010 1_545 S
O15 Mg14 2.028 . S
O15 C18 1.250 . S
O16 Mg17 2.028 . S
O16 C18 1.248 . S
Mg17 O16 2.028 . S
Mg17 O22 2.032 . S
Mg17 O24 2.079 . S
C18 O15 1.250 . S
C18 O16 1.248 . S
C19 O20 1.264 . S
C19 O27 1.249 . S
O20 C19 1.264 . S
O21 Mg14 1.986 . S
O21 C25 1.246 . S
O22 Mg17 2.032 . S
O22 C25 1.259 . S
O23 Mg14 2.114 . S
O23 C26 1.252 . S
O24 Mg14 2.251 . S
O24 Mg17 2.079 . S
O24 C26 1.273 . S
C25 O21 1.246 . S
C25 O22 1.259 . S
C26 O23 1.252 . S
C26 O24 1.273 . S
O27 Mg14 2.010 1_565 S
O27 C19 1.249 . S
Mg28 O29 2.028 . S
Mg28 O35 1.986 . S
Mg28 O37 2.114 . S
Mg28 O38 2.251 . S
Mg28 O41 2.010 . S
O29 Mg28 2.028 . S
O29 C32 1.250 . S
O30 Mg31 2.028 . S
O30 C32 1.248 . S
Mg31 O30 2.028 . S
Mg31 O36 2.032 . S
Mg31 O38 2.079 . S
C32 O29 1.250 . S
C32 O30 1.248 . S
C33 O34 1.264 . S
C33 O41 1.249 . S
O34 C33 1.264 . S
O35 Mg28 1.986 . S
O35 C39 1.246 . S
O36 Mg31 2.032 . S
O36 C39 1.259 . S
O37 Mg28 2.114 . S
O37 C40 1.252 1_554 S
O38 Mg28 2.251 . S
O38 Mg31 2.079 . S
O38 C40 1.273 1_554 S
C39 O35 1.246 . S
C39 O36 1.259 . S
C40 O37 1.252 1_556 S
C40 O38 1.273 1_556 S
O41 Mg28 2.010 . S
O41 C33 1.249 . S
Mg42 O43 2.028 . S
Mg42 O49 1.986 . S
Mg42 O51 2.114 . S
Mg42 O52 2.251 . S
Mg42 O55 2.010 . S
O43 Mg42 2.028 . S
O43 C46 1.250 . S
O44 Mg45 2.028 . S
O44 C46 1.248 . S
Mg45 O44 2.028 . S
Mg45 O50 2.032 . S
Mg45 O52 2.079 . S
C46 O43 1.250 . S
C46 O44 1.248 . S
C47 O48 1.264 . S
C47 O55 1.249 . S
O48 C47 1.264 . S
O49 Mg42 1.986 . S
O49 C53 1.246 . S
O50 Mg45 2.032 . S
O50 C53 1.259 . S
O51 Mg42 2.114 . S
O51 C54 1.252 . S
O52 Mg42 2.251 . S
O52 Mg45 2.079 . S
O52 C54 1.273 . S
C53 O49 1.246 . S
C53 O50 1.259 . S
C54 O51 1.252 . S
C54 O52 1.273 . S
O55 Mg42 2.010 . S
O55 C47 1.249 . S
Mg56 O57 2.028 . S
Mg56 O63 1.986 . S
Mg56 O65 2.114 . S
Mg56 O66 2.251 . S
Mg56 O69 2.010 1_455 S
O57 Mg56 2.028 . S
O57 C60 1.250 . S
O58 Mg59 2.028 . S
O58 C60 1.248 . S
Mg59 O58 2.028 . S
Mg59 O64 2.032 . S
Mg59 O66 2.079 . S
C60 O57 1.250 . S
C60 O58 1.248 . S
C61 O62 1.264 . S
C61 O69 1.249 . S
O62 C61 1.264 . S
O63 Mg56 1.986 . S
O63 C67 1.246 . S
O64 Mg59 2.032 . S
O64 C67 1.259 . S
O65 Mg56 2.114 . S
O65 C68 1.252 1_556 S
O66 Mg56 2.251 . S
O66 Mg59 2.079 . S
O66 C68 1.273 1_556 S
C67 O63 1.246 . S
C67 O64 1.259 . S
C68 O65 1.252 1_554 S
C68 O66 1.273 1_554 S
O69 Mg56 2.010 1_655 S
O69 C61 1.249 . S
Mg70 O71 2.028 . S
Mg70 O77 1.986 . S
Mg70 O79 2.114 . S
Mg70 O80 2.251 . S
Mg70 O83 2.010 1_545 S
O71 Mg70 2.028 . S
O71 C74 1.250 . S
O72 Mg73 2.028 . S
O72 C74 1.248 . S
Mg73 O72 2.028 . S
Mg73 O78 2.032 . S
Mg73 O80 2.079 . S
C74 O71 1.250 . S
C74 O72 1.248 . S
C75 O76 1.264 . S
C75 O83 1.249 . S
O76 C75 1.264 . S
O77 Mg70 1.986 . S
O77 C81 1.246 . S
O78 Mg73 2.032 . S
O78 C81 1.259 . S
O79 Mg70 2.114 . S
O79 C82 1.252 . S
O80 Mg70 2.251 . S
O80 Mg73 2.079 . S
O80 C82 1.273 . S
C81 O77 1.246 . S
C81 O78 1.259 . S
C82 O79 1.252 . S
C82 O80 1.273 . S
O83 Mg70 2.010 1_565 S
O83 C75 1.249 . S
Mg84 O85 2.028 . S
Mg84 O91 1.986 . S
Mg84 O93 2.114 . S
Mg84 O94 2.251 . S
Mg84 O97 2.010 . S
O85 Mg84 2.028 . S
O85 C88 1.250 . S
O86 Mg87 2.028 . S
O86 C88 1.248 . S
Mg87 O86 2.028 . S
Mg87 O92 2.032 . S
Mg87 O94 2.079 . S
C88 O85 1.250 . S
C88 O86 1.248 . S
C89 O90 1.264 . S
C89 O97 1.249 . S
O90 C89 1.264 . S
O91 Mg84 1.986 . S
O91 C95 1.246 . S
O92 Mg87 2.032 . S
O92 C95 1.259 . S
O93 Mg84 2.114 . S
O93 C96 1.252 1_556 S
O94 Mg84 2.251 . S
O94 Mg87 2.079 . S
O94 C96 1.273 1_556 S
C95 O91 1.246 . S
C95 O92 1.259 . S
C96 O93 1.252 1_554 S
C96 O94 1.273 1_554 S
O97 Mg84 2.010 . S
O97 C89 1.249 . S
Mg98 O99 2.028 . S
Mg98 O105 1.986 . S
Mg98 O107 2.114 . S
Mg98 O108 2.251 . S
Mg98 O111 2.010 . S
O99 Mg98 2.028 . S
O99 C102 1.250 . S
O100 Mg101 2.028 . S
O100 C102 1.248 . S
Mg101 O100 2.028 . S
Mg101 O106 2.032 . S
Mg101 O108 2.079 . S
C102 O99 1.250 . S
C102 O100 1.248 . S
C103 O104 1.264 . S
C103 O111 1.249 . S
O104 C103 1.264 . S
O105 Mg98 1.986 . S
O105 C109 1.246 . S
O106 Mg101 2.032 . S
O106 C109 1.259 . S
O107 Mg98 2.114 . S
O107 C110 1.252 . S
O108 Mg98 2.251 . S
O108 Mg101 2.079 . S
O108 C110 1.273 . S
C109 O105 1.246 . S
C109 O106 1.259 . S
C110 O107 1.252 . S
C110 O108 1.273 . S
O111 Mg98 2.010 . S
O111 C103 1.249 . S
Mg112 O113 2.028 . S
Mg112 O119 1.986 . S
Mg112 O121 2.114 . S
Mg112 O122 2.251 . S
Mg112 O125 2.010 1_655 S
O113 Mg112 2.028 . S
O113 C116 1.250 . S
O114 Mg115 2.028 . S
O114 C116 1.248 . S
Mg115 O114 2.028 . S
Mg115 O120 2.032 . S
Mg115 O122 2.079 . S
C116 O113 1.250 . S
C116 O114 1.248 . S
C117 O118 1.264 . S
C117 O125 1.249 . S
O118 C117 1.264 . S
O119 Mg112 1.986 . S
O119 C123 1.246 . S
O120 Mg115 2.032 . S
O120 C123 1.259 . S
O121 Mg112 2.114 . S
O121 C124 1.252 1_556 S
O122 Mg112 2.251 . S
O122 Mg115 2.079 . S
O122 C124 1.273 1_556 S
C123 O119 1.246 . S
C123 O120 1.259 . S
C124 O121 1.252 1_554 S
C124 O122 1.273 1_554 S
O125 Mg112 2.010 1_455 S
O125 C117 1.249 . S
Mg126 O127 2.028 . S
Mg126 O133 1.986 . S
Mg126 O135 2.114 . S
Mg126 O136 2.251 . S
Mg126 O139 2.010 1_565 S
O127 Mg126 2.028 . S
O127 C130 1.250 . S
O128 Mg129 2.028 . S
O128 C130 1.248 . S
Mg129 O128 2.028 . S
Mg129 O134 2.032 . S
Mg129 O136 2.079 . S
C130 O127 1.250 . S
C130 O128 1.248 . S
C131 O132 1.264 . S
C131 O139 1.249 . S
O132 C131 1.264 . S
O133 Mg126 1.986 . S
O133 C137 1.246 . S
O134 Mg129 2.032 . S
O134 C137 1.259 . S
O135 Mg126 2.114 . S
O135 C138 1.252 . S
O136 Mg126 2.251 . S
O136 Mg129 2.079 . S
O136 C138 1.273 . S
C137 O133 1.246 . S
C137 O134 1.259 . S
C138 O135 1.252 . S
C138 O136 1.273 . S
O139 Mg126 2.010 1_545 S
O139 C131 1.249 . S
Mg140 O141 2.028 . S
Mg140 O147 1.986 . S
Mg140 O149 2.114 . S
Mg140 O150 2.251 . S
Mg140 O153 2.010 . S
O141 Mg140 2.028 . S
O141 C144 1.250 . S
O142 Mg143 2.028 . S
O142 C144 1.248 . S
Mg143 O142 2.028 . S
Mg143 O148 2.032 . S
Mg143 O150 2.079 . S
C144 O141 1.250 . S
C144 O142 1.248 . S
C145 O146 1.264 . S
C145 O153 1.249 . S
O146 C145 1.264 . S
O147 Mg140 1.986 . S
O147 C151 1.246 . S
O148 Mg143 2.032 . S
O148 C151 1.259 . S
O149 Mg140 2.114 . S
O149 C152 1.252 1_556 S
O150 Mg140 2.251 . S
O150 Mg143 2.079 . S
O150 C152 1.273 1_556 S
C151 O147 1.246 . S
C151 O148 1.259 . S
C152 O149 1.252 1_554 S
C152 O150 1.273 1_554 S
O153 Mg140 2.010 . S
O153 C145 1.249 . S
Mg154 O155 2.028 . S
Mg154 O161 1.986 . S
Mg154 O163 2.114 . S
Mg154 O164 2.251 . S
Mg154 O167 2.010 . S
O155 Mg154 2.028 . S
O155 C158 1.250 . S
O156 Mg157 2.028 . S
O156 C158 1.248 . S
Mg157 O156 2.028 . S
Mg157 O162 2.032 . S
Mg157 O164 2.079 . S
C158 O155 1.250 . S
C158 O156 1.248 . S
C159 O160 1.264 . S
C159 O167 1.249 . S
O160 C159 1.264 . S
O161 Mg154 1.986 . S
O161 C165 1.246 . S
O162 Mg157 2.032 . S
O162 C165 1.259 . S
O163 Mg154 2.114 . S
O163 C166 1.252 . S
O164 Mg154 2.251 . S
O164 Mg157 2.079 . S
O164 C166 1.273 . S
C165 O161 1.246 . S
C165 O162 1.259 . S
C166 O163 1.252 . S
C166 O164 1.273 . S
O167 Mg154 2.010 . S
O167 C159 1.249 . S
Mg168 O169 2.028 . S
Mg168 O175 1.986 . S
Mg168 O177 2.114 . S
Mg168 O178 2.251 . S
Mg168 O181 2.010 1_655 S
O169 Mg168 2.028 . S
O169 C172 1.250 . S
O170 Mg171 2.028 . S
O170 C172 1.248 . S
Mg171 O170 2.028 . S
Mg171 O176 2.032 . S
Mg171 O178 2.079 . S
C172 O169 1.250 . S
C172 O170 1.248 . S
C173 O174 1.264 . S
C173 O181 1.249 . S
O174 C173 1.264 . S
O175 Mg168 1.986 . S
O175 C179 1.246 . S
O176 Mg171 2.032 . S
O176 C179 1.259 . S
O177 Mg168 2.114 . S
O177 C180 1.252 1_554 S
O178 Mg168 2.251 . S
O178 Mg171 2.079 . S
O178 C180 1.273 1_554 S
C179 O175 1.246 . S
C179 O176 1.259 . S
C180 O177 1.252 1_556 S
C180 O178 1.273 1_556 S
O181 Mg168 2.010 1_455 S
O181 C173 1.249 . S
Mg182 O183 2.028 . S
Mg182 O189 1.986 . S
Mg182 O191 2.114 . S
Mg182 O192 2.251 . S
Mg182 O195 2.010 1_565 S
O183 Mg182 2.028 . S
O183 C186 1.250 . S
O184 Mg185 2.028 . S
O184 C186 1.248 . S
Mg185 O184 2.028 . S
Mg185 O190 2.032 . S
Mg185 O192 2.079 . S
C186 O183 1.250 . S
C186 O184 1.248 . S
C187 O188 1.264 . S
C187 O195 1.249 . S
O188 C187 1.264 . S
O189 Mg182 1.986 . S
O189 C193 1.246 . S
O190 Mg185 2.032 . S
O190 C193 1.259 . S
O191 Mg182 2.114 . S
O191 C194 1.252 . S
O192 Mg182 2.251 . S
O192 Mg185 2.079 . S
O192 C194 1.273 . S
C193 O189 1.246 . S
C193 O190 1.259 . S
C194 O191 1.252 . S
C194 O192 1.273 . S
O195 Mg182 2.010 1_545 S
O195 C187 1.249 . S
Mg196 O197 2.028 . S
Mg196 O203 1.986 . S
Mg196 O205 2.114 . S
Mg196 O206 2.251 . S
Mg196 O209 2.010 . S
O197 Mg196 2.028 . S
O197 C200 1.250 . S
O198 Mg199 2.028 . S
O198 C200 1.248 . S
Mg199 O198 2.028 . S
Mg199 O204 2.032 . S
Mg199 O206 2.079 . S
C200 O197 1.250 . S
C200 O198 1.248 . S
C201 O202 1.264 . S
C201 O209 1.249 . S
O202 C201 1.264 . S
O203 Mg196 1.986 . S
O203 C207 1.246 . S
O204 Mg199 2.032 . S
O204 C207 1.259 . S
O205 Mg196 2.114 . S
O205 C208 1.252 1_554 S
O206 Mg196 2.251 . S
O206 Mg199 2.079 . S
O206 C208 1.273 1_554 S
C207 O203 1.246 . S
C207 O204 1.259 . S
C208 O205 1.252 1_556 S
C208 O206 1.273 1_556 S
O209 Mg196 2.010 . S
O209 C201 1.249 . S
Mg210 O211 2.028 . S
Mg210 O217 1.986 . S
Mg210 O219 2.114 . S
Mg210 O220 2.251 . S
Mg210 O223 2.010 . S
O211 Mg210 2.028 . S
O211 C214 1.250 . S
O212 Mg213 2.028 . S
O212 C214 1.248 . S
Mg213 O212 2.028 . S
Mg213 O218 2.032 . S
Mg213 O220 2.079 . S
C214 O211 1.250 . S
C214 O212 1.248 . S
C215 O216 1.264 . S
C215 O223 1.249 . S
O216 C215 1.264 . S
O217 Mg210 1.986 . S
O217 C221 1.246 . S
O218 Mg213 2.032 . S
O218 C221 1.259 . S
O219 Mg210 2.114 . S
O219 C222 1.252 . S
O220 Mg210 2.251 . S
O220 Mg213 2.079 . S
O220 C222 1.273 . S
C221 O217 1.246 . S
C221 O218 1.259 . S
C222 O219 1.252 . S
C222 O220 1.273 . S
O223 Mg210 2.010 . S
O223 C215 1.249 . S
H224 C232 0.950 1_655 S
H225 C237 0.950 . S
H226 C234 0.950 1_655 S
H227 C236 0.950 1_556 S
H228 C238 0.950 . S
H229 C240 0.950 . S
H230 C242 0.950 1_654 S
H231 C243 0.950 1_655 S
C232 H224 0.950 1_455 S
C232 C233 1.386 . S
C232 C234 1.391 . S
C233 C232 1.386 . S
C233 C237 1.393 . S
C234 H226 0.950 1_455 S
C234 C232 1.391 . S
C234 C235 1.400 . S
C235 C234 1.400 . S
C235 C236 1.398 . S
C235 C241 1.491 1_554 S
C236 H227 0.950 1_554 S
C236 C235 1.398 . S
C236 C237 1.391 . S
C237 H225 0.950 . S
C237 C233 1.393 . S
C237 C236 1.391 . S
C238 H228 0.950 . S
C238 C239 1.386 . S
C238 C240 1.391 . S
C239 C238 1.386 . S
C239 C243 1.393 . S
C240 H229 0.950 . S
C240 C238 1.391 . S
C240 C241 1.400 . S
C241 C235 1.491 1_556 S
C241 C240 1.400 . S
C241 C242 1.398 . S
C242 H230 0.950 1_456 S
C242 C241 1.398 . S
C242 C243 1.391 . S
C243 H231 0.950 1_455 S
C243 C239 1.393 . S
C243 C242 1.391 . S
H244 C252 0.950 . S
H245 C257 0.950 1_565 S
H246 C254 0.950 . S
H247 C256 0.950 1_565 S
H248 C258 0.950 1_565 S
H249 C260 0.950 1_565 S
H250 C262 0.950 . S
H251 C263 0.950 . S
C252 H244 0.950 . S
C252 C253 1.386 . S
C252 C254 1.391 . S
C253 C252 1.386 . S
C253 C257 1.393 . S
C254 H246 0.950 . S
C254 C252 1.391 . S
C254 C255 1.400 . S
C255 C254 1.400 . S
C255 C256 1.398 . S
C255 C261 1.491 . S
C256 H247 0.950 1_545 S
C256 C255 1.398 . S
C256 C257 1.391 . S
C257 H245 0.950 1_545 S
C257 C253 1.393 . S
C257 C256 1.391 . S
C258 H248 0.950 1_545 S
C258 C259 1.386 . S
C258 C260 1.391 . S
C259 C258 1.386 . S
C259 C263 1.393 . S
C260 H249 0.950 1_545 S
C260 C258 1.391 . S
C260 C261 1.400 . S
C261 C255 1.491 . S
C261 C260 1.400 . S
C261 C262 1.398 . S
C262 H250 0.950 . S
C262 C261 1.398 . S
C262 C263 1.391 . S
C263 H251 0.950 . S
C263 C259 1.393 . S
C263 C262 1.391 . S
H264 C272 0.950 . S
H265 C277 0.950 . S
H266 C274 0.950 . S
H267 C276 0.950 . S
H268 C278 0.950 . S
H269 C280 0.950 . S
H270 C282 0.950 . S
H271 C283 0.950 . S
C272 H264 0.950 . S
C272 C273 1.386 . S
C272 C274 1.391 . S
C273 C272 1.386 . S
C273 C277 1.393 . S
C274 H266 0.950 . S
C274 C272 1.391 . S
C274 C275 1.400 . S
C275 C274 1.400 . S
C275 C276 1.398 1_554 S
C275 C281 1.491 1_554 S
C276 H267 0.950 . S
C276 C275 1.398 1_556 S
C276 C277 1.391 1_556 S
C277 H265 0.950 . S
C277 C273 1.393 . S
C277 C276 1.391 1_554 S
C278 H268 0.950 . S
C278 C279 1.386 . S
C278 C280 1.391 . S
C279 C278 1.386 . S
C279 C283 1.393 . S
C280 H269 0.950 . S
C280 C278 1.391 . S
C280 C281 1.400 . S
C281 C275 1.491 1_556 S
C281 C280 1.400 . S
C281 C282 1.398 1_556 S
C282 H270 0.950 . S
C282 C281 1.398 1_554 S
C282 C283 1.391 1_554 S
C283 H271 0.950 . S
C283 C279 1.393 . S
C283 C282 1.391 1_556 S
H284 C292 0.950 . S
H285 C297 0.950 . S
H286 C294 0.950 . S
H287 C296 0.950 . S
H288 C298 0.950 . S
H289 C300 0.950 . S
H290 C302 0.950 . S
H291 C303 0.950 . S
C292 H284 0.950 . S
C292 C293 1.386 . S
C292 C294 1.391 . S
C293 C292 1.386 . S
C293 C297 1.393 . S
C294 H286 0.950 . S
C294 C292 1.391 . S
C294 C295 1.400 . S
C295 C294 1.400 . S
C295 C296 1.398 . S
C295 C301 1.491 . S
C296 H287 0.950 . S
C296 C295 1.398 . S
C296 C297 1.391 . S
C297 H285 0.950 . S
C297 C293 1.393 . S
C297 C296 1.391 . S
C298 H288 0.950 . S
C298 C299 1.386 . S
C298 C300 1.391 . S
C299 C298 1.386 . S
C299 C303 1.393 . S
C300 H289 0.950 . S
C300 C298 1.391 . S
C300 C301 1.400 . S
C301 C295 1.491 . S
C301 C300 1.400 . S
C301 C302 1.398 . S
C302 H290 0.950 . S
C302 C301 1.398 . S
C302 C303 1.391 . S
C303 H291 0.950 . S
C303 C299 1.393 . S
C303 C302 1.391 . S
H304 C312 0.950 . S
H305 C317 0.950 . S
H306 C314 0.950 . S
H307 C316 0.950 . S
H308 C318 0.950 . S
H309 C320 0.950 . S
H310 C322 0.950 . S
H311 C323 0.950 . S
C312 H304 0.950 . S
C312 C313 1.386 1_554 S
C312 C314 1.391 . S
C313 C312 1.386 1_556 S
C313 C317 1.393 . S
C314 H306 0.950 . S
C314 C312 1.391 . S
C314 C315 1.400 1_554 S
C315 C314 1.400 1_556 S
C315 C316 1.398 . S
C315 C321 1.491 1_556 S
C316 H307 0.950 . S
C316 C315 1.398 . S
C316 C317 1.391 . S
C317 H305 0.950 . S
C317 C313 1.393 . S
C317 C316 1.391 . S
C318 H308 0.950 . S
C318 C319 1.386 1_556 S
C318 C320 1.391 . S
C319 C318 1.386 1_554 S
C319 C323 1.393 . S
C320 H309 0.950 . S
C320 C318 1.391 . S
C320 C321 1.400 1_556 S
C321 C315 1.491 1_554 S
C321 C320 1.400 1_554 S
C321 C322 1.398 . S
C322 H310 0.950 . S
C322 C321 1.398 . S
C322 C323 1.391 . S
C323 H311 0.950 . S
C323 C319 1.393 . S
C323 C322 1.391 . S
H324 C332 0.939 1_545 S
H325 C337 0.950 . S
H326 C334 0.952 1_545 S
H327 C336 0.950 . S
H328 C338 0.950 . S
H329 C340 0.950 . S
H330 C342 0.950 . S
H331 C343 0.983 . S
C332 H324 0.939 1_565 S
C332 C333 1.386 . S
C332 C334 1.391 . S
C333 C332 1.386 . S
C333 C337 1.393 . S
C334 H326 0.952 1_565 S
C334 C332 1.391 . S
C334 C335 1.400 . S
C335 C334 1.400 . S
C335 C336 1.398 . S
C335 C341 1.491 . S
C336 H327 0.950 . S
C336 C335 1.398 . S
C336 C337 1.391 . S
C337 H325 0.950 . S
C337 C333 1.393 . S
C337 C336 1.391 . S
C338 H328 0.950 . S
C338 C339 1.386 . S
C338 C340 1.391 . S
C339 C338 1.386 . S
C339 C343 1.393 . S
C340 H329 0.950 . S
C340 C338 1.391 . S
C340 C341 1.400 . S
C341 C335 1.491 . S
C341 C340 1.400 . S
C341 C342 1.398 . S
C342 H330 0.950 . S
C342 C341 1.398 . S
C342 C343 1.391 . S
C343 H331 0.983 . S
C343 C339 1.393 . S
C343 C342 1.391 . S
H344 C352 0.950 . S
H345 C357 0.950 1_554 S
H346 C354 0.950 . S
H347 C356 0.950 . S
H348 C358 0.950 . S
H349 C360 0.950 . S
H350 C362 0.950 . S
H351 C363 0.950 1_556 S
C352 H344 0.950 . S
C352 C353 1.386 . S
C352 C354 1.391 . S
C353 C352 1.386 . S
C353 C357 1.393 . S
C354 H346 0.950 . S
C354 C352 1.391 . S
C354 C355 1.400 . S
C355 C354 1.400 . S
C355 C356 1.398 1_556 S
C355 C361 1.491 1_556 S
C356 H347 0.950 . S
C356 C355 1.398 1_554 S
C356 C357 1.391 1_554 S
C357 H345 0.950 1_556 S
C357 C353 1.393 . S
C357 C356 1.391 1_556 S
C358 H348 0.950 . S
C358 C359 1.386 . S
C358 C360 1.391 . S
C359 C358 1.386 . S
C359 C363 1.393 . S
C360 H349 0.950 . S
C360 C358 1.391 . S
C360 C361 1.400 . S
C361 C355 1.491 1_554 S
C361 C360 1.400 . S
C361 C362 1.398 1_554 S
C362 H350 0.950 . S
C362 C361 1.398 1_556 S
C362 C363 1.391 1_556 S
C363 H351 0.950 1_554 S
C363 C359 1.393 . S
C363 C362 1.391 1_554 S
H364 C372 0.950 . S
H365 C377 0.950 . S
H366 C374 0.950 . S
H367 C376 0.950 . S
H368 C378 0.950 . S
H369 C380 0.950 . S
H370 C382 0.950 . S
H371 C383 0.950 . S
C372 H364 0.950 . S
C372 C373 1.386 . S
C372 C374 1.391 . S
C373 C372 1.386 . S
C373 C377 1.393 . S
C374 H366 0.950 . S
C374 C372 1.391 . S
C374 C375 1.400 . S
C375 C374 1.400 . S
C375 C376 1.398 . S
C375 C381 1.491 . S
C376 H367 0.950 . S
C376 C375 1.398 . S
C376 C377 1.391 . S
C377 H365 0.950 . S
C377 C373 1.393 . S
C377 C376 1.391 . S
C378 H368 0.950 . S
C378 C379 1.386 . S
C378 C380 1.391 . S
C379 C378 1.386 . S
C379 C383 1.393 . S
C380 H369 0.950 . S
C380 C378 1.391 . S
C380 C381 1.400 . S
C381 C375 1.491 . S
C381 C380 1.400 . S
C381 C382 1.398 . S
C382 H370 0.950 . S
C382 C381 1.398 . S
C382 C383 1.391 . S
C383 H371 0.950 . S
C383 C379 1.393 . S
C383 C382 1.391 . S
H384 C392 0.950 . S
H385 C397 0.950 . S
H386 C394 0.950 . S
H387 C396 0.950 . S
H388 C398 0.950 . S
H389 C400 0.950 . S
H390 C402 0.950 . S
H391 C403 0.950 . S
C392 H384 0.950 . S
C392 C393 1.386 . S
C392 C394 1.391 . S
C393 C392 1.386 . S
C393 C397 1.393 . S
C394 H386 0.950 . S
C394 C392 1.391 . S
C394 C395 1.400 . S
C395 C394 1.400 . S
C395 C396 1.398 . S
C395 C401 1.491 . S
C396 H387 0.950 . S
C396 C395 1.398 . S
C396 C397 1.391 . S
C397 H385 0.950 . S
C397 C393 1.393 . S
C397 C396 1.391 . S
C398 H388 0.950 . S
C398 C399 1.386 . S
C398 C400 1.391 . S
C399 C398 1.386 . S
C399 C403 1.393 . S
C400 H389 0.950 . S
C400 C398 1.391 . S
C400 C401 1.400 . S
C401 C395 1.491 . S
C401 C400 1.400 . S
C401 C402 1.398 . S
C402 H390 0.950 . S
C402 C401 1.398 . S
C402 C403 1.391 . S
C403 H391 0.950 . S
C403 C399 1.393 . S
C403 C402 1.391 . S
H404 C412 0.950 . S
H405 C417 0.950 . S
H406 C414 0.950 . S
H407 C416 0.950 . S
H408 C418 0.950 . S
H409 C420 0.950 . S
H410 C422 0.950 . S
H411 C423 0.950 . S
C412 H404 0.950 . S
C412 C413 1.386 . S
C412 C414 1.391 . S
C413 C412 1.386 . S
C413 C417 1.393 . S
C414 H406 0.950 . S
C414 C412 1.391 . S
C414 C415 1.400 . S
C415 C414 1.400 . S
C415 C416 1.398 . S
C415 C421 1.491 . S
C416 H407 0.950 . S
C416 C415 1.398 . S
C416 C417 1.391 . S
C417 H405 0.950 . S
C417 C413 1.393 . S
C417 C416 1.391 . S
C418 H408 0.950 . S
C418 C419 1.386 . S
C418 C420 1.391 . S
C419 C418 1.386 . S
C419 C423 1.393 . S
C420 H409 0.950 . S
C420 C418 1.391 . S
C420 C421 1.400 . S
C421 C415 1.491 . S
C421 C420 1.400 . S
C421 C422 1.398 . S
C422 H410 0.950 . S
C422 C421 1.398 . S
C422 C423 1.391 . S
C423 H411 0.950 . S
C423 C419 1.393 . S
C423 C422 1.391 . S
H424 C432 0.950 . S
H425 C437 0.950 . S
H426 C434 0.950 . S
H427 C436 0.950 . S
H428 C438 0.950 . S
H429 C440 0.950 . S
H430 C442 0.950 . S
H431 C443 0.950 . S
C432 H424 0.950 . S
C432 C433 1.386 . S
C432 C434 1.391 . S
C433 C432 1.386 . S
C433 C437 1.393 . S
C434 H426 0.950 . S
C434 C432 1.391 . S
C434 C435 1.400 . S
C435 C434 1.400 . S
C435 C436 1.398 . S
C435 C441 1.491 . S
C436 H427 0.950 . S
C436 C435 1.398 . S
C436 C437 1.391 . S
C437 H425 0.950 . S
C437 C433 1.393 . S
C437 C436 1.391 . S
C438 H428 0.950 . S
C438 C439 1.386 . S
C438 C440 1.391 . S
C439 C438 1.386 . S
C439 C443 1.393 . S
C440 H429 0.950 . S
C440 C438 1.391 . S
C440 C441 1.400 . S
C441 C435 1.491 . S
C441 C440 1.400 . S
C441 C442 1.398 . S
C442 H430 0.950 . S
C442 C441 1.398 . S
C442 C443 1.391 . S
C443 H431 0.950 . S
C443 C439 1.393 . S
C443 C442 1.391 . S
H444 C452 0.950 . S
H445 C457 0.950 . S
H446 C454 0.950 . S
H447 C456 0.950 . S
H448 C458 0.950 . S
H449 C460 0.950 . S
H450 C462 0.950 . S
H451 C463 0.950 . S
C452 H444 0.950 . S
C452 C453 1.386 . S
C452 C454 1.391 . S
C453 C452 1.386 . S
C453 C457 1.393 . S
C454 H446 0.950 . S
C454 C452 1.391 . S
C454 C455 1.400 . S
C455 C454 1.400 . S
C455 C456 1.398 . S
C455 C461 1.491 . S
C456 H447 0.950 . S
C456 C455 1.398 . S
C456 C457 1.391 . S
C457 H445 0.950 . S
C457 C453 1.393 . S
C457 C456 1.391 . S
C458 H448 0.950 . S
C458 C459 1.386 . S
C458 C460 1.391 . S
C459 C458 1.386 . S
C459 C463 1.393 . S
C460 H449 0.950 . S
C460 C458 1.391 . S
C460 C461 1.400 . S
C461 C455 1.491 . S
C461 C460 1.400 . S
C461 C462 1.398 . S
C462 H450 0.950 . S
C462 C461 1.398 . S
C462 C463 1.391 . S
C463 H451 0.950 . S
C463 C459 1.393 . S
C463 C462 1.391 . S
H464 C472 0.950 . S
H465 C477 0.950 . S
H466 C474 0.950 . S
H467 C476 0.950 . S
H468 C478 0.950 . S
H469 C480 0.950 . S
H470 C482 0.950 . S
H471 C483 0.950 . S
C472 H464 0.950 . S
C472 C473 1.386 . S
C472 C474 1.391 . S
C473 C472 1.386 . S
C473 C477 1.393 . S
C474 H466 0.950 . S
C474 C472 1.391 . S
C474 C475 1.400 . S
C475 C474 1.400 . S
C475 C476 1.398 . S
C475 C481 1.491 . S
C476 H467 0.950 . S
C476 C475 1.398 . S
C476 C477 1.391 . S
C477 H465 0.950 . S
C477 C473 1.393 . S
C477 C476 1.391 . S
C478 H468 0.950 . S
C478 C479 1.386 . S
C478 C480 1.391 . S
C479 C478 1.386 . S
C479 C483 1.393 . S
C480 H469 0.950 . S
C480 C478 1.391 . S
C480 C481 1.400 . S
C481 C475 1.491 . S
C481 C480 1.400 . S
C481 C482 1.398 . S
C482 H470 0.950 . S
C482 C481 1.398 . S
C482 C483 1.391 . S
C483 H471 0.950 . S
C483 C479 1.393 . S
C483 C482 1.391 . S
H484 C492 0.950 . S
H485 C497 0.950 . S
H486 C494 0.950 . S
H487 C496 0.950 . S
H488 C498 0.950 . S
H489 C500 0.950 . S
H490 C502 0.950 . S
H491 C503 0.950 . S
C492 H484 0.950 . S
C492 C493 1.386 . S
C492 C494 1.391 . S
C493 C492 1.386 . S
C493 C497 1.393 . S
C494 H486 0.950 . S
C494 C492 1.391 . S
C494 C495 1.400 . S
C495 C494 1.400 . S
C495 C496 1.398 . S
C495 C501 1.491 . S
C496 H487 0.950 . S
C496 C495 1.398 . S
C496 C497 1.391 . S
C497 H485 0.950 . S
C497 C493 1.393 . S
C497 C496 1.391 . S
C498 H488 0.950 . S
C498 C499 1.386 . S
C498 C500 1.391 . S
C499 C498 1.386 . S
C499 C503 1.393 . S
C500 H489 0.950 . S
C500 C498 1.391 . S
C500 C501 1.400 . S
C501 C495 1.491 . S
C501 C500 1.400 . S
C501 C502 1.398 . S
C502 H490 0.950 . S
C502 C501 1.398 . S
C502 C503 1.391 . S
C503 H491 0.950 . S
C503 C499 1.393 . S
C503 C502 1.391 . S
H504 C512 0.950 . S
H505 C517 0.950 . S
H506 C514 0.950 . S
H507 C516 0.950 . S
H508 C518 0.950 . S
H509 C520 0.950 . S
H510 C522 0.950 . S
H511 C523 0.950 . S
C512 H504 0.950 . S
C512 C513 1.386 . S
C512 C514 1.391 . S
C513 C512 1.386 . S
C513 C517 1.393 . S
C514 H506 0.950 . S
C514 C512 1.391 . S
C514 C515 1.400 . S
C515 C514 1.400 . S
C515 C516 1.398 . S
C515 C521 1.491 . S
C516 H507 0.950 . S
C516 C515 1.398 . S
C516 C517 1.391 . S
C517 H505 0.950 . S
C517 C513 1.393 . S
C517 C516 1.391 . S
C518 H508 0.950 . S
C518 C519 1.386 . S
C518 C520 1.391 . S
C519 C518 1.386 . S
C519 C523 1.393 . S
C520 H509 0.950 . S
C520 C518 1.391 . S
C520 C521 1.400 . S
C521 C515 1.491 . S
C521 C520 1.400 . S
C521 C522 1.398 . S
C522 H510 0.950 . S
C522 C521 1.398 . S
C522 C523 1.391 . S
C523 H511 0.950 . S
C523 C519 1.393 . S
C523 C522 1.391 . S
H524 C532 0.950 . S
H525 C537 0.950 . S
H526 C534 0.950 . S
H527 C536 0.950 . S
H528 C538 0.950 . S
H529 C540 0.950 . S
H530 C542 0.950 . S
H531 C543 0.950 . S
C532 H524 0.950 . S
C532 C533 1.386 . S
C532 C534 1.391 . S
C533 C532 1.386 . S
C533 C537 1.393 . S
C534 H526 0.950 . S
C534 C532 1.391 . S
C534 C535 1.400 . S
C535 C534 1.400 . S
C535 C536 1.398 . S
C535 C541 1.491 . S
C536 H527 0.950 . S
C536 C535 1.398 . S
C536 C537 1.391 . S
C537 H525 0.950 . S
C537 C533 1.393 . S
C537 C536 1.391 . S
C538 H528 0.950 . S
C538 C539 1.386 . S
C538 C540 1.391 . S
C539 C538 1.386 . S
C539 C543 1.393 . S
C540 H529 0.950 . S
C540 C538 1.391 . S
C540 C541 1.400 . S
C541 C535 1.491 . S
C541 C540 1.400 . S
C541 C542 1.398 . S
C542 H530 0.950 . S
C542 C541 1.398 . S
C542 C543 1.391 . S
C543 H531 0.950 . S
C543 C539 1.393 . S
C543 C542 1.391 . S
H544 C552 0.950 . S
H545 C557 0.950 . S
H546 C554 0.950 . S
H547 C556 0.950 . S
H548 C558 0.950 . S
H549 C560 0.950 . S
H550 C562 0.950 . S
H551 C563 0.950 . S
C552 H544 0.950 . S
C552 C553 1.386 . S
C552 C554 1.391 . S
C553 C552 1.386 . S
C553 C557 1.393 . S
C554 H546 0.950 . S
C554 C552 1.391 . S
C554 C555 1.400 . S
C555 C554 1.400 . S
C555 C556 1.398 . S
C555 C561 1.491 . S
C556 H547 0.950 . S
C556 C555 1.398 . S
C556 C557 1.391 . S
C557 H545 0.950 . S
C557 C553 1.393 . S
C557 C556 1.391 . S
C558 H548 0.950 . S
C558 C559 1.386 . S
C558 C560 1.391 . S
C559 C558 1.386 . S
C559 C563 1.393 . S
C560 H549 0.950 . S
C560 C558 1.391 . S
C560 C561 1.400 . S
C561 C555 1.491 . S
C561 C560 1.400 . S
C561 C562 1.398 . S
C562 H550 0.950 . S
C562 C561 1.398 . S
C562 C563 1.391 . S
C563 H551 0.950 . S
C563 C559 1.393 . S
C563 C562 1.391 . S
H564 C572 0.950 . S
H565 C577 0.950 . S
H566 C574 0.950 . S
H567 C576 0.950 . S
H568 C578 0.950 . S
H569 C580 0.950 . S
H570 C582 0.950 . S
H571 C583 0.950 . S
C572 H564 0.950 . S
C572 C573 1.386 . S
C572 C574 1.391 . S
C573 C572 1.386 . S
C573 C577 1.393 . S
C574 H566 0.950 . S
C574 C572 1.391 . S
C574 C575 1.400 . S
C575 C574 1.400 . S
C575 C576 1.398 . S
C575 C581 1.491 . S
C576 H567 0.950 . S
C576 C575 1.398 . S
C576 C577 1.391 . S
C577 H565 0.950 . S
C577 C573 1.393 . S
C577 C576 1.391 . S
C578 H568 0.950 . S
C578 C579 1.386 . S
C578 C580 1.391 . S
C579 C578 1.386 . S
C579 C583 1.393 . S
C580 H569 0.950 . S
C580 C578 1.391 . S
C580 C581 1.400 . S
C581 C575 1.491 . S
C581 C580 1.400 . S
C581 C582 1.398 . S
C582 H570 0.950 . S
C582 C581 1.398 . S
C582 C583 1.391 . S
C583 H571 0.950 . S
C583 C579 1.393 . S
C583 C582 1.391 . S
H584 C592 0.950 . S
H585 C597 0.950 . S
H586 C594 0.950 . S
H587 C596 0.950 . S
H588 C598 0.950 . S
H589 C600 0.950 . S
H590 C602 0.950 . S
H591 C603 0.950 . S
C592 H584 0.950 . S
C592 C593 1.386 . S
C592 C594 1.391 . S
C593 C592 1.386 . S
C593 C597 1.393 . S
C594 H586 0.950 . S
C594 C592 1.391 . S
C594 C595 1.400 . S
C595 C594 1.400 . S
C595 C596 1.398 . S
C595 C601 1.491 . S
C596 H587 0.950 . S
C596 C595 1.398 . S
C596 C597 1.391 . S
C597 H585 0.950 . S
C597 C593 1.393 . S
C597 C596 1.391 . S
C598 H588 0.950 . S
C598 C599 1.386 . S
C598 C600 1.391 . S
C599 C598 1.386 . S
C599 C603 1.393 . S
C600 H589 0.950 . S
C600 C598 1.391 . S
C600 C601 1.400 . S
C601 C595 1.491 . S
C601 C600 1.400 . S
C601 C602 1.398 . S
C602 H590 0.950 . S
C602 C601 1.398 . S
C602 C603 1.391 . S
C603 H591 0.950 . S
C603 C599 1.393 . S
C603 C602 1.391 . S
H604 C612 0.950 . S
H605 C617 0.950 . S
H606 C614 0.950 . S
H607 C616 0.950 . S
H608 C618 0.950 . S
H609 C620 0.950 . S
H610 C622 0.950 . S
H611 C623 0.950 . S
C612 H604 0.950 . S
C612 C613 1.386 . S
C612 C614 1.391 . S
C613 C612 1.386 . S
C613 C617 1.393 . S
C614 H606 0.950 . S
C614 C612 1.391 . S
C614 C615 1.400 . S
C615 C614 1.400 . S
C615 C616 1.398 . S
C615 C621 1.491 . S
C616 H607 0.950 . S
C616 C615 1.398 . S
C616 C617 1.391 . S
C617 H605 0.950 . S
C617 C613 1.393 . S
C617 C616 1.391 . S
C618 H608 0.950 . S
C618 C619 1.386 . S
C618 C620 1.391 . S
C619 C618 1.386 . S
C619 C623 1.393 . S
C620 H609 0.950 . S
C620 C618 1.391 . S
C620 C621 1.400 . S
C621 C615 1.491 . S
C621 C620 1.400 . S
C621 C622 1.398 . S
C622 H610 0.950 . S
C622 C621 1.398 . S
C622 C623 1.391 . S
C623 H611 0.950 . S
C623 C619 1.393 . S
C623 C622 1.391 . S
H624 C632 0.950 . S
H625 C637 0.950 . S
H626 C634 0.950 . S
H627 C636 0.950 . S
H628 C638 0.950 . S
H629 C640 0.950 . S
H630 C642 0.950 . S
H631 C643 0.950 1_554 S
C632 H624 0.950 . S
C632 C633 1.386 . S
C632 C634 1.391 . S
C633 C632 1.386 . S
C633 C637 1.393 . S
C634 H626 0.950 . S
C634 C632 1.391 . S
C634 C635 1.400 . S
C635 C634 1.400 . S
C635 C636 1.398 . S
C635 C641 1.491 . S
C636 H627 0.950 . S
C636 C635 1.398 . S
C636 C637 1.391 . S
C637 H625 0.950 . S
C637 C633 1.393 . S
C637 C636 1.391 . S
C638 H628 0.950 . S
C638 C639 1.386 . S
C638 C640 1.391 . S
C639 C638 1.386 . S
C639 C643 1.393 . S
C640 H629 0.950 . S
C640 C638 1.391 . S
C640 C641 1.400 . S
C641 C635 1.491 . S
C641 C640 1.400 . S
C641 C642 1.398 . S
C642 H630 0.950 . S
C642 C641 1.398 . S
C642 C643 1.391 . S
C643 H631 0.950 1_556 S
C643 C639 1.393 . S
C643 C642 1.391 . S
H644 C652 0.950 . S
H645 C657 0.950 . S
H646 C654 0.950 . S
H647 C656 0.950 . S
H648 C658 0.950 . S
H649 C660 0.950 . S
H650 C662 0.950 . S
H651 C663 0.950 . S
C652 H644 0.950 . S
C652 C653 1.386 . S
C652 C654 1.391 . S
C653 C652 1.386 . S
C653 C657 1.393 . S
C654 H646 0.950 . S
C654 C652 1.391 . S
C654 C655 1.400 . S
C655 C654 1.400 . S
C655 C656 1.398 . S
C655 C661 1.491 . S
C656 H647 0.950 . S
C656 C655 1.398 . S
C656 C657 1.391 . S
C657 H645 0.950 . S
C657 C653 1.393 . S
C657 C656 1.391 . S
C658 H648 0.950 . S
C658 C659 1.386 . S
C658 C660 1.391 . S
C659 C658 1.386 . S
C659 C663 1.393 . S
C660 H649 0.950 . S
C660 C658 1.391 . S
C660 C661 1.400 . S
C661 C655 1.491 . S
C661 C660 1.400 . S
C661 C662 1.398 . S
C662 H650 0.950 . S
C662 C661 1.398 . S
C662 C663 1.391 . S
C663 H651 0.950 . S
C663 C659 1.393 . S
C663 C662 1.391 . S
H664 C672 0.950 . S
H665 C677 0.950 . S
H666 C674 0.950 . S
H667 C676 0.950 . S
H668 C678 0.950 . S
H669 C680 0.950 . S
H670 C682 0.950 . S
H671 C683 0.950 . S
C672 H664 0.950 . S
C672 C673 1.386 . S
C672 C674 1.391 . S
C673 C672 1.386 . S
C673 C677 1.393 . S
C674 H666 0.950 . S
C674 C672 1.391 . S
C674 C675 1.400 . S
C675 C674 1.400 . S
C675 C676 1.398 . S
C675 C681 1.491 . S
C676 H667 0.950 . S
C676 C675 1.398 . S
C676 C677 1.391 . S
C677 H665 0.950 . S
C677 C673 1.393 . S
C677 C676 1.391 . S
C678 H668 0.950 . S
C678 C679 1.386 . S
C678 C680 1.391 . S
C679 C678 1.386 . S
C679 C683 1.393 . S
C680 H669 0.950 . S
C680 C678 1.391 . S
C680 C681 1.400 . S
C681 C675 1.491 . S
C681 C680 1.400 . S
C681 C682 1.398 . S
C682 H670 0.950 . S
C682 C681 1.398 . S
C682 C683 1.391 . S
C683 H671 0.950 . S
C683 C679 1.393 . S
C683 C682 1.391 . S
H684 C692 0.950 . S
H685 C697 0.950 . S
H686 C694 0.950 . S
H687 C696 0.950 . S
H688 C698 0.950 . S
H689 C700 0.950 . S
H690 C702 0.950 . S
H691 C703 0.950 . S
C692 H684 0.950 . S
C692 C693 1.386 . S
C692 C694 1.391 . S
C693 C692 1.386 . S
C693 C697 1.393 . S
C694 H686 0.950 . S
C694 C692 1.391 . S
C694 C695 1.400 . S
C695 C694 1.400 . S
C695 C696 1.398 . S
C695 C701 1.491 . S
C696 H687 0.950 . S
C696 C695 1.398 . S
C696 C697 1.391 . S
C697 H685 0.950 . S
C697 C693 1.393 . S
C697 C696 1.391 . S
C698 H688 0.950 . S
C698 C699 1.386 . S
C698 C700 1.391 . S
C699 C698 1.386 . S
C699 C703 1.393 . S
C700 H689 0.950 . S
C700 C698 1.391 . S
C700 C701 1.400 . S
C701 C695 1.491 . S
C701 C700 1.400 . S
C701 C702 1.398 . S
C702 H690 0.950 . S
C702 C701 1.398 . S
C702 C703 1.391 . S
C703 H691 0.950 . S
C703 C699 1.393 . S
C703 C702 1.391 . S
H704 C712 0.950 . S
H705 C717 0.950 . S
H706 C714 0.950 . S
H707 C716 0.950 . S
H708 C718 0.950 . S
H709 C720 0.950 . S
H710 C722 0.950 . S
H711 C723 0.950 . S
C712 H704 0.950 . S
C712 C713 1.386 . S
C712 C714 1.391 . S
C713 C712 1.386 . S
C713 C717 1.393 . S
C714 H706 0.950 . S
C714 C712 1.391 . S
C714 C715 1.400 . S
C715 C714 1.400 . S
C715 C716 1.398 . S
C715 C721 1.491 . S
C716 H707 0.950 . S
C716 C715 1.398 . S
C716 C717 1.391 . S
C717 H705 0.950 . S
C717 C713 1.393 . S
C717 C716 1.391 . S
C718 H708 0.950 . S
C718 C719 1.386 . S
C718 C720 1.391 . S
C719 C718 1.386 . S
C719 C723 1.393 . S
C720 H709 0.950 . S
C720 C718 1.391 . S
C720 C721 1.400 . S
C721 C715 1.491 . S
C721 C720 1.400 . S
C721 C722 1.398 . S
C722 H710 0.950 . S
C722 C721 1.398 . S
C722 C723 1.391 . S
C723 H711 0.950 . S
C723 C719 1.393 . S
C723 C722 1.391 . S
H724 C732 0.950 . S
H725 C737 0.950 . S
H726 C734 0.950 . S
H727 C736 0.950 . S
H728 C738 0.950 . S
H729 C740 0.950 . S
H730 C742 0.950 . S
H731 C743 0.950 . S
C732 H724 0.950 . S
C732 C733 1.386 . S
C732 C734 1.391 . S
C733 C732 1.386 . S
C733 C737 1.393 . S
C734 H726 0.950 . S
C734 C732 1.391 . S
C734 C735 1.400 . S
C735 C734 1.400 . S
C735 C736 1.398 . S
C735 C741 1.491 . S
C736 H727 0.950 . S
C736 C735 1.398 . S
C736 C737 1.391 . S
C737 H725 0.950 . S
C737 C733 1.393 . S
C737 C736 1.391 . S
C738 H728 0.950 . S
C738 C739 1.386 . S
C738 C740 1.391 . S
C739 C738 1.386 . S
C739 C743 1.393 . S
C740 H729 0.950 . S
C740 C738 1.391 . S
C740 C741 1.400 . S
C741 C735 1.491 . S
C741 C740 1.400 . S
C741 C742 1.398 . S
C742 H730 0.950 . S
C742 C741 1.398 . S
C742 C743 1.391 . S
C743 H731 0.950 . S
C743 C739 1.393 . S
C743 C742 1.391 . S
H744 C752 0.950 . S
H745 C757 0.950 . S
H746 C754 0.950 . S
H747 C756 0.950 . S
H748 C758 0.950 . S
H749 C760 0.950 . S
H750 C762 0.950 . S
H751 C763 0.950 . S
C752 H744 0.950 . S
C752 C753 1.386 . S
C752 C754 1.391 . S
C753 C752 1.386 . S
C753 C757 1.393 . S
C754 H746 0.950 . S
C754 C752 1.391 . S
C754 C755 1.400 . S
C755 C754 1.400 . S
C755 C756 1.398 . S
C755 C761 1.491 . S
C756 H747 0.950 . S
C756 C755 1.398 . S
C756 C757 1.391 . S
C757 H745 0.950 . S
C757 C753 1.393 . S
C757 C756 1.391 . S
C758 H748 0.950 . S
C758 C759 1.386 . S
C758 C760 1.391 . S
C759 C758 1.386 . S
C759 C763 1.393 . S
C760 H749 0.950 . S
C760 C758 1.391 . S
C760 C761 1.400 . S
C761 C755 1.491 . S
C761 C760 1.400 . S
C761 C762 1.398 . S
C762 H750 0.950 . S
C762 C761 1.398 . S
C762 C763 1.391 . S
C763 H751 0.950 . S
C763 C759 1.393 . S
C763 C762 1.391 . S
H764 C772 0.950 . S
H765 C777 0.950 . S
H766 C774 0.950 . S
H767 C776 0.950 . S
H768 C778 0.950 . S
H769 C780 0.950 . S
H770 C782 0.950 . S
H771 C783 0.950 . S
C772 H764 0.950 . S
C772 C773 1.386 . S
C772 C774 1.391 . S
C773 C772 1.386 . S
C773 C777 1.393 . S
C774 H766 0.950 . S
C774 C772 1.391 . S
C774 C775 1.400 . S
C775 C774 1.400 . S
C775 C776 1.398 . S
C775 C781 1.491 . S
C776 H767 0.950 . S
C776 C775 1.398 . S
C776 C777 1.391 . S
C777 H765 0.950 . S
C777 C773 1.393 . S
C777 C776 1.391 . S
C778 H768 0.950 . S
C778 C779 1.386 . S
C778 C780 1.391 . S
C779 C778 1.386 . S
C779 C783 1.393 . S
C780 H769 0.950 . S
C780 C778 1.391 . S
C780 C781 1.400 . S
C781 C775 1.491 . S
C781 C780 1.400 . S
C781 C782 1.398 . S
C782 H770 0.950 . S
C782 C781 1.398 . S
C782 C783 1.391 . S
C783 H771 0.950 . S
C783 C779 1.393 . S
C783 C782 1.391 . S
H784 C792 0.950 . S
H785 C797 0.950 . S
H786 C794 0.950 . S
H787 C796 0.950 . S
H788 C798 0.950 . S
H789 C800 0.950 . S
H790 C802 0.950 . S
H791 C803 0.950 . S
C792 H784 0.950 . S
C792 C793 1.386 . S
C792 C794 1.391 . S
C793 C792 1.386 . S
C793 C797 1.393 . S
C794 H786 0.950 . S
C794 C792 1.391 . S
C794 C795 1.400 . S
C795 C794 1.400 . S
C795 C796 1.398 . S
C795 C801 1.491 . S
C796 H787 0.950 . S
C796 C795 1.398 . S
C796 C797 1.391 . S
C797 H785 0.950 . S
C797 C793 1.393 . S
C797 C796 1.391 . S
C798 H788 0.950 . S
C798 C799 1.386 . S
C798 C800 1.391 . S
C799 C798 1.386 . S
C799 C803 1.393 . S
C800 H789 0.950 . S
C800 C798 1.391 . S
C800 C801 1.400 . S
C801 C795 1.491 . S
C801 C800 1.400 . S
C801 C802 1.398 . S
C802 H790 0.950 . S
C802 C801 1.398 . S
C802 C803 1.391 . S
C803 H791 0.950 . S
C803 C799 1.393 . S
C803 C802 1.391 . S
H804 C812 0.950 . S
H805 C817 0.950 . S
H806 C814 0.950 . S
H807 C816 0.950 . S
H808 C818 0.950 . S
H809 C820 0.950 . S
H810 C822 0.950 . S
H811 C823 0.950 . S
C812 H804 0.950 . S
C812 C813 1.386 . S
C812 C814 1.391 . S
C813 C812 1.386 . S
C813 C817 1.393 . S
C814 H806 0.950 . S
C814 C812 1.391 . S
C814 C815 1.400 . S
C815 C814 1.400 . S
C815 C816 1.398 . S
C815 C821 1.491 . S
C816 H807 0.950 . S
C816 C815 1.398 . S
C816 C817 1.391 . S
C817 H805 0.950 . S
C817 C813 1.393 . S
C817 C816 1.391 . S
C818 H808 0.950 . S
C818 C819 1.386 . S
C818 C820 1.391 . S
C819 C818 1.386 . S
C819 C823 1.393 . S
C820 H809 0.950 . S
C820 C818 1.391 . S
C820 C821 1.400 . S
C821 C815 1.491 . S
C821 C820 1.400 . S
C821 C822 1.398 . S
C822 H810 0.950 . S
C822 C821 1.398 . S
C822 C823 1.391 . S
C823 H811 0.950 . S
C823 C819 1.393 . S
C823 C822 1.391 . S
H824 C832 0.950 . S
H825 C837 0.950 . S
H826 C834 0.950 . S
H827 C836 0.950 . S
H828 C838 0.950 . S
H829 C840 0.950 . S
H830 C842 0.950 . S
H831 C843 0.950 . S
C832 H824 0.950 . S
C832 C833 1.386 . S
C832 C834 1.391 . S
C833 C832 1.386 . S
C833 C837 1.393 . S
C834 H826 0.950 . S
C834 C832 1.391 . S
C834 C835 1.400 . S
C835 C834 1.400 . S
C835 C836 1.398 . S
C835 C841 1.491 . S
C836 H827 0.950 . S
C836 C835 1.398 . S
C836 C837 1.391 . S
C837 H825 0.950 . S
C837 C833 1.393 . S
C837 C836 1.391 . S
C838 H828 0.950 . S
C838 C839 1.386 . S
C838 C840 1.391 . S
C839 C838 1.386 . S
C839 C843 1.393 . S
C840 H829 0.950 . S
C840 C838 1.391 . S
C840 C841 1.400 . S
C841 C835 1.491 . S
C841 C840 1.400 . S
C841 C842 1.398 . S
C842 H830 0.950 . S
C842 C841 1.398 . S
C842 C843 1.391 . S
C843 H831 0.950 . S
C843 C839 1.393 . S
C843 C842 1.391 . S
H844 C852 0.950 . S
H845 C857 0.950 . S
H846 C854 0.950 . S
H847 C856 0.950 . S
H848 C858 0.950 . S
H849 C860 0.950 . S
H850 C862 0.950 . S
H851 C863 0.950 . S
C852 H844 0.950 . S
C852 C853 1.386 . S
C852 C854 1.391 . S
C853 C852 1.386 . S
C853 C857 1.393 . S
C854 H846 0.950 . S
C854 C852 1.391 . S
C854 C855 1.400 . S
C855 C854 1.400 . S
C855 C856 1.398 . S
C855 C861 1.491 . S
C856 H847 0.950 . S
C856 C855 1.398 . S
C856 C857 1.391 . S
C857 H845 0.950 . S
C857 C853 1.393 . S
C857 C856 1.391 . S
C858 H848 0.950 . S
C858 C859 1.386 . S
C858 C860 1.391 . S
C859 C858 1.386 . S
C859 C863 1.393 . S
C860 H849 0.950 . S
C860 C858 1.391 . S
C860 C861 1.400 . S
C861 C855 1.491 . S
C861 C860 1.400 . S
C861 C862 1.398 . S
C862 H850 0.950 . S
C862 C861 1.398 . S
C862 C863 1.391 . S
C863 H851 0.950 . S
C863 C859 1.393 . S
C863 C862 1.391 . S
C233 C11 1.051 . S
C239 C67 1.066 . S
C253 C81 1.050 . S
C259 C25 1.034 . S
C273 C39 1.036 . S
C279 C95 1.046 . S
C293 C53 1.067 . S
C299 C109 1.043 . S
C313 C123 1.039 . S
C319 C179 1.066 . S
C333 C193 1.051 . S
C339 C137 1.033 . S
C353 C151 1.067 . S
C359 C207 1.042 . S
C373 C165 1.060 . S
C379 C221 1.033 . S
C393 C12 1.106 . S
C399 C214 1.090 . S
C413 C172 1.112 . S
C419 C26 1.117 . S
C433 C40 1.117 . S
C439 C186 1.109 . S
C453 C200 1.103 . S
C459 C54 1.111 . S
C473 C130 1.112 . S
C479 C68 1.118 . S
C493 C144 1.092 . S
C499 C82 1.108 . S
C513 C158 1.096 . S
C519 C96 1.108 . S
C533 C116 1.099 . S
C539 C110 1.109 . S
C553 C124 1.108 . S
C559 C102 1.093 . S
C573 C60 1.108 . S
C579 C138 1.116 . S
C593 C74 1.097 . S
C599 C152 1.111 . S
C613 C166 1.106 . S
C619 C88 1.093 . S
C633 C18 1.097 . S
C639 C180 1.108 . S
C653 C194 1.106 . S
C659 C32 1.091 . S
C673 C208 1.114 . S
C679 C46 1.109 . S
C693 C222 1.117 . S
C699 C4 1.111 . S
C713 C103 1.320 . S
C719 C5 1.305 . S
C733 C19 1.303 . S
C739 C61 1.314 . S
C753 C33 1.304 . S
C759 C75 1.315 . S
C773 C47 1.339 . S
C779 C89 1.337 . S
C793 C215 1.305 . S
C799 C117 1.318 . S
C813 C173 1.306 . S
C819 C131 1.305 . S
C833 C187 1.324 . S
C839 C145 1.307 . S
C853 C201 1.317 . S
C859 C159 1.304 . S
