# Generated by pormake.
# Topology zfr, (5)-cn, num edge types: 1
# Building blocks:
#     Node 0, Type 0, BuildingBlock: BEQFEK_clean_sbu_0, # of connection points: 5
#     Node 1, Type 0, BuildingBlock: BEQFEK_clean_sbu_0, # of connection points: 5
#     Node 2, Type 0, BuildingBlock: BEQFEK_clean_sbu_0, # of connection points: 5
#     Node 3, Type 0, BuildingBlock: BEQFEK_clean_sbu_0, # of connection points: 5
#     Node 4, Type 0, BuildingBlock: BEQFEK_clean_sbu_0, # of connection points: 5
#     Node 5, Type 0, BuildingBlock: BEQFEK_clean_sbu_0, # of connection points: 5
#     Node 6, Type 0, BuildingBlock: BEQFEK_clean_sbu_0, # of connection points: 5
#     Node 7, Type 0, BuildingBlock: BEQFEK_clean_sbu_0, # of connection points: 5
#     Edge 8, Type (0, 0), BuildingBlock: OJICUG_clean_linker_0, # of connection points: 2
#     Edge 9, Type (0, 0), BuildingBlock: OJICUG_clean_linker_0, # of connection points: 2
#     Edge 10, Type (0, 0), BuildingBlock: OJICUG_clean_linker_0, # of connection points: 2
#     Edge 11, Type (0, 0), BuildingBlock: OJICUG_clean_linker_0, # of connection points: 2
#     Edge 12, Type (0, 0), BuildingBlock: OJICUG_clean_linker_0, # of connection points: 2
#     Edge 13, Type (0, 0), BuildingBlock: OJICUG_clean_linker_0, # of connection points: 2
#     Edge 14, Type (0, 0), BuildingBlock: OJICUG_clean_linker_0, # of connection points: 2
#     Edge 15, Type (0, 0), BuildingBlock: OJICUG_clean_linker_0, # of connection points: 2
#     Edge 16, Type (0, 0), BuildingBlock: OJICUG_clean_linker_0, # of connection points: 2
#     Edge 17, Type (0, 0), BuildingBlock: OJICUG_clean_linker_0, # of connection points: 2
#     Edge 18, Type (0, 0), BuildingBlock: OJICUG_clean_linker_0, # of connection points: 2
#     Edge 19, Type (0, 0), BuildingBlock: OJICUG_clean_linker_0, # of connection points: 2
#     Edge 20, Type (0, 0), BuildingBlock: OJICUG_clean_linker_0, # of connection points: 2
#     Edge 21, Type (0, 0), BuildingBlock: OJICUG_clean_linker_0, # of connection points: 2
#     Edge 22, Type (0, 0), BuildingBlock: OJICUG_clean_linker_0, # of connection points: 2
#     Edge 23, Type (0, 0), BuildingBlock: OJICUG_clean_linker_0, # of connection points: 2
#     Edge 24, Type (0, 0), BuildingBlock: OJICUG_clean_linker_0, # of connection points: 2
#     Edge 25, Type (0, 0), BuildingBlock: OJICUG_clean_linker_0, # of connection points: 2
#     Edge 26, Type (0, 0), BuildingBlock: OJICUG_clean_linker_0, # of connection points: 2
#     Edge 27, Type (0, 0), BuildingBlock: OJICUG_clean_linker_0, # of connection points: 2
# Relax obj value: 0.319
# Max RMSD: 0.247
# Mean RMSD: 0.247
data_MOF--net-zfr--node1-BEQFEK_clean_sbu_0--edge1-OJICUG_clean_linker_0
_symmetry_space_group_name_H-M    P1
_symmetry_Int_Tables_number       1
_symmetry_cell_setting            triclinic
loop_
_symmetry_equiv_pos_as_xyz
'x, y, z'
_cell_length_a     37.171565
_cell_length_b     37.189146
_cell_length_c     14.429611
_cell_angle_alpha  89.997664
_cell_angle_beta   90.003407
_cell_angle_gamma 89.996017
loop_
_atom_site_label
_atom_site_type_symbol
_atom_site_fract_x
_atom_site_fract_y
_atom_site_fract_z
_atom_type_partial_charge
Co0 Co 0.14171 0.35759 0.10996 0.0
Co1 Co 0.09687 0.35167 0.29075 0.0
C2 C 0.13122 0.42142 0.21984 0.0
O3 O 0.14963 0.407 0.1557 0.0
O4 O 0.10969 0.40308 0.26944 0.0
C5 C 0.15288 0.37641 0.9306 0.0
O6 O 0.14309 0.40718 0.96741 0.0
C7 C 0.10503 0.36368 0.48468 0.0
C8 C 0.0614 0.33258 0.55061 0.0
C9 C 0.09171 0.35308 0.56977 0.0
N10 N 0.08393 0.34995 0.41807 0.0
N11 N 0.05742 0.33189 0.45761 0.0
C12 C 0.14013 0.38217 0.46607 0.0
H13 H 0.15095 0.37423 0.39749 0.0
H14 H 0.16022 0.37565 0.52042 0.0
H15 H 0.13572 0.41168 0.46587 0.0
C16 C 0.18538 0.30112 0.20424 0.0
N17 N 0.15698 0.32351 0.19814 0.0
N18 N 0.13666 0.31964 0.27213 0.0
C19 C 0.15088 0.29368 0.32625 0.0
C20 C 0.18243 0.28145 0.28576 0.0
C21 C 0.21463 0.29892 0.13336 0.0
H22 H 0.23104 0.32381 0.13656 0.0
H23 H 0.23223 0.27526 0.14526 0.0
H24 H 0.20261 0.29739 0.06309 0.0
O25 O 0.09 0.35026 0.08204 0.0
O26 O 0.05651 0.34017 0.20617 0.0
H27 H 0.14499 0.25503 0.43811 0.0
H28 H 0.14435 0.30115 0.47205 0.0
C29 C 0.13559 0.2821 0.41753 0.0
H30 H 0.10584 0.2818 0.41398 0.0
H31 H 0.03778 0.31763 0.42127 0.0
O32 O 0.16125 0.35061 0.98433 0.0
C33 C 0.05974 0.34296 0.11851 0.0
Co34 Co 0.63841 0.14148 0.36052 0.0
Co35 Co 0.64445 0.09669 0.54131 0.0
C36 C 0.57461 0.131 0.4706 0.0
O37 O 0.58901 0.1494 0.4064 0.0
O38 O 0.593 0.10949 0.52017 0.0
C39 C 0.61952 0.15239 0.1812 0.0
O40 O 0.58881 0.14241 0.21813 0.0
C41 C 0.63246 0.10476 0.73527 0.0
C42 C 0.66369 0.0612 0.80107 0.0
C43 C 0.64309 0.09143 0.82031 0.0
N44 N 0.64625 0.08374 0.6686 0.0
N45 N 0.6644 0.05727 0.70805 0.0
C46 C 0.61385 0.1398 0.71677 0.0
H47 H 0.62183 0.15071 0.64832 0.0
H48 H 0.62025 0.15985 0.7713 0.0
H49 H 0.58434 0.13529 0.71635 0.0
C50 C 0.69492 0.18519 0.45459 0.0
N51 N 0.67255 0.15678 0.44855 0.0
N52 N 0.67646 0.13648 0.52256 0.0
C53 C 0.70243 0.15073 0.57662 0.0
C54 C 0.71462 0.18228 0.53607 0.0
C55 C 0.69703 0.21448 0.38384 0.0
H56 H 0.67254 0.23143 0.38896 0.0
H57 H 0.72117 0.23155 0.39443 0.0
H58 H 0.6976 0.20259 0.31335 0.0
O59 O 0.64575 0.0898 0.33264 0.0
O60 O 0.65593 0.05635 0.45676 0.0
H61 H 0.74107 0.14497 0.6886 0.0
H62 H 0.69492 0.14419 0.7224 0.0
C63 C 0.71403 0.13549 0.66795 0.0
H64 H 0.71442 0.10576 0.66441 0.0
H65 H 0.67871 0.03769 0.67166 0.0
O66 O 0.64529 0.16096 0.23482 0.0
C67 C 0.65309 0.05956 0.36912 0.0
Co68 Co 0.85468 0.6385 0.61195 0.0
Co69 Co 0.89959 0.64438 0.79269 0.0
C70 C 0.86512 0.57466 0.72182 0.0
O71 O 0.84671 0.58912 0.65772 0.0
O72 O 0.88669 0.59297 0.7714 0.0
C73 C 0.84372 0.61966 0.4326 0.0
O74 O 0.85359 0.58893 0.46953 0.0
C75 C 0.8915 0.63238 0.98668 0.0
C76 C 0.93516 0.66347 0.05248 0.0
C77 C 0.90486 0.64298 0.07173 0.0
N78 N 0.91257 0.64611 0.92001 0.0
N79 N 0.9391 0.66416 0.95947 0.0
C80 C 0.85639 0.61389 0.96817 0.0
H81 H 0.84553 0.62185 0.89964 0.0
H82 H 0.83633 0.6204 0.02261 0.0
H83 H 0.8608 0.58438 0.96794 0.0
C84 C 0.81107 0.69498 0.70629 0.0
N85 N 0.83947 0.6726 0.70011 0.0
N86 N 0.85981 0.67646 0.77408 0.0
C87 C 0.84561 0.70241 0.82824 0.0
C88 C 0.81403 0.71464 0.78782 0.0
C89 C 0.78172 0.69713 0.63566 0.0
H90 H 0.76463 0.67276 0.64119 0.0
H91 H 0.76479 0.72138 0.64608 0.0
H92 H 0.79356 0.69751 0.5651 0.0
O93 O 0.90638 0.64575 0.58405 0.0
O94 O 0.93996 0.65581 0.70804 0.0
H95 H 0.8515 0.74103 0.94017 0.0
H96 H 0.85213 0.6949 0.97403 0.0
C97 C 0.8609 0.71396 0.91956 0.0
H98 H 0.89064 0.71425 0.91602 0.0
H99 H 0.95873 0.67842 0.92308 0.0
O100 O 0.83522 0.64545 0.48623 0.0
C101 C 0.93667 0.65302 0.6204 0.0
Co102 Co 0.35739 0.85466 0.86148 0.0
Co103 Co 0.35148 0.89953 0.04219 0.0
C104 C 0.42124 0.86508 0.9714 0.0
O105 O 0.40679 0.84668 0.9073 0.0
O106 O 0.40292 0.88665 0.02095 0.0
C107 C 0.37626 0.84375 0.68213 0.0
O108 O 0.40698 0.85366 0.71909 0.0
C109 C 0.36349 0.89146 0.23618 0.0
C110 C 0.33235 0.93509 0.30196 0.0
C111 C 0.35288 0.90481 0.32122 0.0
N112 N 0.34974 0.91251 0.16949 0.0
N113 N 0.33165 0.93902 0.20894 0.0
C114 C 0.38202 0.85638 0.2177 0.0
H115 H 0.37404 0.8455 0.14921 0.0
H116 H 0.37555 0.83634 0.27218 0.0
H117 H 0.41154 0.86082 0.21738 0.0
C118 C 0.30088 0.81103 0.95584 0.0
N119 N 0.32326 0.83943 0.94962 0.0
N120 N 0.31939 0.85977 0.02358 0.0
C121 C 0.29344 0.84557 0.07776 0.0
C122 C 0.28122 0.814 0.03737 0.0
C123 C 0.29876 0.78167 0.88531 0.0
H124 H 0.2988 0.79342 0.81466 0.0
H125 H 0.32293 0.76434 0.89171 0.0
H126 H 0.27429 0.76499 0.89517 0.0
O127 O 0.35012 0.90634 0.83357 0.0
O128 O 0.34002 0.93988 0.95755 0.0
H129 H 0.28158 0.89058 0.16552 0.0
H130 H 0.25483 0.85144 0.18975 0.0
C131 C 0.28189 0.86085 0.16908 0.0
H132 H 0.30099 0.8521 0.22353 0.0
H133 H 0.31738 0.95863 0.17254 0.0
O134 O 0.35046 0.83522 0.73574 0.0
C135 C 0.34284 0.93661 0.86992 0.0
Co136 Co 0.14133 0.63838 0.38211 0.0
Co137 Co 0.0964 0.64446 0.20147 0.0
C138 C 0.13093 0.57467 0.27177 0.0
O139 O 0.14933 0.58904 0.33602 0.0
O140 O 0.10935 0.59305 0.22237 0.0
C141 C 0.15192 0.61949 0.56144 0.0
O142 O 0.14175 0.58889 0.52436 0.0
C143 C 0.10441 0.63253 0.00743 0.0
C144 C 0.06079 0.66372 0.94176 0.0
C145 C 0.09103 0.64315 0.92243 0.0
N146 N 0.0834 0.6463 0.07417 0.0
N147 N 0.05689 0.66443 0.03479 0.0
C148 C 0.13947 0.61393 0.0258 0.0
H149 H 0.15046 0.62197 0.09414 0.0
H150 H 0.15948 0.62027 0.9711 0.0
H151 H 0.13495 0.58444 0.02644 0.0
C152 C 0.18495 0.69496 0.28801 0.0
N153 N 0.15654 0.67259 0.29416 0.0
N154 N 0.13617 0.67652 0.22026 0.0
C155 C 0.15036 0.70251 0.1662 0.0
C156 C 0.18196 0.71469 0.2066 0.0
C157 C 0.21438 0.697 0.35843 0.0
H158 H 0.2319 0.67301 0.35121 0.0
H159 H 0.23087 0.72163 0.34913 0.0
H160 H 0.2027 0.69657 0.42916 0.0
O161 O 0.08963 0.64562 0.41007 0.0
O162 O 0.05604 0.65583 0.2862 0.0
H163 H 0.1445 0.74115 0.05429 0.0
H164 H 0.14374 0.69502 0.02044 0.0
C165 C 0.13505 0.71411 0.07495 0.0
H166 H 0.10531 0.71448 0.07861 0.0
H167 H 0.03731 0.67872 0.07125 0.0
O168 O 0.16074 0.64521 0.50793 0.0
C169 C 0.05934 0.65294 0.37382 0.0
Co170 Co 0.35742 0.14124 0.6319 0.0
Co171 Co 0.35152 0.09634 0.45124 0.0
C172 C 0.42127 0.13083 0.52196 0.0
O173 O 0.40682 0.14923 0.58607 0.0
O174 O 0.40294 0.10924 0.47246 0.0
C175 C 0.37631 0.15203 0.81127 0.0
O176 O 0.407 0.14206 0.77425 0.0
C177 C 0.36357 0.10435 0.25723 0.0
C178 C 0.3324 0.06073 0.1915 0.0
C179 C 0.35295 0.09098 0.1722 0.0
N180 N 0.3498 0.08332 0.32394 0.0
N181 N 0.3317 0.05682 0.28452 0.0
C182 C 0.38212 0.13941 0.27567 0.0
H183 H 0.37411 0.15034 0.34409 0.0
H184 H 0.3757 0.15944 0.22109 0.0
H185 H 0.41164 0.13495 0.27613 0.0
C186 C 0.30097 0.18491 0.53728 0.0
N187 N 0.32329 0.15647 0.5437 0.0
N188 N 0.31943 0.13611 0.46979 0.0
C189 C 0.29352 0.15032 0.41547 0.0
C190 C 0.28134 0.18194 0.45569 0.0
C191 C 0.2989 0.21438 0.60754 0.0
H192 H 0.29964 0.2028 0.67836 0.0
H193 H 0.32274 0.23208 0.59968 0.0
H194 H 0.27412 0.23066 0.59855 0.0
O195 O 0.35016 0.08956 0.65983 0.0
O196 O 0.34006 0.056 0.53589 0.0
H197 H 0.28169 0.1053 0.32773 0.0
H198 H 0.25496 0.14443 0.30334 0.0
C199 C 0.28201 0.13503 0.32413 0.0
H200 H 0.30113 0.14377 0.26973 0.0
H201 H 0.3174 0.03723 0.32095 0.0
O202 O 0.35052 0.16064 0.75771 0.0
C203 C 0.34287 0.05929 0.62352 0.0
Co204 Co 0.85482 0.35743 0.88139 0.0
Co205 Co 0.89966 0.35161 0.7006 0.0
C206 C 0.86521 0.42131 0.77163 0.0
O207 O 0.84682 0.40682 0.83571 0.0
O208 O 0.88678 0.40302 0.72198 0.0
C209 C 0.84381 0.37629 0.06073 0.0
O210 O 0.85362 0.40704 0.02379 0.0
C211 C 0.8916 0.36367 0.50664 0.0
C212 C 0.93524 0.33254 0.44087 0.0
C213 C 0.90496 0.35306 0.42161 0.0
N214 N 0.91265 0.34992 0.57333 0.0
N215 N 0.93918 0.33184 0.53388 0.0
C216 C 0.8565 0.38218 0.52513 0.0
H217 H 0.84563 0.37422 0.59365 0.0
H218 H 0.83644 0.3757 0.47068 0.0
H219 H 0.86093 0.41169 0.52541 0.0
C220 C 0.81113 0.30102 0.78689 0.0
N221 N 0.83956 0.32336 0.79316 0.0
N222 N 0.85988 0.31954 0.71915 0.0
C223 C 0.84564 0.29364 0.66488 0.0
C224 C 0.81406 0.28141 0.70527 0.0
C225 C 0.78176 0.29887 0.85744 0.0
H226 H 0.79352 0.29896 0.92809 0.0
H227 H 0.76437 0.32299 0.85095 0.0
H228 H 0.76512 0.27438 0.84764 0.0
O229 O 0.90654 0.35016 0.90926 0.0
O230 O 0.94004 0.34012 0.78513 0.0
H231 H 0.89065 0.28182 0.57698 0.0
H232 H 0.85148 0.2551 0.55274 0.0
C233 C 0.8609 0.28214 0.57349 0.0
H234 H 0.85213 0.30125 0.51912 0.0
H235 H 0.95879 0.31756 0.57029 0.0
O236 O 0.83537 0.35049 0.00711 0.0
C237 C 0.93681 0.34289 0.87278 0.0
Co238 Co 0.63845 0.85472 0.13222 0.0
Co239 Co 0.64443 0.89949 0.95139 0.0
C240 C 0.57462 0.86513 0.02213 0.0
O241 O 0.58906 0.84676 0.08634 0.0
O242 O 0.59298 0.88666 0.97253 0.0
C243 C 0.61956 0.84382 0.31151 0.0
O244 O 0.58885 0.85379 0.27455 0.0
C245 C 0.63244 0.89144 0.75742 0.0
C246 C 0.66366 0.93502 0.69168 0.0
C247 C 0.64307 0.90479 0.6724 0.0
N248 N 0.64622 0.91246 0.82412 0.0
N249 N 0.66436 0.93894 0.7847 0.0
C250 C 0.61385 0.8564 0.77588 0.0
H251 H 0.62183 0.84548 0.84433 0.0
H252 H 0.62026 0.83636 0.72134 0.0
H253 H 0.58434 0.86089 0.77629 0.0
C254 C 0.69499 0.81104 0.0382 0.0
N255 N 0.6726 0.83944 0.0442 0.0
N256 N 0.67648 0.85972 0.97015 0.0
C257 C 0.70245 0.84547 0.91609 0.0
C258 C 0.71467 0.81395 0.9567 0.0
C259 C 0.69713 0.78177 0.10898 0.0
H260 H 0.69746 0.79364 0.17949 0.0
H261 H 0.67277 0.76465 0.10343 0.0
H262 H 0.72141 0.76485 0.09873 0.0
O263 O 0.64575 0.90641 0.16008 0.0
O264 O 0.65589 0.93985 0.03592 0.0
H265 H 0.71439 0.89041 0.82817 0.0
H266 H 0.74105 0.85119 0.80401 0.0
C267 C 0.71401 0.86068 0.8247 0.0
H268 H 0.69488 0.85196 0.77031 0.0
H269 H 0.67867 0.95852 0.82113 0.0
O270 O 0.64534 0.83526 0.25791 0.0
C271 C 0.65307 0.93665 0.12356 0.0
C272 C 0.26694 0.24297 0.39312 0.0
C273 C 0.25579 0.20792 0.41499 0.0
H274 H 0.25224 0.29379 0.3331 0.0
C275 C 0.22072 0.19704 0.39262 0.0
H276 H 0.29401 0.25176 0.40928 0.0
C277 C 0.19728 0.22064 0.34778 0.0
C278 C 0.2083 0.25571 0.32611 0.0
H279 H 0.21154 0.17017 0.40941 0.0
H280 H 0.17039 0.2116 0.33058 0.0
C281 C 0.24335 0.26672 0.34868 0.0
C282 C 0.75303 0.26689 0.64284 0.0
C283 C 0.78811 0.25581 0.66476 0.0
H284 H 0.70219 0.25208 0.58297 0.0
C285 C 0.79903 0.22074 0.64264 0.0
H286 H 0.7442 0.29395 0.65881 0.0
C287 C 0.77544 0.19723 0.59804 0.0
C288 C 0.74033 0.20819 0.57633 0.0
H289 H 0.82593 0.21162 0.65943 0.0
H290 H 0.78452 0.17035 0.58102 0.0
C291 C 0.72929 0.24323 0.59861 0.0
C292 C 0.79904 0.77538 0.85009 0.0
C293 C 0.7881 0.74029 0.82823 0.0
H294 H 0.78455 0.82584 0.9114 0.0
C295 C 0.75303 0.72923 0.85033 0.0
H296 H 0.82594 0.78447 0.83318 0.0
C297 C 0.72931 0.75294 0.89446 0.0
C298 C 0.74036 0.78801 0.91646 0.0
H299 H 0.7442 0.70216 0.83457 0.0
H300 H 0.70223 0.74411 0.91024 0.0
C301 C 0.77546 0.79894 0.89458 0.0
C302 C 0.19693 0.77544 0.1444 0.0
C303 C 0.20788 0.74036 0.16624 0.0
H304 H 0.21137 0.82589 0.08294 0.0
C305 C 0.24295 0.72931 0.14409 0.0
H306 H 0.17004 0.78453 0.16136 0.0
C307 C 0.26665 0.75301 0.09987 0.0
C308 C 0.25557 0.78807 0.07783 0.0
H309 H 0.2518 0.70223 0.15983 0.0
H310 H 0.29373 0.74418 0.08401 0.0
C311 C 0.22048 0.799 0.09981 0.0
C312 C 0.12184 0.39261 0.6858 0.0
C313 C 0.10887 0.35853 0.66081 0.0
H314 H 0.14681 0.42476 0.79064 0.0
C315 C 0.11337 0.32958 0.72206 0.0
H316 H 0.11845 0.41539 0.63987 0.0
C317 C 0.13031 0.33474 0.80759 0.0
C318 C 0.14233 0.36913 0.83386 0.0
H319 H 0.1038 0.303 0.70375 0.0
H320 H 0.1324 0.31219 0.85482 0.0
C321 C 0.13826 0.39789 0.77169 0.0
C322 C 0.66129 0.13006 0.05812 0.0
C323 C 0.62683 0.14187 0.08445 0.0
H324 H 0.69317 0.10375 0.9542 0.0
C325 C 0.59804 0.13764 0.02236 0.0
H326 H 0.68385 0.13228 0.1053 0.0
C327 C 0.6034 0.12127 0.93645 0.0
C328 C 0.63756 0.10851 0.91139 0.0
H329 H 0.57113 0.14603 0.04137 0.0
H330 H 0.58062 0.11776 0.89055 0.0
C331 C 0.66652 0.11316 0.97258 0.0
C332 C 0.8832 0.66648 0.224 0.0
C333 C 0.88774 0.63752 0.16282 0.0
H334 H 0.86413 0.68389 0.35672 0.0
C335 C 0.87482 0.60344 0.18788 0.0
H336 H 0.89273 0.69308 0.20565 0.0
C337 C 0.85841 0.59815 0.27377 0.0
C338 C 0.85428 0.62693 0.33586 0.0
H339 H 0.87824 0.58065 0.14199 0.0
H340 H 0.84989 0.57128 0.29278 0.0
C341 C 0.86626 0.66133 0.30954 0.0
C342 C 0.39247 0.87485 0.43741 0.0
C343 C 0.35835 0.88771 0.41231 0.0
H344 H 0.42467 0.84999 0.54235 0.0
C345 C 0.32938 0.88313 0.47347 0.0
H346 H 0.41527 0.8783 0.39153 0.0
C347 C 0.33455 0.86621 0.55902 0.0
C348 C 0.36898 0.8543 0.58538 0.0
H349 H 0.30276 0.89262 0.45508 0.0
H350 H 0.31198 0.86405 0.60618 0.0
C351 C 0.39778 0.85846 0.52331 0.0
C352 C 0.11281 0.66654 0.77016 0.0
C353 C 0.10807 0.6376 0.83129 0.0
H354 H 0.132 0.68384 0.63746 0.0
C355 C 0.12072 0.60342 0.80615 0.0
H356 H 0.10349 0.6932 0.78859 0.0
C357 C 0.13707 0.59803 0.72022 0.0
C358 C 0.14141 0.62681 0.65819 0.0
H359 H 0.11715 0.58065 0.85203 0.0
H360 H 0.14537 0.5711 0.70114 0.0
C361 C 0.12971 0.66129 0.6846 0.0
C362 C 0.32943 0.11271 0.02 0.0
C363 C 0.35842 0.10807 0.0811 0.0
H364 H 0.31202 0.13184 0.88734 0.0
C365 C 0.39256 0.12088 0.05594 0.0
H366 H 0.3028 0.10328 0.03845 0.0
C367 C 0.39786 0.13726 0.97003 0.0
C368 C 0.36904 0.14149 0.90803 0.0
H369 H 0.41537 0.11738 0.10178 0.0
H370 H 0.42476 0.14568 0.95095 0.0
C371 C 0.3346 0.12964 0.93445 0.0
C372 C 0.87492 0.39258 0.30541 0.0
C373 C 0.88783 0.3585 0.33053 0.0
H374 H 0.84999 0.42472 0.20047 0.0
C375 C 0.88328 0.32952 0.2694 0.0
H376 H 0.87834 0.41539 0.35126 0.0
C377 C 0.86634 0.33466 0.18386 0.0
C378 C 0.85437 0.36905 0.15748 0.0
H379 H 0.89281 0.30293 0.28781 0.0
H380 H 0.8642 0.31209 0.13673 0.0
C381 C 0.8585 0.39785 0.21952 0.0
C382 C 0.59806 0.85858 0.47031 0.0
C383 C 0.62685 0.85435 0.40825 0.0
H384 H 0.58061 0.87846 0.60209 0.0
C385 C 0.66131 0.86617 0.43462 0.0
H386 H 0.57115 0.85018 0.45126 0.0
C387 C 0.66652 0.88307 0.52016 0.0
C388 C 0.63756 0.88772 0.58131 0.0
H389 H 0.68388 0.86395 0.38747 0.0
H390 H 0.69317 0.89248 0.53857 0.0
C391 C 0.60341 0.87495 0.55621 0.0
C392 C 0.99308 0.33848 0.0919 0.0
C393 C 0.02819 0.33926 0.05631 0.0
H394 H 0.93681 0.33891 0.06193 0.0
C395 C 0.03303 0.3386 0.95934 0.0
H396 H 0.98837 0.33892 0.16598 0.0
C397 C 0.00347 0.33847 0.89939 0.0
C398 C 0.96837 0.33923 0.93499 0.0
H399 H 0.05975 0.33895 0.92936 0.0
H400 H 0.00818 0.3389 0.82531 0.0
C401 C 0.96353 0.33857 0.03195 0.0
C402 C 0.65743 0.96338 0.28269 0.0
C403 C 0.65675 0.9682 0.18572 0.0
H404 H 0.65714 0.98823 0.41668 0.0
C405 C 0.6575 0.00328 0.15007 0.0
H406 H 0.65711 0.93668 0.3127 0.0
C407 C 0.65739 0.03284 0.20998 0.0
C408 C 0.65676 0.02801 0.30695 0.0
H409 H 0.65704 0.00798 0.07598 0.0
H410 H 0.65703 0.05953 0.17997 0.0
C411 C 0.65755 0.99293 0.34259 0.0
C412 C 0.0328 0.6571 0.53321 0.0
C413 C 0.02785 0.65659 0.43627 0.0
H414 H 0.00811 0.65669 0.66742 0.0
C415 C 0.99272 0.65752 0.40093 0.0
H416 H 0.05955 0.65662 0.563 0.0
C417 C 0.96323 0.65745 0.46109 0.0
C418 C 0.96818 0.65666 0.55802 0.0
H419 H 0.98792 0.65721 0.32688 0.0
H420 H 0.93648 0.65725 0.43131 0.0
C421 C 0.00332 0.65724 0.59337 0.0
C422 C 0.3385 0.96319 0.71062 0.0
C423 C 0.33918 0.96811 0.80756 0.0
H424 H 0.33881 0.98791 0.57645 0.0
C425 C 0.33846 0.00322 0.84296 0.0
H426 H 0.3388 0.93646 0.68079 0.0
C427 C 0.33859 0.03272 0.78285 0.0
C428 C 0.33921 0.02779 0.6859 0.0
H429 H 0.33892 0.00799 0.91702 0.0
H430 H 0.33896 0.05944 0.81268 0.0
C431 C 0.3384 0.99268 0.65051 0.0
C432 C 0.09954 0.47945 0.23875 0.0
C433 C 0.13212 0.46059 0.23267 0.0
H434 H 0.07394 0.53065 0.25351 0.0
C435 C 0.16477 0.47941 0.23937 0.0
H436 H 0.07407 0.46542 0.23338 0.0
C437 C 0.16468 0.51669 0.25402 0.0
C438 C 0.13197 0.53551 0.25843 0.0
H439 H 0.19017 0.46523 0.23506 0.0
H440 H 0.19003 0.53086 0.26023 0.0
C441 C 0.09947 0.51665 0.24989 0.0
C442 C 0.51653 0.16456 0.48867 0.0
C443 C 0.53542 0.13192 0.4836 0.0
H444 H 0.46499 0.18987 0.50805 0.0
C445 C 0.51661 0.09937 0.49122 0.0
H446 H 0.53066 0.18994 0.48316 0.0
C447 C 0.47938 0.09933 0.50219 0.0
C448 C 0.46045 0.13183 0.50902 0.0
H449 H 0.53068 0.07389 0.48708 0.0
H450 H 0.4654 0.07382 0.50693 0.0
C451 C 0.47922 0.16452 0.50316 0.0
C452 C 0.83152 0.51662 0.73974 0.0
C453 C 0.86419 0.53548 0.7345 0.0
H454 H 0.80617 0.46511 0.75883 0.0
C455 C 0.89674 0.51662 0.74149 0.0
H456 H 0.80613 0.5308 0.73469 0.0
C457 C 0.89677 0.47938 0.75201 0.0
C458 C 0.86424 0.46049 0.759 0.0
H459 H 0.92224 0.53065 0.7372 0.0
H460 H 0.92228 0.46537 0.75628 0.0
C461 C 0.83154 0.47931 0.75378 0.0
C462 C 0.51657 0.83149 0.00454 0.0
C463 C 0.53543 0.86416 0.0092 0.0
H464 H 0.46504 0.8061 0.98569 0.0
C465 C 0.51657 0.89668 0.00135 0.0
H466 H 0.53074 0.80613 0.01026 0.0
C467 C 0.47933 0.89667 0.99058 0.0
C468 C 0.46044 0.86414 0.98418 0.0
H469 H 0.53061 0.92218 0.00518 0.0
H470 H 0.46532 0.92216 0.98566 0.0
C471 C 0.47925 0.83147 0.99025 0.0
loop_
_geom_bond_atom_site_label_1
_geom_bond_atom_site_label_2
_geom_bond_distance
_geom_bond_site_symmetry_2
_ccdc_geom_bond_type
Co0 O3 1.970 . S
Co0 N17 1.989 . S
Co0 O25 1.967 . S
Co0 O32 1.920 1_554 S
Co1 O4 1.966 . S
Co1 N10 2.022 . S
Co1 N18 1.993 . S
Co1 O26 1.941 . S
C2 O3 1.258 . S
C2 O4 1.263 . S
O3 Co0 1.970 . S
O3 C2 1.258 . S
O4 Co1 1.966 . S
O4 C2 1.263 . S
C5 O6 1.235 1_556 S
C5 O32 1.289 . S
O6 C5 1.235 1_554 S
C7 C9 1.400 . S
C7 N10 1.351 . S
C7 C12 1.501 . S
C8 C9 1.387 . S
C8 N11 1.341 . S
C9 C7 1.400 . S
C9 C8 1.387 . S
N10 Co1 2.022 . S
N10 C7 1.351 . S
N10 N11 1.365 . S
N11 C8 1.341 . S
N11 N10 1.365 . S
N11 H31 0.862 . S
C12 C7 1.501 . S
C12 H13 0.961 . S
C12 H14 0.961 . S
C12 H15 0.960 . S
H13 C12 0.961 . S
H14 C12 0.961 . S
H15 C12 0.960 . S
C16 N17 1.342 . S
C16 C20 1.401 . S
C16 C21 1.499 . S
N17 Co0 1.989 . S
N17 C16 1.342 . S
N17 N18 1.388 . S
N18 Co1 1.993 . S
N18 N17 1.388 . S
N18 C19 1.346 . S
C19 N18 1.346 . S
C19 C20 1.396 . S
C19 C29 1.510 . S
C20 C16 1.401 . S
C20 C19 1.396 . S
C21 C16 1.499 . S
C21 H22 0.959 . S
C21 H23 0.960 . S
C21 H24 0.961 . S
H22 C21 0.959 . S
H23 C21 0.960 . S
H24 C21 0.961 . S
O25 Co0 1.967 . S
O25 C33 1.258 . S
O26 Co1 1.941 . S
O26 C33 1.266 . S
H27 C29 0.959 . S
H28 C29 0.961 . S
C29 C19 1.510 . S
C29 H27 0.959 . S
C29 H28 0.961 . S
C29 H30 0.960 . S
H30 C29 0.960 . S
H31 N11 0.862 . S
O32 Co0 1.920 1_556 S
O32 C5 1.289 . S
C33 O25 1.258 . S
C33 O26 1.266 . S
Co34 O37 1.970 . S
Co34 N51 1.989 . S
Co34 O59 1.967 . S
Co34 O66 1.920 . S
Co35 O38 1.966 . S
Co35 N44 2.022 . S
Co35 N52 1.993 . S
Co35 O60 1.941 . S
C36 O37 1.258 . S
C36 O38 1.263 . S
O37 Co34 1.970 . S
O37 C36 1.258 . S
O38 Co35 1.966 . S
O38 C36 1.263 . S
C39 O40 1.235 . S
C39 O66 1.289 . S
O40 C39 1.235 . S
C41 C43 1.400 . S
C41 N44 1.351 . S
C41 C46 1.501 . S
C42 C43 1.387 . S
C42 N45 1.341 . S
C43 C41 1.400 . S
C43 C42 1.387 . S
N44 Co35 2.022 . S
N44 C41 1.351 . S
N44 N45 1.365 . S
N45 C42 1.341 . S
N45 N44 1.365 . S
N45 H65 0.862 . S
C46 C41 1.501 . S
C46 H47 0.961 . S
C46 H48 0.961 . S
C46 H49 0.960 . S
H47 C46 0.961 . S
H48 C46 0.961 . S
H49 C46 0.960 . S
C50 N51 1.342 . S
C50 C54 1.401 . S
C50 C55 1.499 . S
N51 Co34 1.989 . S
N51 C50 1.342 . S
N51 N52 1.388 . S
N52 Co35 1.993 . S
N52 N51 1.388 . S
N52 C53 1.346 . S
C53 N52 1.346 . S
C53 C54 1.396 . S
C53 C63 1.510 . S
C54 C50 1.401 . S
C54 C53 1.396 . S
C55 C50 1.499 . S
C55 H56 0.959 . S
C55 H57 0.960 . S
C55 H58 0.961 . S
H56 C55 0.959 . S
H57 C55 0.960 . S
H58 C55 0.961 . S
O59 Co34 1.967 . S
O59 C67 1.258 . S
O60 Co35 1.941 . S
O60 C67 1.266 . S
H61 C63 0.959 . S
H62 C63 0.961 . S
C63 C53 1.510 . S
C63 H61 0.959 . S
C63 H62 0.961 . S
C63 H64 0.960 . S
H64 C63 0.960 . S
H65 N45 0.862 . S
O66 Co34 1.920 . S
O66 C39 1.289 . S
C67 O59 1.258 . S
C67 O60 1.266 . S
Co68 O71 1.970 . S
Co68 N85 1.989 . S
Co68 O93 1.967 . S
Co68 O100 1.920 . S
Co69 O72 1.966 . S
Co69 N78 2.022 . S
Co69 N86 1.993 . S
Co69 O94 1.941 . S
C70 O71 1.258 . S
C70 O72 1.263 . S
O71 Co68 1.970 . S
O71 C70 1.258 . S
O72 Co69 1.966 . S
O72 C70 1.263 . S
C73 O74 1.235 . S
C73 O100 1.289 . S
O74 C73 1.235 . S
C75 C77 1.400 . S
C75 N78 1.351 1_554 S
C75 C80 1.501 . S
C76 C77 1.387 . S
C76 N79 1.341 . S
C77 C75 1.400 . S
C77 C76 1.387 . S
N78 Co69 2.022 . S
N78 C75 1.351 1_556 S
N78 N79 1.365 1_556 S
N79 C76 1.341 . S
N79 N78 1.365 1_554 S
N79 H99 0.862 1_554 S
C80 C75 1.501 . S
C80 H81 0.961 1_554 S
C80 H82 0.961 . S
C80 H83 0.960 . S
H81 C80 0.961 1_556 S
H82 C80 0.961 . S
H83 C80 0.960 . S
C84 N85 1.342 . S
C84 C88 1.401 . S
C84 C89 1.499 . S
N85 Co68 1.989 . S
N85 C84 1.342 . S
N85 N86 1.388 . S
N86 Co69 1.993 . S
N86 N85 1.388 . S
N86 C87 1.346 . S
C87 N86 1.346 . S
C87 C88 1.396 . S
C87 C97 1.510 . S
C88 C84 1.401 . S
C88 C87 1.396 . S
C89 C84 1.499 . S
C89 H90 0.959 . S
C89 H91 0.960 . S
C89 H92 0.961 . S
H90 C89 0.959 . S
H91 C89 0.960 . S
H92 C89 0.961 . S
O93 Co68 1.967 . S
O93 C101 1.258 . S
O94 Co69 1.941 . S
O94 C101 1.266 . S
H95 C97 0.959 . S
H96 C97 0.961 . S
C97 C87 1.510 . S
C97 H95 0.959 . S
C97 H96 0.961 . S
C97 H98 0.960 . S
H98 C97 0.960 . S
H99 N79 0.862 1_556 S
O100 Co68 1.920 . S
O100 C73 1.289 . S
C101 O93 1.258 . S
C101 O94 1.266 . S
Co102 O105 1.970 . S
Co102 N119 1.989 . S
Co102 O127 1.967 . S
Co102 O134 1.920 . S
Co103 O106 1.966 . S
Co103 N112 2.022 . S
Co103 N120 1.993 . S
Co103 O128 1.941 . S
C104 O105 1.258 . S
C104 O106 1.263 1_556 S
O105 Co102 1.970 . S
O105 C104 1.258 . S
O106 Co103 1.966 . S
O106 C104 1.263 1_554 S
C107 O108 1.235 . S
C107 O134 1.289 . S
O108 C107 1.235 . S
C109 C111 1.400 . S
C109 N112 1.351 . S
C109 C114 1.501 . S
C110 C111 1.387 . S
C110 N113 1.341 . S
C111 C109 1.400 . S
C111 C110 1.387 . S
N112 Co103 2.022 . S
N112 C109 1.351 . S
N112 N113 1.365 . S
N113 C110 1.341 . S
N113 N112 1.365 . S
N113 H133 0.862 . S
C114 C109 1.501 . S
C114 H115 0.961 . S
C114 H116 0.961 . S
C114 H117 0.960 . S
H115 C114 0.961 . S
H116 C114 0.961 . S
H117 C114 0.960 . S
C118 N119 1.342 . S
C118 C122 1.401 1_556 S
C118 C123 1.499 . S
N119 Co102 1.989 . S
N119 C118 1.342 . S
N119 N120 1.388 1_556 S
N120 Co103 1.993 . S
N120 N119 1.388 1_554 S
N120 C121 1.346 . S
C121 N120 1.346 . S
C121 C122 1.396 . S
C121 C131 1.510 . S
C122 C118 1.401 1_554 S
C122 C121 1.396 . S
C123 C118 1.499 . S
C123 H124 0.959 . S
C123 H125 0.960 . S
C123 H126 0.961 . S
H124 C123 0.959 . S
H125 C123 0.960 . S
H126 C123 0.961 . S
O127 Co102 1.967 . S
O127 C135 1.258 . S
O128 Co103 1.941 . S
O128 C135 1.266 1_554 S
H129 C131 0.959 . S
H130 C131 0.961 . S
C131 C121 1.510 . S
C131 H129 0.959 . S
C131 H130 0.961 . S
C131 H132 0.960 . S
H132 C131 0.960 . S
H133 N113 0.862 . S
O134 Co102 1.920 . S
O134 C107 1.289 . S
C135 O127 1.258 . S
C135 O128 1.266 1_556 S
Co136 O139 1.970 . S
Co136 N153 1.989 . S
Co136 O161 1.967 . S
Co136 O168 1.920 . S
Co137 O140 1.966 . S
Co137 N146 2.022 . S
Co137 N154 1.993 . S
Co137 O162 1.941 . S
C138 O139 1.258 . S
C138 O140 1.263 . S
O139 Co136 1.970 . S
O139 C138 1.258 . S
O140 Co137 1.966 . S
O140 C138 1.263 . S
C141 O142 1.235 . S
C141 O168 1.289 . S
O142 C141 1.235 . S
C143 C145 1.400 . S
C143 N146 1.351 1_556 S
C143 C148 1.501 . S
C144 C145 1.387 . S
C144 N147 1.341 . S
C145 C143 1.400 . S
C145 C144 1.387 . S
N146 Co137 2.022 . S
N146 C143 1.351 1_554 S
N146 N147 1.365 1_554 S
N147 C144 1.341 . S
N147 N146 1.365 1_556 S
N147 H167 0.862 1_556 S
C148 C143 1.501 . S
C148 H149 0.961 1_556 S
C148 H150 0.961 . S
C148 H151 0.960 . S
H149 C148 0.961 1_554 S
H150 C148 0.961 . S
H151 C148 0.960 . S
C152 N153 1.342 . S
C152 C156 1.401 . S
C152 C157 1.499 . S
N153 Co136 1.989 . S
N153 C152 1.342 . S
N153 N154 1.388 . S
N154 Co137 1.993 . S
N154 N153 1.388 . S
N154 C155 1.346 . S
C155 N154 1.346 . S
C155 C156 1.396 . S
C155 C165 1.510 . S
C156 C152 1.401 . S
C156 C155 1.396 . S
C157 C152 1.499 . S
C157 H158 0.959 . S
C157 H159 0.960 . S
C157 H160 0.961 . S
H158 C157 0.959 . S
H159 C157 0.960 . S
H160 C157 0.961 . S
O161 Co136 1.967 . S
O161 C169 1.258 . S
O162 Co137 1.941 . S
O162 C169 1.266 . S
H163 C165 0.959 . S
H164 C165 0.961 . S
C165 C155 1.510 . S
C165 H163 0.959 . S
C165 H164 0.961 . S
C165 H166 0.960 . S
H166 C165 0.960 . S
H167 N147 0.862 1_554 S
O168 Co136 1.920 . S
O168 C141 1.289 . S
C169 O161 1.258 . S
C169 O162 1.266 . S
Co170 O173 1.970 . S
Co170 N187 1.989 . S
Co170 O195 1.967 . S
Co170 O202 1.920 . S
Co171 O174 1.966 . S
Co171 N180 2.022 . S
Co171 N188 1.993 . S
Co171 O196 1.941 . S
C172 O173 1.258 . S
C172 O174 1.263 . S
O173 Co170 1.970 . S
O173 C172 1.258 . S
O174 Co171 1.966 . S
O174 C172 1.263 . S
C175 O176 1.235 . S
C175 O202 1.289 . S
O176 C175 1.235 . S
C177 C179 1.400 . S
C177 N180 1.351 . S
C177 C182 1.501 . S
C178 C179 1.387 . S
C178 N181 1.341 . S
C179 C177 1.400 . S
C179 C178 1.387 . S
N180 Co171 2.022 . S
N180 C177 1.351 . S
N180 N181 1.365 . S
N181 C178 1.341 . S
N181 N180 1.365 . S
N181 H201 0.862 . S
C182 C177 1.501 . S
C182 H183 0.961 . S
C182 H184 0.961 . S
C182 H185 0.960 . S
H183 C182 0.961 . S
H184 C182 0.961 . S
H185 C182 0.960 . S
C186 N187 1.342 . S
C186 C190 1.401 . S
C186 C191 1.499 . S
N187 Co170 1.989 . S
N187 C186 1.342 . S
N187 N188 1.388 . S
N188 Co171 1.993 . S
N188 N187 1.388 . S
N188 C189 1.346 . S
C189 N188 1.346 . S
C189 C190 1.396 . S
C189 C199 1.510 . S
C190 C186 1.401 . S
C190 C189 1.396 . S
C191 C186 1.499 . S
C191 H192 0.959 . S
C191 H193 0.960 . S
C191 H194 0.961 . S
H192 C191 0.959 . S
H193 C191 0.960 . S
H194 C191 0.961 . S
O195 Co170 1.967 . S
O195 C203 1.258 . S
O196 Co171 1.941 . S
O196 C203 1.266 . S
H197 C199 0.959 . S
H198 C199 0.961 . S
C199 C189 1.510 . S
C199 H197 0.959 . S
C199 H198 0.961 . S
C199 H200 0.960 . S
H200 C199 0.960 . S
H201 N181 0.862 . S
O202 Co170 1.920 . S
O202 C175 1.289 . S
C203 O195 1.258 . S
C203 O196 1.266 . S
Co204 O207 1.970 . S
Co204 N221 1.989 . S
Co204 O229 1.967 . S
Co204 O236 1.920 1_556 S
Co205 O208 1.966 . S
Co205 N214 2.022 . S
Co205 N222 1.993 . S
Co205 O230 1.941 . S
C206 O207 1.258 . S
C206 O208 1.263 . S
O207 Co204 1.970 . S
O207 C206 1.258 . S
O208 Co205 1.966 . S
O208 C206 1.263 . S
C209 O210 1.235 1_554 S
C209 O236 1.289 . S
O210 C209 1.235 1_556 S
C211 C213 1.400 . S
C211 N214 1.351 . S
C211 C216 1.501 . S
C212 C213 1.387 . S
C212 N215 1.341 . S
C213 C211 1.400 . S
C213 C212 1.387 . S
N214 Co205 2.022 . S
N214 C211 1.351 . S
N214 N215 1.365 . S
N215 C212 1.341 . S
N215 N214 1.365 . S
N215 H235 0.862 . S
C216 C211 1.501 . S
C216 H217 0.961 . S
C216 H218 0.961 . S
C216 H219 0.960 . S
H217 C216 0.961 . S
H218 C216 0.961 . S
H219 C216 0.960 . S
C220 N221 1.342 . S
C220 C224 1.401 . S
C220 C225 1.499 . S
N221 Co204 1.989 . S
N221 C220 1.342 . S
N221 N222 1.388 . S
N222 Co205 1.993 . S
N222 N221 1.388 . S
N222 C223 1.346 . S
C223 N222 1.346 . S
C223 C224 1.396 . S
C223 C233 1.510 . S
C224 C220 1.401 . S
C224 C223 1.396 . S
C225 C220 1.499 . S
C225 H226 0.959 . S
C225 H227 0.960 . S
C225 H228 0.961 . S
H226 C225 0.959 . S
H227 C225 0.960 . S
H228 C225 0.961 . S
O229 Co204 1.967 . S
O229 C237 1.258 . S
O230 Co205 1.941 . S
O230 C237 1.266 . S
H231 C233 0.959 . S
H232 C233 0.961 . S
C233 C223 1.510 . S
C233 H231 0.959 . S
C233 H232 0.961 . S
C233 H234 0.960 . S
H234 C233 0.960 . S
H235 N215 0.862 . S
O236 Co204 1.920 1_554 S
O236 C209 1.289 . S
C237 O229 1.258 . S
C237 O230 1.266 . S
Co238 O241 1.970 . S
Co238 N255 1.989 . S
Co238 O263 1.967 . S
Co238 O270 1.920 . S
Co239 O242 1.966 . S
Co239 N248 2.022 . S
Co239 N256 1.993 . S
Co239 O264 1.941 . S
C240 O241 1.258 . S
C240 O242 1.263 1_554 S
O241 Co238 1.970 . S
O241 C240 1.258 . S
O242 Co239 1.966 . S
O242 C240 1.263 1_556 S
C243 O244 1.235 . S
C243 O270 1.289 . S
O244 C243 1.235 . S
C245 C247 1.400 . S
C245 N248 1.351 . S
C245 C250 1.501 . S
C246 C247 1.387 . S
C246 N249 1.341 . S
C247 C245 1.400 . S
C247 C246 1.387 . S
N248 Co239 2.022 . S
N248 C245 1.351 . S
N248 N249 1.365 . S
N249 C246 1.341 . S
N249 N248 1.365 . S
N249 H269 0.862 . S
C250 C245 1.501 . S
C250 H251 0.961 . S
C250 H252 0.961 . S
C250 H253 0.960 . S
H251 C250 0.961 . S
H252 C250 0.961 . S
H253 C250 0.960 . S
C254 N255 1.342 . S
C254 C258 1.401 1_554 S
C254 C259 1.499 . S
N255 Co238 1.989 . S
N255 C254 1.342 . S
N255 N256 1.388 1_554 S
N256 Co239 1.993 . S
N256 N255 1.388 1_556 S
N256 C257 1.346 . S
C257 N256 1.346 . S
C257 C258 1.396 . S
C257 C267 1.510 . S
C258 C254 1.401 1_556 S
C258 C257 1.396 . S
C259 C254 1.499 . S
C259 H260 0.959 . S
C259 H261 0.960 . S
C259 H262 0.961 . S
H260 C259 0.959 . S
H261 C259 0.960 . S
H262 C259 0.961 . S
O263 Co238 1.967 . S
O263 C271 1.258 . S
O264 Co239 1.941 . S
O264 C271 1.266 1_556 S
H265 C267 0.959 . S
H266 C267 0.961 . S
C267 C257 1.510 . S
C267 H265 0.959 . S
C267 H266 0.961 . S
C267 H268 0.960 . S
H268 C267 0.960 . S
H269 N249 0.862 . S
O270 Co238 1.920 . S
O270 C243 1.289 . S
C271 O263 1.258 . S
C271 O264 1.266 1_554 S
C272 C273 1.387 . S
C272 H276 0.950 . S
C272 C281 1.390 . S
C273 C272 1.387 . S
C273 C275 1.387 . S
H274 C281 0.950 . S
C275 C273 1.387 . S
C275 C277 1.390 . S
C275 H279 0.950 . S
H276 C272 0.950 . S
C277 C275 1.390 . S
C277 C278 1.387 . S
C277 H280 0.950 . S
C278 C277 1.387 . S
C278 C281 1.387 . S
H279 C275 0.950 . S
H280 C277 0.950 . S
C281 C272 1.390 . S
C281 H274 0.950 . S
C281 C278 1.387 . S
C282 C283 1.387 . S
C282 H286 0.950 . S
C282 C291 1.390 . S
C283 C282 1.387 . S
C283 C285 1.387 . S
H284 C291 0.950 . S
C285 C283 1.387 . S
C285 C287 1.390 . S
C285 H289 0.950 . S
H286 C282 0.950 . S
C287 C285 1.390 . S
C287 C288 1.387 . S
C287 H290 0.950 . S
C288 C287 1.387 . S
C288 C291 1.387 . S
H289 C285 0.950 . S
H290 C287 0.950 . S
C291 C282 1.390 . S
C291 H284 0.950 . S
C291 C288 1.387 . S
C292 C293 1.387 . S
C292 H296 0.950 . S
C292 C301 1.390 . S
C293 C292 1.387 . S
C293 C295 1.387 . S
H294 C301 0.950 . S
C295 C293 1.387 . S
C295 C297 1.390 . S
C295 H299 0.950 . S
H296 C292 0.950 . S
C297 C295 1.390 . S
C297 C298 1.387 . S
C297 H300 0.950 1_556 S
C298 C297 1.387 . S
C298 C301 1.387 . S
H299 C295 0.950 . S
H300 C297 0.950 1_554 S
C301 C292 1.390 . S
C301 H294 0.950 . S
C301 C298 1.387 . S
C302 C303 1.387 . S
C302 H306 0.950 . S
C302 C311 1.390 . S
C303 C302 1.387 . S
C303 C305 1.387 . S
H304 C311 0.950 . S
C305 C303 1.387 . S
C305 C307 1.390 . S
C305 H309 0.950 . S
H306 C302 0.950 . S
C307 C305 1.390 . S
C307 C308 1.387 . S
C307 H310 0.950 1_554 S
C308 C307 1.387 . S
C308 C311 1.387 . S
H309 C305 0.950 . S
H310 C307 0.950 1_556 S
C311 C302 1.390 . S
C311 H304 0.950 . S
C311 C308 1.387 . S
C312 C313 1.387 . S
C312 H316 0.950 . S
C312 C321 1.390 . S
C313 C312 1.387 . S
C313 C315 1.387 . S
H314 C321 0.950 . S
C315 C313 1.387 . S
C315 C317 1.390 . S
C315 H319 0.950 . S
H316 C312 0.950 . S
C317 C315 1.390 . S
C317 C318 1.387 . S
C317 H320 0.950 . S
C318 C317 1.387 . S
C318 C321 1.387 . S
H319 C315 0.950 . S
H320 C317 0.950 . S
C321 C312 1.390 . S
C321 H314 0.950 . S
C321 C318 1.387 . S
C322 C323 1.387 . S
C322 H326 0.950 . S
C322 C331 1.390 1_554 S
C323 C322 1.387 . S
C323 C325 1.387 . S
H324 C331 0.950 . S
C325 C323 1.387 . S
C325 C327 1.390 1_554 S
C325 H329 0.950 . S
H326 C322 0.950 . S
C327 C325 1.390 1_556 S
C327 C328 1.387 . S
C327 H330 0.950 . S
C328 C327 1.387 . S
C328 C331 1.387 . S
H329 C325 0.950 . S
H330 C327 0.950 . S
C331 C322 1.390 1_556 S
C331 H324 0.950 . S
C331 C328 1.387 . S
C332 C333 1.387 . S
C332 H336 0.950 . S
C332 C341 1.390 . S
C333 C332 1.387 . S
C333 C335 1.387 . S
H334 C341 0.950 . S
C335 C333 1.387 . S
C335 C337 1.390 . S
C335 H339 0.950 . S
H336 C332 0.950 . S
C337 C335 1.390 . S
C337 C338 1.387 . S
C337 H340 0.950 . S
C338 C337 1.387 . S
C338 C341 1.387 . S
H339 C335 0.950 . S
H340 C337 0.950 . S
C341 C332 1.390 . S
C341 H334 0.950 . S
C341 C338 1.387 . S
C342 C343 1.387 . S
C342 H346 0.950 . S
C342 C351 1.390 . S
C343 C342 1.387 . S
C343 C345 1.387 . S
H344 C351 0.950 . S
C345 C343 1.387 . S
C345 C347 1.390 . S
C345 H349 0.950 . S
H346 C342 0.950 . S
C347 C345 1.390 . S
C347 C348 1.387 . S
C347 H350 0.950 . S
C348 C347 1.387 . S
C348 C351 1.387 . S
H349 C345 0.950 . S
H350 C347 0.950 . S
C351 C342 1.390 . S
C351 H344 0.950 . S
C351 C348 1.387 . S
C352 C353 1.387 . S
C352 H356 0.950 . S
C352 C361 1.390 . S
C353 C352 1.387 . S
C353 C355 1.387 . S
H354 C361 0.950 . S
C355 C353 1.387 . S
C355 C357 1.390 . S
C355 H359 0.950 . S
H356 C352 0.950 . S
C357 C355 1.390 . S
C357 C358 1.387 . S
C357 H360 0.950 . S
C358 C357 1.387 . S
C358 C361 1.387 . S
H359 C355 0.950 . S
H360 C357 0.950 . S
C361 C352 1.390 . S
C361 H354 0.950 . S
C361 C358 1.387 . S
C362 C363 1.387 . S
C362 H366 0.950 . S
C362 C371 1.390 1_554 S
C363 C362 1.387 . S
C363 C365 1.387 . S
H364 C371 0.950 . S
C365 C363 1.387 . S
C365 C367 1.390 1_554 S
C365 H369 0.950 . S
H366 C362 0.950 . S
C367 C365 1.390 1_556 S
C367 C368 1.387 . S
C367 H370 0.950 . S
C368 C367 1.387 . S
C368 C371 1.387 . S
H369 C365 0.950 . S
H370 C367 0.950 . S
C371 C362 1.390 1_556 S
C371 H364 0.950 . S
C371 C368 1.387 . S
C372 C373 1.387 . S
C372 H376 0.950 . S
C372 C381 1.390 . S
C373 C372 1.387 . S
C373 C375 1.387 . S
H374 C381 0.950 . S
C375 C373 1.387 . S
C375 C377 1.390 . S
C375 H379 0.950 . S
H376 C372 0.950 . S
C377 C375 1.390 . S
C377 C378 1.387 . S
C377 H380 0.950 . S
C378 C377 1.387 . S
C378 C381 1.387 . S
H379 C375 0.950 . S
H380 C377 0.950 . S
C381 C372 1.390 . S
C381 H374 0.950 . S
C381 C378 1.387 . S
C382 C383 1.387 . S
C382 H386 0.950 . S
C382 C391 1.390 . S
C383 C382 1.387 . S
C383 C385 1.387 . S
H384 C391 0.950 . S
C385 C383 1.387 . S
C385 C387 1.390 . S
C385 H389 0.950 . S
H386 C382 0.950 . S
C387 C385 1.390 . S
C387 C388 1.387 . S
C387 H390 0.950 . S
C388 C387 1.387 . S
C388 C391 1.387 . S
H389 C385 0.950 . S
H390 C387 0.950 . S
C391 C382 1.390 . S
C391 H384 0.950 . S
C391 C388 1.387 . S
C392 C393 1.387 . S
C392 H396 0.950 . S
C392 C401 1.390 1_454 S
C393 C392 1.387 . S
C393 C395 1.387 . S
H394 C401 0.950 . S
C395 C393 1.387 . S
C395 C397 1.390 1_454 S
C395 H399 0.950 . S
H396 C392 0.950 . S
C397 C395 1.390 1_656 S
C397 C398 1.387 . S
C397 H400 0.950 . S
C398 C397 1.387 . S
C398 C401 1.387 . S
H399 C395 0.950 . S
H400 C397 0.950 . S
C401 C392 1.390 1_656 S
C401 H394 0.950 . S
C401 C398 1.387 . S
C402 C403 1.387 . S
C402 H406 0.950 . S
C402 C411 1.390 1_565 S
C403 C402 1.387 . S
C403 C405 1.387 . S
H404 C411 0.950 . S
C405 C403 1.387 . S
C405 C407 1.390 1_565 S
C405 H409 0.950 . S
H406 C402 0.950 . S
C407 C405 1.390 1_545 S
C407 C408 1.387 . S
C407 H410 0.950 . S
C408 C407 1.387 . S
C408 C411 1.387 . S
H409 C405 0.950 . S
H410 C407 0.950 . S
C411 C402 1.390 1_545 S
C411 H404 0.950 . S
C411 C408 1.387 . S
C412 C413 1.387 . S
C412 H416 0.950 . S
C412 C421 1.390 1_455 S
C413 C412 1.387 . S
C413 C415 1.387 . S
H414 C421 0.950 . S
C415 C413 1.387 . S
C415 C417 1.390 1_455 S
C415 H419 0.950 . S
H416 C412 0.950 . S
C417 C415 1.390 1_655 S
C417 C418 1.387 . S
C417 H420 0.950 . S
C418 C417 1.387 . S
C418 C421 1.387 . S
H419 C415 0.950 . S
H420 C417 0.950 . S
C421 C412 1.390 1_655 S
C421 H414 0.950 . S
C421 C418 1.387 . S
C422 C423 1.387 . S
C422 H426 0.950 . S
C422 C431 1.390 1_565 S
C423 C422 1.387 . S
C423 C425 1.387 . S
H424 C431 0.950 . S
C425 C423 1.387 . S
C425 C427 1.390 1_565 S
C425 H429 0.950 . S
H426 C422 0.950 . S
C427 C425 1.390 1_545 S
C427 C428 1.387 . S
C427 H430 0.950 . S
C428 C427 1.387 . S
C428 C431 1.387 . S
H429 C425 0.950 . S
H430 C427 0.950 . S
C431 C422 1.390 1_545 S
C431 H424 0.950 . S
C431 C428 1.387 . S
C432 C433 1.387 . S
C432 H436 0.950 . S
C432 C441 1.390 . S
C433 C432 1.387 . S
C433 C435 1.387 . S
H434 C441 0.950 . S
C435 C433 1.387 . S
C435 C437 1.390 . S
C435 H439 0.950 . S
H436 C432 0.950 . S
C437 C435 1.390 . S
C437 C438 1.387 . S
C437 H440 0.950 . S
C438 C437 1.387 . S
C438 C441 1.387 . S
H439 C435 0.950 . S
H440 C437 0.950 . S
C441 C432 1.390 . S
C441 H434 0.950 . S
C441 C438 1.387 . S
C442 C443 1.387 . S
C442 H446 0.950 . S
C442 C451 1.390 . S
C443 C442 1.387 . S
C443 C445 1.387 . S
H444 C451 0.950 . S
C445 C443 1.387 . S
C445 C447 1.390 . S
C445 H449 0.950 . S
H446 C442 0.950 . S
C447 C445 1.390 . S
C447 C448 1.387 . S
C447 H450 0.950 . S
C448 C447 1.387 . S
C448 C451 1.387 . S
H449 C445 0.950 . S
H450 C447 0.950 . S
C451 C442 1.390 . S
C451 H444 0.950 . S
C451 C448 1.387 . S
C452 C453 1.387 . S
C452 H456 0.950 . S
C452 C461 1.390 . S
C453 C452 1.387 . S
C453 C455 1.387 . S
H454 C461 0.950 . S
C455 C453 1.387 . S
C455 C457 1.390 . S
C455 H459 0.950 . S
H456 C452 0.950 . S
C457 C455 1.390 . S
C457 C458 1.387 . S
C457 H460 0.950 . S
C458 C457 1.387 . S
C458 C461 1.387 . S
H459 C455 0.950 . S
H460 C457 0.950 . S
C461 C452 1.390 . S
C461 H454 0.950 . S
C461 C458 1.387 . S
C462 C463 1.387 . S
C462 H466 0.950 . S
C462 C471 1.390 1_554 S
C463 C462 1.387 . S
C463 C465 1.387 . S
H464 C471 0.950 . S
C465 C463 1.387 . S
C465 C467 1.390 1_554 S
C465 H469 0.950 . S
H466 C462 0.950 . S
C467 C465 1.390 1_556 S
C467 C468 1.387 . S
C467 H470 0.950 . S
C468 C467 1.387 . S
C468 C471 1.387 . S
H469 C465 0.950 . S
H470 C467 0.950 . S
C471 C462 1.390 1_556 S
C471 H464 0.950 . S
C471 C468 1.387 . S
C273 C190 1.689 . S
C278 C20 1.688 . S
C283 C224 1.689 . S
C288 C54 1.687 . S
C293 C88 1.688 . S
C298 C258 1.687 . S
C303 C156 1.688 . S
C308 C122 1.687 . S
C313 C9 1.335 . S
C318 C5 1.284 . S
C323 C39 1.288 . S
C328 C43 1.337 . S
C333 C77 1.337 . S
C338 C73 1.289 . S
C343 C111 1.335 . S
C348 C107 1.284 . S
C353 C145 1.337 . S
C358 C141 1.289 . S
C363 C179 1.337 . S
C368 C175 1.288 . S
C373 C213 1.335 . S
C378 C209 1.284 . S
C383 C243 1.284 . S
C388 C247 1.335 . S
C393 C33 1.625 . S
C398 C237 1.625 . S
C403 C271 1.626 . S
C408 C67 1.626 . S
C413 C169 1.629 . S
C418 C101 1.629 . S
C423 C135 1.626 . S
C428 C203 1.626 . S
C433 C2 1.702 . S
C438 C138 1.702 . S
C443 C36 1.701 . S
C448 C172 1.701 . S
C453 C70 1.702 . S
C458 C206 1.702 . S
C463 C240 1.701 . S
C468 C104 1.701 . S
