# Generated by pormake.
# Topology wjq, (5)-cn, num edge types: 1
# Building blocks:
#     Node 0, Type 0, BuildingBlock: BEQFEK_clean_sbu_0, # of connection points: 5
#     Node 1, Type 0, BuildingBlock: BEQFEK_clean_sbu_0, # of connection points: 5
#     Node 2, Type 0, BuildingBlock: BEQFEK_clean_sbu_0, # of connection points: 5
#     Node 3, Type 0, BuildingBlock: BEQFEK_clean_sbu_0, # of connection points: 5
#     Node 4, Type 0, BuildingBlock: BEQFEK_clean_sbu_0, # of connection points: 5
#     Node 5, Type 0, BuildingBlock: BEQFEK_clean_sbu_0, # of connection points: 5
#     Node 6, Type 0, BuildingBlock: BEQFEK_clean_sbu_0, # of connection points: 5
#     Node 7, Type 0, BuildingBlock: BEQFEK_clean_sbu_0, # of connection points: 5
#     Node 8, Type 0, BuildingBlock: BEQFEK_clean_sbu_0, # of connection points: 5
#     Node 9, Type 0, BuildingBlock: BEQFEK_clean_sbu_0, # of connection points: 5
#     Node 10, Type 0, BuildingBlock: BEQFEK_clean_sbu_0, # of connection points: 5
#     Node 11, Type 0, BuildingBlock: BEQFEK_clean_sbu_0, # of connection points: 5
#     Edge 12, Type (0, 0), BuildingBlock: OJICUG_clean_linker_0, # of connection points: 2
#     Edge 13, Type (0, 0), BuildingBlock: OJICUG_clean_linker_0, # of connection points: 2
#     Edge 14, Type (0, 0), BuildingBlock: OJICUG_clean_linker_0, # of connection points: 2
#     Edge 15, Type (0, 0), BuildingBlock: OJICUG_clean_linker_0, # of connection points: 2
#     Edge 16, Type (0, 0), BuildingBlock: OJICUG_clean_linker_0, # of connection points: 2
#     Edge 17, Type (0, 0), BuildingBlock: OJICUG_clean_linker_0, # of connection points: 2
#     Edge 18, Type (0, 0), BuildingBlock: OJICUG_clean_linker_0, # of connection points: 2
#     Edge 19, Type (0, 0), BuildingBlock: OJICUG_clean_linker_0, # of connection points: 2
#     Edge 20, Type (0, 0), BuildingBlock: OJICUG_clean_linker_0, # of connection points: 2
#     Edge 21, Type (0, 0), BuildingBlock: OJICUG_clean_linker_0, # of connection points: 2
#     Edge 22, Type (0, 0), BuildingBlock: OJICUG_clean_linker_0, # of connection points: 2
#     Edge 23, Type (0, 0), BuildingBlock: OJICUG_clean_linker_0, # of connection points: 2
#     Edge 24, Type (0, 0), BuildingBlock: OJICUG_clean_linker_0, # of connection points: 2
#     Edge 25, Type (0, 0), BuildingBlock: OJICUG_clean_linker_0, # of connection points: 2
#     Edge 26, Type (0, 0), BuildingBlock: OJICUG_clean_linker_0, # of connection points: 2
#     Edge 27, Type (0, 0), BuildingBlock: OJICUG_clean_linker_0, # of connection points: 2
#     Edge 28, Type (0, 0), BuildingBlock: OJICUG_clean_linker_0, # of connection points: 2
#     Edge 29, Type (0, 0), BuildingBlock: OJICUG_clean_linker_0, # of connection points: 2
#     Edge 30, Type (0, 0), BuildingBlock: OJICUG_clean_linker_0, # of connection points: 2
#     Edge 31, Type (0, 0), BuildingBlock: OJICUG_clean_linker_0, # of connection points: 2
#     Edge 32, Type (0, 0), BuildingBlock: OJICUG_clean_linker_0, # of connection points: 2
#     Edge 33, Type (0, 0), BuildingBlock: OJICUG_clean_linker_0, # of connection points: 2
#     Edge 34, Type (0, 0), BuildingBlock: OJICUG_clean_linker_0, # of connection points: 2
#     Edge 35, Type (0, 0), BuildingBlock: OJICUG_clean_linker_0, # of connection points: 2
#     Edge 36, Type (0, 0), BuildingBlock: OJICUG_clean_linker_0, # of connection points: 2
#     Edge 37, Type (0, 0), BuildingBlock: OJICUG_clean_linker_0, # of connection points: 2
#     Edge 38, Type (0, 0), BuildingBlock: OJICUG_clean_linker_0, # of connection points: 2
#     Edge 39, Type (0, 0), BuildingBlock: OJICUG_clean_linker_0, # of connection points: 2
#     Edge 40, Type (0, 0), BuildingBlock: OJICUG_clean_linker_0, # of connection points: 2
#     Edge 41, Type (0, 0), BuildingBlock: OJICUG_clean_linker_0, # of connection points: 2
# Relax obj value: 0.395
# Max RMSD: 0.186
# Mean RMSD: 0.186
data_MOF--net-wjq--node1-BEQFEK_clean_sbu_0--edge1-OJICUG_clean_linker_0
_symmetry_space_group_name_H-M    P1
_symmetry_Int_Tables_number       1
_symmetry_cell_setting            triclinic
loop_
_symmetry_equiv_pos_as_xyz
'x, y, z'
_cell_length_a     27.154811
_cell_length_b     27.079836
_cell_length_c     54.885086
_cell_angle_alpha  90.072214
_cell_angle_beta   90.035973
_cell_angle_gamma 119.91521
loop_
_atom_site_label
_atom_site_type_symbol
_atom_site_fract_x
_atom_site_fract_y
_atom_site_fract_z
_atom_type_partial_charge
Co0 Co 0.19925 0.15532 0.09971 0.0
Co1 Co 0.31089 0.23645 0.0739 0.0
C2 C 0.19713 0.2323 0.06209 0.0
O3 O 0.17215 0.19768 0.07938 0.0
O4 O 0.24966 0.25004 0.05797 0.0
C5 C 0.10979 0.12842 0.13128 0.0
O6 O 0.12907 0.1835 0.12973 0.0
C7 C 0.39519 0.35608 0.0695 0.0
C8 C 0.466 0.35759 0.04927 0.0
C9 C 0.44853 0.39313 0.05972 0.0
N10 N 0.38186 0.30204 0.06475 0.0
N11 N 0.42445 0.30313 0.05268 0.0
C12 C 0.35797 0.37066 0.08436 0.0
H13 H 0.38396 0.40828 0.0961 0.0
H14 H 0.33168 0.38045 0.07197 0.0
H15 H 0.32873 0.334 0.09584 0.0
C16 C 0.26995 0.19062 0.14365 0.0
N17 N 0.26172 0.19905 0.1201 0.0
N18 N 0.311 0.22939 0.10932 0.0
C19 C 0.35246 0.23946 0.12574 0.0
C20 C 0.3277 0.21565 0.14823 0.0
C21 C 0.22374 0.15069 0.16049 0.0
H22 H 0.20103 0.10743 0.15238 0.0
H23 H 0.19348 0.16623 0.16346 0.0
H24 H 0.24033 0.14794 0.17856 0.0
O25 O 0.21649 0.10577 0.07841 0.0
O26 O 0.29804 0.16249 0.05934 0.0
H27 H 0.41757 0.24269 0.10276 0.0
H28 H 0.43867 0.26117 0.13441 0.0
C29 C 0.4137 0.26458 0.11915 0.0
H30 H 0.43119 0.31013 0.11441 0.0
H31 H 0.42513 0.26687 0.04671 0.0
O32 O 0.1349 0.10663 0.11984 0.0
C33 C 0.25576 0.11278 0.0636 0.0
Co34 Co 0.12387 0.20628 0.41789 0.0
Co35 Co 0.10014 0.29914 0.3993 0.0
C36 C 0.0141 0.17939 0.39012 0.0
O37 O 0.04908 0.16733 0.40018 0.0
O38 O 0.02443 0.23077 0.38995 0.0
C39 C 0.09044 0.12794 0.45497 0.0
O40 O 0.05551 0.14756 0.45875 0.0
C41 C 0.05239 0.37618 0.39714 0.0
C42 C 0.12033 0.452 0.37882 0.0
C43 C 0.06673 0.43072 0.38907 0.0
N44 N 0.09527 0.36636 0.39182 0.0
N45 N 0.13563 0.41188 0.38078 0.0
C46 C 1.00089 0.33501 0.41113 0.0
H47 H 1.00856 0.30314 0.42048 0.0
H48 H 0.98933 0.35785 0.42474 0.0
H49 H 0.96481 0.31195 0.39834 0.0
C50 C 0.16424 0.27727 0.46059 0.0
N51 N 0.13967 0.26653 0.43858 0.0
N52 N 0.12136 0.30199 0.43388 0.0
C53 C 0.12871 0.33289 0.45462 0.0
C54 C 0.15605 0.31762 0.47246 0.0
C55 C 0.19797 0.25114 0.47 0.0
H56 H 0.21429 0.23667 0.45467 0.0
H57 H 0.17126 0.21435 0.4819 0.0
H58 H 0.2342 0.28267 0.48118 0.0
O59 O 0.18138 0.23332 0.39414 0.0
O60 O 0.15917 0.29336 0.37602 0.0
H61 H 0.12005 0.40262 0.44155 0.0
H62 H 0.12711 0.40095 0.4744 0.0
C63 C 0.10853 0.37469 0.45778 0.0
H64 H 0.06157 0.35122 0.45944 0.0
H65 H 0.17389 0.4158 0.3748 0.0
O66 O 0.12541 0.14754 0.43742 0.0
C67 C 0.18804 0.2673 0.37698 0.0
Co68 Co 0.87428 0.06713 0.76632 0.0
Co69 Co 0.78873 0.09203 0.7405 0.0
C70 C 0.79735 0.98472 0.72945 0.0
O71 O 0.83249 0.9959 0.74674 0.0
O72 O 0.77825 0.01834 0.72495 0.0
C73 C 0.91172 0.01717 0.8022 0.0
O74 O 0.85797 0.97815 0.80454 0.0
C75 C 0.66899 0.05317 0.73459 0.0
C76 C 0.66612 0.12308 0.71533 0.0
C77 C 0.63148 0.06902 0.72491 0.0
N78 N 0.72256 0.09526 0.73066 0.0
N79 N 0.72068 0.13703 0.7191 0.0
C80 C 0.6551 1.00071 0.74883 0.0
H81 H 0.61702 0.98774 0.76036 0.0
H82 H 0.64642 0.96554 0.73603 0.0
H83 H 0.69157 1.0081 0.76048 0.0
C84 C 0.84135 0.10757 0.80929 0.0
N85 N 0.83093 0.08696 0.78634 0.0
N86 N 0.79408 0.09823 0.77596 0.0
C87 C 0.77866 0.12536 0.79254 0.0
C88 C 0.80766 0.13138 0.81441 0.0
C89 C 0.89159 0.11639 0.82405 0.0
H90 H 0.88137 0.07627 0.83351 0.0
H91 H 0.90377 0.15015 0.83785 0.0
H92 H 0.92898 0.12995 0.81213 0.0
O93 O 0.92095 0.133 0.74511 0.0
O94 O 0.86218 0.15588 0.72645 0.0
H95 H 0.7615 0.17989 0.77037 0.0
H96 H 0.74145 0.17715 0.80211 0.0
C97 C 0.74343 0.152 0.78654 0.0
H98 H 0.6998 0.11804 0.78174 0.0
H99 H 0.75648 0.17502 0.71388 0.0
O100 O 0.92648 0.05646 0.78655 0.0
C101 C 0.9125 0.16505 0.73078 0.0
Co102 Co 0.80936 0.91926 0.08534 0.0
Co103 Co 0.70987 0.80505 0.0689 0.0
C104 C 0.82672 0.83302 0.05565 0.0
O105 O 0.84289 0.88103 0.06574 0.0
O106 O 0.77478 0.79398 0.05688 0.0
C107 C 0.89056 0.96201 0.12137 0.0
O108 O 0.87008 0.90736 0.12533 0.0
C109 C 0.63158 0.68109 0.06596 0.0
C110 C 0.55368 0.67545 0.05086 0.0
C111 C 0.57617 0.64196 0.05867 0.0
N112 N 0.6408 0.73433 0.06247 0.0
N113 N 0.59402 0.73057 0.05338 0.0
C114 C 0.6744 0.66913 0.07759 0.0
H115 H 0.70665 0.70718 0.08766 0.0
H116 H 0.65332 0.63255 0.09029 0.0
H117 H 0.69653 0.65873 0.06322 0.0
C118 C 0.74644 0.89552 0.1295 0.0
N119 N 0.7528 0.8776 0.10761 0.0
N120 N 0.71328 0.82477 0.10377 0.0
C121 C 0.68358 0.80534 0.12506 0.0
C122 C 0.70484 0.84988 0.14239 0.0
C123 C 0.77108 0.95752 0.13577 0.0
H124 H 0.78004 0.98315 0.11889 0.0
H125 H 0.8114 0.97361 0.14596 0.0
H126 H 0.74116 0.96392 0.14732 0.0
O127 O 0.7804 0.95175 0.06344 0.0
O128 O 0.71372 0.87065 0.04668 0.0
H129 H 0.59479 0.74693 0.12818 0.0
H130 H 0.63869 0.73029 0.14697 0.0
C131 C 0.6353 0.74626 0.12878 0.0
H132 H 0.63457 0.71725 0.11441 0.0
H133 H 0.58958 0.76561 0.04894 0.0
O134 O 0.87123 0.97802 0.1039 0.0
C135 C 0.7422 0.9256 0.04757 0.0
Co136 Co 0.96594 0.81409 0.43715 0.0
Co137 Co 0.9328 0.70056 0.41165 0.0
C138 C 0.03947 0.81421 0.39699 0.0
O139 O 0.03186 0.84003 0.41462 0.0
O140 O 1.00461 0.76119 0.39363 0.0
C141 C 0.03341 0.90593 0.46748 0.0
O142 O 0.068 0.88534 0.46547 0.0
C143 C 0.96695 0.61535 0.405 0.0
C144 C 0.89342 0.54267 0.38751 0.0
C145 C 0.94829 0.56081 0.39575 0.0
N146 N 0.92569 0.62864 0.40207 0.0
N147 N 0.88169 0.58493 0.39161 0.0
C148 C 0.02165 0.65368 0.41785 0.0
H149 H 0.03548 0.62847 0.42891 0.0
H150 H 0.0549 0.67869 0.40416 0.0
H151 H 0.01695 0.68419 0.42976 0.0
C152 C 0.93422 0.7448 0.48122 0.0
N153 N 0.94993 0.7523 0.45759 0.0
N154 N 0.93215 0.70255 0.44719 0.0
C155 C 0.90362 0.66143 0.46413 0.0
C156 C 0.90438 0.68697 0.48643 0.0
C157 C 0.93793 0.79122 0.49736 0.0
H158 H 0.91752 0.81297 0.48828 0.0
H159 H 0.98315 0.82255 0.50092 0.0
H160 H 0.91685 0.77481 0.5151 0.0
O161 O 0.89571 0.79512 0.41849 0.0
O162 O 0.86809 0.71186 0.40011 0.0
H163 H 0.83999 0.59358 0.4427 0.0
H164 H 0.84377 0.57437 0.47408 0.0
C165 C 0.86887 0.59947 0.45813 0.0
H166 H 0.89754 0.58361 0.45217 0.0
H167 H 0.84375 0.58388 0.38729 0.0
O168 O 0.98527 0.88038 0.45708 0.0
C169 C 0.86063 0.75405 0.40501 0.0
Co170 Co 0.14061 0.94668 0.76764 0.0
Co171 Co 0.22646 0.9225 0.74146 0.0
C172 C 0.21755 0.0303 0.73162 0.0
O173 O 0.18233 0.01891 0.74887 0.0
O174 O 0.23681 0.99685 0.72695 0.0
C175 C 0.0994 0.99646 0.80149 0.0
O176 O 0.15197 0.0391 0.80179 0.0
C177 C 0.34651 0.9616 0.73584 0.0
C178 C 0.34924 0.89316 0.71516 0.0
C179 C 0.38396 0.94645 0.7255 0.0
N180 N 0.29291 0.91989 0.73154 0.0
N181 N 0.29472 0.87898 0.71916 0.0
C182 C 0.36046 0.01307 0.7509 0.0
H183 H 0.32408 1.00479 0.76277 0.0
H184 H 0.39871 0.0254 0.76226 0.0
H185 H 0.36887 0.04901 0.73866 0.0
C186 C 0.17729 0.91018 0.81103 0.0
N187 N 0.18467 0.92732 0.78758 0.0
N188 N 0.2194 0.91361 0.77684 0.0
C189 C 0.23496 0.88659 0.79341 0.0
C190 C 0.20864 0.88362 0.81572 0.0
C191 C 0.13579 0.91314 0.82812 0.0
H192 H 0.09285 0.8918 0.81983 0.0
H193 H 0.14942 0.95835 0.83183 0.0
H194 H 0.13323 0.89259 0.84583 0.0
O195 O 0.0952 0.88274 0.74484 0.0
O196 O 0.15445 0.86132 0.72569 0.0
H197 H 0.25115 0.83208 0.77067 0.0
H198 H 0.2693 0.8321 0.80257 0.0
C199 C 0.26893 0.85867 0.78726 0.0
H200 H 0.31318 0.89205 0.78307 0.0
H201 H 0.25888 0.84151 0.71344 0.0
O202 O 0.08619 0.95384 0.78785 0.0
C203 C 0.10422 0.85261 0.72957 0.0
Co204 Co 0.87948 0.81345 0.6286 0.0
Co205 Co 0.78997 0.70235 0.65261 0.0
C206 C 0.79715 0.8175 0.66299 0.0
O207 O 0.83512 0.84183 0.64681 0.0
O208 O 0.77637 0.7644 0.66712 0.0
C209 C 0.91054 0.89743 0.59344 0.0
O210 O 0.85533 0.87624 0.59181 0.0
C211 C 0.66977 0.6203 0.65537 0.0
C212 C 0.66454 0.54814 0.67606 0.0
C213 C 0.63106 0.56705 0.6648 0.0
N214 N 0.72279 0.63219 0.66103 0.0
N215 N 0.71949 0.58884 0.6734 0.0
C216 C 0.65779 0.65865 0.63994 0.0
H217 H 0.62129 0.63336 0.62759 0.0
H218 H 0.64757 0.68537 0.6519 0.0
H219 H 0.69572 0.68759 0.62903 0.0
C220 C 0.85175 0.7423 0.58495 0.0
N221 N 0.83958 0.75097 0.60785 0.0
N222 N 0.80092 0.70248 0.6173 0.0
C223 C 0.78613 0.66119 0.60007 0.0
C224 C 0.81759 0.68553 0.57884 0.0
C225 C 0.90226 0.78481 0.57065 0.0
H226 H 0.93904 0.8092 0.58289 0.0
H227 H 0.89148 0.81414 0.56104 0.0
H228 H 0.91547 0.7641 0.5568 0.0
O229 O 0.92399 0.79551 0.65169 0.0
O230 O 0.86166 0.71429 0.66982 0.0
H231 H 0.748 0.57288 0.58923 0.0
H232 H 0.70372 0.59099 0.60746 0.0
C233 C 0.74761 0.59912 0.60471 0.0
H234 H 0.76084 0.58672 0.62169 0.0
H235 H 0.75457 0.58706 0.68006 0.0
O236 O 0.93061 0.87713 0.6088 0.0
C237 C 0.9126 0.75559 0.66685 0.0
Co238 Co 0.09358 0.90317 0.95846 0.0
Co239 Co 0.09084 0.8003 0.98408 0.0
C240 C 0.99566 0.8265 0.99136 0.0
O241 O 0.02165 0.86878 0.97713 0.0
O242 O 0.01496 0.7927 0.99493 0.0
C243 C 0.05377 0.94845 0.92253 0.0
O244 O 0.01322 0.89515 0.9201 0.0
C245 C 0.0498 0.67749 0.98712 0.0
C246 C 0.10405 0.67189 1.01565 0.0
C247 C 0.05908 0.63885 1.00013 0.0
N248 N 0.08769 0.73071 0.99446 0.0
N249 N 0.12018 0.72701 1.01146 0.0
C250 C 1.00227 0.66398 0.96972 0.0
H251 H 1.00019 0.70287 0.96529 0.0
H252 H 1.00894 0.64622 0.95265 0.0
H253 H 0.96138 0.63118 0.97771 0.0
C254 C 0.12909 0.86317 0.91621 0.0
N255 N 0.10771 0.85485 0.93896 0.0
N256 N 0.10815 0.811 0.94897 0.0
C257 C 0.1295 0.78937 0.93224 0.0
C258 C 0.143 0.82173 0.91085 0.0
C259 C 0.14227 0.91393 0.90073 0.0
H260 H 0.16103 0.95301 0.91204 0.0
H261 H 0.10263 0.90742 0.89205 0.0
H262 H 0.17266 0.92072 0.88598 0.0
O263 O 0.15486 0.94147 0.98193 0.0
O264 O 0.15086 0.86977 1.00341 0.0
H265 H 0.15832 0.74659 0.95629 0.0
H266 H 0.17495 0.7448 0.92437 0.0
C267 C 0.14273 0.74303 0.93733 0.0
H268 H 0.10346 0.70121 0.93524 0.0
H269 H 0.15258 0.762 1.02058 0.0
O270 O 0.09254 0.96119 0.93824 0.0
C271 C 0.17181 0.92337 0.99957 0.0
Co272 Co 0.19937 0.04262 0.2836 0.0
Co273 Co 0.31175 0.07898 0.31029 0.0
C274 C 0.19807 0.97126 0.32472 0.0
O275 O 0.17272 0.97722 0.3065 0.0
O276 O 0.25059 1.00725 0.32837 0.0
C277 C 0.10609 0.97462 0.25399 0.0
O278 O 0.12376 0.9379 0.25726 0.0
C279 C 0.39682 0.04504 0.31739 0.0
C280 C 0.46895 0.1189 0.33498 0.0
C281 C 0.45116 0.06393 0.32673 0.0
N282 N 0.3833 0.08625 0.32028 0.0
N283 N 0.42669 0.13044 0.3308 0.0
C284 C 0.3589 0.99018 0.30448 0.0
H285 H 0.38427 0.9766 0.29341 0.0
H286 H 0.33407 0.95671 0.31814 0.0
H287 H 0.32834 0.99468 0.29258 0.0
C288 C 0.26977 0.07168 0.23991 0.0
N289 N 0.26169 0.05749 0.26374 0.0
N290 N 0.31104 0.0796 0.27481 0.0
C291 C 0.35217 0.11104 0.25836 0.0
C292 C 0.3274 0.10671 0.2355 0.0
C293 C 0.22295 0.06139 0.22257 0.0
H294 H 0.20188 0.08532 0.22871 0.0
H295 H 0.19138 0.01535 0.22211 0.0
H296 H 0.23883 0.07473 0.20378 0.0
O297 O 0.21772 0.11391 0.30196 0.0
O298 O 0.30017 0.14361 0.32114 0.0
H299 H 0.41377 0.17873 0.28052 0.0
H300 H 0.43721 0.17809 0.24957 0.0
C301 C 0.41255 0.15127 0.26523 0.0
H302 H 0.43236 0.12644 0.27175 0.0
H303 H 0.42756 0.16843 0.33507 0.0
O304 O 0.13419 0.02408 0.26316 0.0
C305 C 0.25779 0.15 0.3156 0.0
Co306 Co 0.11994 0.19519 0.6347 0.0
Co307 Co 0.22268 0.3073 0.65121 0.0
C308 C 0.21 0.19236 0.66505 0.0
O309 O 0.16596 0.16688 0.65177 0.0
O310 O 0.23631 0.24656 0.66678 0.0
C311 C 0.0799 0.11316 0.59854 0.0
O312 O 0.1344 0.13552 0.59397 0.0
C313 C 0.34462 0.38781 0.65381 0.0
C314 C 0.3495 0.46527 0.66931 0.0
C315 C 0.38322 0.44302 0.66154 0.0
N316 N 0.29143 0.37825 0.65712 0.0
N317 N 0.29463 0.42478 0.66639 0.0
C318 C 0.35695 0.34525 0.64206 0.0
H319 H 0.3197 0.31393 0.63132 0.0
H320 H 0.3946 0.36686 0.62999 0.0
H321 H 0.36555 0.32169 0.65641 0.0
C322 C 0.13432 0.25653 0.59047 0.0
N323 N 0.15535 0.25299 0.61205 0.0
N324 N 0.20454 0.29853 0.61608 0.0
C325 C 0.2196 0.32987 0.5951 0.0
C326 C 0.17548 0.30305 0.57773 0.0
C327 C 0.07147 0.22631 0.58536 0.0
H328 H 0.04726 0.21481 0.6027 0.0
H329 H 0.05816 0.18667 0.5749 0.0
H330 H 0.06006 0.25382 0.57456 0.0
O331 O 0.08342 0.21937 0.65775 0.0
O332 O 0.15472 0.30298 0.67046 0.0
H333 H 0.26375 0.42054 0.59282 0.0
H334 H 0.29232 0.38667 0.57392 0.0
C335 C 0.2734 0.38529 0.592 0.0
H336 H 0.30425 0.39153 0.60654 0.0
H337 H 0.25944 0.42874 0.67092 0.0
O338 O 0.06356 0.13104 0.61644 0.0
C339 C 0.10194 0.26416 0.67058 0.0
Co340 Co 0.95831 0.15798 0.95388 0.0
Co341 Co 0.926 0.23803 0.98007 0.0
C342 C 0.03417 0.23216 0.99307 0.0
O343 O 0.0259 0.19874 0.97535 0.0
O344 O 0.99898 0.24958 0.99711 0.0
C345 C 0.01965 0.12894 0.92078 0.0
O346 O 0.05785 0.18338 0.92173 0.0
C347 C 0.95364 0.35656 0.98403 0.0
C348 C 0.89477 0.35486 1.0121 0.0
C349 C 0.93961 0.39156 0.99729 0.0
N350 N 0.91862 0.30201 0.99051 0.0
N351 N 0.88321 0.30123 1.00721 0.0
C352 C 1.00312 0.37481 0.96724 0.0
H353 H 0.01379 0.34044 0.9652 0.0
H354 H 0.99196 0.38416 0.94904 0.0
H355 H 0.04059 0.41418 0.97416 0.0
C356 C 0.92335 0.19441 0.91047 0.0
N357 N 0.94065 0.20327 0.93391 0.0
N358 N 0.9236 0.23556 0.94457 0.0
C359 C 0.89417 0.24793 0.92795 0.0
C360 C 0.89388 0.22289 0.90558 0.0
C361 C 0.92361 0.14946 0.89461 0.0
H362 H 0.90576 0.10876 0.9047 0.0
H363 H 0.96773 0.16323 0.88893 0.0
H364 H 0.8977 0.14136 0.87805 0.0
O365 O 0.88935 0.10684 0.9731 0.0
O366 O 0.86188 0.16207 0.99184 0.0
H367 H 0.83768 0.25792 0.95206 0.0
H368 H 0.82727 0.26675 0.91998 0.0
C369 C 0.85922 0.27469 0.93433 0.0
H370 H 0.8876 0.32133 0.93633 0.0
H371 H 0.85243 0.26438 1.01585 0.0
O372 O 0.97477 0.10979 0.93343 0.0
C373 C 0.85451 0.11256 0.98678 0.0
Co374 Co 0.80621 0.89033 0.30241 0.0
Co375 Co 0.71328 0.91297 0.32187 0.0
C376 C 0.83304 0.99896 0.33127 0.0
O377 O 0.84519 0.9645 0.32068 0.0
O378 O 0.78173 0.98838 0.33172 0.0
C379 C 0.88612 0.92445 0.26578 0.0
O380 O 0.86825 0.96086 0.26204 0.0
C381 C 0.63647 0.96092 0.32477 0.0
C382 C 0.56078 0.89205 0.34274 0.0
C383 C 0.58197 0.94615 0.33287 0.0
N384 N 0.64631 0.91778 0.32971 0.0
N385 N 0.60088 0.87688 0.34055 0.0
C386 C 0.6776 0.0131 0.3111 0.0
H387 H 0.70967 1.00592 0.3017 0.0
H388 H 0.65492 0.02498 0.29757 0.0
H389 H 0.70023 0.04889 0.32412 0.0
C390 C 0.73615 0.85326 0.25927 0.0
N391 N 0.74673 0.87628 0.28164 0.0
N392 N 0.71062 0.89332 0.28708 0.0
C393 C 0.67912 0.88647 0.26664 0.0
C394 C 0.69482 0.8609 0.24816 0.0
C395 C 0.76322 0.8214 0.24874 0.0
H396 H 0.77819 0.80402 0.26345 0.0
H397 H 0.79958 0.84995 0.23701 0.0
H398 H 0.73224 0.78585 0.23709 0.0
O399 O 0.7784 0.83132 0.32566 0.0
O400 O 0.71848 0.85257 0.3444 0.0
H401 H 0.60861 0.89212 0.28072 0.0
H402 H 0.60981 0.8872 0.24776 0.0
C403 C 0.63619 0.90534 0.26437 0.0
H404 H 0.65851 0.95249 0.26324 0.0
H405 H 0.59696 0.8383 0.3462 0.0
O406 O 0.86489 0.8887 0.283 0.0
C407 C 0.7444 0.82364 0.34292 0.0
C408 C 0.57211 0.54597 0.05811 0.0
C409 C 0.54446 0.5782 0.05926 0.0
H410 H 0.56374 0.46289 0.05771 0.0
C411 C 0.48468 0.54869 0.05989 0.0
H412 H 0.61768 0.56636 0.05633 0.0
C413 C 0.45359 0.48907 0.05993 0.0
C414 C 0.48122 0.45684 0.05973 0.0
H415 H 0.46157 0.57171 0.06025 0.0
H416 H 0.40784 0.46868 0.05951 0.0
C417 C 0.54093 0.48618 0.05847 0.0
C418 C 0.97579 0.43576 0.39281 0.0
C419 C 0.03543 0.46307 0.39121 0.0
H420 H 0.90196 0.44499 0.39575 0.0
C421 C 0.06595 0.52304 0.3906 0.0
H422 H 0.95013 0.38993 0.39218 0.0
C423 C 0.03806 0.55469 0.39201 0.0
C424 C 0.97865 0.52751 0.3944 0.0
H425 H 0.1118 0.54587 0.38891 0.0
H426 H 0.06339 0.60046 0.39058 0.0
C427 C 0.94787 0.46754 0.39446 0.0
C428 C 0.53678 0.97742 0.72394 0.0
C429 C 0.56809 0.0373 0.72489 0.0
H430 H 0.45466 0.90219 0.72371 0.0
C431 C 0.53817 0.06726 0.72509 0.0
H432 H 0.55787 0.95267 0.72249 0.0
C433 C 0.47865 0.03817 0.72517 0.0
C434 C 0.44735 0.97825 0.72526 0.0
H435 H 0.56079 0.11341 0.72527 0.0
H436 H 0.45753 0.063 0.72465 0.0
C437 C 0.47728 0.94833 0.72423 0.0
C438 C 0.53734 0.47558 0.6647 0.0
C439 C 0.56763 0.53545 0.66366 0.0
H440 H 0.45653 0.39954 0.6657 0.0
C441 C 0.53652 0.56419 0.66254 0.0
H442 H 0.55972 0.45194 0.66613 0.0
C443 C 0.47707 0.53394 0.66153 0.0
C444 C 0.44673 0.47402 0.66195 0.0
H445 H 0.55758 0.61011 0.66305 0.0
H446 H 0.45481 0.55777 0.66054 0.0
C447 C 0.47778 0.4453 0.66399 0.0
C448 C 0.98104 0.48406 1.0201 0.0
C449 C 0.96909 0.45487 0.99776 0.0
H450 H 0.01981 0.5651 0.0383 0.0
C451 C 0.98578 0.48668 0.97607 0.0
H452 H 0.96876 0.4607 0.0371 0.0
C453 C 0.0141 0.54643 0.97675 0.0
C454 C 0.02692 0.57557 0.99913 0.0
H455 H 0.97652 0.46541 0.95857 0.0
H456 H 0.02722 0.56975 0.95978 0.0
C457 C 1.01039 0.54375 1.02079 0.0
C458 C 0.48966 0.94648 0.33158 0.0
C459 C 0.54946 0.97734 0.33096 0.0
H460 H 0.41221 0.94859 0.33171 0.0
C461 C 0.57642 0.03716 0.32955 0.0
H462 H 0.46708 0.90049 0.33315 0.0
C463 C 0.54447 0.06491 0.32802 0.0
C464 C 0.48467 0.03378 0.32805 0.0
H465 H 0.6221 0.06308 0.33019 0.0
H466 H 0.56676 0.11096 0.32685 0.0
C467 C 0.45784 0.9742 0.33031 0.0
C468 C 0.1918 0.95942 0.04241 0.0
C469 C 0.20817 0.96688 1.01783 0.0
H470 H 0.19399 1.00014 0.07625 0.0
C471 C 0.24892 0.02175 1.00987 0.0
H472 H 0.15986 0.91796 0.049 0.0
C473 C 0.26887 0.06892 1.0255 0.0
C474 C 0.24753 0.06237 0.0493 0.0
H475 H 0.26193 0.02887 0.99094 0.0
H476 H 0.29707 0.11097 1.01824 0.0
C477 C 0.21088 1.00676 0.05792 0.0
C478 C 0.19018 0.23778 0.33449 0.0
C479 C 0.22008 0.26331 0.356 0.0
H480 H 0.17842 0.18146 0.30483 0.0
C481 C 0.27018 0.2616 0.36089 0.0
H482 H 0.1509 0.23735 0.33043 0.0
C483 C 0.28559 0.22864 0.3465 0.0
C484 C 0.25113 0.19659 0.32689 0.0
H485 H 0.29369 0.28023 0.37755 0.0
H486 H 0.32154 0.22436 0.3521 0.0
C487 C 0.2054 0.20457 0.32012 0.0
C488 C 0.06593 0.25812 0.71255 0.0
C489 C 0.06015 0.26475 0.68759 0.0
H490 H 0.02287 0.22111 0.74602 0.0
C491 C 1.00606 0.25025 0.67843 0.0
H492 H 0.10677 0.26782 0.72 0.0
C493 C 0.95774 0.22325 0.69327 0.0
C494 C 0.96271 0.20952 0.71744 0.0
H495 H 1.00038 0.25413 0.65912 0.0
H496 H 0.91626 0.20785 0.68512 0.0
C497 C 0.01758 0.23045 0.72733 0.0
C498 C 0.76396 0.95734 1.00481 0.0
C499 C 0.74315 0.96242 1.0275 0.0
H500 H 0.81604 1.00123 0.97413 0.0
C501 C 0.74806 0.01524 0.03373 0.0
H502 H 0.76182 0.91767 0.99967 0.0
C503 C 0.78014 0.0637 1.01934 0.0
C504 C 0.80799 0.06023 0.99841 0.0
H505 H 0.73308 0.0206 0.05129 0.0
H506 H 0.78743 0.10457 1.02587 0.0
C507 C 0.79631 1.00582 0.99047 0.0
C508 C 0.7526 0.74186 0.35806 0.0
C509 C 0.74828 0.79047 0.36351 0.0
H510 H 0.79161 0.692 0.36681 0.0
C511 C 0.77045 0.81847 0.38574 0.0
H512 H 0.73645 0.71977 0.34089 0.0
C513 C 0.80317 0.80328 0.40039 0.0
C514 C 0.81395 0.75945 0.39321 0.0
H515 H 0.76874 0.85654 0.39029 0.0
H516 H 0.82378 0.829 0.41633 0.0
C517 C 0.78504 0.72644 0.37275 0.0
C518 C 1.00004 0.78539 0.72384 0.0
C519 C 0.05551 0.81244 0.71421 0.0
H520 H 0.91055 0.74371 0.71624 0.0
C521 C 0.06238 0.80972 0.68899 0.0
H522 H 0.99347 0.78692 0.74323 0.0
C523 C 0.01488 0.78601 0.67353 0.0
C524 C 0.9596 0.76313 0.68304 0.0
H525 H 0.10446 0.8306 0.68101 0.0
H526 H 0.02158 0.78908 0.654 0.0
C527 C 0.95248 0.76031 0.70841 0.0
C528 C 1.01053 0.10478 0.13691 0.0
C529 C 0.05271 0.09009 0.14039 0.0
H530 H 0.92335 0.07343 0.12803 0.0
C531 C 0.03721 0.03343 0.14565 0.0
H532 H 0.02151 0.14841 0.13328 0.0
C533 C 0.98104 0.99054 0.14271 0.0
C534 C 0.94086 1.00461 0.13434 0.0
H535 H 0.06933 0.02162 0.149 0.0
H536 H 0.97096 0.94654 0.1439 0.0
C537 C 0.95451 0.06187 0.13369 0.0
C538 C 0.12508 0.06193 0.46609 0.0
C539 C 0.08296 0.0774 0.46785 0.0
H540 H 0.14224 0.99314 0.46563 0.0
C541 C 0.02974 0.03881 0.47763 0.0
H542 H 0.16706 0.09175 0.45927 0.0
C543 C 0.01551 0.98237 0.4812 0.0
C544 C 0.05467 0.96478 0.47521 0.0
H545 H 0.99698 0.05021 0.47971 0.0
H546 H 0.97204 0.95141 0.48584 0.0
C547 C 0.11105 1.00564 0.46995 0.0
C548 C 1.01045 0.05998 0.81675 0.0
C549 C 0.9567 0.0112 0.81395 0.0
H550 H 0.10014 0.09334 0.81538 0.0
C551 C 0.9511 0.95713 0.81581 0.0
H552 H 0.01527 0.10217 0.81605 0.0
C553 C 0.99966 0.9521 0.81534 0.0
C554 C 0.05345 1.00115 0.81313 0.0
H555 H 0.9099 0.91898 0.81416 0.0
H556 H 0.99472 0.90998 0.81369 0.0
C557 C 0.05899 0.05496 0.8164 0.0
C558 C 1.00598 0.96392 0.57791 0.0
C559 C 0.9499 0.95145 0.58204 0.0
H560 H 0.09353 0.02823 0.57959 0.0
C561 C 0.9372 0.99553 0.58276 0.0
H562 H 0.01615 0.93003 0.57677 0.0
C563 C 0.98136 0.05145 0.58475 0.0
C564 C 0.03775 0.06281 0.58552 0.0
H565 H 0.89403 0.98665 0.58557 0.0
H566 H 0.97128 0.08464 0.5887 0.0
C567 C 0.05016 0.01996 0.57953 0.0
C568 C 0.99585 0.98649 0.90458 0.0
C569 C 0.04939 0.99476 0.91095 0.0
H570 H 0.94438 0.0255 0.90218 0.0
C571 C 0.09636 0.05029 0.91169 0.0
H572 H 0.95926 0.94406 0.90326 0.0
C573 C 0.08791 0.0969 0.91095 0.0
C574 C 0.03247 0.08766 0.90961 0.0
H575 H 0.13851 0.05754 0.91577 0.0
H576 H 0.12349 0.13888 0.91479 0.0
C577 C 0.98735 0.03307 0.90399 0.0
C578 C 0.03211 0.99608 0.24026 0.0
C579 C 0.04772 0.95534 0.24626 0.0
H580 H 0.96643 0.01756 0.24157 0.0
C581 C 1.00547 0.89923 0.25128 0.0
H582 H 0.06408 0.03935 0.23573 0.0
C583 C 0.9498 0.88696 0.2549 0.0
C584 C 0.9363 0.93058 0.25316 0.0
H585 H 0.01635 0.86677 0.25554 0.0
H586 H 0.91887 0.84506 0.26149 0.0
C587 C 0.97629 0.98365 0.24363 0.0
C588 C 0.07322 0.24521 0.03599 0.0
C589 C 0.08129 0.24408 1.0107 0.0
H590 H 0.10287 0.24177 0.07199 0.0
C591 C 0.13164 0.24616 1.00268 0.0
H592 H 0.03476 0.24286 0.04291 0.0
C593 C 0.17166 0.24728 1.0194 0.0
C594 C 0.16168 0.24444 0.04467 0.0
H595 H 0.13921 0.24494 0.98337 0.0
H596 H 0.20859 0.24649 1.01245 0.0
C597 C 0.11233 0.24444 0.05271 0.0
C598 C 0.91806 0.13789 0.36818 0.0
C599 C 0.96557 0.13369 0.37571 0.0
H600 H 0.8383 0.09865 0.34859 0.0
C601 C 0.96872 0.08573 0.36801 0.0
H602 H 0.91423 0.17431 0.37359 0.0
C603 C 0.9266 0.04378 0.35322 0.0
C604 C 0.8787 0.04716 0.34584 0.0
H605 H 1.00464 0.08085 0.37305 0.0
H606 H 0.93135 1.00784 0.34789 0.0
C607 C 0.87467 0.09466 0.35374 0.0
C608 C 0.78558 0.90328 0.67091 0.0
C609 C 0.78492 0.85403 0.67965 0.0
H610 H 0.78757 0.98173 0.67967 0.0
C611 C 0.78171 0.84526 0.70503 0.0
H612 H 0.78871 0.9118 0.65153 0.0
C613 C 0.78305 0.88637 0.72122 0.0
C614 C 0.78555 0.9365 0.7125 0.0
H615 H 0.78212 0.80844 0.71247 0.0
H616 H 0.78403 0.87982 0.74064 0.0
C617 C 0.78483 0.94339 0.68708 0.0
C618 C 0.90683 0.8761 1.02597 0.0
C619 C 0.86772 0.8277 0.03904 0.0
H620 H 0.97522 0.91299 1.00062 0.0
C621 C 0.86865 0.77656 0.03543 0.0
H622 H 0.90706 0.91605 0.02791 0.0
C623 C 0.90944 0.77497 1.01979 0.0
C624 C 0.94862 0.82393 1.00678 0.0
H625 H 0.83891 0.73835 0.04509 0.0
H626 H 0.91037 0.73563 1.01794 0.0
C627 C 0.94584 0.8741 1.00998 0.0
C628 C 0.17393 0.93653 0.36838 0.0
C629 C 0.16333 0.92604 0.34323 0.0
H630 H 0.14326 0.91027 0.40491 0.0
C631 C 0.11441 0.87498 0.33616 0.0
H632 H 0.21053 0.97557 0.37461 0.0
C633 C 0.07653 0.83656 0.35361 0.0
C634 C 0.0853 0.84881 0.37871 0.0
H635 H 0.10445 0.86548 0.31701 0.0
H636 H 0.0385 0.7989 0.34734 0.0
C637 C 0.13511 0.89902 0.3858 0.0
C638 C 0.23209 0.12849 0.72296 0.0
C639 C 0.22797 0.07748 0.71442 0.0
H640 H 0.23239 0.20597 0.71395 0.0
C641 C 0.22488 0.06826 0.68906 0.0
H642 H 0.23385 0.13668 0.74235 0.0
C643 C 0.22198 0.10701 0.67284 0.0
C644 C 0.2244 0.15718 0.68143 0.0
H645 H 0.22065 0.02908 0.68184 0.0
H646 H 0.21582 0.09674 0.6536 0.0
C647 C 0.23144 0.16832 0.70665 0.0
C648 C 0.3547 0.15074 0.16941 0.0
C649 C 0.35155 0.20105 0.16982 0.0
H650 H 0.3505 0.08152 0.19025 0.0
C651 C 0.35312 0.22586 0.19255 0.0
H652 H 0.35178 0.12971 0.15223 0.0
C653 C 0.35268 0.19837 0.21436 0.0
C654 C 0.35023 0.14525 0.2139 0.0
H655 H 0.34898 0.26358 0.19348 0.0
H656 H 0.34846 0.2158 0.2315 0.0
C657 C 0.35382 0.12303 0.19122 0.0
C658 C 0.12706 0.26835 0.51197 0.0
C659 C 0.15553 0.32051 0.49972 0.0
H660 H 0.11889 0.22158 0.54377 0.0
C661 C 0.19101 0.36978 0.5135 0.0
H662 H 0.09983 0.22937 0.50208 0.0
C663 C 0.19785 0.36593 0.53901 0.0
C664 C 0.17109 0.31243 0.55084 0.0
H665 H 0.21459 0.41063 0.50452 0.0
H666 H 0.22445 0.40442 0.54921 0.0
C667 C 0.13709 0.26407 0.53644 0.0
C668 C 0.88262 0.24375 0.86218 0.0
C669 C 0.85781 0.21221 0.88346 0.0
H670 H 0.88389 0.24345 0.82301 0.0
C671 C 0.80676 0.15996 0.88123 0.0
H672 H 0.92265 0.28339 0.86325 0.0
C673 C 0.78524 0.13649 0.85814 0.0
C674 C 0.81358 0.16532 0.83682 0.0
H675 H 0.78748 0.13407 0.89724 0.0
H676 H 0.75 0.09323 0.85703 0.0
C677 C 0.86032 0.22082 0.83908 0.0
C678 C 0.74185 0.89411 0.20839 0.0
C679 C 0.69067 0.86251 0.22101 0.0
H680 H 0.78728 0.90812 0.17554 0.0
C681 C 0.64163 0.82544 0.20751 0.0
H682 H 0.78069 0.92231 0.21812 0.0
C683 C 0.64461 0.82039 0.18184 0.0
C684 C 0.69706 0.851 0.16954 0.0
H685 H 0.60172 0.79935 0.21681 0.0
H686 H 0.60633 0.79245 0.1718 0.0
C687 C 0.74541 0.88655 0.18357 0.0
C688 C 0.81879 0.66588 0.5113 0.0
C689 C 0.8684 0.66218 0.50863 0.0
H690 H 0.76255 0.67474 0.53615 0.0
C691 C 0.89142 0.65112 0.52948 0.0
H692 H 0.80089 0.67574 0.49566 0.0
C693 C 0.86863 0.64937 0.55273 0.0
C694 C 0.82304 0.65977 0.55561 0.0
H695 H 0.93035 0.64945 0.52809 0.0
H696 H 0.89093 0.64682 0.56862 0.0
C697 C 0.79664 0.6651 0.53454 0.0
C698 C 0.24186 0.87812 0.85767 0.0
C699 C 0.2034 0.85104 0.83845 0.0
H700 H 0.25334 0.88752 0.89647 0.0
C701 C 0.15081 0.80246 0.84383 0.0
H702 H 0.2822 0.91618 0.85418 0.0
C703 C 0.13378 0.78673 0.86811 0.0
C704 C 0.16943 0.81858 0.88746 0.0
H705 H 0.11992 0.78132 0.82945 0.0
H706 H 0.09031 0.75409 0.87171 0.0
C707 C 0.22526 0.86156 0.88196 0.0
loop_
_geom_bond_atom_site_label_1
_geom_bond_atom_site_label_2
_geom_bond_distance
_geom_bond_site_symmetry_2
_ccdc_geom_bond_type
Co0 O3 1.970 . S
Co0 N17 1.989 . S
Co0 O25 1.967 . S
Co0 O32 1.920 . S
Co1 O4 1.966 . S
Co1 N10 2.022 . S
Co1 N18 1.993 . S
Co1 O26 1.941 . S
C2 O3 1.258 . S
C2 O4 1.263 . S
O3 Co0 1.970 . S
O3 C2 1.258 . S
O4 Co1 1.966 . S
O4 C2 1.263 . S
C5 O6 1.235 . S
C5 O32 1.289 . S
O6 C5 1.235 . S
C7 C9 1.400 . S
C7 N10 1.351 . S
C7 C12 1.501 . S
C8 C9 1.387 . S
C8 N11 1.341 . S
C9 C7 1.400 . S
C9 C8 1.387 . S
N10 Co1 2.022 . S
N10 C7 1.351 . S
N10 N11 1.365 . S
N11 C8 1.341 . S
N11 N10 1.365 . S
N11 H31 0.862 . S
C12 C7 1.501 . S
C12 H13 0.961 . S
C12 H14 0.961 . S
C12 H15 0.960 . S
H13 C12 0.961 . S
H14 C12 0.961 . S
H15 C12 0.960 . S
C16 N17 1.342 . S
C16 C20 1.401 . S
C16 C21 1.499 . S
N17 Co0 1.989 . S
N17 C16 1.342 . S
N17 N18 1.388 . S
N18 Co1 1.993 . S
N18 N17 1.388 . S
N18 C19 1.346 . S
C19 N18 1.346 . S
C19 C20 1.396 . S
C19 C29 1.510 . S
C20 C16 1.401 . S
C20 C19 1.396 . S
C21 C16 1.499 . S
C21 H22 0.959 . S
C21 H23 0.960 . S
C21 H24 0.961 . S
H22 C21 0.959 . S
H23 C21 0.960 . S
H24 C21 0.961 . S
O25 Co0 1.967 . S
O25 C33 1.258 . S
O26 Co1 1.941 . S
O26 C33 1.266 . S
H27 C29 0.959 . S
H28 C29 0.961 . S
C29 C19 1.510 . S
C29 H27 0.959 . S
C29 H28 0.961 . S
C29 H30 0.960 . S
H30 C29 0.960 . S
H31 N11 0.862 . S
O32 Co0 1.920 . S
O32 C5 1.289 . S
C33 O25 1.258 . S
C33 O26 1.266 . S
Co34 O37 1.970 . S
Co34 N51 1.989 . S
Co34 O59 1.967 . S
Co34 O66 1.920 . S
Co35 O38 1.966 . S
Co35 N44 2.022 . S
Co35 N52 1.993 . S
Co35 O60 1.941 . S
C36 O37 1.258 1_655 S
C36 O38 1.263 1_655 S
O37 Co34 1.970 . S
O37 C36 1.258 1_455 S
O38 Co35 1.966 . S
O38 C36 1.263 1_455 S
C39 O40 1.235 1_455 S
C39 O66 1.289 . S
O40 C39 1.235 1_655 S
C41 C43 1.400 . S
C41 N44 1.351 . S
C41 C46 1.501 . S
C42 C43 1.387 . S
C42 N45 1.341 . S
C43 C41 1.400 . S
C43 C42 1.387 . S
N44 Co35 2.022 . S
N44 C41 1.351 . S
N44 N45 1.365 . S
N45 C42 1.341 . S
N45 N44 1.365 . S
N45 H65 0.862 . S
C46 C41 1.501 . S
C46 H47 0.961 . S
C46 H48 0.961 1_455 S
C46 H49 0.960 1_455 S
H47 C46 0.961 . S
H48 C46 0.961 1_655 S
H49 C46 0.960 1_655 S
C50 N51 1.342 . S
C50 C54 1.401 . S
C50 C55 1.499 . S
N51 Co34 1.989 . S
N51 C50 1.342 . S
N51 N52 1.388 . S
N52 Co35 1.993 . S
N52 N51 1.388 . S
N52 C53 1.346 . S
C53 N52 1.346 . S
C53 C54 1.396 . S
C53 C63 1.510 . S
C54 C50 1.401 . S
C54 C53 1.396 . S
C55 C50 1.499 . S
C55 H56 0.959 . S
C55 H57 0.960 . S
C55 H58 0.961 . S
H56 C55 0.959 . S
H57 C55 0.960 . S
H58 C55 0.961 . S
O59 Co34 1.967 . S
O59 C67 1.258 . S
O60 Co35 1.941 . S
O60 C67 1.266 . S
H61 C63 0.959 . S
H62 C63 0.961 . S
C63 C53 1.510 . S
C63 H61 0.959 . S
C63 H62 0.961 . S
C63 H64 0.960 . S
H64 C63 0.960 . S
H65 N45 0.862 . S
O66 Co34 1.920 . S
O66 C39 1.289 . S
C67 O59 1.258 . S
C67 O60 1.266 . S
Co68 O71 1.970 . S
Co68 N85 1.989 . S
Co68 O93 1.967 . S
Co68 O100 1.920 . S
Co69 O72 1.966 . S
Co69 N78 2.022 . S
Co69 N86 1.993 . S
Co69 O94 1.941 . S
C70 O71 1.258 1_565 S
C70 O72 1.263 1_565 S
O71 Co68 1.970 . S
O71 C70 1.258 1_545 S
O72 Co69 1.966 . S
O72 C70 1.263 1_545 S
C73 O74 1.235 1_545 S
C73 O100 1.289 . S
O74 C73 1.235 1_565 S
C75 C77 1.400 . S
C75 N78 1.351 . S
C75 C80 1.501 . S
C76 C77 1.387 . S
C76 N79 1.341 . S
C77 C75 1.400 . S
C77 C76 1.387 . S
N78 Co69 2.022 . S
N78 C75 1.351 . S
N78 N79 1.365 . S
N79 C76 1.341 . S
N79 N78 1.365 . S
N79 H99 0.862 . S
C80 C75 1.501 . S
C80 H81 0.961 . S
C80 H82 0.961 1_545 S
C80 H83 0.960 1_545 S
H81 C80 0.961 . S
H82 C80 0.961 1_565 S
H83 C80 0.960 1_565 S
C84 N85 1.342 . S
C84 C88 1.401 . S
C84 C89 1.499 . S
N85 Co68 1.989 . S
N85 C84 1.342 . S
N85 N86 1.388 . S
N86 Co69 1.993 . S
N86 N85 1.388 . S
N86 C87 1.346 . S
C87 N86 1.346 . S
C87 C88 1.396 . S
C87 C97 1.510 . S
C88 C84 1.401 . S
C88 C87 1.396 . S
C89 C84 1.499 . S
C89 H90 0.959 . S
C89 H91 0.960 . S
C89 H92 0.961 . S
H90 C89 0.959 . S
H91 C89 0.960 . S
H92 C89 0.961 . S
O93 Co68 1.967 . S
O93 C101 1.258 . S
O94 Co69 1.941 . S
O94 C101 1.266 . S
H95 C97 0.959 . S
H96 C97 0.961 . S
C97 C87 1.510 . S
C97 H95 0.959 . S
C97 H96 0.961 . S
C97 H98 0.960 . S
H98 C97 0.960 . S
H99 N79 0.862 . S
O100 Co68 1.920 . S
O100 C73 1.289 . S
C101 O93 1.258 . S
C101 O94 1.266 . S
Co102 O105 1.970 . S
Co102 N119 1.989 . S
Co102 O127 1.967 . S
Co102 O134 1.920 . S
Co103 O106 1.966 . S
Co103 N112 2.022 . S
Co103 N120 1.993 . S
Co103 O128 1.941 . S
C104 O105 1.258 . S
C104 O106 1.263 . S
O105 Co102 1.970 . S
O105 C104 1.258 . S
O106 Co103 1.966 . S
O106 C104 1.263 . S
C107 O108 1.235 . S
C107 O134 1.289 . S
O108 C107 1.235 . S
C109 C111 1.400 . S
C109 N112 1.351 . S
C109 C114 1.501 . S
C110 C111 1.387 . S
C110 N113 1.341 . S
C111 C109 1.400 . S
C111 C110 1.387 . S
N112 Co103 2.022 . S
N112 C109 1.351 . S
N112 N113 1.365 . S
N113 C110 1.341 . S
N113 N112 1.365 . S
N113 H133 0.862 . S
C114 C109 1.501 . S
C114 H115 0.961 . S
C114 H116 0.961 . S
C114 H117 0.960 . S
H115 C114 0.961 . S
H116 C114 0.961 . S
H117 C114 0.960 . S
C118 N119 1.342 . S
C118 C122 1.401 . S
C118 C123 1.499 . S
N119 Co102 1.989 . S
N119 C118 1.342 . S
N119 N120 1.388 . S
N120 Co103 1.993 . S
N120 N119 1.388 . S
N120 C121 1.346 . S
C121 N120 1.346 . S
C121 C122 1.396 . S
C121 C131 1.510 . S
C122 C118 1.401 . S
C122 C121 1.396 . S
C123 C118 1.499 . S
C123 H124 0.959 . S
C123 H125 0.960 . S
C123 H126 0.961 . S
H124 C123 0.959 . S
H125 C123 0.960 . S
H126 C123 0.961 . S
O127 Co102 1.967 . S
O127 C135 1.258 . S
O128 Co103 1.941 . S
O128 C135 1.266 . S
H129 C131 0.959 . S
H130 C131 0.961 . S
C131 C121 1.510 . S
C131 H129 0.959 . S
C131 H130 0.961 . S
C131 H132 0.960 . S
H132 C131 0.960 . S
H133 N113 0.862 . S
O134 Co102 1.920 . S
O134 C107 1.289 . S
C135 O127 1.258 . S
C135 O128 1.266 . S
Co136 O139 1.970 . S
Co136 N153 1.989 . S
Co136 O161 1.967 . S
Co136 O168 1.920 . S
Co137 O140 1.966 . S
Co137 N146 2.022 . S
Co137 N154 1.993 . S
Co137 O162 1.941 . S
C138 O139 1.258 1_455 S
C138 O140 1.263 1_455 S
O139 Co136 1.970 . S
O139 C138 1.258 1_655 S
O140 Co137 1.966 . S
O140 C138 1.263 1_655 S
C141 O142 1.235 1_655 S
C141 O168 1.289 . S
O142 C141 1.235 1_455 S
C143 C145 1.400 . S
C143 N146 1.351 . S
C143 C148 1.501 . S
C144 C145 1.387 . S
C144 N147 1.341 . S
C145 C143 1.400 . S
C145 C144 1.387 . S
N146 Co137 2.022 . S
N146 C143 1.351 . S
N146 N147 1.365 . S
N147 C144 1.341 . S
N147 N146 1.365 . S
N147 H167 0.862 . S
C148 C143 1.501 . S
C148 H149 0.961 . S
C148 H150 0.961 1_655 S
C148 H151 0.960 1_655 S
H149 C148 0.961 . S
H150 C148 0.961 1_455 S
H151 C148 0.960 1_455 S
C152 N153 1.342 . S
C152 C156 1.401 . S
C152 C157 1.499 . S
N153 Co136 1.989 . S
N153 C152 1.342 . S
N153 N154 1.388 . S
N154 Co137 1.993 . S
N154 N153 1.388 . S
N154 C155 1.346 . S
C155 N154 1.346 . S
C155 C156 1.396 . S
C155 C165 1.510 . S
C156 C152 1.401 . S
C156 C155 1.396 . S
C157 C152 1.499 . S
C157 H158 0.959 . S
C157 H159 0.960 . S
C157 H160 0.961 . S
H158 C157 0.959 . S
H159 C157 0.960 . S
H160 C157 0.961 . S
O161 Co136 1.967 . S
O161 C169 1.258 . S
O162 Co137 1.941 . S
O162 C169 1.266 . S
H163 C165 0.959 . S
H164 C165 0.961 . S
C165 C155 1.510 . S
C165 H163 0.959 . S
C165 H164 0.961 . S
C165 H166 0.960 . S
H166 C165 0.960 . S
H167 N147 0.862 . S
O168 Co136 1.920 . S
O168 C141 1.289 . S
C169 O161 1.258 . S
C169 O162 1.266 . S
Co170 O173 1.970 . S
Co170 N187 1.989 . S
Co170 O195 1.967 . S
Co170 O202 1.920 . S
Co171 O174 1.966 . S
Co171 N180 2.022 . S
Co171 N188 1.993 . S
Co171 O196 1.941 . S
C172 O173 1.258 1_545 S
C172 O174 1.263 1_545 S
O173 Co170 1.970 . S
O173 C172 1.258 1_565 S
O174 Co171 1.966 . S
O174 C172 1.263 1_565 S
C175 O176 1.235 1_565 S
C175 O202 1.289 . S
O176 C175 1.235 1_545 S
C177 C179 1.400 . S
C177 N180 1.351 . S
C177 C182 1.501 . S
C178 C179 1.387 . S
C178 N181 1.341 . S
C179 C177 1.400 . S
C179 C178 1.387 . S
N180 Co171 2.022 . S
N180 C177 1.351 . S
N180 N181 1.365 . S
N181 C178 1.341 . S
N181 N180 1.365 . S
N181 H201 0.862 . S
C182 C177 1.501 . S
C182 H183 0.961 . S
C182 H184 0.961 1_565 S
C182 H185 0.960 1_565 S
H183 C182 0.961 . S
H184 C182 0.961 1_545 S
H185 C182 0.960 1_545 S
C186 N187 1.342 . S
C186 C190 1.401 . S
C186 C191 1.499 . S
N187 Co170 1.989 . S
N187 C186 1.342 . S
N187 N188 1.388 . S
N188 Co171 1.993 . S
N188 N187 1.388 . S
N188 C189 1.346 . S
C189 N188 1.346 . S
C189 C190 1.396 . S
C189 C199 1.510 . S
C190 C186 1.401 . S
C190 C189 1.396 . S
C191 C186 1.499 . S
C191 H192 0.959 . S
C191 H193 0.960 . S
C191 H194 0.961 . S
H192 C191 0.959 . S
H193 C191 0.960 . S
H194 C191 0.961 . S
O195 Co170 1.967 . S
O195 C203 1.258 . S
O196 Co171 1.941 . S
O196 C203 1.266 . S
H197 C199 0.959 . S
H198 C199 0.961 . S
C199 C189 1.510 . S
C199 H197 0.959 . S
C199 H198 0.961 . S
C199 H200 0.960 . S
H200 C199 0.960 . S
H201 N181 0.862 . S
O202 Co170 1.920 . S
O202 C175 1.289 . S
C203 O195 1.258 . S
C203 O196 1.266 . S
Co204 O207 1.970 . S
Co204 N221 1.989 . S
Co204 O229 1.967 . S
Co204 O236 1.920 . S
Co205 O208 1.966 . S
Co205 N214 2.022 . S
Co205 N222 1.993 . S
Co205 O230 1.941 . S
C206 O207 1.258 . S
C206 O208 1.263 . S
O207 Co204 1.970 . S
O207 C206 1.258 . S
O208 Co205 1.966 . S
O208 C206 1.263 . S
C209 O210 1.235 . S
C209 O236 1.289 . S
O210 C209 1.235 . S
C211 C213 1.400 . S
C211 N214 1.351 . S
C211 C216 1.501 . S
C212 C213 1.387 . S
C212 N215 1.341 . S
C213 C211 1.400 . S
C213 C212 1.387 . S
N214 Co205 2.022 . S
N214 C211 1.351 . S
N214 N215 1.365 . S
N215 C212 1.341 . S
N215 N214 1.365 . S
N215 H235 0.862 . S
C216 C211 1.501 . S
C216 H217 0.961 . S
C216 H218 0.961 . S
C216 H219 0.960 . S
H217 C216 0.961 . S
H218 C216 0.961 . S
H219 C216 0.960 . S
C220 N221 1.342 . S
C220 C224 1.401 . S
C220 C225 1.499 . S
N221 Co204 1.989 . S
N221 C220 1.342 . S
N221 N222 1.388 . S
N222 Co205 1.993 . S
N222 N221 1.388 . S
N222 C223 1.346 . S
C223 N222 1.346 . S
C223 C224 1.396 . S
C223 C233 1.510 . S
C224 C220 1.401 . S
C224 C223 1.396 . S
C225 C220 1.499 . S
C225 H226 0.959 . S
C225 H227 0.960 . S
C225 H228 0.961 . S
H226 C225 0.959 . S
H227 C225 0.960 . S
H228 C225 0.961 . S
O229 Co204 1.967 . S
O229 C237 1.258 . S
O230 Co205 1.941 . S
O230 C237 1.266 . S
H231 C233 0.959 . S
H232 C233 0.961 . S
C233 C223 1.510 . S
C233 H231 0.959 . S
C233 H232 0.961 . S
C233 H234 0.960 . S
H234 C233 0.960 . S
H235 N215 0.862 . S
O236 Co204 1.920 . S
O236 C209 1.289 . S
C237 O229 1.258 . S
C237 O230 1.266 . S
Co238 O241 1.970 . S
Co238 N255 1.989 . S
Co238 O263 1.967 . S
Co238 O270 1.920 . S
Co239 O242 1.966 . S
Co239 N248 2.022 . S
Co239 N256 1.993 . S
Co239 O264 1.941 . S
C240 O241 1.258 1_655 S
C240 O242 1.263 1_655 S
O241 Co238 1.970 . S
O241 C240 1.258 1_455 S
O242 Co239 1.966 . S
O242 C240 1.263 1_455 S
C243 O244 1.235 1_455 S
C243 O270 1.289 . S
O244 C243 1.235 1_655 S
C245 C247 1.400 . S
C245 N248 1.351 . S
C245 C250 1.501 . S
C246 C247 1.387 . S
C246 N249 1.341 . S
C247 C245 1.400 . S
C247 C246 1.387 . S
N248 Co239 2.022 . S
N248 C245 1.351 . S
N248 N249 1.365 . S
N249 C246 1.341 . S
N249 N248 1.365 . S
N249 H269 0.862 . S
C250 C245 1.501 . S
C250 H251 0.961 . S
C250 H252 0.961 1_455 S
C250 H253 0.960 1_455 S
H251 C250 0.961 . S
H252 C250 0.961 1_655 S
H253 C250 0.960 1_655 S
C254 N255 1.342 . S
C254 C258 1.401 . S
C254 C259 1.499 . S
N255 Co238 1.989 . S
N255 C254 1.342 . S
N255 N256 1.388 . S
N256 Co239 1.993 . S
N256 N255 1.388 . S
N256 C257 1.346 . S
C257 N256 1.346 . S
C257 C258 1.396 . S
C257 C267 1.510 . S
C258 C254 1.401 . S
C258 C257 1.396 . S
C259 C254 1.499 . S
C259 H260 0.959 . S
C259 H261 0.960 . S
C259 H262 0.961 . S
H260 C259 0.959 . S
H261 C259 0.960 . S
H262 C259 0.961 . S
O263 Co238 1.967 . S
O263 C271 1.258 . S
O264 Co239 1.941 . S
O264 C271 1.266 . S
H265 C267 0.959 . S
H266 C267 0.961 . S
C267 C257 1.510 . S
C267 H265 0.959 . S
C267 H266 0.961 . S
C267 H268 0.960 . S
H268 C267 0.960 . S
H269 N249 0.862 . S
O270 Co238 1.920 . S
O270 C243 1.289 . S
C271 O263 1.258 . S
C271 O264 1.266 . S
Co272 O275 1.970 . S
Co272 N289 1.989 . S
Co272 O297 1.967 . S
Co272 O304 1.920 . S
Co273 O276 1.966 . S
Co273 N282 2.022 . S
Co273 N290 1.993 . S
Co273 O298 1.941 . S
C274 O275 1.258 1_565 S
C274 O276 1.263 1_565 S
O275 Co272 1.970 . S
O275 C274 1.258 1_545 S
O276 Co273 1.966 . S
O276 C274 1.263 1_545 S
C277 O278 1.235 1_545 S
C277 O304 1.289 . S
O278 C277 1.235 1_565 S
C279 C281 1.400 . S
C279 N282 1.351 . S
C279 C284 1.501 . S
C280 C281 1.387 . S
C280 N283 1.341 . S
C281 C279 1.400 . S
C281 C280 1.387 . S
N282 Co273 2.022 . S
N282 C279 1.351 . S
N282 N283 1.365 . S
N283 C280 1.341 . S
N283 N282 1.365 . S
N283 H303 0.862 . S
C284 C279 1.501 . S
C284 H285 0.961 . S
C284 H286 0.961 1_545 S
C284 H287 0.960 1_545 S
H285 C284 0.961 . S
H286 C284 0.961 1_565 S
H287 C284 0.960 1_565 S
C288 N289 1.342 . S
C288 C292 1.401 . S
C288 C293 1.499 . S
N289 Co272 1.989 . S
N289 C288 1.342 . S
N289 N290 1.388 . S
N290 Co273 1.993 . S
N290 N289 1.388 . S
N290 C291 1.346 . S
C291 N290 1.346 . S
C291 C292 1.396 . S
C291 C301 1.510 . S
C292 C288 1.401 . S
C292 C291 1.396 . S
C293 C288 1.499 . S
C293 H294 0.959 . S
C293 H295 0.960 . S
C293 H296 0.961 . S
H294 C293 0.959 . S
H295 C293 0.960 . S
H296 C293 0.961 . S
O297 Co272 1.967 . S
O297 C305 1.258 . S
O298 Co273 1.941 . S
O298 C305 1.266 . S
H299 C301 0.959 . S
H300 C301 0.961 . S
C301 C291 1.510 . S
C301 H299 0.959 . S
C301 H300 0.961 . S
C301 H302 0.960 . S
H302 C301 0.960 . S
H303 N283 0.862 . S
O304 Co272 1.920 . S
O304 C277 1.289 . S
C305 O297 1.258 . S
C305 O298 1.266 . S
Co306 O309 1.970 . S
Co306 N323 1.989 . S
Co306 O331 1.967 . S
Co306 O338 1.920 . S
Co307 O310 1.966 . S
Co307 N316 2.022 . S
Co307 N324 1.993 . S
Co307 O332 1.941 . S
C308 O309 1.258 . S
C308 O310 1.263 . S
O309 Co306 1.970 . S
O309 C308 1.258 . S
O310 Co307 1.966 . S
O310 C308 1.263 . S
C311 O312 1.235 . S
C311 O338 1.289 . S
O312 C311 1.235 . S
C313 C315 1.400 . S
C313 N316 1.351 . S
C313 C318 1.501 . S
C314 C315 1.387 . S
C314 N317 1.341 . S
C315 C313 1.400 . S
C315 C314 1.387 . S
N316 Co307 2.022 . S
N316 C313 1.351 . S
N316 N317 1.365 . S
N317 C314 1.341 . S
N317 N316 1.365 . S
N317 H337 0.862 . S
C318 C313 1.501 . S
C318 H319 0.961 . S
C318 H320 0.961 . S
C318 H321 0.960 . S
H319 C318 0.961 . S
H320 C318 0.961 . S
H321 C318 0.960 . S
C322 N323 1.342 . S
C322 C326 1.401 . S
C322 C327 1.499 . S
N323 Co306 1.989 . S
N323 C322 1.342 . S
N323 N324 1.388 . S
N324 Co307 1.993 . S
N324 N323 1.388 . S
N324 C325 1.346 . S
C325 N324 1.346 . S
C325 C326 1.396 . S
C325 C335 1.510 . S
C326 C322 1.401 . S
C326 C325 1.396 . S
C327 C322 1.499 . S
C327 H328 0.959 . S
C327 H329 0.960 . S
C327 H330 0.961 . S
H328 C327 0.959 . S
H329 C327 0.960 . S
H330 C327 0.961 . S
O331 Co306 1.967 . S
O331 C339 1.258 . S
O332 Co307 1.941 . S
O332 C339 1.266 . S
H333 C335 0.959 . S
H334 C335 0.961 . S
C335 C325 1.510 . S
C335 H333 0.959 . S
C335 H334 0.961 . S
C335 H336 0.960 . S
H336 C335 0.960 . S
H337 N317 0.862 . S
O338 Co306 1.920 . S
O338 C311 1.289 . S
C339 O331 1.258 . S
C339 O332 1.266 . S
Co340 O343 1.970 . S
Co340 N357 1.989 . S
Co340 O365 1.967 . S
Co340 O372 1.920 . S
Co341 O344 1.966 . S
Co341 N350 2.022 . S
Co341 N358 1.993 . S
Co341 O366 1.941 . S
C342 O343 1.258 1_455 S
C342 O344 1.263 1_455 S
O343 Co340 1.970 . S
O343 C342 1.258 1_655 S
O344 Co341 1.966 . S
O344 C342 1.263 1_655 S
C345 O346 1.235 1_655 S
C345 O372 1.289 . S
O346 C345 1.235 1_455 S
C347 C349 1.400 . S
C347 N350 1.351 . S
C347 C352 1.501 . S
C348 C349 1.387 . S
C348 N351 1.341 . S
C349 C347 1.400 . S
C349 C348 1.387 . S
N350 Co341 2.022 . S
N350 C347 1.351 . S
N350 N351 1.365 . S
N351 C348 1.341 . S
N351 N350 1.365 . S
N351 H371 0.862 . S
C352 C347 1.501 . S
C352 H353 0.961 . S
C352 H354 0.961 1_655 S
C352 H355 0.960 1_655 S
H353 C352 0.961 . S
H354 C352 0.961 1_455 S
H355 C352 0.960 1_455 S
C356 N357 1.342 . S
C356 C360 1.401 . S
C356 C361 1.499 . S
N357 Co340 1.989 . S
N357 C356 1.342 . S
N357 N358 1.388 . S
N358 Co341 1.993 . S
N358 N357 1.388 . S
N358 C359 1.346 . S
C359 N358 1.346 . S
C359 C360 1.396 . S
C359 C369 1.510 . S
C360 C356 1.401 . S
C360 C359 1.396 . S
C361 C356 1.499 . S
C361 H362 0.959 . S
C361 H363 0.960 . S
C361 H364 0.961 . S
H362 C361 0.959 . S
H363 C361 0.960 . S
H364 C361 0.961 . S
O365 Co340 1.967 . S
O365 C373 1.258 . S
O366 Co341 1.941 . S
O366 C373 1.266 . S
H367 C369 0.959 . S
H368 C369 0.961 . S
C369 C359 1.510 . S
C369 H367 0.959 . S
C369 H368 0.961 . S
C369 H370 0.960 . S
H370 C369 0.960 . S
H371 N351 0.862 . S
O372 Co340 1.920 . S
O372 C345 1.289 . S
C373 O365 1.258 . S
C373 O366 1.266 . S
Co374 O377 1.970 . S
Co374 N391 1.989 . S
Co374 O399 1.967 . S
Co374 O406 1.920 . S
Co375 O378 1.966 . S
Co375 N384 2.022 . S
Co375 N392 1.993 . S
Co375 O400 1.941 . S
C376 O377 1.258 1_545 S
C376 O378 1.263 1_545 S
O377 Co374 1.970 . S
O377 C376 1.258 1_565 S
O378 Co375 1.966 . S
O378 C376 1.263 1_565 S
C379 O380 1.235 1_565 S
C379 O406 1.289 . S
O380 C379 1.235 1_545 S
C381 C383 1.400 . S
C381 N384 1.351 . S
C381 C386 1.501 . S
C382 C383 1.387 . S
C382 N385 1.341 . S
C383 C381 1.400 . S
C383 C382 1.387 . S
N384 Co375 2.022 . S
N384 C381 1.351 . S
N384 N385 1.365 . S
N385 C382 1.341 . S
N385 N384 1.365 . S
N385 H405 0.862 . S
C386 C381 1.501 . S
C386 H387 0.961 . S
C386 H388 0.961 1_565 S
C386 H389 0.960 1_565 S
H387 C386 0.961 . S
H388 C386 0.961 1_545 S
H389 C386 0.960 1_545 S
C390 N391 1.342 . S
C390 C394 1.401 . S
C390 C395 1.499 . S
N391 Co374 1.989 . S
N391 C390 1.342 . S
N391 N392 1.388 . S
N392 Co375 1.993 . S
N392 N391 1.388 . S
N392 C393 1.346 . S
C393 N392 1.346 . S
C393 C394 1.396 . S
C393 C403 1.510 . S
C394 C390 1.401 . S
C394 C393 1.396 . S
C395 C390 1.499 . S
C395 H396 0.959 . S
C395 H397 0.960 . S
C395 H398 0.961 . S
H396 C395 0.959 . S
H397 C395 0.960 . S
H398 C395 0.961 . S
O399 Co374 1.967 . S
O399 C407 1.258 . S
O400 Co375 1.941 . S
O400 C407 1.266 . S
H401 C403 0.959 . S
H402 C403 0.961 . S
C403 C393 1.510 . S
C403 H401 0.959 . S
C403 H402 0.961 . S
C403 H404 0.960 . S
H404 C403 0.960 . S
H405 N385 0.862 . S
O406 Co374 1.920 . S
O406 C379 1.289 . S
C407 O399 1.258 . S
C407 O400 1.266 . S
C408 C409 1.387 . S
C408 H412 0.950 . S
C408 C417 1.390 . S
C409 C408 1.387 . S
C409 C411 1.387 . S
H410 C417 0.950 . S
C411 C409 1.387 . S
C411 C413 1.390 . S
C411 H415 0.950 . S
H412 C408 0.950 . S
C413 C411 1.390 . S
C413 C414 1.387 . S
C413 H416 0.950 . S
C414 C413 1.387 . S
C414 C417 1.387 . S
H415 C411 0.950 . S
H416 C413 0.950 . S
C417 C408 1.390 . S
C417 H410 0.950 . S
C417 C414 1.387 . S
C418 C419 1.387 . S
C418 H422 0.950 . S
C418 C427 1.390 1_455 S
C419 C418 1.387 . S
C419 C421 1.387 . S
H420 C427 0.950 . S
C421 C419 1.387 . S
C421 C423 1.390 1_455 S
C421 H425 0.950 . S
H422 C418 0.950 . S
C423 C421 1.390 1_655 S
C423 C424 1.387 . S
C423 H426 0.950 . S
C424 C423 1.387 . S
C424 C427 1.387 . S
H425 C421 0.950 . S
H426 C423 0.950 . S
C427 C418 1.390 1_655 S
C427 H420 0.950 . S
C427 C424 1.387 . S
C428 C429 1.387 . S
C428 H432 0.950 . S
C428 C437 1.390 1_545 S
C429 C428 1.387 . S
C429 C431 1.387 . S
H430 C437 0.950 . S
C431 C429 1.387 . S
C431 C433 1.390 1_545 S
C431 H435 0.950 . S
H432 C428 0.950 . S
C433 C431 1.390 1_565 S
C433 C434 1.387 . S
C433 H436 0.950 . S
C434 C433 1.387 . S
C434 C437 1.387 . S
H435 C431 0.950 . S
H436 C433 0.950 . S
C437 C428 1.390 1_565 S
C437 H430 0.950 . S
C437 C434 1.387 . S
C438 C439 1.387 . S
C438 H442 0.950 . S
C438 C447 1.390 . S
C439 C438 1.387 . S
C439 C441 1.387 . S
H440 C447 0.950 . S
C441 C439 1.387 . S
C441 C443 1.390 . S
C441 H445 0.950 . S
H442 C438 0.950 . S
C443 C441 1.390 . S
C443 C444 1.387 . S
C443 H446 0.950 . S
C444 C443 1.387 . S
C444 C447 1.387 . S
H445 C441 0.950 . S
H446 C443 0.950 . S
C447 C438 1.390 . S
C447 H440 0.950 . S
C447 C444 1.387 . S
C448 C449 1.387 . S
C448 H452 0.950 . S
C448 C457 1.390 1_655 S
C449 C448 1.387 . S
C449 C451 1.387 . S
H450 C457 0.950 . S
C451 C449 1.387 . S
C451 C453 1.390 1_655 S
C451 H455 0.950 . S
H452 C448 0.950 . S
C453 C451 1.390 1_455 S
C453 C454 1.387 . S
C453 H456 0.950 . S
C454 C453 1.387 . S
C454 C457 1.387 . S
H455 C451 0.950 . S
H456 C453 0.950 . S
C457 C448 1.390 1_455 S
C457 H450 0.950 . S
C457 C454 1.387 . S
C458 C459 1.387 . S
C458 H462 0.950 . S
C458 C467 1.390 1_565 S
C459 C458 1.387 . S
C459 C461 1.387 . S
H460 C467 0.950 . S
C461 C459 1.387 . S
C461 C463 1.390 1_565 S
C461 H465 0.950 . S
H462 C458 0.950 . S
C463 C461 1.390 1_545 S
C463 C464 1.387 . S
C463 H466 0.950 . S
C464 C463 1.387 . S
C464 C467 1.387 . S
H465 C461 0.950 . S
H466 C463 0.950 . S
C467 C458 1.390 1_545 S
C467 H460 0.950 . S
C467 C464 1.387 . S
C468 C469 1.387 . S
C468 H472 0.950 . S
C468 C477 1.390 1_566 S
C469 C468 1.387 . S
C469 C471 1.387 . S
H470 C477 0.950 . S
C471 C469 1.387 . S
C471 C473 1.390 1_566 S
C471 H475 0.950 . S
H472 C468 0.950 . S
C473 C471 1.390 1_544 S
C473 C474 1.387 . S
C473 H476 0.950 . S
C474 C473 1.387 . S
C474 C477 1.387 . S
H475 C471 0.950 . S
H476 C473 0.950 . S
C477 C468 1.390 1_544 S
C477 H470 0.950 . S
C477 C474 1.387 . S
C478 C479 1.387 . S
C478 H482 0.950 . S
C478 C487 1.390 . S
C479 C478 1.387 . S
C479 C481 1.387 . S
H480 C487 0.950 . S
C481 C479 1.387 . S
C481 C483 1.390 . S
C481 H485 0.950 . S
H482 C478 0.950 . S
C483 C481 1.390 . S
C483 C484 1.387 . S
C483 H486 0.950 . S
C484 C483 1.387 . S
C484 C487 1.387 . S
H485 C481 0.950 . S
H486 C483 0.950 . S
C487 C478 1.390 . S
C487 H480 0.950 . S
C487 C484 1.387 . S
C488 C489 1.387 . S
C488 H492 0.950 . S
C488 C497 1.390 1_455 S
C489 C488 1.387 . S
C489 C491 1.387 . S
H490 C497 0.950 . S
C491 C489 1.387 . S
C491 C493 1.390 1_455 S
C491 H495 0.950 . S
H492 C488 0.950 . S
C493 C491 1.390 1_655 S
C493 C494 1.387 . S
C493 H496 0.950 . S
C494 C493 1.387 . S
C494 C497 1.387 . S
H495 C491 0.950 . S
H496 C493 0.950 . S
C497 C488 1.390 1_655 S
C497 H490 0.950 . S
C497 C494 1.387 . S
C498 C499 1.387 . S
C498 H502 0.950 . S
C498 C507 1.390 1_564 S
C499 C498 1.387 . S
C499 C501 1.387 . S
H500 C507 0.950 . S
C501 C499 1.387 . S
C501 C503 1.390 1_564 S
C501 H505 0.950 . S
H502 C498 0.950 . S
C503 C501 1.390 1_546 S
C503 C504 1.387 . S
C503 H506 0.950 . S
C504 C503 1.387 . S
C504 C507 1.387 . S
H505 C501 0.950 . S
H506 C503 0.950 . S
C507 C498 1.390 1_546 S
C507 H500 0.950 . S
C507 C504 1.387 . S
C508 C509 1.387 . S
C508 H512 0.950 . S
C508 C517 1.390 . S
C509 C508 1.387 . S
C509 C511 1.387 . S
H510 C517 0.950 . S
C511 C509 1.387 . S
C511 C513 1.390 . S
C511 H515 0.950 . S
H512 C508 0.950 . S
C513 C511 1.390 . S
C513 C514 1.387 . S
C513 H516 0.950 . S
C514 C513 1.387 . S
C514 C517 1.387 . S
H515 C511 0.950 . S
H516 C513 0.950 . S
C517 C508 1.390 . S
C517 H510 0.950 . S
C517 C514 1.387 . S
C518 C519 1.387 . S
C518 H522 0.950 . S
C518 C527 1.390 1_455 S
C519 C518 1.387 . S
C519 C521 1.387 . S
H520 C527 0.950 . S
C521 C519 1.387 . S
C521 C523 1.390 1_455 S
C521 H525 0.950 . S
H522 C518 0.950 . S
C523 C521 1.390 1_655 S
C523 C524 1.387 . S
C523 H526 0.950 . S
C524 C523 1.387 . S
C524 C527 1.387 . S
H525 C521 0.950 . S
H526 C523 0.950 . S
C527 C518 1.390 1_655 S
C527 H520 0.950 . S
C527 C524 1.387 . S
C528 C529 1.387 . S
C528 H532 0.950 . S
C528 C537 1.390 1_445 S
C529 C528 1.387 . S
C529 C531 1.387 . S
H530 C537 0.950 . S
C531 C529 1.387 . S
C531 C533 1.390 1_445 S
C531 H535 0.950 . S
H532 C528 0.950 . S
C533 C531 1.390 1_665 S
C533 C534 1.387 . S
C533 H536 0.950 . S
C534 C533 1.387 . S
C534 C537 1.387 . S
H535 C531 0.950 . S
H536 C533 0.950 . S
C537 C528 1.390 1_665 S
C537 H530 0.950 . S
C537 C534 1.387 . S
C538 C539 1.387 . S
C538 H542 0.950 . S
C538 C547 1.390 1_445 S
C539 C538 1.387 . S
C539 C541 1.387 . S
H540 C547 0.950 . S
C541 C539 1.387 . S
C541 C543 1.390 1_445 S
C541 H545 0.950 . S
H542 C538 0.950 . S
C543 C541 1.390 1_665 S
C543 C544 1.387 . S
C543 H546 0.950 . S
C544 C543 1.387 . S
C544 C547 1.387 . S
H545 C541 0.950 . S
H546 C543 0.950 . S
C547 C538 1.390 1_665 S
C547 H540 0.950 . S
C547 C544 1.387 . S
C548 C549 1.387 . S
C548 H552 0.950 . S
C548 C557 1.390 1_645 S
C549 C548 1.387 . S
C549 C551 1.387 . S
H550 C557 0.950 . S
C551 C549 1.387 . S
C551 C553 1.390 1_645 S
C551 H555 0.950 . S
H552 C548 0.950 . S
C553 C551 1.390 1_465 S
C553 C554 1.387 . S
C553 H556 0.950 . S
C554 C553 1.387 . S
C554 C557 1.387 . S
H555 C551 0.950 . S
H556 C553 0.950 . S
C557 C548 1.390 1_465 S
C557 H550 0.950 . S
C557 C554 1.387 . S
C558 C559 1.387 . S
C558 H562 0.950 . S
C558 C567 1.390 1_665 S
C559 C558 1.387 . S
C559 C561 1.387 . S
H560 C567 0.950 . S
C561 C559 1.387 . S
C561 C563 1.390 1_665 S
C561 H565 0.950 . S
H562 C558 0.950 . S
C563 C561 1.390 1_445 S
C563 C564 1.387 . S
C563 H566 0.950 . S
C564 C563 1.387 . S
C564 C567 1.387 . S
H565 C561 0.950 . S
H566 C563 0.950 . S
C567 C558 1.390 1_445 S
C567 H560 0.950 . S
C567 C564 1.387 . S
C568 C569 1.387 . S
C568 H572 0.950 . S
C568 C577 1.390 1_465 S
C569 C568 1.387 . S
C569 C571 1.387 . S
H570 C577 0.950 . S
C571 C569 1.387 . S
C571 C573 1.390 1_465 S
C571 H575 0.950 . S
H572 C568 0.950 . S
C573 C571 1.390 1_645 S
C573 C574 1.387 . S
C573 H576 0.950 . S
C574 C573 1.387 . S
C574 C577 1.387 . S
H575 C571 0.950 . S
H576 C573 0.950 . S
C577 C568 1.390 1_645 S
C577 H570 0.950 . S
C577 C574 1.387 . S
C578 C579 1.387 . S
C578 H582 0.950 . S
C578 C587 1.390 1_445 S
C579 C578 1.387 . S
C579 C581 1.387 . S
H580 C587 0.950 . S
C581 C579 1.387 . S
C581 C583 1.390 1_445 S
C581 H585 0.950 . S
H582 C578 0.950 . S
C583 C581 1.390 1_665 S
C583 C584 1.387 . S
C583 H586 0.950 . S
C584 C583 1.387 . S
C584 C587 1.387 . S
H585 C581 0.950 . S
H586 C583 0.950 . S
C587 C578 1.390 1_665 S
C587 H580 0.950 . S
C587 C584 1.387 . S
C588 C589 1.387 . S
C588 H592 0.950 . S
C588 C597 1.390 1_556 S
C589 C588 1.387 . S
C589 C591 1.387 . S
H590 C597 0.950 . S
C591 C589 1.387 . S
C591 C593 1.390 1_556 S
C591 H595 0.950 . S
H592 C588 0.950 . S
C593 C591 1.390 1_554 S
C593 C594 1.387 . S
C593 H596 0.950 . S
C594 C593 1.387 . S
C594 C597 1.387 . S
H595 C591 0.950 . S
H596 C593 0.950 . S
C597 C588 1.390 1_554 S
C597 H590 0.950 . S
C597 C594 1.387 . S
C598 C599 1.387 . S
C598 H602 0.950 . S
C598 C607 1.390 . S
C599 C598 1.387 . S
C599 C601 1.387 . S
H600 C607 0.950 . S
C601 C599 1.387 . S
C601 C603 1.390 . S
C601 H605 0.950 . S
H602 C598 0.950 . S
C603 C601 1.390 . S
C603 C604 1.387 . S
C603 H606 0.950 . S
C604 C603 1.387 . S
C604 C607 1.387 . S
H605 C601 0.950 . S
H606 C603 0.950 . S
C607 C598 1.390 . S
C607 H600 0.950 . S
C607 C604 1.387 . S
C608 C609 1.387 . S
C608 H612 0.950 . S
C608 C617 1.390 . S
C609 C608 1.387 . S
C609 C611 1.387 . S
H610 C617 0.950 . S
C611 C609 1.387 . S
C611 C613 1.390 . S
C611 H615 0.950 . S
H612 C608 0.950 . S
C613 C611 1.390 . S
C613 C614 1.387 . S
C613 H616 0.950 . S
C614 C613 1.387 . S
C614 C617 1.387 . S
H615 C611 0.950 . S
H616 C613 0.950 . S
C617 C608 1.390 . S
C617 H610 0.950 . S
C617 C614 1.387 . S
C618 C619 1.387 . S
C618 H622 0.950 . S
C618 C627 1.390 1_554 S
C619 C618 1.387 . S
C619 C621 1.387 . S
H620 C627 0.950 . S
C621 C619 1.387 . S
C621 C623 1.390 1_554 S
C621 H625 0.950 . S
H622 C618 0.950 . S
C623 C621 1.390 1_556 S
C623 C624 1.387 . S
C623 H626 0.950 . S
C624 C623 1.387 . S
C624 C627 1.387 . S
H625 C621 0.950 . S
H626 C623 0.950 . S
C627 C618 1.390 1_556 S
C627 H620 0.950 . S
C627 C624 1.387 . S
C628 C629 1.387 . S
C628 H632 0.950 . S
C628 C637 1.390 . S
C629 C628 1.387 . S
C629 C631 1.387 . S
H630 C637 0.950 . S
C631 C629 1.387 . S
C631 C633 1.390 . S
C631 H635 0.950 . S
H632 C628 0.950 . S
C633 C631 1.390 . S
C633 C634 1.387 . S
C633 H636 0.950 . S
C634 C633 1.387 . S
C634 C637 1.387 . S
H635 C631 0.950 . S
H636 C633 0.950 . S
C637 C628 1.390 . S
C637 H630 0.950 . S
C637 C634 1.387 . S
C638 C639 1.387 . S
C638 H642 0.950 . S
C638 C647 1.390 . S
C639 C638 1.387 . S
C639 C641 1.387 . S
H640 C647 0.950 . S
C641 C639 1.387 . S
C641 C643 1.390 . S
C641 H645 0.950 . S
H642 C638 0.950 . S
C643 C641 1.390 . S
C643 C644 1.387 . S
C643 H646 0.950 . S
C644 C643 1.387 . S
C644 C647 1.387 . S
H645 C641 0.950 . S
H646 C643 0.950 . S
C647 C638 1.390 . S
C647 H640 0.950 . S
C647 C644 1.387 . S
C648 C649 1.387 . S
C648 H652 0.950 . S
C648 C657 1.390 . S
C649 C648 1.387 . S
C649 C651 1.387 . S
H650 C657 0.950 . S
C651 C649 1.387 . S
C651 C653 1.390 . S
C651 H655 0.950 . S
H652 C648 0.950 . S
C653 C651 1.390 . S
C653 C654 1.387 . S
C653 H656 0.950 . S
C654 C653 1.387 . S
C654 C657 1.387 . S
H655 C651 0.950 . S
H656 C653 0.950 . S
C657 C648 1.390 . S
C657 H650 0.950 . S
C657 C654 1.387 . S
C658 C659 1.387 . S
C658 H662 0.950 . S
C658 C667 1.390 . S
C659 C658 1.387 . S
C659 C661 1.387 . S
H660 C667 0.950 . S
C661 C659 1.387 . S
C661 C663 1.390 . S
C661 H665 0.950 . S
H662 C658 0.950 . S
C663 C661 1.390 . S
C663 C664 1.387 . S
C663 H666 0.950 . S
C664 C663 1.387 . S
C664 C667 1.387 . S
H665 C661 0.950 . S
H666 C663 0.950 . S
C667 C658 1.390 . S
C667 H660 0.950 . S
C667 C664 1.387 . S
C668 C669 1.387 . S
C668 H672 0.950 . S
C668 C677 1.390 . S
C669 C668 1.387 . S
C669 C671 1.387 . S
H670 C677 0.950 . S
C671 C669 1.387 . S
C671 C673 1.390 . S
C671 H675 0.950 . S
H672 C668 0.950 . S
C673 C671 1.390 . S
C673 C674 1.387 . S
C673 H676 0.950 . S
C674 C673 1.387 . S
C674 C677 1.387 . S
H675 C671 0.950 . S
H676 C673 0.950 . S
C677 C668 1.390 . S
C677 H670 0.950 . S
C677 C674 1.387 . S
C678 C679 1.387 . S
C678 H682 0.950 . S
C678 C687 1.390 . S
C679 C678 1.387 . S
C679 C681 1.387 . S
H680 C687 0.950 . S
C681 C679 1.387 . S
C681 C683 1.390 . S
C681 H685 0.950 . S
H682 C678 0.950 . S
C683 C681 1.390 . S
C683 C684 1.387 . S
C683 H686 0.950 . S
C684 C683 1.387 . S
C684 C687 1.387 . S
H685 C681 0.950 . S
H686 C683 0.950 . S
C687 C678 1.390 . S
C687 H680 0.950 . S
C687 C684 1.387 . S
C688 C689 1.387 . S
C688 H692 0.950 . S
C688 C697 1.390 . S
C689 C688 1.387 . S
C689 C691 1.387 . S
H690 C697 0.950 . S
C691 C689 1.387 . S
C691 C693 1.390 . S
C691 H695 0.950 . S
H692 C688 0.950 . S
C693 C691 1.390 . S
C693 C694 1.387 . S
C693 H696 0.950 . S
C694 C693 1.387 . S
C694 C697 1.387 . S
H695 C691 0.950 . S
H696 C693 0.950 . S
C697 C688 1.390 . S
C697 H690 0.950 . S
C697 C694 1.387 . S
C698 C699 1.387 . S
C698 H702 0.950 . S
C698 C707 1.390 . S
C699 C698 1.387 . S
C699 C701 1.387 . S
H700 C707 0.950 . S
C701 C699 1.387 . S
C701 C703 1.390 . S
C701 H705 0.950 . S
H702 C698 0.950 . S
C703 C701 1.390 . S
C703 C704 1.387 . S
C703 H706 0.950 . S
C704 C703 1.387 . S
C704 C707 1.387 . S
H705 C701 0.950 . S
H706 C703 0.950 . S
C707 C698 1.390 . S
C707 H700 0.950 . S
C707 C704 1.387 . S
C409 C111 1.858 . S
C414 C9 1.858 . S
C419 C43 1.857 . S
C424 C145 1.857 . S
C429 C77 1.857 . S
C434 C179 1.857 . S
C439 C213 1.858 . S
C444 C315 1.858 . S
C449 C349 1.858 . S
C454 C247 1.858 . S
C459 C383 1.857 . S
C464 C281 1.857 . S
C469 C271 1.425 . S
C474 C33 1.425 . S
C479 C67 1.425 . S
C484 C305 1.428 . S
C489 C339 1.425 . S
C494 C101 1.428 . S
C499 C135 1.425 . S
C504 C373 1.425 . S
C509 C407 1.427 . S
C514 C169 1.427 . S
C519 C203 1.427 . S
C524 C237 1.426 . S
C529 C5 0.649 . S
C534 C107 0.649 . S
C539 C39 0.649 . S
C544 C141 0.649 . S
C549 C73 0.638 . S
C554 C175 0.638 . S
C559 C209 0.638 . S
C564 C311 0.638 . S
C569 C243 0.649 . S
C574 C345 0.649 . S
C579 C277 0.639 . S
C584 C379 0.639 . S
C589 C342 1.770 . S
C594 C2 1.770 . S
C599 C36 1.770 . S
C604 C376 1.768 . S
C609 C206 1.769 . S
C614 C70 1.771 . S
C619 C104 1.770 . S
C624 C240 1.770 . S
C629 C274 1.770 . S
C634 C138 1.768 . S
C639 C172 1.768 . S
C644 C308 1.770 . S
C649 C20 1.725 . S
C654 C292 1.726 . S
C659 C54 1.725 . S
C664 C326 1.725 . S
C669 C360 1.726 . S
C674 C88 1.725 . S
C679 C394 1.725 . S
C684 C122 1.725 . S
C689 C156 1.725 . S
C694 C224 1.725 . S
C699 C190 1.726 . S
C704 C258 1.724 . S
