# Generated by pormake.
# Topology umd, (4)-cn, num edge types: 1
# Building blocks:
#     Node 0, Type 0, BuildingBlock: GALJAG_clean_sbu_0, # of connection points: 4
#     Node 1, Type 0, BuildingBlock: GALJAG_clean_sbu_0, # of connection points: 4
#     Node 2, Type 0, BuildingBlock: GALJAG_clean_sbu_0, # of connection points: 4
#     Node 3, Type 0, BuildingBlock: GALJAG_clean_sbu_0, # of connection points: 4
#     Node 4, Type 0, BuildingBlock: GALJAG_clean_sbu_0, # of connection points: 4
#     Node 5, Type 0, BuildingBlock: GALJAG_clean_sbu_0, # of connection points: 4
#     Node 6, Type 0, BuildingBlock: GALJAG_clean_sbu_0, # of connection points: 4
#     Node 7, Type 0, BuildingBlock: GALJAG_clean_sbu_0, # of connection points: 4
#     Node 8, Type 0, BuildingBlock: GALJAG_clean_sbu_0, # of connection points: 4
#     Node 9, Type 0, BuildingBlock: GALJAG_clean_sbu_0, # of connection points: 4
#     Node 10, Type 0, BuildingBlock: GALJAG_clean_sbu_0, # of connection points: 4
#     Node 11, Type 0, BuildingBlock: GALJAG_clean_sbu_0, # of connection points: 4
#     Node 12, Type 0, BuildingBlock: GALJAG_clean_sbu_0, # of connection points: 4
#     Node 13, Type 0, BuildingBlock: GALJAG_clean_sbu_0, # of connection points: 4
#     Node 14, Type 0, BuildingBlock: GALJAG_clean_sbu_0, # of connection points: 4
#     Node 15, Type 0, BuildingBlock: GALJAG_clean_sbu_0, # of connection points: 4
#     Edge 16, Type (0, 0), BuildingBlock: CIFDUS_clean_linker_0, # of connection points: 2
#     Edge 17, Type (0, 0), BuildingBlock: CIFDUS_clean_linker_0, # of connection points: 2
#     Edge 18, Type (0, 0), BuildingBlock: CIFDUS_clean_linker_0, # of connection points: 2
#     Edge 19, Type (0, 0), BuildingBlock: CIFDUS_clean_linker_0, # of connection points: 2
#     Edge 20, Type (0, 0), BuildingBlock: CIFDUS_clean_linker_0, # of connection points: 2
#     Edge 21, Type (0, 0), BuildingBlock: CIFDUS_clean_linker_0, # of connection points: 2
#     Edge 22, Type (0, 0), BuildingBlock: CIFDUS_clean_linker_0, # of connection points: 2
#     Edge 23, Type (0, 0), BuildingBlock: CIFDUS_clean_linker_0, # of connection points: 2
#     Edge 24, Type (0, 0), BuildingBlock: CIFDUS_clean_linker_0, # of connection points: 2
#     Edge 25, Type (0, 0), BuildingBlock: CIFDUS_clean_linker_0, # of connection points: 2
#     Edge 26, Type (0, 0), BuildingBlock: CIFDUS_clean_linker_0, # of connection points: 2
#     Edge 27, Type (0, 0), BuildingBlock: CIFDUS_clean_linker_0, # of connection points: 2
#     Edge 28, Type (0, 0), BuildingBlock: CIFDUS_clean_linker_0, # of connection points: 2
#     Edge 29, Type (0, 0), BuildingBlock: CIFDUS_clean_linker_0, # of connection points: 2
#     Edge 30, Type (0, 0), BuildingBlock: CIFDUS_clean_linker_0, # of connection points: 2
#     Edge 31, Type (0, 0), BuildingBlock: CIFDUS_clean_linker_0, # of connection points: 2
#     Edge 32, Type (0, 0), BuildingBlock: CIFDUS_clean_linker_0, # of connection points: 2
#     Edge 33, Type (0, 0), BuildingBlock: CIFDUS_clean_linker_0, # of connection points: 2
#     Edge 34, Type (0, 0), BuildingBlock: CIFDUS_clean_linker_0, # of connection points: 2
#     Edge 35, Type (0, 0), BuildingBlock: CIFDUS_clean_linker_0, # of connection points: 2
#     Edge 36, Type (0, 0), BuildingBlock: CIFDUS_clean_linker_0, # of connection points: 2
#     Edge 37, Type (0, 0), BuildingBlock: CIFDUS_clean_linker_0, # of connection points: 2
#     Edge 38, Type (0, 0), BuildingBlock: CIFDUS_clean_linker_0, # of connection points: 2
#     Edge 39, Type (0, 0), BuildingBlock: CIFDUS_clean_linker_0, # of connection points: 2
#     Edge 40, Type (0, 0), BuildingBlock: CIFDUS_clean_linker_0, # of connection points: 2
#     Edge 41, Type (0, 0), BuildingBlock: CIFDUS_clean_linker_0, # of connection points: 2
#     Edge 42, Type (0, 0), BuildingBlock: CIFDUS_clean_linker_0, # of connection points: 2
#     Edge 43, Type (0, 0), BuildingBlock: CIFDUS_clean_linker_0, # of connection points: 2
#     Edge 44, Type (0, 0), BuildingBlock: CIFDUS_clean_linker_0, # of connection points: 2
#     Edge 45, Type (0, 0), BuildingBlock: CIFDUS_clean_linker_0, # of connection points: 2
#     Edge 46, Type (0, 0), BuildingBlock: CIFDUS_clean_linker_0, # of connection points: 2
#     Edge 47, Type (0, 0), BuildingBlock: CIFDUS_clean_linker_0, # of connection points: 2
# Relax obj value: 0.079
# Max RMSD: 0.208
# Mean RMSD: 0.208
data_MOF--net-umd--node1-GALJAG_clean_sbu_0--edge1-CIFDUS_clean_linker_0
_symmetry_space_group_name_H-M    P1
_symmetry_Int_Tables_number       1
_symmetry_cell_setting            triclinic
loop_
_symmetry_equiv_pos_as_xyz
'x, y, z'
_cell_length_a     35.127136
_cell_length_b     35.095008
_cell_length_c     49.90627
_cell_angle_alpha  89.976026
_cell_angle_beta   90.030385
_cell_angle_gamma 89.963067
loop_
_atom_site_label
_atom_site_type_symbol
_atom_site_fract_x
_atom_site_fract_y
_atom_site_fract_z
_atom_type_partial_charge
In0 In 0.16095 0.41619 0.13552 0.0
O1 O 0.16905 0.35137 0.13869 0.0
O2 O 0.2133 0.38565 0.1217 0.0
C3 C 0.08996 0.4389 0.14702 0.0
C4 C 0.15537 0.43344 0.08342 0.0
C5 C 0.19412 0.43911 0.18109 0.0
O6 O 0.09861 0.40381 0.14549 0.0
O7 O 0.1173 0.46173 0.14347 0.0
O8 O 0.19625 0.45886 0.15982 0.0
O9 O 0.17592 0.40825 0.17891 0.0
C10 C 0.20195 0.35275 0.12819 0.0
O11 O 0.17913 0.45054 0.0984 0.0
O12 O 0.1354 0.40835 0.09491 0.0
In13 In 0.56177 0.178 0.62396 0.0
O14 O 0.5214 0.19664 0.58999 0.0
O15 O 0.5633 0.15357 0.58262 0.0
C16 C 0.54185 0.20476 0.67222 0.0
C17 C 0.61989 0.2252 0.61387 0.0
C18 C 0.54877 0.10456 0.63535 0.0
O19 O 0.51903 0.20594 0.65249 0.0
O20 O 0.5743 0.19111 0.66713 0.0
O21 O 0.58224 0.11693 0.63123 0.0
O22 O 0.52275 0.12939 0.63413 0.0
C23 C 0.53626 0.17347 0.57349 0.0
O24 O 0.62564 0.19148 0.62215 0.0
O25 O 0.58535 0.23427 0.61074 0.0
In26 In 0.81991 0.56598 0.12427 0.0
O27 O 0.80206 0.52996 0.08789 0.0
O28 O 0.84721 0.57057 0.08397 0.0
C29 C 0.78782 0.54504 0.17058 0.0
C30 C 0.77707 0.62755 0.11474 0.0
C31 C 0.89068 0.54546 0.13815 0.0
O32 O 0.78699 0.52343 0.15017 0.0
O33 O 0.80369 0.57692 0.16704 0.0
O34 O 0.88173 0.58024 0.13477 0.0
O35 O 0.86387 0.52195 0.13481 0.0
C36 C 0.82677 0.54551 0.07286 0.0
O37 O 0.81002 0.63066 0.12501 0.0
O38 O 0.76662 0.5939 0.10951 0.0
In39 In 0.44588 0.82172 0.62948 0.0
O40 O 0.38106 0.81373 0.63221 0.0
O41 O 0.41577 0.76753 0.61885 0.0
C42 C 0.46247 0.89507 0.63949 0.0
C43 C 0.46602 0.82101 0.57779 0.0
C44 C 0.47094 0.7908 0.6752 0.0
O45 O 0.42841 0.8834 0.63768 0.0
O46 O 0.48757 0.8696 0.63677 0.0
O47 O 0.49092 0.7901 0.65406 0.0
O48 O 0.43902 0.80695 0.67293 0.0
C49 C 0.38275 0.77945 0.62428 0.0
O50 O 0.48222 0.79936 0.59465 0.0
O51 O 0.44041 0.84237 0.58725 0.0
In52 In 0.17867 0.56879 0.36585 0.0
O53 O 0.19243 0.63282 0.36488 0.0
O54 O 0.23447 0.59326 0.37883 0.0
C55 C 0.10637 0.55091 0.35429 0.0
C56 C 0.17223 0.55004 0.41761 0.0
C57 C 0.20734 0.54497 0.3191 0.0
O58 O 0.117 0.58542 0.35632 0.0
O59 O 0.13232 0.52641 0.35764 0.0
O60 O 0.20921 0.52448 0.34006 0.0
O61 O 0.19207 0.57727 0.32225 0.0
C62 C 0.22573 0.62758 0.37415 0.0
O63 O 0.19473 0.53193 0.40226 0.0
O64 O 0.15391 0.57689 0.40667 0.0
In65 In 0.43223 0.17092 0.86539 0.0
O66 O 0.47263 0.18711 0.89988 0.0
O67 O 0.42665 0.14824 0.90697 0.0
C68 C 0.45174 0.19643 0.81678 0.0
C69 C 0.37693 0.22151 0.87484 0.0
C70 C 0.44466 0.09702 0.85558 0.0
O71 O 0.47457 0.1986 0.83648 0.0
O72 O 0.41971 0.18183 0.82198 0.0
O73 O 0.41117 0.11017 0.85838 0.0
O74 O 0.47106 0.12141 0.85705 0.0
C75 C 0.45499 0.16591 0.91639 0.0
O76 O 0.36919 0.18775 0.86744 0.0
O77 O 0.41197 0.22886 0.87734 0.0
In78 In 0.82977 0.4319 0.36025 0.0
O79 O 0.82441 0.36654 0.35941 0.0
O80 O 0.77766 0.4001 0.37331 0.0
C81 C 0.90238 0.45209 0.351 0.0
C82 C 0.82692 0.45575 0.41127 0.0
C83 C 0.7995 0.45072 0.31264 0.0
O84 O 0.89266 0.41755 0.35407 0.0
O85 O 0.87538 0.47582 0.3521 0.0
O86 O 0.79657 0.47253 0.33279 0.0
O87 O 0.81721 0.42002 0.31685 0.0
C88 C 0.79071 0.36729 0.36851 0.0
O89 O 0.80458 0.46934 0.39369 0.0
O90 O 0.85013 0.43104 0.40279 0.0
In91 In 0.53856 0.81184 0.8746 0.0
O92 O 0.50111 0.79162 0.90947 0.0
O93 O 0.54262 0.83515 0.91617 0.0
C94 C 0.51329 0.782 0.82864 0.0
C95 C 0.59897 0.76641 0.88222 0.0
C96 C 0.52542 0.88533 0.86276 0.0
O97 O 0.49259 0.78279 0.84944 0.0
O98 O 0.54629 0.79556 0.83151 0.0
O99 O 0.55894 0.87247 0.86572 0.0
O100 O 0.49923 0.861 0.8655 0.0
C101 C 0.51688 0.81421 0.9259 0.0
O102 O 0.60289 0.79992 0.87311 0.0
O103 O 0.56516 0.75673 0.88738 0.0
In104 In 0.81234 0.55681 0.86342 0.0
O105 O 0.80445 0.62169 0.86011 0.0
O106 O 0.75824 0.58749 0.8739 0.0
C107 C 0.88663 0.54234 0.85571 0.0
C108 C 0.80966 0.53523 0.91507 0.0
C109 C 0.78607 0.52888 0.81677 0.0
O110 O 0.87406 0.5761 0.85767 0.0
O111 O 0.86163 0.51659 0.85716 0.0
O112 O 0.78407 0.51005 0.83838 0.0
O113 O 0.80028 0.56172 0.81907 0.0
C114 C 0.77043 0.62042 0.86848 0.0
O115 O 0.7872 0.52104 0.89787 0.0
O116 O 0.83277 0.55953 0.90601 0.0
In117 In 0.44412 0.8325 0.3671 0.0
O118 O 0.47372 0.81349 0.40579 0.0
O119 O 0.43403 0.85969 0.40701 0.0
C120 C 0.47328 0.79438 0.32551 0.0
C121 C 0.37768 0.79505 0.3703 0.0
C122 C 0.47029 0.90215 0.35432 0.0
O123 O 0.48977 0.7947 0.3481 0.0
O124 O 0.44239 0.81272 0.32437 0.0
O125 O 0.43489 0.89495 0.35488 0.0
O126 O 0.49162 0.87414 0.35947 0.0
C127 C 0.45687 0.83856 0.41973 0.0
O128 O 0.37967 0.82774 0.3595 0.0
O129 O 0.40875 0.78232 0.3794 0.0
In130 In 0.16931 0.43939 0.87273 0.0
O131 O 0.19282 0.47229 0.90912 0.0
O132 O 0.14821 0.4319 0.91485 0.0
C133 C 0.19969 0.46804 0.82764 0.0
C134 C 0.20988 0.37469 0.87555 0.0
C135 C 0.09608 0.45602 0.86232 0.0
O136 O 0.19974 0.48678 0.84935 0.0
O137 O 0.1849 0.43538 0.8291 0.0
O138 O 0.10804 0.42198 0.8634 0.0
O139 O 0.12112 0.48119 0.8663 0.0
C140 C 0.17061 0.45568 0.92538 0.0
O141 O 0.17535 0.3746 0.86818 0.0
O142 O 0.22312 0.40705 0.8815 0.0
In143 In 0.54951 0.19277 0.36666 0.0
O144 O 0.61482 0.1962 0.36921 0.0
O145 O 0.58104 0.24387 0.38151 0.0
C146 C 0.52467 0.12243 0.35497 0.0
C147 C 0.52315 0.194 0.41698 0.0
C148 C 0.53724 0.22419 0.3185 0.0
O149 O 0.55964 0.12915 0.35945 0.0
O150 O 0.50309 0.15121 0.35599 0.0
O151 O 0.51332 0.22779 0.33739 0.0
O152 O 0.56681 0.20547 0.32429 0.0
C153 C 0.61391 0.22991 0.37843 0.0
O154 O 0.51191 0.2183 0.39983 0.0
O155 O 0.54671 0.16968 0.40838 0.0
In156 In 0.83288 0.43681 0.62233 0.0
O157 O 0.82432 0.37253 0.62793 0.0
O158 O 0.77946 0.40551 0.6107 0.0
C159 C 0.90535 0.45234 0.63552 0.0
C160 C 0.83964 0.45156 0.56972 0.0
C161 C 0.7998 0.46835 0.66548 0.0
O162 O 0.89287 0.41847 0.63454 0.0
O163 O 0.88105 0.47784 0.63036 0.0
O164 O 0.80153 0.48587 0.64329 0.0
O165 O 0.81393 0.4353 0.66537 0.0
C166 C 0.79097 0.37312 0.61825 0.0
O167 O 0.81505 0.46875 0.58388 0.0
O168 O 0.8598 0.42764 0.58218 0.0
In169 In 0.55913 0.82902 0.13388 0.0
O170 O 0.62415 0.82566 0.13902 0.0
O171 O 0.59512 0.78093 0.11847 0.0
C172 C 0.53422 0.89887 0.14736 0.0
C173 C 0.53847 0.83449 0.08243 0.0
C174 C 0.53415 0.79066 0.1768 0.0
O175 O 0.56937 0.89198 0.14404 0.0
O176 O 0.51262 0.8704 0.14477 0.0
O177 O 0.51621 0.79022 0.15477 0.0
O178 O 0.56465 0.80966 0.1767 0.0
C179 C 0.62639 0.79397 0.12692 0.0
O180 O 0.52509 0.80856 0.09741 0.0
O181 O 0.56206 0.8566 0.09349 0.0
In182 In 0.19031 0.54646 0.62723 0.0
O183 O 0.20975 0.50945 0.59167 0.0
O184 O 0.1695 0.55424 0.5852 0.0
C185 C 0.21464 0.51948 0.67446 0.0
C186 C 0.239 0.60451 0.62144 0.0
C187 C 0.1162 0.53433 0.63651 0.0
O188 O 0.21634 0.49956 0.65327 0.0
O189 O 0.20172 0.55278 0.67137 0.0
O190 O 0.12968 0.56781 0.63474 0.0
O191 O 0.14021 0.50779 0.63381 0.0
C192 C 0.18909 0.52766 0.57517 0.0
O193 O 0.20476 0.61024 0.6285 0.0
O194 O 0.24791 0.57003 0.61777 0.0
In195 In 0.44857 0.18636 0.12454 0.0
O196 O 0.48365 0.21117 0.08981 0.0
O197 O 0.449 0.16194 0.08314 0.0
C198 C 0.46209 0.22106 0.17139 0.0
C199 C 0.38208 0.22043 0.11398 0.0
C200 C 0.47623 0.11754 0.1376 0.0
O201 O 0.48527 0.22384 0.15197 0.0
O202 O 0.43272 0.20149 0.16674 0.0
O203 O 0.44081 0.1231 0.13427 0.0
O204 O 0.49691 0.14667 0.13464 0.0
C205 C 0.47164 0.18626 0.07339 0.0
O206 O 0.38315 0.18716 0.12397 0.0
O207 O 0.4141 0.2355 0.10947 0.0
H208 H 0.06633 0.51237 0.14851 0.0
H209 H 0.02488 0.39672 0.15189 0.0
H210 H 0.95924 0.42008 0.15154 0.0
H211 H 0.91403 0.47293 0.14666 0.0
H212 H 0.95545 0.58849 0.14185 0.0
H213 H 0.02093 0.56554 0.14656 0.0
C214 C 0.04295 0.49225 0.14947 0.0
C215 C 0.05045 0.45282 0.15005 0.0
C216 C 0.00538 0.50586 0.14883 0.0
C217 C 0.01986 0.42717 0.15138 0.0
C218 C 0.98235 0.44052 0.15108 0.0
C219 C 0.93734 0.49318 0.14688 0.0
C220 C 0.92993 0.53237 0.1437 0.0
C221 C 0.97482 0.47974 0.14924 0.0
C222 C 0.96042 0.5582 0.14419 0.0
C223 C 0.99784 0.54507 0.14681 0.0
H224 H 0.53334 0.92572 0.63998 0.0
H225 H 0.4144 0.95564 0.64553 0.0
H226 H 0.43116 0.02323 0.64665 0.0
H227 H 0.47914 0.07361 0.64315 0.0
H228 H 0.59799 0.04402 0.63618 0.0
H229 H 0.58172 0.97629 0.63872 0.0
C230 C 0.51108 0.94701 0.64169 0.0
C231 C 0.47263 0.93571 0.64255 0.0
C232 C 0.52091 0.98578 0.64195 0.0
C233 C 0.44416 0.96362 0.64477 0.0
C234 C 0.45373 0.00225 0.64536 0.0
C235 C 0.50157 0.05238 0.64241 0.0
C236 C 0.53973 0.0638 0.63934 0.0
C237 C 0.49195 0.01363 0.64352 0.0
C238 C 0.56842 0.03595 0.6385 0.0
C239 C 0.5591 0.99725 0.63988 0.0
H240 H 0.07963 0.47898 0.34964 0.0
H241 H 0.04318 0.59643 0.35004 0.0
H242 H 0.97662 0.57597 0.34729 0.0
H243 H 0.92893 0.52459 0.34763 0.0
H244 H 0.96584 0.40726 0.34851 0.0
H245 H 0.03229 0.42787 0.34776 0.0
C246 C 0.05717 0.50018 0.34891 0.0
C247 C 0.06632 0.5392 0.35019 0.0
C248 C 0.01912 0.4882 0.34767 0.0
C249 C 0.03688 0.56625 0.34912 0.0
C250 C -0.00115 0.55454 0.34762 0.0
C251 C 0.95151 0.50351 0.34741 0.0
C252 C 0.94247 0.46441 0.34824 0.0
C253 C 0.98964 0.51559 0.34732 0.0
C254 C 0.97204 0.43748 0.34794 0.0
C255 C 0.01003 0.44926 0.34756 0.0
H256 H 0.4558 0.91782 0.85745 0.0
H257 H 0.57578 0.94426 0.85775 0.0
H258 H 0.56107 0.01214 0.85348 0.0
H259 H 0.51419 0.06394 0.85255 0.0
H260 H 0.39418 0.03772 0.85364 0.0
H261 H 0.40887 0.96955 0.85423 0.0
C262 C 0.47877 0.9384 0.85637 0.0
C263 C 0.51686 0.92606 0.85806 0.0
C264 C 0.47008 0.97733 0.85424 0.0
C265 C 0.54626 0.95305 0.85656 0.0
C266 C 0.53785 0.99184 0.85416 0.0
C267 C 0.4912 0.04333 0.85265 0.0
C268 C 0.45311 0.05587 0.85317 0.0
C269 C 0.49988 0.00431 0.8534 0.0
C270 C 0.4237 0.0288 0.85327 0.0
C271 C 0.4321 0.98985 0.85369 0.0
H272 H 0.9181 0.47219 0.85154 0.0
H273 H 0.94703 0.5915 0.85615 0.0
H274 H 0.01477 0.57517 0.85723 0.0
H275 H 0.06534 0.52683 0.85946 0.0
H276 H 0.03608 0.40752 0.85566 0.0
H277 H 0.96871 0.42407 0.85156 0.0
C278 C 0.93922 0.49467 0.85256 0.0
C279 C 0.92758 0.53301 0.8539 0.0
C280 C 0.97796 0.48505 0.85346 0.0
C281 C 0.95528 0.56179 0.85513 0.0
C282 C 0.99398 0.55245 0.85582 0.0
C283 C 0.04424 0.50444 0.85756 0.0
C284 C 0.05564 0.46597 0.85802 0.0
C285 C 0.00559 0.51416 0.85541 0.0
C286 C 0.02801 0.43731 0.85544 0.0
C287 C 0.9895 0.44676 0.85313 0.0
H288 H 0.56375 0.05537 0.35264 0.0
H289 H 0.45047 0.10254 0.34809 0.0
H290 H 0.4235 0.03864 0.34549 0.0
H291 H 0.43165 0.96903 0.3478 0.0
H292 H 0.545 0.922 0.35251 0.0
H293 H 0.57218 0.98585 0.35148 0.0
C294 C 0.53321 0.05164 0.35081 0.0
C295 C 0.5092 0.08366 0.35079 0.0
C296 C 0.51778 0.01473 0.34945 0.0
C297 C 0.46965 0.07836 0.34828 0.0
C298 C 0.45413 0.04179 0.34683 0.0
C299 C 0.46229 0.97278 0.34825 0.0
C300 C 0.48618 0.94081 0.35043 0.0
C301 C 0.47785 0.00972 0.34788 0.0
C302 C 0.52588 0.94614 0.35097 0.0
C303 C 0.54152 0.98268 0.35044 0.0
H304 H 0.93724 0.52263 0.63743 0.0
H305 H 0.9644 0.40296 0.64345 0.0
H306 H 0.03217 0.41831 0.64617 0.0
H307 H 0.08363 0.46527 0.64355 0.0
H308 H 0.05683 0.58489 0.63663 0.0
H309 H 0.98876 0.57001 0.63774 0.0
C310 C 0.95796 0.49991 0.63961 0.0
C311 C 0.94586 0.46167 0.64005 0.0
C312 C 0.99685 0.50893 0.64085 0.0
C313 C 0.973 0.43259 0.64299 0.0
C314 C 0.01174 0.44135 0.64447 0.0
C315 C 0.06291 0.48815 0.6425 0.0
C316 C 0.07521 0.52612 0.63978 0.0
C317 C 0.02398 0.47935 0.6429 0.0
C318 C 0.04805 0.55544 0.63865 0.0
C319 C 0.00917 0.54693 0.63922 0.0
H320 H 0.43903 0.0509 0.14755 0.0
H321 H 0.5514 0.09909 0.13932 0.0
H322 H 0.57979 0.03601 0.14396 0.0
H323 H 0.57254 0.96641 0.14688 0.0
H324 H 0.46014 0.91829 0.15511 0.0
H325 H 0.43216 0.98185 0.15433 0.0
C326 C 0.46973 0.04759 0.14702 0.0
C327 C 0.49298 0.07957 0.14283 0.0
C328 C 0.48596 0.01115 0.14966 0.0
C329 C 0.53277 0.0749 0.14239 0.0
C330 C 0.54909 0.0388 0.14501 0.0
C331 C 0.542 0.96991 0.14892 0.0
C332 C 0.5185 0.93766 0.15082 0.0
C333 C 0.52595 0.00662 0.14818 0.0
C334 C 0.47893 0.94265 0.15347 0.0
C335 C 0.46282 0.979 0.15294 0.0
H336 H 0.21679 0.47151 0.30336 0.0
H337 H 0.21823 0.58714 0.2741 0.0
H338 H 0.22032 0.56418 0.22796 0.0
H339 H 0.21183 0.51151 0.19601 0.0
H340 H 0.20596 0.39614 0.22552 0.0
H341 H 0.21604 0.41854 0.27124 0.0
C342 C 0.21855 0.49161 0.28689 0.0
C343 C 0.21697 0.53089 0.29207 0.0
C344 C 0.21845 0.47823 0.26036 0.0
C345 C 0.21908 0.55669 0.27056 0.0
C346 C 0.22014 0.54361 0.24416 0.0
C347 C 0.21369 0.49127 0.2124 0.0
C348 C 0.20775 0.45234 0.20748 0.0
C349 C 0.21831 0.50447 0.23879 0.0
C350 C 0.21007 0.42636 0.22888 0.0
C351 C 0.21575 0.43913 0.25505 0.0
H352 H 0.47023 0.21208 0.69214 0.0
H353 H 0.58867 0.21647 0.71474 0.0
H354 H 0.57105 0.21909 0.762 0.0
H355 H 0.52233 0.2118 0.797 0.0
H356 H 0.4041 0.20389 0.77424 0.0
H357 H 0.42118 0.21136 0.72718 0.0
C358 C 0.49209 0.2145 0.7074 0.0
C359 C 0.53063 0.21378 0.70001 0.0
C360 C 0.48181 0.21487 0.7346 0.0
C361 C 0.55874 0.2167 0.71998 0.0
C362 C 0.54872 0.21807 0.74702 0.0
C363 C 0.50031 0.21243 0.78176 0.0
C364 C 0.46212 0.20688 0.78905 0.0
C365 C 0.51039 0.21586 0.75461 0.0
C366 C 0.43382 0.20773 0.7691 0.0
C367 C 0.44353 0.21196 0.74216 0.0
H368 H 0.78084 0.47251 0.18878 0.0
H369 H 0.77183 0.58992 0.21339 0.0
H370 H 0.76889 0.57046 0.26031 0.0
H371 H 0.77902 0.5209 0.29442 0.0
H372 H 0.79242 0.40392 0.26964 0.0
H373 H 0.78309 0.42219 0.22295 0.0
C374 C 0.77714 0.49369 0.20439 0.0
C375 C 0.77687 0.53253 0.19772 0.0
C376 C 0.77689 0.48238 0.2314 0.0
C377 C 0.77237 0.55979 0.21811 0.0
C378 C 0.77087 0.54871 0.24496 0.0
C379 C 0.77905 0.49936 0.27883 0.0
C380 C 0.78689 0.46126 0.2854 0.0
C381 C 0.77471 0.51021 0.25189 0.0
C382 C 0.78687 0.43357 0.26503 0.0
C383 C 0.78158 0.44398 0.2383 0.0
H384 H 0.55512 0.7689 0.78425 0.0
H385 H 0.43941 0.77202 0.81316 0.0
H386 H 0.41578 0.76936 0.7671 0.0
H387 H 0.42847 0.7766 0.71904 0.0
H388 H 0.5442 0.77563 0.69014 0.0
H389 H 0.56753 0.76644 0.73591 0.0
C390 C 0.52471 0.76822 0.78047 0.0
C391 C 0.49898 0.77137 0.80194 0.0
C392 C 0.51145 0.76752 0.75401 0.0
C393 C 0.45971 0.76985 0.7969 0.0
C394 C 0.44623 0.7686 0.77059 0.0
C395 C 0.45878 0.7737 0.72274 0.0
C396 C 0.4847 0.77751 0.70145 0.0
C397 C 0.47188 0.76907 0.74903 0.0
C398 C 0.52379 0.77304 0.70631 0.0
C399 C 0.5371 0.76799 0.73245 0.0
H400 H 0.78102 0.56639 0.76941 0.0
H401 H 0.7725 0.45435 0.80453 0.0
H402 H 0.77094 0.42582 0.75987 0.0
H403 H 0.78097 0.43233 0.71142 0.0
H404 H 0.79046 0.54416 0.67618 0.0
H405 H 0.78204 0.57332 0.72034 0.0
C406 C 0.77813 0.53577 0.76727 0.0
C407 C 0.77747 0.51242 0.79021 0.0
C408 C 0.77773 0.51958 0.74155 0.0
C409 C 0.77324 0.47288 0.78718 0.0
C410 C 0.77256 0.45656 0.76165 0.0
C411 C 0.78049 0.46312 0.71335 0.0
C412 C 0.78688 0.48611 0.6907 0.0
C413 C 0.77616 0.47955 0.73877 0.0
C414 C 0.7857 0.52591 0.69336 0.0
C415 C 0.78115 0.54255 0.71862 0.0
H416 H 0.43732 0.77405 0.27999 0.0
H417 H 0.54864 0.78143 0.31608 0.0
H418 H 0.57832 0.77359 0.27208 0.0
H419 H 0.57182 0.77746 0.22311 0.0
H420 H 0.4603 0.77192 0.18708 0.0
H421 H 0.43138 0.76532 0.23137 0.0
C422 C 0.46809 0.77293 0.27826 0.0
C423 C 0.49086 0.77909 0.301 0.0
C424 C 0.48481 0.76919 0.25292 0.0
C425 C 0.53062 0.77696 0.29874 0.0
C426 C 0.54755 0.77279 0.27358 0.0
C427 C 0.54126 0.77381 0.22495 0.0
C428 C 0.51807 0.77603 0.20203 0.0
C429 C 0.52486 0.77084 0.25046 0.0
C430 C 0.47865 0.7706 0.20451 0.0
C431 C 0.4621 0.76712 0.22983 0.0
H432 H 0.21541 0.4287 0.7825 0.0
H433 H 0.21129 0.54277 0.81453 0.0
H434 H 0.2204 0.56897 0.76951 0.0
H435 H 0.2212 0.55922 0.72072 0.0
H436 H 0.22445 0.44503 0.68878 0.0
H437 H 0.22462 0.41898 0.73423 0.0
C438 C 0.21712 0.4593 0.77967 0.0
C439 C 0.21214 0.48384 0.80168 0.0
C440 C 0.22194 0.47405 0.75378 0.0
C441 C 0.21493 0.52336 0.79786 0.0
C442 C 0.21992 0.53832 0.77212 0.0
C443 C 0.22261 0.52864 0.72372 0.0
C444 C 0.22226 0.50402 0.70146 0.0
C445 C 0.2222 0.51392 0.74987 0.0
C446 C 0.22456 0.46452 0.7056 0.0
C447 C 0.22443 0.44963 0.73157 0.0
H448 H 0.46891 0.24008 0.29557 0.0
H449 H 0.5892 0.23408 0.27889 0.0
H450 H 0.57671 0.23975 0.23095 0.0
H451 H 0.53114 0.23547 0.19366 0.0
H452 H 0.41077 0.23625 0.21046 0.0
H453 H 0.42359 0.24429 0.25819 0.0
C454 C 0.49237 0.24106 0.28146 0.0
C455 C 0.52982 0.23623 0.29065 0.0
C456 C 0.4849 0.24295 0.25382 0.0
C457 C 0.56003 0.23737 0.2722 0.0
C458 C 0.55293 0.2405 0.24477 0.0
C459 C 0.5078 0.23852 0.20772 0.0
C460 C 0.47015 0.23491 0.19869 0.0
C461 C 0.5154 0.24167 0.23529 0.0
C462 C 0.44006 0.23861 0.21707 0.0
C463 C 0.44735 0.24306 0.24437 0.0
H464 H 0.11808 0.43199 0.96061 0.0
H465 H 0.22533 0.49125 0.95601 0.0
H466 H 0.22915 0.49249 0.00517 0.0
H467 H 0.20393 0.47155 0.04948 0.0
H468 H 0.09705 0.4109 0.05214 0.0
H469 H 0.09115 0.41553 0.00378 0.0
C470 C 0.1422 0.4455 0.97031 0.0
C471 C 0.17155 0.46116 0.95475 0.0
C472 C 0.14436 0.44563 -0.0017 0.0
C473 C 0.20238 0.47894 0.96762 0.0
C474 C 0.20463 0.47948 0.9957 0.0
C475 C 0.1792 0.45984 0.03942 0.0
C476 C 0.15117 0.44057 0.05437 0.0
C477 C 0.17611 0.46216 0.01128 0.0
C478 C 0.11924 0.4255 0.04111 0.0
C479 C 0.11577 0.42813 0.01342 0.0
H480 H 0.52724 0.13583 0.45159 0.0
H481 H 0.49713 0.25467 0.4467 0.0
H482 H 0.49319 0.25799 0.4958 0.0
H483 H 0.50736 0.22859 0.5402 0.0
H484 H 0.54063 0.11029 0.5433 0.0
H485 H 0.53386 0.10509 0.49492 0.0
C486 C 0.51918 0.16234 0.46124 0.0
C487 C 0.51297 0.19506 0.44567 0.0
C488 C 0.51786 0.16414 0.48923 0.0
C489 C 0.50207 0.22909 0.45834 0.0
C490 C 0.50011 0.23103 0.4864 0.0
C491 C 0.51219 0.20156 0.53024 0.0
C492 C 0.52484 0.16995 0.54516 0.0
C493 C 0.50924 0.199 0.5021 0.0
C494 C 0.53127 0.13509 0.53213 0.0
C495 C 0.52747 0.13208 0.50448 0.0
H496 H 0.77441 0.51463 0.03823 0.0
H497 H 0.88896 0.55866 0.04276 0.0
H498 H 0.89484 0.55531 0.99429 0.0
H499 H 0.86563 0.54675 0.95063 0.0
H500 H 0.75081 0.50449 0.94434 0.0
H501 H 0.74691 0.49974 0.9934 0.0
C502 C 0.80081 0.52276 0.02855 0.0
C503 C 0.83106 0.53728 0.044 0.0
C504 C 0.80383 0.52144 0.00038 0.0
C505 C 0.86512 0.54782 0.03127 0.0
C506 C 0.86854 0.54595 0.00355 0.0
C507 C 0.83985 0.53607 0.95996 0.0
C508 C 0.8084 0.52645 0.94401 0.0
C509 C 0.83775 0.53395 0.98791 0.0
C510 C 0.77539 0.51214 0.95629 0.0
C511 C 0.77312 0.50963 0.98431 0.0
H512 H 0.44625 0.87469 0.54229 0.0
H513 H 0.50383 0.76652 0.54846 0.0
H514 H 0.5091 0.76348 0.49942 0.0
H515 H 0.49174 0.78944 0.4547 0.0
H516 H 0.43266 0.89723 0.45022 0.0
H517 H 0.43373 0.9026 0.49874 0.0
C518 C 0.46027 0.85055 0.53295 0.0
C519 C 0.47421 0.82067 0.54883 0.0
C520 C 0.46268 0.84885 0.50504 0.0
C521 C 0.4928 0.78985 0.53654 0.0
C522 C 0.49562 0.78804 0.50854 0.0
C523 C 0.47957 0.81424 0.46441 0.0
C524 C 0.46174 0.84265 0.44893 0.0
C525 C 0.47984 0.81702 0.49255 0.0
C526 C 0.44614 0.87474 0.4617 0.0
C527 C 0.44674 0.8779 0.48945 0.0
H528 H 0.21981 0.50982 0.45108 0.0
H529 H 0.11426 0.57292 0.44903 0.0
H530 H 0.10855 0.56783 0.49738 0.0
H531 H 0.1359 0.55112 0.54041 0.0
H532 H 0.24201 0.48965 0.54442 0.0
H533 H 0.24491 0.48785 0.49522 0.0
C534 C 0.19536 0.5219 0.46127 0.0
C535 C 0.16773 0.5421 0.44652 0.0
C536 C 0.19245 0.51937 0.48941 0.0
C537 C 0.13616 0.55764 0.45992 0.0
C538 C 0.13281 0.55475 0.4876 0.0
C539 C 0.15952 0.53693 0.53055 0.0
C540 C 0.1889 0.52092 0.54594 0.0
C541 C 0.1612 0.53658 0.50256 0.0
C542 C 0.21904 0.50221 0.53293 0.0
C543 C 0.22079 0.5014 0.50483 0.0
H544 H 0.48843 0.21853 0.94956 0.0
H545 H 0.44312 0.10432 0.9472 0.0
H546 H 0.44901 0.09913 0.99562 0.0
H547 H 0.45969 0.12912 0.03874 0.0
H548 H 0.50189 0.24426 0.04295 0.0
H549 H 0.50521 0.24693 0.99381 0.0
C550 C 0.48068 0.19234 0.9597 0.0
C551 C 0.46509 0.16195 0.94494 0.0
C552 C 0.48321 0.18985 0.98787 0.0
C553 C 0.45485 0.1282 0.95822 0.0
C554 C 0.45816 0.12519 0.9859 0.0
C555 C 0.47011 0.15469 0.02895 0.0
C556 C 0.48009 0.18659 0.04438 0.0
C557 C 0.47112 0.15621 0.00095 0.0
C558 C 0.49397 0.21933 0.03145 0.0
C559 C 0.49565 0.22091 0.00337 0.0
H560 H 0.88099 0.44211 0.44794 0.0
H561 H 0.76883 0.49042 0.43917 0.0
H562 H 0.76377 0.49705 0.48806 0.0
H563 H 0.78937 0.48277 0.53358 0.0
H564 H 0.90118 0.43251 0.54052 0.0
H565 H 0.9083 0.43322 0.49212 0.0
C566 C 0.85554 0.45449 0.45667 0.0
C567 C 0.82517 0.46536 0.44006 0.0
C568 C 0.85271 0.4576 0.48453 0.0
C569 C 0.7926 0.4818 0.45161 0.0
C570 C 0.78964 0.48537 0.47955 0.0
C571 C 0.81544 0.47257 0.52442 0.0
C572 C 0.84452 0.45721 0.54059 0.0
C573 C 0.8192 0.47246 0.49628 0.0
C574 C 0.87818 0.44404 0.52852 0.0
C575 C 0.88234 0.44443 0.50082 0.0
H576 H 0.5032 0.7829 0.04957 0.0
H577 H 0.55285 0.89542 0.05109 0.0
H578 H 0.54565 0.90068 0.00281 0.0
H579 H 0.53221 0.87103 0.95993 0.0
H580 H 0.48453 0.758 0.95671 0.0
H581 H 0.48322 0.75542 0.00588 0.0
C582 C 0.51186 0.80871 0.0393 0.0
C583 C 0.52907 0.83848 0.05378 0.0
C584 C 0.50816 0.81139 0.01127 0.0
C585 C 0.54005 0.87188 0.04033 0.0
C586 C 0.53592 0.87497 0.01271 0.0
C587 C 0.52102 0.84601 0.96999 0.0
C588 C 0.50897 0.81458 0.95488 0.0
C589 C 0.5211 0.84452 -0.00204 0.0
C590 C 0.494 0.78255 0.96804 0.0
C591 C 0.49353 0.78098 0.99611 0.0
H592 H 0.26009 0.34654 0.09381 0.0
H593 H 0.20014 0.28438 0.15514 0.0
H594 H 0.24895 0.23421 0.15391 0.0
H595 H 0.31308 0.21254 0.13901 0.0
H596 H 0.3724 0.27758 0.07867 0.0
H597 H 0.31924 0.32182 0.07561 0.0
C598 C 0.25742 0.32176 0.10668 0.0
C599 C 0.22699 0.31932 0.1248 0.0
C600 C 0.28564 0.29364 0.1061 0.0
C601 C 0.22347 0.28684 0.14106 0.0
C602 C 0.25147 0.25832 0.14045 0.0
C603 C 0.31384 0.23594 0.12482 0.0
C604 C 0.34671 0.2421 0.10929 0.0
C605 C 0.28332 0.26199 0.12358 0.0
C606 C 0.34756 0.27255 0.09104 0.0
C607 C 0.31721 0.29791 0.08929 0.0
H608 H 0.72274 0.36841 0.59395 0.0
H609 H 0.80312 0.30204 0.63972 0.0
H610 H 0.75828 0.24848 0.64066 0.0
H611 H 0.6939 0.22254 0.63115 0.0
H612 H 0.61414 0.29118 0.5863 0.0
H613 H 0.66118 0.34165 0.58216 0.0
C614 C 0.73064 0.34214 0.60399 0.0
C615 C 0.76601 0.33928 0.61694 0.0
C616 C 0.70472 0.31188 0.60467 0.0
C617 C 0.77595 0.30494 0.62965 0.0
C618 C 0.75029 0.27438 0.63025 0.0
C619 C 0.68712 0.24836 0.62019 0.0
C620 C 0.65051 0.25325 0.60923 0.0
C621 C 0.71426 0.27777 0.61822 0.0
C622 C 0.642 0.28686 0.59513 0.0
C623 C 0.66887 0.31578 0.59274 0.0
H624 H 0.77687 0.69729 0.13949 0.0
H625 H 0.71837 0.62986 0.08003 0.0
H626 H 0.66872 0.67796 0.07653 0.0
H627 H 0.63832 0.73512 0.09366 0.0
H628 H 0.69386 0.80272 0.15424 0.0
H629 H 0.7485 0.75902 0.1538 0.0
C630 C 0.7536 0.69362 0.12544 0.0
C631 C 0.75103 0.65994 0.11024 0.0
C632 C 0.72446 0.72119 0.12393 0.0
C633 C 0.72072 0.65536 0.09217 0.0
C634 C 0.69228 0.68282 0.09015 0.0
C635 C 0.66257 0.74059 0.10657 0.0
C636 C 0.66192 0.77175 0.12419 0.0
C637 C 0.69328 0.71519 0.10649 0.0
C638 C 0.69372 0.77879 0.14054 0.0
C639 C 0.72483 0.75371 0.14037 0.0
H640 H 0.2336 0.67983 0.63587 0.0
H641 H 0.30831 0.59758 0.5987 0.0
H642 H 0.35788 0.64539 0.59464 0.0
H643 H 0.38165 0.70882 0.60377 0.0
H644 H 0.30956 0.79217 0.64192 0.0
H645 H 0.25717 0.74588 0.64318 0.0
C646 C 0.26064 0.6726 0.62672 0.0
C647 C 0.26735 0.63512 0.61782 0.0
C648 C 0.2895 0.70033 0.62465 0.0
C649 C 0.30249 0.62609 0.60596 0.0
C650 C 0.33091 0.65342 0.60357 0.0
C651 C 0.35441 0.71707 0.61222 0.0
C652 C 0.34953 0.75373 0.6229 0.0
C653 C 0.32494 0.69035 0.6132 0.0
C654 C 0.31398 0.76403 0.63358 0.0
C655 C 0.28412 0.73753 0.63439 0.0
H656 H 0.36735 0.73051 0.39823 0.0
H657 H 0.30971 0.80679 0.34394 0.0
H658 H 0.25529 0.76294 0.34188 0.0
H659 H 0.22671 0.69984 0.35288 0.0
H660 H 0.28742 0.62417 0.40612 0.0
H661 H 0.33786 0.67093 0.41132 0.0
C662 C 0.34277 0.7378 0.38608 0.0
C663 C 0.34268 0.77163 0.37107 0.0
C664 C 0.31218 0.71237 0.38471 0.0
C665 C 0.31045 0.78082 0.35567 0.0
C666 C 0.27944 0.75568 0.35441 0.0
C667 C 0.25077 0.69395 0.36586 0.0
C668 C 0.25349 0.65846 0.37891 0.0
C669 C 0.28032 0.72092 0.36844 0.0
C670 C 0.28484 0.65108 0.39563 0.0
C671 C 0.31373 0.67781 0.39865 0.0
H672 H 0.30104 0.22037 0.86175 0.0
H673 H 0.38817 0.28984 0.89835 0.0
H674 H 0.34337 0.34214 0.90317 0.0
H675 H 0.28118 0.36973 0.89476 0.0
H676 H 0.19309 0.30261 0.85745 0.0
H677 H 0.23635 0.24773 0.85536 0.0
C678 C 0.30998 0.24684 0.87102 0.0
C679 C 0.34794 0.25128 0.8795 0.0
C680 C 0.28402 0.27727 0.8735 0.0
C681 C 0.35921 0.28574 0.89145 0.0
C682 C 0.33362 0.31573 0.89424 0.0
C683 C 0.27127 0.34304 0.8863 0.0
C684 C 0.23413 0.34028 0.8761 0.0
C685 C 0.29623 0.31203 0.88495 0.0
C686 C 0.22165 0.30542 0.8654 0.0
C687 C 0.2464 0.27411 0.86414 0.0
H688 H 0.68543 0.22294 0.3569 0.0
H689 H 0.61832 0.28953 0.41216 0.0
H690 H 0.66963 0.33562 0.41635 0.0
H691 H 0.72966 0.36115 0.40031 0.0
H692 H 0.79745 0.29739 0.34404 0.0
H693 H 0.75021 0.24577 0.34449 0.0
C694 C 0.68252 0.24713 0.37025 0.0
C695 C 0.64802 0.25312 0.38396 0.0
C696 C 0.71205 0.2742 0.37216 0.0
C697 C 0.64445 0.28459 0.40116 0.0
C698 C 0.67375 0.311 0.40356 0.0
C699 C 0.73438 0.33571 0.3884 0.0
C700 C 0.76659 0.3332 0.37189 0.0
C701 C 0.70704 0.30676 0.38849 0.0
C702 C 0.77273 0.29992 0.35688 0.0
C703 C 0.74562 0.27056 0.35702 0.0
H704 H 0.70535 0.62456 0.89637 0.0
H705 H 0.78013 0.69193 0.84695 0.0
H706 H 0.73479 0.74521 0.84857 0.0
H707 H 0.67106 0.77032 0.86129 0.0
H708 H 0.5974 0.70074 0.91029 0.0
H709 H 0.6453 0.65081 0.91178 0.0
C710 C 0.7119 0.65099 0.88607 0.0
C711 C 0.74572 0.65422 0.87129 0.0
C712 C 0.68581 0.68107 0.88698 0.0
C713 C 0.75412 0.68879 0.85839 0.0
C714 C 0.72817 0.71915 0.85925 0.0
C715 C 0.66586 0.74443 0.87258 0.0
C716 C 0.6306 0.73906 0.88543 0.0
C717 C 0.69352 0.71534 0.87309 0.0
C718 C 0.62414 0.70541 0.89999 0.0
C719 C 0.6515 0.67678 0.90086 0.0
loop_
_geom_bond_atom_site_label_1
_geom_bond_atom_site_label_2
_geom_bond_distance
_geom_bond_site_symmetry_2
_ccdc_geom_bond_type
In0 O1 2.294 . S
In0 O2 2.326 . S
In0 O6 2.266 . S
In0 O7 2.326 . S
In0 O8 2.266 . S
In0 O9 2.326 . S
In0 O11 2.294 . S
In0 O12 2.326 . S
O1 In0 2.294 . S
O1 C10 1.240 . S
O2 In0 2.326 . S
O2 C10 1.252 . S
C3 O6 1.252 . S
C3 O7 1.260 . S
C4 O11 1.240 . S
C4 O12 1.252 . S
C5 O8 1.252 . S
C5 O9 1.260 . S
O6 In0 2.266 . S
O6 C3 1.252 . S
O7 In0 2.326 . S
O7 C3 1.260 . S
O8 In0 2.266 . S
O8 C5 1.252 . S
O9 In0 2.326 . S
O9 C5 1.260 . S
C10 O1 1.240 . S
C10 O2 1.252 . S
O11 In0 2.294 . S
O11 C4 1.240 . S
O12 In0 2.326 . S
O12 C4 1.252 . S
In13 O14 2.294 . S
In13 O15 2.326 . S
In13 O19 2.266 . S
In13 O20 2.326 . S
In13 O21 2.266 . S
In13 O22 2.326 . S
In13 O24 2.294 . S
In13 O25 2.326 . S
O14 In13 2.294 . S
O14 C23 1.240 . S
O15 In13 2.326 . S
O15 C23 1.252 . S
C16 O19 1.252 . S
C16 O20 1.260 . S
C17 O24 1.240 . S
C17 O25 1.252 . S
C18 O21 1.252 . S
C18 O22 1.260 . S
O19 In13 2.266 . S
O19 C16 1.252 . S
O20 In13 2.326 . S
O20 C16 1.260 . S
O21 In13 2.266 . S
O21 C18 1.252 . S
O22 In13 2.326 . S
O22 C18 1.260 . S
C23 O14 1.240 . S
C23 O15 1.252 . S
O24 In13 2.294 . S
O24 C17 1.240 . S
O25 In13 2.326 . S
O25 C17 1.252 . S
In26 O27 2.294 . S
In26 O28 2.326 . S
In26 O32 2.266 . S
In26 O33 2.326 . S
In26 O34 2.266 . S
In26 O35 2.326 . S
In26 O37 2.294 . S
In26 O38 2.326 . S
O27 In26 2.294 . S
O27 C36 1.240 . S
O28 In26 2.326 . S
O28 C36 1.252 . S
C29 O32 1.252 . S
C29 O33 1.260 . S
C30 O37 1.240 . S
C30 O38 1.252 . S
C31 O34 1.252 . S
C31 O35 1.260 . S
O32 In26 2.266 . S
O32 C29 1.252 . S
O33 In26 2.326 . S
O33 C29 1.260 . S
O34 In26 2.266 . S
O34 C31 1.252 . S
O35 In26 2.326 . S
O35 C31 1.260 . S
C36 O27 1.240 . S
C36 O28 1.252 . S
O37 In26 2.294 . S
O37 C30 1.240 . S
O38 In26 2.326 . S
O38 C30 1.252 . S
In39 O40 2.294 . S
In39 O41 2.326 . S
In39 O45 2.266 . S
In39 O46 2.326 . S
In39 O47 2.266 . S
In39 O48 2.326 . S
In39 O50 2.294 . S
In39 O51 2.326 . S
O40 In39 2.294 . S
O40 C49 1.240 . S
O41 In39 2.326 . S
O41 C49 1.252 . S
C42 O45 1.252 . S
C42 O46 1.260 . S
C43 O50 1.240 . S
C43 O51 1.252 . S
C44 O47 1.252 . S
C44 O48 1.260 . S
O45 In39 2.266 . S
O45 C42 1.252 . S
O46 In39 2.326 . S
O46 C42 1.260 . S
O47 In39 2.266 . S
O47 C44 1.252 . S
O48 In39 2.326 . S
O48 C44 1.260 . S
C49 O40 1.240 . S
C49 O41 1.252 . S
O50 In39 2.294 . S
O50 C43 1.240 . S
O51 In39 2.326 . S
O51 C43 1.252 . S
In52 O53 2.294 . S
In52 O54 2.326 . S
In52 O58 2.266 . S
In52 O59 2.326 . S
In52 O60 2.266 . S
In52 O61 2.326 . S
In52 O63 2.294 . S
In52 O64 2.326 . S
O53 In52 2.294 . S
O53 C62 1.240 . S
O54 In52 2.326 . S
O54 C62 1.252 . S
C55 O58 1.252 . S
C55 O59 1.260 . S
C56 O63 1.240 . S
C56 O64 1.252 . S
C57 O60 1.252 . S
C57 O61 1.260 . S
O58 In52 2.266 . S
O58 C55 1.252 . S
O59 In52 2.326 . S
O59 C55 1.260 . S
O60 In52 2.266 . S
O60 C57 1.252 . S
O61 In52 2.326 . S
O61 C57 1.260 . S
C62 O53 1.240 . S
C62 O54 1.252 . S
O63 In52 2.294 . S
O63 C56 1.240 . S
O64 In52 2.326 . S
O64 C56 1.252 . S
In65 O66 2.294 . S
In65 O67 2.326 . S
In65 O71 2.266 . S
In65 O72 2.326 . S
In65 O73 2.266 . S
In65 O74 2.326 . S
In65 O76 2.294 . S
In65 O77 2.326 . S
O66 In65 2.294 . S
O66 C75 1.240 . S
O67 In65 2.326 . S
O67 C75 1.252 . S
C68 O71 1.252 . S
C68 O72 1.260 . S
C69 O76 1.240 . S
C69 O77 1.252 . S
C70 O73 1.252 . S
C70 O74 1.260 . S
O71 In65 2.266 . S
O71 C68 1.252 . S
O72 In65 2.326 . S
O72 C68 1.260 . S
O73 In65 2.266 . S
O73 C70 1.252 . S
O74 In65 2.326 . S
O74 C70 1.260 . S
C75 O66 1.240 . S
C75 O67 1.252 . S
O76 In65 2.294 . S
O76 C69 1.240 . S
O77 In65 2.326 . S
O77 C69 1.252 . S
In78 O79 2.294 . S
In78 O80 2.326 . S
In78 O84 2.266 . S
In78 O85 2.326 . S
In78 O86 2.266 . S
In78 O87 2.326 . S
In78 O89 2.294 . S
In78 O90 2.326 . S
O79 In78 2.294 . S
O79 C88 1.240 . S
O80 In78 2.326 . S
O80 C88 1.252 . S
C81 O84 1.252 . S
C81 O85 1.260 . S
C82 O89 1.240 . S
C82 O90 1.252 . S
C83 O86 1.252 . S
C83 O87 1.260 . S
O84 In78 2.266 . S
O84 C81 1.252 . S
O85 In78 2.326 . S
O85 C81 1.260 . S
O86 In78 2.266 . S
O86 C83 1.252 . S
O87 In78 2.326 . S
O87 C83 1.260 . S
C88 O79 1.240 . S
C88 O80 1.252 . S
O89 In78 2.294 . S
O89 C82 1.240 . S
O90 In78 2.326 . S
O90 C82 1.252 . S
In91 O92 2.294 . S
In91 O93 2.326 . S
In91 O97 2.266 . S
In91 O98 2.326 . S
In91 O99 2.266 . S
In91 O100 2.326 . S
In91 O102 2.294 . S
In91 O103 2.326 . S
O92 In91 2.294 . S
O92 C101 1.240 . S
O93 In91 2.326 . S
O93 C101 1.252 . S
C94 O97 1.252 . S
C94 O98 1.260 . S
C95 O102 1.240 . S
C95 O103 1.252 . S
C96 O99 1.252 . S
C96 O100 1.260 . S
O97 In91 2.266 . S
O97 C94 1.252 . S
O98 In91 2.326 . S
O98 C94 1.260 . S
O99 In91 2.266 . S
O99 C96 1.252 . S
O100 In91 2.326 . S
O100 C96 1.260 . S
C101 O92 1.240 . S
C101 O93 1.252 . S
O102 In91 2.294 . S
O102 C95 1.240 . S
O103 In91 2.326 . S
O103 C95 1.252 . S
In104 O105 2.294 . S
In104 O106 2.326 . S
In104 O110 2.266 . S
In104 O111 2.326 . S
In104 O112 2.266 . S
In104 O113 2.326 . S
In104 O115 2.294 . S
In104 O116 2.326 . S
O105 In104 2.294 . S
O105 C114 1.240 . S
O106 In104 2.326 . S
O106 C114 1.252 . S
C107 O110 1.252 . S
C107 O111 1.260 . S
C108 O115 1.240 . S
C108 O116 1.252 . S
C109 O112 1.252 . S
C109 O113 1.260 . S
O110 In104 2.266 . S
O110 C107 1.252 . S
O111 In104 2.326 . S
O111 C107 1.260 . S
O112 In104 2.266 . S
O112 C109 1.252 . S
O113 In104 2.326 . S
O113 C109 1.260 . S
C114 O105 1.240 . S
C114 O106 1.252 . S
O115 In104 2.294 . S
O115 C108 1.240 . S
O116 In104 2.326 . S
O116 C108 1.252 . S
In117 O118 2.294 . S
In117 O119 2.326 . S
In117 O123 2.266 . S
In117 O124 2.326 . S
In117 O125 2.266 . S
In117 O126 2.326 . S
In117 O128 2.294 . S
In117 O129 2.326 . S
O118 In117 2.294 . S
O118 C127 1.240 . S
O119 In117 2.326 . S
O119 C127 1.252 . S
C120 O123 1.252 . S
C120 O124 1.260 . S
C121 O128 1.240 . S
C121 O129 1.252 . S
C122 O125 1.252 . S
C122 O126 1.260 . S
O123 In117 2.266 . S
O123 C120 1.252 . S
O124 In117 2.326 . S
O124 C120 1.260 . S
O125 In117 2.266 . S
O125 C122 1.252 . S
O126 In117 2.326 . S
O126 C122 1.260 . S
C127 O118 1.240 . S
C127 O119 1.252 . S
O128 In117 2.294 . S
O128 C121 1.240 . S
O129 In117 2.326 . S
O129 C121 1.252 . S
In130 O131 2.294 . S
In130 O132 2.326 . S
In130 O136 2.266 . S
In130 O137 2.326 . S
In130 O138 2.266 . S
In130 O139 2.326 . S
In130 O141 2.294 . S
In130 O142 2.326 . S
O131 In130 2.294 . S
O131 C140 1.240 . S
O132 In130 2.326 . S
O132 C140 1.252 . S
C133 O136 1.252 . S
C133 O137 1.260 . S
C134 O141 1.240 . S
C134 O142 1.252 . S
C135 O138 1.252 . S
C135 O139 1.260 . S
O136 In130 2.266 . S
O136 C133 1.252 . S
O137 In130 2.326 . S
O137 C133 1.260 . S
O138 In130 2.266 . S
O138 C135 1.252 . S
O139 In130 2.326 . S
O139 C135 1.260 . S
C140 O131 1.240 . S
C140 O132 1.252 . S
O141 In130 2.294 . S
O141 C134 1.240 . S
O142 In130 2.326 . S
O142 C134 1.252 . S
In143 O144 2.294 . S
In143 O145 2.326 . S
In143 O149 2.266 . S
In143 O150 2.326 . S
In143 O151 2.266 . S
In143 O152 2.326 . S
In143 O154 2.294 . S
In143 O155 2.326 . S
O144 In143 2.294 . S
O144 C153 1.240 . S
O145 In143 2.326 . S
O145 C153 1.252 . S
C146 O149 1.252 . S
C146 O150 1.260 . S
C147 O154 1.240 . S
C147 O155 1.252 . S
C148 O151 1.252 . S
C148 O152 1.260 . S
O149 In143 2.266 . S
O149 C146 1.252 . S
O150 In143 2.326 . S
O150 C146 1.260 . S
O151 In143 2.266 . S
O151 C148 1.252 . S
O152 In143 2.326 . S
O152 C148 1.260 . S
C153 O144 1.240 . S
C153 O145 1.252 . S
O154 In143 2.294 . S
O154 C147 1.240 . S
O155 In143 2.326 . S
O155 C147 1.252 . S
In156 O157 2.294 . S
In156 O158 2.326 . S
In156 O162 2.266 . S
In156 O163 2.326 . S
In156 O164 2.266 . S
In156 O165 2.326 . S
In156 O167 2.294 . S
In156 O168 2.326 . S
O157 In156 2.294 . S
O157 C166 1.240 . S
O158 In156 2.326 . S
O158 C166 1.252 . S
C159 O162 1.252 . S
C159 O163 1.260 . S
C160 O167 1.240 . S
C160 O168 1.252 . S
C161 O164 1.252 . S
C161 O165 1.260 . S
O162 In156 2.266 . S
O162 C159 1.252 . S
O163 In156 2.326 . S
O163 C159 1.260 . S
O164 In156 2.266 . S
O164 C161 1.252 . S
O165 In156 2.326 . S
O165 C161 1.260 . S
C166 O157 1.240 . S
C166 O158 1.252 . S
O167 In156 2.294 . S
O167 C160 1.240 . S
O168 In156 2.326 . S
O168 C160 1.252 . S
In169 O170 2.294 . S
In169 O171 2.326 . S
In169 O175 2.266 . S
In169 O176 2.326 . S
In169 O177 2.266 . S
In169 O178 2.326 . S
In169 O180 2.294 . S
In169 O181 2.326 . S
O170 In169 2.294 . S
O170 C179 1.240 . S
O171 In169 2.326 . S
O171 C179 1.252 . S
C172 O175 1.252 . S
C172 O176 1.260 . S
C173 O180 1.240 . S
C173 O181 1.252 . S
C174 O177 1.252 . S
C174 O178 1.260 . S
O175 In169 2.266 . S
O175 C172 1.252 . S
O176 In169 2.326 . S
O176 C172 1.260 . S
O177 In169 2.266 . S
O177 C174 1.252 . S
O178 In169 2.326 . S
O178 C174 1.260 . S
C179 O170 1.240 . S
C179 O171 1.252 . S
O180 In169 2.294 . S
O180 C173 1.240 . S
O181 In169 2.326 . S
O181 C173 1.252 . S
In182 O183 2.294 . S
In182 O184 2.326 . S
In182 O188 2.266 . S
In182 O189 2.326 . S
In182 O190 2.266 . S
In182 O191 2.326 . S
In182 O193 2.294 . S
In182 O194 2.326 . S
O183 In182 2.294 . S
O183 C192 1.240 . S
O184 In182 2.326 . S
O184 C192 1.252 . S
C185 O188 1.252 . S
C185 O189 1.260 . S
C186 O193 1.240 . S
C186 O194 1.252 . S
C187 O190 1.252 . S
C187 O191 1.260 . S
O188 In182 2.266 . S
O188 C185 1.252 . S
O189 In182 2.326 . S
O189 C185 1.260 . S
O190 In182 2.266 . S
O190 C187 1.252 . S
O191 In182 2.326 . S
O191 C187 1.260 . S
C192 O183 1.240 . S
C192 O184 1.252 . S
O193 In182 2.294 . S
O193 C186 1.240 . S
O194 In182 2.326 . S
O194 C186 1.252 . S
In195 O196 2.294 . S
In195 O197 2.326 . S
In195 O201 2.266 . S
In195 O202 2.326 . S
In195 O203 2.266 . S
In195 O204 2.326 . S
In195 O206 2.294 . S
In195 O207 2.326 . S
O196 In195 2.294 . S
O196 C205 1.240 . S
O197 In195 2.326 . S
O197 C205 1.252 . S
C198 O201 1.252 . S
C198 O202 1.260 . S
C199 O206 1.240 . S
C199 O207 1.252 . S
C200 O203 1.252 . S
C200 O204 1.260 . S
O201 In195 2.266 . S
O201 C198 1.252 . S
O202 In195 2.326 . S
O202 C198 1.260 . S
O203 In195 2.266 . S
O203 C200 1.252 . S
O204 In195 2.326 . S
O204 C200 1.260 . S
C205 O196 1.240 . S
C205 O197 1.252 . S
O206 In195 2.294 . S
O206 C199 1.240 . S
O207 In195 2.326 . S
O207 C199 1.252 . S
H208 C214 0.930 . S
H209 C217 0.930 . S
H210 C218 0.930 . S
H211 C219 0.930 . S
H212 C222 0.930 . S
H213 C223 0.930 . S
C214 H208 0.930 . S
C214 C215 1.355 . S
C214 C216 1.415 . S
C215 C214 1.355 . S
C215 C217 1.419 . S
C216 C214 1.415 . S
C216 C221 1.425 1_455 S
C216 C223 1.409 . S
C217 H209 0.930 . S
C217 C215 1.419 . S
C217 C218 1.362 1_455 S
C218 H210 0.930 . S
C218 C217 1.362 1_655 S
C218 C221 1.409 . S
C219 H211 0.930 . S
C219 C220 1.355 . S
C219 C221 1.415 . S
C220 C219 1.355 . S
C220 C222 1.419 . S
C221 C216 1.425 1_655 S
C221 C218 1.409 . S
C221 C219 1.415 . S
C222 H212 0.930 . S
C222 C220 1.419 . S
C222 C223 1.362 1_655 S
C223 H213 0.930 . S
C223 C216 1.409 . S
C223 C222 1.362 1_455 S
H224 C230 0.930 . S
H225 C233 0.930 . S
H226 C234 0.930 1_545 S
H227 C235 0.930 . S
H228 C238 0.930 . S
H229 C239 0.930 1_565 S
C230 H224 0.930 . S
C230 C231 1.355 . S
C230 C232 1.415 . S
C231 C230 1.355 . S
C231 C233 1.419 . S
C232 C230 1.415 . S
C232 C237 1.425 1_565 S
C232 C239 1.409 1_565 S
C233 H225 0.930 . S
C233 C231 1.419 . S
C233 C234 1.362 . S
C234 H226 0.930 1_565 S
C234 C233 1.362 . S
C234 C237 1.409 1_565 S
C235 H227 0.930 . S
C235 C236 1.355 . S
C235 C237 1.415 . S
C236 C235 1.355 . S
C236 C238 1.419 . S
C237 C232 1.425 1_545 S
C237 C234 1.409 1_545 S
C237 C235 1.415 . S
C238 H228 0.930 . S
C238 C236 1.419 . S
C238 C239 1.362 . S
C239 H229 0.930 1_545 S
C239 C232 1.409 1_545 S
C239 C238 1.362 . S
H240 C246 0.930 . S
H241 C249 0.930 . S
H242 C250 0.930 . S
H243 C251 0.930 . S
H244 C254 0.930 . S
H245 C255 0.930 . S
C246 H240 0.930 . S
C246 C247 1.355 . S
C246 C248 1.415 . S
C247 C246 1.355 . S
C247 C249 1.419 . S
C248 C246 1.415 . S
C248 C253 1.425 1_455 S
C248 C255 1.409 . S
C249 H241 0.930 . S
C249 C247 1.419 . S
C249 C250 1.362 1_455 S
C250 H242 0.930 . S
C250 C249 1.362 1_655 S
C250 C253 1.409 . S
C251 H243 0.930 . S
C251 C252 1.355 . S
C251 C253 1.415 . S
C252 C251 1.355 . S
C252 C254 1.419 . S
C253 C248 1.425 1_655 S
C253 C250 1.409 . S
C253 C251 1.415 . S
C254 H244 0.930 . S
C254 C252 1.419 . S
C254 C255 1.362 1_655 S
C255 H245 0.930 . S
C255 C248 1.409 . S
C255 C254 1.362 1_455 S
H256 C262 0.930 . S
H257 C265 0.930 . S
H258 C266 0.930 . S
H259 C267 0.930 . S
H260 C270 0.930 . S
H261 C271 0.930 . S
C262 H256 0.930 . S
C262 C263 1.355 . S
C262 C264 1.415 . S
C263 C262 1.355 . S
C263 C265 1.419 . S
C264 C262 1.415 . S
C264 C269 1.425 1_565 S
C264 C271 1.409 . S
C265 H257 0.930 . S
C265 C263 1.419 . S
C265 C266 1.362 1_565 S
C266 H258 0.930 . S
C266 C265 1.362 1_545 S
C266 C269 1.409 . S
C267 H259 0.930 . S
C267 C268 1.355 . S
C267 C269 1.415 . S
C268 C267 1.355 . S
C268 C270 1.419 . S
C269 C264 1.425 1_545 S
C269 C266 1.409 . S
C269 C267 1.415 . S
C270 H260 0.930 . S
C270 C268 1.419 . S
C270 C271 1.362 1_545 S
C271 H261 0.930 . S
C271 C264 1.409 . S
C271 C270 1.362 1_565 S
H272 C278 0.930 . S
H273 C281 0.930 . S
H274 C282 0.930 . S
H275 C283 0.930 . S
H276 C286 0.930 . S
H277 C287 0.930 . S
C278 H272 0.930 . S
C278 C279 1.355 . S
C278 C280 1.415 . S
C279 C278 1.355 . S
C279 C281 1.419 . S
C280 C278 1.415 . S
C280 C285 1.425 1_655 S
C280 C287 1.409 . S
C281 H273 0.930 . S
C281 C279 1.419 . S
C281 C282 1.362 1_655 S
C282 H274 0.930 . S
C282 C281 1.362 1_455 S
C282 C285 1.409 . S
C283 H275 0.930 . S
C283 C284 1.355 . S
C283 C285 1.415 . S
C284 C283 1.355 . S
C284 C286 1.419 . S
C285 C280 1.425 1_455 S
C285 C282 1.409 . S
C285 C283 1.415 . S
C286 H276 0.930 . S
C286 C284 1.419 . S
C286 C287 1.362 1_455 S
C287 H277 0.930 . S
C287 C280 1.409 . S
C287 C286 1.362 1_655 S
H288 C294 0.930 . S
H289 C297 0.930 . S
H290 C298 0.930 . S
H291 C299 0.930 . S
H292 C302 0.930 . S
H293 C303 0.930 . S
C294 H288 0.930 . S
C294 C295 1.355 . S
C294 C296 1.415 1_545 S
C295 C294 1.355 . S
C295 C297 1.419 . S
C296 C294 1.415 1_565 S
C296 C301 1.425 1_565 S
C296 C303 1.409 . S
C297 H289 0.930 . S
C297 C295 1.419 . S
C297 C298 1.362 . S
C298 H290 0.930 . S
C298 C297 1.362 . S
C298 C301 1.409 . S
C299 H291 0.930 . S
C299 C300 1.355 . S
C299 C301 1.415 1_565 S
C300 C299 1.355 . S
C300 C302 1.419 . S
C301 C296 1.425 1_545 S
C301 C298 1.409 . S
C301 C299 1.415 1_545 S
C302 H292 0.930 . S
C302 C300 1.419 . S
C302 C303 1.362 . S
C303 H293 0.930 . S
C303 C296 1.409 . S
C303 C302 1.362 . S
H304 C310 0.930 . S
H305 C313 0.930 . S
H306 C314 0.930 . S
H307 C315 0.930 . S
H308 C318 0.930 . S
H309 C319 0.930 . S
C310 H304 0.930 . S
C310 C311 1.355 . S
C310 C312 1.415 . S
C311 C310 1.355 . S
C311 C313 1.419 . S
C312 C310 1.415 . S
C312 C317 1.425 1_655 S
C312 C319 1.409 . S
C313 H305 0.930 . S
C313 C311 1.419 . S
C313 C314 1.362 1_655 S
C314 H306 0.930 . S
C314 C313 1.362 1_455 S
C314 C317 1.409 . S
C315 H307 0.930 . S
C315 C316 1.355 . S
C315 C317 1.415 . S
C316 C315 1.355 . S
C316 C318 1.419 . S
C317 C312 1.425 1_455 S
C317 C314 1.409 . S
C317 C315 1.415 . S
C318 H308 0.930 . S
C318 C316 1.419 . S
C318 C319 1.362 1_455 S
C319 H309 0.930 . S
C319 C312 1.409 . S
C319 C318 1.362 1_655 S
H320 C326 0.930 . S
H321 C329 0.930 . S
H322 C330 0.930 . S
H323 C331 0.930 . S
H324 C334 0.930 . S
H325 C335 0.930 . S
C326 H320 0.930 . S
C326 C327 1.355 . S
C326 C328 1.415 1_545 S
C327 C326 1.355 . S
C327 C329 1.419 . S
C328 C326 1.415 1_565 S
C328 C333 1.425 1_565 S
C328 C335 1.409 . S
C329 H321 0.930 . S
C329 C327 1.419 . S
C329 C330 1.362 . S
C330 H322 0.930 . S
C330 C329 1.362 . S
C330 C333 1.409 . S
C331 H323 0.930 . S
C331 C332 1.355 . S
C331 C333 1.415 1_565 S
C332 C331 1.355 . S
C332 C334 1.419 . S
C333 C328 1.425 1_545 S
C333 C330 1.409 . S
C333 C331 1.415 1_545 S
C334 H324 0.930 . S
C334 C332 1.419 . S
C334 C335 1.362 . S
C335 H325 0.930 . S
C335 C328 1.409 . S
C335 C334 1.362 . S
H336 C342 0.930 . S
H337 C345 0.930 . S
H338 C346 0.930 . S
H339 C347 0.930 . S
H340 C350 0.930 . S
H341 C351 0.930 . S
C342 H336 0.930 . S
C342 C343 1.355 . S
C342 C344 1.415 . S
C343 C342 1.355 . S
C343 C345 1.419 . S
C344 C342 1.415 . S
C344 C349 1.425 . S
C344 C351 1.409 . S
C345 H337 0.930 . S
C345 C343 1.419 . S
C345 C346 1.362 . S
C346 H338 0.930 . S
C346 C345 1.362 . S
C346 C349 1.409 . S
C347 H339 0.930 . S
C347 C348 1.355 . S
C347 C349 1.415 . S
C348 C347 1.355 . S
C348 C350 1.419 . S
C349 C344 1.425 . S
C349 C346 1.409 . S
C349 C347 1.415 . S
C350 H340 0.930 . S
C350 C348 1.419 . S
C350 C351 1.362 . S
C351 H341 0.930 . S
C351 C344 1.409 . S
C351 C350 1.362 . S
H352 C358 0.930 . S
H353 C361 0.930 . S
H354 C362 0.930 . S
H355 C363 0.930 . S
H356 C366 0.930 . S
H357 C367 0.930 . S
C358 H352 0.930 . S
C358 C359 1.355 . S
C358 C360 1.415 . S
C359 C358 1.355 . S
C359 C361 1.419 . S
C360 C358 1.415 . S
C360 C365 1.425 . S
C360 C367 1.409 . S
C361 H353 0.930 . S
C361 C359 1.419 . S
C361 C362 1.362 . S
C362 H354 0.930 . S
C362 C361 1.362 . S
C362 C365 1.409 . S
C363 H355 0.930 . S
C363 C364 1.355 . S
C363 C365 1.415 . S
C364 C363 1.355 . S
C364 C366 1.419 . S
C365 C360 1.425 . S
C365 C362 1.409 . S
C365 C363 1.415 . S
C366 H356 0.930 . S
C366 C364 1.419 . S
C366 C367 1.362 . S
C367 H357 0.930 . S
C367 C360 1.409 . S
C367 C366 1.362 . S
H368 C374 0.930 . S
H369 C377 0.930 . S
H370 C378 0.930 . S
H371 C379 0.930 . S
H372 C382 0.930 . S
H373 C383 0.930 . S
C374 H368 0.930 . S
C374 C375 1.355 . S
C374 C376 1.415 . S
C375 C374 1.355 . S
C375 C377 1.419 . S
C376 C374 1.415 . S
C376 C381 1.425 . S
C376 C383 1.409 . S
C377 H369 0.930 . S
C377 C375 1.419 . S
C377 C378 1.362 . S
C378 H370 0.930 . S
C378 C377 1.362 . S
C378 C381 1.409 . S
C379 H371 0.930 . S
C379 C380 1.355 . S
C379 C381 1.415 . S
C380 C379 1.355 . S
C380 C382 1.419 . S
C381 C376 1.425 . S
C381 C378 1.409 . S
C381 C379 1.415 . S
C382 H372 0.930 . S
C382 C380 1.419 . S
C382 C383 1.362 . S
C383 H373 0.930 . S
C383 C376 1.409 . S
C383 C382 1.362 . S
H384 C390 0.930 . S
H385 C393 0.930 . S
H386 C394 0.930 . S
H387 C395 0.930 . S
H388 C398 0.930 . S
H389 C399 0.930 . S
C390 H384 0.930 . S
C390 C391 1.355 . S
C390 C392 1.415 . S
C391 C390 1.355 . S
C391 C393 1.419 . S
C392 C390 1.415 . S
C392 C397 1.425 . S
C392 C399 1.409 . S
C393 H385 0.930 . S
C393 C391 1.419 . S
C393 C394 1.362 . S
C394 H386 0.930 . S
C394 C393 1.362 . S
C394 C397 1.409 . S
C395 H387 0.930 . S
C395 C396 1.355 . S
C395 C397 1.415 . S
C396 C395 1.355 . S
C396 C398 1.419 . S
C397 C392 1.425 . S
C397 C394 1.409 . S
C397 C395 1.415 . S
C398 H388 0.930 . S
C398 C396 1.419 . S
C398 C399 1.362 . S
C399 H389 0.930 . S
C399 C392 1.409 . S
C399 C398 1.362 . S
H400 C406 0.930 . S
H401 C409 0.930 . S
H402 C410 0.930 . S
H403 C411 0.930 . S
H404 C414 0.930 . S
H405 C415 0.930 . S
C406 H400 0.930 . S
C406 C407 1.355 . S
C406 C408 1.415 . S
C407 C406 1.355 . S
C407 C409 1.419 . S
C408 C406 1.415 . S
C408 C413 1.425 . S
C408 C415 1.409 . S
C409 H401 0.930 . S
C409 C407 1.419 . S
C409 C410 1.362 . S
C410 H402 0.930 . S
C410 C409 1.362 . S
C410 C413 1.409 . S
C411 H403 0.930 . S
C411 C412 1.355 . S
C411 C413 1.415 . S
C412 C411 1.355 . S
C412 C414 1.419 . S
C413 C408 1.425 . S
C413 C410 1.409 . S
C413 C411 1.415 . S
C414 H404 0.930 . S
C414 C412 1.419 . S
C414 C415 1.362 . S
C415 H405 0.930 . S
C415 C408 1.409 . S
C415 C414 1.362 . S
H416 C422 0.930 . S
H417 C425 0.930 . S
H418 C426 0.930 . S
H419 C427 0.930 . S
H420 C430 0.930 . S
H421 C431 0.930 . S
C422 H416 0.930 . S
C422 C423 1.355 . S
C422 C424 1.415 . S
C423 C422 1.355 . S
C423 C425 1.419 . S
C424 C422 1.415 . S
C424 C429 1.425 . S
C424 C431 1.409 . S
C425 H417 0.930 . S
C425 C423 1.419 . S
C425 C426 1.362 . S
C426 H418 0.930 . S
C426 C425 1.362 . S
C426 C429 1.409 . S
C427 H419 0.930 . S
C427 C428 1.355 . S
C427 C429 1.415 . S
C428 C427 1.355 . S
C428 C430 1.419 . S
C429 C424 1.425 . S
C429 C426 1.409 . S
C429 C427 1.415 . S
C430 H420 0.930 . S
C430 C428 1.419 . S
C430 C431 1.362 . S
C431 H421 0.930 . S
C431 C424 1.409 . S
C431 C430 1.362 . S
H432 C438 0.930 . S
H433 C441 0.930 . S
H434 C442 0.930 . S
H435 C443 0.930 . S
H436 C446 0.930 . S
H437 C447 0.930 . S
C438 H432 0.930 . S
C438 C439 1.355 . S
C438 C440 1.415 . S
C439 C438 1.355 . S
C439 C441 1.419 . S
C440 C438 1.415 . S
C440 C445 1.425 . S
C440 C447 1.409 . S
C441 H433 0.930 . S
C441 C439 1.419 . S
C441 C442 1.362 . S
C442 H434 0.930 . S
C442 C441 1.362 . S
C442 C445 1.409 . S
C443 H435 0.930 . S
C443 C444 1.355 . S
C443 C445 1.415 . S
C444 C443 1.355 . S
C444 C446 1.419 . S
C445 C440 1.425 . S
C445 C442 1.409 . S
C445 C443 1.415 . S
C446 H436 0.930 . S
C446 C444 1.419 . S
C446 C447 1.362 . S
C447 H437 0.930 . S
C447 C440 1.409 . S
C447 C446 1.362 . S
H448 C454 0.930 . S
H449 C457 0.930 . S
H450 C458 0.930 . S
H451 C459 0.930 . S
H452 C462 0.930 . S
H453 C463 0.930 . S
C454 H448 0.930 . S
C454 C455 1.355 . S
C454 C456 1.415 . S
C455 C454 1.355 . S
C455 C457 1.419 . S
C456 C454 1.415 . S
C456 C461 1.425 . S
C456 C463 1.409 . S
C457 H449 0.930 . S
C457 C455 1.419 . S
C457 C458 1.362 . S
C458 H450 0.930 . S
C458 C457 1.362 . S
C458 C461 1.409 . S
C459 H451 0.930 . S
C459 C460 1.355 . S
C459 C461 1.415 . S
C460 C459 1.355 . S
C460 C462 1.419 . S
C461 C456 1.425 . S
C461 C458 1.409 . S
C461 C459 1.415 . S
C462 H452 0.930 . S
C462 C460 1.419 . S
C462 C463 1.362 . S
C463 H453 0.930 . S
C463 C456 1.409 . S
C463 C462 1.362 . S
H464 C470 0.930 . S
H465 C473 0.930 . S
H466 C474 0.930 . S
H467 C475 0.930 . S
H468 C478 0.930 . S
H469 C479 0.930 . S
C470 H464 0.930 . S
C470 C471 1.355 . S
C470 C472 1.415 . S
C471 C470 1.355 . S
C471 C473 1.419 . S
C472 C470 1.415 . S
C472 C477 1.425 1_556 S
C472 C479 1.409 1_556 S
C473 H465 0.930 . S
C473 C471 1.419 . S
C473 C474 1.362 . S
C474 H466 0.930 . S
C474 C473 1.362 . S
C474 C477 1.409 1_556 S
C475 H467 0.930 . S
C475 C476 1.355 . S
C475 C477 1.415 . S
C476 C475 1.355 . S
C476 C478 1.419 . S
C477 C472 1.425 1_554 S
C477 C474 1.409 1_554 S
C477 C475 1.415 . S
C478 H468 0.930 . S
C478 C476 1.419 . S
C478 C479 1.362 . S
C479 H469 0.930 . S
C479 C472 1.409 1_554 S
C479 C478 1.362 . S
H480 C486 0.930 . S
H481 C489 0.930 . S
H482 C490 0.930 . S
H483 C491 0.930 . S
H484 C494 0.930 . S
H485 C495 0.930 . S
C486 H480 0.930 . S
C486 C487 1.355 . S
C486 C488 1.415 . S
C487 C486 1.355 . S
C487 C489 1.419 . S
C488 C486 1.415 . S
C488 C493 1.425 . S
C488 C495 1.409 . S
C489 H481 0.930 . S
C489 C487 1.419 . S
C489 C490 1.362 . S
C490 H482 0.930 . S
C490 C489 1.362 . S
C490 C493 1.409 . S
C491 H483 0.930 . S
C491 C492 1.355 . S
C491 C493 1.415 . S
C492 C491 1.355 . S
C492 C494 1.419 . S
C493 C488 1.425 . S
C493 C490 1.409 . S
C493 C491 1.415 . S
C494 H484 0.930 . S
C494 C492 1.419 . S
C494 C495 1.362 . S
C495 H485 0.930 . S
C495 C488 1.409 . S
C495 C494 1.362 . S
H496 C502 0.930 . S
H497 C505 0.930 . S
H498 C506 0.930 . S
H499 C507 0.930 . S
H500 C510 0.930 . S
H501 C511 0.930 . S
C502 H496 0.930 . S
C502 C503 1.355 . S
C502 C504 1.415 . S
C503 C502 1.355 . S
C503 C505 1.419 . S
C504 C502 1.415 . S
C504 C509 1.425 1_554 S
C504 C511 1.409 1_554 S
C505 H497 0.930 . S
C505 C503 1.419 . S
C505 C506 1.362 . S
C506 H498 0.930 . S
C506 C505 1.362 . S
C506 C509 1.409 1_554 S
C507 H499 0.930 . S
C507 C508 1.355 . S
C507 C509 1.415 . S
C508 C507 1.355 . S
C508 C510 1.419 . S
C509 C504 1.425 1_556 S
C509 C506 1.409 1_556 S
C509 C507 1.415 . S
C510 H500 0.930 . S
C510 C508 1.419 . S
C510 C511 1.362 . S
C511 H501 0.930 . S
C511 C504 1.409 1_556 S
C511 C510 1.362 . S
H512 C518 0.930 . S
H513 C521 0.930 . S
H514 C522 0.930 . S
H515 C523 0.930 . S
H516 C526 0.930 . S
H517 C527 0.930 . S
C518 H512 0.930 . S
C518 C519 1.355 . S
C518 C520 1.415 . S
C519 C518 1.355 . S
C519 C521 1.419 . S
C520 C518 1.415 . S
C520 C525 1.425 . S
C520 C527 1.409 . S
C521 H513 0.930 . S
C521 C519 1.419 . S
C521 C522 1.362 . S
C522 H514 0.930 . S
C522 C521 1.362 . S
C522 C525 1.409 . S
C523 H515 0.930 . S
C523 C524 1.355 . S
C523 C525 1.415 . S
C524 C523 1.355 . S
C524 C526 1.419 . S
C525 C520 1.425 . S
C525 C522 1.409 . S
C525 C523 1.415 . S
C526 H516 0.930 . S
C526 C524 1.419 . S
C526 C527 1.362 . S
C527 H517 0.930 . S
C527 C520 1.409 . S
C527 C526 1.362 . S
H528 C534 0.930 . S
H529 C537 0.930 . S
H530 C538 0.930 . S
H531 C539 0.930 . S
H532 C542 0.930 . S
H533 C543 0.930 . S
C534 H528 0.930 . S
C534 C535 1.355 . S
C534 C536 1.415 . S
C535 C534 1.355 . S
C535 C537 1.419 . S
C536 C534 1.415 . S
C536 C541 1.425 . S
C536 C543 1.409 . S
C537 H529 0.930 . S
C537 C535 1.419 . S
C537 C538 1.362 . S
C538 H530 0.930 . S
C538 C537 1.362 . S
C538 C541 1.409 . S
C539 H531 0.930 . S
C539 C540 1.355 . S
C539 C541 1.415 . S
C540 C539 1.355 . S
C540 C542 1.419 . S
C541 C536 1.425 . S
C541 C538 1.409 . S
C541 C539 1.415 . S
C542 H532 0.930 . S
C542 C540 1.419 . S
C542 C543 1.362 . S
C543 H533 0.930 . S
C543 C536 1.409 . S
C543 C542 1.362 . S
H544 C550 0.930 . S
H545 C553 0.930 . S
H546 C554 0.930 . S
H547 C555 0.930 . S
H548 C558 0.930 . S
H549 C559 0.930 . S
C550 H544 0.930 . S
C550 C551 1.355 . S
C550 C552 1.415 . S
C551 C550 1.355 . S
C551 C553 1.419 . S
C552 C550 1.415 . S
C552 C557 1.425 1_556 S
C552 C559 1.409 1_556 S
C553 H545 0.930 . S
C553 C551 1.419 . S
C553 C554 1.362 . S
C554 H546 0.930 . S
C554 C553 1.362 . S
C554 C557 1.409 1_556 S
C555 H547 0.930 . S
C555 C556 1.355 . S
C555 C557 1.415 . S
C556 C555 1.355 . S
C556 C558 1.419 . S
C557 C552 1.425 1_554 S
C557 C554 1.409 1_554 S
C557 C555 1.415 . S
C558 H548 0.930 . S
C558 C556 1.419 . S
C558 C559 1.362 . S
C559 H549 0.930 . S
C559 C552 1.409 1_554 S
C559 C558 1.362 . S
H560 C566 0.930 . S
H561 C569 0.930 . S
H562 C570 0.930 . S
H563 C571 0.930 . S
H564 C574 0.930 . S
H565 C575 0.930 . S
C566 H560 0.930 . S
C566 C567 1.355 . S
C566 C568 1.415 . S
C567 C566 1.355 . S
C567 C569 1.419 . S
C568 C566 1.415 . S
C568 C573 1.425 . S
C568 C575 1.409 . S
C569 H561 0.930 . S
C569 C567 1.419 . S
C569 C570 1.362 . S
C570 H562 0.930 . S
C570 C569 1.362 . S
C570 C573 1.409 . S
C571 H563 0.930 . S
C571 C572 1.355 . S
C571 C573 1.415 . S
C572 C571 1.355 . S
C572 C574 1.419 . S
C573 C568 1.425 . S
C573 C570 1.409 . S
C573 C571 1.415 . S
C574 H564 0.930 . S
C574 C572 1.419 . S
C574 C575 1.362 . S
C575 H565 0.930 . S
C575 C568 1.409 . S
C575 C574 1.362 . S
H576 C582 0.930 . S
H577 C585 0.930 . S
H578 C586 0.930 . S
H579 C587 0.930 . S
H580 C590 0.930 . S
H581 C591 0.930 . S
C582 H576 0.930 . S
C582 C583 1.355 . S
C582 C584 1.415 . S
C583 C582 1.355 . S
C583 C585 1.419 . S
C584 C582 1.415 . S
C584 C589 1.425 1_554 S
C584 C591 1.409 1_554 S
C585 H577 0.930 . S
C585 C583 1.419 . S
C585 C586 1.362 . S
C586 H578 0.930 . S
C586 C585 1.362 . S
C586 C589 1.409 1_554 S
C587 H579 0.930 . S
C587 C588 1.355 . S
C587 C589 1.415 . S
C588 C587 1.355 . S
C588 C590 1.419 . S
C589 C584 1.425 1_556 S
C589 C586 1.409 1_556 S
C589 C587 1.415 . S
C590 H580 0.930 . S
C590 C588 1.419 . S
C590 C591 1.362 . S
C591 H581 0.930 . S
C591 C584 1.409 1_556 S
C591 C590 1.362 . S
H592 C598 0.930 . S
H593 C601 0.930 . S
H594 C602 0.930 . S
H595 C603 0.930 . S
H596 C606 0.930 . S
H597 C607 0.930 . S
C598 H592 0.930 . S
C598 C599 1.355 . S
C598 C600 1.415 . S
C599 C598 1.355 . S
C599 C601 1.419 . S
C600 C598 1.415 . S
C600 C605 1.425 . S
C600 C607 1.409 . S
C601 H593 0.930 . S
C601 C599 1.419 . S
C601 C602 1.362 . S
C602 H594 0.930 . S
C602 C601 1.362 . S
C602 C605 1.409 . S
C603 H595 0.930 . S
C603 C604 1.355 . S
C603 C605 1.415 . S
C604 C603 1.355 . S
C604 C606 1.419 . S
C605 C600 1.425 . S
C605 C602 1.409 . S
C605 C603 1.415 . S
C606 H596 0.930 . S
C606 C604 1.419 . S
C606 C607 1.362 . S
C607 H597 0.930 . S
C607 C600 1.409 . S
C607 C606 1.362 . S
H608 C614 0.930 . S
H609 C617 0.930 . S
H610 C618 0.930 . S
H611 C619 0.930 . S
H612 C622 0.930 . S
H613 C623 0.930 . S
C614 H608 0.930 . S
C614 C615 1.355 . S
C614 C616 1.415 . S
C615 C614 1.355 . S
C615 C617 1.419 . S
C616 C614 1.415 . S
C616 C621 1.425 . S
C616 C623 1.409 . S
C617 H609 0.930 . S
C617 C615 1.419 . S
C617 C618 1.362 . S
C618 H610 0.930 . S
C618 C617 1.362 . S
C618 C621 1.409 . S
C619 H611 0.930 . S
C619 C620 1.355 . S
C619 C621 1.415 . S
C620 C619 1.355 . S
C620 C622 1.419 . S
C621 C616 1.425 . S
C621 C618 1.409 . S
C621 C619 1.415 . S
C622 H612 0.930 . S
C622 C620 1.419 . S
C622 C623 1.362 . S
C623 H613 0.930 . S
C623 C616 1.409 . S
C623 C622 1.362 . S
H624 C630 0.930 . S
H625 C633 0.930 . S
H626 C634 0.930 . S
H627 C635 0.930 . S
H628 C638 0.930 . S
H629 C639 0.930 . S
C630 H624 0.930 . S
C630 C631 1.355 . S
C630 C632 1.415 . S
C631 C630 1.355 . S
C631 C633 1.419 . S
C632 C630 1.415 . S
C632 C637 1.425 . S
C632 C639 1.409 . S
C633 H625 0.930 . S
C633 C631 1.419 . S
C633 C634 1.362 . S
C634 H626 0.930 . S
C634 C633 1.362 . S
C634 C637 1.409 . S
C635 H627 0.930 . S
C635 C636 1.355 . S
C635 C637 1.415 . S
C636 C635 1.355 . S
C636 C638 1.419 . S
C637 C632 1.425 . S
C637 C634 1.409 . S
C637 C635 1.415 . S
C638 H628 0.930 . S
C638 C636 1.419 . S
C638 C639 1.362 . S
C639 H629 0.930 . S
C639 C632 1.409 . S
C639 C638 1.362 . S
H640 C646 0.930 . S
H641 C649 0.930 . S
H642 C650 0.930 . S
H643 C651 0.930 . S
H644 C654 0.930 . S
H645 C655 0.930 . S
C646 H640 0.930 . S
C646 C647 1.355 . S
C646 C648 1.415 . S
C647 C646 1.355 . S
C647 C649 1.419 . S
C648 C646 1.415 . S
C648 C653 1.425 . S
C648 C655 1.409 . S
C649 H641 0.930 . S
C649 C647 1.419 . S
C649 C650 1.362 . S
C650 H642 0.930 . S
C650 C649 1.362 . S
C650 C653 1.409 . S
C651 H643 0.930 . S
C651 C652 1.355 . S
C651 C653 1.415 . S
C652 C651 1.355 . S
C652 C654 1.419 . S
C653 C648 1.425 . S
C653 C650 1.409 . S
C653 C651 1.415 . S
C654 H644 0.930 . S
C654 C652 1.419 . S
C654 C655 1.362 . S
C655 H645 0.930 . S
C655 C648 1.409 . S
C655 C654 1.362 . S
H656 C662 0.930 . S
H657 C665 0.930 . S
H658 C666 0.930 . S
H659 C667 0.930 . S
H660 C670 0.930 . S
H661 C671 0.930 . S
C662 H656 0.930 . S
C662 C663 1.355 . S
C662 C664 1.415 . S
C663 C662 1.355 . S
C663 C665 1.419 . S
C664 C662 1.415 . S
C664 C669 1.425 . S
C664 C671 1.409 . S
C665 H657 0.930 . S
C665 C663 1.419 . S
C665 C666 1.362 . S
C666 H658 0.930 . S
C666 C665 1.362 . S
C666 C669 1.409 . S
C667 H659 0.930 . S
C667 C668 1.355 . S
C667 C669 1.415 . S
C668 C667 1.355 . S
C668 C670 1.419 . S
C669 C664 1.425 . S
C669 C666 1.409 . S
C669 C667 1.415 . S
C670 H660 0.930 . S
C670 C668 1.419 . S
C670 C671 1.362 . S
C671 H661 0.930 . S
C671 C664 1.409 . S
C671 C670 1.362 . S
H672 C678 0.930 . S
H673 C681 0.930 . S
H674 C682 0.930 . S
H675 C683 0.930 . S
H676 C686 0.930 . S
H677 C687 0.930 . S
C678 H672 0.930 . S
C678 C679 1.355 . S
C678 C680 1.415 . S
C679 C678 1.355 . S
C679 C681 1.419 . S
C680 C678 1.415 . S
C680 C685 1.425 . S
C680 C687 1.409 . S
C681 H673 0.930 . S
C681 C679 1.419 . S
C681 C682 1.362 . S
C682 H674 0.930 . S
C682 C681 1.362 . S
C682 C685 1.409 . S
C683 H675 0.930 . S
C683 C684 1.355 . S
C683 C685 1.415 . S
C684 C683 1.355 . S
C684 C686 1.419 . S
C685 C680 1.425 . S
C685 C682 1.409 . S
C685 C683 1.415 . S
C686 H676 0.930 . S
C686 C684 1.419 . S
C686 C687 1.362 . S
C687 H677 0.930 . S
C687 C680 1.409 . S
C687 C686 1.362 . S
H688 C694 0.930 . S
H689 C697 0.930 . S
H690 C698 0.930 . S
H691 C699 0.930 . S
H692 C702 0.930 . S
H693 C703 0.930 . S
C694 H688 0.930 . S
C694 C695 1.355 . S
C694 C696 1.415 . S
C695 C694 1.355 . S
C695 C697 1.419 . S
C696 C694 1.415 . S
C696 C701 1.425 . S
C696 C703 1.409 . S
C697 H689 0.930 . S
C697 C695 1.419 . S
C697 C698 1.362 . S
C698 H690 0.930 . S
C698 C697 1.362 . S
C698 C701 1.409 . S
C699 H691 0.930 . S
C699 C700 1.355 . S
C699 C701 1.415 . S
C700 C699 1.355 . S
C700 C702 1.419 . S
C701 C696 1.425 . S
C701 C698 1.409 . S
C701 C699 1.415 . S
C702 H692 0.930 . S
C702 C700 1.419 . S
C702 C703 1.362 . S
C703 H693 0.930 . S
C703 C696 1.409 . S
C703 C702 1.362 . S
H704 C710 0.930 . S
H705 C713 0.930 . S
H706 C714 0.930 . S
H707 C715 0.930 . S
H708 C718 0.930 . S
H709 C719 0.930 . S
C710 H704 0.930 . S
C710 C711 1.355 . S
C710 C712 1.415 . S
C711 C710 1.355 . S
C711 C713 1.419 . S
C712 C710 1.415 . S
C712 C717 1.425 . S
C712 C719 1.409 . S
C713 H705 0.930 . S
C713 C711 1.419 . S
C713 C714 1.362 . S
C714 H706 0.930 . S
C714 C713 1.362 . S
C714 C717 1.409 . S
C715 H707 0.930 . S
C715 C716 1.355 . S
C715 C717 1.415 . S
C716 C715 1.355 . S
C716 C718 1.419 . S
C717 C712 1.425 . S
C717 C714 1.409 . S
C717 C715 1.415 . S
C718 H708 0.930 . S
C718 C716 1.419 . S
C718 C719 1.362 . S
C719 H709 0.930 . S
C719 C712 1.409 . S
C719 C718 1.362 . S
C215 C3 1.446 . S
C220 C31 1.446 . S
C231 C42 1.428 . S
C236 C18 1.413 . S
C247 C55 1.444 . S
C252 C81 1.435 . S
C263 C96 1.447 . S
C268 C70 1.443 . S
C279 C107 1.437 . S
C284 C135 1.445 . S
C295 C146 1.389 . S
C300 C122 1.388 . S
C311 C159 1.441 . S
C316 C187 1.446 . S
C327 C200 1.388 . S
C332 C172 1.389 . S
C343 C57 1.351 . S
C348 C5 1.324 . S
C359 C16 1.327 . S
C364 C68 1.307 . S
C375 C29 1.338 . S
C380 C83 1.313 . S
C391 C94 1.368 . S
C396 C44 1.355 . S
C407 C109 1.368 . S
C412 C161 1.354 . S
C423 C120 1.336 . S
C428 C174 1.360 . S
C439 C133 1.337 . S
C444 C185 1.361 . S
C455 C148 1.305 . S
C460 C198 1.316 . S
C471 C140 1.377 . S
C476 C4 1.380 . S
C487 C147 1.397 . S
C492 C23 1.359 . S
C503 C36 1.359 . S
C508 C108 1.397 . S
C519 C43 1.394 . S
C524 C127 1.363 . S
C535 C56 1.361 . S
C540 C192 1.395 . S
C551 C75 1.360 . S
C556 C205 1.396 . S
C567 C82 1.397 . S
C572 C160 1.359 . S
C583 C173 1.361 . S
C588 C101 1.395 . S
C599 C10 1.358 . S
C604 C199 1.336 . S
C615 C166 1.358 . S
C620 C17 1.336 . S
C631 C30 1.334 . S
C636 C179 1.359 . S
C647 C186 1.336 . S
C652 C49 1.357 . S
C663 C121 1.351 . S
C668 C62 1.342 . S
C679 C69 1.346 . S
C684 C134 1.347 . S
C695 C153 1.339 . S
C700 C88 1.355 . S
C711 C114 1.357 . S
C716 C95 1.336 . S
