# Generated by pormake.
# Topology hjm, (4)-cn, num edge types: 1
# Building blocks:
#     Node 0, Type 0, BuildingBlock: KUFVIS_clean_sbu_0, # of connection points: 4
#     Node 1, Type 0, BuildingBlock: KUFVIS_clean_sbu_0, # of connection points: 4
#     Node 2, Type 0, BuildingBlock: KUFVIS_clean_sbu_0, # of connection points: 4
#     Node 3, Type 0, BuildingBlock: KUFVIS_clean_sbu_0, # of connection points: 4
#     Node 4, Type 0, BuildingBlock: KUFVIS_clean_sbu_0, # of connection points: 4
#     Node 5, Type 0, BuildingBlock: KUFVIS_clean_sbu_0, # of connection points: 4
#     Node 6, Type 0, BuildingBlock: KUFVIS_clean_sbu_0, # of connection points: 4
#     Node 7, Type 0, BuildingBlock: KUFVIS_clean_sbu_0, # of connection points: 4
#     Edge 8, Type (0, 0), BuildingBlock: EZIPEK_clean_linker_0, # of connection points: 2
#     Edge 9, Type (0, 0), BuildingBlock: EZIPEK_clean_linker_0, # of connection points: 2
#     Edge 10, Type (0, 0), BuildingBlock: EZIPEK_clean_linker_0, # of connection points: 2
#     Edge 11, Type (0, 0), BuildingBlock: EZIPEK_clean_linker_0, # of connection points: 2
#     Edge 12, Type (0, 0), BuildingBlock: EZIPEK_clean_linker_0, # of connection points: 2
#     Edge 13, Type (0, 0), BuildingBlock: EZIPEK_clean_linker_0, # of connection points: 2
#     Edge 14, Type (0, 0), BuildingBlock: EZIPEK_clean_linker_0, # of connection points: 2
#     Edge 15, Type (0, 0), BuildingBlock: EZIPEK_clean_linker_0, # of connection points: 2
#     Edge 16, Type (0, 0), BuildingBlock: EZIPEK_clean_linker_0, # of connection points: 2
#     Edge 17, Type (0, 0), BuildingBlock: EZIPEK_clean_linker_0, # of connection points: 2
#     Edge 18, Type (0, 0), BuildingBlock: EZIPEK_clean_linker_0, # of connection points: 2
#     Edge 19, Type (0, 0), BuildingBlock: EZIPEK_clean_linker_0, # of connection points: 2
#     Edge 20, Type (0, 0), BuildingBlock: EZIPEK_clean_linker_0, # of connection points: 2
#     Edge 21, Type (0, 0), BuildingBlock: EZIPEK_clean_linker_0, # of connection points: 2
#     Edge 22, Type (0, 0), BuildingBlock: EZIPEK_clean_linker_0, # of connection points: 2
#     Edge 23, Type (0, 0), BuildingBlock: EZIPEK_clean_linker_0, # of connection points: 2
# Relax obj value: 0.063
# Max RMSD: 0.107
# Mean RMSD: 0.106
data_MOF--net-hjm--node1-KUFVIS_clean_sbu_0--edge1-EZIPEK_clean_linker_0
_symmetry_space_group_name_H-M    P1
_symmetry_Int_Tables_number       1
_symmetry_cell_setting            triclinic
loop_
_symmetry_equiv_pos_as_xyz
'x, y, z'
_cell_length_a     20.390491
_cell_length_b     18.125079
_cell_length_c     19.067721
_cell_angle_alpha  90.683826
_cell_angle_beta   56.100989
_cell_angle_gamma 89.673663
loop_
_atom_site_label
_atom_site_type_symbol
_atom_site_fract_x
_atom_site_fract_y
_atom_site_fract_z
_atom_type_partial_charge
Mn0 Mn 0.16164 0.22323 0.32629 0.0
Mn1 Mn 0.25952 0.36463 0.20073 0.0
C2 C 0.11972 0.34351 0.39513 0.0
C3 C 0.07015 0.11506 0.39704 0.0
C4 C 0.34602 0.2594 0.24275 0.0
O5 O 0.17889 0.19812 0.20651 0.0
O6 O 0.23546 0.29997 0.1348 0.0
C7 C 0.18719 0.44665 0.13038 0.0
N8 N 0.20069 0.43914 0.19222 0.0
C9 C 0.16134 0.56225 0.23759 0.0
C10 C 0.13644 0.56947 0.18314 0.0
C11 C 0.15503 0.51245 0.12437 0.0
C12 C 0.19977 0.49851 0.23445 0.0
H13 H 0.20735 0.40555 0.08154 0.0
C14 C 0.2024 0.2391 0.14155 0.0
O15 O 0.14439 0.11662 0.36449 0.0
O16 O 0.04645 0.17805 0.38613 0.0
N17 N 0.28272 0.43313 0.25909 0.0
C18 C 0.33566 0.42878 0.28117 0.0
C19 C 0.34814 0.48894 0.31696 0.0
C20 C 0.31081 0.55503 0.3238 0.0
C21 C 0.25367 0.55906 0.30408 0.0
C22 C 0.24504 0.49649 0.26727 0.0
H23 H 0.37383 0.38327 0.26615 0.0
O24 O 0.1197 0.28468 0.43358 0.0
O25 O 0.15572 0.33196 0.31269 0.0
O26 O 0.28084 0.22933 0.3008 0.0
O27 O 0.34272 0.29706 0.18939 0.0
C28 C 0.19834 0.61722 0.32569 0.0
C29 C 0.14944 0.61508 0.29598 0.0
H30 H 0.11059 0.62093 0.18108 0.0
H31 H 0.14844 0.51937 0.07256 0.0
H32 H 0.39117 0.48594 0.3333 0.0
H33 H 0.33094 0.60052 0.34225 0.0
H34 H 0.18599 0.66092 0.36966 0.0
H35 H 0.09887 0.64988 0.32244 0.0
Mn36 Mn 0.84283 0.23442 0.16635 0.0
Mn37 Mn 0.72869 0.37977 0.28532 0.0
C38 C 0.88528 0.35757 0.11001 0.0
C39 C 0.94522 0.13372 0.10349 0.0
C40 C 0.66238 0.26845 0.22337 0.0
O41 O 0.82052 0.22754 0.29184 0.0
O42 O 0.73392 0.31899 0.36904 0.0
C43 C 0.7781 0.46695 0.37679 0.0
N44 N 0.77505 0.45702 0.30784 0.0
C45 C 0.8284 0.57467 0.25593 0.0
C46 C 0.84579 0.5803 0.3176 0.0
C47 C 0.81626 0.52837 0.38151 0.0
C48 C 0.78868 0.51277 0.25649 0.0
H49 H 0.75124 0.42866 0.42786 0.0
C50 C 0.77942 0.26607 0.36181 0.0
O51 O 0.87621 0.12869 0.1179 0.0
O52 O 0.9568 0.19718 0.12679 0.0
N53 N 0.73065 0.44095 0.20379 0.0
C54 C 0.71466 0.42509 0.14444 0.0
C55 C 0.7328 0.47547 0.08211 0.0
C56 C 0.76683 0.54153 0.08137 0.0
C57 C 0.78518 0.55604 0.1402 0.0
C58 C 0.76639 0.50393 0.20079 0.0
H59 H 0.68914 0.37515 0.14199 0.0
O60 O 0.90156 0.29955 0.06309 0.0
O61 O 0.83765 0.34235 0.1899 0.0
O62 O 0.73185 0.23946 0.17107 0.0
O63 O 0.65612 0.31056 0.27945 0.0
C64 C 0.82648 0.61782 0.13718 0.0
C65 C 0.85161 0.62505 0.19135 0.0
H66 H 0.88085 0.62367 0.31785 0.0
H67 H 0.82359 0.53509 0.4332 0.0
H68 H 0.72121 0.46347 0.03435 0.0
H69 H 0.77786 0.5808 0.03525 0.0
H70 H 0.84009 0.6594 0.09253 0.0
H71 H 0.89214 0.66724 0.17871 0.0
Mn72 Mn 0.76767 0.71417 0.68872 0.0
Mn73 Mn 0.91369 0.73024 0.70656 0.0
C74 C 0.74091 0.74636 0.82502 0.0
C75 C 0.66337 0.65049 0.70443 0.0
C76 C 0.89463 0.83651 0.59583 0.0
O77 O 0.85295 0.6376 0.59536 0.0
O78 O 0.93539 0.63598 0.63786 0.0
C79 C 0.89234 0.60374 0.81143 0.0
N80 N 0.90191 0.67724 0.79713 0.0
C81 C 0.90894 0.69997 0.91634 0.0
C82 C 0.90932 0.62333 0.92581 0.0
C83 C 0.89587 0.57529 0.87685 0.0
C84 C 0.90517 0.72457 0.85011 0.0
H85 H 0.88606 0.56718 0.77075 0.0
C86 C 0.90973 0.60601 0.59632 0.0
O87 O 0.69419 0.70495 0.65266 0.0
O88 O 0.69864 0.62798 0.73942 0.0
N89 N 0.89218 0.81655 0.77591 0.0
C90 C 0.86357 0.8851 0.77644 0.0
C91 C 0.86716 0.94218 0.82439 0.0
C92 C 0.89192 0.92613 0.8779 0.0
C93 C 0.90384 0.85215 0.88921 0.0
C94 C 0.90284 0.79865 0.83686 0.0
H95 H 0.8423 0.89755 0.73745 0.0
O96 O 0.69352 0.76853 0.80422 0.0
O97 O 0.80312 0.71389 0.7622 0.0
O98 O 0.82316 0.81632 0.62796 0.0
O99 O 0.9374 0.79429 0.60837 0.0
C100 C 0.91081 0.82898 0.95432 0.0
C101 C 0.91417 0.75309 0.96763 0.0
H102 H 0.91844 0.5997 0.97122 0.0
H103 H 0.89189 0.51653 0.88705 0.0
H104 H 0.84957 -0.00229 0.82118 0.0
H105 H 0.89347 0.9697 0.91632 0.0
H106 H 0.91217 0.8696 0.99541 0.0
H107 H 0.92399 0.73741 0.01544 0.0
Mn108 Mn 0.22375 0.72471 0.84561 0.0
Mn109 Mn 0.07045 0.73653 0.83077 0.0
C110 C 0.24429 0.75448 0.71216 0.0
C111 C 0.33515 0.66977 0.82978 0.0
C112 C 0.10128 0.85163 0.92913 0.0
O113 O 0.14193 0.65248 0.94084 0.0
O114 O 0.05215 0.65301 0.90823 0.0
C115 C 0.06906 0.59451 0.75371 0.0
N116 N 0.07557 0.66902 0.75044 0.0
C117 C 0.08016 0.67131 0.62246 0.0
C118 C 0.07094 0.59459 0.62651 0.0
C119 C 0.06754 0.55554 0.69104 0.0
C120 C 0.08266 0.70638 0.68612 0.0
H121 H 0.05918 0.56623 0.8068 0.0
C122 C 0.08129 0.62404 0.94629 0.0
O123 O 0.29365 0.72014 0.88601 0.0
O124 O 0.30364 0.64301 0.79217 0.0
N125 N 0.08827 0.81109 0.75298 0.0
C126 C 0.096 0.8849 0.75842 0.0
C127 C 0.12625 0.92752 0.68657 0.0
C128 C 0.14117 0.89418 0.61246 0.0
C129 C 0.11635 0.82174 0.6142 0.0
C130 C 0.09448 0.78072 0.68489 0.0
H131 H 0.07857 0.91078 0.81696 0.0
O132 O 0.29282 0.7767 0.73143 0.0
O133 O 0.18347 0.72221 0.77465 0.0
O134 O 0.16834 0.82527 0.90658 0.0
O135 O 0.05774 0.81522 0.91343 0.0
C136 C 0.11019 0.78885 0.55085 0.0
C137 C 0.0896 0.71407 0.55643 0.0
H138 H 0.06674 0.56513 0.58029 0.0
H139 H 0.06017 0.49632 0.69461 0.0
H140 H 0.138 -0.01453 0.68814 0.0
H141 H 0.16841 0.92646 0.55671 0.0
H142 H 0.11761 0.82098 0.49975 0.0
H143 H 0.08468 0.68893 0.50799 0.0
Mn144 Mn 0.65206 0.7189 0.35398 0.0
Mn145 Mn 0.7535 0.85508 0.23524 0.0
C146 C 0.60719 0.84126 0.42375 0.0
C147 C 0.55479 0.6197 0.42082 0.0
C148 C 0.83238 0.75931 0.29241 0.0
O149 O 0.67155 0.69771 0.22812 0.0
O150 O 0.75493 0.78487 0.15753 0.0
C151 C 0.63171 0.90517 0.20771 0.0
N152 N 0.6885 0.91785 0.22277 0.0
C153 C 0.67954 0.04512 0.21164 0.0
C154 C 0.63544 0.03415 0.17755 0.0
C155 C 0.61344 0.96244 0.17278 0.0
C156 C 0.71237 -0.01468 0.22464 0.0
H157 H 0.6106 0.85044 0.20959 0.0
C158 C 0.70704 0.73988 0.16174 0.0
O159 O 0.62768 0.6131 0.39555 0.0
O160 O 0.53731 0.68321 0.40398 0.0
N161 N 0.76906 0.93189 0.28811 0.0
C162 C 0.80815 0.93268 0.32691 0.0
C163 C 0.84095 -0.0021 0.32993 0.0
C164 C 0.82665 0.06244 0.301 0.0
C165 C 0.77459 0.06136 0.2745 0.0
C166 C 0.75786 -0.00723 0.25677 0.0
H167 H 0.81724 0.88431 0.35226 0.0
O168 O 0.60394 0.78225 0.46316 0.0
O169 O 0.64727 0.82679 0.3419 0.0
O170 O 0.76714 0.72419 0.34104 0.0
O171 O 0.83514 0.79805 0.23695 0.0
C172 C 0.72712 0.12054 0.27838 0.0
C173 C 0.67833 0.11008 0.24937 0.0
H174 H 0.61869 0.08105 0.15661 0.0
H175 H 0.58928 0.95016 0.13662 0.0
H176 H 0.88204 -0.00347 0.34815 0.0
H177 H 0.85312 0.11166 0.30528 0.0
H178 H 0.71509 0.16973 0.31485 0.0
H179 H 0.62958 0.14565 0.2691 0.0
Mn180 Mn 0.32291 0.73249 0.19456 0.0
Mn181 Mn 0.22406 0.87436 0.32695 0.0
C182 C 0.36257 0.85286 0.13322 0.0
C183 C 0.41148 0.62233 0.11986 0.0
C184 C 0.14274 0.77449 0.28041 0.0
O185 O 0.306 0.71236 0.31611 0.0
O186 O 0.25616 0.81815 0.38933 0.0
C187 C 0.30712 0.97058 0.37484 0.0
N188 N 0.28449 0.95314 0.32197 0.0
C189 C 0.33166 0.06511 0.24833 0.0
C190 C 0.36161 0.08223 0.29745 0.0
C191 C 0.34566 0.03668 0.36384 0.0
C192 C 0.28909 0.00124 0.26677 0.0
H193 H 0.29193 0.93621 0.42725 0.0
C194 C 0.28627 0.75481 0.381 0.0
O195 O 0.33809 0.62662 0.14855 0.0
O196 O 0.43607 0.68193 0.1365 0.0
N197 N 0.19238 0.93271 0.2714 0.0
C198 C 0.11878 0.93707 0.28721 0.0
C199 C 0.10135 -0.00758 0.25083 0.0
C200 C 0.1595 0.0427 0.19949 0.0
C201 C 0.23279 0.04122 0.19177 0.0
C202 C 0.24202 -0.01135 0.23717 0.0
H203 H 0.07132 0.90386 0.33467 0.0
O204 O 0.36887 0.79432 0.08978 0.0
O205 O 0.32616 0.83909 0.21439 0.0
O206 O 0.20783 0.74855 0.21663 0.0
O207 O 0.14604 0.79915 0.34109 0.0
C208 C 0.29231 0.09413 0.15273 0.0
C209 C 0.34225 0.10607 0.18088 0.0
H210 H 0.39669 0.12922 0.28612 0.0
H211 H 0.36331 0.05166 0.40568 0.0
H212 H 0.04135 0.00083 0.27002 0.0
H213 H 0.13936 0.08738 0.1797 0.0
H214 H 0.29748 0.12869 0.10547 0.0
H215 H 0.38753 0.14637 0.15071 0.0
Mn216 Mn 0.26 0.22627 0.67926 0.0
Mn217 Mn 0.40806 0.23193 0.70554 0.0
C218 C 0.23682 0.2536 0.81629 0.0
C219 C 0.14898 0.17758 0.68978 0.0
C220 C 0.38772 0.34582 0.59933 0.0
O221 O 0.34229 0.14689 0.58674 0.0
O222 O 0.42433 0.14409 0.63023 0.0
C223 C 0.4053 0.09262 0.78522 0.0
N224 N 0.39927 0.16734 0.78819 0.0
C225 C 0.39598 0.17306 0.91573 0.0
C226 C 0.40033 0.09587 0.91473 0.0
C227 C 0.40359 0.05551 0.84977 0.0
C228 C 0.39527 0.20679 0.85092 0.0
H229 H 0.41323 0.06181 0.73314 0.0
C230 C 0.39797 0.11424 0.58926 0.0
O231 O 0.18793 0.23057 0.63901 0.0
O232 O 0.17976 0.14761 0.72625 0.0
N233 N 0.38738 0.30981 0.78511 0.0
C234 C 0.36633 0.38168 0.78706 0.0
C235 C 0.345 0.42711 0.85714 0.0
C236 C 0.34912 0.39935 0.9225 0.0
C237 C 0.3714 0.32583 0.91899 0.0
C238 C 0.38662 0.28186 0.85066 0.0
H239 H 0.36325 0.40362 0.73727 0.0
O240 O 0.19078 0.28042 0.79583 0.0
O241 O 0.29724 0.22025 0.75356 0.0
O242 O 0.32078 0.32244 0.61964 0.0
O243 O 0.42849 0.30881 0.61936 0.0
C244 C 0.3787 0.29426 0.98095 0.0
C245 C 0.39192 0.2179 0.9787 0.0
H246 H 0.39796 0.06734 0.96539 0.0
H247 H 0.40576 -0.00375 0.84791 0.0
H248 H 0.32457 0.48318 0.86196 0.0
H249 H 0.33576 0.43511 0.97479 0.0
H250 H 0.37553 0.32846 0.02974 0.0
H251 H 0.39963 0.1943 0.02507 0.0
Mn252 Mn 0.70901 0.2167 0.83023 0.0
Mn253 Mn 0.56118 0.21836 0.80788 0.0
C254 C 0.7317 0.25278 0.69839 0.0
C255 C 0.82345 0.16232 0.80513 0.0
C256 C 0.5769 0.34074 0.91431 0.0
O257 O 0.63239 0.13825 0.92292 0.0
O258 O 0.54121 0.13868 0.89331 0.0
C259 C 0.58544 0.07041 0.73273 0.0
N260 N 0.57327 0.14362 0.73114 0.0
C261 C 0.572 0.1285 0.60748 0.0
C262 C 0.57585 0.05172 0.61347 0.0
C263 C 0.58493 0.02241 0.67511 0.0
C264 C 0.57031 0.1729 0.66867 0.0
H265 H 0.59704 0.05065 0.7765 0.0
C266 C 0.57032 0.10954 0.93175 0.0
O267 O 0.78679 0.21482 0.86134 0.0
O268 O 0.78798 0.13515 0.77215 0.0
N269 N 0.57771 0.28558 0.72251 0.0
C270 C 0.60532 0.35571 0.70813 0.0
C271 C 0.61638 0.39402 0.63905 0.0
C272 C 0.60576 0.35782 0.58089 0.0
C273 C 0.58748 0.28277 0.59099 0.0
C274 C 0.57361 0.24856 0.66323 0.0
H275 H 0.62358 0.38052 0.74622 0.0
O276 O 0.77567 0.27657 0.72264 0.0
O277 O 0.67378 0.21284 0.75515 0.0
O278 O 0.64327 0.31451 0.89687 0.0
O279 O 0.5406 0.30426 0.88811 0.0
C280 C 0.58978 0.23876 0.52863 0.0
C281 C 0.57642 0.16305 0.5396 0.0
H282 H 0.57456 0.01468 0.57007 0.0
H283 H 0.59228 0.96353 0.67766 0.0
H284 H 0.63846 0.44941 0.62768 0.0
H285 H 0.61705 0.38678 0.52601 0.0
H286 H 0.60994 0.25979 0.46786 0.0
H287 H 0.57835 0.13144 0.49036 0.0
C288 C 0.94305 0.02729 0.46451 0.0
C289 C 0.01866 0.04645 0.44869 0.0
C290 C -0.00331 0.94298 0.54305 0.0
C291 C 0.93136 0.91165 0.54641 0.0
N292 N 0.8369 0.93599 0.51085 0.0
N293 N 0.12243 -0.00534 0.46059 0.0
C294 C 0.90265 0.9577 0.5072 0.0
C295 C 0.04658 -0.00407 0.48294 0.0
N296 N 0.91043 0.07432 0.43692 0.0
N297 N 0.007 0.93284 0.60627 0.0
H298 H 0.16255 0.03688 0.43597 0.0
H299 H 0.14548 0.94551 0.46585 0.0
H300 H 0.98812 0.88757 0.64398 0.0
H301 H 0.03414 0.97348 0.62058 0.0
H302 H 0.85394 0.06892 0.45163 0.0
H303 H 0.93897 0.11995 0.40016 0.0
H304 H 0.81038 0.96493 0.48625 0.0
H305 H 0.80816 0.88709 0.53797 0.0
C306 C 0.01406 0.93689 0.05858 0.0
C307 C 0.07285 0.92886 0.97181 0.0
C308 C 0.05958 0.06636 0.9691 0.0
C309 C 0.00601 0.07047 0.05776 0.0
N310 N 0.98749 0.00957 0.1765 0.0
N311 N 0.1581 -0.00704 0.84267 0.0
C312 C -0.00115 0.00596 0.10001 0.0
C313 C 0.09867 -0.00365 0.92621 0.0
N314 N 0.96364 0.8823 0.10149 0.0
N315 N 0.07679 0.13063 0.92777 0.0
H316 H 0.19104 0.94467 0.81388 0.0
H317 H 0.17386 0.03634 0.80163 0.0
H318 H 0.05457 0.18136 0.95929 0.0
H319 H 0.11716 0.13415 0.86426 0.0
H320 H 0.91829 0.89187 0.16411 0.0
H321 H 0.96079 0.83555 0.07128 0.0
H322 H 0.98807 0.96111 0.20528 0.0
H323 H 0.98664 0.06028 0.20376 0.0
C324 C 0.38652 0.4899 0.58908 0.0
C325 C 0.42003 0.4194 0.55112 0.0
C326 C 0.52119 0.48594 0.42351 0.0
C327 C 0.49808 0.55521 0.46372 0.0
N328 N 0.40635 0.62435 0.58844 0.0
N329 N 0.53919 0.36112 0.44285 0.0
C330 C 0.42936 0.55768 0.54793 0.0
C331 C 0.4918 0.4207 0.47096 0.0
N332 N 0.31702 0.4913 0.6666 0.0
N333 N 0.56973 0.48092 0.33796 0.0
H334 H 0.51833 0.31079 0.47072 0.0
H335 H 0.59983 0.36874 0.40551 0.0
H336 H 0.59066 0.52737 0.29987 0.0
H337 H 0.57883 0.4304 0.30688 0.0
H338 H 0.29414 0.53719 0.70611 0.0
H339 H 0.28276 0.44457 0.69363 0.0
H340 H 0.35826 0.63184 0.64947 0.0
H341 H 0.43596 0.67294 0.56018 0.0
C342 C 0.45943 0.53335 0.99383 0.0
C343 C 0.46226 0.55508 0.06391 0.0
C344 C 0.54229 0.43895 0.03747 0.0
C345 C 0.53881 0.4159 0.96672 0.0
N346 N 0.50378 0.45745 0.87147 0.0
N347 N 0.49726 0.52177 0.15978 0.0
C348 C 0.49957 0.46766 0.94438 0.0
C349 C 0.50157 0.50583 0.0872 0.0
N350 N 0.41369 0.57369 0.97597 0.0
N351 N 0.58669 0.39851 0.05652 0.0
H352 H 0.47414 0.57168 0.19276 0.0
H353 H 0.51505 0.48645 0.18888 0.0
H354 H 0.62173 0.35403 0.02052 0.0
H355 H 0.59356 0.4108 0.10526 0.0
H356 H 0.39655 0.55456 0.93685 0.0
H357 H 0.39069 0.62596 1.00155 0.0
H358 H 0.49842 0.50015 0.83881 0.0
H359 H 0.50454 0.40568 0.84871 0.0
C360 C 0.97679 0.44061 0.98374 0.0
C361 C 0.93812 0.42662 0.07191 0.0
C362 C 0.00966 0.53675 0.0769 0.0
C363 C 0.0453 0.54982 0.98986 0.0
N364 N 0.10158 0.47919 0.86161 0.0
N365 N 0.95035 0.44762 0.18999 0.0
C366 C 0.04034 0.49153 0.94315 0.0
C367 C 0.9639 0.47077 0.1153 0.0
N368 N 0.95306 0.40686 0.93734 0.0
N369 N 0.022 0.58584 0.12246 0.0
H370 H 0.92427 0.39754 0.21625 0.0
H371 H 0.97448 0.47276 0.21991 0.0
H372 H 0.06406 0.62663 0.0931 0.0
H373 H -0.00563 0.58384 0.18742 0.0
H374 H 0.97981 0.41732 0.87327 0.0
H375 H 0.90135 0.37654 0.96447 0.0
H376 H 0.10463 0.43305 0.82655 0.0
H377 H 0.15137 0.51262 0.83259 0.0
C378 C 0.07356 0.48035 0.43267 0.0
C379 C 0.05503 0.40557 0.44761 0.0
C380 C 0.9373 0.4607 0.58418 0.0
C381 C 0.95063 0.53265 0.54729 0.0
N382 N 0.98792 0.55182 0.40821 0.0
N383 N 0.95666 0.32648 0.55656 0.0
C384 C 0.00978 0.53179 0.46068 0.0
C385 C 0.98297 0.39587 0.53035 0.0
N386 N 0.12874 0.50242 0.44644 0.0
N387 N 0.88067 0.45352 0.6679 0.0
H388 H 0.98042 0.2811 0.51546 0.0
H389 H 0.90678 0.31533 0.61553 0.0
H390 H 0.84288 0.49734 0.70419 0.0
H391 H 0.87303 0.40526 0.70061 0.0
H392 H 0.16637 0.46592 0.45055 0.0
H393 H 0.16637 0.46592 0.45055 0.0
H394 H 0.93682 0.58344 0.43001 0.0
H395 H 0.0161 0.5298 0.34719 0.0
C396 C 0.50474 0.02563 0.06964 0.0
C397 C 0.52998 0.03754 0.9842 0.0
C398 C 0.44613 0.93229 0.99971 0.0
C399 C 0.41888 0.91896 0.08515 0.0
N400 N 0.45147 0.93832 0.1868 0.0
N401 N 0.56984 0.95345 0.86902 0.0
C402 C 0.45757 0.96107 0.11564 0.0
C403 C 0.51324 -0.02229 0.94815 0.0
N404 N 0.52797 0.07399 0.10596 0.0
N405 N 0.40966 0.90126 0.96539 0.0
H406 H 0.62707 0.97421 0.8379 0.0
H407 H 0.56297 0.90623 0.84191 0.0
H408 H 0.3546 0.87646 1.00174 0.0
H409 H 0.43198 0.90731 0.90171 0.0
H410 H 0.50607 0.07413 0.16965 0.0
H411 H 0.56964 0.11401 0.07128 0.0
H412 H 0.46644 0.97022 0.22114 0.0
H413 H 0.43369 0.88558 0.21057 0.0
C414 C 0.47454 0.90606 0.55833 0.0
C415 C 0.543 0.90653 0.47153 0.0
C416 C 0.49138 0.02722 0.46168 0.0
C417 C 0.43391 0.03632 0.54849 0.0
N418 N 0.36211 0.97406 0.68037 0.0
N419 N 0.62154 0.01117 0.41387 0.0
C420 C 0.42421 0.97279 0.59775 0.0
C421 C 0.55522 -0.02324 0.43459 0.0
N422 N 0.45763 0.84356 0.6041 0.0
N423 N 0.49189 0.07305 0.40621 0.0
H424 H 0.66049 -0.01102 0.42749 0.0
H425 H 0.66049 -0.01102 0.42749 0.0
H426 H 0.44639 0.1113 0.42588 0.0
H427 H 0.52972 0.06331 0.34175 0.0
H428 H 0.41999 0.84204 0.66938 0.0
H429 H 0.47942 0.79174 0.57706 0.0
H430 H 0.34956 0.93301 0.72355 0.0
H431 H 0.32149 0.01796 0.70576 0.0
C432 C 0.33057 0.79573 0.47585 0.0
C433 C 0.29979 0.73803 0.45158 0.0
C434 C 0.2616 0.67868 0.58624 0.0
C435 C 0.26918 0.74674 0.61975 0.0
N436 N 0.30541 0.8742 0.59153 0.0
N437 N 0.23737 0.62003 0.48926 0.0
C438 C 0.30414 0.80582 0.56244 0.0
C439 C 0.2688 0.67684 0.50686 0.0
N440 N 0.38647 0.84063 0.41551 0.0
N441 N 0.24123 0.61656 0.6329 0.0
H442 H 0.21434 0.62914 0.454 0.0
H443 H 0.22451 0.56835 0.51647 0.0
H444 H 0.22596 0.61673 0.69452 0.0
H445 H 0.24299 0.56384 0.6099 0.0
H446 H 0.41517 0.88038 0.42868 0.0
H447 H 0.40829 0.83294 0.35163 0.0
H448 H 0.32172 0.92065 0.55375 0.0
H449 H 0.28027 0.88523 0.65544 0.0
C450 C 0.70217 0.6774 0.96359 0.0
C451 C 0.7171 0.74404 0.91764 0.0
C452 C 0.71633 0.80818 0.03202 0.0
C453 C 0.70156 0.74136 0.0813 0.0
N454 N 0.63796 0.62498 0.10395 0.0
N455 N 0.68953 0.87391 0.93956 0.0
C456 C 0.6809 0.67988 0.05046 0.0
C457 C 0.70618 0.80945 0.96329 0.0
N458 N 0.70529 0.61178 0.92612 0.0
N459 N 0.74531 0.87106 0.04408 0.0
H460 H 0.68499 0.87713 0.88791 0.0
H461 H 0.6716 0.92196 0.97674 0.0
H462 H 0.77263 0.87567 0.07583 0.0
H463 H 0.75084 0.92016 0.01367 0.0
H464 H 0.70258 0.56096 0.95249 0.0
H465 H 0.71612 0.60848 0.8659 0.0
H466 H 0.62365 0.57859 0.08334 0.0
H467 H 0.61533 0.62723 0.16822 0.0
C468 C 0.7608 0.18989 0.48948 0.0
C469 C 0.78582 0.25421 0.43875 0.0
C470 C 0.79041 0.31619 0.55308 0.0
C471 C 0.75993 0.25282 0.60506 0.0
N472 N 0.74988 0.1208 0.60305 0.0
N473 N 0.86847 0.35904 0.40878 0.0
C474 C 0.75784 0.18698 0.56593 0.0
C475 C 0.81389 0.31183 0.46654 0.0
N476 N 0.73486 0.13056 0.46974 0.0
N477 N 0.79347 0.38192 0.58638 0.0
H478 H 0.89064 0.35326 0.34474 0.0
H479 H 0.89669 0.39791 0.42361 0.0
H480 H 0.77379 0.38832 0.64962 0.0
H481 H 0.80844 0.43086 0.55281 0.0
H482 H 0.72109 0.13276 0.42517 0.0
H483 H 0.72109 0.13276 0.42517 0.0
H484 H 0.74233 0.07151 0.57984 0.0
H485 H 0.75531 0.11473 0.65388 0.0
C486 C 0.21245 0.16482 0.01484 0.0
C487 C 0.18577 0.22571 0.07223 0.0
C488 C 0.17422 0.2987 0.97045 0.0
C489 C 0.21119 0.24188 0.90791 0.0
N490 N 0.23673 0.11068 0.88436 0.0
N491 N 0.09392 0.32593 0.12076 0.0
C492 C 0.22014 0.17124 0.93508 0.0
C493 C 0.15174 0.28486 0.05487 0.0
N494 N 0.23006 0.10157 0.03785 0.0
N495 N 0.16392 0.36734 0.94938 0.0
H496 H 0.07412 0.31547 0.18335 0.0
H497 H 0.06279 0.36555 0.11175 0.0
H498 H 0.18298 0.38079 0.88794 0.0
H499 H 0.14389 0.41229 0.99128 0.0
H500 H 0.24663 0.05133 1.00497 0.0
H501 H 0.24663 0.05133 1.00497 0.0
H502 H 0.23905 0.05668 0.90025 0.0
H503 H 0.24465 0.11308 0.82581 0.0
C504 C 0.43253 0.26369 0.30852 0.0
C505 C 0.42884 0.25498 0.23593 0.0
C506 C 0.58101 0.24744 0.15111 0.0
C507 C 0.58323 0.25557 0.22461 0.0
N508 N 0.5029 0.23928 0.37457 0.0
N509 N 0.5073 0.24415 0.08421 0.0
C510 C 0.5065 0.25534 0.30315 0.0
C511 C 0.50556 0.24814 0.15652 0.0
N512 N 0.36524 0.2836 0.38409 0.0
N513 N 0.65155 0.23761 0.07508 0.0
H514 H 0.55806 0.24054 0.02439 0.0
H515 H 0.45779 0.24515 0.08217 0.0
H516 H 0.70596 0.24107 0.06748 0.0
H517 H 0.65813 0.22342 0.01869 0.0
H518 H 0.36528 0.30092 0.43638 0.0
H519 H 0.31077 0.29129 0.39216 0.0
H520 H 0.4501 0.23383 0.43341 0.0
H521 H 0.55256 0.22349 0.37371 0.0
C522 C 0.55244 0.60565 0.6958 0.0
C523 C 0.57977 0.63488 0.74362 0.0
C524 C 0.45412 0.69526 0.83636 0.0
C525 C 0.4195 0.65479 0.80047 0.0
N526 N 0.44081 0.54958 0.70861 0.0
N527 N 0.54496 0.68936 0.87743 0.0
C528 C 0.46988 0.60324 0.73365 0.0
C529 C 0.52571 0.67064 0.82163 0.0
N530 N 0.60416 0.58142 0.61458 0.0
N531 N 0.42791 0.76221 0.87553 0.0
H532 H 0.59337 0.66641 0.87437 0.0
H533 H 0.50639 0.72008 0.93256 0.0
H534 H 0.38809 0.7962 0.87284 0.0
H535 H 0.38809 0.7962 0.87284 0.0
H536 H 0.58561 0.56567 0.57551 0.0
H537 H 0.66526 0.58073 0.58578 0.0
H538 H 0.47687 0.50853 0.66457 0.0
H539 H 0.38113 0.53966 0.74054 0.0
C540 C 0.98578 0.75486 0.36363 0.0
C541 C 0.06131 0.76944 0.2866 0.0
C542 C 0.98776 0.76464 0.21629 0.0
C543 C 0.91092 0.75724 0.29311 0.0
N544 N 0.84034 0.75397 0.44401 0.0
N545 N 0.12174 0.81158 0.14448 0.0
C546 C 0.91138 0.75493 0.36788 0.0
C547 C 0.05843 0.78067 0.21451 0.0
N548 N 0.98462 0.73772 0.43343 0.0
N549 N -0.0064 0.75144 0.14311 0.0
H550 H 0.17249 0.82745 0.141 0.0
H551 H 0.11973 0.83072 0.09439 0.0
H552 H 0.0466 0.7502 0.08355 0.0
H553 H 0.0466 0.7502 0.08355 0.0
H554 H 0.93495 0.71899 0.48786 0.0
H555 H 0.03445 0.73488 0.43519 0.0
H556 H 0.83373 0.75674 0.50196 0.0
H557 H 0.78646 0.75551 0.44992 0.0
C558 C 0.00427 0.17052 0.80277 0.0
C559 C 0.06672 0.16198 0.71661 0.0
C560 C 0.96764 0.14646 0.68307 0.0
C561 C 0.90715 0.14432 0.77162 0.0
N562 N 0.87488 0.13089 0.91311 0.0
N563 N 0.10871 0.13883 0.57324 0.0
C564 C 0.92848 0.14643 0.83013 0.0
C565 C 0.04862 0.14799 0.65622 0.0
N566 N 0.01287 0.21342 0.85595 0.0
N567 N 0.94871 0.15191 0.62497 0.0
H568 H 0.16806 0.13605 0.55249 0.0
H569 H 0.09994 0.13104 0.52524 0.0
H570 H 0.89218 0.14782 0.63825 0.0
H571 H 0.9893 0.16581 0.56259 0.0
H572 H 0.96556 0.22721 0.91709 0.0
H573 H 0.06405 0.24254 0.83528 0.0
H574 H 0.89041 0.12952 0.95682 0.0
H575 H 0.81825 0.11219 0.93516 0.0
loop_
_geom_bond_atom_site_label_1
_geom_bond_atom_site_label_2
_geom_bond_distance
_geom_bond_site_symmetry_2
_ccdc_geom_bond_type
Mn0 O5 2.095 . S
Mn0 O15 2.162 . S
Mn0 O16 2.297 . S
Mn0 O24 2.385 . S
Mn0 O25 2.209 . S
Mn0 O26 2.094 . S
Mn1 O6 2.121 . S
Mn1 N8 2.257 . S
Mn1 N17 2.282 . S
Mn1 O25 2.215 . S
Mn1 O27 2.117 . S
C2 O24 1.234 . S
C2 O25 1.283 . S
C3 O15 1.281 . S
C3 O16 1.236 . S
C4 O26 1.240 . S
C4 O27 1.264 . S
O5 Mn0 2.095 . S
O5 C14 1.250 . S
O6 Mn1 2.121 . S
O6 C14 1.258 . S
C7 N8 1.326 . S
C7 C11 1.460 . S
C7 H13 0.929 . S
N8 Mn1 2.257 . S
N8 C7 1.326 . S
N8 C12 1.362 . S
C9 C10 1.258 . S
C9 C12 1.431 . S
C9 C29 1.449 . S
C10 C9 1.258 . S
C10 C11 1.477 . S
C10 H30 0.931 . S
C11 C7 1.460 . S
C11 C10 1.477 . S
C11 H31 0.930 . S
C12 N8 1.362 . S
C12 C9 1.431 . S
C12 C22 1.476 . S
H13 C7 0.929 . S
C14 O5 1.250 . S
C14 O6 1.258 . S
O15 Mn0 2.162 . S
O15 C3 1.281 . S
O16 Mn0 2.297 . S
O16 C3 1.236 . S
N17 Mn1 2.282 . S
N17 C18 1.328 . S
N17 C22 1.318 . S
C18 N17 1.328 . S
C18 C19 1.457 . S
C18 H23 0.929 . S
C19 C18 1.457 . S
C19 C20 1.291 . S
C19 H32 0.931 . S
C20 C19 1.291 . S
C20 C21 1.373 . S
C20 H33 0.929 . S
C21 C20 1.373 . S
C21 C22 1.396 . S
C21 C28 1.403 . S
C22 C12 1.476 . S
C22 N17 1.318 . S
C22 C21 1.396 . S
H23 C18 0.929 . S
O24 Mn0 2.385 . S
O24 C2 1.234 . S
O25 Mn0 2.209 . S
O25 Mn1 2.215 . S
O25 C2 1.283 . S
O26 Mn0 2.094 . S
O26 C4 1.240 . S
O27 Mn1 2.117 . S
O27 C4 1.264 . S
C28 C21 1.403 . S
C28 C29 1.399 . S
C28 H34 0.929 . S
C29 C9 1.449 . S
C29 C28 1.399 . S
C29 H35 0.930 . S
H30 C10 0.931 . S
H31 C11 0.930 . S
H32 C19 0.931 . S
H33 C20 0.929 . S
H34 C28 0.929 . S
H35 C29 0.930 . S
Mn36 O41 2.095 . S
Mn36 O51 2.162 . S
Mn36 O52 2.297 . S
Mn36 O60 2.385 . S
Mn36 O61 2.209 . S
Mn36 O62 2.094 . S
Mn37 O42 2.121 . S
Mn37 N44 2.257 . S
Mn37 N53 2.282 . S
Mn37 O61 2.215 . S
Mn37 O63 2.117 . S
C38 O60 1.234 . S
C38 O61 1.283 . S
C39 O51 1.281 . S
C39 O52 1.236 . S
C40 O62 1.240 . S
C40 O63 1.264 . S
O41 Mn36 2.095 . S
O41 C50 1.250 . S
O42 Mn37 2.121 . S
O42 C50 1.258 . S
C43 N44 1.326 . S
C43 C47 1.460 . S
C43 H49 0.929 . S
N44 Mn37 2.257 . S
N44 C43 1.326 . S
N44 C48 1.362 . S
C45 C46 1.258 . S
C45 C48 1.431 . S
C45 C65 1.449 . S
C46 C45 1.258 . S
C46 C47 1.477 . S
C46 H66 0.931 . S
C47 C43 1.460 . S
C47 C46 1.477 . S
C47 H67 0.930 . S
C48 N44 1.362 . S
C48 C45 1.431 . S
C48 C58 1.476 . S
H49 C43 0.929 . S
C50 O41 1.250 . S
C50 O42 1.258 . S
O51 Mn36 2.162 . S
O51 C39 1.281 . S
O52 Mn36 2.297 . S
O52 C39 1.236 . S
N53 Mn37 2.282 . S
N53 C54 1.328 . S
N53 C58 1.318 . S
C54 N53 1.328 . S
C54 C55 1.457 . S
C54 H59 0.929 . S
C55 C54 1.457 . S
C55 C56 1.291 . S
C55 H68 0.931 . S
C56 C55 1.291 . S
C56 C57 1.373 . S
C56 H69 0.929 . S
C57 C56 1.373 . S
C57 C58 1.396 . S
C57 C64 1.403 . S
C58 C48 1.476 . S
C58 N53 1.318 . S
C58 C57 1.396 . S
H59 C54 0.929 . S
O60 Mn36 2.385 . S
O60 C38 1.234 . S
O61 Mn36 2.209 . S
O61 Mn37 2.215 . S
O61 C38 1.283 . S
O62 Mn36 2.094 . S
O62 C40 1.240 . S
O63 Mn37 2.117 . S
O63 C40 1.264 . S
C64 C57 1.403 . S
C64 C65 1.399 . S
C64 H70 0.929 . S
C65 C45 1.449 . S
C65 C64 1.399 . S
C65 H71 0.930 . S
H66 C46 0.931 . S
H67 C47 0.930 . S
H68 C55 0.931 . S
H69 C56 0.929 . S
H70 C64 0.929 . S
H71 C65 0.930 . S
Mn72 O77 2.095 . S
Mn72 O87 2.162 . S
Mn72 O88 2.297 . S
Mn72 O96 2.385 . S
Mn72 O97 2.209 . S
Mn72 O98 2.094 . S
Mn73 O78 2.121 . S
Mn73 N80 2.257 . S
Mn73 N89 2.282 . S
Mn73 O97 2.215 . S
Mn73 O99 2.117 . S
C74 O96 1.234 . S
C74 O97 1.283 . S
C75 O87 1.281 . S
C75 O88 1.236 . S
C76 O98 1.240 . S
C76 O99 1.264 . S
O77 Mn72 2.095 . S
O77 C86 1.250 . S
O78 Mn73 2.121 . S
O78 C86 1.258 . S
C79 N80 1.326 . S
C79 C83 1.460 . S
C79 H85 0.929 . S
N80 Mn73 2.257 . S
N80 C79 1.326 . S
N80 C84 1.362 . S
C81 C82 1.258 1_655 S
C81 C84 1.431 . S
C81 C101 1.455 . S
C82 C81 1.258 1_455 S
C82 C83 1.477 1_455 S
C82 H102 0.931 . S
C83 C79 1.460 . S
C83 C82 1.477 1_655 S
C83 H103 0.930 1_655 S
C84 N80 1.362 . S
C84 C81 1.431 . S
C84 C94 1.476 . S
H85 C79 0.929 . S
C86 O77 1.250 . S
C86 O78 1.258 . S
O87 Mn72 2.162 . S
O87 C75 1.281 . S
O88 Mn72 2.297 . S
O88 C75 1.236 . S
N89 Mn73 2.282 . S
N89 C90 1.328 . S
N89 C94 1.318 . S
C90 N89 1.328 . S
C90 C91 1.457 . S
C90 H95 0.929 . S
C91 C90 1.457 . S
C91 C92 1.291 . S
C91 H104 0.931 . S
C92 C91 1.291 . S
C92 C93 1.373 . S
C92 H105 0.929 . S
C93 C92 1.373 . S
C93 C94 1.396 . S
C93 C100 1.403 . S
C94 C84 1.476 . S
C94 N89 1.318 . S
C94 C93 1.396 . S
H95 C90 0.929 . S
O96 Mn72 2.385 . S
O96 C74 1.234 . S
O97 Mn72 2.209 . S
O97 Mn73 2.215 . S
O97 C74 1.283 . S
O98 Mn72 2.094 . S
O98 C76 1.240 . S
O99 Mn73 2.117 . S
O99 C76 1.264 . S
C100 C93 1.403 . S
C100 C101 1.401 . S
C100 H106 0.929 . S
C101 C81 1.455 . S
C101 C100 1.401 . S
C101 H107 0.923 1_655 S
H102 C82 0.931 . S
H103 C83 0.930 1_455 S
H104 C91 0.931 . S
H105 C92 0.929 . S
H106 C100 0.929 . S
H107 C101 0.923 1_455 S
Mn108 O113 2.095 . S
Mn108 O123 2.162 . S
Mn108 O124 2.297 . S
Mn108 O132 2.385 . S
Mn108 O133 2.209 . S
Mn108 O134 2.094 . S
Mn109 O114 2.121 . S
Mn109 N116 2.257 . S
Mn109 N125 2.282 . S
Mn109 O133 2.215 . S
Mn109 O135 2.117 . S
C110 O132 1.234 . S
C110 O133 1.283 . S
C111 O123 1.281 . S
C111 O124 1.236 . S
C112 O134 1.240 . S
C112 O135 1.264 . S
O113 Mn108 2.095 . S
O113 C122 1.250 . S
O114 Mn109 2.121 . S
O114 C122 1.258 . S
C115 N116 1.326 . S
C115 C119 1.460 . S
C115 H121 0.929 . S
N116 Mn109 2.257 . S
N116 C115 1.326 . S
N116 C120 1.362 . S
C117 C118 1.258 1_455 S
C117 C120 1.431 . S
C117 C137 1.455 . S
C118 C117 1.258 1_655 S
C118 C119 1.477 1_655 S
C118 H138 0.931 . S
C119 C115 1.460 . S
C119 C118 1.477 1_455 S
C119 H139 0.930 1_455 S
C120 N116 1.362 . S
C120 C117 1.431 . S
C120 C130 1.476 . S
H121 C115 0.929 . S
C122 O113 1.250 . S
C122 O114 1.258 . S
O123 Mn108 2.162 . S
O123 C111 1.281 . S
O124 Mn108 2.297 . S
O124 C111 1.236 . S
N125 Mn109 2.282 . S
N125 C126 1.328 . S
N125 C130 1.318 . S
C126 N125 1.328 . S
C126 C127 1.457 . S
C126 H131 0.929 . S
C127 C126 1.457 . S
C127 C128 1.291 . S
C127 H140 0.931 . S
C128 C127 1.291 . S
C128 C129 1.373 . S
C128 H141 0.929 . S
C129 C128 1.373 . S
C129 C130 1.396 . S
C129 C136 1.403 . S
C130 C120 1.476 . S
C130 N125 1.318 . S
C130 C129 1.396 . S
H131 C126 0.929 . S
O132 Mn108 2.385 . S
O132 C110 1.234 . S
O133 Mn108 2.209 . S
O133 Mn109 2.215 . S
O133 C110 1.283 . S
O134 Mn108 2.094 . S
O134 C112 1.240 . S
O135 Mn109 2.117 . S
O135 C112 1.264 . S
C136 C129 1.403 . S
C136 C137 1.401 . S
C136 H142 0.929 . S
C137 C117 1.455 . S
C137 C136 1.401 . S
C137 H143 0.923 1_455 S
H138 C118 0.931 . S
H139 C119 0.930 1_655 S
H140 C127 0.931 . S
H141 C128 0.929 . S
H142 C136 0.929 . S
H143 C137 0.923 1_655 S
Mn144 O149 2.095 . S
Mn144 O159 2.162 . S
Mn144 O160 2.297 . S
Mn144 O168 2.385 . S
Mn144 O169 2.209 . S
Mn144 O170 2.094 . S
Mn145 O150 2.121 . S
Mn145 N152 2.257 1_565 S
Mn145 N161 2.282 1_565 S
Mn145 O169 2.215 . S
Mn145 O171 2.117 . S
C146 O168 1.234 . S
C146 O169 1.283 . S
C147 O159 1.281 . S
C147 O160 1.236 . S
C148 O170 1.240 . S
C148 O171 1.264 . S
O149 Mn144 2.095 . S
O149 C158 1.250 . S
O150 Mn145 2.121 . S
O150 C158 1.258 . S
C151 N152 1.326 . S
C151 C155 1.460 . S
C151 H157 0.929 1_545 S
N152 Mn145 2.257 1_545 S
N152 C151 1.326 . S
N152 C156 1.362 . S
C153 C154 1.258 . S
C153 C156 1.431 . S
C153 C173 1.449 . S
C154 C153 1.258 . S
C154 C155 1.477 . S
C154 H174 0.931 . S
C155 C151 1.460 . S
C155 C154 1.477 . S
C155 H175 0.930 . S
C156 N152 1.362 . S
C156 C153 1.431 . S
C156 C166 1.476 . S
H157 C151 0.929 1_565 S
C158 O149 1.250 . S
C158 O150 1.258 . S
O159 Mn144 2.162 . S
O159 C147 1.281 . S
O160 Mn144 2.297 . S
O160 C147 1.236 . S
N161 Mn145 2.282 1_545 S
N161 C162 1.328 . S
N161 C166 1.318 . S
C162 N161 1.328 . S
C162 C163 1.457 . S
C162 H167 0.929 1_545 S
C163 C162 1.457 . S
C163 C164 1.291 . S
C163 H176 0.931 . S
C164 C163 1.291 . S
C164 C165 1.373 . S
C164 H177 0.929 . S
C165 C164 1.373 . S
C165 C166 1.396 . S
C165 C172 1.403 . S
C166 C156 1.476 . S
C166 N161 1.318 . S
C166 C165 1.396 . S
H167 C162 0.929 1_565 S
O168 Mn144 2.385 . S
O168 C146 1.234 . S
O169 Mn144 2.209 . S
O169 Mn145 2.215 . S
O169 C146 1.283 . S
O170 Mn144 2.094 . S
O170 C148 1.240 . S
O171 Mn145 2.117 . S
O171 C148 1.264 . S
C172 C165 1.403 . S
C172 C173 1.399 . S
C172 H178 0.929 . S
C173 C153 1.449 . S
C173 C172 1.399 . S
C173 H179 0.930 . S
H174 C154 0.931 . S
H175 C155 0.930 . S
H176 C163 0.931 . S
H177 C164 0.929 . S
H178 C172 0.929 . S
H179 C173 0.930 . S
Mn180 O185 2.095 . S
Mn180 O195 2.162 . S
Mn180 O196 2.297 . S
Mn180 O204 2.385 . S
Mn180 O205 2.209 . S
Mn180 O206 2.094 . S
Mn181 O186 2.121 . S
Mn181 N188 2.257 1_565 S
Mn181 N197 2.282 1_565 S
Mn181 O205 2.215 . S
Mn181 O207 2.117 . S
C182 O204 1.234 . S
C182 O205 1.283 . S
C183 O195 1.281 . S
C183 O196 1.236 . S
C184 O206 1.240 . S
C184 O207 1.264 . S
O185 Mn180 2.095 . S
O185 C194 1.250 . S
O186 Mn181 2.121 . S
O186 C194 1.258 . S
C187 N188 1.326 . S
C187 C191 1.460 . S
C187 H193 0.929 1_545 S
N188 Mn181 2.257 1_545 S
N188 C187 1.326 . S
N188 C192 1.362 . S
C189 C190 1.258 . S
C189 C192 1.431 . S
C189 C209 1.449 . S
C190 C189 1.258 . S
C190 C191 1.477 . S
C190 H210 0.931 . S
C191 C187 1.460 . S
C191 C190 1.477 . S
C191 H211 0.930 . S
C192 N188 1.362 . S
C192 C189 1.431 . S
C192 C202 1.476 . S
H193 C187 0.929 1_565 S
C194 O185 1.250 . S
C194 O186 1.258 . S
O195 Mn180 2.162 . S
O195 C183 1.281 . S
O196 Mn180 2.297 . S
O196 C183 1.236 . S
N197 Mn181 2.282 1_545 S
N197 C198 1.328 . S
N197 C202 1.318 . S
C198 N197 1.328 . S
C198 C199 1.457 . S
C198 H203 0.929 1_545 S
C199 C198 1.457 . S
C199 C200 1.291 . S
C199 H212 0.931 . S
C200 C199 1.291 . S
C200 C201 1.373 . S
C200 H213 0.929 . S
C201 C200 1.373 . S
C201 C202 1.396 . S
C201 C208 1.403 . S
C202 C192 1.476 . S
C202 N197 1.318 . S
C202 C201 1.396 . S
H203 C198 0.929 1_565 S
O204 Mn180 2.385 . S
O204 C182 1.234 . S
O205 Mn180 2.209 . S
O205 Mn181 2.215 . S
O205 C182 1.283 . S
O206 Mn180 2.094 . S
O206 C184 1.240 . S
O207 Mn181 2.117 . S
O207 C184 1.264 . S
C208 C201 1.403 . S
C208 C209 1.399 . S
C208 H214 0.929 . S
C209 C189 1.449 . S
C209 C208 1.399 . S
C209 H215 0.930 . S
H210 C190 0.931 . S
H211 C191 0.930 . S
H212 C199 0.931 . S
H213 C200 0.929 . S
H214 C208 0.929 . S
H215 C209 0.930 . S
Mn216 O221 2.095 . S
Mn216 O231 2.162 . S
Mn216 O232 2.297 . S
Mn216 O240 2.385 . S
Mn216 O241 2.209 . S
Mn216 O242 2.094 . S
Mn217 O222 2.121 . S
Mn217 N224 2.257 . S
Mn217 N233 2.282 . S
Mn217 O241 2.215 . S
Mn217 O243 2.117 . S
C218 O240 1.234 . S
C218 O241 1.283 . S
C219 O231 1.281 . S
C219 O232 1.236 . S
C220 O242 1.240 . S
C220 O243 1.264 . S
O221 Mn216 2.095 . S
O221 C230 1.250 . S
O222 Mn217 2.121 . S
O222 C230 1.258 . S
C223 N224 1.326 . S
C223 C227 1.460 . S
C223 H229 0.929 . S
N224 Mn217 2.257 . S
N224 C223 1.326 . S
N224 C228 1.362 . S
C225 C226 1.258 . S
C225 C228 1.431 . S
C225 C245 1.449 . S
C226 C225 1.258 . S
C226 C227 1.477 . S
C226 H246 0.931 . S
C227 C223 1.460 . S
C227 C226 1.477 . S
C227 H247 0.930 1_545 S
C228 N224 1.362 . S
C228 C225 1.431 . S
C228 C238 1.476 . S
H229 C223 0.929 . S
C230 O221 1.250 . S
C230 O222 1.258 . S
O231 Mn216 2.162 . S
O231 C219 1.281 . S
O232 Mn216 2.297 . S
O232 C219 1.236 . S
N233 Mn217 2.282 . S
N233 C234 1.328 . S
N233 C238 1.318 . S
C234 N233 1.328 . S
C234 C235 1.457 . S
C234 H239 0.929 . S
C235 C234 1.457 . S
C235 C236 1.291 . S
C235 H248 0.931 . S
C236 C235 1.291 . S
C236 C237 1.373 . S
C236 H249 0.929 . S
C237 C236 1.373 . S
C237 C238 1.396 . S
C237 C244 1.403 . S
C238 C228 1.476 . S
C238 N233 1.318 . S
C238 C237 1.396 . S
H239 C234 0.929 . S
O240 Mn216 2.385 . S
O240 C218 1.234 . S
O241 Mn216 2.209 . S
O241 Mn217 2.215 . S
O241 C218 1.283 . S
O242 Mn216 2.094 . S
O242 C220 1.240 . S
O243 Mn217 2.117 . S
O243 C220 1.264 . S
C244 C237 1.403 . S
C244 C245 1.399 . S
C244 H250 0.929 . S
C245 C225 1.449 . S
C245 C244 1.399 . S
C245 H251 0.930 . S
H246 C226 0.931 . S
H247 C227 0.930 1_565 S
H248 C235 0.931 . S
H249 C236 0.929 . S
H250 C244 0.929 . S
H251 C245 0.930 . S
Mn252 O257 2.095 . S
Mn252 O267 2.162 . S
Mn252 O268 2.297 . S
Mn252 O276 2.385 . S
Mn252 O277 2.209 . S
Mn252 O278 2.094 . S
Mn253 O258 2.121 . S
Mn253 N260 2.257 . S
Mn253 N269 2.282 . S
Mn253 O277 2.215 . S
Mn253 O279 2.117 . S
C254 O276 1.234 . S
C254 O277 1.283 . S
C255 O267 1.281 . S
C255 O268 1.236 . S
C256 O278 1.240 . S
C256 O279 1.264 . S
O257 Mn252 2.095 . S
O257 C266 1.250 . S
O258 Mn253 2.121 . S
O258 C266 1.258 . S
C259 N260 1.326 . S
C259 C263 1.460 . S
C259 H265 0.929 . S
N260 Mn253 2.257 . S
N260 C259 1.326 . S
N260 C264 1.362 . S
C261 C262 1.258 . S
C261 C264 1.431 . S
C261 C281 1.449 . S
C262 C261 1.258 . S
C262 C263 1.477 . S
C262 H282 0.931 . S
C263 C259 1.460 . S
C263 C262 1.477 . S
C263 H283 0.930 1_545 S
C264 N260 1.362 . S
C264 C261 1.431 . S
C264 C274 1.476 . S
H265 C259 0.929 . S
C266 O257 1.250 . S
C266 O258 1.258 . S
O267 Mn252 2.162 . S
O267 C255 1.281 . S
O268 Mn252 2.297 . S
O268 C255 1.236 . S
N269 Mn253 2.282 . S
N269 C270 1.328 . S
N269 C274 1.318 . S
C270 N269 1.328 . S
C270 C271 1.457 . S
C270 H275 0.929 . S
C271 C270 1.457 . S
C271 C272 1.291 . S
C271 H284 0.931 . S
C272 C271 1.291 . S
C272 C273 1.373 . S
C272 H285 0.929 . S
C273 C272 1.373 . S
C273 C274 1.396 . S
C273 C280 1.403 . S
C274 C264 1.476 . S
C274 N269 1.318 . S
C274 C273 1.396 . S
H275 C270 0.929 . S
O276 Mn252 2.385 . S
O276 C254 1.234 . S
O277 Mn252 2.209 . S
O277 Mn253 2.215 . S
O277 C254 1.283 . S
O278 Mn252 2.094 . S
O278 C256 1.240 . S
O279 Mn253 2.117 . S
O279 C256 1.264 . S
C280 C273 1.403 . S
C280 C281 1.399 . S
C280 H286 0.929 . S
C281 C261 1.449 . S
C281 C280 1.399 . S
C281 H287 0.930 . S
H282 C262 0.931 . S
H283 C263 0.930 1_565 S
H284 C271 0.931 . S
H285 C272 0.929 . S
H286 C280 0.929 . S
H287 C281 0.930 . S
C288 C289 1.363 1_655 S
C288 C294 1.379 1_545 S
C288 N296 1.356 . S
C289 C288 1.363 1_455 S
C289 C295 1.363 . S
C290 C291 1.363 1_455 S
C290 C295 1.379 1_565 S
C290 N297 1.356 . S
C291 C290 1.363 1_655 S
C291 C294 1.363 . S
N292 C294 1.356 . S
N292 H304 0.984 . S
N292 H305 0.985 . S
N293 C295 1.356 . S
N293 H298 0.984 . S
N293 H299 0.985 . S
C294 C288 1.379 1_565 S
C294 C291 1.363 . S
C294 N292 1.356 . S
C295 C289 1.363 . S
C295 C290 1.379 1_545 S
C295 N293 1.356 . S
N296 C288 1.356 . S
N296 H302 0.984 . S
N296 H303 0.984 . S
N297 C290 1.356 . S
N297 H300 0.984 . S
N297 H301 0.985 . S
H298 N293 0.984 . S
H299 N293 0.985 . S
H300 N297 0.984 . S
H301 N297 0.985 . S
H302 N296 0.984 . S
H303 N296 0.984 . S
H304 N292 0.984 . S
H305 N292 0.985 . S
C306 C307 1.363 1_654 S
C306 C312 1.391 . S
C306 N314 1.356 . S
C307 C306 1.363 1_456 S
C307 C313 1.363 1_565 S
C308 C309 1.363 1_456 S
C308 C313 1.379 . S
C308 N315 1.356 . S
C309 C308 1.363 1_654 S
C309 C312 1.350 1_545 S
N310 C312 1.353 1_545 S
N310 H322 0.984 1_545 S
N310 H323 0.985 . S
N311 C313 1.356 1_565 S
N311 H316 0.984 . S
N311 H317 0.985 1_565 S
C312 C306 1.391 . S
C312 C309 1.350 1_565 S
C312 N310 1.353 1_565 S
C313 C307 1.363 1_545 S
C313 C308 1.379 . S
C313 N311 1.356 1_545 S
N314 C306 1.356 . S
N314 H320 0.984 . S
N314 H321 0.984 1_655 S
N315 C308 1.356 . S
N315 H318 0.984 1_455 S
N315 H319 0.985 . S
H316 N311 0.984 . S
H317 N311 0.985 1_545 S
H318 N315 0.984 1_655 S
H319 N315 0.985 . S
H320 N314 0.984 . S
H321 N314 0.984 1_455 S
H322 N310 0.984 1_565 S
H323 N310 0.985 . S
C324 C325 1.363 . S
C324 C330 1.379 . S
C324 N332 1.356 . S
C325 C324 1.363 . S
C325 C331 1.363 . S
C326 C327 1.363 . S
C326 C331 1.379 . S
C326 N333 1.356 . S
C327 C326 1.363 . S
C327 C330 1.363 . S
N328 C330 1.356 . S
N328 H340 0.984 . S
N328 H341 0.985 . S
N329 C331 1.356 . S
N329 H334 0.984 . S
N329 H335 0.985 . S
C330 C324 1.379 . S
C330 C327 1.363 . S
C330 N328 1.356 . S
C331 C325 1.363 . S
C331 C326 1.379 . S
C331 N329 1.356 . S
N332 C324 1.356 . S
N332 H338 0.984 . S
N332 H339 0.984 . S
N333 C326 1.356 . S
N333 H336 0.984 . S
N333 H337 0.985 . S
H334 N329 0.984 . S
H335 N329 0.985 . S
H336 N333 0.984 . S
H337 N333 0.985 . S
H338 N332 0.984 . S
H339 N332 0.984 . S
H340 N328 0.984 . S
H341 N328 0.985 . S
C342 C343 1.363 1_556 S
C342 C348 1.379 . S
C342 N350 1.356 . S
C343 C342 1.363 1_554 S
C343 C349 1.363 . S
C344 C345 1.363 1_554 S
C344 C349 1.379 . S
C344 N351 1.356 . S
C345 C344 1.363 1_556 S
C345 C348 1.363 . S
N346 C348 1.356 . S
N346 H358 0.984 . S
N346 H359 0.985 . S
N347 C349 1.356 . S
N347 H352 0.984 . S
N347 H353 0.985 . S
C348 C342 1.379 . S
C348 C345 1.363 . S
C348 N346 1.356 . S
C349 C343 1.363 . S
C349 C344 1.379 . S
C349 N347 1.356 . S
N350 C342 1.356 . S
N350 H356 0.984 . S
N350 H357 0.984 1_556 S
N351 C344 1.356 . S
N351 H354 0.984 1_554 S
N351 H355 0.985 . S
H352 N347 0.984 . S
H353 N347 0.985 . S
H354 N351 0.984 1_556 S
H355 N351 0.985 . S
H356 N350 0.984 . S
H357 N350 0.984 1_554 S
H358 N346 0.984 . S
H359 N346 0.985 . S
C360 C361 1.363 1_456 S
C360 C366 1.379 . S
C360 N368 1.357 . S
C361 C360 1.363 1_654 S
C361 C367 1.363 . S
C362 C363 1.363 1_654 S
C362 C367 1.379 . S
C362 N369 1.356 . S
C363 C362 1.363 1_456 S
C363 C366 1.363 . S
N364 C366 1.356 . S
N364 H376 0.984 . S
N364 H377 0.985 . S
N365 C367 1.356 . S
N365 H370 0.984 . S
N365 H371 0.985 . S
C366 C360 1.379 . S
C366 C363 1.363 . S
C366 N364 1.356 . S
C367 C361 1.363 . S
C367 C362 1.379 . S
C367 N365 1.356 . S
N368 C360 1.357 . S
N368 H374 0.987 . S
N368 H375 0.981 1_456 S
N369 C362 1.356 . S
N369 H372 0.984 1_654 S
N369 H373 0.985 . S
H370 N365 0.984 . S
H371 N365 0.985 . S
H372 N369 0.984 1_456 S
H373 N369 0.985 . S
H374 N368 0.987 . S
H375 N368 0.981 1_654 S
H376 N364 0.984 . S
H377 N364 0.985 . S
C378 C379 1.363 . S
C378 C384 1.379 . S
C378 N386 1.356 . S
C379 C378 1.363 . S
C379 C385 1.363 1_455 S
C380 C381 1.363 . S
C380 C385 1.379 . S
C380 N387 1.356 . S
C381 C380 1.363 . S
C381 C384 1.363 1_655 S
N382 C384 1.356 . S
N382 H394 0.984 . S
N382 H395 0.985 1_455 S
N383 C385 1.356 . S
N383 H388 0.984 1_655 S
N383 H389 0.985 . S
C384 C378 1.379 . S
C384 C381 1.363 1_455 S
C384 N382 1.356 . S
C385 C379 1.363 1_655 S
C385 C380 1.379 . S
C385 N383 1.356 . S
N386 C378 1.356 . S
N386 H392 0.984 . S
N386 H393 0.984 . S
N387 C380 1.356 . S
N387 H390 0.984 . S
N387 H391 0.985 . S
H388 N383 0.984 1_455 S
H389 N383 0.985 . S
H390 N387 0.984 . S
H391 N387 0.985 . S
H392 N386 0.984 . S
H393 N386 0.984 . S
H394 N382 0.984 . S
H395 N382 0.985 1_655 S
C396 C397 1.363 1_554 S
C396 C402 1.379 1_545 S
C396 N404 1.356 . S
C397 C396 1.363 1_556 S
C397 C403 1.363 . S
C398 C399 1.363 1_556 S
C398 C403 1.379 1_565 S
C398 N405 1.356 . S
C399 C398 1.363 1_554 S
C399 C402 1.363 . S
N400 C402 1.356 . S
N400 H412 0.984 . S
N400 H413 0.985 . S
N401 C403 1.356 . S
N401 H406 0.984 . S
N401 H407 0.985 1_545 S
C402 C396 1.379 1_565 S
C402 C399 1.363 . S
C402 N400 1.356 . S
C403 C397 1.363 . S
C403 C398 1.379 1_545 S
C403 N401 1.356 . S
N404 C396 1.356 . S
N404 H410 0.984 . S
N404 H411 0.984 . S
N405 C398 1.356 . S
N405 H408 0.984 . S
N405 H409 0.985 . S
H406 N401 0.984 . S
H407 N401 0.985 1_565 S
H408 N405 0.984 . S
H409 N405 0.985 . S
H410 N404 0.984 . S
H411 N404 0.984 . S
H412 N400 0.984 . S
H413 N400 0.985 . S
C414 C415 1.363 . S
C414 C420 1.379 . S
C414 N422 1.356 . S
C415 C414 1.363 . S
C415 C421 1.363 1_565 S
C416 C417 1.363 . S
C416 C421 1.379 . S
C416 N423 1.356 . S
C417 C416 1.363 . S
C417 C420 1.363 1_545 S
N418 C420 1.356 . S
N418 H430 0.984 . S
N418 H431 0.985 1_565 S
N419 C421 1.356 . S
N419 H424 0.984 1_545 S
N419 H425 0.985 . S
C420 C414 1.379 . S
C420 C417 1.363 1_565 S
C420 N418 1.356 . S
C421 C415 1.363 1_545 S
C421 C416 1.379 . S
C421 N419 1.356 . S
N422 C414 1.356 . S
N422 H428 0.984 . S
N422 H429 0.984 . S
N423 C416 1.356 . S
N423 H426 0.984 . S
N423 H427 0.985 . S
H424 N419 0.984 1_565 S
H425 N419 0.985 . S
H426 N423 0.984 . S
H427 N423 0.985 . S
H428 N422 0.984 . S
H429 N422 0.984 . S
H430 N418 0.984 . S
H431 N418 0.985 1_545 S
C432 C433 1.363 . S
C432 C438 1.379 . S
C432 N440 1.356 . S
C433 C432 1.363 . S
C433 C439 1.363 . S
C434 C435 1.363 . S
C434 C439 1.379 . S
C434 N441 1.356 . S
C435 C434 1.363 . S
C435 C438 1.363 . S
N436 C438 1.356 . S
N436 H448 0.984 . S
N436 H449 0.985 . S
N437 C439 1.356 . S
N437 H442 0.984 . S
N437 H443 0.985 . S
C438 C432 1.379 . S
C438 C435 1.363 . S
C438 N436 1.356 . S
C439 C433 1.363 . S
C439 C434 1.379 . S
C439 N437 1.356 . S
N440 C432 1.356 . S
N440 H446 0.984 . S
N440 H447 0.984 . S
N441 C434 1.356 . S
N441 H444 0.984 . S
N441 H445 0.985 . S
H442 N437 0.984 . S
H443 N437 0.985 . S
H444 N441 0.984 . S
H445 N441 0.985 . S
H446 N440 0.984 . S
H447 N440 0.984 . S
H448 N436 0.984 . S
H449 N436 0.985 . S
C450 C451 1.363 . S
C450 C456 1.379 1_556 S
C450 N458 1.356 . S
C451 C450 1.363 . S
C451 C457 1.363 . S
C452 C453 1.363 . S
C452 C457 1.379 1_554 S
C452 N459 1.356 . S
C453 C452 1.363 . S
C453 C456 1.363 . S
N454 C456 1.356 . S
N454 H466 0.984 . S
N454 H467 0.985 . S
N455 C457 1.356 . S
N455 H460 0.984 . S
N455 H461 0.985 . S
C456 C450 1.379 1_554 S
C456 C453 1.363 . S
C456 N454 1.356 . S
C457 C451 1.363 . S
C457 C452 1.379 1_556 S
C457 N455 1.356 . S
N458 C450 1.356 . S
N458 H464 0.984 . S
N458 H465 0.984 . S
N459 C452 1.356 . S
N459 H462 0.984 . S
N459 H463 0.985 . S
H460 N455 0.984 . S
H461 N455 0.985 . S
H462 N459 0.984 . S
H463 N459 0.985 . S
H464 N458 0.984 . S
H465 N458 0.984 . S
H466 N454 0.984 . S
H467 N454 0.985 . S
C468 C469 1.363 . S
C468 C474 1.379 . S
C468 N476 1.356 . S
C469 C468 1.363 . S
C469 C475 1.363 . S
C470 C471 1.363 . S
C470 C475 1.379 . S
C470 N477 1.356 . S
C471 C470 1.363 . S
C471 C474 1.363 . S
N472 C474 1.356 . S
N472 H484 0.984 . S
N472 H485 0.985 . S
N473 C475 1.356 . S
N473 H478 0.984 . S
N473 H479 0.985 . S
C474 C468 1.379 . S
C474 C471 1.363 . S
C474 N472 1.356 . S
C475 C469 1.363 . S
C475 C470 1.379 . S
C475 N473 1.356 . S
N476 C468 1.356 . S
N476 H482 0.984 . S
N476 H483 0.984 . S
N477 C470 1.356 . S
N477 H480 0.984 . S
N477 H481 0.985 . S
H478 N473 0.984 . S
H479 N473 0.985 . S
H480 N477 0.984 . S
H481 N477 0.985 . S
H482 N476 0.984 . S
H483 N476 0.984 . S
H484 N472 0.984 . S
H485 N472 0.985 . S
C486 C487 1.363 . S
C486 C492 1.379 1_554 S
C486 N494 1.356 . S
C487 C486 1.363 . S
C487 C493 1.363 . S
C488 C489 1.363 . S
C488 C493 1.379 1_556 S
C488 N495 1.356 . S
C489 C488 1.363 . S
C489 C492 1.363 . S
N490 C492 1.356 . S
N490 H502 0.984 . S
N490 H503 0.985 . S
N491 C493 1.356 . S
N491 H496 0.984 . S
N491 H497 0.985 . S
C492 C486 1.379 1_556 S
C492 C489 1.363 . S
C492 N490 1.356 . S
C493 C487 1.363 . S
C493 C488 1.379 1_554 S
C493 N491 1.356 . S
N494 C486 1.356 . S
N494 H500 0.984 . S
N494 H501 0.984 . S
N495 C488 1.356 . S
N495 H498 0.984 . S
N495 H499 0.985 . S
H496 N491 0.984 . S
H497 N491 0.985 . S
H498 N495 0.984 . S
H499 N495 0.985 . S
H500 N494 0.984 . S
H501 N494 0.984 . S
H502 N490 0.984 . S
H503 N490 0.985 . S
C504 C505 1.363 . S
C504 C510 1.379 . S
C504 N512 1.356 . S
C505 C504 1.363 . S
C505 C511 1.363 . S
C506 C507 1.363 . S
C506 C511 1.379 . S
C506 N513 1.356 . S
C507 C506 1.363 . S
C507 C510 1.363 . S
N508 C510 1.356 . S
N508 H520 0.984 . S
N508 H521 0.985 . S
N509 C511 1.356 . S
N509 H514 0.984 . S
N509 H515 0.985 . S
C510 C504 1.379 . S
C510 C507 1.363 . S
C510 N508 1.356 . S
C511 C505 1.363 . S
C511 C506 1.379 . S
C511 N509 1.356 . S
N512 C504 1.356 . S
N512 H518 0.984 . S
N512 H519 0.984 . S
N513 C506 1.356 . S
N513 H516 0.984 . S
N513 H517 0.985 . S
H514 N509 0.984 . S
H515 N509 0.985 . S
H516 N513 0.984 . S
H517 N513 0.985 . S
H518 N512 0.984 . S
H519 N512 0.984 . S
H520 N508 0.984 . S
H521 N508 0.985 . S
C522 C523 1.363 . S
C522 C528 1.379 . S
C522 N530 1.356 . S
C523 C522 1.363 . S
C523 C529 1.363 . S
C524 C525 1.363 . S
C524 C529 1.379 . S
C524 N531 1.356 . S
C525 C524 1.363 . S
C525 C528 1.363 . S
N526 C528 1.356 . S
N526 H538 0.984 . S
N526 H539 0.985 . S
N527 C529 1.356 . S
N527 H532 0.984 . S
N527 H533 0.985 . S
C528 C522 1.379 . S
C528 C525 1.363 . S
C528 N526 1.356 . S
C529 C523 1.363 . S
C529 C524 1.379 . S
C529 N527 1.356 . S
N530 C522 1.356 . S
N530 H536 0.984 . S
N530 H537 0.984 . S
N531 C524 1.356 . S
N531 H534 0.984 . S
N531 H535 0.985 . S
H532 N527 0.984 . S
H533 N527 0.985 . S
H534 N531 0.984 . S
H535 N531 0.985 . S
H536 N530 0.984 . S
H537 N530 0.984 . S
H538 N526 0.984 . S
H539 N526 0.985 . S
C540 C541 1.363 . S
C540 C546 1.379 1_455 S
C540 N548 1.356 . S
C541 C540 1.363 . S
C541 C547 1.363 . S
C542 C543 1.363 . S
C542 C547 1.379 1_655 S
C542 N549 1.356 . S
C543 C542 1.363 . S
C543 C546 1.363 . S
N544 C546 1.356 . S
N544 H556 0.984 . S
N544 H557 0.985 . S
N545 C547 1.356 . S
N545 H550 0.984 . S
N545 H551 0.985 . S
C546 C540 1.379 1_655 S
C546 C543 1.363 . S
C546 N544 1.356 . S
C547 C541 1.363 . S
C547 C542 1.379 1_455 S
C547 N545 1.356 . S
N548 C540 1.356 . S
N548 H554 0.984 . S
N548 H555 0.984 . S
N549 C542 1.356 . S
N549 H552 0.984 . S
N549 H553 0.985 . S
H550 N545 0.984 . S
H551 N545 0.985 . S
H552 N549 0.984 . S
H553 N549 0.985 . S
H554 N548 0.984 . S
H555 N548 0.984 . S
H556 N544 0.984 . S
H557 N544 0.985 . S
C558 C559 1.363 . S
C558 C564 1.379 1_455 S
C558 N566 1.356 . S
C559 C558 1.363 . S
C559 C565 1.363 . S
C560 C561 1.363 . S
C560 C565 1.379 1_655 S
C560 N567 1.356 . S
C561 C560 1.363 . S
C561 C564 1.363 . S
N562 C564 1.356 . S
N562 H574 0.984 . S
N562 H575 0.985 . S
N563 C565 1.356 . S
N563 H568 0.984 . S
N563 H569 0.985 . S
C564 C558 1.379 1_655 S
C564 C561 1.363 . S
C564 N562 1.356 . S
C565 C559 1.363 . S
C565 C560 1.379 1_455 S
C565 N563 1.356 . S
N566 C558 1.356 . S
N566 H572 0.984 . S
N566 H573 0.984 . S
N567 C560 1.356 . S
N567 H570 0.984 . S
N567 H571 0.985 . S
H568 N563 0.984 . S
H569 N563 0.985 . S
H570 N567 0.984 . S
H571 N567 0.985 . S
H572 N566 0.984 . S
H573 N566 0.984 . S
H574 N562 0.984 . S
H575 N562 0.985 . S
C289 C3 1.657 . S
C291 C76 1.680 . S
C307 C112 1.680 . S
C309 C39 1.657 . S
C325 C220 1.680 . S
C327 C147 1.657 . S
C343 C183 1.657 . S
C345 C256 1.680 . S
C361 C38 1.426 . S
C363 C122 1.322 . S
C379 C2 1.426 . S
C381 C86 1.322 . S
C397 C266 1.322 . S
C399 C182 1.426 . S
C415 C146 1.426 . S
C417 C230 1.322 . S
C433 C194 1.450 . S
C435 C110 1.504 . S
C451 C74 1.504 . S
C453 C158 1.450 . S
C469 C50 1.450 . S
C471 C254 1.504 . S
C487 C14 1.450 . S
C489 C218 1.504 . S
C505 C4 1.565 . S
C507 C40 1.565 . S
C523 C75 1.548 . S
C525 C111 1.548 . S
C541 C184 1.565 . S
C543 C148 1.565 . S
C559 C219 1.548 . S
C561 C255 1.548 . S
