# Generated by pormake.
# Topology snz, (6)-cn, num edge types: 1
# Building blocks:
#     Node 0, Type 0, BuildingBlock: INOVEN_clean_sbu_0, # of connection points: 6
#     Node 1, Type 0, BuildingBlock: INOVEN_clean_sbu_0, # of connection points: 6
#     Node 2, Type 0, BuildingBlock: INOVEN_clean_sbu_0, # of connection points: 6
#     Node 3, Type 0, BuildingBlock: INOVEN_clean_sbu_0, # of connection points: 6
#     Node 4, Type 0, BuildingBlock: INOVEN_clean_sbu_0, # of connection points: 6
#     Node 5, Type 0, BuildingBlock: INOVEN_clean_sbu_0, # of connection points: 6
#     Node 6, Type 0, BuildingBlock: INOVEN_clean_sbu_0, # of connection points: 6
#     Node 7, Type 0, BuildingBlock: INOVEN_clean_sbu_0, # of connection points: 6
#     Node 8, Type 0, BuildingBlock: INOVEN_clean_sbu_0, # of connection points: 6
#     Edge 9, Type (0, 0), BuildingBlock: CIFDUS_clean_linker_0, # of connection points: 2
#     Edge 10, Type (0, 0), BuildingBlock: CIFDUS_clean_linker_0, # of connection points: 2
#     Edge 11, Type (0, 0), BuildingBlock: CIFDUS_clean_linker_0, # of connection points: 2
#     Edge 12, Type (0, 0), BuildingBlock: CIFDUS_clean_linker_0, # of connection points: 2
#     Edge 13, Type (0, 0), BuildingBlock: CIFDUS_clean_linker_0, # of connection points: 2
#     Edge 14, Type (0, 0), BuildingBlock: CIFDUS_clean_linker_0, # of connection points: 2
#     Edge 15, Type (0, 0), BuildingBlock: CIFDUS_clean_linker_0, # of connection points: 2
#     Edge 16, Type (0, 0), BuildingBlock: CIFDUS_clean_linker_0, # of connection points: 2
#     Edge 17, Type (0, 0), BuildingBlock: CIFDUS_clean_linker_0, # of connection points: 2
#     Edge 18, Type (0, 0), BuildingBlock: CIFDUS_clean_linker_0, # of connection points: 2
#     Edge 19, Type (0, 0), BuildingBlock: CIFDUS_clean_linker_0, # of connection points: 2
#     Edge 20, Type (0, 0), BuildingBlock: CIFDUS_clean_linker_0, # of connection points: 2
#     Edge 21, Type (0, 0), BuildingBlock: CIFDUS_clean_linker_0, # of connection points: 2
#     Edge 22, Type (0, 0), BuildingBlock: CIFDUS_clean_linker_0, # of connection points: 2
#     Edge 23, Type (0, 0), BuildingBlock: CIFDUS_clean_linker_0, # of connection points: 2
#     Edge 24, Type (0, 0), BuildingBlock: CIFDUS_clean_linker_0, # of connection points: 2
#     Edge 25, Type (0, 0), BuildingBlock: CIFDUS_clean_linker_0, # of connection points: 2
#     Edge 26, Type (0, 0), BuildingBlock: CIFDUS_clean_linker_0, # of connection points: 2
#     Edge 27, Type (0, 0), BuildingBlock: CIFDUS_clean_linker_0, # of connection points: 2
#     Edge 28, Type (0, 0), BuildingBlock: CIFDUS_clean_linker_0, # of connection points: 2
#     Edge 29, Type (0, 0), BuildingBlock: CIFDUS_clean_linker_0, # of connection points: 2
#     Edge 30, Type (0, 0), BuildingBlock: CIFDUS_clean_linker_0, # of connection points: 2
#     Edge 31, Type (0, 0), BuildingBlock: CIFDUS_clean_linker_0, # of connection points: 2
#     Edge 32, Type (0, 0), BuildingBlock: CIFDUS_clean_linker_0, # of connection points: 2
#     Edge 33, Type (0, 0), BuildingBlock: CIFDUS_clean_linker_0, # of connection points: 2
#     Edge 34, Type (0, 0), BuildingBlock: CIFDUS_clean_linker_0, # of connection points: 2
#     Edge 35, Type (0, 0), BuildingBlock: CIFDUS_clean_linker_0, # of connection points: 2
# Relax obj value: 0.472
# Max RMSD: 0.272
# Mean RMSD: 0.177
data_MOF--net-snz--node1-INOVEN_clean_sbu_0--edge1-CIFDUS_clean_linker_0
_symmetry_space_group_name_H-M    P1
_symmetry_Int_Tables_number       1
_symmetry_cell_setting            triclinic
loop_
_symmetry_equiv_pos_as_xyz
'x, y, z'
_cell_length_a     61.135705
_cell_length_b     48.633653
_cell_length_c     14.289171
_cell_angle_alpha  96.684653
_cell_angle_beta   98.166746
_cell_angle_gamma 121.2034
loop_
_atom_site_label
_atom_site_type_symbol
_atom_site_fract_x
_atom_site_fract_y
_atom_site_fract_z
_atom_type_partial_charge
Gd0 Gd 0.13769 0.49587 0.23679 0.0
Gd1 Gd 0.10344 0.50531 0.24035 0.0
C2 C 0.07944 0.43214 0.15424 0.0
C3 C 0.16952 0.47483 0.25977 0.0
C4 C 0.1769 0.45567 0.31526 0.0
C5 C 0.20186 0.46077 0.32027 0.0
C6 C 0.15941 0.43154 0.35917 0.0
C7 C 0.19178 0.41747 0.41046 0.0
C8 C 0.16677 0.41266 0.40627 0.0
C9 C 0.2092 0.44197 0.36693 0.0
C10 C 0.13003 0.5084 1.04765 0.0
C11 C 0.15917 0.572 0.28171 0.0
C12 C 0.07104 0.52502 0.24079 0.0
C13 C 0.05674 0.53698 0.18401 0.0
C14 C 1.03227 0.51491 0.11814 0.0
C15 C 0.0662 0.57078 0.20431 0.0
C16 C 1.02664 0.56014 0.09706 0.0
C17 C 0.05138 0.58223 0.16123 0.0
C18 C 1.01742 0.52638 1.07496 0.0
C19 C 0.11263 0.49189 0.42802 0.0
O20 O 0.10219 0.44187 0.2118 0.0
O21 O 0.07607 0.45576 0.13862 0.0
O22 O 0.14671 0.4588 0.19846 0.0
O23 O 0.17521 0.50327 0.30557 0.0
O24 O 0.15202 0.51995 0.11011 0.0
O25 O 0.1118 0.49218 0.09266 0.0
O26 O 0.13425 0.5585 0.2415 0.0
O27 O 0.16646 0.55153 0.29794 0.0
O28 O 0.09653 0.54457 0.26927 0.0
O29 O 0.0634 0.49416 0.21657 0.0
O30 O 0.09065 0.4777 0.36344 0.0
O31 O 0.13001 0.5102 0.38335 0.0
H32 H 0.21563 0.47904 0.28632 0.0
H33 H 0.14001 0.42709 0.35629 0.0
H34 H 0.15285 0.39436 0.4396 0.0
H35 H 0.22838 0.44615 0.36646 0.0
H36 H 1.02426 0.48867 0.1017 0.0
H37 H 0.08473 0.58836 0.25616 0.0
H38 H 0.05892 0.60829 0.18114 0.0
H39 H 0.99857 0.50875 1.02501 0.0
Gd40 Gd 0.64501 0.51238 0.09116 0.0
Gd41 Gd 0.60425 0.51314 1.04456 0.0
C42 C 0.6543 0.58438 0.1063 0.0
C43 C 0.69216 0.52289 0.10829 0.0
C44 C 0.71499 0.53777 1.06177 0.0
C45 C 0.73306 0.57217 1.08045 0.0
C46 C 0.71995 0.5173 1.00296 0.0
C47 C 0.76034 0.5651 0.98232 0.0
C48 C 0.74218 0.53072 0.96368 0.0
C49 C 0.75537 0.58562 1.04124 0.0
C50 C 0.62656 0.50838 0.26619 0.0
C51 C 0.59364 0.4407 1.03696 0.0
C52 C 0.55781 0.5038 1.02899 0.0
C53 C 0.53962 0.49365 0.0938 0.0
C54 C 0.51625 0.49293 1.07121 0.0
C55 C 0.54549 0.48438 0.1786 0.0
C56 C 0.50447 0.47325 0.21711 0.0
C57 C 0.52806 0.4742 0.23955 0.0
C58 C 0.49883 0.48289 0.13242 0.0
C59 C 0.62271 0.51681 0.86931 0.0
O60 O 0.66353 0.5663 1.07977 0.0
O61 O 0.62959 0.56827 0.11091 0.0
O62 O 0.68716 0.54258 0.15651 0.0
O63 O 0.67062 0.49556 1.05952 0.0
O64 O 0.63585 0.49202 0.22971 0.0
O65 O 0.62639 0.52582 0.20417 0.0
O66 O 0.58402 0.45885 1.05669 0.0
O67 O 0.61865 0.45672 1.03511 0.0
O68 O 0.56178 0.48155 0.99139 0.0
O69 O 0.57966 0.53258 1.06091 0.0
O70 O 0.61348 0.53323 0.90558 0.0
O71 O 0.62273 0.49941 0.93161 0.0
H72 H 0.73015 0.5888 0.12618 0.0
H73 H 0.70678 0.49073 0.98836 0.0
H74 H 0.74541 0.51397 0.92023 0.0
H75 H 0.76864 0.61218 1.05667 0.0
H76 H 0.5114 0.49998 1.00602 0.0
H77 H 0.56356 0.48498 0.19755 0.0
H78 H 0.53318 0.46739 0.30479 0.0
H79 H 0.48073 0.48214 0.1126 0.0
Gd80 Gd 0.59762 0.05284 0.85584 0.0
Gd81 Gd 0.64206 0.10135 0.9155 0.0
C82 C 0.59814 0.11767 0.89921 0.0
C83 C 0.54781 1.0071 0.81866 0.0
C84 C 0.53021 0.99178 0.88291 0.0
C85 C 0.50291 0.97573 0.84906 0.0
C86 C 0.54075 0.9951 0.98049 0.0
C87 C 0.49676 0.96697 1.01057 0.0
C88 C 0.52419 0.9827 1.04357 0.0
C89 C 0.4863 0.96339 0.91225 0.0
C90 C 0.61651 0.06642 0.68156 0.0
C91 C 0.63585 0.03229 0.90965 0.0
C92 C 0.6931 0.14343 0.94021 0.0
C93 C 0.71658 0.14466 0.91389 0.0
C94 C 0.73018 0.16564 0.85439 0.0
C95 C 0.7267 0.12683 0.95153 0.0
C96 C 0.76314 0.15071 0.8695 0.0
C97 C 0.74956 0.12978 0.92965 0.0
C98 C 0.75296 0.1686 0.83255 0.0
C99 C 0.62399 0.08989 0.09053 0.0
O100 O 0.58567 0.08734 0.90949 0.0
O101 O 0.62243 0.13029 0.88895 0.0
O102 O 0.55676 0.03817 0.82384 0.0
O103 O 0.56615 1.00095 0.81767 0.0
O104 O 0.60555 0.03877 0.70924 0.0
O105 O 0.61947 0.08734 0.75522 0.0
O106 O 0.65026 0.06056 0.88581 0.0
O107 O 0.61266 0.02454 0.91945 0.0
O108 O 0.6824 0.12606 1.002 0.0
O109 O 0.67529 0.14081 0.87136 0.0
O110 O 0.63596 0.11774 1.06299 0.0
O111 O 0.61994 0.06786 1.01733 0.0
H112 H 0.49447 0.97332 0.77425 0.0
H113 H 0.56184 1.00771 1.00825 0.0
H114 H 0.53293 0.98552 0.11832 0.0
H115 H 0.46534 0.95188 0.88462 0.0
H116 H 0.72335 0.18019 0.82535 0.0
H117 H 0.71705 0.11064 0.99847 0.0
H118 H 0.75638 0.11529 0.95912 0.0
H119 H 0.76287 0.1855 0.78766 0.0
Gd120 Gd 0.79122 0.85086 0.2847 0.0
Gd121 Gd 0.7566 0.86257 0.29926 0.0
C122 C 0.73495 0.78613 0.25732 0.0
C123 C 0.82171 0.82843 0.28102 0.0
C124 C 0.83156 0.81128 0.33514 0.0
C125 C 0.85838 0.82799 0.38117 0.0
C126 C 0.81506 0.7776 0.33437 0.0
C127 C 0.85225 0.77752 0.42198 0.0
C128 C 0.82529 0.76093 0.37741 0.0
C129 C 0.86858 0.81137 0.42449 0.0
C130 C 0.77869 0.86254 0.09861 0.0
C131 C 0.81632 0.92552 0.36626 0.0
C132 C 0.72526 0.88437 0.28072 0.0
C133 C 0.71776 0.90319 0.22406 0.0
C134 C 0.69409 0.90092 0.22753 0.0
C135 C 0.73408 0.92434 0.17046 0.0
C136 C 0.7031 0.94108 0.12613 0.0
C137 C 0.72683 0.94309 0.12205 0.0
C138 C 0.68686 0.91957 0.17951 0.0
C139 C 0.76824 0.85191 0.48709 0.0
O140 O 0.76002 0.79925 0.29406 0.0
O141 O 0.72766 0.80672 0.24213 0.0
O142 O 0.79686 0.81159 0.23704 0.0
O143 O 0.83026 0.85885 0.32014 0.0
O144 O 0.80187 0.87493 0.15321 0.0
O145 O 0.76259 0.84673 0.15103 0.0
O146 O 0.79237 0.91602 0.32055 0.0
O147 O 0.82068 0.90214 0.37346 0.0
O148 O 0.74861 0.90055 0.33843 0.0
O149 O 0.71868 0.85527 0.2369 0.0
O150 O 0.74523 0.84168 0.43435 0.0
O151 O 0.78474 0.86618 0.43387 0.0
H152 H 0.87159 0.85385 0.38221 0.0
H153 H 0.79434 0.76383 0.29865 0.0
H154 H 0.81217 0.73483 0.3733 0.0
H155 H 0.88935 0.82509 0.45973 0.0
H156 H 0.68128 0.88501 0.26903 0.0
H157 H 0.75249 0.92656 0.16672 0.0
H158 H 0.73978 0.95906 1.08113 0.0
H159 H 0.66874 0.91768 0.18643 0.0
Gd160 Gd 0.28937 0.8447 0.49564 0.0
Gd161 Gd 0.25116 0.84664 0.46071 0.0
C162 C 0.30189 0.91803 0.51692 0.0
C163 C 0.33561 0.85371 0.50767 0.0
C164 C 0.35301 0.86272 0.44003 0.0
C165 C 0.3798 0.87507 0.47326 0.0
C166 C 0.34312 0.86032 0.34249 0.0
C167 C 0.38677 0.88258 0.3118 0.0
C168 C 0.35981 0.87003 0.27889 0.0
C169 C 0.39657 0.88496 0.40974 0.0
C170 C 0.27274 0.83817 0.67551 0.0
C171 C 0.24003 0.77386 0.43277 0.0
C172 C 0.20425 0.837 0.44279 0.0
C173 C 0.1814 0.82356 0.48819 0.0
C174 C 0.17528 0.79867 0.54039 0.0
C175 C 0.16484 0.83541 0.47615 0.0
C176 C 0.13649 0.79824 0.56883 0.0
C177 C 0.14271 0.82295 0.51562 0.0
C178 C 0.15301 0.78609 0.5801 0.0
C179 C 0.26816 0.85361 0.2818 0.0
O180 O 0.3105 0.89952 0.48805 0.0
O181 O 0.27743 0.90194 0.5253 0.0
O182 O 0.33201 0.87644 0.54381 0.0
O183 O 0.31368 0.82488 0.47978 0.0
O184 O 0.28 0.82118 0.62802 0.0
O185 O 0.27279 0.85753 0.62023 0.0
O186 O 0.23172 0.79214 0.46736 0.0
O187 O 0.26415 0.79013 0.42208 0.0
O188 O 0.20886 0.81621 0.39915 0.0
O189 O 0.22589 0.86423 0.49081 0.0
O190 O 0.26113 0.87084 0.32973 0.0
O191 O 0.26765 0.83387 0.33637 0.0
H192 H 0.38779 0.87727 0.54844 0.0
H193 H 0.32252 0.85123 0.31576 0.0
H194 H 0.3517 0.86832 0.20437 0.0
H195 H 0.41718 0.89426 0.43711 0.0
H196 H 0.18769 0.78898 0.55048 0.0
H197 H 0.16893 0.85431 0.43538 0.0
H198 H 0.13027 0.8325 0.50336 0.0
H199 H 0.14899 0.76724 0.62091 0.0
Gd200 Gd 0.25472 0.25871 0.63934 0.0
Gd201 Gd 0.29925 0.30818 0.6976 0.0
C202 C 0.25997 0.3281 0.63649 0.0
C203 C 0.20463 0.21685 0.63146 0.0
C204 C 0.17844 0.21348 0.61461 0.0
C205 C 0.15513 0.18206 0.58042 0.0
C206 C 0.17613 0.24035 0.64453 0.0
C207 C 0.12787 0.20405 0.61091 0.0
C208 C 0.15128 0.23572 0.64259 0.0
C209 C 0.13029 0.1774 0.57834 0.0
C210 C 0.27168 0.27012 0.46252 0.0
C211 C 0.29907 0.24387 0.6588 0.0
C212 C 0.34943 0.35297 0.73461 0.0
C213 C 0.36893 0.36516 0.67457 0.0
C214 C 0.38819 0.39898 0.69189 0.0
C215 C 0.36823 0.34337 0.59854 0.0
C216 C 0.40604 0.38903 0.55902 0.0
C217 C 0.38666 0.35517 0.54177 0.0
C218 C 0.40653 0.41085 0.63449 0.0
C219 C 0.28046 0.29389 0.87164 0.0
O220 O 0.24399 0.29738 0.64104 0.0
O221 O 0.28485 0.33903 0.64819 0.0
O222 O 0.21534 0.21648 0.55889 0.0
O223 O 0.22213 0.23818 0.70881 0.0
O224 O 0.25944 0.24214 0.48942 0.0
O225 O 0.27625 0.29237 0.53648 0.0
O226 O 0.3101 0.27294 0.6385 0.0
O227 O 0.27559 0.232 0.67648 0.0
O228 O 0.33987 0.32287 0.74494 0.0
O229 O 0.3313 0.35954 0.71922 0.0
O230 O 0.29056 0.32147 0.84339 0.0
O231 O 0.27837 0.2735 0.79839 0.0
H232 H 0.15616 0.16075 0.55844 0.0
H233 H 0.19361 0.2649 0.67222 0.0
H234 H 0.15048 0.25704 0.66682 0.0
H235 H 0.11301 0.15255 0.55447 0.0
H236 H 0.38902 0.41623 0.74985 0.0
H237 H 0.3534 0.31721 0.58259 0.0
H238 H 0.3855 0.33778 0.48336 0.0
H239 H 0.42132 0.43704 0.65001 0.0
Gd240 Gd 0.45929 0.19232 0.71656 0.0
Gd241 Gd 0.43612 0.16478 0.82905 0.0
C242 C 0.40861 0.19576 0.73442 0.0
C243 C 0.47256 0.21843 0.57097 0.0
C244 C 0.45715 0.2088 0.47334 0.0
C245 C 0.47399 0.22759 0.3803 0.0
C246 C 0.42067 0.17918 0.44689 0.0
C247 C 0.41685 0.18917 0.22419 0.0
C248 C 0.39959 0.16777 0.32469 0.0
C249 C 0.45596 0.21922 0.25615 0.0
C250 C 0.48814 0.24027 0.88342 0.0
C251 C 0.4887 0.16551 0.82653 0.0
C252 C 0.41528 0.13008 0.95273 0.0
C253 C 0.42314 0.12875 1.05072 0.0
C254 C 0.39787 0.10164 0.1133 0.0
C255 C 0.45798 0.1572 0.11302 0.0
C256 C 0.44455 0.13085 0.31083 0.0
C257 C 0.47026 0.16019 0.24024 0.0
C258 C 0.40697 0.10202 0.2429 0.0
C259 C 0.40813 0.11868 0.65692 0.0
O260 O 0.42208 0.19341 0.67333 0.0
O261 O 0.41283 0.18874 0.81782 0.0
O262 O 0.46379 0.22871 0.63471 0.0
O263 O 0.47832 0.19781 0.59727 0.0
O264 O 0.49739 0.22936 0.8246 0.0
O265 O 0.46297 0.22113 0.86076 0.0
O266 O 0.47448 0.16748 0.88511 0.0
O267 O 0.48428 0.17099 0.74057 0.0
O268 O 0.4263 0.12264 0.89217 0.0
O269 O 0.4158 0.1567 0.94339 0.0
O270 O 0.39894 0.13133 0.71035 0.0
O271 O 0.43316 0.13651 0.68611 0.0
H272 H 0.49508 0.24505 0.40022 0.0
H273 H 0.41146 0.16834 0.5031 0.0
H274 H 0.37837 0.15331 0.31273 0.0
H275 H 0.46594 0.23339 0.20573 0.0
H276 H 0.37757 0.08536 1.07319 0.0
H277 H 0.47173 0.17247 1.07327 0.0
H278 H 0.49122 0.17452 0.27238 0.0
H279 H 0.39276 0.08395 0.27589 0.0
Gd280 Gd 0.95064 0.16241 0.8311 0.0
Gd281 Gd 0.94573 0.19391 0.70031 0.0
C282 C 0.90035 0.1693 0.80935 0.0
C283 C 0.95907 0.13953 0.97724 0.0
C284 C 0.98407 0.14967 1.04304 0.0
C285 C 1.00768 0.16487 1.0119 0.0
C286 C 0.9851 0.1491 0.14106 0.0
C287 C 0.0329 0.18586 0.17897 0.0
C288 C 1.00936 0.16674 0.20854 0.0
C289 C 1.03196 0.1831 1.0795 0.0
C290 C 0.92038 0.11707 0.65729 0.0
C291 C 0.9962 0.18869 0.72504 0.0
C292 C 0.94832 0.22309 0.55878 0.0
C293 C 0.97244 0.2492 0.53758 0.0
C294 C 0.97276 0.2538 0.44302 0.0
C295 C 0.99624 0.26585 0.60893 0.0
C296 C 1.02083 0.28599 0.48655 0.0
C297 C 1.02026 0.28429 0.58374 0.0
C298 C 0.99676 0.27223 0.41771 0.0
C299 C 0.97575 0.23928 0.8739 0.0
O300 O 0.91775 0.16774 0.87131 0.0
O301 O 0.90491 0.17441 0.7237 0.0
O302 O 0.95265 0.16137 0.98361 0.0
O303 O 0.95552 0.12598 0.88765 0.0
O304 O 0.94084 0.12027 0.71033 0.0
O305 O 0.91803 0.14018 0.69401 0.0
O306 O 0.97771 0.18636 0.65846 0.0
O307 O 0.99205 0.18704 0.81204 0.0
O308 O 0.94308 0.23112 0.6389 0.0
O309 O 0.94569 0.19443 0.54861 0.0
O310 O 0.95539 0.23606 0.82021 0.0
O311 O 0.97815 0.21618 0.83737 0.0
H312 H 1.00742 0.16483 0.93615 0.0
H313 H 0.96715 0.13735 0.16644 0.0
H314 H 1.00934 0.16858 0.28482 0.0
H315 H 0.04972 0.19757 1.05477 0.0
H316 H 0.95461 0.24104 0.38711 0.0
H317 H 0.99636 0.2625 0.68264 0.0
H318 H 0.03835 0.29463 0.63844 0.0
H319 H 0.99629 0.27256 0.34182 0.0
Gd320 Gd 0.93557 0.65242 0.70081 0.0
Gd321 Gd 0.96175 0.71306 0.84283 0.0
C322 C 0.9986 0.70659 0.72388 0.0
C323 C 0.91977 0.60903 0.5425 0.0
C324 C 0.93595 0.60374 0.48489 0.0
C325 C 0.95972 0.60816 0.53231 0.0
C326 C 0.93135 0.60299 0.38537 0.0
C327 C 0.97673 0.621 0.38951 0.0
C328 C 0.95168 0.6115 0.33765 0.0
C329 C 0.97994 0.61651 0.48444 0.0
C330 C 0.95858 0.64795 0.87011 0.0
C331 C 0.90079 0.65648 0.83779 0.0
C332 C 0.98401 0.7615 0.99293 0.0
C333 C 1.00877 0.7758 1.06555 0.0
C334 C 1.00925 0.78455 0.16272 0.0
C335 C 1.02896 0.77242 1.04237 0.0
C336 C 0.04361 0.77411 0.21108 0.0
C337 C 0.04661 0.77208 0.11521 0.0
C338 C 1.02672 0.78402 0.23537 0.0
C339 C 0.93906 0.71613 0.67009 0.0
O340 O 0.97609 0.68228 0.66448 0.0
O341 O 0.99853 0.71954 0.80953 0.0
O342 O 0.92054 0.60212 0.62815 0.0
O343 O 0.92197 0.63733 0.54426 0.0
O344 O 0.93506 0.62557 0.81899 0.0
O345 O 0.96836 0.67235 0.83102 0.0
O346 O 0.92357 0.68241 0.89034 0.0
O347 O 0.89936 0.64203 0.75106 0.0
O348 O 0.96616 0.73117 0.99419 0.0
O349 O 0.9859 0.76573 0.90523 0.0
O350 O 0.9624 0.73851 0.72084 0.0
O351 O 0.92868 0.69287 0.71285 0.0
H352 H 0.96384 0.60889 0.60917 0.0
H353 H 0.9132 0.59968 0.34754 0.0
H354 H 0.94882 0.61497 0.26439 0.0
H355 H 0.99909 0.62349 0.52516 0.0
H356 H 0.994 0.78765 0.18192 0.0
H357 H 1.02933 0.76638 0.96753 0.0
H358 H 0.06011 0.76579 0.09443 0.0
H359 H 1.02395 0.78649 0.30829 0.0
H360 H 0.08782 0.47114 0.8634 0.0
H361 H 0.17078 0.54515 0.96345 0.0
H362 H 0.17427 0.54776 0.79635 0.0
H363 H 0.15467 0.52965 0.61245 0.0
H364 H 0.07181 0.4552 0.51226 0.0
H365 H 0.06825 0.45284 0.67939 0.0
C366 C 0.10683 0.48812 0.85024 0.0
C367 C 0.12905 0.5081 0.93374 0.0
C368 C 0.10906 0.48961 0.74879 0.0
C369 C 0.15296 0.5292 0.90675 0.0
C370 C 0.1551 0.53078 0.80843 0.0
C371 C 0.13565 0.51268 0.62559 0.0
C372 C 0.11348 0.49254 0.54203 0.0
C373 C 0.13342 0.51116 0.72702 0.0
C374 C 0.08959 0.47132 0.56897 0.0
C375 C 0.08741 0.46987 0.66733 0.0
H376 H 0.61389 0.54559 0.71161 0.0
H377 H 0.63558 0.47648 0.76392 0.0
H378 H 0.63855 0.46796 0.5944 0.0
H379 H 0.63525 0.47942 0.42371 0.0
H380 H 0.61337 0.54835 0.37125 0.0
H381 H 0.6104 0.55686 0.54075 0.0
C382 C 0.6193 0.5285 0.68724 0.0
C383 C 0.62444 0.51184 0.75747 0.0
C384 C 0.62102 0.52343 0.58536 0.0
C385 C 0.63136 0.49005 0.71751 0.0
C386 C 0.6331 0.48508 0.61808 0.0
C387 C 0.6298 0.49646 0.44806 0.0
C388 C 0.62468 0.51315 0.37787 0.0
C389 C 0.62802 0.50149 0.54988 0.0
C390 C 0.61765 0.53483 0.41772 0.0
C391 C 0.6159 0.53979 0.51712 0.0
H392 H 0.63078 0.11915 0.56699 0.0
H393 H 0.60349 0.01631 0.52821 0.0
H394 H 0.60256 1.01252 0.35582 0.0
H395 H 0.60932 0.0373 0.20489 0.0
H396 H 0.63684 0.14018 0.24349 0.0
H397 H 0.63758 0.14397 0.41588 0.0
C398 C 0.62458 0.09564 0.52218 0.0
C399 C 0.61716 0.06793 0.56874 0.0
C400 C 0.62403 0.09325 0.41714 0.0
C401 C 0.6094 0.03852 0.5016 0.0
C402 C 0.60883 0.03618 0.39983 0.0
C403 C 0.61553 0.06081 0.24969 0.0
C404 C 0.62307 0.08854 0.20317 0.0
C405 C 0.61606 0.06321 0.35466 0.0
C406 C 0.63084 0.11797 0.27018 0.0
C407 C 0.6313 0.1203 0.37191 0.0
H408 H 0.73387 0.83004 0.62012 0.0
H409 H 0.81662 0.88422 0.6268 0.0
H410 H 0.82687 0.89227 0.8043 0.0
H411 H 0.81319 0.8846 0.9657 0.0
H412 H 0.73041 0.83003 0.95869 0.0
H413 H 0.72019 0.82213 0.78128 0.0
C414 C 0.75433 0.84368 0.65924 0.0
C415 C 0.77427 0.8563 0.60319 0.0
C416 C 0.76038 0.84842 0.76564 0.0
C417 C 0.80037 0.8738 0.66177 0.0
C418 C 0.80635 0.87853 0.7658 0.0
C419 C 0.79274 0.8709 0.92652 0.0
C420 C 0.77277 0.85814 0.98248 0.0
C421 C 0.78669 0.86609 0.82007 0.0
C422 C 0.74668 0.84053 0.92379 0.0
C423 C 0.74071 0.83589 0.81982 0.0
H424 H 0.26651 0.8787 0.83179 0.0
H425 H 0.27761 0.79806 0.7865 0.0
H426 H 0.27763 0.79443 0.95526 0.0
H427 H 0.27452 0.81323 0.12572 0.0
H428 H 0.26342 0.89386 0.17102 0.0
H429 H 0.26346 0.89754 1.00231 0.0
C430 C 0.26894 0.86012 0.85735 0.0
C431 C 0.27211 0.83865 0.78865 0.0
C432 C 0.26895 0.85783 0.9599 0.0
C433 C 0.27514 0.81534 0.83127 0.0
C434 C 0.27515 0.81311 0.93068 0.0
C435 C 0.27207 0.83178 0.10013 0.0
C436 C 0.26886 0.85321 0.16877 0.0
C437 C 0.27209 0.83409 0.99761 0.0
C438 C 0.26588 0.87658 0.12624 0.0
C439 C 0.26591 0.87884 1.02686 0.0
H440 H 0.26652 0.24128 0.98699 0.0
H441 H 0.29267 0.34373 1.02446 0.0
H442 H 0.29313 0.34744 0.19648 0.0
H443 H 0.28623 0.3227 0.34756 0.0
H444 H 0.25966 0.22014 0.31014 0.0
H445 H 0.25948 0.21647 0.13819 0.0
C446 C 0.27239 0.26469 1.03142 0.0
C447 C 0.27966 0.29232 0.98449 0.0
C448 C 0.27262 0.26703 0.1363 0.0
C449 C 0.28693 0.32158 1.05125 0.0
C450 C 0.28722 0.32388 0.15286 0.0
C451 C 0.28037 0.29928 0.30318 0.0
C452 C 0.27292 0.27161 0.35 0.0
C453 C 0.28014 0.29693 0.19834 0.0
C454 C 0.26556 0.24231 0.28332 0.0
C455 C 0.26543 0.24005 0.1818 0.0
H456 H 0.39867 0.15244 1.08243 0.0
H457 H 0.4124 0.2418 0.28322 0.0
H458 H 0.43835 0.23878 0.43638 0.0
H459 H 0.44966 0.15564 0.46154 0.0
H460 H 0.45277 0.08175 0.24958 0.0
H461 H 0.4338 0.09122 0.09204 0.0
C462 C 0.4121 0.1677 0.15622 0.0
C463 C 0.40658 0.19822 0.17913 0.0
C464 C 0.42964 0.15297 0.20995 0.0
C465 C 0.41712 0.22312 0.27685 0.0
C466 C 0.43362 0.2217 0.36814 0.0
C467 C 0.44715 0.1504 0.38054 0.0
C468 C 0.45245 0.11969 0.35758 0.0
C469 C 0.43887 0.17359 0.32114 0.0
C470 C 0.44852 0.10085 0.2557 0.0
C471 C 0.43787 0.10764 0.16079 0.0
H472 H 0.05369 0.2663 0.54496 0.0
H473 H 0.04112 0.3198 0.34625 0.0
H474 H 0.05771 0.29949 0.22929 0.0
H475 H 0.05535 0.24901 0.16414 0.0
H476 H 0.05986 0.18926 0.35611 0.0
H477 H 0.06921 0.23102 0.49609 0.0
C478 C 0.056 0.27519 0.47857 0.0
C479 C 0.04449 0.29264 0.45118 0.0
C480 C 0.06366 0.26138 0.40896 0.0
C481 C 0.04868 0.305 0.3668 0.0
C482 C 0.05793 0.29307 0.29934 0.0
C483 C 0.05991 0.24598 0.23697 0.0
C484 C 0.05522 0.2153 0.2503 0.0
C485 C 0.06236 0.26827 0.31566 0.0
C486 C 0.06231 0.21221 0.34451 0.0
C487 C 0.06706 0.23573 0.4243 0.0
H488 H 1.0091 0.68356 0.48047 0.0
H489 H 0.99376 0.61409 0.22521 0.0
H490 H 1.02376 0.65997 0.15768 0.0
H491 H 0.04243 0.71764 0.15364 0.0
H492 H 0.05757 0.78707 0.41072 0.0
H493 H 0.03901 0.74259 0.49506 0.0
C494 C 1.01378 0.67834 0.41314 0.0
C495 C 0.99987 0.64569 0.35897 0.0
C496 C 1.03017 0.70456 0.37376 0.0
C497 C 1.00448 0.63911 0.26829 0.0
C498 C 1.02138 0.66522 0.22946 0.0
C499 C 0.04349 0.72379 0.23022 0.0
C500 C 0.04971 0.75538 0.27382 0.0
C501 C 0.0329 0.69801 0.27894 0.0
C502 C 0.05168 0.76266 0.37393 0.0
C503 C 0.04116 0.73718 0.42275 0.0
H504 H 0.20923 0.30966 0.55675 0.0
H505 H 0.28892 0.39458 0.65519 0.0
H506 H 0.27474 0.42963 0.59953 0.0
H507 H 0.24036 0.43621 0.51638 0.0
H508 H 0.16088 0.3513 0.40982 0.0
H509 H 0.17419 0.31674 0.47671 0.0
C510 C 0.22342 0.3359 0.56707 0.0
C511 C 0.25018 0.34934 0.61023 0.0
C512 C 0.21518 0.35608 0.5331 0.0
C513 C 0.26826 0.38342 0.6221 0.0
C514 C 0.26017 0.40357 0.59009 0.0
C515 C 0.22588 0.41011 0.50698 0.0
C516 C 0.1996 0.39661 0.45705 0.0
C517 C 0.23378 0.39013 0.54407 0.0
C518 C 0.18117 0.36274 0.4484 0.0
C519 C 0.18883 0.34278 0.48614 0.0
H520 H 0.6415 0.63198 0.13648 0.0
H521 H 0.70787 0.62239 0.13879 0.0
H522 H 0.7379 0.68217 0.18756 0.0
H523 H 0.74615 0.73807 0.2303 0.0
H524 H 0.68045 0.7492 0.21996 0.0
H525 H 0.64991 0.68896 0.17437 0.0
C526 C 0.66252 0.64291 0.14739 0.0
C527 C 0.67208 0.62191 0.13349 0.0
C528 C 0.68009 0.67807 0.17462 0.0
C529 C 0.69956 0.63722 0.14808 0.0
C530 C 0.71693 0.67172 0.17647 0.0
C531 C 0.72516 0.72746 0.2187 0.0
C532 C 0.71593 0.7488 0.23007 0.0
C533 C 0.70754 0.69252 0.19024 0.0
C534 C 0.68844 0.73394 0.21258 0.0
C535 C 0.67086 0.69924 0.18626 0.0
H536 H 0.44811 0.91023 0.97747 0.0
H537 H 0.50598 0.99751 0.19826 0.0
H538 H 0.47759 0.97871 0.31111 0.0
H539 H 0.43586 0.93817 0.34647 0.0
H540 H 0.37754 0.85149 0.12502 0.0
H541 H 0.40629 0.86976 1.01267 0.0
C542 C 0.45444 0.9253 1.04998 0.0
C543 C 0.47926 0.95521 1.0791 0.0
C544 C 0.43785 0.91454 0.11442 0.0
C545 C 0.48722 0.97412 0.17406 0.0
C546 C 0.4709 0.96351 0.23862 0.0
C547 C 0.42955 0.92311 0.27394 0.0
C548 C 0.40458 0.89349 0.24433 0.0
C549 C 0.44617 0.93378 0.20961 0.0
C550 C 0.39654 0.87455 0.14945 0.0
C551 C 0.41302 0.88491 1.08525 0.0
H552 H 0.55693 0.108 0.97765 0.0
H553 H 0.60444 0.16388 0.79189 0.0
H554 H 0.57512 0.1834 0.75201 0.0
H555 H 0.53395 0.18197 0.76229 0.0
H556 H 0.4889 0.12941 0.95895 0.0
H557 H 0.51897 0.11144 1.00161 0.0
C558 C 0.56121 0.12493 0.92964 0.0
C559 C 0.58315 0.13441 0.88817 0.0
C560 C 0.54433 0.13642 0.9079 0.0
C561 C 0.58809 0.15637 0.82607 0.0
C562 C 0.57107 0.16732 0.80246 0.0
C563 C 0.53078 0.16674 0.81495 0.0
C564 C 0.50875 0.15685 0.8564 0.0
C565 C 0.54881 0.1571 0.84159 0.0
C566 C 0.50544 0.13746 0.92551 0.0
C567 C 0.5227 0.12707 0.94995 0.0
H568 H 0.97551 0.29513 0.92284 0.0
H569 H 1.02632 0.25891 0.96834 0.0
H570 H 0.06262 0.31412 1.06154 0.0
H571 H 0.08069 0.37444 0.12715 0.0
H572 H 1.02847 0.40862 1.07362 0.0
H573 H 0.99263 0.35327 0.9888 0.0
C574 C 0.99444 0.29907 0.95361 0.0
C575 C 0.99786 0.27239 0.93776 0.0
C576 C 1.01533 0.33106 1.00655 0.0
C577 C 1.0228 0.27858 0.97875 0.0
C578 C 0.04369 0.31038 1.03226 0.0
C579 C 0.06143 0.36974 0.09762 0.0
C580 C 0.05772 0.39642 0.10773 0.0
C581 C 0.04035 0.33711 1.04639 0.0
C582 C 1.03239 0.38925 1.06764 0.0
C583 C 1.01164 0.35731 1.01863 0.0
H584 H 0.85021 0.60483 0.75018 0.0
H585 H 0.89689 0.67919 1.01538 0.0
H586 H 0.85805 0.65822 1.08234 0.0
H587 H 0.81077 0.61803 1.06774 0.0
H588 H 0.764 0.54414 0.80167 0.0
H589 H 0.80275 0.56543 0.73425 0.0
C590 C 0.85194 0.61653 0.8226 0.0
C591 C 0.87668 0.64365 0.87731 0.0
C592 C 0.82939 0.60429 0.86115 0.0
C593 C 0.87829 0.65835 0.97111 0.0
C594 C 0.85599 0.64633 1.00974 0.0
C595 C 0.80892 0.60674 0.99458 0.0
C596 C 0.78425 0.57924 0.94054 0.0
C597 C 0.83141 0.61925 0.95562 0.0
C598 C 0.78262 0.56489 0.84615 0.0
C599 C 0.80483 0.57721 0.80705 0.0
H600 H 0.94257 0.59384 0.94659 0.0
H601 H 1.012 0.6795 0.90656 0.0
H602 H 0.03879 0.65879 0.96668 0.0
H603 H 0.04255 0.6161 1.029 0.0
H604 H 0.9736 0.5315 1.07597 0.0
H605 H 0.94665 0.55197 1.01472 0.0
C606 C 0.96363 0.60818 0.95256 0.0
C607 C 0.97523 0.63813 0.92214 0.0
C608 C 0.979 0.59617 0.98757 0.0
C609 C 1.00255 0.65643 0.92986 0.0
C610 C 1.01787 0.64442 0.96317 0.0
C611 C 1.02165 0.60217 1.02621 0.0
C612 C 1.01015 0.57221 1.05673 0.0
C613 C 1.00629 0.61424 0.9918 0.0
C614 C 0.98294 0.55437 1.05159 0.0
C615 C 0.96753 0.56619 1.0173 0.0
H616 H 0.53974 0.39674 1.0302 0.0
H617 H 0.60912 0.3982 0.99252 0.0
H618 H 0.58361 0.33815 0.94982 0.0
H619 H 0.54143 0.28438 0.91578 0.0
H620 H 0.47122 0.28077 0.9505 0.0
H621 H 0.49693 0.34138 1.00222 0.0
C622 C 0.54938 0.384 1.01323 0.0
C623 C 0.5768 0.40293 1.015 0.0
C624 C 0.53428 0.34854 0.98805 0.0
C625 C 0.5884 0.38517 0.9923 0.0
C626 C 0.57368 0.35044 0.96758 0.0
C627 C 0.53162 0.29663 0.93579 0.0
C628 C 0.50407 0.27723 0.92921 0.0
C629 C 0.54659 0.33176 0.96438 0.0
C630 C 0.4922 0.29435 0.95534 0.0
C631 C 0.50702 0.32932 0.98438 0.0
H632 H 0.85955 0.16865 0.69606 0.0
H633 H 0.88535 0.15967 0.98134 0.0
H634 H 0.84577 0.15274 1.0248 0.0
H635 H 0.80369 0.14997 0.98323 0.0
H636 H 0.77786 0.15805 0.69629 0.0
H637 H 0.81726 0.16478 0.65357 0.0
C638 C 0.85659 0.16516 0.76785 0.0
C639 C 0.87575 0.16477 0.83509 0.0
C640 C 0.83358 0.16113 0.7927 0.0
C641 C 0.87121 0.16013 0.92764 0.0
C642 C 0.84844 0.15615 0.95273 0.0
C643 C 0.80646 0.1529 0.91096 0.0
C644 C 0.78747 0.15375 0.84383 0.0
C645 C 0.82942 0.15663 0.886 0.0
C646 C 0.79201 0.15793 0.75088 0.0
C647 C 0.81463 0.16158 0.72581 0.0
H648 H 0.68691 0.04844 0.96897 0.0
H649 H 0.60585 0.96695 0.90293 0.0
H650 H 0.61947 0.93133 0.95764 0.0
H651 H 0.65386 0.92371 1.0333 0.0
H652 H 0.73501 1.00533 0.1092 0.0
H653 H 0.72202 0.03996 1.04037 0.0
C654 C 0.67231 0.02277 0.9652 0.0
C655 C 0.64534 1.01049 0.93176 0.0
C656 C 0.68029 1.00233 0.99925 0.0
C657 C 0.6267 0.97718 0.92846 0.0
C658 C 0.63447 0.95672 0.96002 0.0
C659 C 0.66879 0.94912 1.03547 0.0
C660 C 0.69543 0.96173 1.0776 0.0
C661 C 0.66113 0.96915 0.99743 0.0
C662 C 0.71439 0.99462 1.07689 0.0
C663 C 0.70694 1.01462 1.038 0.0
H664 H 0.25256 0.72615 0.40023 0.0
H665 H 0.18647 0.73606 0.40195 0.0
H666 H 0.15629 0.67621 0.35344 0.0
H667 H 0.14785 0.62009 0.30966 0.0
H668 H 0.21354 0.60898 0.31856 0.0
H669 H 0.24407 0.66919 0.36296 0.0
C670 C 0.23156 0.71528 0.39011 0.0
C671 C 0.22211 0.73634 0.40493 0.0
C672 C 0.21395 0.68012 0.3636 0.0
C673 C 0.19467 0.72113 0.39175 0.0
C674 C 0.17722 0.6866 0.36356 0.0
C675 C 0.16884 0.63071 0.32097 0.0
C676 C 0.17809 0.60937 0.30947 0.0
C677 C 0.18651 0.6657 0.34905 0.0
C678 C 0.20556 0.62424 0.32625 0.0
C679 C 0.22314 0.65893 0.3518 0.0
H680 H 0.48887 0.42073 0.30183 0.0
H681 H 0.47794 0.5006 0.27677 0.0
H682 H 0.44694 0.48204 0.38119 0.0
H683 H 0.42255 0.44272 0.47867 0.0
H684 H 0.43351 0.36283 0.50292 0.0
H685 H 0.46492 0.38187 0.40037 0.0
C686 C 0.4799 0.43427 0.31995 0.0
C687 C 0.48577 0.46205 0.28148 0.0
C688 C 0.46204 0.42341 0.37986 0.0
C689 C 0.47359 0.47895 0.30447 0.0
C690 C 0.45595 0.46845 0.36462 0.0
C691 C 0.432 0.42967 0.4622 0.0
C692 C 0.42565 0.40136 0.49841 0.0
C693 C 0.44998 0.44067 0.40262 0.0
C694 C 0.43781 0.38447 0.47519 0.0
C695 C 0.45586 0.39541 0.41684 0.0
H696 H 0.88795 0.69752 0.64861 0.0
H697 H 0.95746 0.75525 0.54418 0.0
H698 H 0.93595 0.77768 0.45203 0.0
H699 H 0.89892 0.78435 0.41236 0.0
H700 H 0.83059 0.73008 0.52703 0.0
H701 H 0.8499 0.70257 0.6029 0.0
C702 C 0.89811 0.71447 0.60397 0.0
C703 C 0.92417 0.72471 0.60259 0.0
C704 C 0.88595 0.7282 0.55409 0.0
C705 C 0.93734 0.74705 0.54589 0.0
C706 C 0.92512 0.75999 0.49375 0.0
C707 C 0.88828 0.76665 0.45441 0.0
C708 C 0.86344 0.75962 0.46468 0.0
C709 C 0.89972 0.75144 0.4995 0.0
C710 C 0.84968 0.73591 0.51737 0.0
C711 C 0.86076 0.72025 0.56123 0.0
H712 H 0.35509 0.07473 0.63719 0.0
H713 H 0.42377 0.07734 0.58518 0.0
H714 H 0.39772 0.01669 0.53626 0.0
H715 H 0.35512 0.9616 0.5143 0.0
H716 H 0.28739 0.96096 0.57091 0.0
H717 H 0.31313 0.02107 0.61159 0.0
C718 C 0.36449 0.06225 0.61419 0.0
C719 C 0.39173 0.08141 0.61497 0.0
C720 C 0.34936 0.02706 0.58747 0.0
C721 C 0.40306 0.06395 0.58515 0.0
C722 C 0.38805 0.02896 0.55754 0.0
C723 C 0.34589 0.97453 0.53513 0.0
C724 C 0.31887 0.95582 0.53911 0.0
C725 C 0.36114 1.01 0.55938 0.0
C726 C 0.3078 0.97383 0.56675 0.0
C727 C 0.32265 1.00858 0.59024 0.0
H728 H 1.00795 0.16169 0.57306 0.0
H729 H 0.04376 0.23383 0.84406 0.0
H730 H 0.08718 0.24601 0.83152 0.0
H731 H 0.11521 0.23466 0.74843 0.0
H732 H 0.07978 0.16059 0.48129 0.0
H733 H 0.03652 0.1502 0.48902 0.0
C734 C 1.02532 0.18032 0.62862 0.0
C735 C 1.02249 0.19707 0.70903 0.0
C736 C 0.05047 0.18646 0.6228 0.0
C737 C 0.04525 0.22066 0.78125 0.0
C738 C 0.07018 0.2276 0.77429 0.0
C739 C 0.09817 0.21654 0.6909 0.0
C740 C 0.10122 0.19859 0.61421 0.0
C741 C 0.07309 0.21046 0.69598 0.0
C742 C 0.0784 0.17466 0.54209 0.0
C743 C 0.05348 0.16873 0.54617 0.0
H744 H 0.36412 0.18105 0.80294 0.0
H745 H 0.40882 0.23247 0.60388 0.0
H746 H 0.37904 0.25081 0.56127 0.0
H747 H 0.34093 0.25408 0.58334 0.0
H748 H 0.29376 0.19941 0.77174 0.0
H749 H 0.32328 0.18039 0.81408 0.0
C750 C 0.36733 0.19622 0.75011 0.0
C751 C 0.38915 0.20559 0.70775 0.0
C752 C 0.34943 0.20605 0.72331 0.0
C753 C 0.39248 0.22487 0.63824 0.0
C754 C 0.37536 0.23543 0.61367 0.0
C755 C 0.33682 0.23762 0.63274 0.0
C756 C 0.31484 0.22825 0.67389 0.0
C757 C 0.35382 0.22637 0.65592 0.0
C758 C 0.31014 0.20687 0.7378 0.0
C759 C 0.32726 0.19616 0.76275 0.0
H760 H 0.81464 0.98251 0.40736 0.0
H761 H 0.8682 0.94961 0.43256 0.0
H762 H 0.90427 1.00471 0.51871 0.0
H763 H 0.92125 0.06228 0.59454 0.0
H764 H 0.86907 0.09699 0.57429 0.0
H765 H 0.83259 0.04218 0.47974 0.0
C766 C 0.83424 0.98745 0.43077 0.0
C767 C 0.83825 0.96118 0.41248 0.0
C768 C 0.85547 0.01991 0.48232 0.0
C769 C 0.86403 0.96866 0.44485 0.0
C770 C 0.88492 1.00046 0.49469 0.0
C771 C 0.90197 0.05807 0.56898 0.0
C772 C 0.89823 0.08422 0.59232 0.0
C773 C 0.88094 0.02626 0.51499 0.0
C774 C 0.87285 0.07774 0.55785 0.0
C775 C 0.85184 0.04616 0.50372 0.0
H776 H 0.0379 0.76972 0.73765 0.0
H777 H 1.01756 0.66981 0.66012 0.0
H778 H 0.05933 0.68905 0.61183 0.0
H779 H 0.10018 0.73446 0.57935 0.0
H780 H 0.11988 0.83444 0.65842 0.0
H781 H 0.08005 0.81518 0.71763 0.0
C782 C 0.04271 0.75223 0.7104 0.0
C783 C 1.02428 0.71826 0.69843 0.0
C784 C 0.06676 0.7636 0.68303 0.0
C785 C 1.03102 0.69592 0.66589 0.0
C786 C 0.05504 0.70702 0.6394 0.0
C787 C 0.09602 0.75211 0.61104 0.0
C788 C 0.11303 0.78593 0.61269 0.0
C789 C 0.07285 0.74081 0.64544 0.0
C790 C 0.107 0.80825 0.65369 0.0
C791 C 0.08425 0.79728 0.68847 0.0
loop_
_geom_bond_atom_site_label_1
_geom_bond_atom_site_label_2
_geom_bond_distance
_geom_bond_site_symmetry_2
_ccdc_geom_bond_type
Gd0 C3 2.818 . S
Gd0 O20 2.377 . S
Gd0 O22 2.448 . S
Gd0 O23 2.506 . S
Gd0 O24 2.435 1_554 S
Gd0 O25 2.717 1_554 S
Gd0 O27 2.395 . S
Gd0 O31 2.327 . S
Gd1 C12 2.804 1_455 S
Gd1 O21 2.395 . S
Gd1 O25 2.327 1_554 S
Gd1 O26 2.377 . S
Gd1 O28 2.448 1_455 S
Gd1 O29 2.506 1_554 S
Gd1 O30 2.435 . S
Gd1 O31 2.717 . S
C2 O20 1.240 . S
C2 O21 1.240 . S
C3 Gd0 2.818 . S
C3 C4 1.510 . S
C3 O22 1.249 . S
C3 O23 1.252 . S
C4 C3 1.510 . S
C4 C5 1.404 . S
C4 C6 1.352 . S
C5 C4 1.404 . S
C5 C9 1.389 . S
C5 H32 0.930 . S
C6 C4 1.352 . S
C6 C8 1.374 . S
C6 H33 0.931 . S
C7 C8 1.359 . S
C7 C9 1.364 . S
C8 C6 1.374 . S
C8 C7 1.359 . S
C8 H34 0.931 . S
C9 C5 1.389 . S
C9 C7 1.364 . S
C9 H35 0.931 . S
C10 O24 1.256 . S
C10 O25 1.257 . S
C11 O26 1.240 . S
C11 O27 1.240 . S
C12 Gd1 2.804 1_655 S
C12 C13 1.524 . S
C12 O28 1.251 . S
C12 O29 1.236 1_654 S
C13 C12 1.524 . S
C13 C14 1.404 . S
C13 C15 1.352 1_654 S
C14 C13 1.404 . S
C14 C18 1.389 . S
C14 H36 0.930 . S
C15 C13 1.352 1_456 S
C15 C17 1.374 1_455 S
C15 H37 0.931 . S
C16 C17 1.359 . S
C16 C18 1.364 1_556 S
C17 C15 1.374 1_655 S
C17 C16 1.359 . S
C17 H38 0.929 1_655 S
C18 C14 1.389 . S
C18 C16 1.364 1_554 S
C18 H39 0.931 . S
C19 O30 1.256 . S
C19 O31 1.257 . S
O20 Gd0 2.377 . S
O20 C2 1.240 . S
O21 Gd1 2.395 . S
O21 C2 1.240 . S
O22 Gd0 2.448 . S
O22 C3 1.249 . S
O23 Gd0 2.506 . S
O23 C3 1.252 . S
O24 Gd0 2.435 1_556 S
O24 C10 1.256 . S
O25 Gd0 2.717 1_556 S
O25 Gd1 2.327 1_556 S
O25 C10 1.257 . S
O26 Gd1 2.377 . S
O26 C11 1.240 . S
O27 Gd0 2.395 . S
O27 C11 1.240 . S
O28 Gd1 2.448 1_655 S
O28 C12 1.251 . S
O29 Gd1 2.506 1_556 S
O29 C12 1.236 1_456 S
O30 Gd1 2.435 . S
O30 C19 1.256 . S
O31 Gd0 2.327 . S
O31 Gd1 2.717 . S
O31 C19 1.257 . S
H32 C5 0.930 . S
H33 C6 0.931 . S
H34 C8 0.931 . S
H35 C9 0.931 . S
H36 C14 0.930 . S
H37 C15 0.931 . S
H38 C17 0.929 1_455 S
H39 C18 0.931 . S
Gd40 C43 2.818 . S
Gd40 O60 2.377 . S
Gd40 O62 2.448 . S
Gd40 O63 2.506 . S
Gd40 O64 2.435 . S
Gd40 O65 2.717 . S
Gd40 O67 2.395 . S
Gd40 O71 2.327 . S
Gd41 C52 2.818 . S
Gd41 O61 2.395 . S
Gd41 O65 2.327 . S
Gd41 O66 2.377 . S
Gd41 O68 2.448 . S
Gd41 O69 2.506 . S
Gd41 O70 2.435 1_554 S
Gd41 O71 2.717 . S
C42 O60 1.240 . S
C42 O61 1.240 . S
C43 Gd40 2.818 . S
C43 C44 1.510 . S
C43 O62 1.249 . S
C43 O63 1.252 . S
C44 C43 1.510 . S
C44 C45 1.404 . S
C44 C46 1.352 . S
C45 C44 1.404 . S
C45 C49 1.389 . S
C45 H72 0.930 . S
C46 C44 1.352 . S
C46 C48 1.374 . S
C46 H73 0.931 . S
C47 C48 1.359 . S
C47 C49 1.364 . S
C48 C46 1.374 . S
C48 C47 1.359 . S
C48 H74 0.931 . S
C49 C45 1.389 . S
C49 C47 1.364 . S
C49 H75 0.931 . S
C50 O64 1.256 . S
C50 O65 1.257 . S
C51 O66 1.240 . S
C51 O67 1.240 . S
C52 Gd41 2.818 . S
C52 C53 1.510 . S
C52 O68 1.249 . S
C52 O69 1.252 . S
C53 C52 1.510 . S
C53 C54 1.404 . S
C53 C55 1.352 . S
C54 C53 1.404 . S
C54 C58 1.389 . S
C54 H76 0.930 . S
C55 C53 1.352 . S
C55 C57 1.374 . S
C55 H77 0.931 . S
C56 C57 1.359 . S
C56 C58 1.364 . S
C57 C55 1.374 . S
C57 C56 1.359 . S
C57 H78 0.931 . S
C58 C54 1.389 . S
C58 C56 1.364 . S
C58 H79 0.931 . S
C59 O70 1.256 . S
C59 O71 1.257 1_556 S
O60 Gd40 2.377 . S
O60 C42 1.240 . S
O61 Gd41 2.395 . S
O61 C42 1.240 . S
O62 Gd40 2.448 . S
O62 C43 1.249 . S
O63 Gd40 2.506 . S
O63 C43 1.252 . S
O64 Gd40 2.435 . S
O64 C50 1.256 . S
O65 Gd40 2.717 . S
O65 Gd41 2.327 . S
O65 C50 1.257 . S
O66 Gd41 2.377 . S
O66 C51 1.240 . S
O67 Gd40 2.395 . S
O67 C51 1.240 . S
O68 Gd41 2.448 . S
O68 C52 1.249 . S
O69 Gd41 2.506 . S
O69 C52 1.252 . S
O70 Gd41 2.435 1_556 S
O70 C59 1.256 . S
O71 Gd40 2.327 . S
O71 Gd41 2.717 . S
O71 C59 1.257 1_554 S
H72 C45 0.930 . S
H73 C46 0.931 . S
H74 C48 0.931 . S
H75 C49 0.931 . S
H76 C54 0.930 . S
H77 C55 0.931 . S
H78 C57 0.931 . S
H79 C58 0.931 . S
Gd80 C83 2.818 . S
Gd80 O100 2.377 . S
Gd80 O102 2.448 . S
Gd80 O103 2.506 . S
Gd80 O104 2.435 1_554 S
Gd80 O105 2.717 . S
Gd80 O107 2.395 . S
Gd80 O111 2.327 . S
Gd81 C92 2.818 . S
Gd81 O101 2.395 . S
Gd81 O105 2.327 . S
Gd81 O106 2.377 . S
Gd81 O108 2.448 . S
Gd81 O109 2.506 . S
Gd81 O110 2.435 . S
Gd81 O111 2.717 . S
C82 O100 1.240 . S
C82 O101 1.240 . S
C83 Gd80 2.818 . S
C83 C84 1.510 . S
C83 O102 1.249 . S
C83 O103 1.252 . S
C84 C83 1.510 . S
C84 C85 1.404 . S
C84 C86 1.352 . S
C85 C84 1.404 . S
C85 C89 1.389 . S
C85 H112 0.930 . S
C86 C84 1.352 . S
C86 C88 1.374 . S
C86 H113 0.931 . S
C87 C88 1.359 . S
C87 C89 1.364 . S
C88 C86 1.374 . S
C88 C87 1.359 . S
C88 H114 0.931 . S
C89 C85 1.389 . S
C89 C87 1.364 . S
C89 H115 0.925 1_545 S
C90 O104 1.256 . S
C90 O105 1.257 1_556 S
C91 O106 1.240 . S
C91 O107 1.240 . S
C92 Gd81 2.818 . S
C92 C93 1.510 . S
C92 O108 1.249 . S
C92 O109 1.252 . S
C93 C92 1.510 . S
C93 C94 1.404 . S
C93 C95 1.352 . S
C94 C93 1.404 . S
C94 C98 1.389 . S
C94 H116 0.930 . S
C95 C93 1.352 . S
C95 C97 1.374 . S
C95 H117 0.931 . S
C96 C97 1.359 . S
C96 C98 1.364 . S
C97 C95 1.374 . S
C97 C96 1.359 . S
C97 H118 0.931 . S
C98 C94 1.389 . S
C98 C96 1.364 . S
C98 H119 0.931 . S
C99 O110 1.256 . S
C99 O111 1.257 . S
O100 Gd80 2.377 . S
O100 C82 1.240 . S
O101 Gd81 2.395 . S
O101 C82 1.240 . S
O102 Gd80 2.448 . S
O102 C83 1.249 . S
O103 Gd80 2.506 . S
O103 C83 1.252 . S
O104 Gd80 2.435 1_556 S
O104 C90 1.256 . S
O105 Gd80 2.717 . S
O105 Gd81 2.327 . S
O105 C90 1.257 1_554 S
O106 Gd81 2.377 . S
O106 C91 1.240 . S
O107 Gd80 2.395 . S
O107 C91 1.240 . S
O108 Gd81 2.448 . S
O108 C92 1.249 . S
O109 Gd81 2.506 . S
O109 C92 1.252 . S
O110 Gd81 2.435 . S
O110 C99 1.256 . S
O111 Gd80 2.327 . S
O111 Gd81 2.717 . S
O111 C99 1.257 . S
H112 C85 0.930 . S
H113 C86 0.931 . S
H114 C88 0.931 . S
H115 C89 0.925 1_565 S
H116 C94 0.930 . S
H117 C95 0.931 . S
H118 C97 0.931 . S
H119 C98 0.931 . S
Gd120 C123 2.818 . S
Gd120 O140 2.377 . S
Gd120 O142 2.448 . S
Gd120 O143 2.506 . S
Gd120 O144 2.435 . S
Gd120 O145 2.717 . S
Gd120 O147 2.395 . S
Gd120 O151 2.327 . S
Gd121 C132 2.818 . S
Gd121 O141 2.395 . S
Gd121 O145 2.327 . S
Gd121 O146 2.377 . S
Gd121 O148 2.448 . S
Gd121 O149 2.506 . S
Gd121 O150 2.435 . S
Gd121 O151 2.717 . S
C122 O140 1.240 . S
C122 O141 1.240 . S
C123 Gd120 2.818 . S
C123 C124 1.510 . S
C123 O142 1.249 . S
C123 O143 1.252 . S
C124 C123 1.510 . S
C124 C125 1.404 . S
C124 C126 1.352 . S
C125 C124 1.404 . S
C125 C129 1.389 . S
C125 H152 0.930 . S
C126 C124 1.352 . S
C126 C128 1.374 . S
C126 H153 0.931 . S
C127 C128 1.359 . S
C127 C129 1.364 . S
C128 C126 1.374 . S
C128 C127 1.359 . S
C128 H154 0.931 . S
C129 C125 1.389 . S
C129 C127 1.364 . S
C129 H155 0.931 . S
C130 O144 1.256 . S
C130 O145 1.257 . S
C131 O146 1.240 . S
C131 O147 1.240 . S
C132 Gd121 2.818 . S
C132 C133 1.510 . S
C132 O148 1.249 . S
C132 O149 1.252 . S
C133 C132 1.510 . S
C133 C134 1.404 . S
C133 C135 1.352 . S
C134 C133 1.404 . S
C134 C138 1.389 . S
C134 H156 0.930 . S
C135 C133 1.352 . S
C135 C137 1.374 . S
C135 H157 0.931 . S
C136 C137 1.359 . S
C136 C138 1.364 . S
C137 C135 1.374 . S
C137 C136 1.359 . S
C137 H158 0.931 . S
C138 C134 1.389 . S
C138 C136 1.364 . S
C138 H159 0.931 . S
C139 O150 1.256 . S
C139 O151 1.257 . S
O140 Gd120 2.377 . S
O140 C122 1.240 . S
O141 Gd121 2.395 . S
O141 C122 1.240 . S
O142 Gd120 2.448 . S
O142 C123 1.249 . S
O143 Gd120 2.506 . S
O143 C123 1.252 . S
O144 Gd120 2.435 . S
O144 C130 1.256 . S
O145 Gd120 2.717 . S
O145 Gd121 2.327 . S
O145 C130 1.257 . S
O146 Gd121 2.377 . S
O146 C131 1.240 . S
O147 Gd120 2.395 . S
O147 C131 1.240 . S
O148 Gd121 2.448 . S
O148 C132 1.249 . S
O149 Gd121 2.506 . S
O149 C132 1.252 . S
O150 Gd121 2.435 . S
O150 C139 1.256 . S
O151 Gd120 2.327 . S
O151 Gd121 2.717 . S
O151 C139 1.257 . S
H152 C125 0.930 . S
H153 C126 0.931 . S
H154 C128 0.931 . S
H155 C129 0.931 . S
H156 C134 0.930 . S
H157 C135 0.931 . S
H158 C137 0.931 . S
H159 C138 0.931 . S
Gd160 C163 2.818 . S
Gd160 O180 2.377 . S
Gd160 O182 2.448 . S
Gd160 O183 2.506 . S
Gd160 O184 2.435 . S
Gd160 O185 2.717 . S
Gd160 O187 2.395 . S
Gd160 O191 2.327 . S
Gd161 C172 2.818 . S
Gd161 O181 2.395 . S
Gd161 O185 2.327 . S
Gd161 O186 2.377 . S
Gd161 O188 2.448 . S
Gd161 O189 2.506 . S
Gd161 O190 2.435 . S
Gd161 O191 2.717 . S
C162 O180 1.240 . S
C162 O181 1.240 . S
C163 Gd160 2.818 . S
C163 C164 1.510 . S
C163 O182 1.249 . S
C163 O183 1.252 . S
C164 C163 1.510 . S
C164 C165 1.404 . S
C164 C166 1.352 . S
C165 C164 1.404 . S
C165 C169 1.389 . S
C165 H192 0.930 . S
C166 C164 1.352 . S
C166 C168 1.374 . S
C166 H193 0.931 . S
C167 C168 1.359 . S
C167 C169 1.364 . S
C168 C166 1.374 . S
C168 C167 1.359 . S
C168 H194 0.931 . S
C169 C165 1.389 . S
C169 C167 1.364 . S
C169 H195 0.931 . S
C170 O184 1.256 . S
C170 O185 1.257 . S
C171 O186 1.240 . S
C171 O187 1.240 . S
C172 Gd161 2.818 . S
C172 C173 1.510 . S
C172 O188 1.249 . S
C172 O189 1.252 . S
C173 C172 1.510 . S
C173 C174 1.404 . S
C173 C175 1.352 . S
C174 C173 1.404 . S
C174 C178 1.389 . S
C174 H196 0.930 . S
C175 C173 1.352 . S
C175 C177 1.374 . S
C175 H197 0.931 . S
C176 C177 1.359 . S
C176 C178 1.364 . S
C177 C175 1.374 . S
C177 C176 1.359 . S
C177 H198 0.931 . S
C178 C174 1.389 . S
C178 C176 1.364 . S
C178 H199 0.931 . S
C179 O190 1.256 . S
C179 O191 1.257 . S
O180 Gd160 2.377 . S
O180 C162 1.240 . S
O181 Gd161 2.395 . S
O181 C162 1.240 . S
O182 Gd160 2.448 . S
O182 C163 1.249 . S
O183 Gd160 2.506 . S
O183 C163 1.252 . S
O184 Gd160 2.435 . S
O184 C170 1.256 . S
O185 Gd160 2.717 . S
O185 Gd161 2.327 . S
O185 C170 1.257 . S
O186 Gd161 2.377 . S
O186 C171 1.240 . S
O187 Gd160 2.395 . S
O187 C171 1.240 . S
O188 Gd161 2.448 . S
O188 C172 1.249 . S
O189 Gd161 2.506 . S
O189 C172 1.252 . S
O190 Gd161 2.435 . S
O190 C179 1.256 . S
O191 Gd160 2.327 . S
O191 Gd161 2.717 . S
O191 C179 1.257 . S
H192 C165 0.930 . S
H193 C166 0.931 . S
H194 C168 0.931 . S
H195 C169 0.931 . S
H196 C174 0.930 . S
H197 C175 0.931 . S
H198 C177 0.931 . S
H199 C178 0.931 . S
Gd200 C203 2.818 . S
Gd200 O220 2.377 . S
Gd200 O222 2.448 . S
Gd200 O223 2.506 . S
Gd200 O224 2.435 . S
Gd200 O225 2.717 . S
Gd200 O227 2.395 . S
Gd200 O231 2.327 . S
Gd201 C212 2.818 . S
Gd201 O221 2.395 . S
Gd201 O225 2.327 . S
Gd201 O226 2.377 . S
Gd201 O228 2.448 . S
Gd201 O229 2.506 . S
Gd201 O230 2.435 . S
Gd201 O231 2.717 . S
C202 O220 1.240 . S
C202 O221 1.240 . S
C203 Gd200 2.818 . S
C203 C204 1.510 . S
C203 O222 1.249 . S
C203 O223 1.252 . S
C204 C203 1.510 . S
C204 C205 1.404 . S
C204 C206 1.352 . S
C205 C204 1.404 . S
C205 C209 1.389 . S
C205 H232 0.930 . S
C206 C204 1.352 . S
C206 C208 1.374 . S
C206 H233 0.931 . S
C207 C208 1.359 . S
C207 C209 1.364 . S
C208 C206 1.374 . S
C208 C207 1.359 . S
C208 H234 0.931 . S
C209 C205 1.389 . S
C209 C207 1.364 . S
C209 H235 0.931 . S
C210 O224 1.256 . S
C210 O225 1.257 . S
C211 O226 1.240 . S
C211 O227 1.240 . S
C212 Gd201 2.818 . S
C212 C213 1.510 . S
C212 O228 1.249 . S
C212 O229 1.252 . S
C213 C212 1.510 . S
C213 C214 1.404 . S
C213 C215 1.352 . S
C214 C213 1.404 . S
C214 C218 1.389 . S
C214 H236 0.930 . S
C215 C213 1.352 . S
C215 C217 1.374 . S
C215 H237 0.931 . S
C216 C217 1.359 . S
C216 C218 1.364 . S
C217 C215 1.374 . S
C217 C216 1.359 . S
C217 H238 0.931 . S
C218 C214 1.389 . S
C218 C216 1.364 . S
C218 H239 0.931 . S
C219 O230 1.256 . S
C219 O231 1.257 . S
O220 Gd200 2.377 . S
O220 C202 1.240 . S
O221 Gd201 2.395 . S
O221 C202 1.240 . S
O222 Gd200 2.448 . S
O222 C203 1.249 . S
O223 Gd200 2.506 . S
O223 C203 1.252 . S
O224 Gd200 2.435 . S
O224 C210 1.256 . S
O225 Gd200 2.717 . S
O225 Gd201 2.327 . S
O225 C210 1.257 . S
O226 Gd201 2.377 . S
O226 C211 1.240 . S
O227 Gd200 2.395 . S
O227 C211 1.240 . S
O228 Gd201 2.448 . S
O228 C212 1.249 . S
O229 Gd201 2.506 . S
O229 C212 1.252 . S
O230 Gd201 2.435 . S
O230 C219 1.256 . S
O231 Gd200 2.327 . S
O231 Gd201 2.717 . S
O231 C219 1.257 . S
H232 C205 0.930 . S
H233 C206 0.931 . S
H234 C208 0.931 . S
H235 C209 0.931 . S
H236 C214 0.930 . S
H237 C215 0.931 . S
H238 C217 0.931 . S
H239 C218 0.931 . S
Gd240 C243 2.818 . S
Gd240 O260 2.377 . S
Gd240 O262 2.448 . S
Gd240 O263 2.506 . S
Gd240 O264 2.435 . S
Gd240 O265 2.717 . S
Gd240 O267 2.395 . S
Gd240 O271 2.327 . S
Gd241 C252 2.818 . S
Gd241 O261 2.395 . S
Gd241 O265 2.327 . S
Gd241 O266 2.377 . S
Gd241 O268 2.448 . S
Gd241 O269 2.506 . S
Gd241 O270 2.435 . S
Gd241 O271 2.717 . S
C242 O260 1.240 . S
C242 O261 1.240 . S
C243 Gd240 2.818 . S
C243 C244 1.510 . S
C243 O262 1.249 . S
C243 O263 1.252 . S
C244 C243 1.510 . S
C244 C245 1.404 . S
C244 C246 1.352 . S
C245 C244 1.404 . S
C245 C249 1.389 . S
C245 H272 0.930 . S
C246 C244 1.352 . S
C246 C248 1.374 . S
C246 H273 0.931 . S
C247 C248 1.359 . S
C247 C249 1.364 . S
C248 C246 1.374 . S
C248 C247 1.359 . S
C248 H274 0.931 . S
C249 C245 1.389 . S
C249 C247 1.364 . S
C249 H275 0.931 . S
C250 O264 1.256 . S
C250 O265 1.257 . S
C251 O266 1.240 . S
C251 O267 1.240 . S
C252 Gd241 2.818 . S
C252 C253 1.510 1_556 S
C252 O268 1.249 . S
C252 O269 1.252 . S
C253 C252 1.510 1_554 S
C253 C254 1.404 . S
C253 C255 1.352 . S
C254 C253 1.404 . S
C254 C258 1.389 . S
C254 H276 0.930 . S
C255 C253 1.352 . S
C255 C257 1.374 . S
C255 H277 0.931 . S
C256 C257 1.359 . S
C256 C258 1.364 . S
C257 C255 1.374 . S
C257 C256 1.359 . S
C257 H278 0.931 . S
C258 C254 1.389 . S
C258 C256 1.364 . S
C258 H279 0.931 . S
C259 O270 1.256 . S
C259 O271 1.257 . S
O260 Gd240 2.377 . S
O260 C242 1.240 . S
O261 Gd241 2.395 . S
O261 C242 1.240 . S
O262 Gd240 2.448 . S
O262 C243 1.249 . S
O263 Gd240 2.506 . S
O263 C243 1.252 . S
O264 Gd240 2.435 . S
O264 C250 1.256 . S
O265 Gd240 2.717 . S
O265 Gd241 2.327 . S
O265 C250 1.257 . S
O266 Gd241 2.377 . S
O266 C251 1.240 . S
O267 Gd240 2.395 . S
O267 C251 1.240 . S
O268 Gd241 2.448 . S
O268 C252 1.249 . S
O269 Gd241 2.506 . S
O269 C252 1.252 . S
O270 Gd241 2.435 . S
O270 C259 1.256 . S
O271 Gd240 2.327 . S
O271 Gd241 2.717 . S
O271 C259 1.257 . S
H272 C245 0.930 . S
H273 C246 0.931 . S
H274 C248 0.931 . S
H275 C249 0.931 . S
H276 C254 0.930 . S
H277 C255 0.931 . S
H278 C257 0.931 . S
H279 C258 0.931 . S
Gd280 C283 2.818 . S
Gd280 O300 2.377 . S
Gd280 O302 2.448 . S
Gd280 O303 2.506 . S
Gd280 O304 2.435 . S
Gd280 O305 2.717 . S
Gd280 O307 2.395 . S
Gd280 O311 2.327 . S
Gd281 C292 2.818 . S
Gd281 O301 2.395 . S
Gd281 O305 2.327 . S
Gd281 O306 2.377 . S
Gd281 O308 2.448 . S
Gd281 O309 2.506 . S
Gd281 O310 2.435 . S
Gd281 O311 2.717 . S
C282 O300 1.240 . S
C282 O301 1.240 . S
C283 Gd280 2.818 . S
C283 C284 1.510 1_556 S
C283 O302 1.249 . S
C283 O303 1.252 . S
C284 C283 1.510 1_554 S
C284 C285 1.404 . S
C284 C286 1.352 . S
C285 C284 1.404 . S
C285 C289 1.389 . S
C285 H312 0.930 . S
C286 C284 1.352 . S
C286 C288 1.374 . S
C286 H313 0.931 . S
C287 C288 1.359 . S
C287 C289 1.364 . S
C288 C286 1.374 . S
C288 C287 1.359 . S
C288 H314 0.931 . S
C289 C285 1.389 . S
C289 C287 1.364 . S
C289 H315 0.931 . S
C290 O304 1.256 . S
C290 O305 1.257 . S
C291 O306 1.240 . S
C291 O307 1.240 . S
C292 Gd281 2.818 . S
C292 C293 1.510 . S
C292 O308 1.249 . S
C292 O309 1.252 . S
C293 C292 1.510 . S
C293 C294 1.404 . S
C293 C295 1.352 . S
C294 C293 1.404 . S
C294 C298 1.389 . S
C294 H316 0.930 . S
C295 C293 1.352 . S
C295 C297 1.374 . S
C295 H317 0.931 . S
C296 C297 1.359 . S
C296 C298 1.364 . S
C297 C295 1.374 . S
C297 C296 1.359 . S
C297 H318 0.931 . S
C298 C294 1.389 . S
C298 C296 1.364 . S
C298 H319 0.931 . S
C299 O310 1.256 . S
C299 O311 1.257 . S
O300 Gd280 2.377 . S
O300 C282 1.240 . S
O301 Gd281 2.395 . S
O301 C282 1.240 . S
O302 Gd280 2.448 . S
O302 C283 1.249 . S
O303 Gd280 2.506 . S
O303 C283 1.252 . S
O304 Gd280 2.435 . S
O304 C290 1.256 . S
O305 Gd280 2.717 . S
O305 Gd281 2.327 . S
O305 C290 1.257 . S
O306 Gd281 2.377 . S
O306 C291 1.240 . S
O307 Gd280 2.395 . S
O307 C291 1.240 . S
O308 Gd281 2.448 . S
O308 C292 1.249 . S
O309 Gd281 2.506 . S
O309 C292 1.252 . S
O310 Gd281 2.435 . S
O310 C299 1.256 . S
O311 Gd280 2.327 . S
O311 Gd281 2.717 . S
O311 C299 1.257 . S
H312 C285 0.930 . S
H313 C286 0.931 . S
H314 C288 0.931 . S
H315 C289 0.931 . S
H316 C294 0.930 . S
H317 C295 0.931 . S
H318 C297 0.931 . S
H319 C298 0.931 . S
Gd320 C323 2.818 . S
Gd320 O340 2.377 . S
Gd320 O342 2.448 . S
Gd320 O343 2.506 . S
Gd320 O344 2.435 . S
Gd320 O345 2.717 . S
Gd320 O347 2.395 . S
Gd320 O351 2.327 . S
Gd321 C332 2.818 . S
Gd321 O341 2.395 . S
Gd321 O345 2.327 . S
Gd321 O346 2.377 . S
Gd321 O348 2.448 . S
Gd321 O349 2.506 . S
Gd321 O350 2.435 . S
Gd321 O351 2.717 . S
C322 O340 1.240 . S
C322 O341 1.240 . S
C323 Gd320 2.818 . S
C323 C324 1.510 . S
C323 O342 1.249 . S
C323 O343 1.252 . S
C324 C323 1.510 . S
C324 C325 1.404 . S
C324 C326 1.352 . S
C325 C324 1.404 . S
C325 C329 1.389 . S
C325 H352 0.930 . S
C326 C324 1.352 . S
C326 C328 1.374 . S
C326 H353 0.931 . S
C327 C328 1.359 . S
C327 C329 1.364 . S
C328 C326 1.374 . S
C328 C327 1.359 . S
C328 H354 0.931 . S
C329 C325 1.389 . S
C329 C327 1.364 . S
C329 H355 0.931 . S
C330 O344 1.256 . S
C330 O345 1.257 . S
C331 O346 1.240 . S
C331 O347 1.240 . S
C332 Gd321 2.818 . S
C332 C333 1.510 1_556 S
C332 O348 1.249 . S
C332 O349 1.252 . S
C333 C332 1.510 1_554 S
C333 C334 1.404 . S
C333 C335 1.352 . S
C334 C333 1.404 . S
C334 C338 1.389 . S
C334 H356 0.930 . S
C335 C333 1.352 . S
C335 C337 1.374 . S
C335 H357 0.931 . S
C336 C337 1.359 . S
C336 C338 1.364 . S
C337 C335 1.374 . S
C337 C336 1.359 . S
C337 H358 0.931 . S
C338 C334 1.389 . S
C338 C336 1.364 . S
C338 H359 0.931 . S
C339 O350 1.256 . S
C339 O351 1.257 . S
O340 Gd320 2.377 . S
O340 C322 1.240 . S
O341 Gd321 2.395 . S
O341 C322 1.240 . S
O342 Gd320 2.448 . S
O342 C323 1.249 . S
O343 Gd320 2.506 . S
O343 C323 1.252 . S
O344 Gd320 2.435 . S
O344 C330 1.256 . S
O345 Gd320 2.717 . S
O345 Gd321 2.327 . S
O345 C330 1.257 . S
O346 Gd321 2.377 . S
O346 C331 1.240 . S
O347 Gd320 2.395 . S
O347 C331 1.240 . S
O348 Gd321 2.448 . S
O348 C332 1.249 . S
O349 Gd321 2.506 . S
O349 C332 1.252 . S
O350 Gd321 2.435 . S
O350 C339 1.256 . S
O351 Gd320 2.327 . S
O351 Gd321 2.717 . S
O351 C339 1.257 . S
H352 C325 0.930 . S
H353 C326 0.931 . S
H354 C328 0.931 . S
H355 C329 0.931 . S
H356 C334 0.930 . S
H357 C335 0.931 . S
H358 C337 0.931 . S
H359 C338 0.931 . S
H360 C366 0.930 . S
H361 C369 0.930 . S
H362 C370 0.930 . S
H363 C371 0.930 . S
H364 C374 0.930 . S
H365 C375 0.930 1_655 S
C366 H360 0.930 . S
C366 C367 1.355 . S
C366 C368 1.415 . S
C367 C366 1.355 . S
C367 C369 1.419 . S
C368 C366 1.415 . S
C368 C373 1.425 . S
C368 C375 1.409 . S
C369 H361 0.930 . S
C369 C367 1.419 . S
C369 C370 1.362 . S
C370 H362 0.930 . S
C370 C369 1.362 . S
C370 C373 1.409 . S
C371 H363 0.930 . S
C371 C372 1.355 . S
C371 C373 1.415 . S
C372 C371 1.355 . S
C372 C374 1.419 . S
C373 C368 1.425 . S
C373 C370 1.409 . S
C373 C371 1.415 . S
C374 H364 0.930 . S
C374 C372 1.419 . S
C374 C375 1.362 . S
C375 H365 0.930 1_455 S
C375 C368 1.409 . S
C375 C374 1.362 . S
H376 C382 0.930 . S
H377 C385 0.930 . S
H378 C386 0.930 . S
H379 C387 0.930 . S
H380 C390 0.930 . S
H381 C391 0.930 . S
C382 H376 0.930 . S
C382 C383 1.355 . S
C382 C384 1.415 . S
C383 C382 1.355 . S
C383 C385 1.419 . S
C384 C382 1.415 . S
C384 C389 1.425 . S
C384 C391 1.409 . S
C385 H377 0.930 . S
C385 C383 1.419 . S
C385 C386 1.362 . S
C386 H378 0.930 . S
C386 C385 1.362 . S
C386 C389 1.409 . S
C387 H379 0.930 . S
C387 C388 1.355 . S
C387 C389 1.415 . S
C388 C387 1.355 . S
C388 C390 1.419 . S
C389 C384 1.425 . S
C389 C386 1.409 . S
C389 C387 1.415 . S
C390 H380 0.930 . S
C390 C388 1.419 . S
C390 C391 1.362 . S
C391 H381 0.930 . S
C391 C384 1.409 . S
C391 C390 1.362 . S
H392 C398 0.930 . S
H393 C401 0.930 . S
H394 C402 0.930 . S
H395 C403 0.930 . S
H396 C406 0.930 . S
H397 C407 0.930 . S
C398 H392 0.930 . S
C398 C399 1.355 . S
C398 C400 1.415 . S
C399 C398 1.355 . S
C399 C401 1.419 . S
C400 C398 1.415 . S
C400 C405 1.425 . S
C400 C407 1.409 . S
C401 H393 0.930 . S
C401 C399 1.419 . S
C401 C402 1.362 . S
C402 H394 0.930 . S
C402 C401 1.362 . S
C402 C405 1.409 . S
C403 H395 0.930 . S
C403 C404 1.355 . S
C403 C405 1.415 . S
C404 C403 1.355 . S
C404 C406 1.419 . S
C405 C400 1.425 . S
C405 C402 1.409 . S
C405 C403 1.415 . S
C406 H396 0.930 . S
C406 C404 1.419 . S
C406 C407 1.362 . S
C407 H397 0.930 . S
C407 C400 1.409 . S
C407 C406 1.362 . S
H408 C414 0.930 . S
H409 C417 0.930 . S
H410 C418 0.930 . S
H411 C419 0.930 . S
H412 C422 0.930 . S
H413 C423 0.930 . S
C414 H408 0.930 . S
C414 C415 1.355 . S
C414 C416 1.415 . S
C415 C414 1.355 . S
C415 C417 1.419 . S
C416 C414 1.415 . S
C416 C421 1.425 . S
C416 C423 1.409 . S
C417 H409 0.930 . S
C417 C415 1.419 . S
C417 C418 1.362 . S
C418 H410 0.930 . S
C418 C417 1.362 . S
C418 C421 1.409 . S
C419 H411 0.930 . S
C419 C420 1.355 . S
C419 C421 1.415 . S
C420 C419 1.355 . S
C420 C422 1.419 . S
C421 C416 1.425 . S
C421 C418 1.409 . S
C421 C419 1.415 . S
C422 H412 0.930 . S
C422 C420 1.419 . S
C422 C423 1.362 . S
C423 H413 0.930 . S
C423 C416 1.409 . S
C423 C422 1.362 . S
H424 C430 0.930 . S
H425 C433 0.930 . S
H426 C434 0.930 . S
H427 C435 0.930 . S
H428 C438 0.930 . S
H429 C439 0.930 . S
C430 H424 0.930 . S
C430 C431 1.355 . S
C430 C432 1.415 . S
C431 C430 1.355 . S
C431 C433 1.419 . S
C432 C430 1.415 . S
C432 C437 1.425 . S
C432 C439 1.409 . S
C433 H425 0.930 . S
C433 C431 1.419 . S
C433 C434 1.362 . S
C434 H426 0.930 . S
C434 C433 1.362 . S
C434 C437 1.409 . S
C435 H427 0.930 . S
C435 C436 1.355 . S
C435 C437 1.415 . S
C436 C435 1.355 . S
C436 C438 1.419 . S
C437 C432 1.425 . S
C437 C434 1.409 . S
C437 C435 1.415 . S
C438 H428 0.930 . S
C438 C436 1.419 . S
C438 C439 1.362 . S
C439 H429 0.930 . S
C439 C432 1.409 . S
C439 C438 1.362 . S
H440 C446 0.930 . S
H441 C449 0.930 . S
H442 C450 0.930 . S
H443 C451 0.930 . S
H444 C454 0.930 . S
H445 C455 0.930 . S
C446 H440 0.930 . S
C446 C447 1.355 . S
C446 C448 1.415 . S
C447 C446 1.355 . S
C447 C449 1.419 . S
C448 C446 1.415 . S
C448 C453 1.425 . S
C448 C455 1.409 . S
C449 H441 0.930 . S
C449 C447 1.419 . S
C449 C450 1.362 . S
C450 H442 0.930 . S
C450 C449 1.362 . S
C450 C453 1.409 . S
C451 H443 0.930 . S
C451 C452 1.355 . S
C451 C453 1.415 . S
C452 C451 1.355 . S
C452 C454 1.419 . S
C453 C448 1.425 . S
C453 C450 1.409 . S
C453 C451 1.415 . S
C454 H444 0.930 . S
C454 C452 1.419 . S
C454 C455 1.362 . S
C455 H445 0.930 . S
C455 C448 1.409 . S
C455 C454 1.362 . S
H456 C462 0.930 . S
H457 C465 0.930 . S
H458 C466 0.930 . S
H459 C467 0.930 . S
H460 C470 0.930 . S
H461 C471 0.930 . S
C462 H456 0.930 . S
C462 C463 1.355 . S
C462 C464 1.415 . S
C463 C462 1.355 . S
C463 C465 1.419 . S
C464 C462 1.415 . S
C464 C469 1.425 . S
C464 C471 1.409 . S
C465 H457 0.930 . S
C465 C463 1.419 . S
C465 C466 1.362 . S
C466 H458 0.930 . S
C466 C465 1.362 . S
C466 C469 1.409 . S
C467 H459 0.930 . S
C467 C468 1.355 . S
C467 C469 1.415 . S
C468 C467 1.355 . S
C468 C470 1.419 . S
C469 C464 1.425 . S
C469 C466 1.409 . S
C469 C467 1.415 . S
C470 H460 0.930 . S
C470 C468 1.419 . S
C470 C471 1.362 . S
C471 H461 0.930 . S
C471 C464 1.409 . S
C471 C470 1.362 . S
H472 C478 0.930 . S
H473 C481 0.930 . S
H474 C482 0.930 . S
H475 C483 0.930 . S
H476 C486 0.930 . S
H477 C487 0.930 . S
C478 H472 0.930 . S
C478 C479 1.355 . S
C478 C480 1.415 . S
C479 C478 1.355 . S
C479 C481 1.419 . S
C480 C478 1.415 . S
C480 C485 1.425 . S
C480 C487 1.409 . S
C481 H473 0.930 . S
C481 C479 1.419 . S
C481 C482 1.362 . S
C482 H474 0.930 . S
C482 C481 1.362 . S
C482 C485 1.409 . S
C483 H475 0.930 . S
C483 C484 1.355 . S
C483 C485 1.415 . S
C484 C483 1.355 . S
C484 C486 1.419 . S
C485 C480 1.425 . S
C485 C482 1.409 . S
C485 C483 1.415 . S
C486 H476 0.930 . S
C486 C484 1.419 . S
C486 C487 1.362 . S
C487 H477 0.930 . S
C487 C480 1.409 . S
C487 C486 1.362 . S
H488 C494 0.930 . S
H489 C497 0.930 . S
H490 C498 0.930 . S
H491 C499 0.930 . S
H492 C502 0.930 . S
H493 C503 0.930 . S
C494 H488 0.930 . S
C494 C495 1.355 . S
C494 C496 1.415 . S
C495 C494 1.355 . S
C495 C497 1.419 . S
C496 C494 1.415 . S
C496 C501 1.425 . S
C496 C503 1.409 . S
C497 H489 0.930 . S
C497 C495 1.419 . S
C497 C498 1.362 . S
C498 H490 0.930 . S
C498 C497 1.362 . S
C498 C501 1.409 . S
C499 H491 0.930 . S
C499 C500 1.355 . S
C499 C501 1.415 . S
C500 C499 1.355 . S
C500 C502 1.419 . S
C501 C496 1.425 . S
C501 C498 1.409 . S
C501 C499 1.415 . S
C502 H492 0.930 . S
C502 C500 1.419 . S
C502 C503 1.362 . S
C503 H493 0.930 . S
C503 C496 1.409 . S
C503 C502 1.362 . S
H504 C510 0.930 . S
H505 C513 0.930 . S
H506 C514 0.930 . S
H507 C515 0.930 . S
H508 C518 0.930 . S
H509 C519 0.930 . S
C510 H504 0.930 . S
C510 C511 1.355 . S
C510 C512 1.415 . S
C511 C510 1.355 . S
C511 C513 1.419 . S
C512 C510 1.415 . S
C512 C517 1.425 . S
C512 C519 1.409 . S
C513 H505 0.930 . S
C513 C511 1.419 . S
C513 C514 1.362 . S
C514 H506 0.930 . S
C514 C513 1.362 . S
C514 C517 1.409 . S
C515 H507 0.930 . S
C515 C516 1.355 . S
C515 C517 1.415 . S
C516 C515 1.355 . S
C516 C518 1.419 . S
C517 C512 1.425 . S
C517 C514 1.409 . S
C517 C515 1.415 . S
C518 H508 0.930 . S
C518 C516 1.419 . S
C518 C519 1.362 . S
C519 H509 0.930 . S
C519 C512 1.409 . S
C519 C518 1.362 . S
H520 C526 0.930 . S
H521 C529 0.930 . S
H522 C530 0.930 . S
H523 C531 0.930 . S
H524 C534 0.930 . S
H525 C535 0.930 . S
C526 H520 0.930 . S
C526 C527 1.355 . S
C526 C528 1.415 . S
C527 C526 1.355 . S
C527 C529 1.419 . S
C528 C526 1.415 . S
C528 C533 1.425 . S
C528 C535 1.409 . S
C529 H521 0.930 . S
C529 C527 1.419 . S
C529 C530 1.362 . S
C530 H522 0.930 . S
C530 C529 1.362 . S
C530 C533 1.409 . S
C531 H523 0.930 . S
C531 C532 1.355 . S
C531 C533 1.415 . S
C532 C531 1.355 . S
C532 C534 1.419 . S
C533 C528 1.425 . S
C533 C530 1.409 . S
C533 C531 1.415 . S
C534 H524 0.930 . S
C534 C532 1.419 . S
C534 C535 1.362 . S
C535 H525 0.930 . S
C535 C528 1.409 . S
C535 C534 1.362 . S
H536 C542 0.930 . S
H537 C545 0.930 . S
H538 C546 0.930 . S
H539 C547 0.930 . S
H540 C550 0.930 . S
H541 C551 0.930 . S
C542 H536 0.930 . S
C542 C543 1.355 1_565 S
C542 C544 1.415 . S
C543 C542 1.355 1_545 S
C543 C545 1.419 . S
C544 C542 1.415 . S
C544 C549 1.425 . S
C544 C551 1.409 . S
C545 H537 0.930 . S
C545 C543 1.419 . S
C545 C546 1.362 . S
C546 H538 0.930 . S
C546 C545 1.362 . S
C546 C549 1.409 1_545 S
C547 H539 0.930 . S
C547 C548 1.355 . S
C547 C549 1.415 . S
C548 C547 1.355 . S
C548 C550 1.419 . S
C549 C544 1.425 . S
C549 C546 1.409 1_565 S
C549 C547 1.415 . S
C550 H540 0.930 . S
C550 C548 1.419 . S
C550 C551 1.362 . S
C551 H541 0.930 . S
C551 C544 1.409 . S
C551 C550 1.362 . S
H552 C558 0.930 . S
H553 C561 0.930 . S
H554 C562 0.930 . S
H555 C563 0.930 . S
H556 C566 0.930 . S
H557 C567 0.930 . S
C558 H552 0.930 . S
C558 C559 1.355 . S
C558 C560 1.415 . S
C559 C558 1.355 . S
C559 C561 1.419 1_554 S
C560 C558 1.415 . S
C560 C565 1.425 1_554 S
C560 C567 1.409 . S
C561 H553 0.930 . S
C561 C559 1.419 1_556 S
C561 C562 1.362 . S
C562 H554 0.930 . S
C562 C561 1.362 . S
C562 C565 1.409 . S
C563 H555 0.930 . S
C563 C564 1.355 . S
C563 C565 1.415 . S
C564 C563 1.355 . S
C564 C566 1.419 . S
C565 C560 1.425 1_556 S
C565 C562 1.409 . S
C565 C563 1.415 . S
C566 H556 0.930 . S
C566 C564 1.419 . S
C566 C567 1.362 1_556 S
C567 H557 0.930 . S
C567 C560 1.409 . S
C567 C566 1.362 1_554 S
H568 C574 0.930 . S
H569 C577 0.930 . S
H570 C578 0.930 1_455 S
H571 C579 0.930 1_554 S
H572 C582 0.930 . S
H573 C583 0.930 . S
C574 H568 0.930 . S
C574 C575 1.355 . S
C574 C576 1.415 . S
C575 C574 1.355 . S
C575 C577 1.419 . S
C576 C574 1.415 . S
C576 C581 1.425 . S
C576 C583 1.409 . S
C577 H569 0.930 . S
C577 C575 1.419 . S
C577 C578 1.362 . S
C578 H570 0.930 1_655 S
C578 C577 1.362 . S
C578 C581 1.409 . S
C579 H571 0.930 1_556 S
C579 C580 1.355 . S
C579 C581 1.415 1_455 S
C580 C579 1.355 . S
C580 C582 1.419 1_455 S
C581 C576 1.425 . S
C581 C578 1.409 . S
C581 C579 1.415 1_655 S
C582 H572 0.930 . S
C582 C580 1.419 1_655 S
C582 C583 1.362 . S
C583 H573 0.930 . S
C583 C576 1.409 . S
C583 C582 1.362 . S
H584 C590 0.930 . S
H585 C593 0.930 . S
H586 C594 0.930 1_554 S
H587 C595 0.930 . S
H588 C598 0.930 . S
H589 C599 0.930 . S
C590 H584 0.930 . S
C590 C591 1.355 . S
C590 C592 1.415 . S
C591 C590 1.355 . S
C591 C593 1.419 . S
C592 C590 1.415 . S
C592 C597 1.425 . S
C592 C599 1.409 . S
C593 H585 0.930 . S
C593 C591 1.419 . S
C593 C594 1.362 . S
C594 H586 0.930 1_556 S
C594 C593 1.362 . S
C594 C597 1.409 . S
C595 H587 0.930 . S
C595 C596 1.355 . S
C595 C597 1.415 1_554 S
C596 C595 1.355 . S
C596 C598 1.419 . S
C597 C592 1.425 . S
C597 C594 1.409 . S
C597 C595 1.415 1_556 S
C598 H588 0.930 . S
C598 C596 1.419 . S
C598 C599 1.362 1_554 S
C599 H589 0.930 . S
C599 C592 1.409 . S
C599 C598 1.362 1_556 S
H600 C606 0.930 . S
H601 C609 0.930 . S
H602 C610 0.930 . S
H603 C611 0.930 . S
H604 C614 0.930 1_554 S
H605 C615 0.930 . S
C606 H600 0.930 . S
C606 C607 1.355 . S
C606 C608 1.415 . S
C607 C606 1.355 . S
C607 C609 1.419 . S
C608 C606 1.415 . S
C608 C613 1.425 . S
C608 C615 1.409 . S
C609 H601 0.930 . S
C609 C607 1.419 . S
C609 C610 1.362 . S
C610 H602 0.930 . S
C610 C609 1.362 . S
C610 C613 1.409 . S
C611 H603 0.930 . S
C611 C612 1.355 . S
C611 C613 1.415 . S
C612 C611 1.355 . S
C612 C614 1.419 . S
C613 C608 1.425 . S
C613 C610 1.409 . S
C613 C611 1.415 . S
C614 H604 0.930 1_556 S
C614 C612 1.419 . S
C614 C615 1.362 . S
C615 H605 0.930 . S
C615 C608 1.409 . S
C615 C614 1.362 . S
H616 C622 0.930 . S
H617 C625 0.930 . S
H618 C626 0.930 . S
H619 C627 0.930 . S
H620 C630 0.930 . S
H621 C631 0.930 1_554 S
C622 H616 0.930 . S
C622 C623 1.355 . S
C622 C624 1.415 1_554 S
C623 C622 1.355 . S
C623 C625 1.419 1_554 S
C624 C622 1.415 1_556 S
C624 C629 1.425 . S
C624 C631 1.409 . S
C625 H617 0.930 . S
C625 C623 1.419 1_556 S
C625 C626 1.362 . S
C626 H618 0.930 . S
C626 C625 1.362 . S
C626 C629 1.409 . S
C627 H619 0.930 . S
C627 C628 1.355 . S
C627 C629 1.415 . S
C628 C627 1.355 . S
C628 C630 1.419 . S
C629 C624 1.425 . S
C629 C626 1.409 . S
C629 C627 1.415 . S
C630 H620 0.930 . S
C630 C628 1.419 . S
C630 C631 1.362 . S
C631 H621 0.930 1_556 S
C631 C624 1.409 . S
C631 C630 1.362 . S
H632 C638 0.930 . S
H633 C641 0.930 . S
H634 C642 0.930 . S
H635 C643 0.930 . S
H636 C646 0.930 . S
H637 C647 0.930 . S
C638 H632 0.930 . S
C638 C639 1.355 . S
C638 C640 1.415 . S
C639 C638 1.355 . S
C639 C641 1.419 . S
C640 C638 1.415 . S
C640 C645 1.425 1_556 S
C640 C647 1.409 . S
C641 H633 0.930 . S
C641 C639 1.419 . S
C641 C642 1.362 1_556 S
C642 H634 0.930 . S
C642 C641 1.362 1_554 S
C642 C645 1.409 . S
C643 H635 0.930 . S
C643 C644 1.355 . S
C643 C645 1.415 . S
C644 C643 1.355 . S
C644 C646 1.419 1_554 S
C645 C640 1.425 1_554 S
C645 C642 1.409 . S
C645 C643 1.415 . S
C646 H636 0.930 . S
C646 C644 1.419 1_556 S
C646 C647 1.362 . S
C647 H637 0.930 . S
C647 C640 1.409 . S
C647 C646 1.362 . S
H648 C654 0.930 . S
H649 C657 0.930 . S
H650 C658 0.930 . S
H651 C659 0.930 1_565 S
H652 C662 0.930 . S
H653 C663 0.930 . S
C654 H648 0.930 . S
C654 C655 1.355 . S
C654 C656 1.415 . S
C655 C654 1.355 . S
C655 C657 1.419 . S
C656 C654 1.415 . S
C656 C661 1.425 . S
C656 C663 1.409 . S
C657 H649 0.930 . S
C657 C655 1.419 . S
C657 C658 1.362 . S
C658 H650 0.930 . S
C658 C657 1.362 . S
C658 C661 1.409 . S
C659 H651 0.930 1_545 S
C659 C660 1.355 . S
C659 C661 1.415 . S
C660 C659 1.355 . S
C660 C662 1.419 . S
C661 C656 1.425 . S
C661 C658 1.409 . S
C661 C659 1.415 . S
C662 H652 0.930 . S
C662 C660 1.419 . S
C662 C663 1.362 . S
C663 H653 0.930 . S
C663 C656 1.409 . S
C663 C662 1.362 . S
H664 C670 0.930 . S
H665 C673 0.930 . S
H666 C674 0.930 . S
H667 C675 0.930 . S
H668 C678 0.930 . S
H669 C679 0.930 . S
C670 H664 0.930 . S
C670 C671 1.355 . S
C670 C672 1.415 . S
C671 C670 1.355 . S
C671 C673 1.419 . S
C672 C670 1.415 . S
C672 C677 1.425 . S
C672 C679 1.409 . S
C673 H665 0.930 . S
C673 C671 1.419 . S
C673 C674 1.362 . S
C674 H666 0.930 . S
C674 C673 1.362 . S
C674 C677 1.409 . S
C675 H667 0.930 . S
C675 C676 1.355 . S
C675 C677 1.415 . S
C676 C675 1.355 . S
C676 C678 1.419 . S
C677 C672 1.425 . S
C677 C674 1.409 . S
C677 C675 1.415 . S
C678 H668 0.930 . S
C678 C676 1.419 . S
C678 C679 1.362 . S
C679 H669 0.930 . S
C679 C672 1.409 . S
C679 C678 1.362 . S
H680 C686 0.930 . S
H681 C689 0.930 . S
H682 C690 0.930 . S
H683 C691 0.930 . S
H684 C694 0.930 . S
H685 C695 0.930 . S
C686 H680 0.930 . S
C686 C687 1.355 . S
C686 C688 1.415 . S
C687 C686 1.355 . S
C687 C689 1.419 . S
C688 C686 1.415 . S
C688 C693 1.425 . S
C688 C695 1.409 . S
C689 H681 0.930 . S
C689 C687 1.419 . S
C689 C690 1.362 . S
C690 H682 0.930 . S
C690 C689 1.362 . S
C690 C693 1.409 . S
C691 H683 0.930 . S
C691 C692 1.355 . S
C691 C693 1.415 . S
C692 C691 1.355 . S
C692 C694 1.419 . S
C693 C688 1.425 . S
C693 C690 1.409 . S
C693 C691 1.415 . S
C694 H684 0.930 . S
C694 C692 1.419 . S
C694 C695 1.362 . S
C695 H685 0.930 . S
C695 C688 1.409 . S
C695 C694 1.362 . S
H696 C702 0.930 . S
H697 C705 0.930 . S
H698 C706 0.930 . S
H699 C707 0.930 . S
H700 C710 0.930 . S
H701 C711 0.930 . S
C702 H696 0.930 . S
C702 C703 1.355 . S
C702 C704 1.415 . S
C703 C702 1.355 . S
C703 C705 1.419 . S
C704 C702 1.415 . S
C704 C709 1.425 . S
C704 C711 1.409 . S
C705 H697 0.930 . S
C705 C703 1.419 . S
C705 C706 1.362 . S
C706 H698 0.930 . S
C706 C705 1.362 . S
C706 C709 1.409 . S
C707 H699 0.930 . S
C707 C708 1.355 . S
C707 C709 1.415 . S
C708 C707 1.355 . S
C708 C710 1.419 . S
C709 C704 1.425 . S
C709 C706 1.409 . S
C709 C707 1.415 . S
C710 H700 0.930 . S
C710 C708 1.419 . S
C710 C711 1.362 . S
C711 H701 0.930 . S
C711 C704 1.409 . S
C711 C710 1.362 . S
H712 C718 0.930 . S
H713 C721 0.930 . S
H714 C722 0.930 1_565 S
H715 C723 0.930 . S
H716 C726 0.930 . S
H717 C727 0.930 . S
C718 H712 0.930 . S
C718 C719 1.355 . S
C718 C720 1.415 . S
C719 C718 1.355 . S
C719 C721 1.419 . S
C720 C718 1.415 . S
C720 C725 1.423 . S
C720 C727 1.409 . S
C721 H713 0.930 . S
C721 C719 1.419 . S
C721 C722 1.362 . S
C722 H714 0.930 1_545 S
C722 C721 1.362 . S
C722 C725 1.409 . S
C723 H715 0.930 . S
C723 C724 1.355 . S
C723 C725 1.416 1_565 S
C724 C723 1.355 . S
C724 C726 1.419 . S
C725 C720 1.423 . S
C725 C722 1.409 . S
C725 C723 1.416 1_545 S
C726 H716 0.930 . S
C726 C724 1.419 . S
C726 C727 1.362 1_565 S
C727 H717 0.930 . S
C727 C720 1.409 . S
C727 C726 1.362 1_545 S
H728 C734 0.930 . S
H729 C737 0.930 . S
H730 C738 0.930 . S
H731 C739 0.930 . S
H732 C742 0.930 . S
H733 C743 0.930 . S
C734 H728 0.930 . S
C734 C735 1.355 . S
C734 C736 1.415 . S
C735 C734 1.355 . S
C735 C737 1.419 1_655 S
C736 C734 1.415 . S
C736 C741 1.425 1_655 S
C736 C743 1.409 . S
C737 H729 0.930 . S
C737 C735 1.419 1_455 S
C737 C738 1.362 . S
C738 H730 0.930 . S
C738 C737 1.362 . S
C738 C741 1.409 . S
C739 H731 0.930 . S
C739 C740 1.355 . S
C739 C741 1.415 . S
C740 C739 1.355 . S
C740 C742 1.419 1_455 S
C741 C736 1.425 1_455 S
C741 C738 1.409 . S
C741 C739 1.415 . S
C742 H732 0.930 . S
C742 C740 1.419 1_655 S
C742 C743 1.362 . S
C743 H733 0.930 . S
C743 C736 1.409 . S
C743 C742 1.362 . S
H744 C750 0.930 . S
H745 C753 0.930 . S
H746 C754 0.930 . S
H747 C755 0.930 . S
H748 C758 0.930 . S
H749 C759 0.930 . S
C750 H744 0.930 . S
C750 C751 1.355 . S
C750 C752 1.415 . S
C751 C750 1.355 . S
C751 C753 1.419 . S
C752 C750 1.415 . S
C752 C757 1.425 . S
C752 C759 1.409 . S
C753 H745 0.930 . S
C753 C751 1.419 . S
C753 C754 1.362 . S
C754 H746 0.930 . S
C754 C753 1.362 . S
C754 C757 1.409 . S
C755 H747 0.930 . S
C755 C756 1.355 . S
C755 C757 1.415 . S
C756 C755 1.355 . S
C756 C758 1.419 . S
C757 C752 1.425 . S
C757 C754 1.409 . S
C757 C755 1.415 . S
C758 H748 0.930 . S
C758 C756 1.419 . S
C758 C759 1.362 . S
C759 H749 0.930 . S
C759 C752 1.409 . S
C759 C758 1.362 . S
H760 C766 0.930 . S
H761 C769 0.930 . S
H762 C770 0.930 . S
H763 C771 0.930 . S
H764 C774 0.930 . S
H765 C775 0.930 . S
C766 H760 0.930 . S
C766 C767 1.355 . S
C766 C768 1.415 1_565 S
C767 C766 1.355 . S
C767 C769 1.419 . S
C768 C766 1.415 1_545 S
C768 C773 1.425 . S
C768 C775 1.409 . S
C769 H761 0.930 . S
C769 C767 1.419 . S
C769 C770 1.362 1_565 S
C770 H762 0.930 . S
C770 C769 1.362 1_545 S
C770 C773 1.409 . S
C771 H763 0.930 . S
C771 C772 1.355 . S
C771 C773 1.415 . S
C772 C771 1.355 . S
C772 C774 1.419 . S
C773 C768 1.425 . S
C773 C770 1.409 . S
C773 C771 1.415 . S
C774 H764 0.930 . S
C774 C772 1.419 . S
C774 C775 1.362 . S
C775 H765 0.930 . S
C775 C768 1.409 . S
C775 C774 1.362 . S
H776 C782 0.937 . S
H777 C785 0.930 . S
H778 C786 0.930 . S
H779 C787 0.930 . S
H780 C790 0.930 . S
H781 C791 0.930 . S
C782 H776 0.937 . S
C782 C783 1.343 1_455 S
C782 C784 1.419 . S
C783 C782 1.343 1_655 S
C783 C785 1.419 . S
C784 C782 1.419 . S
C784 C789 1.425 1_455 S
C784 C791 1.409 . S
C785 H777 0.930 . S
C785 C783 1.419 . S
C785 C786 1.362 . S
C786 H778 0.930 . S
C786 C785 1.362 . S
C786 C789 1.409 . S
C787 H779 0.930 . S
C787 C788 1.355 1_655 S
C787 C789 1.415 . S
C788 C787 1.355 1_455 S
C788 C790 1.419 . S
C789 C784 1.425 1_655 S
C789 C786 1.409 . S
C789 C787 1.415 . S
C790 H780 0.930 . S
C790 C788 1.419 . S
C790 C791 1.362 . S
C791 H781 0.930 . S
C791 C784 1.409 . S
C791 C790 1.362 . S
C367 C10 3.488 . S
C372 C19 3.488 . S
C383 C59 3.581 . S
C388 C50 3.581 . S
C399 C90 3.618 . S
C404 C99 3.618 . S
C415 C139 3.489 . S
C420 C130 3.489 1_556 S
C431 C170 3.574 . S
C436 C179 3.574 1_556 S
C447 C219 3.619 . S
C452 C210 3.619 1_556 S
C463 C247 1.654 . S
C468 C256 1.654 . S
C479 C296 2.068 . S
C484 C287 2.068 . S
C495 C327 1.174 . S
C500 C336 1.174 . S
C511 C202 1.680 . S
C516 C7 1.714 . S
C527 C42 2.704 . S
C532 C122 2.723 . S
C543 C87 1.194 . S
C548 C167 1.194 . S
C559 C82 2.966 . S
C564 C251 3.133 . S
C575 C299 1.283 . S
C580 C2 1.201 1_556 S
C591 C331 1.997 . S
C596 C47 1.802 . S
C607 C330 0.973 . S
C612 C16 0.957 . S
C623 C51 2.248 . S
C628 C250 2.331 . S
C639 C282 2.924 . S
C644 C96 2.691 . S
C655 C91 1.684 . S
C660 C136 1.716 1_545 S
C671 C171 2.708 . S
C676 C11 2.727 . S
C687 C56 1.230 . S
C692 C216 1.230 . S
C703 C339 0.943 . S
C708 C127 0.839 . S
C719 C259 2.299 . S
C724 C162 2.273 . S
C735 C291 2.940 . S
C740 C207 2.745 . S
C751 C242 3.131 . S
C756 C211 3.007 . S
C767 C131 1.206 . S
C772 C290 1.282 . S
C783 C322 2.010 . S
C788 C176 1.819 . S
