# Generated by pormake.
# Topology wlj, (5)-cn, num edge types: 1
# Building blocks:
#     Node 0, Type 0, BuildingBlock: XOMCOT_clean_sbu_0, # of connection points: 5
#     Node 1, Type 0, BuildingBlock: XOMCOT_clean_sbu_0, # of connection points: 5
#     Node 2, Type 0, BuildingBlock: XOMCOT_clean_sbu_0, # of connection points: 5
#     Node 3, Type 0, BuildingBlock: XOMCOT_clean_sbu_0, # of connection points: 5
#     Node 4, Type 0, BuildingBlock: XOMCOT_clean_sbu_0, # of connection points: 5
#     Node 5, Type 0, BuildingBlock: XOMCOT_clean_sbu_0, # of connection points: 5
#     Edge 6, Type (0, 0), BuildingBlock: FUNLAD_clean_linker_0, # of connection points: 2
#     Edge 7, Type (0, 0), BuildingBlock: FUNLAD_clean_linker_0, # of connection points: 2
#     Edge 8, Type (0, 0), BuildingBlock: FUNLAD_clean_linker_0, # of connection points: 2
#     Edge 9, Type (0, 0), BuildingBlock: FUNLAD_clean_linker_0, # of connection points: 2
#     Edge 10, Type (0, 0), BuildingBlock: FUNLAD_clean_linker_0, # of connection points: 2
#     Edge 11, Type (0, 0), BuildingBlock: FUNLAD_clean_linker_0, # of connection points: 2
#     Edge 12, Type (0, 0), BuildingBlock: FUNLAD_clean_linker_0, # of connection points: 2
#     Edge 13, Type (0, 0), BuildingBlock: FUNLAD_clean_linker_0, # of connection points: 2
#     Edge 14, Type (0, 0), BuildingBlock: FUNLAD_clean_linker_0, # of connection points: 2
#     Edge 15, Type (0, 0), BuildingBlock: FUNLAD_clean_linker_0, # of connection points: 2
#     Edge 16, Type (0, 0), BuildingBlock: FUNLAD_clean_linker_0, # of connection points: 2
#     Edge 17, Type (0, 0), BuildingBlock: FUNLAD_clean_linker_0, # of connection points: 2
#     Edge 18, Type (0, 0), BuildingBlock: FUNLAD_clean_linker_0, # of connection points: 2
#     Edge 19, Type (0, 0), BuildingBlock: FUNLAD_clean_linker_0, # of connection points: 2
#     Edge 20, Type (0, 0), BuildingBlock: FUNLAD_clean_linker_0, # of connection points: 2
# Relax obj value: 0.143
# Max RMSD: 0.205
# Mean RMSD: 0.205
data_MOF--net-wlj--node1-XOMCOT_clean_sbu_0--edge1-FUNLAD_clean_linker_0
_symmetry_space_group_name_H-M    P1
_symmetry_Int_Tables_number       1
_symmetry_cell_setting            triclinic
loop_
_symmetry_equiv_pos_as_xyz
'x, y, z'
_cell_length_a     29.320743
_cell_length_b     29.25687
_cell_length_c     63.048914
_cell_angle_alpha  90.095318
_cell_angle_beta   89.766223
_cell_angle_gamma 120.11989
loop_
_atom_site_label
_atom_site_type_symbol
_atom_site_fract_x
_atom_site_fract_y
_atom_site_fract_z
_atom_type_partial_charge
Co0 Co 0.56344 0.28445 0.25297 0.0
C1 C 0.5408 0.35437 0.22639 0.0
C2 C 0.48307 0.27213 0.22278 0.0
C3 C 0.46598 0.30142 0.21201 0.0
N4 N 0.52986 0.3052 0.23181 0.0
N5 N 0.50203 0.35297 0.2144 0.0
H6 H 0.5742 0.39025 0.23234 0.0
H7 H 0.46102 0.2298 0.22501 0.0
C8 C 0.55437 0.18619 0.2339 0.0
O9 O 0.60345 0.20296 0.2394 0.0
N10 N 0.59458 0.26168 0.27495 0.0
C11 C 0.63332 0.29182 0.28878 0.0
C12 C 0.63758 0.25969 0.30363 0.0
C13 C 0.57442 0.21175 0.28238 0.0
N14 N 0.60076 0.20931 0.29945 0.0
C15 C 0.67189 0.35544 0.24266 0.0
C16 C 0.66782 0.32512 0.20085 0.0
C17 C 0.71458 0.36788 0.20855 0.0
C18 C 0.7163 0.3826 0.22979 0.0
C19 C 0.62386 0.29923 0.21429 0.0
N20 N 0.62657 0.31354 0.23515 0.0
H21 H 0.67335 0.3705 0.25833 0.0
H22 H 0.58704 0.26922 0.20759 0.0
H23 H 0.65491 0.33439 0.28922 0.0
H24 H 0.53932 0.17799 0.27618 0.0
O25 O 0.58106 0.34728 0.26891 0.0
O26 O 0.50646 0.27134 0.27258 0.0
O27 O 0.53228 0.21309 0.23859 0.0
C28 C 0.53525 0.32092 0.278 0.0
H29 H 0.4287 0.28614 0.20386 0.0
H30 H 0.66472 0.27255 0.31684 0.0
H31 H 0.6644 0.31356 0.18434 0.0
H32 H 0.75137 0.41601 0.23629 0.0
Co33 Co 0.72752 0.28449 0.91942 0.0
C34 C 0.65576 0.19442 0.89184 0.0
C35 C 0.73693 0.22667 0.88297 0.0
C36 C 0.7067 0.18355 0.87038 0.0
N37 N 0.70506 0.23382 0.89635 0.0
N38 N 0.65575 0.16307 0.87605 0.0
H39 H 0.62079 0.18791 0.90028 0.0
H40 H 0.77945 0.2496 0.88284 0.0
C41 C 0.82573 0.37565 0.90164 0.0
O42 O 0.80724 0.40604 0.90805 0.0
N43 N 0.75125 0.33423 0.94326 0.0
C44 C 0.72147 0.34017 0.95822 0.0
C45 C 0.75387 0.37652 0.97301 0.0
C46 C 0.80139 0.36468 0.95022 0.0
N47 N 0.80429 0.3923 0.96789 0.0
C48 C 0.66568 0.33462 0.91272 0.0
C49 C 0.69751 0.36654 0.87142 0.0
C50 C 0.66377 0.38105 0.88132 0.0
C51 C 0.64707 0.36374 0.90211 0.0
C52 C 0.71556 0.33761 0.88275 0.0
N53 N 0.70186 0.32443 0.90357 0.0
H54 H 0.64965 0.31916 0.9281 0.0
H55 H 0.74118 0.32641 0.87479 0.0
H56 H 0.67902 0.31776 0.95924 0.0
H57 H 0.83525 0.36617 0.9427 0.0
O58 O 0.66367 0.23837 0.93463 0.0
O59 O 0.73755 0.23549 0.93695 0.0
O60 O 0.79984 0.32599 0.9056 0.0
C61 C 0.68832 0.21597 0.94261 0.0
H62 H 0.72142 0.16682 0.85875 0.0
H63 H 0.74104 0.38875 0.98693 0.0
H64 H 0.7104 0.378 0.85519 0.0
H65 H 0.61884 0.37165 0.90998 0.0
Co66 Co 0.74124 0.45233 0.58679 0.0
C67 C 0.83522 0.476 0.5604 0.0
C68 C 0.80925 0.53214 0.55597 0.0
C69 C 0.85529 0.54919 0.54485 0.0
N70 N 0.7965 0.48628 0.56571 0.0
N71 N 0.87188 0.51424 0.54776 0.0
H72 H 0.83817 0.44315 0.56665 0.0
H73 H 0.78819 0.55344 0.55767 0.0
C74 C 0.6537 0.46051 0.56609 0.0
O75 O 0.62204 0.41025 0.57043 0.0
N76 N 0.68631 0.42103 0.60865 0.0
C77 C 0.67779 0.38323 0.62297 0.0
C78 C 0.63919 0.37751 0.63702 0.0
C79 C 0.65461 0.43971 0.61517 0.0
N80 N 0.62445 0.41299 0.63207 0.0
C81 C 0.70125 0.34296 0.57744 0.0
C82 C 0.67955 0.34625 0.53505 0.0
C83 C 0.67207 0.29876 0.54363 0.0
C84 C 0.68285 0.29756 0.56515 0.0
C85 C 0.69847 0.3912 0.54799 0.0
N86 N 0.70761 0.38884 0.56914 0.0
H87 H 0.71314 0.34157 0.59336 0.0
H88 H 0.70727 0.42826 0.54081 0.0
H89 H 0.70025 0.36339 0.62435 0.0
H90 H 0.65462 0.47328 0.60807 0.0
O91 O 0.78551 0.43449 0.60293 0.0
O92 O 0.78453 0.50931 0.60641 0.0
O93 O 0.70171 0.48359 0.5722 0.0
C94 C 0.80469 0.48024 0.61204 0.0
H95 H 0.87587 0.58548 0.53581 0.0
H96 H 0.62517 0.35113 0.65053 0.0
H97 H 0.67318 0.34927 0.51832 0.0
H98 H 0.67851 0.262 0.57237 0.0
Co99 Co 0.30333 0.56907 0.75579 0.0
C100 C 0.38301 0.55629 0.78044 0.0
C101 C 0.30579 0.51351 0.79434 0.0
C102 C 0.33939 0.50409 0.80613 0.0
N103 N 0.33299 0.54658 0.77826 0.0
N104 N 0.38783 0.53072 0.79737 0.0
H105 H 0.41501 0.58075 0.76974 0.0
H106 H 0.26402 0.49592 0.79722 0.0
C107 C 0.20521 0.55575 0.7766 0.0
O108 O 0.21884 0.60355 0.77 0.0
N109 N 0.27197 0.58916 0.73286 0.0
C110 C 0.2963 0.62527 0.71732 0.0
C111 C 0.25897 0.62387 0.70372 0.0
C112 C 0.22032 0.56421 0.72751 0.0
N113 N 0.21102 0.58562 0.71024 0.0
C114 C 0.36342 0.68188 0.76033 0.0
C115 C 0.33783 0.68687 0.80215 0.0
C116 C 0.3708 0.7341 0.79131 0.0
C117 C 0.38406 0.73093 0.77021 0.0
C118 C 0.3178 0.63842 0.79157 0.0
N119 N 0.32861 0.63641 0.77054 0.0
H120 H 0.37737 0.68069 0.7447 0.0
H121 H 0.29364 0.60254 0.80038 0.0
H122 H 0.33832 0.64921 0.71504 0.0
H123 H 0.19004 0.53042 0.73593 0.0
O124 O 0.36461 0.58909 0.73845 0.0
O125 O 0.29373 0.50921 0.73871 0.0
O126 O 0.23362 0.53537 0.77172 0.0
C127 C 0.34087 0.5411 0.73123 0.0
H128 H 0.32844 0.47767 0.8196 0.0
H129 H 0.2669 0.64786 0.68965 0.0
H130 H 0.32747 0.68728 0.81863 0.0
H131 H 0.41164 0.76604 0.76153 0.0
Co132 Co 0.45607 0.73497 0.42191 0.0
C133 C 0.48162 0.83198 0.44649 0.0
C134 C 0.53371 0.8023 0.45339 0.0
C135 C 0.5525 0.85019 0.4633 0.0
N136 N 0.48936 0.79075 0.44281 0.0
N137 N 0.52007 0.86901 0.45884 0.0
H138 H 0.45102 0.83671 0.43907 0.0
H139 H 0.55335 0.77944 0.45286 0.0
C140 C 0.46341 0.64504 0.44012 0.0
O141 O 0.4144 0.61483 0.43392 0.0
N142 N 0.42609 0.67968 0.40033 0.0
C143 C 0.3784 0.65464 0.39089 0.0
C144 C 0.37678 0.61716 0.37708 0.0
C145 C 0.45313 0.65831 0.39141 0.0
N146 N 0.42379 0.6193 0.37754 0.0
C147 C 0.34776 0.69807 0.43279 0.0
C148 C 0.35115 0.66526 0.47351 0.0
C149 C 0.30314 0.65791 0.46579 0.0
C150 C 0.3021 0.67544 0.44523 0.0
C151 C 0.39586 0.68783 0.46043 0.0
N152 N 0.39311 0.70107 0.43986 0.0
H153 H 0.34686 0.71475 0.41769 0.0
H154 H 0.43289 0.6954 0.46708 0.0
H155 H 0.34661 0.66237 0.39339 0.0
H156 H 0.49319 0.66999 0.39574 0.0
O157 O 0.43768 0.77853 0.40543 0.0
O158 O 0.5128 0.77849 0.40208 0.0
O159 O 0.48712 0.69483 0.43647 0.0
C160 C 0.48345 0.79818 0.39633 0.0
H161 H 0.58867 0.87085 0.47229 0.0
H162 H 0.34353 0.59066 0.36737 0.0
H163 H 0.35428 0.65388 0.48954 0.0
H164 H 0.26672 0.67338 0.43902 0.0
Co165 Co 0.28097 0.71652 0.08827 0.0
C166 C 0.1777 0.64433 0.1098 0.0
C167 C 0.23176 0.70665 0.13016 0.0
C168 C 0.18519 0.67739 0.14092 0.0
N169 N 0.22741 0.6864 0.11054 0.0
N170 N 0.15101 0.63843 0.12811 0.0
H171 H 0.16056 0.61947 0.09605 0.0
H172 H 0.26601 0.74088 0.13639 0.0
C173 C 0.36662 0.81946 0.10596 0.0
O174 O 0.40155 0.80954 0.09728 0.0
N175 N 0.33394 0.74762 0.06585 0.0
C176 C 0.36189 0.72835 0.05618 0.0
C177 C 0.39716 0.7657 0.04227 0.0
C178 C 0.35153 0.79577 0.05704 0.0
N179 N 0.39111 0.80844 0.04296 0.0
C180 C 0.3174 0.64364 0.09506 0.0
C181 C 0.36421 0.68038 0.13404 0.0
C182 C 0.36102 0.63436 0.12582 0.0
C183 C 0.33806 0.61672 0.10588 0.0
C184 C 0.34308 0.70642 0.12259 0.0
N185 N 0.32048 0.6885 0.10311 0.0
H186 H 0.29763 0.62704 0.08029 0.0
H187 H 0.343 0.73933 0.13014 0.0
H188 H 0.35829 0.69042 0.05901 0.0
H189 H 0.33664 0.82163 0.06146 0.0
O190 O 0.23949 0.65678 0.0702 0.0
O191 O 0.23306 0.72891 0.07096 0.0
O192 O 0.31724 0.78613 0.10433 0.0
C193 C 0.21741 0.6823 0.06288 0.0
H194 H 0.17709 0.68452 0.15697 0.0
H195 H 0.4264 0.76222 0.033 0.0
H196 H 0.38043 0.69467 0.14965 0.0
H197 H 0.33479 0.5814 0.09884 0.0
C198 C 0.49114 0.13495 0.20494 0.0
C199 C 0.52588 0.13798 0.2209 0.0
C200 C 0.46658 0.09064 0.19172 0.0
C201 C 0.47539 0.04805 0.19458 0.0
C202 C 0.50872 0.05037 0.21098 0.0
C203 C 0.53452 0.09535 0.22379 0.0
C204 C 0.44973 1.00064 0.18079 0.0
C205 C 0.44707 1.00419 0.1596 0.0
C206 C 0.4249 0.95699 0.14569 0.0
C207 C 0.45154 0.95839 0.12695 0.0
C208 C 0.43236 0.91366 0.11399 0.0
C209 C 0.38516 0.86733 0.11916 0.0
H210 H 0.3556 0.90915 0.16496 0.0
C211 C 0.35733 0.86669 0.13746 0.0
C212 C 0.37739 0.91088 0.15078 0.0
H213 H 0.32085 0.83166 0.14183 0.0
H214 H 0.48402 0.16743 0.20233 0.0
H215 H 0.44039 0.08948 0.1794 0.0
H216 H 0.51577 0.01782 0.21356 0.0
H217 H 0.56094 0.09668 0.23606 0.0
H218 H 0.43655 0.96228 0.18803 0.0
H219 H 0.46552 0.04288 0.15212 0.0
H220 H 0.488 0.99368 0.12263 0.0
H221 H 0.45438 0.91534 0.09988 0.0
C222 C 0.12999 0.55109 0.79739 0.0
C223 C 0.15833 0.52674 0.79053 0.0
C224 C 0.08721 0.52507 0.81127 0.0
C225 C 0.07179 0.474 0.81876 0.0
C226 C 0.09913 0.44903 0.81142 0.0
C227 C 0.14213 0.47518 0.79756 0.0
C228 C 0.02648 0.44531 0.83365 0.0
C229 C 1.01179 0.4705 0.84767 0.0
C230 C 0.96509 0.44419 0.86209 0.0
C231 C 0.94776 0.47589 0.87194 0.0
C232 C 0.90327 0.45366 0.88504 0.0
C233 C 0.87491 0.39896 0.88882 0.0
H234 H 0.95003 0.36351 0.85954 0.0
C235 C 0.89296 0.36716 0.87953 0.0
C236 C 0.93755 0.38945 0.86629 0.0
H237 H 0.87232 0.32492 0.88225 0.0
H238 H 0.14097 0.59055 0.79215 0.0
H239 H 0.06599 0.54498 0.81583 0.0
H240 H 0.08768 0.40944 0.81666 0.0
H241 H 0.16279 0.45505 0.79247 0.0
H242 H 1.00545 0.40251 0.83299 0.0
H243 H 0.03456 0.51334 0.84842 0.0
H244 H 0.96822 0.51817 0.8692 0.0
H245 H 0.8908 0.47951 0.89199 0.0
C246 C 0.53584 0.65336 0.46406 0.0
C247 C 0.48858 0.62155 0.45307 0.0
C248 C 0.55694 0.63048 0.47748 0.0
C249 C 0.53111 0.57519 0.48014 0.0
C250 C 0.48489 0.54362 0.46858 0.0
C251 C 0.46376 0.5664 0.45532 0.0
C252 C 0.55043 0.54825 0.49457 0.0
C253 C 0.5849 0.57207 0.51055 0.0
C254 C 0.60115 0.5429 0.52519 0.0
C255 C 0.65084 0.57 0.53489 0.0
C256 C 0.66769 0.54357 0.54843 0.0
C257 C 0.63484 0.48945 0.5528 0.0
H258 H 0.5283 0.46719 0.5236 0.0
C259 C 0.58441 0.46273 0.54366 0.0
C260 C 0.56768 0.48909 0.53006 0.0
H261 H 0.55788 0.42117 0.54682 0.0
H262 H 0.55611 0.69597 0.46259 0.0
H263 H 0.59343 0.65637 0.48556 0.0
H264 H 0.46433 0.50097 0.4701 0.0
H265 H 0.42751 0.5406 0.44699 0.0
H266 H 0.53412 0.50614 0.49212 0.0
H267 H 0.60256 0.61428 0.51302 0.0
H268 H 0.67714 0.6116 0.53168 0.0
H269 H 0.70664 0.56551 0.55531 0.0
C270 C 0.42456 0.62573 0.15013 0.0
C271 C 0.37741 0.60221 0.13845 0.0
C272 C 0.43958 0.5944 0.16164 0.0
C273 C 0.40747 0.53893 0.16169 0.0
C274 C 0.35999 0.5159 0.15033 0.0
C275 C 0.34518 0.54698 0.13887 0.0
C276 C 0.42037 0.50297 0.17356 0.0
C277 C 0.46809 0.51622 0.18153 0.0
C278 C 0.478 0.47644 0.19205 0.0
C279 C 0.52853 0.48208 0.19115 0.0
C280 C 0.53724 0.44242 0.19919 0.0
C281 C 0.49542 0.39649 0.20813 0.0
H282 H 0.39855 0.42739 0.20454 0.0
C283 C 0.44583 0.39235 0.21014 0.0
C284 C 0.43731 0.43204 0.20245 0.0
H285 H 0.41341 0.35802 0.21759 0.0
H286 H 0.45011 0.66824 0.15016 0.0
H287 H 0.47589 0.61391 0.17055 0.0
H288 H 0.33408 0.4734 0.15024 0.0
H289 H 0.30799 0.5276 0.13048 0.0
H290 H 0.38886 0.46211 0.1747 0.0
H291 H 0.50146 0.55556 0.17899 0.0
H292 H 0.56082 0.51628 0.18356 0.0
H293 H 0.57592 0.44653 0.19766 0.0
C294 C 0.41395 0.79425 0.82257 0.0
C295 C 0.39351 0.78651 0.8019 0.0
C296 C 0.44038 0.84494 0.83151 0.0
C297 C 0.44655 0.88894 0.81997 0.0
C298 C 0.42438 0.88069 0.79966 0.0
C299 C 0.39806 0.83019 0.79076 0.0
C300 C 0.47992 0.94434 0.82751 0.0
C301 C 0.49415 0.95826 0.84786 0.0
C302 C 0.53312 0.01334 0.8543 0.0
C303 C 0.53233 0.03 0.87515 0.0
C304 C 0.57121 0.08009 0.8821 0.0
C305 C 0.61222 0.11417 0.8684 0.0
H306 H 0.57662 0.03645 0.82449 0.0
C307 C 0.61244 0.09787 0.84746 0.0
C308 C 0.57352 0.04812 0.84048 0.0
H309 H 0.64347 0.12332 0.83655 0.0
H310 H 0.41169 0.76154 0.83148 0.0
H311 H 0.45784 0.84954 0.84701 0.0
H312 H 0.42848 0.9137 0.79038 0.0
H313 H 0.38208 0.82551 0.77493 0.0
H314 H 0.49359 0.9751 0.81552 0.0
H315 H 0.47691 0.92873 0.8603 0.0
H316 H 0.50205 1.00386 0.8862 0.0
H317 H 0.57042 0.09122 0.89842 0.0
C318 C 0.96581 0.57135 0.53878 0.0
C319 C 0.92142 0.52053 0.54055 0.0
C320 C 0.01316 0.57858 0.53049 0.0
C321 C 0.01747 0.53503 0.52377 0.0
C322 C 0.9733 0.48405 0.5258 0.0
C323 C 0.92583 0.47678 0.53434 0.0
C324 C 0.06608 0.54245 0.51304 0.0
C325 C 0.11427 0.58443 0.51682 0.0
C326 C 0.1623 0.59767 0.50414 0.0
C327 C 0.21202 0.63247 0.51279 0.0
C328 C 0.25788 0.65068 0.50061 0.0
C329 C 0.25502 0.635 0.47935 0.0
H330 H 0.12205 0.55505 0.47555 0.0
C331 C 0.2054 0.59927 0.4708 0.0
C332 C 0.15954 0.58078 0.48302 0.0
H333 H 0.20193 0.5862 0.45449 0.0
H334 H 0.96382 0.60581 0.54364 0.0
H335 H 0.04561 0.61861 0.52868 0.0
H336 H 0.97534 0.44985 0.52054 0.0
H337 H 0.89211 0.43724 0.53541 0.0
H338 H 0.06169 0.51268 0.50163 0.0
H339 H 0.11899 0.6111 0.52972 0.0
H340 H 0.21533 0.6466 0.52893 0.0
H341 H 0.29538 0.67865 0.50761 0.0
C342 C 0.62547 0.40071 0.8493 0.0
C343 C 0.64466 0.41288 0.87015 0.0
C344 C 0.60264 0.42758 0.83971 0.0
C345 C 0.59913 0.46768 0.85076 0.0
C346 C 0.62045 0.4811 0.87126 0.0
C347 C 0.64284 0.45408 0.88084 0.0
C348 C 0.56936 0.493 0.84268 0.0
C349 C 0.5503 0.48771 0.82283 0.0
C350 C 0.51258 0.50551 0.81676 0.0
C351 C 0.50716 0.51488 0.7953 0.0
C352 C 0.46796 0.52599 0.78894 0.0
C353 C 0.43291 0.52708 0.80392 0.0
H354 H 0.47995 0.50002 0.84836 0.0
C355 C 0.43939 0.51932 0.82541 0.0
C356 C 0.47848 0.50848 0.83177 0.0
H357 H 0.41308 0.52015 0.83731 0.0
H358 H 0.62598 0.36884 0.84074 0.0
H359 H 0.58611 0.41514 0.82406 0.0
H360 H 0.61844 0.51171 0.8802 0.0
H361 H 0.658 0.46488 0.89682 0.0
H362 H 0.56149 0.51609 0.85407 0.0
H363 H 0.56137 0.46888 0.81064 0.0
H364 H 0.53247 0.51232 0.78336 0.0
H365 H 0.46346 0.53117 0.77223 0.0
C366 C 0.61456 0.23202 0.51607 0.0
C367 C 0.65726 0.25156 0.53021 0.0
C368 C 0.59938 0.18538 0.50458 0.0
C369 C 0.62706 0.15784 0.50695 0.0
C370 C 0.67072 0.17869 0.52056 0.0
C371 C 0.68548 0.22469 0.53208 0.0
C372 C 0.61313 0.10791 0.49554 0.0
C373 C 0.56574 0.07474 0.48684 0.0
C374 C 0.55341 0.02288 0.47746 0.0
C375 C 0.50111 0.98044 0.47748 0.0
C376 C 0.48949 0.93004 0.47061 0.0
C377 C 0.5301 0.92134 0.46372 0.0
H378 H 0.63355 0.04654 0.46767 0.0
C379 C 0.58175 0.96434 0.46254 0.0
C380 C 0.59323 0.01456 0.46907 0.0
H381 H 0.61349 0.95895 0.45666 0.0
H382 H 0.59227 0.25213 0.51427 0.0
H383 H 0.56634 0.17139 0.49385 0.0
H384 H 0.69327 0.15887 0.52255 0.0
H385 H 0.71918 0.23928 0.54254 0.0
H386 H 0.64288 0.0962 0.49577 0.0
H387 H 0.53394 0.08344 0.48814 0.0
H388 H 0.46947 0.98581 0.48351 0.0
H389 H 0.4493 0.89748 0.47149 0.0
C390 C 0.06835 0.61504 0.14701 0.0
C391 C 0.09655 0.60102 0.13293 0.0
C392 C 0.01662 0.57863 0.15279 0.0
C393 C 0.99124 0.52701 0.14449 0.0
C394 C 0.01921 0.51292 0.13027 0.0
C395 C 0.07122 0.54972 0.12437 0.0
C396 C 0.93735 0.4866 0.15175 0.0
C397 C 0.90177 0.49982 0.15855 0.0
C398 C 0.85162 0.46361 0.16983 0.0
C399 C 0.82869 0.48657 0.18233 0.0
C400 C 0.78387 0.45531 0.19454 0.0
C401 C 0.76024 0.40005 0.19438 0.0
H402 H 0.84261 0.38866 0.15928 0.0
C403 C 0.78149 0.37656 0.18118 0.0
C404 C 0.82701 0.40804 0.16908 0.0
H405 H 0.76376 0.33397 0.18068 0.0
H406 H 0.08641 0.65433 0.15374 0.0
H407 H 0.99743 0.59081 0.16433 0.0
H408 H 1.00092 0.47326 0.12384 0.0
H409 H 0.09208 0.53763 0.11362 0.0
H410 H 0.9282 0.44581 0.15231 0.0
H411 H 0.91141 0.54071 0.15716 0.0
H412 H 0.84634 0.52914 0.18312 0.0
H413 H 0.76781 0.4745 0.20425 0.0
C414 C 0.4734 0.87076 0.38066 0.0
C415 C 0.50185 0.84387 0.38174 0.0
C416 C 0.49091 0.91558 0.36798 0.0
C417 C 0.53727 0.93467 0.35588 0.0
C418 C 0.56505 0.90702 0.3564 0.0
C419 C 0.54788 0.86236 0.36944 0.0
C420 C 0.55608 0.98255 0.34234 0.0
C421 C 0.5511 0.02407 0.34847 0.0
C422 C 0.56691 0.07183 0.33525 0.0
C423 C 0.58313 0.12035 0.34539 0.0
C424 C 0.59505 0.16553 0.33364 0.0
C425 C 0.58969 0.16293 0.31148 0.0
H426 H 0.54872 0.03223 0.30473 0.0
C427 C 0.57316 0.11434 0.30127 0.0
C428 C 0.56226 0.06926 0.31301 0.0
H429 H 0.56891 0.11134 0.28419 0.0
H430 H 0.43772 0.85767 0.38989 0.0
H431 H 0.46768 0.93494 0.36752 0.0
H432 H 0.60061 0.92061 0.34704 0.0
H433 H 0.57056 0.84241 0.3699 0.0
H434 H 0.57588 0.98435 0.3275 0.0
H435 H 0.53616 0.02398 0.36429 0.0
H436 H 0.58644 0.12329 0.36251 0.0
H437 H 0.60717 0.20226 0.34195 0.0
C438 C 0.89881 0.4305 0.97708 0.0
C439 C 0.85121 0.43094 0.97888 0.0
C440 C 0.94427 0.46833 0.98754 0.0
C441 C 0.94345 0.50802 0.99998 0.0
C442 C 0.89577 0.50811 1.00192 0.0
C443 C 0.85035 0.47029 0.99146 0.0
C444 C 0.99042 0.54809 0.01203 0.0
C445 C 0.04045 0.56132 0.00724 0.0
C446 C 0.08677 0.59651 0.02063 0.0
C447 C 0.12973 0.58795 0.0207 0.0
C448 C 0.17273 0.61722 0.03397 0.0
C449 C 0.1745 0.65678 0.04717 0.0
H450 H 0.05738 0.6461 0.03327 0.0
C451 C 0.13293 0.66753 0.04641 0.0
C452 C 0.08915 0.6374 0.03333 0.0
H453 H 0.13331 0.69776 0.05648 0.0
H454 H 0.90088 0.4003 0.96791 0.0
H455 H 0.97939 0.46525 0.98618 0.0
H456 H 0.89367 0.53778 0.0115 0.0
H457 H 0.8147 0.4724 0.99305 0.0
H458 H 0.98307 0.56647 0.02559 0.0
H459 H 0.04803 0.54321 0.99368 0.0
H460 H 0.12929 0.55717 0.01095 0.0
H461 H 0.20435 0.60823 0.03414 0.0
C462 C 0.35528 0.47172 0.71367 0.0
C463 C 0.36806 0.52468 0.71576 0.0
C464 C 0.38535 0.45829 0.70035 0.0
C465 C 0.42831 0.49767 0.68871 0.0
C466 C 0.43937 0.55009 0.69025 0.0
C467 C 0.41007 0.56352 0.70374 0.0
C468 C 0.46279 0.48651 0.67476 0.0
C469 C 0.47222 0.44637 0.67788 0.0
C470 C 0.51115 0.43869 0.66521 0.0
C471 C 0.50823 0.38929 0.6658 0.0
C472 C 0.54502 0.38084 0.65488 0.0
C473 C 0.5861 0.42173 0.64312 0.0
H474 H 0.55771 0.51906 0.65311 0.0
C475 C 0.58917 0.47125 0.64254 0.0
C476 C 0.55243 0.47976 0.6535 0.0
H477 H 0.62076 0.50401 0.63405 0.0
H478 H 0.32308 0.44098 0.72275 0.0
H479 H 0.37471 0.41722 0.69917 0.0
H480 H 0.4718 0.58119 0.68137 0.0
H481 H 0.42071 0.60466 0.70487 0.0
H482 H 0.4833 0.51467 0.66213 0.0
H483 H 0.45143 0.41823 0.69052 0.0
H484 H 0.47725 0.35695 0.67476 0.0
H485 H 0.54097 0.34201 0.65553 0.0
C486 C 0.15413 0.60668 0.68806 0.0
C487 C 0.16051 0.5708 0.7008 0.0
C488 C 0.10519 0.59255 0.67904 0.0
C489 C 0.06113 0.5421 0.68266 0.0
C490 C 0.06761 0.50638 0.69539 0.0
C491 C 0.11647 0.52045 0.70435 0.0
C492 C 1.00864 0.52361 0.67264 0.0
C493 C 0.9938 0.55503 0.66274 0.0
C494 C 0.94272 0.53418 0.65119 0.0
C495 C 0.92317 0.56825 0.64651 0.0
C496 C 0.87722 0.55068 0.63441 0.0
C497 C 0.85009 0.49869 0.62665 0.0
H498 H 0.92903 0.45464 0.64601 0.0
C499 C 0.86918 0.4645 0.63161 0.0
C500 C 0.9149 0.48196 0.64356 0.0
H501 H 0.8496 0.42428 0.62573 0.0
H502 H 0.1869 0.64599 0.68512 0.0
H503 H 0.10267 0.62112 0.66902 0.0
H504 H 0.03472 0.46703 0.69831 0.0
H505 H 0.11967 0.49135 0.71377 0.0
H506 H 0.98074 0.48158 0.67375 0.0
H507 H 0.01945 0.59757 0.66306 0.0
H508 H 0.94394 0.60883 0.65197 0.0
H509 H 0.86377 0.5781 0.63071 0.0
C510 C 0.54947 0.40242 0.29653 0.0
C511 C 0.5162 0.34843 0.29218 0.0
C512 C 0.5313 0.43091 0.30808 0.0
C513 C 0.47926 0.40606 0.31592 0.0
C514 C 0.4461 0.35179 0.31181 0.0
C515 C 0.46436 0.32319 0.30011 0.0
C516 C 0.45763 0.43617 0.32725 0.0
C517 C 0.48835 0.48345 0.33672 0.0
C518 C 0.46928 0.51712 0.34687 0.0
C519 C 0.50719 0.56829 0.35339 0.0
C520 C 0.4923 0.60185 0.36307 0.0
C521 C 0.43887 0.58524 0.36665 0.0
H522 H 0.3848 0.46139 0.3458 0.0
C523 C 0.40069 0.53415 0.36002 0.0
C524 C 0.41561 0.50045 0.35028 0.0
H525 H 0.3592 0.51963 0.36278 0.0
H526 H 0.5895 0.42338 0.29048 0.0
H527 H 0.55797 0.4728 0.31006 0.0
H528 H 0.40569 0.33156 0.31744 0.0
H529 H 0.43758 0.28176 0.29687 0.0
H530 H 0.41513 0.41853 0.32749 0.0
H531 H 0.53065 0.49937 0.33702 0.0
H532 H 0.54882 0.58263 0.35095 0.0
H533 H 0.52287 0.64103 0.36764 0.0
C534 C 0.60779 0.1523 0.96277 0.0
C535 C 0.65975 0.16871 0.95635 0.0
C536 C 0.57837 0.10569 0.97431 0.0
C537 C 0.60023 0.07418 0.97987 0.0
C538 C 0.65241 0.09081 0.9736 0.0
C539 C 0.68203 0.13777 0.96207 0.0
C540 C 0.56856 0.02238 0.99092 0.0
C541 C 0.52609 0.01043 1.00318 0.0
C542 C 0.4922 0.95782 0.01326 0.0
C543 C 0.46215 0.9544 0.03123 0.0
C544 C 0.42873 0.9056 0.04085 0.0
C545 C 0.42394 0.85871 0.03256 0.0
H546 H 0.50805 0.91155 0.99054 0.0
C547 C 0.45337 0.86208 0.01432 0.0
C548 C 0.48705 0.91094 1.00478 0.0
H549 H 0.45007 0.82687 0.00721 0.0
H550 H 0.5892 0.17496 0.9585 0.0
H551 H 0.53793 0.09378 0.97817 0.0
H552 H 0.67017 0.06714 0.97747 0.0
H553 H 0.72181 0.1491 0.95722 0.0
H554 H 0.58148 0.99368 0.98914 0.0
H555 H 0.51626 0.04085 0.00661 0.0
H556 H 0.46491 0.98975 0.03802 0.0
H557 H 0.40745 0.90495 0.05501 0.0
loop_
_geom_bond_atom_site_label_1
_geom_bond_atom_site_label_2
_geom_bond_distance
_geom_bond_site_symmetry_2
_ccdc_geom_bond_type
Co0 N4 2.148 . S
Co0 N10 2.128 . S
Co0 N20 2.194 . S
Co0 O25 2.351 . S
Co0 O26 2.155 . S
Co0 O27 2.096 . S
C1 N4 1.301 . S
C1 N5 1.328 . S
C1 H6 0.930 . S
C2 C3 1.333 . S
C2 N4 1.317 . S
C2 H7 0.930 . S
C3 C2 1.333 . S
C3 N5 1.350 . S
C3 H29 0.931 . S
N4 Co0 2.148 . S
N4 C1 1.301 . S
N4 C2 1.317 . S
N5 C1 1.328 . S
N5 C3 1.350 . S
H6 C1 0.930 . S
H7 C2 0.930 . S
C8 O9 1.224 . S
C8 O27 1.247 . S
O9 C8 1.224 . S
N10 Co0 2.128 . S
N10 C11 1.355 . S
N10 C13 1.311 . S
C11 N10 1.355 . S
C11 C12 1.363 . S
C11 H23 0.929 . S
C12 C11 1.363 . S
C12 N14 1.375 . S
C12 H30 0.931 . S
C13 N10 1.311 . S
C13 N14 1.347 . S
C13 H24 0.929 . S
N14 C12 1.375 . S
N14 C13 1.347 . S
C15 C18 1.365 . S
C15 N20 1.328 . S
C15 H21 0.929 . S
C16 C17 1.362 . S
C16 C19 1.378 . S
C16 H31 0.929 . S
C17 C16 1.362 . S
C17 C18 1.366 . S
C18 C15 1.365 . S
C18 C17 1.366 . S
C18 H32 0.930 . S
C19 C16 1.378 . S
C19 N20 1.315 . S
C19 H22 0.930 . S
N20 Co0 2.194 . S
N20 C15 1.328 . S
N20 C19 1.315 . S
H21 C15 0.929 . S
H22 C19 0.930 . S
H23 C11 0.929 . S
H24 C13 0.929 . S
O25 Co0 2.351 . S
O25 C28 1.244 . S
O26 Co0 2.155 . S
O26 C28 1.240 . S
O27 Co0 2.096 . S
O27 C8 1.247 . S
C28 O25 1.244 . S
C28 O26 1.240 . S
H29 C3 0.931 . S
H30 C12 0.931 . S
H31 C16 0.929 . S
H32 C18 0.930 . S
Co33 N37 2.148 . S
Co33 N43 2.128 . S
Co33 N53 2.194 . S
Co33 O58 2.351 . S
Co33 O59 2.155 . S
Co33 O60 2.096 . S
C34 N37 1.301 . S
C34 N38 1.328 . S
C34 H39 0.930 . S
C35 C36 1.333 . S
C35 N37 1.317 . S
C35 H40 0.930 . S
C36 C35 1.333 . S
C36 N38 1.350 . S
C36 H62 0.931 . S
N37 Co33 2.148 . S
N37 C34 1.301 . S
N37 C35 1.317 . S
N38 C34 1.328 . S
N38 C36 1.350 . S
H39 C34 0.930 . S
H40 C35 0.930 . S
C41 O42 1.224 . S
C41 O60 1.247 . S
O42 C41 1.224 . S
N43 Co33 2.128 . S
N43 C44 1.355 . S
N43 C46 1.311 . S
C44 N43 1.355 . S
C44 C45 1.363 . S
C44 H56 0.929 . S
C45 C44 1.363 . S
C45 N47 1.375 . S
C45 H63 0.931 . S
C46 N43 1.311 . S
C46 N47 1.347 . S
C46 H57 0.929 . S
N47 C45 1.375 . S
N47 C46 1.347 . S
C48 C51 1.365 . S
C48 N53 1.328 . S
C48 H54 0.929 . S
C49 C50 1.362 . S
C49 C52 1.378 . S
C49 H64 0.929 . S
C50 C49 1.362 . S
C50 C51 1.366 . S
C51 C48 1.365 . S
C51 C50 1.366 . S
C51 H65 0.930 . S
C52 C49 1.378 . S
C52 N53 1.315 . S
C52 H55 0.930 . S
N53 Co33 2.194 . S
N53 C48 1.328 . S
N53 C52 1.315 . S
H54 C48 0.929 . S
H55 C52 0.930 . S
H56 C44 0.929 . S
H57 C46 0.929 . S
O58 Co33 2.351 . S
O58 C61 1.244 . S
O59 Co33 2.155 . S
O59 C61 1.240 . S
O60 Co33 2.096 . S
O60 C41 1.247 . S
C61 O58 1.244 . S
C61 O59 1.240 . S
H62 C36 0.931 . S
H63 C45 0.931 . S
H64 C49 0.929 . S
H65 C51 0.930 . S
Co66 N70 2.148 . S
Co66 N76 2.128 . S
Co66 N86 2.194 . S
Co66 O91 2.351 . S
Co66 O92 2.155 . S
Co66 O93 2.096 . S
C67 N70 1.301 . S
C67 N71 1.328 . S
C67 H72 0.930 . S
C68 C69 1.333 . S
C68 N70 1.317 . S
C68 H73 0.930 . S
C69 C68 1.333 . S
C69 N71 1.350 . S
C69 H95 0.931 . S
N70 Co66 2.148 . S
N70 C67 1.301 . S
N70 C68 1.317 . S
N71 C67 1.328 . S
N71 C69 1.350 . S
H72 C67 0.930 . S
H73 C68 0.930 . S
C74 O75 1.224 . S
C74 O93 1.247 . S
O75 C74 1.224 . S
N76 Co66 2.128 . S
N76 C77 1.355 . S
N76 C79 1.311 . S
C77 N76 1.355 . S
C77 C78 1.363 . S
C77 H89 0.929 . S
C78 C77 1.363 . S
C78 N80 1.375 . S
C78 H96 0.931 . S
C79 N76 1.311 . S
C79 N80 1.347 . S
C79 H90 0.929 . S
N80 C78 1.375 . S
N80 C79 1.347 . S
C81 C84 1.365 . S
C81 N86 1.328 . S
C81 H87 0.929 . S
C82 C83 1.362 . S
C82 C85 1.378 . S
C82 H97 0.929 . S
C83 C82 1.362 . S
C83 C84 1.366 . S
C84 C81 1.365 . S
C84 C83 1.366 . S
C84 H98 0.930 . S
C85 C82 1.378 . S
C85 N86 1.315 . S
C85 H88 0.930 . S
N86 Co66 2.194 . S
N86 C81 1.328 . S
N86 C85 1.315 . S
H87 C81 0.929 . S
H88 C85 0.930 . S
H89 C77 0.929 . S
H90 C79 0.929 . S
O91 Co66 2.351 . S
O91 C94 1.244 . S
O92 Co66 2.155 . S
O92 C94 1.240 . S
O93 Co66 2.096 . S
O93 C74 1.247 . S
C94 O91 1.244 . S
C94 O92 1.240 . S
H95 C69 0.931 . S
H96 C78 0.931 . S
H97 C82 0.929 . S
H98 C84 0.930 . S
Co99 N103 2.148 . S
Co99 N109 2.128 . S
Co99 N119 2.194 . S
Co99 O124 2.351 . S
Co99 O125 2.155 . S
Co99 O126 2.096 . S
C100 N103 1.301 . S
C100 N104 1.328 . S
C100 H105 0.930 . S
C101 C102 1.333 . S
C101 N103 1.317 . S
C101 H106 0.930 . S
C102 C101 1.333 . S
C102 N104 1.350 . S
C102 H128 0.931 . S
N103 Co99 2.148 . S
N103 C100 1.301 . S
N103 C101 1.317 . S
N104 C100 1.328 . S
N104 C102 1.350 . S
H105 C100 0.930 . S
H106 C101 0.930 . S
C107 O108 1.224 . S
C107 O126 1.247 . S
O108 C107 1.224 . S
N109 Co99 2.128 . S
N109 C110 1.355 . S
N109 C112 1.311 . S
C110 N109 1.355 . S
C110 C111 1.363 . S
C110 H122 0.929 . S
C111 C110 1.363 . S
C111 N113 1.375 . S
C111 H129 0.931 . S
C112 N109 1.311 . S
C112 N113 1.347 . S
C112 H123 0.929 . S
N113 C111 1.375 . S
N113 C112 1.347 . S
C114 C117 1.365 . S
C114 N119 1.328 . S
C114 H120 0.929 . S
C115 C116 1.362 . S
C115 C118 1.378 . S
C115 H130 0.929 . S
C116 C115 1.362 . S
C116 C117 1.366 . S
C117 C114 1.365 . S
C117 C116 1.366 . S
C117 H131 0.930 . S
C118 C115 1.378 . S
C118 N119 1.315 . S
C118 H121 0.930 . S
N119 Co99 2.194 . S
N119 C114 1.328 . S
N119 C118 1.315 . S
H120 C114 0.929 . S
H121 C118 0.930 . S
H122 C110 0.929 . S
H123 C112 0.929 . S
O124 Co99 2.351 . S
O124 C127 1.244 . S
O125 Co99 2.155 . S
O125 C127 1.240 . S
O126 Co99 2.096 . S
O126 C107 1.247 . S
C127 O124 1.244 . S
C127 O125 1.240 . S
H128 C102 0.931 . S
H129 C111 0.931 . S
H130 C115 0.929 . S
H131 C117 0.930 . S
Co132 N136 2.148 . S
Co132 N142 2.128 . S
Co132 N152 2.194 . S
Co132 O157 2.351 . S
Co132 O158 2.155 . S
Co132 O159 2.096 . S
C133 N136 1.301 . S
C133 N137 1.328 . S
C133 H138 0.930 . S
C134 C135 1.333 . S
C134 N136 1.317 . S
C134 H139 0.930 . S
C135 C134 1.333 . S
C135 N137 1.350 . S
C135 H161 0.931 . S
N136 Co132 2.148 . S
N136 C133 1.301 . S
N136 C134 1.317 . S
N137 C133 1.328 . S
N137 C135 1.350 . S
H138 C133 0.930 . S
H139 C134 0.930 . S
C140 O141 1.224 . S
C140 O159 1.247 . S
O141 C140 1.224 . S
N142 Co132 2.128 . S
N142 C143 1.355 . S
N142 C145 1.311 . S
C143 N142 1.355 . S
C143 C144 1.363 . S
C143 H155 0.929 . S
C144 C143 1.363 . S
C144 N146 1.375 . S
C144 H162 0.931 . S
C145 N142 1.311 . S
C145 N146 1.347 . S
C145 H156 0.929 . S
N146 C144 1.375 . S
N146 C145 1.347 . S
C147 C150 1.365 . S
C147 N152 1.328 . S
C147 H153 0.929 . S
C148 C149 1.362 . S
C148 C151 1.378 . S
C148 H163 0.929 . S
C149 C148 1.362 . S
C149 C150 1.366 . S
C150 C147 1.365 . S
C150 C149 1.366 . S
C150 H164 0.930 . S
C151 C148 1.378 . S
C151 N152 1.315 . S
C151 H154 0.930 . S
N152 Co132 2.194 . S
N152 C147 1.328 . S
N152 C151 1.315 . S
H153 C147 0.929 . S
H154 C151 0.930 . S
H155 C143 0.929 . S
H156 C145 0.929 . S
O157 Co132 2.351 . S
O157 C160 1.244 . S
O158 Co132 2.155 . S
O158 C160 1.240 . S
O159 Co132 2.096 . S
O159 C140 1.247 . S
C160 O157 1.244 . S
C160 O158 1.240 . S
H161 C135 0.931 . S
H162 C144 0.931 . S
H163 C148 0.929 . S
H164 C150 0.930 . S
Co165 N169 2.148 . S
Co165 N175 2.128 . S
Co165 N185 2.194 . S
Co165 O190 2.351 . S
Co165 O191 2.155 . S
Co165 O192 2.096 . S
C166 N169 1.301 . S
C166 N170 1.328 . S
C166 H171 0.930 . S
C167 C168 1.333 . S
C167 N169 1.317 . S
C167 H172 0.930 . S
C168 C167 1.333 . S
C168 N170 1.350 . S
C168 H194 0.931 . S
N169 Co165 2.148 . S
N169 C166 1.301 . S
N169 C167 1.317 . S
N170 C166 1.328 . S
N170 C168 1.350 . S
H171 C166 0.930 . S
H172 C167 0.930 . S
C173 O174 1.224 . S
C173 O192 1.247 . S
O174 C173 1.224 . S
N175 Co165 2.128 . S
N175 C176 1.355 . S
N175 C178 1.311 . S
C176 N175 1.355 . S
C176 C177 1.363 . S
C176 H188 0.929 . S
C177 C176 1.363 . S
C177 N179 1.375 . S
C177 H195 0.931 . S
C178 N175 1.311 . S
C178 N179 1.347 . S
C178 H189 0.929 . S
N179 C177 1.375 . S
N179 C178 1.347 . S
C180 C183 1.365 . S
C180 N185 1.328 . S
C180 H186 0.929 . S
C181 C182 1.362 . S
C181 C184 1.378 . S
C181 H196 0.929 . S
C182 C181 1.362 . S
C182 C183 1.366 . S
C183 C180 1.365 . S
C183 C182 1.366 . S
C183 H197 0.930 . S
C184 C181 1.378 . S
C184 N185 1.315 . S
C184 H187 0.930 . S
N185 Co165 2.194 . S
N185 C180 1.328 . S
N185 C184 1.315 . S
H186 C180 0.929 . S
H187 C184 0.930 . S
H188 C176 0.929 . S
H189 C178 0.929 . S
O190 Co165 2.351 . S
O190 C193 1.244 . S
O191 Co165 2.155 . S
O191 C193 1.240 . S
O192 Co165 2.096 . S
O192 C173 1.247 . S
C193 O190 1.244 . S
C193 O191 1.240 . S
H194 C168 0.931 . S
H195 C177 0.931 . S
H196 C181 0.929 . S
H197 C183 0.930 . S
C198 C199 1.386 . S
C198 C200 1.383 . S
C198 H214 0.951 . S
C199 C198 1.386 . S
C199 C203 1.383 . S
C200 C198 1.383 . S
C200 C201 1.402 . S
C200 H215 0.951 . S
C201 C200 1.402 . S
C201 C202 1.375 . S
C201 C204 1.481 1_545 S
C202 C201 1.375 . S
C202 C203 1.367 . S
C202 H216 0.951 . S
C203 C199 1.383 . S
C203 C202 1.367 . S
C203 H217 0.950 . S
C204 C201 1.481 1_565 S
C204 C205 1.297 . S
C204 H218 0.950 . S
C205 C204 1.297 . S
C205 C206 1.479 . S
C205 H219 0.950 1_565 S
C206 C205 1.479 . S
C206 C207 1.375 . S
C206 C212 1.404 . S
C207 C206 1.375 . S
C207 C208 1.369 . S
C207 H220 0.950 . S
C208 C207 1.369 . S
C208 C209 1.392 . S
C208 H221 0.951 . S
C209 C208 1.392 . S
C209 C211 1.384 . S
H210 C212 0.949 . S
C211 C209 1.384 . S
C211 C212 1.385 . S
C211 H213 0.950 . S
C212 C206 1.404 . S
C212 H210 0.949 . S
C212 C211 1.385 . S
H213 C211 0.950 . S
H214 C198 0.951 . S
H215 C200 0.951 . S
H216 C202 0.951 . S
H217 C203 0.950 . S
H218 C204 0.950 . S
H219 C205 0.950 1_545 S
H220 C207 0.950 . S
H221 C208 0.951 . S
C222 C223 1.386 . S
C222 C224 1.383 . S
C222 H238 0.951 . S
C223 C222 1.386 . S
C223 C227 1.383 . S
C224 C222 1.383 . S
C224 C225 1.402 . S
C224 H239 0.951 . S
C225 C224 1.402 . S
C225 C226 1.375 . S
C225 C228 1.481 1_455 S
C226 C225 1.375 . S
C226 C227 1.367 . S
C226 H240 0.951 . S
C227 C223 1.383 . S
C227 C226 1.367 . S
C227 H241 0.950 . S
C228 C225 1.481 1_655 S
C228 C229 1.297 . S
C228 H242 0.950 . S
C229 C228 1.297 . S
C229 C230 1.479 . S
C229 H243 0.950 1_655 S
C230 C229 1.479 . S
C230 C231 1.375 . S
C230 C236 1.404 . S
C231 C230 1.375 . S
C231 C232 1.369 . S
C231 H244 0.950 . S
C232 C231 1.369 . S
C232 C233 1.392 . S
C232 H245 0.951 . S
C233 C232 1.392 . S
C233 C235 1.384 . S
H234 C236 0.949 . S
C235 C233 1.384 . S
C235 C236 1.385 . S
C235 H237 0.950 . S
C236 C230 1.404 . S
C236 H234 0.949 . S
C236 C235 1.385 . S
H237 C235 0.950 . S
H238 C222 0.951 . S
H239 C224 0.951 . S
H240 C226 0.951 . S
H241 C227 0.950 . S
H242 C228 0.950 . S
H243 C229 0.950 1_455 S
H244 C231 0.950 . S
H245 C232 0.951 . S
C246 C247 1.386 . S
C246 C248 1.383 . S
C246 H262 0.951 . S
C247 C246 1.386 . S
C247 C251 1.383 . S
C248 C246 1.383 . S
C248 C249 1.402 . S
C248 H263 0.951 . S
C249 C248 1.402 . S
C249 C250 1.375 . S
C249 C252 1.481 . S
C250 C249 1.375 . S
C250 C251 1.367 . S
C250 H264 0.951 . S
C251 C247 1.383 . S
C251 C250 1.367 . S
C251 H265 0.950 . S
C252 C249 1.481 . S
C252 C253 1.297 . S
C252 H266 0.950 . S
C253 C252 1.297 . S
C253 C254 1.479 . S
C253 H267 0.950 . S
C254 C253 1.479 . S
C254 C255 1.375 . S
C254 C260 1.404 . S
C255 C254 1.375 . S
C255 C256 1.369 . S
C255 H268 0.950 . S
C256 C255 1.369 . S
C256 C257 1.392 . S
C256 H269 0.951 . S
C257 C256 1.392 . S
C257 C259 1.384 . S
H258 C260 0.949 . S
C259 C257 1.384 . S
C259 C260 1.385 . S
C259 H261 0.950 . S
C260 C254 1.404 . S
C260 H258 0.949 . S
C260 C259 1.385 . S
H261 C259 0.950 . S
H262 C246 0.951 . S
H263 C248 0.951 . S
H264 C250 0.951 . S
H265 C251 0.950 . S
H266 C252 0.950 . S
H267 C253 0.950 . S
H268 C255 0.950 . S
H269 C256 0.951 . S
C270 C271 1.386 . S
C270 C272 1.383 . S
C270 H286 0.951 . S
C271 C270 1.386 . S
C271 C275 1.383 . S
C272 C270 1.383 . S
C272 C273 1.402 . S
C272 H287 0.951 . S
C273 C272 1.402 . S
C273 C274 1.375 . S
C273 C276 1.481 . S
C274 C273 1.375 . S
C274 C275 1.367 . S
C274 H288 0.951 . S
C275 C271 1.383 . S
C275 C274 1.367 . S
C275 H289 0.950 . S
C276 C273 1.481 . S
C276 C277 1.297 . S
C276 H290 0.950 . S
C277 C276 1.297 . S
C277 C278 1.479 . S
C277 H291 0.950 . S
C278 C277 1.479 . S
C278 C279 1.375 . S
C278 C284 1.404 . S
C279 C278 1.375 . S
C279 C280 1.369 . S
C279 H292 0.950 . S
C280 C279 1.369 . S
C280 C281 1.392 . S
C280 H293 0.951 . S
C281 C280 1.392 . S
C281 C283 1.384 . S
H282 C284 0.949 . S
C283 C281 1.384 . S
C283 C284 1.385 . S
C283 H285 0.950 . S
C284 C278 1.404 . S
C284 H282 0.949 . S
C284 C283 1.385 . S
H285 C283 0.950 . S
H286 C270 0.951 . S
H287 C272 0.951 . S
H288 C274 0.951 . S
H289 C275 0.950 . S
H290 C276 0.950 . S
H291 C277 0.950 . S
H292 C279 0.950 . S
H293 C280 0.951 . S
C294 C295 1.386 . S
C294 C296 1.383 . S
C294 H310 0.951 . S
C295 C294 1.386 . S
C295 C299 1.383 . S
C296 C294 1.383 . S
C296 C297 1.402 . S
C296 H311 0.951 . S
C297 C296 1.402 . S
C297 C298 1.375 . S
C297 C300 1.481 . S
C298 C297 1.375 . S
C298 C299 1.367 . S
C298 H312 0.951 . S
C299 C295 1.383 . S
C299 C298 1.367 . S
C299 H313 0.950 . S
C300 C297 1.481 . S
C300 C301 1.297 . S
C300 H314 0.950 . S
C301 C300 1.297 . S
C301 C302 1.479 . S
C301 H315 0.950 . S
C302 C301 1.479 . S
C302 C303 1.375 . S
C302 C308 1.404 1_565 S
C303 C302 1.375 . S
C303 C304 1.369 1_565 S
C303 H316 0.950 . S
C304 C303 1.369 1_545 S
C304 C305 1.392 . S
C304 H317 0.951 . S
C305 C304 1.392 . S
C305 C307 1.384 . S
H306 C308 0.948 1_565 S
C307 C305 1.384 . S
C307 C308 1.385 . S
C307 H309 0.950 . S
C308 C302 1.404 1_545 S
C308 H306 0.948 1_545 S
C308 C307 1.385 . S
H309 C307 0.950 . S
H310 C294 0.951 . S
H311 C296 0.951 . S
H312 C298 0.951 . S
H313 C299 0.950 . S
H314 C300 0.950 . S
H315 C301 0.950 . S
H316 C303 0.950 . S
H317 C304 0.951 . S
C318 C319 1.386 . S
C318 C320 1.383 1_655 S
C318 H334 0.951 . S
C319 C318 1.386 . S
C319 C323 1.383 . S
C320 C318 1.383 1_455 S
C320 C321 1.402 . S
C320 H335 0.951 . S
C321 C320 1.402 . S
C321 C322 1.375 1_455 S
C321 C324 1.481 . S
C322 C321 1.375 1_655 S
C322 C323 1.367 . S
C322 H336 0.951 . S
C323 C319 1.383 . S
C323 C322 1.367 . S
C323 H337 0.950 . S
C324 C321 1.481 . S
C324 C325 1.297 . S
C324 H338 0.950 . S
C325 C324 1.297 . S
C325 C326 1.479 . S
C325 H339 0.950 . S
C326 C325 1.479 . S
C326 C327 1.375 . S
C326 C332 1.404 . S
C327 C326 1.375 . S
C327 C328 1.369 . S
C327 H340 0.950 . S
C328 C327 1.369 . S
C328 C329 1.392 . S
C328 H341 0.951 . S
C329 C328 1.392 . S
C329 C331 1.384 . S
H330 C332 0.949 . S
C331 C329 1.384 . S
C331 C332 1.385 . S
C331 H333 0.950 . S
C332 C326 1.404 . S
C332 H330 0.949 . S
C332 C331 1.385 . S
H333 C331 0.950 . S
H334 C318 0.951 . S
H335 C320 0.951 . S
H336 C322 0.951 . S
H337 C323 0.950 . S
H338 C324 0.950 . S
H339 C325 0.950 . S
H340 C327 0.950 . S
H341 C328 0.951 . S
C342 C343 1.386 . S
C342 C344 1.383 . S
C342 H358 0.951 . S
C343 C342 1.386 . S
C343 C347 1.383 . S
C344 C342 1.383 . S
C344 C345 1.402 . S
C344 H359 0.951 . S
C345 C344 1.402 . S
C345 C346 1.375 . S
C345 C348 1.481 . S
C346 C345 1.375 . S
C346 C347 1.367 . S
C346 H360 0.951 . S
C347 C343 1.383 . S
C347 C346 1.367 . S
C347 H361 0.950 . S
C348 C345 1.481 . S
C348 C349 1.297 . S
C348 H362 0.950 . S
C349 C348 1.297 . S
C349 C350 1.479 . S
C349 H363 0.950 . S
C350 C349 1.479 . S
C350 C351 1.375 . S
C350 C356 1.404 . S
C351 C350 1.375 . S
C351 C352 1.369 . S
C351 H364 0.950 . S
C352 C351 1.369 . S
C352 C353 1.392 . S
C352 H365 0.951 . S
C353 C352 1.392 . S
C353 C355 1.384 . S
H354 C356 0.949 . S
C355 C353 1.384 . S
C355 C356 1.385 . S
C355 H357 0.950 . S
C356 C350 1.404 . S
C356 H354 0.949 . S
C356 C355 1.385 . S
H357 C355 0.950 . S
H358 C342 0.951 . S
H359 C344 0.951 . S
H360 C346 0.951 . S
H361 C347 0.950 . S
H362 C348 0.950 . S
H363 C349 0.950 . S
H364 C351 0.950 . S
H365 C352 0.951 . S
C366 C367 1.386 . S
C366 C368 1.383 . S
C366 H382 0.951 . S
C367 C366 1.386 . S
C367 C371 1.383 . S
C368 C366 1.383 . S
C368 C369 1.402 . S
C368 H383 0.951 . S
C369 C368 1.402 . S
C369 C370 1.375 . S
C369 C372 1.481 . S
C370 C369 1.375 . S
C370 C371 1.367 . S
C370 H384 0.951 . S
C371 C367 1.383 . S
C371 C370 1.367 . S
C371 H385 0.950 . S
C372 C369 1.481 . S
C372 C373 1.297 . S
C372 H386 0.950 . S
C373 C372 1.297 . S
C373 C374 1.479 . S
C373 H387 0.950 . S
C374 C373 1.479 . S
C374 C375 1.375 . S
C374 C380 1.404 . S
C375 C374 1.375 . S
C375 C376 1.369 1_545 S
C375 H388 0.950 . S
C376 C375 1.369 1_565 S
C376 C377 1.392 . S
C376 H389 0.951 . S
C377 C376 1.392 . S
C377 C379 1.384 . S
H378 C380 0.949 . S
C379 C377 1.384 . S
C379 C380 1.385 1_565 S
C379 H381 0.950 . S
C380 C374 1.404 . S
C380 H378 0.949 . S
C380 C379 1.385 1_545 S
H381 C379 0.950 . S
H382 C366 0.951 . S
H383 C368 0.951 . S
H384 C370 0.951 . S
H385 C371 0.950 . S
H386 C372 0.950 . S
H387 C373 0.950 . S
H388 C375 0.950 . S
H389 C376 0.951 . S
C390 C391 1.386 . S
C390 C392 1.383 1_455 S
C390 H406 0.951 . S
C391 C390 1.386 . S
C391 C395 1.383 . S
C392 C390 1.383 1_655 S
C392 C393 1.402 . S
C392 H407 0.951 . S
C393 C392 1.402 . S
C393 C394 1.375 . S
C393 C396 1.481 . S
C394 C393 1.375 . S
C394 C395 1.367 1_655 S
C394 H408 0.951 . S
C395 C391 1.383 . S
C395 C394 1.367 1_455 S
C395 H409 0.950 . S
C396 C393 1.481 . S
C396 C397 1.297 . S
C396 H410 0.950 . S
C397 C396 1.297 . S
C397 C398 1.479 . S
C397 H411 0.950 . S
C398 C397 1.479 . S
C398 C399 1.375 . S
C398 C404 1.404 . S
C399 C398 1.375 . S
C399 C400 1.369 . S
C399 H412 0.950 . S
C400 C399 1.369 . S
C400 C401 1.392 . S
C400 H413 0.951 . S
C401 C400 1.392 . S
C401 C403 1.384 . S
H402 C404 0.949 . S
C403 C401 1.384 . S
C403 C404 1.385 . S
C403 H405 0.950 . S
C404 C398 1.404 . S
C404 H402 0.949 . S
C404 C403 1.385 . S
H405 C403 0.950 . S
H406 C390 0.951 . S
H407 C392 0.951 . S
H408 C394 0.951 . S
H409 C395 0.950 . S
H410 C396 0.950 . S
H411 C397 0.950 . S
H412 C399 0.950 . S
H413 C400 0.951 . S
C414 C415 1.386 . S
C414 C416 1.383 . S
C414 H430 0.951 . S
C415 C414 1.386 . S
C415 C419 1.383 . S
C416 C414 1.383 . S
C416 C417 1.402 . S
C416 H431 0.951 1_565 S
C417 C416 1.402 . S
C417 C418 1.375 . S
C417 C420 1.481 1_565 S
C418 C417 1.375 . S
C418 C419 1.367 . S
C418 H432 0.951 . S
C419 C415 1.383 . S
C419 C418 1.367 . S
C419 H433 0.950 . S
C420 C417 1.481 1_545 S
C420 C421 1.297 . S
C420 H434 0.950 1_545 S
C421 C420 1.297 . S
C421 C422 1.479 . S
C421 H435 0.950 . S
C422 C421 1.479 . S
C422 C423 1.375 . S
C422 C428 1.404 . S
C423 C422 1.375 . S
C423 C424 1.369 . S
C423 H436 0.950 . S
C424 C423 1.369 . S
C424 C425 1.392 . S
C424 H437 0.951 . S
C425 C424 1.392 . S
C425 C427 1.384 . S
H426 C428 0.949 . S
C427 C425 1.384 . S
C427 C428 1.385 . S
C427 H429 0.950 . S
C428 C422 1.404 . S
C428 H426 0.949 . S
C428 C427 1.385 . S
H429 C427 0.950 . S
H430 C414 0.951 . S
H431 C416 0.951 1_545 S
H432 C418 0.951 . S
H433 C419 0.950 . S
H434 C420 0.950 1_565 S
H435 C421 0.950 . S
H436 C423 0.950 . S
H437 C424 0.951 . S
C438 C439 1.386 . S
C438 C440 1.383 . S
C438 H454 0.951 . S
C439 C438 1.386 . S
C439 C443 1.383 . S
C440 C438 1.383 . S
C440 C441 1.402 . S
C440 H455 0.951 . S
C441 C440 1.402 . S
C441 C442 1.375 . S
C441 C444 1.481 . S
C442 C441 1.375 . S
C442 C443 1.367 . S
C442 H456 0.951 . S
C443 C439 1.383 . S
C443 C442 1.367 . S
C443 H457 0.950 . S
C444 C441 1.481 . S
C444 C445 1.309 1_655 S
C444 H458 0.950 . S
C445 C444 1.309 1_455 S
C445 C446 1.456 1_556 S
C445 H459 0.964 . S
C446 C445 1.456 1_554 S
C446 C447 1.375 . S
C446 C452 1.404 . S
C447 C446 1.375 . S
C447 C448 1.369 . S
C447 H460 0.950 . S
C448 C447 1.369 . S
C448 C449 1.392 . S
C448 H461 0.951 . S
C449 C448 1.392 . S
C449 C451 1.384 . S
H450 C452 0.949 . S
C451 C449 1.384 . S
C451 C452 1.385 . S
C451 H453 0.950 . S
C452 C446 1.404 . S
C452 H450 0.949 . S
C452 C451 1.385 . S
H453 C451 0.950 . S
H454 C438 0.951 . S
H455 C440 0.951 . S
H456 C442 0.951 . S
H457 C443 0.950 . S
H458 C444 0.950 . S
H459 C445 0.964 . S
H460 C447 0.950 . S
H461 C448 0.951 . S
C462 C463 1.386 . S
C462 C464 1.383 . S
C462 H478 0.951 . S
C463 C462 1.386 . S
C463 C467 1.383 . S
C464 C462 1.383 . S
C464 C465 1.402 . S
C464 H479 0.951 . S
C465 C464 1.402 . S
C465 C466 1.375 . S
C465 C468 1.481 . S
C466 C465 1.375 . S
C466 C467 1.367 . S
C466 H480 0.951 . S
C467 C463 1.383 . S
C467 C466 1.367 . S
C467 H481 0.950 . S
C468 C465 1.481 . S
C468 C469 1.297 . S
C468 H482 0.950 . S
C469 C468 1.297 . S
C469 C470 1.479 . S
C469 H483 0.950 . S
C470 C469 1.479 . S
C470 C471 1.375 . S
C470 C476 1.404 . S
C471 C470 1.375 . S
C471 C472 1.369 . S
C471 H484 0.950 . S
C472 C471 1.369 . S
C472 C473 1.392 . S
C472 H485 0.951 . S
C473 C472 1.392 . S
C473 C475 1.384 . S
H474 C476 0.949 . S
C475 C473 1.384 . S
C475 C476 1.385 . S
C475 H477 0.950 . S
C476 C470 1.404 . S
C476 H474 0.949 . S
C476 C475 1.385 . S
H477 C475 0.950 . S
H478 C462 0.951 . S
H479 C464 0.951 . S
H480 C466 0.951 . S
H481 C467 0.950 . S
H482 C468 0.950 . S
H483 C469 0.950 . S
H484 C471 0.950 . S
H485 C472 0.951 . S
C486 C487 1.386 . S
C486 C488 1.383 . S
C486 H502 0.951 . S
C487 C486 1.386 . S
C487 C491 1.383 . S
C488 C486 1.383 . S
C488 C489 1.402 . S
C488 H503 0.951 . S
C489 C488 1.402 . S
C489 C490 1.375 . S
C489 C492 1.481 . S
C490 C489 1.375 . S
C490 C491 1.367 . S
C490 H504 0.951 . S
C491 C487 1.383 . S
C491 C490 1.367 . S
C491 H505 0.950 . S
C492 C489 1.481 . S
C492 C493 1.297 . S
C492 H506 0.950 . S
C493 C492 1.297 . S
C493 C494 1.479 1_455 S
C493 H507 0.950 . S
C494 C493 1.479 1_655 S
C494 C495 1.375 . S
C494 C500 1.404 . S
C495 C494 1.375 . S
C495 C496 1.369 . S
C495 H508 0.950 . S
C496 C495 1.369 . S
C496 C497 1.392 . S
C496 H509 0.951 . S
C497 C496 1.392 . S
C497 C499 1.384 . S
H498 C500 0.949 1_455 S
C499 C497 1.384 . S
C499 C500 1.385 . S
C499 H501 0.950 . S
C500 C494 1.404 . S
C500 H498 0.949 1_655 S
C500 C499 1.385 . S
H501 C499 0.950 . S
H502 C486 0.951 . S
H503 C488 0.951 . S
H504 C490 0.951 . S
H505 C491 0.950 . S
H506 C492 0.950 . S
H507 C493 0.950 . S
H508 C495 0.950 . S
H509 C496 0.951 . S
C510 C511 1.386 . S
C510 C512 1.383 . S
C510 H526 0.951 . S
C511 C510 1.386 . S
C511 C515 1.383 . S
C512 C510 1.383 . S
C512 C513 1.402 . S
C512 H527 0.951 . S
C513 C512 1.402 . S
C513 C514 1.375 . S
C513 C516 1.481 . S
C514 C513 1.375 . S
C514 C515 1.367 . S
C514 H528 0.951 . S
C515 C511 1.383 . S
C515 C514 1.367 . S
C515 H529 0.950 . S
C516 C513 1.481 . S
C516 C517 1.297 . S
C516 H530 0.950 . S
C517 C516 1.297 . S
C517 C518 1.479 . S
C517 H531 0.950 . S
C518 C517 1.479 . S
C518 C519 1.375 . S
C518 C524 1.404 . S
C519 C518 1.375 . S
C519 C520 1.369 . S
C519 H532 0.950 . S
C520 C519 1.369 . S
C520 C521 1.392 . S
C520 H533 0.951 . S
C521 C520 1.392 . S
C521 C523 1.384 . S
H522 C524 0.949 . S
C523 C521 1.384 . S
C523 C524 1.385 . S
C523 H525 0.950 . S
C524 C518 1.404 . S
C524 H522 0.949 . S
C524 C523 1.385 . S
H525 C523 0.950 . S
H526 C510 0.951 . S
H527 C512 0.951 . S
H528 C514 0.951 . S
H529 C515 0.950 . S
H530 C516 0.950 . S
H531 C517 0.950 . S
H532 C519 0.950 . S
H533 C520 0.951 . S
C534 C535 1.386 . S
C534 C536 1.383 . S
C534 H550 0.951 . S
C535 C534 1.386 . S
C535 C539 1.383 . S
C536 C534 1.383 . S
C536 C537 1.402 . S
C536 H551 0.951 . S
C537 C536 1.402 . S
C537 C538 1.375 . S
C537 C540 1.481 1_545 S
C538 C537 1.375 . S
C538 C539 1.367 . S
C538 H552 0.951 1_545 S
C539 C535 1.383 . S
C539 C538 1.367 . S
C539 H553 0.950 . S
C540 C537 1.481 1_565 S
C540 C541 1.298 . S
C540 H554 0.950 . S
C541 C540 1.298 . S
C541 C542 1.479 1_556 S
C541 H555 0.950 1_566 S
C542 C541 1.479 1_554 S
C542 C543 1.375 . S
C542 C548 1.404 . S
C543 C542 1.375 . S
C543 C544 1.369 . S
C543 H556 0.950 . S
C544 C543 1.369 . S
C544 C545 1.392 . S
C544 H557 0.951 . S
C545 C544 1.392 . S
C545 C547 1.384 . S
H546 C548 0.949 1_556 S
C547 C545 1.384 . S
C547 C548 1.385 . S
C547 H549 0.950 . S
C548 C542 1.404 . S
C548 H546 0.949 1_554 S
C548 C547 1.385 . S
H549 C547 0.950 . S
H550 C534 0.951 . S
H551 C536 0.951 . S
H552 C538 0.951 1_565 S
H553 C539 0.950 . S
H554 C540 0.950 . S
H555 C541 0.950 1_544 S
H556 C543 0.950 . S
H557 C544 0.951 . S
C199 C8 1.318 . S
C209 C173 1.277 . S
C223 C107 1.329 . S
C233 C41 1.268 . S
C247 C140 1.309 . S
C257 C74 1.289 . S
C271 C182 1.125 . S
C281 N5 1.117 . S
C295 C116 1.141 . S
C305 N38 1.056 . S
C319 N71 1.150 . S
C329 C149 1.132 . S
C343 C50 1.140 . S
C353 N104 1.056 . S
C367 C83 1.126 . S
C377 N137 1.098 . S
C391 N170 1.140 . S
C401 C17 1.116 . S
C415 C160 1.681 . S
C425 N14 1.638 . S
C439 N47 1.664 . S
C449 C193 1.669 . S
C463 C127 1.673 . S
C473 N80 1.670 . S
C487 N113 1.636 . S
C497 C94 1.676 . S
C511 C28 1.676 . S
C521 N146 1.616 . S
C535 C61 1.671 . S
C545 N179 1.625 . S
