# Generated by pormake.
# Topology uot, (4)-cn, num edge types: 1
# Building blocks:
#     Node 0, Type 0, BuildingBlock: KUFVIS_clean_sbu_0, # of connection points: 4
#     Node 1, Type 0, BuildingBlock: KUFVIS_clean_sbu_0, # of connection points: 4
#     Node 2, Type 0, BuildingBlock: KUFVIS_clean_sbu_0, # of connection points: 4
#     Node 3, Type 0, BuildingBlock: KUFVIS_clean_sbu_0, # of connection points: 4
#     Node 4, Type 0, BuildingBlock: KUFVIS_clean_sbu_0, # of connection points: 4
#     Node 5, Type 0, BuildingBlock: KUFVIS_clean_sbu_0, # of connection points: 4
#     Node 6, Type 0, BuildingBlock: KUFVIS_clean_sbu_0, # of connection points: 4
#     Node 7, Type 0, BuildingBlock: KUFVIS_clean_sbu_0, # of connection points: 4
#     Node 8, Type 0, BuildingBlock: KUFVIS_clean_sbu_0, # of connection points: 4
#     Node 9, Type 0, BuildingBlock: KUFVIS_clean_sbu_0, # of connection points: 4
#     Node 10, Type 0, BuildingBlock: KUFVIS_clean_sbu_0, # of connection points: 4
#     Node 11, Type 0, BuildingBlock: KUFVIS_clean_sbu_0, # of connection points: 4
#     Node 12, Type 0, BuildingBlock: KUFVIS_clean_sbu_0, # of connection points: 4
#     Node 13, Type 0, BuildingBlock: KUFVIS_clean_sbu_0, # of connection points: 4
#     Node 14, Type 0, BuildingBlock: KUFVIS_clean_sbu_0, # of connection points: 4
#     Node 15, Type 0, BuildingBlock: KUFVIS_clean_sbu_0, # of connection points: 4
#     Edge 16, Type (0, 0), BuildingBlock: XUDNAN_clean_linker_2, # of connection points: 2
#     Edge 17, Type (0, 0), BuildingBlock: XUDNAN_clean_linker_2, # of connection points: 2
#     Edge 18, Type (0, 0), BuildingBlock: XUDNAN_clean_linker_2, # of connection points: 2
#     Edge 19, Type (0, 0), BuildingBlock: XUDNAN_clean_linker_2, # of connection points: 2
#     Edge 20, Type (0, 0), BuildingBlock: XUDNAN_clean_linker_2, # of connection points: 2
#     Edge 21, Type (0, 0), BuildingBlock: XUDNAN_clean_linker_2, # of connection points: 2
#     Edge 22, Type (0, 0), BuildingBlock: XUDNAN_clean_linker_2, # of connection points: 2
#     Edge 23, Type (0, 0), BuildingBlock: XUDNAN_clean_linker_2, # of connection points: 2
#     Edge 24, Type (0, 0), BuildingBlock: XUDNAN_clean_linker_2, # of connection points: 2
#     Edge 25, Type (0, 0), BuildingBlock: XUDNAN_clean_linker_2, # of connection points: 2
#     Edge 26, Type (0, 0), BuildingBlock: XUDNAN_clean_linker_2, # of connection points: 2
#     Edge 27, Type (0, 0), BuildingBlock: XUDNAN_clean_linker_2, # of connection points: 2
#     Edge 28, Type (0, 0), BuildingBlock: XUDNAN_clean_linker_2, # of connection points: 2
#     Edge 29, Type (0, 0), BuildingBlock: XUDNAN_clean_linker_2, # of connection points: 2
#     Edge 30, Type (0, 0), BuildingBlock: XUDNAN_clean_linker_2, # of connection points: 2
#     Edge 31, Type (0, 0), BuildingBlock: XUDNAN_clean_linker_2, # of connection points: 2
#     Edge 32, Type (0, 0), BuildingBlock: XUDNAN_clean_linker_2, # of connection points: 2
#     Edge 33, Type (0, 0), BuildingBlock: XUDNAN_clean_linker_2, # of connection points: 2
#     Edge 34, Type (0, 0), BuildingBlock: XUDNAN_clean_linker_2, # of connection points: 2
#     Edge 35, Type (0, 0), BuildingBlock: XUDNAN_clean_linker_2, # of connection points: 2
#     Edge 36, Type (0, 0), BuildingBlock: XUDNAN_clean_linker_2, # of connection points: 2
#     Edge 37, Type (0, 0), BuildingBlock: XUDNAN_clean_linker_2, # of connection points: 2
#     Edge 38, Type (0, 0), BuildingBlock: XUDNAN_clean_linker_2, # of connection points: 2
#     Edge 39, Type (0, 0), BuildingBlock: XUDNAN_clean_linker_2, # of connection points: 2
#     Edge 40, Type (0, 0), BuildingBlock: XUDNAN_clean_linker_2, # of connection points: 2
#     Edge 41, Type (0, 0), BuildingBlock: XUDNAN_clean_linker_2, # of connection points: 2
#     Edge 42, Type (0, 0), BuildingBlock: XUDNAN_clean_linker_2, # of connection points: 2
#     Edge 43, Type (0, 0), BuildingBlock: XUDNAN_clean_linker_2, # of connection points: 2
#     Edge 44, Type (0, 0), BuildingBlock: XUDNAN_clean_linker_2, # of connection points: 2
#     Edge 45, Type (0, 0), BuildingBlock: XUDNAN_clean_linker_2, # of connection points: 2
#     Edge 46, Type (0, 0), BuildingBlock: XUDNAN_clean_linker_2, # of connection points: 2
#     Edge 47, Type (0, 0), BuildingBlock: XUDNAN_clean_linker_2, # of connection points: 2
# Relax obj value: 0.078
# Max RMSD: 0.116
# Mean RMSD: 0.116
data_MOF--net-uot--node1-KUFVIS_clean_sbu_0--edge1-XUDNAN_clean_linker_2
_symmetry_space_group_name_H-M    P1
_symmetry_Int_Tables_number       1
_symmetry_cell_setting            triclinic
loop_
_symmetry_equiv_pos_as_xyz
'x, y, z'
_cell_length_a     44.153062
_cell_length_b     44.167035
_cell_length_c     40.52909
_cell_angle_alpha  89.995756
_cell_angle_beta   89.980238
_cell_angle_gamma 89.978716
loop_
_atom_site_label
_atom_site_type_symbol
_atom_site_fract_x
_atom_site_fract_y
_atom_site_fract_z
_atom_type_partial_charge
Mn0 Mn 0.19204 0.41984 0.32873 0.0
Mn1 Mn 0.16267 0.3696 0.38263 0.0
C2 C 0.15249 0.3887 0.31332 0.0
C3 C 0.19363 0.46679 0.30329 0.0
C4 C 0.22204 0.3597 0.34737 0.0
O5 O 0.20694 0.43607 0.37278 0.0
O6 O 0.18655 0.4008 0.40658 0.0
C7 C 0.11998 0.41095 0.41646 0.0
N8 N 0.12513 0.38519 0.39885 0.0
C9 C 0.07206 0.37278 0.39894 0.0
C10 C 0.06623 0.39907 0.41727 0.0
C11 C 0.0903 0.41824 0.42603 0.0
C12 C 0.10214 0.36657 0.39031 0.0
H13 H 0.13838 0.42586 0.42307 0.0
C14 C 0.20229 0.42472 0.40133 0.0
O15 O 0.21694 0.44891 0.30309 0.0
O16 O 0.1699 0.45812 0.31963 0.0
N17 N 0.13878 0.3385 0.36256 0.0
C18 C 0.14805 0.31494 0.34335 0.0
C19 C 0.12662 0.29394 0.3319 0.0
C20 C 0.09596 0.29734 0.34041 0.0
C21 C 0.08698 0.32176 0.36022 0.0
C22 C 0.1094 0.34175 0.37124 0.0
H23 H 0.17158 0.31228 0.33668 0.0
O24 O 0.17038 0.40006 0.29118 0.0
O25 O 0.15853 0.39563 0.34378 0.0
O26 O 0.22168 0.38463 0.33164 0.0
O27 O 0.20087 0.35139 0.36684 0.0
C28 C 0.05661 0.3273 0.36903 0.0
C29 C 0.04915 0.35282 0.38833 0.0
H30 H 0.04333 0.40489 0.42451 0.0
H31 H 0.08596 0.43866 0.44003 0.0
H32 H 0.13368 0.27523 0.31647 0.0
H33 H 0.07947 0.28116 0.33147 0.0
H34 H 0.03877 0.3123 0.36074 0.0
H35 H 0.02568 0.35707 0.39459 0.0
Mn36 Mn 0.42921 0.82585 0.66226 0.0
Mn37 Mn 0.37346 0.8486 0.61116 0.0
C38 C 0.39445 0.86095 0.68032 0.0
C39 C 0.47867 0.83119 0.68044 0.0
C40 C 0.37365 0.78791 0.64646 0.0
O41 O 0.44337 0.81198 0.61735 0.0
O42 O 0.40741 0.83166 0.58423 0.0
C43 C 0.40424 0.89917 0.57697 0.0
N44 N 0.38084 0.88878 0.59571 0.0
C45 C 0.35775 0.93813 0.59705 0.0
C46 C 0.38151 0.94932 0.57758 0.0
C47 C 0.40486 0.92975 0.56754 0.0
C48 C 0.35815 0.90735 0.60535 0.0
H49 H 0.42229 0.88422 0.56932 0.0
C50 C 0.43228 0.81724 0.5889 0.0
O51 O 0.46452 0.80556 0.68354 0.0
O52 O 0.46429 0.85337 0.66657 0.0
N53 N 0.33951 0.86563 0.63394 0.0
C54 C 0.31976 0.85187 0.65499 0.0
C55 C 0.29593 0.86872 0.66877 0.0
C56 C 0.29252 0.89944 0.66059 0.0
C57 C 0.31301 0.91305 0.6387 0.0
C58 C 0.33625 0.89509 0.62563 0.0
H59 H 0.32236 0.82831 0.6615 0.0
O60 O 0.41011 0.84531 0.70142 0.0
O61 O 0.39991 0.85571 0.64927 0.0
O62 O 0.39785 0.79181 0.66306 0.0
O63 O 0.36332 0.80739 0.62607 0.0
C64 C 0.31182 0.94394 0.63011 0.0
C65 C 0.33414 0.95646 0.60926 0.0
H66 H 0.38223 0.97296 0.57051 0.0
H67 H 0.42335 0.93826 0.55266 0.0
H68 H 0.28031 0.85811 0.68579 0.0
H69 H 0.27431 0.91244 0.67154 0.0
H70 H 0.29414 0.9584 0.63988 0.0
H71 H 0.33326 0.98034 0.60328 0.0
Mn72 Mn 0.81449 0.56146 0.33079 0.0
Mn73 Mn 0.84552 0.62264 0.3667 0.0
C74 C 0.847 0.59266 0.30136 0.0
C75 C 0.81684 0.51052 0.31712 0.0
C76 C 0.77983 0.6197 0.34521 0.0
O77 O 0.8093 0.55268 0.37977 0.0
O78 O 0.83286 0.59351 0.40145 0.0
C79 C 0.90053 0.59348 0.39378 0.0
N80 N 0.88756 0.61483 0.37408 0.0
C81 C 0.93634 0.63257 0.35596 0.0
C82 C 0.95023 0.61089 0.37621 0.0
C83 C 0.93224 0.59123 0.39516 0.0
C84 C 0.90466 0.63374 0.35561 0.0
H85 H 0.88678 0.57818 0.40819 0.0
C86 C 0.8189 0.56818 0.40428 0.0
O87 O 0.791 0.52457 0.31822 0.0
O88 O 0.84082 0.52566 0.32525 0.0
N89 N 0.85891 0.65218 0.33542 0.0
C90 C 0.84195 0.67115 0.31641 0.0
C91 C 0.85646 0.69262 0.29637 0.0
C92 C 0.88822 0.69433 0.29607 0.0
C93 C 0.90521 0.67427 0.31547 0.0
C94 C 0.88948 0.65375 0.33543 0.0
H95 H 0.81752 0.67007 0.31671 0.0
O96 O 0.82752 0.57585 0.2859 0.0
O97 O 0.84578 0.59114 0.33323 0.0
O98 O 0.781 0.5932 0.33283 0.0
O99 O 0.80246 0.63264 0.35892 0.0
C100 C 0.93712 0.67376 0.31571 0.0
C101 C 0.95267 0.65279 0.33579 0.0
H102 H 0.97467 0.60901 0.37724 0.0
H103 H 0.94279 0.57434 0.41071 0.0
H104 H 0.84322 0.7079 0.28129 0.0
H105 H 0.89929 0.71109 0.28075 0.0
H106 H 0.94992 0.68923 0.30036 0.0
H107 H 0.9772 0.65238 0.33548 0.0
Mn108 Mn 0.57128 0.19341 0.68215 0.0
Mn109 Mn 0.63423 0.17921 0.63793 0.0
C110 C 0.61399 0.1734 0.70714 0.0
C111 C 0.52602 0.17643 0.70455 0.0
C112 C 0.61487 0.2421 0.65841 0.0
O113 O 0.55554 0.19378 0.63488 0.0
O114 O 0.59894 0.18257 0.60786 0.0
C115 C 0.61888 0.11761 0.61468 0.0
N116 N 0.6376 0.13647 0.6317 0.0
C117 C 0.67072 0.09526 0.64606 0.0
C118 C 0.65197 0.07543 0.62837 0.0
C119 C 0.62587 0.08664 0.61276 0.0
C120 C 0.66262 0.12588 0.64707 0.0
H121 H 0.5988 0.12616 0.60266 0.0
C122 C 0.57061 0.18897 0.60846 0.0
O123 O 0.53091 0.20523 0.70065 0.0
O124 O 0.54634 0.15789 0.69354 0.0
N125 N 0.66984 0.17552 0.66453 0.0
C126 C 0.68545 0.19766 0.6806 0.0
C127 C 0.712 0.19017 0.69784 0.0
C128 C 0.72225 0.16005 0.69828 0.0
C129 C 0.70594 0.13772 0.68126 0.0
C130 C 0.67978 0.14658 0.6643 0.0
H131 H 0.67765 0.22084 0.68034 0.0
O132 O 0.59398 0.18776 0.72457 0.0
O133 O 0.60839 0.17184 0.67582 0.0
O134 O 0.59126 0.23468 0.67461 0.0
O135 O 0.63246 0.22336 0.64397 0.0
C136 C 0.71453 0.107 0.6806 0.0
C137 C 0.69697 0.0858 0.66295 0.0
H138 H 0.65725 0.05151 0.6269 0.0
H139 H 0.61118 0.07143 0.59927 0.0
H140 H 0.72448 0.20754 0.71086 0.0
H141 H 0.74262 0.15431 0.71179 0.0
H142 H 0.73457 0.09943 0.69363 0.0
H143 H 0.70376 0.06223 0.66269 0.0
Mn144 Mn 0.18916 0.56787 0.66406 0.0
Mn145 Mn 0.16865 0.61457 0.60211 0.0
C146 C 0.15297 0.60468 0.67278 0.0
C147 C 0.18218 0.52361 0.6939 0.0
C148 C 0.22684 0.62172 0.64101 0.0
O149 O 0.20483 0.5459 0.62354 0.0
O150 O 0.18864 0.57778 0.58379 0.0
C151 C 0.12203 0.57639 0.57015 0.0
N152 N 0.13004 0.60282 0.58511 0.0
C153 C 0.07967 0.62285 0.57889 0.0
C154 C 0.07093 0.59591 0.56326 0.0
C155 C 0.0922 0.57259 0.55888 0.0
C156 C 0.10981 0.6255 0.58923 0.0
H157 H 0.13825 0.55834 0.56688 0.0
C158 C 0.20181 0.55337 0.59328 0.0
O159 O 0.20787 0.53788 0.6948 0.0
O160 O 0.16135 0.53416 0.67459 0.0
N161 N 0.14867 0.65068 0.61663 0.0
C162 C 0.16012 0.67423 0.63442 0.0
C163 C 0.14134 0.69886 0.64229 0.0
C164 C 0.11108 0.69911 0.63165 0.0
C165 C 0.09986 0.67472 0.61317 0.0
C166 C 0.11969 0.65087 0.6059 0.0
H167 H 0.18329 0.67404 0.64293 0.0
O168 O 0.168 0.59345 0.69738 0.0
O169 O 0.1596 0.59405 0.64373 0.0
O170 O 0.22312 0.5992 0.66026 0.0
O171 O 0.20804 0.62896 0.61842 0.0
C172 C 0.06957 0.67276 0.60248 0.0
C173 C 0.05949 0.64686 0.58532 0.0
H174 H 0.04787 0.59278 0.55481 0.0
H175 H 0.08558 0.55169 0.54697 0.0
H176 H 0.15011 0.7175 0.65673 0.0
H177 H 0.09657 0.71798 0.63811 0.0
H178 H 0.0537 0.69083 0.6078 0.0
H179 H 0.03604 0.64544 0.57765 0.0
Mn180 Mn 0.55988 0.80164 0.31444 0.0
Mn181 Mn 0.60983 0.83231 0.36796 0.0
C182 C 0.5982 0.83258 0.29559 0.0
C183 C 0.51394 0.80292 0.28659 0.0
C184 C 0.61482 0.7681 0.34333 0.0
O185 O 0.53861 0.79599 0.35844 0.0
O186 O 0.57455 0.81519 0.39186 0.0
C187 C 0.57081 0.88296 0.38998 0.0
N188 N 0.59722 0.87296 0.37643 0.0
C189 C 0.61697 0.92363 0.37361 0.0
C190 C 0.59003 0.93449 0.38762 0.0
C191 C 0.56677 0.91407 0.39562 0.0
C192 C 0.61941 0.89248 0.36782 0.0
H193 H 0.55302 0.86732 0.39655 0.0
C194 C 0.54898 0.80242 0.38687 0.0
O195 O 0.52784 0.77746 0.29188 0.0
O196 O 0.52643 0.82739 0.29784 0.0
N197 N 0.64544 0.84997 0.34918 0.0
C198 C 0.6707 0.83569 0.33766 0.0
C199 C 0.69602 0.85292 0.32834 0.0
C200 C 0.69545 0.88455 0.33185 0.0
C201 C 0.6697 0.89861 0.34508 0.0
C202 C 0.64502 0.8803 0.35359 0.0
H203 H 0.67145 0.81135 0.33536 0.0
O204 O 0.58498 0.81373 0.27572 0.0
O205 O 0.58817 0.83334 0.32574 0.0
O206 O 0.5905 0.76833 0.32625 0.0
O207 O 0.62445 0.79098 0.35952 0.0
C208 C 0.66788 0.92998 0.35101 0.0
C209 C 0.6416 0.94245 0.36544 0.0
H210 H 0.58698 0.95843 0.39237 0.0
H211 H 0.54589 0.92227 0.40641 0.0
H212 H 0.71599 0.84183 0.31864 0.0
H213 H 0.71508 0.89775 0.3248 0.0
H214 H 0.68663 0.94471 0.34473 0.0
H215 H 0.64046 0.96661 0.36986 0.0
Mn216 Mn 0.8068 0.43443 0.68106 0.0
Mn217 Mn 0.82305 0.38303 0.62255 0.0
C218 C 0.82921 0.38902 0.69528 0.0
C219 C 0.82173 0.4761 0.71156 0.0
C220 C 0.75961 0.39488 0.64802 0.0
O221 O 0.80456 0.45873 0.63854 0.0
O222 O 0.8197 0.42361 0.60157 0.0
C223 C 0.88465 0.40354 0.60444 0.0
N224 N 0.86593 0.38158 0.61628 0.0
C225 C 0.9077 0.3473 0.62395 0.0
C226 C 0.9274 0.36943 0.61151 0.0
C227 C 0.91583 0.3977 0.60182 0.0
C228 C 0.87684 0.35435 0.62581 0.0
H229 H 0.87586 0.42534 0.59711 0.0
C230 C 0.81153 0.45059 0.60926 0.0
O231 O 0.79315 0.46998 0.70773 0.0
O232 O 0.8412 0.45884 0.69685 0.0
N233 N 0.82711 0.34304 0.64024 0.0
C234 C 0.80518 0.32445 0.65248 0.0
C235 C 0.81308 0.29546 0.6638 0.0
C236 C 0.84341 0.28589 0.66242 0.0
C237 C 0.86554 0.30537 0.64956 0.0
C238 C 0.85627 0.33389 0.63834 0.0
H239 H 0.78186 0.33173 0.65373 0.0
O240 O 0.81464 0.40465 0.71728 0.0
O241 O 0.82988 0.40065 0.66591 0.0
O242 O 0.76667 0.41384 0.6704 0.0
O243 O 0.77862 0.3827 0.62828 0.0
C244 C 0.89648 0.29774 0.6478 0.0
C245 C 0.91754 0.31867 0.63495 0.0
H246 H 0.95148 0.36508 0.60963 0.0
H247 H 0.93092 0.41498 0.59244 0.0
H248 H 0.79587 0.28058 0.67373 0.0
H249 H 0.84946 0.26361 0.67145 0.0
H250 H 0.90435 0.2759 0.65642 0.0
H251 H 0.94129 0.3126 0.63388 0.0
Mn252 Mn 0.44008 0.1732 0.33379 0.0
Mn253 Mn 0.39068 0.1465 0.39028 0.0
C254 C 0.40558 0.13645 0.31935 0.0
C255 C 0.48711 0.17156 0.30839 0.0
C256 C 0.38351 0.20714 0.35626 0.0
O257 O 0.45852 0.1864 0.37718 0.0
O258 O 0.42554 0.16587 0.41326 0.0
C259 C 0.42893 0.09854 0.4198 0.0
N260 N 0.40304 0.10698 0.40401 0.0
C261 C 0.38483 0.05563 0.40345 0.0
C262 C 0.41122 0.04643 0.41986 0.0
C263 C 0.43338 0.06798 0.42803 0.0
C264 C 0.38154 0.08644 0.39609 0.0
H265 H 0.4461 0.11499 0.42601 0.0
C266 C 0.44983 0.18055 0.40651 0.0
O267 O 0.47124 0.19631 0.30861 0.0
O268 O 0.476 0.14812 0.32337 0.0
N269 N 0.35627 0.12672 0.3713 0.0
C270 C 0.33294 0.13901 0.35383 0.0
C271 C 0.30917 0.12033 0.34313 0.0
C272 C 0.30958 0.08928 0.35057 0.0
C273 C 0.33384 0.07714 0.36853 0.0
C274 C 0.35672 0.09691 0.37888 0.0
H275 H 0.33251 0.16286 0.34799 0.0
O276 O 0.41772 0.15345 0.29679 0.0
O277 O 0.41405 0.14157 0.34953 0.0
O278 O 0.40707 0.20513 0.33826 0.0
O279 O 0.3756 0.18681 0.37697 0.0
C280 C 0.33644 0.04612 0.37611 0.0
C281 C 0.36193 0.03536 0.39352 0.0
H282 H 0.41484 0.02284 0.42605 0.0
H283 H 0.45387 0.06103 0.44057 0.0
H284 H 0.29059 0.12983 0.32911 0.0
H285 H 0.29124 0.07492 0.34224 0.0
H286 H 0.31915 0.03027 0.3683 0.0
H287 H 0.36387 0.01141 0.39883 0.0
Mn288 Mn 0.68655 0.93504 0.82406 0.0
Mn289 Mn 0.6567 0.87265 0.85942 0.0
C290 C 0.66168 0.89953 0.79213 0.0
C291 C 0.68195 0.98544 0.80875 0.0
C292 C 0.7237 0.88018 0.84552 0.0
O293 O 0.68586 0.94588 0.87278 0.0
O294 O 0.6633 0.90424 0.89348 0.0
C295 C 0.59709 0.89838 0.87763 0.0
N296 N 0.6137 0.87718 0.86126 0.0
C297 C 0.56865 0.85239 0.84168 0.0
C298 C 0.55104 0.87384 0.85853 0.0
C299 C 0.56533 0.89704 0.8764 0.0
C300 C 0.60018 0.85516 0.8434 0.0
H301 H 0.60801 0.91615 0.89153 0.0
C302 C 0.67505 0.93057 0.89672 0.0
O303 O 0.70842 0.97334 0.81347 0.0
O304 O 0.65838 0.96852 0.8136 0.0
N305 N 0.64902 0.83993 0.82964 0.0
C306 C 0.66927 0.82026 0.81599 0.0
C307 C 0.65865 0.79555 0.7975 0.0
C308 C 0.62736 0.79102 0.7937 0.0
C309 C 0.60696 0.81108 0.80873 0.0
C310 C 0.61887 0.83524 0.82695 0.0
H311 H 0.69334 0.82337 0.81918 0.0
O312 O 0.68042 0.91844 0.77858 0.0
O313 O 0.65782 0.9024 0.82371 0.0
O314 O 0.72195 0.90612 0.83181 0.0
O315 O 0.70084 0.86608 0.85731 0.0
C316 C 0.57528 0.80784 0.80666 0.0
C317 C 0.55615 0.82844 0.82317 0.0
H318 H 0.52654 0.87279 0.85777 0.0
H319 H 0.55189 0.91376 0.88933 0.0
H320 H 0.67455 0.78 0.78627 0.0
H321 H 0.61925 0.77199 0.77936 0.0
H322 H 0.5654 0.78951 0.79254 0.0
H323 H 0.53182 0.82571 0.82139 0.0
Mn324 Mn 0.92329 0.30831 0.17565 0.0
Mn325 Mn 0.86165 0.32817 0.13193 0.0
C326 C 0.88105 0.32817 0.20177 0.0
C327 C 0.96891 0.32256 0.19965 0.0
C328 C 0.878 0.26321 0.14755 0.0
O329 O 0.93957 0.31008 0.12857 0.0
O330 O 0.89717 0.32535 0.1021 0.0
C331 C 0.88006 0.39052 0.11439 0.0
N332 N 0.86021 0.37133 0.12933 0.0
C333 C 0.82871 0.41281 0.14678 0.0
C334 C 0.84865 0.43301 0.13126 0.0
C335 C 0.87451 0.42182 0.11514 0.0
C336 C 0.83542 0.38188 0.14519 0.0
H337 H 0.89997 0.38196 0.10202 0.0
C338 C 0.92509 0.31736 0.10243 0.0
O339 O 0.96318 0.29418 0.19381 0.0
O340 O 0.94927 0.34224 0.18965 0.0
N341 N 0.82577 0.3315 0.15818 0.0
C342 C 0.80889 0.30897 0.17193 0.0
C343 C 0.78235 0.31635 0.18926 0.0
C344 C 0.77341 0.34678 0.19217 0.0
C345 C 0.79101 0.36953 0.17749 0.0
C346 C 0.81708 0.36077 0.16029 0.0
H347 H 0.81568 0.28556 0.16975 0.0
O348 O 0.90044 0.31212 0.21822 0.0
O349 O 0.8871 0.33165 0.17072 0.0
O350 O 0.90159 0.26844 0.16486 0.0
O351 O 0.86158 0.28368 0.13429 0.0
C352 C 0.78378 0.40055 0.17939 0.0
C353 C 0.80259 0.42217 0.16399 0.0
H354 H 0.84449 0.45718 0.13186 0.0
H355 H 0.89012 0.43729 0.10333 0.0
H356 H 0.76887 0.29866 0.20047 0.0
H357 H 0.75305 0.35241 0.20577 0.0
H358 H 0.76385 0.40804 0.19268 0.0
H359 H 0.79685 0.44596 0.16571 0.0
Mn360 Mn 0.30848 0.07196 0.83649 0.0
Mn361 Mn 0.33499 0.12397 0.88994 0.0
C362 C 0.34494 0.10653 0.82047 0.0
C363 C 0.31162 0.02578 0.80936 0.0
C364 C 0.27417 0.12941 0.85654 0.0
O365 O 0.29642 0.05373 0.88079 0.0
O366 O 0.31389 0.09095 0.91405 0.0
C367 C 0.38121 0.08562 0.92244 0.0
N368 N 0.3739 0.11097 0.90503 0.0
C369 C 0.42606 0.12668 0.90309 0.0
C370 C 0.43411 0.10084 0.92117 0.0
C371 C 0.41158 0.08022 0.93087 0.0
C372 C 0.3954 0.13099 0.89563 0.0
H373 H 0.36402 0.06958 0.92975 0.0
C374 C 0.30039 0.06562 0.90923 0.0
O375 O 0.28629 0.04067 0.81056 0.0
O376 O 0.33433 0.03665 0.82575 0.0
N377 N 0.3562 0.15676 0.86945 0.0
C378 C 0.34487 0.17973 0.85071 0.0
C379 C 0.36455 0.20208 0.83857 0.0
C380 C 0.39561 0.20059 0.84586 0.0
C381 C 0.40675 0.1767 0.86513 0.0
C382 C 0.386 0.15531 0.87693 0.0
H383 H 0.32101 0.18091 0.84496 0.0
O384 O 0.32726 0.09432 0.7987 0.0
O385 O 0.3401 0.09872 0.85088 0.0
O386 O 0.27569 0.10432 0.84109 0.0
O387 O 0.29537 0.13937 0.87502 0.0
C388 C 0.43767 0.17303 0.8727 0.0
C389 C 0.44733 0.14802 0.89162 0.0
H390 H 0.45754 0.09647 0.92751 0.0
H391 H 0.41764 0.06013 0.94468 0.0
H392 H 0.35582 0.22037 0.82355 0.0
H393 H 0.41073 0.21785 0.83645 0.0
H394 H 0.45426 0.18914 0.86377 0.0
H395 H 0.47121 0.14524 0.89694 0.0
Mn396 Mn 0.07331 0.66307 0.15675 0.0
Mn397 Mn 0.14057 0.6583 0.11746 0.0
C398 C 0.11225 0.63479 0.17893 0.0
C399 C 0.02536 0.6451 0.16969 0.0
C400 C 0.12147 0.71267 0.15706 0.0
O401 O 0.06224 0.67587 0.11041 0.0
O402 O 0.10869 0.67433 0.0872 0.0
C403 C 0.12491 0.61046 0.06921 0.0
N404 N 0.14304 0.62091 0.09388 0.0
C405 C 0.17487 0.57676 0.09058 0.0
C406 C 0.15663 0.56562 0.06499 0.0
C407 C 0.13152 0.58253 0.05431 0.0
C408 C 0.16739 0.60492 0.10421 0.0
H409 H 0.10554 0.62333 0.06097 0.0
C410 C 0.08016 0.67987 0.08606 0.0
O411 O 0.03234 0.67335 0.17411 0.0
O412 O 0.04538 0.62796 0.1556 0.0
N413 N 0.17327 0.64286 0.14351 0.0
C414 C 0.1866 0.65527 0.17063 0.0
C415 C 0.21103 0.64031 0.18564 0.0
C416 C 0.22164 0.61286 0.1725 0.0
C417 C 0.20763 0.60057 0.14449 0.0
C418 C 0.18345 0.61658 0.13049 0.0
H419 H 0.17832 0.67618 0.18099 0.0
O420 O 0.09139 0.64613 0.1978 0.0
O421 O 0.11032 0.64111 0.14762 0.0
O422 O 0.09479 0.70368 0.16371 0.0
O423 O 0.14084 0.69705 0.14116 0.0
C424 C 0.21602 0.57254 0.13063 0.0
C425 C 0.19967 0.56066 0.10367 0.0
H426 H 0.16149 0.54395 0.05364 0.0
H427 H 0.11726 0.574 0.03469 0.0
H428 H 0.22156 0.64982 0.20741 0.0
H429 H 0.24027 0.60121 0.18437 0.0
H430 H 0.23461 0.55964 0.14094 0.0
H431 H 0.20599 0.53883 0.09362 0.0
Mn432 Mn 0.69302 0.06173 0.17354 0.0
Mn433 Mn 0.66761 0.11403 0.12012 0.0
C434 C 0.66763 0.10366 0.19305 0.0
C435 C 0.68479 0.01558 0.19923 0.0
C436 C 0.7337 0.10686 0.13915 0.0
O437 O 0.6949 0.04081 0.12909 0.0
O438 O 0.67143 0.07477 0.09634 0.0
C439 C 0.60606 0.09024 0.10751 0.0
N440 N 0.62438 0.1129 0.11848 0.0
C441 C 0.58151 0.14437 0.13143 0.0
C442 C 0.56218 0.12151 0.11992 0.0
C443 C 0.57451 0.09427 0.10807 0.0
C444 C 0.61275 0.13908 0.13022 0.0
H445 H 0.61546 0.06925 0.09843 0.0
C446 C 0.68349 0.04879 0.10154 0.0
O447 O 0.71211 0.02585 0.19496 0.0
O448 O 0.66255 0.03223 0.18896 0.0
N449 N 0.66273 0.15288 0.14039 0.0
C450 C 0.68447 0.17252 0.15095 0.0
C451 C 0.67588 0.2007 0.16399 0.0
C452 C 0.64507 0.20845 0.16592 0.0
C453 C 0.62312 0.18798 0.15462 0.0
C454 C 0.63305 0.16033 0.14163 0.0
H455 H 0.70819 0.16673 0.14951 0.0
O456 O 0.68457 0.08785 0.2128 0.0
O457 O 0.66593 0.09389 0.16293 0.0
O458 O 0.72997 0.08724 0.16184 0.0
O459 O 0.71231 0.11714 0.12108 0.0
C460 C 0.59178 0.19384 0.15599 0.0
C461 C 0.571 0.17207 0.14435 0.0
H462 H 0.53784 0.1245 0.1204 0.0
H463 H 0.55973 0.07643 0.09939 0.0
H464 H 0.69296 0.21638 0.17263 0.0
H465 H 0.63852 0.23011 0.17622 0.0
H466 H 0.58341 0.21496 0.16606 0.0
H467 H 0.54695 0.17679 0.14565 0.0
Mn468 Mn 0.05916 0.31823 0.828 0.0
Mn469 Mn 0.10857 0.34614 0.88383 0.0
C470 C 0.0945 0.35381 0.81215 0.0
C471 C 0.01233 0.31957 0.80201 0.0
C472 C 0.1142 0.28368 0.85344 0.0
O473 O 0.03995 0.30754 0.8719 0.0
O474 O 0.07262 0.32942 0.90738 0.0
C475 C 0.0724 0.39704 0.91046 0.0
N476 N 0.09798 0.38673 0.89541 0.0
C477 C 0.11902 0.43695 0.89334 0.0
C478 C 0.09296 0.44808 0.90898 0.0
C479 C 0.06954 0.42803 0.91754 0.0
C480 C 0.12073 0.4058 0.88722 0.0
H481 H 0.05428 0.38174 0.91699 0.0
C482 C 0.0481 0.31499 0.901 0.0
O483 O 0.02778 0.29461 0.80376 0.0
O484 O 0.02379 0.3435 0.81571 0.0
N485 N 0.14394 0.36349 0.8641 0.0
C486 C 0.16636 0.34954 0.84667 0.0
C487 C 0.19087 0.36668 0.83492 0.0
C488 C 0.19216 0.3979 0.84132 0.0
C489 C 0.16884 0.41175 0.85932 0.0
C490 C 0.14507 0.39349 0.87061 0.0
H491 H 0.16543 0.32558 0.84154 0.0
O492 O 0.08237 0.33602 0.79033 0.0
O493 O 0.08571 0.34999 0.84248 0.0
O494 O 0.0913 0.28563 0.8345 0.0
O495 O 0.12214 0.30468 0.87327 0.0
C496 C 0.16788 0.44308 0.86579 0.0
C497 C 0.143 0.45567 0.88281 0.0
H498 H 0.09055 0.47201 0.91421 0.0
H499 H 0.04929 0.43647 0.92947 0.0
H500 H 0.20869 0.35587 0.82084 0.0
H501 H 0.211 0.41108 0.83203 0.0
H502 H 0.1859 0.45777 0.85729 0.0
H503 H 0.14228 0.47985 0.88716 0.0
Mn504 Mn 0.30506 0.92113 0.17496 0.0
Mn505 Mn 0.31777 0.87033 0.11457 0.0
C506 C 0.33118 0.87704 0.18595 0.0
C507 C 0.32013 0.96322 0.2046 0.0
C508 C 0.25808 0.87587 0.15072 0.0
O509 O 0.29638 0.94546 0.13369 0.0
O510 O 0.30521 0.90986 0.09509 0.0
C511 C 0.37169 0.89993 0.08542 0.0
N512 N 0.35868 0.87539 0.10005 0.0
C513 C 0.40577 0.84797 0.09883 0.0
C514 C 0.41963 0.87289 0.08363 0.0
C515 C 0.40252 0.899 0.07695 0.0
C516 C 0.375 0.85026 0.10682 0.0
H517 H 0.35869 0.9201 0.08032 0.0
C518 C 0.29761 0.93675 0.10372 0.0
O519 O 0.29184 0.95519 0.20393 0.0
O520 O 0.33914 0.94777 0.18705 0.0
N521 N 0.33055 0.83128 0.12968 0.0
C522 C 0.31361 0.80886 0.14356 0.0
C523 C 0.32738 0.78124 0.1519 0.0
C524 C 0.35831 0.77678 0.14542 0.0
C525 C 0.37507 0.79983 0.13016 0.0
C526 C 0.36007 0.82683 0.12231 0.0
H527 H 0.28978 0.812 0.1482 0.0
O528 O 0.31818 0.89192 0.20961 0.0
O529 O 0.32885 0.88872 0.15663 0.0
O530 O 0.26543 0.89801 0.16916 0.0
O531 O 0.27579 0.86341 0.12975 0.0
C532 C 0.406 0.797 0.12225 0.0
C533 C 0.42131 0.82101 0.1065 0.0
H534 H 0.44341 0.87226 0.07708 0.0
H535 H 0.41308 0.91836 0.06532 0.0
H536 H 0.31417 0.76344 0.1633 0.0
H537 H 0.36889 0.75549 0.15201 0.0
H538 H 0.41823 0.77643 0.12813 0.0
H539 H 0.44512 0.81859 0.10058 0.0
Mn540 Mn 0.93953 0.69499 0.81936 0.0
Mn541 Mn 0.89564 0.6711 0.88227 0.0
C542 C 0.90231 0.65897 0.81093 0.0
C543 C 0.98188 0.68966 0.78605 0.0
C544 C 0.88754 0.73176 0.84871 0.0
O545 O 0.96407 0.70761 0.85958 0.0
O546 O 0.93326 0.68977 0.89962 0.0
C547 C 0.93516 0.62257 0.90852 0.0
N548 N 0.90815 0.63148 0.89551 0.0
C549 C 0.8887 0.58063 0.89796 0.0
C550 C 0.91628 0.57095 0.91148 0.0
C551 C 0.9396 0.59202 0.91678 0.0
C552 C 0.88548 0.61142 0.8905 0.0
H553 H 0.95322 0.63864 0.91248 0.0
C554 C 0.95761 0.70289 0.8899 0.0
O555 O 0.9679 0.71546 0.7881 0.0
O556 O 0.9722 0.66765 0.80434 0.0
N557 N 0.85894 0.65205 0.86809 0.0
C558 C 0.83449 0.66469 0.85287 0.0
C559 C 0.80943 0.64649 0.84507 0.0
C560 C 0.80978 0.61553 0.85298 0.0
C561 C 0.83525 0.603 0.86846 0.0
C562 C 0.85941 0.62232 0.87601 0.0
H563 H 0.83419 0.68843 0.84656 0.0
O564 O 0.91166 0.67554 0.78653 0.0
O565 O 0.91441 0.66471 0.83936 0.0
O566 O 0.90909 0.72889 0.82803 0.0
O567 O 0.88064 0.71154 0.86992 0.0
C568 C 0.83783 0.572 0.87617 0.0
C569 C 0.86454 0.56082 0.8909 0.0
H570 H 0.91989 0.54735 0.91763 0.0
H571 H 0.96099 0.5847 0.92709 0.0
H572 H 0.78994 0.65627 0.83289 0.0
H573 H 0.79043 0.60156 0.84687 0.0
H574 H 0.81956 0.55649 0.87049 0.0
H575 H 0.86641 0.53688 0.89631 0.0
H576 H 0.23279 0.30474 0.37707 0.0
H577 H 0.27226 0.36998 0.30921 0.0
H578 H 0.31798 0.33835 0.30477 0.0
H579 H 0.30101 0.287 0.42014 0.0
H580 H 0.29226 0.24735 0.42464 0.0
H581 H 0.26211 0.27472 0.42203 0.0
H582 H 0.23899 0.2457 0.37248 0.0
H583 H 0.26896 0.21812 0.37506 0.0
H584 H 0.26218 0.23788 0.33686 0.0
H585 H 0.3597 0.30031 0.30826 0.0
H586 H 0.3941 0.25731 0.31809 0.0
H587 H 0.32753 0.21704 0.38383 0.0
C588 C 0.25095 0.31237 0.36114 0.0
C589 C 0.24886 0.33992 0.34355 0.0
C590 C 0.27323 0.34899 0.32298 0.0
C591 C 0.29936 0.33121 0.3203 0.0
C592 C 0.30078 0.30442 0.33828 0.0
C593 C 0.27721 0.29493 0.35816 0.0
C594 C 0.28456 0.2652 0.37492 0.0
C595 C 0.28502 0.2688 0.41267 0.0
C596 C 0.26235 0.24025 0.36418 0.0
C597 C 0.31601 0.25957 0.36142 0.0
C598 C 0.32493 0.28246 0.34034 0.0
C599 C 0.35299 0.2822 0.3247 0.0
C600 C 0.37238 0.25767 0.33049 0.0
C601 C 0.3636 0.23375 0.35178 0.0
C602 C 0.33506 0.23497 0.36757 0.0
H603 H 0.32054 0.77272 0.61641 0.0
H604 H 0.3872 0.73881 0.68606 0.0
H605 H 0.35748 0.69159 0.69205 0.0
H606 H 0.2554 0.743 0.65707 0.0
H607 H 0.23605 0.73445 0.61905 0.0
H608 H 0.26277 0.7652 0.62061 0.0
H609 H 0.29284 0.74127 0.57216 0.0
H610 H 0.26628 0.7104 0.5705 0.0
H611 H 0.30611 0.70279 0.57561 0.0
H612 H 0.31922 0.64803 0.69045 0.0
H613 H 0.27644 0.61272 0.68139 0.0
H614 H 0.23692 0.67646 0.61202 0.0
C615 C 0.3291 0.75546 0.63295 0.0
C616 C 0.35628 0.75952 0.65072 0.0
C617 C 0.36643 0.73625 0.67216 0.0
C618 C 0.34972 0.70934 0.6757 0.0
C619 C 0.32304 0.70616 0.65762 0.0
C620 C 0.31289 0.72868 0.6367 0.0
C621 C 0.28358 0.72011 0.62004 0.0
C622 C 0.25794 0.74199 0.62979 0.0
C623 C 0.28746 0.71854 0.58235 0.0
C624 C 0.27876 0.68911 0.63469 0.0
C625 C 0.30158 0.68134 0.65642 0.0
C626 C 0.30131 0.65386 0.67338 0.0
C627 C 0.27694 0.63397 0.66807 0.0
C628 C 0.25336 0.64169 0.64586 0.0
C629 C 0.25462 0.6696 0.62894 0.0
H630 H 0.67136 0.76144 0.36992 0.0
H631 H 0.60202 0.71262 0.31559 0.0
H632 H 0.63596 0.66821 0.31214 0.0
H633 H 0.73314 0.73527 0.32329 0.0
H634 H 0.75867 0.73302 0.3579 0.0
H635 H 0.72803 0.7599 0.35832 0.0
H636 H 0.70863 0.73747 0.41356 0.0
H637 H 0.73931 0.71058 0.4134 0.0
H638 H 0.70073 0.6975 0.41635 0.0
H639 H 0.6787 0.63007 0.31243 0.0
H640 H 0.72651 0.60135 0.31639 0.0
H641 H 0.76749 0.67628 0.36961 0.0
C642 C 0.663 0.74134 0.35762 0.0
C643 C 0.63392 0.74055 0.3431 0.0
C644 C 0.62417 0.71379 0.32698 0.0
C645 C 0.64327 0.68844 0.32491 0.0
C646 C 0.67198 0.69027 0.33906 0.0
C647 C 0.68174 0.71604 0.35515 0.0
C648 C 0.71406 0.7129 0.36697 0.0
C649 C 0.73468 0.73668 0.35064 0.0
C650 C 0.71576 0.71471 0.40482 0.0
C651 C 0.72113 0.68138 0.35474 0.0
C652 C 0.69657 0.66859 0.33888 0.0
C653 C 0.69802 0.6398 0.32496 0.0
C654 C 0.72532 0.62369 0.32732 0.0
C655 C 0.75085 0.6365 0.34334 0.0
C656 C 0.74848 0.66572 0.35727 0.0
H657 H 0.64015 0.27781 0.70507 0.0
H658 H 0.61013 0.27607 0.60356 0.0
H659 H 0.63576 0.32483 0.59327 0.0
H660 H 0.64222 0.36531 0.71511 0.0
H661 H 0.67628 0.36239 0.73941 0.0
H662 H 0.64794 0.33306 0.74167 0.0
H663 H 0.68865 0.29308 0.72667 0.0
H664 H 0.71691 0.32212 0.72401 0.0
H665 H 0.71026 0.29759 0.68922 0.0
H666 H 0.67505 0.36359 0.58972 0.0
H667 H 0.7233 0.39165 0.59412 0.0
H668 H 0.72765 0.37074 0.69831 0.0
C669 C 0.63762 0.28881 0.68135 0.0
C670 C 0.62268 0.27406 0.65528 0.0
C671 C 0.62097 0.28775 0.62389 0.0
C672 C 0.6354 0.31539 0.61791 0.0
C673 C 0.65138 0.3289 0.64366 0.0
C674 C 0.65221 0.31634 0.67499 0.0
C675 C 0.67521 0.33228 0.69659 0.0
C676 C 0.65946 0.34928 0.72487 0.0
C677 C 0.69915 0.30994 0.70985 0.0
C678 C 0.68871 0.35414 0.67186 0.0
C679 C 0.67422 0.35226 0.64165 0.0
C680 C 0.68582 0.36629 0.61351 0.0
C681 C 0.71323 0.38203 0.61613 0.0
C682 C 0.72839 0.38385 0.64671 0.0
C683 C 0.71556 0.37062 0.67505 0.0
H684 H 0.73761 0.82694 0.87646 0.0
H685 H 0.77681 0.89787 0.81569 0.0
H686 H 0.82471 0.86912 0.81286 0.0
H687 H 0.8067 0.80801 0.92226 0.0
H688 H 0.79783 0.76818 0.92268 0.0
H689 H 0.76776 0.79577 0.9223 0.0
H690 H 0.74532 0.77064 0.86989 0.0
H691 H 0.77538 0.74313 0.86997 0.0
H692 H 0.76888 0.76608 0.83389 0.0
H693 H 0.86655 0.8301 0.81228 0.0
H694 H 0.89958 0.78501 0.81606 0.0
H695 H 0.83258 0.74082 0.87805 0.0
C696 C 0.75635 0.83676 0.86295 0.0
C697 C 0.75339 0.8647 0.84631 0.0
C698 C 0.77852 0.87657 0.82878 0.0
C699 C 0.80583 0.86041 0.82701 0.0
C700 C 0.80769 0.83261 0.84314 0.0
C701 C 0.78368 0.82106 0.86103 0.0
C702 C 0.79082 0.7901 0.87483 0.0
C703 C 0.79078 0.79056 0.91277 0.0
C704 C 0.7688 0.76608 0.86133 0.0
C705 C 0.82239 0.78571 0.86134 0.0
C706 C 0.83183 0.81046 0.8432 0.0
C707 C 0.85958 0.81076 0.82681 0.0
C708 C 0.87811 0.78502 0.829 0.0
C709 C 0.86876 0.75943 0.84749 0.0
C710 C 0.84063 0.76009 0.86406 0.0
H711 H 0.77058 0.1284 0.18722 0.0
H712 H 0.76277 0.11776 0.08137 0.0
H713 H 0.80889 0.14854 0.07353 0.0
H714 H 0.78499 0.20263 0.18472 0.0
H715 H 0.8111 0.20439 0.21886 0.0
H716 H 0.78352 0.17461 0.21705 0.0
H717 H 0.82619 0.13447 0.22108 0.0
H718 H 0.85405 0.16428 0.22302 0.0
H719 H 0.85703 0.13524 0.19193 0.0
H720 H 0.84752 0.18806 0.07607 0.0
H721 H 0.87465 0.23552 0.08858 0.0
H722 H 0.85775 0.22253 0.19279 0.0
C723 C 0.77957 0.13144 0.16257 0.0
C724 C 0.76379 0.12033 0.13488 0.0
C725 C 0.775 0.12584 0.1028 0.0
C726 C 0.80123 0.1431 0.09819 0.0
C727 C 0.81577 0.15481 0.12592 0.0
C728 C 0.80538 0.14923 0.15757 0.0
C729 C 0.82155 0.16893 0.18261 0.0
C730 C 0.79894 0.18881 0.20191 0.0
C731 C 0.84086 0.14957 0.20604 0.0
C732 C 0.84131 0.18771 0.15993 0.0
C733 C 0.83824 0.17854 0.12743 0.0
C734 C 0.85091 0.19486 0.10144 0.0
C735 C 0.86622 0.22174 0.10871 0.0
C736 C 0.86875 0.23191 0.14162 0.0
C737 C 0.85703 0.21432 0.16762 0.0
H738 H 0.16955 0.27435 0.88232 0.0
H739 H 0.10247 0.23102 0.8197 0.0
H740 H 0.13567 0.18629 0.81456 0.0
H741 H 0.23405 0.24881 0.83816 0.0
H742 H 0.25701 0.24347 0.87446 0.0
H743 H 0.22737 0.27148 0.87443 0.0
H744 H 0.20348 0.24658 0.92621 0.0
H745 H 0.23312 0.21855 0.92647 0.0
H746 H 0.19402 0.20688 0.92538 0.0
H747 H 0.17687 0.14691 0.81502 0.0
H748 H 0.22283 0.11568 0.82129 0.0
H749 H 0.26275 0.18537 0.88324 0.0
C750 C 0.1616 0.25538 0.86778 0.0
C751 C 0.13331 0.25621 0.8515 0.0
C752 C 0.12403 0.23095 0.83243 0.0
C753 C 0.14271 0.20542 0.82937 0.0
C754 C 0.17056 0.20553 0.84549 0.0
C755 C 0.17995 0.22983 0.86435 0.0
C756 C 0.21124 0.22467 0.87844 0.0
C757 C 0.23374 0.24852 0.8656 0.0
C758 C 0.21039 0.22413 0.91638 0.0
C759 C 0.21805 0.19367 0.86447 0.0
C760 C 0.19431 0.18298 0.84559 0.0
C761 C 0.19558 0.15499 0.82984 0.0
C762 C 0.22183 0.13745 0.83353 0.0
C763 C 0.24647 0.14799 0.85281 0.0
C764 C 0.24436 0.17652 0.86843 0.0
H765 H 0.25218 0.82598 0.18725 0.0
H766 H 0.20102 0.89048 0.12944 0.0
H767 H 0.15477 0.85902 0.13642 0.0
H768 H 0.22455 0.764 0.15019 0.0
H769 H 0.22414 0.73996 0.18614 0.0
H770 H 0.25011 0.7711 0.18399 0.0
H771 H 0.22878 0.79225 0.23899 0.0
H772 H 0.20251 0.76106 0.24125 0.0
H773 H 0.18875 0.79946 0.24293 0.0
H774 H 0.11722 0.81635 0.14169 0.0
H775 H 0.09372 0.76542 0.14005 0.0
H776 H 0.17087 0.72844 0.19207 0.0
C777 C 0.23097 0.83372 0.1768 0.0
C778 C 0.22969 0.86034 0.15794 0.0
C779 C 0.20198 0.87009 0.14425 0.0
C780 C 0.17573 0.85248 0.14828 0.0
C781 C 0.17788 0.82552 0.16622 0.0
C782 C 0.20491 0.8163 0.18031 0.0
C783 C 0.20296 0.78446 0.19368 0.0
C784 C 0.22682 0.76368 0.17751 0.0
C785 C 0.20591 0.78432 0.23146 0.0
C786 C 0.17121 0.77637 0.18313 0.0
C787 C 0.15661 0.80062 0.16841 0.0
C788 C 0.12813 0.79746 0.15385 0.0
C789 C 0.11489 0.76857 0.15313 0.0
C790 C 0.13055 0.7434 0.16624 0.0
C791 C 0.1584 0.74757 0.18239 0.0
H792 H 0.18065 0.52647 0.31622 0.0
H793 H 0.19983 0.46266 0.23774 0.0
H794 H 0.18517 0.50093 0.1963 0.0
H795 H 0.11822 0.56007 0.28432 0.0
H796 H 0.1267 0.59866 0.29543 0.0
H797 H 0.14238 0.56802 0.31913 0.0
H798 H 0.19669 0.5883 0.3089 0.0
H799 H 0.18106 0.61942 0.28565 0.0
H800 H 0.20924 0.59521 0.26722 0.0
H801 H 0.15521 0.53948 0.16641 0.0
H802 H 0.12525 0.58284 0.14653 0.0
H803 H 0.1353 0.62706 0.2411 0.0
C804 C 0.18277 0.52114 0.29024 0.0
C805 C 0.19142 0.49192 0.27986 0.0
C806 C 0.1936 0.4852 0.24588 0.0
C807 C 0.18521 0.50668 0.22226 0.0
C808 C 0.1758 0.53504 0.23315 0.0
C809 C 0.17574 0.54286 0.26619 0.0
C810 C 0.16406 0.57487 0.27098 0.0
C811 C 0.13619 0.57541 0.29381 0.0
C812 C 0.18927 0.59568 0.28396 0.0
C813 C 0.15568 0.58289 0.23579 0.0
C814 C 0.16234 0.55937 0.2145 0.0
C815 C 0.15182 0.55897 0.18215 0.0
C816 C 0.13517 0.58383 0.1709 0.0
C817 C 0.13069 0.60943 0.19121 0.0
C818 C 0.14038 0.60862 0.22438 0.0
H819 H 0.4989 0.88047 0.71301 0.0
H820 H 0.52681 0.79211 0.67788 0.0
H821 H 0.57868 0.80132 0.69948 0.0
H822 H 0.57138 0.91999 0.69948 0.0
H823 H 0.56724 0.94197 0.73669 0.0
H824 H 0.53417 0.92987 0.71424 0.0
H825 H 0.51409 0.9067 0.76728 0.0
H826 H 0.54769 0.91468 0.79085 0.0
H827 H 0.53408 0.87635 0.78692 0.0
H828 H 0.62887 0.8235 0.72056 0.0
H829 H 0.66913 0.84977 0.75255 0.0
H830 H 0.60431 0.91771 0.78309 0.0
C831 C 0.51609 0.86324 0.70954 0.0
C832 C 0.50931 0.83582 0.69346 0.0
C833 C 0.53189 0.81333 0.69006 0.0
C834 C 0.56134 0.81849 0.70196 0.0
C835 C 0.56738 0.84595 0.71767 0.0
C836 C 0.54515 0.86765 0.72207 0.0
C837 C 0.55637 0.8939 0.74261 0.0
C838 C 0.55735 0.92315 0.72202 0.0
C839 C 0.53699 0.89815 0.7738 0.0
C840 C 0.58799 0.88293 0.7504 0.0
C841 C 0.59457 0.85617 0.73421 0.0
C842 C 0.62369 0.84387 0.73429 0.0
C843 C 0.6463 0.85874 0.75251 0.0
C844 C 0.639 0.88444 0.77161 0.0
C845 C 0.60978 0.89707 0.76992 0.0
H846 H 0.89456 0.38694 0.20432 0.0
H847 H 0.83116 0.32061 0.24168 0.0
H848 H 0.80489 0.36095 0.2737 0.0
H849 H 0.90324 0.42158 0.28257 0.0
H850 H 0.90961 0.45893 0.26609 0.0
H851 H 0.91996 0.42611 0.24228 0.0
H852 H 0.88583 0.44408 0.19322 0.0
H853 H 0.87777 0.47757 0.21699 0.0
H854 H 0.84713 0.45477 0.20175 0.0
H855 H 0.78505 0.41055 0.29999 0.0
H856 H 0.77868 0.46169 0.32491 0.0
H857 H 0.86124 0.49128 0.27695 0.0
C858 C 0.87465 0.38116 0.21864 0.0
C859 C 0.86374 0.35127 0.21952 0.0
C860 C 0.83892 0.3438 0.23996 0.0
C861 C 0.82403 0.3665 0.25816 0.0
C862 C 0.8353 0.39603 0.25661 0.0
C863 C 0.86055 0.40309 0.23793 0.0
C864 C 0.87112 0.43511 0.24393 0.0
C865 C 0.90285 0.43543 0.25966 0.0
C866 C 0.87041 0.45395 0.21204 0.0
C867 C 0.84727 0.44547 0.26803 0.0
C868 C 0.82642 0.42295 0.27475 0.0
C869 C 0.80151 0.42817 0.29524 0.0
C870 C 0.79801 0.45715 0.30921 0.0
C871 C 0.8198 0.47997 0.30321 0.0
C872 C 0.84464 0.47393 0.28249 0.0
H873 H 0.46525 0.192 0.70548 0.0
H874 H 0.5328 0.13472 0.75187 0.0
H875 H 0.49414 0.11452 0.7897 0.0
H876 H 0.42053 0.20808 0.7779 0.0
H877 H 0.38396 0.20432 0.7585 0.0
H878 H 0.41621 0.21676 0.7348 0.0
H879 H 0.40985 0.17376 0.69272 0.0
H880 H 0.3764 0.16157 0.7144 0.0
H881 H 0.40682 0.1352 0.70695 0.0
H882 H 0.44937 0.09919 0.82096 0.0
H883 H 0.39867 0.08567 0.84146 0.0
H884 H 0.35801 0.15013 0.77401 0.0
C885 C 0.47174 0.17542 0.72385 0.0
C886 C 0.50188 0.16496 0.72609 0.0
C887 C 0.50971 0.14287 0.74986 0.0
C888 C 0.48801 0.13144 0.77158 0.0
C889 C 0.45846 0.14198 0.76881 0.0
C890 C 0.45003 0.16303 0.74528 0.0
C891 C 0.41604 0.16828 0.74605 0.0
C892 C 0.40873 0.20132 0.75485 0.0
C893 C 0.40142 0.15915 0.71307 0.0
C894 C 0.40691 0.14683 0.7736 0.0
C895 C 0.43194 0.13231 0.78658 0.0
C896 C 0.42958 0.11062 0.81132 0.0
C897 C 0.40076 0.10324 0.82294 0.0
C898 C 0.37475 0.11761 0.81 0.0
C899 C 0.37776 0.13949 0.78481 0.0
H900 H 0.19135 0.46186 0.69457 0.0
H901 H 0.15216 0.53664 0.74906 0.0
H902 H 0.12901 0.50079 0.78834 0.0
H903 H 0.12981 0.41382 0.69968 0.0
H904 H 0.15057 0.37908 0.70552 0.0
H905 H 0.16794 0.4103 0.68418 0.0
H906 H 0.21267 0.40917 0.72512 0.0
H907 H 0.19559 0.37811 0.74723 0.0
H908 H 0.20555 0.41239 0.76874 0.0
H909 H 0.10266 0.45832 0.81432 0.0
H910 H 0.08012 0.41004 0.83223 0.0
H911 H 0.13865 0.36116 0.76497 0.0
C912 C 0.17876 0.47047 0.7155 0.0
C913 C 0.17375 0.5018 0.71943 0.0
C914 C 0.15645 0.51261 0.74625 0.0
C915 C 0.14322 0.49247 0.76855 0.0
C916 C 0.14775 0.46163 0.7637 0.0
C917 C 0.16553 0.45052 0.73831 0.0
C918 C 0.16499 0.41615 0.73782 0.0
C919 C 0.15258 0.40415 0.70484 0.0
C920 C 0.19657 0.40318 0.74517 0.0
C921 C 0.14319 0.4099 0.76596 0.0
C922 C 0.13358 0.43658 0.78041 0.0
C923 C 0.11095 0.43718 0.80427 0.0
C924 C 0.09841 0.4097 0.81442 0.0
C925 C 0.1091 0.382 0.80146 0.0
C926 C 0.13123 0.38208 0.77633 0.0
H927 H 0.39082 0.88527 0.1771 0.0
H928 H 0.32519 0.82295 0.21781 0.0
H929 H 0.36682 0.79176 0.24095 0.0
H930 H 0.45691 0.83146 0.1641 0.0
H931 H 0.48252 0.86036 0.17818 0.0
H932 H 0.4482 0.87086 0.15697 0.0
H933 H 0.43516 0.90525 0.20747 0.0
H934 H 0.46856 0.89284 0.22887 0.0
H935 H 0.4319 0.88828 0.24779 0.0
H936 H 0.41566 0.77025 0.26388 0.0
H937 H 0.46585 0.76411 0.29064 0.0
H938 H 0.49758 0.84539 0.24182 0.0
C939 C 0.38546 0.86426 0.1896 0.0
C940 C 0.35515 0.85548 0.19448 0.0
C941 C 0.34849 0.82919 0.21291 0.0
C942 C 0.37196 0.81142 0.22603 0.0
C943 C 0.40179 0.821 0.2214 0.0
C944 C 0.40852 0.84708 0.20393 0.0
C945 C 0.44141 0.85594 0.20795 0.0
C946 C 0.45822 0.85458 0.1748 0.0
C947 C 0.44441 0.88742 0.22398 0.0
C948 C 0.45204 0.83117 0.23092 0.0
C949 C 0.4292 0.81064 0.23754 0.0
C950 C 0.43373 0.7861 0.25869 0.0
C951 C 0.4622 0.78276 0.27375 0.0
C952 C 0.48524 0.80441 0.2683 0.0
C953 C 0.48016 0.82865 0.24641 0.0
H954 H 0.80397 0.53574 0.71477 0.0
H955 H 0.86462 0.46934 0.75772 0.0
H956 H 0.88724 0.50881 0.7929 0.0
H957 H 0.85857 0.59253 0.70773 0.0
H958 H 0.83379 0.62382 0.71713 0.0
H959 H 0.81858 0.58978 0.69924 0.0
H960 H 0.78088 0.58575 0.74742 0.0
H961 H 0.79632 0.61902 0.767 0.0
H962 H 0.79463 0.58365 0.78916 0.0
H963 H 0.90743 0.5547 0.81777 0.0
H964 H 0.92503 0.60597 0.83149 0.0
H965 H 0.85287 0.64467 0.77251 0.0
C966 C 0.82141 0.52959 0.73232 0.0
C967 C 0.83241 0.49965 0.73413 0.0
C968 C 0.85591 0.49226 0.75636 0.0
C969 C 0.86875 0.51444 0.77649 0.0
C970 C 0.85802 0.54394 0.77374 0.0
C971 C 0.83501 0.55174 0.7522 0.0
C972 C 0.8303 0.58579 0.75165 0.0
C973 C 0.83564 0.59873 0.71687 0.0
C974 C 0.79865 0.59406 0.76459 0.0
C975 C 0.85484 0.59579 0.77545 0.0
C976 C 0.87014 0.5711 0.78821 0.0
C977 C 0.89519 0.57421 0.80867 0.0
C978 C 0.90494 0.60338 0.81642 0.0
C979 C 0.88947 0.62902 0.80412 0.0
C980 C 0.86433 0.62527 0.78305 0.0
H981 H 0.60917 0.08848 0.19733 0.0
H982 H 0.67297 0.15869 0.22382 0.0
H983 H 0.63178 0.18715 0.25196 0.0
H984 H 0.53863 0.13295 0.18969 0.0
H985 H 0.51734 0.10372 0.21004 0.0
H986 H 0.5504 0.09392 0.18628 0.0
H987 H 0.57153 0.06652 0.23843 0.0
H988 H 0.53898 0.07799 0.26204 0.0
H989 H 0.57646 0.08775 0.27604 0.0
H990 H 0.58266 0.20722 0.27758 0.0
H991 H 0.53312 0.21311 0.30606 0.0
H992 H 0.50542 0.125 0.27014 0.0
C993 C 0.61412 0.11034 0.20821 0.0
C994 C 0.64359 0.12238 0.20723 0.0
C995 C 0.65007 0.14992 0.22343 0.0
C996 C 0.62688 0.1661 0.23938 0.0
C997 C 0.59783 0.15359 0.23995 0.0
C998 C 0.59165 0.12595 0.22537 0.0
C999 C 0.56032 0.11476 0.23408 0.0
C1000 C 0.54054 0.11113 0.20315 0.0
C1001 C 0.56194 0.08501 0.25383 0.0
C1002 C 0.54949 0.14065 0.25532 0.0
C1003 C 0.57108 0.1632 0.25789 0.0
C1004 C 0.5657 0.18961 0.27588 0.0
C1005 C 0.53761 0.19281 0.29188 0.0
C1006 C 0.51589 0.16933 0.29043 0.0
C1007 C 0.52192 0.14307 0.27188 0.0
H1008 H 0.63839 0.00559 0.76753 0.0
H1009 H 0.71786 0.03487 0.82151 0.0
H1010 H 0.7104 0.08725 0.80054 0.0
H1011 H 0.65297 0.04832 0.69621 0.0
H1012 H 0.61406 0.05803 0.68748 0.0
H1013 H 0.62299 0.02322 0.70847 0.0
H1014 H 0.58935 0.03661 0.75795 0.0
H1015 H 0.57806 0.0708 0.73713 0.0
H1016 H 0.59375 0.07272 0.77812 0.0
H1017 H 0.68967 0.1377 0.77795 0.0
H1018 H 0.66263 0.17949 0.74907 0.0
H1019 H 0.60275 0.11412 0.70365 0.0
C1020 C 0.65414 0.02308 0.77507 0.0
C1021 C 0.67844 0.01653 0.79638 0.0
C1022 C 0.69903 0.03969 0.80522 0.0
C1023 C 0.6949 0.0694 0.79352 0.0
C1024 C 0.67055 0.07514 0.77247 0.0
C1025 C 0.65085 0.05242 0.76297 0.0
C1026 C 0.62718 0.06382 0.73919 0.0
C1027 C 0.62945 0.04742 0.70583 0.0
C1028 C 0.59521 0.06081 0.75399 0.0
C1029 C 0.63659 0.09658 0.73659 0.0
C1030 C 0.66108 0.10305 0.75665 0.0
C1031 C 0.67113 0.13274 0.76136 0.0
C1032 C 0.65579 0.15626 0.74494 0.0
C1033 C 0.63174 0.14958 0.72318 0.0
C1034 C 0.62208 0.11947 0.71907 0.0
H1035 H 0.13814 0.34597 0.26653 0.0
H1036 H 0.09926 0.41004 0.3356 0.0
H1037 H 0.04801 0.39665 0.31651 0.0
H1038 H 0.08806 0.36227 0.20132 0.0
H1039 H 0.08487 0.32402 0.18622 0.0
H1040 H 0.11865 0.33581 0.20751 0.0
H1041 H 0.1121 0.29233 0.25054 0.0
H1042 H 0.0793 0.28008 0.22764 0.0
H1043 H 0.07608 0.28804 0.27102 0.0
H1044 H 0.00235 0.38099 0.28696 0.0
H1045 H 0.96297 0.36192 0.24939 0.0
H1046 H 0.02951 0.30594 0.19948 0.0
C1047 C 0.11866 0.35654 0.278 0.0
C1048 C 0.12232 0.37813 0.30339 0.0
C1049 C 0.09666 0.39257 0.31705 0.0
C1050 C 0.06755 0.38524 0.30624 0.0
C1051 C 0.06455 0.36362 0.28148 0.0
C1052 C 0.08926 0.34929 0.26754 0.0
C1053 C 0.07948 0.32836 0.23976 0.0
C1054 C 0.0936 0.33822 0.20676 0.0
C1055 C 0.08723 0.29524 0.24774 0.0
C1056 C 0.0455 0.33359 0.24005 0.0
C1057 C 0.03759 0.35412 0.26435 0.0
C1058 C 0.0081 0.36451 0.26822 0.0
C1059 C 0.98597 0.35368 0.24667 0.0
C1060 C 0.9933 0.33236 0.22187 0.0
C1061 C 0.02336 0.32185 0.21868 0.0
H1062 H 0.30731 0.96343 0.81089 0.0
H1063 H 0.33111 0.03993 0.74922 0.0
H1064 H 0.35039 0.00524 0.70638 0.0
H1065 H 0.36977 0.91978 0.79494 0.0
H1066 H 0.35103 0.88357 0.79293 0.0
H1067 H 0.33474 0.91375 0.81687 0.0
H1068 H 0.28465 0.90921 0.78398 0.0
H1069 H 0.3007 0.87881 0.75993 0.0
H1070 H 0.28542 0.91172 0.73958 0.0
H1071 H 0.37626 0.96431 0.67654 0.0
H1072 H 0.40047 0.91757 0.65615 0.0
H1073 H 0.35609 0.86594 0.733 0.0
C1074 C 0.31562 0.97258 0.78782 0.0
C1075 C 0.3175 0.00412 0.78283 0.0
C1076 C 0.32921 0.0157 0.75297 0.0
C1077 C 0.34022 0.99623 0.7286 0.0
C1078 C 0.3389 0.96522 0.73439 0.0
C1079 C 0.32629 0.95329 0.76283 0.0
C1080 C 0.32941 0.91908 0.76338 0.0
C1081 C 0.34731 0.90844 0.79383 0.0
C1082 C 0.29818 0.90381 0.76161 0.0
C1083 C 0.34714 0.914 0.73181 0.0
C1084 C 0.35227 0.94099 0.7155 0.0
C1085 C 0.37121 0.94282 0.6881 0.0
C1086 C 0.38467 0.9162 0.67653 0.0
C1087 C 0.37834 0.88809 0.69164 0.0
C1088 C 0.35987 0.88704 0.72003 0.0
H1089 H 0.85889 0.63015 0.24798 0.0
H1090 H 0.90018 0.56821 0.31782 0.0
H1091 H 0.94903 0.57302 0.2891 0.0
H1092 H 0.9003 0.60498 0.17654 0.0
H1093 H 0.90543 0.64206 0.15886 0.0
H1094 H 0.87294 0.63441 0.18447 0.0
H1095 H 0.88742 0.67878 0.22417 0.0
H1096 H 0.91822 0.68701 0.19647 0.0
H1097 H 0.92586 0.68068 0.23947 0.0
H1098 H 0.99179 0.58093 0.25158 0.0
H1099 H 0.0304 0.59952 0.21265 0.0
H1100 H 0.96463 0.66074 0.16937 0.0
C1101 C 0.87841 0.61798 0.25723 0.0
C1102 C 0.87608 0.59905 0.28521 0.0
C1103 C 0.9018 0.58313 0.29666 0.0
C1104 C 0.92953 0.58553 0.28039 0.0
C1105 C 0.93121 0.60408 0.25277 0.0
C1106 C 0.90671 0.62068 0.24159 0.0
C1107 C 0.91548 0.63954 0.21168 0.0
C1108 C 0.89746 0.62965 0.18108 0.0
C1109 C 0.91146 0.67352 0.21841 0.0
C1110 C 0.94872 0.63126 0.20841 0.0
C1111 C 0.95687 0.61004 0.23182 0.0
C1112 C 0.98586 0.5978 0.23333 0.0
C1113 C 0.00752 0.60831 0.211 0.0
C1114 C 0.00031 0.63141 0.18818 0.0
C1115 C 0.97052 0.64298 0.18664 0.0
H1116 H 0.63321 0.99775 0.23001 0.0
H1117 H 0.72267 0.96645 0.20178 0.0
H1118 H 0.71052 0.91547 0.22378 0.0
H1119 H 0.63019 0.9619 0.30403 0.0
H1120 H 0.59142 0.9488 0.30448 0.0
H1121 H 0.60161 0.98276 0.28248 0.0
H1122 H 0.58345 0.96529 0.2265 0.0
H1123 H 0.56783 0.93238 0.24646 0.0
H1124 H 0.59303 0.928 0.21178 0.0
H1125 H 0.68527 0.86642 0.2421 0.0
H1126 H 0.65339 0.82581 0.26642 0.0
H1127 H 0.58467 0.89196 0.29102 0.0
C1128 C 0.65026 0.98016 0.22847 0.0
C1129 C 0.6788 0.98582 0.21413 0.0
C1130 C 0.7007 0.96245 0.21285 0.0
C1131 C 0.69392 0.93346 0.22502 0.0
C1132 C 0.66536 0.92855 0.23874 0.0
C1133 C 0.64408 0.95141 0.24094 0.0
C1134 C 0.61556 0.9408 0.25801 0.0
C1135 C 0.60928 0.95959 0.28916 0.0
C1136 C 0.58837 0.94167 0.23426 0.0
C1137 C 0.62441 0.90854 0.26597 0.0
C1138 C 0.65266 0.90148 0.25332 0.0
C1139 C 0.66365 0.87188 0.25319 0.0
C1140 C 0.64551 0.84904 0.26694 0.0
C1141 C 0.61763 0.85636 0.28203 0.0
C1142 C 0.6068 0.88632 0.28121 0.0
H1143 H 0.88842 0.401 0.6926 0.0
H1144 H 0.82399 0.33415 0.72655 0.0
H1145 H 0.86593 0.30469 0.75198 0.0
H1146 H 0.95646 0.35263 0.68103 0.0
H1147 H 0.98064 0.3812 0.69855 0.0
H1148 H 0.94688 0.39216 0.67666 0.0
H1149 H 0.92946 0.42257 0.72803 0.0
H1150 H 0.9628 0.41098 0.75014 0.0
H1151 H 0.92583 0.40345 0.76713 0.0
H1152 H 0.91537 0.28449 0.77634 0.0
H1153 H 0.96549 0.27902 0.80362 0.0
H1154 H 0.99442 0.36396 0.7605 0.0
C1155 C 0.88342 0.37952 0.70433 0.0
C1156 C 0.85346 0.36888 0.7065 0.0
C1157 C 0.84713 0.34186 0.72378 0.0
C1158 C 0.87076 0.32511 0.7382 0.0
C1159 C 0.90024 0.33646 0.73603 0.0
C1160 C 0.90645 0.36337 0.71991 0.0
C1161 C 0.93859 0.37374 0.72595 0.0
C1162 C 0.95669 0.37498 0.6936 0.0
C1163 C 0.93918 0.40449 0.74388 0.0
C1164 C 0.94963 0.34853 0.74801 0.0
C1165 C 0.92755 0.32677 0.7529 0.0
C1166 C 0.93278 0.3014 0.77264 0.0
C1167 C 0.96119 0.29845 0.78798 0.0
C1168 C 0.98342 0.32123 0.78422 0.0
C1169 C 0.97758 0.34639 0.76388 0.0
H1170 H 0.35957 0.12696 0.27512 0.0
H1171 H 0.42298 0.08124 0.33974 0.0
H1172 H 0.40356 0.03177 0.32125 0.0
H1173 H 0.29602 0.0705 0.28175 0.0
H1174 H 0.28681 0.07528 0.23885 0.0
H1175 H 0.30287 0.10635 0.26179 0.0
H1176 H 0.34516 0.1097 0.21687 0.0
H1177 H 0.32949 0.0776 0.19553 0.0
H1178 H 0.36842 0.07694 0.20889 0.0
H1179 H 0.3821 0.98819 0.29221 0.0
H1180 H 0.35889 0.95169 0.25367 0.0
H1181 H 0.30795 0.02422 0.20772 0.0
C1182 C 0.36868 0.10642 0.28582 0.0
C1183 C 0.39177 0.10761 0.30982 0.0
C1184 C 0.40435 0.08055 0.32236 0.0
C1185 C 0.39357 0.05244 0.31192 0.0
C1186 C 0.37046 0.05187 0.28861 0.0
C1187 C 0.35805 0.07804 0.27565 0.0
C1188 C 0.33532 0.0708 0.24872 0.0
C1189 C 0.30337 0.08139 0.25838 0.0
C1190 C 0.3452 0.08458 0.21555 0.0
C1191 C 0.3374 0.03654 0.24821 0.0
C1192 C 0.35777 0.02623 0.27159 0.0
C1193 C 0.36563 0.99583 0.27427 0.0
C1194 C 0.35247 0.97535 0.25231 0.0
C1195 C 0.33148 0.98533 0.22839 0.0
C1196 C 0.32347 0.01617 0.22647 0.0
H1197 H 0.14443 0.65098 0.71632 0.0
H1198 H 0.09773 0.59231 0.6476 0.0
H1199 H 0.04904 0.616 0.6625 0.0
H1200 H 0.09237 0.64313 0.77842 0.0
H1201 H 0.09476 0.68127 0.79403 0.0
H1202 H 0.12652 0.6649 0.7728 0.0
H1203 H 0.1266 0.7096 0.73132 0.0
H1204 H 0.09478 0.72623 0.75258 0.0
H1205 H 0.09251 0.71861 0.70895 0.0
H1206 H 0.00562 0.64036 0.68929 0.0
H1207 H 0.96925 0.66058 0.72997 0.0
H1208 H 0.04278 0.70208 0.78426 0.0
C1209 C 0.12397 0.64402 0.7037 0.0
C1210 C 0.12479 0.62122 0.67938 0.0
C1211 C 0.09759 0.61109 0.66478 0.0
C1212 C 0.06987 0.6243 0.67324 0.0
C1213 C 0.06974 0.64712 0.69696 0.0
C1214 C 0.09601 0.65675 0.71227 0.0
C1215 C 0.08905 0.67832 0.74037 0.0
C1216 C 0.1014 0.66616 0.77334 0.0
C1217 C 0.10147 0.71008 0.73285 0.0
C1218 C 0.05473 0.67801 0.73959 0.0
C1219 C 0.04418 0.66055 0.71366 0.0
C1220 C 0.0135 0.65461 0.70923 0.0
C1221 C 0.99306 0.66612 0.73238 0.0
C1222 C 0.00341 0.68322 0.75955 0.0
C1223 C 0.03448 0.68978 0.76299 0.0
H1224 H 0.19957 0.56086 0.52612 0.0
H1225 H 0.22648 0.4968 0.602 0.0
H1226 H 0.23738 0.45882 0.55906 0.0
H1227 H 0.16026 0.51085 0.47851 0.0
H1228 H 0.17117 0.52646 0.43916 0.0
H1229 H 0.17056 0.55023 0.47513 0.0
H1230 H 0.22677 0.56457 0.46526 0.0
H1231 H 0.22753 0.5408 0.4291 0.0
H1232 H 0.25482 0.53509 0.46159 0.0
H1233 H 0.23676 0.42547 0.50959 0.0
H1234 H 0.2261 0.39966 0.45677 0.0
H1235 H 0.20169 0.48558 0.41251 0.0
C1236 C 0.20853 0.53914 0.53376 0.0
C1237 C 0.21219 0.53191 0.56753 0.0
C1238 C 0.22359 0.50301 0.57635 0.0
C1239 C 0.22995 0.48128 0.5521 0.0
C1240 C 0.22523 0.48891 0.51913 0.0
C1241 C 0.21511 0.51727 0.5099 0.0
C1242 C 0.2091 0.51883 0.47314 0.0
C1243 C 0.17581 0.52706 0.4661 0.0
C1244 C 0.23086 0.54115 0.45628 0.0
C1245 C 0.21607 0.48651 0.46335 0.0
C1246 C 0.22568 0.4697 0.49021 0.0
C1247 C 0.23009 0.43852 0.48819 0.0
C1248 C 0.22391 0.42406 0.45819 0.0
C1249 C 0.21368 0.4408 0.43059 0.0
C1250 C 0.21049 0.47249 0.43299 0.0
H1251 H 0.49261 0.82275 0.40354 0.0
H1252 H 0.56688 0.7664 0.43681 0.0
H1253 H 0.54118 0.75886 0.49034 0.0
H1254 H 0.4847 0.86174 0.47667 0.0
H1255 H 0.44403 0.86517 0.47572 0.0
H1256 H 0.46486 0.86148 0.43779 0.0
H1257 H 0.4328 0.81462 0.42177 0.0
H1258 H 0.4116 0.81833 0.45959 0.0
H1259 H 0.43021 0.7831 0.44989 0.0
H1260 H 0.51144 0.7625 0.54163 0.0
H1261 H 0.47968 0.77748 0.58867 0.0
H1262 H 0.42484 0.83331 0.52363 0.0
C1263 C 0.50272 0.80794 0.42177 0.0
C1264 C 0.53124 0.79451 0.41616 0.0
C1265 C 0.54474 0.77637 0.44079 0.0
C1266 C 0.53031 0.77194 0.47113 0.0
C1267 C 0.50254 0.7861 0.47643 0.0
C1268 C 0.48879 0.80372 0.4525 0.0
C1269 C 0.4608 0.81929 0.46604 0.0
C1270 C 0.4638 0.85397 0.46393 0.0
C1271 C 0.43215 0.80816 0.44826 0.0
C1272 C 0.46158 0.80842 0.50151 0.0
C1273 C 0.48558 0.78892 0.50672 0.0
C1274 C 0.49229 0.77739 0.53781 0.0
C1275 C 0.47417 0.78621 0.56443 0.0
C1276 C 0.44968 0.80657 0.55991 0.0
C1277 C 0.44312 0.81742 0.52786 0.0
H1278 H 0.81286 0.50879 0.42296 0.0
H1279 H 0.81606 0.60037 0.46167 0.0
H1280 H 0.81199 0.58036 0.51836 0.0
H1281 H 0.76037 0.47758 0.48394 0.0
H1282 H 0.77994 0.44181 0.48607 0.0
H1283 H 0.78053 0.4635 0.44842 0.0
H1284 H 0.83923 0.46266 0.44891 0.0
H1285 H 0.83883 0.44113 0.48662 0.0
H1286 H 0.8592 0.47644 0.48468 0.0
H1287 H 0.80915 0.5504 0.57087 0.0
H1288 H 0.80976 0.51242 0.6156 0.0
H1289 H 0.81058 0.44044 0.54256 0.0
C1290 C 0.81217 0.52464 0.44334 0.0
C1291 C 0.81453 0.55614 0.43794 0.0
C1292 C 0.81425 0.57614 0.46528 0.0
C1293 C 0.81185 0.56502 0.49755 0.0
C1294 C 0.80998 0.53383 0.50207 0.0
C1295 C 0.81022 0.51391 0.47575 0.0
C1296 C 0.8098 0.48137 0.48745 0.0
C1297 C 0.78094 0.46511 0.47578 0.0
C1298 C 0.83847 0.46442 0.47625 0.0
C1299 C 0.80956 0.48614 0.52444 0.0
C1300 C 0.80932 0.51654 0.53237 0.0
C1301 C 0.80926 0.5265 0.56499 0.0
C1302 C 0.80959 0.50476 0.59021 0.0
C1303 C 0.81031 0.47345 0.58262 0.0
C1304 C 0.8102 0.46418 0.54923 0.0
H1305 H 0.44089 0.17125 0.473 0.0
H1306 H 0.50501 0.20867 0.40251 0.0
H1307 H 0.54121 0.21773 0.44753 0.0
H1308 H 0.46023 0.22298 0.54186 0.0
H1309 H 0.45573 0.19366 0.57241 0.0
H1310 H 0.4335 0.19276 0.53513 0.0
H1311 H 0.45317 0.13865 0.52285 0.0
H1312 H 0.47565 0.13945 0.55987 0.0
H1313 H 0.49341 0.13196 0.52066 0.0
H1314 H 0.5725 0.21733 0.4981 0.0
H1315 H 0.5961 0.21104 0.55271 0.0
H1316 H 0.51158 0.17576 0.59163 0.0
C1317 C 0.46228 0.18191 0.46705 0.0
C1318 C 0.47002 0.18923 0.4341 0.0
C1319 C 0.49843 0.2029 0.42747 0.0
C1320 C 0.5192 0.20816 0.4529 0.0
C1321 C 0.51114 0.19996 0.48487 0.0
C1322 C 0.48326 0.18751 0.49218 0.0
C1323 C 0.4809 0.17951 0.52849 0.0
C1324 C 0.45612 0.19836 0.54547 0.0
C1325 C 0.47547 0.14537 0.53323 0.0
C1326 C 0.51216 0.18867 0.54022 0.0
C1327 C 0.52914 0.20043 0.51456 0.0
C1328 C 0.55933 0.20862 0.51852 0.0
C1329 C 0.57256 0.20474 0.54955 0.0
C1330 C 0.55559 0.19299 0.57631 0.0
C1331 C 0.52489 0.18516 0.57166 0.0
H1332 H 0.68052 0.05957 0.03487 0.0
H1333 H 0.68603 0.98733 0.10734 0.0
H1334 H 0.68444 0.94948 0.06265 0.0
H1335 H 0.62987 0.02258 0.97885 0.0
H1336 H 0.64832 0.03662 0.94224 0.0
H1337 H 0.64972 0.05824 0.97989 0.0
H1338 H 0.70836 0.05866 0.97719 0.0
H1339 H 0.70714 0.03709 0.93949 0.0
H1340 H 0.7286 0.02331 0.97421 0.0
H1341 H 0.68002 0.91959 0.01088 0.0
H1342 H 0.6768 0.89912 0.95443 0.0
H1343 H 0.67697 0.99053 0.91494 0.0
C1344 C 0.68137 0.03578 0.0413 0.0
C1345 C 0.68331 0.02636 0.07455 0.0
C1346 C 0.68469 0.99505 0.08201 0.0
C1347 C 0.68369 0.97338 0.05683 0.0
C1348 C 0.68169 0.98341 0.02435 0.0
C1349 C 0.68088 0.01383 0.01643 0.0
C1350 C 0.67939 0.01845 0.97941 0.0
C1351 C 0.65008 0.03494 0.96953 0.0
C1352 C 0.70755 0.03538 0.96684 0.0
C1353 C 0.6792 0.98585 0.96784 0.0
C1354 C 0.68029 0.96606 0.99422 0.0
C1355 C 0.67938 0.93482 0.98997 0.0
C1356 C 0.67743 0.92344 0.95783 0.0
C1357 C 0.67677 0.94324 0.93034 0.0
C1358 C 0.67777 0.97486 0.93549 0.0
H1359 H 0.05718 0.32444 0.96755 0.0
H1360 H 0.99051 0.29241 0.89676 0.0
H1361 H 0.95302 0.28776 0.94133 0.0
H1362 H 0.03217 0.27549 0.03643 0.0
H1363 H 0.03917 0.30435 0.06694 0.0
H1364 H 0.06172 0.30301 0.02988 0.0
H1365 H 0.04737 0.3587 0.01727 0.0
H1366 H 0.02455 0.36014 0.05406 0.0
H1367 H 0.00797 0.36916 0.01463 0.0
H1368 H 0.92137 0.29173 0.99138 0.0
H1369 H 0.89811 0.29934 0.0459 0.0
H1370 H 0.98518 0.3265 0.08588 0.0
C1371 C 0.03487 0.31593 0.96147 0.0
C1372 C 0.02688 0.30881 0.92852 0.0
C1373 C 0.99733 0.29792 0.92171 0.0
C1374 C 0.9758 0.29524 0.94687 0.0
C1375 C 0.98421 0.30317 0.97881 0.0
C1376 C 0.01311 0.31283 0.98638 0.0
C1377 C 0.01584 0.32068 0.02272 0.0
C1378 C 0.03857 0.29962 0.04001 0.0
C1379 C 0.02444 0.35416 0.02743 0.0
C1380 C 0.98373 0.31457 0.03416 0.0
C1381 C 0.96593 0.30458 0.00829 0.0
C1382 C 0.93512 0.29911 0.01196 0.0
C1383 C 0.92209 0.30376 0.04296 0.0
C1384 C 0.93987 0.31351 0.07005 0.0
C1385 C 0.97117 0.31876 0.06564 0.0
H1386 H 0.304 0.00472 0.92165 0.0
H1387 H 0.27596 0.09024 0.96439 0.0
H1388 H 0.26677 0.06496 0.01773 0.0
H1389 H 0.25208 0.95469 0.97092 0.0
H1390 H 0.28067 0.92581 0.97516 0.0
H1391 H 0.27989 0.94939 0.93885 0.0
H1392 H 0.33565 0.96478 0.9495 0.0
H1393 H 0.33653 0.94159 0.98597 0.0
H1394 H 0.34585 0.98124 0.98866 0.0
H1395 H 0.26682 0.03243 0.06765 0.0
H1396 H 0.27546 0.99439 0.11111 0.0
H1397 H 0.30473 0.92984 0.0367 0.0
C1398 C 0.29486 0.01778 0.94196 0.0
C1399 C 0.29024 0.04928 0.93893 0.0
C1400 C 0.27938 0.06601 0.96627 0.0
C1401 C 0.27404 0.05185 0.99661 0.0
C1402 C 0.27979 0.02096 0.99922 0.0
C1403 C 0.2898 0.00402 0.97264 0.0
C1404 C 0.2973 0.97192 0.98306 0.0
C1405 C 0.27622 0.94911 0.96598 0.0
C1406 C 0.33082 0.96447 0.9764 0.0
C1407 C 0.2908 0.9738 0.01972 0.0
C1408 C 0.28034 0.00216 0.02842 0.0
C1409 C 0.27454 0.00996 0.06112 0.0
C1410 C 0.27967 0.98821 0.08566 0.0
C1411 C 0.29068 0.95902 0.07742 0.0
C1412 C 0.29597 0.95178 0.04388 0.0
H1413 H 0.94886 0.70395 0.95645 0.0
H1414 H 0.01804 0.71635 0.88149 0.0
H1415 H 0.05713 0.71819 0.92509 0.0
H1416 H 0.98552 0.7505 0.02256 0.0
H1417 H 0.97313 0.72446 0.05404 0.0
H1418 H 0.95046 0.73012 0.01757 0.0
H1419 H 0.95168 0.67235 0.00637 0.0
H1420 H 0.97466 0.66652 0.04238 0.0
H1421 H 0.98768 0.65337 0.00273 0.0
H1422 H 0.08902 0.71016 0.97588 0.0
H1423 H 0.11085 0.69554 0.02957 0.0
H1424 H 0.02028 0.68806 0.07065 0.0
C1425 C 0.97211 0.70794 0.94913 0.0
C1426 C 0.98037 0.71002 0.91552 0.0
C1427 C 0.01111 0.71497 0.90708 0.0
C1428 C 0.03348 0.716 0.93169 0.0
C1429 C 0.02462 0.71244 0.96451 0.0
C1430 C 0.99457 0.70897 0.97324 0.0
C1431 C 0.99105 0.70257 0.00969 0.0
C1432 C 0.97404 0.72846 0.02699 0.0
C1433 C 0.97536 0.67189 0.01561 0.0
C1434 C 0.02391 0.70168 0.01996 0.0
C1435 C 0.04295 0.70782 0.99371 0.0
C1436 C 0.07432 0.70593 0.99675 0.0
C1437 C 0.08649 0.69742 0.02734 0.0
C1438 C 0.0673 0.69072 0.05446 0.0
C1439 C 0.03563 0.69336 0.05063 0.0
loop_
_geom_bond_atom_site_label_1
_geom_bond_atom_site_label_2
_geom_bond_distance
_geom_bond_site_symmetry_2
_ccdc_geom_bond_type
Mn0 O5 2.095 . S
Mn0 O15 2.162 . S
Mn0 O16 2.297 . S
Mn0 O24 2.385 . S
Mn0 O25 2.209 . S
Mn0 O26 2.094 . S
Mn1 O6 2.121 . S
Mn1 N8 2.257 . S
Mn1 N17 2.282 . S
Mn1 O25 2.215 . S
Mn1 O27 2.117 . S
C2 O24 1.234 . S
C2 O25 1.283 . S
C3 O15 1.281 . S
C3 O16 1.236 . S
C4 O26 1.240 . S
C4 O27 1.264 . S
O5 Mn0 2.095 . S
O5 C14 1.250 . S
O6 Mn1 2.121 . S
O6 C14 1.258 . S
C7 N8 1.326 . S
C7 C11 1.460 . S
C7 H13 0.929 . S
N8 Mn1 2.257 . S
N8 C7 1.326 . S
N8 C12 1.362 . S
C9 C10 1.258 . S
C9 C12 1.431 . S
C9 C29 1.449 . S
C10 C9 1.258 . S
C10 C11 1.477 . S
C10 H30 0.931 . S
C11 C7 1.460 . S
C11 C10 1.477 . S
C11 H31 0.930 . S
C12 N8 1.362 . S
C12 C9 1.431 . S
C12 C22 1.476 . S
H13 C7 0.929 . S
C14 O5 1.250 . S
C14 O6 1.258 . S
O15 Mn0 2.162 . S
O15 C3 1.281 . S
O16 Mn0 2.297 . S
O16 C3 1.236 . S
N17 Mn1 2.282 . S
N17 C18 1.328 . S
N17 C22 1.318 . S
C18 N17 1.328 . S
C18 C19 1.457 . S
C18 H23 0.929 . S
C19 C18 1.457 . S
C19 C20 1.291 . S
C19 H32 0.931 . S
C20 C19 1.291 . S
C20 C21 1.373 . S
C20 H33 0.929 . S
C21 C20 1.373 . S
C21 C22 1.396 . S
C21 C28 1.403 . S
C22 C12 1.476 . S
C22 N17 1.318 . S
C22 C21 1.396 . S
H23 C18 0.929 . S
O24 Mn0 2.385 . S
O24 C2 1.234 . S
O25 Mn0 2.209 . S
O25 Mn1 2.215 . S
O25 C2 1.283 . S
O26 Mn0 2.094 . S
O26 C4 1.240 . S
O27 Mn1 2.117 . S
O27 C4 1.264 . S
C28 C21 1.403 . S
C28 C29 1.399 . S
C28 H34 0.929 . S
C29 C9 1.449 . S
C29 C28 1.399 . S
C29 H35 0.930 . S
H30 C10 0.931 . S
H31 C11 0.930 . S
H32 C19 0.931 . S
H33 C20 0.929 . S
H34 C28 0.929 . S
H35 C29 0.930 . S
Mn36 O41 2.095 . S
Mn36 O51 2.162 . S
Mn36 O52 2.297 . S
Mn36 O60 2.385 . S
Mn36 O61 2.209 . S
Mn36 O62 2.094 . S
Mn37 O42 2.121 . S
Mn37 N44 2.257 . S
Mn37 N53 2.282 . S
Mn37 O61 2.215 . S
Mn37 O63 2.117 . S
C38 O60 1.234 . S
C38 O61 1.283 . S
C39 O51 1.281 . S
C39 O52 1.236 . S
C40 O62 1.240 . S
C40 O63 1.264 . S
O41 Mn36 2.095 . S
O41 C50 1.250 . S
O42 Mn37 2.121 . S
O42 C50 1.258 . S
C43 N44 1.326 . S
C43 C47 1.460 . S
C43 H49 0.929 . S
N44 Mn37 2.257 . S
N44 C43 1.326 . S
N44 C48 1.362 . S
C45 C46 1.258 . S
C45 C48 1.431 . S
C45 C65 1.449 . S
C46 C45 1.258 . S
C46 C47 1.477 . S
C46 H66 0.931 . S
C47 C43 1.460 . S
C47 C46 1.477 . S
C47 H67 0.930 . S
C48 N44 1.362 . S
C48 C45 1.431 . S
C48 C58 1.476 . S
H49 C43 0.929 . S
C50 O41 1.250 . S
C50 O42 1.258 . S
O51 Mn36 2.162 . S
O51 C39 1.281 . S
O52 Mn36 2.297 . S
O52 C39 1.236 . S
N53 Mn37 2.282 . S
N53 C54 1.328 . S
N53 C58 1.318 . S
C54 N53 1.328 . S
C54 C55 1.457 . S
C54 H59 0.929 . S
C55 C54 1.457 . S
C55 C56 1.291 . S
C55 H68 0.931 . S
C56 C55 1.291 . S
C56 C57 1.373 . S
C56 H69 0.929 . S
C57 C56 1.373 . S
C57 C58 1.396 . S
C57 C64 1.403 . S
C58 C48 1.476 . S
C58 N53 1.318 . S
C58 C57 1.396 . S
H59 C54 0.929 . S
O60 Mn36 2.385 . S
O60 C38 1.234 . S
O61 Mn36 2.209 . S
O61 Mn37 2.215 . S
O61 C38 1.283 . S
O62 Mn36 2.094 . S
O62 C40 1.240 . S
O63 Mn37 2.117 . S
O63 C40 1.264 . S
C64 C57 1.403 . S
C64 C65 1.399 . S
C64 H70 0.929 . S
C65 C45 1.449 . S
C65 C64 1.399 . S
C65 H71 0.930 . S
H66 C46 0.931 . S
H67 C47 0.930 . S
H68 C55 0.931 . S
H69 C56 0.929 . S
H70 C64 0.929 . S
H71 C65 0.930 . S
Mn72 O77 2.095 . S
Mn72 O87 2.162 . S
Mn72 O88 2.297 . S
Mn72 O96 2.385 . S
Mn72 O97 2.209 . S
Mn72 O98 2.094 . S
Mn73 O78 2.121 . S
Mn73 N80 2.257 . S
Mn73 N89 2.282 . S
Mn73 O97 2.215 . S
Mn73 O99 2.117 . S
C74 O96 1.234 . S
C74 O97 1.283 . S
C75 O87 1.281 . S
C75 O88 1.236 . S
C76 O98 1.240 . S
C76 O99 1.264 . S
O77 Mn72 2.095 . S
O77 C86 1.250 . S
O78 Mn73 2.121 . S
O78 C86 1.258 . S
C79 N80 1.326 . S
C79 C83 1.460 . S
C79 H85 0.929 . S
N80 Mn73 2.257 . S
N80 C79 1.326 . S
N80 C84 1.362 . S
C81 C82 1.258 . S
C81 C84 1.431 . S
C81 C101 1.449 . S
C82 C81 1.258 . S
C82 C83 1.477 . S
C82 H102 0.931 . S
C83 C79 1.460 . S
C83 C82 1.477 . S
C83 H103 0.930 . S
C84 N80 1.362 . S
C84 C81 1.431 . S
C84 C94 1.476 . S
H85 C79 0.929 . S
C86 O77 1.250 . S
C86 O78 1.258 . S
O87 Mn72 2.162 . S
O87 C75 1.281 . S
O88 Mn72 2.297 . S
O88 C75 1.236 . S
N89 Mn73 2.282 . S
N89 C90 1.328 . S
N89 C94 1.318 . S
C90 N89 1.328 . S
C90 C91 1.457 . S
C90 H95 0.929 . S
C91 C90 1.457 . S
C91 C92 1.291 . S
C91 H104 0.931 . S
C92 C91 1.291 . S
C92 C93 1.373 . S
C92 H105 0.929 . S
C93 C92 1.373 . S
C93 C94 1.396 . S
C93 C100 1.403 . S
C94 C84 1.476 . S
C94 N89 1.318 . S
C94 C93 1.396 . S
H95 C90 0.929 . S
O96 Mn72 2.385 . S
O96 C74 1.234 . S
O97 Mn72 2.209 . S
O97 Mn73 2.215 . S
O97 C74 1.283 . S
O98 Mn72 2.094 . S
O98 C76 1.240 . S
O99 Mn73 2.117 . S
O99 C76 1.264 . S
C100 C93 1.403 . S
C100 C101 1.399 . S
C100 H106 0.929 . S
C101 C81 1.449 . S
C101 C100 1.399 . S
C101 H107 0.930 . S
H102 C82 0.931 . S
H103 C83 0.930 . S
H104 C91 0.931 . S
H105 C92 0.929 . S
H106 C100 0.929 . S
H107 C101 0.930 . S
Mn108 O113 2.095 . S
Mn108 O123 2.162 . S
Mn108 O124 2.297 . S
Mn108 O132 2.385 . S
Mn108 O133 2.209 . S
Mn108 O134 2.094 . S
Mn109 O114 2.121 . S
Mn109 N116 2.257 . S
Mn109 N125 2.282 . S
Mn109 O133 2.215 . S
Mn109 O135 2.117 . S
C110 O132 1.234 . S
C110 O133 1.283 . S
C111 O123 1.281 . S
C111 O124 1.236 . S
C112 O134 1.240 . S
C112 O135 1.264 . S
O113 Mn108 2.095 . S
O113 C122 1.250 . S
O114 Mn109 2.121 . S
O114 C122 1.258 . S
C115 N116 1.326 . S
C115 C119 1.460 . S
C115 H121 0.929 . S
N116 Mn109 2.257 . S
N116 C115 1.326 . S
N116 C120 1.362 . S
C117 C118 1.258 . S
C117 C120 1.431 . S
C117 C137 1.449 . S
C118 C117 1.258 . S
C118 C119 1.477 . S
C118 H138 0.931 . S
C119 C115 1.460 . S
C119 C118 1.477 . S
C119 H139 0.930 . S
C120 N116 1.362 . S
C120 C117 1.431 . S
C120 C130 1.476 . S
H121 C115 0.929 . S
C122 O113 1.250 . S
C122 O114 1.258 . S
O123 Mn108 2.162 . S
O123 C111 1.281 . S
O124 Mn108 2.297 . S
O124 C111 1.236 . S
N125 Mn109 2.282 . S
N125 C126 1.328 . S
N125 C130 1.318 . S
C126 N125 1.328 . S
C126 C127 1.457 . S
C126 H131 0.929 . S
C127 C126 1.457 . S
C127 C128 1.291 . S
C127 H140 0.931 . S
C128 C127 1.291 . S
C128 C129 1.373 . S
C128 H141 0.929 . S
C129 C128 1.373 . S
C129 C130 1.396 . S
C129 C136 1.403 . S
C130 C120 1.476 . S
C130 N125 1.318 . S
C130 C129 1.396 . S
H131 C126 0.929 . S
O132 Mn108 2.385 . S
O132 C110 1.234 . S
O133 Mn108 2.209 . S
O133 Mn109 2.215 . S
O133 C110 1.283 . S
O134 Mn108 2.094 . S
O134 C112 1.240 . S
O135 Mn109 2.117 . S
O135 C112 1.264 . S
C136 C129 1.403 . S
C136 C137 1.399 . S
C136 H142 0.929 . S
C137 C117 1.449 . S
C137 C136 1.399 . S
C137 H143 0.930 . S
H138 C118 0.931 . S
H139 C119 0.930 . S
H140 C127 0.931 . S
H141 C128 0.929 . S
H142 C136 0.929 . S
H143 C137 0.930 . S
Mn144 O149 2.095 . S
Mn144 O159 2.162 . S
Mn144 O160 2.297 . S
Mn144 O168 2.385 . S
Mn144 O169 2.209 . S
Mn144 O170 2.094 . S
Mn145 O150 2.121 . S
Mn145 N152 2.257 . S
Mn145 N161 2.282 . S
Mn145 O169 2.215 . S
Mn145 O171 2.117 . S
C146 O168 1.234 . S
C146 O169 1.283 . S
C147 O159 1.281 . S
C147 O160 1.236 . S
C148 O170 1.240 . S
C148 O171 1.264 . S
O149 Mn144 2.095 . S
O149 C158 1.250 . S
O150 Mn145 2.121 . S
O150 C158 1.258 . S
C151 N152 1.326 . S
C151 C155 1.460 . S
C151 H157 0.929 . S
N152 Mn145 2.257 . S
N152 C151 1.326 . S
N152 C156 1.362 . S
C153 C154 1.258 . S
C153 C156 1.431 . S
C153 C173 1.449 . S
C154 C153 1.258 . S
C154 C155 1.477 . S
C154 H174 0.931 . S
C155 C151 1.460 . S
C155 C154 1.477 . S
C155 H175 0.930 . S
C156 N152 1.362 . S
C156 C153 1.431 . S
C156 C166 1.476 . S
H157 C151 0.929 . S
C158 O149 1.250 . S
C158 O150 1.258 . S
O159 Mn144 2.162 . S
O159 C147 1.281 . S
O160 Mn144 2.297 . S
O160 C147 1.236 . S
N161 Mn145 2.282 . S
N161 C162 1.328 . S
N161 C166 1.318 . S
C162 N161 1.328 . S
C162 C163 1.457 . S
C162 H167 0.929 . S
C163 C162 1.457 . S
C163 C164 1.291 . S
C163 H176 0.931 . S
C164 C163 1.291 . S
C164 C165 1.373 . S
C164 H177 0.929 . S
C165 C164 1.373 . S
C165 C166 1.396 . S
C165 C172 1.403 . S
C166 C156 1.476 . S
C166 N161 1.318 . S
C166 C165 1.396 . S
H167 C162 0.929 . S
O168 Mn144 2.385 . S
O168 C146 1.234 . S
O169 Mn144 2.209 . S
O169 Mn145 2.215 . S
O169 C146 1.283 . S
O170 Mn144 2.094 . S
O170 C148 1.240 . S
O171 Mn145 2.117 . S
O171 C148 1.264 . S
C172 C165 1.403 . S
C172 C173 1.399 . S
C172 H178 0.929 . S
C173 C153 1.449 . S
C173 C172 1.399 . S
C173 H179 0.930 . S
H174 C154 0.931 . S
H175 C155 0.930 . S
H176 C163 0.931 . S
H177 C164 0.929 . S
H178 C172 0.929 . S
H179 C173 0.930 . S
Mn180 O185 2.095 . S
Mn180 O195 2.162 . S
Mn180 O196 2.297 . S
Mn180 O204 2.385 . S
Mn180 O205 2.209 . S
Mn180 O206 2.094 . S
Mn181 O186 2.121 . S
Mn181 N188 2.257 . S
Mn181 N197 2.282 . S
Mn181 O205 2.215 . S
Mn181 O207 2.117 . S
C182 O204 1.234 . S
C182 O205 1.283 . S
C183 O195 1.281 . S
C183 O196 1.236 . S
C184 O206 1.240 . S
C184 O207 1.264 . S
O185 Mn180 2.095 . S
O185 C194 1.250 . S
O186 Mn181 2.121 . S
O186 C194 1.258 . S
C187 N188 1.326 . S
C187 C191 1.460 . S
C187 H193 0.929 . S
N188 Mn181 2.257 . S
N188 C187 1.326 . S
N188 C192 1.362 . S
C189 C190 1.258 . S
C189 C192 1.431 . S
C189 C209 1.449 . S
C190 C189 1.258 . S
C190 C191 1.477 . S
C190 H210 0.931 . S
C191 C187 1.460 . S
C191 C190 1.477 . S
C191 H211 0.930 . S
C192 N188 1.362 . S
C192 C189 1.431 . S
C192 C202 1.476 . S
H193 C187 0.929 . S
C194 O185 1.250 . S
C194 O186 1.258 . S
O195 Mn180 2.162 . S
O195 C183 1.281 . S
O196 Mn180 2.297 . S
O196 C183 1.236 . S
N197 Mn181 2.282 . S
N197 C198 1.328 . S
N197 C202 1.318 . S
C198 N197 1.328 . S
C198 C199 1.457 . S
C198 H203 0.929 . S
C199 C198 1.457 . S
C199 C200 1.291 . S
C199 H212 0.931 . S
C200 C199 1.291 . S
C200 C201 1.373 . S
C200 H213 0.929 . S
C201 C200 1.373 . S
C201 C202 1.396 . S
C201 C208 1.403 . S
C202 C192 1.476 . S
C202 N197 1.318 . S
C202 C201 1.396 . S
H203 C198 0.929 . S
O204 Mn180 2.385 . S
O204 C182 1.234 . S
O205 Mn180 2.209 . S
O205 Mn181 2.215 . S
O205 C182 1.283 . S
O206 Mn180 2.094 . S
O206 C184 1.240 . S
O207 Mn181 2.117 . S
O207 C184 1.264 . S
C208 C201 1.403 . S
C208 C209 1.399 . S
C208 H214 0.929 . S
C209 C189 1.449 . S
C209 C208 1.399 . S
C209 H215 0.930 . S
H210 C190 0.931 . S
H211 C191 0.930 . S
H212 C199 0.931 . S
H213 C200 0.929 . S
H214 C208 0.929 . S
H215 C209 0.930 . S
Mn216 O221 2.095 . S
Mn216 O231 2.162 . S
Mn216 O232 2.297 . S
Mn216 O240 2.385 . S
Mn216 O241 2.209 . S
Mn216 O242 2.094 . S
Mn217 O222 2.121 . S
Mn217 N224 2.257 . S
Mn217 N233 2.282 . S
Mn217 O241 2.215 . S
Mn217 O243 2.117 . S
C218 O240 1.234 . S
C218 O241 1.283 . S
C219 O231 1.281 . S
C219 O232 1.236 . S
C220 O242 1.240 . S
C220 O243 1.264 . S
O221 Mn216 2.095 . S
O221 C230 1.250 . S
O222 Mn217 2.121 . S
O222 C230 1.258 . S
C223 N224 1.326 . S
C223 C227 1.460 . S
C223 H229 0.929 . S
N224 Mn217 2.257 . S
N224 C223 1.326 . S
N224 C228 1.362 . S
C225 C226 1.258 . S
C225 C228 1.431 . S
C225 C245 1.449 . S
C226 C225 1.258 . S
C226 C227 1.477 . S
C226 H246 0.931 . S
C227 C223 1.460 . S
C227 C226 1.477 . S
C227 H247 0.930 . S
C228 N224 1.362 . S
C228 C225 1.431 . S
C228 C238 1.476 . S
H229 C223 0.929 . S
C230 O221 1.250 . S
C230 O222 1.258 . S
O231 Mn216 2.162 . S
O231 C219 1.281 . S
O232 Mn216 2.297 . S
O232 C219 1.236 . S
N233 Mn217 2.282 . S
N233 C234 1.328 . S
N233 C238 1.318 . S
C234 N233 1.328 . S
C234 C235 1.457 . S
C234 H239 0.929 . S
C235 C234 1.457 . S
C235 C236 1.291 . S
C235 H248 0.931 . S
C236 C235 1.291 . S
C236 C237 1.373 . S
C236 H249 0.929 . S
C237 C236 1.373 . S
C237 C238 1.396 . S
C237 C244 1.403 . S
C238 C228 1.476 . S
C238 N233 1.318 . S
C238 C237 1.396 . S
H239 C234 0.929 . S
O240 Mn216 2.385 . S
O240 C218 1.234 . S
O241 Mn216 2.209 . S
O241 Mn217 2.215 . S
O241 C218 1.283 . S
O242 Mn216 2.094 . S
O242 C220 1.240 . S
O243 Mn217 2.117 . S
O243 C220 1.264 . S
C244 C237 1.403 . S
C244 C245 1.399 . S
C244 H250 0.929 . S
C245 C225 1.449 . S
C245 C244 1.399 . S
C245 H251 0.930 . S
H246 C226 0.931 . S
H247 C227 0.930 . S
H248 C235 0.931 . S
H249 C236 0.929 . S
H250 C244 0.929 . S
H251 C245 0.930 . S
Mn252 O257 2.095 . S
Mn252 O267 2.162 . S
Mn252 O268 2.297 . S
Mn252 O276 2.385 . S
Mn252 O277 2.209 . S
Mn252 O278 2.094 . S
Mn253 O258 2.121 . S
Mn253 N260 2.257 . S
Mn253 N269 2.282 . S
Mn253 O277 2.215 . S
Mn253 O279 2.117 . S
C254 O276 1.234 . S
C254 O277 1.283 . S
C255 O267 1.281 . S
C255 O268 1.236 . S
C256 O278 1.240 . S
C256 O279 1.264 . S
O257 Mn252 2.095 . S
O257 C266 1.250 . S
O258 Mn253 2.121 . S
O258 C266 1.258 . S
C259 N260 1.326 . S
C259 C263 1.460 . S
C259 H265 0.929 . S
N260 Mn253 2.257 . S
N260 C259 1.326 . S
N260 C264 1.362 . S
C261 C262 1.258 . S
C261 C264 1.431 . S
C261 C281 1.449 . S
C262 C261 1.258 . S
C262 C263 1.477 . S
C262 H282 0.931 . S
C263 C259 1.460 . S
C263 C262 1.477 . S
C263 H283 0.930 . S
C264 N260 1.362 . S
C264 C261 1.431 . S
C264 C274 1.476 . S
H265 C259 0.929 . S
C266 O257 1.250 . S
C266 O258 1.258 . S
O267 Mn252 2.162 . S
O267 C255 1.281 . S
O268 Mn252 2.297 . S
O268 C255 1.236 . S
N269 Mn253 2.282 . S
N269 C270 1.328 . S
N269 C274 1.318 . S
C270 N269 1.328 . S
C270 C271 1.457 . S
C270 H275 0.929 . S
C271 C270 1.457 . S
C271 C272 1.291 . S
C271 H284 0.931 . S
C272 C271 1.291 . S
C272 C273 1.373 . S
C272 H285 0.929 . S
C273 C272 1.373 . S
C273 C274 1.396 . S
C273 C280 1.403 . S
C274 C264 1.476 . S
C274 N269 1.318 . S
C274 C273 1.396 . S
H275 C270 0.929 . S
O276 Mn252 2.385 . S
O276 C254 1.234 . S
O277 Mn252 2.209 . S
O277 Mn253 2.215 . S
O277 C254 1.283 . S
O278 Mn252 2.094 . S
O278 C256 1.240 . S
O279 Mn253 2.117 . S
O279 C256 1.264 . S
C280 C273 1.403 . S
C280 C281 1.399 . S
C280 H286 0.929 . S
C281 C261 1.449 . S
C281 C280 1.399 . S
C281 H287 0.930 . S
H282 C262 0.931 . S
H283 C263 0.930 . S
H284 C271 0.931 . S
H285 C272 0.929 . S
H286 C280 0.929 . S
H287 C281 0.930 . S
Mn288 O293 2.095 . S
Mn288 O303 2.130 1_565 S
Mn288 O304 2.297 . S
Mn288 O312 2.385 . S
Mn288 O313 2.209 . S
Mn288 O314 2.094 . S
Mn289 O294 2.121 . S
Mn289 N296 2.257 . S
Mn289 N305 2.282 . S
Mn289 O313 2.215 . S
Mn289 O315 2.117 . S
C290 O312 1.234 . S
C290 O313 1.283 . S
C291 O303 1.295 . S
C291 O304 1.236 1_545 S
C292 O314 1.240 . S
C292 O315 1.264 . S
O293 Mn288 2.095 . S
O293 C302 1.250 . S
O294 Mn289 2.121 . S
O294 C302 1.258 . S
C295 N296 1.326 . S
C295 C299 1.460 . S
C295 H301 0.929 . S
N296 Mn289 2.257 . S
N296 C295 1.326 . S
N296 C300 1.362 . S
C297 C298 1.258 . S
C297 C300 1.431 . S
C297 C317 1.449 . S
C298 C297 1.258 . S
C298 C299 1.477 . S
C298 H318 0.931 . S
C299 C295 1.460 . S
C299 C298 1.477 . S
C299 H319 0.930 . S
C300 N296 1.362 . S
C300 C297 1.431 . S
C300 C310 1.476 . S
H301 C295 0.929 . S
C302 O293 1.250 . S
C302 O294 1.258 . S
O303 Mn288 2.130 1_545 S
O303 C291 1.295 . S
O304 Mn288 2.297 . S
O304 C291 1.236 1_565 S
N305 Mn289 2.282 . S
N305 C306 1.328 . S
N305 C310 1.318 . S
C306 N305 1.328 . S
C306 C307 1.457 . S
C306 H311 0.929 . S
C307 C306 1.457 . S
C307 C308 1.291 . S
C307 H320 0.931 . S
C308 C307 1.291 . S
C308 C309 1.373 . S
C308 H321 0.929 . S
C309 C308 1.373 . S
C309 C310 1.396 . S
C309 C316 1.403 . S
C310 C300 1.476 . S
C310 N305 1.318 . S
C310 C309 1.396 . S
H311 C306 0.929 . S
O312 Mn288 2.385 . S
O312 C290 1.234 . S
O313 Mn288 2.209 . S
O313 Mn289 2.215 . S
O313 C290 1.283 . S
O314 Mn288 2.094 . S
O314 C292 1.240 . S
O315 Mn289 2.117 . S
O315 C292 1.264 . S
C316 C309 1.403 . S
C316 C317 1.399 . S
C316 H322 0.929 . S
C317 C297 1.449 . S
C317 C316 1.399 . S
C317 H323 0.930 . S
H318 C298 0.931 . S
H319 C299 0.930 . S
H320 C307 0.931 . S
H321 C308 0.929 . S
H322 C316 0.929 . S
H323 C317 0.930 . S
Mn324 O329 2.095 . S
Mn324 O339 2.130 1_655 S
Mn324 O340 2.297 . S
Mn324 O348 2.385 . S
Mn324 O349 2.209 . S
Mn324 O350 2.094 . S
Mn325 O330 2.121 . S
Mn325 N332 2.257 . S
Mn325 N341 2.282 . S
Mn325 O349 2.215 . S
Mn325 O351 2.117 . S
C326 O348 1.234 . S
C326 O349 1.283 . S
C327 O339 1.295 . S
C327 O340 1.236 1_455 S
C328 O350 1.240 . S
C328 O351 1.264 . S
O329 Mn324 2.095 . S
O329 C338 1.250 . S
O330 Mn325 2.121 . S
O330 C338 1.258 . S
C331 N332 1.326 . S
C331 C335 1.460 . S
C331 H337 0.929 . S
N332 Mn325 2.257 . S
N332 C331 1.326 . S
N332 C336 1.362 . S
C333 C334 1.258 . S
C333 C336 1.431 . S
C333 C353 1.449 . S
C334 C333 1.258 . S
C334 C335 1.477 . S
C334 H354 0.931 . S
C335 C331 1.460 . S
C335 C334 1.477 . S
C335 H355 0.930 . S
C336 N332 1.362 . S
C336 C333 1.431 . S
C336 C346 1.476 . S
H337 C331 0.929 . S
C338 O329 1.250 . S
C338 O330 1.258 . S
O339 Mn324 2.130 1_455 S
O339 C327 1.295 . S
O340 Mn324 2.297 . S
O340 C327 1.236 1_655 S
N341 Mn325 2.282 . S
N341 C342 1.328 . S
N341 C346 1.318 . S
C342 N341 1.328 . S
C342 C343 1.457 . S
C342 H347 0.929 . S
C343 C342 1.457 . S
C343 C344 1.291 . S
C343 H356 0.931 . S
C344 C343 1.291 . S
C344 C345 1.373 . S
C344 H357 0.929 . S
C345 C344 1.373 . S
C345 C346 1.396 . S
C345 C352 1.403 . S
C346 C336 1.476 . S
C346 N341 1.318 . S
C346 C345 1.396 . S
H347 C342 0.929 . S
O348 Mn324 2.385 . S
O348 C326 1.234 . S
O349 Mn324 2.209 . S
O349 Mn325 2.215 . S
O349 C326 1.283 . S
O350 Mn324 2.094 . S
O350 C328 1.240 . S
O351 Mn325 2.117 . S
O351 C328 1.264 . S
C352 C345 1.403 . S
C352 C353 1.399 . S
C352 H358 0.929 . S
C353 C333 1.449 . S
C353 C352 1.399 . S
C353 H359 0.930 . S
H354 C334 0.931 . S
H355 C335 0.930 . S
H356 C343 0.931 . S
H357 C344 0.929 . S
H358 C352 0.929 . S
H359 C353 0.930 . S
Mn360 O365 2.095 . S
Mn360 O375 2.130 1_545 S
Mn360 O376 2.297 . S
Mn360 O384 2.385 . S
Mn360 O385 2.209 . S
Mn360 O386 2.094 . S
Mn361 O366 2.121 . S
Mn361 N368 2.257 . S
Mn361 N377 2.282 . S
Mn361 O385 2.215 . S
Mn361 O387 2.117 . S
C362 O384 1.234 . S
C362 O385 1.283 . S
C363 O375 1.295 . S
C363 O376 1.236 1_565 S
C364 O386 1.240 . S
C364 O387 1.264 . S
O365 Mn360 2.095 . S
O365 C374 1.250 . S
O366 Mn361 2.121 . S
O366 C374 1.258 . S
C367 N368 1.326 . S
C367 C371 1.460 . S
C367 H373 0.929 . S
N368 Mn361 2.257 . S
N368 C367 1.326 . S
N368 C372 1.362 . S
C369 C370 1.258 . S
C369 C372 1.431 . S
C369 C389 1.449 . S
C370 C369 1.258 . S
C370 C371 1.477 . S
C370 H390 0.931 . S
C371 C367 1.460 . S
C371 C370 1.477 . S
C371 H391 0.930 . S
C372 N368 1.362 . S
C372 C369 1.431 . S
C372 C382 1.476 . S
H373 C367 0.929 . S
C374 O365 1.250 . S
C374 O366 1.258 . S
O375 Mn360 2.130 1_565 S
O375 C363 1.295 . S
O376 Mn360 2.297 . S
O376 C363 1.236 1_545 S
N377 Mn361 2.282 . S
N377 C378 1.328 . S
N377 C382 1.318 . S
C378 N377 1.328 . S
C378 C379 1.457 . S
C378 H383 0.929 . S
C379 C378 1.457 . S
C379 C380 1.291 . S
C379 H392 0.931 . S
C380 C379 1.291 . S
C380 C381 1.373 . S
C380 H393 0.929 . S
C381 C380 1.373 . S
C381 C382 1.396 . S
C381 C388 1.403 . S
C382 C372 1.476 . S
C382 N377 1.318 . S
C382 C381 1.396 . S
H383 C378 0.929 . S
O384 Mn360 2.385 . S
O384 C362 1.234 . S
O385 Mn360 2.209 . S
O385 Mn361 2.215 . S
O385 C362 1.283 . S
O386 Mn360 2.094 . S
O386 C364 1.240 . S
O387 Mn361 2.117 . S
O387 C364 1.264 . S
C388 C381 1.403 . S
C388 C389 1.399 . S
C388 H394 0.929 . S
C389 C369 1.449 . S
C389 C388 1.399 . S
C389 H395 0.930 . S
H390 C370 0.931 . S
H391 C371 0.930 . S
H392 C379 0.931 . S
H393 C380 0.929 . S
H394 C388 0.929 . S
H395 C389 0.930 . S
Mn396 O401 2.095 . S
Mn396 O411 2.130 1_455 S
Mn396 O412 2.297 . S
Mn396 O420 2.385 . S
Mn396 O421 2.209 . S
Mn396 O422 2.094 . S
Mn397 O402 2.121 . S
Mn397 N404 2.257 . S
Mn397 N413 2.282 . S
Mn397 O421 2.215 . S
Mn397 O423 2.117 . S
C398 O420 1.234 . S
C398 O421 1.283 . S
C399 O411 1.295 . S
C399 O412 1.236 1_655 S
C400 O422 1.240 . S
C400 O423 1.264 . S
O401 Mn396 2.095 . S
O401 C410 1.250 . S
O402 Mn397 2.121 . S
O402 C410 1.258 . S
C403 N404 1.326 . S
C403 C407 1.460 . S
C403 H409 0.929 . S
N404 Mn397 2.257 . S
N404 C403 1.326 . S
N404 C408 1.362 . S
C405 C406 1.258 . S
C405 C408 1.431 . S
C405 C425 1.449 . S
C406 C405 1.258 . S
C406 C407 1.477 . S
C406 H426 0.931 . S
C407 C403 1.460 . S
C407 C406 1.477 . S
C407 H427 0.930 . S
C408 N404 1.362 . S
C408 C405 1.431 . S
C408 C418 1.476 . S
H409 C403 0.929 . S
C410 O401 1.250 . S
C410 O402 1.258 . S
O411 Mn396 2.130 1_655 S
O411 C399 1.295 . S
O412 Mn396 2.297 . S
O412 C399 1.236 1_455 S
N413 Mn397 2.282 . S
N413 C414 1.328 . S
N413 C418 1.318 . S
C414 N413 1.328 . S
C414 C415 1.457 . S
C414 H419 0.929 . S
C415 C414 1.457 . S
C415 C416 1.291 . S
C415 H428 0.931 . S
C416 C415 1.291 . S
C416 C417 1.373 . S
C416 H429 0.929 . S
C417 C416 1.373 . S
C417 C418 1.396 . S
C417 C424 1.403 . S
C418 C408 1.476 . S
C418 N413 1.318 . S
C418 C417 1.396 . S
H419 C414 0.929 . S
O420 Mn396 2.385 . S
O420 C398 1.234 . S
O421 Mn396 2.209 . S
O421 Mn397 2.215 . S
O421 C398 1.283 . S
O422 Mn396 2.094 . S
O422 C400 1.240 . S
O423 Mn397 2.117 . S
O423 C400 1.264 . S
C424 C417 1.403 . S
C424 C425 1.399 . S
C424 H430 0.929 . S
C425 C405 1.449 . S
C425 C424 1.399 . S
C425 H431 0.930 . S
H426 C406 0.931 . S
H427 C407 0.930 . S
H428 C415 0.931 . S
H429 C416 0.929 . S
H430 C424 0.929 . S
H431 C425 0.930 . S
Mn432 O437 2.095 . S
Mn432 O447 2.130 1_545 S
Mn432 O448 2.297 . S
Mn432 O456 2.385 . S
Mn432 O457 2.209 . S
Mn432 O458 2.094 . S
Mn433 O438 2.121 . S
Mn433 N440 2.257 . S
Mn433 N449 2.282 . S
Mn433 O457 2.215 . S
Mn433 O459 2.117 . S
C434 O456 1.234 . S
C434 O457 1.283 . S
C435 O447 1.295 . S
C435 O448 1.236 1_565 S
C436 O458 1.240 . S
C436 O459 1.264 . S
O437 Mn432 2.095 . S
O437 C446 1.250 . S
O438 Mn433 2.121 . S
O438 C446 1.258 . S
C439 N440 1.326 . S
C439 C443 1.460 . S
C439 H445 0.929 . S
N440 Mn433 2.257 . S
N440 C439 1.326 . S
N440 C444 1.362 . S
C441 C442 1.258 . S
C441 C444 1.431 . S
C441 C461 1.449 . S
C442 C441 1.258 . S
C442 C443 1.477 . S
C442 H462 0.931 . S
C443 C439 1.460 . S
C443 C442 1.477 . S
C443 H463 0.930 . S
C444 N440 1.362 . S
C444 C441 1.431 . S
C444 C454 1.476 . S
H445 C439 0.929 . S
C446 O437 1.250 . S
C446 O438 1.258 . S
O447 Mn432 2.130 1_565 S
O447 C435 1.295 . S
O448 Mn432 2.297 . S
O448 C435 1.236 1_545 S
N449 Mn433 2.282 . S
N449 C450 1.328 . S
N449 C454 1.318 . S
C450 N449 1.328 . S
C450 C451 1.457 . S
C450 H455 0.929 . S
C451 C450 1.457 . S
C451 C452 1.291 . S
C451 H464 0.931 . S
C452 C451 1.291 . S
C452 C453 1.373 . S
C452 H465 0.929 . S
C453 C452 1.373 . S
C453 C454 1.396 . S
C453 C460 1.403 . S
C454 C444 1.476 . S
C454 N449 1.318 . S
C454 C453 1.396 . S
H455 C450 0.929 . S
O456 Mn432 2.385 . S
O456 C434 1.234 . S
O457 Mn432 2.209 . S
O457 Mn433 2.215 . S
O457 C434 1.283 . S
O458 Mn432 2.094 . S
O458 C436 1.240 . S
O459 Mn433 2.117 . S
O459 C436 1.264 . S
C460 C453 1.403 . S
C460 C461 1.399 . S
C460 H466 0.929 . S
C461 C441 1.449 . S
C461 C460 1.399 . S
C461 H467 0.930 . S
H462 C442 0.931 . S
H463 C443 0.930 . S
H464 C451 0.931 . S
H465 C452 0.929 . S
H466 C460 0.929 . S
H467 C461 0.930 . S
Mn468 O473 2.095 . S
Mn468 O483 2.130 1_455 S
Mn468 O484 2.297 . S
Mn468 O492 2.385 . S
Mn468 O493 2.209 . S
Mn468 O494 2.094 . S
Mn469 O474 2.121 . S
Mn469 N476 2.257 . S
Mn469 N485 2.282 . S
Mn469 O493 2.215 . S
Mn469 O495 2.117 . S
C470 O492 1.234 . S
C470 O493 1.283 . S
C471 O483 1.295 . S
C471 O484 1.236 1_655 S
C472 O494 1.240 . S
C472 O495 1.264 . S
O473 Mn468 2.095 . S
O473 C482 1.250 . S
O474 Mn469 2.121 . S
O474 C482 1.258 . S
C475 N476 1.326 . S
C475 C479 1.460 . S
C475 H481 0.929 . S
N476 Mn469 2.257 . S
N476 C475 1.326 . S
N476 C480 1.362 . S
C477 C478 1.258 . S
C477 C480 1.431 . S
C477 C497 1.449 . S
C478 C477 1.258 . S
C478 C479 1.477 . S
C478 H498 0.931 . S
C479 C475 1.460 . S
C479 C478 1.477 . S
C479 H499 0.930 . S
C480 N476 1.362 . S
C480 C477 1.431 . S
C480 C490 1.476 . S
H481 C475 0.929 . S
C482 O473 1.250 . S
C482 O474 1.258 . S
O483 Mn468 2.130 1_655 S
O483 C471 1.295 . S
O484 Mn468 2.297 . S
O484 C471 1.236 1_455 S
N485 Mn469 2.282 . S
N485 C486 1.328 . S
N485 C490 1.318 . S
C486 N485 1.328 . S
C486 C487 1.457 . S
C486 H491 0.929 . S
C487 C486 1.457 . S
C487 C488 1.291 . S
C487 H500 0.931 . S
C488 C487 1.291 . S
C488 C489 1.373 . S
C488 H501 0.929 . S
C489 C488 1.373 . S
C489 C490 1.396 . S
C489 C496 1.403 . S
C490 C480 1.476 . S
C490 N485 1.318 . S
C490 C489 1.396 . S
H491 C486 0.929 . S
O492 Mn468 2.385 . S
O492 C470 1.234 . S
O493 Mn468 2.209 . S
O493 Mn469 2.215 . S
O493 C470 1.283 . S
O494 Mn468 2.094 . S
O494 C472 1.240 . S
O495 Mn469 2.117 . S
O495 C472 1.264 . S
C496 C489 1.403 . S
C496 C497 1.399 . S
C496 H502 0.929 . S
C497 C477 1.449 . S
C497 C496 1.399 . S
C497 H503 0.930 . S
H498 C478 0.931 . S
H499 C479 0.930 . S
H500 C487 0.931 . S
H501 C488 0.929 . S
H502 C496 0.929 . S
H503 C497 0.930 . S
Mn504 O509 2.095 . S
Mn504 O519 2.130 1_565 S
Mn504 O520 2.297 . S
Mn504 O528 2.385 . S
Mn504 O529 2.209 . S
Mn504 O530 2.094 . S
Mn505 O510 2.121 . S
Mn505 N512 2.257 . S
Mn505 N521 2.282 . S
Mn505 O529 2.215 . S
Mn505 O531 2.117 . S
C506 O528 1.234 . S
C506 O529 1.283 . S
C507 O519 1.295 . S
C507 O520 1.236 1_545 S
C508 O530 1.240 . S
C508 O531 1.264 . S
O509 Mn504 2.095 . S
O509 C518 1.250 . S
O510 Mn505 2.121 . S
O510 C518 1.258 . S
C511 N512 1.326 . S
C511 C515 1.460 . S
C511 H517 0.929 . S
N512 Mn505 2.257 . S
N512 C511 1.326 . S
N512 C516 1.362 . S
C513 C514 1.258 . S
C513 C516 1.431 . S
C513 C533 1.449 . S
C514 C513 1.258 . S
C514 C515 1.477 . S
C514 H534 0.931 . S
C515 C511 1.460 . S
C515 C514 1.477 . S
C515 H535 0.930 . S
C516 N512 1.362 . S
C516 C513 1.431 . S
C516 C526 1.476 . S
H517 C511 0.929 . S
C518 O509 1.250 . S
C518 O510 1.258 . S
O519 Mn504 2.130 1_545 S
O519 C507 1.295 . S
O520 Mn504 2.297 . S
O520 C507 1.236 1_565 S
N521 Mn505 2.282 . S
N521 C522 1.328 . S
N521 C526 1.318 . S
C522 N521 1.328 . S
C522 C523 1.457 . S
C522 H527 0.929 . S
C523 C522 1.457 . S
C523 C524 1.291 . S
C523 H536 0.931 . S
C524 C523 1.291 . S
C524 C525 1.373 . S
C524 H537 0.929 . S
C525 C524 1.373 . S
C525 C526 1.396 . S
C525 C532 1.403 . S
C526 C516 1.476 . S
C526 N521 1.318 . S
C526 C525 1.396 . S
H527 C522 0.929 . S
O528 Mn504 2.385 . S
O528 C506 1.234 . S
O529 Mn504 2.209 . S
O529 Mn505 2.215 . S
O529 C506 1.283 . S
O530 Mn504 2.094 . S
O530 C508 1.240 . S
O531 Mn505 2.117 . S
O531 C508 1.264 . S
C532 C525 1.403 . S
C532 C533 1.399 . S
C532 H538 0.929 . S
C533 C513 1.449 . S
C533 C532 1.399 . S
C533 H539 0.930 . S
H534 C514 0.931 . S
H535 C515 0.930 . S
H536 C523 0.931 . S
H537 C524 0.929 . S
H538 C532 0.929 . S
H539 C533 0.930 . S
Mn540 O545 2.095 . S
Mn540 O555 2.130 1_655 S
Mn540 O556 2.297 . S
Mn540 O564 2.385 . S
Mn540 O565 2.209 . S
Mn540 O566 2.094 . S
Mn541 O546 2.121 . S
Mn541 N548 2.257 . S
Mn541 N557 2.282 . S
Mn541 O565 2.215 . S
Mn541 O567 2.117 . S
C542 O564 1.234 . S
C542 O565 1.283 . S
C543 O555 1.295 . S
C543 O556 1.236 1_455 S
C544 O566 1.240 . S
C544 O567 1.264 . S
O545 Mn540 2.095 . S
O545 C554 1.250 . S
O546 Mn541 2.121 . S
O546 C554 1.258 . S
C547 N548 1.326 . S
C547 C551 1.460 . S
C547 H553 0.929 . S
N548 Mn541 2.257 . S
N548 C547 1.326 . S
N548 C552 1.362 . S
C549 C550 1.258 . S
C549 C552 1.431 . S
C549 C569 1.449 . S
C550 C549 1.258 . S
C550 C551 1.477 . S
C550 H570 0.931 . S
C551 C547 1.460 . S
C551 C550 1.477 . S
C551 H571 0.930 . S
C552 N548 1.362 . S
C552 C549 1.431 . S
C552 C562 1.476 . S
H553 C547 0.929 . S
C554 O545 1.250 . S
C554 O546 1.258 . S
O555 Mn540 2.130 1_455 S
O555 C543 1.295 . S
O556 Mn540 2.297 . S
O556 C543 1.236 1_655 S
N557 Mn541 2.282 . S
N557 C558 1.328 . S
N557 C562 1.318 . S
C558 N557 1.328 . S
C558 C559 1.457 . S
C558 H563 0.929 . S
C559 C558 1.457 . S
C559 C560 1.291 . S
C559 H572 0.931 . S
C560 C559 1.291 . S
C560 C561 1.373 . S
C560 H573 0.929 . S
C561 C560 1.373 . S
C561 C562 1.396 . S
C561 C568 1.403 . S
C562 C552 1.476 . S
C562 N557 1.318 . S
C562 C561 1.396 . S
H563 C558 0.929 . S
O564 Mn540 2.385 . S
O564 C542 1.234 . S
O565 Mn540 2.209 . S
O565 Mn541 2.215 . S
O565 C542 1.283 . S
O566 Mn540 2.094 . S
O566 C544 1.240 . S
O567 Mn541 2.117 . S
O567 C544 1.264 . S
C568 C561 1.403 . S
C568 C569 1.399 . S
C568 H574 0.929 . S
C569 C549 1.449 . S
C569 C568 1.399 . S
C569 H575 0.930 . S
H570 C550 0.931 . S
H571 C551 0.930 . S
H572 C559 0.931 . S
H573 C560 0.929 . S
H574 C568 0.929 . S
H575 C569 0.930 . S
H576 C588 0.930 . S
H577 C590 0.930 . S
H578 C591 0.930 . S
H579 C595 0.959 . S
H580 C595 0.959 . S
H581 C595 0.961 . S
H582 C596 0.960 . S
H583 C596 0.961 . S
H584 C596 0.959 . S
H585 C599 0.929 . S
H586 C600 0.931 . S
H587 C602 0.930 . S
C588 H576 0.930 . S
C588 C589 1.399 . S
C588 C593 1.399 . S
C589 C588 1.399 . S
C589 C590 1.376 . S
C590 H577 0.930 . S
C590 C589 1.376 . S
C590 C591 1.388 . S
C591 H578 0.930 . S
C591 C590 1.388 . S
C591 C592 1.390 . S
C592 C591 1.390 . S
C592 C593 1.394 . S
C592 C598 1.465 . S
C593 C588 1.399 . S
C593 C592 1.394 . S
C593 C594 1.516 . S
C594 C593 1.516 . S
C594 C595 1.502 . S
C594 C596 1.561 . S
C594 C597 1.526 . S
C595 H579 0.959 . S
C595 H580 0.959 . S
C595 H581 0.961 . S
C595 C594 1.502 . S
C596 H582 0.960 . S
C596 H583 0.961 . S
C596 H584 0.959 . S
C596 C594 1.561 . S
C597 C594 1.526 . S
C597 C598 1.396 . S
C597 C602 1.390 . S
C598 C592 1.465 . S
C598 C597 1.396 . S
C598 C599 1.399 . S
C599 H585 0.929 . S
C599 C598 1.399 . S
C599 C600 1.385 . S
C600 H586 0.931 . S
C600 C599 1.385 . S
C600 C601 1.389 . S
C601 C600 1.389 . S
C601 C602 1.387 . S
C602 H587 0.930 . S
C602 C597 1.390 . S
C602 C601 1.387 . S
H603 C615 0.930 . S
H604 C617 0.930 . S
H605 C618 0.930 . S
H606 C622 0.959 . S
H607 C622 0.959 . S
H608 C622 0.961 . S
H609 C623 0.960 . S
H610 C623 0.961 . S
H611 C623 0.959 . S
H612 C626 0.929 . S
H613 C627 0.931 . S
H614 C629 0.930 . S
C615 H603 0.930 . S
C615 C616 1.399 . S
C615 C620 1.399 . S
C616 C615 1.399 . S
C616 C617 1.376 . S
C617 H604 0.930 . S
C617 C616 1.376 . S
C617 C618 1.388 . S
C618 H605 0.930 . S
C618 C617 1.388 . S
C618 C619 1.390 . S
C619 C618 1.390 . S
C619 C620 1.394 . S
C619 C625 1.465 . S
C620 C615 1.399 . S
C620 C619 1.394 . S
C620 C621 1.516 . S
C621 C620 1.516 . S
C621 C622 1.502 . S
C621 C623 1.561 . S
C621 C624 1.526 . S
C622 H606 0.959 . S
C622 H607 0.959 . S
C622 H608 0.961 . S
C622 C621 1.502 . S
C623 H609 0.960 . S
C623 H610 0.961 . S
C623 H611 0.959 . S
C623 C621 1.561 . S
C624 C621 1.526 . S
C624 C625 1.396 . S
C624 C629 1.390 . S
C625 C619 1.465 . S
C625 C624 1.396 . S
C625 C626 1.399 . S
C626 H612 0.929 . S
C626 C625 1.399 . S
C626 C627 1.385 . S
C627 H613 0.931 . S
C627 C626 1.385 . S
C627 C628 1.389 . S
C628 C627 1.389 . S
C628 C629 1.387 . S
C629 H614 0.930 . S
C629 C624 1.390 . S
C629 C628 1.387 . S
H630 C642 0.930 . S
H631 C644 0.930 . S
H632 C645 0.930 . S
H633 C649 0.959 . S
H634 C649 0.959 . S
H635 C649 0.961 . S
H636 C650 0.960 . S
H637 C650 0.961 . S
H638 C650 0.959 . S
H639 C653 0.929 . S
H640 C654 0.931 . S
H641 C656 0.930 . S
C642 H630 0.930 . S
C642 C643 1.399 . S
C642 C647 1.399 . S
C643 C642 1.399 . S
C643 C644 1.376 . S
C644 H631 0.930 . S
C644 C643 1.376 . S
C644 C645 1.388 . S
C645 H632 0.930 . S
C645 C644 1.388 . S
C645 C646 1.390 . S
C646 C645 1.390 . S
C646 C647 1.394 . S
C646 C652 1.465 . S
C647 C642 1.399 . S
C647 C646 1.394 . S
C647 C648 1.516 . S
C648 C647 1.516 . S
C648 C649 1.502 . S
C648 C650 1.561 . S
C648 C651 1.526 . S
C649 H633 0.959 . S
C649 H634 0.959 . S
C649 H635 0.961 . S
C649 C648 1.502 . S
C650 H636 0.960 . S
C650 H637 0.961 . S
C650 H638 0.959 . S
C650 C648 1.561 . S
C651 C648 1.526 . S
C651 C652 1.396 . S
C651 C656 1.390 . S
C652 C646 1.465 . S
C652 C651 1.396 . S
C652 C653 1.399 . S
C653 H639 0.929 . S
C653 C652 1.399 . S
C653 C654 1.385 . S
C654 H640 0.931 . S
C654 C653 1.385 . S
C654 C655 1.389 . S
C655 C654 1.389 . S
C655 C656 1.387 . S
C656 H641 0.930 . S
C656 C651 1.390 . S
C656 C655 1.387 . S
H657 C669 0.930 . S
H658 C671 0.930 . S
H659 C672 0.930 . S
H660 C676 0.959 . S
H661 C676 0.959 . S
H662 C676 0.961 . S
H663 C677 0.960 . S
H664 C677 0.961 . S
H665 C677 0.959 . S
H666 C680 0.929 . S
H667 C681 0.931 . S
H668 C683 0.930 . S
C669 H657 0.930 . S
C669 C670 1.399 . S
C669 C674 1.399 . S
C670 C669 1.399 . S
C670 C671 1.376 . S
C671 H658 0.930 . S
C671 C670 1.376 . S
C671 C672 1.388 . S
C672 H659 0.930 . S
C672 C671 1.388 . S
C672 C673 1.390 . S
C673 C672 1.390 . S
C673 C674 1.394 . S
C673 C679 1.465 . S
C674 C669 1.399 . S
C674 C673 1.394 . S
C674 C675 1.516 . S
C675 C674 1.516 . S
C675 C676 1.502 . S
C675 C677 1.561 . S
C675 C678 1.526 . S
C676 H660 0.959 . S
C676 H661 0.959 . S
C676 H662 0.961 . S
C676 C675 1.502 . S
C677 H663 0.960 . S
C677 H664 0.961 . S
C677 H665 0.959 . S
C677 C675 1.561 . S
C678 C675 1.526 . S
C678 C679 1.396 . S
C678 C683 1.390 . S
C679 C673 1.465 . S
C679 C678 1.396 . S
C679 C680 1.399 . S
C680 H666 0.929 . S
C680 C679 1.399 . S
C680 C681 1.385 . S
C681 H667 0.931 . S
C681 C680 1.385 . S
C681 C682 1.389 . S
C682 C681 1.389 . S
C682 C683 1.387 . S
C683 H668 0.930 . S
C683 C678 1.390 . S
C683 C682 1.387 . S
H684 C696 0.930 . S
H685 C698 0.930 . S
H686 C699 0.930 . S
H687 C703 0.959 . S
H688 C703 0.959 . S
H689 C703 0.961 . S
H690 C704 0.960 . S
H691 C704 0.961 . S
H692 C704 0.959 . S
H693 C707 0.929 . S
H694 C708 0.931 . S
H695 C710 0.930 . S
C696 H684 0.930 . S
C696 C697 1.399 . S
C696 C701 1.399 . S
C697 C696 1.399 . S
C697 C698 1.376 . S
C698 H685 0.930 . S
C698 C697 1.376 . S
C698 C699 1.388 . S
C699 H686 0.930 . S
C699 C698 1.388 . S
C699 C700 1.390 . S
C700 C699 1.390 . S
C700 C701 1.394 . S
C700 C706 1.465 . S
C701 C696 1.399 . S
C701 C700 1.394 . S
C701 C702 1.516 . S
C702 C701 1.516 . S
C702 C703 1.502 . S
C702 C704 1.561 . S
C702 C705 1.526 . S
C703 H687 0.959 . S
C703 H688 0.959 . S
C703 H689 0.961 . S
C703 C702 1.502 . S
C704 H690 0.960 . S
C704 H691 0.961 . S
C704 H692 0.959 . S
C704 C702 1.561 . S
C705 C702 1.526 . S
C705 C706 1.396 . S
C705 C710 1.390 . S
C706 C700 1.465 . S
C706 C705 1.396 . S
C706 C707 1.399 . S
C707 H693 0.929 . S
C707 C706 1.399 . S
C707 C708 1.385 . S
C708 H694 0.931 . S
C708 C707 1.385 . S
C708 C709 1.389 . S
C709 C708 1.389 . S
C709 C710 1.387 . S
C710 H695 0.930 . S
C710 C705 1.390 . S
C710 C709 1.387 . S
H711 C723 0.930 . S
H712 C725 0.930 . S
H713 C726 0.930 . S
H714 C730 0.959 . S
H715 C730 0.959 . S
H716 C730 0.961 . S
H717 C731 0.960 . S
H718 C731 0.961 . S
H719 C731 0.959 . S
H720 C734 0.929 . S
H721 C735 0.931 . S
H722 C737 0.930 . S
C723 H711 0.930 . S
C723 C724 1.399 . S
C723 C728 1.399 . S
C724 C723 1.399 . S
C724 C725 1.376 . S
C725 H712 0.930 . S
C725 C724 1.376 . S
C725 C726 1.388 . S
C726 H713 0.930 . S
C726 C725 1.388 . S
C726 C727 1.390 . S
C727 C726 1.390 . S
C727 C728 1.394 . S
C727 C733 1.465 . S
C728 C723 1.399 . S
C728 C727 1.394 . S
C728 C729 1.516 . S
C729 C728 1.516 . S
C729 C730 1.502 . S
C729 C731 1.561 . S
C729 C732 1.526 . S
C730 H714 0.959 . S
C730 H715 0.959 . S
C730 H716 0.961 . S
C730 C729 1.502 . S
C731 H717 0.960 . S
C731 H718 0.961 . S
C731 H719 0.959 . S
C731 C729 1.561 . S
C732 C729 1.526 . S
C732 C733 1.396 . S
C732 C737 1.390 . S
C733 C727 1.465 . S
C733 C732 1.396 . S
C733 C734 1.399 . S
C734 H720 0.929 . S
C734 C733 1.399 . S
C734 C735 1.385 . S
C735 H721 0.931 . S
C735 C734 1.385 . S
C735 C736 1.389 . S
C736 C735 1.389 . S
C736 C737 1.387 . S
C737 H722 0.930 . S
C737 C732 1.390 . S
C737 C736 1.387 . S
H738 C750 0.930 . S
H739 C752 0.930 . S
H740 C753 0.930 . S
H741 C757 0.959 . S
H742 C757 0.959 . S
H743 C757 0.961 . S
H744 C758 0.960 . S
H745 C758 0.961 . S
H746 C758 0.959 . S
H747 C761 0.929 . S
H748 C762 0.931 . S
H749 C764 0.930 . S
C750 H738 0.930 . S
C750 C751 1.399 . S
C750 C755 1.399 . S
C751 C750 1.399 . S
C751 C752 1.376 . S
C752 H739 0.930 . S
C752 C751 1.376 . S
C752 C753 1.388 . S
C753 H740 0.930 . S
C753 C752 1.388 . S
C753 C754 1.390 . S
C754 C753 1.390 . S
C754 C755 1.394 . S
C754 C760 1.465 . S
C755 C750 1.399 . S
C755 C754 1.394 . S
C755 C756 1.516 . S
C756 C755 1.516 . S
C756 C757 1.502 . S
C756 C758 1.561 . S
C756 C759 1.526 . S
C757 H741 0.959 . S
C757 H742 0.959 . S
C757 H743 0.961 . S
C757 C756 1.502 . S
C758 H744 0.960 . S
C758 H745 0.961 . S
C758 H746 0.959 . S
C758 C756 1.561 . S
C759 C756 1.526 . S
C759 C760 1.396 . S
C759 C764 1.390 . S
C760 C754 1.465 . S
C760 C759 1.396 . S
C760 C761 1.399 . S
C761 H747 0.929 . S
C761 C760 1.399 . S
C761 C762 1.385 . S
C762 H748 0.931 . S
C762 C761 1.385 . S
C762 C763 1.389 . S
C763 C762 1.389 . S
C763 C764 1.387 . S
C764 H749 0.930 . S
C764 C759 1.390 . S
C764 C763 1.387 . S
H765 C777 0.930 . S
H766 C779 0.930 . S
H767 C780 0.930 . S
H768 C784 0.959 . S
H769 C784 0.959 . S
H770 C784 0.961 . S
H771 C785 0.960 . S
H772 C785 0.961 . S
H773 C785 0.959 . S
H774 C788 0.929 . S
H775 C789 0.931 . S
H776 C791 0.930 . S
C777 H765 0.930 . S
C777 C778 1.399 . S
C777 C782 1.399 . S
C778 C777 1.399 . S
C778 C779 1.376 . S
C779 H766 0.930 . S
C779 C778 1.376 . S
C779 C780 1.388 . S
C780 H767 0.930 . S
C780 C779 1.388 . S
C780 C781 1.390 . S
C781 C780 1.390 . S
C781 C782 1.394 . S
C781 C787 1.465 . S
C782 C777 1.399 . S
C782 C781 1.394 . S
C782 C783 1.516 . S
C783 C782 1.516 . S
C783 C784 1.502 . S
C783 C785 1.561 . S
C783 C786 1.526 . S
C784 H768 0.959 . S
C784 H769 0.959 . S
C784 H770 0.961 . S
C784 C783 1.502 . S
C785 H771 0.960 . S
C785 H772 0.961 . S
C785 H773 0.959 . S
C785 C783 1.561 . S
C786 C783 1.526 . S
C786 C787 1.396 . S
C786 C791 1.390 . S
C787 C781 1.465 . S
C787 C786 1.396 . S
C787 C788 1.399 . S
C788 H774 0.929 . S
C788 C787 1.399 . S
C788 C789 1.385 . S
C789 H775 0.931 . S
C789 C788 1.385 . S
C789 C790 1.389 . S
C790 C789 1.389 . S
C790 C791 1.387 . S
C791 H776 0.930 . S
C791 C786 1.390 . S
C791 C790 1.387 . S
H792 C804 0.930 . S
H793 C806 0.930 . S
H794 C807 0.930 . S
H795 C811 0.959 . S
H796 C811 0.959 . S
H797 C811 0.961 . S
H798 C812 0.960 . S
H799 C812 0.961 . S
H800 C812 0.959 . S
H801 C815 0.929 . S
H802 C816 0.931 . S
H803 C818 0.930 . S
C804 H792 0.930 . S
C804 C805 1.399 . S
C804 C809 1.399 . S
C805 C804 1.399 . S
C805 C806 1.376 . S
C806 H793 0.930 . S
C806 C805 1.376 . S
C806 C807 1.388 . S
C807 H794 0.930 . S
C807 C806 1.388 . S
C807 C808 1.390 . S
C808 C807 1.390 . S
C808 C809 1.394 . S
C808 C814 1.465 . S
C809 C804 1.399 . S
C809 C808 1.394 . S
C809 C810 1.516 . S
C810 C809 1.516 . S
C810 C811 1.502 . S
C810 C812 1.561 . S
C810 C813 1.526 . S
C811 H795 0.959 . S
C811 H796 0.959 . S
C811 H797 0.961 . S
C811 C810 1.502 . S
C812 H798 0.960 . S
C812 H799 0.961 . S
C812 H800 0.959 . S
C812 C810 1.561 . S
C813 C810 1.526 . S
C813 C814 1.396 . S
C813 C818 1.390 . S
C814 C808 1.465 . S
C814 C813 1.396 . S
C814 C815 1.399 . S
C815 H801 0.929 . S
C815 C814 1.399 . S
C815 C816 1.385 . S
C816 H802 0.931 . S
C816 C815 1.385 . S
C816 C817 1.389 . S
C817 C816 1.389 . S
C817 C818 1.387 . S
C818 H803 0.930 . S
C818 C813 1.390 . S
C818 C817 1.387 . S
H819 C831 0.930 . S
H820 C833 0.930 . S
H821 C834 0.930 . S
H822 C838 0.959 . S
H823 C838 0.959 . S
H824 C838 0.961 . S
H825 C839 0.960 . S
H826 C839 0.961 . S
H827 C839 0.959 . S
H828 C842 0.929 . S
H829 C843 0.931 . S
H830 C845 0.930 . S
C831 H819 0.930 . S
C831 C832 1.399 . S
C831 C836 1.399 . S
C832 C831 1.399 . S
C832 C833 1.376 . S
C833 H820 0.930 . S
C833 C832 1.376 . S
C833 C834 1.388 . S
C834 H821 0.930 . S
C834 C833 1.388 . S
C834 C835 1.390 . S
C835 C834 1.390 . S
C835 C836 1.394 . S
C835 C841 1.465 . S
C836 C831 1.399 . S
C836 C835 1.394 . S
C836 C837 1.516 . S
C837 C836 1.516 . S
C837 C838 1.502 . S
C837 C839 1.561 . S
C837 C840 1.526 . S
C838 H822 0.959 . S
C838 H823 0.959 . S
C838 H824 0.961 . S
C838 C837 1.502 . S
C839 H825 0.960 . S
C839 H826 0.961 . S
C839 H827 0.959 . S
C839 C837 1.561 . S
C840 C837 1.526 . S
C840 C841 1.396 . S
C840 C845 1.390 . S
C841 C835 1.465 . S
C841 C840 1.396 . S
C841 C842 1.399 . S
C842 H828 0.929 . S
C842 C841 1.399 . S
C842 C843 1.385 . S
C843 H829 0.931 . S
C843 C842 1.385 . S
C843 C844 1.389 . S
C844 C843 1.389 . S
C844 C845 1.387 . S
C845 H830 0.930 . S
C845 C840 1.390 . S
C845 C844 1.387 . S
H846 C858 0.930 . S
H847 C860 0.930 . S
H848 C861 0.930 . S
H849 C865 0.959 . S
H850 C865 0.959 . S
H851 C865 0.961 . S
H852 C866 0.960 . S
H853 C866 0.961 . S
H854 C866 0.959 . S
H855 C869 0.929 . S
H856 C870 0.931 . S
H857 C872 0.930 . S
C858 H846 0.930 . S
C858 C859 1.399 . S
C858 C863 1.399 . S
C859 C858 1.399 . S
C859 C860 1.376 . S
C860 H847 0.930 . S
C860 C859 1.376 . S
C860 C861 1.388 . S
C861 H848 0.930 . S
C861 C860 1.388 . S
C861 C862 1.390 . S
C862 C861 1.390 . S
C862 C863 1.394 . S
C862 C868 1.465 . S
C863 C858 1.399 . S
C863 C862 1.394 . S
C863 C864 1.516 . S
C864 C863 1.516 . S
C864 C865 1.502 . S
C864 C866 1.561 . S
C864 C867 1.526 . S
C865 H849 0.959 . S
C865 H850 0.959 . S
C865 H851 0.961 . S
C865 C864 1.502 . S
C866 H852 0.960 . S
C866 H853 0.961 . S
C866 H854 0.959 . S
C866 C864 1.561 . S
C867 C864 1.526 . S
C867 C868 1.396 . S
C867 C872 1.390 . S
C868 C862 1.465 . S
C868 C867 1.396 . S
C868 C869 1.399 . S
C869 H855 0.929 . S
C869 C868 1.399 . S
C869 C870 1.385 . S
C870 H856 0.931 . S
C870 C869 1.385 . S
C870 C871 1.389 . S
C871 C870 1.389 . S
C871 C872 1.387 . S
C872 H857 0.930 . S
C872 C867 1.390 . S
C872 C871 1.387 . S
H873 C885 0.930 . S
H874 C887 0.930 . S
H875 C888 0.930 . S
H876 C892 0.959 . S
H877 C892 0.959 . S
H878 C892 0.961 . S
H879 C893 0.960 . S
H880 C893 0.961 . S
H881 C893 0.959 . S
H882 C896 0.929 . S
H883 C897 0.931 . S
H884 C899 0.930 . S
C885 H873 0.930 . S
C885 C886 1.399 . S
C885 C890 1.399 . S
C886 C885 1.399 . S
C886 C887 1.376 . S
C887 H874 0.930 . S
C887 C886 1.376 . S
C887 C888 1.388 . S
C888 H875 0.930 . S
C888 C887 1.388 . S
C888 C889 1.390 . S
C889 C888 1.390 . S
C889 C890 1.394 . S
C889 C895 1.465 . S
C890 C885 1.399 . S
C890 C889 1.394 . S
C890 C891 1.516 . S
C891 C890 1.516 . S
C891 C892 1.502 . S
C891 C893 1.561 . S
C891 C894 1.526 . S
C892 H876 0.959 . S
C892 H877 0.959 . S
C892 H878 0.961 . S
C892 C891 1.502 . S
C893 H879 0.960 . S
C893 H880 0.961 . S
C893 H881 0.959 . S
C893 C891 1.561 . S
C894 C891 1.526 . S
C894 C895 1.396 . S
C894 C899 1.390 . S
C895 C889 1.465 . S
C895 C894 1.396 . S
C895 C896 1.399 . S
C896 H882 0.929 . S
C896 C895 1.399 . S
C896 C897 1.385 . S
C897 H883 0.931 . S
C897 C896 1.385 . S
C897 C898 1.389 . S
C898 C897 1.389 . S
C898 C899 1.387 . S
C899 H884 0.930 . S
C899 C894 1.390 . S
C899 C898 1.387 . S
H900 C912 0.930 . S
H901 C914 0.930 . S
H902 C915 0.930 . S
H903 C919 0.959 . S
H904 C919 0.959 . S
H905 C919 0.961 . S
H906 C920 0.960 . S
H907 C920 0.961 . S
H908 C920 0.959 . S
H909 C923 0.929 . S
H910 C924 0.931 . S
H911 C926 0.930 . S
C912 H900 0.930 . S
C912 C913 1.399 . S
C912 C917 1.399 . S
C913 C912 1.399 . S
C913 C914 1.376 . S
C914 H901 0.930 . S
C914 C913 1.376 . S
C914 C915 1.388 . S
C915 H902 0.930 . S
C915 C914 1.388 . S
C915 C916 1.390 . S
C916 C915 1.390 . S
C916 C917 1.394 . S
C916 C922 1.465 . S
C917 C912 1.399 . S
C917 C916 1.394 . S
C917 C918 1.516 . S
C918 C917 1.516 . S
C918 C919 1.502 . S
C918 C920 1.561 . S
C918 C921 1.526 . S
C919 H903 0.959 . S
C919 H904 0.959 . S
C919 H905 0.961 . S
C919 C918 1.502 . S
C920 H906 0.960 . S
C920 H907 0.961 . S
C920 H908 0.959 . S
C920 C918 1.561 . S
C921 C918 1.526 . S
C921 C922 1.396 . S
C921 C926 1.390 . S
C922 C916 1.465 . S
C922 C921 1.396 . S
C922 C923 1.399 . S
C923 H909 0.929 . S
C923 C922 1.399 . S
C923 C924 1.385 . S
C924 H910 0.931 . S
C924 C923 1.385 . S
C924 C925 1.389 . S
C925 C924 1.389 . S
C925 C926 1.387 . S
C926 H911 0.930 . S
C926 C921 1.390 . S
C926 C925 1.387 . S
H927 C939 0.930 . S
H928 C941 0.930 . S
H929 C942 0.930 . S
H930 C946 0.959 . S
H931 C946 0.959 . S
H932 C946 0.961 . S
H933 C947 0.960 . S
H934 C947 0.961 . S
H935 C947 0.959 . S
H936 C950 0.929 . S
H937 C951 0.931 . S
H938 C953 0.930 . S
C939 H927 0.930 . S
C939 C940 1.399 . S
C939 C944 1.399 . S
C940 C939 1.399 . S
C940 C941 1.376 . S
C941 H928 0.930 . S
C941 C940 1.376 . S
C941 C942 1.388 . S
C942 H929 0.930 . S
C942 C941 1.388 . S
C942 C943 1.390 . S
C943 C942 1.390 . S
C943 C944 1.394 . S
C943 C949 1.465 . S
C944 C939 1.399 . S
C944 C943 1.394 . S
C944 C945 1.516 . S
C945 C944 1.516 . S
C945 C946 1.502 . S
C945 C947 1.561 . S
C945 C948 1.526 . S
C946 H930 0.959 . S
C946 H931 0.959 . S
C946 H932 0.961 . S
C946 C945 1.502 . S
C947 H933 0.960 . S
C947 H934 0.961 . S
C947 H935 0.959 . S
C947 C945 1.561 . S
C948 C945 1.526 . S
C948 C949 1.396 . S
C948 C953 1.390 . S
C949 C943 1.465 . S
C949 C948 1.396 . S
C949 C950 1.399 . S
C950 H936 0.929 . S
C950 C949 1.399 . S
C950 C951 1.385 . S
C951 H937 0.931 . S
C951 C950 1.385 . S
C951 C952 1.389 . S
C952 C951 1.389 . S
C952 C953 1.387 . S
C953 H938 0.930 . S
C953 C948 1.390 . S
C953 C952 1.387 . S
H954 C966 0.930 . S
H955 C968 0.930 . S
H956 C969 0.930 . S
H957 C973 0.959 . S
H958 C973 0.959 . S
H959 C973 0.961 . S
H960 C974 0.960 . S
H961 C974 0.961 . S
H962 C974 0.959 . S
H963 C977 0.929 . S
H964 C978 0.931 . S
H965 C980 0.930 . S
C966 H954 0.930 . S
C966 C967 1.399 . S
C966 C971 1.399 . S
C967 C966 1.399 . S
C967 C968 1.376 . S
C968 H955 0.930 . S
C968 C967 1.376 . S
C968 C969 1.388 . S
C969 H956 0.930 . S
C969 C968 1.388 . S
C969 C970 1.390 . S
C970 C969 1.390 . S
C970 C971 1.394 . S
C970 C976 1.465 . S
C971 C966 1.399 . S
C971 C970 1.394 . S
C971 C972 1.516 . S
C972 C971 1.516 . S
C972 C973 1.502 . S
C972 C974 1.561 . S
C972 C975 1.526 . S
C973 H957 0.959 . S
C973 H958 0.959 . S
C973 H959 0.961 . S
C973 C972 1.502 . S
C974 H960 0.960 . S
C974 H961 0.961 . S
C974 H962 0.959 . S
C974 C972 1.561 . S
C975 C972 1.526 . S
C975 C976 1.396 . S
C975 C980 1.390 . S
C976 C970 1.465 . S
C976 C975 1.396 . S
C976 C977 1.399 . S
C977 H963 0.929 . S
C977 C976 1.399 . S
C977 C978 1.385 . S
C978 H964 0.931 . S
C978 C977 1.385 . S
C978 C979 1.389 . S
C979 C978 1.389 . S
C979 C980 1.387 . S
C980 H965 0.930 . S
C980 C975 1.390 . S
C980 C979 1.387 . S
H981 C993 0.930 . S
H982 C995 0.930 . S
H983 C996 0.930 . S
H984 C1000 0.959 . S
H985 C1000 0.959 . S
H986 C1000 0.961 . S
H987 C1001 0.960 . S
H988 C1001 0.961 . S
H989 C1001 0.959 . S
H990 C1004 0.929 . S
H991 C1005 0.931 . S
H992 C1007 0.930 . S
C993 H981 0.930 . S
C993 C994 1.399 . S
C993 C998 1.399 . S
C994 C993 1.399 . S
C994 C995 1.376 . S
C995 H982 0.930 . S
C995 C994 1.376 . S
C995 C996 1.388 . S
C996 H983 0.930 . S
C996 C995 1.388 . S
C996 C997 1.390 . S
C997 C996 1.390 . S
C997 C998 1.394 . S
C997 C1003 1.465 . S
C998 C993 1.399 . S
C998 C997 1.394 . S
C998 C999 1.516 . S
C999 C998 1.516 . S
C999 C1000 1.502 . S
C999 C1001 1.561 . S
C999 C1002 1.526 . S
C1000 H984 0.959 . S
C1000 H985 0.959 . S
C1000 H986 0.961 . S
C1000 C999 1.502 . S
C1001 H987 0.960 . S
C1001 H988 0.961 . S
C1001 H989 0.959 . S
C1001 C999 1.561 . S
C1002 C999 1.526 . S
C1002 C1003 1.396 . S
C1002 C1007 1.390 . S
C1003 C997 1.465 . S
C1003 C1002 1.396 . S
C1003 C1004 1.399 . S
C1004 H990 0.929 . S
C1004 C1003 1.399 . S
C1004 C1005 1.385 . S
C1005 H991 0.931 . S
C1005 C1004 1.385 . S
C1005 C1006 1.389 . S
C1006 C1005 1.389 . S
C1006 C1007 1.387 . S
C1007 H992 0.930 . S
C1007 C1002 1.390 . S
C1007 C1006 1.387 . S
H1008 C1020 0.930 . S
H1009 C1022 0.930 . S
H1010 C1023 0.930 . S
H1011 C1027 0.959 . S
H1012 C1027 0.959 . S
H1013 C1027 0.961 . S
H1014 C1028 0.960 . S
H1015 C1028 0.961 . S
H1016 C1028 0.959 . S
H1017 C1031 0.929 . S
H1018 C1032 0.931 . S
H1019 C1034 0.930 . S
C1020 H1008 0.930 . S
C1020 C1021 1.399 . S
C1020 C1025 1.399 . S
C1021 C1020 1.399 . S
C1021 C1022 1.376 . S
C1022 H1009 0.930 . S
C1022 C1021 1.376 . S
C1022 C1023 1.388 . S
C1023 H1010 0.930 . S
C1023 C1022 1.388 . S
C1023 C1024 1.390 . S
C1024 C1023 1.390 . S
C1024 C1025 1.394 . S
C1024 C1030 1.465 . S
C1025 C1020 1.399 . S
C1025 C1024 1.394 . S
C1025 C1026 1.516 . S
C1026 C1025 1.516 . S
C1026 C1027 1.502 . S
C1026 C1028 1.561 . S
C1026 C1029 1.526 . S
C1027 H1011 0.959 . S
C1027 H1012 0.959 . S
C1027 H1013 0.961 . S
C1027 C1026 1.502 . S
C1028 H1014 0.960 . S
C1028 H1015 0.961 . S
C1028 H1016 0.959 . S
C1028 C1026 1.561 . S
C1029 C1026 1.526 . S
C1029 C1030 1.396 . S
C1029 C1034 1.390 . S
C1030 C1024 1.465 . S
C1030 C1029 1.396 . S
C1030 C1031 1.399 . S
C1031 H1017 0.929 . S
C1031 C1030 1.399 . S
C1031 C1032 1.385 . S
C1032 H1018 0.931 . S
C1032 C1031 1.385 . S
C1032 C1033 1.389 . S
C1033 C1032 1.389 . S
C1033 C1034 1.387 . S
C1034 H1019 0.930 . S
C1034 C1029 1.390 . S
C1034 C1033 1.387 . S
H1035 C1047 0.930 . S
H1036 C1049 0.930 . S
H1037 C1050 0.930 . S
H1038 C1054 0.959 . S
H1039 C1054 0.959 . S
H1040 C1054 0.961 . S
H1041 C1055 0.960 . S
H1042 C1055 0.961 . S
H1043 C1055 0.959 . S
H1044 C1058 0.929 . S
H1045 C1059 0.931 . S
H1046 C1061 0.930 . S
C1047 H1035 0.930 . S
C1047 C1048 1.399 . S
C1047 C1052 1.399 . S
C1048 C1047 1.399 . S
C1048 C1049 1.376 . S
C1049 H1036 0.930 . S
C1049 C1048 1.376 . S
C1049 C1050 1.388 . S
C1050 H1037 0.930 . S
C1050 C1049 1.388 . S
C1050 C1051 1.390 . S
C1051 C1050 1.390 . S
C1051 C1052 1.394 . S
C1051 C1057 1.465 . S
C1052 C1047 1.399 . S
C1052 C1051 1.394 . S
C1052 C1053 1.516 . S
C1053 C1052 1.516 . S
C1053 C1054 1.502 . S
C1053 C1055 1.561 . S
C1053 C1056 1.526 . S
C1054 H1038 0.959 . S
C1054 H1039 0.959 . S
C1054 H1040 0.961 . S
C1054 C1053 1.502 . S
C1055 H1041 0.960 . S
C1055 H1042 0.961 . S
C1055 H1043 0.959 . S
C1055 C1053 1.561 . S
C1056 C1053 1.526 . S
C1056 C1057 1.396 . S
C1056 C1061 1.390 . S
C1057 C1051 1.465 . S
C1057 C1056 1.396 . S
C1057 C1058 1.399 . S
C1058 H1044 0.929 . S
C1058 C1057 1.399 . S
C1058 C1059 1.385 . S
C1059 H1045 0.931 . S
C1059 C1058 1.385 . S
C1059 C1060 1.389 . S
C1060 C1059 1.389 . S
C1060 C1061 1.387 . S
C1061 H1046 0.930 . S
C1061 C1056 1.390 . S
C1061 C1060 1.387 . S
H1062 C1074 0.930 . S
H1063 C1076 0.952 . S
H1064 C1077 0.930 . S
H1065 C1081 0.959 . S
H1066 C1081 0.959 . S
H1067 C1081 0.961 . S
H1068 C1082 0.960 . S
H1069 C1082 0.961 . S
H1070 C1082 0.959 . S
H1071 C1085 0.929 . S
H1072 C1086 0.931 . S
H1073 C1088 0.930 . S
C1074 H1062 0.930 . S
C1074 C1075 1.399 . S
C1074 C1079 1.399 . S
C1075 C1074 1.399 . S
C1075 C1076 1.376 . S
C1076 H1063 0.952 . S
C1076 C1075 1.376 . S
C1076 C1077 1.388 . S
C1077 H1064 0.930 . S
C1077 C1076 1.388 . S
C1077 C1078 1.390 . S
C1078 C1077 1.390 . S
C1078 C1079 1.394 . S
C1078 C1084 1.465 . S
C1079 C1074 1.399 . S
C1079 C1078 1.394 . S
C1079 C1080 1.516 . S
C1080 C1079 1.516 . S
C1080 C1081 1.502 . S
C1080 C1082 1.561 . S
C1080 C1083 1.526 . S
C1081 H1065 0.959 . S
C1081 H1066 0.959 . S
C1081 H1067 0.961 . S
C1081 C1080 1.502 . S
C1082 H1068 0.960 . S
C1082 H1069 0.961 . S
C1082 H1070 0.959 . S
C1082 C1080 1.561 . S
C1083 C1080 1.526 . S
C1083 C1084 1.396 . S
C1083 C1088 1.390 . S
C1084 C1078 1.465 . S
C1084 C1083 1.396 . S
C1084 C1085 1.399 . S
C1085 H1071 0.929 . S
C1085 C1084 1.399 . S
C1085 C1086 1.385 . S
C1086 H1072 0.931 . S
C1086 C1085 1.385 . S
C1086 C1087 1.389 . S
C1087 C1086 1.389 . S
C1087 C1088 1.387 . S
C1088 H1073 0.930 . S
C1088 C1083 1.390 . S
C1088 C1087 1.387 . S
H1089 C1101 0.930 . S
H1090 C1103 0.930 . S
H1091 C1104 0.930 . S
H1092 C1108 0.959 . S
H1093 C1108 0.959 . S
H1094 C1108 0.961 . S
H1095 C1109 0.960 . S
H1096 C1109 0.961 . S
H1097 C1109 0.959 . S
H1098 C1112 0.929 . S
H1099 C1113 0.931 . S
H1100 C1115 0.930 . S
C1101 H1089 0.930 . S
C1101 C1102 1.399 . S
C1101 C1106 1.399 . S
C1102 C1101 1.399 . S
C1102 C1103 1.376 . S
C1103 H1090 0.930 . S
C1103 C1102 1.376 . S
C1103 C1104 1.388 . S
C1104 H1091 0.930 . S
C1104 C1103 1.388 . S
C1104 C1105 1.390 . S
C1105 C1104 1.390 . S
C1105 C1106 1.394 . S
C1105 C1111 1.465 . S
C1106 C1101 1.399 . S
C1106 C1105 1.394 . S
C1106 C1107 1.516 . S
C1107 C1106 1.516 . S
C1107 C1108 1.502 . S
C1107 C1109 1.561 . S
C1107 C1110 1.526 . S
C1108 H1092 0.959 . S
C1108 H1093 0.959 . S
C1108 H1094 0.961 . S
C1108 C1107 1.502 . S
C1109 H1095 0.960 . S
C1109 H1096 0.961 . S
C1109 H1097 0.959 . S
C1109 C1107 1.561 . S
C1110 C1107 1.526 . S
C1110 C1111 1.396 . S
C1110 C1115 1.390 . S
C1111 C1105 1.465 . S
C1111 C1110 1.396 . S
C1111 C1112 1.399 . S
C1112 H1098 0.929 . S
C1112 C1111 1.399 . S
C1112 C1113 1.385 . S
C1113 H1099 0.931 . S
C1113 C1112 1.385 . S
C1113 C1114 1.389 . S
C1114 C1113 1.389 . S
C1114 C1115 1.387 . S
C1115 H1100 0.930 . S
C1115 C1110 1.390 . S
C1115 C1114 1.387 . S
H1116 C1128 0.930 . S
H1117 C1130 0.930 . S
H1118 C1131 0.930 . S
H1119 C1135 0.959 . S
H1120 C1135 0.959 . S
H1121 C1135 0.961 . S
H1122 C1136 0.960 . S
H1123 C1136 0.961 . S
H1124 C1136 0.959 . S
H1125 C1139 0.929 . S
H1126 C1140 0.931 . S
H1127 C1142 0.930 . S
C1128 H1116 0.930 . S
C1128 C1129 1.399 . S
C1128 C1133 1.399 . S
C1129 C1128 1.399 . S
C1129 C1130 1.376 . S
C1130 H1117 0.930 . S
C1130 C1129 1.376 . S
C1130 C1131 1.388 . S
C1131 H1118 0.930 . S
C1131 C1130 1.388 . S
C1131 C1132 1.390 . S
C1132 C1131 1.390 . S
C1132 C1133 1.394 . S
C1132 C1138 1.465 . S
C1133 C1128 1.399 . S
C1133 C1132 1.394 . S
C1133 C1134 1.516 . S
C1134 C1133 1.516 . S
C1134 C1135 1.502 . S
C1134 C1136 1.561 . S
C1134 C1137 1.526 . S
C1135 H1119 0.959 . S
C1135 H1120 0.959 . S
C1135 H1121 0.961 . S
C1135 C1134 1.502 . S
C1136 H1122 0.960 . S
C1136 H1123 0.961 . S
C1136 H1124 0.959 . S
C1136 C1134 1.561 . S
C1137 C1134 1.526 . S
C1137 C1138 1.396 . S
C1137 C1142 1.390 . S
C1138 C1132 1.465 . S
C1138 C1137 1.396 . S
C1138 C1139 1.399 . S
C1139 H1125 0.929 . S
C1139 C1138 1.399 . S
C1139 C1140 1.385 . S
C1140 H1126 0.931 . S
C1140 C1139 1.385 . S
C1140 C1141 1.389 . S
C1141 C1140 1.389 . S
C1141 C1142 1.387 . S
C1142 H1127 0.930 . S
C1142 C1137 1.390 . S
C1142 C1141 1.387 . S
H1143 C1155 0.930 . S
H1144 C1157 0.930 . S
H1145 C1158 0.930 . S
H1146 C1162 0.959 . S
H1147 C1162 0.959 . S
H1148 C1162 0.961 . S
H1149 C1163 0.960 . S
H1150 C1163 0.961 . S
H1151 C1163 0.959 . S
H1152 C1166 0.929 . S
H1153 C1167 0.931 . S
H1154 C1169 0.930 . S
C1155 H1143 0.930 . S
C1155 C1156 1.399 . S
C1155 C1160 1.399 . S
C1156 C1155 1.399 . S
C1156 C1157 1.376 . S
C1157 H1144 0.930 . S
C1157 C1156 1.376 . S
C1157 C1158 1.388 . S
C1158 H1145 0.930 . S
C1158 C1157 1.388 . S
C1158 C1159 1.390 . S
C1159 C1158 1.390 . S
C1159 C1160 1.394 . S
C1159 C1165 1.465 . S
C1160 C1155 1.399 . S
C1160 C1159 1.394 . S
C1160 C1161 1.516 . S
C1161 C1160 1.516 . S
C1161 C1162 1.502 . S
C1161 C1163 1.561 . S
C1161 C1164 1.526 . S
C1162 H1146 0.959 . S
C1162 H1147 0.959 . S
C1162 H1148 0.961 . S
C1162 C1161 1.502 . S
C1163 H1149 0.960 . S
C1163 H1150 0.961 . S
C1163 H1151 0.959 . S
C1163 C1161 1.561 . S
C1164 C1161 1.526 . S
C1164 C1165 1.396 . S
C1164 C1169 1.390 . S
C1165 C1159 1.465 . S
C1165 C1164 1.396 . S
C1165 C1166 1.399 . S
C1166 H1152 0.929 . S
C1166 C1165 1.399 . S
C1166 C1167 1.385 . S
C1167 H1153 0.931 . S
C1167 C1166 1.385 . S
C1167 C1168 1.389 . S
C1168 C1167 1.389 . S
C1168 C1169 1.387 . S
C1169 H1154 0.930 . S
C1169 C1164 1.390 . S
C1169 C1168 1.387 . S
H1170 C1182 0.930 . S
H1171 C1184 0.930 . S
H1172 C1185 0.930 . S
H1173 C1189 0.959 . S
H1174 C1189 0.959 . S
H1175 C1189 0.961 . S
H1176 C1190 0.960 . S
H1177 C1190 0.961 . S
H1178 C1190 0.959 . S
H1179 C1193 0.929 . S
H1180 C1194 0.956 . S
H1181 C1196 0.930 . S
C1182 H1170 0.930 . S
C1182 C1183 1.399 . S
C1182 C1187 1.399 . S
C1183 C1182 1.399 . S
C1183 C1184 1.376 . S
C1184 H1171 0.930 . S
C1184 C1183 1.376 . S
C1184 C1185 1.388 . S
C1185 H1172 0.930 . S
C1185 C1184 1.388 . S
C1185 C1186 1.390 . S
C1186 C1185 1.390 . S
C1186 C1187 1.394 . S
C1186 C1192 1.465 . S
C1187 C1182 1.399 . S
C1187 C1186 1.394 . S
C1187 C1188 1.516 . S
C1188 C1187 1.516 . S
C1188 C1189 1.502 . S
C1188 C1190 1.561 . S
C1188 C1191 1.526 . S
C1189 H1173 0.959 . S
C1189 H1174 0.959 . S
C1189 H1175 0.961 . S
C1189 C1188 1.502 . S
C1190 H1176 0.960 . S
C1190 H1177 0.961 . S
C1190 H1178 0.959 . S
C1190 C1188 1.561 . S
C1191 C1188 1.526 . S
C1191 C1192 1.396 . S
C1191 C1196 1.390 . S
C1192 C1186 1.465 . S
C1192 C1191 1.396 . S
C1192 C1193 1.399 . S
C1193 H1179 0.929 . S
C1193 C1192 1.399 . S
C1193 C1194 1.385 . S
C1194 H1180 0.956 . S
C1194 C1193 1.385 . S
C1194 C1195 1.389 . S
C1195 C1194 1.389 . S
C1195 C1196 1.387 . S
C1196 H1181 0.930 . S
C1196 C1191 1.390 . S
C1196 C1195 1.387 . S
H1197 C1209 0.930 . S
H1198 C1211 0.930 . S
H1199 C1212 0.930 . S
H1200 C1216 0.959 . S
H1201 C1216 0.959 . S
H1202 C1216 0.961 . S
H1203 C1217 0.960 . S
H1204 C1217 0.961 . S
H1205 C1217 0.959 . S
H1206 C1220 0.929 . S
H1207 C1221 0.931 . S
H1208 C1223 0.930 . S
C1209 H1197 0.930 . S
C1209 C1210 1.399 . S
C1209 C1214 1.399 . S
C1210 C1209 1.399 . S
C1210 C1211 1.376 . S
C1211 H1198 0.930 . S
C1211 C1210 1.376 . S
C1211 C1212 1.388 . S
C1212 H1199 0.930 . S
C1212 C1211 1.388 . S
C1212 C1213 1.390 . S
C1213 C1212 1.390 . S
C1213 C1214 1.394 . S
C1213 C1219 1.465 . S
C1214 C1209 1.399 . S
C1214 C1213 1.394 . S
C1214 C1215 1.516 . S
C1215 C1214 1.516 . S
C1215 C1216 1.502 . S
C1215 C1217 1.561 . S
C1215 C1218 1.526 . S
C1216 H1200 0.959 . S
C1216 H1201 0.959 . S
C1216 H1202 0.961 . S
C1216 C1215 1.502 . S
C1217 H1203 0.960 . S
C1217 H1204 0.961 . S
C1217 H1205 0.959 . S
C1217 C1215 1.561 . S
C1218 C1215 1.526 . S
C1218 C1219 1.396 . S
C1218 C1223 1.390 . S
C1219 C1213 1.465 . S
C1219 C1218 1.396 . S
C1219 C1220 1.399 . S
C1220 H1206 0.929 . S
C1220 C1219 1.399 . S
C1220 C1221 1.385 . S
C1221 H1207 0.931 . S
C1221 C1220 1.385 . S
C1221 C1222 1.389 . S
C1222 C1221 1.389 . S
C1222 C1223 1.387 . S
C1223 H1208 0.930 . S
C1223 C1218 1.390 . S
C1223 C1222 1.387 . S
H1224 C1236 0.930 . S
H1225 C1238 0.930 . S
H1226 C1239 0.930 . S
H1227 C1243 0.959 . S
H1228 C1243 0.959 . S
H1229 C1243 0.961 . S
H1230 C1244 0.960 . S
H1231 C1244 0.961 . S
H1232 C1244 0.959 . S
H1233 C1247 0.929 . S
H1234 C1248 0.931 . S
H1235 C1250 0.930 . S
C1236 H1224 0.930 . S
C1236 C1237 1.399 . S
C1236 C1241 1.399 . S
C1237 C1236 1.399 . S
C1237 C1238 1.376 . S
C1238 H1225 0.930 . S
C1238 C1237 1.376 . S
C1238 C1239 1.388 . S
C1239 H1226 0.930 . S
C1239 C1238 1.388 . S
C1239 C1240 1.390 . S
C1240 C1239 1.390 . S
C1240 C1241 1.394 . S
C1240 C1246 1.465 . S
C1241 C1236 1.399 . S
C1241 C1240 1.394 . S
C1241 C1242 1.516 . S
C1242 C1241 1.516 . S
C1242 C1243 1.502 . S
C1242 C1244 1.561 . S
C1242 C1245 1.526 . S
C1243 H1227 0.959 . S
C1243 H1228 0.959 . S
C1243 H1229 0.961 . S
C1243 C1242 1.502 . S
C1244 H1230 0.960 . S
C1244 H1231 0.961 . S
C1244 H1232 0.959 . S
C1244 C1242 1.561 . S
C1245 C1242 1.526 . S
C1245 C1246 1.396 . S
C1245 C1250 1.390 . S
C1246 C1240 1.465 . S
C1246 C1245 1.396 . S
C1246 C1247 1.399 . S
C1247 H1233 0.929 . S
C1247 C1246 1.399 . S
C1247 C1248 1.385 . S
C1248 H1234 0.931 . S
C1248 C1247 1.385 . S
C1248 C1249 1.389 . S
C1249 C1248 1.389 . S
C1249 C1250 1.387 . S
C1250 H1235 0.930 . S
C1250 C1245 1.390 . S
C1250 C1249 1.387 . S
H1251 C1263 0.930 . S
H1252 C1265 0.930 . S
H1253 C1266 0.930 . S
H1254 C1270 0.959 . S
H1255 C1270 0.959 . S
H1256 C1270 0.961 . S
H1257 C1271 0.960 . S
H1258 C1271 0.961 . S
H1259 C1271 0.959 . S
H1260 C1274 0.929 . S
H1261 C1275 0.931 . S
H1262 C1277 0.930 . S
C1263 H1251 0.930 . S
C1263 C1264 1.399 . S
C1263 C1268 1.399 . S
C1264 C1263 1.399 . S
C1264 C1265 1.376 . S
C1265 H1252 0.930 . S
C1265 C1264 1.376 . S
C1265 C1266 1.388 . S
C1266 H1253 0.930 . S
C1266 C1265 1.388 . S
C1266 C1267 1.390 . S
C1267 C1266 1.390 . S
C1267 C1268 1.394 . S
C1267 C1273 1.465 . S
C1268 C1263 1.399 . S
C1268 C1267 1.394 . S
C1268 C1269 1.516 . S
C1269 C1268 1.516 . S
C1269 C1270 1.502 . S
C1269 C1271 1.561 . S
C1269 C1272 1.526 . S
C1270 H1254 0.959 . S
C1270 H1255 0.959 . S
C1270 H1256 0.961 . S
C1270 C1269 1.502 . S
C1271 H1257 0.960 . S
C1271 H1258 0.961 . S
C1271 H1259 0.959 . S
C1271 C1269 1.561 . S
C1272 C1269 1.526 . S
C1272 C1273 1.396 . S
C1272 C1277 1.390 . S
C1273 C1267 1.465 . S
C1273 C1272 1.396 . S
C1273 C1274 1.399 . S
C1274 H1260 0.929 . S
C1274 C1273 1.399 . S
C1274 C1275 1.385 . S
C1275 H1261 0.931 . S
C1275 C1274 1.385 . S
C1275 C1276 1.389 . S
C1276 C1275 1.389 . S
C1276 C1277 1.387 . S
C1277 H1262 0.930 . S
C1277 C1272 1.390 . S
C1277 C1276 1.387 . S
H1278 C1290 0.930 . S
H1279 C1292 0.930 . S
H1280 C1293 0.930 . S
H1281 C1297 0.959 . S
H1282 C1297 0.959 . S
H1283 C1297 0.961 . S
H1284 C1298 0.960 . S
H1285 C1298 0.961 . S
H1286 C1298 0.959 . S
H1287 C1301 0.929 . S
H1288 C1302 0.931 . S
H1289 C1304 0.930 . S
C1290 H1278 0.930 . S
C1290 C1291 1.399 . S
C1290 C1295 1.399 . S
C1291 C1290 1.399 . S
C1291 C1292 1.376 . S
C1292 H1279 0.930 . S
C1292 C1291 1.376 . S
C1292 C1293 1.388 . S
C1293 H1280 0.930 . S
C1293 C1292 1.388 . S
C1293 C1294 1.390 . S
C1294 C1293 1.390 . S
C1294 C1295 1.394 . S
C1294 C1300 1.465 . S
C1295 C1290 1.399 . S
C1295 C1294 1.394 . S
C1295 C1296 1.516 . S
C1296 C1295 1.516 . S
C1296 C1297 1.502 . S
C1296 C1298 1.561 . S
C1296 C1299 1.526 . S
C1297 H1281 0.959 . S
C1297 H1282 0.959 . S
C1297 H1283 0.961 . S
C1297 C1296 1.502 . S
C1298 H1284 0.960 . S
C1298 H1285 0.961 . S
C1298 H1286 0.959 . S
C1298 C1296 1.561 . S
C1299 C1296 1.526 . S
C1299 C1300 1.396 . S
C1299 C1304 1.390 . S
C1300 C1294 1.465 . S
C1300 C1299 1.396 . S
C1300 C1301 1.399 . S
C1301 H1287 0.929 . S
C1301 C1300 1.399 . S
C1301 C1302 1.385 . S
C1302 H1288 0.931 . S
C1302 C1301 1.385 . S
C1302 C1303 1.389 . S
C1303 C1302 1.389 . S
C1303 C1304 1.387 . S
C1304 H1289 0.930 . S
C1304 C1299 1.390 . S
C1304 C1303 1.387 . S
H1305 C1317 0.930 . S
H1306 C1319 0.930 . S
H1307 C1320 0.930 . S
H1308 C1324 0.959 . S
H1309 C1324 0.959 . S
H1310 C1324 0.961 . S
H1311 C1325 0.960 . S
H1312 C1325 0.961 . S
H1313 C1325 0.959 . S
H1314 C1328 0.929 . S
H1315 C1329 0.931 . S
H1316 C1331 0.930 . S
C1317 H1305 0.930 . S
C1317 C1318 1.399 . S
C1317 C1322 1.399 . S
C1318 C1317 1.399 . S
C1318 C1319 1.376 . S
C1319 H1306 0.930 . S
C1319 C1318 1.376 . S
C1319 C1320 1.388 . S
C1320 H1307 0.930 . S
C1320 C1319 1.388 . S
C1320 C1321 1.390 . S
C1321 C1320 1.390 . S
C1321 C1322 1.394 . S
C1321 C1327 1.465 . S
C1322 C1317 1.399 . S
C1322 C1321 1.394 . S
C1322 C1323 1.516 . S
C1323 C1322 1.516 . S
C1323 C1324 1.502 . S
C1323 C1325 1.561 . S
C1323 C1326 1.526 . S
C1324 H1308 0.959 . S
C1324 H1309 0.959 . S
C1324 H1310 0.961 . S
C1324 C1323 1.502 . S
C1325 H1311 0.960 . S
C1325 H1312 0.961 . S
C1325 H1313 0.959 . S
C1325 C1323 1.561 . S
C1326 C1323 1.526 . S
C1326 C1327 1.396 . S
C1326 C1331 1.390 . S
C1327 C1321 1.465 . S
C1327 C1326 1.396 . S
C1327 C1328 1.399 . S
C1328 H1314 0.929 . S
C1328 C1327 1.399 . S
C1328 C1329 1.385 . S
C1329 H1315 0.931 . S
C1329 C1328 1.385 . S
C1329 C1330 1.389 . S
C1330 C1329 1.389 . S
C1330 C1331 1.387 . S
C1331 H1316 0.930 . S
C1331 C1326 1.390 . S
C1331 C1330 1.387 . S
H1332 C1344 0.930 . S
H1333 C1346 0.930 . S
H1334 C1347 0.930 . S
H1335 C1351 0.959 . S
H1336 C1351 0.959 . S
H1337 C1351 0.961 1_554 S
H1338 C1352 0.960 . S
H1339 C1352 0.961 . S
H1340 C1352 0.959 . S
H1341 C1355 0.929 . S
H1342 C1356 0.931 . S
H1343 C1358 0.930 . S
C1344 H1332 0.930 . S
C1344 C1345 1.399 . S
C1344 C1349 1.399 . S
C1345 C1344 1.399 . S
C1345 C1346 1.376 1_545 S
C1346 H1333 0.930 . S
C1346 C1345 1.376 1_565 S
C1346 C1347 1.388 . S
C1347 H1334 0.930 . S
C1347 C1346 1.388 . S
C1347 C1348 1.390 . S
C1348 C1347 1.390 . S
C1348 C1349 1.394 1_565 S
C1348 C1354 1.465 1_554 S
C1349 C1344 1.399 . S
C1349 C1348 1.394 1_545 S
C1349 C1350 1.516 1_554 S
C1350 C1349 1.516 1_556 S
C1350 C1351 1.502 . S
C1350 C1352 1.561 . S
C1350 C1353 1.526 . S
C1351 H1335 0.959 . S
C1351 H1336 0.959 . S
C1351 H1337 0.961 1_556 S
C1351 C1350 1.502 . S
C1352 H1338 0.960 . S
C1352 H1339 0.961 . S
C1352 H1340 0.959 . S
C1352 C1350 1.561 . S
C1353 C1350 1.526 . S
C1353 C1354 1.396 1_545 S
C1353 C1358 1.390 . S
C1354 C1348 1.465 1_556 S
C1354 C1353 1.396 1_565 S
C1354 C1355 1.399 . S
C1355 H1341 0.929 . S
C1355 C1354 1.399 . S
C1355 C1356 1.385 . S
C1356 H1342 0.931 . S
C1356 C1355 1.385 . S
C1356 C1357 1.389 . S
C1357 C1356 1.389 . S
C1357 C1358 1.387 1_565 S
C1358 H1343 0.930 . S
C1358 C1353 1.390 . S
C1358 C1357 1.387 1_545 S
H1359 C1371 0.930 . S
H1360 C1373 0.930 . S
H1361 C1374 0.930 . S
H1362 C1378 0.959 . S
H1363 C1378 0.959 . S
H1364 C1378 0.961 1_556 S
H1365 C1379 0.960 . S
H1366 C1379 0.961 1_554 S
H1367 C1379 0.959 . S
H1368 C1382 0.929 . S
H1369 C1383 0.931 . S
H1370 C1385 0.930 . S
C1371 H1359 0.930 . S
C1371 C1372 1.399 . S
C1371 C1376 1.399 . S
C1372 C1371 1.399 . S
C1372 C1373 1.376 . S
C1373 H1360 0.930 . S
C1373 C1372 1.376 . S
C1373 C1374 1.388 1_455 S
C1374 H1361 0.930 . S
C1374 C1373 1.388 1_655 S
C1374 C1375 1.390 . S
C1375 C1374 1.390 . S
C1375 C1376 1.394 1_655 S
C1375 C1381 1.465 1_556 S
C1376 C1371 1.399 . S
C1376 C1375 1.394 1_455 S
C1376 C1377 1.516 1_556 S
C1377 C1376 1.516 1_554 S
C1377 C1378 1.502 . S
C1377 C1379 1.561 1_454 S
C1377 C1380 1.526 1_455 S
C1378 H1362 0.959 . S
C1378 H1363 0.959 . S
C1378 H1364 0.961 1_554 S
C1378 C1377 1.502 . S
C1379 H1365 0.960 . S
C1379 H1366 0.961 1_556 S
C1379 H1367 0.959 . S
C1379 C1377 1.561 1_656 S
C1380 C1377 1.526 1_655 S
C1380 C1381 1.396 . S
C1380 C1385 1.390 . S
C1381 C1375 1.465 1_554 S
C1381 C1380 1.396 . S
C1381 C1382 1.399 . S
C1382 H1368 0.929 . S
C1382 C1381 1.399 . S
C1382 C1383 1.385 . S
C1383 H1369 0.931 . S
C1383 C1382 1.385 . S
C1383 C1384 1.389 . S
C1384 C1383 1.389 . S
C1384 C1385 1.387 . S
C1385 H1370 0.930 . S
C1385 C1380 1.390 . S
C1385 C1384 1.387 . S
H1386 C1398 0.952 . S
H1387 C1400 0.930 . S
H1388 C1401 0.930 . S
H1389 C1405 0.959 . S
H1390 C1405 0.959 1_554 S
H1391 C1405 0.961 . S
H1392 C1406 0.960 . S
H1393 C1406 0.961 . S
H1394 C1406 0.959 . S
H1395 C1409 0.929 . S
H1396 C1410 0.931 . S
H1397 C1412 0.930 . S
C1398 H1386 0.952 . S
C1398 C1399 1.372 1_565 S
C1398 C1403 1.405 . S
C1399 C1398 1.372 1_545 S
C1399 C1400 1.376 . S
C1400 H1387 0.930 . S
C1400 C1399 1.376 . S
C1400 C1401 1.388 . S
C1401 H1388 0.930 . S
C1401 C1400 1.388 . S
C1401 C1402 1.390 . S
C1402 C1401 1.390 . S
C1402 C1403 1.394 1_545 S
C1402 C1408 1.465 1_556 S
C1403 C1398 1.405 . S
C1403 C1402 1.394 1_565 S
C1403 C1404 1.516 . S
C1404 C1403 1.516 . S
C1404 C1405 1.502 . S
C1404 C1406 1.561 . S
C1404 C1407 1.526 1_556 S
C1405 H1389 0.959 . S
C1405 H1390 0.959 1_556 S
C1405 H1391 0.961 . S
C1405 C1404 1.502 . S
C1406 H1392 0.960 . S
C1406 H1393 0.961 . S
C1406 H1394 0.959 . S
C1406 C1404 1.561 . S
C1407 C1404 1.526 1_554 S
C1407 C1408 1.396 1_565 S
C1407 C1412 1.390 . S
C1408 C1402 1.465 1_554 S
C1408 C1407 1.396 1_545 S
C1408 C1409 1.399 . S
C1409 H1395 0.929 . S
C1409 C1408 1.399 . S
C1409 C1410 1.385 . S
C1410 H1396 0.931 . S
C1410 C1409 1.385 . S
C1410 C1411 1.389 1_545 S
C1411 C1410 1.389 1_565 S
C1411 C1412 1.387 . S
C1412 H1397 0.930 . S
C1412 C1407 1.390 . S
C1412 C1411 1.387 . S
H1413 C1425 0.930 . S
H1414 C1427 0.930 . S
H1415 C1428 0.930 . S
H1416 C1432 0.959 . S
H1417 C1432 0.959 . S
H1418 C1432 0.961 1_556 S
H1419 C1433 0.956 1_556 S
H1420 C1433 0.966 . S
H1421 C1433 0.957 1_456 S
H1422 C1436 0.929 . S
H1423 C1437 0.931 . S
H1424 C1439 0.930 1_655 S
C1425 H1413 0.930 . S
C1425 C1426 1.399 . S
C1425 C1430 1.399 . S
C1426 C1425 1.399 . S
C1426 C1427 1.376 1_655 S
C1427 H1414 0.930 . S
C1427 C1426 1.376 1_455 S
C1427 C1428 1.388 . S
C1428 H1415 0.930 . S
C1428 C1427 1.388 . S
C1428 C1429 1.390 . S
C1429 C1428 1.390 . S
C1429 C1430 1.394 1_455 S
C1429 C1435 1.465 1_556 S
C1430 C1425 1.399 . S
C1430 C1429 1.394 1_655 S
C1430 C1431 1.516 1_556 S
C1431 C1430 1.516 1_554 S
C1431 C1432 1.502 . S
C1431 C1433 1.563 . S
C1431 C1434 1.526 1_655 S
C1432 H1416 0.959 . S
C1432 H1417 0.959 . S
C1432 H1418 0.961 1_554 S
C1432 C1431 1.502 . S
C1433 H1419 0.956 1_554 S
C1433 H1420 0.966 . S
C1433 H1421 0.957 1_654 S
C1433 C1431 1.563 . S
C1434 C1431 1.526 1_455 S
C1434 C1435 1.396 . S
C1434 C1439 1.390 . S
C1435 C1429 1.465 1_554 S
C1435 C1434 1.396 . S
C1435 C1436 1.399 . S
C1436 H1422 0.929 . S
C1436 C1435 1.399 . S
C1436 C1437 1.385 . S
C1437 H1423 0.931 . S
C1437 C1436 1.385 . S
C1437 C1438 1.389 . S
C1438 C1437 1.389 . S
C1438 C1439 1.387 . S
C1439 H1424 0.930 1_455 S
C1439 C1434 1.390 . S
C1439 C1438 1.387 . S
C589 C4 1.199 . S
C601 C256 1.190 . S
C616 C40 1.180 . S
C628 C148 1.185 . S
C643 C184 1.244 . S
C655 C76 1.237 . S
C670 C112 1.185 . S
C682 C220 1.193 . S
C697 C292 1.229 . S
C709 C544 1.219 . S
C724 C436 1.216 . S
C736 C328 1.206 . S
C751 C472 1.247 . S
C763 C364 1.241 . S
C778 C508 1.224 . S
C790 C400 1.213 . S
C805 C3 1.367 . S
C817 C398 1.371 . S
C832 C39 1.325 . S
C844 C290 1.345 . S
C859 C326 1.341 . S
C871 C75 1.339 . S
C886 C111 1.336 . S
C898 C362 1.370 . S
C913 C147 1.365 . S
C925 C470 1.371 . S
C940 C506 1.345 . S
C952 C183 1.325 . S
C967 C219 1.368 . S
C979 C542 1.370 . S
C994 C434 1.342 . S
C1006 C255 1.331 . S
C1021 C291 1.323 . S
C1033 C110 1.341 . S
C1048 C2 1.358 . S
C1060 C327 1.321 . S
C1075 C363 1.335 . S
C1087 C38 1.363 . S
C1102 C74 1.359 . S
C1114 C399 1.370 . S
C1129 C435 1.323 . S
C1141 C182 1.341 . S
C1156 C218 1.350 . S
C1168 C471 1.322 . S
C1183 C254 1.360 . S
C1195 C507 1.332 . S
C1210 C146 1.358 . S
C1222 C543 1.321 . S
C1237 C158 1.554 . S
C1249 C14 1.537 . S
C1264 C194 1.529 . S
C1276 C50 1.569 . S
C1291 C86 1.528 . S
C1303 C230 1.582 . S
C1318 C266 1.564 . S
C1330 C122 1.547 . S
C1345 C446 1.573 . S
C1357 C302 1.523 . S
C1372 C482 1.575 . S
C1384 C338 1.535 . S
C1399 C374 1.538 . S
C1411 C518 1.575 . S
C1426 C554 1.579 . S
C1438 C410 1.529 . S
