# Generated by pormake.
# Topology rob, (6)-cn, num edge types: 1
# Building blocks:
#     Node 0, Type 0, BuildingBlock: KUMBUR_clean_sbu_0, # of connection points: 6
#     Node 1, Type 0, BuildingBlock: KUMBUR_clean_sbu_0, # of connection points: 6
#     Node 2, Type 0, BuildingBlock: KUMBUR_clean_sbu_0, # of connection points: 6
#     Node 3, Type 0, BuildingBlock: KUMBUR_clean_sbu_0, # of connection points: 6
#     Edge 4, Type (0, 0), BuildingBlock: MIFKUJ_clean_linker_0, # of connection points: 2
#     Edge 5, Type (0, 0), BuildingBlock: MIFKUJ_clean_linker_0, # of connection points: 2
#     Edge 6, Type (0, 0), BuildingBlock: MIFKUJ_clean_linker_0, # of connection points: 2
#     Edge 7, Type (0, 0), BuildingBlock: MIFKUJ_clean_linker_0, # of connection points: 2
#     Edge 8, Type (0, 0), BuildingBlock: MIFKUJ_clean_linker_0, # of connection points: 2
#     Edge 9, Type (0, 0), BuildingBlock: MIFKUJ_clean_linker_0, # of connection points: 2
#     Edge 10, Type (0, 0), BuildingBlock: MIFKUJ_clean_linker_0, # of connection points: 2
#     Edge 11, Type (0, 0), BuildingBlock: MIFKUJ_clean_linker_0, # of connection points: 2
#     Edge 12, Type (0, 0), BuildingBlock: MIFKUJ_clean_linker_0, # of connection points: 2
#     Edge 13, Type (0, 0), BuildingBlock: MIFKUJ_clean_linker_0, # of connection points: 2
#     Edge 14, Type (0, 0), BuildingBlock: MIFKUJ_clean_linker_0, # of connection points: 2
#     Edge 15, Type (0, 0), BuildingBlock: MIFKUJ_clean_linker_0, # of connection points: 2
# Relax obj value: 0.032
# Max RMSD: 0.149
# Mean RMSD: 0.149
data_MOF--net-rob--node1-KUMBUR_clean_sbu_0--edge1-MIFKUJ_clean_linker_0
_symmetry_space_group_name_H-M    P1
_symmetry_Int_Tables_number       1
_symmetry_cell_setting            triclinic
loop_
_symmetry_equiv_pos_as_xyz
'x, y, z'
_cell_length_a     19.910749
_cell_length_b     33.874116
_cell_length_c     41.70256
_cell_angle_alpha  118.24952
_cell_angle_beta   89.91923
_cell_angle_gamma 90.042184
loop_
_atom_site_label
_atom_site_type_symbol
_atom_site_fract_x
_atom_site_fract_y
_atom_site_fract_z
_atom_type_partial_charge
Tb0 Tb 0.18575 0.29487 0.04488 0.0
C1 C 0.37654 0.13391 0.97934 0.0
C2 C 0.46926 0.15701 0.02166 0.0
C3 C 0.4398 0.0781 0.98765 0.0
C4 C 0.4159 0.16741 1.00475 0.0
C5 C 0.38861 0.08871 0.96985 0.0
C6 C 0.48008 0.11225 1.01357 0.0
C7 C 0.30194 0.06798 0.92422 0.0
N8 N 0.32792 0.14568 0.96282 0.0
C9 C 0.29215 0.11334 0.93455 0.0
C10 C 0.34987 0.0556 0.94223 0.0
Tb11 Tb 0.31228 0.2209 0.98313 0.0
N12 N 0.40395 0.21001 1.01145 0.0
C13 C 0.44728 0.24356 0.03285 0.0
C14 C 0.51117 0.1917 0.04532 0.0
C15 C 0.50075 0.23505 0.05047 0.0
H16 H 0.25458 0.12249 0.92063 0.0
H17 H 0.5337 0.26202 0.06814 0.0
H18 H 0.5204 0.10359 0.02653 0.0
H19 H 0.27243 0.04261 0.90242 0.0
H20 H 0.43998 0.27736 0.03748 0.0
H21 H 0.96107 0.25736 0.96268 0.0
H22 H 0.55264 0.18519 0.05896 0.0
H23 H 0.24941 0.39214 0.10639 0.0
H24 H 0.05739 0.23997 0.99043 0.0
H25 H 0.23165 0.47236 0.1266 0.0
H26 H 0.44957 0.04361 0.98102 0.0
H27 H 0.93993 0.33542 0.9755 0.0
H28 H 0.97239 0.41686 1.00961 0.0
H29 H 0.35747 0.02045 0.93413 0.0
H30 H 0.04619 0.47549 0.05422 0.0
N31 N 0.09266 0.30742 0.01851 0.0
C32 C 0.04922 0.27428 0.99662 0.0
C33 C 0.98253 0.32802 0.98789 0.0
C34 C 0.0251 0.36214 1.01171 0.0
C35 C 0.99425 0.28396 0.98066 0.0
C36 C 0.07998 0.35059 0.02695 0.0
H37 H 0.14292 0.49659 0.09822 0.0
N38 N 0.1719 0.37048 0.0664 0.0
C39 C 0.20048 0.44767 0.10533 0.0
C40 C 0.12113 0.38335 0.05183 0.0
C41 C 0.21016 0.40203 0.09386 0.0
C42 C 0.15031 0.4612 0.08927 0.0
C43 C 0.1092 0.42892 0.0625 0.0
O44 O 0.17648 0.31561 0.10091 0.0
O45 O 0.27249 0.25344 0.03744 0.0
O46 O 0.25035 0.18075 0.99981 0.0
O47 O 0.15269 0.22414 0.01713 0.0
O48 O 0.26865 0.31244 0.08393 0.0
O49 O 0.10061 0.27436 0.06308 0.0
O50 O 0.32402 0.19859 0.92697 0.0
O51 O 0.22485 0.26168 0.99029 0.0
O52 O 0.24587 0.33466 0.02696 0.0
O53 O 0.34403 0.29191 1.01018 0.0
O54 O 0.23044 0.20291 0.94349 0.0
O55 O 0.39702 0.24239 0.96551 0.0
C56 C 0.30314 0.27636 0.06689 0.0
C57 C 0.06682 0.32196 0.12389 0.0
C58 C 0.01085 0.34155 0.18184 0.0
C59 C 0.05982 0.31706 0.15536 0.0
C60 C 0.96889 0.37098 0.17594 0.0
C61 C 0.02487 0.35165 0.11874 0.0
C62 C 0.9761 0.37599 0.1447 0.0
C63 C 0.18541 0.18599 1.00755 0.0
C64 C 0.11875 0.29594 0.09712 0.0
C65 C 0.05597 0.44069 0.04662 0.0
C66 C 0.01396 0.40732 0.02123 0.0
C67 C 0.19493 0.23854 0.96054 0.0
C68 C 0.43466 0.1947 0.90562 0.0
C69 C 0.44534 0.2015 0.87528 0.0
C70 C 0.49752 0.17906 0.85037 0.0
C71 C 0.53844 0.14929 0.85641 0.0
C72 C 0.47567 0.16477 0.91099 0.0
C73 C 0.5273 0.14216 0.8864 0.0
C74 C 0.3106 0.32951 0.01862 0.0
C75 C 0.38069 0.21961 0.93127 0.0
H76 H 0.09317 0.29442 0.15924 0.0
H77 H 0.92967 0.38969 0.19516 0.0
H78 H 0.02963 0.35589 0.09471 0.0
H79 H 0.94346 0.39869 0.14052 0.0
H80 H 0.41245 0.22409 0.87106 0.0
H81 H 0.57982 0.13199 0.83832 0.0
H82 H 0.46802 0.1591 0.93419 0.0
H83 H 0.55919 0.11925 0.89073 0.0
Tb84 Tb 0.68409 0.80237 0.05251 0.0
C85 C 0.87083 0.63782 0.98481 0.0
C86 C 0.96707 0.65954 0.02476 0.0
C87 C 0.93504 0.58105 0.99134 0.0
C88 C 0.91234 0.67072 1.00919 0.0
C89 C 0.88212 0.59243 0.97501 0.0
C90 C 0.97748 0.61459 0.01621 0.0
C91 C 0.79108 0.57301 0.93197 0.0
N92 N 0.82053 0.65032 0.96973 0.0
C93 C 0.78204 0.61849 0.94259 0.0
C94 C 0.8408 0.5599 0.94857 0.0
Tb95 Tb 0.80729 0.72574 0.98992 0.0
N96 N 0.90044 0.71361 0.01658 0.0
C97 C 0.94479 0.74669 0.03753 0.0
C98 C 0.01036 0.69371 0.04781 0.0
C99 C -0.00039 0.7374 0.05383 0.0
H100 H 0.74306 0.6281 0.92972 0.0
H101 H 0.03344 0.76401 0.07113 0.0
H102 H 0.01891 0.60534 0.02812 0.0
H103 H 0.75975 0.54812 0.91095 0.0
H104 H 0.93742 0.78073 0.04279 0.0
H105 H 0.45508 0.76684 0.97395 0.0
H106 H 0.05288 0.6866 0.06043 0.0
H107 H 0.75391 0.89924 0.1112 0.0
H108 H 0.55333 0.74851 0.99989 0.0
H109 H 0.73938 0.97939 0.12987 0.0
H110 H 0.94433 0.5464 0.98441 0.0
H111 H 0.43462 0.84508 0.98707 0.0
H112 H 0.46972 0.92606 0.01992 0.0
H113 H 0.84772 0.52464 0.94026 0.0
H114 H 0.5476 0.98386 0.06201 0.0
N115 N 0.59007 0.81563 0.02728 0.0
C116 C 0.54544 0.78287 1.00614 0.0
C117 C 0.47803 0.83728 0.99868 0.0
C118 C 0.52229 0.87095 0.02147 0.0
C119 C 0.48939 0.7931 0.99125 0.0
C120 C 0.57815 0.8589 0.03572 0.0
H121 H 0.64905 1.00397 0.10268 0.0
N122 N 0.67361 0.878 0.07283 0.0
C123 C 0.70611 0.9549 0.1098 0.0
C124 C 0.62178 0.89122 0.05912 0.0
C125 C 0.71404 0.90932 0.09916 0.0
C126 C 0.65508 0.96865 0.09439 0.0
C127 C 0.61118 0.93678 0.06928 0.0
O128 O 0.67959 0.82182 0.10834 0.0
O129 O 0.76967 0.75967 0.04472 0.0
O130 O 0.74526 0.68736 1.00842 0.0
O131 O 0.64888 0.732 0.02636 0.0
O132 O 0.76839 0.81969 0.0906 0.0
O133 O 0.596 0.7881 0.07339 0.0
O134 O 0.81846 0.70139 0.93339 0.0
O135 O 0.72069 0.76747 0.99738 0.0
O136 O 0.74481 0.8403 0.03296 0.0
O137 O 0.84154 0.79617 0.01633 0.0
O138 O 0.72431 0.70809 0.95113 0.0
O139 O 0.89029 0.74742 0.97126 0.0
C140 C 0.80157 0.78294 0.07375 0.0
C141 C 0.57357 0.83655 0.13601 0.0
C142 C 0.52062 0.85534 0.19435 0.0
C143 C 0.55705 0.82536 0.16346 0.0
C144 C 0.4997 0.89645 0.19711 0.0
C145 C 0.5516 0.87745 0.13894 0.0
C146 C 0.51459 0.90716 0.16934 0.0
C147 C 0.68067 0.69357 0.01704 0.0
C148 C 0.61889 0.80689 0.1066 0.0
C149 C 0.55654 0.94904 0.05461 0.0
C150 C 0.51215 0.91615 0.03072 0.0
C151 C 0.68975 0.74415 0.968 0.0
C152 C 0.92924 0.69826 0.91201 0.0
C153 C 0.93783 0.70214 0.88016 0.0
C154 C 0.99221 0.6811 0.85636 0.0
C155 C 0.03714 0.65544 0.86508 0.0
C156 C 0.97417 0.67221 0.91985 0.0
C157 C 0.02773 0.65083 0.89637 0.0
C158 C 0.80954 0.83422 0.0247 0.0
C159 C 0.87437 0.72304 0.93713 0.0
H160 H 0.57448 0.79395 0.16139 0.0
H161 H 0.4714 0.92006 0.22058 0.0
H162 H 0.56388 0.88674 0.11817 0.0
H163 H 0.49811 0.93883 0.1716 0.0
H164 H 0.90184 0.72169 0.87415 0.0
H165 H 0.08051 0.63959 0.84819 0.0
H166 H 0.96834 0.66883 0.94423 0.0
H167 H 0.06275 0.63109 0.90272 0.0
Tb168 Tb 0.18415 0.71724 0.48468 0.0
C169 C 0.36674 0.88224 0.55397 0.0
C170 C 0.46388 0.86093 0.51453 0.0
C171 C 0.43022 0.93917 0.5472 0.0
C172 C 0.40899 0.84951 0.52992 0.0
C173 C 0.37739 0.92762 0.56355 0.0
C174 C 0.47341 0.90583 0.52268 0.0
C175 C 0.28601 0.94677 0.60651 0.0
N176 N 0.31661 0.86958 0.56914 0.0
C177 C 0.27772 0.90128 0.59617 0.0
C178 C 0.33559 0.95999 0.58983 0.0
Tb179 Tb 0.30423 0.79413 0.54908 0.0
N180 N 0.39824 0.80674 0.52316 0.0
C181 C 0.44403 0.77413 0.50321 0.0
C182 C 0.50847 0.82711 0.4923 0.0
C183 C 0.49905 0.78365 0.48709 0.0
H184 H 0.2389 0.89151 0.60908 0.0
H185 H 0.534 0.75736 0.47053 0.0
H186 H 0.51491 0.91524 0.51087 0.0
H187 H 0.25407 0.97158 0.62728 0.0
H188 H 0.43764 0.74024 0.49856 0.0
H189 H 0.95009 0.75035 0.55859 0.0
H190 H 0.55116 0.8344 0.47982 0.0
H191 H 0.2561 0.62147 0.42602 0.0
H192 H 0.05225 0.76996 0.53628 0.0
H193 H 0.23937 0.54078 0.40423 0.0
H194 H 0.43897 0.97381 0.55393 0.0
H195 H 0.92688 0.67143 0.54216 0.0
H196 H 0.96091 0.5904 0.50732 0.0
H197 H 0.34203 0.99524 0.59794 0.0
H198 H 0.04101 0.53346 0.46672 0.0
N199 N 0.09003 0.70309 0.50929 0.0
C200 C 0.04407 0.73542 0.52947 0.0
C201 C 0.97305 0.67991 0.53314 0.0
C202 C 0.01887 0.6467 0.51136 0.0
C203 C 0.98572 0.72446 0.54221 0.0
C204 C 0.07758 0.65956 0.49978 0.0
H205 H 0.14507 0.51459 0.428 0.0
N206 N 0.174 0.64146 0.46334 0.0
C207 C 0.20583 0.56483 0.4245 0.0
C208 C 0.12133 0.62756 0.47603 0.0
C209 C 0.21506 0.61073 0.43694 0.0
C210 C 0.15274 0.55019 0.43809 0.0
C211 C 0.10891 0.58163 0.46366 0.0
O212 O 0.17578 0.69444 0.4283 0.0
O213 O 0.26989 0.75998 0.49368 0.0
O214 O 0.24435 0.83237 0.52975 0.0
O215 O 0.14847 0.78746 0.51045 0.0
O216 O 0.26912 0.70121 0.44691 0.0
O217 O 0.09958 0.73668 0.46538 0.0
O218 O 0.31086 0.81776 0.60566 0.0
O219 O 0.21821 0.75135 0.54018 0.0
O220 O 0.24375 0.67904 0.50429 0.0
O221 O 0.33965 0.72395 0.52316 0.0
O222 O 0.21823 0.81098 0.58627 0.0
O223 O 0.3877 0.77518 0.56949 0.0
C224 C 0.30267 0.7375 0.46481 0.0
C225 C 0.06577 0.68703 0.4052 0.0
C226 C 0.00232 0.67014 0.34999 0.0
C227 C 0.05078 0.69572 0.37626 0.0
C228 C 0.96836 0.63599 0.3536 0.0
C229 C 0.03134 0.65291 0.40829 0.0
C230 C 0.98279 0.62759 0.38261 0.0
C231 C 0.18034 0.82593 0.52007 0.0
C232 C 0.11793 0.71383 0.43146 0.0
C233 C 0.05177 0.56858 0.47606 0.0
C234 C 0.00644 0.60105 0.49951 0.0
C235 C 0.18495 0.77444 0.56876 0.0
C236 C 0.42002 0.82574 0.62971 0.0
C237 C 0.43051 0.82051 0.66083 0.0
C238 C 0.48116 0.84493 0.68599 0.0
C239 C 0.52052 0.87515 0.67977 0.0
C240 C 0.45953 0.8562 0.6241 0.0
C241 C 0.50942 0.88086 0.64912 0.0
C242 C 0.30807 0.68536 0.51341 0.0
C243 C 0.36848 0.79849 0.60323 0.0
H244 H 0.07765 0.72209 0.37405 0.0
H245 H 0.93001 0.61611 0.3343 0.0
H246 H 0.04177 0.64586 0.43044 0.0
H247 H 0.95621 0.60135 0.3852 0.0
H248 H 0.40032 0.79665 0.66498 0.0
H249 H 0.5596 0.89459 0.69876 0.0
H250 H 0.45216 0.86069 0.60034 0.0
H251 H 0.53986 0.90429 0.64465 0.0
Tb252 Tb 0.69483 0.21735 0.48075 0.0
C253 C 0.87499 0.38376 0.55079 0.0
C254 C 0.97465 0.36218 0.51319 0.0
C255 C 0.93964 0.44021 0.54399 0.0
C256 C 0.91862 0.35101 0.52801 0.0
C257 C 0.88559 0.42895 0.55979 0.0
C258 C 0.98417 0.40685 0.52071 0.0
C259 C 0.79171 0.4486 0.60127 0.0
N260 N 0.82362 0.37138 0.56542 0.0
C261 C 0.7835 0.40328 0.59154 0.0
C262 C 0.84248 0.46147 0.58499 0.0
Tb263 Tb 0.81174 0.29613 0.54641 0.0
N264 N 0.90742 0.30837 0.52149 0.0
C265 C 0.95362 0.27566 0.50234 0.0
C266 C 0.01998 0.3283 0.49191 0.0
C267 C 0.00986 0.28496 0.48688 0.0
H268 H 0.74376 0.39374 0.60412 0.0
H269 H 0.04522 0.25862 0.47097 0.0
H270 H 0.02649 0.41607 0.50929 0.0
H271 H 0.75879 0.47354 0.62127 0.0
H272 H 0.94669 0.24188 0.49786 0.0
H273 H 0.45606 0.25026 0.55035 0.0
H274 H 0.06355 0.33541 0.4799 0.0
H275 H 0.77012 0.12143 0.42494 0.0
H276 H 0.55995 0.26998 0.52953 0.0
H277 H 0.75536 0.04105 0.40533 0.0
H278 H 0.94813 0.47464 0.55015 0.0
H279 H 0.43389 0.17161 0.53509 0.0
H280 H 0.47245 0.09133 0.50524 0.0
H281 H 0.84887 0.4966 0.59262 0.0
H282 H 0.55497 0.03455 0.46683 0.0
N283 N 0.59912 0.20342 0.50428 0.0
C284 C 0.55214 0.23559 0.52327 0.0
C285 C 0.48086 0.18024 0.52698 0.0
C286 C 0.52839 0.14729 0.50706 0.0
C287 C 0.49287 0.22459 0.53523 0.0
C288 C 0.58745 0.1601 0.49573 0.0
H289 H 0.66055 0.01542 0.42921 0.0
N290 N 0.68626 0.14182 0.46111 0.0
C291 C 0.72063 0.06521 0.42464 0.0
C292 C 0.63296 0.12815 0.47359 0.0
C293 C 0.72876 0.11091 0.43583 0.0
C294 C 0.66722 0.05089 0.43828 0.0
C295 C 0.6218 0.0824 0.46254 0.0
O296 O 0.69218 0.19428 0.42423 0.0
O297 O 0.78006 0.26086 0.49056 0.0
O298 O 0.75214 0.3333 0.52578 0.0
O299 O 0.65781 0.28701 0.50483 0.0
O300 O 0.78233 0.20115 0.44461 0.0
O301 O 0.61004 0.23252 0.4583 0.0
O302 O 0.81694 0.32132 0.60322 0.0
O303 O 0.72561 0.25324 0.53688 0.0
O304 O 0.75201 0.18094 0.50276 0.0
O305 O 0.8476 0.22601 0.52215 0.0
O306 O 0.72435 0.31315 0.58264 0.0
O307 O 0.89417 0.27792 0.56812 0.0
C308 C 0.81444 0.23814 0.46236 0.0
C309 C 0.58537 0.18096 0.39685 0.0
C310 C 0.52304 0.16235 0.34078 0.0
C311 C 0.56487 0.19166 0.36962 0.0
C312 C 0.50178 0.12229 0.34014 0.0
C313 C 0.56277 0.14117 0.39573 0.0
C314 C 0.52114 0.11208 0.36755 0.0
C315 C 0.68885 0.32579 0.51473 0.0
C316 C 0.63274 0.21069 0.42511 0.0
C317 C 0.5645 0.06953 0.47497 0.0
C318 C 0.5176 0.1019 0.49696 0.0
C319 C 0.69124 0.27654 0.56502 0.0
C320 C 0.92578 0.33006 0.62802 0.0
C321 C 0.94152 0.32244 0.65749 0.0
C322 C 0.99026 0.34875 0.68333 0.0
C323 C 0.02288 0.38286 0.67909 0.0
C324 C 0.9591 0.36411 0.62429 0.0
C325 C 0.00735 0.39037 0.64975 0.0
C326 C 0.8157 0.18766 0.51296 0.0
C327 C 0.87439 0.3022 0.60164 0.0
H328 H 0.58156 0.22289 0.37107 0.0
H329 H 0.47106 0.09829 0.31814 0.0
H330 H 0.57778 0.13228 0.4163 0.0
H331 H 0.50448 0.08116 0.36668 0.0
H332 H 0.91514 0.29636 0.66049 0.0
H333 H 0.06116 0.40334 0.69815 0.0
H334 H 0.94799 0.37037 0.60177 0.0
H335 H 0.033 0.41656 0.64667 0.0
H336 H 0.72972 0.61795 0.01658 0.0
H337 H 0.66575 0.55607 0.01592 0.0
H338 H 0.48066 0.62141 1.01441 0.0
H339 H 0.54426 0.68405 0.01616 0.0
H340 H 0.47044 0.58988 0.0605 0.0
H341 H 0.54675 0.52948 0.93645 0.0
H342 H 0.63071 0.50924 0.8876 0.0
H343 H 0.73081 0.42362 0.92215 0.0
H344 H 0.64779 0.44363 0.97141 0.0
H345 H 0.25802 0.40285 0.01659 0.0
H346 H 0.31935 0.46389 1.01419 0.0
H347 H 0.50728 0.40244 0.01736 0.0
H348 H 0.44643 0.34065 0.01865 0.0
H349 H 0.51406 0.43184 0.9692 0.0
H350 H 0.44079 0.49368 0.09404 0.0
H351 H 0.35673 0.5129 0.14269 0.0
H352 H 0.25147 0.59526 0.10658 0.0
H353 H 0.33463 0.57617 0.05746 0.0
C354 C 0.67539 0.61905 0.01587 0.0
C355 C 0.64205 0.65576 0.0161 0.0
C356 C 0.63886 0.58355 0.01539 0.0
C357 C 0.56833 0.58367 1.01446 0.0
C358 C 0.53501 0.62049 0.015 0.0
C359 C 0.57148 0.65625 0.01592 0.0
C360 C 0.52912 0.54587 1.01361 0.0
C361 C 0.47938 0.55538 0.0402 0.0
C362 C 0.5417 0.50071 0.98764 0.0
C363 C 0.59136 0.48837 0.95782 0.0
C364 C 0.58687 0.50652 0.93376 0.0
C365 C 0.63421 0.49501 0.90595 0.0
C366 C 0.68612 0.46522 0.90182 0.0
C367 C 0.6906 0.4467 0.92539 0.0
C368 C 0.64335 0.45805 0.95321 0.0
C369 C 0.31241 0.40246 0.01699 0.0
C370 C 0.34739 0.36714 0.0182 0.0
C371 C 0.3474 0.4374 0.01564 0.0
C372 C 0.41796 0.43812 0.01617 0.0
C373 C 0.45287 0.40263 0.01697 0.0
C374 C 0.41797 0.36742 0.01788 0.0
C375 C 0.45567 0.47591 0.01612 0.0
C376 C 0.50508 0.46637 0.9894 0.0
C377 C 0.44291 0.52103 0.04199 0.0
C378 C 0.39362 0.53322 0.07192 0.0
C379 C 0.39957 0.51575 0.09639 0.0
C380 C 0.35213 0.52665 0.12407 0.0
C381 C 0.29874 0.55523 0.12769 0.0
C382 C 0.29284 0.57311 0.10373 0.0
C383 C 0.34018 0.56233 0.07601 0.0
H384 H 0.26194 0.56352 0.14906 0.0
H385 H 0.72285 0.45647 0.88035 0.0
H386 H 0.444 0.68032 0.52001 0.0
H387 H 0.50825 0.61827 0.51862 0.0
H388 H 0.32555 0.5428 0.50296 0.0
H389 H 0.26047 0.60512 0.50504 0.0
H390 H 0.4056 0.53959 0.55428 0.0
H391 H 0.43113 0.51802 0.4327 0.0
H392 H 0.4589 0.54015 0.38581 0.0
H393 H 0.66256 0.56661 0.42394 0.0
H394 H 0.63574 0.54531 0.47148 0.0
H395 H 0.55378 0.32927 0.50491 0.0
H396 H 0.49041 0.38976 0.5031 0.0
H397 H 0.67311 0.46544 0.51943 0.0
H398 H 0.73736 0.40461 0.52054 0.0
H399 H 0.5933 0.46824 0.46731 0.0
H400 H 0.56804 0.49137 0.58933 0.0
H401 H 0.54109 0.46962 0.63654 0.0
H402 H 0.33784 0.44093 0.598 0.0
H403 H 0.36387 0.46186 0.55015 0.0
C404 C 0.41731 0.65055 0.5162 0.0
C405 C 0.34705 0.64756 0.51227 0.0
C406 C 0.45425 0.615 0.51524 0.0
C407 C 0.42177 0.57571 0.51021 0.0
C408 C 0.35161 0.57277 0.50669 0.0
C409 C 0.31456 0.60833 0.50765 0.0
C410 C 0.46102 0.53805 0.50931 0.0
C411 C 0.44599 0.52354 0.53492 0.0
C412 C 0.51485 0.51797 0.48465 0.0
C413 C 0.53123 0.53049 0.4559 0.0
C414 C 0.4817 0.5289 0.43129 0.0
C415 C 0.4973 0.54125 0.40456 0.0
C416 C 0.56241 0.55489 0.40196 0.0
C417 C 0.61212 0.55609 0.42603 0.0
C418 C 0.59676 0.54386 0.45286 0.0
C419 C 0.58066 0.35872 0.5081 0.0
C420 C 0.65057 0.36239 0.51346 0.0
C421 C 0.54426 0.39333 0.50716 0.0
C422 C 0.57693 0.43233 0.51168 0.0
C423 C 0.64691 0.43569 0.51611 0.0
C424 C 0.68343 0.40107 0.51707 0.0
C425 C 0.53774 0.46981 0.51224 0.0
C426 C 0.55283 0.48429 0.48662 0.0
C427 C 0.48406 0.48999 0.53696 0.0
C428 C 0.46809 0.47778 0.56593 0.0
C429 C 0.51773 0.4801 0.59074 0.0
C430 C 0.5026 0.46796 0.61764 0.0
C431 C 0.43783 0.45379 0.62022 0.0
C432 C 0.38801 0.45186 0.59595 0.0
C433 C 0.4029 0.46388 0.56894 0.0
H434 H 0.42622 0.4444 0.64106 0.0
H435 H 0.57439 0.56444 0.38124 0.0
H436 H 0.04947 0.17429 1.00419 0.0
H437 H 0.98688 0.11327 1.00568 0.0
H438 H 0.17286 0.05126 1.01101 0.0
H439 H 0.23598 0.11149 1.0083 0.0
H440 H 0.08752 0.98986 0.96762 0.0
H441 H 0.07688 0.1153 0.08743 0.0
H442 H 0.05489 0.19424 0.13159 0.0
H443 H 0.84652 0.17725 0.10154 0.0
H444 H 0.86759 0.09839 0.05655 0.0
H445 H 0.9458 0.84363 0.02639 0.0
H446 H 0.01038 0.90318 0.02378 0.0
H447 H 0.82648 0.96761 0.01908 0.0
H448 H 0.76131 0.90861 0.02266 0.0
H449 H 0.91252 0.02779 0.06258 0.0
H450 H 0.92513 0.90089 0.94328 0.0
H451 H 0.94911 0.82316 0.89803 0.0
H452 H 0.15808 0.84284 0.92677 0.0
H453 H 0.13459 0.92068 0.97323 0.0
C454 C 0.07711 0.14756 1.00547 0.0
C455 C 0.14764 0.14786 1.00637 0.0
C456 C 0.04123 0.11277 1.00647 0.0
C457 C 0.07515 0.07821 1.00926 0.0
C458 C 0.14565 0.0777 1.00902 0.0
C459 C 0.18163 0.11217 1.0075 0.0
C460 C 0.03708 0.04314 1.01323 0.0
C461 C 0.04994 0.99805 0.9887 0.0
C462 C 0.98722 0.05402 0.04038 0.0
C463 C 0.97395 0.10101 0.06837 0.0
C464 C 0.02641 0.12843 0.09012 0.0
C465 C 0.01411 0.1732 0.1153 0.0
C466 C 0.94933 0.1908 0.11933 0.0
C467 C 0.89668 0.16359 0.09834 0.0
C468 C 0.90878 0.11885 0.073 0.0
C469 C 0.91899 0.8705 0.0249 0.0
C470 C 0.8484 0.8713 0.0246 0.0
C471 C 0.95606 0.90445 0.02324 0.0
C472 C 0.92336 0.93939 0.02047 0.0
C473 C 0.85283 0.94086 0.02104 0.0
C474 C 0.81563 0.90713 0.0231 0.0
C475 C 0.96268 0.97431 0.01682 0.0
C476 C 0.95019 0.01947 0.04152 0.0
C477 C 0.01334 0.96343 0.98998 0.0
C478 C 0.02775 0.91654 0.96209 0.0
C479 C 0.97599 0.88856 0.94025 0.0
C480 C 0.98961 0.8444 0.91431 0.0
C481 C 0.05519 0.82788 0.90945 0.0
C482 C 0.10725 0.8556 0.93062 0.0
C483 C 0.09373 0.89976 0.95683 0.0
H484 H 0.06577 0.79369 0.88928 0.0
H485 H 0.93986 0.22551 0.13871 0.0
H486 H 0.95125 0.18137 0.52034 0.0
H487 H 0.01261 0.11964 0.5215 0.0
H488 H 0.82666 0.04827 0.50872 0.0
H489 H 0.76468 0.11012 0.5082 0.0
H490 H 0.90636 0.04621 0.56096 0.0
H491 H 0.92949 0.0183 0.43757 0.0
H492 H 0.9576 0.03704 0.38877 0.0
H493 H 0.16275 0.06057 0.42462 0.0
H494 H 0.13562 0.04267 0.47404 0.0
H495 H 0.04467 0.83238 0.51327 0.0
H496 H 0.98312 0.89405 0.51211 0.0
H497 H 0.1689 0.96557 0.52479 0.0
H498 H 0.23105 0.90377 0.52528 0.0
H499 H 0.08911 0.96742 0.47248 0.0
H500 H 0.06576 0.9956 0.59605 0.0
H501 H 0.03753 0.97681 0.64481 0.0
H502 H 0.83267 0.95261 0.6085 0.0
H503 H 0.85993 0.9706 0.55913 0.0
C504 C 0.92332 0.15259 0.51779 0.0
C505 C 0.85311 0.15048 0.51377 0.0
C506 C 0.95853 0.11726 0.51831 0.0
C507 C 0.92422 0.07919 0.51477 0.0
C508 C 0.85408 0.07729 0.51135 0.0
C509 C 0.81883 0.11256 0.51078 0.0
C510 C 0.96151 0.04138 0.51476 0.0
C511 C 0.94573 0.02857 0.54133 0.0
C512 C 0.01379 0.01909 0.4896 0.0
C513 C 0.03036 0.02958 0.45975 0.0
C514 C 0.98048 0.02783 0.43524 0.0
C515 C 0.99626 0.03824 0.40743 0.0
C516 C 0.06189 0.0501 0.40365 0.0
C517 C 0.11192 0.05144 0.42762 0.0
C518 C 0.09638 0.04114 0.45552 0.0
C519 C 0.07251 0.86121 0.51584 0.0
C520 C 0.14274 0.86335 0.51979 0.0
C521 C 0.0372 0.89649 0.5153 0.0
C522 C 0.07141 0.93456 0.51877 0.0
C523 C 0.14155 0.93654 0.5222 0.0
C524 C 0.17691 0.90132 0.52279 0.0
C525 C 0.03401 0.97229 0.5187 0.0
C526 C 0.04976 0.98507 0.49212 0.0
C527 C 0.98169 0.99455 0.54383 0.0
C528 C 0.96505 0.98402 0.57366 0.0
C529 C 0.01481 0.98593 0.59827 0.0
C530 C -0.00104 0.97547 0.62605 0.0
C531 C 0.93338 0.96341 0.62969 0.0
C532 C 0.88347 0.9619 0.60561 0.0
C533 C 0.89908 0.97225 0.57774 0.0
H534 H 0.92121 0.95533 0.65122 0.0
H535 H 0.07401 0.05815 0.3821 0.0
H536 H 0.40316 0.14301 0.30343 0.0
H537 H 0.37181 0.15727 0.2532 0.0
H538 H 0.56208 0.22194 0.26159 0.0
H539 H 0.59599 0.20572 0.31047 0.0
H540 H 0.40122 0.26294 0.26106 0.0
H541 H 0.58074 0.14684 0.1997 0.0
H542 H 0.62378 0.07145 0.1838 0.0
H543 H 0.43652 0.01307 0.13217 0.0
H544 H 0.39197 0.08823 0.14838 0.0
H545 H 0.39031 0.32042 0.12189 0.0
H546 H 0.43324 0.29681 0.16507 0.0
H547 H 0.3339 0.16916 0.10517 0.0
H548 H 0.29271 0.19233 0.06145 0.0
H549 H 0.44386 0.15551 0.13112 0.0
H550 H 0.26162 0.25385 0.18256 0.0
H551 H 0.19063 0.32088 0.20159 0.0
H552 H 0.34634 0.4032 0.27312 0.0
H553 H 0.41856 0.33666 0.25434 0.0
C554 C 0.43912 0.15955 0.29431 0.0
C555 C 0.50254 0.17283 0.3111 0.0
C556 C 0.42074 0.16791 0.2657 0.0
C557 C 0.46496 0.19014 0.25351 0.0
C558 C 0.52751 0.20441 0.27053 0.0
C559 C 0.54645 0.19548 0.29878 0.0
C560 C 0.44492 0.19967 0.22367 0.0
C561 C 0.41163 0.23998 0.23267 0.0
C562 C 0.4547 0.16827 0.18665 0.0
C563 C 0.48274 0.12317 0.17573 0.0
C564 C 0.54856 0.11797 0.18528 0.0
C565 C 0.57323 0.07529 0.17617 0.0
C566 C 0.53265 0.03756 0.1573 0.0
C567 C 0.46771 0.04236 0.147 0.0
C568 C 0.44277 0.08497 0.15611 0.0
C569 C 0.37903 0.28695 0.11753 0.0
C570 C 0.33865 0.25815 0.08817 0.0
C571 C 0.40303 0.27358 0.14237 0.0
C572 C 0.38544 0.23159 0.13901 0.0
C573 C 0.34803 0.20178 0.10853 0.0
C574 C 0.32467 0.215 0.08337 0.0
C575 C 0.40284 0.22018 0.16844 0.0
C576 C 0.43443 0.17912 0.15946 0.0
C577 C 0.38865 0.25005 0.20555 0.0
C578 C 0.34588 0.29035 0.21666 0.0
C579 C 0.28102 0.28631 0.20206 0.0
C580 C 0.24049 0.32419 0.21284 0.0
C581 C 0.26412 0.36629 0.23834 0.0
C582 C 0.32822 0.37057 0.25326 0.0
C583 C 0.36894 0.33278 0.2426 0.0
H584 H 0.23261 0.39556 0.24669 0.0
H585 H 0.55151 1.0046 0.15061 0.0
H586 H 0.5469 0.90543 0.26693 0.0
H587 H 0.52122 0.88672 0.31584 0.0
H588 H 0.43347 0.76169 0.23734 0.0
H589 H 0.4607 0.77967 0.18825 0.0
H590 H 0.3517 0.81857 0.30223 0.0
H591 H 0.56734 0.7492 0.26484 0.0
H592 H 0.68792 0.74597 0.25034 0.0
H593 H 0.72914 0.84635 0.36001 0.0
H594 H 0.60849 0.85067 0.37504 0.0
H595 H 0.39411 0.69346 0.41194 0.0
H596 H 0.44276 0.7172 0.36977 0.0
H597 H 0.34455 0.84535 0.42828 0.0
H598 H 0.29569 0.82165 0.47025 0.0
H599 H 0.5228 0.78706 0.37362 0.0
H600 H 0.27444 0.8684 0.36619 0.0
H601 H 0.15233 0.86157 0.37292 0.0
H602 H 0.17679 0.72213 0.34215 0.0
H603 H 0.2987 0.72839 0.3357 0.0
C604 C 0.52227 0.87393 0.26019 0.0
C605 C 0.50554 0.84401 0.2239 0.0
C606 C 0.50796 0.86322 0.28805 0.0
C607 C 0.4756 0.82282 0.28013 0.0
C608 C 0.45859 0.79299 0.24394 0.0
C609 C 0.47423 0.80323 0.21598 0.0
C610 C 0.45729 0.81234 0.30975 0.0
C611 C 0.38914 0.81203 0.31802 0.0
C612 C 0.50618 0.80306 0.32987 0.0
C613 C 0.57872 0.8007 0.32094 0.0
C614 C 0.60197 0.77099 0.28577 0.0
C615 C 0.67037 0.76886 0.27746 0.0
C616 C 0.71615 0.79606 0.3042 0.0
C617 C 0.6936 0.82537 0.33931 0.0
C618 C 0.62521 0.82765 0.34774 0.0
C619 C 0.38437 0.72711 0.41629 0.0
C620 C 0.34175 0.75584 0.44464 0.0
C621 C 0.41224 0.74066 0.39225 0.0
C622 C 0.39687 0.7829 0.39566 0.0
C623 C 0.35685 0.81251 0.42502 0.0
C624 C 0.32934 0.79906 0.44924 0.0
C625 C 0.41707 0.79403 0.3665 0.0
C626 C 0.48547 0.79438 0.35825 0.0
C627 C 0.36845 0.80252 0.34578 0.0
C628 C 0.29557 0.79903 0.35095 0.0
C629 C 0.25363 0.83642 0.36115 0.0
C630 C 0.1845 0.83267 0.36498 0.0
C631 C 0.1568 0.79157 0.3583 0.0
C632 C 0.19819 0.75413 0.34783 0.0
C633 C 0.26735 0.7578 0.34423 0.0
H634 H 0.10327 0.78873 0.36106 0.0
H635 H 0.7691 0.79432 0.29773 0.0
H636 H 0.62594 0.69385 0.90478 0.0
H637 H 0.58116 0.71713 0.86232 0.0
H638 H 0.61258 0.85577 0.94177 0.0
H639 H 0.6705 0.8315 0.98072 0.0
H640 H 0.49101 0.75389 0.85142 0.0
H641 H 0.6173 0.92389 0.9053 0.0
H642 H 0.71296 0.96649 0.94364 0.0
H643 H 0.82353 0.84426 0.90947 0.0
H644 H 0.72881 0.80098 0.87044 0.0
H645 H 0.39031 0.84393 0.73508 0.0
H646 H 0.41316 0.83348 0.78835 0.0
H647 H 0.62442 0.81864 0.76172 0.0
H648 H 0.60189 0.83065 0.70944 0.0
H649 H 0.61414 0.86645 0.83001 0.0
H650 H 0.51242 0.72941 0.74362 0.0
H651 H 0.42594 0.6794 0.70192 0.0
H652 H 0.28812 0.71945 0.79115 0.0
H653 H 0.37264 0.77122 0.83317 0.0
C654 C 0.62353 0.72937 0.91313 0.0
C655 C 0.65066 0.76083 0.94661 0.0
C656 C 0.59713 0.74284 0.88885 0.0
C657 C 0.59451 0.78847 0.89792 0.0
C658 C 0.61657 0.82024 0.93283 0.0
C659 C 0.64765 0.80644 0.95599 0.0
C660 C 0.57253 0.80157 0.8698 0.0
C661 C 0.5183 0.77851 0.84686 0.0
C662 C 0.60728 0.83382 0.86336 0.0
C663 C 0.66585 0.85926 0.88527 0.0
C664 C 0.66228 0.90618 0.90575 0.0
C665 C 0.71622 0.93041 0.92762 0.0
C666 C 0.77417 0.9081 0.92903 0.0
C667 C 0.7786 0.86149 0.90832 0.0
C668 C 0.72486 0.83708 0.88626 0.0
C669 C 0.44155 0.83836 0.74066 0.0
C670 C 0.49434 0.83813 0.71813 0.0
C671 C 0.45461 0.83229 0.77107 0.0
C672 C 0.52055 0.82479 0.77904 0.0
C673 C 0.57317 0.82462 0.75645 0.0
C674 C 0.56028 0.83142 0.72649 0.0
C675 C 0.53541 0.81696 0.81067 0.0
C676 C 0.58737 0.8416 0.83453 0.0
C677 C 0.50052 0.78477 0.81694 0.0
C678 C 0.44862 0.75482 0.79148 0.0
C679 C 0.46325 0.72822 0.75426 0.0
C680 C 0.41449 0.69958 0.73055 0.0
C681 C 0.35124 0.69664 0.74381 0.0
C682 C 0.33668 0.7223 0.78082 0.0
C683 C 0.38495 0.75139 0.80459 0.0
H684 H 0.31368 0.67425 0.72546 0.0
H685 H 0.81551 0.92707 0.94617 0.0
H686 H 0.68567 0.19122 0.55836 0.0
H687 H 0.63727 0.17075 0.60248 0.0
H688 H 0.56021 0.30491 0.66483 0.0
H689 H 0.60694 0.32514 0.6203 0.0
H690 H 0.64556 0.27945 0.70436 0.0
H691 H 0.43424 0.22386 0.63869 0.0
H692 H 0.35711 0.17901 0.58808 0.0
H693 H 0.46682 0.05951 0.56551 0.0
H694 H 0.54318 0.10361 0.61688 0.0
H695 H 0.48545 0.25805 0.84713 0.0
H696 H 0.50695 0.27109 0.79532 0.0
H697 H 0.56213 0.13231 0.73008 0.0
H698 H 0.537 0.1183 0.78112 0.0
H699 H 0.48873 0.15897 0.69124 0.0
H700 H 0.67587 0.21874 0.77225 0.0
H701 H 0.73252 0.26652 0.83042 0.0
H702 H 0.66363 0.38428 0.8266 0.0
H703 H 0.60498 0.33726 0.76888 0.0
C704 C 0.65613 0.21581 0.58056 0.0
C705 C 0.64976 0.25978 0.58567 0.0
C706 C 0.62862 0.20411 0.60595 0.0
C707 C 0.59533 0.23637 0.63713 0.0
C708 C 0.5857 0.27946 0.64105 0.0
C709 C 0.61233 0.29095 0.61554 0.0
C710 C 0.57903 0.22736 0.66795 0.0
C711 C 0.61058 0.25348 0.70166 0.0
C712 C 0.53502 0.19278 0.66429 0.0
C713 C 0.49478 0.167 0.63111 0.0
C714 C 0.44231 0.1881 0.6226 0.0
C715 C 0.3982 0.16275 0.59418 0.0
C716 C 0.40708 0.11645 0.57359 0.0
C717 C 0.46002 0.09537 0.58147 0.0
C718 C 0.50346 0.12046 0.61037 0.0
C719 C 0.50114 0.23003 0.82165 0.0
C720 C 0.50982 0.18709 0.81856 0.0
C721 C 0.51422 0.23772 0.79209 0.0
C722 C 0.53746 0.2029 0.75891 0.0
C723 C 0.54478 0.15983 0.75545 0.0
C724 C 0.53108 0.15199 0.78488 0.0
C725 C 0.55466 0.21133 0.72788 0.0
C726 C 0.52394 0.18489 0.69405 0.0
C727 C 0.59919 0.24598 0.73166 0.0
C728 C 0.63531 0.27434 0.76629 0.0
C729 C 0.67198 0.25482 0.784 0.0
C730 C 0.70445 0.2818 0.81696 0.0
C731 C 0.70147 0.32843 0.8323 0.0
C732 C 0.66589 0.34816 0.81473 0.0
C733 C 0.63297 0.32134 0.78188 0.0
H734 H 0.72698 0.34924 0.85769 0.0
H735 H 0.37304 0.09693 0.55147 0.0
H736 H 0.80758 0.69629 0.06353 0.0
H737 H 0.85634 0.67148 0.10448 0.0
H738 H 0.91975 0.80696 0.17656 0.0
H739 H 0.87612 0.83097 0.13383 0.0
H740 H 0.00723 0.75438 0.18057 0.0
H741 H 0.76426 0.75928 0.18843 0.0
H742 H 0.64993 0.73993 0.16302 0.0
H743 H 0.69197 0.60019 0.12317 0.0
H744 H 0.80672 0.61873 0.1484 0.0
H745 H 0.99302 0.75128 0.3505 0.0
H746 H 0.97106 0.7653 0.2991 0.0
H747 H 0.95303 0.6232 0.22787 0.0
H748 H 0.97764 0.60872 0.27881 0.0
H749 H 0.84789 0.6738 0.22076 0.0
H750 H 0.0894 0.6737 0.22228 0.0
H751 H 0.20134 0.69704 0.25022 0.0
H752 H 0.15862 0.83314 0.27623 0.0
H753 H 0.04597 0.81076 0.24888 0.0
C754 C 0.83404 0.72046 0.08732 0.0
C755 C 0.83883 0.76551 0.09512 0.0
C756 C 0.86096 0.7064 0.11119 0.0
C757 C 0.89014 0.73754 0.1443 0.0
C758 C 0.89738 0.78218 0.15135 0.0
C759 C 0.87217 0.79595 0.12697 0.0
C760 C 0.90879 0.72464 0.17274 0.0
C761 C 0.97212 0.73706 0.18949 0.0
C762 C 0.86355 0.7015 0.18429 0.0
C763 C 0.79413 0.69035 0.16999 0.0
C764 C 0.74911 0.72443 0.17418 0.0
C765 C 0.68426 0.71362 0.15983 0.0
C766 C 0.66375 0.66887 0.14135 0.0
C767 C 0.70793 0.63483 0.13746 0.0
C768 C 0.77281 0.64547 0.15187 0.0
C769 C 0.98569 0.72293 0.3238 0.0
C770 C 0.98767 0.67884 0.31883 0.0
C771 C 0.97272 0.73103 0.29448 0.0
C772 C 0.96092 0.69526 0.25962 0.0
C773 C 0.96199 0.65128 0.25457 0.0
C774 C 0.97567 0.64311 0.2838 0.0
C775 C 0.94588 0.70386 0.22861 0.0
C776 C 0.88314 0.69076 0.21155 0.0
C777 C 0.99123 0.72701 0.21728 0.0
C778 C 0.05904 0.74057 0.23368 0.0
C779 C 0.10365 0.70867 0.23417 0.0
C780 C 0.16729 0.7217 0.24984 0.0
C781 C 0.18711 0.7665 0.26486 0.0
C782 C 0.14323 0.79842 0.26445 0.0
C783 C 0.07951 0.78557 0.24883 0.0
H784 H 0.23649 0.77648 0.2768 0.0
H785 H 0.61361 0.66057 0.13011 0.0
H786 H 0.81804 0.32466 0.47228 0.0
H787 H 0.87085 0.35057 0.43299 0.0
H788 H 0.94391 0.21679 0.36338 0.0
H789 H 0.89623 0.19179 0.40482 0.0
H790 H 0.03024 0.27346 0.36166 0.0
H791 H 0.78754 0.25851 0.34883 0.0
H792 H 0.6724 0.27485 0.37362 0.0
H793 H 0.70379 0.41518 0.41035 0.0
H794 H 0.81947 0.39966 0.386 0.0
H795 H 0.02498 0.26478 0.18825 0.0
H796 H 0.00644 0.25511 0.24187 0.0
H797 H 0.95907 0.39553 0.30485 0.0
H798 H 0.97852 0.40576 0.25138 0.0
H799 H 0.86618 0.34354 0.31448 0.0
H800 H 0.1057 0.35564 0.31888 0.0
H801 H 0.22067 0.3378 0.29408 0.0
H802 H 0.19492 0.20131 0.27172 0.0
H803 H 0.0795 0.21822 0.29617 0.0
C804 C 0.84757 0.30115 0.44956 0.0
C805 C 0.85381 0.25628 0.44207 0.0
C806 C 0.87697 0.31585 0.42661 0.0
C807 C 0.90987 0.2854 0.39449 0.0
C808 C 0.91868 0.24102 0.38784 0.0
C809 C 0.89107 0.22667 0.41144 0.0
C810 C 0.9292 0.29836 0.36615 0.0
C811 C 0.99424 0.28853 0.35121 0.0
C812 C 0.88276 0.31885 0.35282 0.0
C813 C 0.81222 0.32797 0.36583 0.0
C814 C 0.76982 0.29284 0.36215 0.0
C815 C 0.70452 0.30196 0.37617 0.0
C816 C 0.68084 0.34604 0.39364 0.0
C817 C 0.72224 0.38106 0.39684 0.0
C818 C 0.78762 0.37212 0.38287 0.0
C819 C 0.01157 0.29384 0.21351 0.0
C820 C 0.00273 0.33599 0.21514 0.0
C821 C 0.00096 0.28821 0.24427 0.0
C822 C 0.98167 0.32464 0.27751 0.0
C823 C 0.97367 0.36689 0.27947 0.0
C824 C 0.98443 0.37258 0.24873 0.0
C825 C 0.96687 0.31809 0.30967 0.0
C826 C 0.90251 0.32899 0.32522 0.0
C827 C 0.0138 0.29831 0.32329 0.0
C828 C 0.08367 0.28815 0.30913 0.0
C829 C 0.12437 0.32175 0.30849 0.0
C830 C 0.18965 0.31181 0.2945 0.0
C831 C 0.21498 0.2684 0.28116 0.0
C832 C 0.17519 0.23491 0.28201 0.0
C833 C 0.10988 0.24468 0.29602 0.0
H834 H 0.26546 0.26076 0.27027 0.0
H835 H 0.6304 0.35306 0.40466 0.0
H836 H 0.00711 0.26814 0.68282 0.0
H837 H 0.03432 0.25493 0.73411 0.0
H838 H 0.03998 0.39747 0.80571 0.0
H839 H 0.0127 0.41099 0.75451 0.0
H840 H 0.14557 0.35316 0.8179 0.0
H841 H 0.90432 0.33634 0.80355 0.0
H842 H 0.80473 0.30362 0.76479 0.0
H843 H 0.86809 0.17182 0.74213 0.0
H844 H 0.96908 0.20359 0.77991 0.0
H845 H 0.18165 0.32586 0.97282 0.0
H846 H 0.13077 0.35086 0.93252 0.0
H847 H 0.08076 0.21388 0.8566 0.0
H848 H 0.12479 0.18963 0.89902 0.0
H849 H 0.99152 0.26196 0.85002 0.0
H850 H 0.23444 0.27119 0.85271 0.0
H851 H 0.34284 0.29655 0.88464 0.0
H852 H 0.28428 0.43371 0.92377 0.0
H853 H 0.17528 0.40912 0.89223 0.0
C854 C 0.01361 0.2967 0.70952 0.0
C855 C 0.00725 0.34063 0.71454 0.0
C856 C 0.02943 0.2891 0.73881 0.0
C857 C 0.03846 0.32522 0.77389 0.0
C858 C 0.03331 0.3691 0.77892 0.0
C859 C 0.01774 0.37675 0.74958 0.0
C860 C 0.05191 0.3171 0.8054 0.0
C861 C 0.11142 0.33382 0.82531 0.0
C862 C 0.00807 0.29104 0.81459 0.0
C863 C 0.94462 0.27234 0.79432 0.0
C864 C 0.89708 0.30038 0.79027 0.0
C865 C 0.84058 0.28198 0.76831 0.0
C866 C 0.83041 0.23565 0.75079 0.0
C867 C 0.87622 0.20768 0.75559 0.0
C868 C 0.93314 0.22587 0.77726 0.0
C869 C 0.15726 0.30133 0.94841 0.0
C870 C 0.15624 0.25582 0.9395 0.0
C871 C 0.12928 0.31554 0.92484 0.0
C872 C 0.10376 0.28416 0.89074 0.0
C873 C 0.10024 0.23893 0.88256 0.0
C874 C 0.1258 0.22501 0.90677 0.0
C875 C 0.0859 0.29742 0.86236 0.0
C876 C 0.02547 0.28173 0.84298 0.0
C877 C 0.12972 0.32353 0.85305 0.0
C878 C 0.1966 0.33834 0.87032 0.0
C879 C 0.2448 0.30675 0.86805 0.0
C880 C 0.30626 0.32098 0.88613 0.0
C881 C 0.32035 0.36672 0.9063 0.0
C882 C 0.27325 0.3983 0.90815 0.0
C883 C 0.21169 0.38425 0.8901 0.0
H884 H 0.36777 0.37769 0.92048 0.0
H885 H 0.78692 0.22142 0.73357 0.0
H886 H 0.18419 0.68959 0.5627 0.0
H887 H 0.13701 0.66851 0.60666 0.0
H888 H 0.05036 0.80034 0.6668 0.0
H889 H 0.09776 0.82147 0.62297 0.0
H890 H 0.12758 0.78252 0.70955 0.0
H891 H 0.92838 0.70207 0.63561 0.0
H892 H 0.86391 0.64649 0.58296 0.0
H893 H 0.00798 0.54479 0.56775 0.0
H894 H 0.07153 0.59937 0.62121 0.0
H895 H 0.96266 0.75443 0.847 0.0
H896 H 0.98548 0.76557 0.79465 0.0
H897 H 0.07176 0.6333 0.73807 0.0
H898 H 0.04617 0.62095 0.78989 0.0
H899 H 0.99651 0.64975 0.6931 0.0
H900 H 0.16835 0.72865 0.78028 0.0
H901 H 0.21255 0.78239 0.84063 0.0
H902 H 0.1157 0.89056 0.83265 0.0
H903 H 0.07003 0.83739 0.77252 0.0
C904 C 0.15309 0.71351 0.58449 0.0
C905 C 0.14446 0.75719 0.58932 0.0
C906 C 0.12599 0.70141 0.60971 0.0
C907 C 0.09008 0.73284 0.64023 0.0
C908 C 0.07798 0.7755 0.64363 0.0
C909 C 0.10496 0.78754 0.61852 0.0
C910 C 0.0737 0.72388 0.67112 0.0
C911 C 0.09801 0.7538 0.70597 0.0
C912 C 0.03723 0.68579 0.66661 0.0
C913 C 0.00497 0.65476 0.63191 0.0
C914 C 0.94663 0.66795 0.62067 0.0
C915 C 0.90973 0.63649 0.59108 0.0
C916 C 0.93151 0.59203 0.57222 0.0
C917 C 0.99074 0.57908 0.58259 0.0
C918 C 0.02702 0.61017 0.61261 0.0
C919 C 0.98584 0.72739 0.82349 0.0
C920 C 0.00347 0.68706 0.82337 0.0
C921 C -0.00049 0.73404 0.79352 0.0
C922 C 0.03181 0.70069 0.76266 0.0
C923 C 0.04751 0.65978 0.76175 0.0
C924 C 0.03346 0.653 0.7917 0.0
C925 C 0.04946 0.70866 0.73148 0.0
C926 C 0.02607 0.67847 0.69665 0.0
C927 C 0.08665 0.74669 0.73614 0.0
C928 C 0.11545 0.77893 0.77194 0.0
C929 C 0.15632 0.76387 0.79145 0.0
C930 C 0.1816 0.79423 0.82562 0.0
C931 C 0.16693 0.83984 0.84045 0.0
C932 C 0.12705 0.85521 0.82111 0.0
C933 C 0.1015 0.82497 0.78696 0.0
H934 H 0.18648 0.86328 0.86692 0.0
H935 H 0.90267 0.56767 0.54945 0.0
loop_
_geom_bond_atom_site_label_1
_geom_bond_atom_site_label_2
_geom_bond_distance
_geom_bond_site_symmetry_2
_ccdc_geom_bond_type
Tb0 N31 2.660 . S
Tb0 N38 2.600 . S
Tb0 O44 2.546 . S
Tb0 O45 2.610 . S
Tb0 O47 2.320 . S
Tb0 O48 2.552 . S
Tb0 O49 2.413 . S
Tb0 O51 2.362 1_554 S
Tb0 O52 2.421 . S
Tb0 C64 2.833 . S
C1 C4 1.432 . S
C1 C5 1.414 . S
C1 N8 1.359 . S
C2 C4 1.417 1_554 S
C2 C6 1.432 . S
C2 C14 1.410 . S
C3 C5 1.444 . S
C3 C6 1.317 1_556 S
C3 H26 0.929 . S
C4 C1 1.432 . S
C4 C2 1.417 1_556 S
C4 N12 1.360 . S
C5 C1 1.414 . S
C5 C3 1.444 . S
C5 C10 1.385 . S
C6 C2 1.432 . S
C6 C3 1.317 1_554 S
C6 H18 0.930 . S
C7 C9 1.392 . S
C7 C10 1.370 . S
C7 H19 0.931 . S
N8 C1 1.359 . S
N8 C9 1.327 . S
N8 Tb11 2.600 . S
C9 C7 1.392 . S
C9 N8 1.327 . S
C9 H16 0.930 . S
C10 C5 1.385 . S
C10 C7 1.370 . S
C10 H29 0.930 . S
Tb11 N8 2.600 . S
Tb11 N12 2.660 . S
Tb11 O45 2.362 1_556 S
Tb11 O46 2.421 . S
Tb11 O50 2.546 . S
Tb11 O51 2.610 . S
Tb11 O53 2.320 . S
Tb11 O54 2.552 . S
Tb11 O55 2.413 . S
Tb11 C75 2.833 . S
N12 C4 1.360 . S
N12 Tb11 2.660 . S
N12 C13 1.305 1_556 S
C13 N12 1.305 1_554 S
C13 C15 1.407 . S
C13 H20 0.930 . S
C14 C2 1.410 . S
C14 C15 1.345 . S
C14 H22 0.930 . S
C15 C13 1.407 . S
C15 C14 1.345 . S
C15 H17 0.930 . S
H16 C9 0.930 . S
H17 C15 0.930 . S
H18 C6 0.930 . S
H19 C7 0.931 . S
H20 C13 0.930 . S
H21 C35 0.930 . S
H22 C14 0.930 . S
H23 C41 0.930 . S
H24 C32 0.930 . S
H25 C39 0.931 . S
H26 C3 0.929 . S
H27 C33 0.930 . S
H28 C66 0.930 . S
H29 C10 0.930 . S
H30 C65 0.929 . S
N31 Tb0 2.660 . S
N31 C32 1.305 1_554 S
N31 C36 1.360 . S
C32 H24 0.930 . S
C32 N31 1.305 1_556 S
C32 C35 1.407 1_455 S
C33 H27 0.930 . S
C33 C34 1.410 . S
C33 C35 1.345 . S
C34 C33 1.410 . S
C34 C36 1.417 1_656 S
C34 C66 1.432 . S
C35 H21 0.930 . S
C35 C32 1.407 1_655 S
C35 C33 1.345 . S
C36 N31 1.360 . S
C36 C34 1.417 1_454 S
C36 C40 1.432 . S
H37 C42 0.930 . S
N38 Tb0 2.600 . S
N38 C40 1.359 . S
N38 C41 1.327 . S
C39 H25 0.931 . S
C39 C41 1.392 . S
C39 C42 1.370 . S
C40 C36 1.432 . S
C40 N38 1.359 . S
C40 C43 1.414 . S
C41 H23 0.930 . S
C41 N38 1.327 . S
C41 C39 1.392 . S
C42 H37 0.930 . S
C42 C39 1.370 . S
C42 C43 1.385 . S
C43 C40 1.414 . S
C43 C42 1.385 . S
C43 C65 1.444 1_455 S
O44 Tb0 2.546 . S
O44 C64 1.251 . S
O45 Tb0 2.610 . S
O45 Tb11 2.362 1_554 S
O45 C56 1.283 . S
O46 Tb11 2.421 . S
O46 C63 1.262 . S
O47 Tb0 2.320 . S
O47 C63 1.260 1_554 S
O48 Tb0 2.552 . S
O48 C56 1.243 . S
O49 Tb0 2.413 . S
O49 C64 1.256 . S
O50 Tb11 2.546 . S
O50 C75 1.251 . S
O51 Tb0 2.362 1_556 S
O51 Tb11 2.610 . S
O51 C67 1.283 . S
O52 Tb0 2.421 . S
O52 C74 1.262 . S
O53 Tb11 2.320 . S
O53 C74 1.260 1_556 S
O54 Tb11 2.552 . S
O54 C67 1.243 . S
O55 Tb11 2.413 . S
O55 C75 1.256 . S
C56 O45 1.283 . S
C56 O48 1.243 . S
C57 C59 1.382 . S
C57 C61 1.393 . S
C57 C64 1.500 . S
C58 C59 1.400 . S
C58 C60 1.384 . S
C59 C57 1.382 . S
C59 C58 1.400 . S
C59 H76 0.930 . S
C60 C58 1.384 . S
C60 C62 1.392 . S
C60 H77 0.931 . S
C61 C57 1.393 . S
C61 C62 1.401 . S
C61 H78 0.930 . S
C62 C60 1.392 . S
C62 C61 1.401 . S
C62 H79 0.930 . S
C63 O46 1.262 . S
C63 O47 1.260 1_556 S
C64 Tb0 2.833 . S
C64 O44 1.251 . S
C64 O49 1.256 . S
C64 C57 1.500 . S
C65 H30 0.929 . S
C65 C43 1.444 1_655 S
C65 C66 1.317 1_554 S
C66 H28 0.930 . S
C66 C34 1.432 . S
C66 C65 1.317 1_556 S
C67 O51 1.283 . S
C67 O54 1.243 . S
C68 C69 1.382 . S
C68 C72 1.393 . S
C68 C75 1.500 . S
C69 C68 1.382 . S
C69 C70 1.400 . S
C69 H80 0.930 . S
C70 C69 1.400 . S
C70 C71 1.384 . S
C71 C70 1.384 . S
C71 C73 1.392 . S
C71 H81 0.931 . S
C72 C68 1.393 . S
C72 C73 1.401 . S
C72 H82 0.930 . S
C73 C71 1.392 . S
C73 C72 1.401 . S
C73 H83 0.930 . S
C74 O52 1.262 . S
C74 O53 1.260 1_554 S
C75 Tb11 2.833 . S
C75 O50 1.251 . S
C75 O55 1.256 . S
C75 C68 1.500 . S
H76 C59 0.930 . S
H77 C60 0.931 . S
H78 C61 0.930 . S
H79 C62 0.930 . S
H80 C69 0.930 . S
H81 C71 0.931 . S
H82 C72 0.930 . S
H83 C73 0.930 . S
Tb84 N115 2.660 . S
Tb84 N122 2.600 . S
Tb84 O128 2.546 . S
Tb84 O129 2.610 . S
Tb84 O131 2.320 . S
Tb84 O132 2.552 . S
Tb84 O133 2.413 . S
Tb84 O135 2.362 1_554 S
Tb84 O136 2.421 . S
Tb84 C148 2.833 . S
C85 C88 1.432 . S
C85 C89 1.414 . S
C85 N92 1.359 . S
C86 C88 1.417 1_454 S
C86 C90 1.432 . S
C86 C98 1.410 . S
C87 C89 1.444 1_455 S
C87 C90 1.317 1_556 S
C87 H110 0.929 . S
C88 C85 1.432 . S
C88 C86 1.417 1_656 S
C88 N96 1.360 . S
C89 C85 1.414 . S
C89 C87 1.444 1_655 S
C89 C94 1.385 . S
C90 C86 1.432 . S
C90 C87 1.317 1_554 S
C90 H102 0.930 . S
C91 C93 1.392 . S
C91 C94 1.370 . S
C91 H103 0.931 . S
N92 C85 1.359 . S
N92 C93 1.327 . S
N92 Tb95 2.600 . S
C93 C91 1.392 . S
C93 N92 1.327 . S
C93 H100 0.930 . S
C94 C89 1.385 . S
C94 C91 1.370 . S
C94 H113 0.930 . S
Tb95 N92 2.600 . S
Tb95 N96 2.660 . S
Tb95 O129 2.362 1_556 S
Tb95 O130 2.421 . S
Tb95 O134 2.546 . S
Tb95 O135 2.610 . S
Tb95 O137 2.320 . S
Tb95 O138 2.552 . S
Tb95 O139 2.413 . S
Tb95 C159 2.833 . S
N96 C88 1.360 . S
N96 Tb95 2.660 . S
N96 C97 1.305 1_556 S
C97 N96 1.305 1_554 S
C97 C99 1.407 1_655 S
C97 H104 0.930 . S
C98 C86 1.410 . S
C98 C99 1.345 . S
C98 H106 0.930 . S
C99 C97 1.407 1_455 S
C99 C98 1.345 . S
C99 H101 0.930 . S
H100 C93 0.930 . S
H101 C99 0.930 . S
H102 C90 0.930 . S
H103 C91 0.931 . S
H104 C97 0.930 . S
H105 C119 0.930 . S
H106 C98 0.930 . S
H107 C125 0.930 . S
H108 C116 0.930 . S
H109 C123 0.931 . S
H110 C87 0.929 . S
H111 C117 0.930 . S
H112 C150 0.930 . S
H113 C94 0.930 . S
H114 C149 0.929 . S
N115 Tb84 2.660 . S
N115 C116 1.305 1_554 S
N115 C120 1.360 . S
C116 H108 0.930 . S
C116 N115 1.305 1_556 S
C116 C119 1.407 . S
C117 H111 0.930 . S
C117 C118 1.410 . S
C117 C119 1.345 . S
C118 C117 1.410 . S
C118 C120 1.417 1_556 S
C118 C150 1.432 . S
C119 H105 0.930 . S
C119 C116 1.407 . S
C119 C117 1.345 . S
C120 N115 1.360 . S
C120 C118 1.417 1_554 S
C120 C124 1.432 . S
H121 C126 0.930 . S
N122 Tb84 2.600 . S
N122 C124 1.359 . S
N122 C125 1.327 . S
C123 H109 0.931 . S
C123 C125 1.392 . S
C123 C126 1.370 . S
C124 C120 1.432 . S
C124 N122 1.359 . S
C124 C127 1.414 . S
C125 H107 0.930 . S
C125 N122 1.327 . S
C125 C123 1.392 . S
C126 H121 0.930 . S
C126 C123 1.370 . S
C126 C127 1.385 . S
C127 C124 1.414 . S
C127 C126 1.385 . S
C127 C149 1.444 . S
O128 Tb84 2.546 . S
O128 C148 1.251 . S
O129 Tb84 2.610 . S
O129 Tb95 2.362 1_554 S
O129 C140 1.283 . S
O130 Tb95 2.421 . S
O130 C147 1.262 . S
O131 Tb84 2.320 . S
O131 C147 1.260 1_554 S
O132 Tb84 2.552 . S
O132 C140 1.243 . S
O133 Tb84 2.413 . S
O133 C148 1.256 . S
O134 Tb95 2.546 . S
O134 C159 1.251 . S
O135 Tb84 2.362 1_556 S
O135 Tb95 2.610 . S
O135 C151 1.283 . S
O136 Tb84 2.421 . S
O136 C158 1.262 . S
O137 Tb95 2.320 . S
O137 C158 1.260 1_556 S
O138 Tb95 2.552 . S
O138 C151 1.243 . S
O139 Tb95 2.413 . S
O139 C159 1.256 . S
C140 O129 1.283 . S
C140 O132 1.243 . S
C141 C143 1.382 . S
C141 C145 1.393 . S
C141 C148 1.500 . S
C142 C143 1.400 . S
C142 C144 1.384 . S
C143 C141 1.382 . S
C143 C142 1.400 . S
C143 H160 0.930 . S
C144 C142 1.384 . S
C144 C146 1.392 . S
C144 H161 0.931 . S
C145 C141 1.393 . S
C145 C146 1.401 . S
C145 H162 0.930 . S
C146 C144 1.392 . S
C146 C145 1.401 . S
C146 H163 0.930 . S
C147 O130 1.262 . S
C147 O131 1.260 1_556 S
C148 Tb84 2.833 . S
C148 O128 1.251 . S
C148 O133 1.256 . S
C148 C141 1.500 . S
C149 H114 0.929 . S
C149 C127 1.444 . S
C149 C150 1.317 1_554 S
C150 H112 0.930 . S
C150 C118 1.432 . S
C150 C149 1.317 1_556 S
C151 O135 1.283 . S
C151 O138 1.243 . S
C152 C153 1.382 . S
C152 C156 1.393 . S
C152 C159 1.500 . S
C153 C152 1.382 . S
C153 C154 1.400 . S
C153 H164 0.930 . S
C154 C153 1.400 . S
C154 C155 1.384 . S
C155 C154 1.384 . S
C155 C157 1.392 . S
C155 H165 0.931 . S
C156 C152 1.393 . S
C156 C157 1.401 . S
C156 H166 0.930 . S
C157 C155 1.392 . S
C157 C156 1.401 . S
C157 H167 0.930 . S
C158 O136 1.262 . S
C158 O137 1.260 1_554 S
C159 Tb95 2.833 . S
C159 O134 1.251 . S
C159 O139 1.256 . S
C159 C152 1.500 . S
H160 C143 0.930 . S
H161 C144 0.931 . S
H162 C145 0.930 . S
H163 C146 0.930 . S
H164 C153 0.930 . S
H165 C155 0.931 . S
H166 C156 0.930 . S
H167 C157 0.930 . S
Tb168 N199 2.660 . S
Tb168 N206 2.600 . S
Tb168 O212 2.546 . S
Tb168 O213 2.610 . S
Tb168 O215 2.320 . S
Tb168 O216 2.552 . S
Tb168 O217 2.413 . S
Tb168 O219 2.362 . S
Tb168 O220 2.421 . S
Tb168 C232 2.833 . S
C169 C172 1.432 . S
C169 C173 1.414 . S
C169 N176 1.359 . S
C170 C172 1.417 . S
C170 C174 1.432 . S
C170 C182 1.410 . S
C171 C173 1.444 . S
C171 C174 1.317 . S
C171 H194 0.929 . S
C172 C169 1.432 . S
C172 C170 1.417 . S
C172 N180 1.360 . S
C173 C169 1.414 . S
C173 C171 1.444 . S
C173 C178 1.385 . S
C174 C170 1.432 . S
C174 C171 1.317 . S
C174 H186 0.930 . S
C175 C177 1.392 . S
C175 C178 1.370 . S
C175 H187 0.931 . S
N176 C169 1.359 . S
N176 C177 1.327 . S
N176 Tb179 2.600 . S
C177 C175 1.392 . S
C177 N176 1.327 . S
C177 H184 0.930 . S
C178 C173 1.385 . S
C178 C175 1.370 . S
C178 H197 0.930 . S
Tb179 N176 2.600 . S
Tb179 N180 2.660 . S
Tb179 O213 2.362 . S
Tb179 O214 2.421 . S
Tb179 O218 2.546 . S
Tb179 O219 2.610 . S
Tb179 O221 2.320 . S
Tb179 O222 2.552 . S
Tb179 O223 2.413 . S
Tb179 C243 2.833 . S
N180 C172 1.360 . S
N180 Tb179 2.660 . S
N180 C181 1.305 . S
C181 N180 1.305 . S
C181 C183 1.407 . S
C181 H188 0.930 . S
C182 C170 1.410 . S
C182 C183 1.345 . S
C182 H190 0.930 . S
C183 C181 1.407 . S
C183 C182 1.345 . S
C183 H185 0.930 . S
H184 C177 0.930 . S
H185 C183 0.930 . S
H186 C174 0.930 . S
H187 C175 0.931 . S
H188 C181 0.930 . S
H189 C203 0.930 . S
H190 C182 0.930 . S
H191 C209 0.930 . S
H192 C200 0.930 . S
H193 C207 0.931 . S
H194 C171 0.929 . S
H195 C201 0.930 . S
H196 C234 0.930 . S
H197 C178 0.930 . S
H198 C233 0.929 . S
N199 Tb168 2.660 . S
N199 C200 1.305 . S
N199 C204 1.360 . S
C200 H192 0.930 . S
C200 N199 1.305 . S
C200 C203 1.407 1_455 S
C201 H195 0.930 . S
C201 C202 1.410 . S
C201 C203 1.345 . S
C202 C201 1.410 . S
C202 C204 1.417 1_655 S
C202 C234 1.432 . S
C203 H189 0.930 . S
C203 C200 1.407 1_655 S
C203 C201 1.345 . S
C204 N199 1.360 . S
C204 C202 1.417 1_455 S
C204 C208 1.432 . S
H205 C210 0.930 . S
N206 Tb168 2.600 . S
N206 C208 1.359 . S
N206 C209 1.327 . S
C207 H193 0.931 . S
C207 C209 1.392 . S
C207 C210 1.370 . S
C208 C204 1.432 . S
C208 N206 1.359 . S
C208 C211 1.414 . S
C209 H191 0.930 . S
C209 N206 1.327 . S
C209 C207 1.392 . S
C210 H205 0.930 . S
C210 C207 1.370 . S
C210 C211 1.385 . S
C211 C208 1.414 . S
C211 C210 1.385 . S
C211 C233 1.444 1_455 S
O212 Tb168 2.546 . S
O212 C232 1.251 . S
O213 Tb168 2.610 . S
O213 Tb179 2.362 . S
O213 C224 1.283 . S
O214 Tb179 2.421 . S
O214 C231 1.262 . S
O215 Tb168 2.320 . S
O215 C231 1.260 . S
O216 Tb168 2.552 . S
O216 C224 1.243 . S
O217 Tb168 2.413 . S
O217 C232 1.256 . S
O218 Tb179 2.546 . S
O218 C243 1.251 . S
O219 Tb168 2.362 . S
O219 Tb179 2.610 . S
O219 C235 1.283 . S
O220 Tb168 2.421 . S
O220 C242 1.262 . S
O221 Tb179 2.320 . S
O221 C242 1.260 . S
O222 Tb179 2.552 . S
O222 C235 1.243 . S
O223 Tb179 2.413 . S
O223 C243 1.256 . S
C224 O213 1.283 . S
C224 O216 1.243 . S
C225 C227 1.382 . S
C225 C229 1.393 . S
C225 C232 1.500 . S
C226 C227 1.400 . S
C226 C228 1.384 . S
C227 C225 1.382 . S
C227 C226 1.400 . S
C227 H244 0.930 . S
C228 C226 1.384 . S
C228 C230 1.392 . S
C228 H245 0.931 . S
C229 C225 1.393 . S
C229 C230 1.401 . S
C229 H246 0.930 . S
C230 C228 1.392 . S
C230 C229 1.401 . S
C230 H247 0.930 . S
C231 O214 1.262 . S
C231 O215 1.260 . S
C232 Tb168 2.833 . S
C232 O212 1.251 . S
C232 O217 1.256 . S
C232 C225 1.500 . S
C233 H198 0.929 . S
C233 C211 1.444 1_655 S
C233 C234 1.317 . S
C234 H196 0.930 . S
C234 C202 1.432 . S
C234 C233 1.317 . S
C235 O219 1.283 . S
C235 O222 1.243 . S
C236 C237 1.382 . S
C236 C240 1.393 . S
C236 C243 1.500 . S
C237 C236 1.382 . S
C237 C238 1.400 . S
C237 H248 0.930 . S
C238 C237 1.400 . S
C238 C239 1.384 . S
C239 C238 1.384 . S
C239 C241 1.392 . S
C239 H249 0.931 . S
C240 C236 1.393 . S
C240 C241 1.401 . S
C240 H250 0.930 . S
C241 C239 1.392 . S
C241 C240 1.401 . S
C241 H251 0.930 . S
C242 O220 1.262 . S
C242 O221 1.260 . S
C243 Tb179 2.833 . S
C243 O218 1.251 . S
C243 O223 1.256 . S
C243 C236 1.500 . S
H244 C227 0.930 . S
H245 C228 0.931 . S
H246 C229 0.930 . S
H247 C230 0.930 . S
H248 C237 0.930 . S
H249 C239 0.931 . S
H250 C240 0.930 . S
H251 C241 0.930 . S
Tb252 N283 2.660 . S
Tb252 N290 2.600 . S
Tb252 O296 2.546 . S
Tb252 O297 2.610 . S
Tb252 O299 2.320 . S
Tb252 O300 2.552 . S
Tb252 O301 2.413 . S
Tb252 O303 2.362 . S
Tb252 O304 2.421 . S
Tb252 C316 2.833 . S
C253 C256 1.432 . S
C253 C257 1.414 . S
C253 N260 1.359 . S
C254 C256 1.417 1_455 S
C254 C258 1.432 . S
C254 C266 1.410 . S
C255 C257 1.444 1_455 S
C255 C258 1.317 . S
C255 H278 0.929 . S
C256 C253 1.432 . S
C256 C254 1.417 1_655 S
C256 N264 1.360 . S
C257 C253 1.414 . S
C257 C255 1.444 1_655 S
C257 C262 1.385 . S
C258 C254 1.432 . S
C258 C255 1.317 . S
C258 H270 0.930 . S
C259 C261 1.392 . S
C259 C262 1.370 . S
C259 H271 0.931 . S
N260 C253 1.359 . S
N260 C261 1.327 . S
N260 Tb263 2.600 . S
C261 C259 1.392 . S
C261 N260 1.327 . S
C261 H268 0.930 . S
C262 C257 1.385 . S
C262 C259 1.370 . S
C262 H281 0.930 . S
Tb263 N260 2.600 . S
Tb263 N264 2.660 . S
Tb263 O297 2.362 . S
Tb263 O298 2.421 . S
Tb263 O302 2.546 . S
Tb263 O303 2.610 . S
Tb263 O305 2.320 . S
Tb263 O306 2.552 . S
Tb263 O307 2.413 . S
Tb263 C327 2.833 . S
N264 C256 1.360 . S
N264 Tb263 2.660 . S
N264 C265 1.305 . S
C265 N264 1.305 . S
C265 C267 1.407 1_655 S
C265 H272 0.930 . S
C266 C254 1.410 . S
C266 C267 1.345 . S
C266 H274 0.930 . S
C267 C265 1.407 1_455 S
C267 C266 1.345 . S
C267 H269 0.930 . S
H268 C261 0.930 . S
H269 C267 0.930 . S
H270 C258 0.930 . S
H271 C259 0.931 . S
H272 C265 0.930 . S
H273 C287 0.930 . S
H274 C266 0.930 . S
H275 C293 0.930 . S
H276 C284 0.930 . S
H277 C291 0.931 . S
H278 C255 0.929 . S
H279 C285 0.930 . S
H280 C318 0.930 . S
H281 C262 0.930 . S
H282 C317 0.929 . S
N283 Tb252 2.660 . S
N283 C284 1.305 . S
N283 C288 1.360 . S
C284 H276 0.930 . S
C284 N283 1.305 . S
C284 C287 1.407 . S
C285 H279 0.930 . S
C285 C286 1.410 . S
C285 C287 1.345 . S
C286 C285 1.410 . S
C286 C288 1.417 . S
C286 C318 1.432 . S
C287 H273 0.930 . S
C287 C284 1.407 . S
C287 C285 1.345 . S
C288 N283 1.360 . S
C288 C286 1.417 . S
C288 C292 1.432 . S
H289 C294 0.930 . S
N290 Tb252 2.600 . S
N290 C292 1.359 . S
N290 C293 1.327 . S
C291 H277 0.931 . S
C291 C293 1.392 . S
C291 C294 1.370 . S
C292 C288 1.432 . S
C292 N290 1.359 . S
C292 C295 1.414 . S
C293 H275 0.930 . S
C293 N290 1.327 . S
C293 C291 1.392 . S
C294 H289 0.930 . S
C294 C291 1.370 . S
C294 C295 1.385 . S
C295 C292 1.414 . S
C295 C294 1.385 . S
C295 C317 1.444 . S
O296 Tb252 2.546 . S
O296 C316 1.251 . S
O297 Tb252 2.610 . S
O297 Tb263 2.362 . S
O297 C308 1.283 . S
O298 Tb263 2.421 . S
O298 C315 1.262 . S
O299 Tb252 2.320 . S
O299 C315 1.260 . S
O300 Tb252 2.552 . S
O300 C308 1.243 . S
O301 Tb252 2.413 . S
O301 C316 1.256 . S
O302 Tb263 2.546 . S
O302 C327 1.251 . S
O303 Tb252 2.362 . S
O303 Tb263 2.610 . S
O303 C319 1.283 . S
O304 Tb252 2.421 . S
O304 C326 1.262 . S
O305 Tb263 2.320 . S
O305 C326 1.260 . S
O306 Tb263 2.552 . S
O306 C319 1.243 . S
O307 Tb263 2.413 . S
O307 C327 1.256 . S
C308 O297 1.283 . S
C308 O300 1.243 . S
C309 C311 1.382 . S
C309 C313 1.393 . S
C309 C316 1.500 . S
C310 C311 1.400 . S
C310 C312 1.384 . S
C311 C309 1.382 . S
C311 C310 1.400 . S
C311 H328 0.930 . S
C312 C310 1.384 . S
C312 C314 1.392 . S
C312 H329 0.931 . S
C313 C309 1.393 . S
C313 C314 1.401 . S
C313 H330 0.930 . S
C314 C312 1.392 . S
C314 C313 1.401 . S
C314 H331 0.930 . S
C315 O298 1.262 . S
C315 O299 1.260 . S
C316 Tb252 2.833 . S
C316 O296 1.251 . S
C316 O301 1.256 . S
C316 C309 1.500 . S
C317 H282 0.929 . S
C317 C295 1.444 . S
C317 C318 1.317 . S
C318 H280 0.930 . S
C318 C286 1.432 . S
C318 C317 1.317 . S
C319 O303 1.283 . S
C319 O306 1.243 . S
C320 C321 1.382 . S
C320 C324 1.393 . S
C320 C327 1.500 . S
C321 C320 1.382 . S
C321 C322 1.400 . S
C321 H332 0.930 . S
C322 C321 1.400 . S
C322 C323 1.384 . S
C323 C322 1.384 . S
C323 C325 1.392 . S
C323 H333 0.931 . S
C324 C320 1.393 . S
C324 C325 1.401 . S
C324 H334 0.930 . S
C325 C323 1.392 . S
C325 C324 1.401 . S
C325 H335 0.930 . S
C326 O304 1.262 . S
C326 O305 1.260 . S
C327 Tb263 2.833 . S
C327 O302 1.251 . S
C327 O307 1.256 . S
C327 C320 1.500 . S
H328 C311 0.930 . S
H329 C312 0.931 . S
H330 C313 0.930 . S
H331 C314 0.930 . S
H332 C321 0.930 . S
H333 C323 0.931 . S
H334 C324 0.930 . S
H335 C325 0.930 . S
H336 C354 0.951 . S
H337 C356 0.951 . S
H338 C358 0.950 . S
H339 C359 0.950 . S
H340 C361 0.934 . S
H341 C364 0.950 . S
H342 C365 0.950 . S
H343 C367 0.950 . S
H344 C368 0.950 . S
H345 C369 0.951 . S
H346 C371 0.951 . S
H347 C373 0.950 . S
H348 C374 0.950 . S
H349 C376 0.950 . S
H350 C379 0.950 . S
H351 C380 0.950 . S
H352 C382 0.950 . S
H353 C383 0.950 . S
C354 H336 0.951 . S
C354 C355 1.365 . S
C354 C356 1.388 . S
C355 C354 1.365 . S
C355 C359 1.385 1_554 S
C356 H337 0.951 . S
C356 C354 1.388 . S
C356 C357 1.360 1_554 S
C357 C356 1.360 1_556 S
C357 C358 1.425 . S
C357 C360 1.506 . S
C358 H338 0.950 . S
C358 C357 1.425 . S
C358 C359 1.374 . S
C359 H339 0.950 . S
C359 C355 1.385 1_556 S
C359 C358 1.374 . S
C360 C357 1.506 . S
C360 C361 1.375 1_556 S
C360 C362 1.377 1_556 S
C361 H340 0.934 . S
C361 C360 1.375 1_554 S
C361 C377 1.392 . S
C362 C360 1.377 1_554 S
C362 C363 1.524 1_554 S
C362 C376 1.375 . S
C363 C362 1.524 1_556 S
C363 C364 1.397 . S
C363 C368 1.363 1_556 S
C364 H341 0.950 . S
C364 C363 1.397 . S
C364 C365 1.334 . S
C365 H342 0.950 . S
C365 C364 1.334 . S
C365 C366 1.287 . S
C366 C365 1.287 . S
C366 C367 1.524 1_556 S
C366 H385 0.913 . S
C367 H343 0.950 . S
C367 C366 1.524 1_554 S
C367 C368 1.415 . S
C368 H344 0.950 . S
C368 C363 1.363 1_554 S
C368 C367 1.415 . S
C369 H345 0.951 . S
C369 C370 1.366 1_556 S
C369 C371 1.388 . S
C370 C369 1.366 1_554 S
C370 C374 1.385 . S
C371 H346 0.951 . S
C371 C369 1.388 . S
C371 C372 1.366 1_556 S
C372 C371 1.366 1_554 S
C372 C373 1.414 . S
C372 C375 1.499 . S
C373 H347 0.950 . S
C373 C372 1.414 . S
C373 C374 1.374 . S
C374 H348 0.950 . S
C374 C370 1.385 . S
C374 C373 1.374 . S
C375 C372 1.499 . S
C375 C376 1.373 . S
C375 C377 1.389 . S
C376 H349 0.950 . S
C376 C362 1.375 . S
C376 C375 1.373 . S
C377 C361 1.392 . S
C377 C375 1.389 . S
C377 C378 1.524 . S
C378 C377 1.524 . S
C378 C379 1.397 . S
C378 C383 1.363 1_554 S
C379 H350 0.950 . S
C379 C378 1.397 . S
C379 C380 1.334 . S
C380 H351 0.950 . S
C380 C379 1.334 . S
C380 C381 1.287 . S
C381 C380 1.287 . S
C381 C382 1.524 1_554 S
C381 H384 0.999 . S
C382 H352 0.950 . S
C382 C381 1.524 1_556 S
C382 C383 1.415 . S
C383 H353 0.950 . S
C383 C378 1.363 1_556 S
C383 C382 1.415 . S
H384 C381 0.999 . S
H385 C366 0.913 . S
H386 C404 0.951 . S
H387 C406 0.951 . S
H388 C408 0.950 . S
H389 C409 0.950 . S
H390 C411 0.950 . S
H391 C414 0.950 . S
H392 C415 0.950 . S
H393 C417 0.950 . S
H394 C418 0.950 . S
H395 C419 0.951 . S
H396 C421 0.951 . S
H397 C423 0.950 . S
H398 C424 0.950 . S
H399 C426 0.950 . S
H400 C429 0.950 . S
H401 C430 0.950 . S
H402 C432 0.950 . S
H403 C433 0.950 . S
C404 H386 0.951 . S
C404 C405 1.366 . S
C404 C406 1.388 . S
C405 C404 1.366 . S
C405 C409 1.385 . S
C406 H387 0.951 . S
C406 C404 1.388 . S
C406 C407 1.366 . S
C407 C406 1.366 . S
C407 C408 1.414 . S
C407 C410 1.499 . S
C408 H388 0.950 . S
C408 C407 1.414 . S
C408 C409 1.374 . S
C409 H389 0.950 . S
C409 C405 1.385 . S
C409 C408 1.374 . S
C410 C407 1.499 . S
C410 C411 1.373 . S
C410 C412 1.389 . S
C411 H390 0.950 . S
C411 C410 1.373 . S
C411 C427 1.377 . S
C412 C410 1.389 . S
C412 C413 1.524 . S
C412 C426 1.377 . S
C413 C412 1.524 . S
C413 C414 1.397 . S
C413 C418 1.363 . S
C414 H391 0.950 . S
C414 C413 1.397 . S
C414 C415 1.334 . S
C415 H392 0.950 . S
C415 C414 1.334 . S
C415 C416 1.287 . S
C416 C415 1.287 . S
C416 C417 1.524 . S
C416 H435 0.913 . S
C417 H393 0.950 . S
C417 C416 1.524 . S
C417 C418 1.415 . S
C418 H394 0.950 . S
C418 C413 1.363 . S
C418 C417 1.415 . S
C419 H395 0.951 . S
C419 C420 1.366 . S
C419 C421 1.388 . S
C420 C419 1.366 . S
C420 C424 1.385 . S
C421 H396 0.951 . S
C421 C419 1.388 . S
C421 C422 1.366 . S
C422 C421 1.366 . S
C422 C423 1.414 . S
C422 C425 1.499 . S
C423 H397 0.950 . S
C423 C422 1.414 . S
C423 C424 1.374 . S
C424 H398 0.950 . S
C424 C420 1.385 . S
C424 C423 1.374 . S
C425 C422 1.499 . S
C425 C426 1.373 . S
C425 C427 1.389 . S
C426 H399 0.950 . S
C426 C412 1.377 . S
C426 C425 1.373 . S
C427 C411 1.377 . S
C427 C425 1.389 . S
C427 C428 1.524 . S
C428 C427 1.524 . S
C428 C429 1.397 . S
C428 C433 1.363 . S
C429 H400 0.950 . S
C429 C428 1.397 . S
C429 C430 1.334 . S
C430 H401 0.950 . S
C430 C429 1.334 . S
C430 C431 1.287 . S
C431 C430 1.287 . S
C431 C432 1.524 . S
C431 H434 0.999 . S
C432 H402 0.950 . S
C432 C431 1.524 . S
C432 C433 1.415 . S
C433 H403 0.950 . S
C433 C428 1.363 . S
C433 C432 1.415 . S
H434 C431 0.999 . S
H435 C416 0.913 . S
H436 C454 0.951 . S
H437 C456 0.951 . S
H438 C458 0.950 . S
H439 C459 0.950 . S
H440 C461 0.950 . S
H441 C464 0.950 1_455 S
H442 C465 0.950 1_455 S
H443 C467 0.950 . S
H444 C468 0.950 . S
H445 C469 0.951 . S
H446 C471 0.951 . S
H447 C473 0.950 . S
H448 C474 0.950 . S
H449 C476 0.950 . S
H450 C479 0.950 1_655 S
H451 C480 0.950 1_655 S
H452 C482 0.950 . S
H453 C483 0.950 . S
C454 H436 0.951 . S
C454 C455 1.367 1_556 S
C454 C456 1.388 . S
C455 C454 1.367 1_554 S
C455 C459 1.382 . S
C456 H437 0.951 . S
C456 C454 1.388 . S
C456 C457 1.366 1_556 S
C457 C456 1.366 1_554 S
C457 C458 1.414 . S
C457 C460 1.499 . S
C458 H438 0.950 . S
C458 C457 1.414 . S
C458 C459 1.374 . S
C459 H439 0.950 . S
C459 C455 1.382 . S
C459 C458 1.374 . S
C460 C457 1.499 . S
C460 C461 1.373 1_544 S
C460 C462 1.389 1_455 S
C461 H440 0.950 . S
C461 C460 1.373 1_566 S
C461 C477 1.377 . S
C462 C460 1.389 1_655 S
C462 C463 1.524 . S
C462 C476 1.377 . S
C463 C462 1.524 . S
C463 C464 1.397 . S
C463 C468 1.363 . S
C464 H441 0.950 1_655 S
C464 C463 1.397 . S
C464 C465 1.334 . S
C465 H442 0.950 1_655 S
C465 C464 1.334 . S
C465 C466 1.287 . S
C466 C465 1.287 . S
C466 C467 1.524 . S
C466 H485 0.913 . S
C467 H443 0.950 . S
C467 C466 1.524 . S
C467 C468 1.415 . S
C468 H444 0.950 . S
C468 C463 1.363 . S
C468 C467 1.415 . S
C469 H445 0.951 . S
C469 C470 1.366 . S
C469 C471 1.388 . S
C470 C469 1.366 . S
C470 C474 1.385 1_554 S
C471 H446 0.951 . S
C471 C469 1.388 . S
C471 C472 1.390 . S
C472 C471 1.390 . S
C472 C473 1.407 1_554 S
C472 C475 1.482 . S
C473 H447 0.950 . S
C473 C472 1.407 1_556 S
C473 C474 1.374 . S
C474 H448 0.950 . S
C474 C470 1.385 1_556 S
C474 C473 1.374 . S
C475 C472 1.482 . S
C475 C476 1.373 1_565 S
C475 C477 1.390 1_654 S
C476 H449 0.950 . S
C476 C462 1.377 . S
C476 C475 1.373 1_545 S
C477 C461 1.377 . S
C477 C475 1.390 1_456 S
C477 C478 1.524 . S
C478 C477 1.524 . S
C478 C479 1.397 . S
C478 C483 1.363 . S
C479 H450 0.950 1_455 S
C479 C478 1.397 . S
C479 C480 1.334 . S
C480 H451 0.950 1_455 S
C480 C479 1.334 . S
C480 C481 1.287 . S
C481 C480 1.287 . S
C481 C482 1.524 . S
C481 H484 0.999 . S
C482 H452 0.950 . S
C482 C481 1.524 . S
C482 C483 1.415 . S
C483 H453 0.950 . S
C483 C478 1.363 . S
C483 C482 1.415 . S
H484 C481 0.999 . S
H485 C466 0.913 . S
H486 C504 0.951 . S
H487 C506 0.951 . S
H488 C508 0.950 . S
H489 C509 0.950 . S
H490 C511 0.950 . S
H491 C514 0.950 . S
H492 C515 0.959 . S
H493 C517 0.950 . S
H494 C518 0.950 . S
H495 C519 0.951 . S
H496 C521 0.951 . S
H497 C523 0.950 . S
H498 C524 0.950 . S
H499 C526 0.950 . S
H500 C529 0.950 . S
H501 C530 0.959 . S
H502 C532 0.950 . S
H503 C533 0.950 . S
C504 H486 0.951 . S
C504 C505 1.366 . S
C504 C506 1.388 . S
C505 C504 1.366 . S
C505 C509 1.385 . S
C506 H487 0.951 . S
C506 C504 1.388 . S
C506 C507 1.366 . S
C507 C506 1.366 . S
C507 C508 1.414 . S
C507 C510 1.499 . S
C508 H488 0.950 . S
C508 C507 1.414 . S
C508 C509 1.374 . S
C509 H489 0.950 . S
C509 C505 1.385 . S
C509 C508 1.374 . S
C510 C507 1.499 . S
C510 C511 1.373 . S
C510 C512 1.389 1_655 S
C511 H490 0.950 . S
C511 C510 1.373 . S
C511 C527 1.377 1_545 S
C512 C510 1.389 1_455 S
C512 C513 1.524 . S
C512 C526 1.377 1_545 S
C513 C512 1.524 . S
C513 C514 1.397 1_455 S
C513 C518 1.363 . S
C514 H491 0.950 . S
C514 C513 1.397 1_655 S
C514 C515 1.336 . S
C515 H492 0.959 . S
C515 C514 1.336 . S
C515 C516 1.275 1_655 S
C516 C515 1.275 1_455 S
C516 C517 1.524 . S
C516 H535 0.913 . S
C517 H493 0.950 . S
C517 C516 1.524 . S
C517 C518 1.415 . S
C518 H494 0.950 . S
C518 C513 1.363 . S
C518 C517 1.415 . S
C519 H495 0.951 . S
C519 C520 1.366 . S
C519 C521 1.388 . S
C520 C519 1.366 . S
C520 C524 1.385 . S
C521 H496 0.951 . S
C521 C519 1.388 . S
C521 C522 1.366 . S
C522 C521 1.366 . S
C522 C523 1.414 . S
C522 C525 1.499 . S
C523 H497 0.950 . S
C523 C522 1.414 . S
C523 C524 1.374 . S
C524 H498 0.950 . S
C524 C520 1.385 . S
C524 C523 1.374 . S
C525 C522 1.499 . S
C525 C526 1.373 . S
C525 C527 1.389 1_455 S
C526 H499 0.950 . S
C526 C512 1.377 1_565 S
C526 C525 1.373 . S
C527 C511 1.377 1_565 S
C527 C525 1.389 1_655 S
C527 C528 1.524 . S
C528 C527 1.524 . S
C528 C529 1.397 1_655 S
C528 C533 1.363 . S
C529 H500 0.950 . S
C529 C528 1.397 1_455 S
C529 C530 1.336 . S
C530 H501 0.959 . S
C530 C529 1.336 . S
C530 C531 1.275 1_455 S
C531 C530 1.275 1_655 S
C531 C532 1.524 . S
C531 H534 0.999 . S
C532 H502 0.950 . S
C532 C531 1.524 . S
C532 C533 1.415 . S
C533 H503 0.950 . S
C533 C528 1.363 . S
C533 C532 1.415 . S
H534 C531 0.999 . S
H535 C516 0.913 . S
H536 C554 0.951 . S
H537 C556 0.951 . S
H538 C558 0.950 . S
H539 C559 0.950 . S
H540 C561 0.950 . S
H541 C564 0.950 . S
H542 C565 0.950 . S
H543 C567 0.950 . S
H544 C568 0.950 . S
H545 C569 0.951 . S
H546 C571 0.951 . S
H547 C573 0.950 . S
H548 C574 0.950 . S
H549 C576 0.950 . S
H550 C579 0.950 . S
H551 C580 0.950 . S
H552 C582 0.950 . S
H553 C583 0.950 . S
C554 H536 0.951 . S
C554 C555 1.366 . S
C554 C556 1.388 . S
C555 C554 1.366 . S
C555 C559 1.385 . S
C556 H537 0.951 . S
C556 C554 1.388 . S
C556 C557 1.366 . S
C557 C556 1.366 . S
C557 C558 1.414 . S
C557 C560 1.499 . S
C558 H538 0.950 . S
C558 C557 1.414 . S
C558 C559 1.374 . S
C559 H539 0.950 . S
C559 C555 1.385 . S
C559 C558 1.374 . S
C560 C557 1.499 . S
C560 C561 1.373 . S
C560 C562 1.389 . S
C561 H540 0.950 . S
C561 C560 1.373 . S
C561 C577 1.377 . S
C562 C560 1.389 . S
C562 C563 1.524 . S
C562 C576 1.377 . S
C563 C562 1.524 . S
C563 C564 1.397 . S
C563 C568 1.363 . S
C564 H541 0.950 . S
C564 C563 1.397 . S
C564 C565 1.334 . S
C565 H542 0.950 . S
C565 C564 1.334 . S
C565 C566 1.287 . S
C566 C565 1.287 . S
C566 C567 1.524 . S
C566 H585 0.913 . S
C567 H543 0.950 . S
C567 C566 1.524 . S
C567 C568 1.415 . S
C568 H544 0.950 . S
C568 C563 1.363 . S
C568 C567 1.415 . S
C569 H545 0.951 . S
C569 C570 1.366 . S
C569 C571 1.388 . S
C570 C569 1.366 . S
C570 C574 1.385 . S
C571 H546 0.951 . S
C571 C569 1.388 . S
C571 C572 1.366 . S
C572 C571 1.366 . S
C572 C573 1.414 . S
C572 C575 1.499 . S
C573 H547 0.950 . S
C573 C572 1.414 . S
C573 C574 1.374 . S
C574 H548 0.950 . S
C574 C570 1.385 . S
C574 C573 1.374 . S
C575 C572 1.499 . S
C575 C576 1.373 . S
C575 C577 1.389 . S
C576 H549 0.950 . S
C576 C562 1.377 . S
C576 C575 1.373 . S
C577 C561 1.377 . S
C577 C575 1.389 . S
C577 C578 1.524 . S
C578 C577 1.524 . S
C578 C579 1.397 . S
C578 C583 1.363 . S
C579 H550 0.950 . S
C579 C578 1.397 . S
C579 C580 1.334 . S
C580 H551 0.950 . S
C580 C579 1.334 . S
C580 C581 1.287 . S
C581 C580 1.287 . S
C581 C582 1.524 . S
C581 H584 0.999 . S
C582 H552 0.950 . S
C582 C581 1.524 . S
C582 C583 1.415 . S
C583 H553 0.950 . S
C583 C578 1.363 . S
C583 C582 1.415 . S
H584 C581 0.999 . S
H585 C566 0.913 . S
H586 C604 0.951 . S
H587 C606 0.951 . S
H588 C608 0.950 . S
H589 C609 0.950 . S
H590 C611 0.950 . S
H591 C614 0.950 . S
H592 C615 0.950 . S
H593 C617 0.950 . S
H594 C618 0.950 . S
H595 C619 0.951 . S
H596 C621 0.951 . S
H597 C623 0.950 . S
H598 C624 0.950 . S
H599 C626 0.950 . S
H600 C629 0.950 . S
H601 C630 0.950 . S
H602 C632 0.950 . S
H603 C633 0.950 . S
C604 H586 0.951 . S
C604 C605 1.366 . S
C604 C606 1.388 . S
C605 C604 1.366 . S
C605 C609 1.385 . S
C606 H587 0.951 . S
C606 C604 1.388 . S
C606 C607 1.366 . S
C607 C606 1.366 . S
C607 C608 1.414 . S
C607 C610 1.499 . S
C608 H588 0.950 . S
C608 C607 1.414 . S
C608 C609 1.374 . S
C609 H589 0.950 . S
C609 C605 1.385 . S
C609 C608 1.374 . S
C610 C607 1.499 . S
C610 C611 1.373 . S
C610 C612 1.389 . S
C611 H590 0.950 . S
C611 C610 1.373 . S
C611 C627 1.377 . S
C612 C610 1.389 . S
C612 C613 1.524 . S
C612 C626 1.377 . S
C613 C612 1.524 . S
C613 C614 1.397 . S
C613 C618 1.363 . S
C614 H591 0.950 . S
C614 C613 1.397 . S
C614 C615 1.334 . S
C615 H592 0.950 . S
C615 C614 1.334 . S
C615 C616 1.287 . S
C616 C615 1.287 . S
C616 C617 1.524 . S
C616 H635 0.913 . S
C617 H593 0.950 . S
C617 C616 1.524 . S
C617 C618 1.415 . S
C618 H594 0.950 . S
C618 C613 1.363 . S
C618 C617 1.415 . S
C619 H595 0.951 . S
C619 C620 1.366 . S
C619 C621 1.388 . S
C620 C619 1.366 . S
C620 C624 1.385 . S
C621 H596 0.951 . S
C621 C619 1.388 . S
C621 C622 1.366 . S
C622 C621 1.366 . S
C622 C623 1.414 . S
C622 C625 1.499 . S
C623 H597 0.950 . S
C623 C622 1.414 . S
C623 C624 1.374 . S
C624 H598 0.950 . S
C624 C620 1.385 . S
C624 C623 1.374 . S
C625 C622 1.499 . S
C625 C626 1.373 . S
C625 C627 1.389 . S
C626 H599 0.950 . S
C626 C612 1.377 . S
C626 C625 1.373 . S
C627 C611 1.377 . S
C627 C625 1.389 . S
C627 C628 1.524 . S
C628 C627 1.524 . S
C628 C629 1.397 . S
C628 C633 1.363 . S
C629 H600 0.950 . S
C629 C628 1.397 . S
C629 C630 1.334 . S
C630 H601 0.950 . S
C630 C629 1.334 . S
C630 C631 1.287 . S
C631 C630 1.287 . S
C631 C632 1.524 . S
C631 H634 0.999 . S
C632 H602 0.950 . S
C632 C631 1.524 . S
C632 C633 1.415 . S
C633 H603 0.950 . S
C633 C628 1.363 . S
C633 C632 1.415 . S
H634 C631 0.999 . S
H635 C616 0.913 . S
H636 C654 0.951 . S
H637 C656 0.951 . S
H638 C658 0.950 . S
H639 C659 0.950 . S
H640 C661 0.950 . S
H641 C664 0.950 . S
H642 C665 0.950 . S
H643 C667 0.950 . S
H644 C668 0.950 . S
H645 C669 0.951 . S
H646 C671 0.951 . S
H647 C673 0.950 . S
H648 C674 0.950 . S
H649 C676 0.950 . S
H650 C679 0.950 . S
H651 C680 0.950 . S
H652 C682 0.950 . S
H653 C683 0.950 . S
C654 H636 0.951 . S
C654 C655 1.366 . S
C654 C656 1.388 . S
C655 C654 1.366 . S
C655 C659 1.385 . S
C656 H637 0.951 . S
C656 C654 1.388 . S
C656 C657 1.366 . S
C657 C656 1.366 . S
C657 C658 1.414 . S
C657 C660 1.499 . S
C658 H638 0.950 . S
C658 C657 1.414 . S
C658 C659 1.374 . S
C659 H639 0.950 . S
C659 C655 1.385 . S
C659 C658 1.374 . S
C660 C657 1.499 . S
C660 C661 1.373 . S
C660 C662 1.389 . S
C661 H640 0.950 . S
C661 C660 1.373 . S
C661 C677 1.377 . S
C662 C660 1.389 . S
C662 C663 1.524 . S
C662 C676 1.377 . S
C663 C662 1.524 . S
C663 C664 1.397 . S
C663 C668 1.363 . S
C664 H641 0.950 . S
C664 C663 1.397 . S
C664 C665 1.334 . S
C665 H642 0.950 . S
C665 C664 1.334 . S
C665 C666 1.287 . S
C666 C665 1.287 . S
C666 C667 1.524 . S
C666 H685 0.913 . S
C667 H643 0.950 . S
C667 C666 1.524 . S
C667 C668 1.415 . S
C668 H644 0.950 . S
C668 C663 1.363 . S
C668 C667 1.415 . S
C669 H645 0.951 . S
C669 C670 1.366 . S
C669 C671 1.388 . S
C670 C669 1.366 . S
C670 C674 1.385 . S
C671 H646 0.951 . S
C671 C669 1.388 . S
C671 C672 1.366 . S
C672 C671 1.366 . S
C672 C673 1.414 . S
C672 C675 1.499 . S
C673 H647 0.950 . S
C673 C672 1.414 . S
C673 C674 1.374 . S
C674 H648 0.950 . S
C674 C670 1.385 . S
C674 C673 1.374 . S
C675 C672 1.499 . S
C675 C676 1.373 . S
C675 C677 1.389 . S
C676 H649 0.950 . S
C676 C662 1.377 . S
C676 C675 1.373 . S
C677 C661 1.377 . S
C677 C675 1.389 . S
C677 C678 1.524 . S
C678 C677 1.524 . S
C678 C679 1.397 . S
C678 C683 1.363 . S
C679 H650 0.950 . S
C679 C678 1.397 . S
C679 C680 1.334 . S
C680 H651 0.950 . S
C680 C679 1.334 . S
C680 C681 1.287 . S
C681 C680 1.287 . S
C681 C682 1.524 . S
C681 H684 0.999 . S
C682 H652 0.950 . S
C682 C681 1.524 . S
C682 C683 1.415 . S
C683 H653 0.950 . S
C683 C678 1.363 . S
C683 C682 1.415 . S
H684 C681 0.999 . S
H685 C666 0.913 . S
H686 C704 0.951 . S
H687 C706 0.951 . S
H688 C708 0.950 . S
H689 C709 0.950 . S
H690 C711 0.950 . S
H691 C714 0.950 . S
H692 C715 0.950 . S
H693 C717 0.950 . S
H694 C718 0.950 . S
H695 C719 0.951 . S
H696 C721 0.951 . S
H697 C723 0.950 . S
H698 C724 0.950 . S
H699 C726 0.950 . S
H700 C729 0.950 . S
H701 C730 0.950 . S
H702 C732 0.950 . S
H703 C733 0.950 . S
C704 H686 0.951 . S
C704 C705 1.366 . S
C704 C706 1.388 . S
C705 C704 1.366 . S
C705 C709 1.385 . S
C706 H687 0.951 . S
C706 C704 1.388 . S
C706 C707 1.366 . S
C707 C706 1.366 . S
C707 C708 1.414 . S
C707 C710 1.499 . S
C708 H688 0.950 . S
C708 C707 1.414 . S
C708 C709 1.374 . S
C709 H689 0.950 . S
C709 C705 1.385 . S
C709 C708 1.374 . S
C710 C707 1.499 . S
C710 C711 1.373 . S
C710 C712 1.389 . S
C711 H690 0.950 . S
C711 C710 1.373 . S
C711 C727 1.377 . S
C712 C710 1.389 . S
C712 C713 1.524 . S
C712 C726 1.377 . S
C713 C712 1.524 . S
C713 C714 1.397 . S
C713 C718 1.363 . S
C714 H691 0.950 . S
C714 C713 1.397 . S
C714 C715 1.334 . S
C715 H692 0.950 . S
C715 C714 1.334 . S
C715 C716 1.287 . S
C716 C715 1.287 . S
C716 C717 1.524 . S
C716 H735 0.913 . S
C717 H693 0.950 . S
C717 C716 1.524 . S
C717 C718 1.415 . S
C718 H694 0.950 . S
C718 C713 1.363 . S
C718 C717 1.415 . S
C719 H695 0.951 . S
C719 C720 1.366 . S
C719 C721 1.388 . S
C720 C719 1.366 . S
C720 C724 1.385 . S
C721 H696 0.951 . S
C721 C719 1.388 . S
C721 C722 1.366 . S
C722 C721 1.366 . S
C722 C723 1.414 . S
C722 C725 1.499 . S
C723 H697 0.950 . S
C723 C722 1.414 . S
C723 C724 1.374 . S
C724 H698 0.950 . S
C724 C720 1.385 . S
C724 C723 1.374 . S
C725 C722 1.499 . S
C725 C726 1.373 . S
C725 C727 1.389 . S
C726 H699 0.950 . S
C726 C712 1.377 . S
C726 C725 1.373 . S
C727 C711 1.377 . S
C727 C725 1.389 . S
C727 C728 1.524 . S
C728 C727 1.524 . S
C728 C729 1.397 . S
C728 C733 1.363 . S
C729 H700 0.950 . S
C729 C728 1.397 . S
C729 C730 1.334 . S
C730 H701 0.950 . S
C730 C729 1.334 . S
C730 C731 1.287 . S
C731 C730 1.287 . S
C731 C732 1.524 . S
C731 H734 0.999 . S
C732 H702 0.950 . S
C732 C731 1.524 . S
C732 C733 1.415 . S
C733 H703 0.950 . S
C733 C728 1.363 . S
C733 C732 1.415 . S
H734 C731 0.999 . S
H735 C716 0.913 . S
H736 C754 0.951 . S
H737 C756 0.951 . S
H738 C758 0.950 . S
H739 C759 0.950 . S
H740 C761 0.950 . S
H741 C764 0.950 . S
H742 C765 0.950 . S
H743 C767 0.950 . S
H744 C768 0.950 . S
H745 C769 0.951 . S
H746 C771 0.951 . S
H747 C773 0.950 . S
H748 C774 0.950 . S
H749 C776 0.950 . S
H750 C779 0.950 . S
H751 C780 0.950 . S
H752 C782 0.950 . S
H753 C783 0.950 . S
C754 H736 0.951 . S
C754 C755 1.366 . S
C754 C756 1.388 . S
C755 C754 1.366 . S
C755 C759 1.385 . S
C756 H737 0.951 . S
C756 C754 1.388 . S
C756 C757 1.366 . S
C757 C756 1.366 . S
C757 C758 1.414 . S
C757 C760 1.499 . S
C758 H738 0.950 . S
C758 C757 1.414 . S
C758 C759 1.374 . S
C759 H739 0.950 . S
C759 C755 1.385 . S
C759 C758 1.374 . S
C760 C757 1.499 . S
C760 C761 1.373 . S
C760 C762 1.389 . S
C761 H740 0.950 . S
C761 C760 1.373 . S
C761 C777 1.377 . S
C762 C760 1.389 . S
C762 C763 1.524 . S
C762 C776 1.377 . S
C763 C762 1.524 . S
C763 C764 1.397 . S
C763 C768 1.363 . S
C764 H741 0.950 . S
C764 C763 1.397 . S
C764 C765 1.334 . S
C765 H742 0.950 . S
C765 C764 1.334 . S
C765 C766 1.287 . S
C766 C765 1.287 . S
C766 C767 1.524 . S
C766 H785 0.913 . S
C767 H743 0.950 . S
C767 C766 1.524 . S
C767 C768 1.415 . S
C768 H744 0.950 . S
C768 C763 1.363 . S
C768 C767 1.415 . S
C769 H745 0.951 . S
C769 C770 1.366 1_655 S
C769 C771 1.388 . S
C770 C769 1.366 1_455 S
C770 C774 1.385 . S
C771 H746 0.951 . S
C771 C769 1.388 . S
C771 C772 1.366 . S
C772 C771 1.366 . S
C772 C773 1.414 1_655 S
C772 C775 1.499 . S
C773 H747 0.950 . S
C773 C772 1.414 1_455 S
C773 C774 1.374 . S
C774 H748 0.950 . S
C774 C770 1.385 . S
C774 C773 1.374 . S
C775 C772 1.499 . S
C775 C776 1.373 . S
C775 C777 1.389 . S
C776 H749 0.950 . S
C776 C762 1.377 . S
C776 C775 1.373 . S
C777 C761 1.377 . S
C777 C775 1.389 . S
C777 C778 1.524 . S
C778 C777 1.524 . S
C778 C779 1.397 1_655 S
C778 C783 1.363 . S
C779 H750 0.950 . S
C779 C778 1.397 1_455 S
C779 C780 1.334 . S
C780 H751 0.950 . S
C780 C779 1.334 . S
C780 C781 1.287 . S
C781 C780 1.287 . S
C781 C782 1.524 1_455 S
C781 H784 0.999 . S
C782 H752 0.950 . S
C782 C781 1.524 1_655 S
C782 C783 1.415 . S
C783 H753 0.950 . S
C783 C778 1.363 . S
C783 C782 1.415 . S
H784 C781 0.999 . S
H785 C766 0.913 . S
H786 C804 0.951 . S
H787 C806 0.951 . S
H788 C808 0.950 . S
H789 C809 0.950 . S
H790 C811 0.950 . S
H791 C814 0.950 . S
H792 C815 0.950 . S
H793 C817 0.950 . S
H794 C818 0.950 . S
H795 C819 0.951 . S
H796 C821 0.951 . S
H797 C823 0.950 . S
H798 C824 0.950 . S
H799 C826 0.950 . S
H800 C829 0.950 . S
H801 C830 0.950 . S
H802 C832 0.950 . S
H803 C833 0.950 . S
C804 H786 0.951 . S
C804 C805 1.366 . S
C804 C806 1.388 . S
C805 C804 1.366 . S
C805 C809 1.385 . S
C806 H787 0.951 . S
C806 C804 1.388 . S
C806 C807 1.366 . S
C807 C806 1.366 . S
C807 C808 1.414 . S
C807 C810 1.499 . S
C808 H788 0.950 . S
C808 C807 1.414 . S
C808 C809 1.374 . S
C809 H789 0.950 . S
C809 C805 1.385 . S
C809 C808 1.374 . S
C810 C807 1.499 . S
C810 C811 1.373 . S
C810 C812 1.389 . S
C811 H790 0.950 . S
C811 C810 1.373 . S
C811 C827 1.377 . S
C812 C810 1.389 . S
C812 C813 1.524 . S
C812 C826 1.377 . S
C813 C812 1.524 . S
C813 C814 1.397 . S
C813 C818 1.363 . S
C814 H791 0.950 . S
C814 C813 1.397 . S
C814 C815 1.334 . S
C815 H792 0.950 . S
C815 C814 1.334 . S
C815 C816 1.287 . S
C816 C815 1.287 . S
C816 C817 1.524 . S
C816 H835 0.913 . S
C817 H793 0.950 . S
C817 C816 1.524 . S
C817 C818 1.415 . S
C818 H794 0.950 . S
C818 C813 1.363 . S
C818 C817 1.415 . S
C819 H795 0.951 . S
C819 C820 1.366 1_655 S
C819 C821 1.388 . S
C820 C819 1.366 1_455 S
C820 C824 1.385 . S
C821 H796 0.951 . S
C821 C819 1.388 . S
C821 C822 1.366 . S
C822 C821 1.366 . S
C822 C823 1.414 1_655 S
C822 C825 1.499 . S
C823 H797 0.950 . S
C823 C822 1.414 1_455 S
C823 C824 1.374 . S
C824 H798 0.950 . S
C824 C820 1.385 . S
C824 C823 1.374 . S
C825 C822 1.499 . S
C825 C826 1.373 . S
C825 C827 1.389 . S
C826 H799 0.950 . S
C826 C812 1.377 . S
C826 C825 1.373 . S
C827 C811 1.377 . S
C827 C825 1.389 . S
C827 C828 1.524 . S
C828 C827 1.524 . S
C828 C829 1.397 1_655 S
C828 C833 1.363 . S
C829 H800 0.950 . S
C829 C828 1.397 1_455 S
C829 C830 1.334 . S
C830 H801 0.950 . S
C830 C829 1.334 . S
C830 C831 1.287 . S
C831 C830 1.287 . S
C831 C832 1.524 1_455 S
C831 H834 0.999 . S
C832 H802 0.950 . S
C832 C831 1.524 1_655 S
C832 C833 1.415 . S
C833 H803 0.950 . S
C833 C828 1.363 . S
C833 C832 1.415 . S
H834 C831 0.999 . S
H835 C816 0.913 . S
H836 C854 0.951 . S
H837 C856 0.951 . S
H838 C858 0.950 . S
H839 C859 0.950 . S
H840 C861 0.950 . S
H841 C864 0.950 . S
H842 C865 0.950 . S
H843 C867 0.950 . S
H844 C868 0.950 . S
H845 C869 0.951 . S
H846 C871 0.951 . S
H847 C873 0.950 . S
H848 C874 0.950 . S
H849 C876 0.950 . S
H850 C879 0.950 . S
H851 C880 0.950 . S
H852 C882 0.950 . S
H853 C883 0.950 . S
C854 H836 0.951 . S
C854 C855 1.366 1_455 S
C854 C856 1.388 . S
C855 C854 1.366 1_655 S
C855 C859 1.385 . S
C856 H837 0.951 . S
C856 C854 1.388 . S
C856 C857 1.366 . S
C857 C856 1.366 . S
C857 C858 1.414 1_455 S
C857 C860 1.499 . S
C858 H838 0.950 . S
C858 C857 1.414 1_655 S
C858 C859 1.374 . S
C859 H839 0.950 . S
C859 C855 1.385 . S
C859 C858 1.374 . S
C860 C857 1.499 . S
C860 C861 1.373 . S
C860 C862 1.389 . S
C861 H840 0.950 . S
C861 C860 1.373 . S
C861 C877 1.377 . S
C862 C860 1.389 . S
C862 C863 1.524 . S
C862 C876 1.377 . S
C863 C862 1.524 . S
C863 C864 1.397 1_455 S
C863 C868 1.363 . S
C864 H841 0.950 . S
C864 C863 1.397 1_655 S
C864 C865 1.334 . S
C865 H842 0.950 . S
C865 C864 1.334 . S
C865 C866 1.287 . S
C866 C865 1.287 . S
C866 C867 1.524 1_655 S
C866 H885 0.913 . S
C867 H843 0.950 . S
C867 C866 1.524 1_455 S
C867 C868 1.415 . S
C868 H844 0.950 . S
C868 C863 1.363 . S
C868 C867 1.415 . S
C869 H845 0.951 . S
C869 C870 1.366 . S
C869 C871 1.388 . S
C870 C869 1.366 . S
C870 C874 1.385 . S
C871 H846 0.951 . S
C871 C869 1.388 . S
C871 C872 1.366 . S
C872 C871 1.366 . S
C872 C873 1.414 . S
C872 C875 1.499 . S
C873 H847 0.950 . S
C873 C872 1.414 . S
C873 C874 1.374 . S
C874 H848 0.950 . S
C874 C870 1.385 . S
C874 C873 1.374 . S
C875 C872 1.499 . S
C875 C876 1.373 . S
C875 C877 1.389 . S
C876 H849 0.950 . S
C876 C862 1.377 . S
C876 C875 1.373 . S
C877 C861 1.377 . S
C877 C875 1.389 . S
C877 C878 1.524 . S
C878 C877 1.524 . S
C878 C879 1.397 . S
C878 C883 1.363 . S
C879 H850 0.950 . S
C879 C878 1.397 . S
C879 C880 1.334 . S
C880 H851 0.950 . S
C880 C879 1.334 . S
C880 C881 1.287 . S
C881 C880 1.287 . S
C881 C882 1.524 . S
C881 H884 0.999 . S
C882 H852 0.950 . S
C882 C881 1.524 . S
C882 C883 1.415 . S
C883 H853 0.950 . S
C883 C878 1.363 . S
C883 C882 1.415 . S
H884 C881 0.999 . S
H885 C866 0.913 . S
H886 C904 0.951 . S
H887 C906 0.951 . S
H888 C908 0.950 . S
H889 C909 0.950 . S
H890 C911 0.950 . S
H891 C914 0.950 1_455 S
H892 C915 0.950 . S
H893 C917 0.950 . S
H894 C918 0.950 . S
H895 C919 0.951 . S
H896 C921 0.951 . S
H897 C923 0.950 . S
H898 C924 0.950 . S
H899 C926 0.950 1_655 S
H900 C929 0.950 . S
H901 C930 0.950 . S
H902 C932 0.950 . S
H903 C933 0.950 . S
C904 H886 0.951 . S
C904 C905 1.366 . S
C904 C906 1.388 . S
C905 C904 1.366 . S
C905 C909 1.385 . S
C906 H887 0.951 . S
C906 C904 1.388 . S
C906 C907 1.366 . S
C907 C906 1.366 . S
C907 C908 1.414 . S
C907 C910 1.499 . S
C908 H888 0.950 . S
C908 C907 1.414 . S
C908 C909 1.374 . S
C909 H889 0.950 . S
C909 C905 1.385 . S
C909 C908 1.374 . S
C910 C907 1.499 . S
C910 C911 1.373 . S
C910 C912 1.389 . S
C911 H890 0.950 . S
C911 C910 1.373 . S
C911 C927 1.377 . S
C912 C910 1.389 . S
C912 C913 1.524 1_455 S
C912 C926 1.377 . S
C913 C912 1.524 1_655 S
C913 C914 1.397 . S
C913 C918 1.363 . S
C914 H891 0.950 1_655 S
C914 C913 1.397 . S
C914 C915 1.334 . S
C915 H892 0.950 . S
C915 C914 1.334 . S
C915 C916 1.287 . S
C916 C915 1.287 . S
C916 C917 1.524 . S
C916 H935 0.913 . S
C917 H893 0.950 . S
C917 C916 1.524 . S
C917 C918 1.415 . S
C918 H894 0.950 . S
C918 C913 1.363 . S
C918 C917 1.415 . S
C919 H895 0.951 . S
C919 C920 1.366 1_455 S
C919 C921 1.388 . S
C920 C919 1.366 1_655 S
C920 C924 1.385 . S
C921 H896 0.951 . S
C921 C919 1.388 . S
C921 C922 1.366 . S
C922 C921 1.366 . S
C922 C923 1.414 1_455 S
C922 C925 1.499 . S
C923 H897 0.950 . S
C923 C922 1.414 1_655 S
C923 C924 1.374 . S
C924 H898 0.950 . S
C924 C920 1.385 . S
C924 C923 1.374 . S
C925 C922 1.499 . S
C925 C926 1.373 . S
C925 C927 1.389 . S
C926 H899 0.950 1_455 S
C926 C912 1.377 . S
C926 C925 1.373 . S
C927 C911 1.377 . S
C927 C925 1.389 . S
C927 C928 1.524 . S
C928 C927 1.524 . S
C928 C929 1.397 . S
C928 C933 1.363 . S
C929 H900 0.950 . S
C929 C928 1.397 . S
C929 C930 1.334 . S
C930 H901 0.950 . S
C930 C929 1.334 . S
C930 C931 1.287 . S
C931 C930 1.287 . S
C931 C932 1.524 . S
C931 H934 0.999 . S
C932 H902 0.950 . S
C932 C931 1.524 . S
C932 C933 1.415 . S
C933 H903 0.950 . S
C933 C928 1.363 . S
C933 C932 1.415 . S
H934 C931 0.999 . S
H935 C916 0.913 . S
C355 C147 1.496 1_554 S
C370 C74 1.496 . S
C405 C242 1.496 . S
C420 C315 1.496 . S
C455 C63 1.498 1_554 S
C470 C158 1.496 . S
C505 C326 1.496 . S
C520 C231 1.496 . S
C555 C310 1.108 . S
C570 C56 1.109 . S
C605 C142 1.106 . S
C620 C224 1.109 . S
C655 C151 1.108 . S
C670 C238 1.106 . S
C705 C319 1.108 . S
C720 C70 1.107 . S
C755 C140 1.108 . S
C770 C226 1.106 . S
C805 C308 1.108 . S
C820 C58 1.106 . S
C855 C322 1.106 . S
C870 C67 1.108 . S
C905 C235 1.108 . S
C920 C154 1.107 . S
