# Generated by pormake.
# Topology fnr, (5)-cn, num edge types: 1
# Building blocks:
#     Node 0, Type 0, BuildingBlock: XOMCOT_clean_sbu_0, # of connection points: 5
#     Node 1, Type 0, BuildingBlock: XOMCOT_clean_sbu_0, # of connection points: 5
#     Node 2, Type 0, BuildingBlock: XOMCOT_clean_sbu_0, # of connection points: 5
#     Node 3, Type 0, BuildingBlock: XOMCOT_clean_sbu_0, # of connection points: 5
#     Node 4, Type 0, BuildingBlock: XOMCOT_clean_sbu_0, # of connection points: 5
#     Node 5, Type 0, BuildingBlock: XOMCOT_clean_sbu_0, # of connection points: 5
#     Node 6, Type 0, BuildingBlock: XOMCOT_clean_sbu_0, # of connection points: 5
#     Node 7, Type 0, BuildingBlock: XOMCOT_clean_sbu_0, # of connection points: 5
#     Node 8, Type 0, BuildingBlock: XOMCOT_clean_sbu_0, # of connection points: 5
#     Node 9, Type 0, BuildingBlock: XOMCOT_clean_sbu_0, # of connection points: 5
#     Node 10, Type 0, BuildingBlock: XOMCOT_clean_sbu_0, # of connection points: 5
#     Node 11, Type 0, BuildingBlock: XOMCOT_clean_sbu_0, # of connection points: 5
#     Edge 12, Type (0, 0), BuildingBlock: OJICUG_clean_linker_0, # of connection points: 2
#     Edge 13, Type (0, 0), BuildingBlock: OJICUG_clean_linker_0, # of connection points: 2
#     Edge 14, Type (0, 0), BuildingBlock: OJICUG_clean_linker_0, # of connection points: 2
#     Edge 15, Type (0, 0), BuildingBlock: OJICUG_clean_linker_0, # of connection points: 2
#     Edge 16, Type (0, 0), BuildingBlock: OJICUG_clean_linker_0, # of connection points: 2
#     Edge 17, Type (0, 0), BuildingBlock: OJICUG_clean_linker_0, # of connection points: 2
#     Edge 18, Type (0, 0), BuildingBlock: OJICUG_clean_linker_0, # of connection points: 2
#     Edge 19, Type (0, 0), BuildingBlock: OJICUG_clean_linker_0, # of connection points: 2
#     Edge 20, Type (0, 0), BuildingBlock: OJICUG_clean_linker_0, # of connection points: 2
#     Edge 21, Type (0, 0), BuildingBlock: OJICUG_clean_linker_0, # of connection points: 2
#     Edge 22, Type (0, 0), BuildingBlock: OJICUG_clean_linker_0, # of connection points: 2
#     Edge 23, Type (0, 0), BuildingBlock: OJICUG_clean_linker_0, # of connection points: 2
#     Edge 24, Type (0, 0), BuildingBlock: OJICUG_clean_linker_0, # of connection points: 2
#     Edge 25, Type (0, 0), BuildingBlock: OJICUG_clean_linker_0, # of connection points: 2
#     Edge 26, Type (0, 0), BuildingBlock: OJICUG_clean_linker_0, # of connection points: 2
#     Edge 27, Type (0, 0), BuildingBlock: OJICUG_clean_linker_0, # of connection points: 2
#     Edge 28, Type (0, 0), BuildingBlock: OJICUG_clean_linker_0, # of connection points: 2
#     Edge 29, Type (0, 0), BuildingBlock: OJICUG_clean_linker_0, # of connection points: 2
#     Edge 30, Type (0, 0), BuildingBlock: OJICUG_clean_linker_0, # of connection points: 2
#     Edge 31, Type (0, 0), BuildingBlock: OJICUG_clean_linker_0, # of connection points: 2
#     Edge 32, Type (0, 0), BuildingBlock: OJICUG_clean_linker_0, # of connection points: 2
#     Edge 33, Type (0, 0), BuildingBlock: OJICUG_clean_linker_0, # of connection points: 2
#     Edge 34, Type (0, 0), BuildingBlock: OJICUG_clean_linker_0, # of connection points: 2
#     Edge 35, Type (0, 0), BuildingBlock: OJICUG_clean_linker_0, # of connection points: 2
#     Edge 36, Type (0, 0), BuildingBlock: OJICUG_clean_linker_0, # of connection points: 2
#     Edge 37, Type (0, 0), BuildingBlock: OJICUG_clean_linker_0, # of connection points: 2
#     Edge 38, Type (0, 0), BuildingBlock: OJICUG_clean_linker_0, # of connection points: 2
#     Edge 39, Type (0, 0), BuildingBlock: OJICUG_clean_linker_0, # of connection points: 2
#     Edge 40, Type (0, 0), BuildingBlock: OJICUG_clean_linker_0, # of connection points: 2
#     Edge 41, Type (0, 0), BuildingBlock: OJICUG_clean_linker_0, # of connection points: 2
# Relax obj value: 0.300
# Max RMSD: 0.218
# Mean RMSD: 0.218
data_MOF--net-fnr--node1-XOMCOT_clean_sbu_0--edge1-OJICUG_clean_linker_0
_symmetry_space_group_name_H-M    P1
_symmetry_Int_Tables_number       1
_symmetry_cell_setting            triclinic
loop_
_symmetry_equiv_pos_as_xyz
'x, y, z'
_cell_length_a     30.653491
_cell_length_b     30.621105
_cell_length_c     40.054071
_cell_angle_alpha  89.807106
_cell_angle_beta   90.172845
_cell_angle_gamma 119.88301
loop_
_atom_site_label
_atom_site_type_symbol
_atom_site_fract_x
_atom_site_fract_y
_atom_site_fract_z
_atom_type_partial_charge
Co0 Co 0.42854 0.18452 0.07825 0.0
C1 C 0.34634 0.21145 0.0647 0.0
C2 C 0.41474 0.25191 0.03656 0.0
C3 C 0.38375 0.26997 0.02771 0.0
N4 N 0.39222 0.21585 0.06002 0.0
N5 N 0.3409 0.24494 0.04523 0.0
H6 H 0.31817 0.18512 0.08181 0.0
H7 H 0.45164 0.26415 0.02627 0.0
C8 C 0.52425 0.27241 0.10235 0.0
O9 O 0.52405 0.24443 0.12736 0.0
N10 N 0.46989 0.15631 0.0928 0.0
C11 C 0.46015 0.11461 0.11029 0.0
C12 C 0.50071 0.10678 0.10704 0.0
C13 C 0.51504 0.1717 0.07846 0.0
N14 N 0.53517 0.14313 0.08709 0.0
C15 C 0.38372 0.14781 0.14192 0.0
C16 C 0.42047 0.23962 0.17323 0.0
C17 C 0.39929 0.19549 0.19277 0.0
C18 C 0.37824 0.14914 0.1763 0.0
C19 C 0.42444 0.23638 0.13856 0.0
N20 N 0.41048 0.19104 0.12391 0.0
H21 H 0.36762 0.11155 0.13006 0.0
H22 H 0.4409 0.27054 0.12388 0.0
H23 H 0.42545 0.08963 0.12288 0.0
H24 H 0.53172 0.20203 0.0604 0.0
O25 O 0.37349 0.11835 0.07029 0.0
O26 O 0.43336 0.16231 0.03337 0.0
O27 O 0.48994 0.25406 0.07994 0.0
C28 C 0.39378 0.11975 0.04179 0.0
H29 H 0.39155 0.29878 0.00916 0.0
H30 H 0.50398 0.07609 0.11784 0.0
H31 H 0.43574 0.2764 0.18458 0.0
H32 H 0.3585 0.11393 0.1899 0.0
Co33 Co 0.25177 0.41682 0.57448 0.0
C34 C 0.1521 0.35804 0.54199 0.0
C35 C 0.15918 0.31927 0.58465 0.0
C36 C 0.11179 0.29044 0.57127 0.0
N37 N 0.1841 0.36196 0.5666 0.0
N38 N 0.10748 0.31477 0.54444 0.0
H39 H 0.16111 0.38639 0.52291 0.0
H40 H 0.17435 0.30989 0.60616 0.0
C41 C 0.23605 0.50376 0.58586 0.0
O42 O 0.26406 0.51252 0.61265 0.0
N43 N 0.32109 0.47216 0.5807 0.0
C44 C 0.36142 0.46927 0.59177 0.0
C45 C 0.4039 0.51604 0.58978 0.0
C46 C 0.34102 0.5203 0.56995 0.0
N47 N 0.3906 0.54793 0.57638 0.0
C48 C 0.26694 0.40532 0.64338 0.0
C49 C 0.1821 0.40441 0.66725 0.0
C50 C 0.21364 0.39775 0.6896 0.0
C51 C 0.25649 0.39836 0.67725 0.0
C52 C 0.19416 0.41148 0.63332 0.0
N53 N 0.23704 0.4133 0.62189 0.0
H54 H 0.2982 0.40222 0.63448 0.0
H55 H 0.16854 0.41451 0.61612 0.0
H56 H 0.36103 0.43546 0.59995 0.0
H57 H 0.32045 0.53537 0.55704 0.0
O58 O 0.27559 0.36992 0.57525 0.0
O59 O 0.2711 0.40891 0.52964 0.0
O60 O 0.22731 0.46692 0.56652 0.0
C61 C 0.28452 0.37874 0.54369 0.0
H62 H 0.08301 0.2539 0.58014 0.0
H63 H 0.44133 0.52616 0.59826 0.0
H64 H 0.14791 0.40299 0.67573 0.0
H65 H 0.28183 0.39323 0.69358 0.0
Co66 Co 0.83746 0.23425 0.061 0.0
C67 C 0.81878 0.12955 0.04244 0.0
C68 C 0.84138 0.18099 1.0014 0.0
C69 C 0.82993 0.13467 0.98931 0.0
N70 N 0.83405 0.17831 0.0348 0.0
N71 N 0.81465 0.10191 0.01491 0.0
H72 H 0.80619 0.11326 0.06693 0.0
H73 H 0.85081 0.21345 0.98594 0.0
C74 C 0.72742 0.17036 0.04891 0.0
O75 O 0.73339 0.13168 0.05505 0.0
N76 N 0.84203 0.29148 0.08438 0.0
C77 C 0.86805 0.313 0.11249 0.0
C78 C 0.87124 0.35926 0.11623 0.0
C79 C 0.8297 0.32465 0.07144 0.0
N80 N 0.8473 0.36654 0.09029 0.0
C81 C 0.84397 0.18036 0.11712 0.0
C82 C 0.77127 0.18718 0.15373 0.0
C83 C 0.80466 0.17579 0.17029 0.0
C84 C 0.84011 0.17041 0.1514 0.0
C85 C 0.77666 0.19722 0.11966 0.0
N86 N 0.81357 0.19518 0.10185 0.0
H87 H 0.87413 0.18013 0.10336 0.0
H88 H 0.75494 0.21254 0.10873 0.0
H89 H 0.88593 0.29749 0.12806 0.0
H90 H 0.81175 0.31993 0.04736 0.0
O91 O 0.90794 0.25977 0.06871 0.0
O92 O 0.87653 0.28039 0.02549 0.0
O93 O 0.76606 0.21466 0.04733 0.0
C94 C 0.91604 0.28574 0.04159 0.0
H95 H 0.82794 0.1248 0.96319 0.0
H96 H 0.89131 0.3863 0.13578 0.0
H97 H 0.7441 0.1929 0.1674 0.0
H98 H 0.86636 0.16125 0.16324 0.0
Co99 Co 0.61197 0.85649 0.5724 0.0
C100 C 0.68981 0.82182 0.55943 0.0
C101 C 0.63658 0.80969 0.52061 0.0
C102 C 0.6643 0.78848 0.51075 0.0
N103 N 0.65188 0.83084 0.55101 0.0
N104 N 0.69769 0.79568 0.53485 0.0
H105 H 0.70984 0.83248 0.58297 0.0
H106 H 0.60544 0.80806 0.50681 0.0
C107 C 0.51523 0.76115 0.58631 0.0
O108 O 0.51067 0.7814 0.61401 0.0
N109 N 0.56665 0.87892 0.58958 0.0
C110 C 0.569 0.90764 0.6158 0.0
C111 C 0.52374 0.90746 0.61802 0.0
C112 C 0.52103 0.86387 0.57563 0.0
N113 N 0.49339 0.87915 0.59297 0.0
C114 C 0.65581 0.88298 0.63731 0.0
C115 C 0.61321 0.78813 0.66505 0.0
C116 C 0.63704 0.83029 0.68632 0.0
C117 C 0.66104 0.87796 0.67139 0.0
C118 C 0.61003 0.79499 0.6305 0.0
N119 N 0.62718 0.84216 0.61756 0.0
H120 H 0.67296 0.92068 0.62747 0.0
H121 H 0.59228 0.76223 0.61465 0.0
H122 H 0.60019 0.92646 0.63283 0.0
H123 H 0.50711 0.8395 0.55404 0.0
O124 O 0.66651 0.92491 0.56996 0.0
O125 O 0.61104 0.88769 0.52968 0.0
O126 O 0.55272 0.78615 0.56693 0.0
C127 C 0.65044 0.92824 0.54083 0.0
H128 H 0.66001 0.76859 0.48757 0.0
H129 H 0.51299 0.92441 0.63767 0.0
H130 H 0.59561 0.7502 0.67494 0.0
H131 H 0.68287 0.91175 0.68599 0.0
Co132 Co 0.78535 0.60265 0.06595 0.0
C133 C 0.89047 0.68473 0.04437 0.0
C134 C 0.84193 0.64012 1.00473 0.0
C135 C 0.88792 0.67253 0.99142 0.0
N136 N 0.84277 0.64739 0.03795 0.0
N137 N 0.91904 0.70076 0.01615 0.0
H138 H 0.90479 0.69783 0.06914 0.0
H139 H 0.81068 0.61094 0.99097 0.0
C140 C 0.84405 0.54918 0.06189 0.0
O141 O 0.88426 0.5926 0.06845 0.0
N142 N 0.72707 0.55627 0.09131 0.0
C143 C 0.70046 0.56615 0.11381 0.0
C144 C 0.65906 0.52108 0.12326 0.0
C145 C 0.70205 0.50598 0.08747 0.0
N146 N 0.66092 0.48379 0.10676 0.0
C147 C 0.83901 0.66966 0.11979 0.0
C148 C 0.82743 0.5939 0.1629 0.0
C149 C 0.84024 0.64103 0.17605 0.0
C150 C 0.84836 0.67997 0.15398 0.0
C151 C 0.81893 0.58531 0.12878 0.0
N152 N 0.82327 0.62245 0.10762 0.0
H153 H 0.8404 0.69858 0.10354 0.0
H154 H 0.80322 0.547 0.12028 0.0
H155 H 0.70988 0.60338 0.12221 0.0
H156 H 0.71249 0.48584 0.07007 0.0
O157 O 0.76233 0.65094 0.06663 0.0
O158 O 0.74088 0.59161 0.02833 0.0
O159 O 0.8015 0.54688 0.05828 0.0
C160 C 0.73645 0.62887 0.04008 0.0
H161 H 0.89808 0.6725 0.96561 0.0
H162 H 0.6299 0.51601 0.14062 0.0
H163 H 0.82082 0.56286 0.17919 0.0
H164 H 0.85797 0.71686 0.16331 0.0
Co165 Co 0.17631 0.78307 0.5808 0.0
C166 C 0.22092 0.88403 0.54976 0.0
C167 C 0.16845 0.87466 0.58834 0.0
C168 C 0.18536 0.92101 0.57343 0.0
N169 N 0.19092 0.85163 0.57356 0.0
N170 N 0.21827 0.92692 0.54905 0.0
H171 H 0.24316 0.8757 0.53276 0.0
H172 H 0.14106 0.85851 0.6082 0.0
C173 C 0.2788 0.79536 0.59338 0.0
O174 O 0.25849 0.7629 0.61796 0.0
N175 N 0.16049 0.71302 0.58625 0.0
C176 C 0.1173 0.67387 0.59805 0.0
C177 C 0.11846 0.62988 0.59401 0.0
C178 C 0.18586 0.69121 0.57348 0.0
N179 N 0.1618 0.64094 0.5788 0.0
C180 C 0.14218 0.7674 0.64832 0.0
C181 C 0.23095 0.83681 0.67828 0.0
C182 C 0.18939 0.8058 0.69863 0.0
C183 C 0.14419 0.77208 0.68286 0.0
C184 C 0.22681 0.83166 0.64343 0.0
N185 N 0.18373 0.79473 0.62898 0.0
H186 H 0.10635 0.74232 0.63727 0.0
H187 H 0.25843 0.85709 0.6282 0.0
H188 H 0.08563 0.67597 0.60774 0.0
H189 H 0.22092 0.7113 0.55998 0.0
O190 O 0.10558 0.76037 0.57853 0.0
O191 O 0.1521 0.76658 0.53477 0.0
O192 O 0.25148 0.80712 0.57527 0.0
C193 C 0.10768 0.75368 0.54689 0.0
H194 H 0.1746 0.94847 0.58035 0.0
H195 H 0.09002 0.59274 0.60219 0.0
H196 H 0.26655 0.86446 0.68898 0.0
H197 H 0.11002 0.74968 0.69696 0.0
Co198 Co 0.85432 0.62327 0.43612 0.0
C199 C 0.81125 0.67872 0.47188 0.0
C200 C 0.86337 0.72351 0.43357 0.0
C201 C 0.84868 0.75304 0.45059 0.0
N202 N 0.83982 0.67682 0.44673 0.0
N203 N 0.81607 0.72515 0.47489 0.0
H204 H 0.78877 0.64726 0.48828 0.0
H205 H 0.89039 0.73562 0.41343 0.0
C206 C 0.75337 0.53894 0.41678 0.0
O207 O 0.77659 0.53455 0.39056 0.0
N208 N 0.87034 0.56925 0.42745 0.0
C209 C 0.91613 0.57563 0.41956 0.0
C210 C 0.91451 0.52992 0.42018 0.0
C211 C 0.8423 0.51916 0.43427 0.0
N212 N 0.86798 0.4944 0.42919 0.0
C213 C 0.88811 0.64349 0.36835 0.0
C214 C 0.80501 0.64289 0.34106 0.0
C215 C 0.84443 0.64972 0.31995 0.0
C216 C 0.88679 0.65117 0.33419 0.0
C217 C 0.80839 0.63639 0.37548 0.0
N218 N 0.84836 0.63371 0.38846 0.0
H219 H 0.92174 0.64612 0.37854 0.0
H220 H 0.77834 0.63232 0.3916 0.0
H221 H 0.94968 0.61128 0.41487 0.0
H222 H 0.80445 0.50095 0.44401 0.0
O223 O 0.92469 0.67106 0.43943 0.0
O224 O 0.87788 0.62615 0.48203 0.0
O225 O 0.77902 0.57138 0.4395 0.0
C226 C 0.92227 0.65946 0.47066 0.0
H227 H 0.86097 0.79214 0.44522 0.0
H228 H 0.94512 0.52323 0.41422 0.0
H229 H 0.77201 0.64264 0.33107 0.0
H230 H 0.91835 0.65694 0.31891 0.0
Co231 Co 0.26793 0.85125 0.95177 0.0
C232 C 0.16242 0.82336 0.97379 0.0
C233 C 0.21034 0.82246 0.01253 0.0
C234 C 0.16383 0.80653 0.02585 0.0
N235 N 0.21003 0.83343 0.98 0.0
N236 N 0.13321 0.80689 1.00172 0.0
H237 H 0.1492 0.82658 0.94936 0.0
H238 H 0.24184 0.8236 0.02553 0.0
C239 C 0.26992 0.75381 0.94303 0.0
O240 O 0.29218 0.76999 0.91407 0.0
N241 N 0.32806 0.86863 0.92613 0.0
C242 C 0.33818 0.87987 0.89349 0.0
C243 C 0.37993 0.87611 0.8854 0.0
C244 C 0.36532 0.86125 0.9377 0.0
N245 N 0.39617 0.86318 0.91312 0.0
C246 C 0.22362 0.86812 0.89377 0.0
C247 C 0.19167 0.77627 0.86375 0.0
C248 C 0.19761 0.8169 0.84397 0.0
C249 C 0.20966 0.86195 0.86024 0.0
C250 C 0.20435 0.78373 0.8977 0.0
N251 N 0.22605 0.8309 0.91122 0.0
H252 H 0.2358 0.9045 0.9046 0.0
H253 H 0.19793 0.75163 0.91229 0.0
H254 H 0.315 0.88615 0.87605 0.0
H255 H 0.36505 0.84707 0.96254 0.0
O256 O 0.28555 0.92095 0.95128 0.0
O257 O 0.3118 0.88729 0.98956 0.0
O258 O 0.25642 0.78042 0.96021 0.0
C259 C 0.312 0.92716 0.97778 0.0
H260 H 0.15306 0.79295 0.05112 0.0
H261 H 0.3945 0.87847 0.86047 0.0
H262 H 0.17982 0.73963 0.85308 0.0
H263 H 0.21095 0.89337 0.8469 0.0
Co264 Co 0.43026 0.2594 0.44907 0.0
C265 C 0.35286 0.15055 0.46727 0.0
C266 C 0.41107 0.19164 0.50336 0.0
C267 C 0.38227 0.14349 0.51479 0.0
N268 N 0.39328 0.19659 0.47361 0.0
N269 N 0.3458 0.11755 0.49233 0.0
H270 H 0.33023 0.14107 0.44482 0.0
H271 H 0.44402 0.22118 0.51563 0.0
C272 C 0.53105 0.26683 0.43746 0.0
O273 O 0.53707 0.29244 0.40984 0.0
N274 N 0.47105 0.32453 0.42737 0.0
C275 C 0.46473 0.34215 0.39796 0.0
C276 C 0.50685 0.38826 0.39172 0.0
C277 C 0.51576 0.36142 0.43926 0.0
N278 N 0.53939 0.40003 0.41748 0.0
C279 C 0.37489 0.22537 0.38807 0.0
C280 C 0.43268 0.1913 0.35755 0.0
C281 C 0.40012 0.20066 0.33789 0.0
C282 C 0.36846 0.21427 0.3542 0.0
C283 C 0.43705 0.20184 0.39188 0.0
N284 N 0.41233 0.22404 0.40594 0.0
H285 H 0.3517 0.2388 0.39883 0.0
H286 H 0.46133 0.19328 0.40647 0.0
H287 H 0.43291 0.32276 0.38146 0.0
H288 H 0.53268 0.35767 0.46206 0.0
O289 O 0.37498 0.27168 0.45117 0.0
O290 O 0.43389 0.29595 0.48995 0.0
O291 O 0.49138 0.25143 0.4551 0.0
C292 C 0.3933 0.29495 0.47888 0.0
H293 H 0.38773 0.12833 0.53788 0.0
H294 H 0.51372 0.41043 0.36924 0.0
H295 H 0.45622 0.17819 0.34644 0.0
H296 H 0.34029 0.21871 0.34062 0.0
Co297 Co 0.17596 0.40404 0.9473 0.0
C298 C 0.213 0.34426 0.98278 0.0
C299 C 0.15578 0.29919 0.9472 0.0
C300 C 0.17027 0.26897 0.96383 0.0
N301 N 0.18296 0.34642 0.95893 0.0
N302 N 0.20631 0.29718 0.98641 0.0
H303 H 0.23879 0.37674 0.99723 0.0
H304 H 0.12724 0.2875 0.92801 0.0
C305 C 0.2773 0.4806 0.92494 0.0
O306 O 0.25322 0.48717 0.89996 0.0
N307 N 0.1685 0.46287 0.93792 0.0
C308 C 0.12725 0.46404 0.92698 0.0
C309 C 0.13484 0.51203 0.93034 0.0
C310 C 0.19942 0.51016 0.94926 0.0
N311 N 0.18034 0.54092 0.9442 0.0
C312 C 0.13927 0.3832 0.88033 0.0
C313 C 0.21952 0.37893 0.85287 0.0
C314 C 0.18283 0.37885 0.83181 0.0
C315 C 0.1412 0.3786 0.84602 0.0
C316 C 0.21586 0.38336 0.88732 0.0
N317 N 0.17825 0.3899 0.90024 0.0
H318 H 0.10618 0.38131 0.8907 0.0
H319 H 0.24456 0.38409 0.90345 0.0
H320 H 0.09236 0.43208 0.91906 0.0
H321 H 0.23443 0.52165 0.96228 0.0
O322 O 0.10515 0.36372 0.95162 0.0
O323 O 0.1563 0.40708 0.9933 0.0
O324 O 0.25238 0.44948 0.94851 0.0
C325 C 0.11039 0.37824 0.98231 0.0
H326 H 0.15542 0.2293 0.95915 0.0
H327 H 0.10877 0.52465 0.92333 0.0
H328 H 0.25167 0.37774 0.84281 0.0
H329 H 0.11063 0.37558 0.83069 0.0
Co330 Co 0.78967 0.18233 0.43239 0.0
C331 C 0.89093 0.22551 0.46184 0.0
C332 C 0.88453 0.18278 0.41784 0.0
C333 C 0.9327 0.20272 0.43034 0.0
N334 N 0.85866 0.19767 0.4374 0.0
N335 N 0.93654 0.22938 0.45803 0.0
H336 H 0.88125 0.24269 0.48193 0.0
H337 H 0.86945 0.15892 0.39613 0.0
C338 C 0.79885 0.28241 0.41737 0.0
O339 O 0.76666 0.25906 0.39306 0.0
N340 N 0.71989 0.16701 0.42937 0.0
C341 C 0.67884 0.12558 0.41743 0.0
C342 C 0.63693 0.1302 0.42276 0.0
C343 C 0.70136 0.1941 0.44386 0.0
N344 N 0.65156 0.1737 0.43902 0.0
C345 C 0.76873 0.14317 0.36644 0.0
C346 C 0.83834 0.22806 0.33271 0.0
C347 C 0.80582 0.18462 0.3145 0.0
C348 C 0.77179 0.14158 0.33203 0.0
C349 C 0.83416 0.22788 0.36762 0.0
N350 N 0.79756 0.18645 0.3839 0.0
H351 H 0.74392 0.10853 0.37892 0.0
H352 H 0.86038 0.2609 0.38147 0.0
H353 H 0.67821 0.09319 0.4065 0.0
H354 H 0.72371 0.22837 0.45782 0.0
O355 O 0.76708 0.11189 0.43603 0.0
O356 O 0.77589 0.16043 0.47916 0.0
O357 O 0.81314 0.25766 0.43615 0.0
C358 C 0.76114 0.11523 0.46761 0.0
H359 H 0.96225 0.19698 0.42037 0.0
H360 H 0.59896 0.10439 0.41448 0.0
H361 H 0.86624 0.26186 0.32016 0.0
H362 H 0.74797 0.10635 0.31929 0.0
Co363 Co 0.59882 0.75408 0.94255 0.0
C364 C 0.67442 0.86248 0.96426 0.0
C365 C 0.6195 0.81498 1.0003 0.0
C366 C 0.6486 0.86079 0.01449 0.0
N367 N 0.6355 0.81494 0.96903 0.0
N368 N 0.68287 0.89149 0.992 0.0
H369 H 0.69484 0.87584 0.94103 0.0
H370 H 0.58752 0.7837 0.01214 0.0
C371 C 0.50775 0.7578 0.91975 0.0
O372 O 0.5089 0.73415 0.89274 0.0
N373 N 0.55739 0.69022 0.92009 0.0
C374 C 0.56458 0.66718 0.89372 0.0
C375 C 0.52204 0.62044 0.8897 0.0
C376 C 0.51184 0.65636 0.93231 0.0
N377 N 0.48909 0.61385 0.91416 0.0
C378 C 0.65392 0.77972 0.88128 0.0
C379 C 0.61438 0.8346 0.85299 0.0
C380 C 0.63828 0.81597 0.83206 0.0
C381 C 0.66142 0.79155 0.8474 0.0
C382 C 0.60902 0.82297 0.88726 0.0
N383 N 0.62345 0.79064 0.90004 0.0
H384 H 0.66974 0.75808 0.89154 0.0
H385 H 0.59073 0.83771 0.90286 0.0
H386 H 0.59781 0.68215 0.87842 0.0
H387 H 0.49484 0.66383 0.95357 0.0
O388 O 0.65111 0.7376 0.94835 0.0
O389 O 0.58792 0.71438 0.98353 0.0
O390 O 0.53957 0.76664 0.94329 0.0
C391 C 0.62853 0.71348 0.97511 0.0
H392 H 0.64419 0.87045 0.0397 0.0
H393 H 0.51582 0.59349 0.87023 0.0
H394 H 0.59771 0.8558 0.84298 0.0
H395 H 0.68359 0.77962 0.83315 0.0
C396 C 0.63544 0.11489 0.05981 0.0
C397 C 0.67646 0.16354 0.05395 0.0
H398 H 0.55862 0.07032 0.07532 0.0
C399 C 0.66935 0.20515 0.05778 0.0
H400 H 0.63944 0.08187 0.0571 0.0
C401 C 0.62286 0.19828 0.06836 0.0
C402 C 0.58257 0.14975 0.07549 0.0
H403 H 0.70018 0.24312 0.0539 0.0
H404 H 0.61894 0.23117 0.07202 0.0
C405 C 0.58919 0.10812 0.07066 0.0
C406 C 0.40282 0.63044 0.59223 0.0
C407 C 0.42027 0.60176 0.57579 0.0
H408 H 0.41933 0.70364 0.60848 0.0
C409 C 0.46804 0.62598 0.56104 0.0
H410 H 0.36662 0.61205 0.60451 0.0
C411 C 0.49815 0.6784 0.56294 0.0
C412 C 0.48128 0.70698 0.58042 0.0
H413 H 0.4821 0.60422 0.54848 0.0
H414 H 0.53539 0.69626 0.55198 0.0
C415 C 0.43314 0.68258 0.59474 0.0
C416 C 0.80502 0.41029 0.06602 0.0
C417 C 0.84686 0.41216 0.08192 0.0
H418 H 0.77109 0.4521 0.04716 0.0
C419 C 0.88866 0.45935 0.08924 0.0
H420 H 0.77231 0.37437 0.06011 0.0
C421 C 0.88842 0.50372 0.08135 0.0
C422 C 0.84604 0.50204 0.06638 0.0
H423 H 0.92176 0.46198 0.10095 0.0
H424 H 0.9211 0.53934 0.08787 0.0
C425 C 0.80441 0.45477 0.05858 0.0
C426 C 0.40733 0.80871 0.58224 0.0
C427 C 0.43979 0.85988 0.58967 0.0
H428 H 0.33106 0.74841 0.57778 0.0
C429 C 0.4186 0.89072 0.59548 0.0
H430 H 0.42232 0.78379 0.57805 0.0
C431 C 0.36609 0.87057 0.59435 0.0
C432 C 0.33384 0.81897 0.58823 0.0
H433 H 0.44265 0.9302 0.60129 0.0
H434 H 0.3506 0.89474 0.59985 0.0
C435 C 0.35505 0.7884 0.58205 0.0
C436 C 0.64168 0.39718 0.11709 0.0
C437 C 0.62567 0.43104 0.10753 0.0
H438 H 0.62144 0.31976 0.1233 0.0
C439 C 0.57657 0.41273 0.09572 0.0
H440 H 0.67983 0.41108 0.12579 0.0
C441 C 0.54388 0.36087 0.09308 0.0
C442 C 0.55965 0.32686 0.10306 0.0
H443 H 0.56417 0.43862 0.08775 0.0
H444 H 0.50606 0.34737 0.08378 0.0
C445 C 0.60859 0.34536 0.11544 0.0
C446 C 0.16822 0.52231 0.56846 0.0
C447 C 0.21829 0.53932 0.57782 0.0
H448 H 0.11052 0.54201 0.56167 0.0
C449 C 0.25044 0.5909 0.58369 0.0
H450 H 0.14267 0.48262 0.56406 0.0
C451 C 0.23252 0.62468 0.58179 0.0
C452 C 0.18171 0.60748 0.5747 0.0
H453 H 0.28916 0.60495 0.59094 0.0
H454 H 0.25768 0.66377 0.58802 0.0
C455 C 0.14987 0.55613 0.56731 0.0
C456 C 0.87787 0.42048 0.44242 0.0
C457 C 0.84884 0.44073 0.42959 0.0
H458 H 0.88437 0.35419 0.44953 0.0
C459 C 0.80265 0.40822 0.41434 0.0
H460 H 0.91376 0.44489 0.45422 0.0
C461 C 0.78672 0.35702 0.4107 0.0
C462 C 0.81569 0.33652 0.42324 0.0
H463 H 0.77996 0.42292 0.40382 0.0
H464 H 0.75185 0.33364 0.3975 0.0
C465 C 0.86107 0.36868 0.43976 0.0
C466 C 0.45293 0.84092 0.94363 0.0
C467 C 0.42646 0.83917 0.91443 0.0
H468 H 0.49928 0.81651 0.96849 0.0
C469 C 0.42582 0.80928 0.8877 0.0
H470 H 0.45371 0.86333 0.96472 0.0
C471 C 0.45091 0.78186 0.89004 0.0
C472 C 0.47779 0.78381 0.91907 0.0
H473 H 0.40473 0.80592 0.86521 0.0
H474 H 0.44947 0.75938 0.8688 0.0
C475 C 0.47862 0.81379 0.94587 0.0
C476 C 0.67084 0.48881 0.38805 0.0
C477 C 0.6976 0.50692 0.41815 0.0
H478 H 0.60049 0.44147 0.36418 0.0
C479 C 0.67072 0.49186 0.44834 0.0
H480 H 0.69017 0.49988 0.36427 0.0
C481 C 0.6185 0.45762 0.44827 0.0
C482 C 0.59208 0.43866 0.418 0.0
H483 H 0.69023 0.50512 0.47193 0.0
H484 H 0.59888 0.44556 0.47187 0.0
C485 C 0.61902 0.45553 0.38795 0.0
C486 C 0.27826 0.67721 0.94213 0.0
C487 C 0.24994 0.7001 0.95071 0.0
H488 H 0.27814 0.60804 0.93395 0.0
C489 C 0.19981 0.66982 0.96096 0.0
H490 H 0.31693 0.69986 0.93395 0.0
C491 C 0.1773 0.61727 0.96013 0.0
C492 C 0.20495 0.59436 0.94984 0.0
H493 H 0.17705 0.6866 0.9673 0.0
H494 H 0.13787 0.59448 0.96645 0.0
C495 C 0.25614 0.62481 0.94211 0.0
C496 C 0.61481 0.27284 0.43499 0.0
C497 C 0.56371 0.24516 0.44328 0.0
H498 H 0.6832 0.27147 0.42816 0.0
C499 C 0.54286 0.19462 0.45339 0.0
H500 H 0.6316 0.31179 0.42709 0.0
C501 C 0.57208 0.17124 0.45303 0.0
C502 C 0.6228 0.19853 0.44359 0.0
H503 H 0.50331 0.17239 0.45966 0.0
H504 H 0.55491 0.13166 0.45931 0.0
C505 C 0.64427 0.24987 0.43566 0.0
C506 C 0.35655 0.51859 0.89228 0.0
C507 C 0.33284 0.50807 0.92365 0.0
H508 H 0.42494 0.55992 0.86474 0.0
C509 C 0.36236 0.52831 0.95236 0.0
H510 H 0.33466 0.50306 0.86971 0.0
C511 C 0.41433 0.56142 0.9494 0.0
C512 C 0.4376 0.57403 0.91776 0.0
H513 H 0.34498 0.52081 0.97678 0.0
H514 H 0.43613 0.57835 0.97176 0.0
C515 C 0.40834 0.55085 0.88939 0.0
C516 C 0.40723 0.16303 0.28362 0.0
C517 C 0.4003 0.19905 0.30071 0.0
H518 H 0.41327 0.13425 0.23639 0.0
C519 C 0.394 0.23458 0.28195 0.0
H520 H 0.41214 0.13511 0.29714 0.0
C521 C 0.39352 0.23347 0.24709 0.0
C522 C 0.39985 0.19712 0.22996 0.0
H523 H 0.3898 0.26375 0.29419 0.0
H524 H 0.3876 0.26082 0.23364 0.0
C525 C 0.40715 0.16218 0.2487 0.0
C526 C 0.18638 0.41983 0.74248 0.0
C527 C 0.20252 0.39032 0.72569 0.0
H528 H 0.1683 0.4397 0.7894 0.0
C529 C 0.21061 0.3556 0.74391 0.0
H530 H 0.1806 0.4474 0.72918 0.0
C531 C 0.20399 0.35146 0.77843 0.0
C532 C 0.18864 0.3816 0.79522 0.0
H533 H 0.22229 0.33174 0.73149 0.0
H534 H 0.21065 0.32463 0.79196 0.0
C535 C 0.1795 0.4155 0.77693 0.0
C536 C 0.85183 0.20452 0.25966 0.0
C537 C 0.80643 0.18286 0.27752 0.0
H538 H 0.8869 0.21878 0.2116 0.0
C539 C 0.76073 0.15731 0.25989 0.0
H540 H 0.88761 0.22399 0.27257 0.0
C541 C 0.7603 0.15331 0.22526 0.0
C542 C 0.80555 0.17522 0.20729 0.0
H543 H 0.72503 0.14067 0.27286 0.0
H544 H 0.72441 0.13344 0.2125 0.0
C545 C 0.85139 0.20067 0.22483 0.0
C546 C 0.6371 0.86043 0.77887 0.0
C547 C 0.63783 0.81979 0.7947 0.0
H548 H 0.63441 0.89469 0.73305 0.0
C549 C 0.63698 0.78174 0.77438 0.0
H550 H 0.63785 0.89062 0.79329 0.0
C551 C 0.63671 0.78488 0.73947 0.0
C552 C 0.63654 0.82582 0.72366 0.0
H553 H 0.636 0.74892 0.78536 0.0
H554 H 0.63725 0.75539 0.72497 0.0
C555 C 0.63601 0.86315 0.744 0.0
C556 C 0.88129 0.68602 0.22938 0.0
C557 C 0.83983 0.64722 0.21271 0.0
H558 H 0.91521 0.71739 0.27672 0.0
C559 C 0.798 0.61252 0.23144 0.0
H560 H 0.91385 0.7133 0.21547 0.0
C561 C 0.79839 0.61521 0.26626 0.0
C562 C 0.84091 0.65228 0.2831 0.0
H563 H 0.76525 0.58262 0.21911 0.0
H564 H 0.76639 0.5868 0.28005 0.0
C565 C 0.88202 0.68825 0.26432 0.0
C566 C 0.22477 0.85682 0.7871 0.0
C567 C 0.19443 0.81388 0.80672 0.0
H568 H 0.24615 0.88862 0.73828 0.0
C569 C 0.1632 0.76817 0.79033 0.0
H570 H 0.25053 0.89255 0.79855 0.0
C571 C 0.16245 0.76549 0.75548 0.0
C572 C 0.19202 0.80867 0.73587 0.0
H573 H 0.13902 0.73427 0.80427 0.0
H574 H 0.13873 0.7292 0.744 0.0
C575 C 0.22319 0.85438 0.75226 0.0
C576 C 0.35399 0.02094 0.97425 0.0
C577 C 0.33901 0.97715 0.99358 0.0
H578 H 0.38443 0.10131 0.97426 0.0
C579 C 0.34579 0.98149 0.02818 0.0
H580 H 0.34925 0.01846 0.94738 0.0
C581 C 0.36449 0.0284 0.0434 0.0
C582 C 0.37793 0.07198 0.02425 0.0
H583 H 0.33441 0.94841 0.04359 0.0
H584 H 0.36782 0.0305 0.07036 0.0
C585 C 0.37407 0.06825 0.98946 0.0
C586 C 0.31257 0.35458 0.49179 0.0
C587 C 0.31379 0.35936 0.52652 0.0
H588 H 0.33697 0.32992 0.44955 0.0
C589 C 0.34384 0.34551 0.54551 0.0
H590 H 0.29003 0.36526 0.47664 0.0
C591 C 0.37155 0.32635 0.53009 0.0
C592 C 0.36876 0.31974 0.49551 0.0
H593 H 0.346 0.34945 0.57243 0.0
H594 H 0.39374 0.31526 0.54526 0.0
C595 C 0.33941 0.33437 0.47644 0.0
C596 C 1.00921 0.32254 0.04777 0.0
C597 C 0.96771 0.31742 0.02918 0.0
H598 H 0.08842 0.34723 0.04763 0.0
C599 C 0.97581 0.33972 0.99763 0.0
H600 H 1.00401 0.30609 0.07244 0.0
C601 C 0.02373 0.36308 0.98377 0.0
C602 C 0.06455 0.36502 1.00123 0.0
H603 H 0.9448 0.33685 0.9829 0.0
H604 H 0.02828 0.37739 0.9585 0.0
C605 C 0.05756 0.34644 0.03388 0.0
C606 C 0.67275 0.9776 0.48749 0.0
C607 C 0.6766 0.97639 0.52222 0.0
H608 H 0.69717 0.02239 0.4432 0.0
C609 C 0.70785 0.02173 0.53938 0.0
H610 H 0.64915 0.94341 0.47365 0.0
C611 C 0.73506 0.06738 0.52204 0.0
C612 C 0.73239 0.06824 0.48717 0.0
H613 H 0.71133 0.02194 0.5663 0.0
H614 H 0.75879 0.10162 0.53579 0.0
C615 C 0.70069 0.02291 0.47014 0.0
C616 C 0.68535 0.67199 0.04311 0.0
C617 C 0.7036 0.64558 0.0244 0.0
H618 H 0.64526 0.71307 0.04222 0.0
C619 C 0.69187 0.63715 0.99036 0.0
H620 H 0.69355 0.67858 0.06954 0.0
C621 C 0.66508 0.65744 0.97485 0.0
C622 C 0.6483 0.68524 0.99327 0.0
H623 H 0.70537 0.61691 0.9754 0.0
H624 H 0.65862 0.6526 0.94815 0.0
C625 C 0.65732 0.69122 0.02769 0.0
C626 C 0.96841 0.68126 0.52559 0.0
C627 C 0.96921 0.68218 0.49066 0.0
H628 H 1.01171 0.70374 0.57065 0.0
C629 C 1.01615 0.70628 0.47419 0.0
H630 H 0.93301 0.66305 0.53894 0.0
C631 C 0.06129 0.72921 0.4922 0.0
C632 C 0.06052 0.7292 0.52712 0.0
H633 H 0.01811 0.70734 0.44717 0.0
H634 H 0.09667 0.74737 0.47881 0.0
C635 C 1.0136 0.70485 0.54363 0.0
C636 C 0.74133 0.02066 0.03014 0.0
C637 C 0.78493 0.04796 0.01109 0.0
H638 H 0.67394 0.95185 0.03789 0.0
C639 C 0.79496 0.02292 0.98529 0.0
H640 H 0.73147 0.03891 0.04939 0.0
C641 C 0.76178 0.97162 0.97873 0.0
C642 C 0.71767 0.94455 0.99766 0.0
H643 H 0.82821 0.04328 0.96997 0.0
H644 H 0.77062 0.95331 0.95896 0.0
C645 C 0.70805 0.97016 0.02331 0.0
C646 C 0.81108 0.79361 0.50515 0.0
C647 C 0.79056 0.74196 0.49768 0.0
H648 H 0.79757 0.85139 0.52438 0.0
C649 C 0.74257 0.70804 0.5103 0.0
H650 H 0.84831 0.82091 0.49654 0.0
C651 C 0.7141 0.72575 0.52688 0.0
C652 C 0.73293 0.77768 0.53164 0.0
H653 H 0.72537 0.66817 0.50512 0.0
H654 H 0.67544 0.6992 0.53335 0.0
C655 C 0.78256 0.8112 0.52187 0.0
C656 C 0.99551 0.74851 0.98092 0.0
C657 C 0.97293 0.73427 0.01279 0.0
H658 H 0.06324 0.78169 0.95222 0.0
C659 C 1.0046 0.75056 0.04088 0.0
H660 H 0.97301 0.73885 0.95848 0.0
C661 C 0.05694 0.77692 0.03716 0.0
C662 C 0.07945 0.78704 1.00524 0.0
H663 H 0.98937 0.74161 0.06586 0.0
H664 H 0.07952 0.78804 0.05961 0.0
C665 C 0.04787 0.774 0.9772 0.0
C666 C 0.22895 1.00514 0.52218 0.0
C667 C 0.24656 0.97114 0.52827 0.0
H668 H 0.24689 0.07876 0.50457 0.0
C669 C 0.29422 0.98333 0.51593 0.0
H670 H 0.19213 0.99672 0.53077 0.0
C671 C 0.325 0.02996 0.50055 0.0
C672 C 0.30876 0.06527 0.49668 0.0
H673 H 0.30927 0.95847 0.5202 0.0
H674 H 0.36313 0.04016 0.49387 0.0
C675 C 0.25976 0.05171 0.50654 0.0
C676 C 0.27614 0.31671 0.02626 0.0
C677 C 0.23429 0.28122 0.0078 0.0
H678 H 0.34225 0.33195 0.05379 0.0
C679 C 0.22286 0.23039 0.00886 0.0
H680 H 0.28648 0.35595 0.02686 0.0
C681 C 0.25511 0.21672 0.02494 0.0
C682 C 0.29918 0.25338 0.04049 0.0
H683 H 0.19055 0.2013 0.99586 0.0
H684 H 0.24794 0.17846 0.02275 0.0
C685 C 0.30805 0.30292 0.04227 0.0
C686 C 1.01547 0.27154 0.53581 0.0
C687 C 0.06446 0.29668 0.52262 0.0
H688 H 0.93619 0.23116 0.52546 0.0
C689 C 0.07062 0.30144 0.48782 0.0
H690 H 1.00975 0.26758 0.56256 0.0
C691 C 0.02861 0.27978 0.46662 0.0
C692 C 0.97962 0.25409 0.47982 0.0
H693 H 0.10796 0.32034 0.47705 0.0
H694 H 0.03432 0.2829 0.43986 0.0
C695 C 0.97347 0.25101 0.51464 0.0
loop_
_geom_bond_atom_site_label_1
_geom_bond_atom_site_label_2
_geom_bond_distance
_geom_bond_site_symmetry_2
_ccdc_geom_bond_type
Co0 N4 2.148 . S
Co0 N10 2.128 . S
Co0 N20 2.194 . S
Co0 O25 2.351 . S
Co0 O26 2.155 . S
Co0 O27 2.096 . S
C1 N4 1.301 . S
C1 N5 1.328 . S
C1 H6 0.930 . S
C2 C3 1.333 . S
C2 N4 1.317 . S
C2 H7 0.930 . S
C3 C2 1.333 . S
C3 N5 1.350 . S
C3 H29 0.931 . S
N4 Co0 2.148 . S
N4 C1 1.301 . S
N4 C2 1.317 . S
N5 C1 1.328 . S
N5 C3 1.350 . S
H6 C1 0.930 . S
H7 C2 0.930 . S
C8 O9 1.224 . S
C8 O27 1.247 . S
O9 C8 1.224 . S
N10 Co0 2.128 . S
N10 C11 1.355 . S
N10 C13 1.311 . S
C11 N10 1.355 . S
C11 C12 1.363 . S
C11 H23 0.929 . S
C12 C11 1.363 . S
C12 N14 1.375 . S
C12 H30 0.931 . S
C13 N10 1.311 . S
C13 N14 1.347 . S
C13 H24 0.929 . S
N14 C12 1.375 . S
N14 C13 1.347 . S
C15 C18 1.365 . S
C15 N20 1.328 . S
C15 H21 0.929 . S
C16 C17 1.362 . S
C16 C19 1.378 . S
C16 H31 0.929 . S
C17 C16 1.362 . S
C17 C18 1.366 . S
C18 C15 1.365 . S
C18 C17 1.366 . S
C18 H32 0.930 . S
C19 C16 1.378 . S
C19 N20 1.315 . S
C19 H22 0.930 . S
N20 Co0 2.194 . S
N20 C15 1.328 . S
N20 C19 1.315 . S
H21 C15 0.929 . S
H22 C19 0.930 . S
H23 C11 0.929 . S
H24 C13 0.929 . S
O25 Co0 2.351 . S
O25 C28 1.244 . S
O26 Co0 2.155 . S
O26 C28 1.240 . S
O27 Co0 2.096 . S
O27 C8 1.247 . S
C28 O25 1.244 . S
C28 O26 1.240 . S
H29 C3 0.931 . S
H30 C12 0.931 . S
H31 C16 0.929 . S
H32 C18 0.930 . S
Co33 N37 2.148 . S
Co33 N43 2.128 . S
Co33 N53 2.194 . S
Co33 O58 2.351 . S
Co33 O59 2.155 . S
Co33 O60 2.096 . S
C34 N37 1.301 . S
C34 N38 1.328 . S
C34 H39 0.930 . S
C35 C36 1.333 . S
C35 N37 1.317 . S
C35 H40 0.930 . S
C36 C35 1.333 . S
C36 N38 1.350 . S
C36 H62 0.931 . S
N37 Co33 2.148 . S
N37 C34 1.301 . S
N37 C35 1.317 . S
N38 C34 1.328 . S
N38 C36 1.350 . S
H39 C34 0.930 . S
H40 C35 0.930 . S
C41 O42 1.224 . S
C41 O60 1.247 . S
O42 C41 1.224 . S
N43 Co33 2.128 . S
N43 C44 1.355 . S
N43 C46 1.311 . S
C44 N43 1.355 . S
C44 C45 1.363 . S
C44 H56 0.929 . S
C45 C44 1.363 . S
C45 N47 1.375 . S
C45 H63 0.931 . S
C46 N43 1.311 . S
C46 N47 1.347 . S
C46 H57 0.929 . S
N47 C45 1.375 . S
N47 C46 1.347 . S
C48 C51 1.365 . S
C48 N53 1.328 . S
C48 H54 0.929 . S
C49 C50 1.362 . S
C49 C52 1.378 . S
C49 H64 0.929 . S
C50 C49 1.362 . S
C50 C51 1.366 . S
C51 C48 1.365 . S
C51 C50 1.366 . S
C51 H65 0.930 . S
C52 C49 1.378 . S
C52 N53 1.315 . S
C52 H55 0.930 . S
N53 Co33 2.194 . S
N53 C48 1.328 . S
N53 C52 1.315 . S
H54 C48 0.929 . S
H55 C52 0.930 . S
H56 C44 0.929 . S
H57 C46 0.929 . S
O58 Co33 2.351 . S
O58 C61 1.244 . S
O59 Co33 2.155 . S
O59 C61 1.240 . S
O60 Co33 2.096 . S
O60 C41 1.247 . S
C61 O58 1.244 . S
C61 O59 1.240 . S
H62 C36 0.931 . S
H63 C45 0.931 . S
H64 C49 0.929 . S
H65 C51 0.930 . S
Co66 N70 2.148 . S
Co66 N76 2.128 . S
Co66 N86 2.194 . S
Co66 O91 2.351 . S
Co66 O92 2.155 . S
Co66 O93 2.096 . S
C67 N70 1.301 . S
C67 N71 1.328 . S
C67 H72 0.930 . S
C68 C69 1.333 . S
C68 N70 1.317 . S
C68 H73 0.930 . S
C69 C68 1.333 . S
C69 N71 1.350 . S
C69 H95 0.931 . S
N70 Co66 2.148 . S
N70 C67 1.301 . S
N70 C68 1.317 . S
N71 C67 1.328 . S
N71 C69 1.350 . S
H72 C67 0.930 . S
H73 C68 0.930 . S
C74 O75 1.224 . S
C74 O93 1.247 . S
O75 C74 1.224 . S
N76 Co66 2.128 . S
N76 C77 1.355 . S
N76 C79 1.311 . S
C77 N76 1.355 . S
C77 C78 1.363 . S
C77 H89 0.929 . S
C78 C77 1.363 . S
C78 N80 1.375 . S
C78 H96 0.931 . S
C79 N76 1.311 . S
C79 N80 1.347 . S
C79 H90 0.929 . S
N80 C78 1.375 . S
N80 C79 1.347 . S
C81 C84 1.365 . S
C81 N86 1.328 . S
C81 H87 0.929 . S
C82 C83 1.362 . S
C82 C85 1.378 . S
C82 H97 0.929 . S
C83 C82 1.362 . S
C83 C84 1.366 . S
C84 C81 1.365 . S
C84 C83 1.366 . S
C84 H98 0.930 . S
C85 C82 1.378 . S
C85 N86 1.315 . S
C85 H88 0.930 . S
N86 Co66 2.194 . S
N86 C81 1.328 . S
N86 C85 1.315 . S
H87 C81 0.929 . S
H88 C85 0.930 . S
H89 C77 0.929 . S
H90 C79 0.929 . S
O91 Co66 2.351 . S
O91 C94 1.244 . S
O92 Co66 2.155 . S
O92 C94 1.240 . S
O93 Co66 2.096 . S
O93 C74 1.247 . S
C94 O91 1.244 . S
C94 O92 1.240 . S
H95 C69 0.931 . S
H96 C78 0.931 . S
H97 C82 0.929 . S
H98 C84 0.930 . S
Co99 N103 2.148 . S
Co99 N109 2.128 . S
Co99 N119 2.194 . S
Co99 O124 2.351 . S
Co99 O125 2.155 . S
Co99 O126 2.096 . S
C100 N103 1.301 . S
C100 N104 1.328 . S
C100 H105 0.930 . S
C101 C102 1.333 . S
C101 N103 1.317 . S
C101 H106 0.930 . S
C102 C101 1.333 . S
C102 N104 1.350 . S
C102 H128 0.931 . S
N103 Co99 2.148 . S
N103 C100 1.301 . S
N103 C101 1.317 . S
N104 C100 1.328 . S
N104 C102 1.350 . S
H105 C100 0.930 . S
H106 C101 0.930 . S
C107 O108 1.224 . S
C107 O126 1.247 . S
O108 C107 1.224 . S
N109 Co99 2.128 . S
N109 C110 1.355 . S
N109 C112 1.311 . S
C110 N109 1.355 . S
C110 C111 1.363 . S
C110 H122 0.929 . S
C111 C110 1.363 . S
C111 N113 1.375 . S
C111 H129 0.931 . S
C112 N109 1.311 . S
C112 N113 1.347 . S
C112 H123 0.929 . S
N113 C111 1.375 . S
N113 C112 1.347 . S
C114 C117 1.365 . S
C114 N119 1.328 . S
C114 H120 0.929 . S
C115 C116 1.362 . S
C115 C118 1.378 . S
C115 H130 0.929 . S
C116 C115 1.362 . S
C116 C117 1.366 . S
C117 C114 1.365 . S
C117 C116 1.366 . S
C117 H131 0.930 . S
C118 C115 1.378 . S
C118 N119 1.315 . S
C118 H121 0.930 . S
N119 Co99 2.194 . S
N119 C114 1.328 . S
N119 C118 1.315 . S
H120 C114 0.929 . S
H121 C118 0.930 . S
H122 C110 0.929 . S
H123 C112 0.929 . S
O124 Co99 2.351 . S
O124 C127 1.244 . S
O125 Co99 2.155 . S
O125 C127 1.240 . S
O126 Co99 2.096 . S
O126 C107 1.247 . S
C127 O124 1.244 . S
C127 O125 1.240 . S
H128 C102 0.931 . S
H129 C111 0.931 . S
H130 C115 0.929 . S
H131 C117 0.930 . S
Co132 N136 2.148 . S
Co132 N142 2.128 . S
Co132 N152 2.194 . S
Co132 O157 2.351 . S
Co132 O158 2.155 . S
Co132 O159 2.096 . S
C133 N136 1.301 . S
C133 N137 1.328 . S
C133 H138 0.930 . S
C134 C135 1.333 . S
C134 N136 1.317 . S
C134 H139 0.930 . S
C135 C134 1.333 . S
C135 N137 1.350 . S
C135 H161 0.931 . S
N136 Co132 2.148 . S
N136 C133 1.301 . S
N136 C134 1.317 . S
N137 C133 1.328 . S
N137 C135 1.350 . S
H138 C133 0.930 . S
H139 C134 0.930 . S
C140 O141 1.224 . S
C140 O159 1.247 . S
O141 C140 1.224 . S
N142 Co132 2.128 . S
N142 C143 1.355 . S
N142 C145 1.311 . S
C143 N142 1.355 . S
C143 C144 1.363 . S
C143 H155 0.929 . S
C144 C143 1.363 . S
C144 N146 1.375 . S
C144 H162 0.931 . S
C145 N142 1.311 . S
C145 N146 1.347 . S
C145 H156 0.929 . S
N146 C144 1.375 . S
N146 C145 1.347 . S
C147 C150 1.365 . S
C147 N152 1.328 . S
C147 H153 0.929 . S
C148 C149 1.362 . S
C148 C151 1.378 . S
C148 H163 0.929 . S
C149 C148 1.362 . S
C149 C150 1.366 . S
C150 C147 1.365 . S
C150 C149 1.366 . S
C150 H164 0.930 . S
C151 C148 1.378 . S
C151 N152 1.315 . S
C151 H154 0.930 . S
N152 Co132 2.194 . S
N152 C147 1.328 . S
N152 C151 1.315 . S
H153 C147 0.929 . S
H154 C151 0.930 . S
H155 C143 0.929 . S
H156 C145 0.929 . S
O157 Co132 2.351 . S
O157 C160 1.244 . S
O158 Co132 2.155 . S
O158 C160 1.240 . S
O159 Co132 2.096 . S
O159 C140 1.247 . S
C160 O157 1.244 . S
C160 O158 1.240 . S
H161 C135 0.931 . S
H162 C144 0.931 . S
H163 C148 0.929 . S
H164 C150 0.930 . S
Co165 N169 2.148 . S
Co165 N175 2.128 . S
Co165 N185 2.194 . S
Co165 O190 2.351 . S
Co165 O191 2.155 . S
Co165 O192 2.096 . S
C166 N169 1.301 . S
C166 N170 1.328 . S
C166 H171 0.930 . S
C167 C168 1.333 . S
C167 N169 1.317 . S
C167 H172 0.930 . S
C168 C167 1.333 . S
C168 N170 1.350 . S
C168 H194 0.931 . S
N169 Co165 2.148 . S
N169 C166 1.301 . S
N169 C167 1.317 . S
N170 C166 1.328 . S
N170 C168 1.350 . S
H171 C166 0.930 . S
H172 C167 0.930 . S
C173 O174 1.224 . S
C173 O192 1.247 . S
O174 C173 1.224 . S
N175 Co165 2.128 . S
N175 C176 1.355 . S
N175 C178 1.311 . S
C176 N175 1.355 . S
C176 C177 1.363 . S
C176 H188 0.929 . S
C177 C176 1.363 . S
C177 N179 1.375 . S
C177 H195 0.931 . S
C178 N175 1.311 . S
C178 N179 1.347 . S
C178 H189 0.929 . S
N179 C177 1.375 . S
N179 C178 1.347 . S
C180 C183 1.365 . S
C180 N185 1.328 . S
C180 H186 0.929 . S
C181 C182 1.362 . S
C181 C184 1.378 . S
C181 H196 0.929 . S
C182 C181 1.362 . S
C182 C183 1.366 . S
C183 C180 1.365 . S
C183 C182 1.366 . S
C183 H197 0.930 . S
C184 C181 1.378 . S
C184 N185 1.315 . S
C184 H187 0.930 . S
N185 Co165 2.194 . S
N185 C180 1.328 . S
N185 C184 1.315 . S
H186 C180 0.929 . S
H187 C184 0.930 . S
H188 C176 0.929 . S
H189 C178 0.929 . S
O190 Co165 2.351 . S
O190 C193 1.244 . S
O191 Co165 2.155 . S
O191 C193 1.240 . S
O192 Co165 2.096 . S
O192 C173 1.247 . S
C193 O190 1.244 . S
C193 O191 1.240 . S
H194 C168 0.931 . S
H195 C177 0.931 . S
H196 C181 0.929 . S
H197 C183 0.930 . S
Co198 N202 2.148 . S
Co198 N208 2.128 . S
Co198 N218 2.194 . S
Co198 O223 2.351 . S
Co198 O224 2.155 . S
Co198 O225 2.096 . S
C199 N202 1.301 . S
C199 N203 1.328 . S
C199 H204 0.930 . S
C200 C201 1.333 . S
C200 N202 1.317 . S
C200 H205 0.930 . S
C201 C200 1.333 . S
C201 N203 1.350 . S
C201 H227 0.931 . S
N202 Co198 2.148 . S
N202 C199 1.301 . S
N202 C200 1.317 . S
N203 C199 1.328 . S
N203 C201 1.350 . S
H204 C199 0.930 . S
H205 C200 0.930 . S
C206 O207 1.224 . S
C206 O225 1.247 . S
O207 C206 1.224 . S
N208 Co198 2.128 . S
N208 C209 1.355 . S
N208 C211 1.311 . S
C209 N208 1.355 . S
C209 C210 1.363 . S
C209 H221 0.929 . S
C210 C209 1.363 . S
C210 N212 1.375 . S
C210 H228 0.931 . S
C211 N208 1.311 . S
C211 N212 1.347 . S
C211 H222 0.929 . S
N212 C210 1.375 . S
N212 C211 1.347 . S
C213 C216 1.365 . S
C213 N218 1.328 . S
C213 H219 0.929 . S
C214 C215 1.362 . S
C214 C217 1.378 . S
C214 H229 0.929 . S
C215 C214 1.362 . S
C215 C216 1.366 . S
C216 C213 1.365 . S
C216 C215 1.366 . S
C216 H230 0.930 . S
C217 C214 1.378 . S
C217 N218 1.315 . S
C217 H220 0.930 . S
N218 Co198 2.194 . S
N218 C213 1.328 . S
N218 C217 1.315 . S
H219 C213 0.929 . S
H220 C217 0.930 . S
H221 C209 0.929 . S
H222 C211 0.929 . S
O223 Co198 2.351 . S
O223 C226 1.244 . S
O224 Co198 2.155 . S
O224 C226 1.240 . S
O225 Co198 2.096 . S
O225 C206 1.247 . S
C226 O223 1.244 . S
C226 O224 1.240 . S
H227 C201 0.931 . S
H228 C210 0.931 . S
H229 C214 0.929 . S
H230 C216 0.930 . S
Co231 N235 2.148 . S
Co231 N241 2.128 . S
Co231 N251 2.194 . S
Co231 O256 2.351 . S
Co231 O257 2.155 . S
Co231 O258 2.096 . S
C232 N235 1.301 . S
C232 N236 1.328 . S
C232 H237 0.930 . S
C233 C234 1.333 . S
C233 N235 1.317 . S
C233 H238 0.930 . S
C234 C233 1.333 . S
C234 N236 1.350 . S
C234 H260 0.931 . S
N235 Co231 2.148 . S
N235 C232 1.301 . S
N235 C233 1.317 . S
N236 C232 1.328 . S
N236 C234 1.350 . S
H237 C232 0.930 . S
H238 C233 0.930 . S
C239 O240 1.224 . S
C239 O258 1.247 . S
O240 C239 1.224 . S
N241 Co231 2.128 . S
N241 C242 1.355 . S
N241 C244 1.311 . S
C242 N241 1.355 . S
C242 C243 1.363 . S
C242 H254 0.929 . S
C243 C242 1.363 . S
C243 N245 1.375 . S
C243 H261 0.931 . S
C244 N241 1.311 . S
C244 N245 1.347 . S
C244 H255 0.929 . S
N245 C243 1.375 . S
N245 C244 1.347 . S
C246 C249 1.365 . S
C246 N251 1.328 . S
C246 H252 0.929 . S
C247 C248 1.362 . S
C247 C250 1.378 . S
C247 H262 0.929 . S
C248 C247 1.362 . S
C248 C249 1.366 . S
C249 C246 1.365 . S
C249 C248 1.366 . S
C249 H263 0.930 . S
C250 C247 1.378 . S
C250 N251 1.315 . S
C250 H253 0.930 . S
N251 Co231 2.194 . S
N251 C246 1.328 . S
N251 C250 1.315 . S
H252 C246 0.929 . S
H253 C250 0.930 . S
H254 C242 0.929 . S
H255 C244 0.929 . S
O256 Co231 2.351 . S
O256 C259 1.244 . S
O257 Co231 2.155 . S
O257 C259 1.240 . S
O258 Co231 2.096 . S
O258 C239 1.247 . S
C259 O256 1.244 . S
C259 O257 1.240 . S
H260 C234 0.931 . S
H261 C243 0.931 . S
H262 C247 0.929 . S
H263 C249 0.930 . S
Co264 N268 2.148 . S
Co264 N274 2.128 . S
Co264 N284 2.194 . S
Co264 O289 2.351 . S
Co264 O290 2.155 . S
Co264 O291 2.096 . S
C265 N268 1.301 . S
C265 N269 1.328 . S
C265 H270 0.930 . S
C266 C267 1.333 . S
C266 N268 1.317 . S
C266 H271 0.930 . S
C267 C266 1.333 . S
C267 N269 1.350 . S
C267 H293 0.931 . S
N268 Co264 2.148 . S
N268 C265 1.301 . S
N268 C266 1.317 . S
N269 C265 1.328 . S
N269 C267 1.350 . S
H270 C265 0.930 . S
H271 C266 0.930 . S
C272 O273 1.224 . S
C272 O291 1.247 . S
O273 C272 1.224 . S
N274 Co264 2.128 . S
N274 C275 1.355 . S
N274 C277 1.311 . S
C275 N274 1.355 . S
C275 C276 1.363 . S
C275 H287 0.929 . S
C276 C275 1.363 . S
C276 N278 1.375 . S
C276 H294 0.931 . S
C277 N274 1.311 . S
C277 N278 1.347 . S
C277 H288 0.929 . S
N278 C276 1.375 . S
N278 C277 1.347 . S
C279 C282 1.365 . S
C279 N284 1.328 . S
C279 H285 0.929 . S
C280 C281 1.362 . S
C280 C283 1.378 . S
C280 H295 0.929 . S
C281 C280 1.362 . S
C281 C282 1.366 . S
C282 C279 1.365 . S
C282 C281 1.366 . S
C282 H296 0.930 . S
C283 C280 1.378 . S
C283 N284 1.315 . S
C283 H286 0.930 . S
N284 Co264 2.194 . S
N284 C279 1.328 . S
N284 C283 1.315 . S
H285 C279 0.929 . S
H286 C283 0.930 . S
H287 C275 0.929 . S
H288 C277 0.929 . S
O289 Co264 2.351 . S
O289 C292 1.244 . S
O290 Co264 2.155 . S
O290 C292 1.240 . S
O291 Co264 2.096 . S
O291 C272 1.247 . S
C292 O289 1.244 . S
C292 O290 1.240 . S
H293 C267 0.931 . S
H294 C276 0.931 . S
H295 C280 0.929 . S
H296 C282 0.930 . S
Co297 N301 2.148 . S
Co297 N307 2.128 . S
Co297 N317 2.194 . S
Co297 O322 2.351 . S
Co297 O323 2.155 . S
Co297 O324 2.096 . S
C298 N301 1.301 . S
C298 N302 1.328 . S
C298 H303 0.930 . S
C299 C300 1.333 . S
C299 N301 1.317 . S
C299 H304 0.930 . S
C300 C299 1.333 . S
C300 N302 1.350 . S
C300 H326 0.931 . S
N301 Co297 2.148 . S
N301 C298 1.301 . S
N301 C299 1.317 . S
N302 C298 1.328 . S
N302 C300 1.350 . S
H303 C298 0.930 . S
H304 C299 0.930 . S
C305 O306 1.224 . S
C305 O324 1.247 . S
O306 C305 1.224 . S
N307 Co297 2.128 . S
N307 C308 1.355 . S
N307 C310 1.311 . S
C308 N307 1.355 . S
C308 C309 1.363 . S
C308 H320 0.929 . S
C309 C308 1.363 . S
C309 N311 1.375 . S
C309 H327 0.931 . S
C310 N307 1.311 . S
C310 N311 1.347 . S
C310 H321 0.929 . S
N311 C309 1.375 . S
N311 C310 1.347 . S
C312 C315 1.365 . S
C312 N317 1.328 . S
C312 H318 0.929 . S
C313 C314 1.362 . S
C313 C316 1.378 . S
C313 H328 0.929 . S
C314 C313 1.362 . S
C314 C315 1.366 . S
C315 C312 1.365 . S
C315 C314 1.366 . S
C315 H329 0.930 . S
C316 C313 1.378 . S
C316 N317 1.315 . S
C316 H319 0.930 . S
N317 Co297 2.194 . S
N317 C312 1.328 . S
N317 C316 1.315 . S
H318 C312 0.929 . S
H319 C316 0.930 . S
H320 C308 0.929 . S
H321 C310 0.929 . S
O322 Co297 2.351 . S
O322 C325 1.244 . S
O323 Co297 2.155 . S
O323 C325 1.240 . S
O324 Co297 2.096 . S
O324 C305 1.247 . S
C325 O322 1.244 . S
C325 O323 1.240 . S
H326 C300 0.931 . S
H327 C309 0.931 . S
H328 C313 0.929 . S
H329 C315 0.930 . S
Co330 N334 2.148 . S
Co330 N340 2.128 . S
Co330 N350 2.194 . S
Co330 O355 2.351 . S
Co330 O356 2.155 . S
Co330 O357 2.096 . S
C331 N334 1.301 . S
C331 N335 1.328 . S
C331 H336 0.930 . S
C332 C333 1.333 . S
C332 N334 1.317 . S
C332 H337 0.930 . S
C333 C332 1.333 . S
C333 N335 1.350 . S
C333 H359 0.931 . S
N334 Co330 2.148 . S
N334 C331 1.301 . S
N334 C332 1.317 . S
N335 C331 1.328 . S
N335 C333 1.350 . S
H336 C331 0.930 . S
H337 C332 0.930 . S
C338 O339 1.224 . S
C338 O357 1.247 . S
O339 C338 1.224 . S
N340 Co330 2.128 . S
N340 C341 1.355 . S
N340 C343 1.311 . S
C341 N340 1.355 . S
C341 C342 1.363 . S
C341 H353 0.929 . S
C342 C341 1.363 . S
C342 N344 1.375 . S
C342 H360 0.931 . S
C343 N340 1.311 . S
C343 N344 1.347 . S
C343 H354 0.929 . S
N344 C342 1.375 . S
N344 C343 1.347 . S
C345 C348 1.365 . S
C345 N350 1.328 . S
C345 H351 0.929 . S
C346 C347 1.362 . S
C346 C349 1.378 . S
C346 H361 0.929 . S
C347 C346 1.362 . S
C347 C348 1.366 . S
C348 C345 1.365 . S
C348 C347 1.366 . S
C348 H362 0.930 . S
C349 C346 1.378 . S
C349 N350 1.315 . S
C349 H352 0.930 . S
N350 Co330 2.194 . S
N350 C345 1.328 . S
N350 C349 1.315 . S
H351 C345 0.929 . S
H352 C349 0.930 . S
H353 C341 0.929 . S
H354 C343 0.929 . S
O355 Co330 2.351 . S
O355 C358 1.244 . S
O356 Co330 2.155 . S
O356 C358 1.240 . S
O357 Co330 2.096 . S
O357 C338 1.247 . S
C358 O355 1.244 . S
C358 O356 1.240 . S
H359 C333 0.931 . S
H360 C342 0.931 . S
H361 C346 0.929 . S
H362 C348 0.930 . S
Co363 N367 2.148 . S
Co363 N373 2.128 . S
Co363 N383 2.194 . S
Co363 O388 2.351 . S
Co363 O389 2.155 . S
Co363 O390 2.096 . S
C364 N367 1.301 . S
C364 N368 1.328 . S
C364 H369 0.930 . S
C365 C366 1.333 . S
C365 N367 1.317 . S
C365 H370 0.930 . S
C366 C365 1.333 . S
C366 N368 1.350 . S
C366 H392 0.931 . S
N367 Co363 2.148 . S
N367 C364 1.301 . S
N367 C365 1.317 . S
N368 C364 1.328 . S
N368 C366 1.350 . S
H369 C364 0.930 . S
H370 C365 0.930 . S
C371 O372 1.224 . S
C371 O390 1.247 . S
O372 C371 1.224 . S
N373 Co363 2.128 . S
N373 C374 1.355 . S
N373 C376 1.311 . S
C374 N373 1.355 . S
C374 C375 1.363 . S
C374 H386 0.929 . S
C375 C374 1.363 . S
C375 N377 1.375 . S
C375 H393 0.931 . S
C376 N373 1.311 . S
C376 N377 1.347 . S
C376 H387 0.929 . S
N377 C375 1.375 . S
N377 C376 1.347 . S
C378 C381 1.365 . S
C378 N383 1.328 . S
C378 H384 0.929 . S
C379 C380 1.362 . S
C379 C382 1.378 . S
C379 H394 0.929 . S
C380 C379 1.362 . S
C380 C381 1.366 . S
C381 C378 1.365 . S
C381 C380 1.366 . S
C381 H395 0.930 . S
C382 C379 1.378 . S
C382 N383 1.315 . S
C382 H385 0.930 . S
N383 Co363 2.194 . S
N383 C378 1.328 . S
N383 C382 1.315 . S
H384 C378 0.929 . S
H385 C382 0.930 . S
H386 C374 0.929 . S
H387 C376 0.929 . S
O388 Co363 2.351 . S
O388 C391 1.244 . S
O389 Co363 2.155 . S
O389 C391 1.240 . S
O390 Co363 2.096 . S
O390 C371 1.247 . S
C391 O388 1.244 . S
C391 O389 1.240 . S
H392 C366 0.931 . S
H393 C375 0.931 . S
H394 C379 0.929 . S
H395 C381 0.930 . S
C396 C397 1.387 . S
C396 H400 0.950 . S
C396 C405 1.390 . S
C397 C396 1.387 . S
C397 C399 1.387 . S
H398 C405 0.950 . S
C399 C397 1.387 . S
C399 C401 1.390 . S
C399 H403 0.950 . S
H400 C396 0.950 . S
C401 C399 1.390 . S
C401 C402 1.387 . S
C401 H404 0.950 . S
C402 C401 1.387 . S
C402 C405 1.387 . S
H403 C399 0.950 . S
H404 C401 0.950 . S
C405 C396 1.390 . S
C405 H398 0.950 . S
C405 C402 1.387 . S
C406 C407 1.387 . S
C406 H410 0.950 . S
C406 C415 1.390 . S
C407 C406 1.387 . S
C407 C409 1.387 . S
H408 C415 0.950 . S
C409 C407 1.387 . S
C409 C411 1.390 . S
C409 H413 0.950 . S
H410 C406 0.950 . S
C411 C409 1.390 . S
C411 C412 1.387 . S
C411 H414 0.950 . S
C412 C411 1.387 . S
C412 C415 1.387 . S
H413 C409 0.950 . S
H414 C411 0.950 . S
C415 C406 1.390 . S
C415 H408 0.950 . S
C415 C412 1.387 . S
C416 C417 1.387 . S
C416 H420 0.950 . S
C416 C425 1.390 . S
C417 C416 1.387 . S
C417 C419 1.387 . S
H418 C425 0.950 . S
C419 C417 1.387 . S
C419 C421 1.390 . S
C419 H423 0.950 . S
H420 C416 0.950 . S
C421 C419 1.390 . S
C421 C422 1.387 . S
C421 H424 0.950 . S
C422 C421 1.387 . S
C422 C425 1.387 . S
H423 C419 0.950 . S
H424 C421 0.950 . S
C425 C416 1.390 . S
C425 H418 0.950 . S
C425 C422 1.387 . S
C426 C427 1.387 . S
C426 H430 0.950 . S
C426 C435 1.390 . S
C427 C426 1.387 . S
C427 C429 1.387 . S
H428 C435 0.950 . S
C429 C427 1.387 . S
C429 C431 1.390 . S
C429 H433 0.950 . S
H430 C426 0.950 . S
C431 C429 1.390 . S
C431 C432 1.387 . S
C431 H434 0.950 . S
C432 C431 1.387 . S
C432 C435 1.387 . S
H433 C429 0.950 . S
H434 C431 0.950 . S
C435 C426 1.390 . S
C435 H428 0.950 . S
C435 C432 1.387 . S
C436 C437 1.387 . S
C436 H440 0.950 . S
C436 C445 1.390 . S
C437 C436 1.387 . S
C437 C439 1.387 . S
H438 C445 0.950 . S
C439 C437 1.387 . S
C439 C441 1.390 . S
C439 H443 0.950 . S
H440 C436 0.950 . S
C441 C439 1.390 . S
C441 C442 1.387 . S
C441 H444 0.950 . S
C442 C441 1.387 . S
C442 C445 1.387 . S
H443 C439 0.950 . S
H444 C441 0.950 . S
C445 C436 1.390 . S
C445 H438 0.950 . S
C445 C442 1.387 . S
C446 C447 1.387 . S
C446 H450 0.950 . S
C446 C455 1.390 . S
C447 C446 1.387 . S
C447 C449 1.387 . S
H448 C455 0.950 . S
C449 C447 1.387 . S
C449 C451 1.390 . S
C449 H453 0.950 . S
H450 C446 0.950 . S
C451 C449 1.390 . S
C451 C452 1.387 . S
C451 H454 0.950 . S
C452 C451 1.387 . S
C452 C455 1.387 . S
H453 C449 0.950 . S
H454 C451 0.950 . S
C455 C446 1.390 . S
C455 H448 0.950 . S
C455 C452 1.387 . S
C456 C457 1.387 . S
C456 H460 0.950 . S
C456 C465 1.390 . S
C457 C456 1.387 . S
C457 C459 1.387 . S
H458 C465 0.950 . S
C459 C457 1.387 . S
C459 C461 1.390 . S
C459 H463 0.950 . S
H460 C456 0.950 . S
C461 C459 1.390 . S
C461 C462 1.387 . S
C461 H464 0.950 . S
C462 C461 1.387 . S
C462 C465 1.387 . S
H463 C459 0.950 . S
H464 C461 0.950 . S
C465 C456 1.390 . S
C465 H458 0.950 . S
C465 C462 1.387 . S
C466 C467 1.387 . S
C466 H470 0.950 . S
C466 C475 1.390 . S
C467 C466 1.387 . S
C467 C469 1.387 . S
H468 C475 0.950 . S
C469 C467 1.387 . S
C469 C471 1.390 . S
C469 H473 0.950 . S
H470 C466 0.950 . S
C471 C469 1.390 . S
C471 C472 1.387 . S
C471 H474 0.950 . S
C472 C471 1.387 . S
C472 C475 1.387 . S
H473 C469 0.950 . S
H474 C471 0.950 . S
C475 C466 1.390 . S
C475 H468 0.950 . S
C475 C472 1.387 . S
C476 C477 1.387 . S
C476 H480 0.950 . S
C476 C485 1.390 . S
C477 C476 1.387 . S
C477 C479 1.387 . S
H478 C485 0.950 . S
C479 C477 1.387 . S
C479 C481 1.390 . S
C479 H483 0.950 . S
H480 C476 0.950 . S
C481 C479 1.390 . S
C481 C482 1.387 . S
C481 H484 0.950 . S
C482 C481 1.387 . S
C482 C485 1.387 . S
H483 C479 0.950 . S
H484 C481 0.950 . S
C485 C476 1.390 . S
C485 H478 0.950 . S
C485 C482 1.387 . S
C486 C487 1.387 . S
C486 H490 0.950 . S
C486 C495 1.390 . S
C487 C486 1.387 . S
C487 C489 1.387 . S
H488 C495 0.950 . S
C489 C487 1.387 . S
C489 C491 1.390 . S
C489 H493 0.950 . S
H490 C486 0.950 . S
C491 C489 1.390 . S
C491 C492 1.387 . S
C491 H494 0.950 . S
C492 C491 1.387 . S
C492 C495 1.387 . S
H493 C489 0.950 . S
H494 C491 0.950 . S
C495 C486 1.390 . S
C495 H488 0.950 . S
C495 C492 1.387 . S
C496 C497 1.387 . S
C496 H500 0.950 . S
C496 C505 1.390 . S
C497 C496 1.387 . S
C497 C499 1.387 . S
H498 C505 0.950 . S
C499 C497 1.387 . S
C499 C501 1.390 . S
C499 H503 0.950 . S
H500 C496 0.950 . S
C501 C499 1.390 . S
C501 C502 1.387 . S
C501 H504 0.950 . S
C502 C501 1.387 . S
C502 C505 1.387 . S
H503 C499 0.950 . S
H504 C501 0.950 . S
C505 C496 1.390 . S
C505 H498 0.950 . S
C505 C502 1.387 . S
C506 C507 1.387 . S
C506 H510 0.950 . S
C506 C515 1.390 . S
C507 C506 1.387 . S
C507 C509 1.387 . S
H508 C515 0.950 . S
C509 C507 1.387 . S
C509 C511 1.390 . S
C509 H513 0.950 . S
H510 C506 0.950 . S
C511 C509 1.390 . S
C511 C512 1.387 . S
C511 H514 0.950 . S
C512 C511 1.387 . S
C512 C515 1.387 . S
H513 C509 0.950 . S
H514 C511 0.950 . S
C515 C506 1.390 . S
C515 H508 0.950 . S
C515 C512 1.387 . S
C516 C517 1.387 . S
C516 H520 0.950 . S
C516 C525 1.390 . S
C517 C516 1.387 . S
C517 C519 1.387 . S
H518 C525 0.950 . S
C519 C517 1.387 . S
C519 C521 1.390 . S
C519 H523 0.950 . S
H520 C516 0.950 . S
C521 C519 1.390 . S
C521 C522 1.387 . S
C521 H524 0.950 . S
C522 C521 1.387 . S
C522 C525 1.387 . S
H523 C519 0.950 . S
H524 C521 0.950 . S
C525 C516 1.390 . S
C525 H518 0.950 . S
C525 C522 1.387 . S
C526 C527 1.387 . S
C526 H530 0.950 . S
C526 C535 1.390 . S
C527 C526 1.387 . S
C527 C529 1.387 . S
H528 C535 0.950 . S
C529 C527 1.387 . S
C529 C531 1.390 . S
C529 H533 0.950 . S
H530 C526 0.950 . S
C531 C529 1.390 . S
C531 C532 1.387 . S
C531 H534 0.950 . S
C532 C531 1.387 . S
C532 C535 1.387 . S
H533 C529 0.950 . S
H534 C531 0.950 . S
C535 C526 1.390 . S
C535 H528 0.950 . S
C535 C532 1.387 . S
C536 C537 1.387 . S
C536 H540 0.950 . S
C536 C545 1.390 . S
C537 C536 1.387 . S
C537 C539 1.387 . S
H538 C545 0.950 . S
C539 C537 1.387 . S
C539 C541 1.390 . S
C539 H543 0.950 . S
H540 C536 0.950 . S
C541 C539 1.390 . S
C541 C542 1.387 . S
C541 H544 0.950 . S
C542 C541 1.387 . S
C542 C545 1.387 . S
H543 C539 0.950 . S
H544 C541 0.950 . S
C545 C536 1.390 . S
C545 H538 0.950 . S
C545 C542 1.387 . S
C546 C547 1.387 . S
C546 H550 0.950 . S
C546 C555 1.390 . S
C547 C546 1.387 . S
C547 C549 1.387 . S
H548 C555 0.950 . S
C549 C547 1.387 . S
C549 C551 1.390 . S
C549 H553 0.950 . S
H550 C546 0.950 . S
C551 C549 1.390 . S
C551 C552 1.387 . S
C551 H554 0.950 . S
C552 C551 1.387 . S
C552 C555 1.387 . S
H553 C549 0.950 . S
H554 C551 0.950 . S
C555 C546 1.390 . S
C555 H548 0.950 . S
C555 C552 1.387 . S
C556 C557 1.387 . S
C556 H560 0.950 . S
C556 C565 1.390 . S
C557 C556 1.387 . S
C557 C559 1.387 . S
H558 C565 0.950 . S
C559 C557 1.387 . S
C559 C561 1.390 . S
C559 H563 0.950 . S
H560 C556 0.950 . S
C561 C559 1.390 . S
C561 C562 1.387 . S
C561 H564 0.950 . S
C562 C561 1.387 . S
C562 C565 1.387 . S
H563 C559 0.950 . S
H564 C561 0.950 . S
C565 C556 1.390 . S
C565 H558 0.950 . S
C565 C562 1.387 . S
C566 C567 1.387 . S
C566 H570 0.950 . S
C566 C575 1.390 . S
C567 C566 1.387 . S
C567 C569 1.387 . S
H568 C575 0.950 . S
C569 C567 1.387 . S
C569 C571 1.390 . S
C569 H573 0.950 . S
H570 C566 0.950 . S
C571 C569 1.390 . S
C571 C572 1.387 . S
C571 H574 0.950 . S
C572 C571 1.387 . S
C572 C575 1.387 . S
H573 C569 0.950 . S
H574 C571 0.950 . S
C575 C566 1.390 . S
C575 H568 0.950 . S
C575 C572 1.387 . S
C576 C577 1.387 . S
C576 H580 0.950 . S
C576 C585 1.390 1_566 S
C577 C576 1.387 . S
C577 C579 1.387 . S
H578 C585 0.950 . S
C579 C577 1.387 . S
C579 C581 1.390 1_566 S
C579 H583 0.950 . S
H580 C576 0.950 . S
C581 C579 1.390 1_544 S
C581 C582 1.387 . S
C581 H584 0.950 . S
C582 C581 1.387 . S
C582 C585 1.387 . S
H583 C579 0.950 . S
H584 C581 0.950 . S
C585 C576 1.390 1_544 S
C585 H578 0.950 . S
C585 C582 1.387 . S
C586 C587 1.387 . S
C586 H590 0.950 . S
C586 C595 1.390 . S
C587 C586 1.387 . S
C587 C589 1.387 . S
H588 C595 0.950 . S
C589 C587 1.387 . S
C589 C591 1.390 . S
C589 H593 0.950 . S
H590 C586 0.950 . S
C591 C589 1.390 . S
C591 C592 1.387 . S
C591 H594 0.950 . S
C592 C591 1.387 . S
C592 C595 1.387 . S
H593 C589 0.950 . S
H594 C591 0.950 . S
C595 C586 1.390 . S
C595 H588 0.950 . S
C595 C592 1.387 . S
C596 C597 1.387 . S
C596 H600 0.950 . S
C596 C605 1.390 1_655 S
C597 C596 1.387 . S
C597 C599 1.387 1_554 S
H598 C605 0.950 . S
C599 C597 1.387 1_556 S
C599 C601 1.390 1_655 S
C599 H603 0.950 . S
H600 C596 0.950 . S
C601 C599 1.390 1_455 S
C601 C602 1.387 . S
C601 H604 0.950 . S
C602 C601 1.387 . S
C602 C605 1.387 1_556 S
H603 C599 0.950 . S
H604 C601 0.950 . S
C605 C596 1.390 1_455 S
C605 H598 0.950 . S
C605 C602 1.387 1_554 S
C606 C607 1.387 . S
C606 H610 0.950 . S
C606 C615 1.390 1_565 S
C607 C606 1.387 . S
C607 C609 1.387 . S
H608 C615 0.950 . S
C609 C607 1.387 . S
C609 C611 1.390 1_565 S
C609 H613 0.950 . S
H610 C606 0.950 . S
C611 C609 1.390 1_545 S
C611 C612 1.387 . S
C611 H614 0.950 . S
C612 C611 1.387 . S
C612 C615 1.387 . S
H613 C609 0.950 . S
H614 C611 0.950 . S
C615 C606 1.390 1_545 S
C615 H608 0.950 . S
C615 C612 1.387 . S
C616 C617 1.387 . S
C616 H620 0.950 . S
C616 C625 1.390 . S
C617 C616 1.387 . S
C617 C619 1.387 1_554 S
H618 C625 0.950 . S
C619 C617 1.387 1_556 S
C619 C621 1.390 . S
C619 H623 0.950 . S
H620 C616 0.950 . S
C621 C619 1.390 . S
C621 C622 1.387 . S
C621 H624 0.950 . S
C622 C621 1.387 . S
C622 C625 1.387 1_556 S
H623 C619 0.950 . S
H624 C621 0.950 . S
C625 C616 1.390 . S
C625 H618 0.950 . S
C625 C622 1.387 1_554 S
C626 C627 1.387 . S
C626 H630 0.950 . S
C626 C635 1.390 1_655 S
C627 C626 1.387 . S
C627 C629 1.387 . S
H628 C635 0.950 . S
C629 C627 1.387 . S
C629 C631 1.390 1_655 S
C629 H633 0.950 . S
H630 C626 0.950 . S
C631 C629 1.390 1_455 S
C631 C632 1.387 . S
C631 H634 0.950 . S
C632 C631 1.387 . S
C632 C635 1.387 . S
H633 C629 0.950 . S
H634 C631 0.950 . S
C635 C626 1.390 1_455 S
C635 H628 0.950 . S
C635 C632 1.387 . S
C636 C637 1.387 . S
C636 H640 0.950 . S
C636 C645 1.390 1_544 S
C637 C636 1.387 . S
C637 C639 1.387 . S
H638 C645 0.950 . S
C639 C637 1.387 . S
C639 C641 1.390 1_544 S
C639 H643 0.950 . S
H640 C636 0.950 . S
C641 C639 1.390 1_566 S
C641 C642 1.387 . S
C641 H644 0.950 . S
C642 C641 1.387 . S
C642 C645 1.387 . S
H643 C639 0.950 . S
H644 C641 0.950 . S
C645 C636 1.390 1_566 S
C645 H638 0.950 . S
C645 C642 1.387 . S
C646 C647 1.387 . S
C646 H650 0.950 . S
C646 C655 1.390 . S
C647 C646 1.387 . S
C647 C649 1.387 . S
H648 C655 0.950 . S
C649 C647 1.387 . S
C649 C651 1.390 . S
C649 H653 0.950 . S
H650 C646 0.950 . S
C651 C649 1.390 . S
C651 C652 1.387 . S
C651 H654 0.950 . S
C652 C651 1.387 . S
C652 C655 1.387 . S
H653 C649 0.950 . S
H654 C651 0.950 . S
C655 C646 1.390 . S
C655 H648 0.950 . S
C655 C652 1.387 . S
C656 C657 1.376 1_556 S
C656 H660 0.950 . S
C656 C665 1.416 . S
C657 C656 1.376 1_554 S
C657 C659 1.381 1_655 S
H658 C665 0.943 . S
C659 C657 1.381 1_455 S
C659 C661 1.415 . S
C659 H663 0.943 . S
H660 C656 0.950 . S
C661 C659 1.415 . S
C661 C662 1.376 1_554 S
C661 H664 0.950 . S
C662 C661 1.376 1_556 S
C662 C665 1.381 1_455 S
H663 C659 0.943 . S
H664 C661 0.950 . S
C665 C656 1.416 . S
C665 H658 0.943 . S
C665 C662 1.381 1_655 S
C666 C667 1.387 . S
C666 H670 0.950 . S
C666 C675 1.390 1_565 S
C667 C666 1.387 . S
C667 C669 1.387 . S
H668 C675 0.950 . S
C669 C667 1.387 . S
C669 C671 1.390 1_565 S
C669 H673 0.950 . S
H670 C666 0.950 . S
C671 C669 1.390 1_545 S
C671 C672 1.387 . S
C671 H674 0.950 . S
C672 C671 1.387 . S
C672 C675 1.387 . S
H673 C669 0.950 . S
H674 C671 0.950 . S
C675 C666 1.390 1_545 S
C675 H668 0.950 . S
C675 C672 1.387 . S
C676 C677 1.402 . S
C676 H680 0.950 . S
C676 C685 1.376 1_556 S
C677 C676 1.402 . S
C677 C679 1.387 . S
H678 C685 0.950 . S
C679 C677 1.387 . S
C679 C681 1.376 1_556 S
C679 H683 0.950 . S
H680 C676 0.950 . S
C681 C679 1.376 1_554 S
C681 C682 1.402 . S
C681 H684 0.950 . S
C682 C681 1.402 . S
C682 C685 1.387 . S
H683 C679 0.950 . S
H684 C681 0.950 . S
C685 C676 1.376 1_554 S
C685 H678 0.950 . S
C685 C682 1.387 . S
C686 C687 1.387 1_655 S
C686 H690 0.950 . S
C686 C695 1.390 . S
C687 C686 1.387 1_455 S
C687 C689 1.387 . S
H688 C695 0.950 . S
C689 C687 1.387 . S
C689 C691 1.390 . S
C689 H693 0.950 . S
H690 C686 0.950 . S
C691 C689 1.390 . S
C691 C692 1.387 1_455 S
C691 H694 0.950 . S
C692 C691 1.387 1_655 S
C692 C695 1.387 . S
H693 C689 0.950 . S
H694 C691 0.950 . S
C695 C686 1.390 . S
C695 H688 0.950 . S
C695 C692 1.387 . S
C397 C74 1.686 . S
C402 N14 1.763 . S
C407 N47 1.763 . S
C412 C107 1.685 . S
C417 N80 1.765 . S
C422 C140 1.688 . S
C427 N113 1.763 . S
C432 C173 1.685 . S
C437 N146 1.763 . S
C442 C8 1.685 . S
C447 C41 1.686 . S
C452 N179 1.764 . S
C457 N212 1.765 . S
C462 C338 1.688 . S
C467 N245 1.765 . S
C472 C371 1.689 . S
C477 C206 1.687 . S
C482 N278 1.764 . S
C487 C239 1.687 . S
C492 N311 1.764 . S
C497 C272 1.687 . S
C502 N344 1.764 . S
C507 C305 1.687 . S
C512 N377 1.764 . S
C517 C281 1.459 . S
C522 C17 1.460 . S
C527 C50 1.461 . S
C532 C314 1.461 . S
C537 C347 1.460 . S
C542 C83 1.461 . S
C547 C380 1.460 . S
C552 C116 1.461 . S
C557 C149 1.459 . S
C562 C215 1.459 . S
C567 C248 1.460 . S
C572 C182 1.459 . S
C577 C259 1.496 . S
C582 C28 1.496 . S
C587 C61 1.495 . S
C592 C292 1.494 . S
C597 C94 1.494 . S
C602 C325 1.495 . S
C607 C127 1.496 . S
C612 C358 1.496 . S
C617 C160 1.494 . S
C622 C391 1.494 . S
C627 C226 1.496 . S
C632 C193 1.495 . S
C637 N71 1.488 . S
C642 N368 1.488 . S
C647 N203 1.486 . S
C652 N104 1.485 . S
C657 N137 1.487 . S
C662 N236 1.489 . S
C667 N170 1.486 . S
C672 N269 1.486 . S
C677 N302 1.487 . S
C682 N5 1.489 . S
C687 N38 1.489 . S
C692 N335 1.485 . S
