# Generated by pormake.
# Topology mer, (4)-cn, num edge types: 1
# Building blocks:
#     Node 0, Type 0, BuildingBlock: CEKHIL_clean_sbu_0, # of connection points: 4
#     Node 1, Type 0, BuildingBlock: CEKHIL_clean_sbu_0, # of connection points: 4
#     Node 2, Type 0, BuildingBlock: CEKHIL_clean_sbu_0, # of connection points: 4
#     Node 3, Type 0, BuildingBlock: CEKHIL_clean_sbu_0, # of connection points: 4
#     Node 4, Type 0, BuildingBlock: CEKHIL_clean_sbu_0, # of connection points: 4
#     Node 5, Type 0, BuildingBlock: CEKHIL_clean_sbu_0, # of connection points: 4
#     Node 6, Type 0, BuildingBlock: CEKHIL_clean_sbu_0, # of connection points: 4
#     Node 7, Type 0, BuildingBlock: CEKHIL_clean_sbu_0, # of connection points: 4
#     Node 8, Type 0, BuildingBlock: CEKHIL_clean_sbu_0, # of connection points: 4
#     Node 9, Type 0, BuildingBlock: CEKHIL_clean_sbu_0, # of connection points: 4
#     Node 10, Type 0, BuildingBlock: CEKHIL_clean_sbu_0, # of connection points: 4
#     Node 11, Type 0, BuildingBlock: CEKHIL_clean_sbu_0, # of connection points: 4
#     Node 12, Type 0, BuildingBlock: CEKHIL_clean_sbu_0, # of connection points: 4
#     Node 13, Type 0, BuildingBlock: CEKHIL_clean_sbu_0, # of connection points: 4
#     Node 14, Type 0, BuildingBlock: CEKHIL_clean_sbu_0, # of connection points: 4
#     Node 15, Type 0, BuildingBlock: CEKHIL_clean_sbu_0, # of connection points: 4
#     Node 16, Type 0, BuildingBlock: CEKHIL_clean_sbu_0, # of connection points: 4
#     Node 17, Type 0, BuildingBlock: CEKHIL_clean_sbu_0, # of connection points: 4
#     Node 18, Type 0, BuildingBlock: CEKHIL_clean_sbu_0, # of connection points: 4
#     Node 19, Type 0, BuildingBlock: CEKHIL_clean_sbu_0, # of connection points: 4
#     Node 20, Type 0, BuildingBlock: CEKHIL_clean_sbu_0, # of connection points: 4
#     Node 21, Type 0, BuildingBlock: CEKHIL_clean_sbu_0, # of connection points: 4
#     Node 22, Type 0, BuildingBlock: CEKHIL_clean_sbu_0, # of connection points: 4
#     Node 23, Type 0, BuildingBlock: CEKHIL_clean_sbu_0, # of connection points: 4
#     Node 24, Type 0, BuildingBlock: CEKHIL_clean_sbu_0, # of connection points: 4
#     Node 25, Type 0, BuildingBlock: CEKHIL_clean_sbu_0, # of connection points: 4
#     Node 26, Type 0, BuildingBlock: CEKHIL_clean_sbu_0, # of connection points: 4
#     Node 27, Type 0, BuildingBlock: CEKHIL_clean_sbu_0, # of connection points: 4
#     Node 28, Type 0, BuildingBlock: CEKHIL_clean_sbu_0, # of connection points: 4
#     Node 29, Type 0, BuildingBlock: CEKHIL_clean_sbu_0, # of connection points: 4
#     Node 30, Type 0, BuildingBlock: CEKHIL_clean_sbu_0, # of connection points: 4
#     Node 31, Type 0, BuildingBlock: CEKHIL_clean_sbu_0, # of connection points: 4
#     Edge 32, Type (0, 0), BuildingBlock: AJUNOK_clean_linker_0, # of connection points: 2
#     Edge 33, Type (0, 0), BuildingBlock: AJUNOK_clean_linker_0, # of connection points: 2
#     Edge 34, Type (0, 0), BuildingBlock: AJUNOK_clean_linker_0, # of connection points: 2
#     Edge 35, Type (0, 0), BuildingBlock: AJUNOK_clean_linker_0, # of connection points: 2
#     Edge 36, Type (0, 0), BuildingBlock: AJUNOK_clean_linker_0, # of connection points: 2
#     Edge 37, Type (0, 0), BuildingBlock: AJUNOK_clean_linker_0, # of connection points: 2
#     Edge 38, Type (0, 0), BuildingBlock: AJUNOK_clean_linker_0, # of connection points: 2
#     Edge 39, Type (0, 0), BuildingBlock: AJUNOK_clean_linker_0, # of connection points: 2
#     Edge 40, Type (0, 0), BuildingBlock: AJUNOK_clean_linker_0, # of connection points: 2
#     Edge 41, Type (0, 0), BuildingBlock: AJUNOK_clean_linker_0, # of connection points: 2
#     Edge 42, Type (0, 0), BuildingBlock: AJUNOK_clean_linker_0, # of connection points: 2
#     Edge 43, Type (0, 0), BuildingBlock: AJUNOK_clean_linker_0, # of connection points: 2
#     Edge 44, Type (0, 0), BuildingBlock: AJUNOK_clean_linker_0, # of connection points: 2
#     Edge 45, Type (0, 0), BuildingBlock: AJUNOK_clean_linker_0, # of connection points: 2
#     Edge 46, Type (0, 0), BuildingBlock: AJUNOK_clean_linker_0, # of connection points: 2
#     Edge 47, Type (0, 0), BuildingBlock: AJUNOK_clean_linker_0, # of connection points: 2
#     Edge 48, Type (0, 0), BuildingBlock: AJUNOK_clean_linker_0, # of connection points: 2
#     Edge 49, Type (0, 0), BuildingBlock: AJUNOK_clean_linker_0, # of connection points: 2
#     Edge 50, Type (0, 0), BuildingBlock: AJUNOK_clean_linker_0, # of connection points: 2
#     Edge 51, Type (0, 0), BuildingBlock: AJUNOK_clean_linker_0, # of connection points: 2
#     Edge 52, Type (0, 0), BuildingBlock: AJUNOK_clean_linker_0, # of connection points: 2
#     Edge 53, Type (0, 0), BuildingBlock: AJUNOK_clean_linker_0, # of connection points: 2
#     Edge 54, Type (0, 0), BuildingBlock: AJUNOK_clean_linker_0, # of connection points: 2
#     Edge 55, Type (0, 0), BuildingBlock: AJUNOK_clean_linker_0, # of connection points: 2
#     Edge 56, Type (0, 0), BuildingBlock: AJUNOK_clean_linker_0, # of connection points: 2
#     Edge 57, Type (0, 0), BuildingBlock: AJUNOK_clean_linker_0, # of connection points: 2
#     Edge 58, Type (0, 0), BuildingBlock: AJUNOK_clean_linker_0, # of connection points: 2
#     Edge 59, Type (0, 0), BuildingBlock: AJUNOK_clean_linker_0, # of connection points: 2
#     Edge 60, Type (0, 0), BuildingBlock: AJUNOK_clean_linker_0, # of connection points: 2
#     Edge 61, Type (0, 0), BuildingBlock: AJUNOK_clean_linker_0, # of connection points: 2
#     Edge 62, Type (0, 0), BuildingBlock: AJUNOK_clean_linker_0, # of connection points: 2
#     Edge 63, Type (0, 0), BuildingBlock: AJUNOK_clean_linker_0, # of connection points: 2
#     Edge 64, Type (0, 0), BuildingBlock: AJUNOK_clean_linker_0, # of connection points: 2
#     Edge 65, Type (0, 0), BuildingBlock: AJUNOK_clean_linker_0, # of connection points: 2
#     Edge 66, Type (0, 0), BuildingBlock: AJUNOK_clean_linker_0, # of connection points: 2
#     Edge 67, Type (0, 0), BuildingBlock: AJUNOK_clean_linker_0, # of connection points: 2
#     Edge 68, Type (0, 0), BuildingBlock: AJUNOK_clean_linker_0, # of connection points: 2
#     Edge 69, Type (0, 0), BuildingBlock: AJUNOK_clean_linker_0, # of connection points: 2
#     Edge 70, Type (0, 0), BuildingBlock: AJUNOK_clean_linker_0, # of connection points: 2
#     Edge 71, Type (0, 0), BuildingBlock: AJUNOK_clean_linker_0, # of connection points: 2
#     Edge 72, Type (0, 0), BuildingBlock: AJUNOK_clean_linker_0, # of connection points: 2
#     Edge 73, Type (0, 0), BuildingBlock: AJUNOK_clean_linker_0, # of connection points: 2
#     Edge 74, Type (0, 0), BuildingBlock: AJUNOK_clean_linker_0, # of connection points: 2
#     Edge 75, Type (0, 0), BuildingBlock: AJUNOK_clean_linker_0, # of connection points: 2
#     Edge 76, Type (0, 0), BuildingBlock: AJUNOK_clean_linker_0, # of connection points: 2
#     Edge 77, Type (0, 0), BuildingBlock: AJUNOK_clean_linker_0, # of connection points: 2
#     Edge 78, Type (0, 0), BuildingBlock: AJUNOK_clean_linker_0, # of connection points: 2
#     Edge 79, Type (0, 0), BuildingBlock: AJUNOK_clean_linker_0, # of connection points: 2
#     Edge 80, Type (0, 0), BuildingBlock: AJUNOK_clean_linker_0, # of connection points: 2
#     Edge 81, Type (0, 0), BuildingBlock: AJUNOK_clean_linker_0, # of connection points: 2
#     Edge 82, Type (0, 0), BuildingBlock: AJUNOK_clean_linker_0, # of connection points: 2
#     Edge 83, Type (0, 0), BuildingBlock: AJUNOK_clean_linker_0, # of connection points: 2
#     Edge 84, Type (0, 0), BuildingBlock: AJUNOK_clean_linker_0, # of connection points: 2
#     Edge 85, Type (0, 0), BuildingBlock: AJUNOK_clean_linker_0, # of connection points: 2
#     Edge 86, Type (0, 0), BuildingBlock: AJUNOK_clean_linker_0, # of connection points: 2
#     Edge 87, Type (0, 0), BuildingBlock: AJUNOK_clean_linker_0, # of connection points: 2
#     Edge 88, Type (0, 0), BuildingBlock: AJUNOK_clean_linker_0, # of connection points: 2
#     Edge 89, Type (0, 0), BuildingBlock: AJUNOK_clean_linker_0, # of connection points: 2
#     Edge 90, Type (0, 0), BuildingBlock: AJUNOK_clean_linker_0, # of connection points: 2
#     Edge 91, Type (0, 0), BuildingBlock: AJUNOK_clean_linker_0, # of connection points: 2
#     Edge 92, Type (0, 0), BuildingBlock: AJUNOK_clean_linker_0, # of connection points: 2
#     Edge 93, Type (0, 0), BuildingBlock: AJUNOK_clean_linker_0, # of connection points: 2
#     Edge 94, Type (0, 0), BuildingBlock: AJUNOK_clean_linker_0, # of connection points: 2
#     Edge 95, Type (0, 0), BuildingBlock: AJUNOK_clean_linker_0, # of connection points: 2
# Relax obj value: 0.064
# Max RMSD: 0.120
# Mean RMSD: 0.120
data_MOF--net-mer--node1-CEKHIL_clean_sbu_0--edge1-AJUNOK_clean_linker_0
_symmetry_space_group_name_H-M    P1
_symmetry_Int_Tables_number       1
_symmetry_cell_setting            triclinic
loop_
_symmetry_equiv_pos_as_xyz
'x, y, z'
_cell_length_a     45.86245
_cell_length_b     45.856619
_cell_length_c     38.802167
_cell_angle_alpha  90.013684
_cell_angle_beta   90.003024
_cell_angle_gamma 90.002387
loop_
_atom_site_label
_atom_site_type_symbol
_atom_site_fract_x
_atom_site_fract_y
_atom_site_fract_z
_atom_type_partial_charge
Co0 Co 0.1148 0.29207 0.35884 0.0
O1 O 0.07869 0.31315 0.36291 0.0
O2 O 0.08235 0.26518 0.36489 0.0
C3 C 0.13202 0.31747 0.31289 0.0
O4 O 0.14831 0.26267 0.3542 0.0
Co5 Co 0.17401 0.32415 0.36837 0.0
O6 O 0.18957 0.28841 0.34637 0.0
C7 C 0.13781 0.31027 0.42927 0.0
C8 C 0.0657 0.28815 0.36586 0.0
C9 C 0.17555 0.26442 0.34615 0.0
O10 O 0.12066 0.29469 0.41047 0.0
O11 O 0.15874 0.32541 0.41671 0.0
O12 O 0.11371 0.29615 0.30849 0.0
O13 O 0.13711 0.32413 0.34459 0.0
Co14 Co 0.71349 0.11677 0.35815 0.0
O15 O 0.69288 0.08054 0.36318 0.0
O16 O 0.74074 0.08495 0.36619 0.0
C17 C 0.68898 0.13191 0.31055 0.0
O18 O 0.74239 0.15061 0.35278 0.0
Co19 Co 0.68014 0.17584 0.36318 0.0
O20 O 0.71625 0.19107 0.34171 0.0
C21 C 0.69536 0.14349 0.42687 0.0
C22 C 0.718 0.06796 0.36685 0.0
C23 C 0.74051 0.17757 0.34349 0.0
O24 O 0.70994 0.1245 0.40945 0.0
O25 O 0.68037 0.16383 0.41281 0.0
O26 O 0.71063 0.11379 0.30785 0.0
O27 O 0.6814 0.13805 0.34172 0.0
Co28 Co 0.89215 0.71532 0.35522 0.0
O29 O 0.92798 0.69394 0.35861 0.0
O30 O 0.92475 0.74183 0.36325 0.0
C31 C 0.87549 0.69209 0.30742 0.0
O32 O 0.85843 0.74464 0.35187 0.0
Co33 Co 0.83345 0.6818 0.36258 0.0
O34 O 0.81753 0.71845 0.34313 0.0
C35 C 0.86889 0.69418 0.42455 0.0
C36 C 0.94112 0.71861 0.3634 0.0
C37 C 0.83109 0.74271 0.34422 0.0
O38 O 0.88585 0.71066 0.40662 0.0
O39 O 0.84834 0.67905 0.41109 0.0
O40 O 0.89385 0.71355 0.30476 0.0
O41 O 0.87015 0.68385 0.33856 0.0
Co42 Co 0.29379 0.88867 0.35814 0.0
O43 O 0.31371 0.9255 0.35986 0.0
O44 O 0.26597 0.92043 0.36382 0.0
C45 C 0.31855 0.87085 0.31194 0.0
O46 O 0.26559 0.85401 0.35601 0.0
Co47 Co 0.32862 0.83124 0.36932 0.0
O48 O 0.29275 0.81341 0.35021 0.0
C49 C 0.31549 0.86937 0.42864 0.0
C50 C 0.28842 0.9378 0.36323 0.0
C51 C 0.26819 0.82645 0.34995 0.0
O52 O 0.29792 0.88457 0.40995 0.0
O53 O 0.33138 0.84885 0.41646 0.0
O54 O 0.2965 0.88829 0.3076 0.0
O55 O 0.32624 0.86708 0.34357 0.0
Co56 Co 0.1144 0.71242 0.64842 0.0
O57 O 0.07803 0.69151 0.6466 0.0
O58 O 0.08182 0.73933 0.64261 0.0
C59 C 0.13268 0.688 0.69474 0.0
O60 O 0.14834 0.74163 0.65067 0.0
Co61 Co 0.17291 0.67921 0.63782 0.0
O62 O 0.18959 0.71557 0.65709 0.0
C63 C 0.13465 0.69097 0.57818 0.0
C64 C 0.06502 0.71644 0.64322 0.0
C65 C 0.17591 0.73978 0.65707 0.0
O66 O 0.11884 0.70825 0.59658 0.0
O67 O 0.15551 0.67573 0.59066 0.0
O68 O 0.11473 0.70965 0.69904 0.0
O69 O 0.13679 0.68055 0.6631 0.0
Co70 Co 0.29236 0.11563 0.64692 0.0
O71 O 0.31443 0.08009 0.64341 0.0
O72 O 0.26641 0.08225 0.6414 0.0
C73 C 0.31721 0.13409 0.69273 0.0
O74 O 0.26208 0.14844 0.65114 0.0
Co75 Co 0.32287 0.17558 0.6366 0.0
O76 O 0.28692 0.19028 0.65893 0.0
C77 C 0.31034 0.13835 0.57615 0.0
C78 C 0.28988 0.06628 0.6406 0.0
C79 C 0.26326 0.17571 0.65927 0.0
O80 O 0.29496 0.12106 0.59505 0.0
O81 O 0.3249 0.15974 0.58858 0.0
O82 O 0.29642 0.11521 0.69734 0.0
O83 O 0.32377 0.13899 0.66096 0.0
Co84 Co 0.88712 0.28907 0.6463 0.0
O85 O 0.92372 0.30892 0.64116 0.0
O86 O 0.91854 0.26117 0.63797 0.0
C87 C 0.87277 0.31365 0.69423 0.0
O88 O 0.8522 0.26125 0.65186 0.0
Co89 Co 0.82976 0.32552 0.64087 0.0
O90 O 0.81276 0.28957 0.66064 0.0
C91 C 0.86132 0.30871 0.57747 0.0
C92 C 0.93591 0.28366 0.63729 0.0
C93 C 0.82512 0.26466 0.66018 0.0
O94 O 0.87935 0.29301 0.59498 0.0
O95 O 0.84194 0.32499 0.59141 0.0
O96 O 0.89035 0.29155 0.69664 0.0
O97 O 0.86699 0.3217 0.66315 0.0
Co98 Co 0.71111 0.88943 0.64417 0.0
O99 O 0.69029 0.92572 0.64088 0.0
O100 O 0.73818 0.9219 0.63777 0.0
C101 C 0.68628 0.87206 0.69062 0.0
O102 O 0.74009 0.85535 0.64767 0.0
Co103 Co 0.67745 0.83099 0.63444 0.0
O104 O 0.71361 0.81434 0.65418 0.0
C105 C 0.69021 0.86809 0.57411 0.0
C106 C 0.71522 0.93861 0.63706 0.0
C107 C 0.73793 0.82782 0.65431 0.0
O108 O 0.70742 0.88402 0.59246 0.0
O109 O 0.67464 0.84756 0.58681 0.0
O110 O 0.70789 0.8901 0.69473 0.0
O111 O 0.67904 0.86745 0.65901 0.0
Co112 Co 0.888 0.71178 0.64604 0.0
O113 O 0.92446 0.69104 0.64419 0.0
O114 O 0.9205 0.73889 0.64091 0.0
C115 C 0.8696 0.68691 0.69192 0.0
O116 O 0.85395 0.74084 0.64848 0.0
Co117 Co 0.82971 0.67851 0.63452 0.0
O118 O 0.81279 0.71454 0.65431 0.0
C119 C 0.86736 0.69227 0.57486 0.0
C120 C 0.93739 0.71607 0.64141 0.0
C121 C 0.82635 0.73882 0.65465 0.0
O122 O 0.88379 0.70829 0.5941 0.0
O123 O 0.84635 0.67691 0.58685 0.0
O124 O 0.88749 0.70855 0.69656 0.0
O125 O 0.86566 0.67965 0.66017 0.0
Co126 Co 0.29259 0.88945 0.64806 0.0
O127 O 0.31433 0.92523 0.64594 0.0
O128 O 0.26641 0.92267 0.64211 0.0
C129 C 0.31661 0.87077 0.69435 0.0
O130 O 0.26285 0.85594 0.65047 0.0
Co131 Co 0.32516 0.83056 0.63715 0.0
O132 O 0.28862 0.81441 0.65653 0.0
C133 C 0.31397 0.86922 0.57783 0.0
C134 C 0.28978 0.93883 0.64217 0.0
C135 C 0.26454 0.82832 0.65677 0.0
O136 O 0.2966 0.88488 0.59626 0.0
O137 O 0.32915 0.84826 0.59021 0.0
O138 O 0.29537 0.8892 0.69865 0.0
O139 O 0.32401 0.86654 0.66272 0.0
Co140 Co 0.11203 0.28812 0.6486 0.0
O141 O 0.07557 0.30849 0.64424 0.0
O142 O 0.08023 0.2607 0.64052 0.0
C143 C 0.1276 0.31246 0.69609 0.0
O144 O 0.14624 0.25947 0.65308 0.0
Co145 Co 0.17056 0.3222 0.64221 0.0
O146 O 0.18659 0.28617 0.66308 0.0
C147 C 0.13612 0.30878 0.57965 0.0
C148 C 0.06313 0.28336 0.63999 0.0
C149 C 0.17328 0.26178 0.66194 0.0
O150 O 0.11895 0.29234 0.59733 0.0
O151 O 0.15636 0.32413 0.5934 0.0
O152 O 0.10968 0.29064 0.69896 0.0
O153 O 0.13327 0.32027 0.66489 0.0
Co154 Co 0.71059 0.11451 0.64607 0.0
O155 O 0.69013 0.07832 0.64002 0.0
O156 O 0.738 0.08258 0.6378 0.0
C157 C 0.68572 0.12904 0.6938 0.0
O158 O 0.7389 0.14892 0.65242 0.0
Co159 Co 0.67497 0.17247 0.64059 0.0
O160 O 0.71111 0.18886 0.66061 0.0
C161 C 0.69252 0.1414 0.57714 0.0
C162 C 0.71517 0.06571 0.63611 0.0
C163 C 0.73582 0.17611 0.66051 0.0
O164 O 0.70752 0.12285 0.59475 0.0
O165 O 0.67627 0.16085 0.59097 0.0
O166 O 0.7074 0.11095 0.69637 0.0
O167 O 0.67813 0.13511 0.66264 0.0
Co168 Co 0.88959 0.29314 0.35854 0.0
O169 O 0.92572 0.31387 0.36418 0.0
O170 O 0.9215 0.26596 0.36651 0.0
C171 C 0.87465 0.31799 0.3111 0.0
O172 O 0.85589 0.26416 0.35252 0.0
Co173 Co 0.83034 0.3263 0.36332 0.0
O174 O 0.81535 0.29021 0.34154 0.0
C175 C 0.86199 0.3101 0.4272 0.0
C176 C 0.9384 0.28876 0.36757 0.0
C177 C 0.82893 0.266 0.34322 0.0
O178 O 0.88141 0.29608 0.40979 0.0
O179 O 0.84172 0.32517 0.41313 0.0
O180 O 0.8929 0.29647 0.30832 0.0
O181 O 0.86829 0.3253 0.34229 0.0
Co182 Co 0.71466 0.89185 0.35595 0.0
O183 O 0.6938 0.92808 0.35933 0.0
O184 O 0.74157 0.92392 0.36438 0.0
C185 C 0.69135 0.87572 0.30797 0.0
O186 O 0.74374 0.85797 0.35259 0.0
Co187 Co 0.681 0.83317 0.3624 0.0
O188 O 0.71772 0.81709 0.34329 0.0
C189 C 0.69213 0.86889 0.42448 0.0
C190 C 0.71873 0.94079 0.36411 0.0
C191 C 0.74195 0.83069 0.34471 0.0
O192 O 0.70954 0.88539 0.40721 0.0
O193 O 0.67709 0.84847 0.41064 0.0
O194 O 0.71309 0.89378 0.30551 0.0
O195 O 0.68302 0.8702 0.33903 0.0
Co196 Co 0.11713 0.71205 0.35834 0.0
O197 O 0.08065 0.69162 0.36034 0.0
O198 O 0.08499 0.73948 0.36429 0.0
C199 C 0.13515 0.68767 0.31196 0.0
O200 O 0.1516 0.74051 0.35611 0.0
Co201 Co 0.17463 0.67736 0.3697 0.0
O202 O 0.19224 0.71333 0.35058 0.0
C203 C 0.1364 0.69025 0.42889 0.0
C204 C 0.06803 0.71668 0.36425 0.0
C205 C 0.17918 0.73787 0.35014 0.0
O206 O 0.12136 0.70792 0.41016 0.0
O207 O 0.1569 0.67432 0.41676 0.0
O208 O 0.11738 0.70947 0.3078 0.0
O209 O 0.13898 0.67985 0.34355 0.0
Co210 Co 0.28969 0.11425 0.35599 0.0
O211 O 0.31084 0.07821 0.35894 0.0
O212 O 0.263 0.08175 0.36348 0.0
C213 C 0.31306 0.13114 0.30844 0.0
O214 O 0.26052 0.14809 0.35275 0.0
Co215 Co 0.32324 0.17285 0.36397 0.0
O216 O 0.28695 0.18877 0.34361 0.0
C217 C 0.31029 0.13729 0.42571 0.0
C218 C 0.28603 0.06513 0.36302 0.0
C219 C 0.26265 0.17527 0.34445 0.0
O220 O 0.29419 0.12018 0.40749 0.0
O221 O 0.32534 0.15802 0.41254 0.0
O222 O 0.29154 0.11289 0.30558 0.0
O223 O 0.32132 0.13626 0.33965 0.0
Co224 Co 0.61492 0.79072 0.85567 0.0
O225 O 0.57875 0.81152 0.86096 0.0
O226 O 0.58301 0.76366 0.86423 0.0
C227 C 0.62991 0.81504 0.80775 0.0
O228 O 0.64853 0.76153 0.85023 0.0
Co229 Co 0.67427 0.82372 0.85981 0.0
O230 O 0.68922 0.78726 0.83888 0.0
C231 C 0.64237 0.80889 0.92397 0.0
C232 C 0.5661 0.78645 0.86498 0.0
C233 C 0.67545 0.76316 0.84075 0.0
O234 O 0.62307 0.79441 0.90689 0.0
O235 O 0.66264 0.82372 0.90955 0.0
O236 O 0.61166 0.79346 0.80533 0.0
O237 O 0.63629 0.82265 0.83883 0.0
Co238 Co 0.21243 0.6129 0.85878 0.0
O239 O 0.19074 0.57715 0.86236 0.0
O240 O 0.23863 0.57997 0.86663 0.0
C241 C 0.18913 0.62985 0.81109 0.0
O242 O 0.24219 0.64624 0.85506 0.0
Co243 Co 0.1799 0.67226 0.86594 0.0
O244 O 0.21656 0.68741 0.84568 0.0
C245 C 0.1914 0.63656 0.92793 0.0
C246 C 0.21532 0.56374 0.86684 0.0
C247 C 0.24059 0.67344 0.84663 0.0
O248 O 0.20797 0.61945 0.91025 0.0
O249 O 0.17671 0.65735 0.91437 0.0
O250 O 0.21032 0.61119 0.80832 0.0
O251 O 0.18115 0.63534 0.84229 0.0
Co252 Co 0.39022 0.21564 0.85683 0.0
O253 O 0.42754 0.19683 0.85729 0.0
O254 O 0.42132 0.24415 0.86486 0.0
C255 C 0.37341 0.19293 0.80865 0.0
O256 O 0.35393 0.24205 0.85712 0.0
Co257 Co 0.33575 0.17539 0.86591 0.0
O258 O 0.31507 0.21195 0.85419 0.0
C259 C 0.37248 0.18934 0.92608 0.0
C260 C 0.43914 0.22204 0.86326 0.0
C261 C 0.32619 0.23748 0.85461 0.0
O262 O 0.38631 0.20862 0.90827 0.0
O263 O 0.35346 0.17215 0.91298 0.0
O264 O 0.38993 0.21586 0.80615 0.0
O265 O 0.37031 0.18316 0.83953 0.0
Co266 Co 0.79144 0.38757 0.85761 0.0
O267 O 0.81103 0.42442 0.86041 0.0
O268 O 0.76326 0.41921 0.86353 0.0
C269 C 0.81664 0.37057 0.81137 0.0
O270 O 0.76407 0.35207 0.85441 0.0
Co271 Co 0.82868 0.33166 0.86951 0.0
O272 O 0.79315 0.31255 0.85152 0.0
C273 C 0.81293 0.36862 0.92861 0.0
C274 C 0.78576 0.43657 0.86412 0.0
C275 C 0.76809 0.32447 0.84942 0.0
O276 O 0.79508 0.38303 0.90944 0.0
O277 O 0.83023 0.34919 0.91665 0.0
O278 O 0.79447 0.38784 0.80712 0.0
O279 O 0.82438 0.36688 0.843 0.0
Co280 Co 0.61427 0.2144 0.14835 0.0
O281 O 0.578 0.19356 0.14591 0.0
O282 O 0.58183 0.24146 0.14278 0.0
C283 C 0.63217 0.18945 0.1943 0.0
O284 O 0.64828 0.24343 0.15133 0.0
Co285 Co 0.67269 0.18115 0.1375 0.0
O286 O 0.68935 0.2171 0.15783 0.0
C287 C 0.63497 0.19429 0.07772 0.0
C288 C 0.56505 0.21855 0.14288 0.0
C289 C 0.67577 0.24136 0.15805 0.0
O290 O 0.61888 0.21092 0.09657 0.0
O291 O 0.65576 0.17879 0.08999 0.0
O292 O 0.61427 0.2111 0.19881 0.0
O293 O 0.63647 0.18228 0.16259 0.0
Co294 Co 0.79324 0.61722 0.14498 0.0
O295 O 0.81341 0.58055 0.14297 0.0
O296 O 0.76559 0.58522 0.13976 0.0
C297 C 0.81826 0.63513 0.19092 0.0
O298 O 0.76489 0.65178 0.14768 0.0
Co299 Co 0.82767 0.67479 0.1333 0.0
O300 O 0.79214 0.69229 0.15372 0.0
C301 C 0.81395 0.6368 0.07402 0.0
C302 C 0.78818 0.56802 0.14015 0.0
C303 C 0.76759 0.67924 0.15427 0.0
O304 O 0.79681 0.62138 0.09304 0.0
O305 O 0.8298 0.65745 0.08595 0.0
O306 O 0.79637 0.61754 0.19544 0.0
O307 O 0.82572 0.63898 0.1592 0.0
Co308 Co 0.39251 0.79096 0.14756 0.0
O309 O 0.42855 0.81213 0.14374 0.0
O310 O 0.4249 0.76429 0.13941 0.0
C311 C 0.37618 0.81444 0.19533 0.0
O312 O 0.35882 0.76165 0.15148 0.0
Co313 Co 0.33355 0.82414 0.14085 0.0
O314 O 0.31803 0.78771 0.16132 0.0
C315 C 0.36809 0.8111 0.07831 0.0
C316 C 0.44155 0.7873 0.13935 0.0
C317 C 0.3317 0.76352 0.16011 0.0
O318 O 0.38573 0.79535 0.09623 0.0
O319 O 0.34742 0.82599 0.09189 0.0
O320 O 0.39456 0.79301 0.19797 0.0
O321 O 0.3706 0.82254 0.16418 0.0
Co322 Co 0.212 0.38995 0.14789 0.0
O323 O 0.1919 0.42655 0.14391 0.0
O324 O 0.23959 0.42144 0.13925 0.0
C325 C 0.18826 0.3748 0.19607 0.0
O326 O 0.24032 0.35542 0.15174 0.0
Co327 Co 0.17688 0.33175 0.14314 0.0
O328 O 0.21352 0.31516 0.16173 0.0
C329 C 0.1917 0.36431 0.07951 0.0
C330 C 0.21709 0.43877 0.13936 0.0
C331 C 0.23804 0.32816 0.15965 0.0
O332 O 0.20718 0.38274 0.09666 0.0
O333 O 0.17631 0.34437 0.09377 0.0
O334 O 0.21031 0.39247 0.19836 0.0
O335 O 0.17988 0.3692 0.16508 0.0
Co336 Co 0.3884 0.21293 0.146 0.0
O337 O 0.42498 0.19255 0.1447 0.0
O338 O 0.42055 0.24035 0.14057 0.0
C339 C 0.37005 0.18851 0.19212 0.0
O340 O 0.35402 0.24155 0.14792 0.0
Co341 Co 0.3307 0.17874 0.13428 0.0
O342 O 0.31329 0.21462 0.15394 0.0
C343 C 0.36963 0.1908 0.07545 0.0
C344 C 0.43764 0.21768 0.14148 0.0
C345 C 0.32651 0.23909 0.15433 0.0
O346 O 0.38461 0.2086 0.09411 0.0
O347 O 0.3489 0.17514 0.08753 0.0
O348 O 0.3877 0.21038 0.19653 0.0
O349 O 0.36637 0.18077 0.16048 0.0
Co350 Co 0.79131 0.39146 0.14873 0.0
O351 O 0.81208 0.42775 0.14576 0.0
O352 O 0.76419 0.42382 0.1428 0.0
C353 C 0.81645 0.37407 0.19481 0.0
O354 O 0.76234 0.35743 0.15212 0.0
Co355 Co 0.82465 0.33292 0.13877 0.0
O356 O 0.7886 0.31635 0.15892 0.0
C357 C 0.81134 0.36997 0.07844 0.0
C358 C 0.78707 0.44064 0.1426 0.0
C359 C 0.76435 0.32994 0.15892 0.0
O360 O 0.79473 0.3863 0.09702 0.0
O361 O 0.82689 0.34936 0.09103 0.0
O362 O 0.79475 0.39193 0.19921 0.0
O363 O 0.82348 0.36947 0.16314 0.0
Co364 Co 0.61784 0.79465 0.14412 0.0
O365 O 0.58124 0.81475 0.13942 0.0
O366 O 0.58612 0.7669 0.13767 0.0
C367 C 0.6337 0.82048 0.19059 0.0
O368 O 0.65213 0.76623 0.14928 0.0
Co369 Co 0.67638 0.82866 0.13664 0.0
O370 O 0.69272 0.79288 0.15768 0.0
C371 C 0.64332 0.81144 0.07424 0.0
C372 C 0.56886 0.78943 0.13668 0.0
C373 C 0.67942 0.76847 0.15703 0.0
O374 O 0.62466 0.79713 0.09248 0.0
O375 O 0.66358 0.82711 0.08741 0.0
O376 O 0.61592 0.79867 0.19453 0.0
O377 O 0.63902 0.82733 0.15902 0.0
Co378 Co 0.21537 0.61509 0.14674 0.0
O379 O 0.19419 0.57902 0.14377 0.0
O380 O 0.24197 0.58269 0.13855 0.0
C381 C 0.19242 0.63174 0.19474 0.0
O382 O 0.24475 0.64876 0.14991 0.0
Co383 Co 0.18226 0.674 0.13987 0.0
O384 O 0.21882 0.68959 0.15997 0.0
C385 C 0.19306 0.63804 0.07791 0.0
C386 C 0.21898 0.56602 0.13915 0.0
C387 C 0.24297 0.67586 0.15867 0.0
O388 O 0.21015 0.62131 0.09537 0.0
O389 O 0.17838 0.65878 0.0916 0.0
O390 O 0.21396 0.61346 0.1972 0.0
O391 O 0.18398 0.63713 0.16367 0.0
Co392 Co 0.38967 0.78915 0.8582 0.0
O393 O 0.42578 0.81031 0.86136 0.0
O394 O 0.42209 0.76248 0.8659 0.0
C395 C 0.37285 0.81258 0.81065 0.0
O396 O 0.35601 0.75975 0.85484 0.0
Co397 Co 0.33072 0.82208 0.86575 0.0
O398 O 0.31507 0.78564 0.84541 0.0
C399 C 0.36628 0.80975 0.9277 0.0
C400 C 0.43877 0.78546 0.86559 0.0
C401 C 0.32884 0.76151 0.84644 0.0
O402 O 0.38355 0.79373 0.9096 0.0
O403 O 0.34541 0.82452 0.91438 0.0
O404 O 0.39115 0.79108 0.8078 0.0
O405 O 0.36755 0.82071 0.84186 0.0
Co406 Co 0.20835 0.38741 0.85951 0.0
O407 O 0.18825 0.42406 0.86242 0.0
O408 O 0.23599 0.4194 0.86639 0.0
C409 C 0.18355 0.37079 0.8125 0.0
O410 O 0.23637 0.35239 0.85706 0.0
Co411 Co 0.17154 0.33032 0.86793 0.0
O412 O 0.20859 0.31189 0.85363 0.0
C413 C 0.18849 0.36434 0.92949 0.0
C414 C 0.21332 0.43653 0.86662 0.0
C415 C 0.23341 0.32448 0.85385 0.0
O416 O 0.20428 0.38174 0.91121 0.0
O417 O 0.17188 0.3448 0.91647 0.0
O418 O 0.20576 0.38811 0.80874 0.0
O419 O 0.17585 0.36656 0.84395 0.0
Co420 Co 0.61456 0.21353 0.85696 0.0
O421 O 0.57723 0.19486 0.86014 0.0
O422 O 0.58364 0.24252 0.86293 0.0
C423 C 0.63068 0.18761 0.8107 0.0
O424 O 0.6506 0.24011 0.85346 0.0
Co425 Co 0.66986 0.17522 0.86826 0.0
O426 O 0.68964 0.21043 0.8504 0.0
C427 C 0.63374 0.19188 0.92783 0.0
C428 C 0.56574 0.22046 0.86378 0.0
C429 C 0.67812 0.23569 0.84847 0.0
O430 O 0.61937 0.20991 0.9088 0.0
O431 O 0.65275 0.17424 0.91563 0.0
O432 O 0.61397 0.21022 0.80642 0.0
O433 O 0.63441 0.18003 0.84236 0.0
Co434 Co 0.78879 0.6124 0.85545 0.0
O435 O 0.80954 0.57615 0.859 0.0
O436 O 0.7617 0.58023 0.86331 0.0
C437 C 0.81245 0.62883 0.80779 0.0
O438 O 0.75998 0.64653 0.85174 0.0
Co439 Co 0.82305 0.67076 0.86289 0.0
O440 O 0.78682 0.68697 0.84267 0.0
C441 C 0.81128 0.63471 0.92445 0.0
C442 C 0.78461 0.56345 0.86361 0.0
C443 C 0.76241 0.67367 0.84335 0.0
O444 O 0.79355 0.61868 0.90694 0.0
O445 O 0.82672 0.65494 0.91087 0.0
O446 O 0.79079 0.61071 0.80497 0.0
O447 O 0.82061 0.63401 0.839 0.0
C448 C 0.21195 0.19117 0.36054 0.0
C449 C 0.23621 0.19313 0.3384 0.0
C450 C 0.19048 0.21318 0.36096 0.0
C451 C 0.19276 0.23771 0.33927 0.0
H452 H 0.21075 0.17384 0.37946 0.0
H453 H 0.17338 0.21213 0.38018 0.0
S454 S 0.24868 0.24974 0.27176 0.0
N455 N 0.25861 0.21905 0.29063 0.0
N456 N 0.21857 0.26021 0.29153 0.0
C457 C 0.21534 0.23829 0.31482 0.0
C458 C 0.23699 0.21604 0.31435 0.0
C459 C 0.76541 0.21948 0.31547 0.0
C460 C 0.76716 0.19525 0.33762 0.0
C461 C 0.78699 0.24101 0.31536 0.0
C462 C 0.81129 0.23931 0.3374 0.0
H463 H 0.74634 0.22271 0.29942 0.0
H464 H 0.78373 0.26004 0.29925 0.0
S465 S 0.82828 0.17837 0.39697 0.0
N466 N 0.79676 0.16914 0.37945 0.0
N467 N 0.8375 0.20981 0.37926 0.0
C468 C 0.81472 0.21394 0.35742 0.0
C469 C 0.7926 0.19185 0.35752 0.0
C470 C 0.78879 0.76737 0.31689 0.0
C471 C 0.81315 0.76926 0.33882 0.0
C472 C 0.76704 0.78872 0.3171 0.0
C473 C 0.76865 0.81297 0.33922 0.0
H474 H 0.78566 0.74835 0.30071 0.0
H475 H 0.74799 0.78537 0.30104 0.0
S476 S 0.82969 0.83021 0.39855 0.0
N477 N 0.83915 0.79885 0.38076 0.0
N478 N 0.79808 0.83924 0.38111 0.0
C479 C 0.79407 0.81653 0.35914 0.0
C480 C 0.81638 0.7946 0.35894 0.0
C481 C 0.2234 0.76079 0.32501 0.0
C482 C 0.19778 0.76395 0.34457 0.0
C483 C 0.24503 0.78225 0.32501 0.0
C484 C 0.24204 0.80791 0.34455 0.0
H485 H 0.22749 0.74084 0.31082 0.0
H486 H 0.26494 0.77802 0.31082 0.0
S487 S 0.1776 0.82857 0.39693 0.0
N488 N 0.1693 0.79604 0.38141 0.0
N489 N 0.21016 0.83664 0.38137 0.0
C490 C 0.21554 0.81254 0.36203 0.0
C491 C 0.19334 0.79049 0.36205 0.0
C492 C 0.21855 0.76425 0.68389 0.0
C493 C 0.19382 0.76636 0.6626 0.0
C494 C 0.24007 0.78583 0.68389 0.0
C495 C 0.23791 0.81054 0.66255 0.0
H496 H 0.22212 0.7449 0.69936 0.0
H497 H 0.25943 0.7823 0.69935 0.0
S498 S 0.17582 0.82839 0.60508 0.0
N499 N 0.1669 0.79659 0.62215 0.0
N500 N 0.20763 0.83736 0.62208 0.0
C501 C 0.21217 0.81425 0.64329 0.0
C502 C 0.19005 0.7921 0.64332 0.0
C503 C 0.21192 0.19019 0.64445 0.0
C504 C 0.23626 0.19237 0.66644 0.0
C505 C 0.1897 0.21145 0.64512 0.0
C506 C 0.19128 0.2354 0.6678 0.0
H507 H 0.2112 0.17341 0.62481 0.0
H508 H 0.17255 0.21038 0.62597 0.0
S509 S 0.24722 0.24728 0.73543 0.0
N510 N 0.25812 0.2176 0.71505 0.0
N511 N 0.21661 0.25726 0.71637 0.0
C512 C 0.21399 0.23601 0.69212 0.0
C513 C 0.23643 0.21455 0.69142 0.0
C514 C 0.78835 0.19051 0.65013 0.0
C515 C 0.76164 0.19497 0.66734 0.0
C516 C 0.8102 0.21223 0.64999 0.0
C517 C 0.80597 0.23905 0.66705 0.0
H518 H 0.79157 0.1711 0.63468 0.0
H519 H 0.82952 0.20879 0.63447 0.0
S520 S 0.74183 0.25948 0.72034 0.0
N521 N 0.734 0.22669 0.70553 0.0
N522 N 0.77458 0.26706 0.70526 0.0
C523 C 0.78045 0.24251 0.68683 0.0
C524 C 0.75843 0.2206 0.68698 0.0
C525 C 0.78302 0.76279 0.68058 0.0
C526 C 0.80827 0.76529 0.66023 0.0
C527 C 0.76158 0.78444 0.68057 0.0
C528 C 0.76431 0.80963 0.66013 0.0
H529 H 0.77903 0.74312 0.6953 0.0
H530 H 0.74189 0.78063 0.69533 0.0
S531 S 0.82781 0.82854 0.6053 0.0
N532 N 0.83621 0.79633 0.62164 0.0
N533 N 0.79564 0.83723 0.62152 0.0
C534 C 0.79051 0.81366 0.64181 0.0
C535 C 0.81256 0.79143 0.64187 0.0
C536 C 0.69026 0.71232 0.85766 0.0
C537 C 0.69278 0.73628 0.83511 0.0
C538 C 0.71168 0.69026 0.85835 0.0
C539 C 0.73617 0.69161 0.83651 0.0
H540 H 0.67296 0.71177 0.87665 0.0
H541 H 0.71023 0.67341 0.87783 0.0
S542 S 0.74946 0.74642 0.76803 0.0
N543 N 0.71914 0.75743 0.78692 0.0
N544 N 0.75915 0.71626 0.78821 0.0
C545 C 0.73727 0.71391 0.81169 0.0
C546 C 0.71563 0.73618 0.81099 0.0
C547 C 0.29126 0.68914 0.86311 0.0
C548 C 0.26737 0.69074 0.84038 0.0
C549 C 0.31301 0.7109 0.86309 0.0
C550 C 0.31139 0.7348 0.84035 0.0
H551 H 0.29195 0.67238 0.88276 0.0
H552 H 0.3298 0.71022 0.88271 0.0
S553 S 0.25662 0.74547 0.7712 0.0
N554 N 0.24598 0.71551 0.79116 0.0
N555 N 0.28657 0.75615 0.79115 0.0
C556 C 0.28917 0.73492 0.81541 0.0
C557 C 0.26722 0.71294 0.81542 0.0
C558 C 0.27751 0.25646 0.87054 0.0
C559 C 0.3049 0.26199 0.85561 0.0
C560 C 0.25532 0.27715 0.87016 0.0
C561 C 0.25914 0.30469 0.85486 0.0
H562 H 0.27289 0.23565 0.88259 0.0
H563 H 0.23475 0.27126 0.88202 0.0
S564 S 0.32717 0.33122 0.81374 0.0
N565 N 0.33524 0.29771 0.82627 0.0
N566 N 0.29305 0.33713 0.82567 0.0
C567 C 0.28676 0.31126 0.84096 0.0
C568 C 0.30971 0.28983 0.8413 0.0
C569 C 0.6931 0.2885 0.85608 0.0
C570 C 0.69849 0.26052 0.84238 0.0
C571 C 0.71503 0.31015 0.85633 0.0
C572 C 0.74303 0.30449 0.84289 0.0
H573 H 0.67248 0.29314 0.86854 0.0
H574 H 0.71056 0.33073 0.86897 0.0
S575 S 0.76682 0.23617 0.79956 0.0
N576 N 0.73289 0.22975 0.81138 0.0
N577 N 0.77357 0.26993 0.8118 0.0
C578 C 0.74776 0.27738 0.82669 0.0
C579 C 0.72565 0.25555 0.82645 0.0
C580 C 0.71853 0.26545 0.18517 0.0
C581 C 0.69375 0.26782 0.16399 0.0
C582 C 0.74007 0.28702 0.18542 0.0
C583 C 0.73784 0.31196 0.16448 0.0
H584 H 0.72211 0.24596 0.20039 0.0
H585 H 0.75945 0.28333 0.2008 0.0
S586 S 0.67558 0.3305 0.10753 0.0
N587 N 0.66672 0.29851 0.12413 0.0
N588 N 0.70743 0.33926 0.12456 0.0
C589 C 0.71203 0.3159 0.14538 0.0
C590 C 0.68992 0.29377 0.14514 0.0
C591 C 0.74487 0.72299 0.18091 0.0
C592 C 0.74157 0.69774 0.16068 0.0
C593 C 0.72341 0.74461 0.18173 0.0
C594 C 0.69763 0.74203 0.1623 0.0
H595 H 0.76494 0.72682 0.19497 0.0
H596 H 0.72779 0.76427 0.19635 0.0
S597 S 0.67648 0.6784 0.10874 0.0
N598 N 0.70913 0.66985 0.12367 0.0
N599 N 0.66858 0.71072 0.12511 0.0
C600 C 0.69284 0.71579 0.14428 0.0
C601 C 0.71486 0.69359 0.14349 0.0
C602 C 0.29375 0.69154 0.14259 0.0
C603 C 0.26968 0.69324 0.16505 0.0
C604 C 0.31568 0.71311 0.14303 0.0
C605 C 0.31408 0.73689 0.16595 0.0
H606 H 0.29449 0.67484 0.12287 0.0
H607 H 0.33261 0.71239 0.12358 0.0
S608 S 0.25888 0.74765 0.23462 0.0
N609 N 0.24813 0.71791 0.21426 0.0
N610 N 0.28908 0.75817 0.21508 0.0
C611 C 0.29167 0.73708 0.19063 0.0
C612 C 0.26952 0.71531 0.19018 0.0
C613 C 0.26209 0.28392 0.18337 0.0
C614 C 0.26441 0.30962 0.16376 0.0
C615 C 0.28347 0.26224 0.18192 0.0
C616 C 0.30825 0.26525 0.16087 0.0
H617 H 0.24277 0.27977 0.19868 0.0
H618 H 0.27983 0.24227 0.19622 0.0
S619 S 0.32671 0.32981 0.10761 0.0
N620 N 0.29493 0.33813 0.12512 0.0
N621 N 0.33539 0.29719 0.12252 0.0
C622 C 0.31216 0.2918 0.14327 0.0
C623 C 0.29017 0.31405 0.1447 0.0
C624 C 0.98696 0.31294 0.3725 0.0
C625 C 0.97075 0.28694 0.37032 0.0
C626 C 0.01746 0.31281 0.37189 0.0
C627 C 0.03336 0.28666 0.36909 0.0
H628 H 0.97603 0.33384 0.37402 0.0
H629 H 0.02862 0.33361 0.37304 0.0
S630 S 1.00165 0.21225 0.36471 0.0
N631 N 0.97301 0.23402 0.36683 0.0
N632 N 0.03054 0.23376 0.36575 0.0
C633 C 0.01757 0.26032 0.36806 0.0
C634 C 0.98627 0.26046 0.36866 0.0
C635 C 0.69394 0.01939 0.37172 0.0
C636 C 0.71991 0.03563 0.36954 0.0
C637 C 0.69411 0.9889 0.37091 0.0
C638 C 0.72026 0.97305 0.36793 0.0
H639 H 0.67303 0.03028 0.37336 0.0
H640 H 0.67333 0.97772 0.37203 0.0
S641 S 0.79462 0.00484 0.36352 0.0
N642 N 0.77283 0.03346 0.36591 0.0
N643 N 0.77314 0.97592 0.36446 0.0
C644 C 0.74659 0.98886 0.36699 0.0
C645 C 0.74642 0.02015 0.36778 0.0
C646 C 0.02037 0.74399 0.35907 0.0
C647 C 0.03581 0.7185 0.36796 0.0
C648 C 0.98961 0.74449 0.35897 0.0
C649 C 0.97332 0.71952 0.36777 0.0
H650 H 0.03208 0.76329 0.35088 0.0
H651 H 0.97858 0.76415 0.35065 0.0
S652 S 0.00334 0.64893 0.39845 0.0
N653 N 0.03234 0.66886 0.38964 0.0
N654 N 0.97505 0.6698 0.38946 0.0
C655 C 0.98859 0.69455 0.37863 0.0
C656 C 0.01968 0.69404 0.37872 0.0
C657 C 0.31193 0.9867 0.36688 0.0
C658 C 0.28612 0.97015 0.36549 0.0
C659 C 0.31134 0.01718 0.36695 0.0
C660 C 0.28492 0.03275 0.36562 0.0
H661 H 0.33302 0.97609 0.36745 0.0
H662 H 0.33202 0.02858 0.36754 0.0
S663 S 0.2109 1.00004 0.36341 0.0
N664 N 0.2331 0.97167 0.36409 0.0
N665 N 0.23201 0.02923 0.36419 0.0
C666 C 0.25879 0.0166 0.36519 0.0
C667 C 0.25939 0.98529 0.36512 0.0
C668 C 0.01655 0.69172 0.64059 0.0
C669 C 0.03257 0.71791 0.64097 0.0
C670 C 0.98604 0.69163 0.6401 0.0
C671 C 0.96986 0.71772 0.63999 0.0
H672 H 0.02763 0.67086 0.64102 0.0
H673 H 0.97508 0.6707 0.64021 0.0
S674 S 1.00101 0.79247 0.63956 0.0
N675 N 0.02984 0.77089 0.6402 0.0
N676 N 0.97229 0.77071 0.63931 0.0
C677 C 0.98548 0.7442 0.63967 0.0
C678 C 0.01681 0.74429 0.64016 0.0
C679 C 0.26345 0.98722 0.64512 0.0
C680 C 0.2891 0.9712 0.63869 0.0
C681 C 0.26349 0.01799 0.64471 0.0
C682 C 0.28918 0.03385 0.63782 0.0
H683 H 0.24341 0.97597 0.65152 0.0
H684 H 0.24347 0.0294 0.65082 0.0
S685 S 0.36121 1.00223 0.61489 0.0
N686 N 0.3402 0.97368 0.62209 0.0
N687 N 0.34026 0.03096 0.62131 0.0
C688 C 0.31459 0.018 0.62982 0.0
C689 C 0.31455 0.98686 0.63026 0.0
C690 C 0.01493 0.30738 0.63137 0.0
C691 C 0.03087 0.28146 0.63592 0.0
C692 C 0.98444 0.30742 0.63055 0.0
C693 C 0.96825 0.28153 0.63429 0.0
H694 H 0.02604 0.32814 0.62906 0.0
H695 H 0.97351 0.32822 0.6277 0.0
S696 S 0.99926 0.20728 0.64459 0.0
N697 N 0.02813 0.22876 0.64238 0.0
N698 N 0.97056 0.22885 0.64094 0.0
C699 C 0.9838 0.25518 0.6375 0.0
C700 C 0.01512 0.25514 0.6383 0.0
C701 C 0.7418 0.01762 0.64176 0.0
C702 C 0.71685 0.03346 0.63178 0.0
C703 C 0.74174 0.98681 0.64217 0.0
C704 C 0.71672 0.97086 0.63268 0.0
H705 H 0.76105 0.02903 0.65068 0.0
H706 H 0.76099 0.97551 0.65129 0.0
S707 S 0.64752 1.00193 0.59916 0.0
N708 N 0.66775 0.03065 0.60833 0.0
N709 N 0.66763 0.97334 0.60921 0.0
C710 C 0.69234 0.98651 0.62074 0.0
C711 C 0.69242 0.01764 0.62026 0.0
C712 C 0.51752 0.8106 0.87003 0.0
C713 C 0.53377 0.78461 0.8683 0.0
C714 C 0.48701 0.81036 0.8701 0.0
C715 C 0.47115 0.78411 0.86847 0.0
H716 H 0.5284 0.83156 0.87065 0.0
H717 H 0.4758 0.83114 0.87081 0.0
S718 S 0.50303 0.70973 0.86575 0.0
N719 N 0.53163 0.73162 0.86656 0.0
N720 N 0.47409 0.73117 0.86674 0.0
C721 C 0.48701 0.75781 0.86794 0.0
C722 C 0.51831 0.75805 0.86784 0.0
C723 C 0.24072 0.48433 0.86233 0.0
C724 C 0.21516 0.46881 0.87069 0.0
C725 C 0.24119 0.51513 0.8624 0.0
C726 C 0.21611 0.53143 0.87083 0.0
H727 H 0.26014 0.47268 0.85442 0.0
H728 H 0.26096 0.5262 0.85454 0.0
S729 S 0.1451 0.50119 0.89986 0.0
N730 N 0.1652 0.47224 0.89137 0.0
N731 N 0.16608 0.52953 0.89143 0.0
C732 C 0.191 0.51606 0.88108 0.0
C733 C 0.19053 0.48494 0.88103 0.0
C734 C 0.48736 0.24829 0.85607 0.0
C735 C 0.47119 0.22431 0.86831 0.0
C736 C 0.51819 0.24784 0.85612 0.0
C737 C 0.53367 0.2234 0.86844 0.0
H738 H 0.47621 0.26681 0.84483 0.0
H739 H 0.52988 0.26606 0.84496 0.0
S740 S 0.50137 0.15761 0.9091 0.0
N741 N 0.47303 0.17733 0.89719 0.0
N742 N 0.53033 0.1765 0.89737 0.0
C743 C 0.5176 0.20033 0.88291 0.0
C744 C 0.48653 0.20078 0.88282 0.0
C745 C 0.75869 0.48436 0.85783 0.0
C746 C 0.78361 0.46875 0.86837 0.0
C747 C 0.75843 0.51516 0.85773 0.0
C748 C 0.78309 0.53128 0.86813 0.0
H749 H 0.73977 0.47278 0.84824 0.0
H750 H 0.73931 0.52636 0.84805 0.0
S751 S 0.85178 0.50076 0.90364 0.0
N752 N 0.83209 0.4719 0.89351 0.0
N753 N 0.83161 0.5292 0.89319 0.0
C754 C 0.80733 0.51583 0.88071 0.0
C755 C 0.80759 0.48473 0.88087 0.0
C756 C 0.48629 0.19354 0.13914 0.0
C757 C 0.47004 0.21956 0.13983 0.0
C758 C 0.51677 0.19375 0.13948 0.0
C759 C 0.53265 0.21999 0.14054 0.0
H760 H 0.47543 0.17256 0.13871 0.0
H761 H 0.52792 0.17292 0.1393 0.0
S762 S 0.50083 0.29443 0.14126 0.0
N763 N 0.4722 0.27257 0.14054 0.0
N764 N 0.52976 0.27296 0.14119 0.0
C765 C 0.51682 0.24633 0.14046 0.0
C766 C 0.48551 0.24611 0.1401 0.0
C767 C 0.81208 0.5193 0.13672 0.0
C768 C 0.78614 0.53562 0.13852 0.0
C769 C 0.81181 0.48882 0.13734 0.0
C770 C 0.7856 0.47301 0.13978 0.0
H771 H 0.83305 0.53011 0.13526 0.0
H772 H 0.83259 0.47761 0.13632 0.0
S773 S 0.71132 0.50503 0.14366 0.0
N774 N 0.7332 0.5336 0.14167 0.0
N775 N 0.7327 0.47604 0.14282 0.0
C776 C 0.75932 0.4889 0.14071 0.0
C777 C 0.75959 0.52022 0.14008 0.0
C778 C 0.48945 0.81238 0.13243 0.0
C779 C 0.47387 0.78608 0.13571 0.0
C780 C 0.51995 0.81289 0.13173 0.0
C781 C 0.5365 0.78713 0.13432 0.0
H782 H 0.47804 0.83302 0.13095 0.0
H783 H 0.53061 0.83391 0.12978 0.0
S784 S 0.50652 0.71216 0.14142 0.0
N785 N 0.47736 0.73328 0.14004 0.0
N786 N 0.53489 0.73424 0.13879 0.0
C787 C 0.5213 0.76048 0.13647 0.0
C788 C 0.49 0.75996 0.13715 0.0
C789 C 0.19345 0.4875 0.13398 0.0
C790 C 0.2193 0.47106 0.13613 0.0
C791 C 0.1939 0.518 0.13398 0.0
C792 C 0.22022 0.53367 0.13611 0.0
H793 H 0.17242 0.47678 0.13293 0.0
H794 H 0.1732 0.52933 0.13291 0.0
S795 S 0.29433 0.50127 0.14017 0.0
N796 N 0.27226 0.47281 0.13886 0.0
N797 N 0.27311 0.53036 0.13883 0.0
C798 C 0.24641 0.51763 0.13706 0.0
C799 C 0.24595 0.48632 0.13708 0.0
C800 C 0.15032 0.33078 0.48697 0.0
C801 C 0.13435 0.31043 0.46744 0.0
C802 C 0.14992 0.33043 0.52293 0.0
C803 C 0.13353 0.30969 0.54138 0.0
H804 H 0.16378 0.34706 0.47448 0.0
H805 H 0.16311 0.34644 0.5363 0.0
S806 S 0.08592 0.25279 0.50283 0.0
N807 N 0.10016 0.26983 0.46933 0.0
N808 N 0.0994 0.26915 0.53724 0.0
C809 C 0.11643 0.28985 0.52233 0.0
C810 C 0.11683 0.29023 0.48537 0.0
C811 C 0.7 0.11622 0.51984 0.0
C812 C 0.69497 0.14185 0.53896 0.0
C813 C 0.70069 0.11675 0.48351 0.0
C814 C 0.69641 0.14294 0.46517 0.0
H815 H 0.70269 0.09554 0.53297 0.0
H816 H 0.70388 0.09645 0.46973 0.0
S817 S 0.68719 0.21669 0.50339 0.0
N818 N 0.6889 0.19454 0.53679 0.0
N819 N 0.69022 0.19555 0.4692 0.0
C820 C 0.69274 0.16884 0.48417 0.0
C821 C 0.69202 0.16829 0.52085 0.0
C822 C 0.85764 0.67086 0.48115 0.0
C823 C 0.87209 0.69301 0.46276 0.0
C824 C 0.85736 0.67036 0.51715 0.0
C825 C 0.8715 0.69201 0.53675 0.0
H826 H 0.84582 0.65387 0.46769 0.0
H827 H 0.84532 0.65301 0.52964 0.0
S828 S 0.91465 0.7537 0.50147 0.0
N829 N 0.90264 0.7363 0.467 0.0
N830 N 0.90206 0.73538 0.53495 0.0
C831 C 0.88728 0.71361 0.51885 0.0
C832 C 0.88758 0.71411 0.48188 0.0
C833 C 0.29114 0.88287 0.52108 0.0
C834 C 0.3158 0.87417 0.54011 0.0
C835 C 0.29152 0.8829 0.48479 0.0
C836 C 0.31658 0.87424 0.46644 0.0
H837 H 0.27098 0.88818 0.53421 0.0
H838 H 0.27163 0.88823 0.47111 0.0
S839 S 0.38844 0.85522 0.50433 0.0
N840 N 0.36706 0.86076 0.53791 0.0
N841 N 0.36779 0.86083 0.47013 0.0
C842 C 0.34195 0.86769 0.48529 0.0
C843 C 0.34155 0.86765 0.522 0.0
C844 C 0.12225 0.71396 0.48504 0.0
C845 C 0.1312 0.68901 0.46664 0.0
C846 C 0.12171 0.71412 0.52134 0.0
C847 C 0.13009 0.68933 0.54035 0.0
H848 H 0.11709 0.73392 0.47142 0.0
H849 H 0.11621 0.7342 0.53453 0.0
S850 S 0.14964 0.61692 0.50432 0.0
N851 N 0.14457 0.63778 0.47019 0.0
N852 N 0.14355 0.63808 0.53796 0.0
C853 C 0.13691 0.6637 0.52213 0.0
C854 C 0.13747 0.66354 0.48542 0.0
C855 C 0.33215 0.14963 0.48282 0.0
C856 C 0.31101 0.13412 0.46397 0.0
C857 C 0.33215 0.14986 0.51881 0.0
C858 C 0.31101 0.1346 0.53798 0.0
H859 H 0.34872 0.16231 0.46975 0.0
H860 H 0.34875 0.1627 0.53164 0.0
S861 S 0.25209 0.08841 0.50145 0.0
N862 N 0.26927 0.1014 0.46734 0.0
N863 N 0.2693 0.10187 0.5353 0.0
C864 C 0.29046 0.11782 0.51964 0.0
C865 C 0.29045 0.11758 0.48266 0.0
C866 C 0.88766 0.30313 0.48428 0.0
C867 C 0.86184 0.30811 0.46545 0.0
C868 C 0.8875 0.3027 0.52061 0.0
C869 C 0.86153 0.30726 0.53924 0.0
H870 H 0.90819 0.30024 0.47092 0.0
H871 H 0.90791 0.29952 0.53416 0.0
S872 S 0.78743 0.31651 0.50212 0.0
N873 N 0.80919 0.31441 0.46838 0.0
N874 N 0.80895 0.31367 0.536 0.0
C875 C 0.83546 0.3109 0.52061 0.0
C876 C 0.8356 0.31131 0.48392 0.0
C877 C 0.71358 0.88256 0.51795 0.0
C878 C 0.6891 0.87225 0.53618 0.0
C879 C 0.71406 0.88268 0.48168 0.0
C880 C 0.69008 0.87246 0.46244 0.0
H881 H 0.73298 0.88934 0.53172 0.0
H882 H 0.7338 0.88958 0.46872 0.0
S883 S 0.61885 0.84829 0.49784 0.0
N884 N 0.63896 0.85524 0.53213 0.0
N885 N 0.6399 0.85539 0.46439 0.0
C886 C 0.66484 0.86395 0.48042 0.0
C887 C 0.66434 0.86387 0.51715 0.0
C888 C 0.61679 0.80456 0.01765 0.0
C889 C 0.64292 0.80892 0.03606 0.0
C890 C 0.61657 0.80396 0.9813 0.0
C891 C 0.64248 0.8077 0.96225 0.0
H892 H 0.59633 0.80235 0.03135 0.0
H893 H 0.59595 0.8013 0.96807 0.0
S894 S 0.71718 0.81498 0.99838 0.0
N895 N 0.69568 0.81368 0.0324 0.0
N896 N 0.69528 0.81257 0.96481 0.0
C897 C 0.66883 0.81065 0.98053 0.0
C898 C 0.66905 0.81125 0.01721 0.0
C899 C 0.21387 0.62195 0.98463 0.0
C900 C 0.19008 0.6334 0.96605 0.0
C901 C 0.21429 0.62238 0.02091 0.0
C902 C 0.19096 0.63429 0.03989 0.0
H903 H 0.23282 0.61373 0.9711 0.0
H904 H 0.23355 0.61443 0.03407 0.0
S905 S 0.1214 0.66227 0.00364 0.0
N906 N 0.14111 0.65359 0.96958 0.0
N907 N 0.14191 0.6544 0.03731 0.0
C908 C 0.16633 0.64409 0.02159 0.0
C909 C 0.16589 0.64364 0.98483 0.0
C910 C 0.38387 0.21375 0.01896 0.0
C911 C 0.37516 0.189 0.0378 0.0
C912 C 0.3846 0.21335 0.98269 0.0
C913 C 0.37669 0.18816 0.96406 0.0
H914 H 0.38868 0.23399 0.0322 0.0
H915 H 0.38993 0.23333 0.9692 0.0
S916 S 0.35792 0.11606 1.00156 0.0
N917 N 0.36248 0.13755 0.03525 0.0
N918 N 0.36395 0.13674 0.9675 0.0
C919 C 0.37013 0.16271 0.98278 0.0
C920 C 0.36934 0.16314 0.01951 0.0
C921 C 0.83597 0.36218 0.022 0.0
C922 C 0.81228 0.37389 0.04043 0.0
C923 C 0.83635 0.36186 0.98603 0.0
C924 C 0.81304 0.37318 0.96659 0.0
H925 H 0.85425 0.35247 0.03544 0.0
H926 H 0.85493 0.3519 0.97344 0.0
S927 S 0.74687 0.40891 0.00217 0.0
N928 N 0.76573 0.39913 0.03654 0.0
N929 N 0.7664 0.39851 0.96858 0.0
C930 C 0.78985 0.38647 0.98455 0.0
C931 C 0.78949 0.38683 0.0215 0.0
C932 C 0.64181 0.1694 0.02125 0.0
C933 C 0.63046 0.19319 0.03979 0.0
C934 C 0.64143 0.16879 0.98529 0.0
C935 C 0.62977 0.19199 0.96593 0.0
H936 H 0.65177 0.15119 0.03458 0.0
H937 H 0.65116 0.15012 0.97261 0.0
S938 S 0.59468 0.25836 0.0019 0.0
N939 N 0.60512 0.23971 0.03616 0.0
N940 N 0.60447 0.23863 0.9682 0.0
C941 C 0.61683 0.21529 0.98405 0.0
C942 C 0.61716 0.21587 0.02101 0.0
C943 C 0.78961 0.62263 0.01823 0.0
C944 C 0.81468 0.63187 0.03617 0.0
C945 C 0.78895 0.62215 0.98193 0.0
C946 C 0.81333 0.63092 0.96241 0.0
H947 H 0.76995 0.61708 0.03223 0.0
H948 H 0.76881 0.61624 0.96915 0.0
S949 S 0.88592 0.65156 0.99711 0.0
N950 N 0.86562 0.6461 0.03162 0.0
N951 N 0.86438 0.64523 0.96387 0.0
C952 C 0.83908 0.63819 0.98016 0.0
C953 C 0.83975 0.63866 0.01689 0.0
C954 C 0.35227 0.83036 0.98501 0.0
C955 C 0.36954 0.81075 0.96594 0.0
C956 C 0.35275 0.83072 0.021 0.0
C957 C 0.37051 0.81148 0.03997 0.0
H958 H 0.33774 0.84545 0.97213 0.0
H959 H 0.33854 0.84606 0.03398 0.0
S960 S 0.42169 0.7571 0.00275 0.0
N961 N 0.40632 0.77252 0.96886 0.0
N962 N 0.4072 0.77319 0.03675 0.0
C963 C 0.3888 0.79242 0.02135 0.0
C964 C 0.38832 0.79205 0.98439 0.0
C965 C 0.1955 0.39067 0.98617 0.0
C966 C 0.19099 0.36466 0.9676 0.0
C967 C 0.19628 0.39062 0.02251 0.0
C968 C 0.19259 0.36456 0.04128 0.0
H969 H 0.19772 0.4112 0.97261 0.0
H970 H 0.19907 0.41114 0.03596 0.0
S971 S 0.18518 0.29012 0.0045 0.0
N972 N 0.18628 0.31187 0.9707 0.0
N973 N 0.18772 0.31178 0.03829 0.0
C974 C 0.18951 0.33835 0.0228 0.0
C975 C 0.18873 0.3384 0.98616 0.0
C976 C 0.15387 0.33822 0.22153 0.0
C977 C 0.17466 0.36046 0.22642 0.0
C978 C 0.14041 0.32435 0.24957 0.0
C979 C 0.14698 0.33228 0.28371 0.0
H980 H 0.14786 0.33135 0.19579 0.0
H981 H 0.12459 0.30737 0.24435 0.0
S982 S 0.19966 0.38956 0.31063 0.0
N983 N 0.20116 0.3898 0.26813 0.0
N984 N 0.17564 0.36417 0.32077 0.0
C985 C 0.16771 0.35456 0.289 0.0
C986 C 0.18159 0.36852 0.2604 0.0
C987 C 0.64142 0.18298 0.25751 0.0
C988 C 0.64727 0.17459 0.22333 0.0
C989 C 0.65499 0.16904 0.28543 0.0
C990 C 0.67514 0.14625 0.28036 0.0
H991 H 0.62611 0.20038 0.26285 0.0
H992 H 0.64958 0.17628 0.31121 0.0
S993 S 0.69804 0.11577 0.19599 0.0
N994 N 0.67451 0.14167 0.18605 0.0
N995 N 0.70021 0.11587 0.23845 0.0
C996 C 0.68131 0.13771 0.24633 0.0
C997 C 0.66734 0.15176 0.21787 0.0
C998 C 0.82426 0.64481 0.25414 0.0
C999 C 0.83295 0.65039 0.21999 0.0
C1000 C 0.83806 0.65846 0.28213 0.0
C1001 C 0.86099 0.67845 0.27717 0.0
H1002 H 0.80676 0.62959 0.25942 0.0
H1003 H 0.83063 0.65322 0.30789 0.0
S1004 S 0.89212 0.70081 0.19292 0.0
N1005 N 0.86621 0.67734 0.18288 0.0
N1006 N 0.89174 0.7032 0.23536 0.0
C1007 C 0.86976 0.68444 0.24317 0.0
C1008 C 0.85587 0.67037 0.21464 0.0
C1009 C 0.33855 0.84787 0.22065 0.0
C1010 C 0.36158 0.82797 0.22558 0.0
C1011 C 0.32462 0.86136 0.24866 0.0
C1012 C 0.33328 0.85571 0.2828 0.0
H1013 H 0.33115 0.85315 0.19489 0.0
H1014 H 0.30707 0.87652 0.24341 0.0
S1015 S 0.39259 0.8054 0.3098 0.0
N1016 N 0.39231 0.80317 0.26736 0.0
N1017 N 0.36657 0.82875 0.31988 0.0
C1018 C 0.35628 0.8358 0.28812 0.0
C1019 C 0.37029 0.82188 0.25958 0.0
C1020 C 0.15562 0.66759 0.78601 0.0
C1021 C 0.17567 0.6447 0.78093 0.0
C1022 C 0.14211 0.68165 0.75808 0.0
C1023 C 0.14791 0.67329 0.72386 0.0
H1024 H 0.1502 0.67475 0.81183 0.0
H1025 H 0.12681 0.69906 0.76343 0.0
S1026 S 0.19873 0.61451 0.69647 0.0
N1027 N 0.20081 0.61448 0.73892 0.0
N1028 N 0.17525 0.64046 0.68658 0.0
C1029 C 0.16802 0.65047 0.71841 0.0
C1030 C 0.18193 0.63632 0.74686 0.0
C1031 C 0.3241 0.14314 0.756 0.0
C1032 C 0.33146 0.1499 0.72172 0.0
C1033 C 0.33764 0.15728 0.78384 0.0
C1034 C 0.35891 0.17899 0.77859 0.0
H1035 H 0.30792 0.12657 0.76148 0.0
H1036 H 0.33135 0.15104 0.8097 0.0
S1037 S 0.38601 0.20509 0.69394 0.0
N1038 N 0.36166 0.1799 0.68419 0.0
N1039 N 0.38656 0.20673 0.73642 0.0
C1040 C 0.36625 0.18625 0.74448 0.0
C1041 C 0.35269 0.17165 0.7161 0.0
C1042 C 0.83606 0.34777 0.71994 0.0
C1043 C 0.85882 0.32756 0.72463 0.0
C1044 C 0.82248 0.36135 0.7481 0.0
C1045 C 0.83127 0.35551 0.78215 0.0
H1046 H 0.82852 0.35318 0.69428 0.0
H1047 H 0.80504 0.37669 0.74304 0.0
S1048 S 0.89021 0.30455 0.80849 0.0
N1049 N 0.8896 0.30237 0.76604 0.0
N1050 N 0.86454 0.32819 0.81886 0.0
C1051 C 0.85411 0.33539 0.78722 0.0
C1052 C 0.86775 0.32135 0.75852 0.0
C1053 C 0.68047 0.8627 0.75398 0.0
C1054 C 0.67171 0.85695 0.71991 0.0
C1055 C 0.66685 0.84905 0.78209 0.0
C1056 C 0.644 0.82889 0.77734 0.0
H1057 H 0.69794 0.87801 0.75909 0.0
H1058 H 0.67438 0.85439 0.80778 0.0
S1059 S 0.6126 0.80619 0.69337 0.0
N1060 N 0.63836 0.82976 0.6831 0.0
N1061 N 0.61319 0.8039 0.73581 0.0
C1062 C 0.6351 0.8228 0.74342 0.0
C1063 C 0.64882 0.83686 0.71478 0.0
C1064 C 0.86012 0.68023 0.75514 0.0
C1065 C 0.85422 0.67213 0.72086 0.0
C1066 C 0.84646 0.66619 0.78297 0.0
C1067 C 0.82612 0.64359 0.77771 0.0
H1068 H 0.87564 0.69742 0.76064 0.0
H1069 H 0.85197 0.67315 0.80882 0.0
S1070 S 0.80268 0.61414 0.69303 0.0
N1071 N 0.82649 0.63984 0.68332 0.0
N1072 N 0.8006 0.6139 0.73549 0.0
C1073 C 0.81976 0.63545 0.74359 0.0
C1074 C 0.83385 0.64958 0.71523 0.0
C1075 C 0.33588 0.84687 0.78556 0.0
C1076 C 0.35841 0.82643 0.7805 0.0
C1077 C 0.32231 0.86084 0.75762 0.0
C1078 C 0.33082 0.8551 0.72345 0.0
H1079 H 0.32865 0.85226 0.81136 0.0
H1080 H 0.30516 0.87644 0.76294 0.0
S1081 S 0.38879 0.80334 0.69615 0.0
N1082 N 0.38845 0.80097 0.73858 0.0
N1083 N 0.36339 0.82739 0.68622 0.0
C1084 C 0.35327 0.83459 0.71802 0.0
C1085 C 0.36693 0.82022 0.74647 0.0
C1086 C 0.16538 0.34582 0.72134 0.0
C1087 C 0.14165 0.32673 0.72621 0.0
C1088 C 0.17888 0.35986 0.7493 0.0
C1089 C 0.16902 0.3556 0.78325 0.0
H1090 H 0.17374 0.34994 0.6957 0.0
H1091 H 0.19712 0.37422 0.74418 0.0
S1092 S 0.1069 0.30854 0.80981 0.0
N1093 N 0.10863 0.30462 0.76759 0.0
N1094 N 0.1334 0.33132 0.81995 0.0
C1095 C 0.14511 0.33673 0.78843 0.0
C1096 C 0.1316 0.32222 0.75999 0.0
C1097 C 0.65262 0.16687 0.71929 0.0
C1098 C 0.67211 0.14349 0.72411 0.0
C1099 C 0.63953 0.18107 0.74738 0.0
C1100 C 0.64514 0.17231 0.78149 0.0
H1101 H 0.64745 0.17445 0.69359 0.0
H1102 H 0.62477 0.19898 0.74221 0.0
S1103 S 0.6941 0.11178 0.80818 0.0
N1104 N 0.69626 0.1121 0.76573 0.0
N1105 N 0.67135 0.1383 0.81839 0.0
C1106 C 0.66447 0.14881 0.78668 0.0
C1107 C 0.67802 0.13454 0.75806 0.0
C1108 C 0.82309 0.36507 0.25807 0.0
C1109 C 0.83152 0.35928 0.2239 0.0
C1110 C 0.83721 0.35169 0.286 0.0
C1111 C 0.86023 0.33179 0.28094 0.0
H1112 H 0.8055 0.38017 0.2634 0.0
H1113 H 0.82991 0.35701 0.31178 0.0
S1114 S 0.89101 0.30927 0.19659 0.0
N1115 N 0.86481 0.33245 0.18664 0.0
N1116 N 0.89093 0.30711 0.23904 0.0
C1117 C 0.86886 0.32573 0.24692 0.0
C1118 C 0.85462 0.33951 0.21846 0.0
C1119 C 0.64349 0.82553 0.25397 0.0
C1120 C 0.64869 0.83496 0.22002 0.0
C1121 C 0.65743 0.83878 0.28215 0.0
C1122 C 0.67731 0.86187 0.27756 0.0
H1123 H 0.62849 0.80777 0.25892 0.0
H1124 H 0.65257 0.83074 0.30776 0.0
S1125 S 0.69821 0.89527 0.19403 0.0
N1126 N 0.67481 0.8694 0.18356 0.0
N1127 N 0.70123 0.89383 0.23637 0.0
C1128 C 0.68277 0.8715 0.24377 0.0
C1129 C 0.6684 0.85819 0.21508 0.0
C1130 C 0.14485 0.68228 0.24864 0.0
C1131 C 0.15057 0.67341 0.28269 0.0
C1132 C 0.15858 0.66881 0.22047 0.0
C1133 C 0.17881 0.64604 0.22516 0.0
H1134 H 0.12943 0.69965 0.24357 0.0
H1135 H 0.15321 0.67634 0.19479 0.0
S1136 S 0.20177 0.61467 0.30906 0.0
N1137 N 0.17801 0.64024 0.31941 0.0
N1138 N 0.20405 0.61535 0.26662 0.0
C1139 C 0.18501 0.63715 0.25907 0.0
C1140 C 0.17084 0.6507 0.28776 0.0
C1141 C 0.34676 0.16863 0.28334 0.0
C1142 C 0.32668 0.14579 0.27829 0.0
C1143 C 0.36039 0.1825 0.25538 0.0
C1144 C 0.35469 0.17395 0.2212 0.0
H1145 H 0.3521 0.17591 0.30913 0.0
H1146 H 0.37573 0.19989 0.26069 0.0
S1147 S 0.30381 0.11521 0.19393 0.0
N1148 N 0.30158 0.11541 0.23638 0.0
N1149 N 0.32741 0.14103 0.18398 0.0
C1150 C 0.33455 0.15118 0.21578 0.0
C1151 C 0.3205 0.13724 0.24426 0.0
loop_
_geom_bond_atom_site_label_1
_geom_bond_atom_site_label_2
_geom_bond_distance
_geom_bond_site_symmetry_2
_ccdc_geom_bond_type
Co0 O1 2.216 . S
Co0 O2 2.091 . S
Co0 O4 2.004 . S
Co0 O10 2.021 . S
Co0 O12 2.137 . S
Co0 O13 2.244 . S
O1 Co0 2.216 . S
O1 C8 1.247 . S
O2 Co0 2.091 . S
O2 C8 1.261 . S
C3 O12 1.247 . S
C3 O13 1.272 . S
O4 Co0 2.004 . S
O4 C9 1.259 . S
Co5 O6 2.061 . S
Co5 O11 2.052 . S
Co5 O13 2.135 . S
O6 Co5 2.061 . S
O6 C9 1.235 . S
C7 O10 1.238 . S
C7 O11 1.241 . S
C8 O1 1.247 . S
C8 O2 1.261 . S
C9 O4 1.259 . S
C9 O6 1.235 . S
O10 Co0 2.021 . S
O10 C7 1.238 . S
O11 Co5 2.052 . S
O11 C7 1.241 . S
O12 Co0 2.137 . S
O12 C3 1.247 . S
O13 Co0 2.244 . S
O13 C3 1.272 . S
O13 Co5 2.135 . S
Co14 O15 2.216 . S
Co14 O16 2.091 . S
Co14 O18 2.004 . S
Co14 O24 2.021 . S
Co14 O26 2.137 . S
Co14 O27 2.244 . S
O15 Co14 2.216 . S
O15 C22 1.247 . S
O16 Co14 2.091 . S
O16 C22 1.261 . S
C17 O26 1.247 . S
C17 O27 1.272 . S
O18 Co14 2.004 . S
O18 C23 1.259 . S
Co19 O20 2.061 . S
Co19 O25 2.052 . S
Co19 O27 2.135 . S
O20 Co19 2.061 . S
O20 C23 1.235 . S
C21 O24 1.238 . S
C21 O25 1.241 . S
C22 O15 1.247 . S
C22 O16 1.261 . S
C23 O18 1.259 . S
C23 O20 1.235 . S
O24 Co14 2.021 . S
O24 C21 1.238 . S
O25 Co19 2.052 . S
O25 C21 1.241 . S
O26 Co14 2.137 . S
O26 C17 1.247 . S
O27 Co14 2.244 . S
O27 C17 1.272 . S
O27 Co19 2.135 . S
Co28 O29 2.216 . S
Co28 O30 2.091 . S
Co28 O32 2.004 . S
Co28 O38 2.021 . S
Co28 O40 2.137 . S
Co28 O41 2.244 . S
O29 Co28 2.216 . S
O29 C36 1.247 . S
O30 Co28 2.091 . S
O30 C36 1.261 . S
C31 O40 1.247 . S
C31 O41 1.272 . S
O32 Co28 2.004 . S
O32 C37 1.259 . S
Co33 O34 2.061 . S
Co33 O39 2.052 . S
Co33 O41 2.135 . S
O34 Co33 2.061 . S
O34 C37 1.235 . S
C35 O38 1.238 . S
C35 O39 1.241 . S
C36 O29 1.247 . S
C36 O30 1.261 . S
C37 O32 1.259 . S
C37 O34 1.235 . S
O38 Co28 2.021 . S
O38 C35 1.238 . S
O39 Co33 2.052 . S
O39 C35 1.241 . S
O40 Co28 2.137 . S
O40 C31 1.247 . S
O41 Co28 2.244 . S
O41 C31 1.272 . S
O41 Co33 2.135 . S
Co42 O43 2.216 . S
Co42 O44 2.091 . S
Co42 O46 2.004 . S
Co42 O52 2.021 . S
Co42 O54 2.137 . S
Co42 O55 2.244 . S
O43 Co42 2.216 . S
O43 C50 1.247 . S
O44 Co42 2.091 . S
O44 C50 1.261 . S
C45 O54 1.247 . S
C45 O55 1.272 . S
O46 Co42 2.004 . S
O46 C51 1.259 . S
Co47 O48 2.061 . S
Co47 O53 2.052 . S
Co47 O55 2.135 . S
O48 Co47 2.061 . S
O48 C51 1.235 . S
C49 O52 1.238 . S
C49 O53 1.241 . S
C50 O43 1.247 . S
C50 O44 1.261 . S
C51 O46 1.259 . S
C51 O48 1.235 . S
O52 Co42 2.021 . S
O52 C49 1.238 . S
O53 Co47 2.052 . S
O53 C49 1.241 . S
O54 Co42 2.137 . S
O54 C45 1.247 . S
O55 Co42 2.244 . S
O55 C45 1.272 . S
O55 Co47 2.135 . S
Co56 O57 2.216 . S
Co56 O58 2.091 . S
Co56 O60 2.004 . S
Co56 O66 2.021 . S
Co56 O68 2.137 . S
Co56 O69 2.244 . S
O57 Co56 2.216 . S
O57 C64 1.247 . S
O58 Co56 2.091 . S
O58 C64 1.261 . S
C59 O68 1.247 . S
C59 O69 1.272 . S
O60 Co56 2.004 . S
O60 C65 1.259 . S
Co61 O62 2.061 . S
Co61 O67 2.052 . S
Co61 O69 2.135 . S
O62 Co61 2.061 . S
O62 C65 1.235 . S
C63 O66 1.238 . S
C63 O67 1.241 . S
C64 O57 1.247 . S
C64 O58 1.261 . S
C65 O60 1.259 . S
C65 O62 1.235 . S
O66 Co56 2.021 . S
O66 C63 1.238 . S
O67 Co61 2.052 . S
O67 C63 1.241 . S
O68 Co56 2.137 . S
O68 C59 1.247 . S
O69 Co56 2.244 . S
O69 C59 1.272 . S
O69 Co61 2.135 . S
Co70 O71 2.216 . S
Co70 O72 2.091 . S
Co70 O74 2.004 . S
Co70 O80 2.021 . S
Co70 O82 2.137 . S
Co70 O83 2.244 . S
O71 Co70 2.216 . S
O71 C78 1.247 . S
O72 Co70 2.091 . S
O72 C78 1.261 . S
C73 O82 1.247 . S
C73 O83 1.272 . S
O74 Co70 2.004 . S
O74 C79 1.259 . S
Co75 O76 2.061 . S
Co75 O81 2.052 . S
Co75 O83 2.135 . S
O76 Co75 2.061 . S
O76 C79 1.235 . S
C77 O80 1.238 . S
C77 O81 1.241 . S
C78 O71 1.247 . S
C78 O72 1.261 . S
C79 O74 1.259 . S
C79 O76 1.235 . S
O80 Co70 2.021 . S
O80 C77 1.238 . S
O81 Co75 2.052 . S
O81 C77 1.241 . S
O82 Co70 2.137 . S
O82 C73 1.247 . S
O83 Co70 2.244 . S
O83 C73 1.272 . S
O83 Co75 2.135 . S
Co84 O85 2.216 . S
Co84 O86 2.091 . S
Co84 O88 2.004 . S
Co84 O94 2.021 . S
Co84 O96 2.137 . S
Co84 O97 2.244 . S
O85 Co84 2.216 . S
O85 C92 1.247 . S
O86 Co84 2.091 . S
O86 C92 1.261 . S
C87 O96 1.247 . S
C87 O97 1.272 . S
O88 Co84 2.004 . S
O88 C93 1.259 . S
Co89 O90 2.061 . S
Co89 O95 2.052 . S
Co89 O97 2.135 . S
O90 Co89 2.061 . S
O90 C93 1.235 . S
C91 O94 1.238 . S
C91 O95 1.241 . S
C92 O85 1.247 . S
C92 O86 1.261 . S
C93 O88 1.259 . S
C93 O90 1.235 . S
O94 Co84 2.021 . S
O94 C91 1.238 . S
O95 Co89 2.052 . S
O95 C91 1.241 . S
O96 Co84 2.137 . S
O96 C87 1.247 . S
O97 Co84 2.244 . S
O97 C87 1.272 . S
O97 Co89 2.135 . S
Co98 O99 2.216 . S
Co98 O100 2.091 . S
Co98 O102 2.004 . S
Co98 O108 2.021 . S
Co98 O110 2.137 . S
Co98 O111 2.244 . S
O99 Co98 2.216 . S
O99 C106 1.247 . S
O100 Co98 2.091 . S
O100 C106 1.261 . S
C101 O110 1.247 . S
C101 O111 1.272 . S
O102 Co98 2.004 . S
O102 C107 1.259 . S
Co103 O104 2.061 . S
Co103 O109 2.052 . S
Co103 O111 2.135 . S
O104 Co103 2.061 . S
O104 C107 1.235 . S
C105 O108 1.238 . S
C105 O109 1.241 . S
C106 O99 1.247 . S
C106 O100 1.261 . S
C107 O102 1.259 . S
C107 O104 1.235 . S
O108 Co98 2.021 . S
O108 C105 1.238 . S
O109 Co103 2.052 . S
O109 C105 1.241 . S
O110 Co98 2.137 . S
O110 C101 1.247 . S
O111 Co98 2.244 . S
O111 C101 1.272 . S
O111 Co103 2.135 . S
Co112 O113 2.216 . S
Co112 O114 2.091 . S
Co112 O116 2.004 . S
Co112 O122 2.021 . S
Co112 O124 2.137 . S
Co112 O125 2.244 . S
O113 Co112 2.216 . S
O113 C120 1.247 . S
O114 Co112 2.091 . S
O114 C120 1.261 . S
C115 O124 1.247 . S
C115 O125 1.272 . S
O116 Co112 2.004 . S
O116 C121 1.259 . S
Co117 O118 2.061 . S
Co117 O123 2.052 . S
Co117 O125 2.135 . S
O118 Co117 2.061 . S
O118 C121 1.235 . S
C119 O122 1.238 . S
C119 O123 1.241 . S
C120 O113 1.247 . S
C120 O114 1.261 . S
C121 O116 1.259 . S
C121 O118 1.235 . S
O122 Co112 2.021 . S
O122 C119 1.238 . S
O123 Co117 2.052 . S
O123 C119 1.241 . S
O124 Co112 2.137 . S
O124 C115 1.247 . S
O125 Co112 2.244 . S
O125 C115 1.272 . S
O125 Co117 2.135 . S
Co126 O127 2.216 . S
Co126 O128 2.091 . S
Co126 O130 2.004 . S
Co126 O136 2.021 . S
Co126 O138 2.137 . S
Co126 O139 2.244 . S
O127 Co126 2.216 . S
O127 C134 1.247 . S
O128 Co126 2.091 . S
O128 C134 1.261 . S
C129 O138 1.247 . S
C129 O139 1.272 . S
O130 Co126 2.004 . S
O130 C135 1.259 . S
Co131 O132 2.061 . S
Co131 O137 2.052 . S
Co131 O139 2.135 . S
O132 Co131 2.061 . S
O132 C135 1.235 . S
C133 O136 1.238 . S
C133 O137 1.241 . S
C134 O127 1.247 . S
C134 O128 1.261 . S
C135 O130 1.259 . S
C135 O132 1.235 . S
O136 Co126 2.021 . S
O136 C133 1.238 . S
O137 Co131 2.052 . S
O137 C133 1.241 . S
O138 Co126 2.137 . S
O138 C129 1.247 . S
O139 Co126 2.244 . S
O139 C129 1.272 . S
O139 Co131 2.135 . S
Co140 O141 2.216 . S
Co140 O142 2.091 . S
Co140 O144 2.004 . S
Co140 O150 2.021 . S
Co140 O152 2.137 . S
Co140 O153 2.244 . S
O141 Co140 2.216 . S
O141 C148 1.247 . S
O142 Co140 2.091 . S
O142 C148 1.261 . S
C143 O152 1.247 . S
C143 O153 1.272 . S
O144 Co140 2.004 . S
O144 C149 1.259 . S
Co145 O146 2.061 . S
Co145 O151 2.052 . S
Co145 O153 2.135 . S
O146 Co145 2.061 . S
O146 C149 1.235 . S
C147 O150 1.238 . S
C147 O151 1.241 . S
C148 O141 1.247 . S
C148 O142 1.261 . S
C149 O144 1.259 . S
C149 O146 1.235 . S
O150 Co140 2.021 . S
O150 C147 1.238 . S
O151 Co145 2.052 . S
O151 C147 1.241 . S
O152 Co140 2.137 . S
O152 C143 1.247 . S
O153 Co140 2.244 . S
O153 C143 1.272 . S
O153 Co145 2.135 . S
Co154 O155 2.216 . S
Co154 O156 2.091 . S
Co154 O158 2.004 . S
Co154 O164 2.021 . S
Co154 O166 2.137 . S
Co154 O167 2.244 . S
O155 Co154 2.216 . S
O155 C162 1.247 . S
O156 Co154 2.091 . S
O156 C162 1.261 . S
C157 O166 1.247 . S
C157 O167 1.272 . S
O158 Co154 2.004 . S
O158 C163 1.259 . S
Co159 O160 2.061 . S
Co159 O165 2.052 . S
Co159 O167 2.135 . S
O160 Co159 2.061 . S
O160 C163 1.235 . S
C161 O164 1.238 . S
C161 O165 1.241 . S
C162 O155 1.247 . S
C162 O156 1.261 . S
C163 O158 1.259 . S
C163 O160 1.235 . S
O164 Co154 2.021 . S
O164 C161 1.238 . S
O165 Co159 2.052 . S
O165 C161 1.241 . S
O166 Co154 2.137 . S
O166 C157 1.247 . S
O167 Co154 2.244 . S
O167 C157 1.272 . S
O167 Co159 2.135 . S
Co168 O169 2.216 . S
Co168 O170 2.091 . S
Co168 O172 2.004 . S
Co168 O178 2.021 . S
Co168 O180 2.137 . S
Co168 O181 2.244 . S
O169 Co168 2.216 . S
O169 C176 1.247 . S
O170 Co168 2.091 . S
O170 C176 1.261 . S
C171 O180 1.247 . S
C171 O181 1.272 . S
O172 Co168 2.004 . S
O172 C177 1.259 . S
Co173 O174 2.061 . S
Co173 O179 2.052 . S
Co173 O181 2.135 . S
O174 Co173 2.061 . S
O174 C177 1.235 . S
C175 O178 1.238 . S
C175 O179 1.241 . S
C176 O169 1.247 . S
C176 O170 1.261 . S
C177 O172 1.259 . S
C177 O174 1.235 . S
O178 Co168 2.021 . S
O178 C175 1.238 . S
O179 Co173 2.052 . S
O179 C175 1.241 . S
O180 Co168 2.137 . S
O180 C171 1.247 . S
O181 Co168 2.244 . S
O181 C171 1.272 . S
O181 Co173 2.135 . S
Co182 O183 2.216 . S
Co182 O184 2.091 . S
Co182 O186 2.004 . S
Co182 O192 2.021 . S
Co182 O194 2.137 . S
Co182 O195 2.244 . S
O183 Co182 2.216 . S
O183 C190 1.247 . S
O184 Co182 2.091 . S
O184 C190 1.261 . S
C185 O194 1.247 . S
C185 O195 1.272 . S
O186 Co182 2.004 . S
O186 C191 1.259 . S
Co187 O188 2.061 . S
Co187 O193 2.052 . S
Co187 O195 2.135 . S
O188 Co187 2.061 . S
O188 C191 1.235 . S
C189 O192 1.238 . S
C189 O193 1.241 . S
C190 O183 1.247 . S
C190 O184 1.261 . S
C191 O186 1.259 . S
C191 O188 1.235 . S
O192 Co182 2.021 . S
O192 C189 1.238 . S
O193 Co187 2.052 . S
O193 C189 1.241 . S
O194 Co182 2.137 . S
O194 C185 1.247 . S
O195 Co182 2.244 . S
O195 C185 1.272 . S
O195 Co187 2.135 . S
Co196 O197 2.216 . S
Co196 O198 2.091 . S
Co196 O200 2.004 . S
Co196 O206 2.021 . S
Co196 O208 2.137 . S
Co196 O209 2.244 . S
O197 Co196 2.216 . S
O197 C204 1.247 . S
O198 Co196 2.091 . S
O198 C204 1.261 . S
C199 O208 1.247 . S
C199 O209 1.272 . S
O200 Co196 2.004 . S
O200 C205 1.259 . S
Co201 O202 2.061 . S
Co201 O207 2.052 . S
Co201 O209 2.135 . S
O202 Co201 2.061 . S
O202 C205 1.235 . S
C203 O206 1.238 . S
C203 O207 1.241 . S
C204 O197 1.247 . S
C204 O198 1.261 . S
C205 O200 1.259 . S
C205 O202 1.235 . S
O206 Co196 2.021 . S
O206 C203 1.238 . S
O207 Co201 2.052 . S
O207 C203 1.241 . S
O208 Co196 2.137 . S
O208 C199 1.247 . S
O209 Co196 2.244 . S
O209 C199 1.272 . S
O209 Co201 2.135 . S
Co210 O211 2.216 . S
Co210 O212 2.091 . S
Co210 O214 2.004 . S
Co210 O220 2.021 . S
Co210 O222 2.137 . S
Co210 O223 2.244 . S
O211 Co210 2.216 . S
O211 C218 1.247 . S
O212 Co210 2.091 . S
O212 C218 1.261 . S
C213 O222 1.247 . S
C213 O223 1.272 . S
O214 Co210 2.004 . S
O214 C219 1.259 . S
Co215 O216 2.061 . S
Co215 O221 2.052 . S
Co215 O223 2.135 . S
O216 Co215 2.061 . S
O216 C219 1.235 . S
C217 O220 1.238 . S
C217 O221 1.241 . S
C218 O211 1.247 . S
C218 O212 1.261 . S
C219 O214 1.259 . S
C219 O216 1.235 . S
O220 Co210 2.021 . S
O220 C217 1.238 . S
O221 Co215 2.052 . S
O221 C217 1.241 . S
O222 Co210 2.137 . S
O222 C213 1.247 . S
O223 Co210 2.244 . S
O223 C213 1.272 . S
O223 Co215 2.135 . S
Co224 O225 2.216 . S
Co224 O226 2.091 . S
Co224 O228 2.004 . S
Co224 O234 2.021 . S
Co224 O236 2.137 . S
Co224 O237 2.244 . S
O225 Co224 2.216 . S
O225 C232 1.247 . S
O226 Co224 2.091 . S
O226 C232 1.261 . S
C227 O236 1.247 . S
C227 O237 1.272 . S
O228 Co224 2.004 . S
O228 C233 1.259 . S
Co229 O230 2.061 . S
Co229 O235 2.052 . S
Co229 O237 2.135 . S
O230 Co229 2.061 . S
O230 C233 1.235 . S
C231 O234 1.238 . S
C231 O235 1.241 . S
C232 O225 1.247 . S
C232 O226 1.261 . S
C233 O228 1.259 . S
C233 O230 1.235 . S
O234 Co224 2.021 . S
O234 C231 1.238 . S
O235 Co229 2.052 . S
O235 C231 1.241 . S
O236 Co224 2.137 . S
O236 C227 1.247 . S
O237 Co224 2.244 . S
O237 C227 1.272 . S
O237 Co229 2.135 . S
Co238 O239 2.216 . S
Co238 O240 2.091 . S
Co238 O242 2.004 . S
Co238 O248 2.021 . S
Co238 O250 2.137 . S
Co238 O251 2.244 . S
O239 Co238 2.216 . S
O239 C246 1.247 . S
O240 Co238 2.091 . S
O240 C246 1.261 . S
C241 O250 1.247 . S
C241 O251 1.272 . S
O242 Co238 2.004 . S
O242 C247 1.259 . S
Co243 O244 2.061 . S
Co243 O249 2.052 . S
Co243 O251 2.135 . S
O244 Co243 2.061 . S
O244 C247 1.235 . S
C245 O248 1.238 . S
C245 O249 1.241 . S
C246 O239 1.247 . S
C246 O240 1.261 . S
C247 O242 1.259 . S
C247 O244 1.235 . S
O248 Co238 2.021 . S
O248 C245 1.238 . S
O249 Co243 2.052 . S
O249 C245 1.241 . S
O250 Co238 2.137 . S
O250 C241 1.247 . S
O251 Co238 2.244 . S
O251 C241 1.272 . S
O251 Co243 2.135 . S
Co252 O253 2.216 . S
Co252 O254 2.091 . S
Co252 O256 2.004 . S
Co252 O262 2.021 . S
Co252 O264 2.137 . S
Co252 O265 2.244 . S
O253 Co252 2.216 . S
O253 C260 1.247 . S
O254 Co252 2.091 . S
O254 C260 1.261 . S
C255 O264 1.247 . S
C255 O265 1.272 . S
O256 Co252 2.004 . S
O256 C261 1.259 . S
Co257 O258 2.061 . S
Co257 O263 2.052 . S
Co257 O265 2.135 . S
O258 Co257 2.061 . S
O258 C261 1.235 . S
C259 O262 1.238 . S
C259 O263 1.241 . S
C260 O253 1.247 . S
C260 O254 1.261 . S
C261 O256 1.259 . S
C261 O258 1.235 . S
O262 Co252 2.021 . S
O262 C259 1.238 . S
O263 Co257 2.052 . S
O263 C259 1.241 . S
O264 Co252 2.137 . S
O264 C255 1.247 . S
O265 Co252 2.244 . S
O265 C255 1.272 . S
O265 Co257 2.135 . S
Co266 O267 2.216 . S
Co266 O268 2.091 . S
Co266 O270 2.004 . S
Co266 O276 2.021 . S
Co266 O278 2.137 . S
Co266 O279 2.244 . S
O267 Co266 2.216 . S
O267 C274 1.247 . S
O268 Co266 2.091 . S
O268 C274 1.261 . S
C269 O278 1.247 . S
C269 O279 1.272 . S
O270 Co266 2.004 . S
O270 C275 1.259 . S
Co271 O272 2.061 . S
Co271 O277 2.052 . S
Co271 O279 2.135 . S
O272 Co271 2.061 . S
O272 C275 1.235 . S
C273 O276 1.238 . S
C273 O277 1.241 . S
C274 O267 1.247 . S
C274 O268 1.261 . S
C275 O270 1.259 . S
C275 O272 1.235 . S
O276 Co266 2.021 . S
O276 C273 1.238 . S
O277 Co271 2.052 . S
O277 C273 1.241 . S
O278 Co266 2.137 . S
O278 C269 1.247 . S
O279 Co266 2.244 . S
O279 C269 1.272 . S
O279 Co271 2.135 . S
Co280 O281 2.216 . S
Co280 O282 2.091 . S
Co280 O284 2.004 . S
Co280 O290 2.021 . S
Co280 O292 2.137 . S
Co280 O293 2.244 . S
O281 Co280 2.216 . S
O281 C288 1.247 . S
O282 Co280 2.091 . S
O282 C288 1.261 . S
C283 O292 1.247 . S
C283 O293 1.272 . S
O284 Co280 2.004 . S
O284 C289 1.259 . S
Co285 O286 2.061 . S
Co285 O291 2.052 . S
Co285 O293 2.135 . S
O286 Co285 2.061 . S
O286 C289 1.235 . S
C287 O290 1.238 . S
C287 O291 1.241 . S
C288 O281 1.247 . S
C288 O282 1.261 . S
C289 O284 1.259 . S
C289 O286 1.235 . S
O290 Co280 2.021 . S
O290 C287 1.238 . S
O291 Co285 2.052 . S
O291 C287 1.241 . S
O292 Co280 2.137 . S
O292 C283 1.247 . S
O293 Co280 2.244 . S
O293 C283 1.272 . S
O293 Co285 2.135 . S
Co294 O295 2.216 . S
Co294 O296 2.091 . S
Co294 O298 2.004 . S
Co294 O304 2.021 . S
Co294 O306 2.137 . S
Co294 O307 2.244 . S
O295 Co294 2.216 . S
O295 C302 1.247 . S
O296 Co294 2.091 . S
O296 C302 1.261 . S
C297 O306 1.247 . S
C297 O307 1.272 . S
O298 Co294 2.004 . S
O298 C303 1.259 . S
Co299 O300 2.061 . S
Co299 O305 2.052 . S
Co299 O307 2.135 . S
O300 Co299 2.061 . S
O300 C303 1.235 . S
C301 O304 1.238 . S
C301 O305 1.241 . S
C302 O295 1.247 . S
C302 O296 1.261 . S
C303 O298 1.259 . S
C303 O300 1.235 . S
O304 Co294 2.021 . S
O304 C301 1.238 . S
O305 Co299 2.052 . S
O305 C301 1.241 . S
O306 Co294 2.137 . S
O306 C297 1.247 . S
O307 Co294 2.244 . S
O307 C297 1.272 . S
O307 Co299 2.135 . S
Co308 O309 2.216 . S
Co308 O310 2.091 . S
Co308 O312 2.004 . S
Co308 O318 2.021 . S
Co308 O320 2.137 . S
Co308 O321 2.244 . S
O309 Co308 2.216 . S
O309 C316 1.247 . S
O310 Co308 2.091 . S
O310 C316 1.261 . S
C311 O320 1.247 . S
C311 O321 1.272 . S
O312 Co308 2.004 . S
O312 C317 1.259 . S
Co313 O314 2.061 . S
Co313 O319 2.052 . S
Co313 O321 2.135 . S
O314 Co313 2.061 . S
O314 C317 1.235 . S
C315 O318 1.238 . S
C315 O319 1.241 . S
C316 O309 1.247 . S
C316 O310 1.261 . S
C317 O312 1.259 . S
C317 O314 1.235 . S
O318 Co308 2.021 . S
O318 C315 1.238 . S
O319 Co313 2.052 . S
O319 C315 1.241 . S
O320 Co308 2.137 . S
O320 C311 1.247 . S
O321 Co308 2.244 . S
O321 C311 1.272 . S
O321 Co313 2.135 . S
Co322 O323 2.216 . S
Co322 O324 2.091 . S
Co322 O326 2.004 . S
Co322 O332 2.021 . S
Co322 O334 2.137 . S
Co322 O335 2.244 . S
O323 Co322 2.216 . S
O323 C330 1.247 . S
O324 Co322 2.091 . S
O324 C330 1.261 . S
C325 O334 1.247 . S
C325 O335 1.272 . S
O326 Co322 2.004 . S
O326 C331 1.259 . S
Co327 O328 2.061 . S
Co327 O333 2.052 . S
Co327 O335 2.135 . S
O328 Co327 2.061 . S
O328 C331 1.235 . S
C329 O332 1.238 . S
C329 O333 1.241 . S
C330 O323 1.247 . S
C330 O324 1.261 . S
C331 O326 1.259 . S
C331 O328 1.235 . S
O332 Co322 2.021 . S
O332 C329 1.238 . S
O333 Co327 2.052 . S
O333 C329 1.241 . S
O334 Co322 2.137 . S
O334 C325 1.247 . S
O335 Co322 2.244 . S
O335 C325 1.272 . S
O335 Co327 2.135 . S
Co336 O337 2.216 . S
Co336 O338 2.091 . S
Co336 O340 2.004 . S
Co336 O346 2.021 . S
Co336 O348 2.137 . S
Co336 O349 2.244 . S
O337 Co336 2.216 . S
O337 C344 1.247 . S
O338 Co336 2.091 . S
O338 C344 1.261 . S
C339 O348 1.247 . S
C339 O349 1.272 . S
O340 Co336 2.004 . S
O340 C345 1.259 . S
Co341 O342 2.061 . S
Co341 O347 2.052 . S
Co341 O349 2.135 . S
O342 Co341 2.061 . S
O342 C345 1.235 . S
C343 O346 1.238 . S
C343 O347 1.241 . S
C344 O337 1.247 . S
C344 O338 1.261 . S
C345 O340 1.259 . S
C345 O342 1.235 . S
O346 Co336 2.021 . S
O346 C343 1.238 . S
O347 Co341 2.052 . S
O347 C343 1.241 . S
O348 Co336 2.137 . S
O348 C339 1.247 . S
O349 Co336 2.244 . S
O349 C339 1.272 . S
O349 Co341 2.135 . S
Co350 O351 2.216 . S
Co350 O352 2.091 . S
Co350 O354 2.004 . S
Co350 O360 2.021 . S
Co350 O362 2.137 . S
Co350 O363 2.244 . S
O351 Co350 2.216 . S
O351 C358 1.247 . S
O352 Co350 2.091 . S
O352 C358 1.261 . S
C353 O362 1.247 . S
C353 O363 1.272 . S
O354 Co350 2.004 . S
O354 C359 1.259 . S
Co355 O356 2.061 . S
Co355 O361 2.052 . S
Co355 O363 2.135 . S
O356 Co355 2.061 . S
O356 C359 1.235 . S
C357 O360 1.238 . S
C357 O361 1.241 . S
C358 O351 1.247 . S
C358 O352 1.261 . S
C359 O354 1.259 . S
C359 O356 1.235 . S
O360 Co350 2.021 . S
O360 C357 1.238 . S
O361 Co355 2.052 . S
O361 C357 1.241 . S
O362 Co350 2.137 . S
O362 C353 1.247 . S
O363 Co350 2.244 . S
O363 C353 1.272 . S
O363 Co355 2.135 . S
Co364 O365 2.216 . S
Co364 O366 2.091 . S
Co364 O368 2.004 . S
Co364 O374 2.021 . S
Co364 O376 2.137 . S
Co364 O377 2.244 . S
O365 Co364 2.216 . S
O365 C372 1.247 . S
O366 Co364 2.091 . S
O366 C372 1.261 . S
C367 O376 1.247 . S
C367 O377 1.272 . S
O368 Co364 2.004 . S
O368 C373 1.259 . S
Co369 O370 2.061 . S
Co369 O375 2.052 . S
Co369 O377 2.135 . S
O370 Co369 2.061 . S
O370 C373 1.235 . S
C371 O374 1.238 . S
C371 O375 1.241 . S
C372 O365 1.247 . S
C372 O366 1.261 . S
C373 O368 1.259 . S
C373 O370 1.235 . S
O374 Co364 2.021 . S
O374 C371 1.238 . S
O375 Co369 2.052 . S
O375 C371 1.241 . S
O376 Co364 2.137 . S
O376 C367 1.247 . S
O377 Co364 2.244 . S
O377 C367 1.272 . S
O377 Co369 2.135 . S
Co378 O379 2.216 . S
Co378 O380 2.091 . S
Co378 O382 2.004 . S
Co378 O388 2.021 . S
Co378 O390 2.137 . S
Co378 O391 2.244 . S
O379 Co378 2.216 . S
O379 C386 1.247 . S
O380 Co378 2.091 . S
O380 C386 1.261 . S
C381 O390 1.247 . S
C381 O391 1.272 . S
O382 Co378 2.004 . S
O382 C387 1.259 . S
Co383 O384 2.061 . S
Co383 O389 2.052 . S
Co383 O391 2.135 . S
O384 Co383 2.061 . S
O384 C387 1.235 . S
C385 O388 1.238 . S
C385 O389 1.241 . S
C386 O379 1.247 . S
C386 O380 1.261 . S
C387 O382 1.259 . S
C387 O384 1.235 . S
O388 Co378 2.021 . S
O388 C385 1.238 . S
O389 Co383 2.052 . S
O389 C385 1.241 . S
O390 Co378 2.137 . S
O390 C381 1.247 . S
O391 Co378 2.244 . S
O391 C381 1.272 . S
O391 Co383 2.135 . S
Co392 O393 2.216 . S
Co392 O394 2.091 . S
Co392 O396 2.004 . S
Co392 O402 2.021 . S
Co392 O404 2.137 . S
Co392 O405 2.244 . S
O393 Co392 2.216 . S
O393 C400 1.247 . S
O394 Co392 2.091 . S
O394 C400 1.261 . S
C395 O404 1.247 . S
C395 O405 1.272 . S
O396 Co392 2.004 . S
O396 C401 1.259 . S
Co397 O398 2.061 . S
Co397 O403 2.052 . S
Co397 O405 2.135 . S
O398 Co397 2.061 . S
O398 C401 1.235 . S
C399 O402 1.238 . S
C399 O403 1.241 . S
C400 O393 1.247 . S
C400 O394 1.261 . S
C401 O396 1.259 . S
C401 O398 1.235 . S
O402 Co392 2.021 . S
O402 C399 1.238 . S
O403 Co397 2.052 . S
O403 C399 1.241 . S
O404 Co392 2.137 . S
O404 C395 1.247 . S
O405 Co392 2.244 . S
O405 C395 1.272 . S
O405 Co397 2.135 . S
Co406 O407 2.216 . S
Co406 O408 2.091 . S
Co406 O410 2.004 . S
Co406 O416 2.021 . S
Co406 O418 2.137 . S
Co406 O419 2.244 . S
O407 Co406 2.216 . S
O407 C414 1.247 . S
O408 Co406 2.091 . S
O408 C414 1.261 . S
C409 O418 1.247 . S
C409 O419 1.272 . S
O410 Co406 2.004 . S
O410 C415 1.259 . S
Co411 O412 2.061 . S
Co411 O417 2.052 . S
Co411 O419 2.135 . S
O412 Co411 2.061 . S
O412 C415 1.235 . S
C413 O416 1.238 . S
C413 O417 1.241 . S
C414 O407 1.247 . S
C414 O408 1.261 . S
C415 O410 1.259 . S
C415 O412 1.235 . S
O416 Co406 2.021 . S
O416 C413 1.238 . S
O417 Co411 2.052 . S
O417 C413 1.241 . S
O418 Co406 2.137 . S
O418 C409 1.247 . S
O419 Co406 2.244 . S
O419 C409 1.272 . S
O419 Co411 2.135 . S
Co420 O421 2.216 . S
Co420 O422 2.091 . S
Co420 O424 2.004 . S
Co420 O430 2.021 . S
Co420 O432 2.137 . S
Co420 O433 2.244 . S
O421 Co420 2.216 . S
O421 C428 1.247 . S
O422 Co420 2.091 . S
O422 C428 1.261 . S
C423 O432 1.247 . S
C423 O433 1.272 . S
O424 Co420 2.004 . S
O424 C429 1.259 . S
Co425 O426 2.061 . S
Co425 O431 2.052 . S
Co425 O433 2.135 . S
O426 Co425 2.061 . S
O426 C429 1.235 . S
C427 O430 1.238 . S
C427 O431 1.241 . S
C428 O421 1.247 . S
C428 O422 1.261 . S
C429 O424 1.259 . S
C429 O426 1.235 . S
O430 Co420 2.021 . S
O430 C427 1.238 . S
O431 Co425 2.052 . S
O431 C427 1.241 . S
O432 Co420 2.137 . S
O432 C423 1.247 . S
O433 Co420 2.244 . S
O433 C423 1.272 . S
O433 Co425 2.135 . S
Co434 O435 2.216 . S
Co434 O436 2.091 . S
Co434 O438 2.004 . S
Co434 O444 2.021 . S
Co434 O446 2.137 . S
Co434 O447 2.244 . S
O435 Co434 2.216 . S
O435 C442 1.247 . S
O436 Co434 2.091 . S
O436 C442 1.261 . S
C437 O446 1.247 . S
C437 O447 1.272 . S
O438 Co434 2.004 . S
O438 C443 1.259 . S
Co439 O440 2.061 . S
Co439 O445 2.052 . S
Co439 O447 2.135 . S
O440 Co439 2.061 . S
O440 C443 1.235 . S
C441 O444 1.238 . S
C441 O445 1.241 . S
C442 O435 1.247 . S
C442 O436 1.261 . S
C443 O438 1.259 . S
C443 O440 1.235 . S
O444 Co434 2.021 . S
O444 C441 1.238 . S
O445 Co439 2.052 . S
O445 C441 1.241 . S
O446 Co434 2.137 . S
O446 C437 1.247 . S
O447 Co434 2.244 . S
O447 C437 1.272 . S
O447 Co439 2.135 . S
C448 C449 1.369 . S
C448 C450 1.419 . S
C448 H452 0.930 . S
C449 C448 1.369 . S
C449 C458 1.429 . S
C450 C448 1.419 . S
C450 C451 1.363 . S
C450 H453 0.929 . S
C451 C450 1.363 . S
C451 C457 1.428 . S
H452 C448 0.930 . S
H453 C450 0.929 . S
S454 N455 1.613 . S
S454 N456 1.610 . S
N455 S454 1.613 . S
N455 C458 1.350 . S
N456 S454 1.610 . S
N456 C457 1.351 . S
C457 C451 1.428 . S
C457 N456 1.351 . S
C457 C458 1.434 . S
C458 C449 1.429 . S
C458 N455 1.350 . S
C458 C457 1.434 . S
C459 C460 1.369 . S
C459 C461 1.419 . S
C459 H463 0.930 . S
C460 C459 1.369 . S
C460 C469 1.429 . S
C461 C459 1.419 . S
C461 C462 1.363 . S
C461 H464 0.929 . S
C462 C461 1.363 . S
C462 C468 1.428 . S
H463 C459 0.930 . S
H464 C461 0.929 . S
S465 N466 1.613 . S
S465 N467 1.610 . S
N466 S465 1.613 . S
N466 C469 1.350 . S
N467 S465 1.610 . S
N467 C468 1.351 . S
C468 C462 1.428 . S
C468 N467 1.351 . S
C468 C469 1.434 . S
C469 C460 1.429 . S
C469 N466 1.350 . S
C469 C468 1.434 . S
C470 C471 1.369 . S
C470 C472 1.419 . S
C470 H474 0.930 . S
C471 C470 1.369 . S
C471 C480 1.429 . S
C472 C470 1.419 . S
C472 C473 1.363 . S
C472 H475 0.929 . S
C473 C472 1.363 . S
C473 C479 1.428 . S
H474 C470 0.930 . S
H475 C472 0.929 . S
S476 N477 1.613 . S
S476 N478 1.610 . S
N477 S476 1.613 . S
N477 C480 1.350 . S
N478 S476 1.610 . S
N478 C479 1.351 . S
C479 C473 1.428 . S
C479 N478 1.351 . S
C479 C480 1.434 . S
C480 C471 1.429 . S
C480 N477 1.350 . S
C480 C479 1.434 . S
C481 C482 1.369 . S
C481 C483 1.419 . S
C481 H485 0.930 . S
C482 C481 1.369 . S
C482 C491 1.429 . S
C483 C481 1.419 . S
C483 C484 1.363 . S
C483 H486 0.929 . S
C484 C483 1.363 . S
C484 C490 1.428 . S
H485 C481 0.930 . S
H486 C483 0.929 . S
S487 N488 1.613 . S
S487 N489 1.610 . S
N488 S487 1.613 . S
N488 C491 1.350 . S
N489 S487 1.610 . S
N489 C490 1.351 . S
C490 C484 1.428 . S
C490 N489 1.351 . S
C490 C491 1.434 . S
C491 C482 1.429 . S
C491 N488 1.350 . S
C491 C490 1.434 . S
C492 C493 1.369 . S
C492 C494 1.419 . S
C492 H496 0.930 . S
C493 C492 1.369 . S
C493 C502 1.429 . S
C494 C492 1.419 . S
C494 C495 1.363 . S
C494 H497 0.929 . S
C495 C494 1.363 . S
C495 C501 1.428 . S
H496 C492 0.930 . S
H497 C494 0.929 . S
S498 N499 1.613 . S
S498 N500 1.610 . S
N499 S498 1.613 . S
N499 C502 1.350 . S
N500 S498 1.610 . S
N500 C501 1.351 . S
C501 C495 1.428 . S
C501 N500 1.351 . S
C501 C502 1.434 . S
C502 C493 1.429 . S
C502 N499 1.350 . S
C502 C501 1.434 . S
C503 C504 1.369 . S
C503 C505 1.419 . S
C503 H507 0.930 . S
C504 C503 1.369 . S
C504 C513 1.429 . S
C505 C503 1.419 . S
C505 C506 1.363 . S
C505 H508 0.929 . S
C506 C505 1.363 . S
C506 C512 1.428 . S
H507 C503 0.930 . S
H508 C505 0.929 . S
S509 N510 1.613 . S
S509 N511 1.610 . S
N510 S509 1.613 . S
N510 C513 1.350 . S
N511 S509 1.610 . S
N511 C512 1.351 . S
C512 C506 1.428 . S
C512 N511 1.351 . S
C512 C513 1.434 . S
C513 C504 1.429 . S
C513 N510 1.350 . S
C513 C512 1.434 . S
C514 C515 1.369 . S
C514 C516 1.419 . S
C514 H518 0.930 . S
C515 C514 1.369 . S
C515 C524 1.429 . S
C516 C514 1.419 . S
C516 C517 1.363 . S
C516 H519 0.929 . S
C517 C516 1.363 . S
C517 C523 1.428 . S
H518 C514 0.930 . S
H519 C516 0.929 . S
S520 N521 1.613 . S
S520 N522 1.610 . S
N521 S520 1.613 . S
N521 C524 1.350 . S
N522 S520 1.610 . S
N522 C523 1.351 . S
C523 C517 1.428 . S
C523 N522 1.351 . S
C523 C524 1.434 . S
C524 C515 1.429 . S
C524 N521 1.350 . S
C524 C523 1.434 . S
C525 C526 1.369 . S
C525 C527 1.419 . S
C525 H529 0.930 . S
C526 C525 1.369 . S
C526 C535 1.429 . S
C527 C525 1.419 . S
C527 C528 1.363 . S
C527 H530 0.929 . S
C528 C527 1.363 . S
C528 C534 1.428 . S
H529 C525 0.930 . S
H530 C527 0.929 . S
S531 N532 1.613 . S
S531 N533 1.610 . S
N532 S531 1.613 . S
N532 C535 1.350 . S
N533 S531 1.610 . S
N533 C534 1.351 . S
C534 C528 1.428 . S
C534 N533 1.351 . S
C534 C535 1.434 . S
C535 C526 1.429 . S
C535 N532 1.350 . S
C535 C534 1.434 . S
C536 C537 1.369 . S
C536 C538 1.419 . S
C536 H540 0.930 . S
C537 C536 1.369 . S
C537 C546 1.429 . S
C538 C536 1.419 . S
C538 C539 1.363 . S
C538 H541 0.929 . S
C539 C538 1.363 . S
C539 C545 1.428 . S
H540 C536 0.930 . S
H541 C538 0.929 . S
S542 N543 1.613 . S
S542 N544 1.610 . S
N543 S542 1.613 . S
N543 C546 1.350 . S
N544 S542 1.610 . S
N544 C545 1.351 . S
C545 C539 1.428 . S
C545 N544 1.351 . S
C545 C546 1.434 . S
C546 C537 1.429 . S
C546 N543 1.350 . S
C546 C545 1.434 . S
C547 C548 1.369 . S
C547 C549 1.419 . S
C547 H551 0.930 . S
C548 C547 1.369 . S
C548 C557 1.429 . S
C549 C547 1.419 . S
C549 C550 1.363 . S
C549 H552 0.929 . S
C550 C549 1.363 . S
C550 C556 1.428 . S
H551 C547 0.930 . S
H552 C549 0.929 . S
S553 N554 1.613 . S
S553 N555 1.610 . S
N554 S553 1.613 . S
N554 C557 1.350 . S
N555 S553 1.610 . S
N555 C556 1.351 . S
C556 C550 1.428 . S
C556 N555 1.351 . S
C556 C557 1.434 . S
C557 C548 1.429 . S
C557 N554 1.350 . S
C557 C556 1.434 . S
C558 C559 1.369 . S
C558 C560 1.419 . S
C558 H562 0.930 . S
C559 C558 1.369 . S
C559 C568 1.429 . S
C560 C558 1.419 . S
C560 C561 1.363 . S
C560 H563 0.929 . S
C561 C560 1.363 . S
C561 C567 1.428 . S
H562 C558 0.930 . S
H563 C560 0.929 . S
S564 N565 1.613 . S
S564 N566 1.610 . S
N565 S564 1.613 . S
N565 C568 1.350 . S
N566 S564 1.610 . S
N566 C567 1.351 . S
C567 C561 1.428 . S
C567 N566 1.351 . S
C567 C568 1.434 . S
C568 C559 1.429 . S
C568 N565 1.350 . S
C568 C567 1.434 . S
C569 C570 1.369 . S
C569 C571 1.419 . S
C569 H573 0.930 . S
C570 C569 1.369 . S
C570 C579 1.429 . S
C571 C569 1.419 . S
C571 C572 1.363 . S
C571 H574 0.929 . S
C572 C571 1.363 . S
C572 C578 1.428 . S
H573 C569 0.930 . S
H574 C571 0.929 . S
S575 N576 1.613 . S
S575 N577 1.610 . S
N576 S575 1.613 . S
N576 C579 1.350 . S
N577 S575 1.610 . S
N577 C578 1.351 . S
C578 C572 1.428 . S
C578 N577 1.351 . S
C578 C579 1.434 . S
C579 C570 1.429 . S
C579 N576 1.350 . S
C579 C578 1.434 . S
C580 C581 1.369 . S
C580 C582 1.419 . S
C580 H584 0.930 . S
C581 C580 1.369 . S
C581 C590 1.429 . S
C582 C580 1.419 . S
C582 C583 1.363 . S
C582 H585 0.929 . S
C583 C582 1.363 . S
C583 C589 1.428 . S
H584 C580 0.930 . S
H585 C582 0.929 . S
S586 N587 1.613 . S
S586 N588 1.610 . S
N587 S586 1.613 . S
N587 C590 1.350 . S
N588 S586 1.610 . S
N588 C589 1.351 . S
C589 C583 1.428 . S
C589 N588 1.351 . S
C589 C590 1.434 . S
C590 C581 1.429 . S
C590 N587 1.350 . S
C590 C589 1.434 . S
C591 C592 1.369 . S
C591 C593 1.419 . S
C591 H595 0.930 . S
C592 C591 1.369 . S
C592 C601 1.429 . S
C593 C591 1.419 . S
C593 C594 1.363 . S
C593 H596 0.929 . S
C594 C593 1.363 . S
C594 C600 1.428 . S
H595 C591 0.930 . S
H596 C593 0.929 . S
S597 N598 1.613 . S
S597 N599 1.610 . S
N598 S597 1.613 . S
N598 C601 1.350 . S
N599 S597 1.610 . S
N599 C600 1.351 . S
C600 C594 1.428 . S
C600 N599 1.351 . S
C600 C601 1.434 . S
C601 C592 1.429 . S
C601 N598 1.350 . S
C601 C600 1.434 . S
C602 C603 1.369 . S
C602 C604 1.419 . S
C602 H606 0.930 . S
C603 C602 1.369 . S
C603 C612 1.429 . S
C604 C602 1.419 . S
C604 C605 1.363 . S
C604 H607 0.929 . S
C605 C604 1.363 . S
C605 C611 1.428 . S
H606 C602 0.930 . S
H607 C604 0.929 . S
S608 N609 1.613 . S
S608 N610 1.610 . S
N609 S608 1.613 . S
N609 C612 1.350 . S
N610 S608 1.610 . S
N610 C611 1.351 . S
C611 C605 1.428 . S
C611 N610 1.351 . S
C611 C612 1.434 . S
C612 C603 1.429 . S
C612 N609 1.350 . S
C612 C611 1.434 . S
C613 C614 1.369 . S
C613 C615 1.419 . S
C613 H617 0.930 . S
C614 C613 1.369 . S
C614 C623 1.429 . S
C615 C613 1.419 . S
C615 C616 1.363 . S
C615 H618 0.929 . S
C616 C615 1.363 . S
C616 C622 1.428 . S
H617 C613 0.930 . S
H618 C615 0.929 . S
S619 N620 1.613 . S
S619 N621 1.610 . S
N620 S619 1.613 . S
N620 C623 1.350 . S
N621 S619 1.610 . S
N621 C622 1.351 . S
C622 C616 1.428 . S
C622 N621 1.351 . S
C622 C623 1.434 . S
C623 C614 1.429 . S
C623 N620 1.350 . S
C623 C622 1.434 . S
C624 C625 1.369 . S
C624 C626 1.419 1_655 S
C624 H628 0.930 . S
C625 C624 1.369 . S
C625 C634 1.429 . S
C626 C624 1.419 1_455 S
C626 C627 1.363 . S
C626 H629 0.929 . S
C627 C626 1.363 . S
C627 C633 1.428 . S
H628 C624 0.930 . S
H629 C626 0.929 . S
S630 N631 1.616 1_455 S
S630 N632 1.608 . S
N631 S630 1.616 1_655 S
N631 C634 1.350 . S
N632 S630 1.608 . S
N632 C633 1.351 . S
C633 C627 1.428 . S
C633 N632 1.351 . S
C633 C634 1.434 1_455 S
C634 C625 1.429 . S
C634 N631 1.350 . S
C634 C633 1.434 1_655 S
C635 C636 1.369 . S
C635 C637 1.419 1_545 S
C635 H639 0.930 . S
C636 C635 1.369 . S
C636 C645 1.429 . S
C637 C635 1.419 1_565 S
C637 C638 1.363 . S
C637 H640 0.929 . S
C638 C637 1.363 . S
C638 C644 1.428 . S
H639 C635 0.930 . S
H640 C637 0.929 . S
S641 N642 1.616 1_565 S
S641 N643 1.608 . S
N642 S641 1.616 1_545 S
N642 C645 1.350 . S
N643 S641 1.608 . S
N643 C644 1.351 . S
C644 C638 1.428 . S
C644 N643 1.351 . S
C644 C645 1.434 1_565 S
C645 C636 1.429 . S
C645 N642 1.350 . S
C645 C644 1.434 1_545 S
C646 C647 1.369 . S
C646 C648 1.419 1_455 S
C646 H650 0.930 . S
C647 C646 1.369 . S
C647 C656 1.429 . S
C648 C646 1.419 1_655 S
C648 C649 1.363 . S
C648 H651 0.929 . S
C649 C648 1.363 . S
C649 C655 1.428 . S
H650 C646 0.930 . S
H651 C648 0.929 . S
S652 N653 1.616 1_655 S
S652 N654 1.607 . S
N653 S652 1.616 1_455 S
N653 C656 1.350 . S
N654 S652 1.607 . S
N654 C655 1.351 . S
C655 C649 1.428 . S
C655 N654 1.351 . S
C655 C656 1.434 1_655 S
C656 C647 1.429 . S
C656 N653 1.350 . S
C656 C655 1.434 1_455 S
C657 C658 1.369 . S
C657 C659 1.419 1_565 S
C657 H661 0.930 . S
C658 C657 1.369 . S
C658 C667 1.429 . S
C659 C657 1.419 1_545 S
C659 C660 1.363 . S
C659 H662 0.929 . S
C660 C659 1.363 . S
C660 C666 1.428 . S
H661 C657 0.930 . S
H662 C659 0.929 . S
S663 N664 1.616 1_545 S
S663 N665 1.608 . S
N664 S663 1.616 1_565 S
N664 C667 1.350 . S
N665 S663 1.608 . S
N665 C666 1.351 . S
C666 C660 1.428 . S
C666 N665 1.351 . S
C666 C667 1.434 1_545 S
C667 C658 1.429 . S
C667 N664 1.350 . S
C667 C666 1.434 1_565 S
C668 C669 1.369 . S
C668 C670 1.419 1_455 S
C668 H672 0.930 . S
C669 C668 1.369 . S
C669 C678 1.429 . S
C670 C668 1.419 1_655 S
C670 C671 1.363 . S
C670 H673 0.929 . S
C671 C670 1.363 . S
C671 C677 1.428 . S
H672 C668 0.930 . S
H673 C670 0.929 . S
S674 N675 1.616 1_655 S
S674 N676 1.608 . S
N675 S674 1.616 1_455 S
N675 C678 1.350 . S
N676 S674 1.608 . S
N676 C677 1.351 . S
C677 C671 1.428 . S
C677 N676 1.351 . S
C677 C678 1.434 1_655 S
C678 C669 1.429 . S
C678 N675 1.350 . S
C678 C677 1.434 1_455 S
C679 C680 1.369 . S
C679 C681 1.419 1_565 S
C679 H683 0.930 . S
C680 C679 1.369 . S
C680 C689 1.429 . S
C681 C679 1.419 1_545 S
C681 C682 1.363 . S
C681 H684 0.929 . S
C682 C681 1.363 . S
C682 C688 1.428 . S
H683 C679 0.930 . S
H684 C681 0.929 . S
S685 N686 1.616 1_545 S
S685 N687 1.608 . S
N686 S685 1.616 1_565 S
N686 C689 1.350 . S
N687 S685 1.608 . S
N687 C688 1.351 . S
C688 C682 1.428 . S
C688 N687 1.351 . S
C688 C689 1.434 1_545 S
C689 C680 1.429 . S
C689 N686 1.350 . S
C689 C688 1.434 1_565 S
C690 C691 1.369 . S
C690 C692 1.419 1_455 S
C690 H694 0.930 . S
C691 C690 1.369 . S
C691 C700 1.429 . S
C692 C690 1.419 1_655 S
C692 C693 1.363 . S
C692 H695 0.929 . S
C693 C692 1.363 . S
C693 C699 1.428 . S
H694 C690 0.930 . S
H695 C692 0.929 . S
S696 N697 1.616 1_655 S
S696 N698 1.608 . S
N697 S696 1.616 1_455 S
N697 C700 1.350 . S
N698 S696 1.608 . S
N698 C699 1.351 . S
C699 C693 1.428 . S
C699 N698 1.351 . S
C699 C700 1.434 1_655 S
C700 C691 1.429 . S
C700 N697 1.350 . S
C700 C699 1.434 1_455 S
C701 C702 1.369 . S
C701 C703 1.419 1_545 S
C701 H705 0.930 . S
C702 C701 1.369 . S
C702 C711 1.429 . S
C703 C701 1.419 1_565 S
C703 C704 1.363 . S
C703 H706 0.929 . S
C704 C703 1.363 . S
C704 C710 1.428 . S
H705 C701 0.930 . S
H706 C703 0.929 . S
S707 N708 1.616 1_565 S
S707 N709 1.608 . S
N708 S707 1.616 1_545 S
N708 C711 1.350 . S
N709 S707 1.608 . S
N709 C710 1.351 . S
C710 C704 1.428 . S
C710 N709 1.351 . S
C710 C711 1.434 1_565 S
C711 C702 1.429 . S
C711 N708 1.350 . S
C711 C710 1.434 1_545 S
C712 C713 1.369 . S
C712 C714 1.419 . S
C712 H716 0.930 . S
C713 C712 1.369 . S
C713 C722 1.429 . S
C714 C712 1.419 . S
C714 C715 1.363 . S
C714 H717 0.929 . S
C715 C714 1.363 . S
C715 C721 1.428 . S
H716 C712 0.930 . S
H717 C714 0.929 . S
S718 N719 1.613 . S
S718 N720 1.610 . S
N719 S718 1.613 . S
N719 C722 1.350 . S
N720 S718 1.610 . S
N720 C721 1.351 . S
C721 C715 1.428 . S
C721 N720 1.351 . S
C721 C722 1.434 . S
C722 C713 1.429 . S
C722 N719 1.350 . S
C722 C721 1.434 . S
C723 C724 1.369 . S
C723 C725 1.419 . S
C723 H727 0.930 . S
C724 C723 1.369 . S
C724 C733 1.429 . S
C725 C723 1.419 . S
C725 C726 1.363 . S
C725 H728 0.929 . S
C726 C725 1.363 . S
C726 C732 1.428 . S
H727 C723 0.930 . S
H728 C725 0.929 . S
S729 N730 1.613 . S
S729 N731 1.610 . S
N730 S729 1.613 . S
N730 C733 1.350 . S
N731 S729 1.610 . S
N731 C732 1.351 . S
C732 C726 1.428 . S
C732 N731 1.351 . S
C732 C733 1.434 . S
C733 C724 1.429 . S
C733 N730 1.350 . S
C733 C732 1.434 . S
C734 C735 1.369 . S
C734 C736 1.419 . S
C734 H738 0.930 . S
C735 C734 1.369 . S
C735 C744 1.429 . S
C736 C734 1.419 . S
C736 C737 1.363 . S
C736 H739 0.929 . S
C737 C736 1.363 . S
C737 C743 1.428 . S
H738 C734 0.930 . S
H739 C736 0.929 . S
S740 N741 1.613 . S
S740 N742 1.610 . S
N741 S740 1.613 . S
N741 C744 1.350 . S
N742 S740 1.610 . S
N742 C743 1.351 . S
C743 C737 1.428 . S
C743 N742 1.351 . S
C743 C744 1.434 . S
C744 C735 1.429 . S
C744 N741 1.350 . S
C744 C743 1.434 . S
C745 C746 1.369 . S
C745 C747 1.419 . S
C745 H749 0.930 . S
C746 C745 1.369 . S
C746 C755 1.429 . S
C747 C745 1.419 . S
C747 C748 1.363 . S
C747 H750 0.929 . S
C748 C747 1.363 . S
C748 C754 1.428 . S
H749 C745 0.930 . S
H750 C747 0.929 . S
S751 N752 1.613 . S
S751 N753 1.610 . S
N752 S751 1.613 . S
N752 C755 1.350 . S
N753 S751 1.610 . S
N753 C754 1.351 . S
C754 C748 1.428 . S
C754 N753 1.351 . S
C754 C755 1.434 . S
C755 C746 1.429 . S
C755 N752 1.350 . S
C755 C754 1.434 . S
C756 C757 1.369 . S
C756 C758 1.419 . S
C756 H760 0.930 . S
C757 C756 1.369 . S
C757 C766 1.429 . S
C758 C756 1.419 . S
C758 C759 1.363 . S
C758 H761 0.929 . S
C759 C758 1.363 . S
C759 C765 1.428 . S
H760 C756 0.930 . S
H761 C758 0.929 . S
S762 N763 1.613 . S
S762 N764 1.610 . S
N763 S762 1.613 . S
N763 C766 1.350 . S
N764 S762 1.610 . S
N764 C765 1.351 . S
C765 C759 1.428 . S
C765 N764 1.351 . S
C765 C766 1.434 . S
C766 C757 1.429 . S
C766 N763 1.350 . S
C766 C765 1.434 . S
C767 C768 1.369 . S
C767 C769 1.419 . S
C767 H771 0.930 . S
C768 C767 1.369 . S
C768 C777 1.429 . S
C769 C767 1.419 . S
C769 C770 1.363 . S
C769 H772 0.929 . S
C770 C769 1.363 . S
C770 C776 1.428 . S
H771 C767 0.930 . S
H772 C769 0.929 . S
S773 N774 1.613 . S
S773 N775 1.610 . S
N774 S773 1.613 . S
N774 C777 1.350 . S
N775 S773 1.610 . S
N775 C776 1.351 . S
C776 C770 1.428 . S
C776 N775 1.351 . S
C776 C777 1.434 . S
C777 C768 1.429 . S
C777 N774 1.350 . S
C777 C776 1.434 . S
C778 C779 1.369 . S
C778 C780 1.419 . S
C778 H782 0.930 . S
C779 C778 1.369 . S
C779 C788 1.429 . S
C780 C778 1.419 . S
C780 C781 1.363 . S
C780 H783 0.929 . S
C781 C780 1.363 . S
C781 C787 1.428 . S
H782 C778 0.930 . S
H783 C780 0.929 . S
S784 N785 1.613 . S
S784 N786 1.610 . S
N785 S784 1.613 . S
N785 C788 1.350 . S
N786 S784 1.610 . S
N786 C787 1.351 . S
C787 C781 1.428 . S
C787 N786 1.351 . S
C787 C788 1.434 . S
C788 C779 1.429 . S
C788 N785 1.350 . S
C788 C787 1.434 . S
C789 C790 1.369 . S
C789 C791 1.419 . S
C789 H793 0.930 . S
C790 C789 1.369 . S
C790 C799 1.429 . S
C791 C789 1.419 . S
C791 C792 1.363 . S
C791 H794 0.929 . S
C792 C791 1.363 . S
C792 C798 1.428 . S
H793 C789 0.930 . S
H794 C791 0.929 . S
S795 N796 1.613 . S
S795 N797 1.610 . S
N796 S795 1.613 . S
N796 C799 1.350 . S
N797 S795 1.610 . S
N797 C798 1.351 . S
C798 C792 1.428 . S
C798 N797 1.351 . S
C798 C799 1.434 . S
C799 C790 1.429 . S
C799 N796 1.350 . S
C799 C798 1.434 . S
C800 C801 1.369 . S
C800 C802 1.419 . S
C800 H804 0.930 . S
C801 C800 1.369 . S
C801 C810 1.429 . S
C802 C800 1.419 . S
C802 C803 1.363 . S
C802 H805 0.929 . S
C803 C802 1.363 . S
C803 C809 1.428 . S
H804 C800 0.930 . S
H805 C802 0.929 . S
S806 N807 1.613 . S
S806 N808 1.610 . S
N807 S806 1.613 . S
N807 C810 1.350 . S
N808 S806 1.610 . S
N808 C809 1.351 . S
C809 C803 1.428 . S
C809 N808 1.351 . S
C809 C810 1.434 . S
C810 C801 1.429 . S
C810 N807 1.350 . S
C810 C809 1.434 . S
C811 C812 1.369 . S
C811 C813 1.419 . S
C811 H815 0.930 . S
C812 C811 1.369 . S
C812 C821 1.429 . S
C813 C811 1.419 . S
C813 C814 1.363 . S
C813 H816 0.929 . S
C814 C813 1.363 . S
C814 C820 1.428 . S
H815 C811 0.930 . S
H816 C813 0.929 . S
S817 N818 1.613 . S
S817 N819 1.610 . S
N818 S817 1.613 . S
N818 C821 1.350 . S
N819 S817 1.610 . S
N819 C820 1.351 . S
C820 C814 1.428 . S
C820 N819 1.351 . S
C820 C821 1.434 . S
C821 C812 1.429 . S
C821 N818 1.350 . S
C821 C820 1.434 . S
C822 C823 1.369 . S
C822 C824 1.419 . S
C822 H826 0.930 . S
C823 C822 1.369 . S
C823 C832 1.429 . S
C824 C822 1.419 . S
C824 C825 1.363 . S
C824 H827 0.929 . S
C825 C824 1.363 . S
C825 C831 1.428 . S
H826 C822 0.930 . S
H827 C824 0.929 . S
S828 N829 1.613 . S
S828 N830 1.610 . S
N829 S828 1.613 . S
N829 C832 1.350 . S
N830 S828 1.610 . S
N830 C831 1.351 . S
C831 C825 1.428 . S
C831 N830 1.351 . S
C831 C832 1.434 . S
C832 C823 1.429 . S
C832 N829 1.350 . S
C832 C831 1.434 . S
C833 C834 1.369 . S
C833 C835 1.419 . S
C833 H837 0.930 . S
C834 C833 1.369 . S
C834 C843 1.429 . S
C835 C833 1.419 . S
C835 C836 1.363 . S
C835 H838 0.929 . S
C836 C835 1.363 . S
C836 C842 1.428 . S
H837 C833 0.930 . S
H838 C835 0.929 . S
S839 N840 1.613 . S
S839 N841 1.610 . S
N840 S839 1.613 . S
N840 C843 1.350 . S
N841 S839 1.610 . S
N841 C842 1.351 . S
C842 C836 1.428 . S
C842 N841 1.351 . S
C842 C843 1.434 . S
C843 C834 1.429 . S
C843 N840 1.350 . S
C843 C842 1.434 . S
C844 C845 1.369 . S
C844 C846 1.419 . S
C844 H848 0.930 . S
C845 C844 1.369 . S
C845 C854 1.429 . S
C846 C844 1.419 . S
C846 C847 1.363 . S
C846 H849 0.929 . S
C847 C846 1.363 . S
C847 C853 1.428 . S
H848 C844 0.930 . S
H849 C846 0.929 . S
S850 N851 1.613 . S
S850 N852 1.610 . S
N851 S850 1.613 . S
N851 C854 1.350 . S
N852 S850 1.610 . S
N852 C853 1.351 . S
C853 C847 1.428 . S
C853 N852 1.351 . S
C853 C854 1.434 . S
C854 C845 1.429 . S
C854 N851 1.350 . S
C854 C853 1.434 . S
C855 C856 1.369 . S
C855 C857 1.419 . S
C855 H859 0.930 . S
C856 C855 1.369 . S
C856 C865 1.429 . S
C857 C855 1.419 . S
C857 C858 1.363 . S
C857 H860 0.929 . S
C858 C857 1.363 . S
C858 C864 1.428 . S
H859 C855 0.930 . S
H860 C857 0.929 . S
S861 N862 1.613 . S
S861 N863 1.610 . S
N862 S861 1.613 . S
N862 C865 1.350 . S
N863 S861 1.610 . S
N863 C864 1.351 . S
C864 C858 1.428 . S
C864 N863 1.351 . S
C864 C865 1.434 . S
C865 C856 1.429 . S
C865 N862 1.350 . S
C865 C864 1.434 . S
C866 C867 1.369 . S
C866 C868 1.419 . S
C866 H870 0.930 . S
C867 C866 1.369 . S
C867 C876 1.429 . S
C868 C866 1.419 . S
C868 C869 1.363 . S
C868 H871 0.929 . S
C869 C868 1.363 . S
C869 C875 1.428 . S
H870 C866 0.930 . S
H871 C868 0.929 . S
S872 N873 1.613 . S
S872 N874 1.610 . S
N873 S872 1.613 . S
N873 C876 1.350 . S
N874 S872 1.610 . S
N874 C875 1.351 . S
C875 C869 1.428 . S
C875 N874 1.351 . S
C875 C876 1.434 . S
C876 C867 1.429 . S
C876 N873 1.350 . S
C876 C875 1.434 . S
C877 C878 1.369 . S
C877 C879 1.419 . S
C877 H881 0.930 . S
C878 C877 1.369 . S
C878 C887 1.429 . S
C879 C877 1.419 . S
C879 C880 1.363 . S
C879 H882 0.929 . S
C880 C879 1.363 . S
C880 C886 1.428 . S
H881 C877 0.930 . S
H882 C879 0.929 . S
S883 N884 1.613 . S
S883 N885 1.610 . S
N884 S883 1.613 . S
N884 C887 1.350 . S
N885 S883 1.610 . S
N885 C886 1.351 . S
C886 C880 1.428 . S
C886 N885 1.351 . S
C886 C887 1.434 . S
C887 C878 1.429 . S
C887 N884 1.350 . S
C887 C886 1.434 . S
C888 C889 1.369 . S
C888 C890 1.419 1_554 S
C888 H892 0.930 . S
C889 C888 1.369 . S
C889 C898 1.429 . S
C890 C888 1.419 1_556 S
C890 C891 1.363 . S
C890 H893 0.929 . S
C891 C890 1.363 . S
C891 C897 1.428 . S
H892 C888 0.930 . S
H893 C890 0.929 . S
S894 N895 1.615 1_556 S
S894 N896 1.608 . S
N895 S894 1.615 1_554 S
N895 C898 1.350 . S
N896 S894 1.608 . S
N896 C897 1.351 . S
C897 C891 1.428 . S
C897 N896 1.351 . S
C897 C898 1.434 1_556 S
C898 C889 1.429 . S
C898 N895 1.350 . S
C898 C897 1.434 1_554 S
C899 C900 1.369 . S
C899 C901 1.419 1_556 S
C899 H903 0.930 . S
C900 C899 1.369 . S
C900 C909 1.429 . S
C901 C899 1.419 1_554 S
C901 C902 1.363 . S
C901 H904 0.929 . S
C902 C901 1.363 . S
C902 C908 1.428 . S
H903 C899 0.930 . S
H904 C901 0.929 . S
S905 N906 1.615 1_554 S
S905 N907 1.608 . S
N906 S905 1.615 1_556 S
N906 C909 1.350 . S
N907 S905 1.608 . S
N907 C908 1.351 . S
C908 C902 1.428 . S
C908 N907 1.351 . S
C908 C909 1.434 1_554 S
C909 C900 1.429 . S
C909 N906 1.350 . S
C909 C908 1.434 1_556 S
C910 C911 1.369 . S
C910 C912 1.419 1_554 S
C910 H914 0.930 . S
C911 C910 1.369 . S
C911 C920 1.429 . S
C912 C910 1.419 1_556 S
C912 C913 1.363 . S
C912 H915 0.929 . S
C913 C912 1.363 . S
C913 C919 1.428 . S
H914 C910 0.930 . S
H915 C912 0.929 . S
S916 N917 1.615 1_556 S
S916 N918 1.608 . S
N917 S916 1.615 1_554 S
N917 C920 1.350 . S
N918 S916 1.608 . S
N918 C919 1.351 . S
C919 C913 1.428 . S
C919 N918 1.351 . S
C919 C920 1.434 1_556 S
C920 C911 1.429 . S
C920 N917 1.350 . S
C920 C919 1.434 1_554 S
C921 C922 1.369 . S
C921 C923 1.419 1_554 S
C921 H925 0.930 . S
C922 C921 1.369 . S
C922 C931 1.429 . S
C923 C921 1.419 1_556 S
C923 C924 1.363 . S
C923 H926 0.929 . S
C924 C923 1.363 . S
C924 C930 1.428 . S
H925 C921 0.930 . S
H926 C923 0.929 . S
S927 N928 1.615 1_556 S
S927 N929 1.608 . S
N928 S927 1.615 1_554 S
N928 C931 1.350 . S
N929 S927 1.608 . S
N929 C930 1.351 . S
C930 C924 1.428 . S
C930 N929 1.351 . S
C930 C931 1.434 1_556 S
C931 C922 1.429 . S
C931 N928 1.350 . S
C931 C930 1.434 1_554 S
C932 C933 1.369 . S
C932 C934 1.419 1_554 S
C932 H936 0.930 . S
C933 C932 1.369 . S
C933 C942 1.429 . S
C934 C932 1.419 1_556 S
C934 C935 1.363 . S
C934 H937 0.929 . S
C935 C934 1.363 . S
C935 C941 1.428 . S
H936 C932 0.930 . S
H937 C934 0.929 . S
S938 N939 1.615 1_556 S
S938 N940 1.608 . S
N939 S938 1.615 1_554 S
N939 C942 1.350 . S
N940 S938 1.608 . S
N940 C941 1.351 . S
C941 C935 1.428 . S
C941 N940 1.351 . S
C941 C942 1.434 1_556 S
C942 C933 1.429 . S
C942 N939 1.350 . S
C942 C941 1.434 1_554 S
C943 C944 1.369 . S
C943 C945 1.419 1_554 S
C943 H947 0.930 . S
C944 C943 1.369 . S
C944 C953 1.429 . S
C945 C943 1.419 1_556 S
C945 C946 1.363 . S
C945 H948 0.929 . S
C946 C945 1.363 . S
C946 C952 1.428 . S
H947 C943 0.930 . S
H948 C945 0.929 . S
S949 N950 1.615 1_556 S
S949 N951 1.608 . S
N950 S949 1.615 1_554 S
N950 C953 1.350 . S
N951 S949 1.608 . S
N951 C952 1.351 . S
C952 C946 1.428 . S
C952 N951 1.351 . S
C952 C953 1.434 1_556 S
C953 C944 1.429 . S
C953 N950 1.350 . S
C953 C952 1.434 1_554 S
C954 C955 1.369 . S
C954 C956 1.419 1_556 S
C954 H958 0.930 . S
C955 C954 1.369 . S
C955 C964 1.429 . S
C956 C954 1.419 1_554 S
C956 C957 1.363 . S
C956 H959 0.929 . S
C957 C956 1.363 . S
C957 C963 1.428 . S
H958 C954 0.930 . S
H959 C956 0.929 . S
S960 N961 1.615 1_554 S
S960 N962 1.608 . S
N961 S960 1.615 1_556 S
N961 C964 1.350 . S
N962 S960 1.608 . S
N962 C963 1.351 . S
C963 C957 1.428 . S
C963 N962 1.351 . S
C963 C964 1.434 1_554 S
C964 C955 1.429 . S
C964 N961 1.350 . S
C964 C963 1.434 1_556 S
C965 C966 1.369 . S
C965 C967 1.419 1_556 S
C965 H969 0.930 . S
C966 C965 1.369 . S
C966 C975 1.429 . S
C967 C965 1.419 1_554 S
C967 C968 1.363 . S
C967 H970 0.929 . S
C968 C967 1.363 . S
C968 C974 1.428 . S
H969 C965 0.930 . S
H970 C967 0.929 . S
S971 N972 1.615 1_554 S
S971 N973 1.608 . S
N972 S971 1.615 1_556 S
N972 C975 1.350 . S
N973 S971 1.608 . S
N973 C974 1.351 . S
C974 C968 1.428 . S
C974 N973 1.351 . S
C974 C975 1.434 1_554 S
C975 C966 1.429 . S
C975 N972 1.350 . S
C975 C974 1.434 1_556 S
C976 C977 1.369 . S
C976 C978 1.419 . S
C976 H980 0.930 . S
C977 C976 1.369 . S
C977 C986 1.429 . S
C978 C976 1.419 . S
C978 C979 1.363 . S
C978 H981 0.929 . S
C979 C978 1.363 . S
C979 C985 1.428 . S
H980 C976 0.930 . S
H981 C978 0.929 . S
S982 N983 1.613 . S
S982 N984 1.610 . S
N983 S982 1.613 . S
N983 C986 1.350 . S
N984 S982 1.610 . S
N984 C985 1.351 . S
C985 C979 1.428 . S
C985 N984 1.351 . S
C985 C986 1.434 . S
C986 C977 1.429 . S
C986 N983 1.350 . S
C986 C985 1.434 . S
C987 C988 1.369 . S
C987 C989 1.419 . S
C987 H991 0.930 . S
C988 C987 1.369 . S
C988 C997 1.429 . S
C989 C987 1.419 . S
C989 C990 1.363 . S
C989 H992 0.929 . S
C990 C989 1.363 . S
C990 C996 1.428 . S
H991 C987 0.930 . S
H992 C989 0.929 . S
S993 N994 1.613 . S
S993 N995 1.610 . S
N994 S993 1.613 . S
N994 C997 1.350 . S
N995 S993 1.610 . S
N995 C996 1.351 . S
C996 C990 1.428 . S
C996 N995 1.351 . S
C996 C997 1.434 . S
C997 C988 1.429 . S
C997 N994 1.350 . S
C997 C996 1.434 . S
C998 C999 1.369 . S
C998 C1000 1.419 . S
C998 H1002 0.930 . S
C999 C998 1.369 . S
C999 C1008 1.429 . S
C1000 C998 1.419 . S
C1000 C1001 1.363 . S
C1000 H1003 0.929 . S
C1001 C1000 1.363 . S
C1001 C1007 1.428 . S
H1002 C998 0.930 . S
H1003 C1000 0.929 . S
S1004 N1005 1.613 . S
S1004 N1006 1.610 . S
N1005 S1004 1.613 . S
N1005 C1008 1.350 . S
N1006 S1004 1.610 . S
N1006 C1007 1.351 . S
C1007 C1001 1.428 . S
C1007 N1006 1.351 . S
C1007 C1008 1.434 . S
C1008 C999 1.429 . S
C1008 N1005 1.350 . S
C1008 C1007 1.434 . S
C1009 C1010 1.369 . S
C1009 C1011 1.419 . S
C1009 H1013 0.930 . S
C1010 C1009 1.369 . S
C1010 C1019 1.429 . S
C1011 C1009 1.419 . S
C1011 C1012 1.363 . S
C1011 H1014 0.929 . S
C1012 C1011 1.363 . S
C1012 C1018 1.428 . S
H1013 C1009 0.930 . S
H1014 C1011 0.929 . S
S1015 N1016 1.613 . S
S1015 N1017 1.610 . S
N1016 S1015 1.613 . S
N1016 C1019 1.350 . S
N1017 S1015 1.610 . S
N1017 C1018 1.351 . S
C1018 C1012 1.428 . S
C1018 N1017 1.351 . S
C1018 C1019 1.434 . S
C1019 C1010 1.429 . S
C1019 N1016 1.350 . S
C1019 C1018 1.434 . S
C1020 C1021 1.369 . S
C1020 C1022 1.419 . S
C1020 H1024 0.930 . S
C1021 C1020 1.369 . S
C1021 C1030 1.429 . S
C1022 C1020 1.419 . S
C1022 C1023 1.363 . S
C1022 H1025 0.929 . S
C1023 C1022 1.363 . S
C1023 C1029 1.428 . S
H1024 C1020 0.930 . S
H1025 C1022 0.929 . S
S1026 N1027 1.613 . S
S1026 N1028 1.610 . S
N1027 S1026 1.613 . S
N1027 C1030 1.350 . S
N1028 S1026 1.610 . S
N1028 C1029 1.351 . S
C1029 C1023 1.428 . S
C1029 N1028 1.351 . S
C1029 C1030 1.434 . S
C1030 C1021 1.429 . S
C1030 N1027 1.350 . S
C1030 C1029 1.434 . S
C1031 C1032 1.369 . S
C1031 C1033 1.419 . S
C1031 H1035 0.930 . S
C1032 C1031 1.369 . S
C1032 C1041 1.429 . S
C1033 C1031 1.419 . S
C1033 C1034 1.363 . S
C1033 H1036 0.929 . S
C1034 C1033 1.363 . S
C1034 C1040 1.428 . S
H1035 C1031 0.930 . S
H1036 C1033 0.929 . S
S1037 N1038 1.613 . S
S1037 N1039 1.610 . S
N1038 S1037 1.613 . S
N1038 C1041 1.350 . S
N1039 S1037 1.610 . S
N1039 C1040 1.351 . S
C1040 C1034 1.428 . S
C1040 N1039 1.351 . S
C1040 C1041 1.434 . S
C1041 C1032 1.429 . S
C1041 N1038 1.350 . S
C1041 C1040 1.434 . S
C1042 C1043 1.369 . S
C1042 C1044 1.419 . S
C1042 H1046 0.930 . S
C1043 C1042 1.369 . S
C1043 C1052 1.429 . S
C1044 C1042 1.419 . S
C1044 C1045 1.363 . S
C1044 H1047 0.929 . S
C1045 C1044 1.363 . S
C1045 C1051 1.428 . S
H1046 C1042 0.930 . S
H1047 C1044 0.929 . S
S1048 N1049 1.613 . S
S1048 N1050 1.610 . S
N1049 S1048 1.613 . S
N1049 C1052 1.350 . S
N1050 S1048 1.610 . S
N1050 C1051 1.351 . S
C1051 C1045 1.428 . S
C1051 N1050 1.351 . S
C1051 C1052 1.434 . S
C1052 C1043 1.429 . S
C1052 N1049 1.350 . S
C1052 C1051 1.434 . S
C1053 C1054 1.369 . S
C1053 C1055 1.419 . S
C1053 H1057 0.930 . S
C1054 C1053 1.369 . S
C1054 C1063 1.429 . S
C1055 C1053 1.419 . S
C1055 C1056 1.363 . S
C1055 H1058 0.929 . S
C1056 C1055 1.363 . S
C1056 C1062 1.428 . S
H1057 C1053 0.930 . S
H1058 C1055 0.929 . S
S1059 N1060 1.613 . S
S1059 N1061 1.610 . S
N1060 S1059 1.613 . S
N1060 C1063 1.350 . S
N1061 S1059 1.610 . S
N1061 C1062 1.351 . S
C1062 C1056 1.428 . S
C1062 N1061 1.351 . S
C1062 C1063 1.434 . S
C1063 C1054 1.429 . S
C1063 N1060 1.350 . S
C1063 C1062 1.434 . S
C1064 C1065 1.369 . S
C1064 C1066 1.419 . S
C1064 H1068 0.930 . S
C1065 C1064 1.369 . S
C1065 C1074 1.429 . S
C1066 C1064 1.419 . S
C1066 C1067 1.363 . S
C1066 H1069 0.929 . S
C1067 C1066 1.363 . S
C1067 C1073 1.428 . S
H1068 C1064 0.930 . S
H1069 C1066 0.929 . S
S1070 N1071 1.613 . S
S1070 N1072 1.610 . S
N1071 S1070 1.613 . S
N1071 C1074 1.350 . S
N1072 S1070 1.610 . S
N1072 C1073 1.351 . S
C1073 C1067 1.428 . S
C1073 N1072 1.351 . S
C1073 C1074 1.434 . S
C1074 C1065 1.429 . S
C1074 N1071 1.350 . S
C1074 C1073 1.434 . S
C1075 C1076 1.369 . S
C1075 C1077 1.419 . S
C1075 H1079 0.930 . S
C1076 C1075 1.369 . S
C1076 C1085 1.429 . S
C1077 C1075 1.419 . S
C1077 C1078 1.363 . S
C1077 H1080 0.929 . S
C1078 C1077 1.363 . S
C1078 C1084 1.428 . S
H1079 C1075 0.930 . S
H1080 C1077 0.929 . S
S1081 N1082 1.613 . S
S1081 N1083 1.610 . S
N1082 S1081 1.613 . S
N1082 C1085 1.350 . S
N1083 S1081 1.610 . S
N1083 C1084 1.351 . S
C1084 C1078 1.428 . S
C1084 N1083 1.351 . S
C1084 C1085 1.434 . S
C1085 C1076 1.429 . S
C1085 N1082 1.350 . S
C1085 C1084 1.434 . S
C1086 C1087 1.369 . S
C1086 C1088 1.419 . S
C1086 H1090 0.930 . S
C1087 C1086 1.369 . S
C1087 C1096 1.429 . S
C1088 C1086 1.419 . S
C1088 C1089 1.363 . S
C1088 H1091 0.929 . S
C1089 C1088 1.363 . S
C1089 C1095 1.428 . S
H1090 C1086 0.930 . S
H1091 C1088 0.929 . S
S1092 N1093 1.613 . S
S1092 N1094 1.610 . S
N1093 S1092 1.613 . S
N1093 C1096 1.350 . S
N1094 S1092 1.610 . S
N1094 C1095 1.351 . S
C1095 C1089 1.428 . S
C1095 N1094 1.351 . S
C1095 C1096 1.434 . S
C1096 C1087 1.429 . S
C1096 N1093 1.350 . S
C1096 C1095 1.434 . S
C1097 C1098 1.369 . S
C1097 C1099 1.419 . S
C1097 H1101 0.930 . S
C1098 C1097 1.369 . S
C1098 C1107 1.429 . S
C1099 C1097 1.419 . S
C1099 C1100 1.363 . S
C1099 H1102 0.929 . S
C1100 C1099 1.363 . S
C1100 C1106 1.428 . S
H1101 C1097 0.930 . S
H1102 C1099 0.929 . S
S1103 N1104 1.613 . S
S1103 N1105 1.610 . S
N1104 S1103 1.613 . S
N1104 C1107 1.350 . S
N1105 S1103 1.610 . S
N1105 C1106 1.351 . S
C1106 C1100 1.428 . S
C1106 N1105 1.351 . S
C1106 C1107 1.434 . S
C1107 C1098 1.429 . S
C1107 N1104 1.350 . S
C1107 C1106 1.434 . S
C1108 C1109 1.369 . S
C1108 C1110 1.419 . S
C1108 H1112 0.930 . S
C1109 C1108 1.369 . S
C1109 C1118 1.429 . S
C1110 C1108 1.419 . S
C1110 C1111 1.363 . S
C1110 H1113 0.929 . S
C1111 C1110 1.363 . S
C1111 C1117 1.428 . S
H1112 C1108 0.930 . S
H1113 C1110 0.929 . S
S1114 N1115 1.613 . S
S1114 N1116 1.610 . S
N1115 S1114 1.613 . S
N1115 C1118 1.350 . S
N1116 S1114 1.610 . S
N1116 C1117 1.351 . S
C1117 C1111 1.428 . S
C1117 N1116 1.351 . S
C1117 C1118 1.434 . S
C1118 C1109 1.429 . S
C1118 N1115 1.350 . S
C1118 C1117 1.434 . S
C1119 C1120 1.369 . S
C1119 C1121 1.419 . S
C1119 H1123 0.930 . S
C1120 C1119 1.369 . S
C1120 C1129 1.429 . S
C1121 C1119 1.419 . S
C1121 C1122 1.363 . S
C1121 H1124 0.929 . S
C1122 C1121 1.363 . S
C1122 C1128 1.428 . S
H1123 C1119 0.930 . S
H1124 C1121 0.929 . S
S1125 N1126 1.613 . S
S1125 N1127 1.610 . S
N1126 S1125 1.613 . S
N1126 C1129 1.350 . S
N1127 S1125 1.610 . S
N1127 C1128 1.351 . S
C1128 C1122 1.428 . S
C1128 N1127 1.351 . S
C1128 C1129 1.434 . S
C1129 C1120 1.429 . S
C1129 N1126 1.350 . S
C1129 C1128 1.434 . S
C1130 C1131 1.369 . S
C1130 C1132 1.419 . S
C1130 H1134 0.930 . S
C1131 C1130 1.369 . S
C1131 C1140 1.429 . S
C1132 C1130 1.419 . S
C1132 C1133 1.363 . S
C1132 H1135 0.929 . S
C1133 C1132 1.363 . S
C1133 C1139 1.428 . S
H1134 C1130 0.930 . S
H1135 C1132 0.929 . S
S1136 N1137 1.613 . S
S1136 N1138 1.610 . S
N1137 S1136 1.613 . S
N1137 C1140 1.350 . S
N1138 S1136 1.610 . S
N1138 C1139 1.351 . S
C1139 C1133 1.428 . S
C1139 N1138 1.351 . S
C1139 C1140 1.434 . S
C1140 C1131 1.429 . S
C1140 N1137 1.350 . S
C1140 C1139 1.434 . S
C1141 C1142 1.369 . S
C1141 C1143 1.419 . S
C1141 H1145 0.930 . S
C1142 C1141 1.369 . S
C1142 C1151 1.429 . S
C1143 C1141 1.419 . S
C1143 C1144 1.363 . S
C1143 H1146 0.929 . S
C1144 C1143 1.363 . S
C1144 C1150 1.428 . S
H1145 C1141 0.930 . S
H1146 C1143 0.929 . S
S1147 N1148 1.613 . S
S1147 N1149 1.610 . S
N1148 S1147 1.613 . S
N1148 C1151 1.350 . S
N1149 S1147 1.610 . S
N1149 C1150 1.351 . S
C1150 C1144 1.428 . S
C1150 N1149 1.351 . S
C1150 C1151 1.434 . S
C1151 C1142 1.429 . S
C1151 N1148 1.350 . S
C1151 C1150 1.434 . S
C449 C219 1.472 . S
C451 C9 1.473 . S
C460 C23 1.477 . S
C462 C177 1.477 . S
C471 C37 1.477 . S
C473 C191 1.477 . S
C482 C205 1.473 . S
C484 C51 1.473 . S
C493 C65 1.477 . S
C495 C135 1.477 . S
C504 C79 1.476 . S
C506 C149 1.475 . S
C515 C163 1.474 . S
C517 C93 1.474 . S
C526 C121 1.476 . S
C528 C107 1.475 . S
C537 C233 1.475 . S
C539 C443 1.474 . S
C548 C247 1.473 . S
C550 C401 1.473 . S
C559 C261 1.477 . S
C561 C415 1.477 . S
C570 C429 1.472 . S
C572 C275 1.472 . S
C581 C289 1.476 . S
C583 C359 1.476 . S
C592 C303 1.477 . S
C594 C373 1.476 . S
C603 C387 1.472 . S
C605 C317 1.472 . S
C614 C331 1.474 . S
C616 C345 1.475 . S
C625 C176 1.457 . S
C627 C8 1.457 . S
C636 C22 1.457 . S
C638 C190 1.457 . S
C647 C204 1.458 . S
C649 C36 1.458 . S
C658 C50 1.458 . S
C660 C218 1.458 . S
C669 C64 1.457 . S
C671 C120 1.457 . S
C680 C134 1.458 . S
C682 C78 1.458 . S
C691 C148 1.457 . S
C693 C92 1.458 . S
C702 C162 1.458 . S
C704 C106 1.458 . S
C713 C232 1.457 . S
C715 C400 1.457 . S
C724 C414 1.458 . S
C726 C246 1.458 . S
C735 C260 1.458 . S
C737 C428 1.458 . S
C746 C274 1.457 . S
C748 C442 1.458 . S
C757 C344 1.458 . S
C759 C288 1.458 . S
C768 C302 1.457 . S
C770 C358 1.457 . S
C779 C316 1.458 . S
C781 C372 1.458 . S
C790 C330 1.458 . S
C792 C386 1.458 . S
C801 C7 1.369 . S
C803 C147 1.369 . S
C812 C161 1.364 . S
C814 C21 1.365 . S
C823 C35 1.369 . S
C825 C119 1.368 . S
C834 C133 1.370 . S
C836 C49 1.369 . S
C845 C203 1.368 . S
C847 C63 1.368 . S
C856 C217 1.370 . S
C858 C77 1.369 . S
C867 C175 1.363 . S
C869 C91 1.364 . S
C878 C105 1.364 . S
C880 C189 1.365 . S
C889 C371 1.365 . S
C891 C231 1.365 . S
C900 C245 1.364 . S
C902 C385 1.365 . S
C911 C343 1.366 . S
C913 C259 1.366 . S
C922 C357 1.368 . S
C924 C273 1.368 . S
C933 C287 1.368 . S
C935 C427 1.367 . S
C944 C301 1.366 . S
C946 C441 1.367 . S
C955 C399 1.366 . S
C957 C315 1.366 . S
C966 C413 1.364 . S
C968 C329 1.364 . S
C977 C325 1.299 . S
C979 C3 1.306 . S
C988 C283 1.306 . S
C990 C17 1.301 . S
C999 C297 1.302 . S
C1001 C31 1.304 . S
C1010 C311 1.299 . S
C1012 C45 1.303 . S
C1021 C241 1.301 . S
C1023 C59 1.305 . S
C1032 C73 1.302 . S
C1034 C255 1.304 . S
C1043 C87 1.298 . S
C1045 C269 1.304 . S
C1054 C101 1.302 . S
C1056 C227 1.304 . S
C1065 C115 1.306 . S
C1067 C437 1.302 . S
C1076 C395 1.297 . S
C1078 C129 1.305 . S
C1087 C143 1.298 . S
C1089 C409 1.303 . S
C1098 C157 1.301 . S
C1100 C423 1.305 . S
C1109 C353 1.299 . S
C1111 C171 1.302 . S
C1120 C367 1.306 . S
C1122 C185 1.301 . S
C1131 C199 1.301 . S
C1133 C381 1.300 . S
C1142 C213 1.301 . S
C1144 C339 1.305 . S
