# Generated by pormake.
# Topology eta, (3)-cn, num edge types: 1
# Building blocks:
#     Node 0, Type 0, BuildingBlock: WUSLED_clean_sbu_0, # of connection points: 3
#     Node 1, Type 0, BuildingBlock: WUSLED_clean_sbu_0, # of connection points: 3
#     Node 2, Type 0, BuildingBlock: WUSLED_clean_sbu_0, # of connection points: 3
#     Node 3, Type 0, BuildingBlock: WUSLED_clean_sbu_0, # of connection points: 3
#     Node 4, Type 0, BuildingBlock: WUSLED_clean_sbu_0, # of connection points: 3
#     Node 5, Type 0, BuildingBlock: WUSLED_clean_sbu_0, # of connection points: 3
#     Edge 6, Type (0, 0), BuildingBlock: UVAHIK_clean_linker_0, # of connection points: 2
#     Edge 7, Type (0, 0), BuildingBlock: UVAHIK_clean_linker_0, # of connection points: 2
#     Edge 8, Type (0, 0), BuildingBlock: UVAHIK_clean_linker_0, # of connection points: 2
#     Edge 9, Type (0, 0), BuildingBlock: UVAHIK_clean_linker_0, # of connection points: 2
#     Edge 10, Type (0, 0), BuildingBlock: UVAHIK_clean_linker_0, # of connection points: 2
#     Edge 11, Type (0, 0), BuildingBlock: UVAHIK_clean_linker_0, # of connection points: 2
#     Edge 12, Type (0, 0), BuildingBlock: UVAHIK_clean_linker_0, # of connection points: 2
#     Edge 13, Type (0, 0), BuildingBlock: UVAHIK_clean_linker_0, # of connection points: 2
#     Edge 14, Type (0, 0), BuildingBlock: UVAHIK_clean_linker_0, # of connection points: 2
# Relax obj value: 0.000
# Max RMSD: 0.005
# Mean RMSD: 0.005
data_MOF--net-eta--node1-WUSLED_clean_sbu_0--edge1-UVAHIK_clean_linker_0
_symmetry_space_group_name_H-M    P1
_symmetry_Int_Tables_number       1
_symmetry_cell_setting            triclinic
loop_
_symmetry_equiv_pos_as_xyz
'x, y, z'
_cell_length_a     79.740078
_cell_length_b     80.597011
_cell_length_c     65.470391
_cell_angle_alpha  89.543122
_cell_angle_beta   90.047704
_cell_angle_gamma 120.9605
loop_
_atom_site_label
_atom_site_type_symbol
_atom_site_fract_x
_atom_site_fract_y
_atom_site_fract_z
_atom_type_partial_charge
C0 C 0.23963 0.60258 0.13063 0.0
C1 C 0.25955 0.61684 0.13161 0.0
C2 C 0.26545 0.60615 0.09906 0.0
C3 C 0.27234 0.61864 0.11593 0.0
C4 C 0.2455 0.59173 0.09835 0.0
C5 C 0.23273 0.58999 0.11398 0.0
U6 U 0.22908 0.6145 0.18368 0.0
O7 O 0.20723 0.62168 0.19356 0.0
O8 O 0.20648 0.59601 0.2062 0.0
C9 C 0.19775 0.60607 0.20505 0.0
C10 C 0.22587 0.6008 0.14669 0.0
C11 C 0.1764 0.59479 0.20235 0.0
C12 C 0.14755 0.57613 0.18131 0.0
C13 C 0.16794 0.58648 0.18352 0.0
C14 C 0.14397 0.5822 0.21675 0.0
C15 C 0.13531 0.57397 0.19789 0.0
C16 C 0.16429 0.5925 0.21893 0.0
C17 C 0.27235 0.64753 0.2183 0.0
C18 C 0.26893 0.65937 0.25117 0.0
C19 C 0.30099 0.66746 0.23906 0.0
C20 C 0.29258 0.65684 0.22133 0.0
C21 C 0.28931 0.669 0.25415 0.0
C22 C 0.26052 0.64873 0.23337 0.0
C23 C 0.26402 0.63695 0.19921 0.0
O24 O 0.22556 0.59133 0.16325 0.0
O25 O 0.22572 0.61669 0.15061 0.0
O26 O 0.25508 0.64342 0.18765 0.0
O27 O 0.25451 0.61798 0.20071 0.0
H28 H 0.26516 0.62662 0.14443 0.0
H29 H 0.28764 0.62974 0.11709 0.0
H30 H 0.23966 0.58203 0.08548 0.0
H31 H 0.2174 0.57891 0.11297 0.0
H32 H 0.14139 0.57012 0.16654 0.0
H33 H 0.17711 0.58812 0.17053 0.0
H34 H 0.13503 0.58054 0.22995 0.0
H35 H 0.17057 0.59875 0.2336 0.0
H36 H 0.25953 0.66038 0.26238 0.0
H37 H 0.31666 0.67438 0.24098 0.0
H38 H 0.30192 0.65599 0.20989 0.0
H39 H 0.24484 0.64161 0.23127 0.0
C40 C 0.6155 0.22521 0.57428 0.0
C41 C 0.62823 0.24529 0.57249 0.0
C42 C 0.6168 0.25005 0.60525 0.0
C43 C 0.62891 0.25761 0.58787 0.0
C44 C 0.6041 0.22989 0.6069 0.0
C45 C 0.60348 0.21761 0.59156 0.0
U46 U 0.62821 0.21551 0.52103 0.0
O47 O 0.63604 0.19424 0.5113 0.0
O48 O 0.60984 0.193 0.49894 0.0
C49 C 0.62017 0.18454 0.50024 0.0
C50 C 0.61447 0.21198 0.55829 0.0
C51 C 0.60897 0.16343 0.50363 0.0
C52 C 0.58309 0.13468 0.52072 0.0
C53 C 0.59375 0.15482 0.51807 0.0
C54 C 0.60296 0.13159 0.4948 0.0
C55 C 0.58756 0.12282 0.50909 0.0
C56 C 0.61352 0.15169 0.49209 0.0
C57 C 0.65998 0.2585 0.48523 0.0
C58 C 0.66868 0.25512 0.45056 0.0
C59 C 0.67978 0.287 0.46414 0.0
C60 C 0.67037 0.27863 0.48264 0.0
C61 C 0.67898 0.27536 0.4478 0.0
C62 C 0.65922 0.24676 0.46912 0.0
C63 C 0.64988 0.25014 0.50474 0.0
O64 O 0.60461 0.21119 0.54187 0.0
O65 O 0.63096 0.21271 0.55414 0.0
O66 O 0.65705 0.24168 0.51599 0.0
O67 O 0.63068 0.2403 0.50396 0.0
H68 H 0.63757 0.25141 0.55917 0.0
H69 H 0.6387 0.27306 0.58602 0.0
H70 H 0.59477 0.22356 0.62018 0.0
H71 H 0.59359 0.20214 0.59321 0.0
H72 H 0.57148 0.12841 0.53201 0.0
H73 H 0.5901 0.16366 0.52724 0.0
H74 H 0.60664 0.12289 0.48543 0.0
H75 H 0.6252 0.15807 0.48087 0.0
H76 H 0.66763 0.24574 0.43825 0.0
H77 H 0.68783 0.30262 0.46269 0.0
H78 H 0.67116 0.28792 0.49495 0.0
H79 H 0.65122 0.23115 0.47087 0.0
C80 C 0.44591 0.64165 0.79586 0.0
C81 C 0.43142 0.64659 0.79682 0.0
C82 C 0.44255 0.66383 0.76425 0.0
C83 C 0.42971 0.65753 0.78112 0.0
C84 C 0.45719 0.65902 0.76355 0.0
C85 C 0.45882 0.64802 0.7792 0.0
U86 U 0.43448 0.6195 0.84951 0.0
O87 O 0.4269 0.59046 0.86003 0.0
O88 O 0.45334 0.61603 0.87156 0.0
C89 C 0.44286 0.59704 0.871 0.0
C90 C 0.44766 0.6298 0.812 0.0
C91 C 0.45388 0.58714 0.86821 0.0
C92 C 0.47226 0.57731 0.847 0.0
C93 C 0.46215 0.58719 0.84928 0.0
C94 C 0.46601 0.56745 0.88257 0.0
C95 C 0.4742 0.56721 0.86362 0.0
C96 C 0.45595 0.5773 0.88481 0.0
C97 C 0.40265 0.62974 0.88509 0.0
C98 C 0.3916 0.61491 0.91867 0.0
C99 C 0.38435 0.63912 0.90691 0.0
C100 C 0.39409 0.6409 0.88855 0.0
C101 C 0.38296 0.62611 0.92222 0.0
C102 C 0.40141 0.61675 0.90027 0.0
C103 C 0.4127 0.63184 0.86556 0.0
O104 O 0.45769 0.63929 0.82817 0.0
O105 O 0.43147 0.61354 0.81658 0.0
O106 O 0.4056 0.61612 0.85449 0.0
O107 O 0.4319 0.64169 0.86623 0.0
H108 H 0.42139 0.64191 0.80966 0.0
H109 H 0.41844 0.66118 0.78226 0.0
H110 H 0.46716 0.66343 0.75069 0.0
H111 H 0.47009 0.64434 0.77822 0.0
H112 H 0.47825 0.57731 0.83216 0.0
H113 H 0.46068 0.59473 0.83627 0.0
H114 H 0.46751 0.56015 0.89579 0.0
H115 H 0.44973 0.57719 0.89956 0.0
H116 H 0.39097 0.6049 0.93021 0.0
H117 H 0.37764 0.64774 0.90898 0.0
H118 H 0.39487 0.65095 0.87697 0.0
H119 H 0.40801 0.60805 0.89787 0.0
C120 C 0.81931 0.43093 0.12892 0.0
C121 C 0.799 0.4189 0.1313 0.0
C122 C 0.79383 0.42843 0.09748 0.0
C123 C 0.78636 0.41763 0.11569 0.0
C124 C 0.81423 0.44043 0.09526 0.0
C125 C 0.82682 0.44166 0.11082 0.0
U126 U 0.8299 0.4196 0.18268 0.0
O127 O 0.85242 0.41348 0.19314 0.0
O128 O 0.85223 0.43887 0.20473 0.0
C129 C 0.86157 0.4294 0.20396 0.0
C130 C 0.83288 0.43265 0.14514 0.0
C131 C 0.88293 0.44139 0.20106 0.0
C132 C 0.91209 0.45516 0.17965 0.0
C133 C 0.89171 0.44386 0.18179 0.0
C134 C 0.91507 0.46188 0.21589 0.0
C135 C 0.92401 0.46433 0.19669 0.0
C136 C 0.89476 0.45052 0.21803 0.0
C137 C 0.78736 0.38757 0.219 0.0
C138 C 0.79067 0.37431 0.25124 0.0
C139 C 0.76051 0.37338 0.2434 0.0
C140 C 0.76833 0.38245 0.22461 0.0
C141 C 0.77157 0.36921 0.25697 0.0
C142 C 0.79854 0.3835 0.23244 0.0
C143 C 0.79523 0.39726 0.19917 0.0
O144 O 0.83319 0.44232 0.16134 0.0
O145 O 0.83289 0.41673 0.14968 0.0
O146 O 0.80427 0.39062 0.18817 0.0
O147 O 0.80435 0.41625 0.19936 0.0
H148 H 0.79295 0.41057 0.14524 0.0
H149 H 0.77074 0.4084 0.118 0.0
H150 H 0.82051 0.44872 0.08135 0.0
H151 H 0.84247 0.45099 0.10872 0.0
H152 H 0.9185 0.45691 0.16463 0.0
H153 H 0.88282 0.43705 0.16844 0.0
H154 H 0.92381 0.46852 0.22937 0.0
H155 H 0.88827 0.44877 0.23302 0.0
H156 H 0.79965 0.37149 0.26142 0.0
H157 H 0.74568 0.36944 0.2472 0.0
H158 H 0.75949 0.38547 0.21443 0.0
H159 H 0.81333 0.38747 0.22843 0.0
C160 C 0.41034 0.81187 0.4619 0.0
C161 C 0.40127 0.79172 0.46422 0.0
C162 C 0.38912 0.78721 0.42925 0.0
C163 C 0.39071 0.77949 0.44804 0.0
C164 C 0.39817 0.80743 0.42716 0.0
C165 C 0.40867 0.81961 0.44332 0.0
U166 U 0.43134 0.82151 0.51605 0.0
O167 O 0.46038 0.84397 0.52691 0.0
O168 O 0.43404 0.84294 0.53846 0.0
C169 C 0.45326 0.85253 0.5379 0.0
C170 C 0.42175 0.82503 0.47855 0.0
C171 C 0.46278 0.8736 0.53493 0.0
C172 C 0.468 0.90162 0.51529 0.0
C173 C 0.4588 0.88151 0.51775 0.0
C174 C 0.48532 0.90606 0.54709 0.0
C175 C 0.48137 0.91417 0.52997 0.0
C176 C 0.4761 0.88599 0.54954 0.0
C177 C 0.42095 0.77877 0.551 0.0
C178 C 0.43538 0.78247 0.58464 0.0
C179 C 0.41143 0.75057 0.57248 0.0
C180 C 0.40984 0.75873 0.55421 0.0
C181 C 0.42422 0.76231 0.58794 0.0
C182 C 0.43372 0.79064 0.56633 0.0
C183 C 0.41905 0.78693 0.53157 0.0
O184 O 0.41166 0.82443 0.49469 0.0
O185 O 0.43809 0.82563 0.48318 0.0
O186 O 0.43515 0.79658 0.52067 0.0
O187 O 0.40882 0.79551 0.53232 0.0
H188 H 0.40245 0.7855 0.47849 0.0
H189 H 0.3841 0.76402 0.45012 0.0
H190 H 0.39699 0.81388 0.41306 0.0
H191 H 0.41553 0.83513 0.4413 0.0
H192 H 0.46445 0.90732 0.50203 0.0
H193 H 0.44855 0.87213 0.5063 0.0
H194 H 0.49575 0.91522 0.55852 0.0
H195 H 0.47942 0.88013 0.56284 0.0
H196 H 0.44522 0.79194 0.5963 0.0
H197 H 0.40285 0.73499 0.57437 0.0
H198 H 0.39995 0.74935 0.54251 0.0
H199 H 0.44238 0.80618 0.56412 0.0
C200 C 0.61309 0.39545 0.79572 0.0
C201 C 0.62706 0.38985 0.79709 0.0
C202 C 0.61524 0.37197 0.76525 0.0
C203 C 0.62818 0.37826 0.78194 0.0
C204 C 0.6013 0.37769 0.76401 0.0
C205 C 0.60026 0.38932 0.77909 0.0
U206 U 0.62463 0.41808 0.84886 0.0
O207 O 0.63137 0.44692 0.85862 0.0
O208 O 0.6054 0.42098 0.87083 0.0
C209 C 0.61531 0.43997 0.86964 0.0
C210 C 0.61149 0.40743 0.81155 0.0
C211 C 0.60355 0.44914 0.86666 0.0
C212 C 0.59037 0.46452 0.84516 0.0
C213 C 0.60142 0.45558 0.84736 0.0
C214 C 0.58324 0.46038 0.88143 0.0
C215 C 0.58113 0.46699 0.8622 0.0
C216 C 0.59435 0.45158 0.88362 0.0
C217 C 0.65652 0.40845 0.88528 0.0
C218 C 0.67 0.42542 0.91718 0.0
C219 C 0.67199 0.3972 0.90911 0.0
C220 C 0.66236 0.39531 0.89065 0.0
C221 C 0.67601 0.41232 0.92258 0.0
C222 C 0.66027 0.42347 0.89871 0.0
C223 C 0.64667 0.40625 0.86559 0.0
O224 O 0.60152 0.39803 0.82795 0.0
O225 O 0.62768 0.42374 0.81574 0.0
O226 O 0.65366 0.42195 0.8542 0.0
O227 O 0.62747 0.3961 0.86614 0.0
H228 H 0.63703 0.39436 0.8099 0.0
H229 H 0.63894 0.37395 0.78348 0.0
H230 H 0.59129 0.37333 0.75125 0.0
H231 H 0.58939 0.39352 0.77778 0.0
H232 H 0.58887 0.46928 0.83012 0.0
H233 H 0.6083 0.45372 0.83401 0.0
H234 H 0.57656 0.46229 0.8949 0.0
H235 H 0.59585 0.44675 0.89864 0.0
H236 H 0.67267 0.4371 0.9273 0.0
H237 H 0.67662 0.38702 0.91264 0.0
H238 H 0.65959 0.38364 0.88047 0.0
H239 H 0.65575 0.43369 0.89487 0.0
C240 C 0.37431 0.64062 0.95126 0.0
C241 C 0.37236 0.62417 0.94166 0.0
C242 C 0.36372 0.63881 0.969 0.0
C243 C 0.33564 0.60503 1.01154 0.0
H244 H 0.31272 0.6372 1.01606 0.0
C245 C 0.27759 0.59201 0.07286 0.0
C246 C 0.27888 0.60835 0.08205 0.0
C247 C 0.28974 0.59408 0.05642 0.0
C248 C 0.31921 0.62827 1.01519 0.0
H249 H 0.35779 0.59289 0.94337 0.0
H250 H 0.33924 0.58971 0.97428 0.0
H251 H 0.33248 0.64048 0.98627 0.0
H252 H 0.2941 0.6397 0.08114 0.0
H253 H 0.31546 0.64331 0.05266 0.0
H254 H 0.32216 0.59271 0.04043 0.0
C255 C 0.34918 0.60406 0.96823 0.0
C256 C 0.33058 0.63016 0.99808 0.0
C257 C 0.35982 0.60588 0.95049 0.0
C258 C 0.29281 0.62681 0.07455 0.0
C259 C 0.30491 0.62887 0.05806 0.0
C260 C 0.32423 0.60312 0.02865 0.0
C261 C 0.35086 0.6205 0.97761 0.0
C262 C 0.33894 0.61857 0.99601 0.0
C263 C 0.30345 0.61253 0.0487 0.0
C264 C 0.31586 0.61471 0.03068 0.0
H265 H 0.38412 0.65496 0.9451 0.0
H266 H 0.36569 0.65182 0.97602 0.0
H267 H 0.34207 0.59606 1.01061 0.0
H268 H 0.26717 0.57759 0.07839 0.0
H269 H 0.28811 0.58117 0.04948 0.0
C270 C 0.69915 0.27761 0.41708 0.0
C271 C 0.68872 0.28442 0.42799 0.0
C272 C 0.70872 0.28656 0.39875 0.0
C273 C 0.72817 0.33263 0.36969 0.0
H274 H 0.72725 0.30221 0.32367 0.0
C275 C 0.75222 0.36531 0.28878 0.0
C276 C 0.76317 0.35967 0.27702 0.0
C277 C 0.74395 0.35616 0.30742 0.0
C278 C 0.72786 0.31093 0.33646 0.0
H279 H 0.67965 0.30559 0.42773 0.0
H280 H 0.6962 0.32109 0.39587 0.0
H281 H 0.71109 0.286 0.35558 0.0
H282 H 0.77397 0.33991 0.27569 0.0
H283 H 0.75965 0.324 0.30837 0.0
H284 H 0.74476 0.35754 0.35055 0.0
C285 C 0.69739 0.30912 0.40167 0.0
C286 C 0.71859 0.30164 0.35477 0.0
C287 C 0.68787 0.3002 0.41996 0.0
C288 C 0.76575 0.3447 0.28444 0.0
C289 C 0.75737 0.33546 0.30307 0.0
C290 C 0.73738 0.34191 0.3514 0.0
C291 C 0.70806 0.30252 0.39089 0.0
C292 C 0.71848 0.31236 0.37157 0.0
C293 C 0.74635 0.34107 0.31478 0.0
C294 C 0.73721 0.33118 0.3345 0.0
H295 H 0.70028 0.26562 0.42293 0.0
H296 H 0.71696 0.28122 0.39097 0.0
H297 H 0.72875 0.3414 0.38243 0.0
H298 H 0.75012 0.37692 0.28364 0.0
H299 H 0.73539 0.36072 0.31593 0.0
C300 C 0.4571 0.6908 0.73815 0.0
C301 C 0.44049 0.67506 0.74726 0.0
C302 C 0.45519 0.70094 0.72174 0.0
C303 C 0.42122 0.69542 0.6804 0.0
H304 H 0.4534 0.7513 0.67624 0.0
C305 C 0.40926 0.73812 0.61672 0.0
C306 C 0.42597 0.75345 0.60729 0.0
C307 C 0.41091 0.72919 0.63438 0.0
C308 C 0.44445 0.73568 0.67705 0.0
H309 H 0.40883 0.65771 0.74623 0.0
H310 H 0.40549 0.67552 0.71778 0.0
H311 H 0.45649 0.73459 0.70597 0.0
H312 H 0.45753 0.77148 0.60921 0.0
H313 H 0.46042 0.75587 0.63999 0.0
H314 H 0.40931 0.69642 0.65145 0.0
C315 C 0.42001 0.67994 0.72323 0.0
C316 C 0.4462 0.72609 0.69411 0.0
C317 C 0.42192 0.66986 0.7397 0.0
C318 C 0.44434 0.75986 0.6162 0.0
C319 C 0.44599 0.7509 0.63387 0.0
C320 C 0.41949 0.70498 0.66334 0.0
C321 C 0.43662 0.69553 0.71396 0.0
C322 C 0.43461 0.70584 0.69599 0.0
C323 C 0.42931 0.73533 0.64308 0.0
C324 C 0.43108 0.72524 0.66143 0.0
H325 H 0.47161 0.69533 0.74373 0.0
H326 H 0.4683 0.71278 0.71487 0.0
H327 H 0.41231 0.67978 0.68116 0.0
H328 H 0.39485 0.73304 0.61048 0.0
H329 H 0.3977 0.71751 0.64127 0.0
C330 C 0.76419 0.40931 0.07531 0.0
C331 C 0.78052 0.4272 0.08079 0.0
C332 C 0.75216 0.40811 0.0591 0.0
C333 C 0.75243 0.43452 1.01241 0.0
H334 H 0.69623 0.39978 1.01477 0.0
C335 C 0.70164 0.43289 0.94842 0.0
C336 C 0.68676 0.41453 0.94196 0.0
C337 C 0.71242 0.43484 0.96606 0.0
C338 C 0.71192 0.40944 1.0138 0.0
H339 H 0.79652 0.45796 0.07395 0.0
H340 H 0.77555 0.45589 0.04579 0.0
H341 H 0.7162 0.4024 0.04424 0.0
H342 H 0.67113 0.38391 0.94945 0.0
H343 H 0.69007 0.38728 0.98003 0.0
H344 H 0.7482 0.4415 0.98196 0.0
C345 C 0.77226 0.4427 0.05373 0.0
C346 C 0.72338 0.41093 0.0307 0.0
C347 C 0.78429 0.44389 0.0699 0.0
C348 C 0.68265 0.39823 0.95384 0.0
C349 C 0.69337 0.40019 0.97151 0.0
C350 C 0.74098 0.43306 0.99555 0.0
C351 C 0.75613 0.42478 0.04798 0.0
C352 C 0.7438 0.42344 0.0302 0.0
C353 C 0.70853 0.41849 0.97773 0.0
C354 C 0.72059 0.42045 0.99598 0.0
H355 H 0.76098 0.39613 0.08321 0.0
H356 H 0.74003 0.39403 0.05495 0.0
H357 H 0.76814 0.44405 1.01132 0.0
H358 H 0.70529 0.44573 0.93956 0.0
H359 H 0.72384 0.44918 0.97053 0.0
C360 C 0.38553 0.77961 0.39176 0.0
C361 C 0.37823 0.77435 0.41181 0.0
C362 C 0.37517 0.76789 0.37527 0.0
C363 C 0.33678 0.71805 0.36165 0.0
H364 H 0.33455 0.74281 0.31154 0.0
C365 C 0.28984 0.67453 0.2921 0.0
C366 C 0.2985 0.68089 0.27269 0.0
C367 C 0.29876 0.68567 0.30947 0.0
C368 C 0.33517 0.73565 0.32534 0.0
H369 H 0.35426 0.7525 0.43013 0.0
H370 H 0.33617 0.73199 0.4013 0.0
H371 H 0.35166 0.76252 0.34104 0.0
H372 H 0.32314 0.7042 0.25638 0.0
H373 H 0.33881 0.72337 0.28659 0.0
H374 H 0.32036 0.69117 0.34585 0.0
C375 C 0.35003 0.74514 0.3984 0.0
C376 C 0.345 0.74697 0.34227 0.0
C377 C 0.36041 0.75689 0.41494 0.0
C378 C 0.31618 0.69872 0.27109 0.0
C379 C 0.32505 0.70985 0.28841 0.0
C380 C 0.32693 0.70671 0.34468 0.0
C381 C 0.35722 0.75056 0.37833 0.0
C382 C 0.34611 0.73834 0.36059 0.0
C383 C 0.31649 0.70348 0.30784 0.0
C384 C 0.32617 0.71539 0.32624 0.0
H385 H 0.39939 0.79275 0.38881 0.0
H386 H 0.38136 0.77233 0.36008 0.0
H387 H 0.3375 0.71094 0.37544 0.0
H388 H 0.2763 0.6608 0.29391 0.0
H389 H 0.29167 0.6804 0.32417 0.0
C390 C 0.5988 0.34372 0.74141 0.0
C391 C 0.61611 0.35938 0.74926 0.0
C392 C 0.5995 0.332 0.72622 0.0
C393 C 0.6312 0.33144 0.68547 0.0
H394 H 0.59566 0.27591 0.68818 0.0
C395 C 0.63511 0.27881 0.62832 0.0
C396 C 0.61728 0.26305 0.6216 0.0
C397 C 0.6355 0.29071 0.64402 0.0
C398 C 0.60554 0.29141 0.68703 0.0
H399 H 0.64775 0.37499 0.74716 0.0
H400 H 0.64899 0.3544 0.72072 0.0
H401 H 0.59542 0.29622 0.71538 0.0
H402 H 0.58582 0.24785 0.62576 0.0
H403 H 0.58646 0.26859 0.65296 0.0
H404 H 0.6412 0.32663 0.65701 0.0
C405 C 0.63486 0.35128 0.72627 0.0
C406 C 0.60542 0.30306 0.70267 0.0
C407 C 0.63415 0.36297 0.74157 0.0
C408 C 0.59984 0.25963 0.6308 0.0
C409 C 0.60021 0.27153 0.64645 0.0
C410 C 0.63129 0.31977 0.66977 0.0
C411 C 0.61753 0.33565 0.7184 0.0
C412 C 0.61815 0.32323 0.70204 0.0
C413 C 0.61805 0.28716 0.65336 0.0
C414 C 0.61836 0.29961 0.67029 0.0
H415 H 0.58466 0.34042 0.74714 0.0
H416 H 0.58587 0.32022 0.72037 0.0
H417 H 0.64104 0.34695 0.68437 0.0
H418 H 0.64883 0.28172 0.62173 0.0
H419 H 0.64952 0.30245 0.64911 0.0
C420 C 0.10374 0.54602 0.18448 0.0
C421 C 0.1136 0.56327 0.1957 0.0
C422 C 0.08328 0.53561 0.18329 0.0
C423 C 0.0397 0.52867 0.21088 0.0
H424 H 1.0122 0.50488 0.16071 0.0
C425 C 0.95625 0.49392 0.2051 0.0
C426 C 0.94568 0.47632 0.19465 0.0
C427 C 0.97667 0.50475 0.20414 0.0
C428 C 1.01965 0.51125 0.1749 0.0
H429 H 0.10961 0.5835 0.21365 0.0
H430 H 0.07408 0.56536 0.21166 0.0
H431 H 0.04795 0.52326 0.16098 0.0
H432 H 0.94835 0.45643 0.17475 0.0
H433 H 0.98405 0.47525 0.17319 0.0
H434 H 1.01156 0.51659 0.2249 0.0
C435 C 0.08211 0.55966 0.20412 0.0
C436 C 0.04015 0.5218 0.17505 0.0
C437 C 0.10251 0.57006 0.20527 0.0
C438 C 0.95604 0.47002 0.18283 0.0
C439 C 0.97652 0.48083 0.18193 0.0
C440 C 1.01926 0.5181 0.21075 0.0
C441 C 0.07221 0.54219 0.19332 0.0
C442 C 0.05041 0.53073 0.19302 0.0
C443 C 0.98711 0.49823 0.19278 0.0
C444 C 1.00894 0.50934 0.19275 0.0
H445 H 0.11179 0.54027 0.17707 0.0
H446 H 0.07611 0.52213 0.17499 0.0
H447 H 0.04711 0.53501 0.22509 0.0
H448 H 0.94871 0.49938 0.21403 0.0
H449 H 0.98428 0.51829 0.21231 0.0
C450 C 0.58573 0.09077 0.51185 0.0
C451 C 0.57619 0.10138 0.51169 0.0
C452 C 0.57505 0.0706 0.51378 0.0
C453 C 0.52683 0.02938 0.53027 0.0
H454 H 0.54304 0.99938 0.49892 0.0
C455 C 0.49444 0.94747 0.54443 0.0
C456 C 0.49125 0.9356 0.52746 0.0
C457 C 0.50421 0.9676 0.54224 0.0
C458 C 0.53817 1.00749 0.50764 0.0
H459 H 0.54788 0.099 0.51333 0.0
H460 H 0.52923 0.06381 0.51654 0.0
H461 H 0.56097 0.03447 0.49545 0.0
H462 H 0.49584 0.93578 0.49479 0.0
H463 H 0.51243 0.97084 0.49088 0.0
H464 H 0.50376 1.00235 0.54212 0.0
C465 C 0.54501 0.07111 0.51552 0.0
C466 C 0.54864 0.02768 0.50587 0.0
C467 C 0.55571 0.09131 0.51367 0.0
C468 C 0.49787 0.94442 0.50818 0.0
C469 C 0.50762 0.96458 0.50597 0.0
C470 C 0.51633 1.00918 0.53202 0.0
C471 C 0.55454 0.06047 0.51552 0.0
C472 C 0.54317 0.03892 0.51722 0.0
C473 C 0.51102 0.97645 0.523 0.0
C474 C 0.5219 0.99796 0.52079 0.0
H475 H 0.60151 0.09809 0.5107 0.0
H476 H 0.58294 0.06297 0.51413 0.0
H477 H 0.52228 0.03754 0.5394 0.0
H478 H 0.48933 0.94119 0.55948 0.0
H479 H 0.50672 0.97625 0.55573 0.0
C480 C 0.50206 0.5641 0.84995 0.0
C481 C 0.48463 0.55638 0.86137 0.0
C482 C 0.51223 0.55422 0.84873 0.0
C483 C 0.51824 0.51751 0.87648 0.0
H484 H 0.54207 0.51444 0.82616 0.0
C485 C 0.5516 0.46917 0.87067 0.0
C486 C 0.56942 0.47655 0.86013 0.0
C487 C 0.54106 0.47865 0.86972 0.0
C488 C 0.53568 0.51534 0.84039 0.0
H489 H 0.46383 0.53172 0.87964 0.0
H490 H 0.48154 0.51461 0.87758 0.0
H491 H 0.52415 0.53156 0.82648 0.0
H492 H 0.58999 0.49958 0.84003 0.0
H493 H 0.57166 0.51626 0.83848 0.0
H494 H 0.52983 0.50151 0.89049 0.0
C495 C 0.48758 0.52849 0.86991 0.0
C496 C 0.5254 0.52515 0.84056 0.0
C497 C 0.47742 0.53832 0.8711 0.0
C498 C 0.57622 0.49342 0.84819 0.0
C499 C 0.56569 0.50297 0.8473 0.0
C500 C 0.52853 0.50778 0.87633 0.0
C501 C 0.50523 0.5364 0.85892 0.0
C502 C 0.51645 0.52625 0.8586 0.0
C503 C 0.54809 0.49583 0.85827 0.0
C504 C 0.5373 0.50644 0.85827 0.0
H505 H 0.50813 0.57805 0.84241 0.0
H506 H 0.52587 0.56081 0.84028 0.0
H507 H 0.51189 0.51841 0.89074 0.0
H508 H 0.54575 0.456 0.87968 0.0
H509 H 0.52735 0.47247 0.87798 0.0
loop_
_geom_bond_atom_site_label_1
_geom_bond_atom_site_label_2
_geom_bond_distance
_geom_bond_site_symmetry_2
_ccdc_geom_bond_type
C0 C1 1.264 . S
C0 C5 1.479 . S
C0 C10 1.465 . S
C1 C0 1.264 . S
C1 C3 1.339 . S
C1 H28 0.931 . S
C2 C3 1.395 . S
C2 C4 1.320 . S
C3 C1 1.339 . S
C3 C2 1.395 . S
C3 H29 0.929 . S
C4 C2 1.320 . S
C4 C5 1.405 . S
C4 H30 0.930 . S
C5 C0 1.479 . S
C5 C4 1.405 . S
C5 H31 0.931 . S
U6 O7 2.454 . S
U6 O8 2.458 . S
U6 C9 2.984 . S
U6 C10 2.847 . S
U6 C23 2.882 . S
U6 O24 2.441 . S
U6 O25 2.420 . S
U6 O26 2.455 . S
U6 O27 2.449 . S
O7 U6 2.454 . S
O7 C9 1.353 . S
O8 U6 2.458 . S
O8 C9 1.286 . S
C9 U6 2.984 . S
C9 O7 1.353 . S
C9 O8 1.286 . S
C9 C11 1.363 . S
C10 C0 1.465 . S
C10 U6 2.847 . S
C10 O24 1.249 . S
C10 O25 1.202 . S
C11 C9 1.363 . S
C11 C13 1.408 . S
C11 C16 1.342 . S
C12 C13 1.310 . S
C12 C15 1.461 . S
C12 H32 0.932 . S
C13 C11 1.408 . S
C13 C12 1.310 . S
C13 H33 0.930 . S
C14 C15 1.474 . S
C14 C16 1.285 . S
C14 H34 0.929 . S
C15 C12 1.461 . S
C15 C14 1.474 . S
C16 C11 1.342 . S
C16 C14 1.285 . S
C16 H35 0.930 . S
C17 C20 1.424 . S
C17 C22 1.245 . S
C17 C23 1.428 . S
C18 C21 1.260 . S
C18 C22 1.477 . S
C18 H36 0.932 . S
C19 C20 1.384 . S
C19 C21 1.479 . S
C19 H37 0.929 . S
C20 C17 1.424 . S
C20 C19 1.384 . S
C20 H38 0.928 . S
C21 C18 1.260 . S
C21 C19 1.479 . S
C22 C17 1.245 . S
C22 C18 1.477 . S
C22 H39 0.932 . S
C23 U6 2.882 . S
C23 C17 1.428 . S
C23 O26 1.301 . S
C23 O27 1.282 . S
O24 U6 2.441 . S
O24 C10 1.249 . S
O25 U6 2.420 . S
O25 C10 1.202 . S
O26 U6 2.455 . S
O26 C23 1.301 . S
O27 U6 2.449 . S
O27 C23 1.282 . S
H28 C1 0.931 . S
H29 C3 0.929 . S
H30 C4 0.930 . S
H31 C5 0.931 . S
H32 C12 0.932 . S
H33 C13 0.930 . S
H34 C14 0.929 . S
H35 C16 0.930 . S
H36 C18 0.932 . S
H37 C19 0.929 . S
H38 C20 0.928 . S
H39 C22 0.932 . S
C40 C41 1.264 . S
C40 C45 1.479 . S
C40 C50 1.465 . S
C41 C40 1.264 . S
C41 C43 1.339 . S
C41 H68 0.931 . S
C42 C43 1.395 . S
C42 C44 1.320 . S
C43 C41 1.339 . S
C43 C42 1.395 . S
C43 H69 0.929 . S
C44 C42 1.320 . S
C44 C45 1.405 . S
C44 H70 0.930 . S
C45 C40 1.479 . S
C45 C44 1.405 . S
C45 H71 0.931 . S
U46 O47 2.454 . S
U46 O48 2.458 . S
U46 C49 2.984 . S
U46 C50 2.847 . S
U46 C63 2.882 . S
U46 O64 2.441 . S
U46 O65 2.420 . S
U46 O66 2.455 . S
U46 O67 2.449 . S
O47 U46 2.454 . S
O47 C49 1.353 . S
O48 U46 2.458 . S
O48 C49 1.286 . S
C49 U46 2.984 . S
C49 O47 1.353 . S
C49 O48 1.286 . S
C49 C51 1.363 . S
C50 C40 1.465 . S
C50 U46 2.847 . S
C50 O64 1.249 . S
C50 O65 1.202 . S
C51 C49 1.363 . S
C51 C53 1.408 . S
C51 C56 1.342 . S
C52 C53 1.310 . S
C52 C55 1.461 . S
C52 H72 0.932 . S
C53 C51 1.408 . S
C53 C52 1.310 . S
C53 H73 0.930 . S
C54 C55 1.474 . S
C54 C56 1.285 . S
C54 H74 0.929 . S
C55 C52 1.461 . S
C55 C54 1.474 . S
C56 C51 1.342 . S
C56 C54 1.285 . S
C56 H75 0.930 . S
C57 C60 1.424 . S
C57 C62 1.245 . S
C57 C63 1.428 . S
C58 C61 1.260 . S
C58 C62 1.477 . S
C58 H76 0.932 . S
C59 C60 1.384 . S
C59 C61 1.479 . S
C59 H77 0.929 . S
C60 C57 1.424 . S
C60 C59 1.384 . S
C60 H78 0.928 . S
C61 C58 1.260 . S
C61 C59 1.479 . S
C62 C57 1.245 . S
C62 C58 1.477 . S
C62 H79 0.932 . S
C63 U46 2.882 . S
C63 C57 1.428 . S
C63 O66 1.301 . S
C63 O67 1.282 . S
O64 U46 2.441 . S
O64 C50 1.249 . S
O65 U46 2.420 . S
O65 C50 1.202 . S
O66 U46 2.455 . S
O66 C63 1.301 . S
O67 U46 2.449 . S
O67 C63 1.282 . S
H68 C41 0.931 . S
H69 C43 0.929 . S
H70 C44 0.930 . S
H71 C45 0.931 . S
H72 C52 0.932 . S
H73 C53 0.930 . S
H74 C54 0.929 . S
H75 C56 0.930 . S
H76 C58 0.932 . S
H77 C59 0.929 . S
H78 C60 0.928 . S
H79 C62 0.932 . S
C80 C81 1.264 . S
C80 C85 1.479 . S
C80 C90 1.465 . S
C81 C80 1.264 . S
C81 C83 1.339 . S
C81 H108 0.931 . S
C82 C83 1.395 . S
C82 C84 1.320 . S
C83 C81 1.339 . S
C83 C82 1.395 . S
C83 H109 0.929 . S
C84 C82 1.320 . S
C84 C85 1.405 . S
C84 H110 0.930 . S
C85 C80 1.479 . S
C85 C84 1.405 . S
C85 H111 0.931 . S
U86 O87 2.454 . S
U86 O88 2.458 . S
U86 C89 2.984 . S
U86 C90 2.847 . S
U86 C103 2.882 . S
U86 O104 2.441 . S
U86 O105 2.420 . S
U86 O106 2.455 . S
U86 O107 2.449 . S
O87 U86 2.454 . S
O87 C89 1.353 . S
O88 U86 2.458 . S
O88 C89 1.286 . S
C89 U86 2.984 . S
C89 O87 1.353 . S
C89 O88 1.286 . S
C89 C91 1.363 . S
C90 C80 1.465 . S
C90 U86 2.847 . S
C90 O104 1.249 . S
C90 O105 1.202 . S
C91 C89 1.363 . S
C91 C93 1.408 . S
C91 C96 1.342 . S
C92 C93 1.310 . S
C92 C95 1.461 . S
C92 H112 0.932 . S
C93 C91 1.408 . S
C93 C92 1.310 . S
C93 H113 0.930 . S
C94 C95 1.474 . S
C94 C96 1.285 . S
C94 H114 0.929 . S
C95 C92 1.461 . S
C95 C94 1.474 . S
C96 C91 1.342 . S
C96 C94 1.285 . S
C96 H115 0.930 . S
C97 C100 1.424 . S
C97 C102 1.245 . S
C97 C103 1.428 . S
C98 C101 1.260 . S
C98 C102 1.477 . S
C98 H116 0.932 . S
C99 C100 1.384 . S
C99 C101 1.479 . S
C99 H117 0.929 . S
C100 C97 1.424 . S
C100 C99 1.384 . S
C100 H118 0.928 . S
C101 C98 1.260 . S
C101 C99 1.479 . S
C102 C97 1.245 . S
C102 C98 1.477 . S
C102 H119 0.932 . S
C103 U86 2.882 . S
C103 C97 1.428 . S
C103 O106 1.301 . S
C103 O107 1.282 . S
O104 U86 2.441 . S
O104 C90 1.249 . S
O105 U86 2.420 . S
O105 C90 1.202 . S
O106 U86 2.455 . S
O106 C103 1.301 . S
O107 U86 2.449 . S
O107 C103 1.282 . S
H108 C81 0.931 . S
H109 C83 0.929 . S
H110 C84 0.930 . S
H111 C85 0.931 . S
H112 C92 0.932 . S
H113 C93 0.930 . S
H114 C94 0.929 . S
H115 C96 0.930 . S
H116 C98 0.932 . S
H117 C99 0.929 . S
H118 C100 0.928 . S
H119 C102 0.932 . S
C120 C121 1.264 . S
C120 C125 1.479 . S
C120 C130 1.465 . S
C121 C120 1.264 . S
C121 C123 1.339 . S
C121 H148 0.931 . S
C122 C123 1.395 . S
C122 C124 1.320 . S
C123 C121 1.339 . S
C123 C122 1.395 . S
C123 H149 0.929 . S
C124 C122 1.320 . S
C124 C125 1.405 . S
C124 H150 0.930 . S
C125 C120 1.479 . S
C125 C124 1.405 . S
C125 H151 0.931 . S
U126 O127 2.454 . S
U126 O128 2.458 . S
U126 C129 2.984 . S
U126 C130 2.847 . S
U126 C143 2.882 . S
U126 O144 2.441 . S
U126 O145 2.420 . S
U126 O146 2.455 . S
U126 O147 2.449 . S
O127 U126 2.454 . S
O127 C129 1.353 . S
O128 U126 2.458 . S
O128 C129 1.286 . S
C129 U126 2.984 . S
C129 O127 1.353 . S
C129 O128 1.286 . S
C129 C131 1.363 . S
C130 C120 1.465 . S
C130 U126 2.847 . S
C130 O144 1.249 . S
C130 O145 1.202 . S
C131 C129 1.363 . S
C131 C133 1.408 . S
C131 C136 1.342 . S
C132 C133 1.310 . S
C132 C135 1.461 . S
C132 H152 0.932 . S
C133 C131 1.408 . S
C133 C132 1.310 . S
C133 H153 0.930 . S
C134 C135 1.474 . S
C134 C136 1.285 . S
C134 H154 0.929 . S
C135 C132 1.461 . S
C135 C134 1.474 . S
C136 C131 1.342 . S
C136 C134 1.285 . S
C136 H155 0.930 . S
C137 C140 1.424 . S
C137 C142 1.245 . S
C137 C143 1.428 . S
C138 C141 1.260 . S
C138 C142 1.477 . S
C138 H156 0.932 . S
C139 C140 1.384 . S
C139 C141 1.479 . S
C139 H157 0.929 . S
C140 C137 1.424 . S
C140 C139 1.384 . S
C140 H158 0.928 . S
C141 C138 1.260 . S
C141 C139 1.479 . S
C142 C137 1.245 . S
C142 C138 1.477 . S
C142 H159 0.932 . S
C143 U126 2.882 . S
C143 C137 1.428 . S
C143 O146 1.301 . S
C143 O147 1.282 . S
O144 U126 2.441 . S
O144 C130 1.249 . S
O145 U126 2.420 . S
O145 C130 1.202 . S
O146 U126 2.455 . S
O146 C143 1.301 . S
O147 U126 2.449 . S
O147 C143 1.282 . S
H148 C121 0.931 . S
H149 C123 0.929 . S
H150 C124 0.930 . S
H151 C125 0.931 . S
H152 C132 0.932 . S
H153 C133 0.930 . S
H154 C134 0.929 . S
H155 C136 0.930 . S
H156 C138 0.932 . S
H157 C139 0.929 . S
H158 C140 0.928 . S
H159 C142 0.932 . S
C160 C161 1.264 . S
C160 C165 1.479 . S
C160 C170 1.465 . S
C161 C160 1.264 . S
C161 C163 1.339 . S
C161 H188 0.931 . S
C162 C163 1.395 . S
C162 C164 1.320 . S
C163 C161 1.339 . S
C163 C162 1.395 . S
C163 H189 0.929 . S
C164 C162 1.320 . S
C164 C165 1.405 . S
C164 H190 0.930 . S
C165 C160 1.479 . S
C165 C164 1.405 . S
C165 H191 0.931 . S
U166 O167 2.454 . S
U166 O168 2.458 . S
U166 C169 2.984 . S
U166 C170 2.847 . S
U166 C183 2.882 . S
U166 O184 2.441 . S
U166 O185 2.420 . S
U166 O186 2.455 . S
U166 O187 2.449 . S
O167 U166 2.454 . S
O167 C169 1.353 . S
O168 U166 2.458 . S
O168 C169 1.286 . S
C169 U166 2.984 . S
C169 O167 1.353 . S
C169 O168 1.286 . S
C169 C171 1.363 . S
C170 C160 1.465 . S
C170 U166 2.847 . S
C170 O184 1.249 . S
C170 O185 1.202 . S
C171 C169 1.363 . S
C171 C173 1.408 . S
C171 C176 1.342 . S
C172 C173 1.310 . S
C172 C175 1.461 . S
C172 H192 0.932 . S
C173 C171 1.408 . S
C173 C172 1.310 . S
C173 H193 0.930 . S
C174 C175 1.474 . S
C174 C176 1.285 . S
C174 H194 0.929 . S
C175 C172 1.461 . S
C175 C174 1.474 . S
C176 C171 1.342 . S
C176 C174 1.285 . S
C176 H195 0.930 . S
C177 C180 1.424 . S
C177 C182 1.245 . S
C177 C183 1.428 . S
C178 C181 1.260 . S
C178 C182 1.477 . S
C178 H196 0.932 . S
C179 C180 1.384 . S
C179 C181 1.479 . S
C179 H197 0.929 . S
C180 C177 1.424 . S
C180 C179 1.384 . S
C180 H198 0.928 . S
C181 C178 1.260 . S
C181 C179 1.479 . S
C182 C177 1.245 . S
C182 C178 1.477 . S
C182 H199 0.932 . S
C183 U166 2.882 . S
C183 C177 1.428 . S
C183 O186 1.301 . S
C183 O187 1.282 . S
O184 U166 2.441 . S
O184 C170 1.249 . S
O185 U166 2.420 . S
O185 C170 1.202 . S
O186 U166 2.455 . S
O186 C183 1.301 . S
O187 U166 2.449 . S
O187 C183 1.282 . S
H188 C161 0.931 . S
H189 C163 0.929 . S
H190 C164 0.930 . S
H191 C165 0.931 . S
H192 C172 0.932 . S
H193 C173 0.930 . S
H194 C174 0.929 . S
H195 C176 0.930 . S
H196 C178 0.932 . S
H197 C179 0.929 . S
H198 C180 0.928 . S
H199 C182 0.932 . S
C200 C201 1.264 . S
C200 C205 1.479 . S
C200 C210 1.465 . S
C201 C200 1.264 . S
C201 C203 1.339 . S
C201 H228 0.931 . S
C202 C203 1.395 . S
C202 C204 1.320 . S
C203 C201 1.339 . S
C203 C202 1.395 . S
C203 H229 0.929 . S
C204 C202 1.320 . S
C204 C205 1.405 . S
C204 H230 0.930 . S
C205 C200 1.479 . S
C205 C204 1.405 . S
C205 H231 0.931 . S
U206 O207 2.454 . S
U206 O208 2.458 . S
U206 C209 2.984 . S
U206 C210 2.847 . S
U206 C223 2.882 . S
U206 O224 2.441 . S
U206 O225 2.420 . S
U206 O226 2.455 . S
U206 O227 2.449 . S
O207 U206 2.454 . S
O207 C209 1.353 . S
O208 U206 2.458 . S
O208 C209 1.286 . S
C209 U206 2.984 . S
C209 O207 1.353 . S
C209 O208 1.286 . S
C209 C211 1.363 . S
C210 C200 1.465 . S
C210 U206 2.847 . S
C210 O224 1.249 . S
C210 O225 1.202 . S
C211 C209 1.363 . S
C211 C213 1.408 . S
C211 C216 1.342 . S
C212 C213 1.310 . S
C212 C215 1.461 . S
C212 H232 0.932 . S
C213 C211 1.408 . S
C213 C212 1.310 . S
C213 H233 0.930 . S
C214 C215 1.474 . S
C214 C216 1.285 . S
C214 H234 0.929 . S
C215 C212 1.461 . S
C215 C214 1.474 . S
C216 C211 1.342 . S
C216 C214 1.285 . S
C216 H235 0.930 . S
C217 C220 1.424 . S
C217 C222 1.245 . S
C217 C223 1.428 . S
C218 C221 1.260 . S
C218 C222 1.477 . S
C218 H236 0.932 . S
C219 C220 1.384 . S
C219 C221 1.479 . S
C219 H237 0.929 . S
C220 C217 1.424 . S
C220 C219 1.384 . S
C220 H238 0.928 . S
C221 C218 1.260 . S
C221 C219 1.479 . S
C222 C217 1.245 . S
C222 C218 1.477 . S
C222 H239 0.932 . S
C223 U206 2.882 . S
C223 C217 1.428 . S
C223 O226 1.301 . S
C223 O227 1.282 . S
O224 U206 2.441 . S
O224 C210 1.249 . S
O225 U206 2.420 . S
O225 C210 1.202 . S
O226 U206 2.455 . S
O226 C223 1.301 . S
O227 U206 2.449 . S
O227 C223 1.282 . S
H228 C201 0.931 . S
H229 C203 0.929 . S
H230 C204 0.930 . S
H231 C205 0.931 . S
H232 C212 0.932 . S
H233 C213 0.930 . S
H234 C214 0.929 . S
H235 C216 0.930 . S
H236 C218 0.932 . S
H237 C219 0.929 . S
H238 C220 0.928 . S
H239 C222 0.932 . S
C240 C241 1.349 . S
C240 C242 1.327 . S
C240 H265 0.950 . S
C241 C240 1.349 . S
C241 C257 1.349 . S
C242 C240 1.327 . S
C242 C261 1.429 . S
C242 H266 0.950 . S
C243 C260 1.574 1_556 S
C243 C262 1.368 . S
C243 H267 0.949 . S
H244 C248 0.949 . S
C245 C246 1.349 . S
C245 C247 1.327 . S
C245 H268 0.950 . S
C246 C245 1.349 . S
C246 C258 1.349 . S
C247 C245 1.327 . S
C247 C263 1.429 . S
C247 H269 0.950 . S
C248 H244 0.949 . S
C248 C256 1.574 1_554 S
C248 C264 1.368 . S
H249 C257 0.950 . S
H250 C255 0.950 . S
H251 C256 0.949 . S
H252 C258 0.950 . S
H253 C259 0.950 . S
H254 C260 0.949 . S
C255 H250 0.950 . S
C255 C257 1.327 . S
C255 C261 1.429 . S
C256 C248 1.574 1_556 S
C256 H251 0.949 . S
C256 C262 1.368 . S
C257 C241 1.349 . S
C257 H249 0.950 . S
C257 C255 1.327 . S
C258 C246 1.349 . S
C258 H252 0.950 . S
C258 C259 1.327 . S
C259 H253 0.950 . S
C259 C258 1.327 . S
C259 C263 1.429 . S
C260 C243 1.574 1_554 S
C260 H254 0.949 . S
C260 C264 1.368 . S
C261 C242 1.429 . S
C261 C255 1.429 . S
C261 C262 1.523 . S
C262 C243 1.368 . S
C262 C256 1.368 . S
C262 C261 1.523 . S
C263 C247 1.429 . S
C263 C259 1.429 . S
C263 C264 1.523 . S
C264 C248 1.368 . S
C264 C260 1.368 . S
C264 C263 1.523 . S
H265 C240 0.950 . S
H266 C242 0.950 . S
H267 C243 0.949 . S
H268 C245 0.950 . S
H269 C247 0.950 . S
C270 C271 1.349 . S
C270 C272 1.327 . S
C270 H295 0.950 . S
C271 C270 1.349 . S
C271 C287 1.349 . S
C272 C270 1.327 . S
C272 C291 1.429 . S
C272 H296 0.950 . S
C273 C290 1.574 . S
C273 C292 1.368 . S
C273 H297 0.949 . S
H274 C278 0.949 . S
C275 C276 1.349 . S
C275 C277 1.327 . S
C275 H298 0.950 . S
C276 C275 1.349 . S
C276 C288 1.349 . S
C277 C275 1.327 . S
C277 C293 1.429 . S
C277 H299 0.950 . S
C278 H274 0.949 . S
C278 C286 1.574 . S
C278 C294 1.368 . S
H279 C287 0.950 . S
H280 C285 0.950 . S
H281 C286 0.949 . S
H282 C288 0.950 . S
H283 C289 0.950 . S
H284 C290 0.949 . S
C285 H280 0.950 . S
C285 C287 1.327 . S
C285 C291 1.429 . S
C286 C278 1.574 . S
C286 H281 0.949 . S
C286 C292 1.368 . S
C287 C271 1.349 . S
C287 H279 0.950 . S
C287 C285 1.327 . S
C288 C276 1.349 . S
C288 H282 0.950 . S
C288 C289 1.327 . S
C289 H283 0.950 . S
C289 C288 1.327 . S
C289 C293 1.429 . S
C290 C273 1.574 . S
C290 H284 0.949 . S
C290 C294 1.368 . S
C291 C272 1.429 . S
C291 C285 1.429 . S
C291 C292 1.523 . S
C292 C273 1.368 . S
C292 C286 1.368 . S
C292 C291 1.523 . S
C293 C277 1.429 . S
C293 C289 1.429 . S
C293 C294 1.523 . S
C294 C278 1.368 . S
C294 C290 1.368 . S
C294 C293 1.523 . S
H295 C270 0.950 . S
H296 C272 0.950 . S
H297 C273 0.949 . S
H298 C275 0.950 . S
H299 C277 0.950 . S
C300 C301 1.349 . S
C300 C302 1.327 . S
C300 H325 0.950 . S
C301 C300 1.349 . S
C301 C317 1.349 . S
C302 C300 1.327 . S
C302 C321 1.429 . S
C302 H326 0.950 . S
C303 C320 1.574 . S
C303 C322 1.368 . S
C303 H327 0.949 . S
H304 C308 0.949 . S
C305 C306 1.349 . S
C305 C307 1.327 . S
C305 H328 0.950 . S
C306 C305 1.349 . S
C306 C318 1.349 . S
C307 C305 1.327 . S
C307 C323 1.429 . S
C307 H329 0.950 . S
C308 H304 0.949 . S
C308 C316 1.574 . S
C308 C324 1.368 . S
H309 C317 0.950 . S
H310 C315 0.950 . S
H311 C316 0.949 . S
H312 C318 0.950 . S
H313 C319 0.950 . S
H314 C320 0.949 . S
C315 H310 0.950 . S
C315 C317 1.327 . S
C315 C321 1.429 . S
C316 C308 1.574 . S
C316 H311 0.949 . S
C316 C322 1.368 . S
C317 C301 1.349 . S
C317 H309 0.950 . S
C317 C315 1.327 . S
C318 C306 1.349 . S
C318 H312 0.950 . S
C318 C319 1.327 . S
C319 H313 0.950 . S
C319 C318 1.327 . S
C319 C323 1.429 . S
C320 C303 1.574 . S
C320 H314 0.949 . S
C320 C324 1.368 . S
C321 C302 1.429 . S
C321 C315 1.429 . S
C321 C322 1.523 . S
C322 C303 1.368 . S
C322 C316 1.368 . S
C322 C321 1.523 . S
C323 C307 1.429 . S
C323 C319 1.429 . S
C323 C324 1.523 . S
C324 C308 1.368 . S
C324 C320 1.368 . S
C324 C323 1.523 . S
H325 C300 0.950 . S
H326 C302 0.950 . S
H327 C303 0.949 . S
H328 C305 0.950 . S
H329 C307 0.950 . S
C330 C331 1.349 . S
C330 C332 1.327 . S
C330 H355 0.950 . S
C331 C330 1.349 . S
C331 C347 1.349 . S
C332 C330 1.327 . S
C332 C351 1.429 . S
C332 H356 0.950 . S
C333 C350 1.574 1_554 S
C333 C352 1.368 . S
C333 H357 0.949 . S
H334 C338 0.949 . S
C335 C336 1.349 . S
C335 C337 1.327 . S
C335 H358 0.950 . S
C336 C335 1.349 . S
C336 C348 1.349 . S
C337 C335 1.327 . S
C337 C353 1.429 . S
C337 H359 0.950 . S
C338 H334 0.949 . S
C338 C346 1.574 1_556 S
C338 C354 1.368 . S
H339 C347 0.950 . S
H340 C345 0.950 . S
H341 C346 0.949 . S
H342 C348 0.950 . S
H343 C349 0.950 . S
H344 C350 0.949 . S
C345 H340 0.950 . S
C345 C347 1.327 . S
C345 C351 1.429 . S
C346 C338 1.574 1_554 S
C346 H341 0.949 . S
C346 C352 1.368 . S
C347 C331 1.349 . S
C347 H339 0.950 . S
C347 C345 1.327 . S
C348 C336 1.349 . S
C348 H342 0.950 . S
C348 C349 1.327 . S
C349 H343 0.950 . S
C349 C348 1.327 . S
C349 C353 1.429 . S
C350 C333 1.574 1_556 S
C350 H344 0.949 . S
C350 C354 1.368 . S
C351 C332 1.429 . S
C351 C345 1.429 . S
C351 C352 1.523 . S
C352 C333 1.368 . S
C352 C346 1.368 . S
C352 C351 1.523 . S
C353 C337 1.429 . S
C353 C349 1.429 . S
C353 C354 1.523 . S
C354 C338 1.368 . S
C354 C350 1.368 . S
C354 C353 1.523 . S
H355 C330 0.950 . S
H356 C332 0.950 . S
H357 C333 0.949 . S
H358 C335 0.950 . S
H359 C337 0.950 . S
C360 C361 1.349 . S
C360 C362 1.327 . S
C360 H385 0.950 . S
C361 C360 1.349 . S
C361 C377 1.349 . S
C362 C360 1.327 . S
C362 C381 1.429 . S
C362 H386 0.950 . S
C363 C380 1.574 . S
C363 C382 1.368 . S
C363 H387 0.949 . S
H364 C368 0.949 . S
C365 C366 1.349 . S
C365 C367 1.327 . S
C365 H388 0.950 . S
C366 C365 1.349 . S
C366 C378 1.349 . S
C367 C365 1.327 . S
C367 C383 1.429 . S
C367 H389 0.950 . S
C368 H364 0.949 . S
C368 C376 1.574 . S
C368 C384 1.368 . S
H369 C377 0.950 . S
H370 C375 0.950 . S
H371 C376 0.949 . S
H372 C378 0.950 . S
H373 C379 0.950 . S
H374 C380 0.949 . S
C375 H370 0.950 . S
C375 C377 1.327 . S
C375 C381 1.429 . S
C376 C368 1.574 . S
C376 H371 0.949 . S
C376 C382 1.368 . S
C377 C361 1.349 . S
C377 H369 0.950 . S
C377 C375 1.327 . S
C378 C366 1.349 . S
C378 H372 0.950 . S
C378 C379 1.327 . S
C379 H373 0.950 . S
C379 C378 1.327 . S
C379 C383 1.429 . S
C380 C363 1.574 . S
C380 H374 0.949 . S
C380 C384 1.368 . S
C381 C362 1.429 . S
C381 C375 1.429 . S
C381 C382 1.523 . S
C382 C363 1.368 . S
C382 C376 1.368 . S
C382 C381 1.523 . S
C383 C367 1.429 . S
C383 C379 1.429 . S
C383 C384 1.523 . S
C384 C368 1.368 . S
C384 C380 1.368 . S
C384 C383 1.523 . S
H385 C360 0.950 . S
H386 C362 0.950 . S
H387 C363 0.949 . S
H388 C365 0.950 . S
H389 C367 0.950 . S
C390 C391 1.349 . S
C390 C392 1.327 . S
C390 H415 0.950 . S
C391 C390 1.349 . S
C391 C407 1.349 . S
C392 C390 1.327 . S
C392 C411 1.429 . S
C392 H416 0.950 . S
C393 C410 1.574 . S
C393 C412 1.368 . S
C393 H417 0.949 . S
H394 C398 0.949 . S
C395 C396 1.349 . S
C395 C397 1.327 . S
C395 H418 0.950 . S
C396 C395 1.349 . S
C396 C408 1.349 . S
C397 C395 1.327 . S
C397 C413 1.429 . S
C397 H419 0.950 . S
C398 H394 0.949 . S
C398 C406 1.574 . S
C398 C414 1.368 . S
H399 C407 0.950 . S
H400 C405 0.950 . S
H401 C406 0.949 . S
H402 C408 0.950 . S
H403 C409 0.950 . S
H404 C410 0.949 . S
C405 H400 0.950 . S
C405 C407 1.327 . S
C405 C411 1.429 . S
C406 C398 1.574 . S
C406 H401 0.949 . S
C406 C412 1.368 . S
C407 C391 1.349 . S
C407 H399 0.950 . S
C407 C405 1.327 . S
C408 C396 1.349 . S
C408 H402 0.950 . S
C408 C409 1.327 . S
C409 H403 0.950 . S
C409 C408 1.327 . S
C409 C413 1.429 . S
C410 C393 1.574 . S
C410 H404 0.949 . S
C410 C414 1.368 . S
C411 C392 1.429 . S
C411 C405 1.429 . S
C411 C412 1.523 . S
C412 C393 1.368 . S
C412 C406 1.368 . S
C412 C411 1.523 . S
C413 C397 1.429 . S
C413 C409 1.429 . S
C413 C414 1.523 . S
C414 C398 1.368 . S
C414 C410 1.368 . S
C414 C413 1.523 . S
H415 C390 0.950 . S
H416 C392 0.950 . S
H417 C393 0.949 . S
H418 C395 0.950 . S
H419 C397 0.950 . S
C420 C421 1.349 . S
C420 C422 1.327 . S
C420 H445 0.950 . S
C421 C420 1.349 . S
C421 C437 1.349 . S
C422 C420 1.327 . S
C422 C441 1.429 . S
C422 H446 0.950 . S
C423 C440 1.574 1_455 S
C423 C442 1.368 . S
C423 H447 0.949 . S
H424 C428 0.949 . S
C425 C426 1.349 . S
C425 C427 1.327 . S
C425 H448 0.950 . S
C426 C425 1.349 . S
C426 C438 1.349 . S
C427 C425 1.327 . S
C427 C443 1.429 . S
C427 H449 0.950 . S
C428 H424 0.949 . S
C428 C436 1.574 1_655 S
C428 C444 1.368 . S
H429 C437 0.950 . S
H430 C435 0.950 . S
H431 C436 0.949 . S
H432 C438 0.950 . S
H433 C439 0.950 . S
H434 C440 0.949 . S
C435 H430 0.950 . S
C435 C437 1.327 . S
C435 C441 1.429 . S
C436 C428 1.574 1_455 S
C436 H431 0.949 . S
C436 C442 1.368 . S
C437 C421 1.349 . S
C437 H429 0.950 . S
C437 C435 1.327 . S
C438 C426 1.349 . S
C438 H432 0.950 . S
C438 C439 1.327 . S
C439 H433 0.950 . S
C439 C438 1.327 . S
C439 C443 1.429 . S
C440 C423 1.574 1_655 S
C440 H434 0.949 . S
C440 C444 1.368 . S
C441 C422 1.429 . S
C441 C435 1.429 . S
C441 C442 1.523 . S
C442 C423 1.368 . S
C442 C436 1.368 . S
C442 C441 1.523 . S
C443 C427 1.429 . S
C443 C439 1.429 . S
C443 C444 1.523 . S
C444 C428 1.368 . S
C444 C440 1.368 . S
C444 C443 1.523 . S
H445 C420 0.950 . S
H446 C422 0.950 . S
H447 C423 0.949 . S
H448 C425 0.950 . S
H449 C427 0.950 . S
C450 C451 1.349 . S
C450 C452 1.327 . S
C450 H475 0.950 . S
C451 C450 1.349 . S
C451 C467 1.349 . S
C452 C450 1.327 . S
C452 C471 1.429 . S
C452 H476 0.950 . S
C453 C470 1.574 1_545 S
C453 C472 1.368 . S
C453 H477 0.949 . S
H454 C458 0.949 . S
C455 C456 1.349 . S
C455 C457 1.327 . S
C455 H478 0.950 . S
C456 C455 1.349 . S
C456 C468 1.349 . S
C457 C455 1.327 . S
C457 C473 1.429 . S
C457 H479 0.950 . S
C458 H454 0.949 . S
C458 C466 1.574 1_565 S
C458 C474 1.368 . S
H459 C467 0.950 . S
H460 C465 0.950 . S
H461 C466 0.949 . S
H462 C468 0.950 . S
H463 C469 0.950 . S
H464 C470 0.949 . S
C465 H460 0.950 . S
C465 C467 1.327 . S
C465 C471 1.429 . S
C466 C458 1.574 1_545 S
C466 H461 0.949 . S
C466 C472 1.368 . S
C467 C451 1.349 . S
C467 H459 0.950 . S
C467 C465 1.327 . S
C468 C456 1.349 . S
C468 H462 0.950 . S
C468 C469 1.327 . S
C469 H463 0.950 . S
C469 C468 1.327 . S
C469 C473 1.429 . S
C470 C453 1.574 1_565 S
C470 H464 0.949 . S
C470 C474 1.368 . S
C471 C452 1.429 . S
C471 C465 1.429 . S
C471 C472 1.523 . S
C472 C453 1.368 . S
C472 C466 1.368 . S
C472 C471 1.523 . S
C473 C457 1.429 . S
C473 C469 1.429 . S
C473 C474 1.523 . S
C474 C458 1.368 . S
C474 C470 1.368 . S
C474 C473 1.523 . S
H475 C450 0.950 . S
H476 C452 0.950 . S
H477 C453 0.949 . S
H478 C455 0.950 . S
H479 C457 0.950 . S
C480 C481 1.349 . S
C480 C482 1.327 . S
C480 H505 0.950 . S
C481 C480 1.349 . S
C481 C497 1.349 . S
C482 C480 1.327 . S
C482 C501 1.429 . S
C482 H506 0.950 . S
C483 C500 1.574 . S
C483 C502 1.368 . S
C483 H507 0.949 . S
H484 C488 0.949 . S
C485 C486 1.349 . S
C485 C487 1.327 . S
C485 H508 0.950 . S
C486 C485 1.349 . S
C486 C498 1.349 . S
C487 C485 1.327 . S
C487 C503 1.429 . S
C487 H509 0.950 . S
C488 H484 0.949 . S
C488 C496 1.574 . S
C488 C504 1.368 . S
H489 C497 0.950 . S
H490 C495 0.950 . S
H491 C496 0.949 . S
H492 C498 0.950 . S
H493 C499 0.950 . S
H494 C500 0.949 . S
C495 H490 0.950 . S
C495 C497 1.327 . S
C495 C501 1.429 . S
C496 C488 1.574 . S
C496 H491 0.949 . S
C496 C502 1.368 . S
C497 C481 1.349 . S
C497 H489 0.950 . S
C497 C495 1.327 . S
C498 C486 1.349 . S
C498 H492 0.950 . S
C498 C499 1.327 . S
C499 H493 0.950 . S
C499 C498 1.327 . S
C499 C503 1.429 . S
C500 C483 1.574 . S
C500 H494 0.949 . S
C500 C504 1.368 . S
C501 C482 1.429 . S
C501 C495 1.429 . S
C501 C502 1.523 . S
C502 C483 1.368 . S
C502 C496 1.368 . S
C502 C501 1.523 . S
C503 C487 1.429 . S
C503 C499 1.429 . S
C503 C504 1.523 . S
C504 C488 1.368 . S
C504 C500 1.368 . S
C504 C503 1.523 . S
H505 C480 0.950 . S
H506 C482 0.950 . S
H507 C483 0.949 . S
H508 C485 0.950 . S
H509 C487 0.950 . S
C241 C101 1.489 . S
C246 C2 1.488 . S
C271 C61 1.490 . S
C276 C141 1.487 . S
C301 C82 1.486 . S
C306 C181 1.490 . S
C331 C122 1.488 . S
C336 C221 1.489 . S
C361 C162 1.489 . S
C366 C21 1.487 . S
C391 C202 1.486 . S
C396 C42 1.489 . S
C421 C15 1.503 . S
C426 C135 1.503 . S
C451 C55 1.500 . S
C456 C175 1.500 . S
C481 C95 1.503 . S
C486 C215 1.503 . S
