# Generated by pormake.
# Topology wju, (5)-cn, num edge types: 1
# Building blocks:
#     Node 0, Type 0, BuildingBlock: XOMCOT_clean_sbu_0, # of connection points: 5
#     Node 1, Type 0, BuildingBlock: XOMCOT_clean_sbu_0, # of connection points: 5
#     Node 2, Type 0, BuildingBlock: XOMCOT_clean_sbu_0, # of connection points: 5
#     Node 3, Type 0, BuildingBlock: XOMCOT_clean_sbu_0, # of connection points: 5
#     Node 4, Type 0, BuildingBlock: XOMCOT_clean_sbu_0, # of connection points: 5
#     Node 5, Type 0, BuildingBlock: XOMCOT_clean_sbu_0, # of connection points: 5
#     Node 6, Type 0, BuildingBlock: XOMCOT_clean_sbu_0, # of connection points: 5
#     Node 7, Type 0, BuildingBlock: XOMCOT_clean_sbu_0, # of connection points: 5
#     Node 8, Type 0, BuildingBlock: XOMCOT_clean_sbu_0, # of connection points: 5
#     Node 9, Type 0, BuildingBlock: XOMCOT_clean_sbu_0, # of connection points: 5
#     Node 10, Type 0, BuildingBlock: XOMCOT_clean_sbu_0, # of connection points: 5
#     Node 11, Type 0, BuildingBlock: XOMCOT_clean_sbu_0, # of connection points: 5
#     Edge 12, Type (0, 0), BuildingBlock: XIVTED_clean_linker_0, # of connection points: 2
#     Edge 13, Type (0, 0), BuildingBlock: XIVTED_clean_linker_0, # of connection points: 2
#     Edge 14, Type (0, 0), BuildingBlock: XIVTED_clean_linker_0, # of connection points: 2
#     Edge 15, Type (0, 0), BuildingBlock: XIVTED_clean_linker_0, # of connection points: 2
#     Edge 16, Type (0, 0), BuildingBlock: XIVTED_clean_linker_0, # of connection points: 2
#     Edge 17, Type (0, 0), BuildingBlock: XIVTED_clean_linker_0, # of connection points: 2
#     Edge 18, Type (0, 0), BuildingBlock: XIVTED_clean_linker_0, # of connection points: 2
#     Edge 19, Type (0, 0), BuildingBlock: XIVTED_clean_linker_0, # of connection points: 2
#     Edge 20, Type (0, 0), BuildingBlock: XIVTED_clean_linker_0, # of connection points: 2
#     Edge 21, Type (0, 0), BuildingBlock: XIVTED_clean_linker_0, # of connection points: 2
#     Edge 22, Type (0, 0), BuildingBlock: XIVTED_clean_linker_0, # of connection points: 2
#     Edge 23, Type (0, 0), BuildingBlock: XIVTED_clean_linker_0, # of connection points: 2
#     Edge 24, Type (0, 0), BuildingBlock: XIVTED_clean_linker_0, # of connection points: 2
#     Edge 25, Type (0, 0), BuildingBlock: XIVTED_clean_linker_0, # of connection points: 2
#     Edge 26, Type (0, 0), BuildingBlock: XIVTED_clean_linker_0, # of connection points: 2
#     Edge 27, Type (0, 0), BuildingBlock: XIVTED_clean_linker_0, # of connection points: 2
#     Edge 28, Type (0, 0), BuildingBlock: XIVTED_clean_linker_0, # of connection points: 2
#     Edge 29, Type (0, 0), BuildingBlock: XIVTED_clean_linker_0, # of connection points: 2
#     Edge 30, Type (0, 0), BuildingBlock: XIVTED_clean_linker_0, # of connection points: 2
#     Edge 31, Type (0, 0), BuildingBlock: XIVTED_clean_linker_0, # of connection points: 2
#     Edge 32, Type (0, 0), BuildingBlock: XIVTED_clean_linker_0, # of connection points: 2
#     Edge 33, Type (0, 0), BuildingBlock: XIVTED_clean_linker_0, # of connection points: 2
#     Edge 34, Type (0, 0), BuildingBlock: XIVTED_clean_linker_0, # of connection points: 2
#     Edge 35, Type (0, 0), BuildingBlock: XIVTED_clean_linker_0, # of connection points: 2
#     Edge 36, Type (0, 0), BuildingBlock: XIVTED_clean_linker_0, # of connection points: 2
#     Edge 37, Type (0, 0), BuildingBlock: XIVTED_clean_linker_0, # of connection points: 2
#     Edge 38, Type (0, 0), BuildingBlock: XIVTED_clean_linker_0, # of connection points: 2
#     Edge 39, Type (0, 0), BuildingBlock: XIVTED_clean_linker_0, # of connection points: 2
#     Edge 40, Type (0, 0), BuildingBlock: XIVTED_clean_linker_0, # of connection points: 2
#     Edge 41, Type (0, 0), BuildingBlock: XIVTED_clean_linker_0, # of connection points: 2
# Relax obj value: 0.107
# Max RMSD: 0.150
# Mean RMSD: 0.150
data_MOF--net-wju--node1-XOMCOT_clean_sbu_0--edge1-XIVTED_clean_linker_0
_symmetry_space_group_name_H-M    P1
_symmetry_Int_Tables_number       1
_symmetry_cell_setting            triclinic
loop_
_symmetry_equiv_pos_as_xyz
'x, y, z'
_cell_length_a     28.111439
_cell_length_b     28.1188
_cell_length_c     103.39627
_cell_angle_alpha  90.343774
_cell_angle_beta   89.726288
_cell_angle_gamma 119.94299
loop_
_atom_site_label
_atom_site_type_symbol
_atom_site_fract_x
_atom_site_fract_y
_atom_site_fract_z
_atom_type_partial_charge
Co0 Co 0.29853 0.08891 0.09874 0.0
C1 C 0.2699 0.09319 0.1265 0.0
C2 C 0.28891 0.02926 0.12315 0.0
C3 C 0.27818 0.0302 0.13609 0.0
N4 N 0.28471 0.06941 0.11707 0.0
N5 N 0.26668 0.07069 0.13825 0.0
H6 H 0.26244 0.12686 0.12486 0.0
H7 H 0.30012 1.00142 0.1187 0.0
C8 C 0.18845 0.06449 0.08752 0.0
O9 O 0.21261 0.09141 0.07695 0.0
N10 N 0.3125 0.10611 0.08042 0.0
C11 C 0.34903 0.15386 0.07485 0.0
C12 C 0.35064 0.14522 0.06173 0.0
C13 C 0.29431 0.06883 0.07068 0.0
N14 N 0.31604 0.0916 0.0591 0.0
C15 C 0.36091 0.19078 0.11118 0.0
C16 C 0.32258 0.24999 0.09806 0.0
C17 C 0.36951 0.27803 0.10586 0.0
C18 C 0.38707 0.24729 0.11286 0.0
C19 C 0.29666 0.19267 0.09684 0.0
N20 N 0.31749 0.16407 0.10294 0.0
H21 H 0.37741 0.16849 0.11614 0.0
H22 H 0.26264 0.17249 0.09032 0.0
H23 H 0.37429 0.19198 0.07995 0.0
H24 H 0.26611 0.02561 0.07217 0.0
O25 O 0.37175 0.10144 0.10003 0.0
O26 O 0.29953 0.021 0.09517 0.0
O27 O 0.21662 0.06198 0.09694 0.0
C28 C 0.35263 0.05058 0.09686 0.0
H29 H 0.28109 0.00449 0.14343 0.0
H30 H 0.37598 0.17621 0.05476 0.0
H31 H 0.3074 0.27231 0.09257 0.0
H32 H 0.42326 0.26697 0.11892 0.0
Co33 Co 0.22636 0.31851 0.43207 0.0
C34 C 0.20069 0.3011 0.46056 0.0
C35 C 0.27608 0.30353 0.45583 0.0
C36 C 0.26907 0.29873 0.46899 0.0
N37 N 0.23386 0.30632 0.45043 0.0
N38 N 0.22203 0.29797 0.47203 0.0
H39 H 0.16243 0.30112 0.45964 0.0
H40 H 0.31064 0.30563 0.45071 0.0
C41 C 0.13838 0.2084 0.42126 0.0
O42 O 0.13448 0.23249 0.41083 0.0
N43 N 0.22156 0.3311 0.41376 0.0
C44 C 0.21116 0.36822 0.40822 0.0
C45 C 0.22013 0.36867 0.39507 0.0
C46 C 0.23874 0.31122 0.40396 0.0
N47 N 0.23744 0.33265 0.39239 0.0
C48 C 0.19092 0.38606 0.44379 0.0
C49 C 0.08933 0.34297 0.43227 0.0
C50 C 0.11024 0.39225 0.43931 0.0
C51 C 0.16082 0.41251 0.44547 0.0
C52 C 0.12061 0.31688 0.43103 0.0
N53 N 0.17177 0.33969 0.43637 0.0
H54 H 0.2309 0.40404 0.44824 0.0
H55 H 0.10465 0.28052 0.42519 0.0
H56 H 0.19993 0.39475 0.41338 0.0
H57 H 0.25128 0.28098 0.40536 0.0
O58 O 0.28827 0.39107 0.433 0.0
O59 O 0.29403 0.31736 0.42817 0.0
O60 O 0.17013 0.23669 0.43058 0.0
C61 C 0.3188 0.37058 0.42977 0.0
H62 H 0.29696 0.2964 0.47579 0.0
H63 H 0.21598 0.39498 0.38813 0.0
H64 H 0.05007 0.32578 0.42743 0.0
H65 H 0.17886 0.45058 0.45092 0.0
Co66 Co 0.89139 0.22801 0.7663 0.0
C67 C 0.87698 0.22836 0.79509 0.0
C68 C 0.96004 0.25574 0.78922 0.0
C69 C 0.95832 0.25715 0.80249 0.0
N70 N 0.90924 0.23788 0.78455 0.0
N71 N 0.90614 0.23979 0.8062 0.0
H72 H 0.83329 0.21323 0.79471 0.0
H73 H 0.99584 0.26614 0.78335 0.0
C74 C 0.9033 0.13122 0.75859 0.0
O75 O 0.85849 0.11303 0.75164 0.0
N76 N 0.87665 0.21928 0.74774 0.0
C77 C 0.82981 0.20373 0.74113 0.0
C78 C 0.84063 0.20567 0.72808 0.0
C79 C 0.9152 0.23068 0.73852 0.0
N80 N 0.89439 0.22272 0.72641 0.0
C81 C 0.77721 0.18665 0.76963 0.0
C82 C 0.74728 0.08439 0.7794 0.0
C83 C 0.70746 0.10027 0.77814 0.0
C84 C 0.72326 0.15218 0.77333 0.0
C85 C 0.80207 0.12132 0.77587 0.0
N86 N 0.81609 0.17112 0.77052 0.0
H87 H 0.78694 0.22595 0.76578 0.0
H88 H 0.83291 0.11012 0.77774 0.0
H89 H 0.79022 0.19203 0.7452 0.0
H90 H 0.95769 0.2442 0.7407 0.0
O91 O 0.87901 0.28928 0.76676 0.0
O92 O 0.9595 0.29671 0.7627 0.0
O93 O 0.92069 0.17522 0.76528 0.0
C94 C 0.93029 0.32073 0.76404 0.0
H95 H 0.99252 0.26817 0.80894 0.0
H96 H 0.81117 0.19642 0.72041 0.0
H97 H 0.73637 0.0445 0.78326 0.0
H98 H 0.69358 0.16572 0.77211 0.0
Co99 Co 0.66951 0.86948 0.09728 0.0
C100 C 0.65212 0.84915 0.12591 0.0
C101 C 0.71375 0.93137 0.12093 0.0
C102 C 0.70857 0.92807 0.13414 0.0
N103 N 0.67836 0.88222 0.11574 0.0
N104 N 0.66995 0.87653 0.13729 0.0
H105 H 0.62047 0.80653 0.12503 0.0
H106 H 0.7414 0.96736 0.11542 0.0
C107 C 0.77654 0.88157 0.0885 0.0
O108 O 0.7488 0.8405 0.08047 0.0
N109 N 0.66266 0.86067 0.0785 0.0
C110 C 0.62321 0.82067 0.07117 0.0
C111 C 0.63278 0.83603 0.05838 0.0
C112 C 0.69482 0.90025 0.06997 0.0
N113 N 0.67791 0.8862 0.05758 0.0
C114 C 0.59819 0.75423 0.09777 0.0
C115 C 0.67106 0.72246 0.10623 0.0
C116 C 0.61725 0.68238 0.10301 0.0
C117 C 0.5806 0.69895 0.09902 0.0
C118 C 0.68746 0.77831 0.10465 0.0
N119 N 0.6517 0.79343 0.09978 0.0
H120 H 0.56781 0.7649 0.0951 0.0
H121 H 0.72837 0.80895 0.10753 0.0
H122 H 0.58817 0.78373 0.07459 0.0
H123 H 0.7296 0.93896 0.0729 0.0
O124 O 0.59608 0.85663 0.09842 0.0
O125 O 0.66882 0.93836 0.0953 0.0
O126 O 0.75122 0.89784 0.09601 0.0
C127 C 0.61563 0.90845 0.09655 0.0
H128 H 0.73224 0.96085 0.14094 0.0
H129 H 0.60679 0.81267 0.05038 0.0
H130 H 0.69991 0.71081 0.10981 0.0
H131 H 0.5381 0.66913 0.09696 0.0
Co132 Co 0.81534 0.68902 0.42951 0.0
C133 C 0.81451 0.66678 0.45784 0.0
C134 C 0.79908 0.73259 0.45362 0.0
C135 C 0.79585 0.72493 0.46677 0.0
N136 N 0.81062 0.69621 0.44801 0.0
N137 N 0.80553 0.68363 0.46944 0.0
H138 H 0.82291 0.63345 0.45655 0.0
H139 H 0.79308 0.76251 0.44844 0.0
C140 C 0.90966 0.79658 0.42109 0.0
O141 O 0.9227 0.76931 0.4128 0.0
N142 N 0.81831 0.68331 0.41068 0.0
C143 C 0.82766 0.64916 0.40324 0.0
C144 C 0.82145 0.65803 0.39045 0.0
C145 C 0.80588 0.71194 0.40217 0.0
N146 N 0.80771 0.69751 0.38974 0.0
C147 C 0.8591 0.61751 0.43015 0.0
C148 C 0.96336 0.69045 0.43888 0.0
C149 C 0.94969 0.63653 0.43574 0.0
C150 C 0.89665 0.59982 0.43162 0.0
C151 C 0.92407 0.70691 0.4371 0.0
N152 N 0.87346 0.67112 0.43208 0.0
H153 H 0.81844 0.58743 0.42708 0.0
H154 H 0.93426 0.7479 0.43994 0.0
H155 H 0.83706 0.61864 0.40652 0.0
H156 H 0.79559 0.74271 0.40511 0.0
O157 O 0.7547 0.61556 0.4302 0.0
O158 O 0.74606 0.68877 0.42751 0.0
O159 O 0.86854 0.7708 0.42865 0.0
C160 C 0.72263 0.63551 0.42847 0.0
H161 H 0.78794 0.74864 0.47386 0.0
H162 H 0.825 0.63551 0.38234 0.0
H163 H 1.00373 0.71935 0.44256 0.0
H164 H 0.88412 0.55732 0.42954 0.0
Co165 Co 0.11423 0.81972 0.76342 0.0
C166 C 0.13427 0.82077 0.79212 0.0
C167 C 0.05447 0.80752 0.78713 0.0
C168 C 0.05827 0.80799 0.80034 0.0
N169 N 0.10194 0.81569 0.78193 0.0
N170 N 0.1084 0.81652 0.80353 0.0
H171 H 0.17572 0.82795 0.79124 0.0
H172 H 0.01964 0.80255 0.78162 0.0
C173 C 0.11014 0.92385 0.75842 0.0
O174 O 0.16041 0.94781 0.75387 0.0
N175 N 0.12289 0.82336 0.7445 0.0
C176 C 0.16331 0.86303 0.73727 0.0
C177 C 0.15022 0.85244 0.72439 0.0
C178 C 0.08529 0.78976 0.73569 0.0
N179 N 0.10102 0.80638 0.72337 0.0
C180 C 0.22669 0.85865 0.76062 0.0
C181 C 0.26833 0.94942 0.77664 0.0
C182 C 0.30452 0.93411 0.77101 0.0
C183 C 0.28249 0.88789 0.76298 0.0
C184 C 0.21161 0.91849 0.77394 0.0
N185 N 0.19166 0.87405 0.76581 0.0
H186 H 0.21134 0.82263 0.75454 0.0
H187 H 0.18374 0.92911 0.77866 0.0
H188 H 0.19941 0.89877 0.74093 0.0
H189 H 0.04652 0.75427 0.73819 0.0
O190 O 0.12497 0.75766 0.76414 0.0
O191 O 0.04395 0.75117 0.76169 0.0
O192 O 0.08728 0.87447 0.76253 0.0
C193 C 0.07268 0.72645 0.76268 0.0
H194 H 0.02714 0.80447 0.80709 0.0
H195 H 0.17416 0.87825 0.71643 0.0
H196 H 0.28352 0.98442 0.78309 0.0
H197 H 0.30799 0.87297 0.75878 0.0
Co198 Co 0.8768 0.6667 0.60085 0.0
C199 C 0.85669 0.64365 0.57225 0.0
C200 C 0.93856 0.70671 0.57705 0.0
C201 C 0.93513 0.7002 0.56387 0.0
N202 N 0.88966 0.67138 0.58235 0.0
N203 N 0.88375 0.66081 0.56082 0.0
H204 H 0.81412 0.61195 0.57318 0.0
H205 H 0.97429 0.73582 0.58245 0.0
C206 C 0.88163 0.7749 0.60586 0.0
O207 O 0.83278 0.74858 0.6112 0.0
N208 N 0.86744 0.66499 0.61975 0.0
C209 C 0.82417 0.65921 0.62679 0.0
C210 C 0.83785 0.66658 0.63968 0.0
C211 C 0.90718 0.677 0.62866 0.0
N212 N 0.89015 0.6779 0.64087 0.0
C213 C 0.76398 0.59261 0.60278 0.0
C214 C 0.72345 0.64508 0.58775 0.0
C215 C 0.68671 0.59348 0.59309 0.0
C216 C 0.70821 0.56736 0.60051 0.0
C217 C 0.78021 0.66949 0.59031 0.0
N218 N 0.79953 0.64356 0.59806 0.0
H219 H 0.77855 0.57104 0.60869 0.0
H220 H 0.8085 0.70827 0.58587 0.0
H221 H 0.7859 0.65331 0.62301 0.0
H222 H 0.94835 0.68622 0.62627 0.0
O223 O 0.86637 0.59392 0.60088 0.0
O224 O 0.9471 0.66875 0.60317 0.0
O225 O 0.90357 0.74833 0.60108 0.0
C226 C 0.91854 0.61526 0.60257 0.0
H227 H 0.96746 0.72407 0.557 0.0
H228 H 0.812 0.66648 0.64748 0.0
H229 H 0.70858 0.66619 0.5817 0.0
H230 H 0.68209 0.52682 0.60448 0.0
Co231 Co 0.2362 0.90621 0.93372 0.0
C232 C 0.21782 0.90199 0.905 0.0
C233 C 0.29404 0.972 0.91055 0.0
C234 C 0.29006 0.97127 0.89731 0.0
N235 N 0.24927 0.9279 0.91548 0.0
N236 N 0.24247 0.92684 0.89377 0.0
H237 H 0.17843 0.86477 0.90553 0.0
H238 H 0.32825 1.00281 0.91604 0.0
C239 C 0.14429 0.92544 0.943 0.0
O240 O 0.13683 0.89465 0.95314 0.0
N241 N 0.22576 0.88685 0.95197 0.0
C242 C 0.21119 0.83824 0.95757 0.0
C243 C 0.21574 0.84557 0.97084 0.0
C244 C 0.24086 0.92318 0.96186 0.0
N245 N 0.23457 0.8991 0.97349 0.0
C246 C 0.20635 0.80585 0.92154 0.0
C247 C 0.10047 0.74398 0.93067 0.0
C248 C 0.12535 0.71769 0.9243 0.0
C249 C 0.17803 0.74982 0.91925 0.0
C250 C 0.13052 0.80105 0.9327 0.0
N251 N 0.18375 0.83094 0.92858 0.0
H252 H 0.2476 0.82921 0.91779 0.0
H253 H 0.11161 0.81991 0.93809 0.0
H254 H 0.19987 0.80046 0.95244 0.0
H255 H 0.25554 0.96647 0.96055 0.0
O256 O 0.29841 0.89586 0.934 0.0
O257 O 0.3025 0.97473 0.93857 0.0
O258 O 0.17925 0.93133 0.93421 0.0
C259 C 0.32775 0.94643 0.93758 0.0
H260 H 0.32033 1.00127 0.89083 0.0
H261 H 0.20768 0.81428 0.97794 0.0
H262 H 0.05941 0.72043 0.93462 0.0
H263 H 0.1981 0.73153 0.91389 0.0
Co264 Co 0.31128 0.22075 0.26686 0.0
C265 C 0.28519 0.19308 0.23869 0.0
C266 C 0.29812 0.27298 0.24336 0.0
C267 C 0.28765 0.26404 0.23037 0.0
N268 N 0.29769 0.22897 0.24866 0.0
N269 N 0.28013 0.21407 0.22734 0.0
H270 H 0.2811 0.15293 0.23964 0.0
H271 H 0.3056 0.30975 0.24842 0.0
C272 C 0.20096 0.13272 0.27766 0.0
O273 O 0.2247 0.12872 0.28815 0.0
N274 N 0.32487 0.21516 0.28507 0.0
C275 C 0.36326 0.20601 0.29039 0.0
C276 C 0.3649 0.21552 0.30354 0.0
C277 C 0.30545 0.23216 0.295 0.0
N278 N 0.32843 0.23202 0.30644 0.0
C279 C 0.37529 0.18385 0.25393 0.0
C280 C 0.33762 0.08521 0.26652 0.0
C281 C 0.38483 0.10526 0.25874 0.0
C282 C 0.40216 0.15418 0.25202 0.0
C283 C 0.31102 0.11593 0.26798 0.0
N284 N 0.33135 0.16577 0.26211 0.0
H285 H 0.3916 0.22315 0.24922 0.0
H286 H 0.2768 0.10114 0.2745 0.0
H287 H 0.39009 0.19572 0.28505 0.0
H288 H 0.27475 0.24422 0.29377 0.0
O289 O 0.38419 0.28226 0.26583 0.0
O290 O 0.31117 0.2886 0.27113 0.0
O291 O 0.22948 0.16487 0.26844 0.0
C292 C 0.36431 0.31303 0.26937 0.0
H293 H 0.28571 0.29251 0.2237 0.0
H294 H 0.39253 0.21266 0.31033 0.0
H295 H 0.32268 0.04726 0.27182 0.0
H296 H 0.43859 0.17154 0.246 0.0
Co297 Co 0.09939 0.29721 0.60199 0.0
C298 C 0.11531 0.31088 0.57324 0.0
C299 C 0.0334 0.25097 0.57888 0.0
C300 C 0.03649 0.2515 0.56562 0.0
N301 N 0.08271 0.28791 0.58368 0.0
N302 N 0.08804 0.28889 0.56204 0.0
H303 H 0.1582 0.34201 0.57382 0.0
H304 H 0.99802 0.22402 0.58468 0.0
C305 C 0.089 0.1884 0.60886 0.0
O306 O 0.13591 0.21448 0.61504 0.0
N307 N 0.11311 0.30413 0.6207 0.0
C308 C 0.15981 0.31827 0.62728 0.0
C309 C 0.14913 0.31484 0.64035 0.0
C310 C 0.07459 0.29131 0.63004 0.0
N311 N 0.0955 0.2979 0.6421 0.0
C312 C 0.21378 0.36884 0.60054 0.0
C313 C 0.24342 0.30164 0.58746 0.0
C314 C 0.28317 0.35648 0.58995 0.0
C315 C 0.26773 0.38991 0.59657 0.0
C316 C 0.18875 0.28212 0.59141 0.0
N317 N 0.17479 0.3155 0.59815 0.0
H318 H 0.20367 0.39583 0.60581 0.0
H319 H 0.15765 0.24111 0.58868 0.0
H320 H 0.1988 0.32779 0.62315 0.0
H321 H 0.03181 0.27697 0.62806 0.0
O322 O 0.11245 0.37102 0.60126 0.0
O323 O 0.03121 0.29856 0.60497 0.0
O324 O 0.06985 0.21532 0.60308 0.0
C325 C 0.06087 0.35166 0.6036 0.0
H326 H 1.00387 0.22436 0.55916 0.0
H327 H 0.1784 0.32226 0.64795 0.0
H328 H 0.25422 0.27476 0.58228 0.0
H329 H 0.29754 0.43222 0.59884 0.0
Co330 Co 0.82406 0.12627 0.93691 0.0
C331 C 0.8223 0.14871 0.90861 0.0
C332 C 0.80284 0.06611 0.91271 0.0
C333 C 0.80004 0.07119 0.89958 0.0
N334 N 0.81667 0.11449 0.91839 0.0
N335 N 0.81237 0.12305 0.89698 0.0
H336 H 0.83317 0.19116 0.90993 0.0
H337 H 0.79554 0.0296 0.91782 0.0
C338 C 0.92031 0.11402 0.94381 0.0
O339 O 0.93543 0.15569 0.95176 0.0
N340 N 0.82985 0.13455 0.95579 0.0
C341 C 0.85313 0.1798 0.9634 0.0
C342 C 0.84522 0.16408 0.97617 0.0
C343 C 0.80887 0.09209 0.96421 0.0
N344 N 0.81721 0.10881 0.97672 0.0
C345 C 0.86707 0.24074 0.93692 0.0
C346 C 0.96337 0.27162 0.92358 0.0
C347 C 0.94804 0.31102 0.92644 0.0
C348 C 0.89975 0.29497 0.93336 0.0
C349 C 0.92872 0.21673 0.9273 0.0
N350 N 0.88144 0.20207 0.93408 0.0
H351 H 0.82968 0.23009 0.94208 0.0
H352 H 0.93864 0.18597 0.92419 0.0
H353 H 0.87566 0.22174 0.96025 0.0
H354 H 0.78839 0.04959 0.96118 0.0
O355 O 0.76392 0.14001 0.93697 0.0
O356 O 0.75435 0.05764 0.93918 0.0
O357 O 0.87712 0.09731 0.93694 0.0
C358 C 0.73145 0.08814 0.93867 0.0
H359 H 0.79108 0.03951 0.89244 0.0
H360 H 0.85876 0.19169 0.98439 0.0
H361 H 1.00038 0.28267 0.91811 0.0
H362 H 0.88689 0.32425 0.93597 0.0
Co363 Co 0.68207 0.81013 0.26936 0.0
C364 C 0.66263 0.80922 0.24082 0.0
C365 C 0.72788 0.79373 0.2457 0.0
C366 C 0.72168 0.79033 0.23251 0.0
N367 N 0.69093 0.80537 0.25093 0.0
N368 N 0.68074 0.80002 0.22942 0.0
H369 H 0.62924 0.81773 0.24177 0.0
H370 H 0.7572 0.78776 0.25116 0.0
C371 C 0.7888 0.90515 0.27814 0.0
O372 O 0.76075 0.91811 0.2862 0.0
N373 N 0.67495 0.81309 0.28812 0.0
C374 C 0.63803 0.81886 0.29536 0.0
C375 C 0.6468 0.81335 0.30821 0.0
C376 C 0.70494 0.80321 0.29678 0.0
N377 N 0.68892 0.80346 0.30914 0.0
C378 C 0.60988 0.85321 0.26823 0.0
C379 C 0.68305 0.95785 0.25984 0.0
C380 C 0.6288 0.94381 0.2627 0.0
C381 C 0.592 0.89062 0.26666 0.0
C382 C 0.69965 0.91868 0.26169 0.0
N383 N 0.66371 0.86784 0.26654 0.0
H384 H 0.57967 0.81232 0.27109 0.0
H385 H 0.74093 0.92921 0.25904 0.0
H386 H 0.6055 0.82488 0.29186 0.0
H387 H 0.73777 0.79573 0.29399 0.0
O388 O 0.60885 0.74899 0.26839 0.0
O389 O 0.68225 0.74113 0.27159 0.0
O390 O 0.76376 0.86388 0.27056 0.0
C391 C 0.62902 0.71726 0.27038 0.0
H392 H 0.74614 0.7823 0.22567 0.0
H393 H 0.6224 0.81452 0.3162 0.0
H394 H 0.71212 0.99841 0.25632 0.0
H395 H 0.54932 0.87791 0.26856 0.0
H396 H 0.37671 0.1287 0.0369 0.0
H397 H 0.18612 0.85445 0.9965 0.0
H398 H 0.23029 0.9908 0.05252 0.0
H399 H 0.31105 0.00458 0.97916 0.0
H400 H 0.2064 0.90098 0.01755 0.0
H401 H 0.35725 0.08159 1.01608 0.0
C402 C 0.34038 0.08872 0.03602 0.0
C403 C 0.30527 0.06402 0.04665 0.0
C404 C 0.22934 0.92375 1.00913 0.0
C405 C 0.28313 0.00922 0.02268 0.0
C406 C 0.218 0.89708 0.99712 0.0
C407 C 0.24674 0.92564 0.98601 0.0
C408 C 0.27015 0.97931 1.01009 0.0
C409 C 0.28729 0.9811 0.9874 0.0
C410 C 0.32941 0.06167 0.02408 0.0
C411 C 0.2592 0.01152 0.04478 0.0
N412 N 0.29786 0.006 0.9992 0.0
N413 N 0.2496 0.98597 0.03308 0.0
H414 H 0.20869 0.35128 0.36858 0.0
H415 H 0.35028 0.20595 0.33022 0.0
H416 H 0.29951 0.28465 0.38733 0.0
H417 H 0.28094 0.29443 0.31156 0.0
H418 H 0.32985 0.23196 0.35122 0.0
H419 H 0.23249 0.32839 0.34765 0.0
C420 C 0.23389 0.3322 0.36836 0.0
C421 C 0.2519 0.31996 0.37988 0.0
C422 C 0.31918 0.24571 0.34251 0.0
C423 C 0.27881 0.29279 0.35576 0.0
C424 C 0.33108 0.23105 0.33048 0.0
C425 C 0.31728 0.24772 0.31897 0.0
C426 C 0.29304 0.27718 0.34313 0.0
C427 C 0.29167 0.27967 0.32005 0.0
C428 C 0.24728 0.31885 0.35635 0.0
C429 C 0.28383 0.2943 0.37883 0.0
N430 N 0.28035 0.29318 0.33187 0.0
N431 N 0.2961 0.28153 0.36702 0.0
H432 H 0.85153 0.17635 0.70304 0.0
H433 H 0.1387 0.34235 0.66558 0.0
H434 H 1.00365 0.29023 0.72176 0.0
H435 H 0.98631 0.22967 0.64679 0.0
H436 H 0.09021 0.32302 0.68622 0.0
H437 H 0.90022 0.19479 0.68244 0.0
C438 C 0.89512 0.20541 0.70285 0.0
C439 C 0.9233 0.23191 0.71423 0.0
C440 C 0.06733 0.30249 0.67759 0.0
C441 C 0.9797 0.25294 0.69054 0.0
C442 C 0.0951 0.31332 0.66577 0.0
C443 C 0.06677 0.28754 0.65434 0.0
C444 C 0.01059 0.26549 0.67809 0.0
C445 C 0.00994 0.25103 0.65525 0.0
C446 C 0.92301 0.21574 0.69105 0.0
C447 C 0.98013 0.26839 0.71333 0.0
N448 N 0.98384 0.24106 0.66689 0.0
N449 N 0.00633 0.2779 0.70171 0.0
H450 H 0.73772 1.00085 0.97863 0.0
H451 H 0.75012 0.99658 0.05585 0.0
H452 H 0.85417 0.13909 1.00147 0.0
H453 H 0.659 0.85073 0.03249 0.0
H454 H 0.78618 0.05014 0.03613 0.0
H455 H 0.70598 0.94607 0.99828 0.0
C456 C 0.75707 0.01981 0.9877 0.0
C457 C 0.79887 0.07514 0.98825 0.0
C458 C 0.75835 0.00635 0.03534 0.0
C459 C 0.76169 0.01229 1.01097 0.0
C460 C 0.73778 0.97549 0.04664 0.0
C461 C 0.70094 0.91864 0.04598 0.0
C462 C 0.74191 0.9805 0.02321 0.0
C463 C 0.68636 0.89435 0.03362 0.0
C464 C 0.73861 0.98839 0.99897 0.0
C465 C 0.8214 0.09711 1.00046 0.0
N466 N 0.70665 0.92535 0.02278 0.0
N467 N 0.80243 0.06577 1.01129 0.0
H468 H 0.67777 0.83074 0.33388 0.0
H469 H 0.83947 0.69253 0.36507 0.0
H470 H 0.7485 0.75131 0.31145 0.0
H471 H 0.74688 0.74839 0.38758 0.0
H472 H 0.81322 0.72103 0.34543 0.0
H473 H 0.70924 0.80802 0.3536 0.0
C474 C 0.69971 0.80838 0.33304 0.0
C475 C 0.70988 0.7926 0.32087 0.0
C476 C 0.7987 0.72715 0.35466 0.0
C477 C 0.74694 0.76705 0.34358 0.0
C478 C 0.81348 0.7106 0.36593 0.0
C479 C 0.795 0.7174 0.3781 0.0
C480 C 0.76526 0.75103 0.35547 0.0
C481 C 0.76247 0.74247 0.3785 0.0
C482 C 0.71795 0.79564 0.34436 0.0
C483 C 0.73981 0.76476 0.32052 0.0
N484 N 0.74852 0.75814 0.36736 0.0
N485 N 0.75707 0.75279 0.33169 0.0
H486 H 0.99013 0.7406 0.7208 0.0
H487 H 1.00157 0.73859 0.64341 0.0
H488 H 0.14107 0.81816 0.69886 0.0
H489 H 0.85183 0.65059 0.66549 0.0
H490 H 0.05356 0.7659 0.66357 0.0
H491 H 0.93912 0.70513 0.70069 0.0
C492 C 0.01276 0.74983 0.71181 0.0
C493 C 0.07024 0.78282 0.71161 0.0
C494 C 0.00932 0.74043 0.664 0.0
C495 C 0.01161 0.74271 0.6884 0.0
C496 C 0.97951 0.72448 0.65245 0.0
C497 C 0.92195 0.69234 0.65267 0.0
C498 C 0.98152 0.72429 0.67591 0.0
C499 C 0.89592 0.67611 0.66479 0.0
C500 C 0.98345 0.72975 0.70028 0.0
C501 C 0.09686 0.79379 0.69953 0.0
N502 N 0.92581 0.6924 0.67588 0.0
N503 N 0.06739 0.77401 0.68845 0.0
H504 H 0.50447 0.84936 0.09619 0.0
H505 H 0.46371 0.11001 0.09621 0.0
H506 H 0.63939 0.01609 0.0947 0.0
H507 H 0.32909 0.94321 0.09439 0.0
H508 H 0.52825 0.07644 0.09515 0.0
H509 H 0.44016 0.88307 0.09511 0.0
C510 C 0.5207 0.89326 0.09563 0.0
C511 C 0.57756 0.93011 0.09562 0.0
C512 C 0.48469 0.04707 0.09492 0.0
C513 C 0.50354 0.96895 0.09437 0.0
C514 C 0.44763 0.06614 0.09556 0.0
C515 C 0.3908 0.0292 0.09549 0.0
C516 C 0.46498 0.99051 0.09428 0.0
C517 C 0.37253 0.973 0.0945 0.0
C518 C 0.48374 0.9124 0.09498 0.0
C519 C 0.59594 0.98634 0.09478 0.0
N520 N 0.40961 0.95529 0.09402 0.0
N521 N 0.55894 0.00412 0.09425 0.0
H522 H 0.40073 0.34439 0.42688 0.0
H523 H 0.63997 0.66077 0.42653 0.0
H524 H 0.37213 0.48151 0.42887 0.0
H525 H 0.66949 0.52425 0.42812 0.0
H526 H 0.54101 0.59531 0.42553 0.0
H527 H 0.49981 0.40958 0.42539 0.0
C528 C 0.41526 0.38804 0.42692 0.0
C529 C 0.37834 0.40756 0.42812 0.0
C530 C 0.56929 0.57979 0.42607 0.0
C531 C 0.49088 0.4821 0.42643 0.0
C532 C 0.62566 0.61717 0.42663 0.0
C533 C 0.66287 0.59797 0.42751 0.0
C534 C 0.5503 0.52299 0.42634 0.0
C535 C 0.64223 0.54096 0.42756 0.0
C536 C 0.47167 0.42525 0.4261 0.0
C537 C 0.39919 0.46458 0.42811 0.0
N538 N 0.58742 0.50556 0.42702 0.0
N539 N 0.45395 0.49975 0.42732 0.0
H540 H 0.96376 0.64457 0.76157 0.0
H541 H 0.03788 0.40261 0.76081 0.0
H542 H 0.12892 0.67135 0.76199 0.0
H543 H 0.87283 0.37483 0.76418 0.0
H544 H 0.07187 0.50162 0.75955 0.0
H545 H 0.9288 0.54507 0.76092 0.0
C546 C 0.99255 0.62958 0.76149 0.0
C547 C 0.04921 0.66627 0.76192 0.0
C548 C 0.02817 0.47374 0.76053 0.0
C549 C 0.0099 0.55304 0.76113 0.0
C550 C 0.00887 0.41729 0.76123 0.0
C551 C 0.95259 0.3805 0.76268 0.0
C552 C 0.99085 0.49335 0.76125 0.0
C553 C 0.91668 0.40173 0.76315 0.0
C554 C 0.97271 0.57289 0.76113 0.0
C555 C 0.08482 0.64466 0.76176 0.0
N556 N 0.93638 0.45662 0.76247 0.0
N557 N 0.06462 0.58966 0.7614 0.0
H558 H 0.9534 0.32681 0.60665 0.0
H559 H 0.02757 0.64244 0.60363 0.0
H560 H 0.11849 0.4631 0.60277 0.0
H561 H 0.86245 0.50438 0.60442 0.0
H562 H 0.06266 0.57805 0.60486 0.0
H563 H 0.91956 0.39211 0.6074 0.0
C564 C 0.98245 0.37036 0.606 0.0
C565 C 0.03869 0.38945 0.60457 0.0
C566 C 0.01873 0.56202 0.60479 0.0
C567 C 1.0006 0.4644 0.60542 0.0
C568 C 0.99882 0.59878 0.60411 0.0
C569 C 0.94213 0.5788 0.60383 0.0
C570 C 0.98157 0.50508 0.60525 0.0
C571 C 0.90657 0.52174 0.6045 0.0
C572 C 0.96323 0.40767 0.60642 0.0
C573 C 0.07466 0.44644 0.6038 0.0
N574 N 0.92683 0.48703 0.60515 0.0
N575 N 0.05503 0.4818 0.60421 0.0
H576 H 0.68007 0.148 0.93933 0.0
H577 H 0.37875 0.88806 0.94175 0.0
H578 H 0.64738 0.98097 0.94122 0.0
H579 H 0.41085 0.05461 0.93895 0.0
H580 H 0.47664 0.92202 0.94349 0.0
H581 H 0.5823 0.11506 0.94088 0.0
C582 C 0.65227 0.1042 0.94009 0.0
C583 C 0.67195 0.06702 0.94003 0.0
C584 C 0.46251 0.95131 0.94257 0.0
C585 C 0.55939 0.0291 0.94185 0.0
C586 C 0.40652 0.93201 0.94157 0.0
C587 C 0.38672 0.96869 0.94005 0.0
C588 C 0.49934 0.00782 0.94199 0.0
C589 C 0.42449 0.02504 0.94008 0.0
C590 C 0.59632 0.08552 0.94101 0.0
C591 C 0.63394 0.01096 0.94115 0.0
N592 N 0.47922 0.04294 0.9409 0.0
N593 N 0.57932 0.99364 0.94195 0.0
H594 H 0.33859 0.39501 0.27272 0.0
H595 H 0.65485 0.63494 0.27241 0.0
H596 H 0.47551 0.36639 0.26982 0.0
H597 H 0.51772 0.66354 0.27076 0.0
H598 H 0.58971 0.53587 0.27348 0.0
H599 H 0.40385 0.49403 0.27415 0.0
C600 C 0.38224 0.40952 0.27247 0.0
C601 C 0.40163 0.37258 0.27103 0.0
C602 C 0.57401 0.56398 0.27291 0.0
C603 C 0.47634 0.4852 0.27265 0.0
C604 C 0.61119 0.62042 0.27231 0.0
C605 C 0.59173 0.65743 0.27139 0.0
C606 C 0.51713 0.54471 0.27266 0.0
C607 C 0.53466 0.63647 0.27135 0.0
C608 C 0.41949 0.46593 0.27324 0.0
C609 C 0.45867 0.39347 0.27078 0.0
N610 N 0.49947 0.58164 0.27195 0.0
N611 N 0.49393 0.44827 0.27153 0.0
H612 H 0.23708 0.10614 0.22057 0.0
H613 H 0.29086 0.17418 0.14487 0.0
H614 H 0.30693 0.26881 0.20445 0.0
H615 H 0.22845 0.01155 0.16039 0.0
H616 H 0.28895 0.20776 0.16658 0.0
H617 H 0.22772 0.06917 0.19862 0.0
C618 C 0.25041 0.13414 0.21248 0.0
C619 C 0.27269 0.19081 0.21448 0.0
C620 C 0.27534 0.16461 0.16524 0.0
C621 C 0.26165 0.14862 0.18927 0.0
C622 C 0.27597 0.1453 0.15279 0.0
C623 C 0.26014 0.08995 0.15076 0.0
C624 C 0.25877 0.12841 0.17579 0.0
C625 C 0.24192 0.0547 0.1615 0.0
C626 C 0.24479 0.11294 0.19993 0.0
C627 C 0.28867 0.22485 0.20351 0.0
N628 N 0.24201 0.07455 0.17354 0.0
N629 N 0.28295 0.20328 0.19146 0.0
H630 H 0.11725 0.26765 0.47937 0.0
H631 H 0.19377 0.32475 0.55464 0.0
H632 H 0.28124 0.33129 0.49432 0.0
H633 H 0.032 0.27222 0.53958 0.0
H634 H 0.2272 0.33026 0.53252 0.0
H635 H 0.08542 0.27064 0.50126 0.0
C636 C 0.14665 0.28237 0.4872 0.0
C637 C 0.20204 0.29879 0.48491 0.0
C638 C 0.18442 0.31778 0.53405 0.0
C639 C 0.16572 0.3021 0.51009 0.0
C640 C 0.16539 0.31505 0.5467 0.0
C641 C 0.10981 0.29758 0.54903 0.0
C642 C 0.14767 0.30288 0.52362 0.0
C643 C 0.07491 0.2849 0.53829 0.0
C644 C 0.12839 0.28395 0.49973 0.0
C645 C 0.23801 0.31709 0.49555 0.0
N646 N 0.0943 0.28751 0.5261 0.0
N647 N 0.21924 0.31814 0.50763 0.0
H648 H 0.96004 0.29872 0.8274 0.0
H649 H 0.75076 0.07159 0.87598 0.0
H650 H 0.80739 0.15952 0.8151 0.0
H651 H 0.88625 0.22578 0.88883 0.0
H652 H 0.76769 0.10552 0.85377 0.0
H653 H 0.9313 0.27576 0.84994 0.0
C654 C 0.92023 0.26354 0.82946 0.0
C655 C 0.88629 0.23067 0.81936 0.0
C656 C 0.79338 0.1323 0.86143 0.0
C657 C 0.85312 0.20385 0.84519 0.0
C658 C 0.78382 0.11285 0.87411 0.0
C659 C 0.81749 0.14574 0.88424 0.0
C660 C 0.83753 0.18488 0.85877 0.0
C661 C 0.85928 0.19918 0.88131 0.0
C662 C 0.90372 0.25056 0.84233 0.0
C663 C 0.83475 0.18604 0.82258 0.0
N664 N 0.86863 0.21681 0.86882 0.0
N665 N 0.82007 0.1735 0.83521 0.0
H666 H 0.6469 0.777 0.14652 0.0
H667 H 0.64649 0.86833 0.22029 0.0
H668 H 0.65935 0.93057 0.15777 0.0
H669 H 0.6758 0.73744 0.20893 0.0
H670 H 0.62998 0.88 0.19751 0.0
H671 H 0.63622 0.75029 0.16943 0.0
C672 C 0.64622 0.80452 0.1538 0.0
C673 C 0.65464 0.85627 0.1503 0.0
C674 C 0.63939 0.84829 0.20004 0.0
C675 C 0.64279 0.82641 0.17644 0.0
C676 C 0.64843 0.84143 0.21303 0.0
C677 C 0.66322 0.80237 0.21646 0.0
C678 C 0.64466 0.81546 0.19044 0.0
C679 C 0.6655 0.76873 0.20666 0.0
C680 C 0.64056 0.78954 0.16686 0.0
C681 C 0.65384 0.89066 0.16011 0.0
N682 N 0.65671 0.77625 0.19411 0.0
N683 N 0.64845 0.87533 0.17271 0.0
H684 H 0.8731 0.64705 0.47777 0.0
H685 H 0.78401 0.63914 0.55201 0.0
H686 H 0.74406 0.67727 0.49029 0.0
H687 H 0.93637 0.65074 0.53999 0.0
H688 H 0.75672 0.63137 0.52919 0.0
H689 H 0.8848 0.62701 0.50025 0.0
C690 C 0.84662 0.6485 0.48522 0.0
C691 C 0.80807 0.66454 0.4822 0.0
C692 C 0.79579 0.6348 0.53157 0.0
C693 C 0.82119 0.64188 0.5079 0.0
C694 C 0.81107 0.63874 0.54458 0.0
C695 C 0.86269 0.64611 0.54785 0.0
C696 C 0.83222 0.63776 0.52179 0.0
C697 C 0.89654 0.64587 0.53784 0.0
C698 C 0.85349 0.63742 0.49805 0.0
C699 C 0.77497 0.66608 0.49224 0.0
N700 N 0.88094 0.64222 0.52528 0.0
N701 N 0.78248 0.65528 0.50463 0.0
H702 H 0.30549 0.95356 0.87196 0.0
H703 H 0.05128 0.77057 0.82547 0.0
H704 H 0.13834 0.85614 0.88541 0.0
H705 H 0.21422 0.88194 0.81134 0.0
H706 H 0.0847 0.7945 0.84761 0.0
H707 H 0.27467 0.92233 0.84998 0.0
C708 C 0.2622 0.92595 0.87035 0.0
C709 C 0.22446 0.90807 0.88068 0.0
C710 C 0.11333 0.81354 0.8397 0.0
C711 C 0.18901 0.87111 0.85533 0.0
C712 C 0.09425 0.79992 0.82703 0.0
C713 C 0.12985 0.82479 0.81651 0.0
C714 C 0.16858 0.85246 0.84195 0.0
C715 C 0.18538 0.86165 0.81914 0.0
C716 C 0.24473 0.90775 0.85774 0.0
C717 C 0.1691 0.87099 0.87786 0.0
N718 N 0.20295 0.87474 0.8316 0.0
N719 N 0.1531 0.85393 0.86548 0.0
H720 H 0.59655 0.61978 0.12467 0.0
H721 H 0.40033 0.34571 0.08489 0.0
H722 H 0.58598 0.61052 0.08311 0.0
H723 H 0.42013 0.34816 0.12629 0.0
H724 H 0.4684 0.44331 0.08424 0.0
H725 H 0.5363 0.51966 0.12568 0.0
C726 C 0.5831 0.59627 0.11577 0.0
C727 C 0.59651 0.6229 0.10379 0.0
C728 C 0.45779 0.42263 0.09349 0.0
C729 C 0.52612 0.50945 0.10481 0.0
C730 C 0.41825 0.36703 0.09388 0.0
C731 C 0.40435 0.33874 0.10566 0.0
C732 C 0.48363 0.45038 0.10497 0.0
C733 C 0.4299 0.36833 0.11698 0.0
C734 C 0.54808 0.53938 0.11632 0.0
C735 C 0.57688 0.59112 0.09251 0.0
N736 N 0.46834 0.42249 0.11636 0.0
N737 N 0.54222 0.53618 0.0933 0.0
H738 H 0.06689 0.41683 0.41858 0.0
H739 H 0.99306 0.61833 0.4575 0.0
H740 H 0.09533 0.44718 0.45954 0.0
H741 H 0.98936 0.60346 0.41598 0.0
H742 H 0.03377 0.55875 0.45874 0.0
H743 H 0.03603 0.48393 0.41775 0.0
C744 C 0.06565 0.43689 0.42745 0.0
C745 C 0.08353 0.4263 0.43914 0.0
C746 C 0.0251 0.56946 0.44934 0.0
C747 C 0.04965 0.50436 0.43824 0.0
C748 C 1.00271 0.60405 0.44865 0.0
C749 C 0.98855 0.61597 0.43662 0.0
C750 C 0.03255 0.54644 0.43792 0.0
C751 C 1.0003 0.59541 0.42542 0.0
C752 C 0.04884 0.47586 0.42694 0.0
C753 C 0.08214 0.4544 0.4503 0.0
N754 N 0.02103 0.56116 0.42635 0.0
N755 N 0.06557 0.4922 0.44958 0.0
H756 H 0.35989 0.97616 0.7941 0.0
H757 H 0.6376 0.0075 0.76509 0.0
H758 H 0.38671 0.95774 0.75368 0.0
H759 H 0.64341 0.11279 0.79621 0.0
H760 H 0.53734 0.96539 0.76462 0.0
H761 H 0.45818 0.00993 0.79812 0.0
C762 C 0.38636 0.97982 0.78607 0.0
C763 C 0.36473 0.96329 0.77356 0.0
C764 C 0.56051 0.99684 0.77176 0.0
C765 C 0.47581 0.99935 0.77819 0.0
C766 C 0.61748 0.02013 0.77216 0.0
C767 C 0.64845 0.06327 0.78074 0.0
C768 C 0.53446 0.01666 0.78005 0.0
C769 C 0.6206 0.07924 0.78952 0.0
C770 C 0.44212 0.99838 0.7884 0.0
C771 C 0.40103 0.96858 0.76354 0.0
N772 N 0.56504 0.05623 0.7889 0.0
N773 N 0.45436 0.98534 0.7661 0.0
H774 H 0.62823 0.58 0.57053 0.0
H775 H 0.35706 0.33493 0.60124 0.0
H776 H 0.60717 0.53969 0.61114 0.0
H777 H 0.34215 0.43526 0.57203 0.0
H778 H 0.45713 0.39451 0.60064 0.0
H779 H 0.5289 0.51646 0.56737 0.0
C780 C 0.60276 0.55857 0.57878 0.0
C781 C 0.62622 0.56452 0.59108 0.0
C782 C 0.43197 0.40266 0.59413 0.0
C783 C 0.5142 0.49071 0.58743 0.0
C784 C 0.37512 0.36822 0.59434 0.0
C785 C 0.34174 0.3801 0.5866 0.0
C786 C 0.45545 0.44898 0.58607 0.0
C787 C 0.36692 0.42468 0.57804 0.0
C788 C 0.54645 0.52197 0.57694 0.0
C789 C 0.59126 0.53544 0.60142 0.0
N790 N 0.42248 0.45794 0.57804 0.0
N791 N 0.53744 0.49929 0.59933 0.0
H792 H 0.01922 0.64221 0.91752 0.0
H793 H 0.05705 0.3831 0.93084 0.0
H794 H 0.17246 0.65557 0.92931 0.0
H795 H 0.91203 0.3711 0.91364 0.0
H796 H 0.10268 0.48336 0.929 0.0
H797 H 0.97953 0.54245 0.9156 0.0
C798 C 0.04435 0.6241 0.91974 0.0
C799 C 0.09918 0.65712 0.92351 0.0
C800 C 0.06114 0.45874 0.92544 0.0
C801 C 0.05455 0.5435 0.92126 0.0
C802 C 0.03545 0.40158 0.92636 0.0
C803 C 0.98071 0.36913 0.9225 0.0
C804 C 0.03157 0.48323 0.92071 0.0
C805 C 0.95417 0.39497 0.91688 0.0
C806 C 0.02197 0.56732 0.91853 0.0
C807 C 0.13018 0.63165 0.9262 0.0
N808 N 0.97954 0.4505 0.91632 0.0
N809 N 0.10742 0.57646 0.92506 0.0
H810 H 0.6025 0.98923 0.28252 0.0
H811 H 0.43509 0.08684 0.23801 0.0
H812 H 0.6034 0.98111 0.24093 0.0
H813 H 0.41662 0.06779 0.27941 0.0
H814 H 0.50296 0.05643 0.23866 0.0
H815 H 0.54412 0.03065 0.28139 0.0
C816 C 0.59171 0.99795 0.27313 0.0
C817 C 0.60821 0.98266 0.2618 0.0
C818 C 0.48383 0.05864 0.24758 0.0
C819 C 0.53961 0.0278 0.26038 0.0
C820 C 0.44497 0.07577 0.24722 0.0
C821 C 0.41994 0.0796 0.25867 0.0
C822 C 0.49818 0.04572 0.25951 0.0
C823 C 0.43419 0.06466 0.27033 0.0
C824 C 0.55774 0.02077 0.27248 0.0
C825 C 0.59218 0.99337 0.24986 0.0
N826 N 0.47254 0.04871 0.27045 0.0
N827 N 0.55824 0.01489 0.24945 0.0
H828 H 0.11752 0.03057 0.0673 0.0
H829 H 0.84615 0.94453 0.10801 0.0
H830 H 0.12081 0.03383 0.10903 0.0
H831 H 0.84517 0.8787 0.07015 0.0
H832 H 0.94679 0.98762 0.10839 0.0
H833 H 0.01768 0.98536 0.06795 0.0
C834 C 0.09723 0.02188 0.07663 0.0
C835 C 0.12766 0.03611 0.08814 0.0
C836 C 0.92436 0.96354 0.10005 0.0
C837 C 0.01283 0.98449 0.08892 0.0
C838 C 0.86706 0.93922 0.09978 0.0
C839 C 0.83721 0.90799 0.08901 0.0
C840 C 0.95197 0.95748 0.08937 0.0
C841 C 0.86639 0.90222 0.07866 0.0
C842 C 0.04012 0.99579 0.07698 0.0
C843 C 0.0989 0.02337 0.09993 0.0
N844 N 0.92206 0.92707 0.07905 0.0
N845 N 0.04298 0.99866 0.10003 0.0
H846 H 0.10004 0.13778 0.40095 0.0
H847 H 0.91702 0.86543 0.44101 0.0
H848 H 0.10292 0.14044 0.44268 0.0
H849 H 0.98055 0.86591 0.4029 0.0
H850 H 0.97463 0.96606 0.44174 0.0
H851 H 0.04555 0.03804 0.40138 0.0
C852 C 0.08907 0.11736 0.41023 0.0
C853 C 0.10605 0.14761 0.4218 0.0
C854 C 0.97598 0.94393 0.43327 0.0
C855 C 0.04297 0.03279 0.42233 0.0
C856 C 0.94296 0.88664 0.4328 0.0
C857 C 0.94392 0.85721 0.42186 0.0
C858 C 0.00924 0.97192 0.42262 0.0
C859 C 0.97854 0.88678 0.41154 0.0
C860 C 0.05814 0.0603 0.41045 0.0
C861 C 0.09085 0.11867 0.43353 0.0
N862 N 0.00936 0.94239 0.41214 0.0
N863 N 0.05967 0.06275 0.43351 0.0
H864 H 0.86421 0.02334 0.75203 0.0
H865 H 0.15254 0.03519 0.75748 0.0
H866 H 0.00965 0.16703 0.76596 0.0
H867 H 0.99883 0.88303 0.76037 0.0
H868 H 0.10214 0.08544 0.75797 0.0
H869 H 0.91397 0.97239 0.75242 0.0
C870 C 0.90662 0.04423 0.75516 0.0
C871 C 0.93276 0.09962 0.75897 0.0
C872 C 0.07948 0.04107 0.75853 0.0
C873 C 0.99013 0.04157 0.75929 0.0
C874 C 0.10818 0.0123 0.7582 0.0
C875 C 0.07991 0.95472 0.75888 0.0
C876 C 0.02191 0.01215 0.75929 0.0
C877 C 0.02237 0.92737 0.75986 0.0
C878 C 0.93489 0.01502 0.75543 0.0
C879 C 0.98776 0.12439 0.76299 0.0
N880 N 0.99526 0.95626 0.75993 0.0
N881 N 0.01472 0.09537 0.76293 0.0
H882 H 0.83943 0.84369 0.60849 0.0
H883 H 0.12896 0.11878 0.61343 0.0
H884 H 0.99236 0.8453 0.6028 0.0
H885 H 0.98105 0.11892 0.60255 0.0
H886 H 0.07894 0.01828 0.61214 0.0
H887 H 0.88984 0.94424 0.60881 0.0
C888 C 0.88361 0.86515 0.60729 0.0
C889 C 0.91167 0.83591 0.60561 0.0
C890 C 0.05752 0.04036 0.61 0.0
C891 C 0.96972 0.95118 0.60615 0.0
C892 C 0.08595 0.09773 0.6108 0.0
C893 C 0.05919 0.12744 0.6081 0.0
C894 C 1.00159 0.01227 0.60672 0.0
C895 C 1.00342 0.0978 0.60468 0.0
C896 C 0.91231 0.92257 0.60744 0.0
C897 C 0.96899 0.86608 0.60407 0.0
N898 N 0.9764 0.04192 0.60419 0.0
N899 N 0.99615 0.922 0.6045 0.0
H900 H 0.92407 0.04983 0.924 0.0
H901 H 0.10602 0.95797 0.96326 0.0
H902 H 0.99385 0.11711 0.96134 0.0
H903 H 0.11135 0.96043 0.92155 0.0
H904 H 0.05291 0.00478 0.96286 0.0
H905 H 0.98101 0.00585 0.92296 0.0
C906 C 0.95123 0.05529 0.93197 0.0
C907 C 0.95413 0.08713 0.9428 0.0
C908 C 0.06574 0.99527 0.95378 0.0
C909 C 0.01858 0.03665 0.9417 0.0
C910 C 0.09588 0.96826 0.95398 0.0
C911 C 0.11314 0.95516 0.94241 0.0
C912 C 0.05153 0.0086 0.94191 0.0
C913 C 0.09904 0.97 0.93069 0.0
C914 C 0.98387 0.03051 0.93132 0.0
C915 C 0.9903 0.09311 0.9528 0.0
N916 N 0.06848 0.99552 0.93072 0.0
N917 N 0.02059 0.06773 0.95206 0.0
H918 H 0.13452 0.09936 0.25599 0.0
H919 H 0.8565 0.97475 0.29677 0.0
H920 H 0.12884 0.09203 0.29768 0.0
H921 H 0.8594 0.9142 0.2585 0.0
H922 H 0.95649 0.03106 0.29614 0.0
H923 H 0.03341 0.04373 0.25559 0.0
C924 C 0.11209 0.08628 0.26503 0.0
C925 C 0.14018 0.10017 0.27689 0.0
C926 C 0.93527 0.00547 0.28787 0.0
C927 C 0.02516 0.03756 0.27649 0.0
C928 C 0.87815 0.97343 0.28821 0.0
C929 C 0.84951 0.93952 0.2777 0.0
C930 C 0.96422 0.0045 0.27686 0.0
C931 C 0.87991 0.93947 0.26686 0.0
C932 C 0.05458 0.05441 0.26479 0.0
C933 C 0.10907 0.082 0.28831 0.0
N934 N 0.93567 0.97173 0.26668 0.0
N935 N 0.05344 0.05207 0.28783 0.0
loop_
_geom_bond_atom_site_label_1
_geom_bond_atom_site_label_2
_geom_bond_distance
_geom_bond_site_symmetry_2
_ccdc_geom_bond_type
Co0 N4 2.148 . S
Co0 N10 2.128 . S
Co0 N20 2.194 . S
Co0 O25 2.351 . S
Co0 O26 2.155 . S
Co0 O27 2.096 . S
C1 N4 1.301 . S
C1 N5 1.328 . S
C1 H6 0.930 . S
C2 C3 1.333 . S
C2 N4 1.317 . S
C2 H7 0.930 . S
C3 C2 1.333 . S
C3 N5 1.350 . S
C3 H29 0.931 . S
N4 Co0 2.148 . S
N4 C1 1.301 . S
N4 C2 1.317 . S
N5 C1 1.328 . S
N5 C3 1.350 . S
H6 C1 0.930 . S
H7 C2 0.930 . S
C8 O9 1.224 . S
C8 O27 1.247 . S
O9 C8 1.224 . S
N10 Co0 2.128 . S
N10 C11 1.355 . S
N10 C13 1.311 . S
C11 N10 1.355 . S
C11 C12 1.363 . S
C11 H23 0.929 . S
C12 C11 1.363 . S
C12 N14 1.375 . S
C12 H30 0.931 . S
C13 N10 1.311 . S
C13 N14 1.347 . S
C13 H24 0.929 . S
N14 C12 1.375 . S
N14 C13 1.347 . S
C15 C18 1.365 . S
C15 N20 1.328 . S
C15 H21 0.929 . S
C16 C17 1.362 . S
C16 C19 1.378 . S
C16 H31 0.929 . S
C17 C16 1.362 . S
C17 C18 1.366 . S
C18 C15 1.365 . S
C18 C17 1.366 . S
C18 H32 0.930 . S
C19 C16 1.378 . S
C19 N20 1.315 . S
C19 H22 0.930 . S
N20 Co0 2.194 . S
N20 C15 1.328 . S
N20 C19 1.315 . S
H21 C15 0.929 . S
H22 C19 0.930 . S
H23 C11 0.929 . S
H24 C13 0.929 . S
O25 Co0 2.351 . S
O25 C28 1.244 . S
O26 Co0 2.155 . S
O26 C28 1.240 . S
O27 Co0 2.096 . S
O27 C8 1.247 . S
C28 O25 1.244 . S
C28 O26 1.240 . S
H29 C3 0.931 . S
H30 C12 0.931 . S
H31 C16 0.929 . S
H32 C18 0.930 . S
Co33 N37 2.148 . S
Co33 N43 2.128 . S
Co33 N53 2.194 . S
Co33 O58 2.351 . S
Co33 O59 2.155 . S
Co33 O60 2.096 . S
C34 N37 1.301 . S
C34 N38 1.328 . S
C34 H39 0.930 . S
C35 C36 1.333 . S
C35 N37 1.317 . S
C35 H40 0.930 . S
C36 C35 1.333 . S
C36 N38 1.350 . S
C36 H62 0.931 . S
N37 Co33 2.148 . S
N37 C34 1.301 . S
N37 C35 1.317 . S
N38 C34 1.328 . S
N38 C36 1.350 . S
H39 C34 0.930 . S
H40 C35 0.930 . S
C41 O42 1.224 . S
C41 O60 1.247 . S
O42 C41 1.224 . S
N43 Co33 2.128 . S
N43 C44 1.355 . S
N43 C46 1.311 . S
C44 N43 1.355 . S
C44 C45 1.363 . S
C44 H56 0.929 . S
C45 C44 1.363 . S
C45 N47 1.375 . S
C45 H63 0.931 . S
C46 N43 1.311 . S
C46 N47 1.347 . S
C46 H57 0.929 . S
N47 C45 1.375 . S
N47 C46 1.347 . S
C48 C51 1.365 . S
C48 N53 1.328 . S
C48 H54 0.929 . S
C49 C50 1.362 . S
C49 C52 1.378 . S
C49 H64 0.929 . S
C50 C49 1.362 . S
C50 C51 1.366 . S
C51 C48 1.365 . S
C51 C50 1.366 . S
C51 H65 0.930 . S
C52 C49 1.378 . S
C52 N53 1.315 . S
C52 H55 0.930 . S
N53 Co33 2.194 . S
N53 C48 1.328 . S
N53 C52 1.315 . S
H54 C48 0.929 . S
H55 C52 0.930 . S
H56 C44 0.929 . S
H57 C46 0.929 . S
O58 Co33 2.351 . S
O58 C61 1.244 . S
O59 Co33 2.155 . S
O59 C61 1.240 . S
O60 Co33 2.096 . S
O60 C41 1.247 . S
C61 O58 1.244 . S
C61 O59 1.240 . S
H62 C36 0.931 . S
H63 C45 0.931 . S
H64 C49 0.929 . S
H65 C51 0.930 . S
Co66 N70 2.148 . S
Co66 N76 2.128 . S
Co66 N86 2.194 . S
Co66 O91 2.351 . S
Co66 O92 2.155 . S
Co66 O93 2.096 . S
C67 N70 1.301 . S
C67 N71 1.328 . S
C67 H72 0.930 . S
C68 C69 1.333 . S
C68 N70 1.317 . S
C68 H73 0.930 . S
C69 C68 1.333 . S
C69 N71 1.350 . S
C69 H95 0.931 . S
N70 Co66 2.148 . S
N70 C67 1.301 . S
N70 C68 1.317 . S
N71 C67 1.328 . S
N71 C69 1.350 . S
H72 C67 0.930 . S
H73 C68 0.930 . S
C74 O75 1.224 . S
C74 O93 1.247 . S
O75 C74 1.224 . S
N76 Co66 2.128 . S
N76 C77 1.355 . S
N76 C79 1.311 . S
C77 N76 1.355 . S
C77 C78 1.363 . S
C77 H89 0.929 . S
C78 C77 1.363 . S
C78 N80 1.375 . S
C78 H96 0.931 . S
C79 N76 1.311 . S
C79 N80 1.347 . S
C79 H90 0.929 . S
N80 C78 1.375 . S
N80 C79 1.347 . S
C81 C84 1.365 . S
C81 N86 1.328 . S
C81 H87 0.929 . S
C82 C83 1.362 . S
C82 C85 1.378 . S
C82 H97 0.929 . S
C83 C82 1.362 . S
C83 C84 1.366 . S
C84 C81 1.365 . S
C84 C83 1.366 . S
C84 H98 0.930 . S
C85 C82 1.378 . S
C85 N86 1.315 . S
C85 H88 0.930 . S
N86 Co66 2.194 . S
N86 C81 1.328 . S
N86 C85 1.315 . S
H87 C81 0.929 . S
H88 C85 0.930 . S
H89 C77 0.929 . S
H90 C79 0.929 . S
O91 Co66 2.351 . S
O91 C94 1.244 . S
O92 Co66 2.155 . S
O92 C94 1.240 . S
O93 Co66 2.096 . S
O93 C74 1.247 . S
C94 O91 1.244 . S
C94 O92 1.240 . S
H95 C69 0.931 . S
H96 C78 0.931 . S
H97 C82 0.929 . S
H98 C84 0.930 . S
Co99 N103 2.148 . S
Co99 N109 2.128 . S
Co99 N119 2.194 . S
Co99 O124 2.351 . S
Co99 O125 2.155 . S
Co99 O126 2.096 . S
C100 N103 1.301 . S
C100 N104 1.328 . S
C100 H105 0.930 . S
C101 C102 1.333 . S
C101 N103 1.317 . S
C101 H106 0.930 . S
C102 C101 1.333 . S
C102 N104 1.350 . S
C102 H128 0.931 . S
N103 Co99 2.148 . S
N103 C100 1.301 . S
N103 C101 1.317 . S
N104 C100 1.328 . S
N104 C102 1.350 . S
H105 C100 0.930 . S
H106 C101 0.930 . S
C107 O108 1.224 . S
C107 O126 1.247 . S
O108 C107 1.224 . S
N109 Co99 2.128 . S
N109 C110 1.355 . S
N109 C112 1.311 . S
C110 N109 1.355 . S
C110 C111 1.363 . S
C110 H122 0.929 . S
C111 C110 1.363 . S
C111 N113 1.375 . S
C111 H129 0.931 . S
C112 N109 1.311 . S
C112 N113 1.347 . S
C112 H123 0.929 . S
N113 C111 1.375 . S
N113 C112 1.347 . S
C114 C117 1.365 . S
C114 N119 1.328 . S
C114 H120 0.929 . S
C115 C116 1.362 . S
C115 C118 1.378 . S
C115 H130 0.929 . S
C116 C115 1.362 . S
C116 C117 1.366 . S
C117 C114 1.365 . S
C117 C116 1.366 . S
C117 H131 0.930 . S
C118 C115 1.378 . S
C118 N119 1.315 . S
C118 H121 0.930 . S
N119 Co99 2.194 . S
N119 C114 1.328 . S
N119 C118 1.315 . S
H120 C114 0.929 . S
H121 C118 0.930 . S
H122 C110 0.929 . S
H123 C112 0.929 . S
O124 Co99 2.351 . S
O124 C127 1.244 . S
O125 Co99 2.155 . S
O125 C127 1.240 . S
O126 Co99 2.096 . S
O126 C107 1.247 . S
C127 O124 1.244 . S
C127 O125 1.240 . S
H128 C102 0.931 . S
H129 C111 0.931 . S
H130 C115 0.929 . S
H131 C117 0.930 . S
Co132 N136 2.148 . S
Co132 N142 2.128 . S
Co132 N152 2.194 . S
Co132 O157 2.351 . S
Co132 O158 2.155 . S
Co132 O159 2.096 . S
C133 N136 1.301 . S
C133 N137 1.328 . S
C133 H138 0.930 . S
C134 C135 1.333 . S
C134 N136 1.317 . S
C134 H139 0.930 . S
C135 C134 1.333 . S
C135 N137 1.350 . S
C135 H161 0.931 . S
N136 Co132 2.148 . S
N136 C133 1.301 . S
N136 C134 1.317 . S
N137 C133 1.328 . S
N137 C135 1.350 . S
H138 C133 0.930 . S
H139 C134 0.930 . S
C140 O141 1.224 . S
C140 O159 1.247 . S
O141 C140 1.224 . S
N142 Co132 2.128 . S
N142 C143 1.355 . S
N142 C145 1.311 . S
C143 N142 1.355 . S
C143 C144 1.363 . S
C143 H155 0.929 . S
C144 C143 1.363 . S
C144 N146 1.375 . S
C144 H162 0.931 . S
C145 N142 1.311 . S
C145 N146 1.347 . S
C145 H156 0.929 . S
N146 C144 1.375 . S
N146 C145 1.347 . S
C147 C150 1.365 . S
C147 N152 1.328 . S
C147 H153 0.929 . S
C148 C149 1.362 . S
C148 C151 1.378 . S
C148 H163 0.929 . S
C149 C148 1.362 . S
C149 C150 1.366 . S
C150 C147 1.365 . S
C150 C149 1.366 . S
C150 H164 0.930 . S
C151 C148 1.378 . S
C151 N152 1.315 . S
C151 H154 0.930 . S
N152 Co132 2.194 . S
N152 C147 1.328 . S
N152 C151 1.315 . S
H153 C147 0.929 . S
H154 C151 0.930 . S
H155 C143 0.929 . S
H156 C145 0.929 . S
O157 Co132 2.351 . S
O157 C160 1.244 . S
O158 Co132 2.155 . S
O158 C160 1.240 . S
O159 Co132 2.096 . S
O159 C140 1.247 . S
C160 O157 1.244 . S
C160 O158 1.240 . S
H161 C135 0.931 . S
H162 C144 0.931 . S
H163 C148 0.929 . S
H164 C150 0.930 . S
Co165 N169 2.148 . S
Co165 N175 2.128 . S
Co165 N185 2.194 . S
Co165 O190 2.351 . S
Co165 O191 2.155 . S
Co165 O192 2.096 . S
C166 N169 1.301 . S
C166 N170 1.328 . S
C166 H171 0.930 . S
C167 C168 1.333 . S
C167 N169 1.317 . S
C167 H172 0.930 . S
C168 C167 1.333 . S
C168 N170 1.350 . S
C168 H194 0.931 . S
N169 Co165 2.148 . S
N169 C166 1.301 . S
N169 C167 1.317 . S
N170 C166 1.328 . S
N170 C168 1.350 . S
H171 C166 0.930 . S
H172 C167 0.930 . S
C173 O174 1.224 . S
C173 O192 1.247 . S
O174 C173 1.224 . S
N175 Co165 2.128 . S
N175 C176 1.355 . S
N175 C178 1.311 . S
C176 N175 1.355 . S
C176 C177 1.363 . S
C176 H188 0.929 . S
C177 C176 1.363 . S
C177 N179 1.375 . S
C177 H195 0.931 . S
C178 N175 1.311 . S
C178 N179 1.347 . S
C178 H189 0.929 . S
N179 C177 1.375 . S
N179 C178 1.347 . S
C180 C183 1.365 . S
C180 N185 1.328 . S
C180 H186 0.929 . S
C181 C182 1.362 . S
C181 C184 1.378 . S
C181 H196 0.929 . S
C182 C181 1.362 . S
C182 C183 1.366 . S
C183 C180 1.365 . S
C183 C182 1.366 . S
C183 H197 0.930 . S
C184 C181 1.378 . S
C184 N185 1.315 . S
C184 H187 0.930 . S
N185 Co165 2.194 . S
N185 C180 1.328 . S
N185 C184 1.315 . S
H186 C180 0.929 . S
H187 C184 0.930 . S
H188 C176 0.929 . S
H189 C178 0.929 . S
O190 Co165 2.351 . S
O190 C193 1.244 . S
O191 Co165 2.155 . S
O191 C193 1.240 . S
O192 Co165 2.096 . S
O192 C173 1.247 . S
C193 O190 1.244 . S
C193 O191 1.240 . S
H194 C168 0.931 . S
H195 C177 0.931 . S
H196 C181 0.929 . S
H197 C183 0.930 . S
Co198 N202 2.148 . S
Co198 N208 2.128 . S
Co198 N218 2.194 . S
Co198 O223 2.351 . S
Co198 O224 2.155 . S
Co198 O225 2.096 . S
C199 N202 1.301 . S
C199 N203 1.328 . S
C199 H204 0.930 . S
C200 C201 1.333 . S
C200 N202 1.317 . S
C200 H205 0.930 . S
C201 C200 1.333 . S
C201 N203 1.350 . S
C201 H227 0.931 . S
N202 Co198 2.148 . S
N202 C199 1.301 . S
N202 C200 1.317 . S
N203 C199 1.328 . S
N203 C201 1.350 . S
H204 C199 0.930 . S
H205 C200 0.930 . S
C206 O207 1.224 . S
C206 O225 1.247 . S
O207 C206 1.224 . S
N208 Co198 2.128 . S
N208 C209 1.355 . S
N208 C211 1.311 . S
C209 N208 1.355 . S
C209 C210 1.363 . S
C209 H221 0.929 . S
C210 C209 1.363 . S
C210 N212 1.375 . S
C210 H228 0.931 . S
C211 N208 1.311 . S
C211 N212 1.347 . S
C211 H222 0.929 . S
N212 C210 1.375 . S
N212 C211 1.347 . S
C213 C216 1.365 . S
C213 N218 1.328 . S
C213 H219 0.929 . S
C214 C215 1.362 . S
C214 C217 1.378 . S
C214 H229 0.929 . S
C215 C214 1.362 . S
C215 C216 1.366 . S
C216 C213 1.365 . S
C216 C215 1.366 . S
C216 H230 0.930 . S
C217 C214 1.378 . S
C217 N218 1.315 . S
C217 H220 0.930 . S
N218 Co198 2.194 . S
N218 C213 1.328 . S
N218 C217 1.315 . S
H219 C213 0.929 . S
H220 C217 0.930 . S
H221 C209 0.929 . S
H222 C211 0.929 . S
O223 Co198 2.351 . S
O223 C226 1.244 . S
O224 Co198 2.155 . S
O224 C226 1.240 . S
O225 Co198 2.096 . S
O225 C206 1.247 . S
C226 O223 1.244 . S
C226 O224 1.240 . S
H227 C201 0.931 . S
H228 C210 0.931 . S
H229 C214 0.929 . S
H230 C216 0.930 . S
Co231 N235 2.148 . S
Co231 N241 2.128 . S
Co231 N251 2.194 . S
Co231 O256 2.351 . S
Co231 O257 2.155 . S
Co231 O258 2.096 . S
C232 N235 1.301 . S
C232 N236 1.328 . S
C232 H237 0.930 . S
C233 C234 1.333 . S
C233 N235 1.317 . S
C233 H238 0.930 . S
C234 C233 1.333 . S
C234 N236 1.350 . S
C234 H260 0.931 . S
N235 Co231 2.148 . S
N235 C232 1.301 . S
N235 C233 1.317 . S
N236 C232 1.328 . S
N236 C234 1.350 . S
H237 C232 0.930 . S
H238 C233 0.930 . S
C239 O240 1.224 . S
C239 O258 1.247 . S
O240 C239 1.224 . S
N241 Co231 2.128 . S
N241 C242 1.355 . S
N241 C244 1.311 . S
C242 N241 1.355 . S
C242 C243 1.363 . S
C242 H254 0.929 . S
C243 C242 1.363 . S
C243 N245 1.375 . S
C243 H261 0.931 . S
C244 N241 1.311 . S
C244 N245 1.347 . S
C244 H255 0.929 . S
N245 C243 1.375 . S
N245 C244 1.347 . S
C246 C249 1.365 . S
C246 N251 1.328 . S
C246 H252 0.929 . S
C247 C248 1.362 . S
C247 C250 1.378 . S
C247 H262 0.929 . S
C248 C247 1.362 . S
C248 C249 1.366 . S
C249 C246 1.365 . S
C249 C248 1.366 . S
C249 H263 0.930 . S
C250 C247 1.378 . S
C250 N251 1.315 . S
C250 H253 0.930 . S
N251 Co231 2.194 . S
N251 C246 1.328 . S
N251 C250 1.315 . S
H252 C246 0.929 . S
H253 C250 0.930 . S
H254 C242 0.929 . S
H255 C244 0.929 . S
O256 Co231 2.351 . S
O256 C259 1.244 . S
O257 Co231 2.155 . S
O257 C259 1.240 . S
O258 Co231 2.096 . S
O258 C239 1.247 . S
C259 O256 1.244 . S
C259 O257 1.240 . S
H260 C234 0.931 . S
H261 C243 0.931 . S
H262 C247 0.929 . S
H263 C249 0.930 . S
Co264 N268 2.148 . S
Co264 N274 2.128 . S
Co264 N284 2.194 . S
Co264 O289 2.351 . S
Co264 O290 2.155 . S
Co264 O291 2.096 . S
C265 N268 1.301 . S
C265 N269 1.328 . S
C265 H270 0.930 . S
C266 C267 1.333 . S
C266 N268 1.317 . S
C266 H271 0.930 . S
C267 C266 1.333 . S
C267 N269 1.350 . S
C267 H293 0.931 . S
N268 Co264 2.148 . S
N268 C265 1.301 . S
N268 C266 1.317 . S
N269 C265 1.328 . S
N269 C267 1.350 . S
H270 C265 0.930 . S
H271 C266 0.930 . S
C272 O273 1.224 . S
C272 O291 1.247 . S
O273 C272 1.224 . S
N274 Co264 2.128 . S
N274 C275 1.355 . S
N274 C277 1.311 . S
C275 N274 1.355 . S
C275 C276 1.363 . S
C275 H287 0.929 . S
C276 C275 1.363 . S
C276 N278 1.375 . S
C276 H294 0.931 . S
C277 N274 1.311 . S
C277 N278 1.347 . S
C277 H288 0.929 . S
N278 C276 1.375 . S
N278 C277 1.347 . S
C279 C282 1.365 . S
C279 N284 1.328 . S
C279 H285 0.929 . S
C280 C281 1.362 . S
C280 C283 1.378 . S
C280 H295 0.929 . S
C281 C280 1.362 . S
C281 C282 1.366 . S
C282 C279 1.365 . S
C282 C281 1.366 . S
C282 H296 0.930 . S
C283 C280 1.378 . S
C283 N284 1.315 . S
C283 H286 0.930 . S
N284 Co264 2.194 . S
N284 C279 1.328 . S
N284 C283 1.315 . S
H285 C279 0.929 . S
H286 C283 0.930 . S
H287 C275 0.929 . S
H288 C277 0.929 . S
O289 Co264 2.351 . S
O289 C292 1.244 . S
O290 Co264 2.155 . S
O290 C292 1.240 . S
O291 Co264 2.096 . S
O291 C272 1.247 . S
C292 O289 1.244 . S
C292 O290 1.240 . S
H293 C267 0.931 . S
H294 C276 0.931 . S
H295 C280 0.929 . S
H296 C282 0.930 . S
Co297 N301 2.148 . S
Co297 N307 2.128 . S
Co297 N317 2.194 . S
Co297 O322 2.351 . S
Co297 O323 2.155 . S
Co297 O324 2.096 . S
C298 N301 1.301 . S
C298 N302 1.328 . S
C298 H303 0.930 . S
C299 C300 1.333 . S
C299 N301 1.317 . S
C299 H304 0.930 . S
C300 C299 1.333 . S
C300 N302 1.350 . S
C300 H326 0.931 . S
N301 Co297 2.148 . S
N301 C298 1.301 . S
N301 C299 1.317 . S
N302 C298 1.328 . S
N302 C300 1.350 . S
H303 C298 0.930 . S
H304 C299 0.930 . S
C305 O306 1.224 . S
C305 O324 1.247 . S
O306 C305 1.224 . S
N307 Co297 2.128 . S
N307 C308 1.355 . S
N307 C310 1.311 . S
C308 N307 1.355 . S
C308 C309 1.363 . S
C308 H320 0.929 . S
C309 C308 1.363 . S
C309 N311 1.375 . S
C309 H327 0.931 . S
C310 N307 1.311 . S
C310 N311 1.347 . S
C310 H321 0.929 . S
N311 C309 1.375 . S
N311 C310 1.347 . S
C312 C315 1.365 . S
C312 N317 1.328 . S
C312 H318 0.929 . S
C313 C314 1.362 . S
C313 C316 1.378 . S
C313 H328 0.929 . S
C314 C313 1.362 . S
C314 C315 1.366 . S
C315 C312 1.365 . S
C315 C314 1.366 . S
C315 H329 0.930 . S
C316 C313 1.378 . S
C316 N317 1.315 . S
C316 H319 0.930 . S
N317 Co297 2.194 . S
N317 C312 1.328 . S
N317 C316 1.315 . S
H318 C312 0.929 . S
H319 C316 0.930 . S
H320 C308 0.929 . S
H321 C310 0.929 . S
O322 Co297 2.351 . S
O322 C325 1.244 . S
O323 Co297 2.155 . S
O323 C325 1.240 . S
O324 Co297 2.096 . S
O324 C305 1.247 . S
C325 O322 1.244 . S
C325 O323 1.240 . S
H326 C300 0.931 . S
H327 C309 0.931 . S
H328 C313 0.929 . S
H329 C315 0.930 . S
Co330 N334 2.148 . S
Co330 N340 2.128 . S
Co330 N350 2.194 . S
Co330 O355 2.351 . S
Co330 O356 2.155 . S
Co330 O357 2.096 . S
C331 N334 1.301 . S
C331 N335 1.328 . S
C331 H336 0.930 . S
C332 C333 1.333 . S
C332 N334 1.317 . S
C332 H337 0.930 . S
C333 C332 1.333 . S
C333 N335 1.350 . S
C333 H359 0.931 . S
N334 Co330 2.148 . S
N334 C331 1.301 . S
N334 C332 1.317 . S
N335 C331 1.328 . S
N335 C333 1.350 . S
H336 C331 0.930 . S
H337 C332 0.930 . S
C338 O339 1.224 . S
C338 O357 1.247 . S
O339 C338 1.224 . S
N340 Co330 2.128 . S
N340 C341 1.355 . S
N340 C343 1.311 . S
C341 N340 1.355 . S
C341 C342 1.363 . S
C341 H353 0.929 . S
C342 C341 1.363 . S
C342 N344 1.375 . S
C342 H360 0.931 . S
C343 N340 1.311 . S
C343 N344 1.347 . S
C343 H354 0.929 . S
N344 C342 1.375 . S
N344 C343 1.347 . S
C345 C348 1.365 . S
C345 N350 1.328 . S
C345 H351 0.929 . S
C346 C347 1.362 . S
C346 C349 1.378 . S
C346 H361 0.929 . S
C347 C346 1.362 . S
C347 C348 1.366 . S
C348 C345 1.365 . S
C348 C347 1.366 . S
C348 H362 0.930 . S
C349 C346 1.378 . S
C349 N350 1.315 . S
C349 H352 0.930 . S
N350 Co330 2.194 . S
N350 C345 1.328 . S
N350 C349 1.315 . S
H351 C345 0.929 . S
H352 C349 0.930 . S
H353 C341 0.929 . S
H354 C343 0.929 . S
O355 Co330 2.351 . S
O355 C358 1.244 . S
O356 Co330 2.155 . S
O356 C358 1.240 . S
O357 Co330 2.096 . S
O357 C338 1.247 . S
C358 O355 1.244 . S
C358 O356 1.240 . S
H359 C333 0.931 . S
H360 C342 0.931 . S
H361 C346 0.929 . S
H362 C348 0.930 . S
Co363 N367 2.148 . S
Co363 N373 2.128 . S
Co363 N383 2.194 . S
Co363 O388 2.351 . S
Co363 O389 2.155 . S
Co363 O390 2.096 . S
C364 N367 1.301 . S
C364 N368 1.328 . S
C364 H369 0.930 . S
C365 C366 1.333 . S
C365 N367 1.317 . S
C365 H370 0.930 . S
C366 C365 1.333 . S
C366 N368 1.350 . S
C366 H392 0.931 . S
N367 Co363 2.148 . S
N367 C364 1.301 . S
N367 C365 1.317 . S
N368 C364 1.328 . S
N368 C366 1.350 . S
H369 C364 0.930 . S
H370 C365 0.930 . S
C371 O372 1.224 . S
C371 O390 1.247 . S
O372 C371 1.224 . S
N373 Co363 2.128 . S
N373 C374 1.355 . S
N373 C376 1.311 . S
C374 N373 1.355 . S
C374 C375 1.363 . S
C374 H386 0.929 . S
C375 C374 1.363 . S
C375 N377 1.375 . S
C375 H393 0.931 . S
C376 N373 1.311 . S
C376 N377 1.347 . S
C376 H387 0.929 . S
N377 C375 1.375 . S
N377 C376 1.347 . S
C378 C381 1.365 . S
C378 N383 1.328 . S
C378 H384 0.929 . S
C379 C380 1.362 . S
C379 C382 1.378 . S
C379 H394 0.929 . S
C380 C379 1.362 . S
C380 C381 1.366 . S
C381 C378 1.365 . S
C381 C380 1.366 . S
C381 H395 0.930 . S
C382 C379 1.378 . S
C382 N383 1.315 . S
C382 H385 0.930 . S
N383 Co363 2.194 . S
N383 C378 1.328 . S
N383 C382 1.315 . S
H384 C378 0.929 . S
H385 C382 0.930 . S
H386 C374 0.929 . S
H387 C376 0.929 . S
O388 Co363 2.351 . S
O388 C391 1.244 . S
O389 Co363 2.155 . S
O389 C391 1.240 . S
O390 Co363 2.096 . S
O390 C371 1.247 . S
C391 O388 1.244 . S
C391 O389 1.240 . S
H392 C366 0.931 . S
H393 C375 0.931 . S
H394 C379 0.929 . S
H395 C381 0.930 . S
H396 C402 0.930 . S
H397 C406 0.930 . S
H398 C411 0.929 . S
H399 C409 0.929 . S
H400 C404 0.929 . S
H401 C410 0.929 . S
C402 H396 0.930 . S
C402 C403 1.367 . S
C402 C410 1.378 . S
C403 C402 1.367 . S
C403 C411 1.433 . S
C404 H400 0.929 . S
C404 C406 1.378 . S
C404 C408 1.350 . S
C405 C408 1.463 1_544 S
C405 C410 1.350 . S
C405 N413 1.427 . S
C406 H397 0.930 . S
C406 C404 1.378 . S
C406 C407 1.367 . S
C407 C406 1.367 . S
C407 C409 1.433 . S
C408 C404 1.350 . S
C408 C405 1.463 1_566 S
C408 N412 1.427 . S
C409 H399 0.929 . S
C409 C407 1.433 . S
C409 N412 1.384 . S
C410 H401 0.929 . S
C410 C402 1.378 . S
C410 C405 1.350 . S
C411 H398 0.929 . S
C411 C403 1.433 . S
C411 N413 1.384 . S
N412 C408 1.427 . S
N412 C409 1.384 . S
N413 C405 1.427 . S
N413 C411 1.384 . S
H414 C420 0.930 . S
H415 C424 0.930 . S
H416 C429 0.929 . S
H417 C427 0.929 . S
H418 C422 0.929 . S
H419 C428 0.929 . S
C420 H414 0.930 . S
C420 C421 1.367 . S
C420 C428 1.378 . S
C421 C420 1.367 . S
C421 C429 1.433 . S
C422 H418 0.929 . S
C422 C424 1.378 . S
C422 C426 1.350 . S
C423 C426 1.463 . S
C423 C428 1.350 . S
C423 N431 1.427 . S
C424 H415 0.930 . S
C424 C422 1.378 . S
C424 C425 1.367 . S
C425 C424 1.367 . S
C425 C427 1.433 . S
C426 C422 1.350 . S
C426 C423 1.463 . S
C426 N430 1.427 . S
C427 H417 0.929 . S
C427 C425 1.433 . S
C427 N430 1.384 . S
C428 H419 0.929 . S
C428 C420 1.378 . S
C428 C423 1.350 . S
C429 H416 0.929 . S
C429 C421 1.433 . S
C429 N431 1.384 . S
N430 C426 1.427 . S
N430 C427 1.384 . S
N431 C423 1.427 . S
N431 C429 1.384 . S
H432 C438 0.930 . S
H433 C442 0.930 . S
H434 C447 0.924 1_455 S
H435 C445 0.924 1_655 S
H436 C440 0.929 . S
H437 C446 0.929 . S
C438 H432 0.930 . S
C438 C439 1.367 . S
C438 C446 1.378 . S
C439 C438 1.367 . S
C439 C447 1.433 . S
C440 H436 0.929 . S
C440 C442 1.378 . S
C440 C444 1.350 . S
C441 C444 1.463 1_655 S
C441 C446 1.350 . S
C441 N449 1.427 1_655 S
C442 H433 0.930 . S
C442 C440 1.378 . S
C442 C443 1.367 . S
C443 C442 1.367 . S
C443 C445 1.433 . S
C444 C440 1.350 . S
C444 C441 1.463 1_455 S
C444 N448 1.427 1_455 S
C445 H435 0.924 1_455 S
C445 C443 1.433 . S
C445 N448 1.384 1_455 S
C446 H437 0.929 . S
C446 C438 1.378 . S
C446 C441 1.350 . S
C447 H434 0.924 1_655 S
C447 C439 1.433 . S
C447 N449 1.384 1_655 S
N448 C444 1.427 1_655 S
N448 C445 1.384 1_655 S
N449 C441 1.427 1_455 S
N449 C447 1.384 1_455 S
H450 C456 0.930 1_565 S
H451 C460 0.930 1_545 S
H452 C465 0.929 . S
H453 C463 0.929 . S
H454 C458 0.929 . S
H455 C464 0.929 . S
C456 H450 0.930 1_545 S
C456 C457 1.367 . S
C456 C464 1.378 1_545 S
C457 C456 1.367 . S
C457 C465 1.433 . S
C458 H454 0.929 . S
C458 C460 1.378 1_545 S
C458 C462 1.350 1_545 S
C459 C462 1.463 1_546 S
C459 C464 1.350 1_545 S
C459 N467 1.427 . S
C460 H451 0.930 1_565 S
C460 C458 1.378 1_565 S
C460 C461 1.367 . S
C461 C460 1.367 . S
C461 C463 1.433 . S
C462 C458 1.350 1_565 S
C462 C459 1.463 1_564 S
C462 N466 1.427 . S
C463 H453 0.929 . S
C463 C461 1.433 . S
C463 N466 1.384 . S
C464 H455 0.929 . S
C464 C456 1.378 1_565 S
C464 C459 1.350 1_565 S
C465 H452 0.929 . S
C465 C457 1.433 . S
C465 N467 1.384 . S
N466 C462 1.427 . S
N466 C463 1.384 . S
N467 C459 1.427 . S
N467 C465 1.384 . S
H468 C474 0.930 . S
H469 C478 0.930 . S
H470 C483 0.929 . S
H471 C481 0.929 . S
H472 C476 0.929 . S
H473 C482 0.929 . S
C474 H468 0.930 . S
C474 C475 1.367 . S
C474 C482 1.378 . S
C475 C474 1.367 . S
C475 C483 1.433 . S
C476 H472 0.929 . S
C476 C478 1.378 . S
C476 C480 1.350 . S
C477 C480 1.463 . S
C477 C482 1.350 . S
C477 N485 1.427 . S
C478 H469 0.930 . S
C478 C476 1.378 . S
C478 C479 1.367 . S
C479 C478 1.367 . S
C479 C481 1.433 . S
C480 C476 1.350 . S
C480 C477 1.463 . S
C480 N484 1.427 . S
C481 H471 0.929 . S
C481 C479 1.433 . S
C481 N484 1.384 . S
C482 H473 0.929 . S
C482 C474 1.378 . S
C482 C477 1.350 . S
C483 H470 0.929 . S
C483 C475 1.433 . S
C483 N485 1.384 . S
N484 C480 1.427 . S
N484 C481 1.384 . S
N485 C477 1.427 . S
N485 C483 1.384 . S
H486 C492 0.930 . S
H487 C496 0.930 . S
H488 C501 0.929 . S
H489 C499 0.929 . S
H490 C494 0.929 1_455 S
H491 C500 0.929 1_655 S
C492 H486 0.930 . S
C492 C493 1.367 . S
C492 C500 1.378 . S
C493 C492 1.367 . S
C493 C501 1.433 . S
C494 H490 0.929 1_655 S
C494 C496 1.378 . S
C494 C498 1.350 . S
C495 C498 1.463 1_455 S
C495 C500 1.350 . S
C495 N503 1.427 . S
C496 H487 0.930 . S
C496 C494 1.378 . S
C496 C497 1.367 . S
C497 C496 1.367 . S
C497 C499 1.433 . S
C498 C494 1.350 . S
C498 C495 1.463 1_655 S
C498 N502 1.427 . S
C499 H489 0.929 . S
C499 C497 1.433 . S
C499 N502 1.384 . S
C500 H491 0.929 1_455 S
C500 C492 1.378 . S
C500 C495 1.350 . S
C501 H488 0.929 . S
C501 C493 1.433 . S
C501 N503 1.384 . S
N502 C498 1.427 . S
N502 C499 1.384 . S
N503 C495 1.427 . S
N503 C501 1.384 . S
H504 C510 0.930 . S
H505 C514 0.930 . S
H506 C519 0.929 . S
H507 C517 0.929 . S
H508 C512 0.929 . S
H509 C518 0.929 . S
C510 H504 0.930 . S
C510 C511 1.367 . S
C510 C518 1.378 . S
C511 C510 1.367 . S
C511 C519 1.433 . S
C512 H508 0.929 . S
C512 C514 1.378 . S
C512 C516 1.350 . S
C513 C516 1.463 1_565 S
C513 C518 1.350 . S
C513 N521 1.427 . S
C514 H505 0.930 . S
C514 C512 1.378 . S
C514 C515 1.367 . S
C515 C514 1.367 . S
C515 C517 1.433 . S
C516 C512 1.350 . S
C516 C513 1.463 1_545 S
C516 N520 1.427 . S
C517 H507 0.929 . S
C517 C515 1.433 . S
C517 N520 1.384 . S
C518 H509 0.929 . S
C518 C510 1.378 . S
C518 C513 1.350 . S
C519 H506 0.929 . S
C519 C511 1.433 . S
C519 N521 1.384 . S
N520 C516 1.427 . S
N520 C517 1.384 . S
N521 C513 1.427 . S
N521 C519 1.384 . S
H522 C528 0.930 . S
H523 C532 0.930 . S
H524 C537 0.929 . S
H525 C535 0.929 . S
H526 C530 0.929 . S
H527 C536 0.929 . S
C528 H522 0.930 . S
C528 C529 1.367 . S
C528 C536 1.378 . S
C529 C528 1.367 . S
C529 C537 1.433 . S
C530 H526 0.929 . S
C530 C532 1.378 . S
C530 C534 1.350 . S
C531 C534 1.463 . S
C531 C536 1.350 . S
C531 N539 1.427 . S
C532 H523 0.930 . S
C532 C530 1.378 . S
C532 C533 1.367 . S
C533 C532 1.367 . S
C533 C535 1.433 . S
C534 C530 1.350 . S
C534 C531 1.463 . S
C534 N538 1.427 . S
C535 H525 0.929 . S
C535 C533 1.433 . S
C535 N538 1.384 . S
C536 H527 0.929 . S
C536 C528 1.378 . S
C536 C531 1.350 . S
C537 H524 0.929 . S
C537 C529 1.433 . S
C537 N539 1.384 . S
N538 C534 1.427 . S
N538 C535 1.384 . S
N539 C531 1.427 . S
N539 C537 1.384 . S
H540 C546 0.930 . S
H541 C550 0.930 . S
H542 C555 0.929 . S
H543 C553 0.929 . S
H544 C548 0.929 . S
H545 C554 0.929 . S
C546 H540 0.930 . S
C546 C547 1.367 . S
C546 C554 1.378 . S
C547 C546 1.367 . S
C547 C555 1.433 . S
C548 H544 0.929 . S
C548 C550 1.378 . S
C548 C552 1.350 . S
C549 C552 1.463 1_455 S
C549 C554 1.350 . S
C549 N557 1.427 . S
C550 H541 0.930 . S
C550 C548 1.378 . S
C550 C551 1.367 . S
C551 C550 1.367 . S
C551 C553 1.433 . S
C552 C548 1.350 . S
C552 C549 1.463 1_655 S
C552 N556 1.427 . S
C553 H543 0.929 . S
C553 C551 1.433 . S
C553 N556 1.384 . S
C554 H545 0.929 . S
C554 C546 1.378 . S
C554 C549 1.350 . S
C555 H542 0.929 . S
C555 C547 1.433 . S
C555 N557 1.384 . S
N556 C552 1.427 . S
N556 C553 1.384 . S
N557 C549 1.427 . S
N557 C555 1.384 . S
H558 C564 0.930 . S
H559 C568 0.930 . S
H560 C573 0.929 . S
H561 C571 0.929 . S
H562 C566 0.929 1_455 S
H563 C572 0.929 1_655 S
C564 H558 0.930 . S
C564 C565 1.367 . S
C564 C572 1.378 . S
C565 C564 1.367 . S
C565 C573 1.433 . S
C566 H562 0.929 1_655 S
C566 C568 1.378 . S
C566 C570 1.350 . S
C567 C570 1.463 1_455 S
C567 C572 1.350 . S
C567 N575 1.427 . S
C568 H559 0.930 . S
C568 C566 1.378 . S
C568 C569 1.367 . S
C569 C568 1.367 . S
C569 C571 1.433 . S
C570 C566 1.350 . S
C570 C567 1.463 1_655 S
C570 N574 1.427 . S
C571 H561 0.929 . S
C571 C569 1.433 . S
C571 N574 1.384 . S
C572 H563 0.929 1_455 S
C572 C564 1.378 . S
C572 C567 1.350 . S
C573 H560 0.929 . S
C573 C565 1.433 . S
C573 N575 1.384 . S
N574 C570 1.427 . S
N574 C571 1.384 . S
N575 C567 1.427 . S
N575 C573 1.384 . S
H576 C582 0.930 . S
H577 C586 0.930 . S
H578 C591 0.929 . S
H579 C589 0.929 . S
H580 C584 0.929 . S
H581 C590 0.929 . S
C582 H576 0.930 . S
C582 C583 1.367 . S
C582 C590 1.378 . S
C583 C582 1.367 . S
C583 C591 1.433 . S
C584 H580 0.929 . S
C584 C586 1.378 . S
C584 C588 1.350 . S
C585 C588 1.463 1_545 S
C585 C590 1.350 . S
C585 N593 1.427 . S
C586 H577 0.930 . S
C586 C584 1.378 . S
C586 C587 1.367 . S
C587 C586 1.367 . S
C587 C589 1.433 . S
C588 C584 1.350 . S
C588 C585 1.463 1_565 S
C588 N592 1.427 . S
C589 H579 0.929 . S
C589 C587 1.433 . S
C589 N592 1.384 . S
C590 H581 0.929 . S
C590 C582 1.378 . S
C590 C585 1.350 . S
C591 H578 0.929 . S
C591 C583 1.433 . S
C591 N593 1.384 . S
N592 C588 1.427 . S
N592 C589 1.384 . S
N593 C585 1.427 . S
N593 C591 1.384 . S
H594 C600 0.930 . S
H595 C604 0.930 . S
H596 C609 0.929 . S
H597 C607 0.929 . S
H598 C602 0.929 . S
H599 C608 0.929 . S
C600 H594 0.930 . S
C600 C601 1.367 . S
C600 C608 1.378 . S
C601 C600 1.367 . S
C601 C609 1.433 . S
C602 H598 0.929 . S
C602 C604 1.378 . S
C602 C606 1.350 . S
C603 C606 1.463 . S
C603 C608 1.350 . S
C603 N611 1.427 . S
C604 H595 0.930 . S
C604 C602 1.378 . S
C604 C605 1.367 . S
C605 C604 1.367 . S
C605 C607 1.433 . S
C606 C602 1.350 . S
C606 C603 1.463 . S
C606 N610 1.427 . S
C607 H597 0.929 . S
C607 C605 1.433 . S
C607 N610 1.384 . S
C608 H599 0.929 . S
C608 C600 1.378 . S
C608 C603 1.350 . S
C609 H596 0.929 . S
C609 C601 1.433 . S
C609 N611 1.384 . S
N610 C606 1.427 . S
N610 C607 1.384 . S
N611 C603 1.427 . S
N611 C609 1.384 . S
H612 C618 0.930 . S
H613 C622 0.930 . S
H614 C627 0.929 . S
H615 C625 0.929 . S
H616 C620 0.929 . S
H617 C626 0.929 . S
C618 H612 0.930 . S
C618 C619 1.367 . S
C618 C626 1.378 . S
C619 C618 1.367 . S
C619 C627 1.433 . S
C620 H616 0.929 . S
C620 C622 1.378 . S
C620 C624 1.350 . S
C621 C624 1.463 . S
C621 C626 1.350 . S
C621 N629 1.427 . S
C622 H613 0.930 . S
C622 C620 1.378 . S
C622 C623 1.367 . S
C623 C622 1.367 . S
C623 C625 1.433 . S
C624 C620 1.350 . S
C624 C621 1.463 . S
C624 N628 1.427 . S
C625 H615 0.929 . S
C625 C623 1.433 . S
C625 N628 1.384 . S
C626 H617 0.929 . S
C626 C618 1.378 . S
C626 C621 1.350 . S
C627 H614 0.929 . S
C627 C619 1.433 . S
C627 N629 1.384 . S
N628 C624 1.427 . S
N628 C625 1.384 . S
N629 C621 1.427 . S
N629 C627 1.384 . S
H630 C636 0.930 . S
H631 C640 0.930 . S
H632 C645 0.929 . S
H633 C643 0.929 . S
H634 C638 0.929 . S
H635 C644 0.929 . S
C636 H630 0.930 . S
C636 C637 1.367 . S
C636 C644 1.378 . S
C637 C636 1.367 . S
C637 C645 1.433 . S
C638 H634 0.929 . S
C638 C640 1.378 . S
C638 C642 1.350 . S
C639 C642 1.463 . S
C639 C644 1.350 . S
C639 N647 1.427 . S
C640 H631 0.930 . S
C640 C638 1.378 . S
C640 C641 1.367 . S
C641 C640 1.367 . S
C641 C643 1.433 . S
C642 C638 1.350 . S
C642 C639 1.463 . S
C642 N646 1.427 . S
C643 H633 0.929 . S
C643 C641 1.433 . S
C643 N646 1.384 . S
C644 H635 0.929 . S
C644 C636 1.378 . S
C644 C639 1.350 . S
C645 H632 0.929 . S
C645 C637 1.433 . S
C645 N647 1.384 . S
N646 C642 1.427 . S
N646 C643 1.384 . S
N647 C639 1.427 . S
N647 C645 1.384 . S
H648 C654 0.930 . S
H649 C658 0.930 . S
H650 C663 0.929 . S
H651 C661 0.929 . S
H652 C656 0.929 . S
H653 C662 0.929 . S
C654 H648 0.930 . S
C654 C655 1.367 . S
C654 C662 1.378 . S
C655 C654 1.367 . S
C655 C663 1.433 . S
C656 H652 0.929 . S
C656 C658 1.378 . S
C656 C660 1.350 . S
C657 C660 1.463 . S
C657 C662 1.350 . S
C657 N665 1.427 . S
C658 H649 0.930 . S
C658 C656 1.378 . S
C658 C659 1.367 . S
C659 C658 1.367 . S
C659 C661 1.433 . S
C660 C656 1.350 . S
C660 C657 1.463 . S
C660 N664 1.427 . S
C661 H651 0.929 . S
C661 C659 1.433 . S
C661 N664 1.384 . S
C662 H653 0.929 . S
C662 C654 1.378 . S
C662 C657 1.350 . S
C663 H650 0.929 . S
C663 C655 1.433 . S
C663 N665 1.384 . S
N664 C660 1.427 . S
N664 C661 1.384 . S
N665 C657 1.427 . S
N665 C663 1.384 . S
H666 C672 0.930 . S
H667 C676 0.930 . S
H668 C681 0.929 . S
H669 C679 0.929 . S
H670 C674 0.929 . S
H671 C680 0.929 . S
C672 H666 0.930 . S
C672 C673 1.367 . S
C672 C680 1.378 . S
C673 C672 1.367 . S
C673 C681 1.433 . S
C674 H670 0.929 . S
C674 C676 1.378 . S
C674 C678 1.350 . S
C675 C678 1.463 . S
C675 C680 1.350 . S
C675 N683 1.427 . S
C676 H667 0.930 . S
C676 C674 1.378 . S
C676 C677 1.367 . S
C677 C676 1.367 . S
C677 C679 1.433 . S
C678 C674 1.350 . S
C678 C675 1.463 . S
C678 N682 1.427 . S
C679 H669 0.929 . S
C679 C677 1.433 . S
C679 N682 1.384 . S
C680 H671 0.929 . S
C680 C672 1.378 . S
C680 C675 1.350 . S
C681 H668 0.929 . S
C681 C673 1.433 . S
C681 N683 1.384 . S
N682 C678 1.427 . S
N682 C679 1.384 . S
N683 C675 1.427 . S
N683 C681 1.384 . S
H684 C690 0.930 . S
H685 C694 0.930 . S
H686 C699 0.929 . S
H687 C697 0.929 . S
H688 C692 0.929 . S
H689 C698 0.929 . S
C690 H684 0.930 . S
C690 C691 1.367 . S
C690 C698 1.378 . S
C691 C690 1.367 . S
C691 C699 1.433 . S
C692 H688 0.929 . S
C692 C694 1.378 . S
C692 C696 1.350 . S
C693 C696 1.463 . S
C693 C698 1.350 . S
C693 N701 1.427 . S
C694 H685 0.930 . S
C694 C692 1.378 . S
C694 C695 1.367 . S
C695 C694 1.367 . S
C695 C697 1.433 . S
C696 C692 1.350 . S
C696 C693 1.463 . S
C696 N700 1.427 . S
C697 H687 0.929 . S
C697 C695 1.433 . S
C697 N700 1.384 . S
C698 H689 0.929 . S
C698 C690 1.378 . S
C698 C693 1.350 . S
C699 H686 0.929 . S
C699 C691 1.433 . S
C699 N701 1.384 . S
N700 C696 1.427 . S
N700 C697 1.384 . S
N701 C693 1.427 . S
N701 C699 1.384 . S
H702 C708 0.930 . S
H703 C712 0.930 . S
H704 C717 0.929 . S
H705 C715 0.929 . S
H706 C710 0.929 . S
H707 C716 0.929 . S
C708 H702 0.930 . S
C708 C709 1.367 . S
C708 C716 1.378 . S
C709 C708 1.367 . S
C709 C717 1.433 . S
C710 H706 0.929 . S
C710 C712 1.378 . S
C710 C714 1.350 . S
C711 C714 1.463 . S
C711 C716 1.350 . S
C711 N719 1.427 . S
C712 H703 0.930 . S
C712 C710 1.378 . S
C712 C713 1.367 . S
C713 C712 1.367 . S
C713 C715 1.433 . S
C714 C710 1.350 . S
C714 C711 1.463 . S
C714 N718 1.427 . S
C715 H705 0.929 . S
C715 C713 1.433 . S
C715 N718 1.384 . S
C716 H707 0.929 . S
C716 C708 1.378 . S
C716 C711 1.350 . S
C717 H704 0.929 . S
C717 C709 1.433 . S
C717 N719 1.384 . S
N718 C714 1.427 . S
N718 C715 1.384 . S
N719 C711 1.427 . S
N719 C717 1.384 . S
H720 C726 0.930 . S
H721 C730 0.930 . S
H722 C735 0.929 . S
H723 C733 0.929 . S
H724 C728 0.929 . S
H725 C734 0.929 . S
C726 H720 0.930 . S
C726 C727 1.367 . S
C726 C734 1.378 . S
C727 C726 1.367 . S
C727 C735 1.433 . S
C728 H724 0.929 . S
C728 C730 1.378 . S
C728 C732 1.350 . S
C729 C732 1.463 . S
C729 C734 1.350 . S
C729 N737 1.427 . S
C730 H721 0.930 . S
C730 C728 1.378 . S
C730 C731 1.367 . S
C731 C730 1.367 . S
C731 C733 1.433 . S
C732 C728 1.350 . S
C732 C729 1.463 . S
C732 N736 1.427 . S
C733 H723 0.929 . S
C733 C731 1.433 . S
C733 N736 1.384 . S
C734 H725 0.929 . S
C734 C726 1.378 . S
C734 C729 1.350 . S
C735 H722 0.929 . S
C735 C727 1.433 . S
C735 N737 1.384 . S
N736 C732 1.427 . S
N736 C733 1.384 . S
N737 C729 1.427 . S
N737 C735 1.384 . S
H738 C744 0.930 . S
H739 C748 0.930 . S
H740 C753 0.929 . S
H741 C751 0.929 . S
H742 C746 0.929 1_455 S
H743 C752 0.929 1_655 S
C744 H738 0.930 . S
C744 C745 1.367 . S
C744 C752 1.378 . S
C745 C744 1.367 . S
C745 C753 1.433 . S
C746 H742 0.929 1_655 S
C746 C748 1.378 . S
C746 C750 1.350 . S
C747 C750 1.463 1_455 S
C747 C752 1.350 . S
C747 N755 1.427 . S
C748 H739 0.930 . S
C748 C746 1.378 . S
C748 C749 1.367 . S
C749 C748 1.367 . S
C749 C751 1.433 . S
C750 C746 1.350 . S
C750 C747 1.463 1_655 S
C750 N754 1.427 . S
C751 H741 0.929 . S
C751 C749 1.433 . S
C751 N754 1.384 . S
C752 H743 0.929 1_455 S
C752 C744 1.378 . S
C752 C747 1.350 . S
C753 H740 0.929 . S
C753 C745 1.433 . S
C753 N755 1.384 . S
N754 C750 1.427 . S
N754 C751 1.384 . S
N755 C747 1.427 . S
N755 C753 1.384 . S
H756 C762 0.930 . S
H757 C766 0.930 . S
H758 C771 0.929 . S
H759 C769 0.929 . S
H760 C764 0.929 . S
H761 C770 0.929 . S
C762 H756 0.930 . S
C762 C763 1.367 . S
C762 C770 1.378 . S
C763 C762 1.367 . S
C763 C771 1.433 . S
C764 H760 0.929 . S
C764 C766 1.378 . S
C764 C768 1.350 . S
C765 C768 1.463 1_565 S
C765 C770 1.350 . S
C765 N773 1.427 1_565 S
C766 H757 0.930 . S
C766 C764 1.378 . S
C766 C767 1.367 . S
C767 C766 1.367 . S
C767 C769 1.433 . S
C768 C764 1.350 . S
C768 C765 1.463 1_545 S
C768 N772 1.427 1_545 S
C769 H759 0.929 . S
C769 C767 1.433 . S
C769 N772 1.384 1_545 S
C770 H761 0.929 . S
C770 C762 1.378 . S
C770 C765 1.350 . S
C771 H758 0.929 . S
C771 C763 1.433 . S
C771 N773 1.384 1_565 S
N772 C768 1.427 1_565 S
N772 C769 1.384 1_565 S
N773 C765 1.427 1_545 S
N773 C771 1.384 1_545 S
H774 C780 0.930 . S
H775 C784 0.930 . S
H776 C789 0.929 . S
H777 C787 0.929 . S
H778 C782 0.929 . S
H779 C788 0.929 . S
C780 H774 0.930 . S
C780 C781 1.367 . S
C780 C788 1.378 . S
C781 C780 1.367 . S
C781 C789 1.433 . S
C782 H778 0.929 . S
C782 C784 1.378 . S
C782 C786 1.350 . S
C783 C786 1.463 . S
C783 C788 1.350 . S
C783 N791 1.427 . S
C784 H775 0.930 . S
C784 C782 1.378 . S
C784 C785 1.367 . S
C785 C784 1.367 . S
C785 C787 1.433 . S
C786 C782 1.350 . S
C786 C783 1.463 . S
C786 N790 1.427 . S
C787 H777 0.929 . S
C787 C785 1.433 . S
C787 N790 1.384 . S
C788 H779 0.929 . S
C788 C780 1.378 . S
C788 C783 1.350 . S
C789 H776 0.929 . S
C789 C781 1.433 . S
C789 N791 1.384 . S
N790 C786 1.427 . S
N790 C787 1.384 . S
N791 C783 1.427 . S
N791 C789 1.384 . S
H792 C798 0.930 1_655 S
H793 C802 0.930 1_455 S
H794 C807 0.929 . S
H795 C805 0.929 . S
H796 C800 0.929 . S
H797 C806 0.929 . S
C798 H792 0.930 1_455 S
C798 C799 1.367 . S
C798 C806 1.378 1_455 S
C799 C798 1.367 . S
C799 C807 1.433 . S
C800 H796 0.929 . S
C800 C802 1.378 1_455 S
C800 C804 1.350 1_455 S
C801 C804 1.463 1_455 S
C801 C806 1.350 1_455 S
C801 N809 1.427 . S
C802 H793 0.930 1_655 S
C802 C800 1.378 1_655 S
C802 C803 1.367 . S
C803 C802 1.367 . S
C803 C805 1.433 . S
C804 C800 1.350 1_655 S
C804 C801 1.463 1_655 S
C804 N808 1.427 . S
C805 H795 0.929 . S
C805 C803 1.433 . S
C805 N808 1.384 . S
C806 H797 0.929 . S
C806 C798 1.378 1_655 S
C806 C801 1.350 1_655 S
C807 H794 0.929 . S
C807 C799 1.433 . S
C807 N809 1.384 . S
N808 C804 1.427 . S
N808 C805 1.384 . S
N809 C801 1.427 . S
N809 C807 1.384 . S
H810 C816 0.930 . S
H811 C820 0.930 . S
H812 C825 0.929 1_545 S
H813 C823 0.929 1_565 S
H814 C818 0.929 . S
H815 C824 0.929 . S
C816 H810 0.930 . S
C816 C817 1.367 . S
C816 C824 1.378 . S
C817 C816 1.367 . S
C817 C825 1.433 . S
C818 H814 0.929 . S
C818 C820 1.378 . S
C818 C822 1.350 . S
C819 C822 1.463 1_565 S
C819 C824 1.350 . S
C819 N827 1.427 1_565 S
C820 H811 0.930 . S
C820 C818 1.378 . S
C820 C821 1.367 . S
C821 C820 1.367 . S
C821 C823 1.433 . S
C822 C818 1.350 . S
C822 C819 1.463 1_545 S
C822 N826 1.427 1_545 S
C823 H813 0.929 1_545 S
C823 C821 1.433 . S
C823 N826 1.384 1_545 S
C824 H815 0.929 . S
C824 C816 1.378 . S
C824 C819 1.350 . S
C825 H812 0.929 1_565 S
C825 C817 1.433 . S
C825 N827 1.384 1_565 S
N826 C822 1.427 1_565 S
N826 C823 1.384 1_565 S
N827 C819 1.427 1_545 S
N827 C825 1.384 1_545 S
H828 C834 0.930 1_565 S
H829 C838 0.930 1_545 S
H830 C843 0.929 . S
H831 C841 0.929 . S
H832 C836 0.929 . S
H833 C842 0.929 . S
C834 H828 0.930 1_545 S
C834 C835 1.367 . S
C834 C842 1.378 1_545 S
C835 C834 1.367 . S
C835 C843 1.433 . S
C836 H832 0.929 . S
C836 C838 1.378 1_545 S
C836 C840 1.350 1_545 S
C837 C840 1.463 1_445 S
C837 C842 1.350 1_545 S
C837 N845 1.427 . S
C838 H829 0.930 1_565 S
C838 C836 1.378 1_565 S
C838 C839 1.367 . S
C839 C838 1.367 . S
C839 C841 1.433 . S
C840 C836 1.350 1_565 S
C840 C837 1.463 1_665 S
C840 N844 1.427 . S
C841 H831 0.929 . S
C841 C839 1.433 . S
C841 N844 1.384 . S
C842 H833 0.929 . S
C842 C834 1.378 1_565 S
C842 C837 1.350 1_565 S
C843 H830 0.929 . S
C843 C835 1.433 . S
C843 N845 1.384 . S
N844 C840 1.427 . S
N844 C841 1.384 . S
N845 C837 1.427 . S
N845 C843 1.384 . S
H846 C852 0.930 . S
H847 C856 0.930 . S
H848 C861 0.929 . S
H849 C859 0.929 . S
H850 C854 0.929 . S
H851 C860 0.929 . S
C852 H846 0.930 . S
C852 C853 1.367 . S
C852 C860 1.378 . S
C853 C852 1.367 . S
C853 C861 1.433 . S
C854 H850 0.929 . S
C854 C856 1.378 . S
C854 C858 1.350 . S
C855 C858 1.463 1_445 S
C855 C860 1.350 . S
C855 N863 1.427 . S
C856 H847 0.930 . S
C856 C854 1.378 . S
C856 C857 1.367 . S
C857 C856 1.367 . S
C857 C859 1.433 . S
C858 C854 1.350 . S
C858 C855 1.463 1_665 S
C858 N862 1.427 . S
C859 H849 0.929 . S
C859 C857 1.433 . S
C859 N862 1.384 . S
C860 H851 0.929 . S
C860 C852 1.378 . S
C860 C855 1.350 . S
C861 H848 0.929 . S
C861 C853 1.433 . S
C861 N863 1.384 . S
N862 C858 1.427 . S
N862 C859 1.384 . S
N863 C855 1.427 . S
N863 C861 1.384 . S
H864 C870 0.930 . S
H865 C874 0.930 . S
H866 C879 0.929 . S
H867 C877 0.929 . S
H868 C872 0.929 . S
H869 C878 0.929 . S
C870 H864 0.930 . S
C870 C871 1.367 . S
C870 C878 1.378 1_545 S
C871 C870 1.367 . S
C871 C879 1.433 1_655 S
C872 H868 0.929 . S
C872 C874 1.378 1_545 S
C872 C876 1.350 1_545 S
C873 C876 1.463 1_645 S
C873 C878 1.350 1_545 S
C873 N881 1.427 1_655 S
C874 H865 0.930 . S
C874 C872 1.378 1_565 S
C874 C875 1.367 . S
C875 C874 1.367 . S
C875 C877 1.433 1_455 S
C876 C872 1.350 1_565 S
C876 C873 1.463 1_465 S
C876 N880 1.427 1_455 S
C877 H867 0.929 . S
C877 C875 1.433 1_655 S
C877 N880 1.384 . S
C878 H869 0.929 . S
C878 C870 1.378 1_565 S
C878 C873 1.350 1_565 S
C879 H866 0.929 . S
C879 C871 1.433 1_455 S
C879 N881 1.384 . S
N880 C876 1.427 1_655 S
N880 C877 1.384 . S
N881 C873 1.427 1_455 S
N881 C879 1.384 . S
H882 C888 0.930 . S
H883 C892 0.930 . S
H884 C897 0.929 . S
H885 C895 0.929 . S
H886 C890 0.929 . S
H887 C896 0.929 . S
C888 H882 0.930 . S
C888 C889 1.367 . S
C888 C896 1.378 . S
C889 C888 1.367 . S
C889 C897 1.433 1_655 S
C890 H886 0.929 . S
C890 C892 1.378 . S
C890 C894 1.350 . S
C891 C894 1.463 1_665 S
C891 C896 1.350 . S
C891 N899 1.427 1_655 S
C892 H883 0.930 . S
C892 C890 1.378 . S
C892 C893 1.367 . S
C893 C892 1.367 . S
C893 C895 1.433 1_455 S
C894 C890 1.350 . S
C894 C891 1.463 1_445 S
C894 N898 1.427 1_455 S
C895 H885 0.929 . S
C895 C893 1.433 1_655 S
C895 N898 1.384 . S
C896 H887 0.929 . S
C896 C888 1.378 . S
C896 C891 1.350 . S
C897 H884 0.929 . S
C897 C889 1.433 1_455 S
C897 N899 1.384 . S
N898 C894 1.427 1_655 S
N898 C895 1.384 . S
N899 C891 1.427 1_455 S
N899 C897 1.384 . S
H900 C906 0.930 . S
H901 C910 0.930 . S
H902 C915 0.929 . S
H903 C913 0.929 . S
H904 C908 0.929 . S
H905 C914 0.929 . S
C906 H900 0.930 . S
C906 C907 1.367 . S
C906 C914 1.378 . S
C907 C906 1.367 . S
C907 C915 1.433 . S
C908 H904 0.929 . S
C908 C910 1.378 . S
C908 C912 1.350 . S
C909 C912 1.463 1_645 S
C909 C914 1.350 . S
C909 N917 1.427 . S
C910 H901 0.930 . S
C910 C908 1.378 . S
C910 C911 1.367 . S
C911 C910 1.367 . S
C911 C913 1.433 . S
C912 C908 1.350 . S
C912 C909 1.463 1_465 S
C912 N916 1.427 . S
C913 H903 0.929 . S
C913 C911 1.433 . S
C913 N916 1.384 . S
C914 H905 0.929 . S
C914 C906 1.378 . S
C914 C909 1.350 . S
C915 H902 0.929 . S
C915 C907 1.433 . S
C915 N917 1.384 . S
N916 C912 1.427 . S
N916 C913 1.384 . S
N917 C909 1.427 . S
N917 C915 1.384 . S
H918 C924 0.930 . S
H919 C928 0.930 . S
H920 C933 0.929 . S
H921 C931 0.929 . S
H922 C926 0.929 . S
H923 C932 0.929 . S
C924 H918 0.930 . S
C924 C925 1.367 . S
C924 C932 1.378 . S
C925 C924 1.367 . S
C925 C933 1.433 . S
C926 H922 0.929 . S
C926 C928 1.378 . S
C926 C930 1.350 . S
C927 C930 1.463 1_445 S
C927 C932 1.350 . S
C927 N935 1.427 . S
C928 H919 0.930 . S
C928 C926 1.378 . S
C928 C929 1.367 . S
C929 C928 1.367 . S
C929 C931 1.433 . S
C930 C926 1.350 . S
C930 C927 1.463 1_665 S
C930 N934 1.427 . S
C931 H921 0.929 . S
C931 C929 1.433 . S
C931 N934 1.384 . S
C932 H923 0.929 . S
C932 C924 1.378 . S
C932 C927 1.350 . S
C933 H920 0.929 . S
C933 C925 1.433 . S
C933 N935 1.384 . S
N934 C930 1.427 . S
N934 C931 1.384 . S
N935 C927 1.427 . S
N935 C933 1.384 . S
C403 N14 1.632 . S
C407 N245 1.642 . S
C421 N47 1.642 . S
C425 N278 1.631 . S
C439 N80 1.639 . S
C443 N311 1.636 . S
C457 N344 1.633 . S
C461 N113 1.634 . S
C475 N377 1.641 . S
C479 N146 1.634 . S
C493 N179 1.630 . S
C497 N212 1.640 . S
C511 C127 1.683 . S
C515 C28 1.689 . S
C529 C61 1.686 . S
C533 C160 1.688 . S
C547 C193 1.683 . S
C551 C94 1.688 . S
C565 C325 1.684 . S
C569 C226 1.689 . S
C583 C358 1.688 . S
C587 C259 1.683 . S
C601 C292 1.688 . S
C605 C391 1.683 . S
C619 N269 1.535 . S
C623 N5 1.547 . S
C637 N38 1.543 . S
C641 N302 1.538 . S
C655 N71 1.548 . S
C659 N335 1.536 . S
C673 N104 1.541 . S
C677 N368 1.540 . S
C691 N137 1.545 . S
C695 N203 1.536 . S
C709 N236 1.541 . S
C713 N170 1.544 . S
C727 C116 1.055 . S
C731 C17 1.060 . S
C745 C50 1.065 . S
C749 C149 1.057 . S
C763 C182 1.055 . S
C767 C83 1.062 . S
C781 C215 1.055 . S
C785 C314 1.061 . S
C799 C248 1.060 . S
C803 C347 1.064 . S
C817 C380 1.059 . S
C821 C281 1.057 . S
C835 C8 1.346 . S
C839 C107 1.345 . S
C853 C41 1.344 . S
C857 C140 1.343 . S
C871 C74 1.340 . S
C875 C173 1.340 . S
C889 C206 1.340 . S
C893 C305 1.340 . S
C907 C338 1.342 . S
C911 C239 1.343 . S
C925 C272 1.342 . S
C929 C371 1.343 . S
