# Generated by pormake.
# Topology cab, (5)-cn, num edge types: 1
# Building blocks:
#     Node 0, Type 0, BuildingBlock: BEQFEK_clean_sbu_0, # of connection points: 5
#     Node 1, Type 0, BuildingBlock: BEQFEK_clean_sbu_0, # of connection points: 5
#     Node 2, Type 0, BuildingBlock: BEQFEK_clean_sbu_0, # of connection points: 5
#     Node 3, Type 0, BuildingBlock: BEQFEK_clean_sbu_0, # of connection points: 5
#     Node 4, Type 0, BuildingBlock: BEQFEK_clean_sbu_0, # of connection points: 5
#     Node 5, Type 0, BuildingBlock: BEQFEK_clean_sbu_0, # of connection points: 5
#     Edge 6, Type (0, 0), BuildingBlock: XIVTED_clean_linker_0, # of connection points: 2
#     Edge 7, Type (0, 0), BuildingBlock: XIVTED_clean_linker_0, # of connection points: 2
#     Edge 8, Type (0, 0), BuildingBlock: XIVTED_clean_linker_0, # of connection points: 2
#     Edge 9, Type (0, 0), BuildingBlock: XIVTED_clean_linker_0, # of connection points: 2
#     Edge 10, Type (0, 0), BuildingBlock: XIVTED_clean_linker_0, # of connection points: 2
#     Edge 11, Type (0, 0), BuildingBlock: XIVTED_clean_linker_0, # of connection points: 2
#     Edge 12, Type (0, 0), BuildingBlock: XIVTED_clean_linker_0, # of connection points: 2
#     Edge 13, Type (0, 0), BuildingBlock: XIVTED_clean_linker_0, # of connection points: 2
#     Edge 14, Type (0, 0), BuildingBlock: XIVTED_clean_linker_0, # of connection points: 2
#     Edge 15, Type (0, 0), BuildingBlock: XIVTED_clean_linker_0, # of connection points: 2
#     Edge 16, Type (0, 0), BuildingBlock: XIVTED_clean_linker_0, # of connection points: 2
#     Edge 17, Type (0, 0), BuildingBlock: XIVTED_clean_linker_0, # of connection points: 2
#     Edge 18, Type (0, 0), BuildingBlock: XIVTED_clean_linker_0, # of connection points: 2
#     Edge 19, Type (0, 0), BuildingBlock: XIVTED_clean_linker_0, # of connection points: 2
#     Edge 20, Type (0, 0), BuildingBlock: XIVTED_clean_linker_0, # of connection points: 2
# Relax obj value: 1.248
# Max RMSD: 0.228
# Mean RMSD: 0.211
data_MOF--net-cab--node1-BEQFEK_clean_sbu_0--edge1-XIVTED_clean_linker_0
_symmetry_space_group_name_H-M    P1
_symmetry_Int_Tables_number       1
_symmetry_cell_setting            triclinic
loop_
_symmetry_equiv_pos_as_xyz
'x, y, z'
_cell_length_a     31.306358
_cell_length_b     30.557852
_cell_length_c     32.109798
_cell_angle_alpha  112.55023
_cell_angle_beta   96.812771
_cell_angle_gamma 130.32429
loop_
_atom_site_label
_atom_site_type_symbol
_atom_site_fract_x
_atom_site_fract_y
_atom_site_fract_z
_atom_type_partial_charge
Co0 Co 0.37483 0.54561 0.68615 0.0
Co1 Co 0.23818 0.48361 0.64597 0.0
C2 C 0.25954 0.4072 0.5802 0.0
O3 O 0.32102 0.45871 0.6122 0.0
O4 O 0.22338 0.41048 0.59005 0.0
C5 C 0.47702 0.59936 0.67102 0.0
O6 O 0.4361 0.58406 0.63369 0.0
C7 C 0.12478 0.41885 0.56382 0.0
C8 C 0.05356 0.37704 0.58979 0.0
C9 C 0.05893 0.37363 0.54667 0.0
N10 N 0.1568 0.44756 0.6145 0.0
N11 N 0.11427 0.42362 0.63027 0.0
C12 C 0.1544 0.42368 0.52995 0.0
H13 H 0.12921 0.36923 0.4986 0.0
H14 H 0.20767 0.46145 0.55381 0.0
H15 H 0.14807 0.44377 0.51052 0.0
C16 C 0.41696 0.672 0.70083 0.0
N17 N 0.37077 0.60682 0.69028 0.0
N18 N 0.31306 0.57877 0.66778 0.0
C19 C 0.32097 0.62414 0.66101 0.0
C20 C 0.38705 0.68382 0.67999 0.0
C21 C 0.48933 0.72353 0.73097 0.0
H22 H 0.50094 0.71213 0.75638 0.0
H23 H 0.50744 0.71956 0.70375 0.0
H24 H 0.51567 0.77985 0.75587 0.0
O25 O 0.33804 0.5048 0.72329 0.0
O26 O 0.24699 0.47274 0.70204 0.0
H27 H 0.22281 0.5703 0.63359 0.0
H28 H 0.28083 0.65684 0.64659 0.0
C29 C 0.26572 0.60687 0.63086 0.0
H30 H 0.25177 0.58095 0.58886 0.0
H31 H 0.12535 0.43349 0.66688 0.0
O32 O 0.46361 0.59112 0.70509 0.0
C33 C 0.28592 0.47564 0.72487 0.0
Co34 Co 0.11764 4e-05 0.72477 0.0
Co35 Co 0.98843 0.946 0.71385 0.0
C36 C 0.11122 0.07734 0.81386 0.0
O37 O 0.13971 0.07065 0.79184 0.0
O38 O 0.04898 0.02827 0.78976 0.0
C39 C 0.22353 0.04256 0.78659 0.0
O40 O 0.18326 0.0114 0.80244 0.0
C41 C 0.87748 0.88981 0.72815 0.0
C42 C 0.80178 0.83865 0.65253 0.0
C43 C 0.81329 0.85135 0.70093 0.0
N44 N 0.90222 0.89782 0.69676 0.0
N45 N 0.85678 0.86711 0.65158 0.0
C46 C 0.9175 0.92547 0.78491 0.0
H47 H 0.9534 0.92584 0.79011 0.0
H48 H 0.88681 0.89906 0.80012 0.0
H49 H 0.94545 0.98247 0.80901 0.0
C50 C 0.04025 0.8533 0.69243 0.0
N51 N 0.04529 0.90325 0.69973 0.0
N52 N 0.99147 0.88097 0.69634 0.0
C53 C 0.9511 0.81665 0.68779 0.0
C54 C 0.98154 0.79777 0.68675 0.0
C55 C 0.09146 0.85901 0.69213 0.0
H56 H 0.12006 0.89214 0.67929 0.0
H57 H 0.1256 0.88471 0.73217 0.0
H58 H 0.06798 0.8043 0.66525 0.0
O59 O 0.10093 0.01816 0.67664 0.0
O60 O 0.01869 0.99527 0.68018 0.0
H61 H 0.85975 0.77834 0.66332 0.0
H62 H 0.85724 0.72235 0.67156 0.0
C63 C 0.88848 0.77899 0.68779 0.0
H64 H 0.90001 0.80806 0.72876 0.0
H65 H 0.86347 0.86603 0.62027 0.0
O66 O 0.20228 0.03643 0.74611 0.0
C67 C 0.06299 0.02196 0.66841 0.0
Co68 Co 0.62104 0.44112 0.2394 0.0
Co69 Co 0.65825 0.47313 0.35053 0.0
C70 C 0.51917 0.37392 0.26642 0.0
O71 O 0.53576 0.38497 0.23429 0.0
O72 O 0.5613 0.4041 0.31138 0.0
C73 C 0.5669 0.41797 0.14438 0.0
O74 O 0.53814 0.4291 0.1649 0.0
C75 C 0.66343 0.52795 0.44975 0.0
C76 C 0.73239 0.54372 0.50201 0.0
C77 C 0.69363 0.55181 0.50062 0.0
N78 N 0.68414 0.5079 0.42244 0.0
N79 N 0.72523 0.51716 0.45377 0.0
C80 C 0.61264 0.52012 0.42597 0.0
H81 H 0.61345 0.52304 0.39265 0.0
H82 H 0.61991 0.562 0.45529 0.0
H83 H 0.56354 0.46662 0.41068 0.0
C84 C 0.70936 0.59726 0.30598 0.0
N85 N 0.68575 0.5383 0.30016 0.0
N86 N 0.70406 0.55282 0.3469 0.0
C87 C 0.74162 0.62264 0.38394 0.0
C88 C 0.74402 0.65254 0.3594 0.0
C89 C 0.68791 0.59566 0.26068 0.0
H90 H 0.68509 0.56268 0.22689 0.0
H91 H 0.63867 0.57123 0.24853 0.0
H92 H 0.72234 0.65052 0.2713 0.0
O93 O 0.64272 0.39426 0.24085 0.0
O94 O 0.67059 0.41452 0.31817 0.0
H95 H 0.78716 0.64046 0.45345 0.0
H96 H 0.81473 0.71941 0.46431 0.0
C97 C 0.77158 0.66004 0.4422 0.0
H98 H 0.73562 0.6495 0.45359 0.0
H99 H 0.74853 0.50561 0.44234 0.0
O100 O 0.60796 0.42637 0.1715 0.0
C101 C 0.66014 0.38538 0.27156 0.0
Co102 Co 0.43025 0.79744 0.34814 0.0
Co103 Co 0.40405 0.71974 0.23314 0.0
C104 C 0.30984 0.63775 0.26313 0.0
O105 O 0.34551 0.69401 0.31019 0.0
O106 O 0.32786 0.64087 0.23011 0.0
C107 C 0.45385 0.80221 0.43402 0.0
O108 O 0.44475 0.75253 0.39834 0.0
C109 C 0.37108 0.60598 0.14568 0.0
C110 C 0.38234 0.63078 0.0891 0.0
C111 C 0.36205 0.57927 0.09577 0.0
N112 N 0.39467 0.66977 0.16764 0.0
N113 N 0.40204 0.68493 0.13387 0.0
C114 C 0.35889 0.5718 0.17268 0.0
H115 H 0.30664 0.53259 0.16112 0.0
H116 H 0.38974 0.61328 0.21622 0.0
H117 H 0.36936 0.542 0.16055 0.0
C118 C 0.55614 0.84851 0.37498 0.0
N119 N 0.4973 0.81268 0.33969 0.0
N120 N 0.48513 0.77744 0.29177 0.0
C121 C 0.53494 0.78808 0.29524 0.0
C122 C 0.58121 0.83243 0.34828 0.0
C123 C 0.58931 0.8987 0.4337 0.0
H124 H 0.57349 0.92294 0.44403 0.0
H125 H 0.57701 0.86886 0.45022 0.0
H126 H 0.64343 0.94229 0.45198 0.0
O127 O 0.40835 0.83052 0.31796 0.0
O128 O 0.38979 0.77559 0.23654 0.0
H129 H 0.51774 0.75138 0.21696 0.0
H130 H 0.58415 0.7761 0.25864 0.0
C131 C 0.53485 0.75046 0.2485 0.0
H132 H 0.50116 0.69349 0.23308 0.0
H133 H 0.41845 0.73088 0.14062 0.0
O134 O 0.45244 0.83719 0.42291 0.0
C135 C 0.39076 0.81497 0.272 0.0
Co136 Co 0.73559 0.05043 0.08023 0.0
Co137 Co 0.62046 0.90475 0.0614 0.0
C138 C 0.7567 0.02804 0.1583 0.0
O139 O 0.7778 0.06375 0.14032 0.0
O140 O 0.69679 0.96619 0.13251 0.0
C141 C 0.84283 0.19634 0.13242 0.0
O142 O 0.82269 0.19442 0.16603 0.0
C143 C 0.57693 0.77812 0.03786 0.0
C144 C 0.47882 0.70696 0.02799 0.0
C145 C 0.52649 0.71267 0.0279 0.0
N146 N 0.56006 0.80959 0.04231 0.0
N147 N 0.50097 0.76667 0.03605 0.0
C148 C 0.64325 0.81344 0.04828 0.0
H149 H 0.67397 0.8652 0.05401 0.0
H150 H 0.63782 0.77657 0.01487 0.0
H151 H 0.6683 0.82377 0.08423 0.0
C152 C 0.70031 0.95496 0.97585 0.0
N153 N 0.69223 0.9657 0.01731 0.0
N154 N 0.64166 0.90331 0.00682 0.0
C155 C 0.61503 0.85007 0.95694 0.0
C156 C 0.65137 0.88133 0.93588 0.0
C157 C 0.75575 0.01474 0.97589 0.0
H158 H 0.80204 0.05502 0.01405 0.0
H159 H 0.76218 0.99449 0.94336 0.0
H160 H 0.74601 0.04235 0.97177 0.0
O161 O 0.67328 0.0484 0.08706 0.0
O162 O 0.58927 0.94638 0.07485 0.0
H163 H 0.52863 0.74236 0.88515 0.0
H164 H 0.56683 0.74773 0.93622 0.0
C165 C 0.55382 0.77112 0.92845 0.0
H166 H 0.52008 0.76268 0.94234 0.0
H167 H 0.47677 0.7791 0.03902 0.0
O168 O 0.80824 0.13737 0.08742 0.0
C169 C 0.61897 0.00698 0.08499 0.0
Co170 Co 0.01266 0.84028 0.18623 0.0
Co171 Co 0.97426 0.76334 0.06777 0.0
C172 C 0.07332 0.91957 0.1384 0.0
O173 O 0.06773 0.91389 0.17502 0.0
O174 O 0.03649 0.86362 0.09084 0.0
C175 C 0.02414 0.93728 0.25578 0.0
O176 O -0.00104 0.92382 0.21086 0.0
C177 C 0.95768 0.71663 0.96277 0.0
C178 C 0.87073 0.59768 0.91304 0.0
C179 C 0.91742 0.65396 0.91166 0.0
N180 N 0.93648 0.69846 0.99332 0.0
N181 N 0.88468 0.62718 0.9634 0.0
C182 C 0.0122 0.79309 0.98171 0.0
H183 H -0.00068 0.81988 0.99626 0.0
H184 H 0.02109 0.79685 0.95026 0.0
H185 H 0.05788 0.82261 0.01504 0.0
C186 C 0.87132 0.74041 0.13722 0.0
N187 N 0.92351 0.76414 0.13314 0.0
N188 N 0.90733 0.73695 0.08365 0.0
C189 C 0.84475 0.6983 0.05487 0.0
C190 C 0.81943 0.69902 0.08793 0.0
C191 C 0.87172 0.75674 0.18772 0.0
H192 H 0.90553 0.76233 0.21218 0.0
H193 H 0.88964 0.80866 0.21062 0.0
H194 H 0.82163 0.71338 0.17963 0.0
O195 O 0.04857 0.80738 0.18815 0.0
O196 O 0.02954 0.76241 0.10626 0.0
H197 H 0.78131 0.61246 0.97194 0.0
H198 H 0.78356 0.67795 0.99257 0.0
C199 C 0.81373 0.67093 0.99905 0.0
H200 H 0.85179 0.70006 0.98951 0.0
H201 H 0.85851 0.59865 0.97726 0.0
O202 O 0.0291 0.89905 0.25561 0.0
C203 C 0.05527 0.78031 0.152 0.0
H204 H 0.5243 0.8004 0.4884 0.0
H205 H 0.38393 0.77315 0.68109 0.0
H206 H 0.40695 0.82949 0.4943 0.0
H207 H 0.44315 0.67986 0.62319 0.0
H208 H 0.41438 0.82331 0.63166 0.0
H209 H 0.52309 0.79254 0.56082 0.0
C210 C 0.49925 0.80651 0.50577 0.0
C211 C 0.46506 0.81476 0.48511 0.0
C212 C 0.42172 0.79297 0.63089 0.0
C213 C 0.46145 0.80327 0.56704 0.0
C214 C 0.40413 0.76413 0.65876 0.0
C215 C 0.41173 0.72296 0.65681 0.0
C216 C 0.44769 0.78102 0.60167 0.0
C217 C 0.43843 0.71319 0.62752 0.0
C218 C 0.49822 0.80161 0.54695 0.0
C219 C 0.4338 0.82297 0.50928 0.0
N220 N 0.4553 0.74186 0.6013 0.0
N221 N 0.43153 0.81552 0.54851 0.0
H222 H 0.88913 0.1487 0.21703 0.0
H223 H 0.94862 0.22864 0.49493 0.0
H224 H 0.72525 0.99671 0.22685 0.0
H225 H 0.04627 0.39273 0.47184 0.0
H226 H 0.87186 0.13527 0.3986 0.0
H227 H 0.95795 0.22941 0.31269 0.0
C228 C 0.8678 0.13154 0.23922 0.0
C229 C 0.80093 0.06625 0.21385 0.0
C230 C 0.90996 0.19182 0.41492 0.0
C231 C 0.87976 0.15927 0.32375 0.0
C232 C 0.95327 0.24499 0.46967 0.0
C233 C 0.00483 0.31829 0.491 0.0
C234 C 0.9193 0.21266 0.38188 0.0
C235 C 0.00883 0.33676 0.45679 0.0
C236 C 0.90707 0.17808 0.29389 0.0
C237 C 0.77648 0.0467 0.24484 0.0
N238 N 0.96735 0.28428 0.40388 0.0
N239 N 0.81588 0.09353 0.29853 0.0
H240 H 0.30505 0.38805 0.51573 0.0
H241 H 0.03546 0.96416 0.35076 0.0
H242 H 0.14302 0.27186 0.53959 0.0
H243 H 0.09313 0.06453 0.27324 0.0
H244 H 0.09629 0.08086 0.43285 0.0
H245 H 0.24888 0.2716 0.43725 0.0
C246 C 0.25793 0.33809 0.50451 0.0
C247 C 0.22798 0.33907 0.53337 0.0
C248 C 0.09546 0.07677 0.39766 0.0
C249 C 0.16544 0.20741 0.44592 0.0
C250 C 0.06101 0.01071 0.35119 0.0
C251 C 0.0589 0.00505 0.30542 0.0
C252 C 0.12952 0.1373 0.39828 0.0
C253 C 0.09294 0.0667 0.30767 0.0
C254 C 0.22614 0.27214 0.46006 0.0
C255 C 0.16708 0.27309 0.51768 0.0
N256 N 0.12746 0.13061 0.35355 0.0
N257 N 0.13788 0.20965 0.47511 0.0
H258 H 0.71656 0.6655 0.54137 0.0
H259 H 0.53163 0.56406 0.69761 0.0
H260 H 0.65549 0.50412 0.55938 0.0
H261 H 0.54663 0.67357 0.63604 0.0
H262 H 0.6046 0.56945 0.67087 0.0
H263 H 0.68119 0.69519 0.59891 0.0
C264 C 0.69656 0.63716 0.55825 0.0
C265 C 0.68637 0.58048 0.54424 0.0
C266 C 0.59279 0.59344 0.66422 0.0
C267 C 0.64843 0.61619 0.61176 0.0
C268 C 0.5518 0.59102 0.67988 0.0
C269 C 0.53261 0.61758 0.66827 0.0
C270 C 0.61499 0.62344 0.63754 0.0
C271 C 0.55953 0.65149 0.64493 0.0
C272 C 0.67709 0.65464 0.5915 0.0
C273 C 0.66279 0.54726 0.56863 0.0
N274 N 0.5988 0.65285 0.62992 0.0
N275 N 0.64348 0.56479 0.60071 0.0
H276 H 0.02329 0.71139 0.90104 0.0
H277 H 0.87122 0.65324 0.64092 0.0
H278 H 0.82105 0.58447 0.81656 0.0
H279 H 0.06933 0.84683 0.77461 0.0
H280 H 0.85048 0.59657 0.68514 0.0
H281 H 0.03735 0.72657 0.83253 0.0
C282 C 0.98155 0.68558 0.8674 0.0
C283 C 0.92161 0.64877 0.86503 0.0
C284 C 0.89889 0.65074 0.70379 0.0
C285 C 0.93699 0.66514 0.78662 0.0
C286 C 0.91067 0.68316 0.67886 0.0
C287 C 0.97179 0.75524 0.70448 0.0
C288 C 0.94933 0.69024 0.75377 0.0
C289 C 0.02177 0.79095 0.7529 0.0
C290 C 0.98951 0.6941 0.8284 0.0
C291 C 0.86839 0.61445 0.82007 0.0
N292 N 0.00929 0.75831 0.77607 0.0
N293 N 0.8776 0.62467 0.78291 0.0
H294 H 0.56901 0.33023 0.08041 0.0
H295 H 0.31256 0.17963 0.81702 0.0
H296 H 0.50365 0.41805 0.07789 0.0
H297 H 0.29273 0.04327 0.84723 0.0
H298 H 0.41789 0.2864 0.90117 0.0
H299 H 0.50274 0.24588 0.98376 0.0
C300 C 0.54243 0.3334 0.05953 0.0
C301 C 0.54079 0.3803 0.08712 0.0
C302 C 0.39154 0.23299 0.88826 0.0
C303 C 0.46614 0.28496 0.97703 0.0
C304 C 0.33193 0.17215 0.84015 0.0
C305 C 0.29425 0.10284 0.82549 0.0
C306 C 0.41377 0.22395 0.92103 0.0
C307 C 0.3206 0.09597 0.85736 0.0
C308 C 0.50459 0.28514 0.00448 0.0
C309 C 0.50538 0.38195 0.05805 0.0
N310 N 0.37865 0.15596 0.90405 0.0
N311 N 0.46879 0.33428 0.00443 0.0
H312 H 0.07019 0.11658 0.87323 0.0
H313 H 0.40057 0.5396 0.03357 0.0
H314 H 0.24355 0.20197 0.86675 0.0
H315 H 0.24396 0.45251 0.06557 0.0
H316 H 0.34265 0.41607 0.96961 0.0
H317 H 0.13335 0.23952 0.94407 0.0
C318 C 0.12175 0.16093 0.88727 0.0
C319 C 0.15131 0.14874 0.86361 0.0
C320 C 0.32129 0.4242 0.99098 0.0
C321 C 0.22361 0.28995 0.94391 0.0
C322 C 0.35405 0.49441 0.02702 0.0
C323 C 0.32735 0.5059 0.05528 0.0
C324 C 0.26107 0.36548 0.98277 0.0
C325 C 0.2669 0.44591 0.04545 0.0
C326 C 0.15776 0.23126 0.92755 0.0
C327 C 0.21847 0.20862 0.88356 0.0
N328 N 0.23576 0.37834 0.00999 0.0
N329 N 0.25209 0.27667 0.92203 0.0
H330 H 0.63648 0.90096 0.86222 0.0
H331 H 0.77716 0.77845 0.74279 0.0
H332 H 0.65197 0.78551 0.89372 0.0
H333 H 0.74283 0.87471 0.69992 0.0
H334 H 0.71367 0.76091 0.78588 0.0
H335 H 0.65501 0.87083 0.78973 0.0
C336 C 0.64212 0.86755 0.85277 0.0
C337 C 0.64378 0.84648 0.88414 0.0
C338 C 0.7195 0.78538 0.76675 0.0
C339 C 0.66642 0.81307 0.80229 0.0
C340 C 0.75621 0.79598 0.74265 0.0
C341 C 0.76731 0.83083 0.71994 0.0
C342 C 0.69388 0.80997 0.76812 0.0
C343 C 0.73645 0.8491 0.71815 0.0
C344 C 0.65303 0.85064 0.81163 0.0
C345 C 0.65071 0.80292 0.87039 0.0
N346 N 0.7021 0.83972 0.74289 0.0
N347 N 0.66318 0.78883 0.83105 0.0
H348 H 0.80967 0.76692 0.35483 0.0
H349 H 0.57823 0.78634 0.40607 0.0
H350 H 0.6808 0.65944 0.40722 0.0
H351 H 0.6873 0.8799 0.33779 0.0
H352 H 0.63988 0.76847 0.42847 0.0
H353 H 0.78791 0.83404 0.36776 0.0
C354 C 0.77823 0.75888 0.37031 0.0
C355 C 0.74656 0.70715 0.37952 0.0
C356 C 0.65122 0.79378 0.40917 0.0
C357 C 0.72191 0.78349 0.39471 0.0
C358 C 0.61639 0.80477 0.39686 0.0
C359 C 0.62711 0.83382 0.36942 0.0
C360 C 0.69627 0.81038 0.39289 0.0
C361 C 0.67647 0.85555 0.35776 0.0
C362 C 0.76586 0.79709 0.37768 0.0
C363 C 0.70698 0.6993 0.40017 0.0
N364 N 0.70852 0.84211 0.36865 0.0
N365 N 0.69526 0.73631 0.40644 0.0
H366 H 0.46379 0.34439 0.32567 0.0
H367 H 0.11737 0.95721 0.07603 0.0
H368 H 0.41354 0.27601 0.16637 0.0
H369 H 0.1565 0.04907 0.23557 0.0
H370 H 0.22124 0.07682 0.10686 0.0
H371 H 0.3482 0.24086 0.29303 0.0
C372 C 0.42838 0.30827 0.28395 0.0
C373 C 0.44863 0.31856 0.2487 0.0
C374 C 0.20645 0.07092 0.13489 0.0
C375 C 0.31604 0.19892 0.21077 0.0
C376 C 0.14706 0.0026 0.11727 0.0
C377 C 0.12868 0.99267 0.15338 0.0
C378 C 0.2478 0.12936 0.189 0.0
C379 C 0.16906 0.05373 0.20636 0.0
C380 C 0.36224 0.24904 0.26526 0.0
C381 C 0.4003 0.27 0.195 0.0
N382 N 0.22709 0.11908 0.22266 0.0
N383 N 0.33639 0.2116 0.17754 0.0
H384 H 0.93329 0.32806 0.22937 0.0
H385 H 0.21684 0.5094 0.16333 0.0
H386 H 0.90547 0.21731 0.07687 0.0
H387 H 0.24908 0.61129 0.3197 0.0
H388 H 0.10259 0.40256 0.13068 0.0
H389 H 0.04796 0.43439 0.26195 0.0
C390 C 0.95109 0.32631 0.20253 0.0
C391 C 0.90974 0.26358 0.15033 0.0
C392 C 0.13474 0.44805 0.17221 0.0
C393 C 0.0413 0.38498 0.18765 0.0
C394 C 0.20028 0.50903 0.19107 0.0
C395 C 0.2429 0.56957 0.24448 0.0
C396 C 0.11133 0.44759 0.20687 0.0
C397 C 0.21812 0.56596 0.27826 0.0
C398 C 0.01675 0.38695 0.22131 0.0
C399 C 0.9356 0.2645 0.11741 0.0
N400 N 0.15385 0.50615 0.2588 0.0
N401 N -0.00016 0.32419 0.13671 0.0
H402 H 0.6953 0.57623 0.99836 0.0
H403 H 0.5582 0.7119 0.10951 0.0
H404 H 0.80421 0.77238 0.15101 0.0
H405 H 0.51339 0.61998 0.94888 0.0
H406 H 0.61435 0.68412 0.1225 0.0
H407 H 0.59933 0.54961 0.97844 0.0
C408 C 0.69889 0.61298 0.02801 0.0
C409 C 0.75819 0.67658 0.07664 0.0
C410 C 0.58979 0.66729 0.08376 0.0
C411 C 0.64821 0.64461 0.05503 0.0
C412 C 0.55712 0.68227 0.07619 0.0
C413 C 0.53144 0.6681 0.02813 0.0
C414 C 0.59647 0.63795 0.0429 0.0
C415 C 0.53249 0.63122 0.9864 0.0
C416 C 0.64401 0.59729 0.01678 0.0
C417 C 0.75955 0.72162 0.1138 0.0
N418 N 0.56583 0.61857 0.99498 0.0
N419 N 0.7056 0.7048 0.10222 0.0
H420 H 0.16427 0.10317 0.6536 0.0
H421 H 0.34657 0.4529 0.76465 0.0
H422 H 0.01509 0.07276 0.67388 0.0
H423 H 0.16191 0.37408 0.70718 0.0
H424 H 0.2895 0.33806 0.74672 0.0
H425 H 0.22329 0.22081 0.67667 0.0
C426 C 0.14318 0.12051 0.66194 0.0
C427 C 0.08527 0.07842 0.66299 0.0
C428 C 0.26143 0.34581 0.73783 0.0
C429 C 0.15461 0.21507 0.69222 0.0
C430 C 0.29428 0.41219 0.74937 0.0
C431 C 0.2588 0.42257 0.73576 0.0
C432 C 0.19267 0.28949 0.71255 0.0
C433 C 0.19126 0.36814 0.71724 0.0
C434 C 0.1779 0.18867 0.6765 0.0
C435 C 0.06003 0.10363 0.67329 0.0
N436 N 0.16011 0.30332 0.70522 0.0
N437 N 0.0953 0.17077 0.68815 0.0
H438 H 0.59654 0.02943 0.16619 0.0
H439 H 0.67431 0.34519 0.18827 0.0
H440 H 0.6004 0.06106 0.04641 0.0
H441 H 0.63899 0.30124 0.30006 0.0
H442 H 0.64916 0.24104 0.13797 0.0
H443 H 0.60547 0.12246 0.21472 0.0
C444 C 0.59616 0.05359 0.14897 0.0
C445 C 0.59727 0.03751 0.10217 0.0
C446 C 0.64697 0.25391 0.17353 0.0
C447 C 0.61045 0.14543 0.15814 0.0
C448 C 0.6621 0.31405 0.20269 0.0
C449 C 0.65862 0.33191 0.24841 0.0
C450 C 0.62815 0.21072 0.18998 0.0
C451 C 0.64274 0.28963 0.26522 0.0
C452 C 0.60253 0.10756 0.1771 0.0
C453 C 0.59894 0.07171 0.08221 0.0
N454 N 0.6277 0.23054 0.23578 0.0
N455 N 0.60637 0.12467 0.11061 0.0
H456 H 0.09337 0.7388 0.08987 0.0
H457 H 0.37778 0.89192 0.33417 0.0
H458 H 0.12732 0.82632 0.2479 0.0
H459 H 0.32272 0.76613 0.17264 0.0
H460 H 0.29708 0.8848 0.30365 0.0
H461 H 0.18368 0.75819 0.11933 0.0
C462 C 0.1191 0.76116 0.13051 0.0
C463 C 0.10247 0.78083 0.16639 0.0
C464 C 0.30311 0.85938 0.2749 0.0
C465 C 0.20686 0.80483 0.20055 0.0
C466 C 0.34981 0.8641 0.29238 0.0
C467 C 0.35653 0.8286 0.25591 0.0
C468 C 0.26271 0.81892 0.22054 0.0
C469 C 0.31899 0.79386 0.20224 0.0
C470 C 0.17102 0.77279 0.14738 0.0
C471 C 0.13806 0.81014 0.21869 0.0
N472 N 0.27303 0.78903 0.18607 0.0
N473 N 0.18865 0.82158 0.23416 0.0
loop_
_geom_bond_atom_site_label_1
_geom_bond_atom_site_label_2
_geom_bond_distance
_geom_bond_site_symmetry_2
_ccdc_geom_bond_type
Co0 O3 1.970 . S
Co0 N17 1.989 . S
Co0 O25 1.967 . S
Co0 O32 1.920 . S
Co1 O4 1.966 . S
Co1 N10 2.022 . S
Co1 N18 1.993 . S
Co1 O26 1.941 . S
C2 O3 1.258 . S
C2 O4 1.263 . S
O3 Co0 1.970 . S
O3 C2 1.258 . S
O4 Co1 1.966 . S
O4 C2 1.263 . S
C5 O6 1.235 . S
C5 O32 1.289 . S
O6 C5 1.235 . S
C7 C9 1.400 . S
C7 N10 1.351 . S
C7 C12 1.501 . S
C8 C9 1.387 . S
C8 N11 1.341 . S
C9 C7 1.400 . S
C9 C8 1.387 . S
N10 Co1 2.022 . S
N10 C7 1.351 . S
N10 N11 1.365 . S
N11 C8 1.341 . S
N11 N10 1.365 . S
N11 H31 0.862 . S
C12 C7 1.501 . S
C12 H13 0.961 . S
C12 H14 0.961 . S
C12 H15 0.960 . S
H13 C12 0.961 . S
H14 C12 0.961 . S
H15 C12 0.960 . S
C16 N17 1.342 . S
C16 C20 1.401 . S
C16 C21 1.499 . S
N17 Co0 1.989 . S
N17 C16 1.342 . S
N17 N18 1.388 . S
N18 Co1 1.993 . S
N18 N17 1.388 . S
N18 C19 1.346 . S
C19 N18 1.346 . S
C19 C20 1.396 . S
C19 C29 1.510 . S
C20 C16 1.401 . S
C20 C19 1.396 . S
C21 C16 1.499 . S
C21 H22 0.959 . S
C21 H23 0.960 . S
C21 H24 0.961 . S
H22 C21 0.959 . S
H23 C21 0.960 . S
H24 C21 0.961 . S
O25 Co0 1.967 . S
O25 C33 1.258 . S
O26 Co1 1.941 . S
O26 C33 1.266 . S
H27 C29 0.959 . S
H28 C29 0.961 . S
C29 C19 1.510 . S
C29 H27 0.959 . S
C29 H28 0.961 . S
C29 H30 0.960 . S
H30 C29 0.960 . S
H31 N11 0.862 . S
O32 Co0 1.920 . S
O32 C5 1.289 . S
C33 O25 1.258 . S
C33 O26 1.266 . S
Co34 O37 1.970 . S
Co34 N51 1.989 1_545 S
Co34 O59 1.967 . S
Co34 O66 1.920 . S
Co35 O38 1.966 1_565 S
Co35 N44 2.022 1_455 S
Co35 N52 1.993 . S
Co35 O60 1.941 . S
C36 O37 1.258 . S
C36 O38 1.263 . S
O37 Co34 1.970 . S
O37 C36 1.258 . S
O38 Co35 1.966 1_545 S
O38 C36 1.263 . S
C39 O40 1.235 . S
C39 O66 1.289 . S
O40 C39 1.235 . S
C41 C43 1.400 . S
C41 N44 1.351 . S
C41 C46 1.501 1_565 S
C42 C43 1.387 . S
C42 N45 1.341 . S
C43 C41 1.400 . S
C43 C42 1.387 . S
N44 Co35 2.022 1_655 S
N44 C41 1.351 . S
N44 N45 1.365 . S
N45 C42 1.341 . S
N45 N44 1.365 . S
N45 H65 0.862 . S
C46 C41 1.501 1_545 S
C46 H47 0.961 . S
C46 H48 0.961 . S
C46 H49 0.960 . S
H47 C46 0.961 . S
H48 C46 0.961 . S
H49 C46 0.960 . S
C50 N51 1.342 . S
C50 C54 1.401 . S
C50 C55 1.499 . S
N51 Co34 1.989 1_565 S
N51 C50 1.342 . S
N51 N52 1.388 . S
N52 Co35 1.993 . S
N52 N51 1.388 . S
N52 C53 1.346 1_455 S
C53 N52 1.346 1_655 S
C53 C54 1.396 1_655 S
C53 C63 1.510 . S
C54 C50 1.401 . S
C54 C53 1.396 1_455 S
C55 C50 1.499 . S
C55 H56 0.959 . S
C55 H57 0.960 . S
C55 H58 0.961 . S
H56 C55 0.959 . S
H57 C55 0.960 . S
H58 C55 0.961 . S
O59 Co34 1.967 . S
O59 C67 1.258 . S
O60 Co35 1.941 . S
O60 C67 1.266 1_565 S
H61 C63 0.959 . S
H62 C63 0.961 . S
C63 C53 1.510 . S
C63 H61 0.959 . S
C63 H62 0.961 . S
C63 H64 0.960 . S
H64 C63 0.960 . S
H65 N45 0.862 . S
O66 Co34 1.920 . S
O66 C39 1.289 . S
C67 O59 1.258 . S
C67 O60 1.266 1_545 S
Co68 O71 1.970 . S
Co68 N85 1.989 . S
Co68 O93 1.967 . S
Co68 O100 1.920 . S
Co69 O72 1.966 . S
Co69 N78 2.022 . S
Co69 N86 1.993 . S
Co69 O94 1.941 . S
C70 O71 1.258 . S
C70 O72 1.263 . S
O71 Co68 1.970 . S
O71 C70 1.258 . S
O72 Co69 1.966 . S
O72 C70 1.263 . S
C73 O74 1.235 . S
C73 O100 1.289 . S
O74 C73 1.235 . S
C75 C77 1.400 . S
C75 N78 1.351 . S
C75 C80 1.501 . S
C76 C77 1.387 . S
C76 N79 1.341 . S
C77 C75 1.400 . S
C77 C76 1.387 . S
N78 Co69 2.022 . S
N78 C75 1.351 . S
N78 N79 1.365 . S
N79 C76 1.341 . S
N79 N78 1.365 . S
N79 H99 0.862 . S
C80 C75 1.501 . S
C80 H81 0.961 . S
C80 H82 0.961 . S
C80 H83 0.960 . S
H81 C80 0.961 . S
H82 C80 0.961 . S
H83 C80 0.960 . S
C84 N85 1.342 . S
C84 C88 1.401 . S
C84 C89 1.499 . S
N85 Co68 1.989 . S
N85 C84 1.342 . S
N85 N86 1.388 . S
N86 Co69 1.993 . S
N86 N85 1.388 . S
N86 C87 1.346 . S
C87 N86 1.346 . S
C87 C88 1.396 . S
C87 C97 1.510 . S
C88 C84 1.401 . S
C88 C87 1.396 . S
C89 C84 1.499 . S
C89 H90 0.959 . S
C89 H91 0.960 . S
C89 H92 0.961 . S
H90 C89 0.959 . S
H91 C89 0.960 . S
H92 C89 0.961 . S
O93 Co68 1.967 . S
O93 C101 1.258 . S
O94 Co69 1.941 . S
O94 C101 1.266 . S
H95 C97 0.959 . S
H96 C97 0.961 . S
C97 C87 1.510 . S
C97 H95 0.959 . S
C97 H96 0.961 . S
C97 H98 0.960 . S
H98 C97 0.960 . S
H99 N79 0.862 . S
O100 Co68 1.920 . S
O100 C73 1.289 . S
C101 O93 1.258 . S
C101 O94 1.266 . S
Co102 O105 1.970 . S
Co102 N119 1.989 . S
Co102 O127 1.967 . S
Co102 O134 1.920 . S
Co103 O106 1.966 . S
Co103 N112 2.022 . S
Co103 N120 1.993 . S
Co103 O128 1.941 . S
C104 O105 1.258 . S
C104 O106 1.263 . S
O105 Co102 1.970 . S
O105 C104 1.258 . S
O106 Co103 1.966 . S
O106 C104 1.263 . S
C107 O108 1.235 . S
C107 O134 1.289 . S
O108 C107 1.235 . S
C109 C111 1.400 . S
C109 N112 1.351 . S
C109 C114 1.501 . S
C110 C111 1.387 . S
C110 N113 1.341 . S
C111 C109 1.400 . S
C111 C110 1.387 . S
N112 Co103 2.022 . S
N112 C109 1.351 . S
N112 N113 1.365 . S
N113 C110 1.341 . S
N113 N112 1.365 . S
N113 H133 0.862 . S
C114 C109 1.501 . S
C114 H115 0.961 . S
C114 H116 0.961 . S
C114 H117 0.960 . S
H115 C114 0.961 . S
H116 C114 0.961 . S
H117 C114 0.960 . S
C118 N119 1.342 . S
C118 C122 1.401 . S
C118 C123 1.499 . S
N119 Co102 1.989 . S
N119 C118 1.342 . S
N119 N120 1.388 . S
N120 Co103 1.993 . S
N120 N119 1.388 . S
N120 C121 1.346 . S
C121 N120 1.346 . S
C121 C122 1.396 . S
C121 C131 1.510 . S
C122 C118 1.401 . S
C122 C121 1.396 . S
C123 C118 1.499 . S
C123 H124 0.959 . S
C123 H125 0.960 . S
C123 H126 0.961 . S
H124 C123 0.959 . S
H125 C123 0.960 . S
H126 C123 0.961 . S
O127 Co102 1.967 . S
O127 C135 1.258 . S
O128 Co103 1.941 . S
O128 C135 1.266 . S
H129 C131 0.959 . S
H130 C131 0.961 . S
C131 C121 1.510 . S
C131 H129 0.959 . S
C131 H130 0.961 . S
C131 H132 0.960 . S
H132 C131 0.960 . S
H133 N113 0.862 . S
O134 Co102 1.920 . S
O134 C107 1.289 . S
C135 O127 1.258 . S
C135 O128 1.266 . S
Co136 O139 1.970 . S
Co136 N153 1.989 . S
Co136 O161 1.967 . S
Co136 O168 1.920 . S
Co137 O140 1.966 1_565 S
Co137 N146 2.022 . S
Co137 N154 1.993 . S
Co137 O162 1.941 . S
C138 O139 1.258 . S
C138 O140 1.263 . S
O139 Co136 1.970 . S
O139 C138 1.258 . S
O140 Co137 1.966 1_545 S
O140 C138 1.263 . S
C141 O142 1.235 . S
C141 O168 1.289 . S
O142 C141 1.235 . S
C143 C145 1.400 . S
C143 N146 1.351 . S
C143 C148 1.501 . S
C144 C145 1.387 1_556 S
C144 N147 1.341 . S
C145 C143 1.400 . S
C145 C144 1.387 1_554 S
N146 Co137 2.022 . S
N146 C143 1.351 . S
N146 N147 1.365 1_554 S
N147 C144 1.341 . S
N147 N146 1.365 1_556 S
N147 H167 0.862 . S
C148 C143 1.501 . S
C148 H149 0.961 . S
C148 H150 0.961 . S
C148 H151 0.960 . S
H149 C148 0.961 . S
H150 C148 0.961 . S
H151 C148 0.960 . S
C152 N153 1.342 1_556 S
C152 C156 1.401 1_545 S
C152 C157 1.499 . S
N153 Co136 1.989 . S
N153 C152 1.342 1_554 S
N153 N154 1.388 1_545 S
N154 Co137 1.993 . S
N154 N153 1.388 1_565 S
N154 C155 1.346 1_554 S
C155 N154 1.346 1_556 S
C155 C156 1.396 . S
C155 C165 1.510 . S
C156 C152 1.401 1_565 S
C156 C155 1.396 . S
C157 C152 1.499 . S
C157 H158 0.950 1_556 S
C157 H159 0.960 . S
C157 H160 0.961 . S
H158 C157 0.950 1_554 S
H159 C157 0.960 . S
H160 C157 0.961 . S
O161 Co136 1.967 . S
O161 C169 1.258 . S
O162 Co137 1.941 . S
O162 C169 1.266 1_565 S
H163 C165 0.959 . S
H164 C165 0.961 . S
C165 C155 1.510 . S
C165 H163 0.959 . S
C165 H164 0.961 . S
C165 H166 0.960 . S
H166 C165 0.960 . S
H167 N147 0.862 . S
O168 Co136 1.920 . S
O168 C141 1.289 . S
C169 O161 1.258 . S
C169 O162 1.266 1_545 S
Co170 O173 1.970 . S
Co170 N187 1.989 1_455 S
Co170 O195 1.967 . S
Co170 O202 1.920 . S
Co171 O174 1.966 1_655 S
Co171 N180 2.022 . S
Co171 N188 1.993 . S
Co171 O196 1.941 . S
C172 O173 1.258 . S
C172 O174 1.263 . S
O173 Co170 1.970 . S
O173 C172 1.258 . S
O174 Co171 1.966 1_455 S
O174 C172 1.263 . S
C175 O176 1.235 . S
C175 O202 1.289 . S
O176 C175 1.235 . S
C177 C179 1.400 . S
C177 N180 1.351 1_556 S
C177 C182 1.501 1_656 S
C178 C179 1.387 . S
C178 N181 1.341 . S
C179 C177 1.400 . S
C179 C178 1.387 . S
N180 Co171 2.022 . S
N180 C177 1.351 1_554 S
N180 N181 1.365 1_554 S
N181 C178 1.341 . S
N181 N180 1.365 1_556 S
N181 H201 0.862 . S
C182 C177 1.501 1_454 S
C182 H183 0.961 . S
C182 H184 0.961 . S
C182 H185 0.960 . S
H183 C182 0.961 . S
H184 C182 0.961 . S
H185 C182 0.960 . S
C186 N187 1.342 . S
C186 C190 1.401 . S
C186 C191 1.499 . S
N187 Co170 1.989 1_655 S
N187 C186 1.342 . S
N187 N188 1.388 . S
N188 Co171 1.993 . S
N188 N187 1.388 . S
N188 C189 1.346 . S
C189 N188 1.346 . S
C189 C190 1.396 . S
C189 C199 1.510 . S
C190 C186 1.401 . S
C190 C189 1.396 . S
C191 C186 1.499 . S
C191 H192 0.959 . S
C191 H193 0.960 . S
C191 H194 0.961 . S
H192 C191 0.959 . S
H193 C191 0.960 . S
H194 C191 0.961 . S
O195 Co170 1.967 . S
O195 C203 1.258 . S
O196 Co171 1.941 . S
O196 C203 1.266 1_655 S
H197 C199 0.959 . S
H198 C199 0.961 . S
C199 C189 1.510 . S
C199 H197 0.959 . S
C199 H198 0.961 . S
C199 H200 0.960 . S
H200 C199 0.960 . S
H201 N181 0.862 . S
O202 Co170 1.920 . S
O202 C175 1.289 . S
C203 O195 1.258 . S
C203 O196 1.266 1_455 S
H204 C210 0.930 . S
H205 C214 0.930 . S
H206 C219 0.929 . S
H207 C217 0.929 . S
H208 C212 0.929 . S
H209 C218 0.929 . S
C210 H204 0.930 . S
C210 C211 1.367 . S
C210 C218 1.378 . S
C211 C210 1.367 . S
C211 C219 1.433 . S
C212 H208 0.929 . S
C212 C214 1.378 . S
C212 C216 1.350 . S
C213 C216 1.463 . S
C213 C218 1.350 . S
C213 N221 1.427 . S
C214 H205 0.930 . S
C214 C212 1.378 . S
C214 C215 1.367 . S
C215 C214 1.367 . S
C215 C217 1.433 . S
C216 C212 1.350 . S
C216 C213 1.463 . S
C216 N220 1.427 . S
C217 H207 0.929 . S
C217 C215 1.433 . S
C217 N220 1.384 . S
C218 H209 0.929 . S
C218 C210 1.378 . S
C218 C213 1.350 . S
C219 H206 0.929 . S
C219 C211 1.433 . S
C219 N221 1.384 . S
N220 C216 1.427 . S
N220 C217 1.384 . S
N221 C213 1.427 . S
N221 C219 1.384 . S
H222 C228 0.930 . S
H223 C232 0.930 . S
H224 C237 0.929 . S
H225 C235 0.929 1_455 S
H226 C230 0.929 . S
H227 C236 0.929 . S
C228 H222 0.930 . S
C228 C229 1.367 . S
C228 C236 1.378 . S
C229 C228 1.367 . S
C229 C237 1.433 . S
C230 H226 0.929 . S
C230 C232 1.378 . S
C230 C234 1.350 . S
C231 C234 1.463 . S
C231 C236 1.350 . S
C231 N239 1.427 . S
C232 H223 0.930 . S
C232 C230 1.378 . S
C232 C233 1.367 . S
C233 C232 1.367 . S
C233 C235 1.433 . S
C234 C230 1.350 . S
C234 C231 1.463 . S
C234 N238 1.427 . S
C235 H225 0.929 1_655 S
C235 C233 1.433 . S
C235 N238 1.384 . S
C236 H227 0.929 . S
C236 C228 1.378 . S
C236 C231 1.350 . S
C237 H224 0.929 . S
C237 C229 1.433 . S
C237 N239 1.384 . S
N238 C234 1.427 . S
N238 C235 1.384 . S
N239 C231 1.427 . S
N239 C237 1.384 . S
H240 C246 0.930 . S
H241 C250 0.930 . S
H242 C255 0.929 . S
H243 C253 0.929 . S
H244 C248 0.929 . S
H245 C254 0.929 . S
C246 H240 0.930 . S
C246 C247 1.367 . S
C246 C254 1.378 . S
C247 C246 1.367 . S
C247 C255 1.433 . S
C248 H244 0.929 . S
C248 C250 1.378 1_545 S
C248 C252 1.350 . S
C249 C252 1.463 . S
C249 C254 1.350 . S
C249 N257 1.427 . S
C250 H241 0.930 . S
C250 C248 1.378 1_565 S
C250 C251 1.367 . S
C251 C250 1.367 . S
C251 C253 1.433 1_565 S
C252 C248 1.350 . S
C252 C249 1.463 . S
C252 N256 1.427 . S
C253 H243 0.929 . S
C253 C251 1.433 1_545 S
C253 N256 1.384 . S
C254 H245 0.929 . S
C254 C246 1.378 . S
C254 C249 1.350 . S
C255 H242 0.929 . S
C255 C247 1.433 . S
C255 N257 1.384 . S
N256 C252 1.427 . S
N256 C253 1.384 . S
N257 C249 1.427 . S
N257 C255 1.384 . S
H258 C264 0.930 . S
H259 C268 0.930 . S
H260 C273 0.929 . S
H261 C271 0.929 . S
H262 C266 0.929 . S
H263 C272 0.929 . S
C264 H258 0.930 . S
C264 C265 1.367 . S
C264 C272 1.378 . S
C265 C264 1.367 . S
C265 C273 1.433 . S
C266 H262 0.929 . S
C266 C268 1.378 . S
C266 C270 1.350 . S
C267 C270 1.463 . S
C267 C272 1.350 . S
C267 N275 1.427 . S
C268 H259 0.930 . S
C268 C266 1.378 . S
C268 C269 1.367 . S
C269 C268 1.367 . S
C269 C271 1.433 . S
C270 C266 1.350 . S
C270 C267 1.463 . S
C270 N274 1.427 . S
C271 H261 0.929 . S
C271 C269 1.433 . S
C271 N274 1.384 . S
C272 H263 0.929 . S
C272 C264 1.378 . S
C272 C267 1.350 . S
C273 H260 0.929 . S
C273 C265 1.433 . S
C273 N275 1.384 . S
N274 C270 1.427 . S
N274 C271 1.384 . S
N275 C267 1.427 . S
N275 C273 1.384 . S
H276 C282 0.930 . S
H277 C286 0.930 . S
H278 C291 0.929 . S
H279 C289 0.929 . S
H280 C284 0.929 . S
H281 C290 0.929 . S
C282 H276 0.930 . S
C282 C283 1.367 1_455 S
C282 C290 1.378 . S
C283 C282 1.367 1_655 S
C283 C291 1.433 . S
C284 H280 0.929 . S
C284 C286 1.378 . S
C284 C288 1.350 . S
C285 C288 1.463 . S
C285 C290 1.350 1_655 S
C285 N293 1.427 . S
C286 H277 0.930 . S
C286 C284 1.378 . S
C286 C287 1.378 . S
C287 C286 1.378 . S
C287 C289 1.422 1_655 S
C288 C284 1.350 . S
C288 C285 1.463 . S
C288 N292 1.427 1_655 S
C289 H279 0.929 . S
C289 C287 1.422 1_455 S
C289 N292 1.384 . S
C290 H281 0.929 . S
C290 C282 1.378 . S
C290 C285 1.350 1_455 S
C291 H278 0.929 . S
C291 C283 1.433 . S
C291 N293 1.384 . S
N292 C288 1.427 1_455 S
N292 C289 1.384 . S
N293 C285 1.427 . S
N293 C291 1.384 . S
H294 C300 0.930 . S
H295 C304 0.930 . S
H296 C309 0.929 . S
H297 C307 0.929 . S
H298 C302 0.929 . S
H299 C308 0.929 . S
C300 H294 0.930 . S
C300 C301 1.367 . S
C300 C308 1.378 . S
C301 C300 1.367 . S
C301 C309 1.433 . S
C302 H298 0.929 . S
C302 C304 1.378 . S
C302 C306 1.350 . S
C303 C306 1.463 1_554 S
C303 C308 1.350 . S
C303 N311 1.427 . S
C304 H295 0.930 . S
C304 C302 1.378 . S
C304 C305 1.367 . S
C305 C304 1.367 . S
C305 C307 1.433 . S
C306 C302 1.350 . S
C306 C303 1.463 1_556 S
C306 N310 1.427 . S
C307 H297 0.929 . S
C307 C305 1.433 . S
C307 N310 1.384 . S
C308 H299 0.929 . S
C308 C300 1.378 . S
C308 C303 1.350 . S
C309 H296 0.929 . S
C309 C301 1.433 . S
C309 N311 1.384 . S
N310 C306 1.427 . S
N310 C307 1.384 . S
N311 C303 1.427 . S
N311 C309 1.384 . S
H312 C318 0.930 . S
H313 C322 0.930 . S
H314 C327 0.929 . S
H315 C325 0.929 . S
H316 C320 0.929 1_554 S
H317 C326 0.929 . S
C318 H312 0.930 . S
C318 C319 1.367 . S
C318 C326 1.378 . S
C319 C318 1.367 . S
C319 C327 1.433 . S
C320 H316 0.929 1_556 S
C320 C322 1.378 1_556 S
C320 C324 1.350 . S
C321 C324 1.463 . S
C321 C326 1.350 . S
C321 N329 1.427 . S
C322 H313 0.930 . S
C322 C320 1.378 1_554 S
C322 C323 1.367 . S
C323 C322 1.367 . S
C323 C325 1.433 1_554 S
C324 C320 1.350 . S
C324 C321 1.463 . S
C324 N328 1.427 . S
C325 H315 0.929 . S
C325 C323 1.433 1_556 S
C325 N328 1.384 . S
C326 H317 0.929 . S
C326 C318 1.378 . S
C326 C321 1.350 . S
C327 H314 0.929 . S
C327 C319 1.433 . S
C327 N329 1.384 . S
N328 C324 1.427 . S
N328 C325 1.384 . S
N329 C321 1.427 . S
N329 C327 1.384 . S
H330 C336 0.930 1_545 S
H331 C340 0.930 . S
H332 C345 0.929 . S
H333 C343 0.929 . S
H334 C338 0.929 . S
H335 C344 0.915 1_545 S
C336 H330 0.930 1_565 S
C336 C337 1.367 . S
C336 C344 1.378 . S
C337 C336 1.367 . S
C337 C345 1.433 . S
C338 H334 0.929 . S
C338 C340 1.378 . S
C338 C342 1.350 . S
C339 C342 1.463 . S
C339 C344 1.350 . S
C339 N347 1.427 . S
C340 H331 0.930 . S
C340 C338 1.378 . S
C340 C341 1.367 . S
C341 C340 1.367 . S
C341 C343 1.433 . S
C342 C338 1.350 . S
C342 C339 1.463 . S
C342 N346 1.427 . S
C343 H333 0.929 . S
C343 C341 1.433 . S
C343 N346 1.384 . S
C344 H335 0.915 1_565 S
C344 C336 1.378 . S
C344 C339 1.350 . S
C345 H332 0.929 . S
C345 C337 1.433 . S
C345 N347 1.384 . S
N346 C342 1.427 . S
N346 C343 1.384 . S
N347 C339 1.427 . S
N347 C345 1.384 . S
H348 C354 0.930 . S
H349 C358 0.930 . S
H350 C363 0.929 . S
H351 C361 0.929 . S
H352 C356 0.929 . S
H353 C362 0.929 . S
C354 H348 0.930 . S
C354 C355 1.367 . S
C354 C362 1.378 . S
C355 C354 1.367 . S
C355 C363 1.433 . S
C356 H352 0.929 . S
C356 C358 1.378 . S
C356 C360 1.350 . S
C357 C360 1.463 . S
C357 C362 1.350 . S
C357 N365 1.427 . S
C358 H349 0.930 . S
C358 C356 1.378 . S
C358 C359 1.367 . S
C359 C358 1.367 . S
C359 C361 1.433 . S
C360 C356 1.350 . S
C360 C357 1.463 . S
C360 N364 1.427 . S
C361 H351 0.929 . S
C361 C359 1.433 . S
C361 N364 1.384 . S
C362 H353 0.929 . S
C362 C354 1.378 . S
C362 C357 1.350 . S
C363 H350 0.929 . S
C363 C355 1.433 . S
C363 N365 1.384 . S
N364 C360 1.427 . S
N364 C361 1.384 . S
N365 C357 1.427 . S
N365 C363 1.384 . S
H366 C372 0.930 . S
H367 C376 0.929 . S
H368 C381 0.929 . S
H369 C379 0.929 . S
H370 C374 0.929 . S
H371 C380 0.929 . S
C372 H366 0.930 . S
C372 C373 1.367 . S
C372 C380 1.378 . S
C373 C372 1.367 . S
C373 C381 1.433 . S
C374 H370 0.929 . S
C374 C376 1.377 1_545 S
C374 C378 1.350 . S
C375 C378 1.463 . S
C375 C380 1.350 . S
C375 N383 1.427 . S
C376 H367 0.929 . S
C376 C374 1.377 1_565 S
C376 C377 1.369 . S
C377 C376 1.369 . S
C377 C379 1.433 . S
C378 C374 1.350 . S
C378 C375 1.463 . S
C378 N382 1.427 . S
C379 H369 0.929 . S
C379 C377 1.433 . S
C379 N382 1.384 1_565 S
C380 H371 0.929 . S
C380 C372 1.378 . S
C380 C375 1.350 . S
C381 H368 0.929 . S
C381 C373 1.433 . S
C381 N383 1.384 . S
N382 C378 1.427 . S
N382 C379 1.384 1_545 S
N383 C375 1.427 . S
N383 C381 1.384 . S
H384 C390 0.930 . S
H385 C394 0.930 . S
H386 C399 0.929 . S
H387 C397 0.929 . S
H388 C392 0.929 . S
H389 C398 0.929 1_455 S
C390 H384 0.930 . S
C390 C391 1.367 . S
C390 C398 1.378 . S
C391 C390 1.367 . S
C391 C399 1.433 . S
C392 H388 0.929 . S
C392 C394 1.378 . S
C392 C396 1.350 . S
C393 C396 1.463 1_655 S
C393 C398 1.350 . S
C393 N401 1.427 . S
C394 H385 0.930 . S
C394 C392 1.378 . S
C394 C395 1.367 . S
C395 C394 1.367 . S
C395 C397 1.433 . S
C396 C392 1.350 . S
C396 C393 1.463 1_455 S
C396 N400 1.427 . S
C397 H387 0.929 . S
C397 C395 1.433 . S
C397 N400 1.384 . S
C398 H389 0.929 1_655 S
C398 C390 1.378 . S
C398 C393 1.350 . S
C399 H386 0.929 . S
C399 C391 1.433 . S
C399 N401 1.384 . S
N400 C396 1.427 . S
N400 C397 1.384 . S
N401 C393 1.427 . S
N401 C399 1.384 . S
H402 C408 0.930 . S
H403 C412 0.930 . S
H404 C417 0.929 . S
H405 C415 0.929 . S
H406 C410 0.929 . S
H407 C416 0.929 1_556 S
C408 H402 0.930 . S
C408 C409 1.367 . S
C408 C416 1.378 . S
C409 C408 1.367 . S
C409 C417 1.433 . S
C410 H406 0.929 . S
C410 C412 1.378 . S
C410 C414 1.350 . S
C411 C414 1.463 . S
C411 C416 1.350 . S
C411 N419 1.427 . S
C412 H403 0.930 . S
C412 C410 1.378 . S
C412 C413 1.367 . S
C413 C412 1.367 . S
C413 C415 1.433 1_554 S
C414 C410 1.350 . S
C414 C411 1.463 . S
C414 N418 1.427 . S
C415 H405 0.929 . S
C415 C413 1.433 1_556 S
C415 N418 1.384 1_556 S
C416 H407 0.929 1_554 S
C416 C408 1.378 . S
C416 C411 1.350 . S
C417 H404 0.929 . S
C417 C409 1.433 . S
C417 N419 1.384 . S
N418 C414 1.427 . S
N418 C415 1.384 1_554 S
N419 C411 1.427 . S
N419 C417 1.384 . S
H420 C426 0.930 . S
H421 C430 0.930 . S
H422 C435 0.929 . S
H423 C433 0.929 . S
H424 C428 0.929 . S
H425 C434 0.929 . S
C426 H420 0.930 . S
C426 C427 1.367 . S
C426 C434 1.378 . S
C427 C426 1.367 . S
C427 C435 1.433 . S
C428 H424 0.929 . S
C428 C430 1.378 . S
C428 C432 1.350 . S
C429 C432 1.463 . S
C429 C434 1.350 . S
C429 N437 1.427 . S
C430 H421 0.930 . S
C430 C428 1.378 . S
C430 C431 1.367 . S
C431 C430 1.367 . S
C431 C433 1.433 . S
C432 C428 1.350 . S
C432 C429 1.463 . S
C432 N436 1.427 . S
C433 H423 0.929 . S
C433 C431 1.433 . S
C433 N436 1.384 . S
C434 H425 0.929 . S
C434 C426 1.378 . S
C434 C429 1.350 . S
C435 H422 0.929 . S
C435 C427 1.433 . S
C435 N437 1.384 . S
N436 C432 1.427 . S
N436 C433 1.384 . S
N437 C429 1.427 . S
N437 C435 1.384 . S
H438 C444 0.930 . S
H439 C448 0.930 . S
H440 C453 0.929 . S
H441 C451 0.929 . S
H442 C446 0.929 . S
H443 C452 0.929 . S
C444 H438 0.930 . S
C444 C445 1.367 . S
C444 C452 1.378 . S
C445 C444 1.367 . S
C445 C453 1.433 . S
C446 H442 0.929 . S
C446 C448 1.378 . S
C446 C450 1.350 . S
C447 C450 1.463 . S
C447 C452 1.350 . S
C447 N455 1.427 . S
C448 H439 0.930 . S
C448 C446 1.378 . S
C448 C449 1.367 . S
C449 C448 1.367 . S
C449 C451 1.433 . S
C450 C446 1.350 . S
C450 C447 1.463 . S
C450 N454 1.427 . S
C451 H441 0.929 . S
C451 C449 1.433 . S
C451 N454 1.384 . S
C452 H443 0.929 . S
C452 C444 1.378 . S
C452 C447 1.350 . S
C453 H440 0.929 . S
C453 C445 1.433 . S
C453 N455 1.384 . S
N454 C450 1.427 . S
N454 C451 1.384 . S
N455 C447 1.427 . S
N455 C453 1.384 . S
H456 C462 0.930 . S
H457 C466 0.930 . S
H458 C471 0.929 . S
H459 C469 0.929 . S
H460 C464 0.929 . S
H461 C470 0.929 . S
C462 H456 0.930 . S
C462 C463 1.367 . S
C462 C470 1.378 . S
C463 C462 1.367 . S
C463 C471 1.433 . S
C464 H460 0.929 . S
C464 C466 1.378 . S
C464 C468 1.350 . S
C465 C468 1.463 . S
C465 C470 1.350 . S
C465 N473 1.427 . S
C466 H457 0.930 . S
C466 C464 1.378 . S
C466 C467 1.367 . S
C467 C466 1.367 . S
C467 C469 1.433 . S
C468 C464 1.350 . S
C468 C465 1.463 . S
C468 N472 1.427 . S
C469 H459 0.929 . S
C469 C467 1.433 . S
C469 N472 1.384 . S
C470 H461 0.929 . S
C470 C462 1.378 . S
C470 C465 1.350 . S
C471 H458 0.929 . S
C471 C463 1.433 . S
C471 N473 1.384 . S
N472 C468 1.427 . S
N472 C469 1.384 . S
N473 C465 1.427 . S
N473 C471 1.384 . S
C211 C107 1.430 . S
C215 C20 1.498 . S
C229 C138 1.498 . S
C233 C9 1.479 1_655 S
C247 C2 1.448 . S
C251 C175 1.238 . S
C265 C77 1.397 . S
C269 C5 1.271 . S
C283 C179 1.266 . S
C287 C54 1.187 1_655 S
C301 C73 1.140 . S
C305 C39 1.048 . S
C319 C36 1.176 . S
C323 C111 1.162 . S
C337 C156 1.416 . S
C341 C43 1.438 . S
C355 C88 1.493 . S
C359 C122 1.487 . S
C373 C70 1.616 . S
C377 C172 1.628 . S
C391 C141 1.094 . S
C395 C104 1.234 . S
C409 C190 1.657 . S
C413 C145 1.610 . S
C427 C67 1.734 . S
C431 C33 1.732 . S
C445 C169 1.649 . S
C449 C101 1.644 . S
C463 C203 1.353 . S
C467 C135 1.347 . S
