# Generated by pormake.
# Topology cha, (4)-cn, num edge types: 1
# Building blocks:
#     Node 0, Type 0, BuildingBlock: KUFVIS_clean_sbu_0, # of connection points: 4
#     Node 1, Type 0, BuildingBlock: KUFVIS_clean_sbu_0, # of connection points: 4
#     Node 2, Type 0, BuildingBlock: KUFVIS_clean_sbu_0, # of connection points: 4
#     Node 3, Type 0, BuildingBlock: KUFVIS_clean_sbu_0, # of connection points: 4
#     Node 4, Type 0, BuildingBlock: KUFVIS_clean_sbu_0, # of connection points: 4
#     Node 5, Type 0, BuildingBlock: KUFVIS_clean_sbu_0, # of connection points: 4
#     Node 6, Type 0, BuildingBlock: KUFVIS_clean_sbu_0, # of connection points: 4
#     Node 7, Type 0, BuildingBlock: KUFVIS_clean_sbu_0, # of connection points: 4
#     Node 8, Type 0, BuildingBlock: KUFVIS_clean_sbu_0, # of connection points: 4
#     Node 9, Type 0, BuildingBlock: KUFVIS_clean_sbu_0, # of connection points: 4
#     Node 10, Type 0, BuildingBlock: KUFVIS_clean_sbu_0, # of connection points: 4
#     Node 11, Type 0, BuildingBlock: KUFVIS_clean_sbu_0, # of connection points: 4
#     Node 12, Type 0, BuildingBlock: KUFVIS_clean_sbu_0, # of connection points: 4
#     Node 13, Type 0, BuildingBlock: KUFVIS_clean_sbu_0, # of connection points: 4
#     Node 14, Type 0, BuildingBlock: KUFVIS_clean_sbu_0, # of connection points: 4
#     Node 15, Type 0, BuildingBlock: KUFVIS_clean_sbu_0, # of connection points: 4
#     Node 16, Type 0, BuildingBlock: KUFVIS_clean_sbu_0, # of connection points: 4
#     Node 17, Type 0, BuildingBlock: KUFVIS_clean_sbu_0, # of connection points: 4
#     Node 18, Type 0, BuildingBlock: KUFVIS_clean_sbu_0, # of connection points: 4
#     Node 19, Type 0, BuildingBlock: KUFVIS_clean_sbu_0, # of connection points: 4
#     Node 20, Type 0, BuildingBlock: KUFVIS_clean_sbu_0, # of connection points: 4
#     Node 21, Type 0, BuildingBlock: KUFVIS_clean_sbu_0, # of connection points: 4
#     Node 22, Type 0, BuildingBlock: KUFVIS_clean_sbu_0, # of connection points: 4
#     Node 23, Type 0, BuildingBlock: KUFVIS_clean_sbu_0, # of connection points: 4
#     Node 24, Type 0, BuildingBlock: KUFVIS_clean_sbu_0, # of connection points: 4
#     Node 25, Type 0, BuildingBlock: KUFVIS_clean_sbu_0, # of connection points: 4
#     Node 26, Type 0, BuildingBlock: KUFVIS_clean_sbu_0, # of connection points: 4
#     Node 27, Type 0, BuildingBlock: KUFVIS_clean_sbu_0, # of connection points: 4
#     Node 28, Type 0, BuildingBlock: KUFVIS_clean_sbu_0, # of connection points: 4
#     Node 29, Type 0, BuildingBlock: KUFVIS_clean_sbu_0, # of connection points: 4
#     Node 30, Type 0, BuildingBlock: KUFVIS_clean_sbu_0, # of connection points: 4
#     Node 31, Type 0, BuildingBlock: KUFVIS_clean_sbu_0, # of connection points: 4
#     Node 32, Type 0, BuildingBlock: KUFVIS_clean_sbu_0, # of connection points: 4
#     Node 33, Type 0, BuildingBlock: KUFVIS_clean_sbu_0, # of connection points: 4
#     Node 34, Type 0, BuildingBlock: KUFVIS_clean_sbu_0, # of connection points: 4
#     Node 35, Type 0, BuildingBlock: KUFVIS_clean_sbu_0, # of connection points: 4
#     Edge 36, Type (0, 0), BuildingBlock: EZIPEK_clean_linker_0, # of connection points: 2
#     Edge 37, Type (0, 0), BuildingBlock: EZIPEK_clean_linker_0, # of connection points: 2
#     Edge 38, Type (0, 0), BuildingBlock: EZIPEK_clean_linker_0, # of connection points: 2
#     Edge 39, Type (0, 0), BuildingBlock: EZIPEK_clean_linker_0, # of connection points: 2
#     Edge 40, Type (0, 0), BuildingBlock: EZIPEK_clean_linker_0, # of connection points: 2
#     Edge 41, Type (0, 0), BuildingBlock: EZIPEK_clean_linker_0, # of connection points: 2
#     Edge 42, Type (0, 0), BuildingBlock: EZIPEK_clean_linker_0, # of connection points: 2
#     Edge 43, Type (0, 0), BuildingBlock: EZIPEK_clean_linker_0, # of connection points: 2
#     Edge 44, Type (0, 0), BuildingBlock: EZIPEK_clean_linker_0, # of connection points: 2
#     Edge 45, Type (0, 0), BuildingBlock: EZIPEK_clean_linker_0, # of connection points: 2
#     Edge 46, Type (0, 0), BuildingBlock: EZIPEK_clean_linker_0, # of connection points: 2
#     Edge 47, Type (0, 0), BuildingBlock: EZIPEK_clean_linker_0, # of connection points: 2
#     Edge 48, Type (0, 0), BuildingBlock: EZIPEK_clean_linker_0, # of connection points: 2
#     Edge 49, Type (0, 0), BuildingBlock: EZIPEK_clean_linker_0, # of connection points: 2
#     Edge 50, Type (0, 0), BuildingBlock: EZIPEK_clean_linker_0, # of connection points: 2
#     Edge 51, Type (0, 0), BuildingBlock: EZIPEK_clean_linker_0, # of connection points: 2
#     Edge 52, Type (0, 0), BuildingBlock: EZIPEK_clean_linker_0, # of connection points: 2
#     Edge 53, Type (0, 0), BuildingBlock: EZIPEK_clean_linker_0, # of connection points: 2
#     Edge 54, Type (0, 0), BuildingBlock: EZIPEK_clean_linker_0, # of connection points: 2
#     Edge 55, Type (0, 0), BuildingBlock: EZIPEK_clean_linker_0, # of connection points: 2
#     Edge 56, Type (0, 0), BuildingBlock: EZIPEK_clean_linker_0, # of connection points: 2
#     Edge 57, Type (0, 0), BuildingBlock: EZIPEK_clean_linker_0, # of connection points: 2
#     Edge 58, Type (0, 0), BuildingBlock: EZIPEK_clean_linker_0, # of connection points: 2
#     Edge 59, Type (0, 0), BuildingBlock: EZIPEK_clean_linker_0, # of connection points: 2
#     Edge 60, Type (0, 0), BuildingBlock: EZIPEK_clean_linker_0, # of connection points: 2
#     Edge 61, Type (0, 0), BuildingBlock: EZIPEK_clean_linker_0, # of connection points: 2
#     Edge 62, Type (0, 0), BuildingBlock: EZIPEK_clean_linker_0, # of connection points: 2
#     Edge 63, Type (0, 0), BuildingBlock: EZIPEK_clean_linker_0, # of connection points: 2
#     Edge 64, Type (0, 0), BuildingBlock: EZIPEK_clean_linker_0, # of connection points: 2
#     Edge 65, Type (0, 0), BuildingBlock: EZIPEK_clean_linker_0, # of connection points: 2
#     Edge 66, Type (0, 0), BuildingBlock: EZIPEK_clean_linker_0, # of connection points: 2
#     Edge 67, Type (0, 0), BuildingBlock: EZIPEK_clean_linker_0, # of connection points: 2
#     Edge 68, Type (0, 0), BuildingBlock: EZIPEK_clean_linker_0, # of connection points: 2
#     Edge 69, Type (0, 0), BuildingBlock: EZIPEK_clean_linker_0, # of connection points: 2
#     Edge 70, Type (0, 0), BuildingBlock: EZIPEK_clean_linker_0, # of connection points: 2
#     Edge 71, Type (0, 0), BuildingBlock: EZIPEK_clean_linker_0, # of connection points: 2
#     Edge 72, Type (0, 0), BuildingBlock: EZIPEK_clean_linker_0, # of connection points: 2
#     Edge 73, Type (0, 0), BuildingBlock: EZIPEK_clean_linker_0, # of connection points: 2
#     Edge 74, Type (0, 0), BuildingBlock: EZIPEK_clean_linker_0, # of connection points: 2
#     Edge 75, Type (0, 0), BuildingBlock: EZIPEK_clean_linker_0, # of connection points: 2
#     Edge 76, Type (0, 0), BuildingBlock: EZIPEK_clean_linker_0, # of connection points: 2
#     Edge 77, Type (0, 0), BuildingBlock: EZIPEK_clean_linker_0, # of connection points: 2
#     Edge 78, Type (0, 0), BuildingBlock: EZIPEK_clean_linker_0, # of connection points: 2
#     Edge 79, Type (0, 0), BuildingBlock: EZIPEK_clean_linker_0, # of connection points: 2
#     Edge 80, Type (0, 0), BuildingBlock: EZIPEK_clean_linker_0, # of connection points: 2
#     Edge 81, Type (0, 0), BuildingBlock: EZIPEK_clean_linker_0, # of connection points: 2
#     Edge 82, Type (0, 0), BuildingBlock: EZIPEK_clean_linker_0, # of connection points: 2
#     Edge 83, Type (0, 0), BuildingBlock: EZIPEK_clean_linker_0, # of connection points: 2
#     Edge 84, Type (0, 0), BuildingBlock: EZIPEK_clean_linker_0, # of connection points: 2
#     Edge 85, Type (0, 0), BuildingBlock: EZIPEK_clean_linker_0, # of connection points: 2
#     Edge 86, Type (0, 0), BuildingBlock: EZIPEK_clean_linker_0, # of connection points: 2
#     Edge 87, Type (0, 0), BuildingBlock: EZIPEK_clean_linker_0, # of connection points: 2
#     Edge 88, Type (0, 0), BuildingBlock: EZIPEK_clean_linker_0, # of connection points: 2
#     Edge 89, Type (0, 0), BuildingBlock: EZIPEK_clean_linker_0, # of connection points: 2
#     Edge 90, Type (0, 0), BuildingBlock: EZIPEK_clean_linker_0, # of connection points: 2
#     Edge 91, Type (0, 0), BuildingBlock: EZIPEK_clean_linker_0, # of connection points: 2
#     Edge 92, Type (0, 0), BuildingBlock: EZIPEK_clean_linker_0, # of connection points: 2
#     Edge 93, Type (0, 0), BuildingBlock: EZIPEK_clean_linker_0, # of connection points: 2
#     Edge 94, Type (0, 0), BuildingBlock: EZIPEK_clean_linker_0, # of connection points: 2
#     Edge 95, Type (0, 0), BuildingBlock: EZIPEK_clean_linker_0, # of connection points: 2
#     Edge 96, Type (0, 0), BuildingBlock: EZIPEK_clean_linker_0, # of connection points: 2
#     Edge 97, Type (0, 0), BuildingBlock: EZIPEK_clean_linker_0, # of connection points: 2
#     Edge 98, Type (0, 0), BuildingBlock: EZIPEK_clean_linker_0, # of connection points: 2
#     Edge 99, Type (0, 0), BuildingBlock: EZIPEK_clean_linker_0, # of connection points: 2
#     Edge 100, Type (0, 0), BuildingBlock: EZIPEK_clean_linker_0, # of connection points: 2
#     Edge 101, Type (0, 0), BuildingBlock: EZIPEK_clean_linker_0, # of connection points: 2
#     Edge 102, Type (0, 0), BuildingBlock: EZIPEK_clean_linker_0, # of connection points: 2
#     Edge 103, Type (0, 0), BuildingBlock: EZIPEK_clean_linker_0, # of connection points: 2
#     Edge 104, Type (0, 0), BuildingBlock: EZIPEK_clean_linker_0, # of connection points: 2
#     Edge 105, Type (0, 0), BuildingBlock: EZIPEK_clean_linker_0, # of connection points: 2
#     Edge 106, Type (0, 0), BuildingBlock: EZIPEK_clean_linker_0, # of connection points: 2
#     Edge 107, Type (0, 0), BuildingBlock: EZIPEK_clean_linker_0, # of connection points: 2
# Relax obj value: 0.089
# Max RMSD: 0.120
# Mean RMSD: 0.120
data_MOF--net-cha--node1-KUFVIS_clean_sbu_0--edge1-EZIPEK_clean_linker_0
_symmetry_space_group_name_H-M    P1
_symmetry_Int_Tables_number       1
_symmetry_cell_setting            triclinic
loop_
_symmetry_equiv_pos_as_xyz
'x, y, z'
_cell_length_a     40.568696
_cell_length_b     40.577029
_cell_length_c     62.750956
_cell_angle_alpha  90.116621
_cell_angle_beta   89.882185
_cell_angle_gamma 119.96943
loop_
_atom_site_label
_atom_site_type_symbol
_atom_site_fract_x
_atom_site_fract_y
_atom_site_fract_z
_atom_type_partial_charge
Mn0 Mn 0.01621 0.29451 0.09092 0.0
Mn1 Mn 0.01591 0.221 0.06349 0.0
C2 C 0.95804 0.23866 0.08714 0.0
C3 C 0.02305 0.32531 0.12407 0.0
C4 C 0.02721 0.29433 0.04321 0.0
O5 O 0.07212 0.3082 0.09001 0.0
O6 O 0.0636 0.25128 0.07973 0.0
C7 C 0.01808 0.1799 0.10101 0.0
N8 N 0.00078 0.17777 0.08225 0.0
C9 C 0.97825 0.10608 0.07887 0.0
C10 C 0.99574 0.11212 0.10015 0.0
C11 C 0.01371 0.14724 0.11063 0.0
C12 C 0.97518 0.14357 0.07402 0.0
H13 H 0.0357 0.20699 0.10868 0.0
C14 C 0.08425 0.28504 0.08679 0.0
O15 O 0.02936 0.34352 0.10618 0.0
O16 O 0.01473 0.29013 0.12275 0.0
N17 N 0.97557 0.18781 0.04349 0.0
C18 C 0.98241 0.19816 0.01816 0.0
C19 C 0.96917 0.16514 0.99657 0.0
C20 C 0.94602 0.11508 0.99907 0.0
C21 C 0.9344 0.09356 0.02451 0.0
C22 C 0.95595 0.14608 0.05347 0.0
H23 H 0.99915 0.22747 0.01349 0.0
O24 O 0.95967 0.27057 0.0916 0.0
O25 O 0.99051 0.24064 0.08302 0.0
O26 O 0.01883 0.30836 0.05921 0.0
O27 O 0.03092 0.26477 0.04404 0.0
C28 C 0.93727 0.05713 0.02855 0.0
C29 C 0.95547 0.0539 0.05018 0.0
H30 H 0.99794 0.09076 0.10933 0.0
H31 H 0.02701 0.14964 0.12594 0.0
H32 H 0.97715 0.17683 0.98069 0.0
H33 H 0.9425 0.09792 0.98512 0.0
H34 H 0.9318 0.03703 0.01589 0.0
H35 H 0.95577 0.02694 0.04977 0.0
Mn36 Mn 0.77577 0.75008 0.09341 0.0
Mn37 Mn 0.85337 0.82173 0.06977 0.0
C38 C 0.83165 0.74749 0.08915 0.0
C39 C 0.74297 0.7238 0.12572 0.0
C40 C 0.77979 0.76731 0.04587 0.0
O41 O 0.765 0.79418 0.0939 0.0
O42 O 0.8227 0.84212 0.08343 0.0
C43 C 0.89159 0.86533 0.10783 0.0
N44 N 0.89425 0.84715 0.09041 0.0
C45 C 0.9662 0.89401 0.08756 0.0
C46 C 0.9599 0.90833 0.10788 0.0
C47 C 0.92419 0.8936 0.11756 0.0
C48 C 0.92855 0.85293 0.08386 0.0
H49 H 0.86415 0.85838 0.11424 0.0
C50 C 0.78847 0.82929 0.09009 0.0
O51 O 0.7255 0.7142 0.10746 0.0
O52 O 0.77853 0.74966 0.12516 0.0
N53 N 0.8849 0.8061 0.05393 0.0
C54 C 0.8755 0.79787 0.02881 0.0
C55 C 0.90894 0.81475 0.00737 0.0
C56 C 0.95877 0.84194 0.01013 0.0
C57 C 0.97952 0.85535 0.03557 0.0
C58 C 0.9261 0.82865 0.06437 0.0
H59 H 0.84783 0.77511 0.02515 0.0
O60 O 0.7996 0.71644 0.0925 0.0
O61 O 0.82947 0.77786 0.08792 0.0
O62 O 0.76296 0.74336 0.06098 0.0
O63 O 0.8124 0.79705 0.0484 0.0
C64 C 0.01604 0.8949 0.03862 0.0
C65 C 0.01901 0.9192 0.05906 0.0
H66 H 0.98144 0.93254 0.1166 0.0
H67 H 0.92141 0.90673 0.13198 0.0
H68 H 0.89805 0.80658 0.99138 0.0
H69 H 0.97639 0.85299 0.99606 0.0
H70 H 0.0366 0.90747 0.0259 0.0
H71 H 0.04611 0.9462 0.05803 0.0
Mn72 Mn 0.31309 0.04303 0.09248 0.0
Mn73 Mn 0.23675 0.03915 0.06827 0.0
C74 C 0.3114 0.09847 0.08632 0.0
C75 C 0.33887 0.03899 0.12538 0.0
C76 C 0.29617 0.02728 0.04535 0.0
O77 O 0.2728 0.98728 0.09399 0.0
O78 O 0.22095 0.99096 0.08464 0.0
C79 C 0.19168 0.03543 0.10561 0.0
N80 N 0.20986 0.05511 0.08791 0.0
C81 C 0.16382 0.08178 0.08499 0.0
C82 C 0.14977 0.06213 0.10551 0.0
C83 C 0.16403 0.0409 0.11529 0.0
C84 C 0.20414 0.08339 0.08076 0.0
H85 H 0.19829 0.01513 0.11244 0.0
C86 C 0.23702 0.97259 0.0916 0.0
O87 O 0.35081 0.03237 0.10748 0.0
O88 O 0.31214 0.04737 0.12401 0.0
N89 N 0.24797 0.08253 0.05001 0.0
C90 C 0.25341 0.07862 0.0245 0.0
C91 C 0.23713 0.09633 1.00347 0.0
C92 C 0.21262 0.12167 0.00671 0.0
C93 C 0.20168 0.13118 0.03239 0.0
C94 C 0.22773 0.10361 0.0608 0.0
H95 H 0.26538 0.06168 0.01915 0.0
O96 O 0.34348 0.10006 0.09054 0.0
O97 O 0.28207 0.06489 0.08563 0.0
O98 O 0.32061 0.0368 0.06042 0.0
O99 O 0.26306 0.02326 0.04783 0.0
C100 C 0.16312 0.13011 0.03589 0.0
C101 C 0.13921 0.11006 0.0566 0.0
H102 H 0.12614 0.0605 0.11441 0.0
H103 H 0.1511 0.02584 0.12994 0.0
H104 H 0.24169 0.09002 0.98734 0.0
H105 H 0.20093 0.12799 0.99286 0.0
H106 H 0.15082 0.13862 0.02327 0.0
H107 H 0.11273 0.11125 0.05583 0.0
Mn108 Mn 0.2886 0.02228 0.90815 0.0
Mn109 Mn 0.21494 0.01878 0.93601 0.0
C110 C 0.23235 0.96511 0.91236 0.0
C111 C 0.3222 0.02833 0.87678 0.0
C112 C 0.28137 0.01799 0.95727 0.0
O113 O 0.30426 0.07824 0.90936 0.0
O114 O 0.25632 0.07177 0.93018 0.0
C115 C 0.19331 0.0583 0.90247 0.0
N116 N 0.18289 0.02828 0.91594 0.0
C117 C 0.11478 0.02461 0.91753 0.0
C118 C 0.12968 0.05493 0.90338 0.0
C119 C 0.16749 0.07048 0.89579 0.0
C120 C 0.14715 0.00915 0.92241 0.0
H121 H 0.22235 0.07431 0.89697 0.0
C122 C 0.28703 0.09214 0.9197 0.0
O123 O 0.33853 0.03467 0.89527 0.0
O124 O 0.28743 0.02173 0.87646 0.0
N125 N 0.17077 0.96896 0.94484 0.0
C126 C 0.17119 0.94079 0.95978 0.0
C127 C 0.1373 0.91386 0.97578 0.0
C128 C 0.07631 0.91904 0.97746 0.0
C129 C 0.07884 0.94978 0.9604 0.0
C130 C 0.13996 0.97617 0.9406 0.0
H131 H 0.1974 0.94049 0.96156 0.0
O132 O 0.26382 0.96627 0.90724 0.0
O133 O 0.2337 0.99785 0.91385 0.0
O134 O 0.30091 0.02327 0.94028 0.0
O135 O 0.24747 0.01269 0.95735 0.0
C136 C 0.05049 0.96991 0.95196 0.0
C137 C 0.06912 0.00736 0.93079 0.0
H138 H 0.11272 0.06743 0.89861 0.0
H139 H 0.1781 0.0945 0.88505 0.0
H140 H 0.14551 0.896 0.9849 0.0
H141 H 0.05033 0.90459 0.98707 0.0
H142 H 0.02177 0.95641 0.9615 0.0
H143 H 0.05558 0.9881 0.94193 0.0
Mn144 Mn 0.03966 0.29803 0.907 0.0
Mn145 Mn 0.04639 0.22978 0.93422 0.0
C146 C 0.09876 0.30304 0.91214 0.0
C147 C 0.03088 0.32228 0.87518 0.0
C148 C 0.04161 0.29378 0.95617 0.0
O149 O 0.98427 0.25551 0.90784 0.0
O150 O 0.99287 0.21451 0.92753 0.0
C151 C 0.01638 0.17482 0.89677 0.0
N152 N 0.04203 0.1921 0.91279 0.0
C153 C 0.05082 0.13085 0.91206 0.0
C154 C 0.02658 0.11867 0.89462 0.0
C155 C 0.01059 0.14057 0.88702 0.0
C156 C 0.06205 0.17664 0.91918 0.0
H157 H 1.00016 0.18748 0.89107 0.0
C158 C 0.97153 0.22389 0.91746 0.0
O159 O 0.02425 0.33283 0.89348 0.0
O160 O 0.04058 0.2963 0.87539 0.0
N161 N 0.09645 0.23784 0.94413 0.0
C162 C 0.12175 0.26543 0.96043 0.0
C163 C 0.14859 0.25881 0.97659 0.0
C164 C 0.14875 0.19513 0.9759 0.0
C165 C 0.12071 0.16781 0.95748 0.0
C166 C 0.09223 0.20134 0.93863 0.0
H167 H 0.11998 0.29074 0.96294 0.0
O168 O 0.09581 0.33218 0.90661 0.0
O169 O 0.06691 0.2708 0.91319 0.0
O170 O 0.03705 0.30849 0.93915 0.0
O171 O 0.04775 0.26566 0.95626 0.0
C172 C 0.10471 0.12101 0.94698 0.0
C173 C 0.06962 0.10305 0.92449 0.0
H174 H 0.02122 0.09317 0.88632 0.0
H175 H 0.99194 0.13005 0.87335 0.0
H176 H 0.16404 0.28394 0.98685 0.0
H177 H 0.16382 0.18407 0.98532 0.0
H178 H 0.11897 0.10622 0.95614 0.0
H179 H 0.08788 0.10834 0.93618 0.0
Mn180 Mn 0.74116 0.75533 0.91136 0.0
Mn181 Mn 0.81081 0.83016 0.93735 0.0
C182 C 0.73706 0.81033 0.91767 0.0
C183 C 0.7177 0.72594 0.87841 0.0
C184 C 0.75399 0.75497 0.95851 0.0
O185 O 0.78647 0.74529 0.91023 0.0
O186 O 0.83275 0.80233 0.92195 0.0
C187 C 0.85329 0.87183 0.89996 0.0
N188 N 0.83619 0.87283 0.9182 0.0
C189 C 0.88338 0.94372 0.92332 0.0
C190 C 0.89803 0.93926 0.90259 0.0
C191 C 0.88229 0.90504 0.89129 0.0
C192 C 0.84222 0.90614 0.92619 0.0
H193 H 0.84472 0.84521 0.89211 0.0
C194 C 0.82157 0.76928 0.91399 0.0
O195 O 0.707 0.70653 0.89601 0.0
O196 O 0.74299 0.7616 0.87999 0.0
N197 N 0.79515 0.85955 0.95524 0.0
C198 C 0.78709 0.84789 0.98033 0.0
C199 C 0.80306 0.87978 1.00247 0.0
C200 C 0.82972 0.92983 1.00088 0.0
C201 C 0.84338 0.95263 0.97593 0.0
C202 C 0.81759 0.90176 0.94584 0.0
H203 H 0.77128 0.81827 0.98449 0.0
O204 O 0.70669 0.77849 0.91293 0.0
O205 O 0.76759 0.80839 0.91875 0.0
O206 O 0.73124 0.73867 0.94298 0.0
O207 O 0.78483 0.78696 0.95669 0.0
C208 C 0.88305 0.98949 0.97364 0.0
C209 C 0.90804 0.99422 0.95315 0.0
H210 H 0.92289 0.96119 0.8945 0.0
H211 H 0.89505 0.90369 0.87637 0.0
H212 H 0.79608 0.86742 0.01822 0.0
H213 H 0.84071 0.94631 0.01534 0.0
H214 H 0.89482 0.00931 0.98671 0.0
H215 H 0.93499 0.02125 0.95468 0.0
Mn216 Mn 0.03401 0.76815 0.91481 0.0
Mn217 Mn 0.03571 0.84144 0.94191 0.0
C218 C 0.09148 0.82338 0.92147 0.0
C219 C 0.03064 0.73927 0.8813 0.0
C220 C 0.02305 0.76841 0.96308 0.0
O221 O 0.97838 0.75597 0.91377 0.0
O222 O 0.98581 0.81152 0.92642 0.0
C223 C 0.03269 0.8846 0.9053 0.0
N224 N 0.05249 0.88487 0.92266 0.0
C225 C 0.08427 0.95811 0.92528 0.0
C226 C 0.06408 0.95363 0.90508 0.0
C227 C 0.0403 0.91836 0.89558 0.0
C228 C 0.08305 0.91793 0.92919 0.0
H229 H 0.01079 0.85825 0.89873 0.0
C230 C 0.96557 0.77847 0.91787 0.0
O231 O 0.02201 0.71993 0.89894 0.0
O232 O 0.03883 0.77431 0.88308 0.0
N233 N 0.08068 0.87197 0.95949 0.0
C234 C 0.07736 0.86277 0.98498 0.0
C235 C 0.09772 0.89673 0.00596 0.0
C236 C 0.12546 0.94642 1.0027 0.0
C237 C 0.13492 0.96674 0.97704 0.0
C238 C 0.10335 0.91314 0.94868 0.0
H239 H 0.05904 0.83418 0.99042 0.0
O240 O 0.09093 0.79209 0.91643 0.0
O241 O 0.0587 0.82105 0.92274 0.0
O242 O 0.02881 0.75298 0.94669 0.0
O243 O 0.01979 0.79822 0.96206 0.0
C244 C 0.13644 0.00555 0.97387 0.0
C245 C 0.11654 0.01089 0.95356 0.0
H246 H 0.06398 0.97649 0.8963 0.0
H247 H 0.02508 0.9171 0.88116 0.0
H248 H 0.09154 0.88602 0.0221 0.0
H249 H 0.13338 0.96464 0.01658 0.0
H250 H 0.14668 0.02653 0.98649 0.0
H251 H 0.11975 0.03941 0.95454 0.0
Mn252 Mn 0.30152 0.31178 0.91727 0.0
Mn253 Mn 0.2282 0.23946 0.94328 0.0
C254 C 0.24505 0.313 0.92326 0.0
C255 C 0.33012 0.33643 0.88367 0.0
C256 C 0.30047 0.29956 0.96514 0.0
O257 O 0.31563 0.26941 0.91733 0.0
O258 O 0.2597 0.22133 0.92904 0.0
C259 C 0.19195 0.19769 0.90444 0.0
N260 N 0.18793 0.21361 0.92251 0.0
C261 C 0.11575 0.16905 0.92224 0.0
C262 C 0.12375 0.15709 0.90156 0.0
C263 C 0.16026 0.1718 0.89311 0.0
C264 C 0.15358 0.2087 0.92807 0.0
H265 H 0.21975 0.20498 0.8985 0.0
C266 C 0.29329 0.23424 0.9217 0.0
O267 O 0.34956 0.34804 0.90126 0.0
O268 O 0.29539 0.30916 0.88563 0.0
N269 N 0.19483 0.25044 0.96037 0.0
C270 C 0.20163 0.25349 0.9861 0.0
C271 C 0.16561 0.23496 0.00612 0.0
C272 C 0.11614 0.21036 1.00145 0.0
C273 C 0.09828 0.20163 0.97521 0.0
C274 C 0.15468 0.23067 0.94841 0.0
H275 H 0.23007 0.26497 0.99216 0.0
O276 O 0.27607 0.3439 0.9182 0.0
O277 O 0.2486 0.28337 0.92494 0.0
O278 O 0.31602 0.32177 0.94916 0.0
O279 O 0.26979 0.26722 0.96404 0.0
C280 C 0.06139 0.16316 0.97016 0.0
C281 C 0.0599 0.14128 0.94888 0.0
H282 H 0.10291 0.13457 0.89158 0.0
H283 H 0.16419 0.16053 0.87826 0.0
H284 H 0.17488 0.2379 0.0225 0.0
H285 H 0.09684 0.19721 0.01469 0.0
H286 H 0.03932 0.1495 0.98206 0.0
H287 H 0.03235 0.11469 0.94843 0.0
Mn288 Mn 0.75482 0.01821 0.90714 0.0
Mn289 Mn 0.82264 0.01232 0.93501 0.0
C290 C 0.75017 0.95919 0.91259 0.0
C291 C 0.73176 0.02304 0.87324 0.0
C292 C 0.75847 0.01661 0.95664 0.0
O293 O 0.79689 0.07383 0.90777 0.0
O294 O 0.83727 0.0656 0.92825 0.0
C295 C 0.88348 0.04673 0.90066 0.0
N296 N 0.8631 0.01869 0.91509 0.0
C297 C 0.92452 0.00993 0.91729 0.0
C298 C 0.94034 0.03746 0.90162 0.0
C299 C 0.92002 0.05467 0.89332 0.0
C300 C 0.87805 0.99879 0.92249 0.0
H301 H 0.87191 0.06368 0.89451 0.0
C302 C 0.82825 0.08686 0.91777 0.0
O303 O 0.71897 0.03026 0.89064 0.0
O304 O 0.75913 0.01589 0.87562 0.0
N305 N 0.81321 0.96173 0.94415 0.0
C306 C 0.7827 0.93433 0.95845 0.0
C307 C 0.78548 0.90371 0.97328 0.0
C308 C 0.8479 0.90108 0.97443 0.0
C309 C 0.87868 0.93199 0.95814 0.0
C310 C 0.84991 0.96576 0.9399 0.0
H311 H 0.75771 0.93694 0.96045 0.0
O312 O 0.72103 0.96219 0.90738 0.0
O313 O 0.78243 0.99124 0.91362 0.0
O314 O 0.74373 0.02189 0.93968 0.0
O315 O 0.78594 0.00974 0.95632 0.0
C316 C 0.92671 0.94836 0.94972 0.0
C317 C 0.94914 0.98749 0.92952 0.0
H318 H 0.96769 0.04445 0.89532 0.0
H319 H 0.93343 0.07589 0.88102 0.0
H320 H 0.75863 0.88719 0.98204 0.0
H321 H 0.85658 0.88359 0.98342 0.0
H322 H 0.93923 0.93162 0.95857 0.0
H323 H 0.94143 0.96696 0.94012 0.0
Mn324 Mn 0.77212 0.03179 0.09351 0.0
Mn325 Mn 0.84807 0.0376 0.06614 0.0
C326 C 0.82484 0.09124 0.08899 0.0
C327 C 0.73815 0.02646 0.12513 0.0
C328 C 0.77867 0.03161 0.04431 0.0
O329 O 0.7613 0.97739 0.09535 0.0
O330 O 0.8088 0.98479 0.074 0.0
C331 C 0.87401 0.00399 0.1013 0.0
N332 N 0.88246 0.03142 0.08628 0.0
C333 C 0.95312 0.04022 0.08657 0.0
C334 C 0.93959 0.01159 0.10178 0.0
C335 C 0.90147 0.99479 0.10911 0.0
C336 C 0.91796 0.05073 0.07931 0.0
H337 H 0.84541 0.98796 0.10737 0.0
C338 C 0.77964 0.96423 0.08553 0.0
O339 O 0.72129 0.01739 0.10673 0.0
O340 O 0.77391 0.03667 0.12526 0.0
N341 N 0.89149 0.08594 0.05485 0.0
C342 C 0.88962 0.11164 0.03878 0.0
C343 C 0.92454 0.14206 0.02445 0.0
C344 C 0.98996 0.14575 0.02659 0.0
C345 C 0.98853 0.11579 0.04403 0.0
C346 C 0.92417 0.08256 0.0607 0.0
H347 H 0.86206 0.10812 0.03529 0.0
O348 O 0.79103 0.08628 0.0913 0.0
O349 O 0.82816 0.06038 0.08809 0.0
O350 O 0.75887 0.02541 0.0613 0.0
O351 O 0.81359 0.0399 0.0444 0.0
C352 C 0.01956 0.1003 0.05468 0.0
C353 C 0.00122 0.06235 0.07564 0.0
H354 H 0.95823 0.00203 0.10803 0.0
H355 H 0.89221 0.97255 0.12097 0.0
H356 H 0.91489 0.15775 0.0144 0.0
H357 H 0.01704 0.16317 0.01831 0.0
H358 H 0.04963 0.11681 0.0466 0.0
H359 H 0.0149 0.08234 0.06485 0.0
Mn360 Mn 0.03619 0.75874 0.10142 0.0
Mn361 Mn 0.03554 0.83294 0.07712 0.0
C362 C 0.97891 0.758 0.0975 0.0
C363 C 0.04042 0.72986 0.13265 0.0
C364 C 0.0348 0.76754 0.05252 0.0
O365 O 0.09225 0.79863 0.10169 0.0
O366 O 0.08801 0.8454 0.08507 0.0
C367 C 0.07008 0.8946 0.11116 0.0
N368 N 0.04109 0.87323 0.09744 0.0
C369 C 0.03211 0.93495 0.09514 0.0
C370 C 0.06169 0.95211 0.1097 0.0
C371 C 0.07943 0.93207 0.11765 0.0
C372 C 0.02104 0.88832 0.09006 0.0
H373 H 0.08728 0.88337 0.11698 0.0
C374 C 0.10699 0.83224 0.0944 0.0
O375 O 0.0464 0.71927 0.11418 0.0
O376 O 0.03465 0.75844 0.13295 0.0
N377 N 0.98605 0.82449 0.06765 0.0
C378 C 0.95992 0.79423 0.05305 0.0
C379 C 0.93094 0.7972 0.03741 0.0
C380 C 0.92761 0.85929 0.03548 0.0
C381 C 0.95721 0.88999 0.05246 0.0
C382 C 0.98944 0.86082 0.07193 0.0
H383 H 0.96234 0.76914 0.05164 0.0
O384 O 0.98065 0.7278 0.10148 0.0
O385 O 0.01178 0.78993 0.09725 0.0
O386 O 0.03746 0.74939 0.06857 0.0
O387 O 0.03343 0.79812 0.0544 0.0
C388 C 0.97298 0.93789 0.06102 0.0
C389 C 0.01063 0.95988 0.08212 0.0
H390 H 0.07177 0.98116 0.11465 0.0
H391 H 0.10283 0.94685 0.12868 0.0
H392 H 0.91547 0.77044 0.02842 0.0
H393 H 0.91051 0.86771 0.02589 0.0
H394 H 0.95692 0.95062 0.05167 0.0
H395 H 0.99085 0.95242 0.07106 0.0
Mn396 Mn 0.29475 0.28697 0.10145 0.0
Mn397 Mn 0.22722 0.21227 0.07305 0.0
C398 C 0.29932 0.23295 0.09659 0.0
C399 C 0.31906 0.31996 0.13346 0.0
C400 C 0.29318 0.28075 0.05215 0.0
O401 O 0.25281 0.30019 0.10003 0.0
O402 O 0.21295 0.25173 0.07911 0.0
C403 C 0.16605 0.18807 0.10702 0.0
N404 N 0.18648 0.17896 0.0933 0.0
C405 C 0.12465 0.10887 0.09278 0.0
C406 C 0.10818 0.12266 0.10701 0.0
C407 C 0.12883 0.16086 0.1142 0.0
C408 C 0.17154 0.14321 0.08715 0.0
H409 H 0.17776 0.21705 0.11238 0.0
C410 C 0.22189 0.28199 0.08971 0.0
O411 O 0.32966 0.33705 0.11517 0.0
O412 O 0.29246 0.28452 0.13314 0.0
N413 N 0.23512 0.16946 0.064 0.0
C414 C 0.26403 0.17116 0.04876 0.0
C415 C 0.25864 0.13737 0.03308 0.0
C416 C 0.19456 0.07397 0.03257 0.0
C417 C 0.1659 0.07517 0.04991 0.0
C418 C 0.19809 0.13735 0.0688 0.0
H419 H 0.28957 0.19805 0.04659 0.0
O420 O 0.32838 0.26488 0.10238 0.0
O421 O 0.26692 0.23234 0.09512 0.0
O422 O 0.30653 0.30004 0.06935 0.0
O423 O 0.26535 0.24637 0.05174 0.0
C424 C 0.11818 0.04482 0.05905 0.0
C425 C 0.09813 0.06233 0.08021 0.0
H426 H 0.0791 0.10446 0.11218 0.0
H427 H 0.11465 0.17052 0.12507 0.0
H428 H 0.28464 0.14669 0.02362 0.0
H429 H 0.1841 0.04775 0.02326 0.0
H430 H 0.1042 0.01569 0.0499 0.0
H431 H 0.10463 0.04922 0.06915 0.0
Mn432 Mn 0.6915 0.62211 0.42894 0.0
Mn433 Mn 0.68856 0.54766 0.40242 0.0
C434 C 0.63238 0.57016 0.42217 0.0
C435 C 0.69261 0.652 0.46152 0.0
C436 C 0.69342 0.61532 0.37975 0.0
O437 O 0.74595 0.63432 0.43192 0.0
O438 O 0.74104 0.58929 0.40954 0.0
C439 C 0.72467 0.52732 0.43889 0.0
N440 N 0.6969 0.51636 0.42378 0.0
C441 C 0.6918 0.44746 0.42634 0.0
C442 C 0.72062 0.46343 0.4414 0.0
C443 C 0.73577 0.5019 0.44769 0.0
C444 C 0.67892 0.48032 0.41781 0.0
H445 H 0.73953 0.55637 0.44432 0.0
C446 C 0.76068 0.61828 0.4214 0.0
O447 O 0.7031 0.67124 0.44382 0.0
O448 O 0.68421 0.61689 0.46034 0.0
N449 N 0.64103 0.50185 0.39199 0.0
C450 C 0.61419 0.50065 0.37562 0.0
C451 C 0.58454 0.46362 0.36223 0.0
C452 C 0.58469 0.40039 0.36659 0.0
C453 C 0.61563 0.4052 0.38428 0.0
C454 C 0.64629 0.47087 0.39907 0.0
H455 H 0.61616 0.52727 0.37125 0.0
O456 O 0.63775 0.60377 0.42526 0.0
O457 O 0.66313 0.56649 0.42287 0.0
O458 O 0.69987 0.63582 0.3966 0.0
O459 O 0.68436 0.58011 0.38016 0.0
C460 C 0.63349 0.37711 0.39598 0.0
C461 C 0.67162 0.39869 0.41676 0.0
H462 H 0.73157 0.44643 0.44835 0.0
H463 H 0.75818 0.51312 0.45952 0.0
H464 H 0.56772 0.47109 0.35166 0.0
H465 H 0.56835 0.37241 0.35903 0.0
H466 H 0.6188 0.3472 0.38795 0.0
H467 H 0.6518 0.38334 0.40617 0.0
Mn468 Mn 0.42526 0.08488 0.42973 0.0
Mn469 Mn 0.49879 0.15917 0.40524 0.0
C470 C 0.4806 0.08273 0.42157 0.0
C471 C 0.39664 0.05922 0.46296 0.0
C472 C 0.42678 0.10128 0.38218 0.0
O473 O 0.41227 0.1277 0.43247 0.0
O474 O 0.4683 0.17628 0.42162 0.0
C475 C 0.53434 0.19172 0.44606 0.0
N476 N 0.53884 0.18084 0.42642 0.0
C477 C 0.61051 0.22591 0.42768 0.0
C478 C 0.60234 0.23301 0.44958 0.0
C479 C 0.56577 0.2154 0.45831 0.0
C480 C 0.57328 0.18709 0.42014 0.0
H481 H 0.50636 0.18185 0.45247 0.0
C482 C 0.43527 0.16318 0.42974 0.0
O483 O 0.37702 0.04848 0.4454 0.0
O484 O 0.43199 0.08507 0.46114 0.0
N485 N 0.53218 0.15101 0.38641 0.0
C486 C 0.52512 0.1527 0.36094 0.0
C487 C 0.56082 0.17607 0.3411 0.0
C488 C 0.61032 0.20121 0.34561 0.0
C489 C 0.62858 0.20536 0.37155 0.0
C490 C 0.57255 0.16953 0.3982 0.0
H491 H 0.49647 0.14086 0.35511 0.0
O492 O 0.44956 0.05179 0.42657 0.0
O493 O 0.47782 0.11288 0.42155 0.0
O494 O 0.41071 0.07838 0.39785 0.0
O495 O 0.45685 0.13417 0.38403 0.0
C496 C 0.66486 0.24325 0.37821 0.0
C497 C 0.66596 0.26037 0.40115 0.0
H498 H 0.62299 0.25358 0.4605 0.0
H499 H 0.56152 0.22274 0.47429 0.0
H500 H 0.55125 0.17505 0.32493 0.0
H501 H 0.62931 0.21711 0.33269 0.0
H502 H 0.68666 0.25974 0.36659 0.0
H503 H 0.6931 0.28723 0.40262 0.0
Mn504 Mn 0.97021 0.37664 0.42877 0.0
Mn505 Mn 0.90148 0.38407 0.40217 0.0
C506 C 0.97438 0.43551 0.42464 0.0
C507 C 0.99551 0.36957 0.46106 0.0
C508 C 0.9647 0.37852 0.37937 0.0
O509 O 0.92803 0.32119 0.42798 0.0
O510 O 0.88662 0.33087 0.40962 0.0
C511 C 0.84051 0.34986 0.43635 0.0
N512 N 0.86142 0.37846 0.42228 0.0
C513 C 0.79973 0.38698 0.41982 0.0
C514 C 0.78291 0.35795 0.43467 0.0
C515 C 0.80329 0.34086 0.44301 0.0
C516 C 0.84649 0.39848 0.41487 0.0
H517 H 0.85194 0.33277 0.44247 0.0
C518 C 0.89579 0.30877 0.41916 0.0
O519 O 0.00602 0.36246 0.44284 0.0
O520 O 0.96877 0.3781 0.46044 0.0
N521 N 0.91125 0.43513 0.39292 0.0
C522 C 0.94164 0.46251 0.37849 0.0
C523 C 0.93855 0.4928 0.36337 0.0
C524 C 0.87589 0.49486 0.36216 0.0
C525 C 0.84534 0.4642 0.37851 0.0
C526 C 0.87456 0.43128 0.39723 0.0
H527 H 0.96663 0.45997 0.3765 0.0
O528 O 0.00391 0.4326 0.42923 0.0
O529 O 0.94217 0.40365 0.42339 0.0
O530 O 0.97992 0.37361 0.39616 0.0
O531 O 0.93729 0.38559 0.38006 0.0
C532 C 0.79722 0.44765 0.38683 0.0
C533 C 0.77493 0.40889 0.40722 0.0
H534 H 0.75416 0.34855 0.43983 0.0
H535 H 0.7892 0.31848 0.45462 0.0
H536 H 0.9653 0.50937 0.35453 0.0
H537 H 0.86703 0.51219 0.35319 0.0
H538 H 0.78456 0.46409 0.37778 0.0
H539 H 0.78259 0.42923 0.39651 0.0
Mn540 Mn 0.95952 0.35374 0.24227 0.0
Mn541 Mn 0.88286 0.34166 0.27032 0.0
C542 C 0.90515 0.29474 0.24539 0.0
C543 C 0.98765 0.36111 0.20817 0.0
C544 C 0.95691 0.35442 0.29115 0.0
O545 O 0.96992 0.40827 0.24535 0.0
O546 O 0.91473 0.39609 0.26143 0.0
C547 C 0.84503 0.36811 0.23845 0.0
N548 N 0.84129 0.33803 0.25031 0.0
C549 C 0.76639 0.32646 0.25574 0.0
C550 C 0.77784 0.35759 0.24272 0.0
C551 C 0.81492 0.37583 0.23378 0.0
C552 C 0.8059 0.31086 0.25508 0.0
H553 H 0.87287 0.38861 0.23255 0.0
C554 C 0.9473 0.41884 0.25298 0.0
O555 O 0.00752 0.3672 0.22548 0.0
O556 O 0.95362 0.35526 0.2109 0.0
N557 N 0.85285 0.28836 0.28222 0.0
C558 C 0.86451 0.28038 0.30663 0.0
C559 C 0.83264 0.26237 0.33063 0.0
C560 C 0.78109 0.24849 0.33116 0.0
C561 C 0.75636 0.25147 0.30715 0.0
C562 C 0.81159 0.27738 0.27343 0.0
H563 H 0.89358 0.28844 0.30947 0.0
O564 O 0.93723 0.29713 0.24038 0.0
O565 O 0.90578 0.32649 0.24837 0.0
O566 O 0.97481 0.35475 0.27416 0.0
O567 O 0.92349 0.35018 0.2909 0.0
C568 C 0.72315 0.27572 0.3049 0.0
C569 C 0.72644 0.31332 0.28023 0.0
H570 H 0.75984 0.37001 0.24082 0.0
H571 H 0.82246 0.40064 0.22408 0.0
H572 H 0.84563 0.25844 0.34445 0.0
H573 H 0.76643 0.2418 0.34631 0.0
H574 H 0.70497 0.269 0.31971 0.0
H575 H 0.71895 0.29728 0.29427 0.0
Mn576 Mn 0.71022 0.631 0.24249 0.0
Mn577 Mn 0.71709 0.56399 0.27147 0.0
C578 C 0.76885 0.63524 0.24762 0.0
C579 C 0.70357 0.65454 0.2093 0.0
C580 C 0.71177 0.62858 0.29199 0.0
O581 O 0.65493 0.58875 0.24377 0.0
O582 O 0.66339 0.54809 0.26411 0.0
C583 C 0.6844 0.50195 0.23789 0.0
N584 N 0.71208 0.52313 0.25233 0.0
C585 C 0.71975 0.46138 0.25705 0.0
C586 C 0.69213 0.44435 0.24147 0.0
C587 C 0.67608 0.46474 0.23175 0.0
C588 C 0.73176 0.50855 0.26066 0.0
H589 H 0.66782 0.51334 0.23095 0.0
C590 C 0.64214 0.55726 0.25362 0.0
O591 O 0.69629 0.66599 0.22715 0.0
O592 O 0.71178 0.62763 0.21075 0.0
N593 N 0.76805 0.57455 0.28143 0.0
C594 C 0.7949 0.60561 0.29574 0.0
C595 C 0.82392 0.60292 0.31211 0.0
C596 C 0.8245 0.53975 0.31586 0.0
C597 C 0.79452 0.50847 0.29952 0.0
C598 C 0.76378 0.53739 0.27839 0.0
H599 H 0.79254 0.63087 0.29681 0.0
O600 O 0.76621 0.66448 0.24193 0.0
O601 O 0.73687 0.60321 0.24931 0.0
O602 O 0.7071 0.64291 0.27476 0.0
O603 O 0.71845 0.601 0.29227 0.0
C604 C 0.77762 0.45973 0.29245 0.0
C605 C 0.74008 0.43673 0.27143 0.0
H606 H 0.68339 0.41558 0.23668 0.0
H607 H 0.65518 0.45078 0.21938 0.0
H608 H 0.84032 0.63014 0.32054 0.0
H609 H 0.8408 0.53102 0.32588 0.0
H610 H 0.79301 0.44721 0.30263 0.0
H611 H 0.75967 0.44472 0.28264 0.0
Mn612 Mn 0.41416 0.09372 0.24521 0.0
Mn613 Mn 0.48703 0.16824 0.27071 0.0
C614 C 0.40907 0.14827 0.24826 0.0
C615 C 0.39376 0.06413 0.21162 0.0
C616 C 0.42642 0.09632 0.2928 0.0
O617 O 0.4568 0.08065 0.24641 0.0
O618 O 0.50466 0.13921 0.2532 0.0
C619 C 0.52306 0.20786 0.23137 0.0
N620 N 0.51113 0.21052 0.25108 0.0
C621 C 0.55813 0.2826 0.25241 0.0
C622 C 0.56677 0.27583 0.2305 0.0
C623 C 0.5489 0.24027 0.22054 0.0
C624 C 0.5193 0.24466 0.25905 0.0
H625 H 0.51274 0.18056 0.22386 0.0
C626 C 0.49212 0.10489 0.24743 0.0
O627 O 0.38096 0.0449 0.22921 0.0
O628 O 0.41946 0.09951 0.21366 0.0
N629 N 0.48123 0.2014 0.29134 0.0
C630 C 0.48189 0.19265 0.31666 0.0
C631 C 0.50355 0.22704 0.33744 0.0
C632 C 0.52831 0.27698 0.33402 0.0
C633 C 0.53372 0.29692 0.30834 0.0
C634 C 0.50037 0.24248 0.28062 0.0
H635 H 0.47153 0.16379 0.32165 0.0
O636 O 0.37978 0.1157 0.24373 0.0
O637 O 0.43969 0.14714 0.25339 0.0
O638 O 0.40326 0.08113 0.27712 0.0
O639 O 0.46057 0.12458 0.29093 0.0
C640 C 0.57156 0.33403 0.30258 0.0
C641 C 0.59015 0.33678 0.27988 0.0
H642 H 0.58849 0.297 0.22028 0.0
H643 H 0.55738 0.23744 0.20457 0.0
H644 H 0.50225 0.21636 0.35337 0.0
H645 H 0.54335 0.29517 0.34738 0.0
H646 H 0.58705 0.3553 0.31465 0.0
H647 H 0.6167 0.36432 0.27898 0.0
Mn648 Mn 0.70162 0.10234 0.23772 0.0
Mn649 Mn 0.70387 0.17959 0.26036 0.0
C650 C 0.7598 0.15755 0.24267 0.0
C651 C 0.69932 0.07157 0.20514 0.0
C652 C 0.6927 0.1101 0.28569 0.0
O653 O 0.6459 0.08836 0.23664 0.0
O654 O 0.65295 0.14446 0.24745 0.0
C655 C 0.68466 0.21857 0.23348 0.0
N656 N 0.71619 0.21906 0.24025 0.0
C657 C 0.73628 0.26513 0.26974 0.0
C658 C 0.68841 0.24757 0.26697 0.0
C659 C 0.66726 0.22939 0.24857 0.0
C660 C 0.74177 0.25302 0.24961 0.0
H661 H 0.66869 0.20109 0.22013 0.0
C662 C 0.63265 0.11041 0.24045 0.0
O663 O 0.69195 0.05356 0.22322 0.0
O664 O 0.70439 0.10553 0.20618 0.0
N665 N 0.74863 0.21649 0.27385 0.0
C666 C 0.77101 0.20729 0.28584 0.0
C667 C 0.80122 0.23518 0.29904 0.0
C668 C 0.8171 0.29628 0.30709 0.0
C669 C 0.78922 0.3072 0.2923 0.0
C670 C 0.74979 0.255 0.27176 0.0
H671 H 0.76518 0.17823 0.28579 0.0
O672 O 0.75784 0.12536 0.23879 0.0
O673 O 0.72752 0.15707 0.24292 0.0
O674 O 0.69667 0.09107 0.27044 0.0
O675 O 0.69324 0.14168 0.2829 0.0
C676 C 0.79567 0.3475 0.29721 0.0
C677 C 0.78102 0.3144 0.28822 0.0
H678 H 0.67034 0.24977 0.279 0.0
H679 H 0.63785 0.2222 0.24686 0.0
H680 H 0.81375 0.21792 0.30438 0.0
H681 H 0.83816 0.31899 0.31745 0.0
H682 H 0.81865 0.36058 0.31034 0.0
H683 H 0.78484 0.35292 0.28863 0.0
Mn684 Mn 0.97053 0.6419 0.24935 0.0
Mn685 Mn 0.9003 0.57654 0.28041 0.0
C686 C 0.91527 0.64508 0.25556 0.0
C687 C 0.9963 0.65997 0.21525 0.0
C688 C 0.97534 0.64117 0.29731 0.0
O689 O 0.98387 0.59932 0.25135 0.0
O690 O 0.93001 0.55531 0.26734 0.0
C691 C 0.85979 0.52679 0.2446 0.0
N692 N 0.85772 0.54623 0.26161 0.0
C693 C 0.78571 0.50173 0.26447 0.0
C694 C 0.79146 0.48528 0.2448 0.0
C695 C 0.82694 0.4984 0.23523 0.0
C696 C 0.82398 0.54249 0.26748 0.0
H697 H 0.88689 0.53301 0.23804 0.0
C698 C 0.96146 0.56541 0.25782 0.0
O699 O 0.01698 0.67539 0.23208 0.0
O700 O 0.96182 0.63261 0.21839 0.0
N701 N 0.86861 0.59123 0.2966 0.0
C702 C 0.87821 0.60002 0.32191 0.0
C703 C 0.84447 0.58599 0.34307 0.0
C704 C 0.79454 0.56037 0.34016 0.0
C705 C 0.77379 0.54581 0.31472 0.0
C706 C 0.82716 0.56884 0.28611 0.0
H707 H 0.90736 0.61294 0.32707 0.0
O708 O 0.94573 0.67453 0.24846 0.0
O709 O 0.91844 0.61554 0.25885 0.0
O710 O 0.98872 0.65874 0.27978 0.0
O711 O 0.94446 0.60902 0.29901 0.0
C712 C 0.73651 0.50662 0.31232 0.0
C713 C 0.73284 0.48018 0.29278 0.0
H714 H 0.76962 0.4606 0.23653 0.0
H715 H 0.82928 0.4841 0.2212 0.0
H716 H 0.85556 0.59272 0.35912 0.0
H717 H 0.77677 0.5503 0.35422 0.0
H718 H 0.7154 0.49617 0.32479 0.0
H719 H 0.70528 0.45376 0.29418 0.0
Mn720 Mn 0.42343 0.35344 0.24513 0.0
Mn721 Mn 0.49526 0.348 0.26945 0.0
C722 C 0.41705 0.29369 0.24839 0.0
C723 C 0.39454 0.35959 0.2143 0.0
C724 C 0.43296 0.35159 0.29382 0.0
O725 O 0.46618 0.40858 0.24363 0.0
O726 O 0.50758 0.4006 0.26304 0.0
C727 C 0.54689 0.37967 0.23068 0.0
N728 N 0.53256 0.3545 0.24714 0.0
C729 C 0.5952 0.34804 0.24303 0.0
C730 C 0.60479 0.3728 0.22587 0.0
C731 C 0.58091 0.38748 0.21979 0.0
C732 C 0.55066 0.33654 0.25281 0.0
H733 H 0.53211 0.39415 0.22558 0.0
C734 C 0.49799 0.42165 0.25297 0.0
O735 O 0.38672 0.36805 0.23293 0.0
O736 O 0.42045 0.34991 0.21361 0.0
N737 N 0.49294 0.30064 0.27989 0.0
C738 C 0.46843 0.27547 0.29716 0.0
C739 C 0.47652 0.24695 0.31098 0.0
C740 C 0.53927 0.24601 0.30563 0.0
C741 C 0.56439 0.27544 0.28703 0.0
C742 C 0.52881 0.30549 0.27235 0.0
H743 H 0.44436 0.27807 0.30192 0.0
O744 O 0.38811 0.29859 0.24681 0.0
O745 O 0.45092 0.32483 0.24902 0.0
O746 O 0.41762 0.35796 0.27768 0.0
O747 O 0.46038 0.3446 0.29244 0.0
C748 C 0.60946 0.2919 0.27405 0.0
C749 C 0.62442 0.32836 0.25234 0.0
H750 H 0.63007 0.3801 0.21668 0.0
H751 H 0.58964 0.40672 0.20636 0.0
H752 H 0.4529 0.23112 0.32217 0.0
H753 H 0.55129 0.23022 0.31331 0.0
H754 H 0.62527 0.27698 0.28128 0.0
H755 H 0.62066 0.30937 0.26333 0.0
Mn756 Mn 0.43389 0.3732 0.42993 0.0
Mn757 Mn 0.50892 0.37396 0.40381 0.0
C758 C 0.48757 0.43211 0.4245 0.0
C759 C 0.40349 0.36805 0.46308 0.0
C760 C 0.43482 0.35773 0.38254 0.0
O761 O 0.42244 0.31845 0.43131 0.0
O762 O 0.47962 0.32681 0.42182 0.0
C763 C 0.55239 0.37887 0.4418 0.0
N764 N 0.55311 0.39342 0.42239 0.0
C765 C 0.62549 0.41878 0.41882 0.0
C766 C 0.62063 0.40349 0.44063 0.0
C767 C 0.58588 0.38568 0.45151 0.0
C768 C 0.58672 0.41925 0.41352 0.0
H769 H 0.52579 0.36173 0.4499 0.0
C770 C 0.44538 0.30598 0.4287 0.0
O771 O 0.38462 0.35928 0.44529 0.0
O772 O 0.43916 0.37829 0.46165 0.0
N773 N 0.54076 0.41311 0.38256 0.0
C774 C 0.53012 0.40368 0.35738 0.0
C775 C 0.56295 0.4165 0.3357 0.0
C776 C 0.61315 0.44214 0.3379 0.0
C777 C 0.63504 0.45704 0.36314 0.0
C778 C 0.58271 0.43569 0.39227 0.0
H779 H 0.50079 0.38565 0.35297 0.0
O780 O 0.45488 0.42903 0.42854 0.0
O781 O 0.48764 0.40015 0.42174 0.0
O782 O 0.41973 0.36634 0.39801 0.0
O783 O 0.46483 0.35498 0.38425 0.0
C784 C 0.67274 0.45681 0.36768 0.0
C785 C 0.67747 0.44137 0.38993 0.0
H786 H 0.6428 0.40322 0.45004 0.0
H787 H 0.5845 0.37441 0.46733 0.0
H788 H 0.55112 0.40674 0.31998 0.0
H789 H 0.63035 0.44529 0.32402 0.0
H790 H 0.69291 0.46208 0.35509 0.0
H791 H 0.70519 0.44262 0.38984 0.0
Mn792 Mn 0.6855 0.09416 0.42491 0.0
Mn793 Mn 0.68209 0.17128 0.40797 0.0
C794 C 0.62764 0.09274 0.42304 0.0
C795 C 0.68993 0.06043 0.45423 0.0
C796 C 0.68658 0.11538 0.37722 0.0
O797 O 0.74164 0.13519 0.42632 0.0
O798 O 0.7345 0.18349 0.41465 0.0
C799 C 0.71174 0.21872 0.44819 0.0
N800 N 0.68508 0.20324 0.43248 0.0
C801 C 0.67548 0.26374 0.43808 0.0
C802 C 0.70185 0.27451 0.45448 0.0
C803 C 0.71855 0.25199 0.4596 0.0
C804 C 0.66523 0.21986 0.42774 0.0
H805 H 0.72879 0.20589 0.45202 0.0
C806 C 0.75499 0.17005 0.42148 0.0
O807 O 0.69641 0.0531 0.43497 0.0
O808 O 0.6833 0.0882 0.45633 0.0
N809 N 0.63217 0.16426 0.39913 0.0
C810 C 0.60718 0.13951 0.38182 0.0
C811 C 0.57941 0.14792 0.36762 0.0
C812 C 0.57697 0.20971 0.3737 0.0
C813 C 0.60491 0.23386 0.39305 0.0
C814 C 0.63521 0.19864 0.40757 0.0
H815 H 0.61013 0.1156 0.37699 0.0
O816 O 0.62927 0.06182 0.42403 0.0
O817 O 0.6601 0.12433 0.42428 0.0
O818 O 0.68817 0.09305 0.39131 0.0
O819 O 0.68303 0.1437 0.38253 0.0
C820 C 0.61955 0.27778 0.4068 0.0
C821 C 0.65513 0.29246 0.42898 0.0
H822 H 0.7098 0.30029 0.46336 0.0
H823 H 0.73921 0.26172 0.47237 0.0
H824 H 0.56452 0.12483 0.35601 0.0
H825 H 0.56125 0.22176 0.36593 0.0
H826 H 0.60275 0.29191 0.40019 0.0
H827 H 0.63638 0.2888 0.41786 0.0
Mn828 Mn 0.98256 0.63785 0.42958 0.0
Mn829 Mn 0.91538 0.56817 0.39867 0.0
C830 C 0.98579 0.58311 0.4216 0.0
C831 C 0.00395 0.66447 0.4634 0.0
C832 C 0.9785 0.64402 0.38169 0.0
O833 O 0.93918 0.65033 0.42931 0.0
O834 O 0.89461 0.59716 0.41298 0.0
C835 C 0.868 0.52631 0.43494 0.0
N836 N 0.88626 0.52484 0.41721 0.0
C837 C 0.84064 0.45321 0.4134 0.0
C838 C 0.82566 0.45813 0.43386 0.0
C839 C 0.83985 0.49315 0.44418 0.0
C840 C 0.88158 0.49123 0.41027 0.0
H841 H 0.87496 0.55319 0.44213 0.0
C842 C 0.90515 0.62836 0.42282 0.0
O843 O 0.01622 0.6849 0.44624 0.0
O844 O 0.97763 0.62924 0.46099 0.0
N845 N 0.92898 0.53717 0.38103 0.0
C846 C 0.93627 0.54822 0.3558 0.0
C847 C 0.92028 0.51578 0.33395 0.0
C848 C 0.89408 0.46576 0.33593 0.0
C849 C 0.88084 0.44351 0.36106 0.0
C850 C 0.90657 0.49511 0.39079 0.0
H851 H 0.94927 0.57762 0.3512 0.0
O852 O 0.01567 0.61353 0.42849 0.0
O853 O 0.95582 0.58597 0.41956 0.0
O854 O 0.99689 0.65694 0.39902 0.0
O855 O 0.9465 0.61297 0.3802 0.0
C856 C 0.84137 0.40654 0.36352 0.0
C857 C 0.81644 0.4021 0.38396 0.0
H858 H 0.80133 0.43604 0.44224 0.0
H859 H 0.8265 0.49495 0.45877 0.0
H860 H 0.92584 0.52784 0.31812 0.0
H861 H 0.88276 0.44893 0.32162 0.0
H862 H 0.82933 0.38666 0.35042 0.0
H863 H 0.78959 0.37495 0.3825 0.0
Mn864 Mn 0.3554 0.95292 0.76589 0.0
Mn865 Mn 0.34806 0.87856 0.73721 0.0
C866 C 0.29693 0.89852 0.76147 0.0
C867 C 0.36286 0.9864 0.79745 0.0
C868 C 0.35027 0.94686 0.71666 0.0
O869 O 0.41067 0.96597 0.76458 0.0
O870 O 0.40207 0.91882 0.74241 0.0
C871 C 0.38721 0.85531 0.77024 0.0
N872 N 0.35695 0.8458 0.7571 0.0
C873 C 0.34899 0.77581 0.75659 0.0
C874 C 0.38001 0.79003 0.77023 0.0
C875 C 0.39777 0.82838 0.77715 0.0
C876 C 0.33593 0.80988 0.7513 0.0
H877 H 0.40459 0.88437 0.77536 0.0
C878 C 0.42347 0.94862 0.7534 0.0
O879 O 0.37007 0.00319 0.77906 0.0
O880 O 0.35467 0.95112 0.79756 0.0
N881 N 0.29698 0.83522 0.72907 0.0
C882 C 0.26862 0.83629 0.71454 0.0
C883 C 0.2391 0.80185 0.69959 0.0
C884 C 0.23994 0.73852 0.69903 0.0
C885 C 0.27108 0.74045 0.71558 0.0
C886 C 0.30224 0.8033 0.73375 0.0
H887 H 0.26982 0.8631 0.71229 0.0
O888 O 0.29964 0.93062 0.76678 0.0
O889 O 0.32886 0.8982 0.75981 0.0
O890 O 0.35708 0.96606 0.73391 0.0
O891 O 0.34263 0.91212 0.7161 0.0
C892 C 0.28918 0.71052 0.72424 0.0
C893 C 0.32819 0.72881 0.74449 0.0
H894 H 0.39121 0.77201 0.77517 0.0
H895 H 0.42214 0.83838 0.78759 0.0
H896 H 0.22168 0.81075 0.69059 0.0
H897 H 0.22354 0.71192 0.69014 0.0
H898 H 0.27345 0.68119 0.71537 0.0
H899 H 0.30784 0.71527 0.73389 0.0
Mn900 Mn 0.08711 0.41675 0.75999 0.0
Mn901 Mn 0.15962 0.48875 0.73347 0.0
C902 C 0.14285 0.4148 0.75284 0.0
C903 C 0.05794 0.39094 0.79261 0.0
C904 C 0.08638 0.42861 0.71234 0.0
O905 O 0.07446 0.45996 0.7619 0.0
O906 O 0.12925 0.50752 0.7487 0.0
C907 C 0.19772 0.5298 0.77222 0.0
N908 N 0.20082 0.51419 0.75381 0.0
C909 C 0.27309 0.55799 0.75343 0.0
C910 C 0.26605 0.57 0.77434 0.0
C911 C 0.22991 0.55534 0.78332 0.0
C912 C 0.23477 0.51862 0.74781 0.0
H913 H 0.17028 0.52245 0.77865 0.0
C914 C 0.09712 0.49516 0.75791 0.0
O915 O 0.03871 0.38058 0.77495 0.0
O916 O 0.09322 0.41749 0.79135 0.0
N917 N 0.19213 0.47728 0.71579 0.0
C918 C 0.18454 0.47429 0.69015 0.0
C919 C 0.21992 0.4924 0.66978 0.0
C920 C 0.26954 0.51645 0.67395 0.0
C921 C 0.28825 0.52497 0.70001 0.0
C922 C 0.23269 0.49654 0.72736 0.0
H923 H 0.15591 0.46299 0.6844 0.0
O924 O 0.11164 0.38391 0.75773 0.0
O925 O 0.13988 0.44489 0.75195 0.0
O926 O 0.07142 0.40742 0.72861 0.0
O927 O 0.11702 0.46114 0.71294 0.0
C928 C 0.32561 0.56317 0.70484 0.0
C929 C 0.3281 0.58517 0.72625 0.0
H930 H 0.28737 0.59237 0.78419 0.0
H931 H 0.22667 0.56639 0.79842 0.0
H932 H 0.21013 0.48937 0.65349 0.0
H933 H 0.28846 0.52936 0.66053 0.0
H934 H 0.34736 0.57655 0.69275 0.0
H935 H 0.35587 0.61153 0.72653 0.0
Mn936 Mn 0.63301 0.70562 0.76142 0.0
Mn937 Mn 0.56636 0.71174 0.73183 0.0
C938 C 0.63752 0.76417 0.7558 0.0
C939 C 0.65558 0.69743 0.79409 0.0
C940 C 0.63266 0.70845 0.71205 0.0
O941 O 0.59074 0.65047 0.76064 0.0
O942 O 0.55113 0.65781 0.73884 0.0
C943 C 0.50464 0.67761 0.76563 0.0
N944 N 0.52515 0.70552 0.75118 0.0
C945 C 0.46313 0.71305 0.74815 0.0
C946 C 0.44684 0.68508 0.7635 0.0
C947 C 0.46751 0.6687 0.77234 0.0
C948 C 0.5102 0.7254 0.74366 0.0
H949 H 0.51653 0.66137 0.77216 0.0
C950 C 0.55973 0.63718 0.75037 0.0
O951 O 0.66743 0.69089 0.77619 0.0
O952 O 0.62936 0.70673 0.79299 0.0
N953 N 0.57529 0.7624 0.72203 0.0
C954 C 0.60546 0.78961 0.7074 0.0
C955 C 0.60147 0.81831 0.69133 0.0
C956 C 0.53766 0.81802 0.68896 0.0
C957 C 0.50753 0.78799 0.70564 0.0
C958 C 0.53802 0.75765 0.72576 0.0
H959 H 0.63112 0.78811 0.70605 0.0
O960 O 0.66656 0.7615 0.7619 0.0
O961 O 0.60534 0.7322 0.75424 0.0
O962 O 0.64574 0.70301 0.72949 0.0
O963 O 0.60475 0.71474 0.71123 0.0
C964 C 0.45914 0.77071 0.71357 0.0
C965 C 0.43747 0.7331 0.73459 0.0
H966 H 0.41845 0.67647 0.76872 0.0
H967 H 0.45385 0.6471 0.7844 0.0
H968 H 0.62821 0.83502 0.68251 0.0
H969 H 0.52814 0.83414 0.6793 0.0
H970 H 0.44591 0.78595 0.70385 0.0
H971 H 0.44476 0.75271 0.72347 0.0
Mn972 Mn 0.62602 0.68481 0.57765 0.0
Mn973 Mn 0.55219 0.67584 0.6076 0.0
C974 C 0.5729 0.6261 0.5841 0.0
C975 C 0.65239 0.69007 0.5435 0.0
C976 C 0.62855 0.69137 0.62603 0.0
O977 O 0.63579 0.73928 0.57877 0.0
O978 O 0.58203 0.72851 0.59589 0.0
C979 C 0.51061 0.69502 0.57405 0.0
N980 N 0.50858 0.66793 0.5879 0.0
C981 C 0.43305 0.65447 0.59255 0.0
C982 C 0.44259 0.68235 0.57755 0.0
C983 C 0.47917 0.69983 0.56801 0.0
C984 C 0.47385 0.64059 0.59356 0.0
H985 H 0.53786 0.71504 0.56728 0.0
C986 C 0.61346 0.75035 0.58618 0.0
O987 O 0.67335 0.69854 0.56051 0.0
O988 O 0.61753 0.68192 0.54632 0.0
N989 N 0.52387 0.62519 0.62296 0.0
C990 C 0.53696 0.62263 0.64823 0.0
C991 C 0.50575 0.60855 0.67277 0.0
C992 C 0.45397 0.59306 0.67291 0.0
C993 C 0.42803 0.59051 0.64833 0.0
C994 C 0.48185 0.61151 0.61416 0.0
H995 H 0.56661 0.6334 0.65138 0.0
O996 O 0.60454 0.62824 0.57823 0.0
O997 O 0.57329 0.65786 0.58602 0.0
O998 O 0.64447 0.68979 0.60874 0.0
O999 O 0.59537 0.68775 0.62689 0.0
C1000 C 0.39369 0.61315 0.64399 0.0
C1001 C 0.3944 0.64472 0.6172 0.0
H1002 H 0.42303 0.69241 0.57421 0.0
H1003 H 0.48511 0.72172 0.55638 0.0
H1004 H 0.51933 0.61162 0.68796 0.0
H1005 H 0.44008 0.59001 0.6881 0.0
H1006 H 0.37616 0.61191 0.65731 0.0
H1007 H 0.37657 0.65754 0.61674 0.0
Mn1008 Mn 0.37462 0.97774 0.58228 0.0
Mn1009 Mn 0.37699 0.90688 0.60949 0.0
C1010 C 0.43233 0.97956 0.58809 0.0
C1011 C 0.36835 0.00048 0.54878 0.0
C1012 C 0.36366 0.96743 0.63027 0.0
O1013 O 0.31902 0.93487 0.58237 0.0
O1014 O 0.32718 0.88749 0.59522 0.0
C1015 C 0.37068 0.86043 0.5724 0.0
N1016 N 0.39147 0.8792 0.58971 0.0
C1017 C 0.41948 0.83464 0.59186 0.0
C1018 C 0.39837 0.81953 0.5718 0.0
C1019 C 0.376 0.83288 0.56251 0.0
C1020 C 0.42101 0.87486 0.59588 0.0
H1021 H 0.34972 0.86659 0.56597 0.0
C1022 C 0.30679 0.89995 0.5869 0.0
O1023 O 0.36136 0.01278 0.5664 0.0
O1024 O 0.37731 0.97421 0.55067 0.0
N1025 N 0.4223 0.92034 0.62633 0.0
C1026 C 0.42006 0.92682 0.65186 0.0
C1027 C 0.43939 0.91169 0.67259 0.0
C1028 C 0.46478 0.88731 0.669 0.0
C1029 C 0.47257 0.87525 0.64322 0.0
C1030 C 0.4427 0.89964 0.61524 0.0
H1031 H 0.4027 0.93813 0.65744 0.0
O1032 O 0.43191 0.01027 0.58285 0.0
O1033 O 0.3994 0.94969 0.59015 0.0
O1034 O 0.37025 0.98893 0.61401 0.0
O1035 O 0.36247 0.93526 0.62963 0.0
C1036 C 0.47145 0.83657 0.63993 0.0
C1037 C 0.45003 0.8116 0.61973 0.0
H1038 H 0.3964 0.79569 0.56296 0.0
H1039 H 0.36001 0.81934 0.5482 0.0
H1040 H 0.43359 0.91633 0.68879 0.0
H1041 H 0.47205 0.87626 0.68277 0.0
H1042 H 0.48077 0.82485 0.65244 0.0
H1043 H 0.45147 0.78527 0.62057 0.0
Mn1044 Mn 0.08643 0.43276 0.57776 0.0
Mn1045 Mn 0.15551 0.50493 0.60767 0.0
C1046 C 0.08188 0.48714 0.58159 0.0
C1047 C 0.06579 0.4036 0.54432 0.0
C1048 C 0.09153 0.43049 0.6256 0.0
O1049 O 0.129 0.41984 0.58005 0.0
O1050 O 0.17565 0.47642 0.59178 0.0
C1051 C 0.2024 0.54919 0.57176 0.0
N1052 N 0.18506 0.54965 0.59008 0.0
C1053 C 0.23242 0.62146 0.59522 0.0
C1054 C 0.2463 0.61722 0.57424 0.0
C1055 C 0.23101 0.58279 0.5631 0.0
C1056 C 0.19191 0.58308 0.59873 0.0
H1057 H 0.19437 0.52273 0.56367 0.0
C1058 C 0.16379 0.44311 0.5843 0.0
O1059 O 0.0533 0.38439 0.56189 0.0
O1060 O 0.09251 0.4388 0.54616 0.0
N1061 N 0.14574 0.53631 0.62775 0.0
C1062 C 0.14002 0.52433 0.65288 0.0
C1063 C 0.15693 0.55596 0.67519 0.0
C1064 C 0.18297 0.6062 0.67377 0.0
C1065 C 0.19489 0.62937 0.64879 0.0
C1066 C 0.16795 0.57868 0.61866 0.0
H1067 H 0.12781 0.49482 0.65703 0.0
O1068 O 0.05271 0.45509 0.57608 0.0
O1069 O 0.11261 0.48607 0.5866 0.0
O1070 O 0.07154 0.4172 0.60876 0.0
O1071 O 0.12501 0.45979 0.62603 0.0
C1072 C 0.23397 0.66663 0.64605 0.0
C1073 C 0.25779 0.67183 0.62503 0.0
H1074 H 0.27041 0.63954 0.56583 0.0
H1075 H 0.24361 0.58174 0.54806 0.0
H1076 H 0.15199 0.54327 0.69085 0.0
H1077 H 0.19492 0.62255 0.68817 0.0
H1078 H 0.24662 0.68619 0.65924 0.0
H1079 H 0.28453 0.69913 0.62633 0.0
Mn1080 Mn 0.37052 0.43326 0.58046 0.0
Mn1081 Mn 0.37503 0.51006 0.60509 0.0
C1082 C 0.42923 0.48756 0.58653 0.0
C1083 C 0.36805 0.40478 0.5469 0.0
C1084 C 0.36465 0.44009 0.62931 0.0
O1085 O 0.31481 0.41967 0.57953 0.0
O1086 O 0.32348 0.47361 0.59438 0.0
C1087 C 0.35107 0.54348 0.57687 0.0
N1088 N 0.38377 0.54617 0.5834 0.0
C1089 C 0.40523 0.59612 0.61034 0.0
C1090 C 0.35685 0.57659 0.60904 0.0
C1091 C 0.33427 0.55543 0.59168 0.0
C1092 C 0.40946 0.58155 0.59085 0.0
H1093 H 0.33399 0.5233 0.56465 0.0
C1094 C 0.30245 0.44148 0.58559 0.0
O1095 O 0.36019 0.38523 0.56446 0.0
O1096 O 0.37391 0.43887 0.549 0.0
N1097 N 0.42046 0.55007 0.61696 0.0
C1098 C 0.44405 0.54414 0.63006 0.0
C1099 C 0.47398 0.57483 0.64239 0.0
C1100 C 0.48827 0.63645 0.64642 0.0
C1101 C 0.45898 0.64344 0.63045 0.0
C1102 C 0.41976 0.58733 0.61272 0.0
H1103 H 0.43993 0.51579 0.63122 0.0
O1104 O 0.42684 0.4555 0.58172 0.0
O1105 O 0.39728 0.48744 0.58697 0.0
O1106 O 0.36525 0.42087 0.61302 0.0
O1107 O 0.36796 0.47334 0.62818 0.0
C1108 C 0.46519 0.68433 0.63218 0.0
C1109 C 0.45008 0.64938 0.62589 0.0
H1110 H 0.3397 0.58068 0.62091 0.0
H1111 H 0.30444 0.54702 0.5906 0.0
H1112 H 0.4874 0.55944 0.64934 0.0
H1113 H 0.50924 0.66134 0.65558 0.0
H1114 H 0.49027 0.701 0.64382 0.0
H1115 H 0.45249 0.68716 0.62382 0.0
Mn1116 Mn 0.62164 0.96436 0.5696 0.0
Mn1117 Mn 0.5506 0.8993 0.60072 0.0
C1118 C 0.56733 0.96844 0.57553 0.0
C1119 C 0.64837 0.98399 0.53548 0.0
C1120 C 0.62028 0.9678 0.61903 0.0
O1121 O 0.63651 0.92345 0.57183 0.0
O1122 O 0.58969 0.88497 0.59402 0.0
C1123 C 0.52416 0.83753 0.56697 0.0
N1124 N 0.51609 0.85758 0.58148 0.0
C1125 C 0.44648 0.79565 0.5836 0.0
C1126 C 0.45878 0.77982 0.56808 0.0
C1127 C 0.49623 0.80069 0.55975 0.0
C1128 C 0.48091 0.8427 0.58847 0.0
H1129 H 0.55263 0.84957 0.56075 0.0
C1130 C 0.61917 0.89325 0.58287 0.0
O1131 O 0.66857 0.99897 0.55256 0.0
O1132 O 0.61423 0.95593 0.5384 0.0
N1133 N 0.50836 0.90729 0.61066 0.0
C1134 C 0.51102 0.93688 0.62569 0.0
C1135 C 0.47834 0.932 0.64211 0.0
C1136 C 0.41522 0.86777 0.64419 0.0
C1137 C 0.41539 0.83834 0.62703 0.0
C1138 C 0.47613 0.8699 0.60676 0.0
H1139 H 0.53793 0.96275 0.62703 0.0
O1140 O 0.59815 0.99695 0.5682 0.0
O1141 O 0.56792 0.93684 0.57784 0.0
O1142 O 0.63801 0.98032 0.60122 0.0
O1143 O 0.58643 0.93921 0.62058 0.0
C1144 C 0.38462 0.79012 0.6187 0.0
C1145 C 0.40084 0.76935 0.59721 0.0
H1146 H 0.43962 0.75154 0.56224 0.0
H1147 H 0.50469 0.78722 0.54773 0.0
H1148 H 0.48816 0.95842 0.65124 0.0
H1149 H 0.38966 0.85763 0.65407 0.0
H1150 H 0.35615 0.77637 0.62848 0.0
H1151 H 0.38841 0.77616 0.60855 0.0
Mn1152 Mn 0.0972 0.69089 0.57904 0.0
Mn1153 Mn 0.16692 0.68645 0.60702 0.0
C1154 C 0.09188 0.63238 0.58285 0.0
C1155 C 0.07104 0.6967 0.54701 0.0
C1156 C 0.10097 0.68881 0.62804 0.0
O1157 O 0.13935 0.74542 0.57794 0.0
O1158 O 0.17949 0.73934 0.59982 0.0
C1159 C 0.22962 0.72369 0.57366 0.0
N1160 N 0.20954 0.69489 0.58779 0.0
C1161 C 0.2725 0.68799 0.58908 0.0
C1162 C 0.28857 0.71776 0.57459 0.0
C1163 C 0.2673 0.73436 0.56692 0.0
C1164 C 0.22583 0.67588 0.59505 0.0
H1165 H 0.21719 0.73975 0.56754 0.0
C1166 C 0.17029 0.75927 0.58817 0.0
O1167 O 0.06124 0.70483 0.56515 0.0
O1168 O 0.09715 0.68729 0.54749 0.0
N1169 N 0.16205 0.6379 0.61763 0.0
C1170 C 0.13324 0.61077 0.63275 0.0
C1171 C 0.13722 0.57998 0.64697 0.0
C1172 C 0.20003 0.57817 0.64639 0.0
C1173 C 0.22977 0.60963 0.62995 0.0
C1174 C 0.199 0.64261 0.61274 0.0
H1175 H 0.10846 0.61331 0.63558 0.0
O1176 O 0.06254 0.63652 0.58056 0.0
O1177 O 0.1257 0.66362 0.58439 0.0
O1178 O 0.08785 0.69562 0.61111 0.0
O1179 O 0.12834 0.68172 0.62802 0.0
C1180 C 0.27749 0.62687 0.62066 0.0
C1181 C 0.29834 0.66618 0.60051 0.0
H1182 H 0.31751 0.72846 0.56921 0.0
H1183 H 0.2811 0.75761 0.55571 0.0
H1184 H 0.11101 0.56315 0.65622 0.0
H1185 H 0.2095 0.56072 0.65476 0.0
H1186 H 0.2909 0.61044 0.62896 0.0
H1187 H 0.29145 0.6456 0.61098 0.0
Mn1188 Mn 0.09423 0.70582 0.76349 0.0
Mn1189 Mn 0.16577 0.70409 0.7362 0.0
C1190 C 0.15014 0.76221 0.75566 0.0
C1191 C 0.06624 0.70422 0.79706 0.0
C1192 C 0.09175 0.6902 0.71571 0.0
O1193 O 0.08105 0.65002 0.76541 0.0
O1194 O 0.13584 0.65564 0.75266 0.0
C1195 C 0.20964 0.70244 0.77271 0.0
N1196 N 0.20988 0.72111 0.75485 0.0
C1197 C 0.28227 0.74837 0.75042 0.0
C1198 C 0.27821 0.72957 0.77108 0.0
C1199 C 0.24347 0.70866 0.78172 0.0
C1200 C 0.24322 0.74963 0.74714 0.0
H1201 H 0.18321 0.68245 0.78019 0.0
C1202 C 0.10289 0.63641 0.76141 0.0
O1203 O 0.04662 0.69529 0.77952 0.0
O1204 O 0.10121 0.71214 0.79516 0.0
N1205 N 0.19624 0.7476 0.71757 0.0
C1206 C 0.18515 0.74275 0.6923 0.0
C1207 C 0.21757 0.75971 0.67047 0.0
C1208 C 0.26758 0.78523 0.67247 0.0
C1209 C 0.28986 0.79574 0.69761 0.0
C1210 C 0.23834 0.76918 0.72734 0.0
H1211 H 0.15602 0.72517 0.68764 0.0
O1212 O 0.11948 0.76286 0.76085 0.0
O1213 O 0.14679 0.72898 0.75497 0.0
O1214 O 0.07776 0.69862 0.73178 0.0
O1215 O 0.12166 0.68716 0.71673 0.0
C1216 C 0.32763 0.79488 0.70018 0.0
C1217 C 0.33306 0.77566 0.72077 0.0
H1218 H 0.3009 0.72846 0.77948 0.0
H1219 H 0.24243 0.6944 0.79649 0.0
H1220 H 0.20555 0.75269 0.65462 0.0
H1221 H 0.28456 0.79099 0.65819 0.0
H1222 H 0.34751 0.80292 0.68706 0.0
H1223 H 0.36069 0.77688 0.71933 0.0
Mn1224 Mn 0.34759 0.42749 0.76697 0.0
Mn1225 Mn 0.34079 0.49609 0.74009 0.0
C1226 C 0.28869 0.42323 0.76248 0.0
C1227 C 0.35647 0.40389 0.7995 0.0
C1228 C 0.34428 0.43194 0.71752 0.0
O1229 O 0.40324 0.4695 0.76537 0.0
O1230 O 0.39439 0.5108 0.74611 0.0
C1231 C 0.37255 0.55079 0.77751 0.0
N1232 N 0.34625 0.53376 0.76176 0.0
C1233 C 0.33844 0.59555 0.76302 0.0
C1234 C 0.36351 0.60762 0.78013 0.0
C1235 C 0.37928 0.5853 0.78735 0.0
C1236 C 0.32637 0.54959 0.75575 0.0
H1237 H 0.38874 0.53785 0.78285 0.0
C1238 C 0.41592 0.50107 0.75566 0.0
O1239 O 0.36236 0.39234 0.78128 0.0
O1240 O 0.3476 0.43038 0.79875 0.0
N1241 N 0.29056 0.48848 0.7308 0.0
C1242 C 0.26453 0.46109 0.71464 0.0
C1243 C 0.23741 0.46813 0.69892 0.0
C1244 C 0.23825 0.53228 0.70004 0.0
C1245 C 0.26708 0.55936 0.71827 0.0
C1246 C 0.29542 0.52514 0.7365 0.0
H1247 H 0.26597 0.43566 0.71187 0.0
O1248 O 0.29129 0.39388 0.76796 0.0
O1249 O 0.32073 0.45514 0.76105 0.0
O1250 O 0.34907 0.41679 0.73441 0.0
O1251 O 0.33838 0.4602 0.71785 0.0
C1252 C 0.28396 0.60621 0.72888 0.0
C1253 C 0.31977 0.62381 0.75102 0.0
H1254 H 0.37046 0.63381 0.78825 0.0
H1255 H 0.39884 0.59591 0.80065 0.0
H1256 H 0.22135 0.44304 0.6887 0.0
H1257 H 0.22313 0.54363 0.69094 0.0
H1258 H 0.26963 0.62114 0.71998 0.0
H1259 H 0.30119 0.61874 0.73954 0.0
Mn1260 Mn 0.64445 0.96572 0.75325 0.0
Mn1261 Mn 0.57545 0.89368 0.72455 0.0
C1262 C 0.64718 0.91038 0.74623 0.0
C1263 C 0.66616 0.99113 0.78777 0.0
C1264 C 0.63619 0.96862 0.7052 0.0
O1265 O 0.60119 0.97823 0.75328 0.0
O1266 O 0.5552 0.92339 0.73894 0.0
C1267 C 0.52862 0.8529 0.76124 0.0
N1268 N 0.54745 0.85119 0.74383 0.0
C1269 C 0.5027 0.77908 0.74072 0.0
C1270 C 0.48711 0.78454 0.76081 0.0
C1271 C 0.50061 0.81986 0.77066 0.0
C1272 C 0.54317 0.81754 0.7373 0.0
H1273 H 0.53497 0.87988 0.76805 0.0
C1274 C 0.56657 0.95558 0.74795 0.0
O1275 O 0.67954 0.0123 0.77088 0.0
O1276 O 0.6391 0.95669 0.7846 0.0
N1277 N 0.5898 0.8625 0.70755 0.0
C1278 C 0.59724 0.87213 0.68217 0.0
C1279 C 0.58245 0.83841 0.66098 0.0
C1280 C 0.55754 0.78853 0.66391 0.0
C1281 C 0.54452 0.76776 0.68941 0.0
C1282 C 0.56849 0.82105 0.71809 0.0
H1283 H 0.60941 0.90114 0.67699 0.0
O1284 O 0.67748 0.94134 0.752 0.0
O1285 O 0.61726 0.91332 0.74431 0.0
O1286 O 0.6567 0.9833 0.72187 0.0
O1287 O 0.60449 0.93718 0.70511 0.0
C1288 C 0.5056 0.73029 0.6922 0.0
C1289 C 0.4801 0.72636 0.71222 0.0
H1290 H 0.46283 0.76256 0.76929 0.0
H1291 H 0.48683 0.82193 0.785 0.0
H1292 H 0.58781 0.84945 0.64492 0.0
H1293 H 0.54685 0.77076 0.64988 0.0
H1294 H 0.49433 0.70926 0.67969 0.0
H1295 H 0.45371 0.69872 0.71104 0.0
C1296 C 0.13895 0.29293 0.10902 0.0
C1297 C 0.12517 0.29759 0.08922 0.0
C1298 C 0.18057 0.30203 0.07073 0.0
C1299 C 0.19322 0.29466 0.09031 0.0
N1300 N 0.18897 0.29025 0.12876 0.0
N1301 N 0.13554 0.31464 0.05222 0.0
C1302 C 0.17417 0.29302 0.10974 0.0
C1303 C 0.14726 0.30522 0.07044 0.0
N1304 N 0.11694 0.28587 0.12683 0.0
N1305 N 0.19951 0.30411 0.05227 0.0
H1306 H 0.11046 0.3157 0.05163 0.0
H1307 H 0.1514 0.32387 0.03824 0.0
H1308 H 0.22467 0.30314 0.05202 0.0
H1309 H 0.1899 0.30528 0.0371 0.0
H1310 H 0.12238 0.27737 0.1414 0.0
H1311 H 0.09196 0.28732 0.12679 0.0
H1312 H 0.17879 0.29281 0.14354 0.0
H1313 H 0.21301 0.28745 0.13 0.0
C1314 C 0.76176 0.90015 0.07037 0.0
C1315 C 0.76987 0.92392 0.08855 0.0
C1316 C 0.78184 0.87983 0.10958 0.0
C1317 C 0.77491 0.85705 0.0912 0.0
N1318 N 0.74745 0.8387 0.05623 0.0
N1319 N 0.77834 0.93158 0.12678 0.0
C1320 C 0.76106 0.86492 0.07232 0.0
C1321 C 0.7764 0.91192 0.10866 0.0
N1322 N 0.75652 0.91211 0.05099 0.0
N1323 N 0.79542 0.87177 0.12757 0.0
H1324 H 0.77597 0.95596 0.12684 0.0
H1325 H 0.77935 0.92213 0.14204 0.0
H1326 H 0.79786 0.84745 0.12895 0.0
H1327 H 0.80593 0.88988 0.14067 0.0
H1328 H 0.75535 0.89858 0.03666 0.0
H1329 H 0.75553 0.93707 0.0491 0.0
H1330 H 0.73378 0.84109 0.04278 0.0
H1331 H 0.74648 0.81259 0.05732 0.0
C1332 C 0.17506 0.86787 0.08273 0.0
C1333 C 0.14747 0.85972 0.09868 0.0
C1334 C 0.18733 0.92194 0.11497 0.0
C1335 C 0.2122 0.93201 0.09727 0.0
N1336 N 0.24007 0.90938 0.07129 0.0
N1337 N 0.13548 0.87073 0.13472 0.0
C1338 C 0.20954 0.90326 0.08334 0.0
C1339 C 0.15646 0.88407 0.11651 0.0
N1340 N 0.16772 0.84223 0.06682 0.0
N1341 N 0.19286 0.94869 0.12991 0.0
H1342 H 0.113 0.84277 0.13591 0.0
H1343 H 0.14214 0.88616 0.14887 0.0
H1344 H 0.2171 0.97566 0.12994 0.0
H1345 H 0.17319 0.94439 0.14181 0.0
H1346 H 0.18448 0.84828 0.05319 0.0
H1347 H 0.14408 0.81494 0.06742 0.0
H1348 H 0.24052 0.88846 0.06186 0.0
H1349 H 0.26633 0.93428 0.07253 0.0
C1350 C 0.30376 0.15325 0.9002 0.0
C1351 C 0.30157 0.13387 0.91952 0.0
C1352 C 0.30623 0.18735 0.94017 0.0
C1353 C 0.30654 0.20595 0.92093 0.0
N1354 N 0.31747 0.21258 0.88323 0.0
N1355 N 0.31142 0.13679 0.95744 0.0
C1356 C 0.30965 0.19097 0.90113 0.0
C1357 C 0.30666 0.15262 0.93934 0.0
N1358 N 0.29721 0.13478 0.8811 0.0
N1359 N 0.30322 0.20185 0.95927 0.0
H1360 H 0.31081 0.11084 0.95732 0.0
H1361 H 0.31906 0.1506 0.97212 0.0
H1362 H 0.30453 0.22804 0.96049 0.0
H1363 H 0.29749 0.18729 0.97367 0.0
H1364 H 0.29375 0.14575 0.86683 0.0
H1365 H 0.29258 0.10724 0.87955 0.0
H1366 H 0.32323 0.20486 0.86844 0.0
H1367 H 0.32223 0.24022 0.88389 0.0
C1368 C 0.9107 0.18087 0.93658 0.0
C1369 C 0.93014 0.1952 0.91697 0.0
C1370 C 0.87393 0.14662 0.89764 0.0
C1371 C 0.85754 0.12827 0.91731 0.0
N1372 N 0.85889 0.12909 0.95573 0.0
N1373 N 0.9316 0.19009 0.87869 0.0
C1374 C 0.87527 0.14626 0.93684 0.0
C1375 C 0.9118 0.17823 0.89742 0.0
N1376 N 0.92647 0.20035 0.95504 0.0
N1377 N 0.85389 0.13363 0.87909 0.0
H1378 H 0.95934 0.21278 0.87767 0.0
H1379 H 0.92178 0.17557 0.86432 0.0
H1380 H 0.82654 0.11035 0.87822 0.0
H1381 H 0.86284 0.14833 0.86473 0.0
H1382 H 0.91235 0.19418 0.96961 0.0
H1383 H 0.95323 0.22464 0.95551 0.0
H1384 H 0.87239 0.13723 0.97046 0.0
H1385 H 0.83186 0.10522 0.95655 0.0
C1386 C 0.85731 0.73455 0.92244 0.0
C1387 C 0.85231 0.75991 0.90916 0.0
C1388 C 0.91749 0.78488 0.89543 0.0
C1389 C 0.9251 0.76646 0.91232 0.0
N1390 N 0.90128 0.71916 0.94001 0.0
N1391 N 0.87329 0.80137 0.87892 0.0
C1392 C 0.89449 0.73935 0.92502 0.0
C1393 C 0.88119 0.78259 0.89428 0.0
N1394 N 0.82634 0.70531 0.93204 0.0
N1395 N 0.94467 0.80332 0.88017 0.0
H1396 H 0.84551 0.79557 0.8762 0.0
H1397 H 0.8935 0.82187 0.86886 0.0
H1398 H 0.97011 0.80274 0.88005 0.0
H1399 H 0.94117 0.81642 0.86684 0.0
H1400 H 0.82718 0.68384 0.94065 0.0
H1401 H 0.79889 0.70059 0.92969 0.0
H1402 H 0.88185 0.70287 0.95179 0.0
H1403 H 0.92711 0.71956 0.94091 0.0
C1404 C 0.82453 0.64076 0.4044 0.0
C1405 C 0.80224 0.63192 0.42327 0.0
C1406 C 0.85399 0.6317 0.44369 0.0
C1407 C 0.87543 0.63935 0.42468 0.0
N1408 N 0.88589 0.66011 0.38828 0.0
N1409 N 0.79912 0.62725 0.46183 0.0
C1410 C 0.86225 0.64722 0.40555 0.0
C1411 C 0.8183 0.63068 0.44328 0.0
N1412 N 0.80899 0.64119 0.38516 0.0
N1413 N 0.86641 0.62249 0.46173 0.0
H1414 H 0.77192 0.6237 0.46247 0.0
H1415 H 0.81125 0.63053 0.47685 0.0
H1416 H 0.89273 0.62383 0.46253 0.0
H1417 H 0.85002 0.61152 0.47543 0.0
H1418 H 0.82164 0.6423 0.37053 0.0
H1419 H 0.78212 0.63824 0.38369 0.0
H1420 H 0.87997 0.67004 0.37435 0.0
H1421 H 0.91311 0.66367 0.38871 0.0
C1422 C 0.45198 0.25688 0.45003 0.0
C1423 C 0.43234 0.26534 0.43423 0.0
C1424 C 0.40086 0.19892 0.4219 0.0
C1425 C 0.42458 0.19222 0.43558 0.0
N1426 N 0.46102 0.20856 0.46773 0.0
N1427 N 0.37671 0.24054 0.41171 0.0
C1428 C 0.44643 0.21937 0.45135 0.0
C1429 C 0.40293 0.23506 0.42231 0.0
N1430 N 0.4756 0.28477 0.4638 0.0
N1431 N 0.37773 0.17134 0.40784 0.0
H1432 H 0.37637 0.26598 0.41226 0.0
H1433 H 0.35291 0.21883 0.40415 0.0
H1434 H 0.37347 0.1438 0.40844 0.0
H1435 H 0.36376 0.17592 0.39528 0.0
H1436 H 0.49448 0.28244 0.47403 0.0
H1437 H 0.47585 0.31054 0.46495 0.0
H1438 H 0.47596 0.22594 0.48052 0.0
H1439 H 0.45486 0.18044 0.46934 0.0
C1440 C 0.84364 0.25154 0.4008 0.0
C1441 C 0.86643 0.26705 0.4193 0.0
C1442 C 0.81854 0.21134 0.43959 0.0
C1443 C 0.79658 0.19684 0.42081 0.0
N1444 N 0.79411 0.19697 0.3826 0.0
N1445 N 0.87947 0.25534 0.45544 0.0
C1446 C 0.81138 0.21485 0.40118 0.0
C1447 C 0.85546 0.24475 0.43839 0.0
N1448 N 0.85057 0.27297 0.38299 0.0
N1449 N 0.8032 0.19472 0.45873 0.0
H1450 H 0.90657 0.27896 0.45544 0.0
H1451 H 0.87407 0.2384 0.46889 0.0
H1452 H 0.77688 0.16984 0.45996 0.0
H1453 H 0.81539 0.20671 0.47336 0.0
H1454 H 0.82768 0.26986 0.37392 0.0
H1455 H 0.8774 0.29528 0.37882 0.0
H1456 H 0.80512 0.20831 0.36765 0.0
H1457 H 0.77085 0.16935 0.38225 0.0
C1458 C 0.96498 0.47871 0.27337 0.0
C1459 C 0.95968 0.46011 0.25339 0.0
C1460 C 0.96629 0.51675 0.2351 0.0
C1461 C 0.97108 0.53481 0.25515 0.0
N1462 N 0.98602 0.53796 0.29233 0.0
N1463 N 0.96233 0.46363 0.21497 0.0
C1464 C 0.97433 0.51736 0.27389 0.0
C1465 C 0.96317 0.48009 0.23413 0.0
N1466 N 0.95924 0.45898 0.29195 0.0
N1467 N 0.96212 0.53348 0.21722 0.0
H1468 H 0.95773 0.43605 0.21355 0.0
H1469 H 0.96862 0.4781 0.20052 0.0
H1470 H 0.96551 0.56071 0.21734 0.0
H1471 H 0.95364 0.51991 0.20251 0.0
H1472 H 0.95817 0.46968 0.30687 0.0
H1473 H 0.95294 0.43079 0.29248 0.0
H1474 H 0.99285 0.52849 0.30615 0.0
H1475 H 0.99213 0.5661 0.29308 0.0
C1476 C 0.58007 0.5135 0.27192 0.0
C1477 C 0.60074 0.52838 0.25262 0.0
C1478 C 0.54693 0.47837 0.23229 0.0
C1479 C 0.52741 0.46268 0.25174 0.0
N1480 N 0.51987 0.47051 0.28897 0.0
N1481 N 0.60172 0.52873 0.21406 0.0
C1482 C 0.54227 0.48226 0.27117 0.0
C1483 C 0.58317 0.51242 0.23267 0.0
N1484 N 0.59718 0.52815 0.29109 0.0
N1485 N 0.53227 0.45907 0.21364 0.0
H1486 H 0.62989 0.55053 0.21335 0.0
H1487 H 0.58872 0.52188 0.19917 0.0
H1488 H 0.50536 0.43504 0.21259 0.0
H1489 H 0.54716 0.46554 0.19932 0.0
H1490 H 0.58573 0.51556 0.30572 0.0
H1491 H 0.62416 0.55197 0.29241 0.0
H1492 H 0.52713 0.4852 0.30338 0.0
H1493 H 0.49213 0.44761 0.28862 0.0
C1494 C 0.54446 0.11262 0.22317 0.0
C1495 C 0.52105 0.09437 0.24109 0.0
C1496 C 0.56416 0.07123 0.2516 0.0
C1497 C 0.59152 0.09689 0.23693 0.0
N1498 N 0.6063 0.13701 0.2062 0.0
N1499 N 0.50714 0.05456 0.27204 0.0
C1500 C 0.58095 0.11569 0.22172 0.0
C1501 C 0.52998 0.07234 0.25492 0.0
N1502 N 0.53144 0.12674 0.20763 0.0
N1503 N 0.57084 0.04591 0.26231 0.0
H1504 H 0.48134 0.05374 0.27444 0.0
H1505 H 0.51459 0.04234 0.28433 0.0
H1506 H 0.59543 0.04427 0.26 0.0
H1507 H 0.55067 0.02432 0.27191 0.0
H1508 H 0.54569 0.13836 0.19339 0.0
H1509 H 0.50437 0.12373 0.20829 0.0
H1510 H 0.60267 0.15512 0.19599 0.0
H1511 H 0.63181 0.13702 0.2039 0.0
C1512 C 0.48418 0.96133 0.77212 0.0
C1513 C 0.46507 0.96195 0.75321 0.0
C1514 C 0.51887 0.96955 0.73157 0.0
C1515 C 0.5371 0.96694 0.75028 0.0
N1516 N 0.54238 0.96996 0.78847 0.0
N1517 N 0.46838 0.97677 0.7159 0.0
C1518 C 0.52164 0.96648 0.77063 0.0
C1519 C 0.484 0.96958 0.73328 0.0
N1520 N 0.46558 0.95297 0.79126 0.0
N1521 N 0.53391 0.96979 0.71201 0.0
H1522 H 0.4419 0.97491 0.71644 0.0
H1523 H 0.48262 0.9871 0.70149 0.0
H1524 H 0.56024 0.97153 0.71016 0.0
H1525 H 0.51964 0.9663 0.69768 0.0
H1526 H 0.4759 0.94726 0.8051 0.0
H1527 H 0.43846 0.94934 0.79321 0.0
H1528 H 0.53453 0.97343 0.80375 0.0
H1529 H 0.56933 0.97271 0.78782 0.0
C1530 C 0.06641 0.53376 0.74837 0.0
C1531 C 0.08652 0.52443 0.76337 0.0
C1532 C 0.10727 0.58517 0.78183 0.0
C1533 C 0.08945 0.59544 0.76583 0.0
N1534 N 0.03947 0.57364 0.7399 0.0
N1535 N 0.11604 0.53533 0.79775 0.0
C1536 C 0.06477 0.56769 0.75108 0.0
C1537 C 0.10359 0.54826 0.78132 0.0
N1538 N 0.05068 0.51129 0.7309 0.0
N1539 N 0.12809 0.61103 0.79723 0.0
H1540 H 0.11254 0.50803 0.79772 0.0
H1541 H 0.12664 0.54998 0.81201 0.0
H1542 H 0.12817 0.63669 0.79886 0.0
H1543 H 0.14549 0.60746 0.80803 0.0
H1544 H 0.03997 0.51905 0.71796 0.0
H1545 H 0.0505 0.48574 0.72897 0.0
H1546 H 0.01892 0.5534 0.72983 0.0
H1547 H 0.03611 0.59705 0.74292 0.0
C1548 C 0.47561 0.54886 0.7747 0.0
C1549 C 0.4574 0.5295 0.75559 0.0
C1550 C 0.51489 0.57293 0.73546 0.0
C1551 C 0.52948 0.5967 0.75351 0.0
N1552 N 0.52417 0.60735 0.79096 0.0
N1553 N 0.4592 0.52468 0.71725 0.0
C1554 C 0.5105 0.58423 0.77348 0.0
C1555 C 0.47713 0.54167 0.73585 0.0
N1556 N 0.45896 0.53432 0.79397 0.0
N1557 N 0.53752 0.58009 0.71801 0.0
H1558 H 0.43157 0.50171 0.71679 0.0
H1559 H 0.47069 0.53511 0.70225 0.0
H1560 H 0.56524 0.60298 0.71751 0.0
H1561 H 0.53016 0.56149 0.70512 0.0
H1562 H 0.47272 0.54451 0.8085 0.0
H1563 H 0.43226 0.51018 0.79551 0.0
H1564 H 0.50919 0.60236 0.80519 0.0
H1565 H 0.5495 0.63326 0.79089 0.0
C1566 C 0.6306 0.81298 0.60317 0.0
C1567 C 0.62444 0.79112 0.58433 0.0
C1568 C 0.62559 0.84247 0.56301 0.0
C1569 C 0.63063 0.86366 0.58202 0.0
N1570 N 0.64982 0.87477 0.61866 0.0
N1571 N 0.62425 0.78804 0.54591 0.0
C1572 C 0.63724 0.8507 0.60158 0.0
C1573 C 0.62515 0.80711 0.56409 0.0
N1574 N 0.62847 0.79717 0.62271 0.0
N1575 N 0.61835 0.85459 0.5442 0.0
H1576 H 0.62134 0.76104 0.54595 0.0
H1577 H 0.62909 0.80003 0.53077 0.0
H1578 H 0.61954 0.88067 0.54247 0.0
H1579 H 0.60905 0.83796 0.53048 0.0
H1580 H 0.62863 0.81016 0.63705 0.0
H1581 H 0.62415 0.76982 0.62468 0.0
H1582 H 0.65897 0.86879 0.63288 0.0
H1583 H 0.65439 0.90237 0.61775 0.0
C1584 C 0.21038 0.82411 0.60382 0.0
C1585 C 0.19893 0.8001 0.58566 0.0
C1586 C 0.25414 0.84831 0.56568 0.0
C1587 C 0.26611 0.87141 0.58413 0.0
N1588 N 0.25113 0.88715 0.61822 0.0
N1589 N 0.20463 0.79254 0.54779 0.0
C1590 C 0.24241 0.8612 0.60231 0.0
C1591 C 0.21879 0.81351 0.56598 0.0
N1592 N 0.19169 0.81083 0.62276 0.0
N1593 N 0.2778 0.85857 0.5484 0.0
H1594 H 0.18027 0.7658 0.5475 0.0
H1595 H 0.21565 0.80262 0.53268 0.0
H1596 H 0.30314 0.88457 0.54759 0.0
H1597 H 0.27341 0.84083 0.53542 0.0
H1598 H 0.20143 0.82511 0.63721 0.0
H1599 H 0.16732 0.78425 0.62425 0.0
H1600 H 0.23365 0.88311 0.63128 0.0
H1601 H 0.27446 0.91442 0.61693 0.0
C1602 C 0.24155 0.42639 0.60359 0.0
C1603 C 0.26136 0.42934 0.58432 0.0
C1604 C 0.21142 0.43261 0.56392 0.0
C1605 C 0.19236 0.43054 0.58327 0.0
N1606 N 0.18345 0.41574 0.62066 0.0
N1607 N 0.26166 0.42708 0.54596 0.0
C1608 C 0.20544 0.42382 0.60278 0.0
C1609 C 0.2448 0.4292 0.56437 0.0
N1610 N 0.25841 0.42855 0.62279 0.0
N1611 N 0.19897 0.4403 0.54539 0.0
H1612 H 0.28662 0.42565 0.54582 0.0
H1613 H 0.24947 0.42369 0.53096 0.0
H1614 H 0.17446 0.44251 0.54469 0.0
H1615 H 0.21377 0.44648 0.53104 0.0
H1616 H 0.24792 0.43174 0.63733 0.0
H1617 H 0.28455 0.42976 0.62411 0.0
H1618 H 0.18933 0.40679 0.63498 0.0
H1619 H 0.15734 0.4148 0.62058 0.0
C1620 C 0.97851 0.32588 0.15113 0.0
C1621 C 0.01647 0.34025 0.14448 0.0
C1622 C 0.03752 0.37447 0.17875 0.0
C1623 C 0.99936 0.35411 0.18655 0.0
N1624 N 0.93661 0.29898 0.18095 0.0
N1625 N 0.0832 0.37631 0.15272 0.0
C1626 C 0.97062 0.32665 0.17296 0.0
C1627 C 0.04645 0.36405 0.15853 0.0
N1628 N 0.94972 0.31178 0.13659 0.0
N1629 N 0.06482 0.40447 0.19002 0.0
H1630 H 0.0903 0.37008 0.13784 0.0
H1631 H 0.10609 0.39049 0.16311 0.0
H1632 H 0.05911 0.41395 0.20424 0.0
H1633 H 0.09218 0.42219 0.18418 0.0
H1634 H 0.92168 0.30336 0.14075 0.0
H1635 H 0.95477 0.31277 0.12025 0.0
H1636 H 0.91616 0.27724 0.17147 0.0
H1637 H 0.93125 0.29412 0.19721 0.0
C1638 C 0.73273 0.72919 0.1648 0.0
C1639 C 0.7247 0.70565 0.14654 0.0
C1640 C 0.69094 0.64968 0.16979 0.0
C1641 C 0.70613 0.673 0.18816 0.0
N1642 N 0.74695 0.73625 0.20243 0.0
N1643 N 0.69943 0.64198 0.13233 0.0
C1644 C 0.72805 0.7132 0.18556 0.0
C1645 C 0.70417 0.66542 0.14912 0.0
N1646 N 0.74466 0.76696 0.16232 0.0
N1647 N 0.66347 0.61243 0.17208 0.0
H1648 H 0.70947 0.65175 0.11704 0.0
H1649 H 0.68853 0.61281 0.13404 0.0
H1650 H 0.65225 0.60052 0.18691 0.0
H1651 H 0.64891 0.59486 0.15923 0.0
H1652 H 0.74772 0.78481 0.17505 0.0
H1653 H 0.74719 0.7793 0.14739 0.0
H1654 H 0.76661 0.76511 0.20072 0.0
H1655 H 0.74617 0.72633 0.2178 0.0
C1656 C 0.32734 0.01923 0.16371 0.0
C1657 C 0.35382 0.03699 0.14684 0.0
C1658 C 0.40555 0.05802 0.17292 0.0
C1659 C 0.37906 0.04825 0.1899 0.0
N1660 N 0.31337 0.02244 0.20082 0.0
N1661 N 0.41942 0.07668 0.13595 0.0
C1662 C 0.33948 0.02903 0.18522 0.0
C1663 C 0.39339 0.05682 0.1515 0.0
N1664 N 0.29051 0.99269 0.15915 0.0
N1665 N 0.44236 0.06809 0.17731 0.0
H1666 H 0.41212 0.07747 0.12015 0.0
H1667 H 0.44814 0.09506 0.13915 0.0
H1668 H 0.45147 0.0674 0.19276 0.0
H1669 H 0.46233 0.0726 0.16554 0.0
H1670 H 0.2707 0.9765 0.17083 0.0
H1671 H 0.28113 0.98379 0.1436 0.0
H1672 H 0.28474 0.01256 0.1976 0.0
H1673 H 0.32046 0.02987 0.21672 0.0
C1674 C 0.35911 0.00291 0.85639 0.0
C1675 C 0.34049 0.02482 0.85692 0.0
C1676 C 0.33916 0.02468 0.8179 0.0
C1677 C 0.35986 0.00482 0.81737 0.0
N1678 N 0.40019 0.98691 0.83625 0.0
N1679 N 0.32502 0.06703 0.83808 0.0
C1680 C 0.3735 0.99805 0.83669 0.0
C1681 C 0.33474 0.0393 0.83762 0.0
N1682 N 0.36052 0.98401 0.87405 0.0
N1683 N 0.32089 0.02708 0.8002 0.0
H1684 H 0.32281 0.07924 0.85228 0.0
H1685 H 0.32359 0.08079 0.8244 0.0
H1686 H 0.32051 0.01469 0.78562 0.0
H1687 H 0.30239 0.03791 0.80067 0.0
H1688 H 0.37037 0.9647 0.87357 0.0
H1689 H 0.34824 0.98401 0.88861 0.0
H1690 H 0.41342 0.98469 0.84997 0.0
H1691 H 0.41216 0.98423 0.82208 0.0
C1692 C 0.05088 0.39601 0.83178 0.0
C1693 C 0.0419 0.37253 0.81349 0.0
C1694 C 0.01288 0.31652 0.83669 0.0
C1695 C 0.0298 0.34018 0.8547 0.0
N1696 N 0.06978 0.40387 0.86869 0.0
N1697 N 0.01768 0.30918 0.79885 0.0
C1698 C 0.04961 0.38039 0.85221 0.0
C1699 C 0.02319 0.33234 0.81592 0.0
N1700 N 0.06065 0.4333 0.82962 0.0
N1701 N 0.98675 0.27893 0.83944 0.0
H1702 H 0.02581 0.31904 0.78336 0.0
H1703 H 0.00812 0.28022 0.80042 0.0
H1704 H 0.97761 0.26693 0.8545 0.0
H1705 H 0.97112 0.26104 0.82691 0.0
H1706 H 0.0644 0.45094 0.84259 0.0
H1707 H 0.06065 0.44519 0.81489 0.0
H1708 H 0.08794 0.43302 0.86679 0.0
H1709 H 0.07158 0.39421 0.88375 0.0
C1710 C 0.64746 0.67876 0.83255 0.0
C1711 C 0.67228 0.69674 0.81509 0.0
C1712 C 0.7265 0.71992 0.8395 0.0
C1713 C 0.70139 0.7096 0.85716 0.0
N1714 N 0.63658 0.68211 0.87011 0.0
N1715 N 0.73653 0.73881 0.80255 0.0
C1716 C 0.66141 0.6892 0.85369 0.0
C1717 C 0.71222 0.718 0.8186 0.0
N1718 N 0.61058 0.65143 0.8289 0.0
N1719 N 0.76405 0.73156 0.84272 0.0
H1720 H 0.72773 0.7398 0.78712 0.0
H1721 H 0.76529 0.75805 0.80508 0.0
H1722 H 0.77512 0.7322 0.85783 0.0
H1723 H 0.78301 0.73635 0.8303 0.0
H1724 H 0.59198 0.63508 0.84101 0.0
H1725 H 0.60016 0.64214 0.81357 0.0
H1726 H 0.60753 0.67124 0.86779 0.0
H1727 H 0.645 0.69008 0.88581 0.0
C1728 C 0.05492 0.70464 0.85749 0.0
C1729 C 0.0337 0.72373 0.86002 0.0
C1730 C 0.0317 0.72852 0.8209 0.0
C1731 C 0.05083 0.70736 0.81837 0.0
N1732 N 0.07017 0.66588 0.83458 0.0
N1733 N 0.99259 0.74346 0.84373 0.0
C1734 C 0.05902 0.69239 0.83679 0.0
C1735 C 0.01909 0.73227 0.84157 0.0
N1736 N 0.07354 0.70039 0.87445 0.0
N1737 N 0.02772 0.74738 0.80398 0.0
H1738 H 0.98174 0.74525 0.85851 0.0
H1739 H 0.97835 0.74671 0.83082 0.0
H1740 H 0.03778 0.74712 0.78875 0.0
H1741 H 0.0178 0.76652 0.80556 0.0
H1742 H 0.09272 0.69053 0.87287 0.0
H1743 H 0.07303 0.71014 0.88973 0.0
H1744 H 0.07311 0.65137 0.84746 0.0
H1745 H 0.07222 0.65527 0.81977 0.0
C1746 C 0.37443 0.40989 0.83833 0.0
C1747 C 0.35665 0.38615 0.82041 0.0
C1748 C 0.3339 0.33056 0.84384 0.0
C1749 C 0.34478 0.35435 0.86219 0.0
N1750 N 0.37115 0.41837 0.87623 0.0
N1751 N 0.31365 0.32278 0.80713 0.0
C1752 C 0.36441 0.39456 0.85932 0.0
C1753 C 0.33518 0.34611 0.82334 0.0
N1754 N 0.4013 0.44715 0.8353 0.0
N1755 N 0.32264 0.29293 0.84592 0.0
H1756 H 0.31202 0.33249 0.79205 0.0
H1757 H 0.29425 0.29396 0.80931 0.0
H1758 H 0.32259 0.28096 0.86055 0.0
H1759 H 0.31778 0.27499 0.83294 0.0
H1760 H 0.41771 0.465 0.84765 0.0
H1761 H 0.41016 0.4588 0.82015 0.0
H1762 H 0.38148 0.44745 0.87444 0.0
H1763 H 0.36307 0.40906 0.89179 0.0
C1764 C 0.70248 0.98094 0.84154 0.0
C1765 C 0.71235 0.01572 0.85201 0.0
C1766 C 0.6898 0.03508 0.82044 0.0
C1767 C 0.68461 0.00222 0.80929 0.0
N1768 N 0.69724 0.94998 0.80796 0.0
N1769 N 0.71964 0.07833 0.85035 0.0
C1770 C 0.69425 0.97699 0.81949 0.0
C1771 C 0.70708 0.04353 0.84119 0.0
N1772 N 0.69939 0.95074 0.85281 0.0
N1773 N 0.67717 0.05744 0.81158 0.0
H1774 H 0.73206 0.08517 0.86543 0.0
H1775 H 0.72025 0.10113 0.84241 0.0
H1776 H 0.66457 0.05204 0.79656 0.0
H1777 H 0.67657 0.0795 0.81976 0.0
H1778 H 0.6887 0.92367 0.84625 0.0
H1779 H 0.70282 0.95138 0.86925 0.0
H1780 H 0.70778 0.93338 0.81435 0.0
H1781 H 0.69383 0.94736 0.7915 0.0
C1782 C 0.70186 0.00668 0.16035 0.0
C1783 C 0.72085 0.03408 0.14414 0.0
C1784 C 0.72982 0.08419 0.1687 0.0
C1785 C 0.70643 0.05715 0.18441 0.0
N1786 N 0.66247 0.9906 0.19206 0.0
N1787 N 0.73806 0.09632 0.131 0.0
C1788 C 0.69012 0.01762 0.17942 0.0
C1789 C 0.72956 0.07185 0.14765 0.0
N1790 N 0.69515 0.97049 0.15764 0.0
N1791 N 0.75529 0.12104 0.17393 0.0
H1792 H 0.73697 0.08775 0.1152 0.0
H1793 H 0.7423 0.12372 0.13298 0.0
H1794 H 0.76245 0.13041 0.18961 0.0
H1795 H 0.77389 0.14053 0.16277 0.0
H1796 H 0.6849 0.9503 0.16979 0.0
H1797 H 0.70213 0.96162 0.14355 0.0
H1798 H 0.64792 0.9618 0.18811 0.0
H1799 H 0.65092 0.99717 0.20511 0.0
C1800 C 0.05851 0.7076 0.16603 0.0
C1801 C 0.03048 0.70546 0.1518 0.0
C1802 C 0.98238 0.67751 0.17952 0.0
C1803 C 0.00905 0.67578 0.19346 0.0
N1804 N 0.07107 0.68172 0.19782 0.0
N1805 N 0.96399 0.675 0.14287 0.0
C1806 C 0.04686 0.68866 0.18613 0.0
C1807 C 0.99182 0.68582 0.15786 0.0
N1808 N 0.09603 0.72817 0.16055 0.0
N1809 N 0.94922 0.67426 0.18704 0.0
H1810 H 0.97021 0.67789 0.12665 0.0
H1811 H 0.93511 0.65849 0.14649 0.0
H1812 H 0.94282 0.67314 0.2032 0.0
H1813 H 0.93061 0.67824 0.17737 0.0
H1814 H 0.11803 0.73417 0.17118 0.0
H1815 H 0.10494 0.74097 0.14563 0.0
H1816 H 0.09778 0.68781 0.19234 0.0
H1817 H 0.06299 0.66634 0.21201 0.0
C1818 C 0.37883 0.35899 0.15543 0.0
C1819 C 0.3384 0.33841 0.15386 0.0
C1820 C 0.33376 0.33693 0.19293 0.0
C1821 C 0.37411 0.35854 0.19437 0.0
N1822 N 0.43325 0.40121 0.17699 0.0
N1823 N 0.27832 0.31953 0.171 0.0
C1824 C 0.39594 0.37344 0.17557 0.0
C1825 C 0.31619 0.33133 0.1726 0.0
N1826 N 0.4012 0.36214 0.13836 0.0
N1827 N 0.31212 0.31936 0.21048 0.0
H1828 H 0.265 0.31658 0.15635 0.0
H1829 H 0.26142 0.31701 0.18412 0.0
H1830 H 0.32331 0.32177 0.22567 0.0
H1831 H 0.28312 0.2997 0.20959 0.0
H1832 H 0.43052 0.37342 0.1396 0.0
H1833 H 0.39064 0.35 0.12353 0.0
H1834 H 0.44974 0.41537 0.16372 0.0
H1835 H 0.44617 0.41298 0.19157 0.0
C1836 C 0.63983 0.64735 0.51204 0.0
C1837 C 0.66447 0.6823 0.52241 0.0
C1838 C 0.70978 0.69901 0.4925 0.0
C1839 C 0.68292 0.66575 0.48143 0.0
N1840 N 0.61755 0.61523 0.47849 0.0
N1841 N 0.72071 0.74435 0.52091 0.0
C1842 C 0.6465 0.64217 0.49055 0.0
C1843 C 0.69896 0.70907 0.5122 0.0
N1844 N 0.61103 0.61785 0.52295 0.0
N1845 N 0.74585 0.72016 0.48469 0.0
H1846 H 0.71341 0.7526 0.53509 0.0
H1847 H 0.74414 0.76631 0.51322 0.0
H1848 H 0.75443 0.71365 0.47037 0.0
H1849 H 0.76784 0.74238 0.49311 0.0
H1850 H 0.59487 0.59066 0.5165 0.0
H1851 H 0.60631 0.61883 0.53916 0.0
H1852 H 0.5895 0.59986 0.48387 0.0
H1853 H 0.62058 0.61161 0.46236 0.0
C1854 C 0.39033 0.06912 0.50187 0.0
C1855 C 0.38073 0.04342 0.48451 0.0
C1856 C 0.35096 0.99039 0.50991 0.0
C1857 C 0.36797 0.01609 0.52721 0.0
N1858 N 0.40847 0.08112 0.53894 0.0
N1859 N 0.35462 0.97843 0.47244 0.0
C1860 C 0.38844 0.05587 0.52309 0.0
C1861 C 0.36123 0.00364 0.48857 0.0
N1862 N 0.40099 0.10628 0.49807 0.0
N1863 N 0.32449 0.95331 0.51389 0.0
H1864 H 0.36215 0.98654 0.45665 0.0
H1865 H 0.34453 0.94959 0.47507 0.0
H1866 H 0.3152 0.9432 0.52928 0.0
H1867 H 0.30872 0.93398 0.50194 0.0
H1868 H 0.40518 0.12561 0.51017 0.0
H1869 H 0.40127 0.1165 0.48278 0.0
H1870 H 0.42724 0.10988 0.53609 0.0
H1871 H 0.40935 0.07313 0.55458 0.0
C1872 C 0.05456 0.3914 0.4842 0.0
C1873 C 0.01424 0.37091 0.48185 0.0
C1874 C 0.00737 0.3697 0.52078 0.0
C1875 C 0.04757 0.38798 0.5232 0.0
N1876 N 0.10811 0.40558 0.50712 0.0
N1877 N 0.95338 0.33026 0.49834 0.0
C1878 C 0.07071 0.39528 0.50485 0.0
C1879 C 0.99109 0.35656 0.50031 0.0
N1880 N 0.07767 0.40968 0.46723 0.0
N1881 N 0.9846 0.36743 0.53746 0.0
H1882 H 0.94074 0.31927 0.48363 0.0
H1883 H 0.93596 0.31635 0.51136 0.0
H1884 H 0.99484 0.37878 0.55249 0.0
H1885 H 0.95568 0.35796 0.5357 0.0
H1886 H 0.10679 0.42837 0.46881 0.0
H1887 H 0.0677 0.40936 0.45194 0.0
H1888 H 0.12554 0.40805 0.49428 0.0
H1889 H 0.12033 0.40731 0.52198 0.0
C1890 C 0.40218 0.42082 0.51166 0.0
C1891 C 0.37536 0.39227 0.52558 0.0
C1892 C 0.36532 0.34476 0.49778 0.0
C1893 C 0.38825 0.37455 0.48341 0.0
N1894 N 0.41494 0.44083 0.47508 0.0
N1895 N 0.3256 0.32656 0.52953 0.0
C1896 C 0.40219 0.4125 0.48984 0.0
C1897 C 0.3552 0.35389 0.51804 0.0
N1898 N 0.42978 0.45521 0.51928 0.0
N1899 N 0.35357 0.30802 0.49223 0.0
H1900 H 0.3162 0.33227 0.54377 0.0
H1901 H 0.30806 0.29905 0.52384 0.0
H1902 H 0.35955 0.30076 0.47732 0.0
H1903 H 0.3401 0.28537 0.50283 0.0
H1904 H 0.45095 0.47562 0.5095 0.0
H1905 H 0.43512 0.46102 0.5355 0.0
H1906 H 0.42297 0.46882 0.4791 0.0
H1907 H 0.41305 0.43523 0.45876 0.0
C1908 C 0.63341 0.0037 0.50056 0.0
C1909 C 0.66059 0.00138 0.51382 0.0
C1910 C 0.70914 0.03508 0.48603 0.0
C1911 C 0.68065 0.03375 0.47243 0.0
N1912 N 0.61394 0.00443 0.46439 0.0
N1913 N 0.72307 0.00815 0.51697 0.0
C1914 C 0.64221 0.01368 0.47892 0.0
C1915 C 0.69823 0.0151 0.50593 0.0
N1916 N 0.60034 0.9996 0.50881 0.0
N1917 N 0.74644 0.05605 0.48021 0.0
H1918 H 0.71566 0.99253 0.53108 0.0
H1919 H 0.74968 0.0147 0.51107 0.0
H1920 H 0.75476 0.06957 0.46544 0.0
H1921 H 0.76885 0.06155 0.49042 0.0
H1922 H 0.58143 0.00424 0.49984 0.0
H1923 H 0.59426 0.99707 0.52505 0.0
H1924 H 0.58517 0.98753 0.46813 0.0
H1925 H 0.61967 0.00941 0.44816 0.0
C1926 C 0.06119 0.69981 0.4876 0.0
C1927 C 0.02101 0.67942 0.48478 0.0
C1928 C 0.01259 0.67397 0.52364 0.0
C1929 C 0.05268 0.69602 0.52636 0.0
N1930 N 0.11337 0.74023 0.51099 0.0
N1931 N 0.95917 0.65802 0.50031 0.0
C1932 C 0.07632 0.71246 0.50831 0.0
C1933 C 0.99692 0.67007 0.50289 0.0
N1934 N 0.08514 0.70464 0.47104 0.0
N1935 N 0.98947 0.65458 0.54039 0.0
H1936 H 0.94721 0.65648 0.48538 0.0
H1937 H 0.94094 0.65392 0.51302 0.0
H1938 H 0.99937 0.65561 0.5558 0.0
H1939 H 0.96068 0.63475 0.53857 0.0
H1940 H 0.11433 0.7159 0.47304 0.0
H1941 H 0.07587 0.69373 0.45582 0.0
H1942 H 0.13109 0.75548 0.49832 0.0
H1943 H 0.12479 0.75094 0.52599 0.0
C1944 C 0.99749 0.29515 0.00851 0.0
C1945 C 0.03016 0.31047 0.02169 0.0
C1946 C 0.07125 0.32852 0.99044 0.0
C1947 C 0.03861 0.30888 0.97733 0.0
N1948 N 0.97243 0.2893 0.97275 0.0
N1949 N 0.09626 0.35609 0.02524 0.0
C1950 C 0.0022 0.29759 0.98599 0.0
C1951 C 0.06658 0.33208 0.01259 0.0
N1952 N 0.96218 0.27608 0.01753 0.0
N1953 N 0.10652 0.34284 0.98173 0.0
H1954 H 0.09215 0.35974 0.04132 0.0
H1955 H 0.12346 0.37467 0.01949 0.0
H1956 H 0.11014 0.34271 0.96536 0.0
H1957 H 0.13142 0.35351 0.99064 0.0
H1958 H 0.93736 0.25991 0.00881 0.0
H1959 H 0.95815 0.27535 0.034 0.0
H1960 H 0.94578 0.28349 0.97818 0.0
H1961 H 0.97558 0.29178 0.95624 0.0
C1962 C 0.78324 0.74631 0.98937 0.0
C1963 C 0.74852 0.7369 0.97992 0.0
C1964 C 0.72621 0.73732 0.01666 0.0
C1965 C 0.76518 0.75864 0.02326 0.0
N1966 N 0.82149 0.80649 0.0051 0.0
N1967 N 0.68366 0.72173 0.98591 0.0
C1968 C 0.7924 0.76995 0.00692 0.0
C1969 C 0.71829 0.73093 0.99402 0.0
N1970 N 0.81069 0.74364 0.97842 0.0
N1971 N 0.69763 0.72588 0.0312 0.0
H1972 H 0.67772 0.71629 0.96969 0.0
H1973 H 0.66182 0.72073 0.99515 0.0
H1974 H 0.70279 0.73353 0.04722 0.0
H1975 H 0.66912 0.70814 0.02723 0.0
H1976 H 0.83785 0.75386 0.98475 0.0
H1977 H 0.80449 0.72903 0.96399 0.0
H1978 H 0.83929 0.81541 0.99175 0.0
H1979 H 0.82562 0.82787 0.01581 0.0
C1980 C 0.27835 0.98343 0.99059 0.0
C1981 C 0.29773 0.01694 0.97841 0.0
C1982 C 0.33157 0.05199 0.01068 0.0
C1983 C 0.30498 0.02068 0.0232 0.0
N1984 N 0.25366 0.95571 0.025 0.0
N1985 N 0.34884 0.08155 0.97555 0.0
C1986 C 0.27921 0.98582 0.01309 0.0
C1987 C 0.32687 0.05064 0.98801 0.0
N1988 N 0.25942 0.94926 0.98043 0.0
N1989 N 0.36012 0.08332 0.02051 0.0
H1990 H 0.34766 0.08025 0.95896 0.0
H1991 H 0.36785 0.10849 0.98137 0.0
H1992 H 0.36395 0.08514 0.03696 0.0
H1993 H 0.38169 0.1065 0.01252 0.0
H1994 H 0.24697 0.92309 0.98819 0.0
H1995 H 0.26014 0.94765 0.96392 0.0
H1996 H 0.23094 0.93124 0.01855 0.0
H1997 H 0.25399 0.95648 0.04154 0.0
C1998 C 0.99095 0.74066 0.99842 0.0
C1999 C 0.02339 0.75399 0.98508 0.0
C2000 C 0.06303 0.76437 0.01693 0.0
C2001 C 0.03074 0.75262 0.03014 0.0
N2002 N 0.96322 0.71371 0.0327 0.0
N2003 N 0.08753 0.7655 0.98142 0.0
C2004 C 0.99439 0.7356 0.02056 0.0
C2005 C 0.05853 0.76132 0.99427 0.0
N2006 N 0.95712 0.73401 0.99016 0.0
N2007 N 0.09808 0.77957 0.02606 0.0
H2008 H 0.08451 0.76178 0.96498 0.0
H2009 H 0.11292 0.76848 0.9872 0.0
H2010 H 0.10126 0.77916 0.04251 0.0
H2011 H 0.12345 0.79333 0.0175 0.0
H2012 H 0.9337 0.72844 0.99958 0.0
H2013 H 0.95342 0.73629 0.97393 0.0
H2014 H 0.93571 0.69825 0.02661 0.0
H2015 H 0.96646 0.70802 0.04846 0.0
C2016 C 0.30195 0.3263 0.0224 0.0
C2017 C 0.30997 0.29882 0.03114 0.0
C2018 C 0.33403 0.29269 0.99626 0.0
C2019 C 0.31647 0.31147 0.98687 0.0
N2020 N 0.2905 0.35279 0.99035 0.0
N2021 N 0.34097 0.26185 0.02753 0.0
C2022 C 0.30337 0.33116 0.99984 0.0
C2023 C 0.32882 0.28427 0.0184 0.0
N2024 N 0.293 0.34749 0.03557 0.0
N2025 N 0.35568 0.28326 0.9838 0.0
H2026 H 0.34017 0.25842 0.04394 0.0
H2027 H 0.35097 0.24651 0.01908 0.0
H2028 H 0.36011 0.2905 0.96766 0.0
H2029 H 0.3714 0.27131 0.98957 0.0
H2030 H 0.28919 0.3697 0.03037 0.0
H2031 H 0.29244 0.34493 0.0521 0.0
H2032 H 0.27568 0.36395 0.99827 0.0
H2033 H 0.29467 0.3591 0.97413 0.0
C2034 C 0.7294 0.98785 0.99198 0.0
C2035 C 0.74607 0.02032 0.97861 0.0
C2036 C 0.77279 0.06131 0.01009 0.0
C2037 C 0.76054 0.02851 0.02302 0.0
N2038 N 0.71495 0.96208 0.02789 0.0
N2039 N 0.76936 0.08715 0.97564 0.0
C2040 C 0.73461 0.9922 0.01451 0.0
C2041 C 0.76298 0.05691 0.98798 0.0
N2042 N 0.70975 0.95277 0.98286 0.0
N2043 N 0.79438 0.09651 0.01891 0.0
H2044 H 0.76162 0.08382 0.95958 0.0
H2045 H 0.77925 0.11449 0.98154 0.0
H2046 H 0.79922 0.10041 0.0353 0.0
H2047 H 0.80816 0.12149 0.01006 0.0
H2048 H 0.70102 0.92734 0.99094 0.0
H2049 H 0.70313 0.94981 0.96671 0.0
H2050 H 0.69371 0.93537 0.02287 0.0
H2051 H 0.71736 0.96475 0.04441 0.0
C2052 C 0.73865 0.66037 0.32722 0.0
C2053 C 0.70682 0.64159 0.31348 0.0
C2054 C 0.66448 0.61753 0.34457 0.0
C2055 C 0.69672 0.63248 0.35817 0.0
N2056 N 0.76211 0.68116 0.36314 0.0
N2057 N 0.63974 0.61623 0.30906 0.0
C2058 C 0.7331 0.6584 0.34973 0.0
C2059 C 0.66972 0.62492 0.32222 0.0
N2060 N 0.77426 0.67887 0.31863 0.0
N2061 N 0.62904 0.59543 0.35303 0.0
H2062 H 0.64345 0.622 0.29276 0.0
H2063 H 0.6121 0.60645 0.31445 0.0
H2064 H 0.62438 0.59202 0.36945 0.0
H2065 H 0.6047 0.57972 0.34386 0.0
H2066 H 0.79911 0.68883 0.32752 0.0
H2067 H 0.77839 0.68297 0.30226 0.0
H2068 H 0.78858 0.70257 0.35789 0.0
H2069 H 0.75847 0.68111 0.37958 0.0
C2070 C 0.40049 0.11063 0.3478 0.0
C2071 C 0.41225 0.08898 0.36003 0.0
C2072 C 0.4217 0.06178 0.32707 0.0
C2073 C 0.41216 0.08518 0.31501 0.0
N2074 N 0.37848 0.1198 0.31359 0.0
N2075 N 0.42009 0.0338 0.36144 0.0
C2076 C 0.39655 0.10533 0.32535 0.0
C2077 C 0.4181 0.06101 0.34971 0.0
N2078 N 0.39469 0.13741 0.35753 0.0
N2079 N 0.43519 0.04117 0.31689 0.0
H2080 H 0.41607 0.03151 0.37788 0.0
H2081 H 0.42169 0.01116 0.35471 0.0
H2082 H 0.43505 0.03911 0.30032 0.0
H2083 H 0.44741 0.02734 0.32476 0.0
H2084 H 0.3908 0.15742 0.34924 0.0
H2085 H 0.39578 0.1407 0.37402 0.0
H2086 H 0.36419 0.13265 0.32029 0.0
H2087 H 0.37433 0.11504 0.29722 0.0
C2088 C 0.96389 0.33628 0.34923 0.0
C2089 C 0.97692 0.37351 0.35746 0.0
C2090 C 0.99427 0.39925 0.32091 0.0
C2091 C 0.97534 0.36173 0.31273 0.0
N2092 N 0.95825 0.29694 0.31846 0.0
N2093 N 0.0112 0.44101 0.35184 0.0
C2094 C 0.96543 0.33097 0.32677 0.0
C2095 C 0.9948 0.40526 0.34345 0.0
N2096 N 0.94765 0.30576 0.36266 0.0
N2097 N 0.01224 0.42881 0.30697 0.0
H2098 H 0.01448 0.44553 0.36822 0.0
H2099 H 0.02163 0.46585 0.34296 0.0
H2100 H 0.01281 0.42431 0.29062 0.0
H2101 H 0.02808 0.45726 0.31138 0.0
H2102 H 0.93314 0.27765 0.35743 0.0
H2103 H 0.94718 0.30862 0.37916 0.0
H2104 H 0.95368 0.2737 0.32766 0.0
H2105 H 0.96024 0.29346 0.3021 0.0
C2106 C 0.66379 0.11559 0.33922 0.0
C2107 C 0.68735 0.10862 0.35334 0.0
C2108 C 0.71257 0.09328 0.32096 0.0
C2109 C 0.68501 0.09597 0.30826 0.0
N2110 N 0.62468 0.09347 0.30787 0.0
N2111 N 0.73387 0.08778 0.3563 0.0
C2112 C 0.65636 0.09966 0.31868 0.0
C2113 C 0.71104 0.09557 0.34387 0.0
N2114 N 0.65356 0.14234 0.34326 0.0
N2115 N 0.74147 0.09103 0.31122 0.0
H2116 H 0.73822 0.09419 0.37246 0.0
H2117 H 0.74783 0.07394 0.35049 0.0
H2118 H 0.74238 0.0879 0.29478 0.0
H2119 H 0.76514 0.09387 0.31932 0.0
H2120 H 0.63713 0.14784 0.33264 0.0
H2121 H 0.66775 0.1646 0.35394 0.0
H2122 H 0.60238 0.09497 0.31528 0.0
H2123 H 0.61987 0.08365 0.2922 0.0
C2124 C 0.98295 0.68378 0.35047 0.0
C2125 C 0.99669 0.66289 0.36148 0.0
C2126 C 0.01608 0.64658 0.32823 0.0
C2127 C 0.99455 0.65979 0.31734 0.0
N2128 N 0.9726 0.7047 0.31607 0.0
N2129 N 0.04228 0.64188 0.36216 0.0
C2130 C 0.98319 0.68336 0.32785 0.0
C2131 C 0.01892 0.65024 0.35071 0.0
N2132 N 0.96966 0.70338 0.36183 0.0
N2133 N 0.03248 0.62969 0.31703 0.0
H2134 H 0.046 0.64728 0.3785 0.0
H2135 H 0.06039 0.6335 0.35541 0.0
H2136 H 0.03298 0.62999 0.30039 0.0
H2137 H 0.04524 0.61564 0.32405 0.0
H2138 H 0.95617 0.71696 0.35514 0.0
H2139 H 0.97329 0.70643 0.37833 0.0
H2140 H 0.96385 0.72274 0.32248 0.0
H2141 H 0.97593 0.70649 0.29955 0.0
C2142 C 0.42743 0.38642 0.34873 0.0
C2143 C 0.41939 0.35329 0.36055 0.0
C2144 C 0.40333 0.31633 0.32735 0.0
C2145 C 0.41797 0.35051 0.31565 0.0
N2146 N 0.42963 0.41456 0.31414 0.0
N2147 N 0.39765 0.28624 0.36154 0.0
C2148 C 0.42525 0.38449 0.32602 0.0
C2149 C 0.40578 0.31786 0.34996 0.0
N2150 N 0.44039 0.42035 0.3591 0.0
N2151 N 0.38644 0.2825 0.31663 0.0
H2152 H 0.39804 0.28653 0.37811 0.0
H2153 H 0.39216 0.26047 0.35488 0.0
H2154 H 0.38373 0.28123 0.30005 0.0
H2155 H 0.37245 0.25602 0.32401 0.0
H2156 H 0.45181 0.44651 0.35144 0.0
H2157 H 0.44123 0.4227 0.37565 0.0
H2158 H 0.43227 0.43942 0.32057 0.0
H2159 H 0.42686 0.41313 0.29762 0.0
C2160 C 0.38785 0.994 0.68756 0.0
C2161 C 0.3522 0.96574 0.69586 0.0
C2162 C 0.32355 0.96313 0.66113 0.0
C2163 C 0.3599 0.98041 0.65183 0.0
N2164 N 0.42742 0.01908 0.65595 0.0
N2165 N 0.28432 0.92852 0.6912 0.0
C2166 C 0.39233 0.99884 0.66506 0.0
C2167 C 0.31934 0.95211 0.68286 0.0
N2168 N 0.41699 0.01628 0.701 0.0
N2169 N 0.29365 0.95887 0.64926 0.0
H2170 H 0.28059 0.92298 0.70744 0.0
H2171 H 0.25976 0.91412 0.68202 0.0
H2172 H 0.29798 0.97022 0.63391 0.0
H2173 H 0.26634 0.94858 0.65536 0.0
H2174 H 0.44269 0.0391 0.69583 0.0
H2175 H 0.41415 0.01423 0.71751 0.0
H2176 H 0.45277 0.02898 0.66434 0.0
H2177 H 0.43057 0.02485 0.63966 0.0
C2178 C 0.08193 0.38996 0.68028 0.0
C2179 C 0.07057 0.41348 0.69094 0.0
C2180 C 0.05445 0.43111 0.65706 0.0
C2181 C 0.07388 0.41483 0.6465 0.0
N2182 N 0.09638 0.37039 0.64637 0.0
N2183 N 0.03122 0.44172 0.69074 0.0
C2184 C 0.08407 0.39102 0.65763 0.0
C2185 C 0.05194 0.4294 0.67965 0.0
N2186 N 0.09045 0.36691 0.69196 0.0
N2187 N 0.04043 0.4498 0.64547 0.0
H2188 H 0.02659 0.43656 0.70705 0.0
H2189 H 0.01567 0.45291 0.68382 0.0
H2190 H 0.03984 0.44904 0.62885 0.0
H2191 H 0.0297 0.46604 0.65211 0.0
H2192 H 0.09944 0.34906 0.68558 0.0
H2193 H 0.08572 0.36379 0.70836 0.0
H2194 H 0.10695 0.3542 0.65316 0.0
H2195 H 0.09501 0.36903 0.62976 0.0
C2196 C 0.64096 0.67115 0.68232 0.0
C2197 C 0.64945 0.70682 0.6911 0.0
C2198 C 0.66571 0.73553 0.65546 0.0
C2199 C 0.64892 0.69864 0.64668 0.0
N2200 N 0.63585 0.63463 0.65026 0.0
N2201 N 0.68171 0.77459 0.68741 0.0
C2202 C 0.64195 0.66749 0.65973 0.0
C2203 C 0.66614 0.73972 0.67801 0.0
N2204 N 0.63034 0.64076 0.69549 0.0
N2205 N 0.68069 0.76602 0.64202 0.0
H2206 H 0.68402 0.77725 0.70389 0.0
H2207 H 0.6933 0.80033 0.67932 0.0
H2208 H 0.6817 0.76263 0.62557 0.0
H2209 H 0.69294 0.79422 0.64687 0.0
H2210 H 0.62018 0.61302 0.69024 0.0
H2211 H 0.63179 0.64352 0.71203 0.0
H2212 H 0.63133 0.61047 0.65845 0.0
H2213 H 0.6385 0.63307 0.63379 0.0
C2214 C 0.38485 0.43073 0.68752 0.0
C2215 C 0.34806 0.41858 0.69584 0.0
C2216 C 0.32223 0.40168 0.65949 0.0
C2217 C 0.35943 0.42366 0.65121 0.0
N2218 N 0.42688 0.4547 0.65689 0.0
N2219 N 0.28059 0.38682 0.69008 0.0
C2220 C 0.39101 0.43633 0.66512 0.0
C2221 C 0.31631 0.40182 0.68188 0.0
N2222 N 0.41365 0.43656 0.70098 0.0
N2223 N 0.2929 0.38035 0.64594 0.0
H2224 H 0.27589 0.38389 0.70643 0.0
H2225 H 0.25634 0.37846 0.68088 0.0
H2226 H 0.2973 0.37906 0.62964 0.0
H2227 H 0.26528 0.36151 0.651 0.0
H2228 H 0.4405 0.44263 0.69579 0.0
H2229 H 0.40954 0.43203 0.71735 0.0
H2230 H 0.45138 0.46929 0.6661 0.0
H2231 H 0.43156 0.45592 0.64054 0.0
C2232 C 0.63063 0.00533 0.67528 0.0
C2233 C 0.64926 0.98711 0.68408 0.0
C2234 C 0.6669 0.97738 0.64815 0.0
C2235 C 0.63952 0.98569 0.63965 0.0
N2236 N 0.60203 0.01587 0.64405 0.0
N2237 N 0.69136 0.96215 0.67977 0.0
C2238 C 0.62396 0.0029 0.65293 0.0
C2239 C 0.67026 0.97607 0.67072 0.0
N2240 N 0.61917 0.02443 0.68851 0.0
N2241 N 0.68926 0.97056 0.63469 0.0
H2242 H 0.69596 0.96358 0.69617 0.0
H2243 H 0.7035 0.94882 0.67127 0.0
H2244 H 0.68762 0.97214 0.61818 0.0
H2245 H 0.71145 0.9666 0.63975 0.0
H2246 H 0.60682 0.04012 0.68335 0.0
H2247 H 0.62494 0.0267 0.70484 0.0
H2248 H 0.58616 0.02506 0.65265 0.0
H2249 H 0.59972 0.01672 0.62761 0.0
C2250 C 0.06081 0.65236 0.68282 0.0
C2251 C 0.07599 0.68741 0.6938 0.0
C2252 C 0.09028 0.72129 0.65956 0.0
C2253 C 0.08314 0.68729 0.64913 0.0
N2254 N 0.05045 0.61909 0.64892 0.0
N2255 N 0.09535 0.75374 0.69322 0.0
C2256 C 0.06448 0.65221 0.66022 0.0
C2257 C 0.08678 0.72136 0.68225 0.0
N2258 N 0.04317 0.61958 0.69434 0.0
N2259 N 0.10076 0.75325 0.64774 0.0
H2260 H 0.09004 0.75327 0.70951 0.0
H2261 H 0.10666 0.78061 0.68648 0.0
H2262 H 0.10164 0.75305 0.63114 0.0
H2263 H 0.10648 0.77934 0.65394 0.0
H2264 H 0.03218 0.59235 0.6881 0.0
H2265 H 0.03781 0.62032 0.71051 0.0
H2266 H 0.03748 0.59209 0.65564 0.0
H2267 H 0.05105 0.61882 0.63228 0.0
C2268 C 0.89185 0.13799 0.08438 0.0
C2269 C 0.85724 0.1303 0.09186 0.0
C2270 C 0.89476 0.19524 0.10712 0.0
C2271 C 0.92275 0.20254 0.09095 0.0
N2272 N 0.90177 0.18322 0.05689 0.0
N2273 N 0.82993 0.15169 0.11962 0.0
C2274 C 0.91218 0.17485 0.07582 0.0
C2275 C 0.85913 0.1592 0.10616 0.0
N2276 N 0.90975 0.12586 0.09794 0.0
N2277 N 0.90314 0.21973 0.12373 0.0
H2278 H 0.80777 0.12417 0.12212 0.0
H2279 H 0.82865 0.17264 0.12861 0.0
H2280 H 0.93035 0.24294 0.12571 0.0
H2281 H 0.88471 0.21474 0.13645 0.0
H2282 H 0.93643 0.1448 0.10419 0.0
H2283 H 0.89475 0.1003 0.10632 0.0
H2284 H 0.87683 0.16391 0.04913 0.0
H2285 H 0.91432 0.21119 0.05131 0.0
C2286 C 0.93161 0.77824 0.10851 0.0
C2287 C 0.94051 0.75445 0.09603 0.0
C2288 C 0.87809 0.72721 0.07856 0.0
C2289 C 0.86862 0.74926 0.09174 0.0
N2290 N 0.88138 0.78614 0.12404 0.0
N2291 N 0.91342 0.69474 0.07576 0.0
C2292 C 0.89391 0.77208 0.10811 0.0
C2293 C 0.91112 0.72519 0.0832 0.0
N2294 N 0.95838 0.80589 0.12131 0.0
N2295 N 0.85629 0.70897 0.06116 0.0
H2296 H 0.93549 0.68957 0.07882 0.0
H2297 H 0.89068 0.67171 0.0682 0.0
H2298 H 0.83191 0.71006 0.05712 0.0
H2299 H 0.86472 0.69613 0.04963 0.0
H2300 H 0.95478 0.82738 0.12808 0.0
H2301 H 0.9847 0.80848 0.12459 0.0
H2302 H 0.89743 0.7997 0.13753 0.0
H2303 H 0.85362 0.78118 0.12483 0.0
C2304 C 0.33066 0.16476 0.07619 0.0
C2305 C 0.30771 0.13242 0.08865 0.0
C2306 C 0.27881 0.16559 0.10626 0.0
C2307 C 0.3032 0.1988 0.09443 0.0
N2308 N 0.362 0.23284 0.07395 0.0
N2309 N 0.27022 0.10685 0.12073 0.0
C2310 C 0.33238 0.19951 0.08135 0.0
C2311 C 0.28455 0.13401 0.10515 0.0
N2312 N 0.34975 0.1621 0.0589 0.0
N2313 N 0.25105 0.16434 0.11919 0.0
H2314 H 0.27495 0.08391 0.12124 0.0
H2315 H 0.25662 0.10897 0.13433 0.0
H2316 H 0.24893 0.18811 0.12323 0.0
H2317 H 0.22906 0.13896 0.12534 0.0
H2318 H 0.36351 0.18404 0.04787 0.0
H2319 H 0.3485 0.13673 0.05438 0.0
H2320 H 0.3856 0.23424 0.06642 0.0
H2321 H 0.36493 0.25946 0.07651 0.0
C2322 C 0.16415 0.92195 0.90209 0.0
C2323 C 0.19666 0.92805 0.91382 0.0
C2324 C 0.15874 0.86692 0.93174 0.0
C2325 C 0.12692 0.86008 0.91945 0.0
N2326 N 0.103 0.87548 0.88796 0.0
N2327 N 0.22682 0.89888 0.93397 0.0
C2328 C 0.13049 0.886 0.90323 0.0
C2329 C 0.19479 0.89813 0.92662 0.0
N2330 N 0.16549 0.94975 0.88923 0.0
N2331 N 0.15435 0.84466 0.94901 0.0
H2332 H 0.25435 0.92092 0.93136 0.0
H2333 H 0.22611 0.87553 0.94136 0.0
H2334 H 0.1279 0.82242 0.95363 0.0
H2335 H 0.17599 0.85106 0.95998 0.0
H2336 H 0.1411 0.94886 0.88324 0.0
H2337 H 0.19062 0.97424 0.88503 0.0
H2338 H 0.10615 0.89178 0.8745 0.0
H2339 H 0.07842 0.84891 0.88755 0.0
C2340 C 0.19783 0.33293 0.9332 0.0
C2341 C 0.20758 0.31026 0.92058 0.0
C2342 C 0.1461 0.28282 0.90228 0.0
C2343 C 0.13683 0.30663 0.91446 0.0
N2344 N 0.16059 0.36385 0.93611 0.0
N2345 N 0.1963 0.27349 0.8883 0.0
C2346 C 0.16479 0.33483 0.92813 0.0
C2347 C 0.18322 0.28789 0.90376 0.0
N2348 N 0.21936 0.3517 0.95054 0.0
N2349 N 0.12009 0.25612 0.88872 0.0
H2350 H 0.2236 0.27725 0.88831 0.0
H2351 H 0.18125 0.26065 0.87442 0.0
H2352 H 0.09462 0.25474 0.88452 0.0
H2353 H 0.12337 0.23426 0.88222 0.0
H2354 H 0.21097 0.36494 0.96184 0.0
H2355 H 0.24373 0.35082 0.95469 0.0
H2356 H 0.18231 0.38702 0.94414 0.0
H2357 H 0.137 0.36689 0.93341 0.0
C2358 C 0.71686 0.85668 0.92962 0.0
C2359 C 0.73862 0.84745 0.9159 0.0
C2360 C 0.76904 0.9116 0.90051 0.0
C2361 C 0.74613 0.92062 0.9137 0.0
N2362 N 0.68964 0.89664 0.93605 0.0
N2363 N 0.77547 0.86165 0.88351 0.0
C2364 C 0.71704 0.89146 0.92656 0.0
C2365 C 0.76192 0.87362 0.89998 0.0
N2366 N 0.69732 0.83311 0.9462 0.0
N2367 N 0.79698 0.93872 0.88798 0.0
H2368 H 0.76985 0.83376 0.88201 0.0
H2369 H 0.78918 0.87837 0.87025 0.0
H2370 H 0.80033 0.96552 0.88533 0.0
H2371 H 0.81809 0.93494 0.88084 0.0
H2372 H 0.68477 0.84071 0.9583 0.0
H2373 H 0.69666 0.80743 0.94893 0.0
H2374 H 0.66587 0.87473 0.94357 0.0
H2375 H 0.68862 0.92164 0.93509 0.0
C2376 C 0.52658 0.50232 0.43725 0.0
C2377 C 0.52232 0.46943 0.42609 0.0
C2378 C 0.58625 0.50191 0.41975 0.0
C2379 C 0.59242 0.53806 0.423 0.0
N2380 N 0.55939 0.57154 0.43613 0.0
N2381 N 0.5403 0.48337 0.39158 0.0
C2382 C 0.55999 0.53874 0.43249 0.0
C2383 C 0.54992 0.4773 0.41139 0.0
N2384 N 0.50174 0.49897 0.45278 0.0
N2385 N 0.60067 0.489 0.43512 0.0
H2386 H 0.51246 0.46736 0.38586 0.0
H2387 H 0.55756 0.50816 0.38306 0.0
H2388 H 0.62463 0.50734 0.44406 0.0
H2389 H 0.58478 0.46171 0.44137 0.0
H2390 H 0.50555 0.52197 0.46205 0.0
H2391 H 0.48076 0.47242 0.45804 0.0
H2392 H 0.53524 0.57137 0.44201 0.0
H2393 H 0.58033 0.59813 0.43093 0.0
C2394 C 0.58032 0.10872 0.43862 0.0
C2395 C 0.59003 0.09031 0.42258 0.0
C2396 C 0.52789 0.06738 0.40554 0.0
C2397 C 0.51785 0.08461 0.42193 0.0
N2398 N 0.53005 0.1126 0.45706 0.0
N2399 N 0.57024 0.04591 0.39293 0.0
C2400 C 0.54281 0.10278 0.43931 0.0
C2401 C 0.5626 0.06702 0.40701 0.0
N2402 N 0.60652 0.13139 0.45348 0.0
N2403 N 0.50541 0.05353 0.38787 0.0
H2404 H 0.59704 0.04873 0.39103 0.0
H2405 H 0.54945 0.02467 0.3834 0.0
H2406 H 0.48023 0.05417 0.38623 0.0
H2407 H 0.51335 0.04477 0.37414 0.0
H2408 H 0.60293 0.15026 0.46316 0.0
H2409 H 0.63266 0.13287 0.45561 0.0
H2410 H 0.54545 0.12196 0.47119 0.0
H2411 H 0.50264 0.10839 0.45841 0.0
C2412 C 0.95383 0.48129 0.4372 0.0
C2413 C 0.97775 0.47356 0.42405 0.0
C2414 C 0.00617 0.53763 0.40878 0.0
C2415 C 0.98341 0.54568 0.42243 0.0
N2416 N 0.9438 0.52929 0.45385 0.0
N2417 N 0.03354 0.49817 0.40115 0.0
C2418 C 0.95943 0.51866 0.4378 0.0
C2419 C 0.00642 0.50306 0.41128 0.0
N2420 N 0.92638 0.45344 0.44965 0.0
N2421 N 0.02606 0.56211 0.39265 0.0
H2422 H 0.03377 0.4727 0.40084 0.0
H2423 H 0.0575 0.52044 0.39399 0.0
H2424 H 0.02617 0.58753 0.39042 0.0
H2425 H 0.0393 0.55561 0.38043 0.0
H2426 H 0.9042 0.4558 0.45647 0.0
H2427 H 0.9247 0.42744 0.45267 0.0
H2428 H 0.92959 0.51207 0.46685 0.0
H2429 H 0.94788 0.55663 0.45533 0.0
C2430 C 0.80542 0.22208 0.22837 0.0
C2431 C 0.7974 0.19246 0.2431 0.0
C2432 C 0.86194 0.22836 0.25776 0.0
C2433 C 0.86921 0.25853 0.24374 0.0
N2434 N 0.85229 0.28222 0.21287 0.0
N2435 N 0.81939 0.16382 0.2692 0.0
C2436 C 0.8421 0.25498 0.2283 0.0
C2437 C 0.82629 0.19432 0.25677 0.0
N2438 N 0.77843 0.21815 0.21395 0.0
N2439 N 0.8881 0.23341 0.27304 0.0
H2440 H 0.79249 0.14014 0.2713 0.0
H2441 H 0.84059 0.16125 0.27702 0.0
H2442 H 0.91467 0.25793 0.27416 0.0
H2443 H 0.88275 0.21477 0.28564 0.0
H2444 H 0.77987 0.24045 0.20507 0.0
H2445 H 0.75363 0.19248 0.211 0.0
H2446 H 0.83537 0.28026 0.19998 0.0
H2447 H 0.87926 0.30621 0.21189 0.0
C2448 C 0.85163 0.61798 0.23814 0.0
C2449 C 0.87787 0.64252 0.25365 0.0
C2450 C 0.83586 0.66773 0.26191 0.0
C2451 C 0.80677 0.63848 0.24923 0.0
N2452 N 0.78721 0.58539 0.22494 0.0
N2453 N 0.89303 0.68696 0.28241 0.0
C2454 C 0.81461 0.61326 0.23739 0.0
C2455 C 0.86963 0.66662 0.26598 0.0
N2456 N 0.86274 0.60091 0.22318 0.0
N2457 N 0.83129 0.69613 0.27057 0.0
H2458 H 0.91756 0.68604 0.28599 0.0
H2459 H 0.88615 0.70142 0.29371 0.0
H2460 H 0.80635 0.69731 0.26962 0.0
H2461 H 0.85349 0.72025 0.27765 0.0
H2462 H 0.84628 0.58624 0.21003 0.0
H2463 H 0.88981 0.60408 0.22274 0.0
H2464 H 0.78939 0.5625 0.21908 0.0
H2465 H 0.76171 0.58415 0.22098 0.0
C2466 C 0.43999 0.24852 0.25062 0.0
C2467 C 0.41086 0.25467 0.24531 0.0
C2468 C 0.38232 0.18867 0.2312 0.0
C2469 C 0.40773 0.18366 0.24509 0.0
N2470 N 0.41058 0.20441 0.27922 0.0
N2471 N 0.35328 0.22767 0.22319 0.0
C2472 C 0.4267 0.21233 0.25951 0.0
C2473 C 0.38087 0.22376 0.23323 0.0
N2474 N 0.46836 0.26183 0.23584 0.0
N2475 N 0.36255 0.16272 0.21568 0.0
H2476 H 0.35386 0.25346 0.22171 0.0
H2477 H 0.3294 0.20471 0.21641 0.0
H2478 H 0.3658 0.13921 0.21278 0.0
H2479 H 0.34613 0.16669 0.20435 0.0
H2480 H 0.47846 0.24464 0.22976 0.0
H2481 H 0.47563 0.28627 0.22692 0.0
H2482 H 0.40387 0.22296 0.28704 0.0
H2483 H 0.39727 0.17685 0.28534 0.0
C2484 C 0.25115 0.83161 0.77281 0.0
C2485 C 0.25896 0.86389 0.76032 0.0
C2486 C 0.19585 0.82841 0.74398 0.0
C2487 C 0.18761 0.79695 0.75701 0.0
N2488 N 0.20251 0.77356 0.78888 0.0
N2489 N 0.23326 0.89609 0.73913 0.0
C2490 C 0.21386 0.7998 0.77284 0.0
C2491 C 0.22953 0.86347 0.7477 0.0
N2492 N 0.2787 0.83144 0.78524 0.0
N2493 N 0.17239 0.82447 0.72741 0.0
H2494 H 0.25763 0.92261 0.74029 0.0
H2495 H 0.21068 0.89727 0.73201 0.0
H2496 H 0.14764 0.79897 0.72413 0.0
H2497 H 0.17945 0.84524 0.71577 0.0
H2498 H 0.27602 0.80658 0.79173 0.0
H2499 H 0.30473 0.85555 0.78853 0.0
H2500 H 0.21932 0.77657 0.80208 0.0
H2501 H 0.175 0.75053 0.79018 0.0
C2502 C 0.22281 0.39256 0.74661 0.0
C2503 C 0.25087 0.42017 0.76044 0.0
C2504 C 0.20489 0.43887 0.772 0.0
C2505 C 0.18015 0.41694 0.7552 0.0
N2506 N 0.16789 0.37651 0.7247 0.0
N2507 N 0.26839 0.47021 0.78657 0.0
C2508 C 0.18962 0.39455 0.7421 0.0
C2509 C 0.24199 0.44378 0.77306 0.0
N2510 N 0.22747 0.36445 0.73766 0.0
N2511 N 0.19225 0.45303 0.78782 0.0
H2512 H 0.29408 0.47163 0.79028 0.0
H2513 H 0.26532 0.49193 0.79345 0.0
H2514 H 0.16495 0.44928 0.78817 0.0
H2515 H 0.20762 0.46556 0.80166 0.0
H2516 H 0.20578 0.34146 0.7295 0.0
H2517 H 0.25168 0.36216 0.73955 0.0
H2518 H 0.17593 0.36349 0.71308 0.0
H2519 H 0.14379 0.37801 0.72081 0.0
C2520 C 0.61571 0.8103 0.76542 0.0
C2521 C 0.64095 0.80218 0.75385 0.0
C2522 C 0.66897 0.8646 0.73654 0.0
C2523 C 0.64481 0.87311 0.7486 0.0
N2524 N 0.6046 0.8591 0.77968 0.0
N2525 N 0.70021 0.82766 0.73382 0.0
C2526 C 0.62073 0.8474 0.76448 0.0
C2527 C 0.6705 0.83126 0.74126 0.0
N2528 N 0.58764 0.78323 0.77792 0.0
N2529 N 0.68945 0.88756 0.71997 0.0
H2530 H 0.70299 0.80385 0.73616 0.0
H2531 H 0.72414 0.85001 0.72668 0.0
H2532 H 0.68889 0.91221 0.71606 0.0
H2533 H 0.70393 0.88018 0.70895 0.0
H2534 H 0.5649 0.78582 0.78365 0.0
H2535 H 0.58611 0.75768 0.78207 0.0
H2536 H 0.59042 0.84294 0.79302 0.0
H2537 H 0.60821 0.88631 0.78014 0.0
C2538 C 0.5315 0.56132 0.59894 0.0
C2539 C 0.53712 0.58974 0.58404 0.0
C2540 C 0.47288 0.55013 0.56986 0.0
C2541 C 0.46642 0.52264 0.58573 0.0
N2542 N 0.49257 0.49655 0.61086 0.0
N2543 N 0.51493 0.61216 0.55478 0.0
C2544 C 0.49667 0.52648 0.59887 0.0
C2545 C 0.50832 0.58438 0.56931 0.0
N2546 N 0.55854 0.56864 0.61407 0.0
N2547 N 0.44659 0.54187 0.55406 0.0
H2548 H 0.54182 0.63535 0.55179 0.0
H2549 H 0.49364 0.61331 0.54617 0.0
H2550 H 0.4212 0.51612 0.55289 0.0
H2551 H 0.45096 0.55887 0.54078 0.0
H2552 H 0.55404 0.55142 0.62729 0.0
H2553 H 0.58465 0.59377 0.61443 0.0
H2554 H 0.51497 0.49623 0.61873 0.0
H2555 H 0.46751 0.47052 0.6116 0.0
C2556 C 0.50025 0.00106 0.5964 0.0
C2557 C 0.46685 0.9768 0.58498 0.0
C2558 C 0.49899 0.94655 0.56754 0.0
C2559 C 0.53301 0.97188 0.57845 0.0
N2560 N 0.56849 0.03214 0.59732 0.0
N2561 N 0.43902 0.93643 0.55413 0.0
C2562 C 0.53459 0.00208 0.59091 0.0
C2563 C 0.46738 0.95226 0.56898 0.0
N2564 N 0.49907 0.0223 0.61298 0.0
N2565 N 0.49695 0.9178 0.55518 0.0
H2566 H 0.4159 0.94087 0.55393 0.0
H2567 H 0.44018 0.92176 0.54077 0.0
H2568 H 0.52046 0.91529 0.55104 0.0
H2569 H 0.47122 0.89536 0.54971 0.0
H2570 H 0.52168 0.03697 0.6235 0.0
H2571 H 0.47433 0.02235 0.61737 0.0
H2572 H 0.57065 0.05649 0.60428 0.0
H2573 H 0.59482 0.03457 0.5944 0.0
C2574 C 0.0589 0.56519 0.56466 0.0
C2575 C 0.08648 0.59417 0.57871 0.0
C2576 C 0.09789 0.54971 0.5939 0.0
C2577 C 0.08151 0.52276 0.57835 0.0
N2578 N 0.04229 0.50515 0.54639 0.0
N2579 N 0.14481 0.60068 0.57292 0.0
C2580 C 0.05952 0.52971 0.56288 0.0
C2581 C 0.11381 0.58679 0.5859 0.0
N2582 N 0.03465 0.57149 0.55265 0.0
N2583 N 0.07778 0.54014 0.61245 0.0
H2584 H 0.15466 0.62632 0.56471 0.0
H2585 H 0.15502 0.58329 0.56729 0.0
H2586 H 0.06265 0.51195 0.61762 0.0
H2587 H 0.07036 0.55841 0.61996 0.0
H2588 H 0.01211 0.54991 0.54419 0.0
H2589 H 0.03701 0.5981 0.55109 0.0
H2590 H 0.02843 0.51052 0.53409 0.0
H2591 H 0.04505 0.48123 0.54399 0.0
loop_
_geom_bond_atom_site_label_1
_geom_bond_atom_site_label_2
_geom_bond_distance
_geom_bond_site_symmetry_2
_ccdc_geom_bond_type
Mn0 O5 2.095 . S
Mn0 O15 2.162 . S
Mn0 O16 2.297 . S
Mn0 O24 2.385 1_455 S
Mn0 O25 2.209 . S
Mn0 O26 2.094 . S
Mn1 O6 2.121 . S
Mn1 N8 2.257 . S
Mn1 N17 2.282 1_455 S
Mn1 O25 2.215 . S
Mn1 O27 2.117 . S
C2 O24 1.234 . S
C2 O25 1.283 1_655 S
C3 O15 1.281 . S
C3 O16 1.236 . S
C4 O26 1.240 . S
C4 O27 1.264 . S
O5 Mn0 2.095 . S
O5 C14 1.250 . S
O6 Mn1 2.121 . S
O6 C14 1.258 . S
C7 N8 1.326 . S
C7 C11 1.460 . S
C7 H13 0.929 . S
N8 Mn1 2.257 . S
N8 C7 1.326 . S
N8 C12 1.362 1_455 S
C9 C10 1.258 . S
C9 C12 1.431 . S
C9 C29 1.449 . S
C10 C9 1.258 . S
C10 C11 1.477 1_655 S
C10 H30 0.931 . S
C11 C7 1.460 . S
C11 C10 1.477 1_455 S
C11 H31 0.930 . S
C12 N8 1.362 1_655 S
C12 C9 1.431 . S
C12 C22 1.476 . S
H13 C7 0.929 . S
C14 O5 1.250 . S
C14 O6 1.258 . S
O15 Mn0 2.162 . S
O15 C3 1.281 . S
O16 Mn0 2.297 . S
O16 C3 1.236 . S
N17 Mn1 2.282 1_655 S
N17 C18 1.328 . S
N17 C22 1.318 . S
C18 N17 1.328 . S
C18 C19 1.457 . S
C18 H23 0.929 . S
C19 C18 1.457 . S
C19 C20 1.291 . S
C19 H32 0.931 . S
C20 C19 1.291 . S
C20 C21 1.373 . S
C20 H33 0.929 . S
C21 C20 1.373 . S
C21 C22 1.396 . S
C21 C28 1.403 . S
C22 C12 1.476 . S
C22 N17 1.318 . S
C22 C21 1.396 . S
H23 C18 0.929 . S
O24 Mn0 2.385 1_655 S
O24 C2 1.234 . S
O25 Mn0 2.209 . S
O25 Mn1 2.215 . S
O25 C2 1.283 1_455 S
O26 Mn0 2.094 . S
O26 C4 1.240 . S
O27 Mn1 2.117 . S
O27 C4 1.264 . S
C28 C21 1.403 . S
C28 C29 1.399 . S
C28 H34 0.929 . S
C29 C9 1.449 . S
C29 C28 1.399 . S
C29 H35 0.930 . S
H30 C10 0.931 . S
H31 C11 0.930 . S
H32 C19 0.931 . S
H33 C20 0.929 . S
H34 C28 0.929 . S
H35 C29 0.930 . S
Mn36 O41 2.095 . S
Mn36 O51 2.162 . S
Mn36 O52 2.297 . S
Mn36 O60 2.385 . S
Mn36 O61 2.209 . S
Mn36 O62 2.094 . S
Mn37 O42 2.121 . S
Mn37 N44 2.257 . S
Mn37 N53 2.282 . S
Mn37 O61 2.215 . S
Mn37 O63 2.117 . S
C38 O60 1.234 . S
C38 O61 1.283 . S
C39 O51 1.281 . S
C39 O52 1.236 . S
C40 O62 1.240 . S
C40 O63 1.264 . S
O41 Mn36 2.095 . S
O41 C50 1.250 . S
O42 Mn37 2.121 . S
O42 C50 1.258 . S
C43 N44 1.326 . S
C43 C47 1.460 . S
C43 H49 0.929 . S
N44 Mn37 2.257 . S
N44 C43 1.326 . S
N44 C48 1.362 . S
C45 C46 1.258 . S
C45 C48 1.431 . S
C45 C65 1.449 . S
C46 C45 1.258 . S
C46 C47 1.477 . S
C46 H66 0.931 . S
C47 C43 1.460 . S
C47 C46 1.477 . S
C47 H67 0.930 . S
C48 N44 1.362 . S
C48 C45 1.431 . S
C48 C58 1.476 . S
H49 C43 0.929 . S
C50 O41 1.250 . S
C50 O42 1.258 . S
O51 Mn36 2.162 . S
O51 C39 1.281 . S
O52 Mn36 2.297 . S
O52 C39 1.236 . S
N53 Mn37 2.282 . S
N53 C54 1.328 . S
N53 C58 1.318 . S
C54 N53 1.328 . S
C54 C55 1.457 . S
C54 H59 0.929 . S
C55 C54 1.457 . S
C55 C56 1.291 . S
C55 H68 0.931 . S
C56 C55 1.291 . S
C56 C57 1.373 . S
C56 H69 0.929 . S
C57 C56 1.373 . S
C57 C58 1.396 . S
C57 C64 1.403 . S
C58 C48 1.476 . S
C58 N53 1.318 . S
C58 C57 1.396 . S
H59 C54 0.929 . S
O60 Mn36 2.385 . S
O60 C38 1.234 . S
O61 Mn36 2.209 . S
O61 Mn37 2.215 . S
O61 C38 1.283 . S
O62 Mn36 2.094 . S
O62 C40 1.240 . S
O63 Mn37 2.117 . S
O63 C40 1.264 . S
C64 C57 1.403 . S
C64 C65 1.399 . S
C64 H70 0.929 . S
C65 C45 1.449 . S
C65 C64 1.399 . S
C65 H71 0.930 1_655 S
H66 C46 0.931 . S
H67 C47 0.930 . S
H68 C55 0.931 . S
H69 C56 0.929 . S
H70 C64 0.929 . S
H71 C65 0.930 1_455 S
Mn72 O77 2.095 1_545 S
Mn72 O87 2.162 . S
Mn72 O88 2.297 . S
Mn72 O96 2.385 . S
Mn72 O97 2.209 . S
Mn72 O98 2.094 . S
Mn73 O78 2.121 1_545 S
Mn73 N80 2.257 . S
Mn73 N89 2.282 . S
Mn73 O97 2.215 . S
Mn73 O99 2.117 . S
C74 O96 1.234 . S
C74 O97 1.283 . S
C75 O87 1.281 . S
C75 O88 1.236 . S
C76 O98 1.240 . S
C76 O99 1.264 . S
O77 Mn72 2.095 1_565 S
O77 C86 1.250 . S
O78 Mn73 2.121 1_565 S
O78 C86 1.258 . S
C79 N80 1.326 . S
C79 C83 1.460 . S
C79 H85 0.929 1_545 S
N80 Mn73 2.257 . S
N80 C79 1.326 . S
N80 C84 1.362 . S
C81 C82 1.258 . S
C81 C84 1.431 . S
C81 C101 1.449 . S
C82 C81 1.258 . S
C82 C83 1.477 . S
C82 H102 0.931 . S
C83 C79 1.460 . S
C83 C82 1.477 . S
C83 H103 0.930 . S
C84 N80 1.362 . S
C84 C81 1.431 . S
C84 C94 1.476 . S
H85 C79 0.929 1_565 S
C86 O77 1.250 . S
C86 O78 1.258 . S
O87 Mn72 2.162 . S
O87 C75 1.281 . S
O88 Mn72 2.297 . S
O88 C75 1.236 . S
N89 Mn73 2.282 . S
N89 C90 1.328 . S
N89 C94 1.318 . S
C90 N89 1.328 . S
C90 C91 1.457 . S
C90 H95 0.929 . S
C91 C90 1.457 . S
C91 C92 1.291 . S
C91 H104 0.931 . S
C92 C91 1.291 . S
C92 C93 1.373 . S
C92 H105 0.929 . S
C93 C92 1.373 . S
C93 C94 1.396 . S
C93 C100 1.403 . S
C94 C84 1.476 . S
C94 N89 1.318 . S
C94 C93 1.396 . S
H95 C90 0.929 . S
O96 Mn72 2.385 . S
O96 C74 1.234 . S
O97 Mn72 2.209 . S
O97 Mn73 2.215 . S
O97 C74 1.283 . S
O98 Mn72 2.094 . S
O98 C76 1.240 . S
O99 Mn73 2.117 . S
O99 C76 1.264 . S
C100 C93 1.403 . S
C100 C101 1.399 . S
C100 H106 0.929 . S
C101 C81 1.449 . S
C101 C100 1.399 . S
C101 H107 0.930 . S
H102 C82 0.931 . S
H103 C83 0.930 . S
H104 C91 0.931 . S
H105 C92 0.929 . S
H106 C100 0.929 . S
H107 C101 0.930 . S
Mn108 O113 2.095 . S
Mn108 O123 2.162 . S
Mn108 O124 2.297 . S
Mn108 O132 2.385 1_545 S
Mn108 O133 2.209 . S
Mn108 O134 2.094 . S
Mn109 O114 2.121 . S
Mn109 N116 2.257 . S
Mn109 N125 2.282 1_545 S
Mn109 O133 2.215 . S
Mn109 O135 2.117 . S
C110 O132 1.234 . S
C110 O133 1.283 1_565 S
C111 O123 1.281 . S
C111 O124 1.236 . S
C112 O134 1.240 . S
C112 O135 1.264 . S
O113 Mn108 2.095 . S
O113 C122 1.250 . S
O114 Mn109 2.121 . S
O114 C122 1.258 . S
C115 N116 1.326 . S
C115 C119 1.460 . S
C115 H121 0.929 . S
N116 Mn109 2.257 . S
N116 C115 1.326 . S
N116 C120 1.362 1_545 S
C117 C118 1.258 . S
C117 C120 1.431 . S
C117 C137 1.449 . S
C118 C117 1.258 . S
C118 C119 1.477 1_565 S
C118 H138 0.931 . S
C119 C115 1.460 . S
C119 C118 1.477 1_545 S
C119 H139 0.930 . S
C120 N116 1.362 1_565 S
C120 C117 1.431 . S
C120 C130 1.476 . S
H121 C115 0.929 . S
C122 O113 1.250 . S
C122 O114 1.258 . S
O123 Mn108 2.162 . S
O123 C111 1.281 . S
O124 Mn108 2.297 . S
O124 C111 1.236 . S
N125 Mn109 2.282 1_565 S
N125 C126 1.328 . S
N125 C130 1.318 . S
C126 N125 1.328 . S
C126 C127 1.457 . S
C126 H131 0.929 . S
C127 C126 1.457 . S
C127 C128 1.291 . S
C127 H140 0.931 . S
C128 C127 1.291 . S
C128 C129 1.373 . S
C128 H141 0.929 . S
C129 C128 1.373 . S
C129 C130 1.396 . S
C129 C136 1.403 . S
C130 C120 1.476 . S
C130 N125 1.318 . S
C130 C129 1.396 . S
H131 C126 0.929 . S
O132 Mn108 2.385 1_565 S
O132 C110 1.234 . S
O133 Mn108 2.209 . S
O133 Mn109 2.215 . S
O133 C110 1.283 1_545 S
O134 Mn108 2.094 . S
O134 C112 1.240 . S
O135 Mn109 2.117 . S
O135 C112 1.264 . S
C136 C129 1.403 . S
C136 C137 1.399 . S
C136 H142 0.929 . S
C137 C117 1.449 . S
C137 C136 1.399 . S
C137 H143 0.930 . S
H138 C118 0.931 . S
H139 C119 0.930 . S
H140 C127 0.931 . S
H141 C128 0.929 . S
H142 C136 0.929 . S
H143 C137 0.930 . S
Mn144 O149 2.095 1_455 S
Mn144 O159 2.162 . S
Mn144 O160 2.297 . S
Mn144 O168 2.385 . S
Mn144 O169 2.209 . S
Mn144 O170 2.094 . S
Mn145 O150 2.121 1_455 S
Mn145 N152 2.257 . S
Mn145 N161 2.282 . S
Mn145 O169 2.215 . S
Mn145 O171 2.117 . S
C146 O168 1.234 . S
C146 O169 1.283 . S
C147 O159 1.281 . S
C147 O160 1.236 . S
C148 O170 1.240 . S
C148 O171 1.264 . S
O149 Mn144 2.095 1_655 S
O149 C158 1.250 . S
O150 Mn145 2.121 1_655 S
O150 C158 1.258 . S
C151 N152 1.326 . S
C151 C155 1.460 . S
C151 H157 0.929 1_455 S
N152 Mn145 2.257 . S
N152 C151 1.326 . S
N152 C156 1.362 . S
C153 C154 1.258 . S
C153 C156 1.431 . S
C153 C173 1.449 . S
C154 C153 1.258 . S
C154 C155 1.477 . S
C154 H174 0.931 . S
C155 C151 1.460 . S
C155 C154 1.477 . S
C155 H175 0.930 . S
C156 N152 1.362 . S
C156 C153 1.431 . S
C156 C166 1.476 . S
H157 C151 0.929 1_655 S
C158 O149 1.250 . S
C158 O150 1.258 . S
O159 Mn144 2.162 . S
O159 C147 1.281 . S
O160 Mn144 2.297 . S
O160 C147 1.236 . S
N161 Mn145 2.282 . S
N161 C162 1.328 . S
N161 C166 1.318 . S
C162 N161 1.328 . S
C162 C163 1.457 . S
C162 H167 0.929 . S
C163 C162 1.457 . S
C163 C164 1.291 . S
C163 H176 0.931 . S
C164 C163 1.291 . S
C164 C165 1.373 . S
C164 H177 0.929 . S
C165 C164 1.373 . S
C165 C166 1.396 . S
C165 C172 1.403 . S
C166 C156 1.476 . S
C166 N161 1.318 . S
C166 C165 1.396 . S
H167 C162 0.929 . S
O168 Mn144 2.385 . S
O168 C146 1.234 . S
O169 Mn144 2.209 . S
O169 Mn145 2.215 . S
O169 C146 1.283 . S
O170 Mn144 2.094 . S
O170 C148 1.240 . S
O171 Mn145 2.117 . S
O171 C148 1.264 . S
C172 C165 1.403 . S
C172 C173 1.399 . S
C172 H178 0.929 . S
C173 C153 1.449 . S
C173 C172 1.399 . S
C173 H179 0.930 . S
H174 C154 0.931 . S
H175 C155 0.930 . S
H176 C163 0.931 . S
H177 C164 0.929 . S
H178 C172 0.929 . S
H179 C173 0.930 . S
Mn180 O185 2.095 . S
Mn180 O195 2.162 . S
Mn180 O196 2.297 . S
Mn180 O204 2.385 . S
Mn180 O205 2.209 . S
Mn180 O206 2.094 . S
Mn181 O186 2.121 . S
Mn181 N188 2.257 . S
Mn181 N197 2.282 . S
Mn181 O205 2.215 . S
Mn181 O207 2.117 . S
C182 O204 1.234 . S
C182 O205 1.283 . S
C183 O195 1.281 . S
C183 O196 1.236 . S
C184 O206 1.240 . S
C184 O207 1.264 . S
O185 Mn180 2.095 . S
O185 C194 1.250 . S
O186 Mn181 2.121 . S
O186 C194 1.258 . S
C187 N188 1.326 . S
C187 C191 1.460 . S
C187 H193 0.929 . S
N188 Mn181 2.257 . S
N188 C187 1.326 . S
N188 C192 1.362 . S
C189 C190 1.258 . S
C189 C192 1.431 . S
C189 C209 1.449 . S
C190 C189 1.258 . S
C190 C191 1.477 . S
C190 H210 0.931 . S
C191 C187 1.460 . S
C191 C190 1.477 . S
C191 H211 0.930 . S
C192 N188 1.362 . S
C192 C189 1.431 . S
C192 C202 1.476 . S
H193 C187 0.929 . S
C194 O185 1.250 . S
C194 O186 1.258 . S
O195 Mn180 2.162 . S
O195 C183 1.281 . S
O196 Mn180 2.297 . S
O196 C183 1.236 . S
N197 Mn181 2.282 . S
N197 C198 1.328 . S
N197 C202 1.318 . S
C198 N197 1.328 . S
C198 C199 1.457 . S
C198 H203 0.929 . S
C199 C198 1.457 . S
C199 C200 1.291 . S
C199 H212 0.931 . S
C200 C199 1.291 . S
C200 C201 1.373 . S
C200 H213 0.929 . S
C201 C200 1.373 . S
C201 C202 1.396 . S
C201 C208 1.403 . S
C202 C192 1.476 . S
C202 N197 1.318 . S
C202 C201 1.396 . S
H203 C198 0.929 . S
O204 Mn180 2.385 . S
O204 C182 1.234 . S
O205 Mn180 2.209 . S
O205 Mn181 2.215 . S
O205 C182 1.283 . S
O206 Mn180 2.094 . S
O206 C184 1.240 . S
O207 Mn181 2.117 . S
O207 C184 1.264 . S
C208 C201 1.403 . S
C208 C209 1.399 . S
C208 H214 0.929 . S
C209 C189 1.449 . S
C209 C208 1.399 . S
C209 H215 0.930 1_565 S
H210 C190 0.931 . S
H211 C191 0.930 . S
H212 C199 0.931 . S
H213 C200 0.929 . S
H214 C208 0.929 . S
H215 C209 0.930 1_545 S
Mn216 O221 2.095 1_455 S
Mn216 O231 2.162 . S
Mn216 O232 2.297 . S
Mn216 O240 2.385 . S
Mn216 O241 2.209 . S
Mn216 O242 2.094 . S
Mn217 O222 2.121 1_455 S
Mn217 N224 2.257 . S
Mn217 N233 2.282 . S
Mn217 O241 2.215 . S
Mn217 O243 2.117 . S
C218 O240 1.234 . S
C218 O241 1.283 . S
C219 O231 1.281 . S
C219 O232 1.236 . S
C220 O242 1.240 . S
C220 O243 1.264 . S
O221 Mn216 2.095 1_655 S
O221 C230 1.250 . S
O222 Mn217 2.121 1_655 S
O222 C230 1.258 . S
C223 N224 1.326 . S
C223 C227 1.460 . S
C223 H229 0.929 1_455 S
N224 Mn217 2.257 . S
N224 C223 1.326 . S
N224 C228 1.362 . S
C225 C226 1.258 . S
C225 C228 1.431 . S
C225 C245 1.449 . S
C226 C225 1.258 . S
C226 C227 1.477 . S
C226 H246 0.931 . S
C227 C223 1.460 . S
C227 C226 1.477 . S
C227 H247 0.930 . S
C228 N224 1.362 . S
C228 C225 1.431 . S
C228 C238 1.476 . S
H229 C223 0.929 1_655 S
C230 O221 1.250 . S
C230 O222 1.258 . S
O231 Mn216 2.162 . S
O231 C219 1.281 . S
O232 Mn216 2.297 . S
O232 C219 1.236 . S
N233 Mn217 2.282 . S
N233 C234 1.328 . S
N233 C238 1.318 . S
C234 N233 1.328 . S
C234 C235 1.457 . S
C234 H239 0.929 . S
C235 C234 1.457 . S
C235 C236 1.291 . S
C235 H248 0.931 . S
C236 C235 1.291 . S
C236 C237 1.373 . S
C236 H249 0.929 . S
C237 C236 1.373 . S
C237 C238 1.396 . S
C237 C244 1.403 . S
C238 C228 1.476 . S
C238 N233 1.318 . S
C238 C237 1.396 . S
H239 C234 0.929 . S
O240 Mn216 2.385 . S
O240 C218 1.234 . S
O241 Mn216 2.209 . S
O241 Mn217 2.215 . S
O241 C218 1.283 . S
O242 Mn216 2.094 . S
O242 C220 1.240 . S
O243 Mn217 2.117 . S
O243 C220 1.264 . S
C244 C237 1.403 . S
C244 C245 1.399 . S
C244 H250 0.929 . S
C245 C225 1.449 . S
C245 C244 1.399 . S
C245 H251 0.930 1_565 S
H246 C226 0.931 . S
H247 C227 0.930 . S
H248 C235 0.931 . S
H249 C236 0.929 . S
H250 C244 0.929 . S
H251 C245 0.930 1_545 S
Mn252 O257 2.095 . S
Mn252 O267 2.162 . S
Mn252 O268 2.297 . S
Mn252 O276 2.385 . S
Mn252 O277 2.209 . S
Mn252 O278 2.094 . S
Mn253 O258 2.121 . S
Mn253 N260 2.257 . S
Mn253 N269 2.282 . S
Mn253 O277 2.215 . S
Mn253 O279 2.117 . S
C254 O276 1.234 . S
C254 O277 1.283 . S
C255 O267 1.281 . S
C255 O268 1.236 . S
C256 O278 1.240 . S
C256 O279 1.264 . S
O257 Mn252 2.095 . S
O257 C266 1.250 . S
O258 Mn253 2.121 . S
O258 C266 1.258 . S
C259 N260 1.326 . S
C259 C263 1.460 . S
C259 H265 0.929 . S
N260 Mn253 2.257 . S
N260 C259 1.326 . S
N260 C264 1.362 . S
C261 C262 1.258 . S
C261 C264 1.431 . S
C261 C281 1.449 . S
C262 C261 1.258 . S
C262 C263 1.477 . S
C262 H282 0.931 . S
C263 C259 1.460 . S
C263 C262 1.477 . S
C263 H283 0.930 . S
C264 N260 1.362 . S
C264 C261 1.431 . S
C264 C274 1.476 . S
H265 C259 0.929 . S
C266 O257 1.250 . S
C266 O258 1.258 . S
O267 Mn252 2.162 . S
O267 C255 1.281 . S
O268 Mn252 2.297 . S
O268 C255 1.236 . S
N269 Mn253 2.282 . S
N269 C270 1.328 . S
N269 C274 1.318 . S
C270 N269 1.328 . S
C270 C271 1.457 . S
C270 H275 0.929 . S
C271 C270 1.457 . S
C271 C272 1.291 . S
C271 H284 0.931 . S
C272 C271 1.291 . S
C272 C273 1.373 . S
C272 H285 0.929 . S
C273 C272 1.373 . S
C273 C274 1.396 . S
C273 C280 1.403 . S
C274 C264 1.476 . S
C274 N269 1.318 . S
C274 C273 1.396 . S
H275 C270 0.929 . S
O276 Mn252 2.385 . S
O276 C254 1.234 . S
O277 Mn252 2.209 . S
O277 Mn253 2.215 . S
O277 C254 1.283 . S
O278 Mn252 2.094 . S
O278 C256 1.240 . S
O279 Mn253 2.117 . S
O279 C256 1.264 . S
C280 C273 1.403 . S
C280 C281 1.399 . S
C280 H286 0.929 . S
C281 C261 1.449 . S
C281 C280 1.399 . S
C281 H287 0.930 . S
H282 C262 0.931 . S
H283 C263 0.930 . S
H284 C271 0.931 . S
H285 C272 0.929 . S
H286 C280 0.929 . S
H287 C281 0.930 . S
Mn288 O293 2.095 . S
Mn288 O303 2.162 . S
Mn288 O304 2.297 . S
Mn288 O312 2.385 1_545 S
Mn288 O313 2.209 . S
Mn288 O314 2.094 . S
Mn289 O294 2.121 . S
Mn289 N296 2.257 . S
Mn289 N305 2.282 1_545 S
Mn289 O313 2.215 . S
Mn289 O315 2.117 . S
C290 O312 1.234 . S
C290 O313 1.283 1_565 S
C291 O303 1.281 . S
C291 O304 1.236 . S
C292 O314 1.240 . S
C292 O315 1.264 . S
O293 Mn288 2.095 . S
O293 C302 1.250 . S
O294 Mn289 2.121 . S
O294 C302 1.258 . S
C295 N296 1.326 . S
C295 C299 1.460 . S
C295 H301 0.929 . S
N296 Mn289 2.257 . S
N296 C295 1.326 . S
N296 C300 1.362 1_545 S
C297 C298 1.258 . S
C297 C300 1.431 . S
C297 C317 1.449 . S
C298 C297 1.258 . S
C298 C299 1.477 1_565 S
C298 H318 0.931 . S
C299 C295 1.460 . S
C299 C298 1.477 1_545 S
C299 H319 0.930 . S
C300 N296 1.362 1_565 S
C300 C297 1.431 . S
C300 C310 1.476 . S
H301 C295 0.929 . S
C302 O293 1.250 . S
C302 O294 1.258 . S
O303 Mn288 2.162 . S
O303 C291 1.281 . S
O304 Mn288 2.297 . S
O304 C291 1.236 . S
N305 Mn289 2.282 1_565 S
N305 C306 1.328 . S
N305 C310 1.318 . S
C306 N305 1.328 . S
C306 C307 1.457 . S
C306 H311 0.929 . S
C307 C306 1.457 . S
C307 C308 1.291 . S
C307 H320 0.931 . S
C308 C307 1.291 . S
C308 C309 1.373 . S
C308 H321 0.929 . S
C309 C308 1.373 . S
C309 C310 1.396 . S
C309 C316 1.403 . S
C310 C300 1.476 . S
C310 N305 1.318 . S
C310 C309 1.396 . S
H311 C306 0.929 . S
O312 Mn288 2.385 1_565 S
O312 C290 1.234 . S
O313 Mn288 2.209 . S
O313 Mn289 2.215 . S
O313 C290 1.283 1_545 S
O314 Mn288 2.094 . S
O314 C292 1.240 . S
O315 Mn289 2.117 . S
O315 C292 1.264 . S
C316 C309 1.403 . S
C316 C317 1.399 . S
C316 H322 0.929 . S
C317 C297 1.449 . S
C317 C316 1.399 . S
C317 H323 0.930 . S
H318 C298 0.931 . S
H319 C299 0.930 . S
H320 C307 0.931 . S
H321 C308 0.929 . S
H322 C316 0.929 . S
H323 C317 0.930 . S
Mn324 O329 2.095 1_545 S
Mn324 O339 2.162 . S
Mn324 O340 2.297 . S
Mn324 O348 2.385 . S
Mn324 O349 2.209 . S
Mn324 O350 2.094 . S
Mn325 O330 2.121 1_545 S
Mn325 N332 2.257 . S
Mn325 N341 2.282 . S
Mn325 O349 2.215 . S
Mn325 O351 2.117 . S
C326 O348 1.234 . S
C326 O349 1.283 . S
C327 O339 1.281 . S
C327 O340 1.236 . S
C328 O350 1.240 . S
C328 O351 1.264 . S
O329 Mn324 2.095 1_565 S
O329 C338 1.250 . S
O330 Mn325 2.121 1_565 S
O330 C338 1.258 . S
C331 N332 1.326 . S
C331 C335 1.460 . S
C331 H337 0.929 1_545 S
N332 Mn325 2.257 . S
N332 C331 1.326 . S
N332 C336 1.362 . S
C333 C334 1.258 . S
C333 C336 1.431 . S
C333 C353 1.449 . S
C334 C333 1.258 . S
C334 C335 1.477 . S
C334 H354 0.931 . S
C335 C331 1.460 . S
C335 C334 1.477 . S
C335 H355 0.930 . S
C336 N332 1.362 . S
C336 C333 1.431 . S
C336 C346 1.476 . S
H337 C331 0.929 1_565 S
C338 O329 1.250 . S
C338 O330 1.258 . S
O339 Mn324 2.162 . S
O339 C327 1.281 . S
O340 Mn324 2.297 . S
O340 C327 1.236 . S
N341 Mn325 2.282 . S
N341 C342 1.328 . S
N341 C346 1.318 . S
C342 N341 1.328 . S
C342 C343 1.457 . S
C342 H347 0.929 . S
C343 C342 1.457 . S
C343 C344 1.291 . S
C343 H356 0.931 . S
C344 C343 1.291 . S
C344 C345 1.373 . S
C344 H357 0.929 . S
C345 C344 1.373 . S
C345 C346 1.396 . S
C345 C352 1.403 . S
C346 C336 1.476 . S
C346 N341 1.318 . S
C346 C345 1.396 . S
H347 C342 0.929 . S
O348 Mn324 2.385 . S
O348 C326 1.234 . S
O349 Mn324 2.209 . S
O349 Mn325 2.215 . S
O349 C326 1.283 . S
O350 Mn324 2.094 . S
O350 C328 1.240 . S
O351 Mn325 2.117 . S
O351 C328 1.264 . S
C352 C345 1.403 . S
C352 C353 1.399 . S
C352 H358 0.929 . S
C353 C333 1.449 . S
C353 C352 1.399 . S
C353 H359 0.930 1_655 S
H354 C334 0.931 . S
H355 C335 0.930 . S
H356 C343 0.931 . S
H357 C344 0.929 . S
H358 C352 0.929 . S
H359 C353 0.930 1_455 S
Mn360 O365 2.095 . S
Mn360 O375 2.162 . S
Mn360 O376 2.297 . S
Mn360 O384 2.385 1_455 S
Mn360 O385 2.209 . S
Mn360 O386 2.094 . S
Mn361 O366 2.121 . S
Mn361 N368 2.257 . S
Mn361 N377 2.282 1_455 S
Mn361 O385 2.215 . S
Mn361 O387 2.117 . S
C362 O384 1.234 . S
C362 O385 1.283 1_655 S
C363 O375 1.281 . S
C363 O376 1.236 . S
C364 O386 1.240 . S
C364 O387 1.264 . S
O365 Mn360 2.095 . S
O365 C374 1.250 . S
O366 Mn361 2.121 . S
O366 C374 1.258 . S
C367 N368 1.326 . S
C367 C371 1.460 . S
C367 H373 0.929 . S
N368 Mn361 2.257 . S
N368 C367 1.326 . S
N368 C372 1.362 1_455 S
C369 C370 1.258 . S
C369 C372 1.431 . S
C369 C389 1.449 . S
C370 C369 1.258 . S
C370 C371 1.477 1_655 S
C370 H390 0.931 . S
C371 C367 1.460 . S
C371 C370 1.477 1_455 S
C371 H391 0.930 . S
C372 N368 1.362 1_655 S
C372 C369 1.431 . S
C372 C382 1.476 . S
H373 C367 0.929 . S
C374 O365 1.250 . S
C374 O366 1.258 . S
O375 Mn360 2.162 . S
O375 C363 1.281 . S
O376 Mn360 2.297 . S
O376 C363 1.236 . S
N377 Mn361 2.282 1_655 S
N377 C378 1.328 . S
N377 C382 1.318 . S
C378 N377 1.328 . S
C378 C379 1.457 . S
C378 H383 0.929 . S
C379 C378 1.457 . S
C379 C380 1.291 . S
C379 H392 0.931 . S
C380 C379 1.291 . S
C380 C381 1.373 . S
C380 H393 0.929 . S
C381 C380 1.373 . S
C381 C382 1.396 . S
C381 C388 1.403 . S
C382 C372 1.476 . S
C382 N377 1.318 . S
C382 C381 1.396 . S
H383 C378 0.929 . S
O384 Mn360 2.385 1_655 S
O384 C362 1.234 . S
O385 Mn360 2.209 . S
O385 Mn361 2.215 . S
O385 C362 1.283 1_455 S
O386 Mn360 2.094 . S
O386 C364 1.240 . S
O387 Mn361 2.117 . S
O387 C364 1.264 . S
C388 C381 1.403 . S
C388 C389 1.399 . S
C388 H394 0.929 . S
C389 C369 1.449 . S
C389 C388 1.399 . S
C389 H395 0.930 . S
H390 C370 0.931 . S
H391 C371 0.930 . S
H392 C379 0.931 . S
H393 C380 0.929 . S
H394 C388 0.929 . S
H395 C389 0.930 . S
Mn396 O401 2.095 . S
Mn396 O411 2.162 . S
Mn396 O412 2.297 . S
Mn396 O420 2.385 . S
Mn396 O421 2.209 . S
Mn396 O422 2.094 . S
Mn397 O402 2.121 . S
Mn397 N404 2.257 . S
Mn397 N413 2.282 . S
Mn397 O421 2.215 . S
Mn397 O423 2.117 . S
C398 O420 1.234 . S
C398 O421 1.283 . S
C399 O411 1.281 . S
C399 O412 1.236 . S
C400 O422 1.240 . S
C400 O423 1.264 . S
O401 Mn396 2.095 . S
O401 C410 1.250 . S
O402 Mn397 2.121 . S
O402 C410 1.258 . S
C403 N404 1.326 . S
C403 C407 1.460 . S
C403 H409 0.929 . S
N404 Mn397 2.257 . S
N404 C403 1.326 . S
N404 C408 1.362 . S
C405 C406 1.258 . S
C405 C408 1.431 . S
C405 C425 1.449 . S
C406 C405 1.258 . S
C406 C407 1.477 . S
C406 H426 0.931 . S
C407 C403 1.460 . S
C407 C406 1.477 . S
C407 H427 0.930 . S
C408 N404 1.362 . S
C408 C405 1.431 . S
C408 C418 1.476 . S
H409 C403 0.929 . S
C410 O401 1.250 . S
C410 O402 1.258 . S
O411 Mn396 2.162 . S
O411 C399 1.281 . S
O412 Mn396 2.297 . S
O412 C399 1.236 . S
N413 Mn397 2.282 . S
N413 C414 1.328 . S
N413 C418 1.318 . S
C414 N413 1.328 . S
C414 C415 1.457 . S
C414 H419 0.929 . S
C415 C414 1.457 . S
C415 C416 1.291 . S
C415 H428 0.931 . S
C416 C415 1.291 . S
C416 C417 1.373 . S
C416 H429 0.929 . S
C417 C416 1.373 . S
C417 C418 1.396 . S
C417 C424 1.403 . S
C418 C408 1.476 . S
C418 N413 1.318 . S
C418 C417 1.396 . S
H419 C414 0.929 . S
O420 Mn396 2.385 . S
O420 C398 1.234 . S
O421 Mn396 2.209 . S
O421 Mn397 2.215 . S
O421 C398 1.283 . S
O422 Mn396 2.094 . S
O422 C400 1.240 . S
O423 Mn397 2.117 . S
O423 C400 1.264 . S
C424 C417 1.403 . S
C424 C425 1.399 . S
C424 H430 0.929 . S
C425 C405 1.449 . S
C425 C424 1.399 . S
C425 H431 0.930 . S
H426 C406 0.931 . S
H427 C407 0.930 . S
H428 C415 0.931 . S
H429 C416 0.929 . S
H430 C424 0.929 . S
H431 C425 0.930 . S
Mn432 O437 2.095 . S
Mn432 O447 2.162 . S
Mn432 O448 2.297 . S
Mn432 O456 2.385 . S
Mn432 O457 2.209 . S
Mn432 O458 2.094 . S
Mn433 O438 2.121 . S
Mn433 N440 2.257 . S
Mn433 N449 2.282 . S
Mn433 O457 2.215 . S
Mn433 O459 2.117 . S
C434 O456 1.234 . S
C434 O457 1.283 . S
C435 O447 1.281 . S
C435 O448 1.236 . S
C436 O458 1.240 . S
C436 O459 1.264 . S
O437 Mn432 2.095 . S
O437 C446 1.250 . S
O438 Mn433 2.121 . S
O438 C446 1.258 . S
C439 N440 1.326 . S
C439 C443 1.460 . S
C439 H445 0.929 . S
N440 Mn433 2.257 . S
N440 C439 1.326 . S
N440 C444 1.362 . S
C441 C442 1.258 . S
C441 C444 1.431 . S
C441 C461 1.449 . S
C442 C441 1.258 . S
C442 C443 1.477 . S
C442 H462 0.931 . S
C443 C439 1.460 . S
C443 C442 1.477 . S
C443 H463 0.930 . S
C444 N440 1.362 . S
C444 C441 1.431 . S
C444 C454 1.476 . S
H445 C439 0.929 . S
C446 O437 1.250 . S
C446 O438 1.258 . S
O447 Mn432 2.162 . S
O447 C435 1.281 . S
O448 Mn432 2.297 . S
O448 C435 1.236 . S
N449 Mn433 2.282 . S
N449 C450 1.328 . S
N449 C454 1.318 . S
C450 N449 1.328 . S
C450 C451 1.457 . S
C450 H455 0.929 . S
C451 C450 1.457 . S
C451 C452 1.291 . S
C451 H464 0.931 . S
C452 C451 1.291 . S
C452 C453 1.373 . S
C452 H465 0.929 . S
C453 C452 1.373 . S
C453 C454 1.396 . S
C453 C460 1.403 . S
C454 C444 1.476 . S
C454 N449 1.318 . S
C454 C453 1.396 . S
H455 C450 0.929 . S
O456 Mn432 2.385 . S
O456 C434 1.234 . S
O457 Mn432 2.209 . S
O457 Mn433 2.215 . S
O457 C434 1.283 . S
O458 Mn432 2.094 . S
O458 C436 1.240 . S
O459 Mn433 2.117 . S
O459 C436 1.264 . S
C460 C453 1.403 . S
C460 C461 1.399 . S
C460 H466 0.929 . S
C461 C441 1.449 . S
C461 C460 1.399 . S
C461 H467 0.930 . S
H462 C442 0.931 . S
H463 C443 0.930 . S
H464 C451 0.931 . S
H465 C452 0.929 . S
H466 C460 0.929 . S
H467 C461 0.930 . S
Mn468 O473 2.095 . S
Mn468 O483 2.162 . S
Mn468 O484 2.297 . S
Mn468 O492 2.385 . S
Mn468 O493 2.209 . S
Mn468 O494 2.094 . S
Mn469 O474 2.121 . S
Mn469 N476 2.257 . S
Mn469 N485 2.282 . S
Mn469 O493 2.215 . S
Mn469 O495 2.117 . S
C470 O492 1.234 . S
C470 O493 1.283 . S
C471 O483 1.281 . S
C471 O484 1.236 . S
C472 O494 1.240 . S
C472 O495 1.264 . S
O473 Mn468 2.095 . S
O473 C482 1.250 . S
O474 Mn469 2.121 . S
O474 C482 1.258 . S
C475 N476 1.326 . S
C475 C479 1.460 . S
C475 H481 0.929 . S
N476 Mn469 2.257 . S
N476 C475 1.326 . S
N476 C480 1.362 . S
C477 C478 1.258 . S
C477 C480 1.431 . S
C477 C497 1.449 . S
C478 C477 1.258 . S
C478 C479 1.477 . S
C478 H498 0.931 . S
C479 C475 1.460 . S
C479 C478 1.477 . S
C479 H499 0.930 . S
C480 N476 1.362 . S
C480 C477 1.431 . S
C480 C490 1.476 . S
H481 C475 0.929 . S
C482 O473 1.250 . S
C482 O474 1.258 . S
O483 Mn468 2.162 . S
O483 C471 1.281 . S
O484 Mn468 2.297 . S
O484 C471 1.236 . S
N485 Mn469 2.282 . S
N485 C486 1.328 . S
N485 C490 1.318 . S
C486 N485 1.328 . S
C486 C487 1.457 . S
C486 H491 0.929 . S
C487 C486 1.457 . S
C487 C488 1.291 . S
C487 H500 0.931 . S
C488 C487 1.291 . S
C488 C489 1.373 . S
C488 H501 0.929 . S
C489 C488 1.373 . S
C489 C490 1.396 . S
C489 C496 1.403 . S
C490 C480 1.476 . S
C490 N485 1.318 . S
C490 C489 1.396 . S
H491 C486 0.929 . S
O492 Mn468 2.385 . S
O492 C470 1.234 . S
O493 Mn468 2.209 . S
O493 Mn469 2.215 . S
O493 C470 1.283 . S
O494 Mn468 2.094 . S
O494 C472 1.240 . S
O495 Mn469 2.117 . S
O495 C472 1.264 . S
C496 C489 1.403 . S
C496 C497 1.399 . S
C496 H502 0.929 . S
C497 C477 1.449 . S
C497 C496 1.399 . S
C497 H503 0.930 . S
H498 C478 0.931 . S
H499 C479 0.930 . S
H500 C487 0.931 . S
H501 C488 0.929 . S
H502 C496 0.929 . S
H503 C497 0.930 . S
Mn504 O509 2.095 . S
Mn504 O519 2.162 1_655 S
Mn504 O520 2.297 . S
Mn504 O528 2.385 1_655 S
Mn504 O529 2.209 . S
Mn504 O530 2.094 . S
Mn505 O510 2.121 . S
Mn505 N512 2.257 . S
Mn505 N521 2.282 . S
Mn505 O529 2.215 . S
Mn505 O531 2.117 . S
C506 O528 1.234 1_655 S
C506 O529 1.283 . S
C507 O519 1.281 . S
C507 O520 1.236 1_455 S
C508 O530 1.240 . S
C508 O531 1.264 . S
O509 Mn504 2.095 . S
O509 C518 1.250 . S
O510 Mn505 2.121 . S
O510 C518 1.258 . S
C511 N512 1.326 . S
C511 C515 1.460 . S
C511 H517 0.929 . S
N512 Mn505 2.257 . S
N512 C511 1.326 . S
N512 C516 1.362 . S
C513 C514 1.258 . S
C513 C516 1.431 . S
C513 C533 1.449 . S
C514 C513 1.258 . S
C514 C515 1.477 . S
C514 H534 0.931 . S
C515 C511 1.460 . S
C515 C514 1.477 . S
C515 H535 0.930 . S
C516 N512 1.362 . S
C516 C513 1.431 . S
C516 C526 1.476 . S
H517 C511 0.929 . S
C518 O509 1.250 . S
C518 O510 1.258 . S
O519 Mn504 2.162 1_455 S
O519 C507 1.281 . S
O520 Mn504 2.297 . S
O520 C507 1.236 1_655 S
N521 Mn505 2.282 . S
N521 C522 1.328 . S
N521 C526 1.318 . S
C522 N521 1.328 . S
C522 C523 1.457 . S
C522 H527 0.929 . S
C523 C522 1.457 . S
C523 C524 1.291 . S
C523 H536 0.931 . S
C524 C523 1.291 . S
C524 C525 1.373 . S
C524 H537 0.929 . S
C525 C524 1.373 . S
C525 C526 1.396 . S
C525 C532 1.403 . S
C526 C516 1.476 . S
C526 N521 1.318 . S
C526 C525 1.396 . S
H527 C522 0.929 . S
O528 Mn504 2.385 1_455 S
O528 C506 1.234 1_455 S
O529 Mn504 2.209 . S
O529 Mn505 2.215 . S
O529 C506 1.283 . S
O530 Mn504 2.094 . S
O530 C508 1.240 . S
O531 Mn505 2.117 . S
O531 C508 1.264 . S
C532 C525 1.403 . S
C532 C533 1.399 . S
C532 H538 0.929 . S
C533 C513 1.449 . S
C533 C532 1.399 . S
C533 H539 0.930 . S
H534 C514 0.931 . S
H535 C515 0.930 . S
H536 C523 0.931 . S
H537 C524 0.929 . S
H538 C532 0.929 . S
H539 C533 0.930 . S
Mn540 O545 2.095 . S
Mn540 O555 2.162 1_655 S
Mn540 O556 2.297 . S
Mn540 O564 2.385 . S
Mn540 O565 2.209 . S
Mn540 O566 2.094 . S
Mn541 O546 2.121 . S
Mn541 N548 2.257 . S
Mn541 N557 2.282 . S
Mn541 O565 2.215 . S
Mn541 O567 2.117 . S
C542 O564 1.234 . S
C542 O565 1.283 . S
C543 O555 1.289 . S
C543 O556 1.220 1_455 S
C544 O566 1.240 . S
C544 O567 1.264 . S
O545 Mn540 2.095 . S
O545 C554 1.250 . S
O546 Mn541 2.121 . S
O546 C554 1.258 . S
C547 N548 1.326 . S
C547 C551 1.460 . S
C547 H553 0.929 . S
N548 Mn541 2.257 . S
N548 C547 1.326 . S
N548 C552 1.362 . S
C549 C550 1.258 . S
C549 C552 1.431 . S
C549 C569 1.449 . S
C550 C549 1.258 . S
C550 C551 1.477 . S
C550 H570 0.931 . S
C551 C547 1.460 . S
C551 C550 1.477 . S
C551 H571 0.930 . S
C552 N548 1.362 . S
C552 C549 1.431 . S
C552 C562 1.476 . S
H553 C547 0.929 . S
C554 O545 1.250 . S
C554 O546 1.258 . S
O555 Mn540 2.162 1_455 S
O555 C543 1.289 . S
O556 Mn540 2.297 . S
O556 C543 1.220 1_655 S
N557 Mn541 2.282 . S
N557 C558 1.328 . S
N557 C562 1.318 . S
C558 N557 1.328 . S
C558 C559 1.457 . S
C558 H563 0.929 . S
C559 C558 1.457 . S
C559 C560 1.291 . S
C559 H572 0.931 . S
C560 C559 1.291 . S
C560 C561 1.373 . S
C560 H573 0.929 . S
C561 C560 1.373 . S
C561 C562 1.396 . S
C561 C568 1.403 . S
C562 C552 1.476 . S
C562 N557 1.318 . S
C562 C561 1.396 . S
H563 C558 0.929 . S
O564 Mn540 2.385 . S
O564 C542 1.234 . S
O565 Mn540 2.209 . S
O565 Mn541 2.215 . S
O565 C542 1.283 . S
O566 Mn540 2.094 . S
O566 C544 1.240 . S
O567 Mn541 2.117 . S
O567 C544 1.264 . S
C568 C561 1.403 . S
C568 C569 1.399 . S
C568 H574 0.929 . S
C569 C549 1.449 . S
C569 C568 1.399 . S
C569 H575 0.930 . S
H570 C550 0.931 . S
H571 C551 0.930 . S
H572 C559 0.931 . S
H573 C560 0.929 . S
H574 C568 0.929 . S
H575 C569 0.930 . S
Mn576 O581 2.095 . S
Mn576 O591 2.162 . S
Mn576 O592 2.297 . S
Mn576 O600 2.385 . S
Mn576 O601 2.209 . S
Mn576 O602 2.094 . S
Mn577 O582 2.121 . S
Mn577 N584 2.257 . S
Mn577 N593 2.282 . S
Mn577 O601 2.215 . S
Mn577 O603 2.117 . S
C578 O600 1.234 . S
C578 O601 1.283 . S
C579 O591 1.281 . S
C579 O592 1.236 . S
C580 O602 1.240 . S
C580 O603 1.264 . S
O581 Mn576 2.095 . S
O581 C590 1.250 . S
O582 Mn577 2.121 . S
O582 C590 1.258 . S
C583 N584 1.326 . S
C583 C587 1.460 . S
C583 H589 0.929 . S
N584 Mn577 2.257 . S
N584 C583 1.326 . S
N584 C588 1.362 . S
C585 C586 1.258 . S
C585 C588 1.431 . S
C585 C605 1.449 . S
C586 C585 1.258 . S
C586 C587 1.477 . S
C586 H606 0.931 . S
C587 C583 1.460 . S
C587 C586 1.477 . S
C587 H607 0.930 . S
C588 N584 1.362 . S
C588 C585 1.431 . S
C588 C598 1.476 . S
H589 C583 0.929 . S
C590 O581 1.250 . S
C590 O582 1.258 . S
O591 Mn576 2.162 . S
O591 C579 1.281 . S
O592 Mn576 2.297 . S
O592 C579 1.236 . S
N593 Mn577 2.282 . S
N593 C594 1.328 . S
N593 C598 1.318 . S
C594 N593 1.328 . S
C594 C595 1.457 . S
C594 H599 0.929 . S
C595 C594 1.457 . S
C595 C596 1.291 . S
C595 H608 0.931 . S
C596 C595 1.291 . S
C596 C597 1.373 . S
C596 H609 0.929 . S
C597 C596 1.373 . S
C597 C598 1.396 . S
C597 C604 1.403 . S
C598 C588 1.476 . S
C598 N593 1.318 . S
C598 C597 1.396 . S
H599 C594 0.929 . S
O600 Mn576 2.385 . S
O600 C578 1.234 . S
O601 Mn576 2.209 . S
O601 Mn577 2.215 . S
O601 C578 1.283 . S
O602 Mn576 2.094 . S
O602 C580 1.240 . S
O603 Mn577 2.117 . S
O603 C580 1.264 . S
C604 C597 1.403 . S
C604 C605 1.399 . S
C604 H610 0.929 . S
C605 C585 1.449 . S
C605 C604 1.399 . S
C605 H611 0.930 . S
H606 C586 0.931 . S
H607 C587 0.930 . S
H608 C595 0.931 . S
H609 C596 0.929 . S
H610 C604 0.929 . S
H611 C605 0.930 . S
Mn612 O617 2.095 . S
Mn612 O627 2.162 . S
Mn612 O628 2.297 . S
Mn612 O636 2.385 . S
Mn612 O637 2.209 . S
Mn612 O638 2.094 . S
Mn613 O618 2.121 . S
Mn613 N620 2.257 . S
Mn613 N629 2.282 . S
Mn613 O637 2.215 . S
Mn613 O639 2.117 . S
C614 O636 1.234 . S
C614 O637 1.283 . S
C615 O627 1.281 . S
C615 O628 1.236 . S
C616 O638 1.240 . S
C616 O639 1.264 . S
O617 Mn612 2.095 . S
O617 C626 1.250 . S
O618 Mn613 2.121 . S
O618 C626 1.258 . S
C619 N620 1.326 . S
C619 C623 1.460 . S
C619 H625 0.929 . S
N620 Mn613 2.257 . S
N620 C619 1.326 . S
N620 C624 1.362 . S
C621 C622 1.258 . S
C621 C624 1.431 . S
C621 C641 1.449 . S
C622 C621 1.258 . S
C622 C623 1.477 . S
C622 H642 0.931 . S
C623 C619 1.460 . S
C623 C622 1.477 . S
C623 H643 0.930 . S
C624 N620 1.362 . S
C624 C621 1.431 . S
C624 C634 1.476 . S
H625 C619 0.929 . S
C626 O617 1.250 . S
C626 O618 1.258 . S
O627 Mn612 2.162 . S
O627 C615 1.281 . S
O628 Mn612 2.297 . S
O628 C615 1.236 . S
N629 Mn613 2.282 . S
N629 C630 1.328 . S
N629 C634 1.318 . S
C630 N629 1.328 . S
C630 C631 1.457 . S
C630 H635 0.929 . S
C631 C630 1.457 . S
C631 C632 1.291 . S
C631 H644 0.931 . S
C632 C631 1.291 . S
C632 C633 1.373 . S
C632 H645 0.929 . S
C633 C632 1.373 . S
C633 C634 1.396 . S
C633 C640 1.403 . S
C634 C624 1.476 . S
C634 N629 1.318 . S
C634 C633 1.396 . S
H635 C630 0.929 . S
O636 Mn612 2.385 . S
O636 C614 1.234 . S
O637 Mn612 2.209 . S
O637 Mn613 2.215 . S
O637 C614 1.283 . S
O638 Mn612 2.094 . S
O638 C616 1.240 . S
O639 Mn613 2.117 . S
O639 C616 1.264 . S
C640 C633 1.403 . S
C640 C641 1.399 . S
C640 H646 0.929 . S
C641 C621 1.449 . S
C641 C640 1.399 . S
C641 H647 0.930 . S
H642 C622 0.931 . S
H643 C623 0.930 . S
H644 C631 0.931 . S
H645 C632 0.929 . S
H646 C640 0.929 . S
H647 C641 0.930 . S
Mn648 O653 2.095 . S
Mn648 O663 2.162 . S
Mn648 O664 2.297 . S
Mn648 O672 2.385 . S
Mn648 O673 2.209 . S
Mn648 O674 2.094 . S
Mn649 O654 2.121 . S
Mn649 N656 2.257 . S
Mn649 N665 2.282 . S
Mn649 O673 2.215 . S
Mn649 O675 2.117 . S
C650 O672 1.234 . S
C650 O673 1.283 . S
C651 O663 1.281 . S
C651 O664 1.236 . S
C652 O674 1.240 . S
C652 O675 1.264 . S
O653 Mn648 2.095 . S
O653 C662 1.250 . S
O654 Mn649 2.121 . S
O654 C662 1.258 . S
C655 N656 1.326 . S
C655 C659 1.460 . S
C655 H661 0.929 . S
N656 Mn649 2.257 . S
N656 C655 1.326 . S
N656 C660 1.362 . S
C657 C658 1.258 . S
C657 C660 1.431 . S
C657 C677 1.449 . S
C658 C657 1.258 . S
C658 C659 1.477 . S
C658 H678 0.931 . S
C659 C655 1.460 . S
C659 C658 1.477 . S
C659 H679 0.930 . S
C660 N656 1.362 . S
C660 C657 1.431 . S
C660 C670 1.476 . S
H661 C655 0.929 . S
C662 O653 1.250 . S
C662 O654 1.258 . S
O663 Mn648 2.162 . S
O663 C651 1.281 . S
O664 Mn648 2.297 . S
O664 C651 1.236 . S
N665 Mn649 2.282 . S
N665 C666 1.328 . S
N665 C670 1.318 . S
C666 N665 1.328 . S
C666 C667 1.457 . S
C666 H671 0.929 . S
C667 C666 1.457 . S
C667 C668 1.291 . S
C667 H680 0.931 . S
C668 C667 1.291 . S
C668 C669 1.373 . S
C668 H681 0.929 . S
C669 C668 1.373 . S
C669 C670 1.396 . S
C669 C676 1.403 . S
C670 C660 1.476 . S
C670 N665 1.318 . S
C670 C669 1.396 . S
H671 C666 0.929 . S
O672 Mn648 2.385 . S
O672 C650 1.234 . S
O673 Mn648 2.209 . S
O673 Mn649 2.215 . S
O673 C650 1.283 . S
O674 Mn648 2.094 . S
O674 C652 1.240 . S
O675 Mn649 2.117 . S
O675 C652 1.264 . S
C676 C669 1.403 . S
C676 C677 1.399 . S
C676 H682 0.929 . S
C677 C657 1.449 . S
C677 C676 1.399 . S
C677 H683 0.930 . S
H678 C658 0.931 . S
H679 C659 0.930 . S
H680 C667 0.931 . S
H681 C668 0.929 . S
H682 C676 0.929 . S
H683 C677 0.930 . S
Mn684 O689 2.095 . S
Mn684 O699 2.162 1_655 S
Mn684 O700 2.297 . S
Mn684 O708 2.385 . S
Mn684 O709 2.209 . S
Mn684 O710 2.094 . S
Mn685 O690 2.121 . S
Mn685 N692 2.257 . S
Mn685 N701 2.282 . S
Mn685 O709 2.215 . S
Mn685 O711 2.117 . S
C686 O708 1.234 . S
C686 O709 1.283 . S
C687 O699 1.286 . S
C687 O700 1.228 1_455 S
C688 O710 1.240 . S
C688 O711 1.264 . S
O689 Mn684 2.095 . S
O689 C698 1.250 . S
O690 Mn685 2.121 . S
O690 C698 1.258 . S
C691 N692 1.326 . S
C691 C695 1.460 . S
C691 H697 0.929 . S
N692 Mn685 2.257 . S
N692 C691 1.326 . S
N692 C696 1.362 . S
C693 C694 1.258 . S
C693 C696 1.431 . S
C693 C713 1.449 . S
C694 C693 1.258 . S
C694 C695 1.477 . S
C694 H714 0.931 . S
C695 C691 1.460 . S
C695 C694 1.477 . S
C695 H715 0.930 . S
C696 N692 1.362 . S
C696 C693 1.431 . S
C696 C706 1.476 . S
H697 C691 0.929 . S
C698 O689 1.250 . S
C698 O690 1.258 . S
O699 Mn684 2.162 1_455 S
O699 C687 1.286 . S
O700 Mn684 2.297 . S
O700 C687 1.228 1_655 S
N701 Mn685 2.282 . S
N701 C702 1.328 . S
N701 C706 1.318 . S
C702 N701 1.328 . S
C702 C703 1.457 . S
C702 H707 0.929 . S
C703 C702 1.457 . S
C703 C704 1.291 . S
C703 H716 0.931 . S
C704 C703 1.291 . S
C704 C705 1.373 . S
C704 H717 0.929 . S
C705 C704 1.373 . S
C705 C706 1.396 . S
C705 C712 1.403 . S
C706 C696 1.476 . S
C706 N701 1.318 . S
C706 C705 1.396 . S
H707 C702 0.929 . S
O708 Mn684 2.385 . S
O708 C686 1.234 . S
O709 Mn684 2.209 . S
O709 Mn685 2.215 . S
O709 C686 1.283 . S
O710 Mn684 2.094 . S
O710 C688 1.240 . S
O711 Mn685 2.117 . S
O711 C688 1.264 . S
C712 C705 1.403 . S
C712 C713 1.399 . S
C712 H718 0.929 . S
C713 C693 1.449 . S
C713 C712 1.399 . S
C713 H719 0.930 . S
H714 C694 0.931 . S
H715 C695 0.930 . S
H716 C703 0.931 . S
H717 C704 0.929 . S
H718 C712 0.929 . S
H719 C713 0.930 . S
Mn720 O725 2.095 . S
Mn720 O735 2.162 . S
Mn720 O736 2.297 . S
Mn720 O744 2.385 . S
Mn720 O745 2.209 . S
Mn720 O746 2.094 . S
Mn721 O726 2.121 . S
Mn721 N728 2.257 . S
Mn721 N737 2.282 . S
Mn721 O745 2.215 . S
Mn721 O747 2.117 . S
C722 O744 1.234 . S
C722 O745 1.283 . S
C723 O735 1.281 . S
C723 O736 1.236 . S
C724 O746 1.240 . S
C724 O747 1.264 . S
O725 Mn720 2.095 . S
O725 C734 1.250 . S
O726 Mn721 2.121 . S
O726 C734 1.258 . S
C727 N728 1.326 . S
C727 C731 1.460 . S
C727 H733 0.929 . S
N728 Mn721 2.257 . S
N728 C727 1.326 . S
N728 C732 1.362 . S
C729 C730 1.258 . S
C729 C732 1.431 . S
C729 C749 1.449 . S
C730 C729 1.258 . S
C730 C731 1.477 . S
C730 H750 0.931 . S
C731 C727 1.460 . S
C731 C730 1.477 . S
C731 H751 0.930 . S
C732 N728 1.362 . S
C732 C729 1.431 . S
C732 C742 1.476 . S
H733 C727 0.929 . S
C734 O725 1.250 . S
C734 O726 1.258 . S
O735 Mn720 2.162 . S
O735 C723 1.281 . S
O736 Mn720 2.297 . S
O736 C723 1.236 . S
N737 Mn721 2.282 . S
N737 C738 1.328 . S
N737 C742 1.318 . S
C738 N737 1.328 . S
C738 C739 1.457 . S
C738 H743 0.929 . S
C739 C738 1.457 . S
C739 C740 1.291 . S
C739 H752 0.931 . S
C740 C739 1.291 . S
C740 C741 1.373 . S
C740 H753 0.929 . S
C741 C740 1.373 . S
C741 C742 1.396 . S
C741 C748 1.403 . S
C742 C732 1.476 . S
C742 N737 1.318 . S
C742 C741 1.396 . S
H743 C738 0.929 . S
O744 Mn720 2.385 . S
O744 C722 1.234 . S
O745 Mn720 2.209 . S
O745 Mn721 2.215 . S
O745 C722 1.283 . S
O746 Mn720 2.094 . S
O746 C724 1.240 . S
O747 Mn721 2.117 . S
O747 C724 1.264 . S
C748 C741 1.403 . S
C748 C749 1.399 . S
C748 H754 0.929 . S
C749 C729 1.449 . S
C749 C748 1.399 . S
C749 H755 0.930 . S
H750 C730 0.931 . S
H751 C731 0.930 . S
H752 C739 0.931 . S
H753 C740 0.929 . S
H754 C748 0.929 . S
H755 C749 0.930 . S
Mn756 O761 2.095 . S
Mn756 O771 2.162 . S
Mn756 O772 2.297 . S
Mn756 O780 2.385 . S
Mn756 O781 2.209 . S
Mn756 O782 2.094 . S
Mn757 O762 2.121 . S
Mn757 N764 2.257 . S
Mn757 N773 2.282 . S
Mn757 O781 2.215 . S
Mn757 O783 2.117 . S
C758 O780 1.234 . S
C758 O781 1.283 . S
C759 O771 1.281 . S
C759 O772 1.236 . S
C760 O782 1.240 . S
C760 O783 1.264 . S
O761 Mn756 2.095 . S
O761 C770 1.250 . S
O762 Mn757 2.121 . S
O762 C770 1.258 . S
C763 N764 1.326 . S
C763 C767 1.460 . S
C763 H769 0.929 . S
N764 Mn757 2.257 . S
N764 C763 1.326 . S
N764 C768 1.362 . S
C765 C766 1.258 . S
C765 C768 1.431 . S
C765 C785 1.449 . S
C766 C765 1.258 . S
C766 C767 1.477 . S
C766 H786 0.931 . S
C767 C763 1.460 . S
C767 C766 1.477 . S
C767 H787 0.930 . S
C768 N764 1.362 . S
C768 C765 1.431 . S
C768 C778 1.476 . S
H769 C763 0.929 . S
C770 O761 1.250 . S
C770 O762 1.258 . S
O771 Mn756 2.162 . S
O771 C759 1.281 . S
O772 Mn756 2.297 . S
O772 C759 1.236 . S
N773 Mn757 2.282 . S
N773 C774 1.328 . S
N773 C778 1.318 . S
C774 N773 1.328 . S
C774 C775 1.457 . S
C774 H779 0.929 . S
C775 C774 1.457 . S
C775 C776 1.291 . S
C775 H788 0.931 . S
C776 C775 1.291 . S
C776 C777 1.373 . S
C776 H789 0.929 . S
C777 C776 1.373 . S
C777 C778 1.396 . S
C777 C784 1.403 . S
C778 C768 1.476 . S
C778 N773 1.318 . S
C778 C777 1.396 . S
H779 C774 0.929 . S
O780 Mn756 2.385 . S
O780 C758 1.234 . S
O781 Mn756 2.209 . S
O781 Mn757 2.215 . S
O781 C758 1.283 . S
O782 Mn756 2.094 . S
O782 C760 1.240 . S
O783 Mn757 2.117 . S
O783 C760 1.264 . S
C784 C777 1.403 . S
C784 C785 1.399 . S
C784 H790 0.929 . S
C785 C765 1.449 . S
C785 C784 1.399 . S
C785 H791 0.930 . S
H786 C766 0.931 . S
H787 C767 0.930 . S
H788 C775 0.931 . S
H789 C776 0.929 . S
H790 C784 0.929 . S
H791 C785 0.930 . S
Mn792 O797 2.095 . S
Mn792 O807 2.162 . S
Mn792 O808 2.297 . S
Mn792 O816 2.385 . S
Mn792 O817 2.209 . S
Mn792 O818 2.094 . S
Mn793 O798 2.121 . S
Mn793 N800 2.257 . S
Mn793 N809 2.282 . S
Mn793 O817 2.215 . S
Mn793 O819 2.117 . S
C794 O816 1.234 . S
C794 O817 1.283 . S
C795 O807 1.281 . S
C795 O808 1.236 . S
C796 O818 1.240 . S
C796 O819 1.264 . S
O797 Mn792 2.095 . S
O797 C806 1.250 . S
O798 Mn793 2.121 . S
O798 C806 1.258 . S
C799 N800 1.326 . S
C799 C803 1.460 . S
C799 H805 0.929 . S
N800 Mn793 2.257 . S
N800 C799 1.326 . S
N800 C804 1.362 . S
C801 C802 1.258 . S
C801 C804 1.431 . S
C801 C821 1.449 . S
C802 C801 1.258 . S
C802 C803 1.477 . S
C802 H822 0.931 . S
C803 C799 1.460 . S
C803 C802 1.477 . S
C803 H823 0.930 . S
C804 N800 1.362 . S
C804 C801 1.431 . S
C804 C814 1.476 . S
H805 C799 0.929 . S
C806 O797 1.250 . S
C806 O798 1.258 . S
O807 Mn792 2.162 . S
O807 C795 1.281 . S
O808 Mn792 2.297 . S
O808 C795 1.236 . S
N809 Mn793 2.282 . S
N809 C810 1.328 . S
N809 C814 1.318 . S
C810 N809 1.328 . S
C810 C811 1.457 . S
C810 H815 0.929 . S
C811 C810 1.457 . S
C811 C812 1.291 . S
C811 H824 0.931 . S
C812 C811 1.291 . S
C812 C813 1.373 . S
C812 H825 0.929 . S
C813 C812 1.373 . S
C813 C814 1.396 . S
C813 C820 1.403 . S
C814 C804 1.476 . S
C814 N809 1.318 . S
C814 C813 1.396 . S
H815 C810 0.929 . S
O816 Mn792 2.385 . S
O816 C794 1.234 . S
O817 Mn792 2.209 . S
O817 Mn793 2.215 . S
O817 C794 1.283 . S
O818 Mn792 2.094 . S
O818 C796 1.240 . S
O819 Mn793 2.117 . S
O819 C796 1.264 . S
C820 C813 1.403 . S
C820 C821 1.399 . S
C820 H826 0.929 . S
C821 C801 1.449 . S
C821 C820 1.399 . S
C821 H827 0.930 . S
H822 C802 0.931 . S
H823 C803 0.930 . S
H824 C811 0.931 . S
H825 C812 0.929 . S
H826 C820 0.929 . S
H827 C821 0.930 . S
Mn828 O833 2.095 . S
Mn828 O843 2.162 1_655 S
Mn828 O844 2.297 . S
Mn828 O852 2.385 1_655 S
Mn828 O853 2.209 . S
Mn828 O854 2.094 . S
Mn829 O834 2.121 . S
Mn829 N836 2.257 . S
Mn829 N845 2.282 . S
Mn829 O853 2.215 . S
Mn829 O855 2.117 . S
C830 O852 1.234 1_655 S
C830 O853 1.283 . S
C831 O843 1.281 . S
C831 O844 1.236 1_455 S
C832 O854 1.240 . S
C832 O855 1.264 . S
O833 Mn828 2.095 . S
O833 C842 1.250 . S
O834 Mn829 2.121 . S
O834 C842 1.258 . S
C835 N836 1.326 . S
C835 C839 1.460 . S
C835 H841 0.929 . S
N836 Mn829 2.257 . S
N836 C835 1.326 . S
N836 C840 1.362 . S
C837 C838 1.258 . S
C837 C840 1.431 . S
C837 C857 1.449 . S
C838 C837 1.258 . S
C838 C839 1.477 . S
C838 H858 0.931 . S
C839 C835 1.460 . S
C839 C838 1.477 . S
C839 H859 0.930 . S
C840 N836 1.362 . S
C840 C837 1.431 . S
C840 C850 1.476 . S
H841 C835 0.929 . S
C842 O833 1.250 . S
C842 O834 1.258 . S
O843 Mn828 2.162 1_455 S
O843 C831 1.281 . S
O844 Mn828 2.297 . S
O844 C831 1.236 1_655 S
N845 Mn829 2.282 . S
N845 C846 1.328 . S
N845 C850 1.318 . S
C846 N845 1.328 . S
C846 C847 1.457 . S
C846 H851 0.929 . S
C847 C846 1.457 . S
C847 C848 1.291 . S
C847 H860 0.931 . S
C848 C847 1.291 . S
C848 C849 1.373 . S
C848 H861 0.929 . S
C849 C848 1.373 . S
C849 C850 1.396 . S
C849 C856 1.403 . S
C850 C840 1.476 . S
C850 N845 1.318 . S
C850 C849 1.396 . S
H851 C846 0.929 . S
O852 Mn828 2.385 1_455 S
O852 C830 1.234 1_455 S
O853 Mn828 2.209 . S
O853 Mn829 2.215 . S
O853 C830 1.283 . S
O854 Mn828 2.094 . S
O854 C832 1.240 . S
O855 Mn829 2.117 . S
O855 C832 1.264 . S
C856 C849 1.403 . S
C856 C857 1.399 . S
C856 H862 0.929 . S
C857 C837 1.449 . S
C857 C856 1.399 . S
C857 H863 0.930 . S
H858 C838 0.931 . S
H859 C839 0.930 . S
H860 C847 0.931 . S
H861 C848 0.929 . S
H862 C856 0.929 . S
H863 C857 0.930 . S
Mn864 O869 2.095 . S
Mn864 O879 2.162 1_565 S
Mn864 O880 2.297 . S
Mn864 O888 2.385 . S
Mn864 O889 2.209 . S
Mn864 O890 2.094 . S
Mn865 O870 2.121 . S
Mn865 N872 2.257 . S
Mn865 N881 2.282 . S
Mn865 O889 2.215 . S
Mn865 O891 2.117 . S
C866 O888 1.234 . S
C866 O889 1.283 . S
C867 O879 1.289 . S
C867 O880 1.220 1_545 S
C868 O890 1.240 . S
C868 O891 1.264 . S
O869 Mn864 2.095 . S
O869 C878 1.250 . S
O870 Mn865 2.121 . S
O870 C878 1.258 . S
C871 N872 1.326 . S
C871 C875 1.460 . S
C871 H877 0.929 . S
N872 Mn865 2.257 . S
N872 C871 1.326 . S
N872 C876 1.362 . S
C873 C874 1.258 . S
C873 C876 1.431 . S
C873 C893 1.449 . S
C874 C873 1.258 . S
C874 C875 1.477 . S
C874 H894 0.931 . S
C875 C871 1.460 . S
C875 C874 1.477 . S
C875 H895 0.930 . S
C876 N872 1.362 . S
C876 C873 1.431 . S
C876 C886 1.476 . S
H877 C871 0.929 . S
C878 O869 1.250 . S
C878 O870 1.258 . S
O879 Mn864 2.162 1_545 S
O879 C867 1.289 . S
O880 Mn864 2.297 . S
O880 C867 1.220 1_565 S
N881 Mn865 2.282 . S
N881 C882 1.328 . S
N881 C886 1.318 . S
C882 N881 1.328 . S
C882 C883 1.457 . S
C882 H887 0.929 . S
C883 C882 1.457 . S
C883 C884 1.291 . S
C883 H896 0.931 . S
C884 C883 1.291 . S
C884 C885 1.373 . S
C884 H897 0.929 . S
C885 C884 1.373 . S
C885 C886 1.396 . S
C885 C892 1.403 . S
C886 C876 1.476 . S
C886 N881 1.318 . S
C886 C885 1.396 . S
H887 C882 0.929 . S
O888 Mn864 2.385 . S
O888 C866 1.234 . S
O889 Mn864 2.209 . S
O889 Mn865 2.215 . S
O889 C866 1.283 . S
O890 Mn864 2.094 . S
O890 C868 1.240 . S
O891 Mn865 2.117 . S
O891 C868 1.264 . S
C892 C885 1.403 . S
C892 C893 1.399 . S
C892 H898 0.929 . S
C893 C873 1.449 . S
C893 C892 1.399 . S
C893 H899 0.930 . S
H894 C874 0.931 . S
H895 C875 0.930 . S
H896 C883 0.931 . S
H897 C884 0.929 . S
H898 C892 0.929 . S
H899 C893 0.930 . S
Mn900 O905 2.095 . S
Mn900 O915 2.162 . S
Mn900 O916 2.297 . S
Mn900 O924 2.385 . S
Mn900 O925 2.209 . S
Mn900 O926 2.094 . S
Mn901 O906 2.121 . S
Mn901 N908 2.257 . S
Mn901 N917 2.282 . S
Mn901 O925 2.215 . S
Mn901 O927 2.117 . S
C902 O924 1.234 . S
C902 O925 1.283 . S
C903 O915 1.281 . S
C903 O916 1.236 . S
C904 O926 1.240 . S
C904 O927 1.264 . S
O905 Mn900 2.095 . S
O905 C914 1.250 . S
O906 Mn901 2.121 . S
O906 C914 1.258 . S
C907 N908 1.326 . S
C907 C911 1.460 . S
C907 H913 0.929 . S
N908 Mn901 2.257 . S
N908 C907 1.326 . S
N908 C912 1.362 . S
C909 C910 1.258 . S
C909 C912 1.431 . S
C909 C929 1.449 . S
C910 C909 1.258 . S
C910 C911 1.477 . S
C910 H930 0.931 . S
C911 C907 1.460 . S
C911 C910 1.477 . S
C911 H931 0.930 . S
C912 N908 1.362 . S
C912 C909 1.431 . S
C912 C922 1.476 . S
H913 C907 0.929 . S
C914 O905 1.250 . S
C914 O906 1.258 . S
O915 Mn900 2.162 . S
O915 C903 1.281 . S
O916 Mn900 2.297 . S
O916 C903 1.236 . S
N917 Mn901 2.282 . S
N917 C918 1.328 . S
N917 C922 1.318 . S
C918 N917 1.328 . S
C918 C919 1.457 . S
C918 H923 0.929 . S
C919 C918 1.457 . S
C919 C920 1.291 . S
C919 H932 0.931 . S
C920 C919 1.291 . S
C920 C921 1.373 . S
C920 H933 0.929 . S
C921 C920 1.373 . S
C921 C922 1.396 . S
C921 C928 1.403 . S
C922 C912 1.476 . S
C922 N917 1.318 . S
C922 C921 1.396 . S
H923 C918 0.929 . S
O924 Mn900 2.385 . S
O924 C902 1.234 . S
O925 Mn900 2.209 . S
O925 Mn901 2.215 . S
O925 C902 1.283 . S
O926 Mn900 2.094 . S
O926 C904 1.240 . S
O927 Mn901 2.117 . S
O927 C904 1.264 . S
C928 C921 1.403 . S
C928 C929 1.399 . S
C928 H934 0.929 . S
C929 C909 1.449 . S
C929 C928 1.399 . S
C929 H935 0.930 . S
H930 C910 0.931 . S
H931 C911 0.930 . S
H932 C919 0.931 . S
H933 C920 0.929 . S
H934 C928 0.929 . S
H935 C929 0.930 . S
Mn936 O941 2.095 . S
Mn936 O951 2.162 . S
Mn936 O952 2.297 . S
Mn936 O960 2.385 . S
Mn936 O961 2.209 . S
Mn936 O962 2.094 . S
Mn937 O942 2.121 . S
Mn937 N944 2.257 . S
Mn937 N953 2.282 . S
Mn937 O961 2.215 . S
Mn937 O963 2.117 . S
C938 O960 1.234 . S
C938 O961 1.283 . S
C939 O951 1.281 . S
C939 O952 1.236 . S
C940 O962 1.240 . S
C940 O963 1.264 . S
O941 Mn936 2.095 . S
O941 C950 1.250 . S
O942 Mn937 2.121 . S
O942 C950 1.258 . S
C943 N944 1.326 . S
C943 C947 1.460 . S
C943 H949 0.929 . S
N944 Mn937 2.257 . S
N944 C943 1.326 . S
N944 C948 1.362 . S
C945 C946 1.258 . S
C945 C948 1.431 . S
C945 C965 1.449 . S
C946 C945 1.258 . S
C946 C947 1.477 . S
C946 H966 0.931 . S
C947 C943 1.460 . S
C947 C946 1.477 . S
C947 H967 0.930 . S
C948 N944 1.362 . S
C948 C945 1.431 . S
C948 C958 1.476 . S
H949 C943 0.929 . S
C950 O941 1.250 . S
C950 O942 1.258 . S
O951 Mn936 2.162 . S
O951 C939 1.281 . S
O952 Mn936 2.297 . S
O952 C939 1.236 . S
N953 Mn937 2.282 . S
N953 C954 1.328 . S
N953 C958 1.318 . S
C954 N953 1.328 . S
C954 C955 1.457 . S
C954 H959 0.929 . S
C955 C954 1.457 . S
C955 C956 1.291 . S
C955 H968 0.931 . S
C956 C955 1.291 . S
C956 C957 1.373 . S
C956 H969 0.929 . S
C957 C956 1.373 . S
C957 C958 1.396 . S
C957 C964 1.403 . S
C958 C948 1.476 . S
C958 N953 1.318 . S
C958 C957 1.396 . S
H959 C954 0.929 . S
O960 Mn936 2.385 . S
O960 C938 1.234 . S
O961 Mn936 2.209 . S
O961 Mn937 2.215 . S
O961 C938 1.283 . S
O962 Mn936 2.094 . S
O962 C940 1.240 . S
O963 Mn937 2.117 . S
O963 C940 1.264 . S
C964 C957 1.403 . S
C964 C965 1.399 . S
C964 H970 0.929 . S
C965 C945 1.449 . S
C965 C964 1.399 . S
C965 H971 0.930 . S
H966 C946 0.931 . S
H967 C947 0.930 . S
H968 C955 0.931 . S
H969 C956 0.929 . S
H970 C964 0.929 . S
H971 C965 0.930 . S
Mn972 O977 2.095 . S
Mn972 O987 2.162 . S
Mn972 O988 2.297 . S
Mn972 O996 2.385 . S
Mn972 O997 2.209 . S
Mn972 O998 2.094 . S
Mn973 O978 2.121 . S
Mn973 N980 2.257 . S
Mn973 N989 2.282 . S
Mn973 O997 2.215 . S
Mn973 O999 2.117 . S
C974 O996 1.234 . S
C974 O997 1.283 . S
C975 O987 1.281 . S
C975 O988 1.236 . S
C976 O998 1.240 . S
C976 O999 1.264 . S
O977 Mn972 2.095 . S
O977 C986 1.250 . S
O978 Mn973 2.121 . S
O978 C986 1.258 . S
C979 N980 1.326 . S
C979 C983 1.460 . S
C979 H985 0.929 . S
N980 Mn973 2.257 . S
N980 C979 1.326 . S
N980 C984 1.362 . S
C981 C982 1.258 . S
C981 C984 1.431 . S
C981 C1001 1.449 . S
C982 C981 1.258 . S
C982 C983 1.477 . S
C982 H1002 0.931 . S
C983 C979 1.460 . S
C983 C982 1.477 . S
C983 H1003 0.930 . S
C984 N980 1.362 . S
C984 C981 1.431 . S
C984 C994 1.476 . S
H985 C979 0.929 . S
C986 O977 1.250 . S
C986 O978 1.258 . S
O987 Mn972 2.162 . S
O987 C975 1.281 . S
O988 Mn972 2.297 . S
O988 C975 1.236 . S
N989 Mn973 2.282 . S
N989 C990 1.328 . S
N989 C994 1.318 . S
C990 N989 1.328 . S
C990 C991 1.457 . S
C990 H995 0.929 . S
C991 C990 1.457 . S
C991 C992 1.291 . S
C991 H1004 0.931 . S
C992 C991 1.291 . S
C992 C993 1.373 . S
C992 H1005 0.929 . S
C993 C992 1.373 . S
C993 C994 1.396 . S
C993 C1000 1.403 . S
C994 C984 1.476 . S
C994 N989 1.318 . S
C994 C993 1.396 . S
H995 C990 0.929 . S
O996 Mn972 2.385 . S
O996 C974 1.234 . S
O997 Mn972 2.209 . S
O997 Mn973 2.215 . S
O997 C974 1.283 . S
O998 Mn972 2.094 . S
O998 C976 1.240 . S
O999 Mn973 2.117 . S
O999 C976 1.264 . S
C1000 C993 1.403 . S
C1000 C1001 1.399 . S
C1000 H1006 0.929 . S
C1001 C981 1.449 . S
C1001 C1000 1.399 . S
C1001 H1007 0.930 . S
H1002 C982 0.931 . S
H1003 C983 0.930 . S
H1004 C991 0.931 . S
H1005 C992 0.929 . S
H1006 C1000 0.929 . S
H1007 C1001 0.930 . S
Mn1008 O1013 2.095 . S
Mn1008 O1023 2.162 1_565 S
Mn1008 O1024 2.297 . S
Mn1008 O1032 2.385 1_565 S
Mn1008 O1033 2.209 . S
Mn1008 O1034 2.094 . S
Mn1009 O1014 2.121 . S
Mn1009 N1016 2.257 . S
Mn1009 N1025 2.282 . S
Mn1009 O1033 2.215 . S
Mn1009 O1035 2.117 . S
C1010 O1032 1.234 1_565 S
C1010 O1033 1.283 . S
C1011 O1023 1.281 . S
C1011 O1024 1.236 1_545 S
C1012 O1034 1.240 . S
C1012 O1035 1.264 . S
O1013 Mn1008 2.095 . S
O1013 C1022 1.250 . S
O1014 Mn1009 2.121 . S
O1014 C1022 1.258 . S
C1015 N1016 1.326 . S
C1015 C1019 1.460 . S
C1015 H1021 0.929 . S
N1016 Mn1009 2.257 . S
N1016 C1015 1.326 . S
N1016 C1020 1.362 . S
C1017 C1018 1.258 . S
C1017 C1020 1.431 . S
C1017 C1037 1.449 . S
C1018 C1017 1.258 . S
C1018 C1019 1.477 . S
C1018 H1038 0.931 . S
C1019 C1015 1.460 . S
C1019 C1018 1.477 . S
C1019 H1039 0.930 . S
C1020 N1016 1.362 . S
C1020 C1017 1.431 . S
C1020 C1030 1.476 . S
H1021 C1015 0.929 . S
C1022 O1013 1.250 . S
C1022 O1014 1.258 . S
O1023 Mn1008 2.162 1_545 S
O1023 C1011 1.281 . S
O1024 Mn1008 2.297 . S
O1024 C1011 1.236 1_565 S
N1025 Mn1009 2.282 . S
N1025 C1026 1.328 . S
N1025 C1030 1.318 . S
C1026 N1025 1.328 . S
C1026 C1027 1.457 . S
C1026 H1031 0.929 . S
C1027 C1026 1.457 . S
C1027 C1028 1.291 . S
C1027 H1040 0.931 . S
C1028 C1027 1.291 . S
C1028 C1029 1.373 . S
C1028 H1041 0.929 . S
C1029 C1028 1.373 . S
C1029 C1030 1.396 . S
C1029 C1036 1.403 . S
C1030 C1020 1.476 . S
C1030 N1025 1.318 . S
C1030 C1029 1.396 . S
H1031 C1026 0.929 . S
O1032 Mn1008 2.385 1_545 S
O1032 C1010 1.234 1_545 S
O1033 Mn1008 2.209 . S
O1033 Mn1009 2.215 . S
O1033 C1010 1.283 . S
O1034 Mn1008 2.094 . S
O1034 C1012 1.240 . S
O1035 Mn1009 2.117 . S
O1035 C1012 1.264 . S
C1036 C1029 1.403 . S
C1036 C1037 1.399 . S
C1036 H1042 0.929 . S
C1037 C1017 1.449 . S
C1037 C1036 1.399 . S
C1037 H1043 0.930 . S
H1038 C1018 0.931 . S
H1039 C1019 0.930 . S
H1040 C1027 0.931 . S
H1041 C1028 0.929 . S
H1042 C1036 0.929 . S
H1043 C1037 0.930 . S
Mn1044 O1049 2.095 . S
Mn1044 O1059 2.162 . S
Mn1044 O1060 2.297 . S
Mn1044 O1068 2.385 . S
Mn1044 O1069 2.209 . S
Mn1044 O1070 2.094 . S
Mn1045 O1050 2.121 . S
Mn1045 N1052 2.257 . S
Mn1045 N1061 2.282 . S
Mn1045 O1069 2.215 . S
Mn1045 O1071 2.117 . S
C1046 O1068 1.234 . S
C1046 O1069 1.283 . S
C1047 O1059 1.281 . S
C1047 O1060 1.236 . S
C1048 O1070 1.240 . S
C1048 O1071 1.264 . S
O1049 Mn1044 2.095 . S
O1049 C1058 1.250 . S
O1050 Mn1045 2.121 . S
O1050 C1058 1.258 . S
C1051 N1052 1.326 . S
C1051 C1055 1.460 . S
C1051 H1057 0.929 . S
N1052 Mn1045 2.257 . S
N1052 C1051 1.326 . S
N1052 C1056 1.362 . S
C1053 C1054 1.258 . S
C1053 C1056 1.431 . S
C1053 C1073 1.449 . S
C1054 C1053 1.258 . S
C1054 C1055 1.477 . S
C1054 H1074 0.931 . S
C1055 C1051 1.460 . S
C1055 C1054 1.477 . S
C1055 H1075 0.930 . S
C1056 N1052 1.362 . S
C1056 C1053 1.431 . S
C1056 C1066 1.476 . S
H1057 C1051 0.929 . S
C1058 O1049 1.250 . S
C1058 O1050 1.258 . S
O1059 Mn1044 2.162 . S
O1059 C1047 1.281 . S
O1060 Mn1044 2.297 . S
O1060 C1047 1.236 . S
N1061 Mn1045 2.282 . S
N1061 C1062 1.328 . S
N1061 C1066 1.318 . S
C1062 N1061 1.328 . S
C1062 C1063 1.457 . S
C1062 H1067 0.929 . S
C1063 C1062 1.457 . S
C1063 C1064 1.291 . S
C1063 H1076 0.931 . S
C1064 C1063 1.291 . S
C1064 C1065 1.373 . S
C1064 H1077 0.929 . S
C1065 C1064 1.373 . S
C1065 C1066 1.396 . S
C1065 C1072 1.403 . S
C1066 C1056 1.476 . S
C1066 N1061 1.318 . S
C1066 C1065 1.396 . S
H1067 C1062 0.929 . S
O1068 Mn1044 2.385 . S
O1068 C1046 1.234 . S
O1069 Mn1044 2.209 . S
O1069 Mn1045 2.215 . S
O1069 C1046 1.283 . S
O1070 Mn1044 2.094 . S
O1070 C1048 1.240 . S
O1071 Mn1045 2.117 . S
O1071 C1048 1.264 . S
C1072 C1065 1.403 . S
C1072 C1073 1.399 . S
C1072 H1078 0.929 . S
C1073 C1053 1.449 . S
C1073 C1072 1.399 . S
C1073 H1079 0.930 . S
H1074 C1054 0.931 . S
H1075 C1055 0.930 . S
H1076 C1063 0.931 . S
H1077 C1064 0.929 . S
H1078 C1072 0.929 . S
H1079 C1073 0.930 . S
Mn1080 O1085 2.095 . S
Mn1080 O1095 2.162 . S
Mn1080 O1096 2.297 . S
Mn1080 O1104 2.385 . S
Mn1080 O1105 2.209 . S
Mn1080 O1106 2.094 . S
Mn1081 O1086 2.121 . S
Mn1081 N1088 2.257 . S
Mn1081 N1097 2.282 . S
Mn1081 O1105 2.215 . S
Mn1081 O1107 2.117 . S
C1082 O1104 1.234 . S
C1082 O1105 1.283 . S
C1083 O1095 1.281 . S
C1083 O1096 1.236 . S
C1084 O1106 1.240 . S
C1084 O1107 1.264 . S
O1085 Mn1080 2.095 . S
O1085 C1094 1.250 . S
O1086 Mn1081 2.121 . S
O1086 C1094 1.258 . S
C1087 N1088 1.326 . S
C1087 C1091 1.460 . S
C1087 H1093 0.929 . S
N1088 Mn1081 2.257 . S
N1088 C1087 1.326 . S
N1088 C1092 1.362 . S
C1089 C1090 1.258 . S
C1089 C1092 1.431 . S
C1089 C1109 1.449 . S
C1090 C1089 1.258 . S
C1090 C1091 1.477 . S
C1090 H1110 0.931 . S
C1091 C1087 1.460 . S
C1091 C1090 1.477 . S
C1091 H1111 0.930 . S
C1092 N1088 1.362 . S
C1092 C1089 1.431 . S
C1092 C1102 1.476 . S
H1093 C1087 0.929 . S
C1094 O1085 1.250 . S
C1094 O1086 1.258 . S
O1095 Mn1080 2.162 . S
O1095 C1083 1.281 . S
O1096 Mn1080 2.297 . S
O1096 C1083 1.236 . S
N1097 Mn1081 2.282 . S
N1097 C1098 1.328 . S
N1097 C1102 1.318 . S
C1098 N1097 1.328 . S
C1098 C1099 1.457 . S
C1098 H1103 0.929 . S
C1099 C1098 1.457 . S
C1099 C1100 1.291 . S
C1099 H1112 0.931 . S
C1100 C1099 1.291 . S
C1100 C1101 1.373 . S
C1100 H1113 0.929 . S
C1101 C1100 1.373 . S
C1101 C1102 1.396 . S
C1101 C1108 1.403 . S
C1102 C1092 1.476 . S
C1102 N1097 1.318 . S
C1102 C1101 1.396 . S
H1103 C1098 0.929 . S
O1104 Mn1080 2.385 . S
O1104 C1082 1.234 . S
O1105 Mn1080 2.209 . S
O1105 Mn1081 2.215 . S
O1105 C1082 1.283 . S
O1106 Mn1080 2.094 . S
O1106 C1084 1.240 . S
O1107 Mn1081 2.117 . S
O1107 C1084 1.264 . S
C1108 C1101 1.403 . S
C1108 C1109 1.399 . S
C1108 H1114 0.929 . S
C1109 C1089 1.449 . S
C1109 C1108 1.399 . S
C1109 H1115 0.930 . S
H1110 C1090 0.931 . S
H1111 C1091 0.930 . S
H1112 C1099 0.931 . S
H1113 C1100 0.929 . S
H1114 C1108 0.929 . S
H1115 C1109 0.930 . S
Mn1116 O1121 2.095 . S
Mn1116 O1131 2.162 1_565 S
Mn1116 O1132 2.297 . S
Mn1116 O1140 2.385 1_565 S
Mn1116 O1141 2.209 . S
Mn1116 O1142 2.094 . S
Mn1117 O1122 2.121 . S
Mn1117 N1124 2.257 . S
Mn1117 N1133 2.282 . S
Mn1117 O1141 2.215 . S
Mn1117 O1143 2.117 . S
C1118 O1140 1.234 1_565 S
C1118 O1141 1.283 . S
C1119 O1131 1.281 . S
C1119 O1132 1.236 1_545 S
C1120 O1142 1.240 . S
C1120 O1143 1.264 . S
O1121 Mn1116 2.095 . S
O1121 C1130 1.250 . S
O1122 Mn1117 2.121 . S
O1122 C1130 1.258 . S
C1123 N1124 1.326 . S
C1123 C1127 1.460 . S
C1123 H1129 0.929 . S
N1124 Mn1117 2.257 . S
N1124 C1123 1.326 . S
N1124 C1128 1.362 . S
C1125 C1126 1.258 . S
C1125 C1128 1.431 . S
C1125 C1145 1.449 . S
C1126 C1125 1.258 . S
C1126 C1127 1.477 . S
C1126 H1146 0.931 . S
C1127 C1123 1.460 . S
C1127 C1126 1.477 . S
C1127 H1147 0.930 . S
C1128 N1124 1.362 . S
C1128 C1125 1.431 . S
C1128 C1138 1.476 . S
H1129 C1123 0.929 . S
C1130 O1121 1.250 . S
C1130 O1122 1.258 . S
O1131 Mn1116 2.162 1_545 S
O1131 C1119 1.281 . S
O1132 Mn1116 2.297 . S
O1132 C1119 1.236 1_565 S
N1133 Mn1117 2.282 . S
N1133 C1134 1.328 . S
N1133 C1138 1.318 . S
C1134 N1133 1.328 . S
C1134 C1135 1.457 . S
C1134 H1139 0.929 . S
C1135 C1134 1.457 . S
C1135 C1136 1.291 . S
C1135 H1148 0.931 . S
C1136 C1135 1.291 . S
C1136 C1137 1.373 . S
C1136 H1149 0.929 . S
C1137 C1136 1.373 . S
C1137 C1138 1.396 . S
C1137 C1144 1.403 . S
C1138 C1128 1.476 . S
C1138 N1133 1.318 . S
C1138 C1137 1.396 . S
H1139 C1134 0.929 . S
O1140 Mn1116 2.385 1_545 S
O1140 C1118 1.234 1_545 S
O1141 Mn1116 2.209 . S
O1141 Mn1117 2.215 . S
O1141 C1118 1.283 . S
O1142 Mn1116 2.094 . S
O1142 C1120 1.240 . S
O1143 Mn1117 2.117 . S
O1143 C1120 1.264 . S
C1144 C1137 1.403 . S
C1144 C1145 1.399 . S
C1144 H1150 0.929 . S
C1145 C1125 1.449 . S
C1145 C1144 1.399 . S
C1145 H1151 0.930 . S
H1146 C1126 0.931 . S
H1147 C1127 0.930 . S
H1148 C1135 0.931 . S
H1149 C1136 0.929 . S
H1150 C1144 0.929 . S
H1151 C1145 0.930 . S
Mn1152 O1157 2.095 . S
Mn1152 O1167 2.162 . S
Mn1152 O1168 2.297 . S
Mn1152 O1176 2.385 . S
Mn1152 O1177 2.209 . S
Mn1152 O1178 2.094 . S
Mn1153 O1158 2.121 . S
Mn1153 N1160 2.257 . S
Mn1153 N1169 2.282 . S
Mn1153 O1177 2.215 . S
Mn1153 O1179 2.117 . S
C1154 O1176 1.234 . S
C1154 O1177 1.283 . S
C1155 O1167 1.281 . S
C1155 O1168 1.236 . S
C1156 O1178 1.240 . S
C1156 O1179 1.264 . S
O1157 Mn1152 2.095 . S
O1157 C1166 1.250 . S
O1158 Mn1153 2.121 . S
O1158 C1166 1.258 . S
C1159 N1160 1.326 . S
C1159 C1163 1.460 . S
C1159 H1165 0.929 . S
N1160 Mn1153 2.257 . S
N1160 C1159 1.326 . S
N1160 C1164 1.362 . S
C1161 C1162 1.258 . S
C1161 C1164 1.431 . S
C1161 C1181 1.449 . S
C1162 C1161 1.258 . S
C1162 C1163 1.477 . S
C1162 H1182 0.931 . S
C1163 C1159 1.460 . S
C1163 C1162 1.477 . S
C1163 H1183 0.930 . S
C1164 N1160 1.362 . S
C1164 C1161 1.431 . S
C1164 C1174 1.476 . S
H1165 C1159 0.929 . S
C1166 O1157 1.250 . S
C1166 O1158 1.258 . S
O1167 Mn1152 2.162 . S
O1167 C1155 1.281 . S
O1168 Mn1152 2.297 . S
O1168 C1155 1.236 . S
N1169 Mn1153 2.282 . S
N1169 C1170 1.328 . S
N1169 C1174 1.318 . S
C1170 N1169 1.328 . S
C1170 C1171 1.457 . S
C1170 H1175 0.929 . S
C1171 C1170 1.457 . S
C1171 C1172 1.291 . S
C1171 H1184 0.931 . S
C1172 C1171 1.291 . S
C1172 C1173 1.373 . S
C1172 H1185 0.929 . S
C1173 C1172 1.373 . S
C1173 C1174 1.396 . S
C1173 C1180 1.403 . S
C1174 C1164 1.476 . S
C1174 N1169 1.318 . S
C1174 C1173 1.396 . S
H1175 C1170 0.929 . S
O1176 Mn1152 2.385 . S
O1176 C1154 1.234 . S
O1177 Mn1152 2.209 . S
O1177 Mn1153 2.215 . S
O1177 C1154 1.283 . S
O1178 Mn1152 2.094 . S
O1178 C1156 1.240 . S
O1179 Mn1153 2.117 . S
O1179 C1156 1.264 . S
C1180 C1173 1.403 . S
C1180 C1181 1.399 . S
C1180 H1186 0.929 . S
C1181 C1161 1.449 . S
C1181 C1180 1.399 . S
C1181 H1187 0.930 . S
H1182 C1162 0.931 . S
H1183 C1163 0.930 . S
H1184 C1171 0.931 . S
H1185 C1172 0.929 . S
H1186 C1180 0.929 . S
H1187 C1181 0.930 . S
Mn1188 O1193 2.095 . S
Mn1188 O1203 2.162 . S
Mn1188 O1204 2.297 . S
Mn1188 O1212 2.385 . S
Mn1188 O1213 2.209 . S
Mn1188 O1214 2.094 . S
Mn1189 O1194 2.121 . S
Mn1189 N1196 2.257 . S
Mn1189 N1205 2.282 . S
Mn1189 O1213 2.215 . S
Mn1189 O1215 2.117 . S
C1190 O1212 1.234 . S
C1190 O1213 1.283 . S
C1191 O1203 1.281 . S
C1191 O1204 1.236 . S
C1192 O1214 1.240 . S
C1192 O1215 1.264 . S
O1193 Mn1188 2.095 . S
O1193 C1202 1.250 . S
O1194 Mn1189 2.121 . S
O1194 C1202 1.258 . S
C1195 N1196 1.326 . S
C1195 C1199 1.460 . S
C1195 H1201 0.929 . S
N1196 Mn1189 2.257 . S
N1196 C1195 1.326 . S
N1196 C1200 1.362 . S
C1197 C1198 1.258 . S
C1197 C1200 1.431 . S
C1197 C1217 1.449 . S
C1198 C1197 1.258 . S
C1198 C1199 1.477 . S
C1198 H1218 0.931 . S
C1199 C1195 1.460 . S
C1199 C1198 1.477 . S
C1199 H1219 0.930 . S
C1200 N1196 1.362 . S
C1200 C1197 1.431 . S
C1200 C1210 1.476 . S
H1201 C1195 0.929 . S
C1202 O1193 1.250 . S
C1202 O1194 1.258 . S
O1203 Mn1188 2.162 . S
O1203 C1191 1.281 . S
O1204 Mn1188 2.297 . S
O1204 C1191 1.236 . S
N1205 Mn1189 2.282 . S
N1205 C1206 1.328 . S
N1205 C1210 1.318 . S
C1206 N1205 1.328 . S
C1206 C1207 1.457 . S
C1206 H1211 0.929 . S
C1207 C1206 1.457 . S
C1207 C1208 1.291 . S
C1207 H1220 0.931 . S
C1208 C1207 1.291 . S
C1208 C1209 1.373 . S
C1208 H1221 0.929 . S
C1209 C1208 1.373 . S
C1209 C1210 1.396 . S
C1209 C1216 1.403 . S
C1210 C1200 1.476 . S
C1210 N1205 1.318 . S
C1210 C1209 1.396 . S
H1211 C1206 0.929 . S
O1212 Mn1188 2.385 . S
O1212 C1190 1.234 . S
O1213 Mn1188 2.209 . S
O1213 Mn1189 2.215 . S
O1213 C1190 1.283 . S
O1214 Mn1188 2.094 . S
O1214 C1192 1.240 . S
O1215 Mn1189 2.117 . S
O1215 C1192 1.264 . S
C1216 C1209 1.403 . S
C1216 C1217 1.399 . S
C1216 H1222 0.929 . S
C1217 C1197 1.449 . S
C1217 C1216 1.399 . S
C1217 H1223 0.930 . S
H1218 C1198 0.931 . S
H1219 C1199 0.930 . S
H1220 C1207 0.931 . S
H1221 C1208 0.929 . S
H1222 C1216 0.929 . S
H1223 C1217 0.930 . S
Mn1224 O1229 2.095 . S
Mn1224 O1239 2.162 . S
Mn1224 O1240 2.297 . S
Mn1224 O1248 2.385 . S
Mn1224 O1249 2.209 . S
Mn1224 O1250 2.094 . S
Mn1225 O1230 2.121 . S
Mn1225 N1232 2.257 . S
Mn1225 N1241 2.282 . S
Mn1225 O1249 2.215 . S
Mn1225 O1251 2.117 . S
C1226 O1248 1.234 . S
C1226 O1249 1.283 . S
C1227 O1239 1.281 . S
C1227 O1240 1.236 . S
C1228 O1250 1.240 . S
C1228 O1251 1.264 . S
O1229 Mn1224 2.095 . S
O1229 C1238 1.250 . S
O1230 Mn1225 2.121 . S
O1230 C1238 1.258 . S
C1231 N1232 1.326 . S
C1231 C1235 1.460 . S
C1231 H1237 0.929 . S
N1232 Mn1225 2.257 . S
N1232 C1231 1.326 . S
N1232 C1236 1.362 . S
C1233 C1234 1.258 . S
C1233 C1236 1.431 . S
C1233 C1253 1.449 . S
C1234 C1233 1.258 . S
C1234 C1235 1.477 . S
C1234 H1254 0.931 . S
C1235 C1231 1.460 . S
C1235 C1234 1.477 . S
C1235 H1255 0.930 . S
C1236 N1232 1.362 . S
C1236 C1233 1.431 . S
C1236 C1246 1.476 . S
H1237 C1231 0.929 . S
C1238 O1229 1.250 . S
C1238 O1230 1.258 . S
O1239 Mn1224 2.162 . S
O1239 C1227 1.281 . S
O1240 Mn1224 2.297 . S
O1240 C1227 1.236 . S
N1241 Mn1225 2.282 . S
N1241 C1242 1.328 . S
N1241 C1246 1.318 . S
C1242 N1241 1.328 . S
C1242 C1243 1.457 . S
C1242 H1247 0.929 . S
C1243 C1242 1.457 . S
C1243 C1244 1.291 . S
C1243 H1256 0.931 . S
C1244 C1243 1.291 . S
C1244 C1245 1.373 . S
C1244 H1257 0.929 . S
C1245 C1244 1.373 . S
C1245 C1246 1.396 . S
C1245 C1252 1.403 . S
C1246 C1236 1.476 . S
C1246 N1241 1.318 . S
C1246 C1245 1.396 . S
H1247 C1242 0.929 . S
O1248 Mn1224 2.385 . S
O1248 C1226 1.234 . S
O1249 Mn1224 2.209 . S
O1249 Mn1225 2.215 . S
O1249 C1226 1.283 . S
O1250 Mn1224 2.094 . S
O1250 C1228 1.240 . S
O1251 Mn1225 2.117 . S
O1251 C1228 1.264 . S
C1252 C1245 1.403 . S
C1252 C1253 1.399 . S
C1252 H1258 0.929 . S
C1253 C1233 1.449 . S
C1253 C1252 1.399 . S
C1253 H1259 0.930 . S
H1254 C1234 0.931 . S
H1255 C1235 0.930 . S
H1256 C1243 0.931 . S
H1257 C1244 0.929 . S
H1258 C1252 0.929 . S
H1259 C1253 0.930 . S
Mn1260 O1265 2.095 . S
Mn1260 O1275 2.162 1_565 S
Mn1260 O1276 2.297 . S
Mn1260 O1284 2.385 . S
Mn1260 O1285 2.209 . S
Mn1260 O1286 2.094 . S
Mn1261 O1266 2.121 . S
Mn1261 N1268 2.257 . S
Mn1261 N1277 2.282 . S
Mn1261 O1285 2.215 . S
Mn1261 O1287 2.117 . S
C1262 O1284 1.234 . S
C1262 O1285 1.283 . S
C1263 O1275 1.286 . S
C1263 O1276 1.228 1_545 S
C1264 O1286 1.240 . S
C1264 O1287 1.264 . S
O1265 Mn1260 2.095 . S
O1265 C1274 1.250 . S
O1266 Mn1261 2.121 . S
O1266 C1274 1.258 . S
C1267 N1268 1.326 . S
C1267 C1271 1.460 . S
C1267 H1273 0.929 . S
N1268 Mn1261 2.257 . S
N1268 C1267 1.326 . S
N1268 C1272 1.362 . S
C1269 C1270 1.258 . S
C1269 C1272 1.431 . S
C1269 C1289 1.449 . S
C1270 C1269 1.258 . S
C1270 C1271 1.477 . S
C1270 H1290 0.931 . S
C1271 C1267 1.460 . S
C1271 C1270 1.477 . S
C1271 H1291 0.930 . S
C1272 N1268 1.362 . S
C1272 C1269 1.431 . S
C1272 C1282 1.476 . S
H1273 C1267 0.929 . S
C1274 O1265 1.250 . S
C1274 O1266 1.258 . S
O1275 Mn1260 2.162 1_545 S
O1275 C1263 1.286 . S
O1276 Mn1260 2.297 . S
O1276 C1263 1.228 1_565 S
N1277 Mn1261 2.282 . S
N1277 C1278 1.328 . S
N1277 C1282 1.318 . S
C1278 N1277 1.328 . S
C1278 C1279 1.457 . S
C1278 H1283 0.929 . S
C1279 C1278 1.457 . S
C1279 C1280 1.291 . S
C1279 H1292 0.931 . S
C1280 C1279 1.291 . S
C1280 C1281 1.373 . S
C1280 H1293 0.929 . S
C1281 C1280 1.373 . S
C1281 C1282 1.396 . S
C1281 C1288 1.403 . S
C1282 C1272 1.476 . S
C1282 N1277 1.318 . S
C1282 C1281 1.396 . S
H1283 C1278 0.929 . S
O1284 Mn1260 2.385 . S
O1284 C1262 1.234 . S
O1285 Mn1260 2.209 . S
O1285 Mn1261 2.215 . S
O1285 C1262 1.283 . S
O1286 Mn1260 2.094 . S
O1286 C1264 1.240 . S
O1287 Mn1261 2.117 . S
O1287 C1264 1.264 . S
C1288 C1281 1.403 . S
C1288 C1289 1.399 . S
C1288 H1294 0.929 . S
C1289 C1269 1.449 . S
C1289 C1288 1.399 . S
C1289 H1295 0.930 . S
H1290 C1270 0.931 . S
H1291 C1271 0.930 . S
H1292 C1279 0.931 . S
H1293 C1280 0.929 . S
H1294 C1288 0.929 . S
H1295 C1289 0.930 . S
C1296 C1297 1.363 . S
C1296 C1302 1.379 . S
C1296 N1304 1.356 . S
C1297 C1296 1.363 . S
C1297 C1303 1.363 . S
C1298 C1299 1.363 . S
C1298 C1303 1.379 . S
C1298 N1305 1.356 . S
C1299 C1298 1.363 . S
C1299 C1302 1.363 . S
N1300 C1302 1.356 . S
N1300 H1312 0.984 . S
N1300 H1313 0.985 . S
N1301 C1303 1.356 . S
N1301 H1306 0.984 . S
N1301 H1307 0.985 . S
C1302 C1296 1.379 . S
C1302 C1299 1.363 . S
C1302 N1300 1.356 . S
C1303 C1297 1.363 . S
C1303 C1298 1.379 . S
C1303 N1301 1.356 . S
N1304 C1296 1.356 . S
N1304 H1310 0.984 . S
N1304 H1311 0.984 . S
N1305 C1298 1.356 . S
N1305 H1308 0.984 . S
N1305 H1309 0.985 . S
H1306 N1301 0.984 . S
H1307 N1301 0.985 . S
H1308 N1305 0.984 . S
H1309 N1305 0.985 . S
H1310 N1304 0.984 . S
H1311 N1304 0.984 . S
H1312 N1300 0.984 . S
H1313 N1300 0.985 . S
C1314 C1315 1.363 . S
C1314 C1320 1.379 . S
C1314 N1322 1.356 . S
C1315 C1314 1.363 . S
C1315 C1321 1.363 . S
C1316 C1317 1.363 . S
C1316 C1321 1.379 . S
C1316 N1323 1.356 . S
C1317 C1316 1.363 . S
C1317 C1320 1.363 . S
N1318 C1320 1.356 . S
N1318 H1330 0.984 . S
N1318 H1331 0.985 . S
N1319 C1321 1.356 . S
N1319 H1324 0.984 . S
N1319 H1325 0.985 . S
C1320 C1314 1.379 . S
C1320 C1317 1.363 . S
C1320 N1318 1.356 . S
C1321 C1315 1.363 . S
C1321 C1316 1.379 . S
C1321 N1319 1.356 . S
N1322 C1314 1.356 . S
N1322 H1328 0.984 . S
N1322 H1329 0.984 . S
N1323 C1316 1.356 . S
N1323 H1326 0.984 . S
N1323 H1327 0.985 . S
H1324 N1319 0.984 . S
H1325 N1319 0.985 . S
H1326 N1323 0.984 . S
H1327 N1323 0.985 . S
H1328 N1322 0.984 . S
H1329 N1322 0.984 . S
H1330 N1318 0.984 . S
H1331 N1318 0.985 . S
C1332 C1333 1.363 . S
C1332 C1338 1.379 . S
C1332 N1340 1.356 . S
C1333 C1332 1.363 . S
C1333 C1339 1.363 . S
C1334 C1335 1.363 . S
C1334 C1339 1.379 . S
C1334 N1341 1.356 . S
C1335 C1334 1.363 . S
C1335 C1338 1.363 . S
N1336 C1338 1.356 . S
N1336 H1348 0.984 . S
N1336 H1349 0.985 . S
N1337 C1339 1.356 . S
N1337 H1342 0.984 . S
N1337 H1343 0.985 . S
C1338 C1332 1.379 . S
C1338 C1335 1.363 . S
C1338 N1336 1.356 . S
C1339 C1333 1.363 . S
C1339 C1334 1.379 . S
C1339 N1337 1.356 . S
N1340 C1332 1.356 . S
N1340 H1346 0.984 . S
N1340 H1347 0.984 . S
N1341 C1334 1.356 . S
N1341 H1344 0.984 . S
N1341 H1345 0.985 . S
H1342 N1337 0.984 . S
H1343 N1337 0.985 . S
H1344 N1341 0.984 . S
H1345 N1341 0.985 . S
H1346 N1340 0.984 . S
H1347 N1340 0.984 . S
H1348 N1336 0.984 . S
H1349 N1336 0.985 . S
C1350 C1351 1.363 . S
C1350 C1356 1.379 . S
C1350 N1358 1.356 . S
C1351 C1350 1.363 . S
C1351 C1357 1.363 . S
C1352 C1353 1.363 . S
C1352 C1357 1.379 . S
C1352 N1359 1.356 . S
C1353 C1352 1.363 . S
C1353 C1356 1.363 . S
N1354 C1356 1.356 . S
N1354 H1366 0.984 . S
N1354 H1367 0.985 . S
N1355 C1357 1.356 . S
N1355 H1360 0.984 . S
N1355 H1361 0.985 . S
C1356 C1350 1.379 . S
C1356 C1353 1.363 . S
C1356 N1354 1.356 . S
C1357 C1351 1.363 . S
C1357 C1352 1.379 . S
C1357 N1355 1.356 . S
N1358 C1350 1.356 . S
N1358 H1364 0.984 . S
N1358 H1365 0.984 . S
N1359 C1352 1.356 . S
N1359 H1362 0.984 . S
N1359 H1363 0.985 . S
H1360 N1355 0.984 . S
H1361 N1355 0.985 . S
H1362 N1359 0.984 . S
H1363 N1359 0.985 . S
H1364 N1358 0.984 . S
H1365 N1358 0.984 . S
H1366 N1354 0.984 . S
H1367 N1354 0.985 . S
C1368 C1369 1.363 . S
C1368 C1374 1.379 . S
C1368 N1376 1.356 . S
C1369 C1368 1.363 . S
C1369 C1375 1.363 . S
C1370 C1371 1.363 . S
C1370 C1375 1.379 . S
C1370 N1377 1.356 . S
C1371 C1370 1.363 . S
C1371 C1374 1.363 . S
N1372 C1374 1.356 . S
N1372 H1384 0.984 . S
N1372 H1385 0.985 . S
N1373 C1375 1.356 . S
N1373 H1378 0.984 . S
N1373 H1379 0.985 . S
C1374 C1368 1.379 . S
C1374 C1371 1.363 . S
C1374 N1372 1.356 . S
C1375 C1369 1.363 . S
C1375 C1370 1.379 . S
C1375 N1373 1.356 . S
N1376 C1368 1.356 . S
N1376 H1382 0.984 . S
N1376 H1383 0.984 . S
N1377 C1370 1.356 . S
N1377 H1380 0.984 . S
N1377 H1381 0.985 . S
H1378 N1373 0.984 . S
H1379 N1373 0.985 . S
H1380 N1377 0.984 . S
H1381 N1377 0.985 . S
H1382 N1376 0.984 . S
H1383 N1376 0.984 . S
H1384 N1372 0.984 . S
H1385 N1372 0.985 . S
C1386 C1387 1.363 . S
C1386 C1392 1.379 . S
C1386 N1394 1.356 . S
C1387 C1386 1.363 . S
C1387 C1393 1.363 . S
C1388 C1389 1.363 . S
C1388 C1393 1.379 . S
C1388 N1395 1.356 . S
C1389 C1388 1.363 . S
C1389 C1392 1.363 . S
N1390 C1392 1.356 . S
N1390 H1402 0.984 . S
N1390 H1403 0.985 . S
N1391 C1393 1.356 . S
N1391 H1396 0.984 . S
N1391 H1397 0.985 . S
C1392 C1386 1.379 . S
C1392 C1389 1.363 . S
C1392 N1390 1.356 . S
C1393 C1387 1.363 . S
C1393 C1388 1.379 . S
C1393 N1391 1.356 . S
N1394 C1386 1.356 . S
N1394 H1400 0.984 . S
N1394 H1401 0.984 . S
N1395 C1388 1.356 . S
N1395 H1398 0.984 . S
N1395 H1399 0.985 . S
H1396 N1391 0.984 . S
H1397 N1391 0.985 . S
H1398 N1395 0.984 . S
H1399 N1395 0.985 . S
H1400 N1394 0.984 . S
H1401 N1394 0.984 . S
H1402 N1390 0.984 . S
H1403 N1390 0.985 . S
C1404 C1405 1.363 . S
C1404 C1410 1.379 . S
C1404 N1412 1.356 . S
C1405 C1404 1.363 . S
C1405 C1411 1.363 . S
C1406 C1407 1.363 . S
C1406 C1411 1.379 . S
C1406 N1413 1.356 . S
C1407 C1406 1.363 . S
C1407 C1410 1.363 . S
N1408 C1410 1.356 . S
N1408 H1420 0.984 . S
N1408 H1421 0.985 . S
N1409 C1411 1.356 . S
N1409 H1414 0.984 . S
N1409 H1415 0.985 . S
C1410 C1404 1.379 . S
C1410 C1407 1.363 . S
C1410 N1408 1.356 . S
C1411 C1405 1.363 . S
C1411 C1406 1.379 . S
C1411 N1409 1.356 . S
N1412 C1404 1.356 . S
N1412 H1418 0.984 . S
N1412 H1419 0.984 . S
N1413 C1406 1.356 . S
N1413 H1416 0.984 . S
N1413 H1417 0.985 . S
H1414 N1409 0.984 . S
H1415 N1409 0.985 . S
H1416 N1413 0.984 . S
H1417 N1413 0.985 . S
H1418 N1412 0.984 . S
H1419 N1412 0.984 . S
H1420 N1408 0.984 . S
H1421 N1408 0.985 . S
C1422 C1423 1.363 . S
C1422 C1428 1.379 . S
C1422 N1430 1.356 . S
C1423 C1422 1.363 . S
C1423 C1429 1.363 . S
C1424 C1425 1.363 . S
C1424 C1429 1.379 . S
C1424 N1431 1.356 . S
C1425 C1424 1.363 . S
C1425 C1428 1.363 . S
N1426 C1428 1.356 . S
N1426 H1438 0.984 . S
N1426 H1439 0.985 . S
N1427 C1429 1.356 . S
N1427 H1432 0.984 . S
N1427 H1433 0.985 . S
C1428 C1422 1.379 . S
C1428 C1425 1.363 . S
C1428 N1426 1.356 . S
C1429 C1423 1.363 . S
C1429 C1424 1.379 . S
C1429 N1427 1.356 . S
N1430 C1422 1.356 . S
N1430 H1436 0.984 . S
N1430 H1437 0.984 . S
N1431 C1424 1.356 . S
N1431 H1434 0.984 . S
N1431 H1435 0.985 . S
H1432 N1427 0.984 . S
H1433 N1427 0.985 . S
H1434 N1431 0.984 . S
H1435 N1431 0.985 . S
H1436 N1430 0.984 . S
H1437 N1430 0.984 . S
H1438 N1426 0.984 . S
H1439 N1426 0.985 . S
C1440 C1441 1.363 . S
C1440 C1446 1.379 . S
C1440 N1448 1.356 . S
C1441 C1440 1.363 . S
C1441 C1447 1.363 . S
C1442 C1443 1.363 . S
C1442 C1447 1.379 . S
C1442 N1449 1.356 . S
C1443 C1442 1.363 . S
C1443 C1446 1.363 . S
N1444 C1446 1.356 . S
N1444 H1456 0.984 . S
N1444 H1457 0.985 . S
N1445 C1447 1.356 . S
N1445 H1450 0.984 . S
N1445 H1451 0.985 . S
C1446 C1440 1.379 . S
C1446 C1443 1.363 . S
C1446 N1444 1.356 . S
C1447 C1441 1.363 . S
C1447 C1442 1.379 . S
C1447 N1445 1.356 . S
N1448 C1440 1.356 . S
N1448 H1454 0.984 . S
N1448 H1455 0.984 . S
N1449 C1442 1.356 . S
N1449 H1452 0.984 . S
N1449 H1453 0.985 . S
H1450 N1445 0.984 . S
H1451 N1445 0.985 . S
H1452 N1449 0.984 . S
H1453 N1449 0.985 . S
H1454 N1448 0.984 . S
H1455 N1448 0.984 . S
H1456 N1444 0.984 . S
H1457 N1444 0.985 . S
C1458 C1459 1.363 . S
C1458 C1464 1.379 . S
C1458 N1466 1.356 . S
C1459 C1458 1.363 . S
C1459 C1465 1.363 . S
C1460 C1461 1.363 . S
C1460 C1465 1.379 . S
C1460 N1467 1.356 1_655 S
C1461 C1460 1.363 . S
C1461 C1464 1.363 . S
N1462 C1464 1.356 . S
N1462 H1474 0.984 . S
N1462 H1475 0.985 . S
N1463 C1465 1.356 1_455 S
N1463 H1468 0.984 1_455 S
N1463 H1469 0.985 . S
C1464 C1458 1.379 . S
C1464 C1461 1.363 . S
C1464 N1462 1.356 . S
C1465 C1459 1.363 . S
C1465 C1460 1.379 . S
C1465 N1463 1.356 1_655 S
N1466 C1458 1.356 . S
N1466 H1472 0.984 . S
N1466 H1473 0.984 . S
N1467 C1460 1.356 1_455 S
N1467 H1470 0.984 1_455 S
N1467 H1471 0.985 . S
H1468 N1463 0.984 1_655 S
H1469 N1463 0.985 . S
H1470 N1467 0.984 1_655 S
H1471 N1467 0.985 . S
H1472 N1466 0.984 . S
H1473 N1466 0.984 . S
H1474 N1462 0.984 . S
H1475 N1462 0.985 . S
C1476 C1477 1.363 . S
C1476 C1482 1.379 . S
C1476 N1484 1.356 . S
C1477 C1476 1.363 . S
C1477 C1483 1.363 . S
C1478 C1479 1.363 . S
C1478 C1483 1.379 . S
C1478 N1485 1.356 . S
C1479 C1478 1.363 . S
C1479 C1482 1.363 . S
N1480 C1482 1.356 . S
N1480 H1492 0.984 . S
N1480 H1493 0.985 . S
N1481 C1483 1.356 . S
N1481 H1486 0.984 . S
N1481 H1487 0.985 . S
C1482 C1476 1.379 . S
C1482 C1479 1.363 . S
C1482 N1480 1.356 . S
C1483 C1477 1.363 . S
C1483 C1478 1.379 . S
C1483 N1481 1.356 . S
N1484 C1476 1.356 . S
N1484 H1490 0.984 . S
N1484 H1491 0.984 . S
N1485 C1478 1.356 . S
N1485 H1488 0.984 . S
N1485 H1489 0.985 . S
H1486 N1481 0.984 . S
H1487 N1481 0.985 . S
H1488 N1485 0.984 . S
H1489 N1485 0.985 . S
H1490 N1484 0.984 . S
H1491 N1484 0.984 . S
H1492 N1480 0.984 . S
H1493 N1480 0.985 . S
C1494 C1495 1.363 . S
C1494 C1500 1.379 . S
C1494 N1502 1.356 . S
C1495 C1494 1.363 . S
C1495 C1501 1.363 . S
C1496 C1497 1.363 . S
C1496 C1501 1.379 . S
C1496 N1503 1.356 . S
C1497 C1496 1.363 . S
C1497 C1500 1.363 . S
N1498 C1500 1.356 . S
N1498 H1510 0.984 . S
N1498 H1511 0.985 . S
N1499 C1501 1.356 . S
N1499 H1504 0.984 . S
N1499 H1505 0.985 . S
C1500 C1494 1.379 . S
C1500 C1497 1.363 . S
C1500 N1498 1.356 . S
C1501 C1495 1.363 . S
C1501 C1496 1.379 . S
C1501 N1499 1.356 . S
N1502 C1494 1.356 . S
N1502 H1508 0.984 . S
N1502 H1509 0.984 . S
N1503 C1496 1.356 . S
N1503 H1506 0.984 . S
N1503 H1507 0.985 . S
H1504 N1499 0.984 . S
H1505 N1499 0.985 . S
H1506 N1503 0.984 . S
H1507 N1503 0.985 . S
H1508 N1502 0.984 . S
H1509 N1502 0.984 . S
H1510 N1498 0.984 . S
H1511 N1498 0.985 . S
C1512 C1513 1.363 . S
C1512 C1518 1.379 . S
C1512 N1520 1.356 . S
C1513 C1512 1.363 . S
C1513 C1519 1.363 . S
C1514 C1515 1.363 . S
C1514 C1519 1.379 . S
C1514 N1521 1.356 . S
C1515 C1514 1.363 . S
C1515 C1518 1.363 . S
N1516 C1518 1.356 . S
N1516 H1528 0.984 . S
N1516 H1529 0.985 . S
N1517 C1519 1.356 . S
N1517 H1522 0.984 . S
N1517 H1523 0.985 . S
C1518 C1512 1.379 . S
C1518 C1515 1.363 . S
C1518 N1516 1.356 . S
C1519 C1513 1.363 . S
C1519 C1514 1.379 . S
C1519 N1517 1.356 . S
N1520 C1512 1.356 . S
N1520 H1526 0.984 . S
N1520 H1527 0.984 . S
N1521 C1514 1.356 . S
N1521 H1524 0.984 . S
N1521 H1525 0.985 . S
H1522 N1517 0.984 . S
H1523 N1517 0.985 . S
H1524 N1521 0.984 . S
H1525 N1521 0.985 . S
H1526 N1520 0.984 . S
H1527 N1520 0.984 . S
H1528 N1516 0.984 . S
H1529 N1516 0.985 . S
C1530 C1531 1.363 . S
C1530 C1536 1.379 . S
C1530 N1538 1.356 . S
C1531 C1530 1.363 . S
C1531 C1537 1.363 . S
C1532 C1533 1.363 . S
C1532 C1537 1.379 . S
C1532 N1539 1.356 . S
C1533 C1532 1.363 . S
C1533 C1536 1.363 . S
N1534 C1536 1.356 . S
N1534 H1546 0.984 . S
N1534 H1547 0.985 . S
N1535 C1537 1.356 . S
N1535 H1540 0.984 . S
N1535 H1541 0.985 . S
C1536 C1530 1.379 . S
C1536 C1533 1.363 . S
C1536 N1534 1.356 . S
C1537 C1531 1.363 . S
C1537 C1532 1.379 . S
C1537 N1535 1.356 . S
N1538 C1530 1.356 . S
N1538 H1544 0.984 . S
N1538 H1545 0.984 . S
N1539 C1532 1.356 . S
N1539 H1542 0.984 . S
N1539 H1543 0.985 . S
H1540 N1535 0.984 . S
H1541 N1535 0.985 . S
H1542 N1539 0.984 . S
H1543 N1539 0.985 . S
H1544 N1538 0.984 . S
H1545 N1538 0.984 . S
H1546 N1534 0.984 . S
H1547 N1534 0.985 . S
C1548 C1549 1.363 . S
C1548 C1554 1.379 . S
C1548 N1556 1.356 . S
C1549 C1548 1.363 . S
C1549 C1555 1.363 . S
C1550 C1551 1.363 . S
C1550 C1555 1.379 . S
C1550 N1557 1.356 . S
C1551 C1550 1.363 . S
C1551 C1554 1.363 . S
N1552 C1554 1.356 . S
N1552 H1564 0.984 . S
N1552 H1565 0.985 . S
N1553 C1555 1.356 . S
N1553 H1558 0.984 . S
N1553 H1559 0.985 . S
C1554 C1548 1.379 . S
C1554 C1551 1.363 . S
C1554 N1552 1.356 . S
C1555 C1549 1.363 . S
C1555 C1550 1.379 . S
C1555 N1553 1.356 . S
N1556 C1548 1.356 . S
N1556 H1562 0.984 . S
N1556 H1563 0.984 . S
N1557 C1550 1.356 . S
N1557 H1560 0.984 . S
N1557 H1561 0.985 . S
H1558 N1553 0.984 . S
H1559 N1553 0.985 . S
H1560 N1557 0.984 . S
H1561 N1557 0.985 . S
H1562 N1556 0.984 . S
H1563 N1556 0.984 . S
H1564 N1552 0.984 . S
H1565 N1552 0.985 . S
C1566 C1567 1.363 . S
C1566 C1572 1.379 . S
C1566 N1574 1.356 . S
C1567 C1566 1.363 . S
C1567 C1573 1.363 . S
C1568 C1569 1.363 . S
C1568 C1573 1.379 . S
C1568 N1575 1.356 . S
C1569 C1568 1.363 . S
C1569 C1572 1.363 . S
N1570 C1572 1.356 . S
N1570 H1582 0.984 . S
N1570 H1583 0.985 . S
N1571 C1573 1.356 . S
N1571 H1576 0.984 . S
N1571 H1577 0.985 . S
C1572 C1566 1.379 . S
C1572 C1569 1.363 . S
C1572 N1570 1.356 . S
C1573 C1567 1.363 . S
C1573 C1568 1.379 . S
C1573 N1571 1.356 . S
N1574 C1566 1.356 . S
N1574 H1580 0.984 . S
N1574 H1581 0.984 . S
N1575 C1568 1.356 . S
N1575 H1578 0.984 . S
N1575 H1579 0.985 . S
H1576 N1571 0.984 . S
H1577 N1571 0.985 . S
H1578 N1575 0.984 . S
H1579 N1575 0.985 . S
H1580 N1574 0.984 . S
H1581 N1574 0.984 . S
H1582 N1570 0.984 . S
H1583 N1570 0.985 . S
C1584 C1585 1.363 . S
C1584 C1590 1.379 . S
C1584 N1592 1.356 . S
C1585 C1584 1.363 . S
C1585 C1591 1.363 . S
C1586 C1587 1.363 . S
C1586 C1591 1.379 . S
C1586 N1593 1.356 . S
C1587 C1586 1.363 . S
C1587 C1590 1.363 . S
N1588 C1590 1.356 . S
N1588 H1600 0.984 . S
N1588 H1601 0.985 . S
N1589 C1591 1.356 . S
N1589 H1594 0.984 . S
N1589 H1595 0.985 . S
C1590 C1584 1.379 . S
C1590 C1587 1.363 . S
C1590 N1588 1.356 . S
C1591 C1585 1.363 . S
C1591 C1586 1.379 . S
C1591 N1589 1.356 . S
N1592 C1584 1.356 . S
N1592 H1598 0.984 . S
N1592 H1599 0.984 . S
N1593 C1586 1.356 . S
N1593 H1596 0.984 . S
N1593 H1597 0.985 . S
H1594 N1589 0.984 . S
H1595 N1589 0.985 . S
H1596 N1593 0.984 . S
H1597 N1593 0.985 . S
H1598 N1592 0.984 . S
H1599 N1592 0.984 . S
H1600 N1588 0.984 . S
H1601 N1588 0.985 . S
C1602 C1603 1.363 . S
C1602 C1608 1.379 . S
C1602 N1610 1.356 . S
C1603 C1602 1.363 . S
C1603 C1609 1.363 . S
C1604 C1605 1.363 . S
C1604 C1609 1.379 . S
C1604 N1611 1.356 . S
C1605 C1604 1.363 . S
C1605 C1608 1.363 . S
N1606 C1608 1.356 . S
N1606 H1618 0.984 . S
N1606 H1619 0.985 . S
N1607 C1609 1.356 . S
N1607 H1612 0.984 . S
N1607 H1613 0.985 . S
C1608 C1602 1.379 . S
C1608 C1605 1.363 . S
C1608 N1606 1.356 . S
C1609 C1603 1.363 . S
C1609 C1604 1.379 . S
C1609 N1607 1.356 . S
N1610 C1602 1.356 . S
N1610 H1616 0.984 . S
N1610 H1617 0.984 . S
N1611 C1604 1.356 . S
N1611 H1614 0.984 . S
N1611 H1615 0.985 . S
H1612 N1607 0.984 . S
H1613 N1607 0.985 . S
H1614 N1611 0.984 . S
H1615 N1611 0.985 . S
H1616 N1610 0.984 . S
H1617 N1610 0.984 . S
H1618 N1606 0.984 . S
H1619 N1606 0.985 . S
C1620 C1621 1.363 1_655 S
C1620 C1626 1.379 . S
C1620 N1628 1.356 . S
C1621 C1620 1.363 1_455 S
C1621 C1627 1.363 . S
C1622 C1623 1.363 . S
C1622 C1627 1.379 . S
C1622 N1629 1.356 . S
C1623 C1622 1.363 . S
C1623 C1626 1.363 1_455 S
N1624 C1626 1.356 . S
N1624 H1636 0.984 . S
N1624 H1637 0.985 . S
N1625 C1627 1.356 . S
N1625 H1630 0.984 . S
N1625 H1631 0.985 . S
C1626 C1620 1.379 . S
C1626 C1623 1.363 1_655 S
C1626 N1624 1.356 . S
C1627 C1621 1.363 . S
C1627 C1622 1.379 . S
C1627 N1625 1.356 . S
N1628 C1620 1.356 . S
N1628 H1634 0.984 . S
N1628 H1635 0.984 . S
N1629 C1622 1.356 . S
N1629 H1632 0.984 . S
N1629 H1633 0.985 . S
H1630 N1625 0.984 . S
H1631 N1625 0.985 . S
H1632 N1629 0.984 . S
H1633 N1629 0.985 . S
H1634 N1628 0.984 . S
H1635 N1628 0.984 . S
H1636 N1624 0.984 . S
H1637 N1624 0.985 . S
C1638 C1639 1.363 . S
C1638 C1644 1.379 . S
C1638 N1646 1.356 . S
C1639 C1638 1.363 . S
C1639 C1645 1.363 . S
C1640 C1641 1.363 . S
C1640 C1645 1.379 . S
C1640 N1647 1.356 . S
C1641 C1640 1.363 . S
C1641 C1644 1.363 . S
N1642 C1644 1.356 . S
N1642 H1654 0.984 . S
N1642 H1655 0.985 . S
N1643 C1645 1.356 . S
N1643 H1648 0.984 . S
N1643 H1649 0.985 . S
C1644 C1638 1.379 . S
C1644 C1641 1.363 . S
C1644 N1642 1.356 . S
C1645 C1639 1.363 . S
C1645 C1640 1.379 . S
C1645 N1643 1.356 . S
N1646 C1638 1.356 . S
N1646 H1652 0.984 . S
N1646 H1653 0.984 . S
N1647 C1640 1.356 . S
N1647 H1650 0.984 . S
N1647 H1651 0.985 . S
H1648 N1643 0.984 . S
H1649 N1643 0.985 . S
H1650 N1647 0.984 . S
H1651 N1647 0.985 . S
H1652 N1646 0.984 . S
H1653 N1646 0.984 . S
H1654 N1642 0.984 . S
H1655 N1642 0.985 . S
C1656 C1657 1.363 . S
C1656 C1662 1.379 . S
C1656 N1664 1.356 1_545 S
C1657 C1656 1.363 . S
C1657 C1663 1.363 . S
C1658 C1659 1.363 . S
C1658 C1663 1.379 . S
C1658 N1665 1.356 . S
C1659 C1658 1.363 . S
C1659 C1662 1.363 . S
N1660 C1662 1.367 . S
N1660 H1672 0.970 1_545 S
N1660 H1673 0.990 . S
N1661 C1663 1.356 . S
N1661 H1666 0.984 . S
N1661 H1667 0.985 . S
C1662 C1656 1.379 . S
C1662 C1659 1.363 . S
C1662 N1660 1.367 . S
C1663 C1657 1.363 . S
C1663 C1658 1.379 . S
C1663 N1661 1.356 . S
N1664 C1656 1.356 1_565 S
N1664 H1670 0.984 . S
N1664 H1671 0.984 . S
N1665 C1658 1.356 . S
N1665 H1668 0.984 . S
N1665 H1669 0.985 . S
H1666 N1661 0.984 . S
H1667 N1661 0.985 . S
H1668 N1665 0.984 . S
H1669 N1665 0.985 . S
H1670 N1664 0.984 . S
H1671 N1664 0.984 . S
H1672 N1660 0.970 1_565 S
H1673 N1660 0.990 . S
C1674 C1675 1.363 1_565 S
C1674 C1680 1.379 . S
C1674 N1682 1.356 . S
C1675 C1674 1.363 1_545 S
C1675 C1681 1.363 . S
C1676 C1677 1.363 . S
C1676 C1681 1.379 . S
C1676 N1683 1.356 . S
C1677 C1676 1.363 . S
C1677 C1680 1.363 1_545 S
N1678 C1680 1.356 . S
N1678 H1690 0.984 . S
N1678 H1691 0.985 . S
N1679 C1681 1.356 . S
N1679 H1684 0.984 . S
N1679 H1685 0.985 . S
C1680 C1674 1.379 . S
C1680 C1677 1.363 1_565 S
C1680 N1678 1.356 . S
C1681 C1675 1.363 . S
C1681 C1676 1.379 . S
C1681 N1679 1.356 . S
N1682 C1674 1.356 . S
N1682 H1688 0.984 . S
N1682 H1689 0.984 . S
N1683 C1676 1.356 . S
N1683 H1686 0.984 . S
N1683 H1687 0.985 . S
H1684 N1679 0.984 . S
H1685 N1679 0.985 . S
H1686 N1683 0.984 . S
H1687 N1683 0.985 . S
H1688 N1682 0.984 . S
H1689 N1682 0.984 . S
H1690 N1678 0.984 . S
H1691 N1678 0.985 . S
C1692 C1693 1.363 . S
C1692 C1698 1.379 . S
C1692 N1700 1.356 . S
C1693 C1692 1.363 . S
C1693 C1699 1.363 . S
C1694 C1695 1.363 . S
C1694 C1699 1.379 . S
C1694 N1701 1.356 1_455 S
C1695 C1694 1.363 . S
C1695 C1698 1.363 . S
N1696 C1698 1.356 . S
N1696 H1708 0.984 . S
N1696 H1709 0.985 . S
N1697 C1699 1.363 . S
N1697 H1702 0.988 . S
N1697 H1703 0.975 1_455 S
C1698 C1692 1.379 . S
C1698 C1695 1.363 . S
C1698 N1696 1.356 . S
C1699 C1693 1.363 . S
C1699 C1694 1.379 . S
C1699 N1697 1.363 . S
N1700 C1692 1.356 . S
N1700 H1706 0.984 . S
N1700 H1707 0.984 . S
N1701 C1694 1.356 1_655 S
N1701 H1704 0.984 . S
N1701 H1705 0.985 . S
H1702 N1697 0.988 . S
H1703 N1697 0.975 1_655 S
H1704 N1701 0.984 . S
H1705 N1701 0.985 . S
H1706 N1700 0.984 . S
H1707 N1700 0.984 . S
H1708 N1696 0.984 . S
H1709 N1696 0.985 . S
C1710 C1711 1.363 . S
C1710 C1716 1.379 . S
C1710 N1718 1.356 . S
C1711 C1710 1.363 . S
C1711 C1717 1.363 . S
C1712 C1713 1.363 . S
C1712 C1717 1.379 . S
C1712 N1719 1.356 . S
C1713 C1712 1.363 . S
C1713 C1716 1.363 . S
N1714 C1716 1.356 . S
N1714 H1726 0.984 . S
N1714 H1727 0.985 . S
N1715 C1717 1.356 . S
N1715 H1720 0.984 . S
N1715 H1721 0.985 . S
C1716 C1710 1.379 . S
C1716 C1713 1.363 . S
C1716 N1714 1.356 . S
C1717 C1711 1.363 . S
C1717 C1712 1.379 . S
C1717 N1715 1.356 . S
N1718 C1710 1.356 . S
N1718 H1724 0.984 . S
N1718 H1725 0.984 . S
N1719 C1712 1.356 . S
N1719 H1722 0.984 . S
N1719 H1723 0.985 . S
H1720 N1715 0.984 . S
H1721 N1715 0.985 . S
H1722 N1719 0.984 . S
H1723 N1719 0.985 . S
H1724 N1718 0.984 . S
H1725 N1718 0.984 . S
H1726 N1714 0.984 . S
H1727 N1714 0.985 . S
C1728 C1729 1.363 . S
C1728 C1734 1.379 . S
C1728 N1736 1.356 . S
C1729 C1728 1.363 . S
C1729 C1735 1.363 . S
C1730 C1731 1.363 . S
C1730 C1735 1.379 . S
C1730 N1737 1.356 . S
C1731 C1730 1.363 . S
C1731 C1734 1.363 . S
N1732 C1734 1.356 . S
N1732 H1744 0.984 . S
N1732 H1745 0.985 . S
N1733 C1735 1.356 . S
N1733 H1738 0.984 . S
N1733 H1739 0.985 . S
C1734 C1728 1.379 . S
C1734 C1731 1.363 . S
C1734 N1732 1.356 . S
C1735 C1729 1.363 . S
C1735 C1730 1.379 . S
C1735 N1733 1.356 . S
N1736 C1728 1.356 . S
N1736 H1742 0.984 . S
N1736 H1743 0.984 . S
N1737 C1730 1.356 . S
N1737 H1740 0.984 . S
N1737 H1741 0.985 . S
H1738 N1733 0.984 . S
H1739 N1733 0.985 . S
H1740 N1737 0.984 . S
H1741 N1737 0.985 . S
H1742 N1736 0.984 . S
H1743 N1736 0.984 . S
H1744 N1732 0.984 . S
H1745 N1732 0.985 . S
C1746 C1747 1.363 . S
C1746 C1752 1.379 . S
C1746 N1754 1.356 . S
C1747 C1746 1.363 . S
C1747 C1753 1.363 . S
C1748 C1749 1.363 . S
C1748 C1753 1.379 . S
C1748 N1755 1.356 . S
C1749 C1748 1.363 . S
C1749 C1752 1.363 . S
N1750 C1752 1.356 . S
N1750 H1762 0.984 . S
N1750 H1763 0.985 . S
N1751 C1753 1.356 . S
N1751 H1756 0.984 . S
N1751 H1757 0.985 . S
C1752 C1746 1.379 . S
C1752 C1749 1.363 . S
C1752 N1750 1.356 . S
C1753 C1747 1.363 . S
C1753 C1748 1.379 . S
C1753 N1751 1.356 . S
N1754 C1746 1.356 . S
N1754 H1760 0.984 . S
N1754 H1761 0.984 . S
N1755 C1748 1.356 . S
N1755 H1758 0.984 . S
N1755 H1759 0.985 . S
H1756 N1751 0.984 . S
H1757 N1751 0.985 . S
H1758 N1755 0.984 . S
H1759 N1755 0.985 . S
H1760 N1754 0.984 . S
H1761 N1754 0.984 . S
H1762 N1750 0.984 . S
H1763 N1750 0.985 . S
C1764 C1765 1.363 1_565 S
C1764 C1770 1.379 . S
C1764 N1772 1.356 . S
C1765 C1764 1.363 1_545 S
C1765 C1771 1.363 . S
C1766 C1767 1.363 . S
C1766 C1771 1.379 . S
C1766 N1773 1.356 . S
C1767 C1766 1.363 . S
C1767 C1770 1.363 1_545 S
N1768 C1770 1.356 . S
N1768 H1780 0.984 . S
N1768 H1781 0.985 . S
N1769 C1771 1.356 . S
N1769 H1774 0.984 . S
N1769 H1775 0.985 . S
C1770 C1764 1.379 . S
C1770 C1767 1.363 1_565 S
C1770 N1768 1.356 . S
C1771 C1765 1.363 . S
C1771 C1766 1.379 . S
C1771 N1769 1.356 . S
N1772 C1764 1.356 . S
N1772 H1778 0.984 . S
N1772 H1779 0.984 . S
N1773 C1766 1.356 . S
N1773 H1776 0.984 . S
N1773 H1777 0.985 . S
H1774 N1769 0.984 . S
H1775 N1769 0.985 . S
H1776 N1773 0.984 . S
H1777 N1773 0.985 . S
H1778 N1772 0.984 . S
H1779 N1772 0.984 . S
H1780 N1768 0.984 . S
H1781 N1768 0.985 . S
C1782 C1783 1.363 . S
C1782 C1788 1.379 . S
C1782 N1790 1.356 1_545 S
C1783 C1782 1.363 . S
C1783 C1789 1.363 . S
C1784 C1785 1.363 . S
C1784 C1789 1.379 . S
C1784 N1791 1.356 . S
C1785 C1784 1.363 . S
C1785 C1788 1.363 . S
N1786 C1788 1.356 . S
N1786 H1798 0.984 1_545 S
N1786 H1799 0.985 . S
N1787 C1789 1.356 . S
N1787 H1792 0.984 . S
N1787 H1793 0.985 . S
C1788 C1782 1.379 . S
C1788 C1785 1.363 . S
C1788 N1786 1.356 . S
C1789 C1783 1.363 . S
C1789 C1784 1.379 . S
C1789 N1787 1.356 . S
N1790 C1782 1.356 1_565 S
N1790 H1796 0.984 . S
N1790 H1797 0.984 . S
N1791 C1784 1.356 . S
N1791 H1794 0.984 . S
N1791 H1795 0.985 . S
H1792 N1787 0.984 . S
H1793 N1787 0.985 . S
H1794 N1791 0.984 . S
H1795 N1791 0.985 . S
H1796 N1790 0.984 . S
H1797 N1790 0.984 . S
H1798 N1786 0.984 1_565 S
H1799 N1786 0.985 . S
C1800 C1801 1.363 . S
C1800 C1806 1.379 . S
C1800 N1808 1.356 . S
C1801 C1800 1.363 . S
C1801 C1807 1.363 1_455 S
C1802 C1803 1.363 1_655 S
C1802 C1807 1.379 . S
C1802 N1809 1.356 . S
C1803 C1802 1.363 1_455 S
C1803 C1806 1.363 . S
N1804 C1806 1.356 . S
N1804 H1816 0.984 . S
N1804 H1817 0.985 . S
N1805 C1807 1.356 . S
N1805 H1810 0.984 . S
N1805 H1811 0.985 . S
C1806 C1800 1.379 . S
C1806 C1803 1.363 . S
C1806 N1804 1.356 . S
C1807 C1801 1.363 1_655 S
C1807 C1802 1.379 . S
C1807 N1805 1.356 . S
N1808 C1800 1.356 . S
N1808 H1814 0.984 . S
N1808 H1815 0.984 . S
N1809 C1802 1.356 . S
N1809 H1812 0.984 . S
N1809 H1813 0.985 . S
H1810 N1805 0.984 . S
H1811 N1805 0.985 . S
H1812 N1809 0.984 . S
H1813 N1809 0.985 . S
H1814 N1808 0.984 . S
H1815 N1808 0.984 . S
H1816 N1804 0.984 . S
H1817 N1804 0.985 . S
C1818 C1819 1.363 . S
C1818 C1824 1.379 . S
C1818 N1826 1.356 . S
C1819 C1818 1.363 . S
C1819 C1825 1.363 . S
C1820 C1821 1.363 . S
C1820 C1825 1.379 . S
C1820 N1827 1.356 . S
C1821 C1820 1.363 . S
C1821 C1824 1.363 . S
N1822 C1824 1.356 . S
N1822 H1834 0.984 . S
N1822 H1835 0.985 . S
N1823 C1825 1.356 . S
N1823 H1828 0.984 . S
N1823 H1829 0.985 . S
C1824 C1818 1.379 . S
C1824 C1821 1.363 . S
C1824 N1822 1.356 . S
C1825 C1819 1.363 . S
C1825 C1820 1.379 . S
C1825 N1823 1.356 . S
N1826 C1818 1.356 . S
N1826 H1832 0.984 . S
N1826 H1833 0.984 . S
N1827 C1820 1.356 . S
N1827 H1830 0.984 . S
N1827 H1831 0.985 . S
H1828 N1823 0.984 . S
H1829 N1823 0.985 . S
H1830 N1827 0.984 . S
H1831 N1827 0.985 . S
H1832 N1826 0.984 . S
H1833 N1826 0.984 . S
H1834 N1822 0.984 . S
H1835 N1822 0.985 . S
C1836 C1837 1.363 . S
C1836 C1842 1.379 . S
C1836 N1844 1.356 . S
C1837 C1836 1.363 . S
C1837 C1843 1.363 . S
C1838 C1839 1.363 . S
C1838 C1843 1.379 . S
C1838 N1845 1.356 . S
C1839 C1838 1.363 . S
C1839 C1842 1.363 . S
N1840 C1842 1.356 . S
N1840 H1852 0.984 . S
N1840 H1853 0.985 . S
N1841 C1843 1.356 . S
N1841 H1846 0.984 . S
N1841 H1847 0.985 . S
C1842 C1836 1.379 . S
C1842 C1839 1.363 . S
C1842 N1840 1.356 . S
C1843 C1837 1.363 . S
C1843 C1838 1.379 . S
C1843 N1841 1.356 . S
N1844 C1836 1.356 . S
N1844 H1850 0.984 . S
N1844 H1851 0.984 . S
N1845 C1838 1.356 . S
N1845 H1848 0.984 . S
N1845 H1849 0.985 . S
H1846 N1841 0.984 . S
H1847 N1841 0.985 . S
H1848 N1845 0.984 . S
H1849 N1845 0.985 . S
H1850 N1844 0.984 . S
H1851 N1844 0.984 . S
H1852 N1840 0.984 . S
H1853 N1840 0.985 . S
C1854 C1855 1.363 . S
C1854 C1860 1.379 . S
C1854 N1862 1.356 . S
C1855 C1854 1.363 . S
C1855 C1861 1.363 . S
C1856 C1857 1.363 1_565 S
C1856 C1861 1.379 1_565 S
C1856 N1863 1.356 . S
C1857 C1856 1.363 1_545 S
C1857 C1860 1.363 . S
N1858 C1860 1.356 . S
N1858 H1870 0.984 . S
N1858 H1871 0.985 . S
N1859 C1861 1.356 1_565 S
N1859 H1864 0.982 1_565 S
N1859 H1865 0.985 . S
C1860 C1854 1.379 . S
C1860 C1857 1.363 . S
C1860 N1858 1.356 . S
C1861 C1855 1.363 . S
C1861 C1856 1.379 1_545 S
C1861 N1859 1.356 1_545 S
N1862 C1854 1.356 . S
N1862 H1868 0.984 . S
N1862 H1869 0.984 . S
N1863 C1856 1.356 . S
N1863 H1866 0.984 . S
N1863 H1867 0.985 . S
H1864 N1859 0.982 1_545 S
H1865 N1859 0.985 . S
H1866 N1863 0.984 . S
H1867 N1863 0.985 . S
H1868 N1862 0.984 . S
H1869 N1862 0.984 . S
H1870 N1858 0.984 . S
H1871 N1858 0.985 . S
C1872 C1873 1.363 . S
C1872 C1878 1.379 . S
C1872 N1880 1.356 . S
C1873 C1872 1.363 . S
C1873 C1879 1.363 1_455 S
C1874 C1875 1.363 . S
C1874 C1879 1.379 1_455 S
C1874 N1881 1.356 1_455 S
C1875 C1874 1.363 . S
C1875 C1878 1.363 . S
N1876 C1878 1.356 . S
N1876 H1888 0.984 . S
N1876 H1889 0.985 . S
N1877 C1879 1.356 . S
N1877 H1882 0.984 . S
N1877 H1883 0.985 . S
C1878 C1872 1.379 . S
C1878 C1875 1.363 . S
C1878 N1876 1.356 . S
C1879 C1873 1.363 1_655 S
C1879 C1874 1.379 1_655 S
C1879 N1877 1.356 . S
N1880 C1872 1.356 . S
N1880 H1886 0.984 . S
N1880 H1887 0.984 . S
N1881 C1874 1.356 1_655 S
N1881 H1884 0.982 1_655 S
N1881 H1885 0.985 . S
H1882 N1877 0.984 . S
H1883 N1877 0.985 . S
H1884 N1881 0.982 1_455 S
H1885 N1881 0.985 . S
H1886 N1880 0.984 . S
H1887 N1880 0.984 . S
H1888 N1876 0.984 . S
H1889 N1876 0.985 . S
C1890 C1891 1.363 . S
C1890 C1896 1.379 . S
C1890 N1898 1.356 . S
C1891 C1890 1.363 . S
C1891 C1897 1.363 . S
C1892 C1893 1.363 . S
C1892 C1897 1.379 . S
C1892 N1899 1.356 . S
C1893 C1892 1.363 . S
C1893 C1896 1.363 . S
N1894 C1896 1.356 . S
N1894 H1906 0.984 . S
N1894 H1907 0.985 . S
N1895 C1897 1.356 . S
N1895 H1900 0.984 . S
N1895 H1901 0.985 . S
C1896 C1890 1.379 . S
C1896 C1893 1.363 . S
C1896 N1894 1.356 . S
C1897 C1891 1.363 . S
C1897 C1892 1.379 . S
C1897 N1895 1.356 . S
N1898 C1890 1.356 . S
N1898 H1904 0.984 . S
N1898 H1905 0.984 . S
N1899 C1892 1.356 . S
N1899 H1902 0.984 . S
N1899 H1903 0.985 . S
H1900 N1895 0.984 . S
H1901 N1895 0.985 . S
H1902 N1899 0.984 . S
H1903 N1899 0.985 . S
H1904 N1898 0.984 . S
H1905 N1898 0.984 . S
H1906 N1894 0.984 . S
H1907 N1894 0.985 . S
C1908 C1909 1.363 . S
C1908 C1914 1.379 . S
C1908 N1916 1.356 . S
C1909 C1908 1.363 . S
C1909 C1915 1.363 . S
C1910 C1911 1.363 . S
C1910 C1915 1.379 . S
C1910 N1917 1.356 1_545 S
C1911 C1910 1.363 . S
C1911 C1914 1.363 . S
N1912 C1914 1.356 . S
N1912 H1924 0.984 . S
N1912 H1925 0.985 . S
N1913 C1915 1.356 1_565 S
N1913 H1918 0.984 . S
N1913 H1919 0.985 . S
C1914 C1908 1.379 . S
C1914 C1911 1.363 . S
C1914 N1912 1.356 . S
C1915 C1909 1.363 . S
C1915 C1910 1.379 . S
C1915 N1913 1.356 1_545 S
N1916 C1908 1.356 . S
N1916 H1922 0.984 . S
N1916 H1923 0.984 . S
N1917 C1910 1.356 1_565 S
N1917 H1920 0.984 1_565 S
N1917 H1921 0.985 . S
H1918 N1913 0.984 . S
H1919 N1913 0.985 . S
H1920 N1917 0.984 1_545 S
H1921 N1917 0.985 . S
H1922 N1916 0.984 . S
H1923 N1916 0.984 . S
H1924 N1912 0.984 . S
H1925 N1912 0.985 . S
C1926 C1927 1.363 . S
C1926 C1932 1.379 . S
C1926 N1934 1.356 . S
C1927 C1926 1.363 . S
C1927 C1933 1.363 1_455 S
C1928 C1929 1.363 . S
C1928 C1933 1.379 1_455 S
C1928 N1935 1.356 1_455 S
C1929 C1928 1.363 . S
C1929 C1932 1.363 . S
N1930 C1932 1.356 . S
N1930 H1942 0.984 . S
N1930 H1943 0.985 . S
N1931 C1933 1.356 . S
N1931 H1936 0.984 . S
N1931 H1937 0.985 . S
C1932 C1926 1.379 . S
C1932 C1929 1.363 . S
C1932 N1930 1.356 . S
C1933 C1927 1.363 1_655 S
C1933 C1928 1.379 1_655 S
C1933 N1931 1.356 . S
N1934 C1926 1.356 . S
N1934 H1940 0.984 . S
N1934 H1941 0.984 . S
N1935 C1928 1.356 1_655 S
N1935 H1938 0.984 . S
N1935 H1939 0.985 . S
H1936 N1931 0.984 . S
H1937 N1931 0.985 . S
H1938 N1935 0.984 . S
H1939 N1935 0.985 . S
H1940 N1934 0.984 . S
H1941 N1934 0.984 . S
H1942 N1930 0.984 . S
H1943 N1930 0.985 . S
C1944 C1945 1.363 . S
C1944 C1950 1.379 1_554 S
C1944 N1952 1.356 . S
C1945 C1944 1.363 . S
C1945 C1951 1.363 . S
C1946 C1947 1.363 . S
C1946 C1951 1.379 1_556 S
C1946 N1953 1.356 . S
C1947 C1946 1.363 . S
C1947 C1950 1.363 . S
N1948 C1950 1.356 . S
N1948 H1960 0.984 . S
N1948 H1961 0.985 . S
N1949 C1951 1.356 . S
N1949 H1954 0.984 . S
N1949 H1955 0.985 . S
C1950 C1944 1.379 1_556 S
C1950 C1947 1.363 . S
C1950 N1948 1.356 . S
C1951 C1945 1.363 . S
C1951 C1946 1.379 1_554 S
C1951 N1949 1.356 . S
N1952 C1944 1.356 . S
N1952 H1958 0.984 . S
N1952 H1959 0.984 . S
N1953 C1946 1.356 . S
N1953 H1956 0.984 . S
N1953 H1957 0.985 . S
H1954 N1949 0.984 . S
H1955 N1949 0.985 . S
H1956 N1953 0.984 . S
H1957 N1953 0.985 . S
H1958 N1952 0.984 . S
H1959 N1952 0.984 . S
H1960 N1948 0.984 . S
H1961 N1948 0.985 . S
C1962 C1963 1.363 . S
C1962 C1968 1.379 1_556 S
C1962 N1970 1.356 . S
C1963 C1962 1.363 . S
C1963 C1969 1.363 . S
C1964 C1965 1.363 . S
C1964 C1969 1.379 1_554 S
C1964 N1971 1.356 . S
C1965 C1964 1.363 . S
C1965 C1968 1.363 . S
N1966 C1968 1.356 . S
N1966 H1978 0.984 . S
N1966 H1979 0.985 . S
N1967 C1969 1.356 . S
N1967 H1972 0.984 . S
N1967 H1973 0.985 . S
C1968 C1962 1.379 1_554 S
C1968 C1965 1.363 . S
C1968 N1966 1.356 . S
C1969 C1963 1.363 . S
C1969 C1964 1.379 1_556 S
C1969 N1967 1.356 . S
N1970 C1962 1.356 . S
N1970 H1976 0.984 . S
N1970 H1977 0.984 . S
N1971 C1964 1.356 . S
N1971 H1974 0.984 . S
N1971 H1975 0.985 . S
H1972 N1967 0.984 . S
H1973 N1967 0.985 . S
H1974 N1971 0.984 . S
H1975 N1971 0.985 . S
H1976 N1970 0.984 . S
H1977 N1970 0.984 . S
H1978 N1966 0.984 . S
H1979 N1966 0.985 . S
C1980 C1981 1.363 . S
C1980 C1986 1.379 1_556 S
C1980 N1988 1.356 1_545 S
C1981 C1980 1.363 . S
C1981 C1987 1.363 . S
C1982 C1983 1.363 . S
C1982 C1987 1.379 1_554 S
C1982 N1989 1.356 . S
C1983 C1982 1.363 . S
C1983 C1986 1.363 . S
N1984 C1986 1.356 1_565 S
N1984 H1996 0.984 . S
N1984 H1997 0.985 . S
N1985 C1987 1.356 . S
N1985 H1990 0.984 . S
N1985 H1991 0.985 . S
C1986 C1980 1.379 1_554 S
C1986 C1983 1.363 . S
C1986 N1984 1.356 1_545 S
C1987 C1981 1.363 . S
C1987 C1982 1.379 1_556 S
C1987 N1985 1.356 . S
N1988 C1980 1.356 1_565 S
N1988 H1994 0.984 . S
N1988 H1995 0.984 . S
N1989 C1982 1.356 . S
N1989 H1992 0.984 . S
N1989 H1993 0.985 . S
H1990 N1985 0.984 . S
H1991 N1985 0.985 . S
H1992 N1989 0.984 . S
H1993 N1989 0.985 . S
H1994 N1988 0.984 . S
H1995 N1988 0.984 . S
H1996 N1984 0.984 . S
H1997 N1984 0.985 . S
C1998 C1999 1.355 1_655 S
C1998 C2004 1.378 1_656 S
C1998 N2006 1.364 . S
C1999 C1998 1.355 1_455 S
C1999 C2005 1.363 . S
C2000 C2001 1.363 . S
C2000 C2005 1.379 1_554 S
C2000 N2007 1.356 . S
C2001 C2000 1.363 . S
C2001 C2004 1.363 . S
N2002 C2004 1.356 1_655 S
N2002 H2014 0.984 . S
N2002 H2015 0.985 . S
N2003 C2005 1.356 . S
N2003 H2008 0.984 . S
N2003 H2009 0.985 . S
C2004 C1998 1.378 1_454 S
C2004 C2001 1.363 . S
C2004 N2002 1.356 1_455 S
C2005 C1999 1.363 . S
C2005 C2000 1.379 1_556 S
C2005 N2003 1.356 . S
N2006 C1998 1.364 . S
N2006 H2012 0.984 . S
N2006 H2013 0.984 . S
N2007 C2000 1.356 . S
N2007 H2010 0.984 . S
N2007 H2011 0.985 . S
H2008 N2003 0.984 . S
H2009 N2003 0.985 . S
H2010 N2007 0.984 . S
H2011 N2007 0.985 . S
H2012 N2006 0.984 . S
H2013 N2006 0.984 . S
H2014 N2002 0.984 . S
H2015 N2002 0.985 . S
C2016 C2017 1.363 . S
C2016 C2022 1.379 1_554 S
C2016 N2024 1.356 . S
C2017 C2016 1.363 . S
C2017 C2023 1.363 . S
C2018 C2019 1.363 . S
C2018 C2023 1.379 1_556 S
C2018 N2025 1.356 . S
C2019 C2018 1.363 . S
C2019 C2022 1.363 . S
N2020 C2022 1.356 . S
N2020 H2032 0.984 . S
N2020 H2033 0.985 . S
N2021 C2023 1.356 . S
N2021 H2026 0.984 . S
N2021 H2027 0.985 . S
C2022 C2016 1.379 1_556 S
C2022 C2019 1.363 . S
C2022 N2020 1.356 . S
C2023 C2017 1.363 . S
C2023 C2018 1.379 1_554 S
C2023 N2021 1.356 . S
N2024 C2016 1.356 . S
N2024 H2030 0.984 . S
N2024 H2031 0.984 . S
N2025 C2018 1.356 . S
N2025 H2028 0.984 . S
N2025 H2029 0.985 . S
H2026 N2021 0.984 . S
H2027 N2021 0.985 . S
H2028 N2025 0.984 . S
H2029 N2025 0.985 . S
H2030 N2024 0.984 . S
H2031 N2024 0.984 . S
H2032 N2020 0.984 . S
H2033 N2020 0.985 . S
C2034 C2035 1.363 . S
C2034 C2040 1.379 1_556 S
C2034 N2042 1.356 1_545 S
C2035 C2034 1.363 . S
C2035 C2041 1.363 . S
C2036 C2037 1.363 . S
C2036 C2041 1.379 1_554 S
C2036 N2043 1.356 . S
C2037 C2036 1.363 . S
C2037 C2040 1.363 . S
N2038 C2040 1.356 1_565 S
N2038 H2050 0.984 . S
N2038 H2051 0.985 . S
N2039 C2041 1.356 . S
N2039 H2044 0.984 . S
N2039 H2045 0.985 . S
C2040 C2034 1.379 1_554 S
C2040 C2037 1.363 . S
C2040 N2038 1.356 1_545 S
C2041 C2035 1.363 . S
C2041 C2036 1.379 1_556 S
C2041 N2039 1.356 . S
N2042 C2034 1.356 1_565 S
N2042 H2048 0.984 . S
N2042 H2049 0.984 . S
N2043 C2036 1.356 . S
N2043 H2046 0.984 . S
N2043 H2047 0.985 . S
H2044 N2039 0.984 . S
H2045 N2039 0.985 . S
H2046 N2043 0.984 . S
H2047 N2043 0.985 . S
H2048 N2042 0.984 . S
H2049 N2042 0.984 . S
H2050 N2038 0.984 . S
H2051 N2038 0.985 . S
C2052 C2053 1.363 . S
C2052 C2058 1.379 . S
C2052 N2060 1.356 . S
C2053 C2052 1.363 . S
C2053 C2059 1.363 . S
C2054 C2055 1.363 . S
C2054 C2059 1.379 . S
C2054 N2061 1.356 . S
C2055 C2054 1.363 . S
C2055 C2058 1.363 . S
N2056 C2058 1.356 . S
N2056 H2068 0.984 . S
N2056 H2069 0.985 . S
N2057 C2059 1.356 . S
N2057 H2062 0.984 . S
N2057 H2063 0.985 . S
C2058 C2052 1.379 . S
C2058 C2055 1.363 . S
C2058 N2056 1.356 . S
C2059 C2053 1.363 . S
C2059 C2054 1.379 . S
C2059 N2057 1.356 . S
N2060 C2052 1.356 . S
N2060 H2066 0.984 . S
N2060 H2067 0.984 . S
N2061 C2054 1.356 . S
N2061 H2064 0.984 . S
N2061 H2065 0.985 . S
H2062 N2057 0.984 . S
H2063 N2057 0.985 . S
H2064 N2061 0.984 . S
H2065 N2061 0.985 . S
H2066 N2060 0.984 . S
H2067 N2060 0.984 . S
H2068 N2056 0.984 . S
H2069 N2056 0.985 . S
C2070 C2071 1.363 . S
C2070 C2076 1.379 . S
C2070 N2078 1.356 . S
C2071 C2070 1.363 . S
C2071 C2077 1.363 . S
C2072 C2073 1.363 . S
C2072 C2077 1.379 . S
C2072 N2079 1.356 . S
C2073 C2072 1.363 . S
C2073 C2076 1.363 . S
N2074 C2076 1.356 . S
N2074 H2086 0.984 . S
N2074 H2087 0.985 . S
N2075 C2077 1.356 . S
N2075 H2080 0.984 . S
N2075 H2081 0.985 . S
C2076 C2070 1.379 . S
C2076 C2073 1.363 . S
C2076 N2074 1.356 . S
C2077 C2071 1.363 . S
C2077 C2072 1.379 . S
C2077 N2075 1.356 . S
N2078 C2070 1.356 . S
N2078 H2084 0.984 . S
N2078 H2085 0.984 . S
N2079 C2072 1.356 . S
N2079 H2082 0.984 . S
N2079 H2083 1.010 . S
H2080 N2075 0.984 . S
H2081 N2075 0.985 . S
H2082 N2079 0.984 . S
H2083 N2079 1.010 . S
H2084 N2078 0.984 . S
H2085 N2078 0.984 . S
H2086 N2074 0.984 . S
H2087 N2074 0.985 . S
C2088 C2089 1.363 . S
C2088 C2094 1.379 . S
C2088 N2096 1.356 . S
C2089 C2088 1.363 . S
C2089 C2095 1.363 . S
C2090 C2091 1.363 . S
C2090 C2095 1.379 . S
C2090 N2097 1.356 . S
C2091 C2090 1.363 . S
C2091 C2094 1.363 . S
N2092 C2094 1.356 . S
N2092 H2104 0.984 . S
N2092 H2105 0.985 . S
N2093 C2095 1.356 . S
N2093 H2098 0.984 . S
N2093 H2099 0.985 . S
C2094 C2088 1.379 . S
C2094 C2091 1.363 . S
C2094 N2092 1.356 . S
C2095 C2089 1.363 . S
C2095 C2090 1.379 . S
C2095 N2093 1.356 . S
N2096 C2088 1.356 . S
N2096 H2102 0.984 . S
N2096 H2103 0.984 . S
N2097 C2090 1.356 . S
N2097 H2100 0.984 . S
N2097 H2101 0.985 . S
H2098 N2093 0.984 . S
H2099 N2093 0.985 . S
H2100 N2097 0.984 . S
H2101 N2097 0.985 . S
H2102 N2096 0.984 . S
H2103 N2096 0.984 . S
H2104 N2092 0.984 . S
H2105 N2092 0.985 . S
C2106 C2107 1.363 . S
C2106 C2112 1.379 . S
C2106 N2114 1.356 . S
C2107 C2106 1.363 . S
C2107 C2113 1.363 . S
C2108 C2109 1.363 . S
C2108 C2113 1.379 . S
C2108 N2115 1.356 . S
C2109 C2108 1.363 . S
C2109 C2112 1.363 . S
N2110 C2112 1.356 . S
N2110 H2122 0.984 . S
N2110 H2123 0.985 . S
N2111 C2113 1.356 . S
N2111 H2116 0.984 . S
N2111 H2117 0.985 . S
C2112 C2106 1.379 . S
C2112 C2109 1.363 . S
C2112 N2110 1.356 . S
C2113 C2107 1.363 . S
C2113 C2108 1.379 . S
C2113 N2111 1.356 . S
N2114 C2106 1.356 . S
N2114 H2120 0.984 . S
N2114 H2121 0.984 . S
N2115 C2108 1.356 . S
N2115 H2118 0.984 . S
N2115 H2119 0.985 . S
H2116 N2111 0.984 . S
H2117 N2111 0.985 . S
H2118 N2115 0.984 . S
H2119 N2115 0.985 . S
H2120 N2114 0.984 . S
H2121 N2114 0.984 . S
H2122 N2110 0.984 . S
H2123 N2110 0.985 . S
C2124 C2125 1.363 . S
C2124 C2130 1.379 . S
C2124 N2132 1.356 . S
C2125 C2124 1.363 . S
C2125 C2131 1.363 . S
C2126 C2127 1.363 . S
C2126 C2131 1.379 . S
C2126 N2133 1.356 . S
C2127 C2126 1.363 . S
C2127 C2130 1.363 . S
N2128 C2130 1.356 . S
N2128 H2140 0.984 . S
N2128 H2141 0.985 . S
N2129 C2131 1.356 . S
N2129 H2134 0.984 . S
N2129 H2135 0.985 . S
C2130 C2124 1.379 . S
C2130 C2127 1.363 . S
C2130 N2128 1.356 . S
C2131 C2125 1.363 . S
C2131 C2126 1.379 . S
C2131 N2129 1.356 . S
N2132 C2124 1.356 . S
N2132 H2138 0.984 . S
N2132 H2139 0.984 . S
N2133 C2126 1.356 . S
N2133 H2136 0.984 . S
N2133 H2137 0.985 . S
H2134 N2129 0.984 . S
H2135 N2129 0.985 . S
H2136 N2133 0.984 . S
H2137 N2133 0.985 . S
H2138 N2132 0.984 . S
H2139 N2132 0.984 . S
H2140 N2128 0.984 . S
H2141 N2128 0.985 . S
C2142 C2143 1.363 . S
C2142 C2148 1.379 . S
C2142 N2150 1.356 . S
C2143 C2142 1.363 . S
C2143 C2149 1.363 . S
C2144 C2145 1.363 . S
C2144 C2149 1.379 . S
C2144 N2151 1.356 . S
C2145 C2144 1.363 . S
C2145 C2148 1.363 . S
N2146 C2148 1.356 . S
N2146 H2158 0.984 . S
N2146 H2159 0.985 . S
N2147 C2149 1.356 . S
N2147 H2152 0.984 . S
N2147 H2153 0.985 . S
C2148 C2142 1.379 . S
C2148 C2145 1.363 . S
C2148 N2146 1.356 . S
C2149 C2143 1.363 . S
C2149 C2144 1.379 . S
C2149 N2147 1.356 . S
N2150 C2142 1.356 . S
N2150 H2156 0.984 . S
N2150 H2157 0.984 . S
N2151 C2144 1.356 . S
N2151 H2154 0.984 . S
N2151 H2155 0.985 . S
H2152 N2147 0.984 . S
H2153 N2147 0.985 . S
H2154 N2151 0.984 . S
H2155 N2151 0.985 . S
H2156 N2150 0.984 . S
H2157 N2150 0.984 . S
H2158 N2146 0.984 . S
H2159 N2146 0.985 . S
C2160 C2161 1.363 1_545 S
C2160 C2166 1.379 . S
C2160 N2168 1.356 . S
C2161 C2160 1.363 1_565 S
C2161 C2167 1.363 . S
C2162 C2163 1.363 . S
C2162 C2167 1.379 . S
C2162 N2169 1.356 . S
C2163 C2162 1.363 . S
C2163 C2166 1.363 1_565 S
N2164 C2166 1.356 . S
N2164 H2176 0.984 . S
N2164 H2177 0.985 . S
N2165 C2167 1.356 . S
N2165 H2170 0.984 . S
N2165 H2171 0.985 . S
C2166 C2160 1.379 . S
C2166 C2163 1.363 1_545 S
C2166 N2164 1.356 . S
C2167 C2161 1.363 . S
C2167 C2162 1.379 . S
C2167 N2165 1.356 . S
N2168 C2160 1.356 . S
N2168 H2174 0.984 . S
N2168 H2175 0.984 . S
N2169 C2162 1.356 . S
N2169 H2172 0.984 . S
N2169 H2173 0.985 . S
H2170 N2165 0.984 . S
H2171 N2165 0.985 . S
H2172 N2169 0.984 . S
H2173 N2169 0.985 . S
H2174 N2168 0.984 . S
H2175 N2168 0.984 . S
H2176 N2164 0.984 . S
H2177 N2164 0.985 . S
C2178 C2179 1.363 . S
C2178 C2184 1.379 . S
C2178 N2186 1.356 . S
C2179 C2178 1.363 . S
C2179 C2185 1.363 . S
C2180 C2181 1.363 . S
C2180 C2185 1.379 . S
C2180 N2187 1.356 . S
C2181 C2180 1.363 . S
C2181 C2184 1.363 . S
N2182 C2184 1.356 . S
N2182 H2194 0.984 . S
N2182 H2195 0.985 . S
N2183 C2185 1.356 . S
N2183 H2188 0.984 . S
N2183 H2189 0.985 . S
C2184 C2178 1.379 . S
C2184 C2181 1.363 . S
C2184 N2182 1.356 . S
C2185 C2179 1.363 . S
C2185 C2180 1.379 . S
C2185 N2183 1.356 . S
N2186 C2178 1.356 . S
N2186 H2192 0.984 . S
N2186 H2193 0.984 . S
N2187 C2180 1.356 . S
N2187 H2190 0.984 . S
N2187 H2191 0.985 . S
H2188 N2183 0.984 . S
H2189 N2183 0.985 . S
H2190 N2187 0.984 . S
H2191 N2187 0.985 . S
H2192 N2186 0.984 . S
H2193 N2186 0.984 . S
H2194 N2182 0.984 . S
H2195 N2182 0.985 . S
C2196 C2197 1.363 . S
C2196 C2202 1.379 . S
C2196 N2204 1.356 . S
C2197 C2196 1.363 . S
C2197 C2203 1.363 . S
C2198 C2199 1.363 . S
C2198 C2203 1.379 . S
C2198 N2205 1.356 . S
C2199 C2198 1.363 . S
C2199 C2202 1.363 . S
N2200 C2202 1.356 . S
N2200 H2212 0.984 . S
N2200 H2213 0.985 . S
N2201 C2203 1.356 . S
N2201 H2206 0.984 . S
N2201 H2207 0.985 . S
C2202 C2196 1.379 . S
C2202 C2199 1.363 . S
C2202 N2200 1.356 . S
C2203 C2197 1.363 . S
C2203 C2198 1.379 . S
C2203 N2201 1.356 . S
N2204 C2196 1.356 . S
N2204 H2210 0.984 . S
N2204 H2211 0.984 . S
N2205 C2198 1.356 . S
N2205 H2208 0.984 . S
N2205 H2209 0.985 . S
H2206 N2201 0.984 . S
H2207 N2201 0.985 . S
H2208 N2205 0.984 . S
H2209 N2205 0.985 . S
H2210 N2204 0.984 . S
H2211 N2204 0.984 . S
H2212 N2200 0.984 . S
H2213 N2200 0.985 . S
C2214 C2215 1.363 . S
C2214 C2220 1.379 . S
C2214 N2222 1.356 . S
C2215 C2214 1.363 . S
C2215 C2221 1.363 . S
C2216 C2217 1.363 . S
C2216 C2221 1.379 . S
C2216 N2223 1.356 . S
C2217 C2216 1.363 . S
C2217 C2220 1.363 . S
N2218 C2220 1.356 . S
N2218 H2230 0.984 . S
N2218 H2231 0.985 . S
N2219 C2221 1.356 . S
N2219 H2224 0.984 . S
N2219 H2225 0.985 . S
C2220 C2214 1.379 . S
C2220 C2217 1.363 . S
C2220 N2218 1.356 . S
C2221 C2215 1.363 . S
C2221 C2216 1.379 . S
C2221 N2219 1.356 . S
N2222 C2214 1.356 . S
N2222 H2228 0.984 . S
N2222 H2229 0.984 . S
N2223 C2216 1.356 . S
N2223 H2226 0.984 . S
N2223 H2227 0.985 . S
H2224 N2219 0.984 . S
H2225 N2219 0.985 . S
H2226 N2223 0.984 . S
H2227 N2223 0.985 . S
H2228 N2222 0.984 . S
H2229 N2222 0.984 . S
H2230 N2218 0.984 . S
H2231 N2218 0.985 . S
C2232 C2233 1.363 1_545 S
C2232 C2238 1.379 . S
C2232 N2240 1.356 . S
C2233 C2232 1.363 1_565 S
C2233 C2239 1.363 . S
C2234 C2235 1.363 . S
C2234 C2239 1.379 . S
C2234 N2241 1.356 . S
C2235 C2234 1.363 . S
C2235 C2238 1.363 1_565 S
N2236 C2238 1.356 . S
N2236 H2248 0.984 . S
N2236 H2249 0.985 . S
N2237 C2239 1.356 . S
N2237 H2242 0.984 . S
N2237 H2243 0.985 . S
C2238 C2232 1.379 . S
C2238 C2235 1.363 1_545 S
C2238 N2236 1.356 . S
C2239 C2233 1.363 . S
C2239 C2234 1.379 . S
C2239 N2237 1.356 . S
N2240 C2232 1.356 . S
N2240 H2246 0.984 . S
N2240 H2247 0.984 . S
N2241 C2234 1.356 . S
N2241 H2244 0.984 . S
N2241 H2245 0.985 . S
H2242 N2237 0.984 . S
H2243 N2237 0.985 . S
H2244 N2241 0.984 . S
H2245 N2241 0.985 . S
H2246 N2240 0.984 . S
H2247 N2240 0.984 . S
H2248 N2236 0.984 . S
H2249 N2236 0.985 . S
C2250 C2251 1.363 . S
C2250 C2256 1.379 . S
C2250 N2258 1.356 . S
C2251 C2250 1.363 . S
C2251 C2257 1.363 . S
C2252 C2253 1.363 . S
C2252 C2257 1.379 . S
C2252 N2259 1.356 . S
C2253 C2252 1.363 . S
C2253 C2256 1.363 . S
N2254 C2256 1.356 . S
N2254 H2266 0.984 . S
N2254 H2267 0.985 . S
N2255 C2257 1.356 . S
N2255 H2260 0.984 . S
N2255 H2261 0.985 . S
C2256 C2250 1.379 . S
C2256 C2253 1.363 . S
C2256 N2254 1.356 . S
C2257 C2251 1.363 . S
C2257 C2252 1.379 . S
C2257 N2255 1.356 . S
N2258 C2250 1.356 . S
N2258 H2264 0.984 . S
N2258 H2265 0.984 . S
N2259 C2252 1.356 . S
N2259 H2262 0.984 . S
N2259 H2263 0.985 . S
H2260 N2255 0.984 . S
H2261 N2255 0.985 . S
H2262 N2259 0.984 . S
H2263 N2259 0.985 . S
H2264 N2258 0.984 . S
H2265 N2258 0.984 . S
H2266 N2254 0.984 . S
H2267 N2254 0.985 . S
C2268 C2269 1.363 . S
C2268 C2274 1.379 . S
C2268 N2276 1.356 . S
C2269 C2268 1.363 . S
C2269 C2275 1.363 . S
C2270 C2271 1.363 . S
C2270 C2275 1.379 . S
C2270 N2277 1.356 . S
C2271 C2270 1.363 . S
C2271 C2274 1.363 . S
N2272 C2274 1.356 . S
N2272 H2284 0.984 . S
N2272 H2285 0.985 . S
N2273 C2275 1.356 . S
N2273 H2278 0.984 . S
N2273 H2279 0.985 . S
C2274 C2268 1.379 . S
C2274 C2271 1.363 . S
C2274 N2272 1.356 . S
C2275 C2269 1.363 . S
C2275 C2270 1.379 . S
C2275 N2273 1.356 . S
N2276 C2268 1.356 . S
N2276 H2282 0.984 . S
N2276 H2283 0.984 . S
N2277 C2270 1.356 . S
N2277 H2280 0.984 . S
N2277 H2281 0.985 . S
H2278 N2273 0.984 . S
H2279 N2273 0.985 . S
H2280 N2277 0.984 . S
H2281 N2277 0.985 . S
H2282 N2276 0.984 . S
H2283 N2276 0.984 . S
H2284 N2272 0.984 . S
H2285 N2272 0.985 . S
C2286 C2287 1.363 . S
C2286 C2292 1.379 . S
C2286 N2294 1.356 . S
C2287 C2286 1.363 . S
C2287 C2293 1.363 . S
C2288 C2289 1.363 . S
C2288 C2293 1.379 . S
C2288 N2295 1.356 . S
C2289 C2288 1.363 . S
C2289 C2292 1.363 . S
N2290 C2292 1.356 . S
N2290 H2302 0.984 . S
N2290 H2303 0.985 . S
N2291 C2293 1.356 . S
N2291 H2296 0.984 . S
N2291 H2297 0.985 . S
C2292 C2286 1.379 . S
C2292 C2289 1.363 . S
C2292 N2290 1.356 . S
C2293 C2287 1.363 . S
C2293 C2288 1.379 . S
C2293 N2291 1.356 . S
N2294 C2286 1.356 . S
N2294 H2300 0.984 . S
N2294 H2301 0.984 . S
N2295 C2288 1.356 . S
N2295 H2298 0.984 . S
N2295 H2299 0.985 . S
H2296 N2291 0.984 . S
H2297 N2291 0.985 . S
H2298 N2295 0.984 . S
H2299 N2295 0.985 . S
H2300 N2294 0.984 . S
H2301 N2294 0.984 . S
H2302 N2290 0.984 . S
H2303 N2290 0.985 . S
C2304 C2305 1.363 . S
C2304 C2310 1.379 . S
C2304 N2312 1.356 . S
C2305 C2304 1.363 . S
C2305 C2311 1.363 . S
C2306 C2307 1.363 . S
C2306 C2311 1.379 . S
C2306 N2313 1.356 . S
C2307 C2306 1.363 . S
C2307 C2310 1.363 . S
N2308 C2310 1.356 . S
N2308 H2320 0.984 . S
N2308 H2321 0.985 . S
N2309 C2311 1.356 . S
N2309 H2314 0.984 . S
N2309 H2315 0.985 . S
C2310 C2304 1.379 . S
C2310 C2307 1.363 . S
C2310 N2308 1.356 . S
C2311 C2305 1.363 . S
C2311 C2306 1.379 . S
C2311 N2309 1.356 . S
N2312 C2304 1.356 . S
N2312 H2318 0.984 . S
N2312 H2319 0.984 . S
N2313 C2306 1.356 . S
N2313 H2316 0.984 . S
N2313 H2317 0.985 . S
H2314 N2309 0.984 . S
H2315 N2309 0.985 . S
H2316 N2313 0.984 . S
H2317 N2313 0.985 . S
H2318 N2312 0.984 . S
H2319 N2312 0.984 . S
H2320 N2308 0.984 . S
H2321 N2308 0.985 . S
C2322 C2323 1.363 . S
C2322 C2328 1.379 . S
C2322 N2330 1.356 . S
C2323 C2322 1.363 . S
C2323 C2329 1.363 . S
C2324 C2325 1.363 . S
C2324 C2329 1.379 . S
C2324 N2331 1.356 . S
C2325 C2324 1.363 . S
C2325 C2328 1.363 . S
N2326 C2328 1.356 . S
N2326 H2338 0.984 . S
N2326 H2339 0.985 . S
N2327 C2329 1.356 . S
N2327 H2332 0.984 . S
N2327 H2333 0.985 . S
C2328 C2322 1.379 . S
C2328 C2325 1.363 . S
C2328 N2326 1.356 . S
C2329 C2323 1.363 . S
C2329 C2324 1.379 . S
C2329 N2327 1.356 . S
N2330 C2322 1.356 . S
N2330 H2336 0.984 . S
N2330 H2337 0.984 . S
N2331 C2324 1.356 . S
N2331 H2334 0.984 . S
N2331 H2335 0.985 . S
H2332 N2327 0.984 . S
H2333 N2327 0.985 . S
H2334 N2331 0.984 . S
H2335 N2331 0.985 . S
H2336 N2330 0.984 . S
H2337 N2330 0.984 . S
H2338 N2326 0.984 . S
H2339 N2326 0.985 . S
C2340 C2341 1.363 . S
C2340 C2346 1.379 . S
C2340 N2348 1.356 . S
C2341 C2340 1.363 . S
C2341 C2347 1.363 . S
C2342 C2343 1.363 . S
C2342 C2347 1.379 . S
C2342 N2349 1.356 . S
C2343 C2342 1.363 . S
C2343 C2346 1.363 . S
N2344 C2346 1.356 . S
N2344 H2356 0.984 . S
N2344 H2357 0.985 . S
N2345 C2347 1.356 . S
N2345 H2350 0.984 . S
N2345 H2351 0.985 . S
C2346 C2340 1.379 . S
C2346 C2343 1.363 . S
C2346 N2344 1.356 . S
C2347 C2341 1.363 . S
C2347 C2342 1.379 . S
C2347 N2345 1.356 . S
N2348 C2340 1.356 . S
N2348 H2354 0.984 . S
N2348 H2355 0.984 . S
N2349 C2342 1.356 . S
N2349 H2352 0.984 . S
N2349 H2353 0.985 . S
H2350 N2345 0.984 . S
H2351 N2345 0.985 . S
H2352 N2349 0.984 . S
H2353 N2349 0.985 . S
H2354 N2348 0.984 . S
H2355 N2348 0.984 . S
H2356 N2344 0.984 . S
H2357 N2344 0.985 . S
C2358 C2359 1.363 . S
C2358 C2364 1.379 . S
C2358 N2366 1.356 . S
C2359 C2358 1.363 . S
C2359 C2365 1.363 . S
C2360 C2361 1.363 . S
C2360 C2365 1.379 . S
C2360 N2367 1.356 . S
C2361 C2360 1.363 . S
C2361 C2364 1.363 . S
N2362 C2364 1.356 . S
N2362 H2374 0.984 . S
N2362 H2375 0.985 . S
N2363 C2365 1.356 . S
N2363 H2368 0.984 . S
N2363 H2369 0.985 . S
C2364 C2358 1.379 . S
C2364 C2361 1.363 . S
C2364 N2362 1.356 . S
C2365 C2359 1.363 . S
C2365 C2360 1.379 . S
C2365 N2363 1.356 . S
N2366 C2358 1.356 . S
N2366 H2372 0.984 . S
N2366 H2373 0.984 . S
N2367 C2360 1.356 . S
N2367 H2370 0.984 . S
N2367 H2371 0.985 . S
H2368 N2363 0.984 . S
H2369 N2363 0.985 . S
H2370 N2367 0.984 . S
H2371 N2367 0.985 . S
H2372 N2366 0.984 . S
H2373 N2366 0.984 . S
H2374 N2362 0.984 . S
H2375 N2362 0.985 . S
C2376 C2377 1.363 . S
C2376 C2382 1.379 . S
C2376 N2384 1.356 . S
C2377 C2376 1.363 . S
C2377 C2383 1.363 . S
C2378 C2379 1.363 . S
C2378 C2383 1.379 . S
C2378 N2385 1.356 . S
C2379 C2378 1.363 . S
C2379 C2382 1.363 . S
N2380 C2382 1.356 . S
N2380 H2392 0.984 . S
N2380 H2393 0.985 . S
N2381 C2383 1.356 . S
N2381 H2386 0.984 . S
N2381 H2387 0.985 . S
C2382 C2376 1.379 . S
C2382 C2379 1.363 . S
C2382 N2380 1.356 . S
C2383 C2377 1.363 . S
C2383 C2378 1.379 . S
C2383 N2381 1.356 . S
N2384 C2376 1.356 . S
N2384 H2390 0.984 . S
N2384 H2391 0.984 . S
N2385 C2378 1.356 . S
N2385 H2388 0.984 . S
N2385 H2389 0.985 . S
H2386 N2381 0.984 . S
H2387 N2381 0.985 . S
H2388 N2385 0.984 . S
H2389 N2385 0.985 . S
H2390 N2384 0.984 . S
H2391 N2384 0.984 . S
H2392 N2380 0.984 . S
H2393 N2380 0.985 . S
C2394 C2395 1.363 . S
C2394 C2400 1.379 . S
C2394 N2402 1.356 . S
C2395 C2394 1.363 . S
C2395 C2401 1.363 . S
C2396 C2397 1.363 . S
C2396 C2401 1.379 . S
C2396 N2403 1.356 . S
C2397 C2396 1.363 . S
C2397 C2400 1.363 . S
N2398 C2400 1.356 . S
N2398 H2410 0.984 . S
N2398 H2411 0.985 . S
N2399 C2401 1.356 . S
N2399 H2404 0.984 . S
N2399 H2405 0.985 . S
C2400 C2394 1.379 . S
C2400 C2397 1.363 . S
C2400 N2398 1.356 . S
C2401 C2395 1.363 . S
C2401 C2396 1.379 . S
C2401 N2399 1.356 . S
N2402 C2394 1.356 . S
N2402 H2408 0.984 . S
N2402 H2409 0.984 . S
N2403 C2396 1.356 . S
N2403 H2406 0.984 . S
N2403 H2407 0.985 . S
H2404 N2399 0.984 . S
H2405 N2399 0.985 . S
H2406 N2403 0.984 . S
H2407 N2403 0.985 . S
H2408 N2402 0.984 . S
H2409 N2402 0.984 . S
H2410 N2398 0.984 . S
H2411 N2398 0.985 . S
C2412 C2413 1.363 . S
C2412 C2418 1.379 . S
C2412 N2420 1.356 . S
C2413 C2412 1.363 . S
C2413 C2419 1.363 . S
C2414 C2415 1.363 . S
C2414 C2419 1.379 . S
C2414 N2421 1.356 . S
C2415 C2414 1.363 . S
C2415 C2418 1.363 . S
N2416 C2418 1.356 . S
N2416 H2428 0.984 . S
N2416 H2429 0.985 . S
N2417 C2419 1.356 . S
N2417 H2422 0.984 . S
N2417 H2423 0.985 1_655 S
C2418 C2412 1.379 . S
C2418 C2415 1.363 . S
C2418 N2416 1.356 . S
C2419 C2413 1.363 . S
C2419 C2414 1.379 . S
C2419 N2417 1.356 . S
N2420 C2412 1.356 . S
N2420 H2426 0.984 . S
N2420 H2427 0.984 . S
N2421 C2414 1.356 . S
N2421 H2424 0.984 . S
N2421 H2425 0.985 1_655 S
H2422 N2417 0.984 . S
H2423 N2417 0.985 1_455 S
H2424 N2421 0.984 . S
H2425 N2421 0.985 1_455 S
H2426 N2420 0.984 . S
H2427 N2420 0.984 . S
H2428 N2416 0.984 . S
H2429 N2416 0.985 . S
C2430 C2431 1.363 . S
C2430 C2436 1.379 . S
C2430 N2438 1.356 . S
C2431 C2430 1.363 . S
C2431 C2437 1.363 . S
C2432 C2433 1.363 . S
C2432 C2437 1.379 . S
C2432 N2439 1.356 . S
C2433 C2432 1.363 . S
C2433 C2436 1.363 . S
N2434 C2436 1.356 . S
N2434 H2446 0.984 . S
N2434 H2447 0.985 . S
N2435 C2437 1.356 . S
N2435 H2440 0.984 . S
N2435 H2441 0.985 . S
C2436 C2430 1.379 . S
C2436 C2433 1.363 . S
C2436 N2434 1.356 . S
C2437 C2431 1.363 . S
C2437 C2432 1.379 . S
C2437 N2435 1.356 . S
N2438 C2430 1.356 . S
N2438 H2444 0.984 . S
N2438 H2445 0.984 . S
N2439 C2432 1.356 . S
N2439 H2442 0.984 . S
N2439 H2443 0.985 . S
H2440 N2435 0.984 . S
H2441 N2435 0.985 . S
H2442 N2439 0.984 . S
H2443 N2439 0.985 . S
H2444 N2438 0.984 . S
H2445 N2438 0.984 . S
H2446 N2434 0.984 . S
H2447 N2434 0.985 . S
C2448 C2449 1.363 . S
C2448 C2454 1.379 . S
C2448 N2456 1.356 . S
C2449 C2448 1.363 . S
C2449 C2455 1.363 . S
C2450 C2451 1.363 . S
C2450 C2455 1.379 . S
C2450 N2457 1.356 . S
C2451 C2450 1.363 . S
C2451 C2454 1.363 . S
N2452 C2454 1.356 . S
N2452 H2464 0.984 . S
N2452 H2465 0.985 . S
N2453 C2455 1.356 . S
N2453 H2458 0.984 . S
N2453 H2459 0.985 . S
C2454 C2448 1.379 . S
C2454 C2451 1.363 . S
C2454 N2452 1.356 . S
C2455 C2449 1.363 . S
C2455 C2450 1.379 . S
C2455 N2453 1.356 . S
N2456 C2448 1.356 . S
N2456 H2462 0.984 . S
N2456 H2463 0.984 . S
N2457 C2450 1.356 . S
N2457 H2460 0.984 . S
N2457 H2461 0.985 . S
H2458 N2453 0.984 . S
H2459 N2453 0.985 . S
H2460 N2457 0.984 . S
H2461 N2457 0.985 . S
H2462 N2456 0.984 . S
H2463 N2456 0.984 . S
H2464 N2452 0.984 . S
H2465 N2452 0.985 . S
C2466 C2467 1.363 . S
C2466 C2472 1.379 . S
C2466 N2474 1.356 . S
C2467 C2466 1.363 . S
C2467 C2473 1.363 . S
C2468 C2469 1.363 . S
C2468 C2473 1.379 . S
C2468 N2475 1.356 . S
C2469 C2468 1.363 . S
C2469 C2472 1.363 . S
N2470 C2472 1.356 . S
N2470 H2482 0.984 . S
N2470 H2483 0.985 . S
N2471 C2473 1.356 . S
N2471 H2476 0.984 . S
N2471 H2477 0.985 . S
C2472 C2466 1.379 . S
C2472 C2469 1.363 . S
C2472 N2470 1.356 . S
C2473 C2467 1.363 . S
C2473 C2468 1.379 . S
C2473 N2471 1.356 . S
N2474 C2466 1.356 . S
N2474 H2480 0.984 . S
N2474 H2481 0.984 . S
N2475 C2468 1.356 . S
N2475 H2478 0.984 . S
N2475 H2479 0.985 . S
H2476 N2471 0.984 . S
H2477 N2471 0.985 . S
H2478 N2475 0.984 . S
H2479 N2475 0.985 . S
H2480 N2474 0.984 . S
H2481 N2474 0.984 . S
H2482 N2470 0.984 . S
H2483 N2470 0.985 . S
C2484 C2485 1.363 . S
C2484 C2490 1.379 . S
C2484 N2492 1.356 . S
C2485 C2484 1.363 . S
C2485 C2491 1.363 . S
C2486 C2487 1.363 . S
C2486 C2491 1.379 . S
C2486 N2493 1.356 . S
C2487 C2486 1.363 . S
C2487 C2490 1.363 . S
N2488 C2490 1.356 . S
N2488 H2500 0.984 . S
N2488 H2501 0.985 . S
N2489 C2491 1.356 . S
N2489 H2494 0.984 . S
N2489 H2495 0.985 . S
C2490 C2484 1.379 . S
C2490 C2487 1.363 . S
C2490 N2488 1.356 . S
C2491 C2485 1.363 . S
C2491 C2486 1.379 . S
C2491 N2489 1.356 . S
N2492 C2484 1.356 . S
N2492 H2498 0.984 . S
N2492 H2499 0.984 . S
N2493 C2486 1.356 . S
N2493 H2496 0.984 . S
N2493 H2497 0.985 . S
H2494 N2489 0.984 . S
H2495 N2489 0.985 . S
H2496 N2493 0.984 . S
H2497 N2493 0.985 . S
H2498 N2492 0.984 . S
H2499 N2492 0.984 . S
H2500 N2488 0.984 . S
H2501 N2488 0.985 . S
C2502 C2503 1.363 . S
C2502 C2508 1.379 . S
C2502 N2510 1.356 . S
C2503 C2502 1.363 . S
C2503 C2509 1.363 . S
C2504 C2505 1.363 . S
C2504 C2509 1.379 . S
C2504 N2511 1.356 . S
C2505 C2504 1.363 . S
C2505 C2508 1.363 . S
N2506 C2508 1.356 . S
N2506 H2518 0.984 . S
N2506 H2519 0.985 . S
N2507 C2509 1.356 . S
N2507 H2512 0.984 . S
N2507 H2513 0.985 . S
C2508 C2502 1.379 . S
C2508 C2505 1.363 . S
C2508 N2506 1.356 . S
C2509 C2503 1.363 . S
C2509 C2504 1.379 . S
C2509 N2507 1.356 . S
N2510 C2502 1.356 . S
N2510 H2516 0.984 . S
N2510 H2517 0.984 . S
N2511 C2504 1.356 . S
N2511 H2514 0.984 . S
N2511 H2515 0.985 . S
H2512 N2507 0.984 . S
H2513 N2507 0.985 . S
H2514 N2511 0.984 . S
H2515 N2511 0.985 . S
H2516 N2510 0.984 . S
H2517 N2510 0.984 . S
H2518 N2506 0.984 . S
H2519 N2506 0.985 . S
C2520 C2521 1.363 . S
C2520 C2526 1.379 . S
C2520 N2528 1.356 . S
C2521 C2520 1.363 . S
C2521 C2527 1.363 . S
C2522 C2523 1.363 . S
C2522 C2527 1.379 . S
C2522 N2529 1.356 . S
C2523 C2522 1.363 . S
C2523 C2526 1.363 . S
N2524 C2526 1.356 . S
N2524 H2536 0.984 . S
N2524 H2537 0.985 . S
N2525 C2527 1.356 . S
N2525 H2530 0.984 . S
N2525 H2531 0.985 . S
C2526 C2520 1.379 . S
C2526 C2523 1.363 . S
C2526 N2524 1.356 . S
C2527 C2521 1.363 . S
C2527 C2522 1.379 . S
C2527 N2525 1.356 . S
N2528 C2520 1.356 . S
N2528 H2534 0.984 . S
N2528 H2535 0.984 . S
N2529 C2522 1.356 . S
N2529 H2532 0.984 . S
N2529 H2533 0.985 . S
H2530 N2525 0.984 . S
H2531 N2525 0.985 . S
H2532 N2529 0.984 . S
H2533 N2529 0.985 . S
H2534 N2528 0.984 . S
H2535 N2528 0.984 . S
H2536 N2524 0.984 . S
H2537 N2524 0.985 . S
C2538 C2539 1.363 . S
C2538 C2544 1.379 . S
C2538 N2546 1.356 . S
C2539 C2538 1.363 . S
C2539 C2545 1.363 . S
C2540 C2541 1.363 . S
C2540 C2545 1.379 . S
C2540 N2547 1.356 . S
C2541 C2540 1.363 . S
C2541 C2544 1.363 . S
N2542 C2544 1.356 . S
N2542 H2554 0.984 . S
N2542 H2555 0.985 . S
N2543 C2545 1.356 . S
N2543 H2548 0.984 . S
N2543 H2549 0.985 . S
C2544 C2538 1.379 . S
C2544 C2541 1.363 . S
C2544 N2542 1.356 . S
C2545 C2539 1.363 . S
C2545 C2540 1.379 . S
C2545 N2543 1.356 . S
N2546 C2538 1.356 . S
N2546 H2552 0.984 . S
N2546 H2553 0.984 . S
N2547 C2540 1.356 . S
N2547 H2550 0.984 . S
N2547 H2551 0.985 . S
H2548 N2543 0.984 . S
H2549 N2543 0.985 . S
H2550 N2547 0.984 . S
H2551 N2547 0.985 . S
H2552 N2546 0.984 . S
H2553 N2546 0.984 . S
H2554 N2542 0.984 . S
H2555 N2542 0.985 . S
C2556 C2557 1.363 . S
C2556 C2562 1.379 . S
C2556 N2564 1.356 1_565 S
C2557 C2556 1.363 . S
C2557 C2563 1.363 . S
C2558 C2559 1.363 . S
C2558 C2563 1.379 . S
C2558 N2565 1.356 . S
C2559 C2558 1.363 . S
C2559 C2562 1.363 . S
N2560 C2562 1.356 1_545 S
N2560 H2572 0.984 . S
N2560 H2573 0.985 . S
N2561 C2563 1.356 . S
N2561 H2566 0.984 . S
N2561 H2567 0.985 . S
C2562 C2556 1.379 . S
C2562 C2559 1.363 . S
C2562 N2560 1.356 1_565 S
C2563 C2557 1.363 . S
C2563 C2558 1.379 . S
C2563 N2561 1.356 . S
N2564 C2556 1.356 1_545 S
N2564 H2570 0.984 . S
N2564 H2571 0.984 . S
N2565 C2558 1.356 . S
N2565 H2568 0.984 . S
N2565 H2569 0.985 . S
H2566 N2561 0.984 . S
H2567 N2561 0.985 . S
H2568 N2565 0.984 . S
H2569 N2565 0.985 . S
H2570 N2564 0.984 . S
H2571 N2564 0.984 . S
H2572 N2560 0.984 . S
H2573 N2560 0.985 . S
C2574 C2575 1.363 . S
C2574 C2580 1.379 . S
C2574 N2582 1.356 . S
C2575 C2574 1.363 . S
C2575 C2581 1.363 . S
C2576 C2577 1.363 . S
C2576 C2581 1.379 . S
C2576 N2583 1.356 . S
C2577 C2576 1.363 . S
C2577 C2580 1.363 . S
N2578 C2580 1.356 . S
N2578 H2590 0.984 . S
N2578 H2591 0.985 . S
N2579 C2581 1.356 . S
N2579 H2584 0.984 . S
N2579 H2585 0.985 . S
C2580 C2574 1.379 . S
C2580 C2577 1.363 . S
C2580 N2578 1.356 . S
C2581 C2575 1.363 . S
C2581 C2576 1.379 . S
C2581 N2579 1.356 . S
N2582 C2574 1.356 . S
N2582 H2588 0.984 . S
N2582 H2589 0.984 . S
N2583 C2576 1.356 . S
N2583 H2586 0.984 . S
N2583 H2587 0.985 . S
H2584 N2579 0.984 . S
H2585 N2579 0.985 . S
H2586 N2583 0.984 . S
H2587 N2583 0.985 . S
H2588 N2582 0.984 . S
H2589 N2582 0.984 . S
H2590 N2578 0.984 . S
H2591 N2578 0.985 . S
C1297 C14 1.393 . S
C1299 C410 1.393 . S
C1315 C338 1.393 . S
C1317 C50 1.393 . S
C1333 C374 1.393 . S
C1335 C86 1.393 . S
C1351 C122 1.393 . S
C1353 C266 1.393 . S
C1369 C158 1.393 . S
C1371 C302 1.393 . S
C1387 C194 1.393 . S
C1389 C230 1.393 . S
C1405 C446 1.393 . S
C1407 C842 1.393 . S
C1423 C770 1.393 . S
C1425 C482 1.393 . S
C1441 C518 1.393 . S
C1443 C806 1.393 . S
C1459 C554 1.393 . S
C1461 C698 1.393 . S
C1477 C590 1.393 . S
C1479 C734 1.393 . S
C1495 C626 1.393 . S
C1497 C662 1.393 . S
C1513 C878 1.393 . S
C1515 C1274 1.393 . S
C1531 C914 1.393 . S
C1533 C1202 1.393 . S
C1549 C1238 1.393 . S
C1551 C950 1.393 . S
C1567 C986 1.393 . S
C1569 C1130 1.393 . S
C1585 C1166 1.393 . S
C1587 C1022 1.393 . S
C1603 C1094 1.393 . S
C1605 C1058 1.393 . S
C1621 C3 1.340 . S
C1623 C543 1.345 . S
C1639 C39 1.340 . S
C1641 C579 1.340 . S
C1657 C75 1.340 . S
C1659 C615 1.340 . S
C1675 C111 1.340 . S
C1677 C867 1.345 . S
C1693 C903 1.340 . S
C1695 C147 1.340 . S
C1711 C939 1.340 . S
C1713 C183 1.340 . S
C1729 C219 1.340 . S
C1731 C1191 1.340 . S
C1747 C1227 1.340 . S
C1749 C255 1.340 . S
C1765 C291 1.340 . S
C1767 C1263 1.341 . S
C1783 C327 1.340 . S
C1785 C651 1.340 . S
C1801 C363 1.340 . S
C1803 C687 1.341 . S
C1819 C399 1.340 . S
C1821 C723 1.340 . S
C1837 C975 1.340 . S
C1839 C435 1.340 . S
C1855 C471 1.340 . S
C1857 C1011 1.340 . S
C1873 C507 1.340 . S
C1875 C1047 1.340 . S
C1891 C1083 1.340 . S
C1893 C759 1.340 . S
C1909 C1119 1.340 . S
C1911 C795 1.340 . S
C1927 C831 1.340 . S
C1929 C1155 1.340 . S
C1945 C4 1.359 . S
C1947 C148 1.359 . S
C1963 C184 1.358 . S
C1965 C40 1.358 . S
C1981 C112 1.359 . S
C1983 C76 1.359 . S
C1999 C220 1.359 . S
C2001 C364 1.359 . S
C2017 C400 1.359 . S
C2019 C256 1.359 . S
C2035 C292 1.359 . S
C2037 C328 1.359 . S
C2053 C580 1.359 . S
C2055 C436 1.359 . S
C2071 C472 1.359 . S
C2073 C616 1.359 . S
C2089 C508 1.358 . S
C2091 C544 1.359 . S
C2107 C796 1.359 . S
C2109 C652 1.359 . S
C2125 C832 1.359 . S
C2127 C688 1.359 . S
C2143 C760 1.358 . S
C2145 C724 1.358 . S
C2161 C868 1.359 . S
C2163 C1012 1.358 . S
C2179 C904 1.359 . S
C2181 C1048 1.359 . S
C2197 C940 1.359 . S
C2199 C976 1.359 . S
C2215 C1228 1.358 . S
C2217 C1084 1.358 . S
C2233 C1264 1.359 . S
C2235 C1120 1.359 . S
C2251 C1192 1.359 . S
C2253 C1156 1.359 . S
C2269 C326 1.558 . S
C2271 C2 1.558 . S
C2287 C362 1.558 . S
C2289 C38 1.558 . S
C2305 C74 1.558 . S
C2307 C398 1.558 . S
C2323 C110 1.558 . S
C2325 C218 1.558 . S
C2341 C254 1.558 . S
C2343 C146 1.558 . S
C2359 C182 1.558 . S
C2361 C290 1.558 . S
C2377 C758 1.558 . S
C2379 C434 1.558 . S
C2395 C794 1.558 . S
C2397 C470 1.558 . S
C2413 C506 1.558 . S
C2415 C830 1.558 . S
C2431 C650 1.558 . S
C2433 C542 1.558 . S
C2449 C686 1.558 . S
C2451 C578 1.558 . S
C2467 C722 1.558 . S
C2469 C614 1.558 . S
C2485 C866 1.558 . S
C2487 C1190 1.558 . S
C2503 C1226 1.558 . S
C2505 C902 1.558 . S
C2521 C938 1.558 . S
C2523 C1262 1.558 . S
C2539 C974 1.558 . S
C2541 C1082 1.558 . S
C2557 C1010 1.558 . S
C2559 C1118 1.558 . S
C2575 C1154 1.558 . S
C2577 C1046 1.558 . S
