# Generated by pormake.
# Topology npo, (4)-cn, num edge types: 1
# Building blocks:
#     Node 0, Type 0, BuildingBlock: TATPOV_clean_sbu_0, # of connection points: 4
#     Node 1, Type 0, BuildingBlock: TATPOV_clean_sbu_0, # of connection points: 4
#     Node 2, Type 0, BuildingBlock: TATPOV_clean_sbu_0, # of connection points: 4
#     Node 3, Type 0, BuildingBlock: TATPOV_clean_sbu_0, # of connection points: 4
#     Node 4, Type 0, BuildingBlock: TATPOV_clean_sbu_0, # of connection points: 4
#     Node 5, Type 0, BuildingBlock: TATPOV_clean_sbu_0, # of connection points: 4
#     Edge 6, Type (0, 0), BuildingBlock: UVAHIK_clean_linker_0, # of connection points: 2
#     Edge 7, Type (0, 0), BuildingBlock: UVAHIK_clean_linker_0, # of connection points: 2
#     Edge 8, Type (0, 0), BuildingBlock: UVAHIK_clean_linker_0, # of connection points: 2
#     Edge 9, Type (0, 0), BuildingBlock: UVAHIK_clean_linker_0, # of connection points: 2
#     Edge 10, Type (0, 0), BuildingBlock: UVAHIK_clean_linker_0, # of connection points: 2
#     Edge 11, Type (0, 0), BuildingBlock: UVAHIK_clean_linker_0, # of connection points: 2
#     Edge 12, Type (0, 0), BuildingBlock: UVAHIK_clean_linker_0, # of connection points: 2
#     Edge 13, Type (0, 0), BuildingBlock: UVAHIK_clean_linker_0, # of connection points: 2
#     Edge 14, Type (0, 0), BuildingBlock: UVAHIK_clean_linker_0, # of connection points: 2
#     Edge 15, Type (0, 0), BuildingBlock: UVAHIK_clean_linker_0, # of connection points: 2
#     Edge 16, Type (0, 0), BuildingBlock: UVAHIK_clean_linker_0, # of connection points: 2
#     Edge 17, Type (0, 0), BuildingBlock: UVAHIK_clean_linker_0, # of connection points: 2
# Relax obj value: 0.183
# Max RMSD: 0.201
# Mean RMSD: 0.192
data_MOF--net-npo--node1-TATPOV_clean_sbu_0--edge1-UVAHIK_clean_linker_0
_symmetry_space_group_name_H-M    P1
_symmetry_Int_Tables_number       1
_symmetry_cell_setting            triclinic
loop_
_symmetry_equiv_pos_as_xyz
'x, y, z'
_cell_length_a     57.521083
_cell_length_b     54.459439
_cell_length_c     33.608366
_cell_angle_alpha  89.910207
_cell_angle_beta   90.098413
_cell_angle_gamma 121.5517
loop_
_atom_site_label
_atom_site_type_symbol
_atom_site_fract_x
_atom_site_fract_y
_atom_site_fract_z
_atom_type_partial_charge
Zn0 Zn 0.55649 0.13937 0.18204 0.0
Zn1 Zn 0.53068 0.099 0.23624 0.0
O2 O 0.51229 0.12287 0.24175 0.0
O3 O 0.53754 0.15927 0.20137 0.0
O4 O 0.51291 0.06913 0.27997 0.0
O5 O 0.53988 0.11027 0.13863 0.0
O6 O 0.52069 0.07567 0.18337 0.0
C7 C 0.51845 0.14696 0.22648 0.0
C8 C 0.59376 0.13964 0.23619 0.0
O9 O 0.57159 0.12064 0.25279 0.0
O10 O 0.59309 0.15054 0.2033 0.0
C11 C 0.51656 0.07822 0.31566 0.0
O12 O 0.53112 0.10614 0.32206 0.0
C13 C 0.5255 0.08374 0.14703 0.0
Zn14 Zn 0.37981 0.52127 0.58307 0.0
Zn15 Zn 0.40823 0.52033 0.64542 0.0
O16 O 0.36785 0.49978 0.66428 0.0
O17 O 0.34404 0.49812 0.61187 0.0
O18 O 0.42792 0.51759 0.69408 0.0
O19 O 0.39367 0.50181 0.54886 0.0
O20 O 0.41891 0.50256 0.59874 0.0
C21 C 0.34501 0.49243 0.64811 0.0
C22 C 0.41963 0.57798 0.61322 0.0
O23 O 0.4245 0.56376 0.63852 0.0
O24 O 0.40164 0.56491 0.5866 0.0
C25 C 0.4227 0.52334 0.72845 0.0
O26 O 0.40474 0.53122 0.73166 0.0
C27 C 0.41124 0.49669 0.56244 0.0
Zn28 Zn 0.83842 0.43737 0.38841 0.0
Zn29 Zn 0.86831 0.43918 0.32659 0.0
O30 O 0.8478 0.45916 0.30739 0.0
O31 O 0.82525 0.46026 0.35956 0.0
O32 O 0.89152 0.44318 0.27851 0.0
O33 O 0.87118 0.45701 0.42347 0.0
O34 O 0.89616 0.45698 0.37395 0.0
C35 C 0.83195 0.46612 0.32339 0.0
C36 C 0.82302 0.38103 0.35761 0.0
O37 O 0.84203 0.39557 0.33258 0.0
O38 O 0.81764 0.39377 0.38425 0.0
C39 C 0.88099 0.43673 0.24384 0.0
O40 O 0.85485 0.42703 0.23979 0.0
C41 C 0.894 0.46255 0.41025 0.0
Zn42 Zn 0.39995 0.82578 0.78877 0.0
Zn43 Zn 0.41332 0.86496 0.73261 0.0
O44 O 0.37119 0.84124 0.72826 0.0
O45 O 0.36074 0.80682 0.77221 0.0
O46 O 0.42485 0.89413 0.68796 0.0
O47 O 0.41436 0.85591 0.83077 0.0
O48 O 0.42752 0.88936 0.78463 0.0
C49 C 0.35357 0.81822 0.74596 0.0
C50 C 0.43491 0.82321 0.73296 0.0
O51 O 0.43195 0.84248 0.7163 0.0
O52 O 0.42383 0.81286 0.76621 0.0
C53 C 0.41925 0.88462 0.65248 0.0
O54 O 0.40595 0.85663 0.64668 0.0
C55 C 0.42573 0.88219 0.82124 0.0
Zn56 Zn 0.56831 0.43337 0.0858 0.0
Zn57 Zn 0.55264 0.45268 0.14772 0.0
O58 O 0.59378 0.46962 0.15817 0.0
O59 O 0.60694 0.45432 0.10729 0.0
O60 O 0.53957 0.46466 0.19583 0.0
O61 O 0.55668 0.45333 0.04801 0.0
O62 O 0.54182 0.4678 0.0977 0.0
C63 C 0.61236 0.46817 0.13964 0.0
C64 C 0.52808 0.38777 0.13471 0.0
O65 O 0.53101 0.40889 0.15507 0.0
O66 O 0.5411 0.39214 0.10251 0.0
C67 C 0.54773 0.4628 0.23033 0.0
O68 O 0.56568 0.45491 0.23352 0.0
C69 C 0.54521 0.46636 0.06034 0.0
Zn70 Zn 0.11765 0.52836 0.88528 0.0
Zn71 Zn 0.08228 0.50991 0.82435 0.0
O72 O 0.10556 0.49171 0.81347 0.0
O73 O 0.13427 0.50625 0.86395 0.0
O74 O 0.05685 0.49816 0.77671 0.0
O75 O 0.08679 0.50972 0.92386 0.0
O76 O 0.05698 0.49588 0.87497 0.0
C77 C 0.12537 0.4924 0.83169 0.0
C78 C 0.12362 0.57451 0.83651 0.0
O79 O 0.10497 0.5537 0.81642 0.0
O80 O 0.13236 0.56973 0.8684 0.0
C81 C 0.06663 0.50007 0.74206 0.0
O82 O 0.09237 0.50796 0.73856 0.0
C83 C 0.06228 0.49744 0.91221 0.0
C84 C 0.47882 0.15185 0.213 0.0
C85 C 0.50254 0.16028 0.23509 0.0
C86 C 0.46871 0.1702 0.20997 0.0
C87 C 0.4749 0.23781 0.2441 0.0
H88 H 0.4862 0.25843 0.13241 0.0
C89 C 0.51399 0.35302 0.19084 0.0
C90 C 0.51181 0.35828 0.15057 0.0
C91 C 0.50277 0.32481 0.20464 0.0
C92 C 0.48199 0.25277 0.16353 0.0
H93 H 0.53314 0.19293 0.27375 0.0
H94 H 0.51507 0.22473 0.26945 0.0
H95 H 0.48239 0.21424 0.15397 0.0
H96 H 0.49402 0.33856 0.09392 0.0
H97 H 0.47244 0.28928 0.11841 0.0
H98 H 0.4746 0.27642 0.25386 0.0
C99 C 0.50416 0.204 0.25467 0.0
C100 C 0.47991 0.22726 0.1759 0.0
C101 C 0.51452 0.18587 0.25716 0.0
C102 C 0.49629 0.33495 0.12502 0.0
C103 C 0.4842 0.30671 0.13911 0.0
C104 C 0.47625 0.26308 0.2316 0.0
C105 C 0.48211 0.19705 0.22928 0.0
C106 C 0.47742 0.2201 0.2164 0.0
C107 C 0.48841 0.30118 0.17866 0.0
C108 C 0.48106 0.2716 0.19129 0.0
H109 H 0.46963 0.1324 0.1952 0.0
H110 H 0.45174 0.16444 0.19012 0.0
H111 H 0.4729 0.23265 0.27553 0.0
H112 H 0.52601 0.37075 0.21107 0.0
H113 H 0.50691 0.32185 0.23511 0.0
C114 C 0.3212 0.49263 0.7099 0.0
C115 C 0.32004 0.48086 0.67235 0.0
C116 C 0.29721 0.48638 0.72935 0.0
C117 C 0.22367 0.45855 0.70637 0.0
H118 H 0.22259 0.47248 0.81901 0.0
C119 C 0.14595 0.48358 0.7723 0.0
C120 C 0.14043 0.48022 0.81322 0.0
C121 C 0.16464 0.47736 0.75591 0.0
C122 C 0.22199 0.4678 0.78763 0.0
H123 H 0.29309 0.45157 0.62705 0.0
H124 H 0.25122 0.43864 0.66222 0.0
H125 H 0.26043 0.47082 0.79152 0.0
H126 H 0.14836 0.46566 0.86865 0.0
H127 H 0.17916 0.45251 0.83983 0.0
H128 H 0.18445 0.45371 0.7029 0.0
C129 C 0.27048 0.45405 0.67595 0.0
C130 C 0.24426 0.46751 0.77154 0.0
C131 C 0.29449 0.46107 0.65593 0.0
C132 C 0.15245 0.46863 0.83699 0.0
C133 C 0.17046 0.4615 0.82043 0.0
C134 C 0.20102 0.45795 0.72267 0.0
C135 C 0.2714 0.46752 0.71223 0.0
C136 C 0.24594 0.46383 0.73041 0.0
C137 C 0.17771 0.46681 0.77988 0.0
C138 C 0.20016 0.46351 0.76336 0.0
H139 H 0.34068 0.50826 0.72298 0.0
H140 H 0.29919 0.49769 0.75677 0.0
H141 H 0.22394 0.45591 0.67452 0.0
H142 H 0.13722 0.49286 0.75339 0.0
H143 H 0.16976 0.48233 0.72481 0.0
C144 C 0.64451 0.16684 0.23438 0.0
C145 C 0.62031 0.15149 0.25652 0.0
C146 C 0.66957 0.18342 0.25349 0.0
C147 C 0.69452 0.22627 0.34272 0.0
H148 H 0.76505 0.24661 0.30019 0.0
C149 C 0.78947 0.33295 0.38663 0.0
C150 C 0.80586 0.3493 0.35443 0.0
C151 C 0.77048 0.30354 0.38225 0.0
C152 C 0.74552 0.24118 0.31248 0.0
H153 H 0.60358 0.1393 0.316 0.0
H154 H 0.64759 0.16858 0.34962 0.0
H155 H 0.72412 0.20188 0.27914 0.0
H156 H 0.81638 0.34736 0.29311 0.0
H157 H 0.78261 0.29627 0.28495 0.0
H158 H 0.71532 0.26615 0.37405 0.0
C159 C 0.64705 0.16789 0.31741 0.0
C160 C 0.72212 0.2155 0.30057 0.0
C161 C 0.6219 0.15104 0.29819 0.0
C162 C 0.804 0.33532 0.31845 0.0
C163 C 0.78473 0.30594 0.31389 0.0
C164 C 0.71783 0.25193 0.35445 0.0
C165 C 0.67098 0.18516 0.2952 0.0
C166 C 0.69625 0.20831 0.31449 0.0
C167 C 0.76716 0.28989 0.3454 0.0
C168 C 0.7435 0.26022 0.33841 0.0
H169 H 0.64394 0.16735 0.20218 0.0
H170 H 0.68751 0.19657 0.23545 0.0
H171 H 0.6749 0.22164 0.35358 0.0
H172 H 0.79075 0.34303 0.41497 0.0
H173 H 0.75775 0.29173 0.40741 0.0
C174 C 0.45763 0.79491 0.73437 0.0
C175 C 0.44877 0.81046 0.71234 0.0
C176 C 0.46538 0.77763 0.71519 0.0
C177 C 0.44552 0.73353 0.62704 0.0
H178 H 0.49608 0.71274 0.66778 0.0
C179 C 0.43287 0.62578 0.58386 0.0
C180 C 0.4337 0.60972 0.61601 0.0
C181 C 0.44313 0.65523 0.58787 0.0
C182 C 0.48186 0.71828 0.65601 0.0
H183 H 0.44336 0.82216 0.65289 0.0
H184 H 0.45677 0.79162 0.61914 0.0
H185 H 0.50053 0.75802 0.68844 0.0
H186 H 0.44731 0.61224 0.67687 0.0
H187 H 0.46437 0.6634 0.6844 0.0
H188 H 0.42572 0.69323 0.59668 0.0
C189 C 0.45754 0.79274 0.65133 0.0
C190 C 0.48451 0.74428 0.66768 0.0
C191 C 0.45 0.81031 0.67061 0.0
C192 C 0.44635 0.62403 0.65157 0.0
C193 C 0.45632 0.65346 0.65575 0.0
C194 C 0.44278 0.70753 0.61556 0.0
C195 C 0.46426 0.77535 0.67352 0.0
C196 C 0.46576 0.75167 0.6544 0.0
C197 C 0.45412 0.66924 0.6243 0.0
C198 C 0.46032 0.6991 0.63098 0.0
H199 H 0.45716 0.79484 0.7666 0.0
H200 H 0.47025 0.7644 0.73321 0.0
H201 H 0.43048 0.73833 0.6167 0.0
H202 H 0.42364 0.61544 0.55582 0.0
H203 H 0.44166 0.66683 0.56275 0.0
C204 C 0.64183 0.47635 0.19879 0.0
C205 C 0.63951 0.47955 0.15784 0.0
C206 C 0.66658 0.48205 0.21506 0.0
C207 C 0.73279 0.49012 0.18339 0.0
H208 H 0.74721 0.50298 0.2963 0.0
C209 C 0.81246 0.49742 0.31517 0.0
C210 C 0.81827 0.47749 0.29902 0.0
C211 C 0.79534 0.50435 0.29503 0.0
C212 C 0.74413 0.50005 0.26449 0.0
H213 H 0.66156 0.49319 0.10217 0.0
H214 H 0.70527 0.50546 0.13075 0.0
H215 H 0.71005 0.50544 0.26776 0.0
H216 H 0.81143 0.44968 0.24881 0.0
H217 H 0.78027 0.46007 0.21485 0.0
H218 H 0.76796 0.48661 0.17966 0.0
C219 C 0.6878 0.49699 0.1503 0.0
C220 C 0.72214 0.5008 0.24812 0.0
C221 C 0.66281 0.49037 0.13386 0.0
C222 C 0.80754 0.46544 0.26165 0.0
C223 C 0.78966 0.47158 0.2421 0.0
C224 C 0.75531 0.49028 0.19954 0.0
C225 C 0.68991 0.49194 0.19094 0.0
C226 C 0.71552 0.49492 0.20751 0.0
C227 C 0.7827 0.49063 0.25893 0.0
C228 C 0.76089 0.49433 0.24062 0.0
H229 H 0.62407 0.46766 0.21787 0.0
H230 H 0.66685 0.47728 0.24625 0.0
H231 H 0.72855 0.48518 0.15209 0.0
H232 H 0.82065 0.50713 0.34391 0.0
H233 H 0.7915 0.51991 0.30852 0.0
C234 C 0.31096 0.78057 0.71376 0.0
C235 C 0.32433 0.80492 0.73831 0.0
C236 C 0.28273 0.76175 0.71679 0.0
C237 C 0.23623 0.73476 0.79771 0.0
H238 H 0.18168 0.68707 0.71925 0.0
C239 C 0.14501 0.62732 0.84686 0.0
C240 C 0.13703 0.60411 0.82094 0.0
C241 C 0.16132 0.65561 0.83321 0.0
C242 C 0.19672 0.70002 0.74161 0.0
H243 H 0.31909 0.83007 0.7831 0.0
H244 H 0.26969 0.79714 0.78859 0.0
H245 H 0.2231 0.73145 0.69839 0.0
H246 H 0.13861 0.59192 0.76023 0.0
H247 H 0.16868 0.64099 0.73688 0.0
H248 H 0.21189 0.70275 0.84039 0.0
C249 C 0.28084 0.79271 0.76674 0.0
C250 C 0.22028 0.7256 0.7296 0.0
C251 C 0.309 0.8116 0.76344 0.0
C252 C 0.14447 0.60957 0.78073 0.0
C253 C 0.1616 0.63784 0.76733 0.0
C254 C 0.21312 0.70903 0.80955 0.0
C255 C 0.2677 0.76686 0.74498 0.0
C256 C 0.2405 0.74287 0.7575 0.0
C257 C 0.17103 0.66129 0.79372 0.0
C258 C 0.19328 0.69083 0.78159 0.0
H259 H 0.32259 0.77481 0.69478 0.0
H260 H 0.27319 0.74185 0.69998 0.0
H261 H 0.25171 0.74733 0.8198 0.0
H262 H 0.13914 0.62356 0.87792 0.0
H263 H 0.16715 0.67296 0.85418 0.0
C264 C 0.4495 0.93365 0.84527 0.0
C265 C 0.43625 0.90399 0.85343 0.0
C266 C 0.45887 0.95366 0.87649 0.0
C267 C 0.44848 0.95941 0.98387 0.0
H268 H 0.5208 0.028 0.97967 0.0
C269 C 0.49974 0.03281 0.12099 0.0
C270 C 0.51449 0.06266 0.11396 0.0
C271 C 0.4898 0.01343 0.08904 0.0
C272 C 0.50042 0.0091 0.98114 0.0
H273 H 0.42262 0.87221 0.90089 0.0
H274 H 0.43899 0.90687 0.95464 0.0
H275 H 0.50392 -0.00493 0.92317 0.0
H276 H 0.52997 0.09548 0.06777 0.0
H277 H 0.51244 0.0619 0.01269 0.0
H278 H 0.44495 0.9734 0.04182 0.0
C279 C 0.44186 0.91473 0.92432 0.0
C280 C 0.49076 -0.00972 0.94871 0.0
C281 C 0.43265 0.89486 0.89335 0.0
C282 C 0.51887 0.07264 0.07441 0.0
C283 C 0.50895 0.05336 0.04268 0.0
C284 C 0.45811 0.97825 0.01627 0.0
C285 C 0.45498 0.94433 0.91635 0.0
C286 C 0.46475 0.96515 0.94982 0.0
C287 C 0.49443 0.02354 0.04952 0.0
C288 C 0.48423 0.00327 0.01533 0.0
H289 H 0.45256 0.94138 0.81488 0.0
H290 H 0.46881 0.97638 0.86946 0.0
H291 H 0.42818 0.94039 0.98539 0.0
H292 H 0.49603 0.02444 0.15107 0.0
H293 H 0.47885 -0.00947 0.09528 0.0
C294 C 0.51098 0.46659 0.2646 0.0
C295 C 0.53547 0.46676 0.26668 0.0
C296 C 0.49822 0.46777 0.29933 0.0
C297 C 0.50979 0.48979 0.40416 0.0
H298 H 0.43214 0.43498 0.41448 0.0
C299 C 0.44927 0.48884 0.54289 0.0
C300 C 0.42422 0.48642 0.53431 0.0
C301 C 0.4631 0.48317 0.51336 0.0
C302 C 0.45378 0.45061 0.41204 0.0
H303 H 0.56622 0.4693 0.30686 0.0
H304 H 0.54414 0.47193 0.36743 0.0
H305 H 0.45626 0.43364 0.35583 0.0
H306 H 0.39343 0.47466 0.48858 0.0
H307 H 0.41739 0.46532 0.43765 0.0
H308 H 0.50718 0.5075 0.45964 0.0
C309 C 0.53476 0.47065 0.33891 0.0
C310 C 0.46759 0.4498 0.37838 0.0
C311 C 0.54734 0.46906 0.30421 0.0
C312 C 0.41273 0.47686 0.49631 0.0
C313 C 0.42645 0.47125 0.46701 0.0
C314 C 0.49589 0.49084 0.4377 0.0
C315 C 0.50984 0.46954 0.33688 0.0
C316 C 0.49564 0.46966 0.37374 0.0
C317 C 0.45207 0.47485 0.47476 0.0
C318 C 0.46758 0.47159 0.44173 0.0
H319 H 0.50127 0.46479 0.2362 0.0
H320 H 0.47918 0.46724 0.29684 0.0
H321 H 0.53142 0.5054 0.40134 0.0
H322 H 0.4587 0.4962 0.57183 0.0
H323 H 0.48263 0.4858 0.52055 0.0
C324 C 0.01357 0.47868 0.93388 0.0
C325 C 0.0405 0.48655 0.94296 0.0
C326 C -0.00562 0.47155 0.96447 0.0
C327 C -0.00773 0.4855 0.07135 0.0
H328 H 0.91799 0.42013 0.06956 0.0
C329 C 0.92573 0.45014 0.21227 0.0
C330 C 0.898 0.44089 0.20827 0.0
C331 C 0.94186 0.45478 0.17865 0.0
C332 C 0.93858 0.4387 0.07034 0.0
H333 H 0.06779 0.49143 -0.00875 0.0
H334 H 0.03467 0.47905 0.04373 0.0
H335 H 0.94777 0.42967 0.01217 0.0
H336 H 0.86546 0.42899 0.16555 0.0
H337 H 0.89368 0.43752 0.10698 0.0
H338 H -0.01666 0.49483 0.12906 0.0
C339 C 0.02841 0.47893 0.01327 0.0
C340 C 0.95561 0.44412 0.03743 0.0
C341 C 0.0474 0.48591 0.983 0.0
C342 C 0.88674 0.43608 0.16979 0.0
C343 C 0.9029 0.44081 0.13613 0.0
C344 C 0.97529 0.48019 0.10401 0.0
C345 C 0.00187 0.47231 0.0046 0.0
C346 C -0.01719 0.46734 0.03788 0.0
C347 C 0.93075 0.45044 0.14008 0.0
C348 C 0.94833 0.45648 0.1043 0.0
H349 H 0.00758 0.47893 0.90339 0.0
H350 H 0.97403 0.46647 0.95687 0.0
H351 H 0.01294 0.50394 0.07231 0.0
H352 H 0.93505 0.45388 0.24142 0.0
H353 H 0.96308 0.46166 0.18296 0.0
C354 C 0.50992 0.06845 0.38893 0.0
C355 C 0.5052 0.05791 0.34972 0.0
C356 C 0.49974 0.04954 0.42128 0.0
C357 C 0.47517 0.97424 0.44996 0.0
H358 H 0.4461 -0.0076 0.54172 0.0
C359 C 0.42213 0.89362 0.57898 0.0
C360 C 0.42808 0.90457 0.61797 0.0
C361 C 0.43089 0.9122 0.54623 0.0
C362 C 0.45441 -0.01285 0.51652 0.0
H363 H 0.48581 0.0191 0.31384 0.0
H364 H 0.4678 -0.01396 0.37036 0.0
H365 H 0.46214 0.0247 0.48445 0.0
H366 H 0.4478 0.94377 0.65305 0.0
H367 H 0.46326 0.97625 0.59583 0.0
H368 H 0.4675 0.93674 0.48206 0.0
C369 C 0.4797 0.00899 0.37607 0.0
C370 C 0.46361 0.00567 0.48364 0.0
C371 C 0.48989 0.02795 0.34364 0.0
C372 C 0.44282 0.93461 0.62343 0.0
C373 C 0.45156 0.95322 0.59061 0.0
C374 C 0.46596 0.95571 0.48282 0.0
C375 C 0.48456 0.01956 0.41532 0.0
C376 C 0.47417 -0.00051 0.44997 0.0
C377 C 0.44582 0.94224 0.55159 0.0
C378 C 0.45551 0.96195 0.51656 0.0
H379 H 0.5217 0.0914 0.39476 0.0
H380 H 0.50423 0.05845 0.45105 0.0
H381 H 0.48358 0.96903 0.42485 0.0
H382 H 0.41074 0.87061 0.57363 0.0
H383 H 0.42574 0.90298 0.51665 0.0
C384 C 0.45727 0.515 0.76153 0.0
C385 C 0.43632 0.52094 0.76459 0.0
C386 C 0.46994 0.51267 0.79572 0.0
C387 C 0.45948 0.49749 0.90345 0.0
H388 H 0.5377 0.53033 0.90416 0.0
C389 C 0.51607 0.48654 0.03988 0.0
C390 C 0.53508 0.47864 0.0303 0.0
C391 C 0.50496 0.49542 0.0099 0.0
C392 C 0.5158 0.52089 0.90443 0.0
H393 H 0.41228 0.52906 0.8062 0.0
H394 H 0.43434 0.5249 0.86572 0.0
H395 H 0.51621 0.53775 0.84667 0.0
H396 H 0.55799 0.47495 0.98181 0.0
H397 H 0.53873 0.49004 0.93028 0.0
H398 H 0.45901 0.47999 0.96085 0.0
C399 C 0.44089 0.52193 0.83688 0.0
C400 C 0.50348 0.52512 0.8714 0.0
C401 C 0.42834 0.52446 0.80269 0.0
C402 C 0.54335 0.48077 -0.00958 0.0
C403 C 0.53243 0.48969 0.96073 0.0
C404 C 0.4718 0.49313 0.93649 0.0
C405 C 0.46187 0.51604 0.83383 0.0
C406 C 0.47511 0.51307 0.87017 0.0
C407 C 0.51285 0.49683 0.96985 0.0
C408 C 0.50007 0.5043 0.93707 0.0
H409 H 0.4639 0.51213 0.7327 0.0
H410 H 0.4858 0.50775 0.79231 0.0
H411 H 0.43754 0.48775 0.90338 0.0
H412 H 0.50923 0.48511 0.07027 0.0
H413 H 0.49008 0.501 0.01801 0.0
C414 C 0.02553 0.49549 0.70834 0.0
C415 C 0.05012 0.49591 0.70591 0.0
C416 C 0.01119 0.49394 0.6738 0.0
C417 C 0.00081 0.4719 0.56884 0.0
H418 H 0.97506 0.52473 0.55926 0.0
C419 C 0.9402 0.47149 0.43017 0.0
C420 C 0.91706 0.47301 0.43873 0.0
C421 C 0.95971 0.47748 0.45983 0.0
C422 C -0.0181 0.50964 0.5615 0.0
H423 H 0.07846 0.49408 0.66529 0.0
H424 H 0.05313 0.49086 0.60509 0.0
H425 H 0.00115 0.52687 0.61771 0.0
H426 H 0.89708 0.48344 0.48463 0.0
H427 H 0.93043 0.49334 0.53577 0.0
H428 H -0.01925 0.45397 0.51328 0.0
C429 C 0.04508 0.49193 0.63372 0.0
C430 C -0.00314 0.5109 0.59506 0.0
C431 C 0.05961 0.49387 0.66822 0.0
C432 C 0.91458 0.48195 0.47689 0.0
C433 C 0.93392 0.48788 0.50632 0.0
C434 C -0.01446 0.47041 0.53538 0.0
C435 C 0.02093 0.49239 0.63609 0.0
C436 C 0.00613 0.49177 0.59941 0.0
C437 C 0.95651 0.48523 0.49854 0.0
C438 C 0.97546 0.48894 0.53161 0.0
H439 H 0.01767 0.49707 0.73687 0.0
H440 H -0.00755 0.49397 0.67658 0.0
H441 H 0.00764 0.45683 0.57143 0.0
H442 H 0.94271 0.46464 0.4011 0.0
H443 H -0.02295 0.4756 0.45261 0.0
loop_
_geom_bond_atom_site_label_1
_geom_bond_atom_site_label_2
_geom_bond_distance
_geom_bond_site_symmetry_2
_ccdc_geom_bond_type
Zn0 O3 2.031 . S
Zn0 O5 2.049 . S
Zn0 O10 2.067 . S
Zn1 O2 1.962 . S
Zn1 O4 1.986 . S
Zn1 O6 1.996 . S
Zn1 O9 1.943 . S
O2 Zn1 1.962 . S
O2 C7 1.254 . S
O3 Zn0 2.031 . S
O3 C7 1.269 . S
O4 Zn1 1.986 . S
O4 C11 1.262 . S
O5 Zn0 2.049 . S
O5 C13 1.260 . S
O6 Zn1 1.996 . S
O6 C13 1.257 . S
C7 O2 1.254 . S
C7 O3 1.269 . S
C8 O9 1.249 . S
C8 O10 1.270 . S
O9 Zn1 1.943 . S
O9 C8 1.249 . S
O10 Zn0 2.067 . S
O10 C8 1.270 . S
C11 O4 1.262 . S
C11 O12 1.232 . S
O12 C11 1.232 . S
C13 O5 1.260 . S
C13 O6 1.257 . S
Zn14 O17 2.031 . S
Zn14 O19 2.049 . S
Zn14 O24 2.067 . S
Zn15 O16 1.962 . S
Zn15 O18 1.986 . S
Zn15 O20 1.996 . S
Zn15 O23 1.943 . S
O16 Zn15 1.962 . S
O16 C21 1.254 . S
O17 Zn14 2.031 . S
O17 C21 1.269 . S
O18 Zn15 1.986 . S
O18 C25 1.262 . S
O19 Zn14 2.049 . S
O19 C27 1.260 . S
O20 Zn15 1.996 . S
O20 C27 1.257 . S
C21 O16 1.254 . S
C21 O17 1.269 . S
C22 O23 1.249 . S
C22 O24 1.270 . S
O23 Zn15 1.943 . S
O23 C22 1.249 . S
O24 Zn14 2.067 . S
O24 C22 1.270 . S
C25 O18 1.262 . S
C25 O26 1.232 . S
O26 C25 1.232 . S
C27 O19 1.260 . S
C27 O20 1.257 . S
Zn28 O31 2.031 . S
Zn28 O33 2.049 . S
Zn28 O38 2.067 . S
Zn29 O30 1.962 . S
Zn29 O32 1.986 . S
Zn29 O34 1.996 . S
Zn29 O37 1.943 . S
O30 Zn29 1.962 . S
O30 C35 1.254 . S
O31 Zn28 2.031 . S
O31 C35 1.269 . S
O32 Zn29 1.986 . S
O32 C39 1.262 . S
O33 Zn28 2.049 . S
O33 C41 1.260 . S
O34 Zn29 1.996 . S
O34 C41 1.257 . S
C35 O30 1.254 . S
C35 O31 1.269 . S
C36 O37 1.249 . S
C36 O38 1.270 . S
O37 Zn29 1.943 . S
O37 C36 1.249 . S
O38 Zn28 2.067 . S
O38 C36 1.270 . S
C39 O32 1.262 . S
C39 O40 1.232 . S
O40 C39 1.232 . S
C41 O33 1.260 . S
C41 O34 1.257 . S
Zn42 O45 2.031 . S
Zn42 O47 2.049 . S
Zn42 O52 2.067 . S
Zn43 O44 1.962 . S
Zn43 O46 1.986 . S
Zn43 O48 1.996 . S
Zn43 O51 1.943 . S
O44 Zn43 1.962 . S
O44 C49 1.254 . S
O45 Zn42 2.031 . S
O45 C49 1.269 . S
O46 Zn43 1.986 . S
O46 C53 1.262 . S
O47 Zn42 2.049 . S
O47 C55 1.260 . S
O48 Zn43 1.996 . S
O48 C55 1.257 . S
C49 O44 1.254 . S
C49 O45 1.269 . S
C50 O51 1.249 . S
C50 O52 1.270 . S
O51 Zn43 1.943 . S
O51 C50 1.249 . S
O52 Zn42 2.067 . S
O52 C50 1.270 . S
C53 O46 1.262 . S
C53 O54 1.232 . S
O54 C53 1.232 . S
C55 O47 1.260 . S
C55 O48 1.257 . S
Zn56 O59 2.031 . S
Zn56 O61 2.049 . S
Zn56 O66 2.067 . S
Zn57 O58 1.962 . S
Zn57 O60 1.986 . S
Zn57 O62 1.996 . S
Zn57 O65 1.943 . S
O58 Zn57 1.962 . S
O58 C63 1.254 . S
O59 Zn56 2.031 . S
O59 C63 1.269 . S
O60 Zn57 1.986 . S
O60 C67 1.262 . S
O61 Zn56 2.049 . S
O61 C69 1.260 . S
O62 Zn57 1.996 . S
O62 C69 1.257 . S
C63 O58 1.254 . S
C63 O59 1.269 . S
C64 O65 1.249 . S
C64 O66 1.270 . S
O65 Zn57 1.943 . S
O65 C64 1.249 . S
O66 Zn56 2.067 . S
O66 C64 1.270 . S
C67 O60 1.262 . S
C67 O68 1.232 . S
O68 C67 1.232 . S
C69 O61 1.260 . S
C69 O62 1.257 . S
Zn70 O73 2.031 . S
Zn70 O75 2.049 . S
Zn70 O80 2.067 . S
Zn71 O72 1.962 . S
Zn71 O74 1.986 . S
Zn71 O76 1.996 . S
Zn71 O79 1.943 . S
O72 Zn71 1.962 . S
O72 C77 1.254 . S
O73 Zn70 2.031 . S
O73 C77 1.269 . S
O74 Zn71 1.986 . S
O74 C81 1.262 . S
O75 Zn70 2.049 . S
O75 C83 1.260 . S
O76 Zn71 1.996 . S
O76 C83 1.257 . S
C77 O72 1.254 . S
C77 O73 1.269 . S
C78 O79 1.249 . S
C78 O80 1.270 . S
O79 Zn71 1.943 . S
O79 C78 1.249 . S
O80 Zn70 2.067 . S
O80 C78 1.270 . S
C81 O74 1.262 . S
C81 O82 1.232 . S
O82 C81 1.232 . S
C83 O75 1.260 . S
C83 O76 1.257 . S
C84 C85 1.349 . S
C84 C86 1.327 . S
C84 H109 0.950 . S
C85 C84 1.349 . S
C85 C101 1.349 . S
C86 C84 1.327 . S
C86 C105 1.429 . S
C86 H110 0.950 . S
C87 C104 1.574 . S
C87 C106 1.368 . S
C87 H111 0.949 . S
H88 C92 0.949 . S
C89 C90 1.349 . S
C89 C91 1.327 . S
C89 H112 0.950 . S
C90 C89 1.349 . S
C90 C102 1.349 . S
C91 C89 1.327 . S
C91 C107 1.429 . S
C91 H113 0.950 . S
C92 H88 0.949 . S
C92 C100 1.574 . S
C92 C108 1.368 . S
H93 C101 0.950 . S
H94 C99 0.950 . S
H95 C100 0.949 . S
H96 C102 0.950 . S
H97 C103 0.950 . S
H98 C104 0.949 . S
C99 H94 0.950 . S
C99 C101 1.327 . S
C99 C105 1.429 . S
C100 C92 1.574 . S
C100 H95 0.949 . S
C100 C106 1.368 . S
C101 C85 1.349 . S
C101 H93 0.950 . S
C101 C99 1.327 . S
C102 C90 1.349 . S
C102 H96 0.950 . S
C102 C103 1.327 . S
C103 H97 0.950 . S
C103 C102 1.327 . S
C103 C107 1.429 . S
C104 C87 1.574 . S
C104 H98 0.949 . S
C104 C108 1.368 . S
C105 C86 1.429 . S
C105 C99 1.429 . S
C105 C106 1.523 . S
C106 C87 1.368 . S
C106 C100 1.368 . S
C106 C105 1.523 . S
C107 C91 1.429 . S
C107 C103 1.429 . S
C107 C108 1.523 . S
C108 C92 1.368 . S
C108 C104 1.368 . S
C108 C107 1.523 . S
H109 C84 0.950 . S
H110 C86 0.950 . S
H111 C87 0.949 . S
H112 C89 0.950 . S
H113 C91 0.950 . S
C114 C115 1.349 . S
C114 C116 1.327 . S
C114 H139 0.950 . S
C115 C114 1.349 . S
C115 C131 1.349 . S
C116 C114 1.327 . S
C116 C135 1.429 . S
C116 H140 0.950 . S
C117 C134 1.574 . S
C117 C136 1.368 . S
C117 H141 0.949 . S
H118 C122 0.949 . S
C119 C120 1.349 . S
C119 C121 1.327 . S
C119 H142 0.950 . S
C120 C119 1.349 . S
C120 C132 1.349 . S
C121 C119 1.327 . S
C121 C137 1.429 . S
C121 H143 0.950 . S
C122 H118 0.949 . S
C122 C130 1.574 . S
C122 C138 1.368 . S
H123 C131 0.950 . S
H124 C129 0.950 . S
H125 C130 0.949 . S
H126 C132 0.950 . S
H127 C133 0.950 . S
H128 C134 0.949 . S
C129 H124 0.950 . S
C129 C131 1.327 . S
C129 C135 1.429 . S
C130 C122 1.574 . S
C130 H125 0.949 . S
C130 C136 1.368 . S
C131 C115 1.349 . S
C131 H123 0.950 . S
C131 C129 1.327 . S
C132 C120 1.349 . S
C132 H126 0.950 . S
C132 C133 1.327 . S
C133 H127 0.950 . S
C133 C132 1.327 . S
C133 C137 1.429 . S
C134 C117 1.574 . S
C134 H128 0.949 . S
C134 C138 1.368 . S
C135 C116 1.429 . S
C135 C129 1.429 . S
C135 C136 1.523 . S
C136 C117 1.368 . S
C136 C130 1.368 . S
C136 C135 1.523 . S
C137 C121 1.429 . S
C137 C133 1.429 . S
C137 C138 1.523 . S
C138 C122 1.368 . S
C138 C134 1.368 . S
C138 C137 1.523 . S
H139 C114 0.950 . S
H140 C116 0.950 . S
H141 C117 0.949 . S
H142 C119 0.950 . S
H143 C121 0.950 . S
C144 C145 1.349 . S
C144 C146 1.327 . S
C144 H169 0.950 . S
C145 C144 1.349 . S
C145 C161 1.349 . S
C146 C144 1.327 . S
C146 C165 1.429 . S
C146 H170 0.950 . S
C147 C164 1.574 . S
C147 C166 1.368 . S
C147 H171 0.949 . S
H148 C152 0.949 . S
C149 C150 1.349 . S
C149 C151 1.327 . S
C149 H172 0.950 . S
C150 C149 1.349 . S
C150 C162 1.349 . S
C151 C149 1.327 . S
C151 C167 1.429 . S
C151 H173 0.950 . S
C152 H148 0.949 . S
C152 C160 1.574 . S
C152 C168 1.368 . S
H153 C161 0.950 . S
H154 C159 0.950 . S
H155 C160 0.949 . S
H156 C162 0.950 . S
H157 C163 0.950 . S
H158 C164 0.949 . S
C159 H154 0.950 . S
C159 C161 1.327 . S
C159 C165 1.429 . S
C160 C152 1.574 . S
C160 H155 0.949 . S
C160 C166 1.368 . S
C161 C145 1.349 . S
C161 H153 0.950 . S
C161 C159 1.327 . S
C162 C150 1.349 . S
C162 H156 0.950 . S
C162 C163 1.327 . S
C163 H157 0.950 . S
C163 C162 1.327 . S
C163 C167 1.429 . S
C164 C147 1.574 . S
C164 H158 0.949 . S
C164 C168 1.368 . S
C165 C146 1.429 . S
C165 C159 1.429 . S
C165 C166 1.523 . S
C166 C147 1.368 . S
C166 C160 1.368 . S
C166 C165 1.523 . S
C167 C151 1.429 . S
C167 C163 1.429 . S
C167 C168 1.523 . S
C168 C152 1.368 . S
C168 C164 1.368 . S
C168 C167 1.523 . S
H169 C144 0.950 . S
H170 C146 0.950 . S
H171 C147 0.949 . S
H172 C149 0.950 . S
H173 C151 0.950 . S
C174 C175 1.349 . S
C174 C176 1.327 . S
C174 H199 0.950 . S
C175 C174 1.349 . S
C175 C191 1.349 . S
C176 C174 1.327 . S
C176 C195 1.429 . S
C176 H200 0.950 . S
C177 C194 1.574 . S
C177 C196 1.368 . S
C177 H201 0.949 . S
H178 C182 0.949 . S
C179 C180 1.349 . S
C179 C181 1.327 . S
C179 H202 0.950 . S
C180 C179 1.349 . S
C180 C192 1.349 . S
C181 C179 1.327 . S
C181 C197 1.429 . S
C181 H203 0.950 . S
C182 H178 0.949 . S
C182 C190 1.574 . S
C182 C198 1.368 . S
H183 C191 0.950 . S
H184 C189 0.950 . S
H185 C190 0.949 . S
H186 C192 0.950 . S
H187 C193 0.950 . S
H188 C194 0.949 . S
C189 H184 0.950 . S
C189 C191 1.327 . S
C189 C195 1.429 . S
C190 C182 1.574 . S
C190 H185 0.949 . S
C190 C196 1.368 . S
C191 C175 1.349 . S
C191 H183 0.950 . S
C191 C189 1.327 . S
C192 C180 1.349 . S
C192 H186 0.950 . S
C192 C193 1.327 . S
C193 H187 0.950 . S
C193 C192 1.327 . S
C193 C197 1.429 . S
C194 C177 1.574 . S
C194 H188 0.949 . S
C194 C198 1.368 . S
C195 C176 1.429 . S
C195 C189 1.429 . S
C195 C196 1.523 . S
C196 C177 1.368 . S
C196 C190 1.368 . S
C196 C195 1.523 . S
C197 C181 1.429 . S
C197 C193 1.429 . S
C197 C198 1.523 . S
C198 C182 1.368 . S
C198 C194 1.368 . S
C198 C197 1.523 . S
H199 C174 0.950 . S
H200 C176 0.950 . S
H201 C177 0.949 . S
H202 C179 0.950 . S
H203 C181 0.950 . S
C204 C205 1.349 . S
C204 C206 1.327 . S
C204 H229 0.950 . S
C205 C204 1.349 . S
C205 C221 1.349 . S
C206 C204 1.327 . S
C206 C225 1.429 . S
C206 H230 0.950 . S
C207 C224 1.574 . S
C207 C226 1.368 . S
C207 H231 0.949 . S
H208 C212 0.949 . S
C209 C210 1.349 . S
C209 C211 1.327 . S
C209 H232 0.950 . S
C210 C209 1.349 . S
C210 C222 1.349 . S
C211 C209 1.327 . S
C211 C227 1.429 . S
C211 H233 0.950 . S
C212 H208 0.949 . S
C212 C220 1.574 . S
C212 C228 1.368 . S
H213 C221 0.950 . S
H214 C219 0.950 . S
H215 C220 0.949 . S
H216 C222 0.950 . S
H217 C223 0.950 . S
H218 C224 0.949 . S
C219 H214 0.950 . S
C219 C221 1.327 . S
C219 C225 1.429 . S
C220 C212 1.574 . S
C220 H215 0.949 . S
C220 C226 1.368 . S
C221 C205 1.349 . S
C221 H213 0.950 . S
C221 C219 1.327 . S
C222 C210 1.349 . S
C222 H216 0.950 . S
C222 C223 1.327 . S
C223 H217 0.950 . S
C223 C222 1.327 . S
C223 C227 1.429 . S
C224 C207 1.574 . S
C224 H218 0.949 . S
C224 C228 1.368 . S
C225 C206 1.429 . S
C225 C219 1.429 . S
C225 C226 1.523 . S
C226 C207 1.368 . S
C226 C220 1.368 . S
C226 C225 1.523 . S
C227 C211 1.429 . S
C227 C223 1.429 . S
C227 C228 1.523 . S
C228 C212 1.368 . S
C228 C224 1.368 . S
C228 C227 1.523 . S
H229 C204 0.950 . S
H230 C206 0.950 . S
H231 C207 0.949 . S
H232 C209 0.950 . S
H233 C211 0.950 . S
C234 C235 1.349 . S
C234 C236 1.327 . S
C234 H259 0.950 . S
C235 C234 1.349 . S
C235 C251 1.349 . S
C236 C234 1.327 . S
C236 C255 1.429 . S
C236 H260 0.950 . S
C237 C254 1.574 . S
C237 C256 1.368 . S
C237 H261 0.949 . S
H238 C242 0.949 . S
C239 C240 1.349 . S
C239 C241 1.327 . S
C239 H262 0.950 . S
C240 C239 1.349 . S
C240 C252 1.349 . S
C241 C239 1.327 . S
C241 C257 1.429 . S
C241 H263 0.950 . S
C242 H238 0.949 . S
C242 C250 1.574 . S
C242 C258 1.368 . S
H243 C251 0.950 . S
H244 C249 0.950 . S
H245 C250 0.949 . S
H246 C252 0.950 . S
H247 C253 0.950 . S
H248 C254 0.949 . S
C249 H244 0.950 . S
C249 C251 1.327 . S
C249 C255 1.429 . S
C250 C242 1.574 . S
C250 H245 0.949 . S
C250 C256 1.368 . S
C251 C235 1.349 . S
C251 H243 0.950 . S
C251 C249 1.327 . S
C252 C240 1.349 . S
C252 H246 0.950 . S
C252 C253 1.327 . S
C253 H247 0.950 . S
C253 C252 1.327 . S
C253 C257 1.429 . S
C254 C237 1.574 . S
C254 H248 0.949 . S
C254 C258 1.368 . S
C255 C236 1.429 . S
C255 C249 1.429 . S
C255 C256 1.523 . S
C256 C237 1.368 . S
C256 C250 1.368 . S
C256 C255 1.523 . S
C257 C241 1.429 . S
C257 C253 1.429 . S
C257 C258 1.523 . S
C258 C242 1.368 . S
C258 C254 1.368 . S
C258 C257 1.523 . S
H259 C234 0.950 . S
H260 C236 0.950 . S
H261 C237 0.949 . S
H262 C239 0.950 . S
H263 C241 0.950 . S
C264 C265 1.349 . S
C264 C266 1.327 . S
C264 H289 0.950 . S
C265 C264 1.349 . S
C265 C281 1.349 . S
C266 C264 1.327 . S
C266 C285 1.429 . S
C266 H290 0.950 . S
C267 C284 1.574 1_556 S
C267 C286 1.368 . S
C267 H291 0.949 . S
H268 C272 0.949 . S
C269 C270 1.349 . S
C269 C271 1.327 . S
C269 H292 0.950 . S
C270 C269 1.349 . S
C270 C282 1.349 . S
C271 C269 1.327 . S
C271 C287 1.429 . S
C271 H293 0.950 . S
C272 H268 0.949 . S
C272 C280 1.574 1_554 S
C272 C288 1.368 . S
H273 C281 0.950 . S
H274 C279 0.950 . S
H275 C280 0.949 . S
H276 C282 0.950 . S
H277 C283 0.950 . S
H278 C284 0.949 . S
C279 H274 0.950 . S
C279 C281 1.327 . S
C279 C285 1.429 . S
C280 C272 1.574 1_556 S
C280 H275 0.949 . S
C280 C286 1.368 1_545 S
C281 C265 1.349 . S
C281 H273 0.950 . S
C281 C279 1.327 . S
C282 C270 1.349 . S
C282 H276 0.950 . S
C282 C283 1.327 . S
C283 H277 0.950 . S
C283 C282 1.327 . S
C283 C287 1.429 . S
C284 C267 1.574 1_554 S
C284 H278 0.949 . S
C284 C288 1.368 1_565 S
C285 C266 1.429 . S
C285 C279 1.429 . S
C285 C286 1.523 . S
C286 C267 1.368 . S
C286 C280 1.368 1_565 S
C286 C285 1.523 . S
C287 C271 1.429 . S
C287 C283 1.429 . S
C287 C288 1.523 . S
C288 C272 1.368 . S
C288 C284 1.368 1_545 S
C288 C287 1.523 . S
H289 C264 0.950 . S
H290 C266 0.950 . S
H291 C267 0.949 . S
H292 C269 0.950 . S
H293 C271 0.950 . S
C294 C295 1.349 . S
C294 C296 1.327 . S
C294 H319 0.950 . S
C295 C294 1.349 . S
C295 C311 1.349 . S
C296 C294 1.327 . S
C296 C315 1.429 . S
C296 H320 0.950 . S
C297 C314 1.574 . S
C297 C316 1.368 . S
C297 H321 0.949 . S
H298 C302 0.949 . S
C299 C300 1.349 . S
C299 C301 1.327 . S
C299 H322 0.950 . S
C300 C299 1.349 . S
C300 C312 1.349 . S
C301 C299 1.327 . S
C301 C317 1.429 . S
C301 H323 0.950 . S
C302 H298 0.949 . S
C302 C310 1.574 . S
C302 C318 1.368 . S
H303 C311 0.950 . S
H304 C309 0.950 . S
H305 C310 0.949 . S
H306 C312 0.950 . S
H307 C313 0.950 . S
H308 C314 0.949 . S
C309 H304 0.950 . S
C309 C311 1.327 . S
C309 C315 1.429 . S
C310 C302 1.574 . S
C310 H305 0.949 . S
C310 C316 1.368 . S
C311 C295 1.349 . S
C311 H303 0.950 . S
C311 C309 1.327 . S
C312 C300 1.349 . S
C312 H306 0.950 . S
C312 C313 1.327 . S
C313 H307 0.950 . S
C313 C312 1.327 . S
C313 C317 1.429 . S
C314 C297 1.574 . S
C314 H308 0.949 . S
C314 C318 1.368 . S
C315 C296 1.429 . S
C315 C309 1.429 . S
C315 C316 1.523 . S
C316 C297 1.368 . S
C316 C310 1.368 . S
C316 C315 1.523 . S
C317 C301 1.429 . S
C317 C313 1.429 . S
C317 C318 1.523 . S
C318 C302 1.368 . S
C318 C314 1.368 . S
C318 C317 1.523 . S
H319 C294 0.950 . S
H320 C296 0.950 . S
H321 C297 0.949 . S
H322 C299 0.950 . S
H323 C301 0.950 . S
C324 C325 1.349 . S
C324 C326 1.327 . S
C324 H349 0.950 . S
C325 C324 1.349 . S
C325 C341 1.349 . S
C326 C324 1.327 . S
C326 C345 1.429 . S
C326 H350 0.950 . S
C327 C344 1.574 1_456 S
C327 C346 1.368 . S
C327 H351 0.949 . S
H328 C332 0.949 . S
C329 C330 1.349 . S
C329 C331 1.327 . S
C329 H352 0.950 . S
C330 C329 1.349 . S
C330 C342 1.349 . S
C331 C329 1.327 . S
C331 C347 1.429 . S
C331 H353 0.950 . S
C332 H328 0.949 . S
C332 C340 1.574 1_654 S
C332 C348 1.368 . S
H333 C341 0.950 . S
H334 C339 0.950 . S
H335 C340 0.949 . S
H336 C342 0.950 . S
H337 C343 0.950 . S
H338 C344 0.949 . S
C339 H334 0.950 . S
C339 C341 1.327 . S
C339 C345 1.429 . S
C340 C332 1.574 1_456 S
C340 H335 0.949 . S
C340 C346 1.368 . S
C341 C325 1.349 . S
C341 H333 0.950 . S
C341 C339 1.327 . S
C342 C330 1.349 . S
C342 H336 0.950 . S
C342 C343 1.327 . S
C343 H337 0.950 . S
C343 C342 1.327 . S
C343 C347 1.429 . S
C344 C327 1.574 1_654 S
C344 H338 0.949 . S
C344 C348 1.368 . S
C345 C326 1.429 . S
C345 C339 1.429 . S
C345 C346 1.523 . S
C346 C327 1.368 . S
C346 C340 1.368 . S
C346 C345 1.523 . S
C347 C331 1.429 . S
C347 C343 1.429 . S
C347 C348 1.523 . S
C348 C332 1.368 . S
C348 C344 1.368 . S
C348 C347 1.523 . S
H349 C324 0.950 . S
H350 C326 0.950 . S
H351 C327 0.949 . S
H352 C329 0.950 . S
H353 C331 0.950 . S
C354 C355 1.349 . S
C354 C356 1.327 . S
C354 H379 0.950 . S
C355 C354 1.349 . S
C355 C371 1.349 . S
C356 C354 1.327 . S
C356 C375 1.429 . S
C356 H380 0.950 . S
C357 C374 1.574 . S
C357 C376 1.368 1_565 S
C357 H381 0.949 . S
H358 C362 0.949 . S
C359 C360 1.349 . S
C359 C361 1.327 . S
C359 H382 0.950 . S
C360 C359 1.349 . S
C360 C372 1.349 . S
C361 C359 1.327 . S
C361 C377 1.429 . S
C361 H383 0.950 . S
C362 H358 0.949 . S
C362 C370 1.574 . S
C362 C378 1.368 1_545 S
H363 C371 0.950 . S
H364 C369 0.950 . S
H365 C370 0.949 . S
H366 C372 0.950 . S
H367 C373 0.950 . S
H368 C374 0.949 . S
C369 H364 0.950 . S
C369 C371 1.327 . S
C369 C375 1.429 . S
C370 C362 1.574 . S
C370 H365 0.949 . S
C370 C376 1.368 . S
C371 C355 1.349 . S
C371 H363 0.950 . S
C371 C369 1.327 . S
C372 C360 1.349 . S
C372 H366 0.950 . S
C372 C373 1.327 . S
C373 H367 0.950 . S
C373 C372 1.327 . S
C373 C377 1.429 . S
C374 C357 1.574 . S
C374 H368 0.949 . S
C374 C378 1.368 . S
C375 C356 1.429 . S
C375 C369 1.429 . S
C375 C376 1.523 . S
C376 C357 1.368 1_545 S
C376 C370 1.368 . S
C376 C375 1.523 . S
C377 C361 1.429 . S
C377 C373 1.429 . S
C377 C378 1.523 . S
C378 C362 1.368 1_565 S
C378 C374 1.368 . S
C378 C377 1.523 . S
H379 C354 0.950 . S
H380 C356 0.950 . S
H381 C357 0.949 . S
H382 C359 0.950 . S
H383 C361 0.950 . S
C384 C385 1.349 . S
C384 C386 1.327 . S
C384 H409 0.950 . S
C385 C384 1.349 . S
C385 C401 1.349 . S
C386 C384 1.327 . S
C386 C405 1.429 . S
C386 H410 0.950 . S
C387 C404 1.574 . S
C387 C406 1.368 1_554 S
C387 H411 0.949 . S
H388 C392 0.949 . S
C389 C390 1.349 . S
C389 C391 1.327 . S
C389 H412 0.950 . S
C390 C389 1.349 . S
C390 C402 1.349 . S
C391 C389 1.327 . S
C391 C407 1.429 . S
C391 H413 0.950 . S
C392 H388 0.949 . S
C392 C400 1.574 1_554 S
C392 C408 1.368 . S
H393 C401 0.950 . S
H394 C399 0.950 . S
H395 C400 0.949 . S
H396 C402 0.950 . S
H397 C403 0.950 . S
H398 C404 0.949 . S
C399 H394 0.950 . S
C399 C401 1.327 . S
C399 C405 1.429 . S
C400 C392 1.574 1_556 S
C400 H395 0.949 . S
C400 C406 1.368 . S
C401 C385 1.349 . S
C401 H393 0.950 . S
C401 C399 1.327 . S
C402 C390 1.349 . S
C402 H396 0.950 . S
C402 C403 1.327 . S
C403 H397 0.950 . S
C403 C402 1.327 . S
C403 C407 1.429 . S
C404 C387 1.574 . S
C404 H398 0.949 . S
C404 C408 1.368 . S
C405 C386 1.429 . S
C405 C399 1.429 . S
C405 C406 1.523 . S
C406 C387 1.368 1_556 S
C406 C400 1.368 . S
C406 C405 1.523 . S
C407 C391 1.429 . S
C407 C403 1.429 . S
C407 C408 1.523 . S
C408 C392 1.368 . S
C408 C404 1.368 . S
C408 C407 1.523 . S
H409 C384 0.950 . S
H410 C386 0.950 . S
H411 C387 0.949 . S
H412 C389 0.950 . S
H413 C391 0.950 . S
C414 C415 1.349 . S
C414 C416 1.327 . S
C414 H439 0.950 . S
C415 C414 1.349 . S
C415 C431 1.349 . S
C416 C414 1.327 . S
C416 C435 1.429 . S
C416 H440 0.950 1_455 S
C417 C434 1.574 . S
C417 C436 1.368 . S
C417 H441 0.949 . S
H418 C422 0.949 . S
C419 C420 1.349 . S
C419 C421 1.327 . S
C419 H442 0.950 . S
C420 C419 1.349 . S
C420 C432 1.349 . S
C421 C419 1.327 . S
C421 C437 1.429 . S
C421 H443 0.950 . S
C422 H418 0.949 . S
C422 C430 1.574 . S
C422 C438 1.368 . S
H423 C431 0.950 . S
H424 C429 0.950 . S
H425 C430 0.949 . S
H426 C432 0.950 . S
H427 C433 0.950 . S
H428 C434 0.949 . S
C429 H424 0.950 . S
C429 C431 1.327 . S
C429 C435 1.429 . S
C430 C422 1.574 . S
C430 H425 0.949 . S
C430 C436 1.368 1_655 S
C431 C415 1.349 . S
C431 H423 0.950 . S
C431 C429 1.327 . S
C432 C420 1.349 . S
C432 H426 0.950 . S
C432 C433 1.327 . S
C433 H427 0.950 . S
C433 C432 1.327 . S
C433 C437 1.429 . S
C434 C417 1.574 . S
C434 H428 0.949 . S
C434 C438 1.368 1_455 S
C435 C416 1.429 . S
C435 C429 1.429 . S
C435 C436 1.523 . S
C436 C417 1.368 . S
C436 C430 1.368 1_455 S
C436 C435 1.523 . S
C437 C421 1.429 . S
C437 C433 1.429 . S
C437 C438 1.523 . S
C438 C422 1.368 . S
C438 C434 1.368 1_655 S
C438 C437 1.523 . S
H439 C414 0.950 . S
H440 C416 0.950 1_655 S
H441 C417 0.949 . S
H442 C419 0.950 . S
H443 C421 0.950 . S
C85 C7 0.857 . S
C90 C64 0.859 . S
C115 C21 0.836 . S
C120 C77 0.833 . S
C145 C8 0.856 . S
C150 C36 0.857 . S
C175 C50 0.856 . S
C180 C22 0.856 . S
C205 C63 0.834 . S
C210 C35 0.836 . S
C235 C49 0.857 . S
C240 C78 0.859 . S
C265 C55 1.249 . S
C270 C13 1.249 . S
C295 C67 1.364 . S
C300 C27 1.267 . S
C325 C83 1.258 . S
C330 C39 1.352 . S
C355 C11 1.345 . S
C360 C53 1.345 . S
C385 C25 1.352 . S
C390 C69 1.259 . S
C415 C81 1.364 . S
C420 C41 1.268 . S
