# Generated by pormake.
# Topology ukb, (4)-cn, num edge types: 1
# Building blocks:
#     Node 0, Type 0, BuildingBlock: GALJAG_clean_sbu_0, # of connection points: 4
#     Node 1, Type 0, BuildingBlock: GALJAG_clean_sbu_0, # of connection points: 4
#     Node 2, Type 0, BuildingBlock: GALJAG_clean_sbu_0, # of connection points: 4
#     Node 3, Type 0, BuildingBlock: GALJAG_clean_sbu_0, # of connection points: 4
#     Node 4, Type 0, BuildingBlock: GALJAG_clean_sbu_0, # of connection points: 4
#     Node 5, Type 0, BuildingBlock: GALJAG_clean_sbu_0, # of connection points: 4
#     Node 6, Type 0, BuildingBlock: GALJAG_clean_sbu_0, # of connection points: 4
#     Node 7, Type 0, BuildingBlock: GALJAG_clean_sbu_0, # of connection points: 4
#     Node 8, Type 0, BuildingBlock: GALJAG_clean_sbu_0, # of connection points: 4
#     Node 9, Type 0, BuildingBlock: GALJAG_clean_sbu_0, # of connection points: 4
#     Node 10, Type 0, BuildingBlock: GALJAG_clean_sbu_0, # of connection points: 4
#     Node 11, Type 0, BuildingBlock: GALJAG_clean_sbu_0, # of connection points: 4
#     Node 12, Type 0, BuildingBlock: GALJAG_clean_sbu_0, # of connection points: 4
#     Node 13, Type 0, BuildingBlock: GALJAG_clean_sbu_0, # of connection points: 4
#     Node 14, Type 0, BuildingBlock: GALJAG_clean_sbu_0, # of connection points: 4
#     Node 15, Type 0, BuildingBlock: GALJAG_clean_sbu_0, # of connection points: 4
#     Edge 16, Type (0, 0), BuildingBlock: CIFDUS_clean_linker_0, # of connection points: 2
#     Edge 17, Type (0, 0), BuildingBlock: CIFDUS_clean_linker_0, # of connection points: 2
#     Edge 18, Type (0, 0), BuildingBlock: CIFDUS_clean_linker_0, # of connection points: 2
#     Edge 19, Type (0, 0), BuildingBlock: CIFDUS_clean_linker_0, # of connection points: 2
#     Edge 20, Type (0, 0), BuildingBlock: CIFDUS_clean_linker_0, # of connection points: 2
#     Edge 21, Type (0, 0), BuildingBlock: CIFDUS_clean_linker_0, # of connection points: 2
#     Edge 22, Type (0, 0), BuildingBlock: CIFDUS_clean_linker_0, # of connection points: 2
#     Edge 23, Type (0, 0), BuildingBlock: CIFDUS_clean_linker_0, # of connection points: 2
#     Edge 24, Type (0, 0), BuildingBlock: CIFDUS_clean_linker_0, # of connection points: 2
#     Edge 25, Type (0, 0), BuildingBlock: CIFDUS_clean_linker_0, # of connection points: 2
#     Edge 26, Type (0, 0), BuildingBlock: CIFDUS_clean_linker_0, # of connection points: 2
#     Edge 27, Type (0, 0), BuildingBlock: CIFDUS_clean_linker_0, # of connection points: 2
#     Edge 28, Type (0, 0), BuildingBlock: CIFDUS_clean_linker_0, # of connection points: 2
#     Edge 29, Type (0, 0), BuildingBlock: CIFDUS_clean_linker_0, # of connection points: 2
#     Edge 30, Type (0, 0), BuildingBlock: CIFDUS_clean_linker_0, # of connection points: 2
#     Edge 31, Type (0, 0), BuildingBlock: CIFDUS_clean_linker_0, # of connection points: 2
#     Edge 32, Type (0, 0), BuildingBlock: CIFDUS_clean_linker_0, # of connection points: 2
#     Edge 33, Type (0, 0), BuildingBlock: CIFDUS_clean_linker_0, # of connection points: 2
#     Edge 34, Type (0, 0), BuildingBlock: CIFDUS_clean_linker_0, # of connection points: 2
#     Edge 35, Type (0, 0), BuildingBlock: CIFDUS_clean_linker_0, # of connection points: 2
#     Edge 36, Type (0, 0), BuildingBlock: CIFDUS_clean_linker_0, # of connection points: 2
#     Edge 37, Type (0, 0), BuildingBlock: CIFDUS_clean_linker_0, # of connection points: 2
#     Edge 38, Type (0, 0), BuildingBlock: CIFDUS_clean_linker_0, # of connection points: 2
#     Edge 39, Type (0, 0), BuildingBlock: CIFDUS_clean_linker_0, # of connection points: 2
#     Edge 40, Type (0, 0), BuildingBlock: CIFDUS_clean_linker_0, # of connection points: 2
#     Edge 41, Type (0, 0), BuildingBlock: CIFDUS_clean_linker_0, # of connection points: 2
#     Edge 42, Type (0, 0), BuildingBlock: CIFDUS_clean_linker_0, # of connection points: 2
#     Edge 43, Type (0, 0), BuildingBlock: CIFDUS_clean_linker_0, # of connection points: 2
#     Edge 44, Type (0, 0), BuildingBlock: CIFDUS_clean_linker_0, # of connection points: 2
#     Edge 45, Type (0, 0), BuildingBlock: CIFDUS_clean_linker_0, # of connection points: 2
#     Edge 46, Type (0, 0), BuildingBlock: CIFDUS_clean_linker_0, # of connection points: 2
#     Edge 47, Type (0, 0), BuildingBlock: CIFDUS_clean_linker_0, # of connection points: 2
# Relax obj value: 0.140
# Max RMSD: 0.093
# Mean RMSD: 0.093
data_MOF--net-ukb--node1-GALJAG_clean_sbu_0--edge1-CIFDUS_clean_linker_0
_symmetry_space_group_name_H-M    P1
_symmetry_Int_Tables_number       1
_symmetry_cell_setting            triclinic
loop_
_symmetry_equiv_pos_as_xyz
'x, y, z'
_cell_length_a     38.942234
_cell_length_b     38.923105
_cell_length_c     33.121729
_cell_angle_alpha  89.985174
_cell_angle_beta   89.953169
_cell_angle_gamma 89.951145
loop_
_atom_site_label
_atom_site_type_symbol
_atom_site_fract_x
_atom_site_fract_y
_atom_site_fract_z
_atom_type_partial_charge
In0 In 0.53511 0.17821 0.19599 0.0
O1 O 0.5901 0.15881 0.19141 0.0
O2 O 0.55264 0.12408 0.2139 0.0
C3 C 0.53105 0.19379 0.11659 0.0
C4 C 0.47507 0.1545 0.22608 0.0
C5 C 0.55674 0.23534 0.23517 0.0
O6 O 0.55243 0.17249 0.1305 0.0
O7 O 0.51093 0.20643 0.14254 0.0
O8 O 0.53881 0.23652 0.20358 0.0
O9 O 0.56299 0.20543 0.24761 0.0
C10 C 0.58382 0.12938 0.20555 0.0
O11 O 0.4963 0.17126 0.24694 0.0
O12 O 0.48379 0.15012 0.18975 0.0
In13 In 0.31046 0.53976 0.68322 0.0
O14 O 0.32038 0.49317 0.72349 0.0
O15 O 0.34906 0.49735 0.66905 0.0
C16 C 0.25677 0.55236 0.73297 0.0
C17 C 0.35703 0.59149 0.68792 0.0
C18 C 0.28188 0.53836 0.60884 0.0
O19 O 0.25545 0.53039 0.70501 0.0
O20 O 0.2856 0.56663 0.737 0.0
O21 O 0.27761 0.56272 0.63341 0.0
O22 O 0.30096 0.51445 0.62156 0.0
C23 C 0.34332 0.48056 0.70095 0.0
O24 O 0.33483 0.58966 0.66041 0.0
O25 O 0.35648 0.56676 0.71239 0.0
In26 In 0.96357 0.305 0.19646 0.0
O27 O 0.00429 0.31361 0.24509 0.0
O28 O 0.01406 0.33386 0.18679 0.0
C29 C 0.93363 0.25392 0.23922 0.0
C30 C 0.91894 0.35774 0.2064 0.0
C31 C 0.9724 0.27791 0.12172 0.0
O32 O 0.9655 0.25437 0.23205 0.0
O33 O 0.91724 0.2792 0.22522 0.0
O34 O 0.9678 0.30965 0.1274 0.0
O35 O 0.97285 0.26015 0.1535 0.0
C36 C 0.02406 0.33093 0.22283 0.0
O37 O 0.9164 0.33668 0.17752 0.0
O38 O 0.94415 0.35245 0.22942 0.0
In39 In 0.20531 0.96729 0.68815 0.0
O40 O 0.18312 0.02217 0.69251 0.0
O41 O 0.16859 0.98609 0.73712 0.0
C42 C 0.26764 0.96105 0.72428 0.0
C43 C 0.17463 0.90532 0.69505 0.0
C44 C 0.21418 0.97832 0.6082 0.0
O45 O 0.24067 0.96766 0.74382 0.0
O46 O 0.26337 0.95944 0.68669 0.0
O47 O 0.20056 0.95139 0.6221 0.0
O48 O 0.22218 1.00037 0.63452 0.0
C49 C 0.16581 0.01629 0.72395 0.0
O50 O 0.15843 0.93164 0.68325 0.0
O51 O 0.20597 0.91036 0.70243 0.0
In52 In 0.52639 0.31281 0.8269 0.0
O53 O 0.57301 0.34139 0.85305 0.0
O54 O 0.55322 0.3582 0.79695 0.0
C55 C 0.5192 0.28495 0.90135 0.0
C56 C 0.46886 0.34603 0.80377 0.0
C57 C 0.54355 0.25856 0.77986 0.0
O58 O 0.54582 0.28101 0.88016 0.0
O59 O 0.49623 0.30319 0.88519 0.0
O60 O 0.51606 0.25925 0.80009 0.0
O61 O 0.56127 0.28551 0.7823 0.0
C62 C 0.57579 0.36186 0.82375 0.0
O63 O 0.48415 0.32492 0.781 0.0
O64 O 0.48214 0.34967 0.83824 0.0
In65 In 0.1949 0.52917 0.30518 0.0
O66 O 0.15952 0.48277 0.31243 0.0
O67 O 0.18413 0.48935 0.25585 0.0
C68 C 0.25428 0.55584 0.27703 0.0
C69 C 0.14849 0.57797 0.28496 0.0
C70 C 0.2159 0.51934 0.38193 0.0
O71 O 0.24515 0.5255 0.2686 0.0
O72 O 0.23384 0.5719 0.29973 0.0
O73 O 0.1942 0.54195 0.37213 0.0
O74 O 0.22649 0.50096 0.35306 0.0
C75 C 0.16367 0.47182 0.27696 0.0
O76 O 0.1481 0.5635 0.31907 0.0
O77 O 0.17136 0.56708 0.26129 0.0
In78 In 0.97952 0.19909 0.8138 0.0
O79 O 0.93311 0.1648 0.82691 0.0
O80 O 0.95459 0.16373 0.76785 0.0
C81 C 0.98754 0.22301 0.89007 0.0
C82 C 0.0377 0.16548 0.79219 0.0
C83 C 0.95171 0.25447 0.77697 0.0
O84 O 0.97379 0.19439 0.88248 0.0
O85 O 0.99816 0.23898 0.8594 0.0
O86 O 0.98378 0.2493 0.77729 0.0
O87 O 0.93427 0.23193 0.79498 0.0
C88 C 0.93165 0.15276 0.7915 0.0
O89 O 0.02673 0.19137 0.77318 0.0
O90 O 0.02019 0.15762 0.82286 0.0
In91 In 0.29434 0.96918 0.30035 0.0
O92 O 0.33468 0.92801 0.31645 0.0
O93 O 0.33514 0.94929 0.25751 0.0
C94 C 0.27285 0.96461 0.37775 0.0
C95 C 0.3218 0.03089 0.28213 0.0
C96 C 0.23856 0.94903 0.25752 0.0
O97 O 0.27775 0.99306 0.36034 0.0
O98 O 0.27924 0.93855 0.35629 0.0
O99 O 0.23682 0.97184 0.28446 0.0
O100 O 0.26816 0.93702 0.25191 0.0
C101 C 0.34852 0.92846 0.28194 0.0
O102 O 0.29747 0.01797 0.26207 0.0
O103 O 0.33088 0.01356 0.31248 0.0
In104 In 0.47827 0.80841 0.81204 0.0
O105 O 0.52775 0.81472 0.77554 0.0
O106 O 0.51895 0.84931 0.82397 0.0
C107 C 0.46305 0.74829 0.77486 0.0
C108 C 0.43437 0.85739 0.78599 0.0
C109 C 0.47145 0.78909 0.89008 0.0
O110 O 0.44631 0.77554 0.76939 0.0
O111 O 0.48818 0.75128 0.79856 0.0
O112 O 0.4463 0.79827 0.86862 0.0
O113 O 0.5002 0.79055 0.87252 0.0
C114 C 0.53809 0.84058 0.79498 0.0
O115 O 0.43623 0.84886 0.82276 0.0
O116 O 0.45468 0.84144 0.76297 0.0
In117 In 0.69081 0.46359 0.30888 0.0
O118 O 0.66628 0.4112 0.32075 0.0
O119 O 0.65057 0.4389 0.26861 0.0
C120 C 0.71334 0.45896 0.38578 0.0
C121 C 0.64989 0.51948 0.3026 0.0
C122 C 0.74697 0.45443 0.26112 0.0
O123 O 0.70622 0.43299 0.36457 0.0
O124 O 0.70879 0.48747 0.36831 0.0
O125 O 0.71723 0.44539 0.25097 0.0
O126 O 0.74827 0.46995 0.29443 0.0
C127 C 0.64754 0.41208 0.28966 0.0
O128 O 0.67822 0.51748 0.28409 0.0
O129 O 0.64327 0.49415 0.32496 0.0
In130 In 0.03226 0.69049 0.79499 0.0
O131 O 0.08049 0.66147 0.81553 0.0
O132 O 0.05542 0.64456 0.76225 0.0
C133 C 0.0193 0.71834 0.86819 0.0
C134 C 0.97386 0.66016 0.76933 0.0
C135 C 0.06035 0.74364 0.7542 0.0
O136 O 0.02809 0.68732 0.86393 0.0
O137 O 0.01644 0.7349 0.83569 0.0
O138 O 0.02831 0.73852 0.75496 0.0
O139 O 0.07784 0.72165 0.77314 0.0
C140 C 0.08009 0.64055 0.7864 0.0
O141 O 0.99276 0.67782 0.74634 0.0
O142 O 0.98381 0.65883 0.80553 0.0
In143 In 0.81031 0.02385 0.32296 0.0
O144 O 0.83615 0.97195 0.33524 0.0
O145 O 0.82401 0.98384 0.27468 0.0
C146 C 0.75729 0.04136 0.27457 0.0
C147 C 0.85389 0.07783 0.31654 0.0
C148 C 0.79037 0.021 0.40113 0.0
O149 O 0.78721 0.05317 0.27041 0.0
O150 O 0.75411 0.01953 0.30258 0.0
O151 O 0.76936 0.01919 0.37224 0.0
O152 O 0.82134 0.02428 0.39061 0.0
C153 C 0.83726 0.96271 0.29888 0.0
O154 O 0.86264 0.04756 0.3076 0.0
O155 O 0.82372 0.08059 0.33 0.0
In156 In 0.47292 0.70594 0.19595 0.0
O157 O 0.43422 0.66156 0.18844 0.0
O158 O 0.42336 0.70097 0.231 0.0
C159 C 0.47988 0.71644 0.11544 0.0
C160 C 0.52572 0.66788 0.22488 0.0
C161 C 0.46479 0.7682 0.23115 0.0
O162 O 0.45105 0.71293 0.1323 0.0
O163 O 0.50519 0.71334 0.13887 0.0
O164 O 0.47254 0.7417 0.25113 0.0
O165 O 0.46316 0.76351 0.19358 0.0
C166 C 0.41393 0.67317 0.215 0.0
O167 O 0.52969 0.69852 0.21338 0.0
O168 O 0.49549 0.65675 0.22185 0.0
In169 In 0.79459 0.46601 0.69263 0.0
O170 O 0.83403 0.50879 0.68503 0.0
O171 O 0.81107 0.50302 0.74274 0.0
C172 C 0.7337 0.46139 0.73185 0.0
C173 C 0.83065 0.40705 0.70293 0.0
C174 C 0.77876 0.47287 0.61356 0.0
O175 O 0.73666 0.47453 0.69725 0.0
O176 O 0.76167 0.45198 0.74747 0.0
O177 O 0.7888 0.44482 0.62862 0.0
O178 O 0.77725 0.49753 0.63821 0.0
C179 C 0.83208 0.51929 0.72095 0.0
O180 O 0.84518 0.43583 0.69916 0.0
O181 O 0.7984 0.40809 0.70044 0.0
In182 In 0.02381 0.80251 0.17219 0.0
O183 O 0.06703 0.8405 0.1579 0.0
O184 O 0.0465 0.84023 0.21737 0.0
C185 C 0.01089 0.7776 0.098 0.0
C186 C 0.9633 0.83112 0.19311 0.0
C187 C 0.05813 0.74739 0.20045 0.0
O188 O 0.02489 0.80653 0.10352 0.0
O189 O 0.00238 0.76193 0.12987 0.0
O190 O 0.02809 0.75435 0.21266 0.0
O191 O 0.07038 0.76851 0.17549 0.0
C192 C 0.06806 0.85284 0.19314 0.0
O193 O 0.97877 0.81014 0.21594 0.0
O194 O 0.97783 0.83652 0.15966 0.0
In195 In 0.6956 0.04581 0.69917 0.0
O196 O 0.67355 0.01821 0.75425 0.0
O197 O 0.67458 0.99058 0.69932 0.0
C198 C 0.75573 0.06119 0.73628 0.0
C199 C 0.65744 0.10411 0.70033 0.0
C200 C 0.70736 0.03143 0.62081 0.0
O201 O 0.72771 0.05914 0.75519 0.0
O202 O 0.75349 0.05466 0.69917 0.0
O203 O 0.68075 0.04728 0.63239 0.0
O204 O 0.72716 0.02187 0.64884 0.0
C205 C 0.66632 0.99077 0.7361 0.0
O206 O 0.64437 0.07471 0.70444 0.0
O207 O 0.68941 0.10398 0.69458 0.0
H208 H 0.41906 0.13005 0.1866 0.0
H209 H 0.46249 0.14232 0.3055 0.0
H210 H 0.41613 0.10802 0.33446 0.0
H211 H 0.36716 0.06912 0.32477 0.0
H212 H 0.32272 0.05791 0.20627 0.0
H213 H 0.36509 0.09774 0.1785 0.0
C214 C 0.41804 0.12558 0.21891 0.0
C215 C 0.44436 0.1382 0.24382 0.0
C216 C 0.39119 0.10598 0.23541 0.0
C217 C 0.44257 0.13271 0.28569 0.0
C218 C 0.41614 0.11301 0.30227 0.0
C219 C 0.36635 0.07598 0.29303 0.0
C220 C 0.34217 0.06035 0.26751 0.0
C221 C 0.39087 0.09874 0.27726 0.0
C222 C 0.34112 0.06963 0.22653 0.0
C223 C 0.36551 0.09219 0.21056 0.0
H224 H 0.35059 0.4536 0.77584 0.0
H225 H 0.38336 0.44065 0.65237 0.0
H226 H 0.42262 0.39476 0.67288 0.0
H227 H 0.45119 0.36186 0.72676 0.0
H228 H 0.42179 0.37861 0.85077 0.0
H229 H 0.37748 0.41919 0.8293 0.0
C230 C 0.36595 0.44035 0.75337 0.0
C231 C 0.36412 0.45043 0.71269 0.0
C232 C 0.38923 0.41481 0.76556 0.0
C233 C 0.38442 0.43335 0.68391 0.0
C234 C 0.40689 0.40717 0.69562 0.0
C235 C 0.43467 0.374 0.74896 0.0
C236 C 0.43965 0.36728 0.79024 0.0
C237 C 0.41003 0.39817 0.73648 0.0
C238 C 0.41843 0.38347 0.81881 0.0
C239 C 0.39315 0.4067 0.80656 0.0
H240 H 0.07133 0.36764 0.18049 0.0
H241 H 0.04268 0.3384 0.30159 0.0
H242 H 0.08532 0.37789 0.32918 0.0
H243 H 0.12668 0.42478 0.31898 0.0
H244 H 0.15587 0.45368 0.19801 0.0
H245 H 0.11731 0.41014 0.1703 0.0
C246 C 0.07482 0.36952 0.2129 0.0
C247 C 0.05365 0.35036 0.23895 0.0
C248 C 0.09926 0.39245 0.22859 0.0
C249 C 0.0586 0.3529 0.28087 0.0
C250 C 0.08286 0.37562 0.2967 0.0
C251 C 0.12488 0.42125 0.28657 0.0
C252 C 0.14378 0.44265 0.26057 0.0
C253 C 0.10268 0.39617 0.27087 0.0
C254 C 0.14151 0.43758 0.21865 0.0
C255 C 0.11938 0.41276 0.20279 0.0
H256 H 0.15225 0.08187 0.69908 0.0
H257 H 0.12844 0.00842 0.79262 0.0
H258 H 0.08878 0.04912 0.8236 0.0
H259 H 0.05855 0.10425 0.82237 0.0
H260 H 0.08045 0.1775 0.72809 0.0
H261 H 0.12341 0.13848 0.69951 0.0
C262 C 0.13854 0.07491 0.72638 0.0
C263 C 0.14321 0.04209 0.74339 0.0
C264 C 0.11543 0.09842 0.74396 0.0
C265 C 0.12526 0.03344 0.7788 0.0
C266 C 0.10256 0.05672 0.79659 0.0
C267 C 0.07301 0.11189 0.79585 0.0
C268 C 0.06629 0.14373 0.77738 0.0
C269 C 0.09714 0.0891 0.7792 0.0
C270 C 0.08514 0.15313 0.7429 0.0
C271 C 0.10962 0.13077 0.72645 0.0
H272 H 0.56606 0.89516 0.83377 0.0
H273 H 0.57606 0.83346 0.72621 0.0
H274 H 0.61893 0.87331 0.69953 0.0
H275 H 0.64939 0.92864 0.70404 0.0
H276 H 0.63907 0.99017 0.81174 0.0
H277 H 0.60076 0.94736 0.84115 0.0
C278 C 0.57799 0.89017 0.80475 0.0
C279 C 0.56768 0.8616 0.78185 0.0
C280 C 0.60238 0.91333 0.78945 0.0
C281 C 0.58351 0.85533 0.74441 0.0
C282 C 0.60791 0.8782 0.72904 0.0
C283 C 0.63909 0.93243 0.73414 0.0
C284 C 0.64677 0.96269 0.75549 0.0
C285 C 0.6169 0.90775 0.75085 0.0
C286 C 0.63344 0.96717 0.79458 0.0
C287 C 0.61144 0.94273 0.81142 0.0
H288 H 0.52038 0.61275 0.27352 0.0
H289 H 0.59445 0.67426 0.20934 0.0
H290 H 0.64038 0.63451 0.22918 0.0
H291 H 0.65853 0.57995 0.26151 0.0
H292 H 0.58377 0.52063 0.3279 0.0
H293 H 0.53919 0.56195 0.3108 0.0
C294 C 0.54663 0.61756 0.26411 0.0
C295 C 0.55405 0.64607 0.23969 0.0
C296 C 0.57277 0.59494 0.276 0.0
C297 C 0.58819 0.65237 0.22815 0.0
C298 C 0.61439 0.62961 0.23937 0.0
C299 C 0.63256 0.57635 0.27255 0.0
C300 C 0.62445 0.5471 0.29565 0.0
C301 C 0.60688 0.60047 0.26281 0.0
C302 C 0.59074 0.54287 0.31002 0.0
C303 C 0.56513 0.56643 0.30015 0.0
H304 H 0.92851 0.62265 0.8134 0.0
H305 H 0.95452 0.65073 0.6911 0.0
H306 H 0.91164 0.61061 0.66531 0.0
H307 H 0.86988 0.56448 0.6774 0.0
H308 H 0.84322 0.53678 0.79958 0.0
H309 H 0.88314 0.57991 0.82556 0.0
C310 C 0.92448 0.62028 0.78112 0.0
C311 C 0.94482 0.63943 0.75419 0.0
C312 C 0.89989 0.59704 0.76649 0.0
C313 C 0.93921 0.63625 0.71246 0.0
C314 C 0.9148 0.6132 0.69767 0.0
C315 C 0.87265 0.56807 0.70971 0.0
C316 C 0.85394 0.54728 0.73655 0.0
C317 C 0.89552 0.59296 0.72439 0.0
C318 C 0.85745 0.55243 0.77832 0.0
C319 C 0.88031 0.57703 0.79318 0.0
H320 H 0.84898 0.94214 0.22185 0.0
H321 H 0.86801 0.91396 0.34581 0.0
H322 H 0.90573 0.86739 0.32368 0.0
H323 H 0.93826 0.83893 0.26931 0.0
H324 H 0.92115 0.86937 0.14569 0.0
H325 H 0.87746 0.91038 0.16739 0.0
C326 C 0.86095 0.92547 0.244 0.0
C327 C 0.85596 0.93168 0.28539 0.0
C328 C 0.88315 0.89923 0.2311 0.0
C329 C 0.8716 0.90983 0.31374 0.0
C330 C 0.89325 0.88324 0.30112 0.0
C331 C 0.92445 0.85406 0.24711 0.0
C332 C 0.93306 0.8513 0.206 0.0
C333 C 0.89995 0.87829 0.2599 0.0
C334 C 0.91511 0.87118 0.17755 0.0
C335 C 0.89019 0.89472 0.18993 0.0
H336 H 0.55331 0.30084 0.20775 0.0
H337 H 0.59453 0.23888 0.30431 0.0
H338 H 0.6246 0.28889 0.33144 0.0
H339 H 0.64236 0.34925 0.32492 0.0
H340 H 0.60259 0.41048 0.22686 0.0
H341 H 0.56867 0.36178 0.20324 0.0
C342 C 0.56855 0.29838 0.23501 0.0
C343 C 0.57181 0.26623 0.25392 0.0
C344 C 0.58622 0.32705 0.25 0.0
C345 C 0.59169 0.26339 0.28915 0.0
C346 C 0.60896 0.29193 0.30462 0.0
C347 C 0.62602 0.35199 0.29861 0.0
C348 C 0.62513 0.38332 0.27753 0.0
C349 C 0.60692 0.32374 0.28487 0.0
C350 C 0.60385 0.38655 0.24349 0.0
C351 C 0.58445 0.35872 0.22995 0.0
H352 H 0.19025 0.5401 0.71394 0.0
H353 H 0.25435 0.59318 0.79976 0.0
H354 H 0.204 0.62229 0.82765 0.0
H355 H 0.14299 0.63802 0.82179 0.0
H356 H 0.07991 0.58781 0.73256 0.0
H357 H 0.12843 0.55206 0.7121 0.0
C358 C 0.19308 0.55745 0.73934 0.0
C359 C 0.22595 0.56461 0.75466 0.0
C360 C 0.1642 0.57496 0.75427 0.0
C361 C 0.22929 0.58734 0.78738 0.0
C362 C 0.20053 0.60412 0.80321 0.0
C363 C 0.13975 0.61881 0.79839 0.0
C364 C 0.10802 0.61573 0.7785 0.0
C365 C 0.16803 0.59898 0.78601 0.0
C366 C 0.10417 0.59083 0.74813 0.0
C367 C 0.13192 0.5704 0.73637 0.0
H368 H 0.83427 0.14452 0.31614 0.0
H369 H 0.92175 0.07881 0.29535 0.0
H370 H 0.95543 0.12832 0.27274 0.0
H371 H 0.95842 0.18963 0.25387 0.0
H372 H 0.86932 0.254 0.27085 0.0
H373 H 0.83794 0.20578 0.3001 0.0
C374 C 0.86087 0.14109 0.30723 0.0
C375 C 0.87551 0.10808 0.30742 0.0
C376 C 0.8797 0.16944 0.29326 0.0
C377 C 0.9099 0.104 0.29544 0.0
C378 C 0.92912 0.13227 0.28241 0.0
C379 C 0.93229 0.19313 0.26447 0.0
C380 C 0.91618 0.22528 0.26015 0.0
C381 C 0.91407 0.16502 0.28043 0.0
C382 C 0.88223 0.22945 0.2737 0.0
C383 C 0.86426 0.20189 0.29042 0.0
H384 H 0.32702 0.9436 0.68721 0.0
H385 H 0.28045 0.95276 0.80492 0.0
H386 H 0.32991 0.92394 0.83544 0.0
H387 H 0.38328 0.89023 0.82733 0.0
H388 H 0.42822 0.87991 0.70877 0.0
H389 H 0.38264 0.91513 0.68004 0.0
C390 C 0.32795 0.93987 0.71965 0.0
C391 C 0.3 0.95002 0.74371 0.0
C392 C 0.35602 0.92263 0.73679 0.0
C393 C 0.30165 0.94512 0.78571 0.0
C394 C 0.32982 0.92844 0.80315 0.0
C395 C 0.3833 0.89611 0.79532 0.0
C396 C 0.40887 0.88213 0.77016 0.0
C397 C 0.35667 0.91612 0.7788 0.0
C398 C 0.40868 0.89008 0.72876 0.0
C399 C 0.3826 0.91023 0.71226 0.0
H400 H 0.60235 0.25247 0.73705 0.0
H401 H 0.51417 0.1947 0.77711 0.0
H402 H 0.54038 0.14163 0.752 0.0
H403 H 0.5911 0.11111 0.7252 0.0
H404 H 0.67994 0.16936 0.68805 0.0
H405 H 0.65062 0.2228 0.70523 0.0
C406 C 0.5886 0.22835 0.73976 0.0
C407 C 0.55649 0.22746 0.7592 0.0
C408 C 0.60411 0.19797 0.72608 0.0
C409 C 0.53896 0.19604 0.76233 0.0
C410 C 0.55401 0.16567 0.74816 0.0
C411 C 0.6038 0.13554 0.7203 0.0
C412 C 0.63774 0.13627 0.70569 0.0
C413 C 0.58699 0.16622 0.73097 0.0
C414 C 0.6539 0.16809 0.69949 0.0
C415 C 0.63718 0.19867 0.70937 0.0
H416 H 0.39213 0.6082 0.19594 0.0
H417 H 0.36443 0.69888 0.26366 0.0
H418 H 0.31301 0.67046 0.28854 0.0
H419 H 0.27633 0.62007 0.29225 0.0
H420 H 0.30278 0.52844 0.22593 0.0
H421 H 0.35431 0.55691 0.19946 0.0
C422 C 0.37468 0.62171 0.21594 0.0
C423 C 0.38211 0.65561 0.2279 0.0
C424 C 0.34508 0.60502 0.23059 0.0
C425 C 0.35938 0.67278 0.25401 0.0
C426 C 0.32995 0.65655 0.26833 0.0
C427 C 0.29334 0.60623 0.27202 0.0
C428 C 0.2858 0.57218 0.26114 0.0
C429 C 0.32267 0.62268 0.25704 0.0
C430 C 0.3081 0.55467 0.23485 0.0
C431 C 0.33751 0.57096 0.21967 0.0
H432 H 0.9 0.39748 0.70979 0.0
H433 H 0.80289 0.34448 0.71805 0.0
H434 H 0.8321 0.29239 0.73997 0.0
H435 H 0.8845 0.26275 0.76042 0.0
H436 H 0.9822 0.3143 0.75188 0.0
H437 H 0.95357 0.36603 0.72616 0.0
C438 C 0.88533 0.37442 0.71605 0.0
C439 C 0.8493 0.37495 0.71254 0.0
C440 C 0.90235 0.34437 0.72875 0.0
C441 C 0.83063 0.34483 0.72058 0.0
C442 C 0.84729 0.31501 0.73322 0.0
C443 C 0.89959 0.28524 0.75274 0.0
C444 C 0.93534 0.28487 0.75836 0.0
C445 C 0.88302 0.31465 0.738 0.0
C446 C 0.9546 0.31403 0.74785 0.0
C447 C 0.93823 0.34361 0.73327 0.0
H448 H 0.12942 0.8658 0.15773 0.0
H449 H 0.06589 0.89472 0.25886 0.0
H450 H 0.11206 0.93076 0.2854 0.0
H451 H 0.17237 0.94963 0.28316 0.0
H452 H 0.23733 0.91622 0.18524 0.0
H453 H 0.18883 0.88669 0.15391 0.0
C454 C 0.12554 0.88046 0.1852 0.0
C455 C 0.09439 0.87766 0.20634 0.0
C456 C 0.1526 0.90015 0.20099 0.0
C457 C 0.08976 0.89643 0.24216 0.0
C458 C 0.11615 0.91698 0.25737 0.0
C459 C 0.17567 0.93638 0.25461 0.0
C460 C 0.20826 0.93507 0.23647 0.0
C461 C 0.14795 0.91841 0.23754 0.0
C462 C 0.21242 0.91746 0.19977 0.0
C463 C 0.18474 0.90053 0.1819 0.0
H464 H 0.41079 0.5985 0.7396 0.0
H465 H 0.35187 0.65323 0.64993 0.0
H466 H 0.38177 0.7064 0.66679 0.0
H467 H 0.42034 0.73838 0.71166 0.0
H468 H 0.4802 0.68392 0.80056 0.0
H469 H 0.45457 0.62951 0.77908 0.0
C470 C 0.40489 0.62198 0.72337 0.0
C471 C 0.3789 0.62205 0.69392 0.0
C472 C 0.42217 0.65252 0.73326 0.0
C473 C 0.37171 0.65254 0.67283 0.0
C474 C 0.38868 0.683 0.68257 0.0
C475 C 0.4281 0.71451 0.72593 0.0
C476 C 0.45177 0.71511 0.75792 0.0
C477 C 0.41329 0.68345 0.71344 0.0
C478 C 0.46196 0.68405 0.77588 0.0
C479 C 0.44719 0.65299 0.76375 0.0
H480 H 0.85795 0.3684 0.16812 0.0
H481 H 0.92073 0.40579 0.26598 0.0
H482 H 0.87414 0.44315 0.28835 0.0
H483 H 0.81339 0.45972 0.2852 0.0
H484 H 0.74974 0.42065 0.18911 0.0
H485 H 0.79888 0.39005 0.16059 0.0
C486 C 0.86161 0.38518 0.1939 0.0
C487 C 0.8926 0.38401 0.21562 0.0
C488 C 0.83444 0.40621 0.20708 0.0
C489 C 0.89701 0.40597 0.24891 0.0
C490 C 0.87035 0.42733 0.26179 0.0
C491 C 0.81046 0.44514 0.25751 0.0
C492 C 0.77792 0.44221 0.23952 0.0
C493 C 0.83862 0.42688 0.24186 0.0
C494 C 0.77451 0.42319 0.20366 0.0
C495 C 0.80256 0.40551 0.18744 0.0
H496 H 0.12808 0.75741 0.74802 0.0
H497 H 0.02828 0.79899 0.71964 0.0
H498 H 0.05499 0.85234 0.6961 0.0
H499 H 0.10671 0.88862 0.68829 0.0
H500 H 0.20601 0.84632 0.71824 0.0
H501 H 0.17948 0.79181 0.73629 0.0
C502 C 0.11215 0.778 0.73632 0.0
C503 C 0.07627 0.77436 0.73581 0.0
C504 C 0.12761 0.80858 0.72334 0.0
C505 C 0.056 0.80121 0.72039 0.0
C506 C 0.07125 0.83175 0.70707 0.0
C507 C 0.12251 0.86733 0.69836 0.0
C508 C 0.15824 0.87161 0.70217 0.0
C509 C 0.10702 0.83597 0.7091 0.0
C510 C 0.17843 0.84379 0.71521 0.0
C511 C 0.16329 0.81257 0.7256 0.0
H512 H 0.65019 0.13218 0.18175 0.0
H513 H 0.57937 0.0716 0.25214 0.0
H514 H 0.62685 0.03617 0.27687 0.0
H515 H 0.68925 0.02667 0.28408 0.0
H516 H 0.75956 0.08813 0.2138 0.0
H517 H 0.71154 0.1186 0.1831 0.0
C518 C 0.64509 0.11091 0.20206 0.0
C519 C 0.61144 0.10475 0.21548 0.0
C520 C 0.67248 0.09092 0.21638 0.0
C521 C 0.60512 0.07691 0.24146 0.0
C522 C 0.63228 0.05674 0.25575 0.0
C523 C 0.69399 0.04631 0.26152 0.0
C524 C 0.72792 0.05539 0.2516 0.0
C525 C 0.66618 0.06411 0.24426 0.0
C526 C 0.73369 0.08081 0.22222 0.0
C527 C 0.70624 0.09835 0.2047 0.0
H528 H 0.44987 0.82806 0.19382 0.0
H529 H 0.44926 0.77917 0.31068 0.0
H530 H 0.41542 0.82668 0.33834 0.0
H531 H 0.37965 0.87829 0.3267 0.0
H532 H 0.37982 0.92573 0.20886 0.0
H533 H 0.42017 0.88274 0.18433 0.0
C534 C 0.44295 0.82814 0.22556 0.0
C535 C 0.45172 0.80002 0.25005 0.0
C536 C 0.42291 0.85506 0.24095 0.0
C537 C 0.44279 0.80056 0.29118 0.0
C538 C 0.42318 0.82758 0.30692 0.0
C539 C 0.38893 0.87944 0.29585 0.0
C540 C 0.37634 0.90484 0.2695 0.0
C541 C 0.41205 0.85436 0.28171 0.0
C542 C 0.3888 0.90623 0.22968 0.0
C543 C 0.41191 0.88164 0.21557 0.0
H544 H 0.72114 0.42912 0.8032 0.0
H545 H 0.6705 0.47382 0.69989 0.0
H546 H 0.61573 0.45007 0.72225 0.0
H547 H 0.58395 0.41051 0.7661 0.0
H548 H 0.63451 0.36464 0.86868 0.0
H549 H 0.68744 0.39532 0.852 0.0
C550 C 0.69798 0.43423 0.78603 0.0
C551 C 0.69995 0.45283 0.74967 0.0
C552 C 0.66662 0.42 0.79872 0.0
C553 C 0.66972 0.45941 0.72785 0.0
C554 C 0.63839 0.4457 0.74052 0.0
C555 C 0.60638 0.40769 0.78521 0.0
C556 C 0.60549 0.385 0.81823 0.0
C557 C 0.6368 0.425 0.77512 0.0
C558 C 0.63462 0.38185 0.84296 0.0
C559 C 0.66494 0.39925 0.83333 0.0
H560 H 0.15696 0.62108 0.22244 0.0
H561 H 0.0905 0.60105 0.32389 0.0
H562 H 0.05561 0.6515 0.30643 0.0
H563 H 0.04499 0.70229 0.26244 0.0
H564 H 0.11464 0.72232 0.16368 0.0
H565 H 0.14726 0.67101 0.18007 0.0
C566 C 0.13468 0.62755 0.24062 0.0
C567 C 0.12615 0.60728 0.2742 0.0
C568 C 0.11542 0.65678 0.23099 0.0
C569 C 0.0975 0.61627 0.29777 0.0
C570 C 0.07761 0.64512 0.28783 0.0
C571 C 0.0673 0.6953 0.24461 0.0
C572 C 0.07737 0.71613 0.21194 0.0
C573 C 0.08647 0.66574 0.25457 0.0
C574 C 0.1064 0.70689 0.18913 0.0
C575 C 0.12508 0.67746 0.19836 0.0
H576 H 0.87521 0.13215 0.83362 0.0
H577 H 0.92502 0.12308 0.71764 0.0
H578 H 0.87598 0.09121 0.69141 0.0
H579 H 0.8172 0.07012 0.69962 0.0
H580 H 0.76624 0.08041 0.81469 0.0
H581 H 0.81759 0.10723 0.84321 0.0
C582 C 0.87548 0.1228 0.80277 0.0
C583 C 0.90359 0.13017 0.77754 0.0
C584 C 0.84693 0.10486 0.78766 0.0
C585 C 0.90362 0.11789 0.73764 0.0
C586 C 0.87556 0.09971 0.72257 0.0
C587 C 0.81746 0.07785 0.73109 0.0
C588 C 0.78791 0.07352 0.75494 0.0
C589 C 0.8468 0.09369 0.74704 0.0
C590 C 0.78865 0.08358 0.79567 0.0
C591 C 0.81796 0.09901 0.81195 0.0
H592 H 0.48612 0.23684 0.07924 0.0
H593 H 0.57756 0.17663 0.05855 0.0
H594 H 0.58173 0.19924 0.98996 0.0
H595 H 0.56078 0.23787 0.93677 0.0
H596 H 0.46883 0.2974 0.95676 0.0
H597 H 0.46346 0.2733 0.02466 0.0
C598 C 0.50678 0.22847 0.05958 0.0
C599 C 0.53155 0.20518 0.074 0.0
C600 C 0.50906 0.24161 0.02015 0.0
C601 C 0.55813 0.19449 0.04817 0.0
C602 C 0.56062 0.20751 0.00898 0.0
C603 C 0.53954 0.24552 0.95598 0.0
C604 C 0.5154 0.26957 0.94192 0.0
C605 C 0.53648 0.23139 0.99483 0.0
C606 C 0.48782 0.279 0.96697 0.0
C607 C 0.48473 0.26524 0.00579 0.0
H608 H 0.20304 0.56158 0.44501 0.0
H609 H 0.25948 0.47044 0.41185 0.0
H610 H 0.28432 0.46756 0.47964 0.0
H611 H 0.29136 0.49222 0.54783 0.0
H612 H 0.23585 0.58442 0.57945 0.0
H613 H 0.20935 0.5856 0.51282 0.0
C614 C 0.22058 0.54093 0.45268 0.0
C615 C 0.22938 0.51625 0.4235 0.0
C616 C 0.23509 0.53974 0.49141 0.0
C617 C 0.25229 0.48976 0.43383 0.0
C618 C 0.26655 0.48814 0.47255 0.0
C619 C 0.27338 0.51248 0.54011 0.0
C620 C 0.26566 0.53823 0.5685 0.0
C621 C 0.25837 0.51319 0.50149 0.0
C622 C 0.24235 0.56436 0.5581 0.0
C623 C 0.22712 0.56505 0.52001 0.0
H624 H 0.98766 0.31013 0.05097 0.0
H625 H 0.96513 0.2106 0.10175 0.0
H626 H 0.96858 0.18456 0.03479 0.0
H627 H 0.97625 0.19029 0.96137 0.0
H628 H 0.00131 0.28929 0.9108 0.0
H629 H 0.99891 0.3152 0.97794 0.0
C630 C 0.98358 0.28274 0.04731 0.0
C631 C 0.9759 0.26237 0.08118 0.0
C632 C 0.98611 0.26781 0.00874 0.0
C633 C 0.97106 0.22685 0.07612 0.0
C634 C 0.97298 0.21193 0.03783 0.0
C635 C 0.98139 0.21749 0.96513 0.0
C636 C 0.98878 0.23786 0.93117 0.0
C637 C 0.98026 0.23218 0.00388 0.0
C638 C 0.99563 0.27302 0.93649 0.0
C639 C 0.99413 0.2879 0.97486 0.0
H640 H 0.26452 0.01622 0.43239 0.0
H641 H 0.25235 0.90679 0.41723 0.0
H642 H 0.23099 0.90183 0.48631 0.0
H643 H 0.21713 0.92823 0.55159 0.0
H644 H 0.23194 0.03709 0.5683 0.0
H645 H 0.25056 0.04272 0.49799 0.0
C646 C 0.25713 0.99131 0.44422 0.0
C647 C 0.26005 0.96192 0.41972 0.0
C648 C 0.24521 0.98858 0.48419 0.0
C649 C 0.25047 0.9298 0.43549 0.0
C650 C 0.23817 0.92694 0.47498 0.0
C651 C 0.22409 0.95325 0.53971 0.0
C652 C 0.22299 0.98224 0.565 0.0
C653 C 0.23555 0.95612 0.49963 0.0
C654 C 0.23253 0.01441 0.54937 0.0
C655 C 0.24325 0.01761 0.50922 0.0
H656 H 0.52137 0.76557 0.9404 0.0
H657 H 0.41214 0.7833 0.93335 0.0
H658 H 0.40487 0.76068 0.00163 0.0
H659 H 0.42961 0.73662 0.06379 0.0
H660 H 0.53894 0.71988 0.07137 0.0
H661 H 0.54605 0.74097 0.00234 0.0
C662 C 0.49599 0.76455 0.95386 0.0
C663 C 0.46736 0.77622 0.93188 0.0
C664 C 0.49198 0.75147 0.99314 0.0
C665 C 0.43463 0.7746 0.94966 0.0
C666 C 0.43042 0.76158 0.98868 0.0
C667 C 0.45494 0.73729 0.05018 0.0
C668 C 0.48369 0.72659 0.07261 0.0
C669 C 0.4589 0.74995 0.01071 0.0
C670 C 0.51639 0.7279 0.0547 0.0
C671 C 0.52049 0.74007 0.01528 0.0
H672 H 0.76887 0.4216 0.55932 0.0
H673 H 0.76394 0.53176 0.57252 0.0
H674 H 0.74372 0.53732 0.50297 0.0
H675 H 0.72633 0.51074 0.43875 0.0
H676 H 0.72974 0.40042 0.42644 0.0
H677 H 0.75154 0.39507 0.49525 0.0
C678 C 0.76357 0.44683 0.54687 0.0
C679 C 0.76797 0.47622 0.57097 0.0
C680 C 0.75149 0.4498 0.50708 0.0
C681 C 0.76075 0.50873 0.55456 0.0
C682 C 0.74915 0.51193 0.51481 0.0
C683 C 0.73188 0.48555 0.45115 0.0
C684 C 0.7264 0.45604 0.42754 0.0
C685 C 0.74422 0.48263 0.49087 0.0
C686 C 0.73366 0.42355 0.44402 0.0
C687 C 0.74618 0.42046 0.48335 0.0
H688 H 0.01431 0.80957 0.02525 0.0
H689 H 0.00039 0.71017 0.08048 0.0
H690 H 0.00092 0.68287 0.01408 0.0
H691 H 0.00863 0.68694 0.94041 0.0
H692 H 0.01991 0.78662 0.88506 0.0
H693 H 0.01697 0.81411 0.95125 0.0
C694 C 0.01108 0.78197 0.02265 0.0
C695 C 0.00756 0.76189 0.05764 0.0
C696 C 0.01112 0.76648 0.98437 0.0
C697 C 0.0031 0.7262 0.05393 0.0
C698 C 0.00355 0.71054 0.01599 0.0
C699 C 0.01022 0.71468 0.94291 0.0
C700 C 0.01478 0.73471 0.90804 0.0
C701 C 0.00807 0.73036 0.98104 0.0
C702 C 0.01642 0.77065 0.91154 0.0
C703 C 0.01483 0.78639 0.94937 0.0
H704 H 0.7698 0.01632 0.58984 0.0
H705 H 0.66519 0.03779 0.55531 0.0
H706 H 0.68133 0.03474 0.48391 0.0
H707 H 0.72586 0.02848 0.43142 0.0
H708 H 0.83102 0.01074 0.46674 0.0
H709 H 0.81402 0.00984 0.53773 0.0
C710 C 0.75045 0.01995 0.56668 0.0
C711 C 0.71633 0.02709 0.57776 0.0
C712 C 0.7601 0.01909 0.52586 0.0
C713 C 0.69163 0.03221 0.54747 0.0
C714 C 0.70086 0.03054 0.50669 0.0
C715 C 0.74498 0.02424 0.45469 0.0
C716 C 0.77964 0.01969 0.4439 0.0
C717 C 0.73511 0.02441 0.49553 0.0
C718 C 0.8042 0.01445 0.47432 0.0
C719 C 0.7945 0.01387 0.5149 0.0
loop_
_geom_bond_atom_site_label_1
_geom_bond_atom_site_label_2
_geom_bond_distance
_geom_bond_site_symmetry_2
_ccdc_geom_bond_type
In0 O1 2.294 . S
In0 O2 2.326 . S
In0 O6 2.266 . S
In0 O7 2.326 . S
In0 O8 2.266 . S
In0 O9 2.326 . S
In0 O11 2.294 . S
In0 O12 2.326 . S
O1 In0 2.294 . S
O1 C10 1.240 . S
O2 In0 2.326 . S
O2 C10 1.252 . S
C3 O6 1.252 . S
C3 O7 1.260 . S
C4 O11 1.240 . S
C4 O12 1.252 . S
C5 O8 1.252 . S
C5 O9 1.260 . S
O6 In0 2.266 . S
O6 C3 1.252 . S
O7 In0 2.326 . S
O7 C3 1.260 . S
O8 In0 2.266 . S
O8 C5 1.252 . S
O9 In0 2.326 . S
O9 C5 1.260 . S
C10 O1 1.240 . S
C10 O2 1.252 . S
O11 In0 2.294 . S
O11 C4 1.240 . S
O12 In0 2.326 . S
O12 C4 1.252 . S
In13 O14 2.294 . S
In13 O15 2.326 . S
In13 O19 2.266 . S
In13 O20 2.326 . S
In13 O21 2.266 . S
In13 O22 2.326 . S
In13 O24 2.294 . S
In13 O25 2.326 . S
O14 In13 2.294 . S
O14 C23 1.240 . S
O15 In13 2.326 . S
O15 C23 1.252 . S
C16 O19 1.252 . S
C16 O20 1.260 . S
C17 O24 1.240 . S
C17 O25 1.252 . S
C18 O21 1.252 . S
C18 O22 1.260 . S
O19 In13 2.266 . S
O19 C16 1.252 . S
O20 In13 2.326 . S
O20 C16 1.260 . S
O21 In13 2.266 . S
O21 C18 1.252 . S
O22 In13 2.326 . S
O22 C18 1.260 . S
C23 O14 1.240 . S
C23 O15 1.252 . S
O24 In13 2.294 . S
O24 C17 1.240 . S
O25 In13 2.326 . S
O25 C17 1.252 . S
In26 O27 2.294 1_655 S
In26 O28 2.326 1_655 S
In26 O32 2.266 . S
In26 O33 2.326 . S
In26 O34 2.266 . S
In26 O35 2.326 1_655 S
In26 O37 2.294 . S
In26 O38 2.326 . S
O27 In26 2.294 1_455 S
O27 C36 1.240 . S
O28 In26 2.326 1_455 S
O28 C36 1.252 . S
C29 O32 1.252 . S
C29 O33 1.260 . S
C30 O37 1.240 . S
C30 O38 1.252 . S
C31 O34 1.252 . S
C31 O35 1.260 1_655 S
O32 In26 2.266 . S
O32 C29 1.252 . S
O33 In26 2.326 . S
O33 C29 1.260 . S
O34 In26 2.266 . S
O34 C31 1.252 . S
O35 In26 2.326 1_455 S
O35 C31 1.260 1_455 S
C36 O27 1.240 . S
C36 O28 1.252 . S
O37 In26 2.294 . S
O37 C30 1.240 . S
O38 In26 2.326 . S
O38 C30 1.252 . S
In39 O40 2.294 1_565 S
In39 O41 2.326 1_565 S
In39 O45 2.266 . S
In39 O46 2.326 . S
In39 O47 2.266 . S
In39 O48 2.326 1_565 S
In39 O50 2.294 . S
In39 O51 2.326 . S
O40 In39 2.294 1_545 S
O40 C49 1.240 . S
O41 In39 2.326 1_545 S
O41 C49 1.252 . S
C42 O45 1.252 . S
C42 O46 1.260 . S
C43 O50 1.240 . S
C43 O51 1.252 . S
C44 O47 1.252 . S
C44 O48 1.260 1_565 S
O45 In39 2.266 . S
O45 C42 1.252 . S
O46 In39 2.326 . S
O46 C42 1.260 . S
O47 In39 2.266 . S
O47 C44 1.252 . S
O48 In39 2.326 1_545 S
O48 C44 1.260 1_545 S
C49 O40 1.240 . S
C49 O41 1.252 . S
O50 In39 2.294 . S
O50 C43 1.240 . S
O51 In39 2.326 . S
O51 C43 1.252 . S
In52 O53 2.294 . S
In52 O54 2.326 . S
In52 O58 2.266 . S
In52 O59 2.326 . S
In52 O60 2.266 . S
In52 O61 2.326 . S
In52 O63 2.294 . S
In52 O64 2.326 . S
O53 In52 2.294 . S
O53 C62 1.240 . S
O54 In52 2.326 . S
O54 C62 1.252 . S
C55 O58 1.252 . S
C55 O59 1.260 . S
C56 O63 1.240 . S
C56 O64 1.252 . S
C57 O60 1.252 . S
C57 O61 1.260 . S
O58 In52 2.266 . S
O58 C55 1.252 . S
O59 In52 2.326 . S
O59 C55 1.260 . S
O60 In52 2.266 . S
O60 C57 1.252 . S
O61 In52 2.326 . S
O61 C57 1.260 . S
C62 O53 1.240 . S
C62 O54 1.252 . S
O63 In52 2.294 . S
O63 C56 1.240 . S
O64 In52 2.326 . S
O64 C56 1.252 . S
In65 O66 2.294 . S
In65 O67 2.326 . S
In65 O71 2.266 . S
In65 O72 2.326 . S
In65 O73 2.266 . S
In65 O74 2.326 . S
In65 O76 2.294 . S
In65 O77 2.326 . S
O66 In65 2.294 . S
O66 C75 1.240 . S
O67 In65 2.326 . S
O67 C75 1.252 . S
C68 O71 1.252 . S
C68 O72 1.260 . S
C69 O76 1.240 . S
C69 O77 1.252 . S
C70 O73 1.252 . S
C70 O74 1.260 . S
O71 In65 2.266 . S
O71 C68 1.252 . S
O72 In65 2.326 . S
O72 C68 1.260 . S
O73 In65 2.266 . S
O73 C70 1.252 . S
O74 In65 2.326 . S
O74 C70 1.260 . S
C75 O66 1.240 . S
C75 O67 1.252 . S
O76 In65 2.294 . S
O76 C69 1.240 . S
O77 In65 2.326 . S
O77 C69 1.252 . S
In78 O79 2.294 . S
In78 O80 2.326 . S
In78 O84 2.266 . S
In78 O85 2.326 1_655 S
In78 O86 2.266 . S
In78 O87 2.326 . S
In78 O89 2.294 1_655 S
In78 O90 2.326 1_655 S
O79 In78 2.294 . S
O79 C88 1.240 . S
O80 In78 2.326 . S
O80 C88 1.252 . S
C81 O84 1.252 . S
C81 O85 1.260 1_655 S
C82 O89 1.240 . S
C82 O90 1.252 . S
C83 O86 1.252 . S
C83 O87 1.260 . S
O84 In78 2.266 . S
O84 C81 1.252 . S
O85 In78 2.326 1_455 S
O85 C81 1.260 1_455 S
O86 In78 2.266 . S
O86 C83 1.252 . S
O87 In78 2.326 . S
O87 C83 1.260 . S
C88 O79 1.240 . S
C88 O80 1.252 . S
O89 In78 2.294 1_455 S
O89 C82 1.240 . S
O90 In78 2.326 1_455 S
O90 C82 1.252 . S
In91 O92 2.294 . S
In91 O93 2.326 . S
In91 O97 2.266 . S
In91 O98 2.326 1_565 S
In91 O99 2.266 . S
In91 O100 2.326 . S
In91 O102 2.294 1_565 S
In91 O103 2.326 1_565 S
O92 In91 2.294 . S
O92 C101 1.240 . S
O93 In91 2.326 . S
O93 C101 1.252 . S
C94 O97 1.252 . S
C94 O98 1.260 1_565 S
C95 O102 1.240 . S
C95 O103 1.252 . S
C96 O99 1.252 . S
C96 O100 1.260 . S
O97 In91 2.266 . S
O97 C94 1.252 . S
O98 In91 2.326 1_545 S
O98 C94 1.260 1_545 S
O99 In91 2.266 . S
O99 C96 1.252 . S
O100 In91 2.326 . S
O100 C96 1.260 . S
C101 O92 1.240 . S
C101 O93 1.252 . S
O102 In91 2.294 1_545 S
O102 C95 1.240 . S
O103 In91 2.326 1_545 S
O103 C95 1.252 . S
In104 O105 2.294 . S
In104 O106 2.326 . S
In104 O110 2.266 . S
In104 O111 2.326 . S
In104 O112 2.266 . S
In104 O113 2.326 . S
In104 O115 2.294 . S
In104 O116 2.326 . S
O105 In104 2.294 . S
O105 C114 1.240 . S
O106 In104 2.326 . S
O106 C114 1.252 . S
C107 O110 1.252 . S
C107 O111 1.260 . S
C108 O115 1.240 . S
C108 O116 1.252 . S
C109 O112 1.252 . S
C109 O113 1.260 . S
O110 In104 2.266 . S
O110 C107 1.252 . S
O111 In104 2.326 . S
O111 C107 1.260 . S
O112 In104 2.266 . S
O112 C109 1.252 . S
O113 In104 2.326 . S
O113 C109 1.260 . S
C114 O105 1.240 . S
C114 O106 1.252 . S
O115 In104 2.294 . S
O115 C108 1.240 . S
O116 In104 2.326 . S
O116 C108 1.252 . S
In117 O118 2.294 . S
In117 O119 2.326 . S
In117 O123 2.266 . S
In117 O124 2.326 . S
In117 O125 2.266 . S
In117 O126 2.326 . S
In117 O128 2.294 . S
In117 O129 2.326 . S
O118 In117 2.294 . S
O118 C127 1.240 . S
O119 In117 2.326 . S
O119 C127 1.252 . S
C120 O123 1.252 . S
C120 O124 1.260 . S
C121 O128 1.240 . S
C121 O129 1.252 . S
C122 O125 1.252 . S
C122 O126 1.260 . S
O123 In117 2.266 . S
O123 C120 1.252 . S
O124 In117 2.326 . S
O124 C120 1.260 . S
O125 In117 2.266 . S
O125 C122 1.252 . S
O126 In117 2.326 . S
O126 C122 1.260 . S
C127 O118 1.240 . S
C127 O119 1.252 . S
O128 In117 2.294 . S
O128 C121 1.240 . S
O129 In117 2.326 . S
O129 C121 1.252 . S
In130 O131 2.294 . S
In130 O132 2.326 . S
In130 O136 2.266 . S
In130 O137 2.326 1_455 S
In130 O138 2.266 . S
In130 O139 2.326 . S
In130 O141 2.294 1_455 S
In130 O142 2.326 1_455 S
O131 In130 2.294 . S
O131 C140 1.240 . S
O132 In130 2.326 . S
O132 C140 1.252 . S
C133 O136 1.252 . S
C133 O137 1.260 1_455 S
C134 O141 1.240 . S
C134 O142 1.252 . S
C135 O138 1.252 . S
C135 O139 1.260 . S
O136 In130 2.266 . S
O136 C133 1.252 . S
O137 In130 2.326 1_655 S
O137 C133 1.260 1_655 S
O138 In130 2.266 . S
O138 C135 1.252 . S
O139 In130 2.326 . S
O139 C135 1.260 . S
C140 O131 1.240 . S
C140 O132 1.252 . S
O141 In130 2.294 1_655 S
O141 C134 1.240 . S
O142 In130 2.326 1_655 S
O142 C134 1.252 . S
In143 O144 2.294 1_545 S
In143 O145 2.326 1_545 S
In143 O149 2.266 . S
In143 O150 2.326 . S
In143 O151 2.266 . S
In143 O152 2.326 1_545 S
In143 O154 2.294 . S
In143 O155 2.326 . S
O144 In143 2.294 1_565 S
O144 C153 1.240 . S
O145 In143 2.326 1_565 S
O145 C153 1.252 . S
C146 O149 1.252 . S
C146 O150 1.260 . S
C147 O154 1.240 . S
C147 O155 1.252 . S
C148 O151 1.252 . S
C148 O152 1.260 1_545 S
O149 In143 2.266 . S
O149 C146 1.252 . S
O150 In143 2.326 . S
O150 C146 1.260 . S
O151 In143 2.266 . S
O151 C148 1.252 . S
O152 In143 2.326 1_565 S
O152 C148 1.260 1_565 S
C153 O144 1.240 . S
C153 O145 1.252 . S
O154 In143 2.294 . S
O154 C147 1.240 . S
O155 In143 2.326 . S
O155 C147 1.252 . S
In156 O157 2.294 . S
In156 O158 2.326 . S
In156 O162 2.266 . S
In156 O163 2.326 . S
In156 O164 2.266 . S
In156 O165 2.326 . S
In156 O167 2.294 . S
In156 O168 2.326 . S
O157 In156 2.294 . S
O157 C166 1.240 . S
O158 In156 2.326 . S
O158 C166 1.252 . S
C159 O162 1.252 . S
C159 O163 1.260 . S
C160 O167 1.240 . S
C160 O168 1.252 . S
C161 O164 1.252 . S
C161 O165 1.260 . S
O162 In156 2.266 . S
O162 C159 1.252 . S
O163 In156 2.326 . S
O163 C159 1.260 . S
O164 In156 2.266 . S
O164 C161 1.252 . S
O165 In156 2.326 . S
O165 C161 1.260 . S
C166 O157 1.240 . S
C166 O158 1.252 . S
O167 In156 2.294 . S
O167 C160 1.240 . S
O168 In156 2.326 . S
O168 C160 1.252 . S
In169 O170 2.294 . S
In169 O171 2.326 . S
In169 O175 2.266 . S
In169 O176 2.326 . S
In169 O177 2.266 . S
In169 O178 2.326 . S
In169 O180 2.294 . S
In169 O181 2.326 . S
O170 In169 2.294 . S
O170 C179 1.240 . S
O171 In169 2.326 . S
O171 C179 1.252 . S
C172 O175 1.252 . S
C172 O176 1.260 . S
C173 O180 1.240 . S
C173 O181 1.252 . S
C174 O177 1.252 . S
C174 O178 1.260 . S
O175 In169 2.266 . S
O175 C172 1.252 . S
O176 In169 2.326 . S
O176 C172 1.260 . S
O177 In169 2.266 . S
O177 C174 1.252 . S
O178 In169 2.326 . S
O178 C174 1.260 . S
C179 O170 1.240 . S
C179 O171 1.252 . S
O180 In169 2.294 . S
O180 C173 1.240 . S
O181 In169 2.326 . S
O181 C173 1.252 . S
In182 O183 2.294 . S
In182 O184 2.326 . S
In182 O188 2.266 . S
In182 O189 2.326 1_455 S
In182 O190 2.266 . S
In182 O191 2.326 . S
In182 O193 2.294 1_455 S
In182 O194 2.326 1_455 S
O183 In182 2.294 . S
O183 C192 1.240 . S
O184 In182 2.326 . S
O184 C192 1.252 . S
C185 O188 1.252 . S
C185 O189 1.260 1_455 S
C186 O193 1.240 . S
C186 O194 1.252 . S
C187 O190 1.252 . S
C187 O191 1.260 . S
O188 In182 2.266 . S
O188 C185 1.252 . S
O189 In182 2.326 1_655 S
O189 C185 1.260 1_655 S
O190 In182 2.266 . S
O190 C187 1.252 . S
O191 In182 2.326 . S
O191 C187 1.260 . S
C192 O183 1.240 . S
C192 O184 1.252 . S
O193 In182 2.294 1_655 S
O193 C186 1.240 . S
O194 In182 2.326 1_655 S
O194 C186 1.252 . S
In195 O196 2.294 1_545 S
In195 O197 2.326 1_545 S
In195 O201 2.266 . S
In195 O202 2.326 . S
In195 O203 2.266 . S
In195 O204 2.326 1_545 S
In195 O206 2.294 . S
In195 O207 2.326 . S
O196 In195 2.294 1_565 S
O196 C205 1.240 . S
O197 In195 2.326 1_565 S
O197 C205 1.252 . S
C198 O201 1.252 . S
C198 O202 1.260 . S
C199 O206 1.240 . S
C199 O207 1.252 . S
C200 O203 1.252 . S
C200 O204 1.260 1_545 S
O201 In195 2.266 . S
O201 C198 1.252 . S
O202 In195 2.326 . S
O202 C198 1.260 . S
O203 In195 2.266 . S
O203 C200 1.252 . S
O204 In195 2.326 1_565 S
O204 C200 1.260 1_565 S
C205 O196 1.240 . S
C205 O197 1.252 . S
O206 In195 2.294 . S
O206 C199 1.240 . S
O207 In195 2.326 . S
O207 C199 1.252 . S
H208 C214 0.930 . S
H209 C217 0.930 . S
H210 C218 0.930 . S
H211 C219 0.930 . S
H212 C222 0.930 . S
H213 C223 0.930 . S
C214 H208 0.930 . S
C214 C215 1.355 . S
C214 C216 1.415 . S
C215 C214 1.355 . S
C215 C217 1.419 . S
C216 C214 1.415 . S
C216 C221 1.425 . S
C216 C223 1.409 . S
C217 H209 0.930 . S
C217 C215 1.419 . S
C217 C218 1.362 . S
C218 H210 0.930 . S
C218 C217 1.362 . S
C218 C221 1.409 . S
C219 H211 0.930 . S
C219 C220 1.355 . S
C219 C221 1.415 . S
C220 C219 1.355 . S
C220 C222 1.419 . S
C221 C216 1.425 . S
C221 C218 1.409 . S
C221 C219 1.415 . S
C222 H212 0.930 . S
C222 C220 1.419 . S
C222 C223 1.362 . S
C223 H213 0.930 . S
C223 C216 1.409 . S
C223 C222 1.362 . S
H224 C230 0.930 . S
H225 C233 0.930 . S
H226 C234 0.930 . S
H227 C235 0.930 . S
H228 C238 0.930 . S
H229 C239 0.930 . S
C230 H224 0.930 . S
C230 C231 1.355 . S
C230 C232 1.415 . S
C231 C230 1.355 . S
C231 C233 1.419 . S
C232 C230 1.415 . S
C232 C237 1.425 . S
C232 C239 1.409 . S
C233 H225 0.930 . S
C233 C231 1.419 . S
C233 C234 1.362 . S
C234 H226 0.930 . S
C234 C233 1.362 . S
C234 C237 1.409 . S
C235 H227 0.930 . S
C235 C236 1.355 . S
C235 C237 1.415 . S
C236 C235 1.355 . S
C236 C238 1.419 . S
C237 C232 1.425 . S
C237 C234 1.409 . S
C237 C235 1.415 . S
C238 H228 0.930 . S
C238 C236 1.419 . S
C238 C239 1.362 . S
C239 H229 0.930 . S
C239 C232 1.409 . S
C239 C238 1.362 . S
H240 C246 0.930 . S
H241 C249 0.930 . S
H242 C250 0.930 . S
H243 C251 0.930 . S
H244 C254 0.930 . S
H245 C255 0.930 . S
C246 H240 0.930 . S
C246 C247 1.355 . S
C246 C248 1.415 . S
C247 C246 1.355 . S
C247 C249 1.419 . S
C248 C246 1.415 . S
C248 C253 1.425 . S
C248 C255 1.409 . S
C249 H241 0.930 . S
C249 C247 1.419 . S
C249 C250 1.362 . S
C250 H242 0.930 . S
C250 C249 1.362 . S
C250 C253 1.409 . S
C251 H243 0.930 . S
C251 C252 1.355 . S
C251 C253 1.415 . S
C252 C251 1.355 . S
C252 C254 1.419 . S
C253 C248 1.425 . S
C253 C250 1.409 . S
C253 C251 1.415 . S
C254 H244 0.930 . S
C254 C252 1.419 . S
C254 C255 1.362 . S
C255 H245 0.930 . S
C255 C248 1.409 . S
C255 C254 1.362 . S
H256 C262 0.930 . S
H257 C265 0.930 . S
H258 C266 0.930 . S
H259 C267 0.930 . S
H260 C270 0.930 . S
H261 C271 0.930 . S
C262 H256 0.930 . S
C262 C263 1.355 . S
C262 C264 1.415 . S
C263 C262 1.355 . S
C263 C265 1.419 . S
C264 C262 1.415 . S
C264 C269 1.425 . S
C264 C271 1.409 . S
C265 H257 0.930 . S
C265 C263 1.419 . S
C265 C266 1.362 . S
C266 H258 0.930 . S
C266 C265 1.362 . S
C266 C269 1.409 . S
C267 H259 0.930 . S
C267 C268 1.355 . S
C267 C269 1.415 . S
C268 C267 1.355 . S
C268 C270 1.419 . S
C269 C264 1.425 . S
C269 C266 1.409 . S
C269 C267 1.415 . S
C270 H260 0.930 . S
C270 C268 1.419 . S
C270 C271 1.362 . S
C271 H261 0.930 . S
C271 C264 1.409 . S
C271 C270 1.362 . S
H272 C278 0.930 . S
H273 C281 0.930 . S
H274 C282 0.930 . S
H275 C283 0.930 . S
H276 C286 0.930 . S
H277 C287 0.930 . S
C278 H272 0.930 . S
C278 C279 1.355 . S
C278 C280 1.415 . S
C279 C278 1.355 . S
C279 C281 1.419 . S
C280 C278 1.415 . S
C280 C285 1.425 . S
C280 C287 1.409 . S
C281 H273 0.930 . S
C281 C279 1.419 . S
C281 C282 1.362 . S
C282 H274 0.930 . S
C282 C281 1.362 . S
C282 C285 1.409 . S
C283 H275 0.930 . S
C283 C284 1.355 . S
C283 C285 1.415 . S
C284 C283 1.355 . S
C284 C286 1.419 . S
C285 C280 1.425 . S
C285 C282 1.409 . S
C285 C283 1.415 . S
C286 H276 0.930 . S
C286 C284 1.419 . S
C286 C287 1.362 . S
C287 H277 0.930 . S
C287 C280 1.409 . S
C287 C286 1.362 . S
H288 C294 0.930 . S
H289 C297 0.930 . S
H290 C298 0.930 . S
H291 C299 0.930 . S
H292 C302 0.930 . S
H293 C303 0.930 . S
C294 H288 0.930 . S
C294 C295 1.355 . S
C294 C296 1.415 . S
C295 C294 1.355 . S
C295 C297 1.419 . S
C296 C294 1.415 . S
C296 C301 1.425 . S
C296 C303 1.409 . S
C297 H289 0.930 . S
C297 C295 1.419 . S
C297 C298 1.362 . S
C298 H290 0.930 . S
C298 C297 1.362 . S
C298 C301 1.409 . S
C299 H291 0.930 . S
C299 C300 1.355 . S
C299 C301 1.415 . S
C300 C299 1.355 . S
C300 C302 1.419 . S
C301 C296 1.425 . S
C301 C298 1.409 . S
C301 C299 1.415 . S
C302 H292 0.930 . S
C302 C300 1.419 . S
C302 C303 1.362 . S
C303 H293 0.930 . S
C303 C296 1.409 . S
C303 C302 1.362 . S
H304 C310 0.930 . S
H305 C313 0.930 . S
H306 C314 0.930 . S
H307 C315 0.930 . S
H308 C318 0.930 . S
H309 C319 0.930 . S
C310 H304 0.930 . S
C310 C311 1.355 . S
C310 C312 1.415 . S
C311 C310 1.355 . S
C311 C313 1.419 . S
C312 C310 1.415 . S
C312 C317 1.425 . S
C312 C319 1.409 . S
C313 H305 0.930 . S
C313 C311 1.419 . S
C313 C314 1.362 . S
C314 H306 0.930 . S
C314 C313 1.362 . S
C314 C317 1.409 . S
C315 H307 0.930 . S
C315 C316 1.355 . S
C315 C317 1.415 . S
C316 C315 1.355 . S
C316 C318 1.419 . S
C317 C312 1.425 . S
C317 C314 1.409 . S
C317 C315 1.415 . S
C318 H308 0.930 . S
C318 C316 1.419 . S
C318 C319 1.362 . S
C319 H309 0.930 . S
C319 C312 1.409 . S
C319 C318 1.362 . S
H320 C326 0.930 . S
H321 C329 0.930 . S
H322 C330 0.930 . S
H323 C331 0.930 . S
H324 C334 0.930 . S
H325 C335 0.930 . S
C326 H320 0.930 . S
C326 C327 1.355 . S
C326 C328 1.415 . S
C327 C326 1.355 . S
C327 C329 1.419 . S
C328 C326 1.415 . S
C328 C333 1.425 . S
C328 C335 1.409 . S
C329 H321 0.930 . S
C329 C327 1.419 . S
C329 C330 1.362 . S
C330 H322 0.930 . S
C330 C329 1.362 . S
C330 C333 1.409 . S
C331 H323 0.930 . S
C331 C332 1.355 . S
C331 C333 1.415 . S
C332 C331 1.355 . S
C332 C334 1.419 . S
C333 C328 1.425 . S
C333 C330 1.409 . S
C333 C331 1.415 . S
C334 H324 0.930 . S
C334 C332 1.419 . S
C334 C335 1.362 . S
C335 H325 0.930 . S
C335 C328 1.409 . S
C335 C334 1.362 . S
H336 C342 0.930 . S
H337 C345 0.930 . S
H338 C346 0.930 . S
H339 C347 0.930 . S
H340 C350 0.930 . S
H341 C351 0.930 . S
C342 H336 0.930 . S
C342 C343 1.355 . S
C342 C344 1.415 . S
C343 C342 1.355 . S
C343 C345 1.419 . S
C344 C342 1.415 . S
C344 C349 1.425 . S
C344 C351 1.409 . S
C345 H337 0.930 . S
C345 C343 1.419 . S
C345 C346 1.362 . S
C346 H338 0.930 . S
C346 C345 1.362 . S
C346 C349 1.409 . S
C347 H339 0.930 . S
C347 C348 1.355 . S
C347 C349 1.415 . S
C348 C347 1.355 . S
C348 C350 1.419 . S
C349 C344 1.425 . S
C349 C346 1.409 . S
C349 C347 1.415 . S
C350 H340 0.930 . S
C350 C348 1.419 . S
C350 C351 1.362 . S
C351 H341 0.930 . S
C351 C344 1.409 . S
C351 C350 1.362 . S
H352 C358 0.930 . S
H353 C361 0.930 . S
H354 C362 0.930 . S
H355 C363 0.930 . S
H356 C366 0.930 . S
H357 C367 0.930 . S
C358 H352 0.930 . S
C358 C359 1.355 . S
C358 C360 1.415 . S
C359 C358 1.355 . S
C359 C361 1.419 . S
C360 C358 1.415 . S
C360 C365 1.425 . S
C360 C367 1.409 . S
C361 H353 0.930 . S
C361 C359 1.419 . S
C361 C362 1.362 . S
C362 H354 0.930 . S
C362 C361 1.362 . S
C362 C365 1.409 . S
C363 H355 0.930 . S
C363 C364 1.355 . S
C363 C365 1.415 . S
C364 C363 1.355 . S
C364 C366 1.419 . S
C365 C360 1.425 . S
C365 C362 1.409 . S
C365 C363 1.415 . S
C366 H356 0.930 . S
C366 C364 1.419 . S
C366 C367 1.362 . S
C367 H357 0.930 . S
C367 C360 1.409 . S
C367 C366 1.362 . S
H368 C374 0.930 . S
H369 C377 0.930 . S
H370 C378 0.930 . S
H371 C379 0.930 . S
H372 C382 0.930 . S
H373 C383 0.930 . S
C374 H368 0.930 . S
C374 C375 1.355 . S
C374 C376 1.415 . S
C375 C374 1.355 . S
C375 C377 1.419 . S
C376 C374 1.415 . S
C376 C381 1.425 . S
C376 C383 1.409 . S
C377 H369 0.930 . S
C377 C375 1.419 . S
C377 C378 1.362 . S
C378 H370 0.930 . S
C378 C377 1.362 . S
C378 C381 1.409 . S
C379 H371 0.930 . S
C379 C380 1.355 . S
C379 C381 1.415 . S
C380 C379 1.355 . S
C380 C382 1.419 . S
C381 C376 1.425 . S
C381 C378 1.409 . S
C381 C379 1.415 . S
C382 H372 0.930 . S
C382 C380 1.419 . S
C382 C383 1.362 . S
C383 H373 0.930 . S
C383 C376 1.409 . S
C383 C382 1.362 . S
H384 C390 0.930 . S
H385 C393 0.930 . S
H386 C394 0.930 . S
H387 C395 0.930 . S
H388 C398 0.930 . S
H389 C399 0.930 . S
C390 H384 0.930 . S
C390 C391 1.355 . S
C390 C392 1.415 . S
C391 C390 1.355 . S
C391 C393 1.419 . S
C392 C390 1.415 . S
C392 C397 1.425 . S
C392 C399 1.409 . S
C393 H385 0.930 . S
C393 C391 1.419 . S
C393 C394 1.362 . S
C394 H386 0.930 . S
C394 C393 1.362 . S
C394 C397 1.409 . S
C395 H387 0.930 . S
C395 C396 1.355 . S
C395 C397 1.415 . S
C396 C395 1.355 . S
C396 C398 1.419 . S
C397 C392 1.425 . S
C397 C394 1.409 . S
C397 C395 1.415 . S
C398 H388 0.930 . S
C398 C396 1.419 . S
C398 C399 1.362 . S
C399 H389 0.930 . S
C399 C392 1.409 . S
C399 C398 1.362 . S
H400 C406 0.930 . S
H401 C409 0.930 . S
H402 C410 0.930 . S
H403 C411 0.930 . S
H404 C414 0.930 . S
H405 C415 0.930 . S
C406 H400 0.930 . S
C406 C407 1.355 . S
C406 C408 1.415 . S
C407 C406 1.355 . S
C407 C409 1.419 . S
C408 C406 1.415 . S
C408 C413 1.425 . S
C408 C415 1.409 . S
C409 H401 0.930 . S
C409 C407 1.419 . S
C409 C410 1.362 . S
C410 H402 0.930 . S
C410 C409 1.362 . S
C410 C413 1.409 . S
C411 H403 0.930 . S
C411 C412 1.355 . S
C411 C413 1.415 . S
C412 C411 1.355 . S
C412 C414 1.419 . S
C413 C408 1.425 . S
C413 C410 1.409 . S
C413 C411 1.415 . S
C414 H404 0.930 . S
C414 C412 1.419 . S
C414 C415 1.362 . S
C415 H405 0.930 . S
C415 C408 1.409 . S
C415 C414 1.362 . S
H416 C422 0.930 . S
H417 C425 0.930 . S
H418 C426 0.930 . S
H419 C427 0.930 . S
H420 C430 0.930 . S
H421 C431 0.930 . S
C422 H416 0.930 . S
C422 C423 1.355 . S
C422 C424 1.415 . S
C423 C422 1.355 . S
C423 C425 1.419 . S
C424 C422 1.415 . S
C424 C429 1.425 . S
C424 C431 1.409 . S
C425 H417 0.930 . S
C425 C423 1.419 . S
C425 C426 1.362 . S
C426 H418 0.930 . S
C426 C425 1.362 . S
C426 C429 1.409 . S
C427 H419 0.930 . S
C427 C428 1.355 . S
C427 C429 1.415 . S
C428 C427 1.355 . S
C428 C430 1.419 . S
C429 C424 1.425 . S
C429 C426 1.409 . S
C429 C427 1.415 . S
C430 H420 0.930 . S
C430 C428 1.419 . S
C430 C431 1.362 . S
C431 H421 0.930 . S
C431 C424 1.409 . S
C431 C430 1.362 . S
H432 C438 0.930 . S
H433 C441 0.930 . S
H434 C442 0.930 . S
H435 C443 0.930 . S
H436 C446 0.930 . S
H437 C447 0.930 . S
C438 H432 0.930 . S
C438 C439 1.355 . S
C438 C440 1.415 . S
C439 C438 1.355 . S
C439 C441 1.419 . S
C440 C438 1.415 . S
C440 C445 1.425 . S
C440 C447 1.409 . S
C441 H433 0.930 . S
C441 C439 1.419 . S
C441 C442 1.362 . S
C442 H434 0.930 . S
C442 C441 1.362 . S
C442 C445 1.409 . S
C443 H435 0.930 . S
C443 C444 1.355 . S
C443 C445 1.415 . S
C444 C443 1.355 . S
C444 C446 1.419 . S
C445 C440 1.425 . S
C445 C442 1.409 . S
C445 C443 1.415 . S
C446 H436 0.930 . S
C446 C444 1.419 . S
C446 C447 1.362 . S
C447 H437 0.930 . S
C447 C440 1.409 . S
C447 C446 1.362 . S
H448 C454 0.930 . S
H449 C457 0.930 . S
H450 C458 0.930 . S
H451 C459 0.930 . S
H452 C462 0.930 . S
H453 C463 0.930 . S
C454 H448 0.930 . S
C454 C455 1.355 . S
C454 C456 1.415 . S
C455 C454 1.355 . S
C455 C457 1.419 . S
C456 C454 1.415 . S
C456 C461 1.425 . S
C456 C463 1.409 . S
C457 H449 0.930 . S
C457 C455 1.419 . S
C457 C458 1.362 . S
C458 H450 0.930 . S
C458 C457 1.362 . S
C458 C461 1.409 . S
C459 H451 0.930 . S
C459 C460 1.355 . S
C459 C461 1.415 . S
C460 C459 1.355 . S
C460 C462 1.419 . S
C461 C456 1.425 . S
C461 C458 1.409 . S
C461 C459 1.415 . S
C462 H452 0.930 . S
C462 C460 1.419 . S
C462 C463 1.362 . S
C463 H453 0.930 . S
C463 C456 1.409 . S
C463 C462 1.362 . S
H464 C470 0.930 . S
H465 C473 0.930 . S
H466 C474 0.930 . S
H467 C475 0.930 . S
H468 C478 0.930 . S
H469 C479 0.930 . S
C470 H464 0.930 . S
C470 C471 1.355 . S
C470 C472 1.415 . S
C471 C470 1.355 . S
C471 C473 1.419 . S
C472 C470 1.415 . S
C472 C477 1.425 . S
C472 C479 1.409 . S
C473 H465 0.930 . S
C473 C471 1.419 . S
C473 C474 1.362 . S
C474 H466 0.930 . S
C474 C473 1.362 . S
C474 C477 1.409 . S
C475 H467 0.930 . S
C475 C476 1.355 . S
C475 C477 1.415 . S
C476 C475 1.355 . S
C476 C478 1.419 . S
C477 C472 1.425 . S
C477 C474 1.409 . S
C477 C475 1.415 . S
C478 H468 0.930 . S
C478 C476 1.419 . S
C478 C479 1.362 . S
C479 H469 0.930 . S
C479 C472 1.409 . S
C479 C478 1.362 . S
H480 C486 0.930 . S
H481 C489 0.930 . S
H482 C490 0.930 . S
H483 C491 0.930 . S
H484 C494 0.930 . S
H485 C495 0.930 . S
C486 H480 0.930 . S
C486 C487 1.355 . S
C486 C488 1.415 . S
C487 C486 1.355 . S
C487 C489 1.419 . S
C488 C486 1.415 . S
C488 C493 1.425 . S
C488 C495 1.409 . S
C489 H481 0.930 . S
C489 C487 1.419 . S
C489 C490 1.362 . S
C490 H482 0.930 . S
C490 C489 1.362 . S
C490 C493 1.409 . S
C491 H483 0.930 . S
C491 C492 1.355 . S
C491 C493 1.415 . S
C492 C491 1.355 . S
C492 C494 1.419 . S
C493 C488 1.425 . S
C493 C490 1.409 . S
C493 C491 1.415 . S
C494 H484 0.930 . S
C494 C492 1.419 . S
C494 C495 1.362 . S
C495 H485 0.930 . S
C495 C488 1.409 . S
C495 C494 1.362 . S
H496 C502 0.930 . S
H497 C505 0.930 . S
H498 C506 0.930 . S
H499 C507 0.930 . S
H500 C510 0.930 . S
H501 C511 0.930 . S
C502 H496 0.930 . S
C502 C503 1.355 . S
C502 C504 1.415 . S
C503 C502 1.355 . S
C503 C505 1.419 . S
C504 C502 1.415 . S
C504 C509 1.425 . S
C504 C511 1.409 . S
C505 H497 0.930 . S
C505 C503 1.419 . S
C505 C506 1.362 . S
C506 H498 0.930 . S
C506 C505 1.362 . S
C506 C509 1.409 . S
C507 H499 0.930 . S
C507 C508 1.355 . S
C507 C509 1.415 . S
C508 C507 1.355 . S
C508 C510 1.419 . S
C509 C504 1.425 . S
C509 C506 1.409 . S
C509 C507 1.415 . S
C510 H500 0.930 . S
C510 C508 1.419 . S
C510 C511 1.362 . S
C511 H501 0.930 . S
C511 C504 1.409 . S
C511 C510 1.362 . S
H512 C518 0.930 . S
H513 C521 0.930 . S
H514 C522 0.930 . S
H515 C523 0.930 . S
H516 C526 0.930 . S
H517 C527 0.930 . S
C518 H512 0.930 . S
C518 C519 1.355 . S
C518 C520 1.415 . S
C519 C518 1.355 . S
C519 C521 1.419 . S
C520 C518 1.415 . S
C520 C525 1.425 . S
C520 C527 1.409 . S
C521 H513 0.930 . S
C521 C519 1.419 . S
C521 C522 1.362 . S
C522 H514 0.930 . S
C522 C521 1.362 . S
C522 C525 1.409 . S
C523 H515 0.930 . S
C523 C524 1.355 . S
C523 C525 1.415 . S
C524 C523 1.355 . S
C524 C526 1.419 . S
C525 C520 1.425 . S
C525 C522 1.409 . S
C525 C523 1.415 . S
C526 H516 0.930 . S
C526 C524 1.419 . S
C526 C527 1.362 . S
C527 H517 0.930 . S
C527 C520 1.409 . S
C527 C526 1.362 . S
H528 C534 0.930 . S
H529 C537 0.930 . S
H530 C538 0.930 . S
H531 C539 0.930 . S
H532 C542 0.930 . S
H533 C543 0.930 . S
C534 H528 0.930 . S
C534 C535 1.355 . S
C534 C536 1.415 . S
C535 C534 1.355 . S
C535 C537 1.419 . S
C536 C534 1.415 . S
C536 C541 1.425 . S
C536 C543 1.409 . S
C537 H529 0.930 . S
C537 C535 1.419 . S
C537 C538 1.362 . S
C538 H530 0.930 . S
C538 C537 1.362 . S
C538 C541 1.409 . S
C539 H531 0.930 . S
C539 C540 1.355 . S
C539 C541 1.415 . S
C540 C539 1.355 . S
C540 C542 1.419 . S
C541 C536 1.425 . S
C541 C538 1.409 . S
C541 C539 1.415 . S
C542 H532 0.930 . S
C542 C540 1.419 . S
C542 C543 1.362 . S
C543 H533 0.930 . S
C543 C536 1.409 . S
C543 C542 1.362 . S
H544 C550 0.930 . S
H545 C553 0.930 . S
H546 C554 0.930 . S
H547 C555 0.930 . S
H548 C558 0.930 . S
H549 C559 0.930 . S
C550 H544 0.930 . S
C550 C551 1.355 . S
C550 C552 1.415 . S
C551 C550 1.355 . S
C551 C553 1.419 . S
C552 C550 1.415 . S
C552 C557 1.425 . S
C552 C559 1.409 . S
C553 H545 0.930 . S
C553 C551 1.419 . S
C553 C554 1.362 . S
C554 H546 0.930 . S
C554 C553 1.362 . S
C554 C557 1.409 . S
C555 H547 0.930 . S
C555 C556 1.355 . S
C555 C557 1.415 . S
C556 C555 1.355 . S
C556 C558 1.419 . S
C557 C552 1.425 . S
C557 C554 1.409 . S
C557 C555 1.415 . S
C558 H548 0.930 . S
C558 C556 1.419 . S
C558 C559 1.362 . S
C559 H549 0.930 . S
C559 C552 1.409 . S
C559 C558 1.362 . S
H560 C566 0.930 . S
H561 C569 0.930 . S
H562 C570 0.930 . S
H563 C571 0.930 . S
H564 C574 0.930 . S
H565 C575 0.930 . S
C566 H560 0.930 . S
C566 C567 1.355 . S
C566 C568 1.415 . S
C567 C566 1.355 . S
C567 C569 1.419 . S
C568 C566 1.415 . S
C568 C573 1.425 . S
C568 C575 1.409 . S
C569 H561 0.930 . S
C569 C567 1.419 . S
C569 C570 1.362 . S
C570 H562 0.930 . S
C570 C569 1.362 . S
C570 C573 1.409 . S
C571 H563 0.930 . S
C571 C572 1.355 . S
C571 C573 1.415 . S
C572 C571 1.355 . S
C572 C574 1.419 . S
C573 C568 1.425 . S
C573 C570 1.409 . S
C573 C571 1.415 . S
C574 H564 0.930 . S
C574 C572 1.419 . S
C574 C575 1.362 . S
C575 H565 0.930 . S
C575 C568 1.409 . S
C575 C574 1.362 . S
H576 C582 0.930 . S
H577 C585 0.930 . S
H578 C586 0.930 . S
H579 C587 0.930 . S
H580 C590 0.930 . S
H581 C591 0.930 . S
C582 H576 0.930 . S
C582 C583 1.355 . S
C582 C584 1.415 . S
C583 C582 1.355 . S
C583 C585 1.419 . S
C584 C582 1.415 . S
C584 C589 1.425 . S
C584 C591 1.409 . S
C585 H577 0.930 . S
C585 C583 1.419 . S
C585 C586 1.362 . S
C586 H578 0.930 . S
C586 C585 1.362 . S
C586 C589 1.409 . S
C587 H579 0.930 . S
C587 C588 1.355 . S
C587 C589 1.415 . S
C588 C587 1.355 . S
C588 C590 1.419 . S
C589 C584 1.425 . S
C589 C586 1.409 . S
C589 C587 1.415 . S
C590 H580 0.930 . S
C590 C588 1.419 . S
C590 C591 1.362 . S
C591 H581 0.930 . S
C591 C584 1.409 . S
C591 C590 1.362 . S
H592 C598 0.930 . S
H593 C601 0.930 . S
H594 C602 0.930 . S
H595 C603 0.930 . S
H596 C606 0.930 . S
H597 C607 0.930 . S
C598 H592 0.930 . S
C598 C599 1.355 . S
C598 C600 1.415 . S
C599 C598 1.355 . S
C599 C601 1.419 . S
C600 C598 1.415 . S
C600 C605 1.425 1_554 S
C600 C607 1.409 1_554 S
C601 H593 0.930 . S
C601 C599 1.419 . S
C601 C602 1.362 . S
C602 H594 0.930 . S
C602 C601 1.362 . S
C602 C605 1.409 1_554 S
C603 H595 0.930 . S
C603 C604 1.355 . S
C603 C605 1.415 . S
C604 C603 1.355 . S
C604 C606 1.419 . S
C605 C600 1.425 1_556 S
C605 C602 1.409 1_556 S
C605 C603 1.415 . S
C606 H596 0.930 . S
C606 C604 1.419 . S
C606 C607 1.362 . S
C607 H597 0.930 . S
C607 C600 1.409 1_556 S
C607 C606 1.362 . S
H608 C614 0.930 . S
H609 C617 0.930 . S
H610 C618 0.930 . S
H611 C619 0.930 . S
H612 C622 0.930 . S
H613 C623 0.930 . S
C614 H608 0.930 . S
C614 C615 1.355 . S
C614 C616 1.415 . S
C615 C614 1.355 . S
C615 C617 1.419 . S
C616 C614 1.415 . S
C616 C621 1.425 . S
C616 C623 1.409 . S
C617 H609 0.930 . S
C617 C615 1.419 . S
C617 C618 1.362 . S
C618 H610 0.930 . S
C618 C617 1.362 . S
C618 C621 1.409 . S
C619 H611 0.930 . S
C619 C620 1.355 . S
C619 C621 1.415 . S
C620 C619 1.355 . S
C620 C622 1.419 . S
C621 C616 1.425 . S
C621 C618 1.409 . S
C621 C619 1.415 . S
C622 H612 0.930 . S
C622 C620 1.419 . S
C622 C623 1.362 . S
C623 H613 0.930 . S
C623 C616 1.409 . S
C623 C622 1.362 . S
H624 C630 0.930 . S
H625 C633 0.930 . S
H626 C634 0.930 . S
H627 C635 0.930 . S
H628 C638 0.930 . S
H629 C639 0.930 . S
C630 H624 0.930 . S
C630 C631 1.355 1_455 S
C630 C632 1.415 . S
C631 C630 1.355 1_655 S
C631 C633 1.419 . S
C632 C630 1.415 . S
C632 C637 1.425 1_454 S
C632 C639 1.409 1_554 S
C633 H625 0.930 . S
C633 C631 1.419 . S
C633 C634 1.362 . S
C634 H626 0.930 . S
C634 C633 1.362 . S
C634 C637 1.409 1_554 S
C635 H627 0.930 . S
C635 C636 1.355 . S
C635 C637 1.415 . S
C636 C635 1.355 . S
C636 C638 1.419 1_655 S
C637 C632 1.425 1_656 S
C637 C634 1.409 1_556 S
C637 C635 1.415 . S
C638 H628 0.930 . S
C638 C636 1.419 1_455 S
C638 C639 1.362 . S
C639 H629 0.930 . S
C639 C632 1.409 1_556 S
C639 C638 1.362 . S
H640 C646 0.930 . S
H641 C649 0.930 . S
H642 C650 0.930 . S
H643 C651 0.930 . S
H644 C654 0.930 . S
H645 C655 0.930 . S
C646 H640 0.930 . S
C646 C647 1.355 . S
C646 C648 1.415 . S
C647 C646 1.355 . S
C647 C649 1.419 1_565 S
C648 C646 1.415 . S
C648 C653 1.425 1_565 S
C648 C655 1.409 . S
C649 H641 0.930 . S
C649 C647 1.419 1_545 S
C649 C650 1.362 . S
C650 H642 0.930 . S
C650 C649 1.362 . S
C650 C653 1.409 . S
C651 H643 0.930 . S
C651 C652 1.355 1_545 S
C651 C653 1.415 . S
C652 C651 1.355 1_565 S
C652 C654 1.419 . S
C653 C648 1.425 1_545 S
C653 C650 1.409 . S
C653 C651 1.415 . S
C654 H644 0.930 . S
C654 C652 1.419 . S
C654 C655 1.362 . S
C655 H645 0.930 . S
C655 C648 1.409 . S
C655 C654 1.362 . S
H656 C662 0.930 . S
H657 C665 0.930 . S
H658 C666 0.930 . S
H659 C667 0.930 . S
H660 C670 0.930 . S
H661 C671 0.930 . S
C662 H656 0.930 . S
C662 C663 1.355 . S
C662 C664 1.415 . S
C663 C662 1.355 . S
C663 C665 1.419 . S
C664 C662 1.415 . S
C664 C669 1.425 1_556 S
C664 C671 1.409 1_556 S
C665 H657 0.930 . S
C665 C663 1.419 . S
C665 C666 1.362 . S
C666 H658 0.930 . S
C666 C665 1.362 . S
C666 C669 1.409 1_556 S
C667 H659 0.930 . S
C667 C668 1.355 . S
C667 C669 1.415 . S
C668 C667 1.355 . S
C668 C670 1.419 . S
C669 C664 1.425 1_554 S
C669 C666 1.409 1_554 S
C669 C667 1.415 . S
C670 H660 0.930 . S
C670 C668 1.419 . S
C670 C671 1.362 . S
C671 H661 0.930 . S
C671 C664 1.409 1_554 S
C671 C670 1.362 . S
H672 C678 0.930 . S
H673 C681 0.930 . S
H674 C682 0.930 . S
H675 C683 0.930 . S
H676 C686 0.930 . S
H677 C687 0.930 . S
C678 H672 0.930 . S
C678 C679 1.355 . S
C678 C680 1.415 . S
C679 C678 1.355 . S
C679 C681 1.419 . S
C680 C678 1.415 . S
C680 C685 1.425 . S
C680 C687 1.409 . S
C681 H673 0.930 . S
C681 C679 1.419 . S
C681 C682 1.362 . S
C682 H674 0.930 . S
C682 C681 1.362 . S
C682 C685 1.409 . S
C683 H675 0.930 . S
C683 C684 1.355 . S
C683 C685 1.415 . S
C684 C683 1.355 . S
C684 C686 1.419 . S
C685 C680 1.425 . S
C685 C682 1.409 . S
C685 C683 1.415 . S
C686 H676 0.930 . S
C686 C684 1.419 . S
C686 C687 1.362 . S
C687 H677 0.930 . S
C687 C680 1.409 . S
C687 C686 1.362 . S
H688 C694 0.930 . S
H689 C697 0.930 . S
H690 C698 0.930 . S
H691 C699 0.930 . S
H692 C702 0.930 . S
H693 C703 0.930 . S
C694 H688 0.930 . S
C694 C695 1.355 1_655 S
C694 C696 1.415 . S
C695 C694 1.355 1_455 S
C695 C697 1.419 . S
C696 C694 1.415 . S
C696 C701 1.425 1_654 S
C696 C703 1.409 1_554 S
C697 H689 0.930 . S
C697 C695 1.419 . S
C697 C698 1.362 . S
C698 H690 0.930 . S
C698 C697 1.362 . S
C698 C701 1.409 1_554 S
C699 H691 0.930 . S
C699 C700 1.355 . S
C699 C701 1.415 . S
C700 C699 1.355 . S
C700 C702 1.419 1_455 S
C701 C696 1.425 1_456 S
C701 C698 1.409 1_556 S
C701 C699 1.415 . S
C702 H692 0.930 . S
C702 C700 1.419 1_655 S
C702 C703 1.362 . S
C703 H693 0.930 . S
C703 C696 1.409 1_556 S
C703 C702 1.362 . S
H704 C710 0.930 . S
H705 C713 0.930 . S
H706 C714 0.930 . S
H707 C715 0.930 . S
H708 C718 0.930 . S
H709 C719 0.930 . S
C710 H704 0.930 . S
C710 C711 1.355 1_565 S
C710 C712 1.415 . S
C711 C710 1.355 1_545 S
C711 C713 1.419 . S
C712 C710 1.415 . S
C712 C717 1.425 1_565 S
C712 C719 1.409 . S
C713 H705 0.930 . S
C713 C711 1.419 . S
C713 C714 1.362 . S
C714 H706 0.930 . S
C714 C713 1.362 . S
C714 C717 1.409 . S
C715 H707 0.930 . S
C715 C716 1.355 . S
C715 C717 1.415 . S
C716 C715 1.355 . S
C716 C718 1.419 1_545 S
C717 C712 1.425 1_545 S
C717 C714 1.409 . S
C717 C715 1.415 . S
C718 H708 0.930 . S
C718 C716 1.419 1_565 S
C718 C719 1.362 . S
C719 H709 0.930 . S
C719 C712 1.409 . S
C719 C718 1.362 . S
C215 C4 1.293 . S
C220 C95 1.271 . S
C231 C23 1.272 . S
C236 C56 1.295 . S
C247 C36 1.295 . S
C252 C75 1.273 . S
C263 C49 1.271 . S
C268 C82 1.294 . S
C279 C114 1.275 . S
C284 C205 1.283 . S
C295 C160 1.293 . S
C300 C121 1.271 . S
C311 C134 1.294 . S
C316 C179 1.271 . S
C327 C153 1.293 . S
C332 C186 1.271 . S
C343 C5 1.574 . S
C348 C127 1.610 . S
C359 C16 1.573 . S
C364 C140 1.608 . S
C375 C147 1.600 . S
C380 C29 1.575 . S
C391 C42 1.582 . S
C396 C108 1.612 . S
C407 C57 1.609 . S
C412 C199 1.593 . S
C423 C166 1.610 . S
C428 C68 1.593 . S
C439 C173 1.591 . S
C444 C83 1.608 . S
C455 C192 1.611 . S
C460 C96 1.577 . S
C471 C17 1.589 . S
C476 C107 1.593 . S
C487 C30 1.597 . S
C492 C122 1.608 . S
C503 C135 1.585 . S
C508 C43 1.612 . S
C519 C10 1.610 . S
C524 C146 1.575 . S
C535 C161 1.607 . S
C540 C101 1.590 . S
C551 C172 1.598 . S
C556 C62 1.588 . S
C567 C69 1.600 . S
C572 C187 1.575 . S
C583 C88 1.594 . S
C588 C198 1.609 . S
C599 C3 1.608 . S
C604 C55 1.632 . S
C615 C70 1.633 . S
C620 C18 1.621 . S
C631 C31 1.619 . S
C636 C81 1.634 . S
C647 C94 1.631 . S
C652 C44 1.624 . S
C663 C109 1.608 . S
C668 C159 1.632 . S
C679 C174 1.618 . S
C684 C120 1.608 . S
C695 C185 1.627 . S
C700 C133 1.629 . S
C711 C200 1.605 . S
C716 C148 1.626 . S
