# Generated by pormake.
# Topology zfo, (5)-cn, num edge types: 1
# Building blocks:
#     Node 0, Type 0, BuildingBlock: XOMCOT_clean_sbu_1, # of connection points: 5
#     Node 1, Type 0, BuildingBlock: XOMCOT_clean_sbu_1, # of connection points: 5
#     Node 2, Type 0, BuildingBlock: XOMCOT_clean_sbu_1, # of connection points: 5
#     Node 3, Type 0, BuildingBlock: XOMCOT_clean_sbu_1, # of connection points: 5
#     Node 4, Type 0, BuildingBlock: XOMCOT_clean_sbu_1, # of connection points: 5
#     Node 5, Type 0, BuildingBlock: XOMCOT_clean_sbu_1, # of connection points: 5
#     Node 6, Type 0, BuildingBlock: XOMCOT_clean_sbu_1, # of connection points: 5
#     Node 7, Type 0, BuildingBlock: XOMCOT_clean_sbu_1, # of connection points: 5
#     Node 8, Type 0, BuildingBlock: XOMCOT_clean_sbu_1, # of connection points: 5
#     Node 9, Type 0, BuildingBlock: XOMCOT_clean_sbu_1, # of connection points: 5
#     Node 10, Type 0, BuildingBlock: XOMCOT_clean_sbu_1, # of connection points: 5
#     Node 11, Type 0, BuildingBlock: XOMCOT_clean_sbu_1, # of connection points: 5
#     Node 12, Type 0, BuildingBlock: XOMCOT_clean_sbu_1, # of connection points: 5
#     Node 13, Type 0, BuildingBlock: XOMCOT_clean_sbu_1, # of connection points: 5
#     Node 14, Type 0, BuildingBlock: XOMCOT_clean_sbu_1, # of connection points: 5
#     Node 15, Type 0, BuildingBlock: XOMCOT_clean_sbu_1, # of connection points: 5
#     Edge 16, Type (0, 0), BuildingBlock: AJUNOK_clean_linker_0, # of connection points: 2
#     Edge 17, Type (0, 0), BuildingBlock: AJUNOK_clean_linker_0, # of connection points: 2
#     Edge 18, Type (0, 0), BuildingBlock: AJUNOK_clean_linker_0, # of connection points: 2
#     Edge 19, Type (0, 0), BuildingBlock: AJUNOK_clean_linker_0, # of connection points: 2
#     Edge 20, Type (0, 0), BuildingBlock: AJUNOK_clean_linker_0, # of connection points: 2
#     Edge 21, Type (0, 0), BuildingBlock: AJUNOK_clean_linker_0, # of connection points: 2
#     Edge 22, Type (0, 0), BuildingBlock: AJUNOK_clean_linker_0, # of connection points: 2
#     Edge 23, Type (0, 0), BuildingBlock: AJUNOK_clean_linker_0, # of connection points: 2
#     Edge 24, Type (0, 0), BuildingBlock: AJUNOK_clean_linker_0, # of connection points: 2
#     Edge 25, Type (0, 0), BuildingBlock: AJUNOK_clean_linker_0, # of connection points: 2
#     Edge 26, Type (0, 0), BuildingBlock: AJUNOK_clean_linker_0, # of connection points: 2
#     Edge 27, Type (0, 0), BuildingBlock: AJUNOK_clean_linker_0, # of connection points: 2
#     Edge 28, Type (0, 0), BuildingBlock: AJUNOK_clean_linker_0, # of connection points: 2
#     Edge 29, Type (0, 0), BuildingBlock: AJUNOK_clean_linker_0, # of connection points: 2
#     Edge 30, Type (0, 0), BuildingBlock: AJUNOK_clean_linker_0, # of connection points: 2
#     Edge 31, Type (0, 0), BuildingBlock: AJUNOK_clean_linker_0, # of connection points: 2
#     Edge 32, Type (0, 0), BuildingBlock: AJUNOK_clean_linker_0, # of connection points: 2
#     Edge 33, Type (0, 0), BuildingBlock: AJUNOK_clean_linker_0, # of connection points: 2
#     Edge 34, Type (0, 0), BuildingBlock: AJUNOK_clean_linker_0, # of connection points: 2
#     Edge 35, Type (0, 0), BuildingBlock: AJUNOK_clean_linker_0, # of connection points: 2
#     Edge 36, Type (0, 0), BuildingBlock: AJUNOK_clean_linker_0, # of connection points: 2
#     Edge 37, Type (0, 0), BuildingBlock: AJUNOK_clean_linker_0, # of connection points: 2
#     Edge 38, Type (0, 0), BuildingBlock: AJUNOK_clean_linker_0, # of connection points: 2
#     Edge 39, Type (0, 0), BuildingBlock: AJUNOK_clean_linker_0, # of connection points: 2
#     Edge 40, Type (0, 0), BuildingBlock: AJUNOK_clean_linker_0, # of connection points: 2
#     Edge 41, Type (0, 0), BuildingBlock: AJUNOK_clean_linker_0, # of connection points: 2
#     Edge 42, Type (0, 0), BuildingBlock: AJUNOK_clean_linker_0, # of connection points: 2
#     Edge 43, Type (0, 0), BuildingBlock: AJUNOK_clean_linker_0, # of connection points: 2
#     Edge 44, Type (0, 0), BuildingBlock: AJUNOK_clean_linker_0, # of connection points: 2
#     Edge 45, Type (0, 0), BuildingBlock: AJUNOK_clean_linker_0, # of connection points: 2
#     Edge 46, Type (0, 0), BuildingBlock: AJUNOK_clean_linker_0, # of connection points: 2
#     Edge 47, Type (0, 0), BuildingBlock: AJUNOK_clean_linker_0, # of connection points: 2
#     Edge 48, Type (0, 0), BuildingBlock: AJUNOK_clean_linker_0, # of connection points: 2
#     Edge 49, Type (0, 0), BuildingBlock: AJUNOK_clean_linker_0, # of connection points: 2
#     Edge 50, Type (0, 0), BuildingBlock: AJUNOK_clean_linker_0, # of connection points: 2
#     Edge 51, Type (0, 0), BuildingBlock: AJUNOK_clean_linker_0, # of connection points: 2
#     Edge 52, Type (0, 0), BuildingBlock: AJUNOK_clean_linker_0, # of connection points: 2
#     Edge 53, Type (0, 0), BuildingBlock: AJUNOK_clean_linker_0, # of connection points: 2
#     Edge 54, Type (0, 0), BuildingBlock: AJUNOK_clean_linker_0, # of connection points: 2
#     Edge 55, Type (0, 0), BuildingBlock: AJUNOK_clean_linker_0, # of connection points: 2
# Relax obj value: 0.179
# Max RMSD: 0.150
# Mean RMSD: 0.150
data_MOF--net-zfo--node1-XOMCOT_clean_sbu_1--edge1-AJUNOK_clean_linker_0
_symmetry_space_group_name_H-M    P1
_symmetry_Int_Tables_number       1
_symmetry_cell_setting            triclinic
loop_
_symmetry_equiv_pos_as_xyz
'x, y, z'
_cell_length_a     27.291671
_cell_length_b     27.296519
_cell_length_c     37.653767
_cell_angle_alpha  89.957458
_cell_angle_beta   89.944359
_cell_angle_gamma 90.162099
loop_
_atom_site_label
_atom_site_type_symbol
_atom_site_fract_x
_atom_site_fract_y
_atom_site_fract_z
_atom_type_partial_charge
C0 C 1.00298 0.23828 0.20042 0.0
C1 C 0.95296 0.23788 0.20284 0.0
N2 N 0.93436 0.25761 0.17302 0.0
N3 N 0.01693 0.25918 0.16955 0.0
C4 C 0.97407 0.27031 0.15315 0.0
H5 H 0.02734 0.22118 0.21921 0.0
Co6 Co 0.08297 0.25754 0.1549 0.0
C7 C 0.09114 0.33114 0.09735 0.0
O8 O 0.12688 0.3526 0.11484 0.0
N9 N 0.14969 0.25342 0.14123 0.0
C10 C 0.21699 0.23734 0.10979 0.0
C11 C 0.16676 0.24162 0.10865 0.0
C12 C 0.19051 0.2561 0.1617 0.0
N13 N 0.23189 0.24617 0.14324 0.0
O14 O 0.09634 0.31609 0.18186 0.0
H15 H 0.144 0.23559 0.08555 0.0
H16 H 0.19003 0.26359 0.18988 0.0
O17 O 0.06853 0.29525 0.11177 0.0
C18 C 0.1044 0.30734 0.21464 0.0
O19 O 0.10561 0.26157 0.22532 0.0
N20 N 0.06979 0.19917 0.1314 0.0
C21 C 0.03888 0.10723 0.10938 0.0
C22 C 0.02612 0.14893 0.08993 0.0
C23 C 0.04162 0.19479 0.10159 0.0
C24 C 0.08484 0.15879 0.14948 0.0
C25 C 0.06989 0.11223 0.13884 0.0
H26 H 0.02856 0.22645 0.08761 0.0
H27 H 0.10643 0.16309 0.17336 0.0
H28 H 0.97207 0.28421 0.1263 0.0
H29 H 0.93188 0.22254 0.22454 0.0
H30 H 0.24074 0.22852 0.08767 0.0
H31 H 1.00266 0.14631 0.06681 0.0
H32 H 0.08019 0.08075 0.15467 0.0
C33 C 0.7995 1.00483 0.69053 0.0
C34 C 0.80468 0.95494 0.69084 0.0
N35 N 0.77154 0.9353 0.66848 0.0
N36 N 0.7631 0.01749 0.6682 0.0
C37 C 0.74667 0.97425 0.65501 0.0
H38 H 0.82156 0.03054 0.70544 0.0
Co39 Co 0.7479 0.0839 0.66042 0.0
C40 C 0.70697 0.09324 0.58814 0.0
O41 O 0.73161 0.13457 0.58625 0.0
N42 N 0.73294 0.15177 0.65479 0.0
C43 C 0.68642 0.21867 0.6512 0.0
C44 C 0.68652 0.16842 0.6519 0.0
C45 C 0.76044 0.19333 0.65586 0.0
N46 N 0.73305 0.23455 0.65332 0.0
O47 O 0.69154 0.07831 0.69089 0.0
H48 H 0.65442 0.14527 0.65031 0.0
H49 H 0.79977 0.19394 0.65842 0.0
O50 O 0.70908 0.06746 0.61674 0.0
C51 C 0.70407 0.08347 0.72336 0.0
O52 O 0.75106 0.08548 0.73072 0.0
N53 N 0.8059 0.08902 0.63415 0.0
C54 C 0.90201 0.06796 0.61563 0.0
C55 C 0.8634 0.05219 0.59409 0.0
C56 C 0.81541 0.06212 0.60428 0.0
C57 C 0.84347 0.1075 0.65386 0.0
C58 C 0.89198 0.09805 0.64476 0.0
H59 H 0.78681 0.04298 0.59038 0.0
H60 H 0.83581 0.1246 0.67915 0.0
H61 H 0.71806 0.97164 0.63532 0.0
H62 H 0.83093 0.93468 0.70654 0.0
H63 H 0.65415 0.24154 0.65024 0.0
H64 H 0.87006 0.02818 0.5717 0.0
H65 H 0.92098 0.10965 0.66253 0.0
C66 C 0.00967 0.80438 0.18452 0.0
C67 C 0.0596 0.80417 0.18844 0.0
N68 N 0.07813 0.76939 0.16707 0.0
N69 N 0.9963 0.76987 0.16079 0.0
C70 C 0.03904 0.74931 0.15022 0.0
H71 H 0.98449 0.82865 0.19794 0.0
Co72 Co 0.93005 0.75997 0.14981 0.0
C73 C 0.92382 0.72425 0.07672 0.0
O74 O 0.88751 0.75545 0.07353 0.0
N75 N 0.86188 0.74965 0.14104 0.0
C76 C 0.79346 0.70633 0.13244 0.0
C77 C 0.84362 0.70477 0.13334 0.0
C78 C 0.82124 0.77766 0.14557 0.0
N79 N 0.7792 0.7523 0.13989 0.0
O80 O 0.92867 0.70265 0.17866 0.0
H81 H 0.86556 0.67221 0.12974 0.0
H82 H 0.82179 0.81539 0.15402 0.0
O83 O 0.94712 0.72122 0.10628 0.0
C84 C 0.92093 0.71398 0.21102 0.0
O85 O 0.92097 0.76054 0.21978 0.0
N86 N 0.93164 0.81913 0.12452 0.0
C87 C 0.95334 0.91458 0.10347 0.0
C88 C 0.97284 0.87471 0.08501 0.0
C89 C 0.96268 0.82734 0.09659 0.0
C90 C 0.91168 0.85761 0.14233 0.0
C91 C 0.92148 0.90567 0.13198 0.0
H92 H 0.98361 0.79804 0.08514 0.0
H93 H 0.89238 0.8513 0.16697 0.0
H94 H 0.04154 0.72021 0.13079 0.0
H95 H 0.08083 0.82861 0.20508 0.0
H96 H 0.76936 0.67523 0.12863 0.0
H97 H 0.99893 0.88015 0.06365 0.0
H98 H 0.9079 0.93542 0.14823 0.0
C99 C 0.23087 0.01986 0.71215 0.0
C100 C 0.23612 0.06974 0.71385 0.0
N101 N 0.25904 0.085 0.68422 0.0
N102 N 0.25083 1.00295 0.68176 0.0
C103 C 0.2672 0.04383 0.6649 0.0
H104 H 0.21107 0.99772 0.73114 0.0
Co105 Co 0.24479 0.93647 0.66916 0.0
C106 C 0.31538 0.92055 0.61102 0.0
O107 O 0.33549 0.88597 0.63036 0.0
N108 N 0.23681 0.86916 0.65734 0.0
C109 C 0.21582 0.80095 0.62836 0.0
C110 C 0.21749 0.85135 0.62688 0.0
C111 C 0.24688 0.82853 0.67676 0.0
N112 N 0.23451 0.78672 0.6597 0.0
O113 O 0.30312 0.92203 0.69566 0.0
H114 H 0.20557 0.8736 0.60476 0.0
H115 H 0.26287 0.82911 0.70297 0.0
O116 O 0.28109 0.94631 0.6246 0.0
C117 C 0.29235 0.91525 0.72833 0.0
O118 O 0.24586 0.91476 0.73737 0.0
N119 N 0.1863 0.95119 0.64689 0.0
C120 C 0.09353 0.9809 0.6262 0.0
C121 C 0.13485 0.99529 0.60664 0.0
C122 C 0.18123 0.98032 0.61764 0.0
C123 C 0.14655 0.93604 0.66574 0.0
C124 C 0.09969 0.95051 0.65588 0.0
H125 H 0.21283 0.9942 0.60368 0.0
H126 H 0.15163 0.91434 0.6895 0.0
H127 H 0.28319 0.04372 0.63859 0.0
H128 H 0.22147 0.09334 0.73435 0.0
H129 H 0.20319 0.77655 0.60761 0.0
H130 H 0.13144 0.01925 0.58383 0.0
H131 H 0.06891 0.94 0.67241 0.0
C132 C 0.51338 0.28248 0.83083 0.0
C133 C 0.46346 0.28106 0.82647 0.0
N134 N 0.44324 0.25927 0.85512 0.0
N135 N 0.52553 0.26048 0.86163 0.0
C136 C 0.48194 0.24577 0.87551 0.0
H137 H 0.53898 0.30061 0.81327 0.0
Co138 Co 0.59023 0.26074 0.88007 0.0
C139 C 0.5585 0.24278 0.95606 0.0
O140 O 0.56473 0.28876 0.96493 0.0
N141 N 0.65604 0.26059 0.8977 0.0
C142 C 0.72188 0.27202 0.9317 0.0
C143 C 0.67175 0.2709 0.93089 0.0
C144 C 0.6982 0.25534 0.87884 0.0
N145 N 0.73898 0.26253 0.89893 0.0
O146 O 0.60126 0.19755 0.85904 0.0
H147 H 0.64908 0.27987 0.95317 0.0
H148 H 0.69871 0.24705 0.8508 0.0
O149 O 0.56767 0.22798 0.92448 0.0
C150 C 0.60916 0.20104 0.82575 0.0
O151 O 0.61147 0.24477 0.81133 0.0
N152 N 0.58037 0.32586 0.89713 0.0
C153 C 0.56837 0.4253 0.91282 0.0
C154 C 0.53023 0.3919 0.91865 0.0
C155 C 0.53666 0.34266 0.91015 0.0
C156 C 0.61695 0.35863 0.8897 0.0
C157 C 0.61217 0.40816 0.89806 0.0
H158 H 0.50651 0.31807 0.91504 0.0
H159 H 0.64979 0.34697 0.87616 0.0
H160 H 0.47832 0.22908 0.90144 0.0
H161 H 0.44388 0.29596 0.80401 0.0
H162 H 0.74399 0.28139 0.95457 0.0
H163 H 0.49492 0.4039 0.92845 0.0
H164 H 0.64199 0.43308 0.892 0.0
C165 C 0.7721 0.49155 0.32278 0.0
C166 C 0.77708 0.44157 0.32477 0.0
N167 N 0.77556 0.42824 0.35913 0.0
N168 N 0.76799 0.51055 0.35574 0.0
C169 C 0.77109 0.47084 0.37743 0.0
H170 H 0.76787 0.51193 0.29845 0.0
Co171 Co 0.74613 0.57551 0.36394 0.0
C172 C 0.77373 0.60481 0.43655 0.0
O173 O 0.73324 0.63034 0.43878 0.0
N174 N 0.72258 0.64182 0.37015 0.0
C175 C 0.67518 0.70729 0.37999 0.0
C176 C 0.67652 0.65708 0.37803 0.0
C177 C 0.7482 0.6845 0.36713 0.0
N178 N 0.72017 0.72459 0.37292 0.0
O179 O 0.80235 0.60028 0.33957 0.0
H180 H 0.64531 0.63388 0.38309 0.0
H181 H 0.78693 0.68641 0.3614 0.0
O182 O 0.78253 0.57864 0.40908 0.0
C183 C 0.79547 0.60923 0.30677 0.0
O184 O 0.75155 0.60236 0.29334 0.0
N185 N 0.69007 0.54931 0.38512 0.0
C186 C 0.60546 0.4955 0.4009 0.0
C187 C 0.6442 0.49871 0.42545 0.0
C188 C 0.68576 0.52673 0.41737 0.0
C189 C 0.65344 0.54609 0.36087 0.0
C190 C 0.61015 0.52172 0.36884 0.0
H191 H 0.71565 0.5268 0.43606 0.0
H192 H 0.65798 0.56312 0.33511 0.0
H193 H 0.76789 0.47274 0.40597 0.0
H194 H 0.77778 0.41659 0.30246 0.0
H195 H 0.64333 0.72951 0.38567 0.0
H196 H 0.64428 0.47801 0.44987 0.0
H197 H 0.58114 0.52273 0.3493 0.0
C198 C 0.52276 0.84582 0.88812 0.0
C199 C 0.57279 0.8478 0.88364 0.0
N200 N 0.58886 0.80276 0.87481 0.0
N201 N 0.50691 0.79973 0.88218 0.0
C202 C 0.54804 0.77443 0.87393 0.0
H203 H 0.49951 0.87589 0.89612 0.0
Co204 Co 0.44198 0.77719 0.88832 0.0
C205 C 0.41133 0.83416 0.95086 0.0
O206 O 0.3734 0.85062 0.93307 0.0
N207 N 0.37666 0.75483 0.8954 0.0
C208 C 0.31134 0.72047 0.92079 0.0
C209 C 0.36119 0.72681 0.9228 0.0
C210 C 0.33507 0.76522 0.87722 0.0
N211 N 0.29456 0.74483 0.89216 0.0
O212 O 0.41757 0.83543 0.86634 0.0
H213 H 0.38447 0.71281 0.94366 0.0
H214 H 0.33434 0.78911 0.8544 0.0
O215 O 0.44156 0.80547 0.93563 0.0
C216 C 0.42323 0.83262 0.83271 0.0
O217 O 0.44843 0.79561 0.81996 0.0
N218 N 0.46566 0.7183 0.90546 0.0
C219 C 0.50617 0.62651 0.91618 0.0
C220 C 0.51248 0.66349 0.94167 0.0
C221 C 0.49193 0.70974 0.93567 0.0
C222 C 0.45835 0.6824 0.88102 0.0
C223 C 0.47807 0.63617 0.88592 0.0
H224 H 0.49872 0.73884 0.95441 0.0
H225 H 0.43813 0.69041 0.85702 0.0
H226 H 0.54827 0.7354 0.86919 0.0
H227 H 0.59564 0.87988 0.8872 0.0
H228 H 0.28915 0.69989 0.93941 0.0
H229 H 0.53444 0.65725 0.96518 0.0
H230 H 0.47211 0.60836 0.86585 0.0
C231 C 0.30589 0.49237 0.35192 0.0
C232 C 0.30859 0.54275 0.3528 0.0
N233 N 0.27183 0.55919 0.37326 0.0
N234 N 0.26765 0.47706 0.37191 0.0
C235 C 0.24745 0.51888 0.38445 0.0
H236 H 0.33093 0.46825 0.3382 0.0
Co237 Co 0.25094 0.41086 0.38022 0.0
C238 C 0.22325 0.40527 0.45589 0.0
O239 O 0.24704 0.36349 0.4567 0.0
N240 N 0.23282 0.34376 0.38771 0.0
C241 C 0.18344 0.28053 0.40026 0.0
C242 C 0.18676 0.33061 0.39723 0.0
C243 C 0.25637 0.30016 0.38426 0.0
N244 N 0.22725 0.26147 0.39194 0.0
O245 O 0.19109 0.41908 0.35426 0.0
H246 H 0.15715 0.35609 0.40185 0.0
H247 H 0.29401 0.29583 0.37637 0.0
O248 O 0.22055 0.42907 0.4265 0.0
C249 C 0.20079 0.41853 0.32104 0.0
O250 O 0.247 0.419 0.31128 0.0
N251 N 0.31236 0.40243 0.40132 0.0
C252 C 0.41322 0.4065 0.41338 0.0
C253 C 0.38055 0.43293 0.43497 0.0
C254 C 0.33015 0.43028 0.42858 0.0
C255 C 0.34362 0.37691 0.38019 0.0
C256 C 0.39359 0.37598 0.38703 0.0
H257 H 0.3064 0.45481 0.44301 0.0
H258 H 0.33036 0.36068 0.35586 0.0
H259 H 0.21566 0.51992 0.40149 0.0
H260 H 0.33632 0.56549 0.3404 0.0
H261 H 0.15101 0.25962 0.4071 0.0
H262 H 0.39366 0.45907 0.45438 0.0
H263 H 0.417 0.35515 0.36944 0.0
C264 C 0.0242 0.80938 0.83658 0.0
C265 C 0.07448 0.81093 0.83649 0.0
N266 N 0.09108 0.77408 0.85692 0.0
N267 N 0.0087 0.77187 0.85708 0.0
C268 C 0.05042 0.7511 0.86942 0.0
H269 H 1.00023 0.83427 0.82259 0.0
Co270 Co 0.94174 0.75728 0.86238 0.0
C271 C 0.92644 0.71902 0.93408 0.0
O272 O 0.88676 0.74613 0.93411 0.0
N273 N 0.87305 0.74197 0.86563 0.0
C274 C 0.80614 0.6945 0.86756 0.0
C275 C 0.85647 0.69521 0.86736 0.0
C276 C 0.83121 0.76899 0.86497 0.0
N277 N 0.79027 0.74096 0.86591 0.0
O278 O 0.94957 0.70079 0.83311 0.0
H279 H 0.87967 0.66327 0.86902 0.0
H280 H 0.82984 0.80837 0.86368 0.0
O281 O 0.95469 0.71926 0.90679 0.0
C282 C 0.94667 0.71264 0.8004 0.0
O283 O 0.94489 0.75947 0.79241 0.0
N284 N 0.93501 0.81587 0.88777 0.0
C285 C 0.95171 0.91322 0.90607 0.0
C286 C 0.97104 0.87538 0.92683 0.0
C287 C 0.96254 0.82681 0.91706 0.0
C288 C 0.91411 0.85242 0.86845 0.0
C289 C 0.91993 0.90121 0.87818 0.0
H290 H 0.98316 0.79886 0.93046 0.0
H291 H 0.89708 0.84416 0.84325 0.0
H292 H 0.05108 0.71955 0.88683 0.0
H293 H 0.0971 0.83776 0.823 0.0
H294 H 0.78303 0.66232 0.86961 0.0
H295 H 0.99662 0.88311 0.9481 0.0
H296 H 0.90391 0.92943 0.86165 0.0
C297 C 0.22038 0.98572 0.35191 0.0
C298 C 0.22254 0.03545 0.34718 0.0
N299 N 0.24708 0.05496 0.37467 0.0
N300 N 0.24417 0.97331 0.382 0.0
C301 C 0.25946 0.0167 0.39572 0.0
H302 H 0.20043 0.96054 0.33517 0.0
Co303 Co 0.2461 0.90823 0.39846 0.0
C304 C 0.31969 0.90858 0.45624 0.0
O305 O 0.34419 0.87419 0.43957 0.0
N306 N 0.24664 0.84233 0.41436 0.0
C307 C 0.23858 0.77659 0.44898 0.0
C308 C 0.236 0.82687 0.44758 0.0
C309 C 0.25504 0.80046 0.39598 0.0
N310 N 0.25086 0.75991 0.41652 0.0
O311 O 0.30435 0.89743 0.37071 0.0
H312 H 0.22632 0.8507 0.46941 0.0
H313 H 0.26414 0.79945 0.36805 0.0
O314 O 0.2825 0.9276 0.44106 0.0
C315 C 0.29079 0.88819 0.33891 0.0
O316 O 0.24383 0.88208 0.33268 0.0
N317 N 0.18724 0.91883 0.42176 0.0
C318 C 0.09279 0.94887 0.43739 0.0
C319 C 0.13273 0.96932 0.45546 0.0
C320 C 0.18002 0.95385 0.44711 0.0
C321 C 0.14865 0.89608 0.40591 0.0
C322 C 0.1009 0.91038 0.41351 0.0
H323 H 0.21055 0.97316 0.45872 0.0
H324 H 0.1552 0.8693 0.38529 0.0
H325 H 0.27787 0.02046 0.42102 0.0
H326 H 0.20495 0.0561 0.32622 0.0
H327 H 0.2306 0.75406 0.47194 0.0
H328 H 0.12784 0.99982 0.47349 0.0
H329 H 0.07079 0.89389 0.39902 0.0
C330 C 0.01226 0.23448 0.83896 0.0
C331 C 0.96228 0.23665 0.83542 0.0
N332 N 0.94421 0.2628 0.86264 0.0
N333 N 0.02633 0.25974 0.86804 0.0
C334 C 0.98373 0.27628 0.88221 0.0
H335 H 0.03644 0.21284 0.82258 0.0
Co336 Co 0.09183 0.25819 0.88409 0.0
C337 C 0.09597 0.32938 0.94288 0.0
O338 O 0.13151 0.35223 0.92604 0.0
N339 N 0.15786 0.25488 0.89912 0.0
C340 C 0.22487 0.24019 0.93111 0.0
C341 C 0.17447 0.24277 0.93176 0.0
C342 C 0.19892 0.25923 0.87912 0.0
N343 N 0.24021 0.25075 0.89799 0.0
O344 O 0.10573 0.31781 0.85836 0.0
H345 H 0.15131 0.23526 0.95446 0.0
H346 H 0.1986 0.26677 0.85094 0.0
O347 O 0.07484 0.29305 0.92792 0.0
C348 C 0.1131 0.30875 0.82549 0.0
O349 O 0.1119 0.26296 0.81491 0.0
N350 N 0.07878 0.19849 0.90593 0.0
C351 C 0.04548 0.10385 0.91728 0.0
C352 C 0.02291 0.14328 0.93453 0.0
C353 C 0.04053 0.1907 0.92869 0.0
C354 C 0.10384 0.16019 0.89175 0.0
C355 C 0.08864 0.11235 0.89799 0.0
H356 H 0.02049 0.22115 0.93971 0.0
H357 H 0.13362 0.1669 0.87339 0.0
H358 H 0.98135 0.29556 0.90724 0.0
H359 H 0.94058 0.21737 0.81581 0.0
H360 H 0.24845 0.2313 0.95328 0.0
H361 H 0.98968 0.13804 0.94984 0.0
H362 H 0.108 0.08256 0.88523 0.0
C363 C 0.80172 1.00129 0.35204 0.0
C364 C 0.80336 0.95169 0.34666 0.0
N365 N 0.7637 0.93109 0.36198 0.0
N366 N 0.76171 0.0129 0.37124 0.0
C367 C 0.73914 0.96918 0.37699 0.0
H368 H 0.82937 0.02736 0.34375 0.0
Co369 Co 0.75439 0.07852 0.38663 0.0
C370 C 0.67798 0.04035 0.44272 0.0
O371 O 0.64349 0.01824 0.42446 0.0
N372 N 0.74928 0.14435 0.40136 0.0
C373 C 0.7482 0.21045 0.43593 0.0
C374 C 0.74754 0.16012 0.43532 0.0
C375 C 0.75174 0.18601 0.38179 0.0
N376 N 0.75073 0.22688 0.40226 0.0
O377 O 0.69808 0.08701 0.35664 0.0
H378 H 0.74824 0.13656 0.45839 0.0
H379 H 0.75529 0.18635 0.35316 0.0
O380 O 0.71446 0.06019 0.42716 0.0
C381 C 0.70796 0.09078 0.32357 0.0
O382 O 0.75351 0.08465 0.31325 0.0
N383 N 0.81075 0.07133 0.4137 0.0
C384 C 0.90426 0.04558 0.43503 0.0
C385 C 0.86336 0.02161 0.44946 0.0
C386 C 0.81655 0.03508 0.43836 0.0
C387 C 0.84979 0.09782 0.40187 0.0
C388 C 0.89705 0.08576 0.41246 0.0
H389 H 0.7857 0.01313 0.44688 0.0
H390 H 0.84459 0.12562 0.38176 0.0
H391 H 0.7061 0.96503 0.39245 0.0
H392 H 0.83317 0.93236 0.33403 0.0
H393 H 0.74927 0.23313 0.45949 0.0
H394 H 0.8676 0.98983 0.46642 0.0
H395 H 0.9279 0.10504 0.40082 0.0
C396 C 0.51546 0.7879 0.21183 0.0
C397 C 0.56564 0.79169 0.21039 0.0
N398 N 0.57939 0.79421 0.17612 0.0
N399 N 0.49692 0.78853 0.17858 0.0
C400 C 0.53696 0.79317 0.15747 0.0
H401 H 0.49475 0.78153 0.23579 0.0
Co402 Co 0.43219 0.7718 0.16484 0.0
C403 C 0.41134 0.83746 0.10516 0.0
O404 O 0.37249 0.85316 0.12231 0.0
N405 N 0.3675 0.75393 0.15037 0.0
C406 C 0.30676 0.72475 0.11687 0.0
C407 C 0.35653 0.73053 0.11975 0.0
C408 C 0.3231 0.76234 0.16543 0.0
N409 N 0.28543 0.74479 0.1456 0.0
O410 O 0.40735 0.82777 0.19 0.0
H411 H 0.38286 0.71928 0.09998 0.0
H412 H 0.31827 0.78272 0.18969 0.0
O413 O 0.44008 0.80719 0.12034 0.0
C414 C 0.40009 0.81289 0.2218 0.0
O415 O 0.4069 0.76626 0.2289 0.0
N416 N 0.45635 0.71479 0.1451 0.0
C417 C 0.49845 0.6246 0.13203 0.0
C418 C 0.50169 0.66182 0.1065 0.0
C419 C 0.48034 0.70734 0.11368 0.0
C420 C 0.45111 0.67814 0.1692 0.0
C421 C 0.47169 0.63263 0.16315 0.0
H422 H 0.48419 0.73651 0.09455 0.0
H423 H 0.43192 0.68495 0.19382 0.0
H424 H 0.53516 0.79341 0.12886 0.0
H425 H 0.59032 0.78883 0.23279 0.0
H426 H 0.28778 0.70735 0.09502 0.0
H427 H 0.52183 0.65631 0.08203 0.0
H428 H 0.46771 0.60419 0.18306 0.0
C429 C 0.31243 0.51495 0.70344 0.0
C430 C 0.31093 0.56415 0.71048 0.0
N431 N 0.27311 0.584 0.69255 0.0
N432 N 0.27547 0.50261 0.68148 0.0
C433 C 0.25074 0.54517 0.67671 0.0
H434 H 0.33981 0.4896 0.71302 0.0
Co435 Co 0.27253 0.43745 0.664 0.0
C436 C 0.22093 0.48521 0.59705 0.0
O437 O 0.22841 0.53225 0.60153 0.0
N438 N 0.27084 0.37173 0.64786 0.0
C439 C 0.28073 0.30637 0.61331 0.0
C440 C 0.28104 0.35664 0.61453 0.0
C441 C 0.26454 0.32964 0.66646 0.0
N442 N 0.27065 0.28912 0.64603 0.0
O443 O 0.21314 0.42621 0.69025 0.0
H444 H 0.29037 0.38072 0.59272 0.0
H445 H 0.256 0.32891 0.69449 0.0
O446 O 0.23703 0.45462 0.62006 0.0
C447 C 0.22177 0.42068 0.72338 0.0
O448 O 0.26711 0.42543 0.73455 0.0
N449 N 0.33294 0.44735 0.64085 0.0
C450 C 0.42909 0.46599 0.61893 0.0
C451 C 0.39145 0.49966 0.61191 0.0
C452 C 0.34346 0.48901 0.62225 0.0
C453 C 0.36888 0.41413 0.64774 0.0
C454 C 0.41644 0.42163 0.63558 0.0
H455 H 0.31574 0.51636 0.61799 0.0
H456 H 0.36115 0.3821 0.66371 0.0
H457 H 0.21716 0.54787 0.66189 0.0
H458 H 0.33628 0.58333 0.72757 0.0
H459 H 0.28921 0.28421 0.59029 0.0
H460 H 0.3989 0.53542 0.60079 0.0
H461 H 0.44363 0.39386 0.64112 0.0
C462 C 0.50166 0.28046 0.21398 0.0
C463 C 0.45149 0.27766 0.21716 0.0
N464 N 0.43352 0.25204 0.18945 0.0
N465 N 0.51599 0.25657 0.18443 0.0
C466 C 0.47364 0.23889 0.1704 0.0
H467 H 0.52579 0.3013 0.23102 0.0
Co468 Co 0.58072 0.25815 0.16559 0.0
C469 C 0.54226 0.23869 0.09136 0.0
O470 O 0.53854 0.2855 0.08453 0.0
N471 N 0.64565 0.25829 0.14658 0.0
C472 C 0.70795 0.26991 0.10907 0.0
C473 C 0.65794 0.26829 0.11251 0.0
C474 C 0.68947 0.25364 0.1633 0.0
N475 N 0.72787 0.26126 0.14106 0.0
O476 O 0.59376 0.19609 0.18789 0.0
H477 H 0.63248 0.27661 0.09155 0.0
H478 H 0.69322 0.24708 0.19151 0.0
O479 O 0.55883 0.22406 0.12138 0.0
C480 C 0.60372 0.20441 0.2205 0.0
O481 O 0.60469 0.25007 0.23144 0.0
N482 N 0.56994 0.32377 0.14839 0.0
C483 C 0.55913 0.42393 0.13389 0.0
C484 C 0.51901 0.39207 0.13177 0.0
C485 C 0.52494 0.34254 0.13971 0.0
C486 C 0.60857 0.35546 0.15232 0.0
C487 C 0.60457 0.40485 0.1437 0.0
H488 H 0.49302 0.31947 0.13798 0.0
H489 H 0.64285 0.3435 0.16347 0.0
H490 H 0.47186 0.22085 0.14494 0.0
H491 H 0.42982 0.29516 0.23759 0.0
H492 H 0.7281 0.27752 0.08491 0.0
H493 H 0.48281 0.40556 0.12528 0.0
H494 H 0.63655 0.42819 0.14606 0.0
C495 C 0.85107 0.4972 0.64491 0.0
C496 C 0.84935 0.447 0.6486 0.0
N497 N 0.80282 0.43391 0.65573 0.0
N498 N 0.80585 0.51591 0.65 0.0
C499 C 0.77739 0.4763 0.65699 0.0
H500 H 0.88291 0.5185 0.63741 0.0
Co501 Co 0.78749 0.58194 0.64279 0.0
C502 C 0.84331 0.60599 0.57854 0.0
O503 O 0.86484 0.64265 0.59492 0.0
N504 N 0.76904 0.64793 0.63422 0.0
C505 C 0.73678 0.71227 0.60633 0.0
C506 C 0.74451 0.66271 0.60492 0.0
C507 C 0.77631 0.68981 0.65293 0.0
N508 N 0.75654 0.72938 0.63656 0.0
O509 O 0.84812 0.60363 0.66296 0.0
H510 H 0.73359 0.63902 0.58332 0.0
H511 H 0.79573 0.69136 0.67796 0.0
O512 O 0.81398 0.57833 0.59559 0.0
C513 C 0.84784 0.59652 0.69646 0.0
O514 O 0.80944 0.57501 0.71075 0.0
N515 N 0.72665 0.56149 0.62677 0.0
C516 C 0.6313 0.53084 0.61525 0.0
C517 C 0.66755 0.52127 0.58982 0.0
C518 C 0.71565 0.53678 0.59623 0.0
C519 C 0.69151 0.57179 0.65123 0.0
C520 C 0.64349 0.55685 0.64598 0.0
H521 H 0.74398 0.52769 0.57731 0.0
H522 H 0.70137 0.59088 0.67538 0.0
H523 H 0.73834 0.47815 0.66172 0.0
H524 H 0.87937 0.42183 0.64431 0.0
H525 H 0.71932 0.73435 0.5861 0.0
H526 H 0.65913 0.50048 0.56609 0.0
H527 H 0.61623 0.56456 0.66615 0.0
C528 C 0.04593 0.0173 0.09975 0.0
C529 C 0.0164 0.05924 0.10144 0.0
C530 C 0.02501 0.9706 0.09798 0.0
C531 C 0.97379 0.96423 0.09799 0.0
H532 H 0.08546 0.02055 0.1012 0.0
H533 H 0.04919 0.9392 0.09875 0.0
S534 S 0.88051 0.06258 0.09899 0.0
N535 N 0.93347 0.09185 0.10093 0.0
N536 N 0.89415 1.00374 0.09689 0.0
C537 C 0.9439 1.00598 0.09766 0.0
C538 C 0.96521 0.05361 0.09948 0.0
C539 C 0.03952 0.05255 0.61398 0.0
C540 C 0.04479 1.00157 0.61822 0.0
C541 C 0.99308 0.07392 0.61147 0.0
C542 C 0.95058 0.04492 0.6127 0.0
H543 H 0.07136 0.07633 0.61433 0.0
H544 H 0.9903 0.11343 0.60966 0.0
S545 S 0.94462 0.90957 0.62105 0.0
N546 N 1.00377 0.92247 0.62123 0.0
N547 N 0.91639 0.96272 0.6173 0.0
C548 C 0.95536 0.9938 0.61565 0.0
C549 C 1.00253 0.97209 0.61823 0.0
C550 C 0.55659 0.55963 0.8907 0.0
C551 C 0.52961 0.57806 0.91955 0.0
C552 C 0.57148 0.51075 0.88976 0.0
C553 C 0.55998 0.47848 0.91768 0.0
H554 H 0.56432 0.58268 0.86792 0.0
H555 H 0.58965 0.49758 0.86604 0.0
S556 S 0.49589 0.51055 1.0014 0.0
N557 N 0.49588 0.56188 0.97813 0.0
N558 N 0.5249 0.46975 0.9768 0.0
C559 C 0.53602 0.49734 0.94782 0.0
C560 C 0.52074 0.54728 0.94873 0.0
C561 C 0.53672 0.44448 0.37708 0.0
C562 C 0.56087 0.46433 0.40687 0.0
C563 C 0.49021 0.42383 0.37974 0.0
C564 C 0.4664 0.41901 0.41271 0.0
H565 H 0.55276 0.44656 0.35083 0.0
H566 H 0.47208 0.41409 0.35519 0.0
S567 S 0.52053 0.44731 0.50055 0.0
N568 N 0.56103 0.46836 0.47171 0.0
N569 N 0.47561 0.42375 0.47673 0.0
C570 C 0.49275 0.432 0.44336 0.0
C571 C 0.53959 0.45553 0.44055 0.0
C572 C 1.00178 0.03197 0.94484 0.0
C573 C 0.02036 0.05587 0.91456 0.0
C574 C 0.97841 0.98621 0.94202 0.0
C575 C 0.97248 0.9633 0.9088 0.0
H576 H 1.00607 0.04833 0.97086 0.0
H577 H 0.96522 0.96849 0.96596 0.0
S578 S 0.0135 0.0118 0.8214 0.0
N579 N 0.02891 0.05459 0.85022 0.0
N580 N 0.98794 0.96784 0.84514 0.0
C581 C 0.99056 0.98726 0.87836 0.0
C582 C 0.0137 0.03375 0.88118 0.0
C583 C 0.02317 0.98796 0.40627 0.0
C584 C 0.04451 0.97302 0.43842 0.0
C585 C 0.97844 0.01247 0.40578 0.0
C586 C 0.95325 0.023 0.43742 0.0
H587 H 0.04144 0.98103 0.38121 0.0
H588 H 0.96299 0.0224 0.38027 0.0
S589 S 0.99372 0.99211 0.52847 0.0
N590 N 0.03768 0.97067 0.50269 0.0
N591 N 0.9528 0.01709 0.50179 0.0
C592 C 0.97413 0.00848 0.46981 0.0
C593 C 0.02009 0.98362 0.47032 0.0
C594 C 0.52264 0.49551 0.10185 0.0
C595 C 0.55194 0.47738 0.12968 0.0
C596 C 0.5085 0.54483 0.10085 0.0
C597 C 0.52332 0.57727 0.12766 0.0
H598 H 0.50881 0.47093 0.08162 0.0
H599 H 0.48337 0.55685 0.08039 0.0
S600 S 0.60389 0.54994 0.20419 0.0
N601 N 0.59766 0.49706 0.18342 0.0
N602 N 0.5724 0.58988 0.18058 0.0
C603 C 0.55544 0.56061 0.15406 0.0
C604 C 0.56946 0.51055 0.15534 0.0
C605 C 0.51595 0.46378 0.63981 0.0
C606 C 0.48179 0.4793 0.61406 0.0
C607 C 0.56475 0.47873 0.63865 0.0
C608 C 0.58157 0.51048 0.61208 0.0
H609 H 0.5048 0.44162 0.66226 0.0
H610 H 0.58924 0.46675 0.65956 0.0
S611 S 0.50901 0.5629 0.53837 0.0
N612 N 0.46982 0.52766 0.56013 0.0
N613 N 0.56178 0.55752 0.55942 0.0
C614 C 0.54888 0.52588 0.58571 0.0
C615 C 0.4989 0.51011 0.58647 0.0
C616 C 0.12636 0.35905 0.03911 0.0
C617 C 0.08658 0.33911 0.05819 0.0
C618 C 0.12762 0.35841 1.00181 0.0
C619 C 0.08926 0.33757 0.98181 0.0
H620 H 0.15821 0.37295 0.05303 0.0
H621 H 0.1603 0.37198 0.98871 0.0
S622 S 0.97232 0.28938 1.01841 0.0
N623 N 1.00437 0.30503 0.05384 0.0
N624 N 1.00735 0.30248 0.98388 0.0
C625 C 0.04769 0.32073 1.00039 0.0
C626 C 0.04618 0.32188 0.03846 0.0
C627 C 0.66266 0.09603 0.49346 0.0
C628 C 0.67263 0.04853 0.48132 0.0
C629 C 0.66928 0.10867 0.52921 0.0
C630 C 0.68619 0.07433 0.5543 0.0
H631 H 0.65261 0.12447 0.47476 0.0
H632 H 0.66414 0.14661 0.5368 0.0
S633 S 0.71305 0.94353 0.53625 0.0
N634 N 0.69663 0.96587 0.49722 0.0
N635 N 0.70865 0.98937 0.56471 0.0
C636 C 0.69263 0.02562 0.54297 0.0
C637 C 0.68612 0.01282 0.50632 0.0
C638 C 0.90167 0.67404 0.98772 0.0
C639 C 0.93982 0.69629 0.96839 0.0
C640 C 0.90113 0.67507 0.02489 0.0
C641 C 0.93871 0.69841 0.04401 0.0
H642 H 0.86896 0.66159 0.97408 0.0
H643 H 0.86796 0.66357 0.03844 0.0
S644 S 0.05404 0.74796 1.00623 0.0
N645 N 0.02169 0.73123 0.97116 0.0
N646 N 0.02054 0.7334 0.0413 0.0
C647 C 0.9809 0.71299 0.02528 0.0
C648 C 0.98151 0.71185 0.98722 0.0
C649 C 0.30071 0.95371 0.51302 0.0
C650 C 0.32698 0.91666 0.49526 0.0
C651 C 0.29959 0.95658 0.55032 0.0
C652 C 0.3246 0.92247 0.57175 0.0
H653 H 0.27935 0.97991 0.49805 0.0
H654 H 0.27743 0.98486 0.56235 0.0
S655 S 0.40457 0.82226 0.53863 0.0
N656 N 0.383 0.84813 0.50226 0.0
N657 N 0.38094 0.85346 0.57199 0.0
C658 C 0.35391 0.88737 0.55431 0.0
C659 C 0.3551 0.88449 0.51627 0.0
C660 C 0.49695 0.2127 0.0387 0.0
C661 C 0.53846 0.20618 0.0603 0.0
C662 C 0.50141 0.21428 1.00161 0.0
C663 C 0.54738 0.20894 0.98532 0.0
H664 H 0.46281 0.22484 0.05045 0.0
H665 H 0.47057 0.22754 0.98628 0.0
S666 S 0.66293 0.17354 0.02961 0.0
N667 N 0.62338 0.18034 0.06248 0.0
N668 N 0.6319 0.18381 0.9927 0.0
C669 C 0.58653 0.1923 1.0062 0.0
C670 C 0.58195 0.19056 0.04398 0.0
C671 C 0.82911 0.5604 0.52198 0.0
C672 C 0.84025 0.60486 0.53931 0.0
C673 C 0.81236 0.55979 0.48672 0.0
C674 C 0.80553 0.60371 0.46801 0.0
H675 H 0.83026 0.52616 0.53653 0.0
H676 H 0.80074 0.5253 0.4752 0.0
S677 S 0.83415 0.72907 0.49951 0.0
N678 N 0.84785 0.69335 0.53347 0.0
N679 N 0.81522 0.69205 0.46766 0.0
C680 C 0.81994 0.64788 0.48399 0.0
C681 C 0.83777 0.64851 0.51956 0.0
C682 C 0.37288 0.85726 0.04647 0.0
C683 C 0.41503 0.84487 0.06605 0.0
C684 C 0.37274 0.85606 1.00919 0.0
C685 C 0.41473 0.84238 0.98988 0.0
H686 H 0.33884 0.86558 0.05996 0.0
H687 H 0.33867 0.86368 0.99555 0.0
S688 S 0.53703 0.81512 0.02818 0.0
N689 N 0.50167 0.82474 0.06307 0.0
N690 N 0.50144 0.82244 0.99315 0.0
C691 C 0.45807 0.83323 1.00904 0.0
C692 C 0.45821 0.8345 0.04703 0.0
C693 C 0.20367 0.41599 0.55503 0.0
C694 C 0.20727 0.46672 0.56104 0.0
C695 C 0.20511 0.39664 0.52058 0.0
C696 C 0.2087 0.42724 0.49053 0.0
H697 H 0.20241 0.3907 0.57712 0.0
H698 H 0.20589 0.35717 0.51764 0.0
S699 S 0.20239 0.56297 0.49125 0.0
N700 N 0.20315 0.54752 0.53363 0.0
N701 N 0.20452 0.511 0.46894 0.0
C702 C 0.20523 0.47807 0.49594 0.0
C703 C 0.2046 0.49787 0.53117 0.0
C704 C 0.10722 0.33852 0.27665 0.0
C705 C 0.11793 0.34593 0.2404 0.0
C706 C 0.12969 0.3668 0.30315 0.0
C707 C 0.16432 0.40292 0.29427 0.0
H708 H 0.08365 0.3085 0.28475 0.0
H709 H 0.12339 0.35706 0.33068 0.0
S710 S 0.19919 0.44192 0.20319 0.0
N711 N 0.16027 0.3963 0.19692 0.0
N712 N 0.20322 0.44913 0.24665 0.0
C713 C 0.17169 0.41382 0.25804 0.0
C714 C 0.14831 0.38537 0.23106 0.0
C715 C 0.6849 0.09985 0.78702 0.0
C716 C 0.66917 0.09961 0.75128 0.0
C717 C 0.66153 0.1288 0.81273 0.0
C718 C 0.62188 0.15866 0.80341 0.0
H719 H 0.71794 0.08061 0.79464 0.0
H720 H 0.67748 0.13137 0.83901 0.0
S721 S 0.5596 0.16322 0.71605 0.0
N722 N 0.60561 0.12494 0.70999 0.0
N723 N 0.56287 0.18064 0.75798 0.0
C724 C 0.6025 0.15469 0.76897 0.0
C725 C 0.62572 0.12459 0.74296 0.0
C726 C 0.83337 0.61967 0.24709 0.0
C727 C 0.83482 0.62891 0.28385 0.0
C728 C 0.86523 0.64375 0.22364 0.0
C729 C 0.89886 0.67875 0.23612 0.0
H730 H 0.8061 0.59501 0.23616 0.0
H731 H 0.86087 0.63754 0.19542 0.0
S732 S 0.92118 0.71204 0.33023 0.0
N733 N 0.87637 0.67132 0.33197 0.0
N734 N 0.93506 0.71807 0.28775 0.0
C735 C 0.90288 0.68592 0.273 0.0
C736 C 0.87114 0.6606 0.29694 0.0
C737 C 0.40573 0.86111 0.77095 0.0
C738 C 0.39454 0.86301 0.80754 0.0
C739 C 0.37395 0.88065 0.74536 0.0
C740 C 0.32954 0.90243 0.7554 0.0
H741 H 0.43833 0.84242 0.7618 0.0
H742 H 0.38302 0.87622 0.71753 0.0
S743 S 0.28575 0.92234 0.84777 0.0
N744 N 0.33815 0.89303 0.85249 0.0
N745 N 0.27823 0.92936 0.80457 0.0
C746 C 0.31939 0.90744 0.79196 0.0
C747 C 0.35199 0.88797 0.81801 0.0
C748 C 0.93021 0.69234 0.73689 0.0
C749 C 0.9338 0.67647 0.77249 0.0
C750 C 0.90613 0.66406 0.71117 0.0
C751 C 0.88462 0.61901 0.7202 0.0
H752 H 0.94325 0.72835 0.72924 0.0
H753 H 0.90103 0.67941 0.68489 0.0
S754 S 0.89302 0.5559 0.80732 0.0
N755 N 0.92102 0.60886 0.81364 0.0
N756 N 0.8753 0.55598 0.76541 0.0
C757 C 0.89233 0.60043 0.75463 0.0
C758 C 0.91718 0.62904 0.78076 0.0
C759 C 0.36861 0.85352 0.31465 0.0
C760 C 0.32546 0.88023 0.3093 0.0
C761 C 0.39513 0.83523 0.28561 0.0
C762 C 0.37995 0.84392 0.25035 0.0
H763 H 0.3798 0.84342 0.34126 0.0
H764 H 0.42621 0.81168 0.29081 0.0
S765 S 0.27345 0.918 0.22237 0.0
N766 N 0.2716 0.91912 0.26622 0.0
N767 N 0.32217 0.8853 0.21183 0.0
C768 C 0.33948 0.87428 0.24469 0.0
C769 C 0.31199 0.89224 0.27419 0.0
C770 C 0.1652 0.38145 0.81073 0.0
C771 C 0.13075 0.34619 0.80006 0.0
C772 C 0.19198 0.40829 0.78545 0.0
C773 C 0.18479 0.4013 0.74866 0.0
H774 H 0.17428 0.38562 0.83858 0.0
H775 H 0.22049 0.43277 0.7948 0.0
S776 S 0.09358 0.31825 0.70742 0.0
N777 N 0.08692 0.30941 0.75055 0.0
N778 N 0.13687 0.36024 0.70317 0.0
C779 C 0.14743 0.36925 0.73782 0.0
C780 C 0.12057 0.34152 0.76353 0.0
C781 C 0.68098 0.10432 0.26081 0.0
C782 C 0.67216 0.1104 0.29751 0.0
C783 C 0.6551 0.13143 0.23523 0.0
C784 C 0.61993 0.166 0.24557 0.0
H785 H 0.71005 0.0804 0.25179 0.0
H786 H 0.66547 0.12813 0.20756 0.0
S787 S 0.57828 0.19131 0.33759 0.0
N788 N 0.62166 0.14977 0.34232 0.0
N789 N 0.57361 0.20108 0.29444 0.0
C790 C 0.60808 0.16965 0.28188 0.0
C791 C 0.63396 0.14169 0.30784 0.0
C792 C 0.34826 0.28432 0.18964 0.0
C793 C 0.38228 0.24809 0.1792 0.0
C794 C 0.29904 0.28279 0.17861 0.0
C795 C 0.28175 0.24539 0.15626 0.0
H796 H 0.35987 0.31504 0.20571 0.0
H797 H 0.27464 0.31196 0.18672 0.0
S798 S 0.35323 0.13865 0.12446 0.0
N799 N 0.39305 0.1711 0.14768 0.0
N800 N 0.30115 0.16922 0.12623 0.0
C801 C 0.3147 0.20826 0.14633 0.0
C802 C 0.36471 0.20939 0.15792 0.0
C803 C 0.79186 0.29837 0.67338 0.0
C804 C 0.74983 0.28499 0.65387 0.0
C805 C 0.80859 0.34714 0.67428 0.0
C806 C 0.78365 0.38457 0.65611 0.0
H807 H 0.81178 0.27104 0.68833 0.0
H808 H 0.84115 0.35581 0.68946 0.0
S809 S 0.67443 0.369 0.59871 0.0
N810 N 0.68572 0.31342 0.61394 0.0
N811 N 0.71654 0.40479 0.61657 0.0
C812 C 0.74185 0.37184 0.63639 0.0
C813 C 0.72511 0.32219 0.63506 0.0
C814 C 0.66842 0.80943 0.18272 0.0
C815 C 0.62917 0.7891 0.16329 0.0
C816 C 0.71744 0.79932 0.17394 0.0
C817 C 0.72924 0.76817 0.14546 0.0
H818 H 0.66108 0.8323 0.20559 0.0
H819 H 0.74618 0.81411 0.19062 0.0
S820 S 0.64076 0.7085 0.08428 0.0
N821 N 0.60606 0.73796 0.11307 0.0
N822 N 0.69784 0.72035 0.096 0.0
C823 C 0.69051 0.74952 0.12474 0.0
C824 C 0.64062 0.75969 0.13372 0.0
C825 C 0.2162 0.65155 0.67609 0.0
C826 C 0.26305 0.63587 0.68709 0.0
C827 C 0.2068 0.70095 0.66777 0.0
C828 C 0.24351 0.73695 0.67082 0.0
H829 H 0.18653 0.62545 0.67348 0.0
H830 H 0.17057 0.71116 0.65876 0.0
S831 S 0.3727 0.71684 0.69646 0.0
N832 N 0.34739 0.66195 0.69854 0.0
N833 N 0.32826 0.75428 0.68471 0.0
C834 C 0.29004 0.72244 0.68226 0.0
C835 C 0.30017 0.67213 0.68997 0.0
C836 C 0.87688 0.25378 0.90603 0.0
C837 C 0.89296 0.26618 0.87178 0.0
C838 C 0.82672 0.25178 0.91428 0.0
C839 C 0.79035 0.26277 0.88877 0.0
H840 H 0.90328 0.24401 0.92628 0.0
H841 H 0.81642 0.24082 0.94087 0.0
S842 S 0.81435 0.3009 0.79559 0.0
N843 N 0.86934 0.29113 0.81238 0.0
N844 N 0.77519 0.28923 0.828 0.0
C845 C 0.80626 0.27616 0.85448 0.0
C846 C 0.85745 0.2775 0.84601 0.0
C847 C 0.71727 0.80919 0.39644 0.0
C848 C 0.73367 0.7757 0.37062 0.0
C849 C 0.72696 0.85969 0.39343 0.0
C850 C 0.75283 0.87898 0.36414 0.0
H851 H 0.69694 0.79606 0.41926 0.0
H852 H 0.71449 0.88365 0.41444 0.0
S853 S 0.79931 0.80645 0.28742 0.0
N854 N 0.77495 0.76514 0.31421 0.0
N855 N 0.79152 0.85974 0.30736 0.0
C856 C 0.76854 0.84561 0.33772 0.0
C857 C 0.75942 0.79414 0.34127 0.0
C858 C 0.15654 0.75351 0.89969 0.0
C859 C 0.14185 0.76385 0.86478 0.0
C860 C 0.20625 0.74745 0.90828 0.0
C861 C 0.24348 0.75082 0.88224 0.0
H862 H 0.12949 0.75165 0.92071 0.0
H863 H 0.21548 0.74115 0.93583 0.0
S864 S 0.2232 0.77245 0.7859 0.0
N865 N 0.1678 0.77447 0.8035 0.0
N866 N 0.26088 0.76182 0.81929 0.0
C867 C 0.22891 0.75981 0.84693 0.0
C868 C 0.17827 0.76653 0.83831 0.0
C869 C 0.22303 0.17732 0.4162 0.0
C870 C 0.23885 0.21005 0.38957 0.0
C871 C 0.22925 0.12644 0.41253 0.0
C872 C 0.25065 0.10663 0.38179 0.0
H873 H 0.20465 0.19122 0.4396 0.0
H874 H 0.21472 0.10228 0.43281 0.0
S875 S 0.29952 0.17626 0.30497 0.0
N876 N 0.27855 0.21884 0.33214 0.0
N877 N 0.28931 0.12334 0.32503 0.0
C878 C 0.26801 0.13898 0.35559 0.0
C879 C 0.26241 0.19067 0.35953 0.0
C880 C 0.67684 0.81175 0.89026 0.0
C881 C 0.63951 0.78758 0.87109 0.0
C882 C 0.72603 0.79701 0.88791 0.0
C883 C 0.73993 0.75718 0.86659 0.0
H884 H 0.66794 0.8417 0.90791 0.0
H885 H 0.75325 0.81609 0.90363 0.0
S886 S 0.65805 0.68447 0.80822 0.0
N887 N 0.62117 0.72404 0.82776 0.0
N888 N 0.7133 0.69581 0.82412 0.0
C889 C 0.7034 0.73325 0.84673 0.0
C890 C 0.65334 0.74853 0.84881 0.0
C891 C 0.24531 0.64413 0.36164 0.0
C892 C 0.26509 0.60894 0.38474 0.0
C893 C 0.24095 0.69347 0.37205 0.0
C894 C 0.25649 0.70927 0.40588 0.0
H895 H 0.2332 0.63329 0.33541 0.0
H896 H 0.22483 0.71931 0.35367 0.0
S897 S 0.31658 0.63157 0.47407 0.0
N898 N 0.30373 0.59327 0.4414 0.0
N899 N 0.29624 0.68566 0.46113 0.0
C900 C 0.27745 0.67423 0.42879 0.0
C901 C 0.28164 0.62417 0.41815 0.0
C902 C 0.37405 0.21945 0.88706 0.0
C903 C 0.39155 0.25668 0.86436 0.0
C904 C 0.32462 0.21742 0.89762 0.0
C905 C 0.29039 0.25221 0.88565 0.0
H906 H 0.39876 0.19156 0.89678 0.0
H907 H 0.31296 0.18821 0.9152 0.0
S908 S 0.31678 0.35908 0.82794 0.0
N909 N 0.37001 0.33108 0.83196 0.0
N910 N 0.27742 0.32586 0.85098 0.0
C911 C 0.30704 0.28946 0.86291 0.0
C912 C 0.35745 0.29206 0.85249 0.0
C913 C 0.78918 0.29073 0.3644 0.0
C914 C 0.75602 0.27751 0.3914 0.0
C915 C 0.79636 0.34009 0.35482 0.0
C916 C 0.77067 0.37829 0.37178 0.0
H917 H 0.81028 0.26277 0.35098 0.0
H918 H 0.82228 0.34852 0.33389 0.0
S919 S 0.67585 0.36253 0.44164 0.0
N920 N 0.69499 0.30633 0.43342 0.0
N921 N 0.70816 0.39865 0.41529 0.0
C922 C 0.73687 0.36539 0.39847 0.0
C923 C 0.72961 0.31518 0.40826 0.0
C924 C 0.14945 0.75534 0.12799 0.0
C925 C 0.12952 0.75913 0.16223 0.0
C926 C 0.20023 0.75069 0.12287 0.0
C927 C 0.23314 0.74904 0.15181 0.0
H928 H 0.12576 0.75779 0.105 0.0
H929 H 0.21378 0.7496 0.09588 0.0
S930 S 0.19805 0.75209 0.24712 0.0
N931 N 0.14567 0.75782 0.22562 0.0
N932 N 0.24074 0.74765 0.2162 0.0
C933 C 0.21321 0.75114 0.18629 0.0
C934 C 0.16156 0.75644 0.19142 0.0
C935 C 0.25409 0.20201 0.63133 0.0
C936 C 0.26891 0.23786 0.65617 0.0
C937 C 0.2528 0.15193 0.64009 0.0
C938 C 0.26598 0.13563 0.67414 0.0
H939 H 0.24243 0.2128 0.60501 0.0
H940 H 0.23982 0.12595 0.6205 0.0
S941 S 0.31197 0.21309 0.74798 0.0
N942 N 0.30063 0.25232 0.71563 0.0
N943 N 0.29719 0.15859 0.73218 0.0
C944 C 0.28188 0.17074 0.699 0.0
C945 C 0.28352 0.22168 0.69005 0.0
C946 C 0.79966 0.225 0.17095 0.0
C947 C 0.77954 0.26168 0.14938 0.0
C948 C 0.85019 0.22348 0.17787 0.0
C949 C 0.88274 0.25905 0.16395 0.0
H950 H 0.77626 0.19666 0.1819 0.0
H951 H 0.86382 0.19371 0.19402 0.0
S952 S 0.84743 0.36508 0.10799 0.0
N953 N 0.79541 0.33566 0.11523 0.0
N954 N 0.89012 0.33337 0.1288 0.0
C955 C 0.86283 0.29631 0.14265 0.0
C956 C 0.81136 0.29757 0.13533 0.0
C957 C 0.80734 0.85198 0.66369 0.0
C958 C 0.76649 0.88349 0.66056 0.0
C959 C 0.80351 0.80143 0.65719 0.0
C960 C 0.75889 0.78029 0.64677 0.0
H961 H 0.84296 0.86654 0.67064 0.0
H962 H 0.83602 0.77893 0.6592 0.0
S963 S 0.64017 0.84469 0.63697 0.0
N964 N 0.67914 0.88831 0.64835 0.0
N965 N 0.67253 0.79372 0.6351 0.0
C966 C 0.71768 0.81091 0.64387 0.0
C967 C 0.72134 0.86233 0.6509 0.0
loop_
_geom_bond_atom_site_label_1
_geom_bond_atom_site_label_2
_geom_bond_distance
_geom_bond_site_symmetry_2
_ccdc_geom_bond_type
C0 C1 1.351 . S
C0 N3 1.368 . S
C0 H5 0.931 . S
C1 C0 1.351 . S
C1 N2 1.373 . S
C1 H29 0.930 . S
N2 C1 1.373 . S
N2 C4 1.340 . S
N3 C0 1.368 . S
N3 C4 1.321 . S
N3 Co6 2.135 1_655 S
C4 N2 1.340 . S
C4 N3 1.321 . S
C4 H28 0.930 . S
H5 C0 0.931 . S
Co6 N3 2.135 1_455 S
Co6 N9 2.121 . S
Co6 O14 2.055 . S
Co6 O17 2.039 . S
Co6 N20 2.140 . S
C7 O8 1.227 . S
C7 O17 1.265 . S
O8 C7 1.227 . S
N9 Co6 2.121 . S
N9 C11 1.375 . S
N9 C12 1.313 . S
C10 C11 1.338 . S
C10 N13 1.377 . S
C10 H30 0.930 . S
C11 N9 1.375 . S
C11 C10 1.338 . S
C11 H15 0.931 . S
C12 N9 1.313 . S
C12 N13 1.344 . S
C12 H16 0.930 . S
N13 C10 1.377 . S
N13 C12 1.344 . S
O14 Co6 2.055 . S
O14 C18 1.253 . S
H15 C11 0.931 . S
H16 C12 0.930 . S
O17 Co6 2.039 . S
O17 C7 1.265 . S
C18 O14 1.253 . S
C18 O19 1.227 . S
O19 C18 1.227 . S
N20 Co6 2.140 . S
N20 C23 1.346 1_455 S
N20 C24 1.345 . S
C21 C22 1.387 1_455 S
C21 C25 1.391 . S
C22 C21 1.387 1_655 S
C22 C23 1.369 . S
C22 H31 0.929 . S
C23 N20 1.346 1_655 S
C23 C22 1.369 . S
C23 H26 0.928 . S
C24 N20 1.345 . S
C24 C25 1.371 . S
C24 H27 0.931 . S
C25 C21 1.391 . S
C25 C24 1.371 . S
C25 H32 0.930 . S
H26 C23 0.928 . S
H27 C24 0.931 . S
H28 C4 0.930 . S
H29 C1 0.930 . S
H30 C10 0.930 . S
H31 C22 0.929 . S
H32 C25 0.930 . S
C33 C34 1.351 . S
C33 N36 1.368 . S
C33 H38 0.931 . S
C34 C33 1.351 . S
C34 N35 1.373 . S
C34 H62 0.930 . S
N35 C34 1.373 . S
N35 C37 1.340 . S
N36 C33 1.368 . S
N36 C37 1.321 . S
N36 Co39 2.135 1_565 S
C37 N35 1.340 . S
C37 N36 1.321 . S
C37 H61 0.930 . S
H38 C33 0.931 . S
Co39 N36 2.135 1_545 S
Co39 N42 2.121 . S
Co39 O47 2.055 . S
Co39 O50 2.039 . S
Co39 N53 2.140 . S
C40 O41 1.227 . S
C40 O50 1.265 . S
O41 C40 1.227 . S
N42 Co39 2.121 . S
N42 C44 1.375 . S
N42 C45 1.313 . S
C43 C44 1.338 . S
C43 N46 1.377 . S
C43 H63 0.930 . S
C44 N42 1.375 . S
C44 C43 1.338 . S
C44 H48 0.931 . S
C45 N42 1.313 . S
C45 N46 1.344 . S
C45 H49 0.930 . S
N46 C43 1.377 . S
N46 C45 1.344 . S
O47 Co39 2.055 . S
O47 C51 1.253 . S
H48 C44 0.931 . S
H49 C45 0.930 . S
O50 Co39 2.039 . S
O50 C40 1.265 . S
C51 O47 1.253 . S
C51 O52 1.227 . S
O52 C51 1.227 . S
N53 Co39 2.140 . S
N53 C56 1.346 1_545 S
N53 C57 1.345 . S
C54 C55 1.387 1_545 S
C54 C58 1.391 . S
C55 C54 1.387 1_565 S
C55 C56 1.369 . S
C55 H64 0.929 . S
C56 N53 1.346 1_565 S
C56 C55 1.369 . S
C56 H59 0.928 . S
C57 N53 1.345 . S
C57 C58 1.371 . S
C57 H60 0.931 . S
C58 C54 1.391 . S
C58 C57 1.371 . S
C58 H65 0.930 . S
H59 C56 0.928 . S
H60 C57 0.931 . S
H61 C37 0.930 . S
H62 C34 0.930 . S
H63 C43 0.930 . S
H64 C55 0.929 . S
H65 C58 0.930 . S
C66 C67 1.351 . S
C66 N69 1.368 . S
C66 H71 0.931 . S
C67 C66 1.351 . S
C67 N68 1.373 . S
C67 H95 0.930 . S
N68 C67 1.373 . S
N68 C70 1.340 . S
N69 C66 1.368 . S
N69 C70 1.321 . S
N69 Co72 2.135 1_455 S
C70 N68 1.340 . S
C70 N69 1.321 . S
C70 H94 0.930 . S
H71 C66 0.931 . S
Co72 N69 2.135 1_655 S
Co72 N75 2.121 . S
Co72 O80 2.055 . S
Co72 O83 2.039 . S
Co72 N86 2.140 . S
C73 O74 1.227 . S
C73 O83 1.265 . S
O74 C73 1.227 . S
N75 Co72 2.121 . S
N75 C77 1.375 . S
N75 C78 1.313 . S
C76 C77 1.338 . S
C76 N79 1.377 . S
C76 H96 0.930 . S
C77 N75 1.375 . S
C77 C76 1.338 . S
C77 H81 0.931 . S
C78 N75 1.313 . S
C78 N79 1.344 . S
C78 H82 0.930 . S
N79 C76 1.377 . S
N79 C78 1.344 . S
O80 Co72 2.055 . S
O80 C84 1.253 . S
H81 C77 0.931 . S
H82 C78 0.930 . S
O83 Co72 2.039 . S
O83 C73 1.265 . S
C84 O80 1.253 . S
C84 O85 1.227 . S
O85 C84 1.227 . S
N86 Co72 2.140 . S
N86 C89 1.346 1_655 S
N86 C90 1.345 . S
C87 C88 1.387 1_655 S
C87 C91 1.391 . S
C88 C87 1.387 1_455 S
C88 C89 1.369 . S
C88 H97 0.929 . S
C89 N86 1.346 1_455 S
C89 C88 1.369 . S
C89 H92 0.928 . S
C90 N86 1.345 . S
C90 C91 1.371 . S
C90 H93 0.931 . S
C91 C87 1.391 . S
C91 C90 1.371 . S
C91 H98 0.930 . S
H92 C89 0.928 . S
H93 C90 0.931 . S
H94 C70 0.930 . S
H95 C67 0.930 . S
H96 C76 0.930 . S
H97 C88 0.929 . S
H98 C91 0.930 . S
C99 C100 1.351 . S
C99 N102 1.368 . S
C99 H104 0.931 . S
C100 C99 1.351 . S
C100 N101 1.373 . S
C100 H128 0.930 . S
N101 C100 1.373 . S
N101 C103 1.340 . S
N102 C99 1.368 . S
N102 C103 1.321 . S
N102 Co105 2.135 1_545 S
C103 N101 1.340 . S
C103 N102 1.321 . S
C103 H127 0.930 . S
H104 C99 0.931 . S
Co105 N102 2.135 1_565 S
Co105 N108 2.121 . S
Co105 O113 2.055 . S
Co105 O116 2.039 . S
Co105 N119 2.140 . S
C106 O107 1.227 . S
C106 O116 1.265 . S
O107 C106 1.227 . S
N108 Co105 2.121 . S
N108 C110 1.375 . S
N108 C111 1.313 . S
C109 C110 1.338 . S
C109 N112 1.377 . S
C109 H129 0.930 . S
C110 N108 1.375 . S
C110 C109 1.338 . S
C110 H114 0.931 . S
C111 N108 1.313 . S
C111 N112 1.344 . S
C111 H115 0.930 . S
N112 C109 1.377 . S
N112 C111 1.344 . S
O113 Co105 2.055 . S
O113 C117 1.253 . S
H114 C110 0.931 . S
H115 C111 0.930 . S
O116 Co105 2.039 . S
O116 C106 1.265 . S
C117 O113 1.253 . S
C117 O118 1.227 . S
O118 C117 1.227 . S
N119 Co105 2.140 . S
N119 C122 1.346 1_565 S
N119 C123 1.345 . S
C120 C121 1.387 1_565 S
C120 C124 1.391 . S
C121 C120 1.387 1_545 S
C121 C122 1.369 . S
C121 H130 0.929 . S
C122 N119 1.346 1_545 S
C122 C121 1.369 . S
C122 H125 0.928 . S
C123 N119 1.345 . S
C123 C124 1.371 . S
C123 H126 0.931 . S
C124 C120 1.391 . S
C124 C123 1.371 . S
C124 H131 0.930 . S
H125 C122 0.928 . S
H126 C123 0.931 . S
H127 C103 0.930 . S
H128 C100 0.930 . S
H129 C109 0.930 . S
H130 C121 0.929 . S
H131 C124 0.930 . S
C132 C133 1.351 . S
C132 N135 1.368 . S
C132 H137 0.931 . S
C133 C132 1.351 . S
C133 N134 1.373 . S
C133 H161 0.930 . S
N134 C133 1.373 . S
N134 C136 1.340 . S
N135 C132 1.368 . S
N135 C136 1.321 . S
N135 Co138 2.135 . S
C136 N134 1.340 . S
C136 N135 1.321 . S
C136 H160 0.930 . S
H137 C132 0.931 . S
Co138 N135 2.135 . S
Co138 N141 2.121 . S
Co138 O146 2.055 . S
Co138 O149 2.039 . S
Co138 N152 2.140 . S
C139 O140 1.227 . S
C139 O149 1.265 . S
O140 C139 1.227 . S
N141 Co138 2.121 . S
N141 C143 1.375 . S
N141 C144 1.313 . S
C142 C143 1.338 . S
C142 N145 1.377 . S
C142 H162 0.930 . S
C143 N141 1.375 . S
C143 C142 1.338 . S
C143 H147 0.931 . S
C144 N141 1.313 . S
C144 N145 1.344 . S
C144 H148 0.930 . S
N145 C142 1.377 . S
N145 C144 1.344 . S
O146 Co138 2.055 . S
O146 C150 1.253 . S
H147 C143 0.931 . S
H148 C144 0.930 . S
O149 Co138 2.039 . S
O149 C139 1.265 . S
C150 O146 1.253 . S
C150 O151 1.227 . S
O151 C150 1.227 . S
N152 Co138 2.140 . S
N152 C155 1.346 . S
N152 C156 1.345 . S
C153 C154 1.387 . S
C153 C157 1.391 . S
C154 C153 1.387 . S
C154 C155 1.369 . S
C154 H163 0.929 . S
C155 N152 1.346 . S
C155 C154 1.369 . S
C155 H158 0.928 . S
C156 N152 1.345 . S
C156 C157 1.371 . S
C156 H159 0.931 . S
C157 C153 1.391 . S
C157 C156 1.371 . S
C157 H164 0.930 . S
H158 C155 0.928 . S
H159 C156 0.931 . S
H160 C136 0.930 . S
H161 C133 0.930 . S
H162 C142 0.930 . S
H163 C154 0.929 . S
H164 C157 0.930 . S
C165 C166 1.351 . S
C165 N168 1.368 . S
C165 H170 0.931 . S
C166 C165 1.351 . S
C166 N167 1.373 . S
C166 H194 0.930 . S
N167 C166 1.373 . S
N167 C169 1.340 . S
N168 C165 1.368 . S
N168 C169 1.321 . S
N168 Co171 2.135 . S
C169 N167 1.340 . S
C169 N168 1.321 . S
C169 H193 0.930 . S
H170 C165 0.931 . S
Co171 N168 2.135 . S
Co171 N174 2.121 . S
Co171 O179 2.055 . S
Co171 O182 2.039 . S
Co171 N185 2.140 . S
C172 O173 1.227 . S
C172 O182 1.265 . S
O173 C172 1.227 . S
N174 Co171 2.121 . S
N174 C176 1.375 . S
N174 C177 1.313 . S
C175 C176 1.338 . S
C175 N178 1.377 . S
C175 H195 0.930 . S
C176 N174 1.375 . S
C176 C175 1.338 . S
C176 H180 0.931 . S
C177 N174 1.313 . S
C177 N178 1.344 . S
C177 H181 0.930 . S
N178 C175 1.377 . S
N178 C177 1.344 . S
O179 Co171 2.055 . S
O179 C183 1.253 . S
H180 C176 0.931 . S
H181 C177 0.930 . S
O182 Co171 2.039 . S
O182 C172 1.265 . S
C183 O179 1.253 . S
C183 O184 1.227 . S
O184 C183 1.227 . S
N185 Co171 2.140 . S
N185 C188 1.346 . S
N185 C189 1.345 . S
C186 C187 1.387 . S
C186 C190 1.391 . S
C187 C186 1.387 . S
C187 C188 1.369 . S
C187 H196 0.929 . S
C188 N185 1.346 . S
C188 C187 1.369 . S
C188 H191 0.928 . S
C189 N185 1.345 . S
C189 C190 1.371 . S
C189 H192 0.931 . S
C190 C186 1.391 . S
C190 C189 1.371 . S
C190 H197 0.930 . S
H191 C188 0.928 . S
H192 C189 0.931 . S
H193 C169 0.930 . S
H194 C166 0.930 . S
H195 C175 0.930 . S
H196 C187 0.929 . S
H197 C190 0.930 . S
C198 C199 1.351 . S
C198 N201 1.368 . S
C198 H203 0.931 . S
C199 C198 1.351 . S
C199 N200 1.373 . S
C199 H227 0.930 . S
N200 C199 1.373 . S
N200 C202 1.340 . S
N201 C198 1.368 . S
N201 C202 1.321 . S
N201 Co204 2.135 . S
C202 N200 1.340 . S
C202 N201 1.321 . S
C202 H226 0.930 . S
H203 C198 0.931 . S
Co204 N201 2.135 . S
Co204 N207 2.121 . S
Co204 O212 2.055 . S
Co204 O215 2.039 . S
Co204 N218 2.140 . S
C205 O206 1.227 . S
C205 O215 1.265 . S
O206 C205 1.227 . S
N207 Co204 2.121 . S
N207 C209 1.375 . S
N207 C210 1.313 . S
C208 C209 1.338 . S
C208 N211 1.377 . S
C208 H228 0.930 . S
C209 N207 1.375 . S
C209 C208 1.338 . S
C209 H213 0.931 . S
C210 N207 1.313 . S
C210 N211 1.344 . S
C210 H214 0.930 . S
N211 C208 1.377 . S
N211 C210 1.344 . S
O212 Co204 2.055 . S
O212 C216 1.253 . S
H213 C209 0.931 . S
H214 C210 0.930 . S
O215 Co204 2.039 . S
O215 C205 1.265 . S
C216 O212 1.253 . S
C216 O217 1.227 . S
O217 C216 1.227 . S
N218 Co204 2.140 . S
N218 C221 1.346 . S
N218 C222 1.345 . S
C219 C220 1.387 . S
C219 C223 1.391 . S
C220 C219 1.387 . S
C220 C221 1.369 . S
C220 H229 0.929 . S
C221 N218 1.346 . S
C221 C220 1.369 . S
C221 H224 0.928 . S
C222 N218 1.345 . S
C222 C223 1.371 . S
C222 H225 0.931 . S
C223 C219 1.391 . S
C223 C222 1.371 . S
C223 H230 0.930 . S
H224 C221 0.928 . S
H225 C222 0.931 . S
H226 C202 0.930 . S
H227 C199 0.930 . S
H228 C208 0.930 . S
H229 C220 0.929 . S
H230 C223 0.930 . S
C231 C232 1.351 . S
C231 N234 1.368 . S
C231 H236 0.931 . S
C232 C231 1.351 . S
C232 N233 1.373 . S
C232 H260 0.930 . S
N233 C232 1.373 . S
N233 C235 1.340 . S
N234 C231 1.368 . S
N234 C235 1.321 . S
N234 Co237 2.135 . S
C235 N233 1.340 . S
C235 N234 1.321 . S
C235 H259 0.930 . S
H236 C231 0.931 . S
Co237 N234 2.135 . S
Co237 N240 2.121 . S
Co237 O245 2.055 . S
Co237 O248 2.039 . S
Co237 N251 2.140 . S
C238 O239 1.227 . S
C238 O248 1.265 . S
O239 C238 1.227 . S
N240 Co237 2.121 . S
N240 C242 1.375 . S
N240 C243 1.313 . S
C241 C242 1.338 . S
C241 N244 1.377 . S
C241 H261 0.930 . S
C242 N240 1.375 . S
C242 C241 1.338 . S
C242 H246 0.931 . S
C243 N240 1.313 . S
C243 N244 1.344 . S
C243 H247 0.930 . S
N244 C241 1.377 . S
N244 C243 1.344 . S
O245 Co237 2.055 . S
O245 C249 1.253 . S
H246 C242 0.931 . S
H247 C243 0.930 . S
O248 Co237 2.039 . S
O248 C238 1.265 . S
C249 O245 1.253 . S
C249 O250 1.227 . S
O250 C249 1.227 . S
N251 Co237 2.140 . S
N251 C254 1.346 . S
N251 C255 1.345 . S
C252 C253 1.387 . S
C252 C256 1.391 . S
C253 C252 1.387 . S
C253 C254 1.369 . S
C253 H262 0.929 . S
C254 N251 1.346 . S
C254 C253 1.369 . S
C254 H257 0.928 . S
C255 N251 1.345 . S
C255 C256 1.371 . S
C255 H258 0.931 . S
C256 C252 1.391 . S
C256 C255 1.371 . S
C256 H263 0.930 . S
H257 C254 0.928 . S
H258 C255 0.931 . S
H259 C235 0.930 . S
H260 C232 0.930 . S
H261 C241 0.930 . S
H262 C253 0.929 . S
H263 C256 0.930 . S
C264 C265 1.351 . S
C264 N267 1.368 . S
C264 H269 0.931 . S
C265 C264 1.351 . S
C265 N266 1.373 . S
C265 H293 0.930 . S
N266 C265 1.373 . S
N266 C268 1.340 . S
N267 C264 1.368 . S
N267 C268 1.321 . S
N267 Co270 2.135 1_455 S
C268 N266 1.340 . S
C268 N267 1.321 . S
C268 H292 0.930 . S
H269 C264 0.931 . S
Co270 N267 2.135 1_655 S
Co270 N273 2.121 . S
Co270 O278 2.055 . S
Co270 O281 2.039 . S
Co270 N284 2.140 . S
C271 O272 1.227 . S
C271 O281 1.265 . S
O272 C271 1.227 . S
N273 Co270 2.121 . S
N273 C275 1.375 . S
N273 C276 1.313 . S
C274 C275 1.338 . S
C274 N277 1.377 . S
C274 H294 0.930 . S
C275 N273 1.375 . S
C275 C274 1.338 . S
C275 H279 0.931 . S
C276 N273 1.313 . S
C276 N277 1.344 . S
C276 H280 0.930 . S
N277 C274 1.377 . S
N277 C276 1.344 . S
O278 Co270 2.055 . S
O278 C282 1.253 . S
H279 C275 0.931 . S
H280 C276 0.930 . S
O281 Co270 2.039 . S
O281 C271 1.265 . S
C282 O278 1.253 . S
C282 O283 1.227 . S
O283 C282 1.227 . S
N284 Co270 2.140 . S
N284 C287 1.346 1_655 S
N284 C288 1.345 . S
C285 C286 1.387 1_655 S
C285 C289 1.391 . S
C286 C285 1.387 1_455 S
C286 C287 1.369 . S
C286 H295 0.929 . S
C287 N284 1.346 1_455 S
C287 C286 1.369 . S
C287 H290 0.928 . S
C288 N284 1.345 . S
C288 C289 1.371 . S
C288 H291 0.931 . S
C289 C285 1.391 . S
C289 C288 1.371 . S
C289 H296 0.930 . S
H290 C287 0.928 . S
H291 C288 0.931 . S
H292 C268 0.930 . S
H293 C265 0.930 . S
H294 C274 0.930 . S
H295 C286 0.929 . S
H296 C289 0.930 . S
C297 C298 1.351 . S
C297 N300 1.368 . S
C297 H302 0.931 . S
C298 C297 1.351 . S
C298 N299 1.373 . S
C298 H326 0.930 . S
N299 C298 1.373 . S
N299 C301 1.340 . S
N300 C297 1.368 . S
N300 C301 1.321 . S
N300 Co303 2.135 1_545 S
C301 N299 1.340 . S
C301 N300 1.321 . S
C301 H325 0.930 . S
H302 C297 0.931 . S
Co303 N300 2.135 1_565 S
Co303 N306 2.121 . S
Co303 O311 2.055 . S
Co303 O314 2.039 . S
Co303 N317 2.140 . S
C304 O305 1.227 . S
C304 O314 1.265 . S
O305 C304 1.227 . S
N306 Co303 2.121 . S
N306 C308 1.375 . S
N306 C309 1.313 . S
C307 C308 1.338 . S
C307 N310 1.377 . S
C307 H327 0.930 . S
C308 N306 1.375 . S
C308 C307 1.338 . S
C308 H312 0.931 . S
C309 N306 1.313 . S
C309 N310 1.344 . S
C309 H313 0.930 . S
N310 C307 1.377 . S
N310 C309 1.344 . S
O311 Co303 2.055 . S
O311 C315 1.253 . S
H312 C308 0.931 . S
H313 C309 0.930 . S
O314 Co303 2.039 . S
O314 C304 1.265 . S
C315 O311 1.253 . S
C315 O316 1.227 . S
O316 C315 1.227 . S
N317 Co303 2.140 . S
N317 C320 1.346 1_565 S
N317 C321 1.345 . S
C318 C319 1.387 1_565 S
C318 C322 1.391 . S
C319 C318 1.387 1_545 S
C319 C320 1.369 . S
C319 H328 0.929 . S
C320 N317 1.346 1_545 S
C320 C319 1.369 . S
C320 H323 0.928 . S
C321 N317 1.345 . S
C321 C322 1.371 . S
C321 H324 0.931 . S
C322 C318 1.391 . S
C322 C321 1.371 . S
C322 H329 0.930 . S
H323 C320 0.928 . S
H324 C321 0.931 . S
H325 C301 0.930 . S
H326 C298 0.930 . S
H327 C307 0.930 . S
H328 C319 0.929 . S
H329 C322 0.930 . S
C330 C331 1.351 . S
C330 N333 1.368 . S
C330 H335 0.931 . S
C331 C330 1.351 . S
C331 N332 1.373 . S
C331 H359 0.930 . S
N332 C331 1.373 . S
N332 C334 1.340 . S
N333 C330 1.368 . S
N333 C334 1.321 . S
N333 Co336 2.135 1_655 S
C334 N332 1.340 . S
C334 N333 1.321 . S
C334 H358 0.930 . S
H335 C330 0.931 . S
Co336 N333 2.135 1_455 S
Co336 N339 2.121 . S
Co336 O344 2.055 . S
Co336 O347 2.039 . S
Co336 N350 2.140 . S
C337 O338 1.227 . S
C337 O347 1.265 . S
O338 C337 1.227 . S
N339 Co336 2.121 . S
N339 C341 1.375 . S
N339 C342 1.313 . S
C340 C341 1.338 . S
C340 N343 1.377 . S
C340 H360 0.930 . S
C341 N339 1.375 . S
C341 C340 1.338 . S
C341 H345 0.931 . S
C342 N339 1.313 . S
C342 N343 1.344 . S
C342 H346 0.930 . S
N343 C340 1.377 . S
N343 C342 1.344 . S
O344 Co336 2.055 . S
O344 C348 1.253 . S
H345 C341 0.931 . S
H346 C342 0.930 . S
O347 Co336 2.039 . S
O347 C337 1.265 . S
C348 O344 1.253 . S
C348 O349 1.227 . S
O349 C348 1.227 . S
N350 Co336 2.140 . S
N350 C353 1.346 1_455 S
N350 C354 1.345 . S
C351 C352 1.387 1_455 S
C351 C355 1.391 . S
C352 C351 1.387 1_655 S
C352 C353 1.369 . S
C352 H361 0.929 . S
C353 N350 1.346 1_655 S
C353 C352 1.369 . S
C353 H356 0.928 . S
C354 N350 1.345 . S
C354 C355 1.371 . S
C354 H357 0.931 . S
C355 C351 1.391 . S
C355 C354 1.371 . S
C355 H362 0.930 . S
H356 C353 0.928 . S
H357 C354 0.931 . S
H358 C334 0.930 . S
H359 C331 0.930 . S
H360 C340 0.930 . S
H361 C352 0.929 . S
H362 C355 0.930 . S
C363 C364 1.351 . S
C363 N366 1.368 . S
C363 H368 0.931 . S
C364 C363 1.351 . S
C364 N365 1.373 . S
C364 H392 0.930 . S
N365 C364 1.373 . S
N365 C367 1.340 . S
N366 C363 1.368 . S
N366 C367 1.321 . S
N366 Co369 2.135 1_565 S
C367 N365 1.340 . S
C367 N366 1.321 . S
C367 H391 0.930 . S
H368 C363 0.931 . S
Co369 N366 2.135 1_545 S
Co369 N372 2.121 . S
Co369 O377 2.055 . S
Co369 O380 2.039 . S
Co369 N383 2.140 . S
C370 O371 1.227 . S
C370 O380 1.265 . S
O371 C370 1.227 . S
N372 Co369 2.121 . S
N372 C374 1.375 . S
N372 C375 1.313 . S
C373 C374 1.338 . S
C373 N376 1.377 . S
C373 H393 0.930 . S
C374 N372 1.375 . S
C374 C373 1.338 . S
C374 H378 0.931 . S
C375 N372 1.313 . S
C375 N376 1.344 . S
C375 H379 0.930 . S
N376 C373 1.377 . S
N376 C375 1.344 . S
O377 Co369 2.055 . S
O377 C381 1.253 . S
H378 C374 0.931 . S
H379 C375 0.930 . S
O380 Co369 2.039 . S
O380 C370 1.265 . S
C381 O377 1.253 . S
C381 O382 1.227 . S
O382 C381 1.227 . S
N383 Co369 2.140 . S
N383 C386 1.346 1_545 S
N383 C387 1.345 . S
C384 C385 1.387 1_545 S
C384 C388 1.391 . S
C385 C384 1.387 1_565 S
C385 C386 1.369 . S
C385 H394 0.929 . S
C386 N383 1.346 1_565 S
C386 C385 1.369 . S
C386 H389 0.928 . S
C387 N383 1.345 . S
C387 C388 1.371 . S
C387 H390 0.931 . S
C388 C384 1.391 . S
C388 C387 1.371 . S
C388 H395 0.930 . S
H389 C386 0.928 . S
H390 C387 0.931 . S
H391 C367 0.930 . S
H392 C364 0.930 . S
H393 C373 0.930 . S
H394 C385 0.929 . S
H395 C388 0.930 . S
C396 C397 1.351 . S
C396 N399 1.368 . S
C396 H401 0.931 . S
C397 C396 1.351 . S
C397 N398 1.373 . S
C397 H425 0.930 . S
N398 C397 1.373 . S
N398 C400 1.340 . S
N399 C396 1.368 . S
N399 C400 1.321 . S
N399 Co402 2.135 . S
C400 N398 1.340 . S
C400 N399 1.321 . S
C400 H424 0.930 . S
H401 C396 0.931 . S
Co402 N399 2.135 . S
Co402 N405 2.121 . S
Co402 O410 2.055 . S
Co402 O413 2.039 . S
Co402 N416 2.140 . S
C403 O404 1.227 . S
C403 O413 1.265 . S
O404 C403 1.227 . S
N405 Co402 2.121 . S
N405 C407 1.375 . S
N405 C408 1.313 . S
C406 C407 1.338 . S
C406 N409 1.377 . S
C406 H426 0.930 . S
C407 N405 1.375 . S
C407 C406 1.338 . S
C407 H411 0.931 . S
C408 N405 1.313 . S
C408 N409 1.344 . S
C408 H412 0.930 . S
N409 C406 1.377 . S
N409 C408 1.344 . S
O410 Co402 2.055 . S
O410 C414 1.253 . S
H411 C407 0.931 . S
H412 C408 0.930 . S
O413 Co402 2.039 . S
O413 C403 1.265 . S
C414 O410 1.253 . S
C414 O415 1.227 . S
O415 C414 1.227 . S
N416 Co402 2.140 . S
N416 C419 1.346 . S
N416 C420 1.345 . S
C417 C418 1.387 . S
C417 C421 1.391 . S
C418 C417 1.387 . S
C418 C419 1.369 . S
C418 H427 0.929 . S
C419 N416 1.346 . S
C419 C418 1.369 . S
C419 H422 0.928 . S
C420 N416 1.345 . S
C420 C421 1.371 . S
C420 H423 0.931 . S
C421 C417 1.391 . S
C421 C420 1.371 . S
C421 H428 0.930 . S
H422 C419 0.928 . S
H423 C420 0.931 . S
H424 C400 0.930 . S
H425 C397 0.930 . S
H426 C406 0.930 . S
H427 C418 0.929 . S
H428 C421 0.930 . S
C429 C430 1.351 . S
C429 N432 1.368 . S
C429 H434 0.931 . S
C430 C429 1.351 . S
C430 N431 1.373 . S
C430 H458 0.930 . S
N431 C430 1.373 . S
N431 C433 1.340 . S
N432 C429 1.368 . S
N432 C433 1.321 . S
N432 Co435 2.135 . S
C433 N431 1.340 . S
C433 N432 1.321 . S
C433 H457 0.930 . S
H434 C429 0.931 . S
Co435 N432 2.135 . S
Co435 N438 2.121 . S
Co435 O443 2.055 . S
Co435 O446 2.039 . S
Co435 N449 2.140 . S
C436 O437 1.227 . S
C436 O446 1.265 . S
O437 C436 1.227 . S
N438 Co435 2.121 . S
N438 C440 1.375 . S
N438 C441 1.313 . S
C439 C440 1.338 . S
C439 N442 1.377 . S
C439 H459 0.930 . S
C440 N438 1.375 . S
C440 C439 1.338 . S
C440 H444 0.931 . S
C441 N438 1.313 . S
C441 N442 1.344 . S
C441 H445 0.930 . S
N442 C439 1.377 . S
N442 C441 1.344 . S
O443 Co435 2.055 . S
O443 C447 1.253 . S
H444 C440 0.931 . S
H445 C441 0.930 . S
O446 Co435 2.039 . S
O446 C436 1.265 . S
C447 O443 1.253 . S
C447 O448 1.227 . S
O448 C447 1.227 . S
N449 Co435 2.140 . S
N449 C452 1.346 . S
N449 C453 1.345 . S
C450 C451 1.387 . S
C450 C454 1.391 . S
C451 C450 1.387 . S
C451 C452 1.369 . S
C451 H460 0.929 . S
C452 N449 1.346 . S
C452 C451 1.369 . S
C452 H455 0.928 . S
C453 N449 1.345 . S
C453 C454 1.371 . S
C453 H456 0.931 . S
C454 C450 1.391 . S
C454 C453 1.371 . S
C454 H461 0.930 . S
H455 C452 0.928 . S
H456 C453 0.931 . S
H457 C433 0.930 . S
H458 C430 0.930 . S
H459 C439 0.930 . S
H460 C451 0.929 . S
H461 C454 0.930 . S
C462 C463 1.351 . S
C462 N465 1.368 . S
C462 H467 0.931 . S
C463 C462 1.351 . S
C463 N464 1.373 . S
C463 H491 0.930 . S
N464 C463 1.373 . S
N464 C466 1.340 . S
N465 C462 1.368 . S
N465 C466 1.321 . S
N465 Co468 2.135 . S
C466 N464 1.340 . S
C466 N465 1.321 . S
C466 H490 0.930 . S
H467 C462 0.931 . S
Co468 N465 2.135 . S
Co468 N471 2.121 . S
Co468 O476 2.055 . S
Co468 O479 2.039 . S
Co468 N482 2.140 . S
C469 O470 1.227 . S
C469 O479 1.265 . S
O470 C469 1.227 . S
N471 Co468 2.121 . S
N471 C473 1.375 . S
N471 C474 1.313 . S
C472 C473 1.338 . S
C472 N475 1.377 . S
C472 H492 0.930 . S
C473 N471 1.375 . S
C473 C472 1.338 . S
C473 H477 0.931 . S
C474 N471 1.313 . S
C474 N475 1.344 . S
C474 H478 0.930 . S
N475 C472 1.377 . S
N475 C474 1.344 . S
O476 Co468 2.055 . S
O476 C480 1.253 . S
H477 C473 0.931 . S
H478 C474 0.930 . S
O479 Co468 2.039 . S
O479 C469 1.265 . S
C480 O476 1.253 . S
C480 O481 1.227 . S
O481 C480 1.227 . S
N482 Co468 2.140 . S
N482 C485 1.346 . S
N482 C486 1.345 . S
C483 C484 1.387 . S
C483 C487 1.391 . S
C484 C483 1.387 . S
C484 C485 1.369 . S
C484 H493 0.929 . S
C485 N482 1.346 . S
C485 C484 1.369 . S
C485 H488 0.928 . S
C486 N482 1.345 . S
C486 C487 1.371 . S
C486 H489 0.931 . S
C487 C483 1.391 . S
C487 C486 1.371 . S
C487 H494 0.930 . S
H488 C485 0.928 . S
H489 C486 0.931 . S
H490 C466 0.930 . S
H491 C463 0.930 . S
H492 C472 0.930 . S
H493 C484 0.929 . S
H494 C487 0.930 . S
C495 C496 1.351 . S
C495 N498 1.368 . S
C495 H500 0.931 . S
C496 C495 1.351 . S
C496 N497 1.373 . S
C496 H524 0.930 . S
N497 C496 1.373 . S
N497 C499 1.340 . S
N498 C495 1.368 . S
N498 C499 1.321 . S
N498 Co501 2.135 . S
C499 N497 1.340 . S
C499 N498 1.321 . S
C499 H523 0.930 . S
H500 C495 0.931 . S
Co501 N498 2.135 . S
Co501 N504 2.121 . S
Co501 O509 2.055 . S
Co501 O512 2.039 . S
Co501 N515 2.140 . S
C502 O503 1.227 . S
C502 O512 1.265 . S
O503 C502 1.227 . S
N504 Co501 2.121 . S
N504 C506 1.375 . S
N504 C507 1.313 . S
C505 C506 1.338 . S
C505 N508 1.377 . S
C505 H525 0.930 . S
C506 N504 1.375 . S
C506 C505 1.338 . S
C506 H510 0.931 . S
C507 N504 1.313 . S
C507 N508 1.344 . S
C507 H511 0.930 . S
N508 C505 1.377 . S
N508 C507 1.344 . S
O509 Co501 2.055 . S
O509 C513 1.253 . S
H510 C506 0.931 . S
H511 C507 0.930 . S
O512 Co501 2.039 . S
O512 C502 1.265 . S
C513 O509 1.253 . S
C513 O514 1.227 . S
O514 C513 1.227 . S
N515 Co501 2.140 . S
N515 C518 1.346 . S
N515 C519 1.345 . S
C516 C517 1.387 . S
C516 C520 1.391 . S
C517 C516 1.387 . S
C517 C518 1.369 . S
C517 H526 0.929 . S
C518 N515 1.346 . S
C518 C517 1.369 . S
C518 H521 0.928 . S
C519 N515 1.345 . S
C519 C520 1.371 . S
C519 H522 0.931 . S
C520 C516 1.391 . S
C520 C519 1.371 . S
C520 H527 0.930 . S
H521 C518 0.928 . S
H522 C519 0.931 . S
H523 C499 0.930 . S
H524 C496 0.930 . S
H525 C505 0.930 . S
H526 C517 0.929 . S
H527 C520 0.930 . S
C528 C529 1.369 . S
C528 C530 1.419 1_545 S
C528 H532 0.930 . S
C529 C528 1.369 . S
C529 C538 1.429 1_455 S
C530 C528 1.419 1_565 S
C530 C531 1.363 1_455 S
C530 H533 0.929 . S
C531 C530 1.363 1_655 S
C531 C537 1.428 . S
H532 C528 0.930 . S
H533 C530 0.929 . S
S534 N535 1.613 . S
S534 N536 1.610 1_545 S
N535 S534 1.613 . S
N535 C538 1.350 . S
N536 S534 1.610 1_565 S
N536 C537 1.351 . S
C537 C531 1.428 . S
C537 N536 1.351 . S
C537 C538 1.434 1_565 S
C538 C529 1.429 1_655 S
C538 N535 1.350 . S
C538 C537 1.434 1_545 S
C539 C540 1.369 1_545 S
C539 C541 1.419 1_455 S
C539 H543 0.930 . S
C540 C539 1.369 1_565 S
C540 C549 1.429 . S
C541 C539 1.419 1_655 S
C541 C542 1.363 . S
C541 H544 0.929 . S
C542 C541 1.363 . S
C542 C548 1.428 1_545 S
H543 C539 0.930 . S
H544 C541 0.929 . S
S545 N546 1.613 1_655 S
S545 N547 1.610 . S
N546 S545 1.613 1_455 S
N546 C549 1.350 . S
N547 S545 1.610 . S
N547 C548 1.351 . S
C548 C542 1.428 1_565 S
C548 N547 1.351 . S
C548 C549 1.434 1_655 S
C549 C540 1.429 . S
C549 N546 1.350 . S
C549 C548 1.434 1_455 S
C550 C551 1.369 . S
C550 C552 1.419 . S
C550 H554 0.930 . S
C551 C550 1.369 . S
C551 C560 1.429 . S
C552 C550 1.419 . S
C552 C553 1.363 . S
C552 H555 0.929 . S
C553 C552 1.363 . S
C553 C559 1.428 . S
H554 C550 0.930 . S
H555 C552 0.929 . S
S556 N557 1.613 . S
S556 N558 1.610 . S
N557 S556 1.613 . S
N557 C560 1.350 . S
N558 S556 1.610 . S
N558 C559 1.351 . S
C559 C553 1.428 . S
C559 N558 1.351 . S
C559 C560 1.434 . S
C560 C551 1.429 . S
C560 N557 1.350 . S
C560 C559 1.434 . S
C561 C562 1.369 . S
C561 C563 1.419 . S
C561 H565 0.930 . S
C562 C561 1.369 . S
C562 C571 1.429 . S
C563 C561 1.419 . S
C563 C564 1.363 . S
C563 H566 0.929 . S
C564 C563 1.363 . S
C564 C570 1.428 . S
H565 C561 0.930 . S
H566 C563 0.929 . S
S567 N568 1.613 . S
S567 N569 1.610 . S
N568 S567 1.613 . S
N568 C571 1.350 . S
N569 S567 1.610 . S
N569 C570 1.351 . S
C570 C564 1.428 . S
C570 N569 1.351 . S
C570 C571 1.434 . S
C571 C562 1.429 . S
C571 N568 1.350 . S
C571 C570 1.434 . S
C572 C573 1.369 . S
C572 C574 1.419 1_545 S
C572 H576 0.930 . S
C573 C572 1.369 . S
C573 C582 1.429 1_455 S
C574 C572 1.419 1_565 S
C574 C575 1.363 1_455 S
C574 H577 0.929 . S
C575 C574 1.363 1_655 S
C575 C581 1.428 . S
H576 C572 0.930 . S
H577 C574 0.929 . S
S578 N579 1.613 . S
S578 N580 1.610 1_545 S
N579 S578 1.613 . S
N579 C582 1.350 . S
N580 S578 1.610 1_565 S
N580 C581 1.351 . S
C581 C575 1.428 . S
C581 N580 1.351 . S
C581 C582 1.434 1_565 S
C582 C573 1.429 1_655 S
C582 N579 1.350 . S
C582 C581 1.434 1_545 S
C583 C584 1.369 1_545 S
C583 C585 1.419 1_455 S
C583 H587 0.930 . S
C584 C583 1.369 1_565 S
C584 C593 1.429 . S
C585 C583 1.419 1_655 S
C585 C586 1.363 . S
C585 H588 0.929 . S
C586 C585 1.363 . S
C586 C592 1.428 1_545 S
H587 C583 0.930 . S
H588 C585 0.929 . S
S589 N590 1.613 1_655 S
S589 N591 1.610 . S
N590 S589 1.613 1_455 S
N590 C593 1.350 . S
N591 S589 1.610 . S
N591 C592 1.351 . S
C592 C586 1.428 1_565 S
C592 N591 1.351 . S
C592 C593 1.434 1_655 S
C593 C584 1.429 . S
C593 N590 1.350 . S
C593 C592 1.434 1_455 S
C594 C595 1.369 . S
C594 C596 1.419 . S
C594 H598 0.930 . S
C595 C594 1.369 . S
C595 C604 1.429 . S
C596 C594 1.419 . S
C596 C597 1.363 . S
C596 H599 0.929 . S
C597 C596 1.363 . S
C597 C603 1.428 . S
H598 C594 0.930 . S
H599 C596 0.929 . S
S600 N601 1.613 . S
S600 N602 1.610 . S
N601 S600 1.613 . S
N601 C604 1.350 . S
N602 S600 1.610 . S
N602 C603 1.351 . S
C603 C597 1.428 . S
C603 N602 1.351 . S
C603 C604 1.434 . S
C604 C595 1.429 . S
C604 N601 1.350 . S
C604 C603 1.434 . S
C605 C606 1.369 . S
C605 C607 1.419 . S
C605 H609 0.930 . S
C606 C605 1.369 . S
C606 C615 1.429 . S
C607 C605 1.419 . S
C607 C608 1.363 . S
C607 H610 0.929 . S
C608 C607 1.363 . S
C608 C614 1.428 . S
H609 C605 0.930 . S
H610 C607 0.929 . S
S611 N612 1.613 . S
S611 N613 1.610 . S
N612 S611 1.613 . S
N612 C615 1.350 . S
N613 S611 1.610 . S
N613 C614 1.351 . S
C614 C608 1.428 . S
C614 N613 1.351 . S
C614 C615 1.434 . S
C615 C606 1.429 . S
C615 N612 1.350 . S
C615 C614 1.434 . S
C616 C617 1.369 . S
C616 C618 1.419 1_554 S
C616 H620 0.930 . S
C617 C616 1.369 . S
C617 C626 1.429 . S
C618 C616 1.419 1_556 S
C618 C619 1.363 . S
C618 H621 0.929 . S
C619 C618 1.363 . S
C619 C625 1.428 . S
H620 C616 0.930 . S
H621 C618 0.929 . S
S622 N623 1.617 1_556 S
S622 N624 1.609 . S
N623 S622 1.617 1_554 S
N623 C626 1.350 . S
N624 S622 1.609 . S
N624 C625 1.351 . S
C625 C619 1.428 . S
C625 N624 1.351 . S
C625 C626 1.434 1_556 S
C626 C617 1.429 . S
C626 N623 1.350 . S
C626 C625 1.434 1_554 S
C627 C628 1.369 . S
C627 C629 1.419 . S
C627 H631 0.930 . S
C628 C627 1.369 . S
C628 C637 1.429 1_545 S
C629 C627 1.419 . S
C629 C630 1.363 . S
C629 H632 0.929 . S
C630 C629 1.363 . S
C630 C636 1.428 1_545 S
H631 C627 0.930 . S
H632 C629 0.929 . S
S633 N634 1.613 . S
S633 N635 1.610 . S
N634 S633 1.613 . S
N634 C637 1.350 . S
N635 S633 1.610 . S
N635 C636 1.351 . S
C636 C630 1.428 1_565 S
C636 N635 1.351 . S
C636 C637 1.434 . S
C637 C628 1.429 1_565 S
C637 N634 1.350 . S
C637 C636 1.434 . S
C638 C639 1.369 . S
C638 C640 1.419 1_556 S
C638 H642 0.930 . S
C639 C638 1.369 . S
C639 C648 1.429 1_655 S
C640 C638 1.419 1_554 S
C640 C641 1.363 . S
C640 H643 0.929 . S
C641 C640 1.363 . S
C641 C647 1.428 1_655 S
H642 C638 0.930 . S
H643 C640 0.929 . S
S644 N645 1.615 1_554 S
S644 N646 1.608 . S
N645 S644 1.615 1_556 S
N645 C648 1.350 . S
N646 S644 1.608 . S
N646 C647 1.351 . S
C647 C641 1.428 1_455 S
C647 N646 1.351 . S
C647 C648 1.434 1_554 S
C648 C639 1.429 1_455 S
C648 N645 1.350 . S
C648 C647 1.434 1_556 S
C649 C650 1.369 1_545 S
C649 C651 1.419 . S
C649 H653 0.930 . S
C650 C649 1.369 1_565 S
C650 C659 1.429 . S
C651 C649 1.419 . S
C651 C652 1.363 1_545 S
C651 H654 0.929 . S
C652 C651 1.363 1_565 S
C652 C658 1.428 . S
H653 C649 0.930 . S
H654 C651 0.929 . S
S655 N656 1.613 . S
S655 N657 1.610 . S
N656 S655 1.613 . S
N656 C659 1.350 . S
N657 S655 1.610 . S
N657 C658 1.351 . S
C658 C652 1.428 . S
C658 N657 1.351 . S
C658 C659 1.434 . S
C659 C650 1.429 . S
C659 N656 1.350 . S
C659 C658 1.434 . S
C660 C661 1.369 . S
C660 C662 1.419 1_554 S
C660 H664 0.930 . S
C661 C660 1.369 . S
C661 C670 1.429 . S
C662 C660 1.419 1_556 S
C662 C663 1.363 . S
C662 H665 0.929 . S
C663 C662 1.363 . S
C663 C669 1.428 . S
H664 C660 0.930 . S
H665 C662 0.929 . S
S666 N667 1.615 1_556 S
S666 N668 1.608 . S
N667 S666 1.615 1_554 S
N667 C670 1.350 . S
N668 S666 1.608 . S
N668 C669 1.351 . S
C669 C663 1.428 . S
C669 N668 1.351 . S
C669 C670 1.434 1_556 S
C670 C661 1.429 . S
C670 N667 1.350 . S
C670 C669 1.434 1_554 S
C671 C672 1.369 . S
C671 C673 1.419 . S
C671 H675 0.930 . S
C672 C671 1.369 . S
C672 C681 1.429 . S
C673 C671 1.419 . S
C673 C674 1.363 . S
C673 H676 0.929 . S
C674 C673 1.363 . S
C674 C680 1.428 . S
H675 C671 0.930 . S
H676 C673 0.929 . S
S677 N678 1.613 . S
S677 N679 1.610 . S
N678 S677 1.613 . S
N678 C681 1.350 . S
N679 S677 1.610 . S
N679 C680 1.351 . S
C680 C674 1.428 . S
C680 N679 1.351 . S
C680 C681 1.434 . S
C681 C672 1.429 . S
C681 N678 1.350 . S
C681 C680 1.434 . S
C682 C683 1.369 . S
C682 C684 1.419 1_554 S
C682 H686 0.930 . S
C683 C682 1.369 . S
C683 C692 1.429 . S
C684 C682 1.419 1_556 S
C684 C685 1.363 . S
C684 H687 0.929 . S
C685 C684 1.363 . S
C685 C691 1.428 . S
H686 C682 0.930 . S
H687 C684 0.929 . S
S688 N689 1.615 1_556 S
S688 N690 1.608 . S
N689 S688 1.615 1_554 S
N689 C692 1.350 . S
N690 S688 1.608 . S
N690 C691 1.351 . S
C691 C685 1.428 . S
C691 N690 1.351 . S
C691 C692 1.434 1_556 S
C692 C683 1.429 . S
C692 N689 1.350 . S
C692 C691 1.434 1_554 S
C693 C694 1.369 . S
C693 C695 1.419 . S
C693 H697 0.930 . S
C694 C693 1.369 . S
C694 C703 1.429 . S
C695 C693 1.419 . S
C695 C696 1.363 . S
C695 H698 0.929 . S
C696 C695 1.363 . S
C696 C702 1.428 . S
H697 C693 0.930 . S
H698 C695 0.929 . S
S699 N700 1.613 . S
S699 N701 1.610 . S
N700 S699 1.613 . S
N700 C703 1.350 . S
N701 S699 1.610 . S
N701 C702 1.351 . S
C702 C696 1.428 . S
C702 N701 1.351 . S
C702 C703 1.434 . S
C703 C694 1.429 . S
C703 N700 1.350 . S
C703 C702 1.434 . S
C704 C705 1.369 . S
C704 C706 1.419 . S
C704 H708 0.930 . S
C705 C704 1.369 . S
C705 C714 1.429 . S
C706 C704 1.419 . S
C706 C707 1.363 . S
C706 H709 0.929 . S
C707 C706 1.363 . S
C707 C713 1.428 . S
H708 C704 0.930 . S
H709 C706 0.929 . S
S710 N711 1.613 . S
S710 N712 1.610 . S
N711 S710 1.613 . S
N711 C714 1.350 . S
N712 S710 1.610 . S
N712 C713 1.351 . S
C713 C707 1.428 . S
C713 N712 1.351 . S
C713 C714 1.434 . S
C714 C705 1.429 . S
C714 N711 1.350 . S
C714 C713 1.434 . S
C715 C716 1.369 . S
C715 C717 1.419 . S
C715 H719 0.930 . S
C716 C715 1.369 . S
C716 C725 1.429 . S
C717 C715 1.419 . S
C717 C718 1.363 . S
C717 H720 0.929 . S
C718 C717 1.363 . S
C718 C724 1.428 . S
H719 C715 0.930 . S
H720 C717 0.929 . S
S721 N722 1.613 . S
S721 N723 1.610 . S
N722 S721 1.613 . S
N722 C725 1.350 . S
N723 S721 1.610 . S
N723 C724 1.351 . S
C724 C718 1.428 . S
C724 N723 1.351 . S
C724 C725 1.434 . S
C725 C716 1.429 . S
C725 N722 1.350 . S
C725 C724 1.434 . S
C726 C727 1.369 . S
C726 C728 1.419 . S
C726 H730 0.930 . S
C727 C726 1.369 . S
C727 C736 1.429 . S
C728 C726 1.419 . S
C728 C729 1.363 . S
C728 H731 0.929 . S
C729 C728 1.363 . S
C729 C735 1.428 . S
H730 C726 0.930 . S
H731 C728 0.929 . S
S732 N733 1.613 . S
S732 N734 1.610 . S
N733 S732 1.613 . S
N733 C736 1.350 . S
N734 S732 1.610 . S
N734 C735 1.351 . S
C735 C729 1.428 . S
C735 N734 1.351 . S
C735 C736 1.434 . S
C736 C727 1.429 . S
C736 N733 1.350 . S
C736 C735 1.434 . S
C737 C738 1.369 . S
C737 C739 1.419 . S
C737 H741 0.930 . S
C738 C737 1.369 . S
C738 C747 1.429 . S
C739 C737 1.419 . S
C739 C740 1.363 . S
C739 H742 0.929 . S
C740 C739 1.363 . S
C740 C746 1.428 . S
H741 C737 0.930 . S
H742 C739 0.929 . S
S743 N744 1.613 . S
S743 N745 1.610 . S
N744 S743 1.613 . S
N744 C747 1.350 . S
N745 S743 1.610 . S
N745 C746 1.351 . S
C746 C740 1.428 . S
C746 N745 1.351 . S
C746 C747 1.434 . S
C747 C738 1.429 . S
C747 N744 1.350 . S
C747 C746 1.434 . S
C748 C749 1.369 . S
C748 C750 1.419 . S
C748 H752 0.930 . S
C749 C748 1.369 . S
C749 C758 1.429 . S
C750 C748 1.419 . S
C750 C751 1.363 . S
C750 H753 0.929 . S
C751 C750 1.363 . S
C751 C757 1.428 . S
H752 C748 0.930 . S
H753 C750 0.929 . S
S754 N755 1.613 . S
S754 N756 1.610 . S
N755 S754 1.613 . S
N755 C758 1.350 . S
N756 S754 1.610 . S
N756 C757 1.351 . S
C757 C751 1.428 . S
C757 N756 1.351 . S
C757 C758 1.434 . S
C758 C749 1.429 . S
C758 N755 1.350 . S
C758 C757 1.434 . S
C759 C760 1.369 . S
C759 C761 1.419 . S
C759 H763 0.930 . S
C760 C759 1.369 . S
C760 C769 1.429 . S
C761 C759 1.419 . S
C761 C762 1.363 . S
C761 H764 0.929 . S
C762 C761 1.363 . S
C762 C768 1.428 . S
H763 C759 0.930 . S
H764 C761 0.929 . S
S765 N766 1.613 . S
S765 N767 1.610 . S
N766 S765 1.613 . S
N766 C769 1.350 . S
N767 S765 1.610 . S
N767 C768 1.351 . S
C768 C762 1.428 . S
C768 N767 1.351 . S
C768 C769 1.434 . S
C769 C760 1.429 . S
C769 N766 1.350 . S
C769 C768 1.434 . S
C770 C771 1.369 . S
C770 C772 1.419 . S
C770 H774 0.930 . S
C771 C770 1.369 . S
C771 C780 1.429 . S
C772 C770 1.419 . S
C772 C773 1.363 . S
C772 H775 0.929 . S
C773 C772 1.363 . S
C773 C779 1.428 . S
H774 C770 0.930 . S
H775 C772 0.929 . S
S776 N777 1.613 . S
S776 N778 1.610 . S
N777 S776 1.613 . S
N777 C780 1.350 . S
N778 S776 1.610 . S
N778 C779 1.351 . S
C779 C773 1.428 . S
C779 N778 1.351 . S
C779 C780 1.434 . S
C780 C771 1.429 . S
C780 N777 1.350 . S
C780 C779 1.434 . S
C781 C782 1.369 . S
C781 C783 1.419 . S
C781 H785 0.930 . S
C782 C781 1.369 . S
C782 C791 1.429 . S
C783 C781 1.419 . S
C783 C784 1.363 . S
C783 H786 0.929 . S
C784 C783 1.363 . S
C784 C790 1.428 . S
H785 C781 0.930 . S
H786 C783 0.929 . S
S787 N788 1.613 . S
S787 N789 1.610 . S
N788 S787 1.613 . S
N788 C791 1.350 . S
N789 S787 1.610 . S
N789 C790 1.351 . S
C790 C784 1.428 . S
C790 N789 1.351 . S
C790 C791 1.434 . S
C791 C782 1.429 . S
C791 N788 1.350 . S
C791 C790 1.434 . S
C792 C793 1.369 . S
C792 C794 1.419 . S
C792 H796 0.930 . S
C793 C792 1.369 . S
C793 C802 1.429 . S
C794 C792 1.419 . S
C794 C795 1.363 . S
C794 H797 0.929 . S
C795 C794 1.363 . S
C795 C801 1.428 . S
H796 C792 0.930 . S
H797 C794 0.929 . S
S798 N799 1.613 . S
S798 N800 1.610 . S
N799 S798 1.613 . S
N799 C802 1.350 . S
N800 S798 1.610 . S
N800 C801 1.351 . S
C801 C795 1.428 . S
C801 N800 1.351 . S
C801 C802 1.434 . S
C802 C793 1.429 . S
C802 N799 1.350 . S
C802 C801 1.434 . S
C803 C804 1.369 . S
C803 C805 1.419 . S
C803 H807 0.930 . S
C804 C803 1.369 . S
C804 C813 1.429 . S
C805 C803 1.419 . S
C805 C806 1.363 . S
C805 H808 0.929 . S
C806 C805 1.363 . S
C806 C812 1.428 . S
H807 C803 0.930 . S
H808 C805 0.929 . S
S809 N810 1.613 . S
S809 N811 1.610 . S
N810 S809 1.613 . S
N810 C813 1.350 . S
N811 S809 1.610 . S
N811 C812 1.351 . S
C812 C806 1.428 . S
C812 N811 1.351 . S
C812 C813 1.434 . S
C813 C804 1.429 . S
C813 N810 1.350 . S
C813 C812 1.434 . S
C814 C815 1.369 . S
C814 C816 1.419 . S
C814 H818 0.930 . S
C815 C814 1.369 . S
C815 C824 1.429 . S
C816 C814 1.419 . S
C816 C817 1.363 . S
C816 H819 0.929 . S
C817 C816 1.363 . S
C817 C823 1.428 . S
H818 C814 0.930 . S
H819 C816 0.929 . S
S820 N821 1.613 . S
S820 N822 1.610 . S
N821 S820 1.613 . S
N821 C824 1.350 . S
N822 S820 1.610 . S
N822 C823 1.351 . S
C823 C817 1.428 . S
C823 N822 1.351 . S
C823 C824 1.434 . S
C824 C815 1.429 . S
C824 N821 1.350 . S
C824 C823 1.434 . S
C825 C826 1.369 . S
C825 C827 1.419 . S
C825 H829 0.930 . S
C826 C825 1.369 . S
C826 C835 1.429 . S
C827 C825 1.419 . S
C827 C828 1.363 . S
C827 H830 0.929 . S
C828 C827 1.363 . S
C828 C834 1.428 . S
H829 C825 0.930 . S
H830 C827 0.929 . S
S831 N832 1.613 . S
S831 N833 1.610 . S
N832 S831 1.613 . S
N832 C835 1.350 . S
N833 S831 1.610 . S
N833 C834 1.351 . S
C834 C828 1.428 . S
C834 N833 1.351 . S
C834 C835 1.434 . S
C835 C826 1.429 . S
C835 N832 1.350 . S
C835 C834 1.434 . S
C836 C837 1.369 . S
C836 C838 1.419 . S
C836 H840 0.930 . S
C837 C836 1.369 . S
C837 C846 1.429 . S
C838 C836 1.419 . S
C838 C839 1.363 . S
C838 H841 0.929 . S
C839 C838 1.363 . S
C839 C845 1.428 . S
H840 C836 0.930 . S
H841 C838 0.929 . S
S842 N843 1.613 . S
S842 N844 1.610 . S
N843 S842 1.613 . S
N843 C846 1.350 . S
N844 S842 1.610 . S
N844 C845 1.351 . S
C845 C839 1.428 . S
C845 N844 1.351 . S
C845 C846 1.434 . S
C846 C837 1.429 . S
C846 N843 1.350 . S
C846 C845 1.434 . S
C847 C848 1.369 . S
C847 C849 1.419 . S
C847 H851 0.930 . S
C848 C847 1.369 . S
C848 C857 1.429 . S
C849 C847 1.419 . S
C849 C850 1.363 . S
C849 H852 0.929 . S
C850 C849 1.363 . S
C850 C856 1.428 . S
H851 C847 0.930 . S
H852 C849 0.929 . S
S853 N854 1.613 . S
S853 N855 1.610 . S
N854 S853 1.613 . S
N854 C857 1.350 . S
N855 S853 1.610 . S
N855 C856 1.351 . S
C856 C850 1.428 . S
C856 N855 1.351 . S
C856 C857 1.434 . S
C857 C848 1.429 . S
C857 N854 1.350 . S
C857 C856 1.434 . S
C858 C859 1.369 . S
C858 C860 1.419 . S
C858 H862 0.930 . S
C859 C858 1.369 . S
C859 C868 1.429 . S
C860 C858 1.419 . S
C860 C861 1.363 . S
C860 H863 0.929 . S
C861 C860 1.363 . S
C861 C867 1.428 . S
H862 C858 0.930 . S
H863 C860 0.929 . S
S864 N865 1.613 . S
S864 N866 1.610 . S
N865 S864 1.613 . S
N865 C868 1.350 . S
N866 S864 1.610 . S
N866 C867 1.351 . S
C867 C861 1.428 . S
C867 N866 1.351 . S
C867 C868 1.434 . S
C868 C859 1.429 . S
C868 N865 1.350 . S
C868 C867 1.434 . S
C869 C870 1.369 . S
C869 C871 1.419 . S
C869 H873 0.930 . S
C870 C869 1.369 . S
C870 C879 1.429 . S
C871 C869 1.419 . S
C871 C872 1.363 . S
C871 H874 0.929 . S
C872 C871 1.363 . S
C872 C878 1.428 . S
H873 C869 0.930 . S
H874 C871 0.929 . S
S875 N876 1.613 . S
S875 N877 1.610 . S
N876 S875 1.613 . S
N876 C879 1.350 . S
N877 S875 1.610 . S
N877 C878 1.351 . S
C878 C872 1.428 . S
C878 N877 1.351 . S
C878 C879 1.434 . S
C879 C870 1.429 . S
C879 N876 1.350 . S
C879 C878 1.434 . S
C880 C881 1.369 . S
C880 C882 1.419 . S
C880 H884 0.930 . S
C881 C880 1.369 . S
C881 C890 1.429 . S
C882 C880 1.419 . S
C882 C883 1.363 . S
C882 H885 0.929 . S
C883 C882 1.363 . S
C883 C889 1.428 . S
H884 C880 0.930 . S
H885 C882 0.929 . S
S886 N887 1.613 . S
S886 N888 1.610 . S
N887 S886 1.613 . S
N887 C890 1.350 . S
N888 S886 1.610 . S
N888 C889 1.351 . S
C889 C883 1.428 . S
C889 N888 1.351 . S
C889 C890 1.434 . S
C890 C881 1.429 . S
C890 N887 1.350 . S
C890 C889 1.434 . S
C891 C892 1.369 . S
C891 C893 1.419 . S
C891 H895 0.930 . S
C892 C891 1.369 . S
C892 C901 1.429 . S
C893 C891 1.419 . S
C893 C894 1.363 . S
C893 H896 0.929 . S
C894 C893 1.363 . S
C894 C900 1.428 . S
H895 C891 0.930 . S
H896 C893 0.929 . S
S897 N898 1.613 . S
S897 N899 1.610 . S
N898 S897 1.613 . S
N898 C901 1.350 . S
N899 S897 1.610 . S
N899 C900 1.351 . S
C900 C894 1.428 . S
C900 N899 1.351 . S
C900 C901 1.434 . S
C901 C892 1.429 . S
C901 N898 1.350 . S
C901 C900 1.434 . S
C902 C903 1.369 . S
C902 C904 1.419 . S
C902 H906 0.930 . S
C903 C902 1.369 . S
C903 C912 1.429 . S
C904 C902 1.419 . S
C904 C905 1.363 . S
C904 H907 0.929 . S
C905 C904 1.363 . S
C905 C911 1.428 . S
H906 C902 0.930 . S
H907 C904 0.929 . S
S908 N909 1.613 . S
S908 N910 1.610 . S
N909 S908 1.613 . S
N909 C912 1.350 . S
N910 S908 1.610 . S
N910 C911 1.351 . S
C911 C905 1.428 . S
C911 N910 1.351 . S
C911 C912 1.434 . S
C912 C903 1.429 . S
C912 N909 1.350 . S
C912 C911 1.434 . S
C913 C914 1.369 . S
C913 C915 1.419 . S
C913 H917 0.930 . S
C914 C913 1.369 . S
C914 C923 1.429 . S
C915 C913 1.419 . S
C915 C916 1.363 . S
C915 H918 0.929 . S
C916 C915 1.363 . S
C916 C922 1.428 . S
H917 C913 0.930 . S
H918 C915 0.929 . S
S919 N920 1.613 . S
S919 N921 1.610 . S
N920 S919 1.613 . S
N920 C923 1.350 . S
N921 S919 1.610 . S
N921 C922 1.351 . S
C922 C916 1.428 . S
C922 N921 1.351 . S
C922 C923 1.434 . S
C923 C914 1.429 . S
C923 N920 1.350 . S
C923 C922 1.434 . S
C924 C925 1.369 . S
C924 C926 1.419 . S
C924 H928 0.930 . S
C925 C924 1.369 . S
C925 C934 1.429 . S
C926 C924 1.419 . S
C926 C927 1.363 . S
C926 H929 0.929 . S
C927 C926 1.363 . S
C927 C933 1.428 . S
H928 C924 0.930 . S
H929 C926 0.929 . S
S930 N931 1.613 . S
S930 N932 1.610 . S
N931 S930 1.613 . S
N931 C934 1.350 . S
N932 S930 1.610 . S
N932 C933 1.351 . S
C933 C927 1.428 . S
C933 N932 1.351 . S
C933 C934 1.434 . S
C934 C925 1.429 . S
C934 N931 1.350 . S
C934 C933 1.434 . S
C935 C936 1.369 . S
C935 C937 1.419 . S
C935 H939 0.930 . S
C936 C935 1.369 . S
C936 C945 1.429 . S
C937 C935 1.419 . S
C937 C938 1.363 . S
C937 H940 0.929 . S
C938 C937 1.363 . S
C938 C944 1.428 . S
H939 C935 0.930 . S
H940 C937 0.929 . S
S941 N942 1.613 . S
S941 N943 1.610 . S
N942 S941 1.613 . S
N942 C945 1.350 . S
N943 S941 1.610 . S
N943 C944 1.351 . S
C944 C938 1.428 . S
C944 N943 1.351 . S
C944 C945 1.434 . S
C945 C936 1.429 . S
C945 N942 1.350 . S
C945 C944 1.434 . S
C946 C947 1.369 . S
C946 C948 1.419 . S
C946 H950 0.930 . S
C947 C946 1.369 . S
C947 C956 1.429 . S
C948 C946 1.419 . S
C948 C949 1.363 . S
C948 H951 0.929 . S
C949 C948 1.363 . S
C949 C955 1.428 . S
H950 C946 0.930 . S
H951 C948 0.929 . S
S952 N953 1.613 . S
S952 N954 1.610 . S
N953 S952 1.613 . S
N953 C956 1.350 . S
N954 S952 1.610 . S
N954 C955 1.351 . S
C955 C949 1.428 . S
C955 N954 1.351 . S
C955 C956 1.434 . S
C956 C947 1.429 . S
C956 N953 1.350 . S
C956 C955 1.434 . S
C957 C958 1.369 . S
C957 C959 1.419 . S
C957 H961 0.930 . S
C958 C957 1.369 . S
C958 C967 1.429 . S
C959 C957 1.419 . S
C959 C960 1.363 . S
C959 H962 0.929 . S
C960 C959 1.363 . S
C960 C966 1.428 . S
H961 C957 0.930 . S
H962 C959 0.929 . S
S963 N964 1.613 . S
S963 N965 1.610 . S
N964 S963 1.613 . S
N964 C967 1.350 . S
N965 S963 1.610 . S
N965 C966 1.351 . S
C966 C960 1.428 . S
C966 N965 1.351 . S
C966 C967 1.434 . S
C967 C958 1.429 . S
C967 N964 1.350 . S
C967 C966 1.434 . S
C529 C21 1.406 . S
C531 C87 1.406 . S
C540 C120 1.406 . S
C542 C54 1.405 . S
C551 C219 1.403 . S
C553 C153 1.404 . S
C562 C186 1.404 . S
C564 C252 1.404 . S
C573 C351 1.405 . S
C575 C285 1.406 . S
C584 C318 1.405 . S
C586 C384 1.404 . S
C595 C483 1.405 . S
C597 C417 1.406 . S
C606 C450 1.404 . S
C608 C516 1.404 . S
C617 C7 1.541 . S
C619 C337 1.541 . S
C628 C370 1.542 . S
C630 C40 1.542 . S
C639 C271 1.543 . S
C641 C73 1.543 . S
C650 C304 1.544 . S
C652 C106 1.544 . S
C661 C469 1.542 . S
C663 C139 1.542 . S
C672 C502 1.541 . S
C674 C172 1.542 . S
C683 C403 1.546 . S
C685 C205 1.545 . S
C694 C436 1.541 . S
C696 C238 1.542 . S
C705 C18 1.414 . S
C707 C249 1.417 . S
C716 C51 1.414 . S
C718 C150 1.417 . S
C727 C183 1.417 . S
C729 C84 1.421 . S
C738 C216 1.414 . S
C740 C117 1.417 . S
C749 C282 1.421 . S
C751 C513 1.420 . S
C760 C315 1.421 . S
C762 C414 1.419 . S
C771 C348 1.422 . S
C773 C447 1.419 . S
C782 C381 1.415 . S
C784 C480 1.420 . S
C793 N464 1.362 . S
C795 N13 1.345 . S
C804 N46 1.346 . S
C806 N497 1.359 . S
C815 N398 1.357 . S
C817 N79 1.349 . S
C826 N431 1.354 . S
C828 N112 1.352 . S
C837 N332 1.359 . S
C839 N145 1.347 . S
C848 N178 1.352 . S
C850 N365 1.355 . S
C859 N266 1.359 . S
C861 N211 1.347 . S
C870 N244 1.352 . S
C872 N299 1.355 . S
C881 N200 1.354 . S
C883 N277 1.352 . S
C892 N233 1.359 . S
C894 N310 1.348 . S
C903 N134 1.357 . S
C905 N343 1.350 . S
C914 N376 1.346 . S
C916 N167 1.360 . S
C925 N68 1.354 . S
C927 N409 1.351 . S
C936 N442 1.350 . S
C938 N101 1.356 . S
C947 N475 1.344 . S
C949 N2 1.361 . S
C958 N35 1.362 . S
C960 N508 1.345 . S
