# Generated by pormake.
# Topology snk, (6)-cn, num edge types: 1
# Building blocks:
#     Node 0, Type 0, BuildingBlock: MIFKUJ_clean_sbu_0, # of connection points: 6
#     Node 1, Type 0, BuildingBlock: MIFKUJ_clean_sbu_0, # of connection points: 6
#     Node 2, Type 0, BuildingBlock: MIFKUJ_clean_sbu_0, # of connection points: 6
#     Node 3, Type 0, BuildingBlock: MIFKUJ_clean_sbu_0, # of connection points: 6
#     Node 4, Type 0, BuildingBlock: MIFKUJ_clean_sbu_0, # of connection points: 6
#     Node 5, Type 0, BuildingBlock: MIFKUJ_clean_sbu_0, # of connection points: 6
#     Node 6, Type 0, BuildingBlock: MIFKUJ_clean_sbu_0, # of connection points: 6
#     Node 7, Type 0, BuildingBlock: MIFKUJ_clean_sbu_0, # of connection points: 6
#     Edge 8, Type (0, 0), BuildingBlock: EZIPEK_clean_linker_0, # of connection points: 2
#     Edge 9, Type (0, 0), BuildingBlock: EZIPEK_clean_linker_0, # of connection points: 2
#     Edge 10, Type (0, 0), BuildingBlock: EZIPEK_clean_linker_0, # of connection points: 2
#     Edge 11, Type (0, 0), BuildingBlock: EZIPEK_clean_linker_0, # of connection points: 2
#     Edge 12, Type (0, 0), BuildingBlock: EZIPEK_clean_linker_0, # of connection points: 2
#     Edge 13, Type (0, 0), BuildingBlock: EZIPEK_clean_linker_0, # of connection points: 2
#     Edge 14, Type (0, 0), BuildingBlock: EZIPEK_clean_linker_0, # of connection points: 2
#     Edge 15, Type (0, 0), BuildingBlock: EZIPEK_clean_linker_0, # of connection points: 2
#     Edge 16, Type (0, 0), BuildingBlock: EZIPEK_clean_linker_0, # of connection points: 2
#     Edge 17, Type (0, 0), BuildingBlock: EZIPEK_clean_linker_0, # of connection points: 2
#     Edge 18, Type (0, 0), BuildingBlock: EZIPEK_clean_linker_0, # of connection points: 2
#     Edge 19, Type (0, 0), BuildingBlock: EZIPEK_clean_linker_0, # of connection points: 2
#     Edge 20, Type (0, 0), BuildingBlock: EZIPEK_clean_linker_0, # of connection points: 2
#     Edge 21, Type (0, 0), BuildingBlock: EZIPEK_clean_linker_0, # of connection points: 2
#     Edge 22, Type (0, 0), BuildingBlock: EZIPEK_clean_linker_0, # of connection points: 2
#     Edge 23, Type (0, 0), BuildingBlock: EZIPEK_clean_linker_0, # of connection points: 2
#     Edge 24, Type (0, 0), BuildingBlock: EZIPEK_clean_linker_0, # of connection points: 2
#     Edge 25, Type (0, 0), BuildingBlock: EZIPEK_clean_linker_0, # of connection points: 2
#     Edge 26, Type (0, 0), BuildingBlock: EZIPEK_clean_linker_0, # of connection points: 2
#     Edge 27, Type (0, 0), BuildingBlock: EZIPEK_clean_linker_0, # of connection points: 2
#     Edge 28, Type (0, 0), BuildingBlock: EZIPEK_clean_linker_0, # of connection points: 2
#     Edge 29, Type (0, 0), BuildingBlock: EZIPEK_clean_linker_0, # of connection points: 2
#     Edge 30, Type (0, 0), BuildingBlock: EZIPEK_clean_linker_0, # of connection points: 2
#     Edge 31, Type (0, 0), BuildingBlock: EZIPEK_clean_linker_0, # of connection points: 2
# Relax obj value: 0.045
# Max RMSD: 0.080
# Mean RMSD: 0.071
data_MOF--net-snk--node1-MIFKUJ_clean_sbu_0--edge1-EZIPEK_clean_linker_0
_symmetry_space_group_name_H-M    P1
_symmetry_Int_Tables_number       1
_symmetry_cell_setting            triclinic
loop_
_symmetry_equiv_pos_as_xyz
'x, y, z'
_cell_length_a     31.59951
_cell_length_b     31.340789
_cell_length_c     14.633806
_cell_angle_alpha  99.203646
_cell_angle_beta   79.884402
_cell_angle_gamma 89.964194
loop_
_atom_site_label
_atom_site_type_symbol
_atom_site_fract_x
_atom_site_fract_y
_atom_site_fract_z
_atom_type_partial_charge
Zn0 Zn 0.00602 0.98669 0.3748 0.0
Zn1 Zn 0.01739 0.99985 0.58649 0.0
C2 C 0.93325 0.03963 0.39575 0.0
O3 O 0.9218 0.00543 0.34277 0.0
C4 C 0.06554 0.92643 0.58519 0.0
O5 O 0.03475 0.9252 0.65698 0.0
O6 O 0.00313 0.97749 0.23258 0.0
O7 O 0.06464 0.00845 0.39001 0.0
O8 O 0.03926 0.05056 0.52455 0.0
C9 C 0.02113 0.00381 0.18058 0.0
O10 O 0.04471 0.03443 0.21591 0.0
O11 O 0.96764 0.03832 0.42827 0.0
C12 C 0.99753 1.00183 0.79469 0.0
O13 O 0.96109 0.98499 0.77818 0.0
O14 O 0.0236 0.01382 0.72725 0.0
O15 O 0.95798 0.97526 0.5733 0.0
O16 O 0.98048 0.93539 0.43503 0.0
O17 O 0.0631 0.95405 0.53206 0.0
C18 C 0.06612 0.04335 0.44743 0.0
C19 C 0.95293 0.94309 0.51102 0.0
Zn20 Zn 0.23349 0.74339 0.86687 0.0
Zn21 Zn 0.25005 0.7557 0.63995 0.0
C22 C 0.28976 0.67782 0.88567 0.0
O23 O 0.25371 0.66579 0.9324 0.0
C24 C 0.20474 0.8327 0.66454 0.0
O25 O 0.24332 0.84202 0.62377 0.0
O26 O 0.21245 0.74973 0.00888 0.0
O27 O 0.24895 0.80219 0.83921 0.0
O28 O 0.29616 0.78099 0.7094 0.0
C29 C 0.23935 0.76475 0.06039 0.0
O30 O 0.27626 0.7783 0.0202 0.0
O31 O 0.28951 0.7108 0.84588 0.0
C32 C 0.23223 0.76346 0.45671 0.0
O33 O 0.19291 0.76382 0.5037 0.0
O34 O 0.26398 0.75946 0.49836 0.0
O35 O 0.23038 0.69548 0.65055 0.0
O36 O 0.19243 0.70711 0.79582 0.0
O37 O 0.19979 0.79543 0.68685 0.0
C38 C 0.28483 0.80653 0.78711 0.0
C39 C 0.20008 0.68573 0.71255 0.0
Zn40 Zn 0.52301 0.02194 0.12036 0.0
Zn41 Zn 0.47934 0.98754 0.8854 0.0
C42 C 0.60594 0.06493 0.11026 0.0
O43 O 0.62287 0.02958 0.05529 0.0
C44 C 0.40324 0.9419 0.85933 0.0
O45 O 0.39397 0.97702 0.82757 0.0
O46 O 0.50882 1.0002 0.24271 0.0
O47 O 0.46902 0.0554 0.10916 0.0
O48 O 0.44687 0.03944 0.97293 0.0
C49 C 0.50539 0.0279 0.31725 0.0
O50 O 0.50785 0.06924 0.31139 0.0
O51 O 0.56574 0.06809 0.1413 0.0
C52 C 0.48535 0.97687 0.6839 0.0
O53 O 0.48022 0.93596 0.69111 0.0
O54 O 0.48698 0.00444 0.75678 0.0
O55 O 0.53596 0.95679 0.89021 0.0
O56 O 0.5565 0.97202 0.02848 0.0
O57 O 0.43765 0.93973 0.89174 0.0
C58 C 0.44335 0.0618 0.05457 0.0
C59 C 0.56132 0.95067 0.94567 0.0
Zn60 Zn 0.25231 0.26272 0.13666 0.0
Zn61 Zn 0.24724 0.24593 0.35398 0.0
C62 C 0.30215 0.33899 0.10511 0.0
O63 O 0.27127 0.34566 0.05935 0.0
C64 C 0.19771 0.16885 0.38508 0.0
O65 O 0.22764 0.16265 0.43365 0.0
O66 O 0.23946 0.25787 0.00441 0.0
O67 O 0.27712 0.2018 0.14028 0.0
O68 O 0.30413 0.22073 0.26872 0.0
C69 C 0.26829 0.2604 0.93312 0.0
O70 O 0.30854 0.26512 0.94308 0.0
O71 O 0.30061 0.30642 0.14772 0.0
C72 C 0.2316 0.24933 0.55711 0.0
O73 O 0.19121 0.24646 0.54719 0.0
O74 O 0.26066 0.25047 0.48554 0.0
O75 O 0.22099 0.30637 0.35263 0.0
O76 O 0.19591 0.28971 0.22071 0.0
O77 O 0.19956 0.20139 0.34229 0.0
C78 C 0.30542 0.19619 0.18986 0.0
C79 C 0.19383 0.31308 0.30119 0.0
Zn80 Zn 0.76059 0.23915 0.39893 0.0
Zn81 Zn 0.73819 0.28537 0.1615 0.0
C82 C 0.82643 0.17556 0.34557 0.0
O83 O 0.80863 0.16619 0.27054 0.0
C84 C 0.69702 0.35952 0.15541 0.0
O85 O 0.73584 0.36243 0.10707 0.0
O86 O 0.7329 0.26233 0.52944 0.0
O87 O 0.77579 0.28128 0.31484 0.0
O88 O 0.78712 0.31981 0.20465 0.0
C89 C 0.75895 0.27513 0.58406 0.0
O90 O 0.7996 0.27945 0.54874 0.0
O91 O 0.81257 0.20743 0.40803 0.0
C92 C 0.71927 0.26341 0.97784 0.0
O93 O 0.6805 0.25894 0.02466 0.0
O94 O 0.75034 0.27147 0.02176 0.0
O95 O 0.72152 0.23294 0.22366 0.0
O96 O 0.72291 0.1961 0.3389 0.0
O97 O 0.68855 0.32606 0.19244 0.0
C98 C 0.79546 0.31187 0.28147 0.0
C99 C 0.71089 0.19996 0.26209 0.0
Zn100 Zn 0.75306 0.76625 0.63614 0.0
Zn101 Zn 0.74419 0.74229 0.86146 0.0
C102 C 0.79887 0.84398 0.59791 0.0
O103 O 0.76172 0.85666 0.58159 0.0
C104 C 0.69705 0.66387 0.87126 0.0
O105 O 0.73386 0.64995 0.8872 0.0
O106 O 0.73453 0.75988 0.51042 0.0
O107 O 0.78124 0.70689 0.63585 0.0
O108 O 0.79883 0.71374 0.77684 0.0
C109 C 0.7633 0.75643 0.43704 0.0
O110 O 0.80403 0.75453 0.44476 0.0
O111 O 0.80203 0.80821 0.62725 0.0
C112 C 0.72827 0.75684 0.06251 0.0
O113 O 0.69148 0.77239 0.05008 0.0
O114 O 0.75669 0.74254 0.99142 0.0
O115 O 0.72141 0.80416 0.86543 0.0
O116 O 0.70047 0.79649 0.72757 0.0
O117 O 0.69419 0.70188 0.85223 0.0
C118 C 0.80421 0.69522 0.69144 0.0
C119 C 0.69704 0.81546 0.81235 0.0
Zn120 Zn 0.48823 0.49777 0.86794 0.0
Zn121 Zn 0.50003 0.51263 0.08786 0.0
C122 C 0.41677 0.55266 0.88667 0.0
O123 O 0.40169 0.51663 0.84742 0.0
C124 C 0.57819 0.47452 0.06491 0.0
O125 O 0.5817 0.5145 0.10616 0.0
O126 O 0.48629 0.48087 0.72667 0.0
O127 O 0.54727 0.51732 0.88233 0.0
O128 O 0.52747 0.55992 0.01955 0.0
C129 C 0.50454 0.50407 0.66793 0.0
O130 O 0.52719 0.53689 0.69739 0.0
O131 O 0.45365 0.55251 0.90852 0.0
C132 C 0.49549 0.49139 0.2718 0.0
O133 O 0.48858 0.45367 0.22387 0.0
O134 O 0.50039 0.52431 0.22995 0.0
O135 O 0.4406 0.49341 0.07471 0.0
O136 O 0.45975 0.45092 0.93791 0.0
O137 O 0.54187 0.46346 0.04494 0.0
C138 C 0.55277 0.55097 0.94016 0.0
C139 C 0.43545 0.45943 0.01822 0.0
Zn140 Zn 0.00736 0.50506 0.61527 0.0
Zn141 Zn 0.98519 0.49526 0.39192 0.0
C142 C 0.08964 0.54434 0.61473 0.0
O143 O 0.10273 0.50397 0.60787 0.0
C144 C 0.91081 0.44207 0.37636 0.0
O145 O 0.8968 0.47567 0.34612 0.0
O146 O 0.00327 0.48916 0.74414 0.0
O147 O 0.94797 0.53304 0.61856 0.0
O148 O 0.95523 0.54992 0.47581 0.0
C149 C 0.00772 0.518 0.81309 0.0
O150 O 0.01321 0.55833 0.80064 0.0
O151 O 0.05047 0.55264 0.61263 0.0
C152 C 0.00366 0.4812 0.18956 0.0
O153 O 0.01958 0.44428 0.2021 0.0
O154 O 0.98762 0.50862 0.26095 0.0
O155 O 0.0461 0.47285 0.39052 0.0
O156 O 0.03563 0.45087 0.52786 0.0
O157 O 0.94714 0.44318 0.4025 0.0
C158 C 0.93714 0.55617 0.56193 0.0
C159 C 0.05591 0.44734 0.44359 0.0
C160 C 0.14244 0.06258 0.38738 0.0
C161 C 0.09887 0.07594 0.42369 0.0
C162 C 0.11903 0.15178 0.42585 0.0
C163 C 0.16191 0.13805 0.38441 0.0
N164 N 0.21091 0.08041 0.30067 0.0
N165 N 0.04421 0.13323 0.45547 0.0
C166 C 0.17237 0.09339 0.3569 0.0
C167 C 0.08667 0.12053 0.43621 0.0
N168 N 0.15619 0.02126 0.38788 0.0
N169 N 0.10938 0.19441 0.45997 0.0
H170 H 0.01917 0.11186 0.46363 0.0
H171 H 0.03364 0.16461 0.45437 0.0
H172 H 0.1317 0.21835 0.45178 0.0
H173 H 0.08017 0.2056 0.50213 0.0
H174 H 0.18847 0.01129 0.37055 0.0
H175 H 0.13639 0.99819 0.41571 0.0
H176 H 0.2187 0.04827 0.27105 0.0
H177 H 0.23297 0.10237 0.27522 0.0
C178 C 0.10324 0.85872 0.58424 0.0
C179 C 0.10601 0.90344 0.58419 0.0
C180 C 0.17239 0.90404 0.64909 0.0
C181 C 0.16698 0.85959 0.65717 0.0
N182 N 0.11532 0.80237 0.67042 0.0
N183 N 0.14101 0.97076 0.62359 0.0
C184 C 0.12905 0.83888 0.63564 0.0
C185 C 0.14038 0.92673 0.61712 0.0
N186 N 0.07466 0.83555 0.53774 0.0
N187 N 0.20746 0.92494 0.67473 0.0
H188 H 0.1195 0.98861 0.59735 0.0
H189 H 0.1615 0.99022 0.6594 0.0
H190 H 0.2276 0.91199 0.71307 0.0
H191 H 0.21692 0.95485 0.65723 0.0
H192 H 0.07386 0.80189 0.52906 0.0
H193 H 0.05526 0.84989 0.49948 0.0
H194 H 0.08679 0.78761 0.65863 0.0
H195 H 0.12769 0.79134 0.72406 0.0
C196 C 0.35892 0.82917 0.8082 0.0
C197 C 0.31453 0.84011 0.81911 0.0
C198 C 0.3291 0.91399 0.88793 0.0
C199 C 0.37368 0.9053 0.85611 0.0
N200 N 0.43143 0.8538 0.77906 0.0
N201 N 0.25731 0.89526 0.86527 0.0
C202 C 0.38888 0.8626 0.81527 0.0
C203 C 0.29937 0.88303 0.85909 0.0
N204 N 0.37247 0.78684 0.79498 0.0
N205 N 0.31522 0.95143 0.94763 0.0
H206 H 0.23417 0.87475 0.84217 0.0
H207 H 0.24615 0.92728 0.88483 0.0
H208 H 0.33635 0.9741 0.97277 0.0
H209 H 0.2833 0.95753 0.9806 0.0
H210 H 0.40398 0.77741 0.79615 0.0
H211 H 0.3514 0.7613 0.79437 0.0
H212 H 0.44268 0.82439 0.73783 0.0
H213 H 0.45533 0.87636 0.78364 0.0
C214 C 0.37605 0.09261 0.16846 0.0
C215 C 0.40772 0.09586 0.08802 0.0
C216 C 0.37023 0.16241 0.06908 0.0
C217 C 0.34073 0.16142 0.15456 0.0
N218 N 0.31983 0.12768 0.2922 0.0
N219 N 0.4388 0.13784 0.97032 0.0
C220 C 0.34512 0.12721 0.20625 0.0
C221 C 0.40563 0.13171 0.04029 0.0
N222 N 0.37409 0.05533 0.20631 0.0
N223 N 0.36472 0.193 0.01515 0.0
H224 H 0.46534 0.11658 0.94791 0.0
H225 H 0.44205 0.1658 0.94 0.0
H226 H 0.34165 0.21787 0.03683 0.0
H227 H 0.38123 0.19229 0.94674 0.0
H228 H 0.3489 0.04862 0.25771 0.0
H229 H 0.39553 0.02912 0.18016 0.0
H230 H 0.32483 0.10697 0.33854 0.0
H231 H 0.29557 0.15087 0.32023 0.0
C232 C 0.90271 0.90227 0.61946 0.0
C233 C 0.91493 0.91445 0.52891 0.0
C234 C 0.85225 0.87603 0.4805 0.0
C235 C 0.83781 0.86932 0.57451 0.0
N236 N 0.84557 0.88278 0.7373 0.0
N237 N 0.89805 0.91446 0.3733 0.0
C238 C 0.86193 0.88446 0.64505 0.0
C239 C 0.88891 0.90159 0.45926 0.0
N240 N 0.93145 0.90462 0.67909 0.0
N241 N 0.83217 0.85633 0.41013 0.0
H242 H 0.92637 0.92887 0.34883 0.0
H243 H 0.87631 0.9125 0.32699 0.0
H244 H 0.80493 0.83798 0.42207 0.0
H245 H 0.8445 0.85508 0.33888 0.0
H246 H 0.92622 0.89221 0.74195 0.0
H247 H 0.96265 0.9138 0.6591 0.0
H248 H 0.85974 0.89782 0.79272 0.0
H249 H 0.81572 0.86998 0.75914 0.0
C250 C 0.92744 0.11225 0.34898 0.0
C251 C 0.90958 0.08061 0.40297 0.0
C252 C 0.83842 0.11508 0.42931 0.0
C253 C 0.8555 0.14427 0.36829 0.0
N254 N 0.91444 0.17179 0.26861 0.0
N255 N 0.85273 0.05771 0.51457 0.0
C256 C 0.8997 0.14369 0.3289 0.0
C257 C 0.86638 0.08395 0.44961 0.0
N258 N 0.97075 0.11199 0.3167 0.0
N259 N 0.79514 0.11564 0.46313 0.0
H260 H 0.87324 0.03513 0.53127 0.0
H261 H 0.82264 0.06056 0.55771 0.0
H262 H 0.77351 0.13804 0.44979 0.0
H263 H 0.77989 0.09259 0.50011 0.0
H264 H 0.98658 0.13634 0.28493 0.0
H265 H 0.99182 0.08843 0.32663 0.0
H266 H 0.94515 0.17011 0.22834 0.0
H267 H 0.89501 0.19606 0.25474 0.0
C268 C 0.69242 0.14911 0.12302 0.0
C269 C 0.68332 0.16669 0.22047 0.0
C270 C 0.62931 0.11209 0.24546 0.0
C271 C 0.63384 0.0989 0.14694 0.0
N272 N 0.66438 0.11087 0.99021 0.0
N273 N 0.63436 0.17156 0.36916 0.0
C274 C 0.66384 0.11914 0.08495 0.0
C275 C 0.64915 0.15017 0.28026 0.0
N276 N 0.72947 0.15871 0.06764 0.0
N277 N 0.60784 0.08724 0.30617 0.0
H278 H 0.64589 0.20132 0.39565 0.0
H279 H 0.60713 0.1623 0.41205 0.0
H280 H 0.59556 0.05734 0.2833 0.0
H281 H 0.60697 0.0938 0.37861 0.0
H282 H 0.73952 0.14247 -0.00073 0.0
H283 H 0.75245 0.17898 0.09274 0.0
H284 H 0.68274 0.1283 0.94328 0.0
H285 H 0.64356 0.08953 0.95969 0.0
C286 C 0.66933 0.89279 0.82653 0.0
C287 C 0.66309 0.85073 0.85043 0.0
C288 C 0.59216 0.8757 0.94532 0.0
C289 C 0.59672 0.91645 0.91386 0.0
N290 N 0.63799 0.96256 0.81718 0.0
N291 N 0.61679 0.80058 0.92508 0.0
C292 C 0.63484 0.92454 0.85211 0.0
C293 C 0.62406 0.84187 0.90831 0.0
N294 N 0.709 0.90297 0.78283 0.0
N295 N 0.55736 0.86938 0.0113 0.0
H296 H 0.63947 0.77532 0.90046 0.0
H297 H 0.58739 0.79047 0.95755 0.0
H298 H 0.53248 0.89241 0.03671 0.0
H299 H 0.55437 0.84262 0.04562 0.0
H300 H 0.71734 0.93403 0.77131 0.0
H301 H 0.735 0.88093 0.76585 0.0
H302 H 0.66248 0.96859 0.7636 0.0
H303 H 0.61447 0.98726 0.83754 0.0
C304 C 0.62969 0.56324 0.86344 0.0
C305 C 0.58898 0.58012 0.9152 0.0
C306 C 0.61961 0.65204 0.94045 0.0
C307 C 0.65881 0.63605 0.88146 0.0
N308 N 0.69625 0.57859 0.7662 0.0
N309 N 0.5428 0.64399 0.9728 0.0
C310 C 0.66224 0.59233 0.83632 0.0
C311 C 0.58315 0.62555 0.94472 0.0
N312 N 0.63872 0.51972 0.84458 0.0
N313 N 0.61732 0.69156 0.99632 0.0
H314 H 0.51491 0.62657 0.96881 0.0
H315 H 0.53718 0.67737 0.98797 0.0
H316 H 0.6436 0.71136 -0.00088 0.0
H317 H 0.59052 0.70244 0.04735 0.0
H318 H 0.66925 0.50662 0.81441 0.0
H319 H 0.61805 0.49675 0.86977 0.0
H320 H 0.69788 0.54836 0.72375 0.0
H321 H 0.72047 0.59906 0.74403 0.0
C322 C 0.67629 0.43281 0.13426 0.0
C323 C 0.66312 0.39094 0.14909 0.0
C324 C 0.60046 0.39912 0.07672 0.0
C325 C 0.61199 0.44198 0.06715 0.0
N326 N 0.66881 0.4929 0.05283 0.0
N327 N 0.60359 0.3424 0.16847 0.0
C328 C 0.65234 0.45695 0.08614 0.0
C329 C 0.62244 0.37639 0.13095 0.0
N330 N 0.71037 0.45031 0.17148 0.0
N331 N 0.57089 0.37889 0.02854 0.0
H332 H 0.61545 0.32834 0.21895 0.0
H333 H 0.57254 0.33298 0.16136 0.0
H334 H 0.55944 0.39219 0.97637 0.0
H335 H 0.56354 0.34648 0.02875 0.0
H336 H 0.71941 0.4822 0.17057 0.0
H337 H 0.72649 0.43422 0.21307 0.0
H338 H 0.69992 0.50315 0.05607 0.0
H339 H 0.65299 0.50954 0.01194 0.0
C340 C 0.84906 0.39733 0.43272 0.0
C341 C 0.88685 0.40147 0.36686 0.0
C342 C 0.871 0.33469 0.26846 0.0
C343 C 0.82945 0.3358 0.32375 0.0
N344 N 0.77831 0.3666 0.46086 0.0
N345 N 0.9344 0.37448 0.22111 0.0
C346 C 0.81856 0.36607 0.40796 0.0
C347 C 0.89846 0.36975 0.28528 0.0
N348 N 0.84252 0.42339 0.51849 0.0
N349 N 0.88393 0.29993 0.19981 0.0
H350 H 0.95586 0.39906 0.23251 0.0
H351 H 0.94161 0.35567 0.15464 0.0
H352 H 0.86431 0.27358 0.18755 0.0
H353 H 0.91517 0.29518 0.162 0.0
H354 H 0.81744 0.41984 0.57299 0.0
H355 H 0.86475 0.44615 0.53798 0.0
H356 H 0.76658 0.39086 0.51701 0.0
H357 H 0.75569 0.34352 0.44593 0.0
C358 C 0.88131 0.66644 0.67152 0.0
C359 C 0.83833 0.65957 0.65613 0.0
C360 C 0.8607 0.58528 0.5751 0.0
C361 C 0.90266 0.59128 0.59682 0.0
N362 N 0.95117 0.63555 0.6779 0.0
N363 N 0.78602 0.61016 0.60194 0.0
C364 C 0.9123 0.63122 0.64905 0.0
C365 C 0.82786 0.61844 0.60943 0.0
N366 N 0.89342 0.70737 0.70219 0.0
N367 N 0.85212 0.54745 0.52194 0.0
H368 H 0.76097 0.63298 0.6261 0.0
H369 H 0.77519 0.5797 0.57858 0.0
H370 H 0.87375 0.52116 0.50453 0.0
H371 H 0.82468 0.54262 0.49178 0.0
H372 H 0.92511 0.71551 0.70547 0.0
H373 H 0.87257 0.73431 0.7152 0.0
H374 H 0.95835 0.66166 0.72574 0.0
H375 H 0.97529 0.61141 0.65965 0.0
C376 C 0.3816 0.35403 0.06381 0.0
C377 C 0.33867 0.36905 0.10182 0.0
C378 C 0.35913 0.4431 0.08434 0.0
C379 C 0.40233 0.42849 0.04915 0.0
N380 N 0.45665 0.37231 0.03332 0.0
N381 N 0.29093 0.42908 0.17755 0.0
C382 C 0.41421 0.3846 0.04731 0.0
C383 C 0.3289 0.41407 0.12152 0.0
N384 N 0.39119 0.3108 0.03917 0.0
N385 N 0.34622 0.48393 0.07773 0.0
H386 H 0.26939 0.4085 0.20983 0.0
H387 H 0.28344 0.46184 0.20093 0.0
H388 H 0.36678 0.50548 0.04639 0.0
H389 H 0.31417 0.49473 0.09423 0.0
H390 H 0.42065 0.29843 8e-05 0.0
H391 H 0.36895 0.28717 0.05235 0.0
H392 H 0.46713 0.34175 0.04083 0.0
H393 H 0.48139 0.39403 0.0242 0.0
C394 C 0.36809 0.61333 0.97751 0.0
C395 C 0.3936 0.59377 0.89217 0.0
C396 C 0.35831 0.63768 0.80302 0.0
C397 C 0.33028 0.65503 0.88751 0.0
N398 N 0.32043 0.67348 0.05631 0.0
N399 N 0.42709 0.60179 0.73557 0.0
C400 C 0.33892 0.64728 0.97553 0.0
C401 C 0.39333 0.61069 0.80846 0.0
N402 N 0.37116 0.59898 0.05948 0.0
N403 N 0.35027 0.64441 0.71761 0.0
H404 H 0.43041 0.6162 0.67536 0.0
H405 H 0.45398 0.58365 0.74079 0.0
H406 H 0.32456 0.66343 0.70964 0.0
H407 H 0.36747 0.62834 0.65404 0.0
H408 H 0.34959 0.60842 0.12208 0.0
H409 H 0.39469 0.57636 0.06364 0.0
H410 H 0.32772 0.6715 0.12222 0.0
H411 H 0.30163 0.70057 0.05496 0.0
C412 C 0.17222 0.61193 0.72902 0.0
C413 C 0.17238 0.64927 0.68606 0.0
C414 C 0.12303 0.61506 0.58621 0.0
C415 C 0.11865 0.58019 0.63787 0.0
N416 N 0.13096 0.55198 0.77591 0.0
N417 N 0.14077 0.69021 0.58774 0.0
C418 C 0.14105 0.58032 0.71413 0.0
C419 C 0.14583 0.65192 0.61824 0.0
N420 N 0.20271 0.60585 0.78153 0.0
N421 N 0.1066 0.61256 0.5052 0.0
H422 H 0.15513 0.71829 0.61424 0.0
H423 H 0.11883 0.69516 0.54471 0.0
H424 H 0.09067 0.58559 0.47812 0.0
H425 H 0.11255 0.63535 0.46021 0.0
H426 H 0.2063 0.57727 0.80768 0.0
H427 H 0.22739 0.62738 0.78933 0.0
H428 H 0.14357 0.55366 0.83756 0.0
H429 H 0.10628 0.53023 0.77167 0.0
C430 C 0.15781 0.38566 0.29654 0.0
C431 C 0.15836 0.34741 0.33712 0.0
C432 C 0.08841 0.37162 0.43674 0.0
C433 C 0.09133 0.41287 0.40682 0.0
N434 N 0.13734 0.46161 0.32461 0.0
N435 N 0.12686 0.30867 0.46069 0.0
C436 C 0.12835 0.42057 0.34092 0.0
C437 C 0.12469 0.34212 0.41243 0.0
N438 N 0.18531 0.38897 0.21535 0.0
N439 N 0.05024 0.35891 0.48269 0.0
H440 H 0.15221 0.28603 0.44347 0.0
H441 H 0.10557 0.30585 0.52236 0.0
H442 H 0.02164 0.377 0.4934 0.0
H443 H 0.04573 0.32783 0.49881 0.0
H444 H 0.18336 0.41427 0.17772 0.0
H445 H 0.20729 0.36436 0.1815 0.0
H446 H 0.16578 0.46913 0.28309 0.0
H447 H 0.11955 0.48884 0.36191 0.0
C448 C 0.04235 0.98273 0.91187 0.0
C449 C 0.00717 0.00621 0.89235 0.0
C450 C 0.98009 0.02629 0.06208 0.0
C451 C 0.01448 1.00192 0.08151 0.0
N452 N 0.07494 0.9523 0.02714 0.0
N453 N 0.94833 0.05782 0.94751 0.0
C454 C 0.04478 0.97899 0.00687 0.0
C455 C 0.97755 0.02995 0.96734 0.0
N456 N 0.07422 0.96529 0.83996 0.0
N457 N 0.94892 0.04462 0.13454 0.0
H458 H 0.94698 0.06262 0.87912 0.0
H459 H 0.92797 0.07914 0.99802 0.0
H460 H 0.94981 0.04184 0.20383 0.0
H461 H 0.92068 0.05949 0.12653 0.0
H462 H 0.10252 0.95081 0.84887 0.0
H463 H 0.07453 0.96889 0.7707 0.0
H464 H 0.09517 0.93072 0.97693 0.0
H465 H 0.07766 0.94917 0.09582 0.0
C466 C 0.2322 0.80481 0.32307 0.0
C467 C 0.23787 0.76497 0.3547 0.0
C468 C 0.23055 0.72576 0.20011 0.0
C469 C 0.23147 0.76531 0.16409 0.0
N470 N 0.23455 0.84309 0.19067 0.0
N471 N 0.24981 0.68776 0.31928 0.0
C472 C 0.23285 0.80506 0.22552 0.0
C473 C 0.2396 0.72554 0.29167 0.0
N474 N 0.225 0.84223 0.38654 0.0
N475 N 0.2193 0.6886 0.14884 0.0
H476 H 0.25612 0.68637 0.3864 0.0
H477 H 0.25613 0.65868 0.27287 0.0
H478 H 0.20828 0.68822 0.08592 0.0
H479 H 0.21531 0.65945 0.1745 0.0
H480 H 0.21534 0.8714 0.36998 0.0
H481 H 0.2261 0.8435 0.45763 0.0
H482 H 0.24083 0.87262 0.22905 0.0
H483 H 0.23132 0.84483 0.12159 0.0
C484 C 0.52695 0.97415 0.52108 0.0
C485 C 0.49083 0.99038 0.59044 0.0
C486 C 0.46363 0.02939 0.47917 0.0
C487 C 0.50007 0.01398 0.41028 0.0
N488 N 0.56591 0.97077 0.36121 0.0
N489 N 0.42805 0.03797 0.64186 0.0
C490 C 0.53154 0.98589 0.42983 0.0
C491 C 0.46021 0.01944 0.57143 0.0
N492 N 0.55817 0.94987 0.54491 0.0
N493 N 0.43087 0.05113 0.45447 0.0
H494 H 0.42236 0.02955 0.70881 0.0
H495 H 0.40851 0.06383 0.63627 0.0
H496 H 0.43144 0.05794 0.3868 0.0
H497 H 0.40128 0.05913 0.49802 0.0
H498 H 0.58691 0.93902 0.50095 0.0
H499 H 0.5568 0.94218 0.61208 0.0
H500 H 0.58744 0.94646 0.3657 0.0
H501 H 0.57288 0.98179 0.2969 0.0
C502 C 0.27562 0.22191 0.76783 0.0
C503 C 0.2573 0.25674 0.83807 0.0
C504 C 0.22438 0.2877 0.72257 0.0
C505 C 0.24251 0.25277 0.65231 0.0
N506 N 0.28999 0.18968 0.60302 0.0
N507 N 0.20927 0.31936 0.88762 0.0
C508 C 0.26954 0.22076 0.67341 0.0
C509 C 0.23014 0.28861 0.81706 0.0
N510 N 0.29642 0.18844 0.79305 0.0
N511 N 0.20417 0.32155 0.69739 0.0
H512 H 0.21389 0.32255 0.95701 0.0
H513 H 0.18492 0.34003 0.87945 0.0
H514 H 0.20056 0.32283 0.62838 0.0
H515 H 0.19435 0.35033 0.74245 0.0
H516 H 0.30663 0.15971 0.74821 0.0
H517 H 0.30043 0.1875 0.86195 0.0
H518 H 0.3142 0.16881 0.61097 0.0
H519 H 0.28501 0.18618 0.53387 0.0
C520 C 0.75474 0.23352 0.81406 0.0
C521 C 0.72623 0.26457 0.87588 0.0
C522 C 0.71795 0.30244 0.74493 0.0
C523 C 0.74681 0.27152 0.68409 0.0
N524 N 0.78388 0.2019 0.65364 0.0
N525 N 0.68286 0.33049 0.90443 0.0
C526 C 0.76288 0.2355 0.71665 0.0
C527 C 0.70781 0.29924 0.84223 0.0
N528 N 0.77507 0.20278 0.84887 0.0
N529 N 0.69998 0.33437 0.7089 0.0
H530 H 0.67446 0.32906 0.97571 0.0
H531 H 0.67181 0.35897 0.88758 0.0
H532 H 0.70822 0.33847 0.63868 0.0
H533 H 0.67553 0.35578 0.74631 0.0
H534 H 0.80054 0.18303 0.80969 0.0
H535 H 0.76856 0.19881 0.91917 0.0
H536 H 0.79169 0.1724 0.67151 0.0
H537 H 0.79006 0.20165 0.58136 0.0
C538 C 0.73214 0.79248 0.32139 0.0
C539 C 0.75147 0.75533 0.34329 0.0
C540 C 0.75053 0.71725 0.1839 0.0
C541 C 0.73655 0.7562 0.15885 0.0
N542 N 0.72316 0.83338 0.19905 0.0
N543 N 0.78302 0.68334 0.29323 0.0
C544 C 0.72964 0.7945 0.22637 0.0
C545 C 0.76218 0.71812 0.27361 0.0
N546 N 0.71598 0.82589 0.3908 0.0
N547 N 0.75022 0.67894 0.12444 0.0
H548 H 0.78886 0.68097 0.36023 0.0
H549 H 0.79664 0.65782 0.24173 0.0
H550 H 0.73971 0.67654 0.06035 0.0
H551 H 0.75598 0.64896 0.14274 0.0
H552 H 0.69747 0.85142 0.37948 0.0
H553 H 0.71735 0.82626 0.46133 0.0
H554 H 0.72257 0.8629 0.24371 0.0
H555 H 0.72309 0.83677 0.12935 0.0
C556 C 0.53579 0.47754 0.49769 0.0
C557 C 0.50026 0.49533 0.56673 0.0
C558 C 0.46338 0.51353 0.44274 0.0
C559 C 0.49813 0.49443 0.37329 0.0
N560 N 0.56443 0.45187 0.33282 0.0
N561 N 0.42577 0.5187 0.60334 0.0
C562 C 0.53339 0.47433 0.4003 0.0
C563 C 0.46271 0.50993 0.53874 0.0
N564 N 0.57205 0.4642 0.52544 0.0
N565 N 0.43099 0.53534 0.41722 0.0
H566 H 0.42382 0.51451 0.673 0.0
H567 H 0.39619 0.52576 0.58629 0.0
H568 H 0.42931 0.53719 0.34743 0.0
H569 H 0.40757 0.55438 0.46558 0.0
H570 H 0.60095 0.45551 0.47967 0.0
H571 H 0.57382 0.4636 0.59578 0.0
H572 H 0.58803 0.43206 0.3473 0.0
H573 H 0.5652 0.45106 0.26113 0.0
C574 C 0.96984 0.52125 0.97917 0.0
C575 C 0.00557 0.5067 0.90783 0.0
C576 C 0.04194 0.48057 0.02337 0.0
C577 C 0.00431 0.49057 0.09285 0.0
N578 N 0.92854 0.51093 0.12864 0.0
N579 N 0.07138 0.46354 0.85735 0.0
C580 C 0.96717 0.50856 0.06881 0.0
C581 C 0.04019 0.4833 0.92828 0.0
N582 N 0.9381 0.54672 0.96126 0.0
N583 N 0.0801 0.47103 0.04852 0.0
H584 H 0.07137 0.46473 0.78658 0.0
H585 H 0.09495 0.44259 0.86827 0.0
H586 H 0.08376 0.47174 0.11816 0.0
H587 H 0.10922 0.46752 0.00144 0.0
H588 H 0.91418 0.56262 0.01395 0.0
H589 H 0.93717 0.55429 0.89477 0.0
H590 H 0.89971 0.51981 0.11058 0.0
H591 H 0.92426 0.49925 0.19207 0.0
loop_
_geom_bond_atom_site_label_1
_geom_bond_atom_site_label_2
_geom_bond_distance
_geom_bond_site_symmetry_2
_ccdc_geom_bond_type
Zn0 O6 1.969 1_545 S
Zn0 O7 1.965 1_655 S
Zn0 O11 2.024 . S
Zn0 O16 1.969 1_545 S
Zn1 O8 1.969 1_565 S
Zn1 O14 1.969 1_565 S
Zn1 O15 1.965 1_455 S
Zn1 O17 2.024 . S
C2 O3 1.229 . S
C2 O11 1.058 . S
O3 C2 1.229 . S
C4 O5 1.229 . S
C4 O17 1.058 . S
O5 C4 1.229 . S
O6 Zn0 1.969 1_565 S
O6 C9 1.267 1_565 S
O7 Zn0 1.965 1_455 S
O7 C18 1.260 . S
O8 Zn1 1.969 1_545 S
O8 C18 1.258 . S
C9 O6 1.267 1_545 S
C9 O10 1.228 . S
O10 C9 1.228 . S
O11 Zn0 2.024 . S
O11 C2 1.058 . S
C12 O13 1.229 . S
C12 O14 1.267 1_565 S
O13 C12 1.229 . S
O14 Zn1 1.969 1_545 S
O14 C12 1.267 1_545 S
O15 Zn1 1.965 1_655 S
O15 C19 1.260 . S
O16 Zn0 1.969 1_565 S
O16 C19 1.258 . S
O17 Zn1 2.024 . S
O17 C4 1.058 . S
C18 O7 1.260 . S
C18 O8 1.258 . S
C19 O15 1.260 . S
C19 O16 1.258 . S
Zn20 O26 1.969 . S
Zn20 O27 1.965 . S
Zn20 O31 2.024 . S
Zn20 O36 1.969 . S
Zn21 O28 1.969 . S
Zn21 O34 1.969 . S
Zn21 O35 1.965 . S
Zn21 O37 2.024 . S
C22 O23 1.229 . S
C22 O31 1.058 . S
O23 C22 1.229 . S
C24 O25 1.229 . S
C24 O37 1.058 . S
O25 C24 1.229 . S
O26 Zn20 1.969 . S
O26 C29 1.267 1_556 S
O27 Zn20 1.965 . S
O27 C38 1.260 . S
O28 Zn21 1.969 . S
O28 C38 1.258 . S
C29 O26 1.267 1_554 S
C29 O30 1.228 . S
O30 C29 1.228 . S
O31 Zn20 2.024 . S
O31 C22 1.058 . S
C32 O33 1.228 . S
C32 O34 1.267 . S
O33 C32 1.228 . S
O34 Zn21 1.969 . S
O34 C32 1.267 . S
O35 Zn21 1.965 . S
O35 C39 1.260 . S
O36 Zn20 1.969 . S
O36 C39 1.258 . S
O37 Zn21 2.024 . S
O37 C24 1.058 . S
C38 O27 1.260 . S
C38 O28 1.258 . S
C39 O35 1.260 . S
C39 O36 1.258 . S
Zn40 O46 1.969 1_545 S
Zn40 O47 1.965 . S
Zn40 O51 2.024 . S
Zn40 O56 1.969 1_545 S
Zn41 O48 1.969 1_565 S
Zn41 O54 1.969 1_565 S
Zn41 O55 1.965 . S
Zn41 O57 2.024 . S
C42 O43 1.229 . S
C42 O51 1.058 . S
O43 C42 1.229 . S
C44 O45 1.229 . S
C44 O57 1.058 . S
O45 C44 1.229 . S
O46 Zn40 1.969 1_565 S
O46 C49 1.267 1_565 S
O47 Zn40 1.965 . S
O47 C58 1.260 . S
O48 Zn41 1.969 1_545 S
O48 C58 1.258 1_556 S
C49 O46 1.267 1_545 S
C49 O50 1.228 . S
O50 C49 1.228 . S
O51 Zn40 2.024 . S
O51 C42 1.058 . S
C52 O53 1.228 . S
C52 O54 1.267 1_565 S
O53 C52 1.228 . S
O54 Zn41 1.969 1_545 S
O54 C52 1.267 1_545 S
O55 Zn41 1.965 . S
O55 C59 1.260 . S
O56 Zn40 1.969 1_565 S
O56 C59 1.258 1_554 S
O57 Zn41 2.024 . S
O57 C44 1.058 . S
C58 O47 1.260 . S
C58 O48 1.258 1_554 S
C59 O55 1.260 . S
C59 O56 1.258 1_556 S
Zn60 O66 1.969 . S
Zn60 O67 1.965 . S
Zn60 O71 2.024 . S
Zn60 O76 1.969 . S
Zn61 O68 1.969 . S
Zn61 O74 1.969 . S
Zn61 O75 1.965 . S
Zn61 O77 2.024 . S
C62 O63 1.229 . S
C62 O71 1.058 . S
O63 C62 1.229 . S
C64 O65 1.229 . S
C64 O77 1.058 . S
O65 C64 1.229 . S
O66 Zn60 1.969 . S
O66 C69 1.267 1_554 S
O67 Zn60 1.965 . S
O67 C78 1.260 . S
O68 Zn61 1.969 . S
O68 C78 1.258 . S
C69 O66 1.267 1_556 S
C69 O70 1.228 . S
O70 C69 1.228 . S
O71 Zn60 2.024 . S
O71 C62 1.058 . S
C72 O73 1.228 . S
C72 O74 1.267 . S
O73 C72 1.228 . S
O74 Zn61 1.969 . S
O74 C72 1.267 . S
O75 Zn61 1.965 . S
O75 C79 1.260 . S
O76 Zn60 1.969 . S
O76 C79 1.258 . S
O77 Zn61 2.024 . S
O77 C64 1.058 . S
C78 O67 1.260 . S
C78 O68 1.258 . S
C79 O75 1.260 . S
C79 O76 1.258 . S
Zn80 O86 1.969 . S
Zn80 O87 1.965 . S
Zn80 O91 2.024 . S
Zn80 O96 1.969 . S
Zn81 O88 1.969 . S
Zn81 O94 1.969 . S
Zn81 O95 1.965 . S
Zn81 O97 2.024 . S
C82 O83 1.229 . S
C82 O91 1.058 . S
O83 C82 1.229 . S
C84 O85 1.229 . S
C84 O97 1.058 . S
O85 C84 1.229 . S
O86 Zn80 1.969 . S
O86 C89 1.267 . S
O87 Zn80 1.965 . S
O87 C98 1.260 . S
O88 Zn81 1.969 . S
O88 C98 1.258 . S
C89 O86 1.267 . S
C89 O90 1.228 . S
O90 C89 1.228 . S
O91 Zn80 2.024 . S
O91 C82 1.058 . S
C92 O93 1.228 . S
C92 O94 1.267 1_556 S
O93 C92 1.228 . S
O94 Zn81 1.969 . S
O94 C92 1.267 1_554 S
O95 Zn81 1.965 . S
O95 C99 1.260 . S
O96 Zn80 1.969 . S
O96 C99 1.258 . S
O97 Zn81 2.024 . S
O97 C84 1.058 . S
C98 O87 1.260 . S
C98 O88 1.258 . S
C99 O95 1.260 . S
C99 O96 1.258 . S
Zn100 O106 1.969 . S
Zn100 O107 1.965 . S
Zn100 O111 2.024 . S
Zn100 O116 1.969 . S
Zn101 O108 1.969 . S
Zn101 O114 1.969 . S
Zn101 O115 1.965 . S
Zn101 O117 2.024 . S
C102 O103 1.229 . S
C102 O111 1.058 . S
O103 C102 1.229 . S
C104 O105 1.229 . S
C104 O117 1.058 . S
O105 C104 1.229 . S
O106 Zn100 1.969 . S
O106 C109 1.267 . S
O107 Zn100 1.965 . S
O107 C118 1.260 . S
O108 Zn101 1.969 . S
O108 C118 1.258 . S
C109 O106 1.267 . S
C109 O110 1.228 . S
O110 C109 1.228 . S
O111 Zn100 2.024 . S
O111 C102 1.058 . S
C112 O113 1.228 . S
C112 O114 1.267 1_554 S
O113 C112 1.228 . S
O114 Zn101 1.969 . S
O114 C112 1.267 1_556 S
O115 Zn101 1.965 . S
O115 C119 1.260 . S
O116 Zn100 1.969 . S
O116 C119 1.258 . S
O117 Zn101 2.024 . S
O117 C104 1.058 . S
C118 O107 1.260 . S
C118 O108 1.258 . S
C119 O115 1.260 . S
C119 O116 1.258 . S
Zn120 O126 1.969 . S
Zn120 O127 1.965 . S
Zn120 O131 2.024 . S
Zn120 O136 1.969 . S
Zn121 O128 1.969 . S
Zn121 O134 1.969 . S
Zn121 O135 1.965 . S
Zn121 O137 2.024 . S
C122 O123 1.229 . S
C122 O131 1.058 . S
O123 C122 1.229 . S
C124 O125 1.229 . S
C124 O137 1.058 . S
O125 C124 1.229 . S
O126 Zn120 1.969 . S
O126 C129 1.267 . S
O127 Zn120 1.965 . S
O127 C138 1.260 . S
O128 Zn121 1.969 . S
O128 C138 1.258 1_554 S
C129 O126 1.267 . S
C129 O130 1.228 . S
O130 C129 1.228 . S
O131 Zn120 2.024 . S
O131 C122 1.058 . S
C132 O133 1.228 . S
C132 O134 1.267 . S
O133 C132 1.228 . S
O134 Zn121 1.969 . S
O134 C132 1.267 . S
O135 Zn121 1.965 . S
O135 C139 1.260 . S
O136 Zn120 1.969 . S
O136 C139 1.258 1_556 S
O137 Zn121 2.024 . S
O137 C124 1.058 . S
C138 O127 1.260 . S
C138 O128 1.258 1_556 S
C139 O135 1.260 . S
C139 O136 1.258 1_554 S
Zn140 O146 1.969 . S
Zn140 O147 1.965 1_455 S
Zn140 O151 2.024 . S
Zn140 O156 1.969 . S
Zn141 O148 1.969 . S
Zn141 O154 1.969 . S
Zn141 O155 1.965 1_655 S
Zn141 O157 2.024 . S
C142 O143 1.229 . S
C142 O151 1.058 . S
O143 C142 1.229 . S
C144 O145 1.229 . S
C144 O157 1.058 . S
O145 C144 1.229 . S
O146 Zn140 1.969 . S
O146 C149 1.267 . S
O147 Zn140 1.965 1_655 S
O147 C158 1.260 . S
O148 Zn141 1.969 . S
O148 C158 1.258 . S
C149 O146 1.267 . S
C149 O150 1.226 1_455 S
O150 C149 1.226 1_655 S
O151 Zn140 2.024 . S
O151 C142 1.058 . S
C152 O153 1.225 1_655 S
C152 O154 1.267 . S
O153 C152 1.225 1_455 S
O154 Zn141 1.969 . S
O154 C152 1.267 . S
O155 Zn141 1.965 1_455 S
O155 C159 1.260 . S
O156 Zn140 1.969 . S
O156 C159 1.258 . S
O157 Zn141 2.024 . S
O157 C144 1.058 . S
C158 O147 1.260 . S
C158 O148 1.258 . S
C159 O155 1.260 . S
C159 O156 1.258 . S
C160 C161 1.363 . S
C160 C166 1.379 . S
C160 N168 1.356 . S
C161 C160 1.363 . S
C161 C167 1.363 . S
C162 C163 1.363 . S
C162 C167 1.379 . S
C162 N169 1.356 . S
C163 C162 1.363 . S
C163 C166 1.363 . S
N164 C166 1.356 . S
N164 H176 0.984 . S
N164 H177 0.985 . S
N165 C167 1.356 . S
N165 H170 0.984 . S
N165 H171 0.985 . S
C166 C160 1.379 . S
C166 C163 1.363 . S
C166 N164 1.356 . S
C167 C161 1.363 . S
C167 C162 1.379 . S
C167 N165 1.356 . S
N168 C160 1.356 . S
N168 H174 0.984 . S
N168 H175 0.984 . S
N169 C162 1.356 . S
N169 H172 0.984 . S
N169 H173 0.985 . S
H170 N165 0.984 . S
H171 N165 0.985 . S
H172 N169 0.984 . S
H173 N169 0.985 . S
H174 N168 0.984 . S
H175 N168 0.984 . S
H176 N164 0.984 . S
H177 N164 0.985 . S
C178 C179 1.363 . S
C178 C184 1.379 . S
C178 N186 1.356 . S
C179 C178 1.363 . S
C179 C185 1.363 . S
C180 C181 1.363 . S
C180 C185 1.379 . S
C180 N187 1.356 . S
C181 C180 1.363 . S
C181 C184 1.363 . S
N182 C184 1.356 . S
N182 H194 0.984 . S
N182 H195 0.985 . S
N183 C185 1.356 . S
N183 H188 0.984 . S
N183 H189 0.985 . S
C184 C178 1.379 . S
C184 C181 1.363 . S
C184 N182 1.356 . S
C185 C179 1.363 . S
C185 C180 1.379 . S
C185 N183 1.356 . S
N186 C178 1.356 . S
N186 H192 0.984 . S
N186 H193 0.984 . S
N187 C180 1.356 . S
N187 H190 0.984 . S
N187 H191 0.985 . S
H188 N183 0.984 . S
H189 N183 0.985 . S
H190 N187 0.984 . S
H191 N187 0.985 . S
H192 N186 0.984 . S
H193 N186 0.984 . S
H194 N182 0.984 . S
H195 N182 0.985 . S
C196 C197 1.363 . S
C196 C202 1.379 . S
C196 N204 1.356 . S
C197 C196 1.363 . S
C197 C203 1.363 . S
C198 C199 1.363 . S
C198 C203 1.379 . S
C198 N205 1.356 . S
C199 C198 1.363 . S
C199 C202 1.363 . S
N200 C202 1.356 . S
N200 H212 0.984 . S
N200 H213 0.985 . S
N201 C203 1.356 . S
N201 H206 0.984 . S
N201 H207 0.985 . S
C202 C196 1.379 . S
C202 C199 1.363 . S
C202 N200 1.356 . S
C203 C197 1.363 . S
C203 C198 1.379 . S
C203 N201 1.356 . S
N204 C196 1.356 . S
N204 H210 0.984 . S
N204 H211 0.984 . S
N205 C198 1.356 . S
N205 H208 0.984 . S
N205 H209 0.985 . S
H206 N201 0.984 . S
H207 N201 0.985 . S
H208 N205 0.984 . S
H209 N205 0.985 . S
H210 N204 0.984 . S
H211 N204 0.984 . S
H212 N200 0.984 . S
H213 N200 0.985 . S
C214 C215 1.363 . S
C214 C220 1.379 . S
C214 N222 1.356 . S
C215 C214 1.363 . S
C215 C221 1.363 . S
C216 C217 1.363 . S
C216 C221 1.379 . S
C216 N223 1.356 . S
C217 C216 1.363 . S
C217 C220 1.363 . S
N218 C220 1.356 . S
N218 H230 0.984 . S
N218 H231 0.985 . S
N219 C221 1.356 1_556 S
N219 H224 0.984 . S
N219 H225 0.985 . S
C220 C214 1.379 . S
C220 C217 1.363 . S
C220 N218 1.356 . S
C221 C215 1.363 . S
C221 C216 1.379 . S
C221 N219 1.356 1_554 S
N222 C214 1.356 . S
N222 H228 0.984 . S
N222 H229 0.984 . S
N223 C216 1.356 . S
N223 H226 0.984 . S
N223 H227 0.985 1_554 S
H224 N219 0.984 . S
H225 N219 0.985 . S
H226 N223 0.984 . S
H227 N223 0.985 1_556 S
H228 N222 0.984 . S
H229 N222 0.984 . S
H230 N218 0.984 . S
H231 N218 0.985 . S
C232 C233 1.363 . S
C232 C238 1.379 . S
C232 N240 1.356 . S
C233 C232 1.363 . S
C233 C239 1.363 . S
C234 C235 1.363 . S
C234 C239 1.379 . S
C234 N241 1.356 . S
C235 C234 1.363 . S
C235 C238 1.363 . S
N236 C238 1.356 . S
N236 H248 0.984 . S
N236 H249 0.985 . S
N237 C239 1.356 . S
N237 H242 0.984 . S
N237 H243 0.985 . S
C238 C232 1.379 . S
C238 C235 1.363 . S
C238 N236 1.356 . S
C239 C233 1.363 . S
C239 C234 1.379 . S
C239 N237 1.356 . S
N240 C232 1.356 . S
N240 H246 0.984 . S
N240 H247 0.984 . S
N241 C234 1.356 . S
N241 H244 0.984 . S
N241 H245 0.985 . S
H242 N237 0.984 . S
H243 N237 0.985 . S
H244 N241 0.984 . S
H245 N241 0.985 . S
H246 N240 0.984 . S
H247 N240 0.984 . S
H248 N236 0.984 . S
H249 N236 0.985 . S
C250 C251 1.363 . S
C250 C256 1.379 . S
C250 N258 1.356 . S
C251 C250 1.363 . S
C251 C257 1.363 . S
C252 C253 1.363 . S
C252 C257 1.379 . S
C252 N259 1.356 . S
C253 C252 1.363 . S
C253 C256 1.363 . S
N254 C256 1.356 . S
N254 H266 0.984 . S
N254 H267 0.985 . S
N255 C257 1.356 . S
N255 H260 0.984 . S
N255 H261 0.985 . S
C256 C250 1.379 . S
C256 C253 1.363 . S
C256 N254 1.356 . S
C257 C251 1.363 . S
C257 C252 1.379 . S
C257 N255 1.356 . S
N258 C250 1.356 . S
N258 H264 0.984 . S
N258 H265 0.984 . S
N259 C252 1.356 . S
N259 H262 0.984 . S
N259 H263 0.985 . S
H260 N255 0.984 . S
H261 N255 0.985 . S
H262 N259 0.984 . S
H263 N259 0.985 . S
H264 N258 0.984 . S
H265 N258 0.984 . S
H266 N254 0.984 . S
H267 N254 0.985 . S
C268 C269 1.363 . S
C268 C274 1.379 . S
C268 N276 1.356 . S
C269 C268 1.363 . S
C269 C275 1.363 . S
C270 C271 1.363 . S
C270 C275 1.379 . S
C270 N277 1.356 . S
C271 C270 1.363 . S
C271 C274 1.363 . S
N272 C274 1.356 1_556 S
N272 H284 0.984 . S
N272 H285 0.985 . S
N273 C275 1.356 . S
N273 H278 0.984 . S
N273 H279 0.985 . S
C274 C268 1.379 . S
C274 C271 1.363 . S
C274 N272 1.356 1_554 S
C275 C269 1.363 . S
C275 C270 1.379 . S
C275 N273 1.356 . S
N276 C268 1.356 . S
N276 H282 0.984 1_554 S
N276 H283 0.984 . S
N277 C270 1.356 . S
N277 H280 0.984 . S
N277 H281 0.985 . S
H278 N273 0.984 . S
H279 N273 0.985 . S
H280 N277 0.984 . S
H281 N277 0.985 . S
H282 N276 0.984 1_556 S
H283 N276 0.984 . S
H284 N272 0.984 . S
H285 N272 0.985 . S
C286 C287 1.363 . S
C286 C292 1.379 . S
C286 N294 1.356 . S
C287 C286 1.363 . S
C287 C293 1.363 . S
C288 C289 1.363 . S
C288 C293 1.379 . S
C288 N295 1.356 1_556 S
C289 C288 1.363 . S
C289 C292 1.363 . S
N290 C292 1.356 . S
N290 H302 0.984 . S
N290 H303 0.985 . S
N291 C293 1.356 . S
N291 H296 0.984 . S
N291 H297 0.985 . S
C292 C286 1.379 . S
C292 C289 1.363 . S
C292 N290 1.356 . S
C293 C287 1.363 . S
C293 C288 1.379 . S
C293 N291 1.356 . S
N294 C286 1.356 . S
N294 H300 0.984 . S
N294 H301 0.984 . S
N295 C288 1.356 1_554 S
N295 H298 0.984 . S
N295 H299 0.985 . S
H296 N291 0.984 . S
H297 N291 0.985 . S
H298 N295 0.984 . S
H299 N295 0.985 . S
H300 N294 0.984 . S
H301 N294 0.984 . S
H302 N290 0.984 . S
H303 N290 0.985 . S
C304 C305 1.363 . S
C304 C310 1.379 . S
C304 N312 1.356 . S
C305 C304 1.363 . S
C305 C311 1.363 . S
C306 C307 1.363 . S
C306 C311 1.379 . S
C306 N313 1.356 1_556 S
C307 C306 1.363 . S
C307 C310 1.363 . S
N308 C310 1.356 . S
N308 H320 0.984 . S
N308 H321 0.985 . S
N309 C311 1.356 1_554 S
N309 H314 0.984 . S
N309 H315 0.985 . S
C310 C304 1.379 . S
C310 C307 1.363 . S
C310 N308 1.356 . S
C311 C305 1.363 . S
C311 C306 1.379 . S
C311 N309 1.356 1_556 S
N312 C304 1.356 . S
N312 H318 0.984 . S
N312 H319 0.984 . S
N313 C306 1.356 1_554 S
N313 H316 0.984 1_554 S
N313 H317 0.985 . S
H314 N309 0.984 . S
H315 N309 0.985 . S
H316 N313 0.984 1_556 S
H317 N313 0.985 . S
H318 N312 0.984 . S
H319 N312 0.984 . S
H320 N308 0.984 . S
H321 N308 0.985 . S
C322 C323 1.363 . S
C322 C328 1.379 . S
C322 N330 1.356 . S
C323 C322 1.363 . S
C323 C329 1.363 . S
C324 C325 1.363 . S
C324 C329 1.379 . S
C324 N331 1.356 . S
C325 C324 1.363 . S
C325 C328 1.363 . S
N326 C328 1.356 . S
N326 H338 0.984 . S
N326 H339 0.985 . S
N327 C329 1.356 . S
N327 H332 0.984 . S
N327 H333 0.985 . S
C328 C322 1.379 . S
C328 C325 1.363 . S
C328 N326 1.356 . S
C329 C323 1.363 . S
C329 C324 1.379 . S
C329 N327 1.356 . S
N330 C322 1.356 . S
N330 H336 0.984 . S
N330 H337 0.984 . S
N331 C324 1.356 . S
N331 H334 0.984 . S
N331 H335 0.985 . S
H332 N327 0.984 . S
H333 N327 0.985 . S
H334 N331 0.984 . S
H335 N331 0.985 . S
H336 N330 0.984 . S
H337 N330 0.984 . S
H338 N326 0.984 . S
H339 N326 0.985 . S
C340 C341 1.363 . S
C340 C346 1.379 . S
C340 N348 1.356 . S
C341 C340 1.363 . S
C341 C347 1.363 . S
C342 C343 1.363 . S
C342 C347 1.379 . S
C342 N349 1.356 . S
C343 C342 1.363 . S
C343 C346 1.363 . S
N344 C346 1.356 . S
N344 H356 0.984 . S
N344 H357 0.985 . S
N345 C347 1.356 . S
N345 H350 0.984 . S
N345 H351 0.985 . S
C346 C340 1.379 . S
C346 C343 1.363 . S
C346 N344 1.356 . S
C347 C341 1.363 . S
C347 C342 1.379 . S
C347 N345 1.356 . S
N348 C340 1.356 . S
N348 H354 0.984 . S
N348 H355 0.984 . S
N349 C342 1.356 . S
N349 H352 0.984 . S
N349 H353 0.985 . S
H350 N345 0.984 . S
H351 N345 0.985 . S
H352 N349 0.984 . S
H353 N349 0.985 . S
H354 N348 0.984 . S
H355 N348 0.984 . S
H356 N344 0.984 . S
H357 N344 0.985 . S
C358 C359 1.363 . S
C358 C364 1.379 . S
C358 N366 1.356 . S
C359 C358 1.363 . S
C359 C365 1.363 . S
C360 C361 1.363 . S
C360 C365 1.379 . S
C360 N367 1.356 . S
C361 C360 1.363 . S
C361 C364 1.363 . S
N362 C364 1.356 . S
N362 H374 0.984 . S
N362 H375 0.985 . S
N363 C365 1.356 . S
N363 H368 0.984 . S
N363 H369 0.985 . S
C364 C358 1.379 . S
C364 C361 1.363 . S
C364 N362 1.356 . S
C365 C359 1.363 . S
C365 C360 1.379 . S
C365 N363 1.356 . S
N366 C358 1.356 . S
N366 H372 0.984 . S
N366 H373 0.984 . S
N367 C360 1.356 . S
N367 H370 0.984 . S
N367 H371 0.985 . S
H368 N363 0.984 . S
H369 N363 0.985 . S
H370 N367 0.984 . S
H371 N367 0.985 . S
H372 N366 0.984 . S
H373 N366 0.984 . S
H374 N362 0.984 . S
H375 N362 0.985 . S
C376 C377 1.363 . S
C376 C382 1.379 . S
C376 N384 1.356 . S
C377 C376 1.363 . S
C377 C383 1.363 . S
C378 C379 1.363 . S
C378 C383 1.379 . S
C378 N385 1.356 . S
C379 C378 1.363 . S
C379 C382 1.363 . S
N380 C382 1.356 . S
N380 H392 0.984 . S
N380 H393 0.985 . S
N381 C383 1.356 . S
N381 H386 0.984 . S
N381 H387 0.985 . S
C382 C376 1.379 . S
C382 C379 1.363 . S
C382 N380 1.356 . S
C383 C377 1.363 . S
C383 C378 1.379 . S
C383 N381 1.356 . S
N384 C376 1.356 . S
N384 H390 0.984 . S
N384 H391 0.984 . S
N385 C378 1.356 . S
N385 H388 0.984 . S
N385 H389 0.985 . S
H386 N381 0.984 . S
H387 N381 0.985 . S
H388 N385 0.984 . S
H389 N385 0.985 . S
H390 N384 0.984 . S
H391 N384 0.984 . S
H392 N380 0.984 . S
H393 N380 0.985 . S
C394 C395 1.363 . S
C394 C400 1.379 . S
C394 N402 1.356 1_556 S
C395 C394 1.363 . S
C395 C401 1.363 . S
C396 C397 1.363 . S
C396 C401 1.379 . S
C396 N403 1.356 . S
C397 C396 1.363 . S
C397 C400 1.363 . S
N398 C400 1.356 . S
N398 H410 0.984 1_556 S
N398 H411 0.985 . S
N399 C401 1.356 . S
N399 H404 0.984 . S
N399 H405 0.985 . S
C400 C394 1.379 . S
C400 C397 1.363 . S
C400 N398 1.356 . S
C401 C395 1.363 . S
C401 C396 1.379 . S
C401 N399 1.356 . S
N402 C394 1.356 1_554 S
N402 H408 0.984 . S
N402 H409 0.984 . S
N403 C396 1.356 . S
N403 H406 0.984 . S
N403 H407 0.985 . S
H404 N399 0.984 . S
H405 N399 0.985 . S
H406 N403 0.984 . S
H407 N403 0.985 . S
H408 N402 0.984 . S
H409 N402 0.984 . S
H410 N398 0.984 1_554 S
H411 N398 0.985 . S
C412 C413 1.363 . S
C412 C418 1.379 . S
C412 N420 1.356 . S
C413 C412 1.363 . S
C413 C419 1.363 . S
C414 C415 1.363 . S
C414 C419 1.379 . S
C414 N421 1.356 . S
C415 C414 1.363 . S
C415 C418 1.363 . S
N416 C418 1.356 . S
N416 H428 0.984 . S
N416 H429 0.985 . S
N417 C419 1.356 . S
N417 H422 0.984 . S
N417 H423 0.985 . S
C418 C412 1.379 . S
C418 C415 1.363 . S
C418 N416 1.356 . S
C419 C413 1.363 . S
C419 C414 1.379 . S
C419 N417 1.356 . S
N420 C412 1.356 . S
N420 H426 0.984 . S
N420 H427 0.984 . S
N421 C414 1.356 . S
N421 H424 0.984 . S
N421 H425 0.985 . S
H422 N417 0.984 . S
H423 N417 0.985 . S
H424 N421 0.984 . S
H425 N421 0.985 . S
H426 N420 0.984 . S
H427 N420 0.984 . S
H428 N416 0.984 . S
H429 N416 0.985 . S
C430 C431 1.363 . S
C430 C436 1.379 . S
C430 N438 1.356 . S
C431 C430 1.363 . S
C431 C437 1.363 . S
C432 C433 1.363 . S
C432 C437 1.379 . S
C432 N439 1.356 . S
C433 C432 1.363 . S
C433 C436 1.363 . S
N434 C436 1.356 . S
N434 H446 0.984 . S
N434 H447 0.985 . S
N435 C437 1.356 . S
N435 H440 0.984 . S
N435 H441 0.985 . S
C436 C430 1.379 . S
C436 C433 1.363 . S
C436 N434 1.356 . S
C437 C431 1.363 . S
C437 C432 1.379 . S
C437 N435 1.356 . S
N438 C430 1.356 . S
N438 H444 0.984 . S
N438 H445 0.984 . S
N439 C432 1.356 . S
N439 H442 0.984 . S
N439 H443 0.985 . S
H440 N435 0.984 . S
H441 N435 0.985 . S
H442 N439 0.984 . S
H443 N439 0.985 . S
H444 N438 0.984 . S
H445 N438 0.984 . S
H446 N434 0.984 . S
H447 N434 0.985 . S
C448 C449 1.363 1_565 S
C448 C454 1.379 1_556 S
C448 N456 1.356 . S
C449 C448 1.363 1_545 S
C449 C455 1.363 1_455 S
C450 C451 1.363 1_545 S
C450 C455 1.379 1_554 S
C450 N457 1.356 . S
C451 C450 1.363 1_565 S
C451 C454 1.363 1_655 S
N452 C454 1.356 . S
N452 H464 0.984 . S
N452 H465 0.985 . S
N453 C455 1.356 . S
N453 H458 0.984 . S
N453 H459 0.985 . S
C454 C448 1.379 1_554 S
C454 C451 1.363 1_455 S
C454 N452 1.356 . S
C455 C449 1.363 1_655 S
C455 C450 1.379 1_556 S
C455 N453 1.356 . S
N456 C448 1.356 . S
N456 H462 0.984 . S
N456 H463 0.984 . S
N457 C450 1.356 . S
N457 H460 0.984 . S
N457 H461 0.985 . S
H458 N453 0.984 . S
H459 N453 0.985 . S
H460 N457 0.984 . S
H461 N457 0.985 . S
H462 N456 0.984 . S
H463 N456 0.984 . S
H464 N452 0.984 . S
H465 N452 0.985 . S
C466 C467 1.363 . S
C466 C472 1.379 . S
C466 N474 1.356 . S
C467 C466 1.363 . S
C467 C473 1.363 . S
C468 C469 1.363 . S
C468 C473 1.379 . S
C468 N475 1.356 . S
C469 C468 1.363 . S
C469 C472 1.363 . S
N470 C472 1.356 . S
N470 H482 0.984 . S
N470 H483 0.985 . S
N471 C473 1.356 . S
N471 H476 0.984 . S
N471 H477 0.985 . S
C472 C466 1.379 . S
C472 C469 1.363 . S
C472 N470 1.356 . S
C473 C467 1.363 . S
C473 C468 1.379 . S
C473 N471 1.356 . S
N474 C466 1.356 . S
N474 H480 0.984 . S
N474 H481 0.984 . S
N475 C468 1.356 . S
N475 H478 0.984 . S
N475 H479 0.985 . S
H476 N471 0.984 . S
H477 N471 0.985 . S
H478 N475 0.984 . S
H479 N475 0.985 . S
H480 N474 0.984 . S
H481 N474 0.984 . S
H482 N470 0.984 . S
H483 N470 0.985 . S
C484 C485 1.363 . S
C484 C490 1.379 . S
C484 N492 1.356 . S
C485 C484 1.363 . S
C485 C491 1.363 1_565 S
C486 C487 1.363 . S
C486 C491 1.379 . S
C486 N493 1.356 . S
C487 C486 1.363 . S
C487 C490 1.363 1_545 S
N488 C490 1.356 . S
N488 H500 0.984 . S
N488 H501 0.985 . S
N489 C491 1.356 . S
N489 H494 0.984 . S
N489 H495 0.985 . S
C490 C484 1.379 . S
C490 C487 1.363 1_565 S
C490 N488 1.356 . S
C491 C485 1.363 1_545 S
C491 C486 1.379 . S
C491 N489 1.356 . S
N492 C484 1.356 . S
N492 H498 0.984 . S
N492 H499 0.984 . S
N493 C486 1.356 . S
N493 H496 0.984 . S
N493 H497 0.985 . S
H494 N489 0.984 . S
H495 N489 0.985 . S
H496 N493 0.984 . S
H497 N493 0.985 . S
H498 N492 0.984 . S
H499 N492 0.984 . S
H500 N488 0.984 . S
H501 N488 0.985 . S
C502 C503 1.363 . S
C502 C508 1.379 . S
C502 N510 1.356 . S
C503 C502 1.363 . S
C503 C509 1.363 . S
C504 C505 1.363 . S
C504 C509 1.379 . S
C504 N511 1.356 . S
C505 C504 1.363 . S
C505 C508 1.363 . S
N506 C508 1.356 . S
N506 H518 0.984 . S
N506 H519 0.985 . S
N507 C509 1.356 . S
N507 H512 0.984 . S
N507 H513 0.985 . S
C508 C502 1.379 . S
C508 C505 1.363 . S
C508 N506 1.356 . S
C509 C503 1.363 . S
C509 C504 1.379 . S
C509 N507 1.356 . S
N510 C502 1.356 . S
N510 H516 0.984 . S
N510 H517 0.984 . S
N511 C504 1.356 . S
N511 H514 0.984 . S
N511 H515 0.985 . S
H512 N507 0.984 . S
H513 N507 0.985 . S
H514 N511 0.984 . S
H515 N511 0.985 . S
H516 N510 0.984 . S
H517 N510 0.984 . S
H518 N506 0.984 . S
H519 N506 0.985 . S
C520 C521 1.363 . S
C520 C526 1.379 . S
C520 N528 1.356 . S
C521 C520 1.363 . S
C521 C527 1.363 . S
C522 C523 1.363 . S
C522 C527 1.379 . S
C522 N529 1.356 . S
C523 C522 1.363 . S
C523 C526 1.363 . S
N524 C526 1.356 . S
N524 H536 0.984 . S
N524 H537 0.985 . S
N525 C527 1.356 . S
N525 H530 0.984 . S
N525 H531 0.985 . S
C526 C520 1.379 . S
C526 C523 1.363 . S
C526 N524 1.356 . S
C527 C521 1.363 . S
C527 C522 1.379 . S
C527 N525 1.356 . S
N528 C520 1.356 . S
N528 H534 0.984 . S
N528 H535 0.984 . S
N529 C522 1.356 . S
N529 H532 0.984 . S
N529 H533 0.985 . S
H530 N525 0.984 . S
H531 N525 0.985 . S
H532 N529 0.984 . S
H533 N529 0.985 . S
H534 N528 0.984 . S
H535 N528 0.984 . S
H536 N524 0.984 . S
H537 N524 0.985 . S
C538 C539 1.363 . S
C538 C544 1.379 . S
C538 N546 1.356 . S
C539 C538 1.363 . S
C539 C545 1.363 . S
C540 C541 1.363 . S
C540 C545 1.379 . S
C540 N547 1.356 . S
C541 C540 1.363 . S
C541 C544 1.363 . S
N542 C544 1.356 . S
N542 H554 0.984 . S
N542 H555 0.985 . S
N543 C545 1.356 . S
N543 H548 0.984 . S
N543 H549 0.985 . S
C544 C538 1.379 . S
C544 C541 1.363 . S
C544 N542 1.356 . S
C545 C539 1.363 . S
C545 C540 1.379 . S
C545 N543 1.356 . S
N546 C538 1.356 . S
N546 H552 0.984 . S
N546 H553 0.984 . S
N547 C540 1.356 . S
N547 H550 0.984 . S
N547 H551 0.985 . S
H548 N543 0.984 . S
H549 N543 0.985 . S
H550 N547 0.984 . S
H551 N547 0.985 . S
H552 N546 0.984 . S
H553 N546 0.984 . S
H554 N542 0.984 . S
H555 N542 0.985 . S
C556 C557 1.363 . S
C556 C562 1.379 . S
C556 N564 1.356 . S
C557 C556 1.363 . S
C557 C563 1.363 . S
C558 C559 1.363 . S
C558 C563 1.379 . S
C558 N565 1.356 . S
C559 C558 1.363 . S
C559 C562 1.363 . S
N560 C562 1.356 . S
N560 H572 0.984 . S
N560 H573 0.985 . S
N561 C563 1.356 . S
N561 H566 0.984 . S
N561 H567 0.985 . S
C562 C556 1.379 . S
C562 C559 1.363 . S
C562 N560 1.356 . S
C563 C557 1.363 . S
C563 C558 1.379 . S
C563 N561 1.356 . S
N564 C556 1.356 . S
N564 H570 0.984 . S
N564 H571 0.984 . S
N565 C558 1.356 . S
N565 H568 0.984 . S
N565 H569 0.985 . S
H566 N561 0.984 . S
H567 N561 0.985 . S
H568 N565 0.984 . S
H569 N565 0.985 . S
H570 N564 0.984 . S
H571 N564 0.984 . S
H572 N560 0.984 . S
H573 N560 0.985 . S
C574 C575 1.363 1_655 S
C574 C580 1.379 1_556 S
C574 N582 1.356 . S
C575 C574 1.363 1_455 S
C575 C581 1.363 . S
C576 C577 1.363 1_455 S
C576 C581 1.379 1_554 S
C576 N583 1.356 . S
C577 C576 1.363 1_655 S
C577 C580 1.363 . S
N578 C580 1.356 . S
N578 H590 0.984 . S
N578 H591 0.985 . S
N579 C581 1.356 . S
N579 H584 0.984 . S
N579 H585 0.985 . S
C580 C574 1.379 1_554 S
C580 C577 1.363 . S
C580 N578 1.356 . S
C581 C575 1.363 . S
C581 C576 1.379 1_556 S
C581 N579 1.356 . S
N582 C574 1.356 . S
N582 H588 0.984 . S
N582 H589 0.984 . S
N583 C576 1.356 . S
N583 H586 0.984 . S
N583 H587 0.985 . S
H584 N579 0.984 . S
H585 N579 0.985 . S
H586 N583 0.984 . S
H587 N583 0.985 . S
H588 N582 0.984 . S
H589 N582 0.984 . S
H590 N578 0.984 . S
H591 N578 0.985 . S
C161 C18 1.500 . S
C163 C64 1.439 . S
C179 C4 0.978 . S
C181 C24 0.977 . S
C197 C38 1.500 . S
C199 C44 1.445 . S
C215 C58 2.072 . S
C217 C78 2.071 . S
C233 C19 1.500 . S
C235 C102 1.446 . S
C251 C2 0.978 . S
C253 C82 0.978 . S
C269 C99 1.500 . S
C271 C42 1.441 . S
C287 C119 2.072 . S
C289 C59 2.074 . S
C305 C138 1.500 . S
C307 C104 1.443 . S
C323 C84 0.978 . S
C325 C124 0.978 . S
C341 C144 1.443 . S
C343 C98 1.502 . S
C359 C118 2.072 . S
C361 C158 2.074 . S
C377 C62 1.443 . S
C379 C139 1.500 . S
C395 C122 0.977 . S
C397 C22 0.978 . S
C413 C39 1.500 . S
C415 C142 1.441 . S
C431 C79 2.072 . S
C433 C159 2.071 . S
C449 C12 1.434 1_545 S
C451 C9 1.434 1_565 S
C467 C32 1.434 . S
C469 C29 1.434 . S
C485 C52 1.516 . S
C487 C49 1.516 . S
C503 C69 1.516 . S
C505 C72 1.516 . S
C521 C92 1.434 . S
C523 C89 1.434 . S
C539 C109 1.516 . S
C541 C112 1.516 . S
C557 C129 1.434 . S
C559 C132 1.434 . S
C575 C149 1.516 . S
C577 C152 1.516 . S
