# Generated by pormake.
# Topology uos, (4)-cn, num edge types: 1
# Building blocks:
#     Node 0, Type 0, BuildingBlock: TATPOV_clean_sbu_0, # of connection points: 4
#     Node 1, Type 0, BuildingBlock: TATPOV_clean_sbu_0, # of connection points: 4
#     Node 2, Type 0, BuildingBlock: TATPOV_clean_sbu_0, # of connection points: 4
#     Node 3, Type 0, BuildingBlock: TATPOV_clean_sbu_0, # of connection points: 4
#     Node 4, Type 0, BuildingBlock: TATPOV_clean_sbu_0, # of connection points: 4
#     Node 5, Type 0, BuildingBlock: TATPOV_clean_sbu_0, # of connection points: 4
#     Node 6, Type 0, BuildingBlock: TATPOV_clean_sbu_0, # of connection points: 4
#     Node 7, Type 0, BuildingBlock: TATPOV_clean_sbu_0, # of connection points: 4
#     Node 8, Type 0, BuildingBlock: TATPOV_clean_sbu_0, # of connection points: 4
#     Node 9, Type 0, BuildingBlock: TATPOV_clean_sbu_0, # of connection points: 4
#     Node 10, Type 0, BuildingBlock: TATPOV_clean_sbu_0, # of connection points: 4
#     Node 11, Type 0, BuildingBlock: TATPOV_clean_sbu_0, # of connection points: 4
#     Node 12, Type 0, BuildingBlock: TATPOV_clean_sbu_0, # of connection points: 4
#     Node 13, Type 0, BuildingBlock: TATPOV_clean_sbu_0, # of connection points: 4
#     Node 14, Type 0, BuildingBlock: TATPOV_clean_sbu_0, # of connection points: 4
#     Node 15, Type 0, BuildingBlock: TATPOV_clean_sbu_0, # of connection points: 4
#     Node 16, Type 0, BuildingBlock: TATPOV_clean_sbu_0, # of connection points: 4
#     Node 17, Type 0, BuildingBlock: TATPOV_clean_sbu_0, # of connection points: 4
#     Node 18, Type 0, BuildingBlock: TATPOV_clean_sbu_0, # of connection points: 4
#     Node 19, Type 0, BuildingBlock: TATPOV_clean_sbu_0, # of connection points: 4
#     Node 20, Type 0, BuildingBlock: TATPOV_clean_sbu_0, # of connection points: 4
#     Node 21, Type 0, BuildingBlock: TATPOV_clean_sbu_0, # of connection points: 4
#     Node 22, Type 0, BuildingBlock: TATPOV_clean_sbu_0, # of connection points: 4
#     Node 23, Type 0, BuildingBlock: TATPOV_clean_sbu_0, # of connection points: 4
#     Node 24, Type 0, BuildingBlock: TATPOV_clean_sbu_0, # of connection points: 4
#     Node 25, Type 0, BuildingBlock: TATPOV_clean_sbu_0, # of connection points: 4
#     Node 26, Type 0, BuildingBlock: TATPOV_clean_sbu_0, # of connection points: 4
#     Node 27, Type 0, BuildingBlock: TATPOV_clean_sbu_0, # of connection points: 4
#     Node 28, Type 0, BuildingBlock: TATPOV_clean_sbu_0, # of connection points: 4
#     Node 29, Type 0, BuildingBlock: TATPOV_clean_sbu_0, # of connection points: 4
#     Node 30, Type 0, BuildingBlock: TATPOV_clean_sbu_0, # of connection points: 4
#     Node 31, Type 0, BuildingBlock: TATPOV_clean_sbu_0, # of connection points: 4
#     Edge 32, Type (0, 0), BuildingBlock: KIFKEQ_clean_linker_1, # of connection points: 2
#     Edge 33, Type (0, 0), BuildingBlock: KIFKEQ_clean_linker_1, # of connection points: 2
#     Edge 34, Type (0, 0), BuildingBlock: KIFKEQ_clean_linker_1, # of connection points: 2
#     Edge 35, Type (0, 0), BuildingBlock: KIFKEQ_clean_linker_1, # of connection points: 2
#     Edge 36, Type (0, 0), BuildingBlock: KIFKEQ_clean_linker_1, # of connection points: 2
#     Edge 37, Type (0, 0), BuildingBlock: KIFKEQ_clean_linker_1, # of connection points: 2
#     Edge 38, Type (0, 0), BuildingBlock: KIFKEQ_clean_linker_1, # of connection points: 2
#     Edge 39, Type (0, 0), BuildingBlock: KIFKEQ_clean_linker_1, # of connection points: 2
#     Edge 40, Type (0, 0), BuildingBlock: KIFKEQ_clean_linker_1, # of connection points: 2
#     Edge 41, Type (0, 0), BuildingBlock: KIFKEQ_clean_linker_1, # of connection points: 2
#     Edge 42, Type (0, 0), BuildingBlock: KIFKEQ_clean_linker_1, # of connection points: 2
#     Edge 43, Type (0, 0), BuildingBlock: KIFKEQ_clean_linker_1, # of connection points: 2
#     Edge 44, Type (0, 0), BuildingBlock: KIFKEQ_clean_linker_1, # of connection points: 2
#     Edge 45, Type (0, 0), BuildingBlock: KIFKEQ_clean_linker_1, # of connection points: 2
#     Edge 46, Type (0, 0), BuildingBlock: KIFKEQ_clean_linker_1, # of connection points: 2
#     Edge 47, Type (0, 0), BuildingBlock: KIFKEQ_clean_linker_1, # of connection points: 2
#     Edge 48, Type (0, 0), BuildingBlock: KIFKEQ_clean_linker_1, # of connection points: 2
#     Edge 49, Type (0, 0), BuildingBlock: KIFKEQ_clean_linker_1, # of connection points: 2
#     Edge 50, Type (0, 0), BuildingBlock: KIFKEQ_clean_linker_1, # of connection points: 2
#     Edge 51, Type (0, 0), BuildingBlock: KIFKEQ_clean_linker_1, # of connection points: 2
#     Edge 52, Type (0, 0), BuildingBlock: KIFKEQ_clean_linker_1, # of connection points: 2
#     Edge 53, Type (0, 0), BuildingBlock: KIFKEQ_clean_linker_1, # of connection points: 2
#     Edge 54, Type (0, 0), BuildingBlock: KIFKEQ_clean_linker_1, # of connection points: 2
#     Edge 55, Type (0, 0), BuildingBlock: KIFKEQ_clean_linker_1, # of connection points: 2
#     Edge 56, Type (0, 0), BuildingBlock: KIFKEQ_clean_linker_1, # of connection points: 2
#     Edge 57, Type (0, 0), BuildingBlock: KIFKEQ_clean_linker_1, # of connection points: 2
#     Edge 58, Type (0, 0), BuildingBlock: KIFKEQ_clean_linker_1, # of connection points: 2
#     Edge 59, Type (0, 0), BuildingBlock: KIFKEQ_clean_linker_1, # of connection points: 2
#     Edge 60, Type (0, 0), BuildingBlock: KIFKEQ_clean_linker_1, # of connection points: 2
#     Edge 61, Type (0, 0), BuildingBlock: KIFKEQ_clean_linker_1, # of connection points: 2
#     Edge 62, Type (0, 0), BuildingBlock: KIFKEQ_clean_linker_1, # of connection points: 2
#     Edge 63, Type (0, 0), BuildingBlock: KIFKEQ_clean_linker_1, # of connection points: 2
#     Edge 64, Type (0, 0), BuildingBlock: KIFKEQ_clean_linker_1, # of connection points: 2
#     Edge 65, Type (0, 0), BuildingBlock: KIFKEQ_clean_linker_1, # of connection points: 2
#     Edge 66, Type (0, 0), BuildingBlock: KIFKEQ_clean_linker_1, # of connection points: 2
#     Edge 67, Type (0, 0), BuildingBlock: KIFKEQ_clean_linker_1, # of connection points: 2
#     Edge 68, Type (0, 0), BuildingBlock: KIFKEQ_clean_linker_1, # of connection points: 2
#     Edge 69, Type (0, 0), BuildingBlock: KIFKEQ_clean_linker_1, # of connection points: 2
#     Edge 70, Type (0, 0), BuildingBlock: KIFKEQ_clean_linker_1, # of connection points: 2
#     Edge 71, Type (0, 0), BuildingBlock: KIFKEQ_clean_linker_1, # of connection points: 2
#     Edge 72, Type (0, 0), BuildingBlock: KIFKEQ_clean_linker_1, # of connection points: 2
#     Edge 73, Type (0, 0), BuildingBlock: KIFKEQ_clean_linker_1, # of connection points: 2
#     Edge 74, Type (0, 0), BuildingBlock: KIFKEQ_clean_linker_1, # of connection points: 2
#     Edge 75, Type (0, 0), BuildingBlock: KIFKEQ_clean_linker_1, # of connection points: 2
#     Edge 76, Type (0, 0), BuildingBlock: KIFKEQ_clean_linker_1, # of connection points: 2
#     Edge 77, Type (0, 0), BuildingBlock: KIFKEQ_clean_linker_1, # of connection points: 2
#     Edge 78, Type (0, 0), BuildingBlock: KIFKEQ_clean_linker_1, # of connection points: 2
#     Edge 79, Type (0, 0), BuildingBlock: KIFKEQ_clean_linker_1, # of connection points: 2
#     Edge 80, Type (0, 0), BuildingBlock: KIFKEQ_clean_linker_1, # of connection points: 2
#     Edge 81, Type (0, 0), BuildingBlock: KIFKEQ_clean_linker_1, # of connection points: 2
#     Edge 82, Type (0, 0), BuildingBlock: KIFKEQ_clean_linker_1, # of connection points: 2
#     Edge 83, Type (0, 0), BuildingBlock: KIFKEQ_clean_linker_1, # of connection points: 2
#     Edge 84, Type (0, 0), BuildingBlock: KIFKEQ_clean_linker_1, # of connection points: 2
#     Edge 85, Type (0, 0), BuildingBlock: KIFKEQ_clean_linker_1, # of connection points: 2
#     Edge 86, Type (0, 0), BuildingBlock: KIFKEQ_clean_linker_1, # of connection points: 2
#     Edge 87, Type (0, 0), BuildingBlock: KIFKEQ_clean_linker_1, # of connection points: 2
#     Edge 88, Type (0, 0), BuildingBlock: KIFKEQ_clean_linker_1, # of connection points: 2
#     Edge 89, Type (0, 0), BuildingBlock: KIFKEQ_clean_linker_1, # of connection points: 2
#     Edge 90, Type (0, 0), BuildingBlock: KIFKEQ_clean_linker_1, # of connection points: 2
#     Edge 91, Type (0, 0), BuildingBlock: KIFKEQ_clean_linker_1, # of connection points: 2
#     Edge 92, Type (0, 0), BuildingBlock: KIFKEQ_clean_linker_1, # of connection points: 2
#     Edge 93, Type (0, 0), BuildingBlock: KIFKEQ_clean_linker_1, # of connection points: 2
#     Edge 94, Type (0, 0), BuildingBlock: KIFKEQ_clean_linker_1, # of connection points: 2
#     Edge 95, Type (0, 0), BuildingBlock: KIFKEQ_clean_linker_1, # of connection points: 2
# Relax obj value: 0.055
# Max RMSD: 0.082
# Mean RMSD: 0.082
data_MOF--net-uos--node1-TATPOV_clean_sbu_0--edge1-KIFKEQ_clean_linker_1
_symmetry_space_group_name_H-M    P1
_symmetry_Int_Tables_number       1
_symmetry_cell_setting            triclinic
loop_
_symmetry_equiv_pos_as_xyz
'x, y, z'
_cell_length_a     84.531953
_cell_length_b     84.520694
_cell_length_c     24.373636
_cell_angle_alpha  89.997444
_cell_angle_beta   89.970472
_cell_angle_gamma 90.04859
loop_
_atom_site_label
_atom_site_type_symbol
_atom_site_fract_x
_atom_site_fract_y
_atom_site_fract_z
_atom_type_partial_charge
Zn0 Zn 0.16133 0.18054 0.19887 0.0
Zn1 Zn 0.15709 0.16127 0.1143 0.0
O2 O 0.15857 0.18357 0.0783 0.0
O3 O 0.16211 0.19932 0.14936 0.0
O4 O 0.15185 0.14695 0.04964 0.0
O5 O 0.14099 0.17484 0.2338 0.0
O6 O 0.13838 0.15707 0.16845 0.0
C7 C 0.16049 0.19738 0.09826 0.0
C8 C 0.18588 0.15699 0.18836 0.0
O9 O 0.17857 0.15326 0.14441 0.0
O10 O 0.18073 0.16795 0.21892 0.0
C11 C 0.14069 0.15112 0.0177 0.0
O12 O 0.13317 0.1644 0.02791 0.0
C13 C 0.13343 0.16346 0.2128 0.0
Zn14 Zn 0.06162 0.93018 0.4497 0.0
Zn15 Zn 0.07749 0.91573 0.37396 0.0
O16 O 0.05488 0.91815 0.3408 0.0
O17 O 0.04354 0.9345 0.39903 0.0
O18 O 0.08922 0.90356 0.31438 0.0
O19 O 0.06158 0.91143 0.49945 0.0
O20 O 0.07833 0.90069 0.44124 0.0
C21 C 0.04316 0.92674 0.35473 0.0
C22 C 0.0899 0.94652 0.4251 0.0
O23 O 0.09062 0.93649 0.38594 0.0
O24 O 0.07882 0.94589 0.4598 0.0
C25 C 0.09359 0.9099 0.26945 0.0
O26 O 0.09087 0.92504 0.26159 0.0
C27 C 0.07098 0.90036 0.48704 0.0
Zn28 Zn 0.30662 0.80752 0.68456 0.0
Zn29 Zn 0.31741 0.82724 0.60893 0.0
O30 O 0.32089 0.805 0.57457 0.0
O31 O 0.30874 0.78923 0.63283 0.0
O32 O 0.32671 0.84202 0.55148 0.0
O33 O 0.32426 0.81321 0.73608 0.0
O34 O 0.33165 0.83129 0.67633 0.0
C35 C 0.31619 0.79122 0.58834 0.0
C36 C 0.28365 0.83053 0.65577 0.0
O37 O 0.29399 0.8346 0.62017 0.0
O38 O 0.28641 0.81948 0.68928 0.0
C39 C 0.32086 0.84358 0.50369 0.0
O40 O 0.30793 0.83574 0.49115 0.0
C41 C 0.33325 0.82457 0.72289 0.0
Zn42 Zn 0.42023 0.06321 0.96455 0.0
Zn43 Zn 0.40303 0.07596 0.88597 0.0
O44 O 0.42583 0.07593 0.85437 0.0
O45 O 0.43914 0.06193 0.91482 0.0
O46 O 0.39053 0.08704 0.82606 0.0
O47 O 0.41698 0.08186 0.01411 0.0
O48 O 0.40007 0.09076 0.95283 0.0
C49 C 0.43865 0.06933 0.86972 0.0
C50 C 0.394 0.04378 0.93473 0.0
O51 O 0.39222 0.05397 0.89655 0.0
O52 O 0.40479 0.0454 0.97013 0.0
C53 C 0.3871 0.08059 0.78039 0.0
O54 O 0.39132 0.06585 0.77165 0.0
C55 C 0.40668 0.09189 0.99977 0.0
Zn56 Zn 0.14701 0.81099 0.77391 0.0
Zn57 Zn 0.14659 0.83099 0.85644 0.0
O58 O 0.14703 0.80872 0.89344 0.0
O59 O 0.14645 0.79228 0.82337 0.0
O60 O 0.14302 0.8457 0.9216 0.0
O61 O 0.12707 0.81845 0.74092 0.0
O62 O 0.12769 0.83683 0.80475 0.0
C63 C 0.14665 0.79466 0.87454 0.0
C64 C 0.17427 0.83199 0.77708 0.0
O65 O 0.1682 0.83702 0.8218 0.0
O66 O 0.16742 0.82125 0.74966 0.0
C67 C 0.1311 0.84252 0.9517 0.0
O68 O 0.12228 0.83026 0.93892 0.0
C69 C 0.12133 0.83082 0.76197 0.0
Zn70 Zn 0.41015 0.91322 0.01179 0.0
Zn71 Zn 0.39381 0.90653 0.09669 0.0
O72 O 0.41641 0.90893 0.12997 0.0
O73 O 0.42872 0.91894 0.05831 0.0
O74 O 0.38031 0.89849 0.15994 0.0
O75 O 0.40849 0.89219 0.97574 0.0
O76 O 0.39033 0.88867 0.03901 0.0
C77 C 0.4287 0.91514 0.10849 0.0
C78 C 0.38518 0.93512 0.02653 0.0
O79 O 0.38413 0.92817 0.07296 0.0
O80 O 0.39466 0.93002 0.99053 0.0
C81 C 0.38076 0.90351 0.20914 0.0
O82 O 0.39028 0.91528 0.22153 0.0
C83 C 0.39722 0.88412 0.99512 0.0
Zn84 Zn 0.31909 0.17136 0.28725 0.0
Zn85 Zn 0.32509 0.15491 0.3726 0.0
O86 O 0.32508 0.17785 0.40359 0.0
O87 O 0.31523 0.19064 0.33283 0.0
O88 O 0.33124 0.14146 0.43843 0.0
O89 O 0.33995 0.16769 0.2518 0.0
O90 O 0.34279 0.14963 0.31586 0.0
C91 C 0.31973 0.19054 0.3823 0.0
C92 C 0.29539 0.14851 0.304 0.0
O93 O 0.30258 0.14713 0.34986 0.0
O94 O 0.30098 0.15734 0.2669 0.0
C95 C 0.34316 0.14561 0.4669 0.0
O96 O 0.3509 0.15849 0.45296 0.0
C97 C 0.34755 0.15616 0.27156 0.0
Zn98 Zn 0.06675 0.06861 0.51953 0.0
Zn99 Zn 0.08481 0.08051 0.59533 0.0
O100 O 0.06291 0.07839 0.6334 0.0
O101 O 0.04934 0.06443 0.57334 0.0
O102 O 0.09794 0.09134 0.65422 0.0
O103 O 0.0671 0.08818 0.47374 0.0
O104 O 0.08552 0.09648 0.53066 0.0
C105 C 0.05041 0.07091 0.61992 0.0
C106 C 0.09452 0.05019 0.536 0.0
O107 O 0.09644 0.05931 0.57727 0.0
O108 O 0.08305 0.05225 0.50356 0.0
C109 C 0.10043 0.08512 0.70099 0.0
O110 O 0.09499 0.07083 0.71078 0.0
C111 C 0.07755 0.09824 0.48656 0.0
Zn112 Zn 0.81107 0.81796 0.81768 0.0
Zn113 Zn 0.81863 0.83869 0.89137 0.0
O114 O 0.82117 0.81702 0.93093 0.0
O115 O 0.81035 0.8004 0.87261 0.0
O116 O 0.82635 0.85426 0.9492 0.0
O117 O 0.83044 0.82201 0.77263 0.0
O118 O 0.83464 0.84212 0.82804 0.0
C119 C 0.81655 0.80309 0.91887 0.0
C120 C 0.7871 0.84124 0.82966 0.0
O121 O 0.79553 0.84556 0.87058 0.0
O122 O 0.79167 0.83005 0.79914 0.0
C123 C 0.82212 0.85326 0.99922 0.0
O124 O 0.8117 0.84245 0.01327 0.0
C125 C 0.83824 0.83428 0.78504 0.0
Zn126 Zn 0.9191 0.07057 0.52761 0.0
Zn127 Zn 0.90508 0.08218 0.61073 0.0
O128 O 0.92797 0.07851 0.6397 0.0
O129 O 0.93774 0.06414 0.5726 0.0
O130 O 0.89406 0.09304 0.67471 0.0
O131 O 0.91954 0.09055 0.48472 0.0
O132 O 0.90311 0.09892 0.54827 0.0
C133 C 0.93917 0.07018 0.61981 0.0
C134 C 0.89176 0.05297 0.55257 0.0
O135 O 0.8923 0.06139 0.59606 0.0
O136 O 0.90143 0.05545 0.51398 0.0
C137 C 0.88995 0.08612 0.71887 0.0
O138 O 0.89258 0.07088 0.72411 0.0
C139 C 0.91006 0.10094 0.50222 0.0
Zn140 Zn 0.67759 0.18253 0.31764 0.0
Zn141 Zn 0.66512 0.16456 0.39281 0.0
O142 O 0.66692 0.18652 0.43107 0.0
O143 O 0.68123 0.19996 0.37155 0.0
O144 O 0.65427 0.15105 0.4508 0.0
O145 O 0.6583 0.18212 0.27068 0.0
O146 O 0.64928 0.16407 0.32777 0.0
C147 C 0.67446 0.19901 0.41767 0.0
C148 C 0.69598 0.15503 0.33512 0.0
O149 O 0.68644 0.153 0.37521 0.0
O150 O 0.69426 0.16655 0.30269 0.0
C151 C 0.66047 0.14838 0.49747 0.0
O152 O 0.6746 0.15412 0.50797 0.0
C153 C 0.64791 0.17199 0.28338 0.0
Zn154 Zn 0.55636 0.93955 0.06219 0.0
Zn155 Zn 0.5739 0.92625 0.13802 0.0
O156 O 0.55112 0.92501 0.17019 0.0
O157 O 0.53753 0.93957 0.11195 0.0
O158 O 0.58694 0.915 0.19641 0.0
O159 O 0.56009 0.92191 0.0092 0.0
O160 O 0.57707 0.91227 0.06893 0.0
C161 C 0.53822 0.93161 0.15578 0.0
C162 C 0.58145 0.95964 0.09452 0.0
O163 O 0.5838 0.94889 0.13045 0.0
O164 O 0.57066 0.95814 0.0591 0.0
C165 C 0.59071 0.9213 0.24203 0.0
O166 O 0.58656 0.93601 0.25171 0.0
C167 C 0.57047 0.91178 0.0218 0.0
Zn168 Zn 0.82215 0.17719 0.2134 0.0
Zn169 Zn 0.82912 0.15952 0.13192 0.0
O170 O 0.82802 0.18215 0.09814 0.0
O171 O 0.8169 0.19557 0.16512 0.0
O172 O 0.83581 0.14579 0.06724 0.0
O173 O 0.84343 0.1753 0.24809 0.0
O174 O 0.84725 0.15622 0.18829 0.0
C175 C 0.82193 0.19492 0.11632 0.0
C176 C 0.80058 0.15185 0.20472 0.0
O177 O 0.80754 0.15004 0.15858 0.0
O178 O 0.80537 0.16223 0.23813 0.0
C179 C 0.8479 0.14989 0.03948 0.0
O180 O 0.85555 0.16279 0.05368 0.0
C181 C 0.85167 0.16387 0.2308 0.0
Zn182 Zn 0.56119 0.09398 0.99136 0.0
Zn183 Zn 0.58142 0.09682 0.90936 0.0
O184 O 0.55944 0.09609 0.87052 0.0
O185 O 0.54288 0.09386 0.94001 0.0
O186 O 0.59672 0.10225 0.84755 0.0
O187 O 0.56721 0.11398 0.02769 0.0
O188 O 0.58582 0.11517 0.96474 0.0
C189 C 0.54537 0.09499 0.88904 0.0
C190 C 0.58383 0.06824 0.98452 0.0
O191 O 0.58838 0.07506 0.9405 0.0
O192 O 0.57279 0.07412 0.01312 0.0
C193 C 0.59556 0.09711 0.79863 0.0
O194 O 0.5843 0.08695 0.78671 0.0
C195 C 0.57933 0.12066 0.00813 0.0
Zn196 Zn 0.64757 0.8215 0.72849 0.0
Zn197 Zn 0.64718 0.84241 0.64888 0.0
O198 O 0.64741 0.82038 0.60994 0.0
O199 O 0.64537 0.80324 0.67755 0.0
O200 O 0.64335 0.85747 0.58492 0.0
O201 O 0.62862 0.8298 0.76615 0.0
O202 O 0.62876 0.84822 0.70242 0.0
C203 C 0.64616 0.80614 0.62678 0.0
C204 C 0.6756 0.84169 0.72456 0.0
O205 O 0.66893 0.84798 0.68291 0.0
O206 O 0.66895 0.83032 0.74948 0.0
C207 C 0.63148 0.85416 0.55485 0.0
O208 O 0.62295 0.84165 0.56717 0.0
C209 C 0.62287 0.84232 0.74618 0.0
Zn210 Zn 0.91259 0.92387 0.48851 0.0
Zn211 Zn 0.89685 0.91499 0.40469 0.0
O212 O 0.91965 0.91718 0.3727 0.0
O213 O 0.93136 0.92904 0.44204 0.0
O214 O 0.88396 0.90586 0.34173 0.0
O215 O 0.91123 0.90347 0.52872 0.0
O216 O 0.89366 0.89786 0.46527 0.0
C217 C 0.93175 0.92403 0.39316 0.0
C218 C 0.88694 0.94448 0.46852 0.0
O219 O 0.8863 0.93664 0.42376 0.0
O220 O 0.89658 0.94053 0.50567 0.0
C221 C 0.88135 0.91274 0.29618 0.0
O222 O 0.88715 0.92698 0.28795 0.0
C223 C 0.90051 0.89448 0.51048 0.0
Zn224 Zn 0.68887 0.68945 0.70217 0.0
Zn225 Zn 0.67973 0.66891 0.62987 0.0
O226 O 0.67697 0.69064 0.59094 0.0
O227 O 0.68885 0.70708 0.64742 0.0
O228 O 0.67089 0.65355 0.57338 0.0
O229 O 0.67032 0.68559 0.75118 0.0
O230 O 0.66466 0.66575 0.69613 0.0
C231 C 0.68191 0.70452 0.60234 0.0
C232 C 0.7121 0.66569 0.68538 0.0
O233 O 0.70295 0.66154 0.64617 0.0
O234 O 0.7083 0.677 0.7166 0.0
C235 C 0.67647 0.65238 0.52504 0.0
O236 O 0.68897 0.6608 0.5117 0.0
C237 C 0.66203 0.67355 0.74007 0.0
Zn238 Zn 0.57639 0.434 0.96096 0.0
Zn239 Zn 0.59516 0.42412 0.88311 0.0
O240 O 0.57296 0.42298 0.84709 0.0
O241 O 0.55827 0.43535 0.90805 0.0
O242 O 0.60957 0.41495 0.82441 0.0
O243 O 0.57978 0.41472 0.00709 0.0
O244 O 0.59833 0.40847 0.94764 0.0
C245 C 0.55969 0.42879 0.86166 0.0
C246 C 0.60091 0.45605 0.93948 0.0
O247 O 0.60367 0.44689 0.89891 0.0
O248 O 0.59029 0.45267 0.97405 0.0
C249 C 0.60989 0.42006 0.77531 0.0
O250 O 0.60099 0.43221 0.76208 0.0
C251 C 0.59107 0.40584 0.9927 0.0
Zn252 Zn 0.83373 0.32027 0.21803 0.0
Zn253 Zn 0.84055 0.33958 0.13547 0.0
O254 O 0.83961 0.31754 0.09774 0.0
O255 O 0.83258 0.30196 0.16619 0.0
O256 O 0.84814 0.35419 0.07471 0.0
O257 O 0.85373 0.32472 0.25796 0.0
O258 O 0.85798 0.34279 0.19468 0.0
C259 C 0.83601 0.30389 0.11615 0.0
C260 C 0.81057 0.34491 0.20267 0.0
O261 O 0.81867 0.34822 0.15997 0.0
O262 O 0.81482 0.33389 0.23456 0.0
C263 C 0.84241 0.3543 0.02643 0.0
O264 O 0.83049 0.3449 0.01484 0.0
C265 C 0.86194 0.33603 0.2395 0.0
Zn266 Zn 0.93616 0.5725 0.44842 0.0
Zn267 Zn 0.91786 0.58453 0.37366 0.0
O268 O 0.9396 0.58247 0.33426 0.0
O269 O 0.95327 0.56839 0.39365 0.0
O270 O 0.90413 0.59488 0.31552 0.0
O271 O 0.93615 0.59218 0.49346 0.0
O272 O 0.91771 0.60082 0.4373 0.0
C273 C 0.95211 0.57496 0.34726 0.0
C274 C 0.90834 0.55424 0.43455 0.0
O275 O 0.90624 0.56345 0.39365 0.0
O276 O 0.92004 0.55611 0.46609 0.0
C277 C 0.90164 0.58835 0.26928 0.0
O278 O 0.90772 0.57431 0.25975 0.0
C279 C 0.92595 0.60248 0.48084 0.0
Zn280 Zn 0.67846 0.32729 0.28757 0.0
Zn281 Zn 0.67058 0.34422 0.37062 0.0
O282 O 0.67107 0.32162 0.40448 0.0
O283 O 0.68207 0.3086 0.33625 0.0
O284 O 0.66221 0.35806 0.43231 0.0
O285 O 0.65824 0.33004 0.24693 0.0
O286 O 0.65379 0.34815 0.30967 0.0
C287 C 0.67705 0.30895 0.38513 0.0
C288 C 0.70091 0.35147 0.30711 0.0
O289 O 0.69301 0.35299 0.35149 0.0
O290 O 0.69634 0.34196 0.27038 0.0
C291 C 0.66811 0.35886 0.48025 0.0
O292 O 0.68082 0.35056 0.49167 0.0
C293 C 0.64998 0.34138 0.26474 0.0
Zn294 Zn 0.93179 0.43015 0.54246 0.0
Zn295 Zn 0.91357 0.41953 0.61988 0.0
O296 O 0.93588 0.42014 0.65579 0.0
O297 O 0.94973 0.43346 0.59489 0.0
O298 O 0.89978 0.40987 0.67939 0.0
O299 O 0.93009 0.41031 0.49812 0.0
O300 O 0.91155 0.4033 0.55665 0.0
C301 C 0.94875 0.42684 0.64131 0.0
C302 C 0.90535 0.45019 0.55958 0.0
O303 O 0.90319 0.44133 0.60135 0.0
O304 O 0.91646 0.4474 0.52629 0.0
C305 C 0.89847 0.41581 0.72715 0.0
O306 O 0.90597 0.42904 0.73841 0.0
C307 C 0.91923 0.40085 0.51233 0.0
Zn308 Zn 0.85009 0.6899 0.78257 0.0
Zn309 Zn 0.85207 0.66755 0.85795 0.0
O310 O 0.85156 0.68859 0.90249 0.0
O311 O 0.85186 0.70698 0.83852 0.0
O312 O 0.8568 0.65118 0.91677 0.0
O313 O 0.86922 0.68313 0.74221 0.0
O314 O 0.87046 0.6638 0.80247 0.0
C315 C 0.85194 0.70313 0.88861 0.0
C316 C 0.82317 0.66829 0.78408 0.0
O317 O 0.83041 0.6617 0.82397 0.0
O318 O 0.82906 0.68039 0.76108 0.0
C319 C 0.85083 0.6517 0.96469 0.0
O320 O 0.84032 0.66268 0.97603 0.0
C321 C 0.87579 0.67069 0.75958 0.0
Zn322 Zn 0.57762 0.59135 0.0405 0.0
Zn323 Zn 0.5982 0.59547 0.12129 0.0
O324 O 0.57642 0.5953 0.16128 0.0
O325 O 0.55954 0.59249 0.09306 0.0
O326 O 0.61361 0.60185 0.18144 0.0
O327 O 0.58392 0.61055 0.99966 0.0
O328 O 0.60245 0.61293 0.06243 0.0
C329 C 0.56225 0.59421 0.14371 0.0
C330 C 0.60022 0.56567 0.05212 0.0
O331 O 0.60506 0.57328 0.09412 0.0
O332 O 0.58901 0.571 0.02307 0.0
C333 C 0.61353 0.59628 0.22996 0.0
O334 O 0.60341 0.58505 0.24252 0.0
C335 C 0.59601 0.6176 0.01785 0.0
Zn336 Zn 0.32163 0.31712 0.30598 0.0
Zn337 Zn 0.3359 0.3347 0.38139 0.0
O338 O 0.33267 0.31305 0.42034 0.0
O339 O 0.31882 0.29951 0.35973 0.0
O340 O 0.34719 0.34769 0.43954 0.0
O341 O 0.34039 0.31832 0.2563 0.0
O342 O 0.35186 0.33392 0.31696 0.0
C343 C 0.32522 0.30057 0.40644 0.0
C344 C 0.30498 0.34568 0.32616 0.0
O345 O 0.31563 0.34784 0.36251 0.0
O346 O 0.30502 0.33342 0.29653 0.0
C347 C 0.34085 0.35006 0.48618 0.0
O348 O 0.32666 0.34429 0.49565 0.0
C349 C 0.35194 0.32689 0.27059 0.0
Zn350 Zn 0.44139 0.55897 0.07871 0.0
Zn351 Zn 0.42218 0.57085 0.15268 0.0
O352 O 0.44439 0.57189 0.18923 0.0
O353 O 0.45937 0.55841 0.13209 0.0
O354 O 0.408 0.58107 0.21004 0.0
O355 O 0.43826 0.57748 0.02855 0.0
O356 O 0.41999 0.58583 0.08602 0.0
C357 C 0.45774 0.56583 0.17678 0.0
C358 C 0.41573 0.53831 0.1009 0.0
O359 O 0.41251 0.54844 0.13817 0.0
O360 O 0.42731 0.54037 0.06895 0.0
C361 C 0.40533 0.57481 0.25664 0.0
O362 O 0.41151 0.56092 0.26772 0.0
C363 C 0.42744 0.5872 0.04068 0.0
Zn364 Zn 0.18622 0.67407 0.79354 0.0
Zn365 Zn 0.17737 0.65465 0.87192 0.0
O366 O 0.17442 0.67687 0.90696 0.0
O367 O 0.18491 0.69257 0.8447 0.0
O368 O 0.16894 0.63977 0.93084 0.0
O369 O 0.16837 0.668 0.74426 0.0
O370 O 0.1622 0.65019 0.80674 0.0
C371 C 0.17866 0.69064 0.89139 0.0
C372 C 0.21019 0.6516 0.81794 0.0
O373 O 0.20084 0.64767 0.85692 0.0
O374 O 0.2063 0.66232 0.78444 0.0
C375 C 0.17276 0.64089 0.9812 0.0
O376 O 0.18318 0.65163 0.99587 0.0
C377 C 0.15991 0.65651 0.75983 0.0
Zn378 Zn 0.07192 0.40718 0.51918 0.0
Zn379 Zn 0.09184 0.40365 0.60278 0.0
O380 O 0.0698 0.40432 0.64075 0.0
O381 O 0.05354 0.40729 0.57078 0.0
O382 O 0.10687 0.39819 0.66493 0.0
O383 O 0.07807 0.38703 0.48342 0.0
O384 O 0.09622 0.3853 0.5478 0.0
C385 C 0.05583 0.40575 0.62175 0.0
C386 C 0.09511 0.43241 0.52847 0.0
O387 O 0.09925 0.42528 0.57233 0.0
O388 O 0.08406 0.42694 0.49892 0.0
C389 C 0.10591 0.40385 0.71319 0.0
O390 O 0.09498 0.41445 0.72402 0.0
C391 C 0.08989 0.38004 0.50384 0.0
Zn392 Zn 0.35029 0.67613 0.74061 0.0
Zn393 Zn 0.35225 0.65435 0.66307 0.0
O394 O 0.35233 0.67581 0.62079 0.0
O395 O 0.35282 0.69366 0.68656 0.0
O396 O 0.35723 0.63829 0.60329 0.0
O397 O 0.36896 0.6685 0.78196 0.0
O398 O 0.37014 0.64973 0.71963 0.0
C399 C 0.35296 0.69023 0.6361 0.0
C400 C 0.32285 0.65519 0.73461 0.0
O401 O 0.33026 0.64869 0.69487 0.0
O402 O 0.32885 0.66698 0.75915 0.0
C403 C 0.35216 0.63927 0.55422 0.0
O404 O 0.3423 0.65068 0.54136 0.0
C405 C 0.37533 0.65606 0.76369 0.0
Zn406 Zn 0.08211 0.56404 0.46271 0.0
Zn407 Zn 0.09797 0.57483 0.3798 0.0
O408 O 0.07498 0.57506 0.34935 0.0
O409 O 0.06254 0.56303 0.4169 0.0
O410 O 0.111 0.58489 0.31875 0.0
O411 O 0.08663 0.58211 0.51195 0.0
O412 O 0.10241 0.59007 0.44557 0.0
C413 C 0.06239 0.56906 0.36939 0.0
C414 C 0.1054 0.5422 0.4295 0.0
O415 O 0.10696 0.55189 0.38959 0.0
O416 O 0.09599 0.5452 0.46839 0.0
C417 C 0.11357 0.57863 0.2721 0.0
O418 O 0.10773 0.56454 0.26164 0.0
C419 C 0.09694 0.59164 0.49415 0.0
Zn420 Zn 0.1889 0.31916 0.19266 0.0
Zn421 Zn 0.1758 0.33821 0.1202 0.0
O422 O 0.17749 0.31652 0.08045 0.0
O423 O 0.19161 0.30197 0.13697 0.0
O424 O 0.16487 0.35188 0.06324 0.0
O425 O 0.16965 0.32 0.24087 0.0
O426 O 0.16004 0.33803 0.18487 0.0
C427 C 0.18456 0.30358 0.09157 0.0
C428 C 0.20685 0.34736 0.17709 0.0
O429 O 0.19671 0.35016 0.13953 0.0
O430 O 0.20587 0.335 0.20608 0.0
C431 C 0.17098 0.35426 0.01623 0.0
O432 O 0.18494 0.3482 0.00541 0.0
C433 C 0.15901 0.32994 0.22898 0.0
Zn434 Zn 0.43869 0.40832 0.98004 0.0
Zn435 Zn 0.41817 0.40256 0.90038 0.0
O436 O 0.43987 0.40342 0.86003 0.0
O437 O 0.45674 0.40751 0.92751 0.0
O438 O 0.40302 0.3959 0.83987 0.0
O439 O 0.43292 0.38928 0.02247 0.0
O440 O 0.415 0.38475 0.95881 0.0
C441 C 0.45399 0.40525 0.87716 0.0
C442 C 0.41489 0.43257 0.96905 0.0
O443 O 0.41011 0.42436 0.92833 0.0
O444 O 0.42675 0.42824 0.99686 0.0
C445 C 0.4036 0.40165 0.79163 0.0
O446 O 0.4139 0.41288 0.78085 0.0
C447 C 0.42156 0.3811 0.00432 0.0
H448 H 0.26994 0.15119 0.37093 0.0
H449 H 0.28498 0.13213 0.21551 0.0
H450 H 0.24249 0.14855 0.34325 0.0
H451 H 0.25749 0.12817 0.18873 0.0
H452 H 0.21177 0.15162 0.12466 0.0
H453 H 0.23805 0.14433 0.15641 0.0
H454 H 0.21937 0.13663 0.31976 0.0
H455 H 0.19344 0.14524 0.28816 0.0
C456 C 0.26729 0.14566 0.33188 0.0
C457 C 0.27948 0.14192 0.29524 0.0
C458 C 0.25149 0.14411 0.31569 0.0
C459 C 0.24758 0.13845 0.26288 0.0
C460 C 0.25993 0.13311 0.22881 0.0
C461 C 0.27571 0.1351 0.24443 0.0
C462 C 0.21331 0.14804 0.167 0.0
C463 C 0.20072 0.14912 0.20413 0.0
C464 C 0.22839 0.14375 0.18546 0.0
C465 C 0.23108 0.14008 0.24125 0.0
C466 C 0.21801 0.13985 0.27705 0.0
C467 C 0.20308 0.14461 0.2589 0.0
H468 H 0.1104 0.95151 0.50806 0.0
H469 H 0.09325 0.97161 0.35704 0.0
H470 H 0.12051 0.97731 0.53625 0.0
H471 H 0.10251 0.99756 0.38569 0.0
H472 H 0.09863 0.02479 0.60238 0.0
H473 H 0.10555 0.99842 0.57057 0.0
H474 H 0.11954 0.01784 0.4136 0.0
H475 H 0.11172 0.04408 0.44519 0.0
C476 C 0.10943 0.96138 0.47989 0.0
C477 C 0.10113 0.95967 0.43039 0.0
C478 C 0.115 0.97621 0.49633 0.0
C479 C 0.11195 0.98969 0.46417 0.0
C480 C 0.10521 0.98754 0.41169 0.0
C481 C 0.09989 0.97262 0.39491 0.0
C482 C 0.1039 0.02346 0.56209 0.0
C483 C 0.1046 0.03635 0.52611 0.0
C484 C 0.10787 0.00831 0.54352 0.0
C485 C 0.11276 0.00586 0.48874 0.0
C486 C 0.1154 0.01918 0.4554 0.0
C487 C 0.11114 0.03425 0.47368 0.0
H488 H 0.20079 0.83974 0.83569 0.0
H489 H 0.18206 0.83774 0.67131 0.0
H490 H 0.22724 0.84438 0.79865 0.0
H491 H 0.20817 0.84334 0.63399 0.0
H492 H 0.27414 0.85322 0.72672 0.0
H493 H 0.24675 0.85891 0.75231 0.0
H494 H 0.23067 0.82804 0.62207 0.0
H495 H 0.25795 0.82314 0.59565 0.0
C496 C 0.20228 0.84083 0.7917 0.0
C497 C 0.18949 0.83814 0.75632 0.0
C498 C 0.21743 0.84358 0.77026 0.0
C499 C 0.21999 0.84397 0.71301 0.0
C500 C 0.20682 0.84264 0.6781 0.0
C501 C 0.19181 0.83955 0.69947 0.0
C502 C 0.26464 0.84833 0.70213 0.0
C503 C 0.26803 0.83801 0.65863 0.0
C504 C 0.24896 0.85133 0.71733 0.0
C505 C 0.23638 0.84376 0.69 0.0
C506 C 0.2399 0.83432 0.64383 0.0
C507 C 0.25557 0.8315 0.62834 0.0
H508 H 0.39269 0.01925 0.86329 0.0
H509 H 0.37414 0.03607 0.01718 0.0
H510 H 0.38393 0.99258 0.88544 0.0
H511 H 0.36437 0.00961 0.03859 0.0
H512 H 0.37178 0.94481 0.93128 0.0
H513 H 0.36651 0.97207 0.90447 0.0
H514 H 0.37765 0.98734 0.06948 0.0
H515 H 0.38191 0.95999 0.09643 0.0
C516 C 0.38597 0.01733 0.90057 0.0
C517 C 0.38405 0.02959 0.93854 0.0
C518 C 0.3809 0.00201 0.91355 0.0
C519 C 0.37366 -0.00125 0.96456 0.0
C520 C 0.37028 0.01152 0.99972 0.0
C521 C 0.37565 0.02673 0.98718 0.0
C522 C 0.37245 0.954 0.9622 0.0
C523 C 0.37736 0.95038 0.01578 0.0
C524 C 0.36963 0.96966 0.94673 0.0
C525 C 0.37209 0.98207 0.98418 0.0
C526 C 0.37551 0.9782 0.03928 0.0
C527 C 0.37798 0.96247 0.055 0.0
H528 H 0.77444 0.8455 0.7293 0.0
H529 H 0.76473 0.85279 0.90128 0.0
H530 H 0.74702 0.85085 0.7072 0.0
H531 H 0.73697 0.85846 0.87907 0.0
H532 H 0.68984 0.83421 0.82113 0.0
H533 H 0.71666 0.83996 0.84971 0.0
H534 H 0.72389 0.86761 0.7027 0.0
H535 H 0.69686 0.86153 0.67324 0.0
C536 C 0.76647 0.84872 0.76231 0.0
C537 C 0.77162 0.84847 0.81711 0.0
C538 C 0.75073 0.85193 0.74955 0.0
C539 C 0.7397 0.85488 0.79137 0.0
C540 C 0.74515 0.856 0.84596 0.0
C541 C 0.76104 0.85288 0.85873 0.0
C542 C 0.69704 0.84168 0.79501 0.0
C543 C 0.69129 0.84714 0.74426 0.0
C544 C 0.71241 0.84517 0.8119 0.0
C545 C 0.7225 0.8542 0.77848 0.0
C546 C 0.71646 0.86048 0.72916 0.0
C547 C 0.70098 0.85702 0.71227 0.0
H548 H 0.87127 0.95406 0.55958 0.0
H549 H 0.88393 0.96869 0.39596 0.0
H550 H 0.86431 0.98121 0.58294 0.0
H551 H 0.87808 0.99598 0.41968 0.0
H552 H 0.88842 0.02923 0.62663 0.0
H553 H 0.88025 0.0024 0.60501 0.0
H554 H 0.86397 0.01806 0.44565 0.0
H555 H 0.87325 0.04469 0.46665 0.0
C556 C 0.87213 0.96309 0.52816 0.0
C557 C 0.87822 0.95938 0.47613 0.0
C558 C 0.86835 0.9787 0.54169 0.0
C559 C 0.87107 0.991 0.50397 0.0
C560 C 0.87569 0.98695 0.45006 0.0
C561 C 0.87909 0.97125 0.43618 0.0
C562 C 0.88252 0.02701 0.58793 0.0
C563 C 0.88158 0.03891 0.54812 0.0
C564 C 0.87779 0.01157 0.57524 0.0
C565 C 0.87178 0.00783 0.52272 0.0
C566 C 0.86903 0.0203 0.4857 0.0
C567 C 0.87412 0.03563 0.49795 0.0
H568 H 0.72216 0.15302 0.39845 0.0
H569 H 0.70126 0.13565 0.24903 0.0
H570 H 0.7482 0.14541 0.36555 0.0
H571 H 0.72719 0.12709 0.21663 0.0
H572 H 0.77385 0.14834 0.1438 0.0
H573 H 0.74773 0.14207 0.17989 0.0
H574 H 0.7687 0.12932 0.33569 0.0
H575 H 0.79464 0.13661 0.29996 0.0
C576 C 0.72309 0.1467 0.3599 0.0
C577 C 0.7098 0.14485 0.32631 0.0
C578 C 0.73806 0.14233 0.34067 0.0
C579 C 0.73996 0.1359 0.28758 0.0
C580 C 0.7263 0.13239 0.25694 0.0
C581 C 0.71139 0.13704 0.27582 0.0
C582 C 0.77287 0.14363 0.18503 0.0
C583 C 0.78614 0.14308 0.2193 0.0
C584 C 0.75787 0.14 0.206 0.0
C585 C 0.75595 0.13551 0.26144 0.0
C586 C 0.76959 0.1332 0.29346 0.0
C587 C 0.78449 0.13718 0.27285 0.0
H588 H 0.59095 0.04219 0.92299 0.0
H589 H 0.59202 0.0604 0.08815 0.0
H590 H 0.59637 0.01568 0.95768 0.0
H591 H 0.59849 0.0342 0.12307 0.0
H592 H 0.57726 0.98464 0.1616 0.0
H593 H 0.58328 0.01188 0.13783 0.0
H594 H 0.611 0.9957 0.99946 0.0
H595 H 0.60407 0.96843 0.0223 0.0
C596 C 0.59296 0.04058 0.96653 0.0
C597 C 0.59085 0.0532 1.00301 0.0
C598 C 0.59616 0.02538 0.98666 0.0
C599 C 0.5976 0.02263 0.04361 0.0
C600 C 0.59698 0.03569 0.07927 0.0
C601 C 0.59341 0.05075 0.05927 0.0
C602 C 0.58524 0.98694 0.12772 0.0
C603 C 0.59034 0.97454 0.09409 0.0
C604 C 0.5887 0.0026 0.1137 0.0
C605 C 0.59742 0.00614 0.06583 0.0
C606 C 0.60392 0.99351 0.0357 0.0
C607 C 0.60023 0.97786 0.04931 0.0
H608 H 0.73413 0.65578 0.60988 0.0
H609 H 0.72502 0.65917 0.78365 0.0
H610 H 0.76214 0.65053 0.62919 0.0
H611 H 0.75269 0.65423 0.80303 0.0
H612 H 0.80351 0.64622 0.83195 0.0
H613 H 0.77679 0.6389 0.8024 0.0
H614 H 0.78148 0.66959 0.66154 0.0
H615 H 0.80798 0.67659 0.69014 0.0
C616 C 0.73801 0.65484 0.65211 0.0
C617 C 0.72754 0.6581 0.69526 0.0
C618 C 0.75404 0.65198 0.66325 0.0
C619 C 0.75973 0.65224 0.71768 0.0
C620 C 0.74881 0.65386 0.76071 0.0
C621 C 0.73292 0.65681 0.74959 0.0
C622 C 0.7989 0.65116 0.79419 0.0
C623 C 0.80775 0.66223 0.76406 0.0
C624 C 0.78361 0.64697 0.77723 0.0
C625 C 0.77693 0.65371 0.72969 0.0
C626 C 0.78624 0.66399 0.6979 0.0
C627 C 0.80142 0.66819 0.71486 0.0
H628 H 0.61961 0.46537 0.02335 0.0
H629 H 0.59867 0.4814 0.87223 0.0
H630 H 0.62554 0.49263 0.04896 0.0
H631 H 0.60344 0.5087 0.89874 0.0
H632 H 0.6049 0.53964 0.11602 0.0
H633 H 0.61049 0.51293 0.08383 0.0
H634 H 0.6176 0.53101 0.91942 0.0
H635 H 0.61079 0.55742 0.95159 0.0
C636 C 0.61674 0.47479 0.99488 0.0
C637 C 0.60885 0.47139 0.94566 0.0
C638 C 0.61986 0.49044 0.0099 0.0
C639 C 0.61464 0.50305 0.97681 0.0
C640 C 0.60785 0.49945 0.92536 0.0
C641 C 0.60509 0.48376 0.90982 0.0
C642 C 0.60803 0.53786 0.07335 0.0
C643 C 0.60729 0.55045 0.03613 0.0
C644 C 0.61132 0.52254 0.05465 0.0
C645 C 0.61427 0.51961 0.99848 0.0
C646 C 0.61491 0.53261 0.96248 0.0
C647 C 0.61118 0.5478 0.98094 0.0
H648 H 0.71116 0.36799 0.21882 0.0
H649 H 0.72588 0.3505 0.37675 0.0
H650 H 0.73864 0.37297 0.19389 0.0
H651 H 0.75339 0.35422 0.35107 0.0
H652 H 0.80249 0.35837 0.29924 0.0
H653 H 0.77624 0.36697 0.32773 0.0
H654 H 0.75868 0.35686 0.16455 0.0
H655 H 0.78524 0.34952 0.13579 0.0
C656 C 0.72034 0.36563 0.24874 0.0
C657 C 0.7165 0.3589 0.29966 0.0
C658 C 0.73612 0.36821 0.2342 0.0
C659 C 0.74843 0.36358 0.26957 0.0
C660 C 0.7444 0.35811 0.32254 0.0
C661 C 0.72857 0.35594 0.33758 0.0
C662 C 0.79304 0.35854 0.26922 0.0
C663 C 0.79577 0.35328 0.21546 0.0
C664 C 0.77793 0.36328 0.28562 0.0
C665 C 0.76508 0.36229 0.24909 0.0
C666 C 0.76816 0.35801 0.19406 0.0
C667 C 0.78341 0.35371 0.17732 0.0
H668 H 0.88725 0.45626 0.47097 0.0
H669 H 0.90335 0.47638 0.62343 0.0
H670 H 0.87958 0.48245 0.43847 0.0
H671 H 0.89664 0.50268 0.59046 0.0
H672 H 0.90408 0.52826 0.3711 0.0
H673 H 0.89591 0.50245 0.40485 0.0
H674 H 0.88144 0.52373 0.55836 0.0
H675 H 0.89056 0.54937 0.52495 0.0
C676 C 0.88858 0.4663 0.49827 0.0
C677 C 0.89583 0.46441 0.54963 0.0
C678 C 0.88441 0.48134 0.47942 0.0
C679 C 0.88787 0.49483 0.51099 0.0
C680 C 0.89365 0.49266 0.56483 0.0
C681 C 0.89752 0.47755 0.58405 0.0
C682 C 0.8985 0.52747 0.41103 0.0
C683 C 0.89794 0.54069 0.44551 0.0
C684 C 0.89379 0.51264 0.4307 0.0
C685 C 0.88831 0.51085 0.48511 0.0
C686 C 0.886 0.52454 0.51694 0.0
C687 C 0.891 0.53928 0.49758 0.0
H688 H 0.30322 0.36644 0.24254 0.0
H689 H 0.2778 0.34909 0.38341 0.0
H690 H 0.27853 0.37605 0.20263 0.0
H691 H 0.25306 0.35818 0.34352 0.0
H692 H 0.20915 0.36698 0.26376 0.0
H693 H 0.23399 0.37586 0.30473 0.0
H694 H 0.2592 0.3589 0.16201 0.0
H695 H 0.23431 0.35057 0.12102 0.0
C696 C 0.29241 0.36546 0.26624 0.0
C697 C 0.29233 0.35717 0.31611 0.0
C698 C 0.27824 0.37075 0.24308 0.0
C699 C 0.26373 0.36757 0.26911 0.0
C700 C 0.26396 0.36096 0.32226 0.0
C701 C 0.27817 0.35577 0.34548 0.0
C702 C 0.21996 0.36601 0.24006 0.0
C703 C 0.21992 0.35822 0.18923 0.0
C704 C 0.2342 0.3709 0.26376 0.0
C705 C 0.24866 0.36778 0.23737 0.0
C706 C 0.24834 0.36163 0.18356 0.0
C707 C 0.23406 0.35686 0.15975 0.0
H708 H 0.39537 0.5317 0.01887 0.0
H709 H 0.41699 0.51192 0.16334 0.0
H710 H 0.38824 0.50521 0.98739 0.0
H711 H 0.41067 0.48541 0.1314 0.0
H712 H 0.41041 0.45954 0.90979 0.0
H713 H 0.40411 0.48553 0.94746 0.0
H714 H 0.39474 0.46414 0.1055 0.0
H715 H 0.40198 0.4384 0.06801 0.0
C716 C 0.39799 0.52165 0.04494 0.0
C717 C 0.40653 0.52375 0.09375 0.0
C718 C 0.39417 0.50646 0.02653 0.0
C719 C 0.39917 0.49306 0.05605 0.0
C720 C 0.40644 0.49535 0.10757 0.0
C721 C 0.41006 0.51057 0.12624 0.0
C722 C 0.4065 0.46042 0.95202 0.0
C723 C 0.40675 0.44711 0.98619 0.0
C724 C 0.40283 0.4753 0.97384 0.0
C725 C 0.39917 0.47706 0.03007 0.0
C726 C 0.39791 0.46336 0.06254 0.0
C727 C 0.40189 0.44859 0.04099 0.0
H728 H 0.30374 0.63283 0.68576 0.0
H729 H 0.30635 0.66436 0.82504 0.0
H730 H 0.27672 0.62562 0.71211 0.0
H731 H 0.27953 0.6575 0.85036 0.0
H732 H 0.23171 0.6432 0.89733 0.0
H733 H 0.26006 0.6386 0.88221 0.0
H734 H 0.25243 0.64036 0.70695 0.0
H735 H 0.22444 0.64461 0.72222 0.0
C736 C 0.29864 0.63808 0.72224 0.0
C737 C 0.30711 0.64939 0.75263 0.0
C738 C 0.28317 0.63395 0.73738 0.0
C739 C 0.27589 0.64103 0.78328 0.0
C740 C 0.28475 0.65163 0.81528 0.0
C741 C 0.30013 0.65575 0.80018 0.0
C742 C 0.23608 0.64198 0.85576 0.0
C743 C 0.22599 0.64447 0.81095 0.0
C744 C 0.25231 0.63951 0.84699 0.0
C745 C 0.25858 0.63939 0.79331 0.0
C746 C 0.2481 0.64029 0.74877 0.0
C747 C 0.23202 0.64285 0.75753 0.0
H748 H 0.10422 0.45735 0.59227 0.0
H749 H 0.10326 0.44076 0.42506 0.0
H750 H 0.11236 0.48345 0.56066 0.0
H751 H 0.11256 0.46641 0.39311 0.0
H752 H 0.12587 0.52997 0.50339 0.0
H753 H 0.12916 0.50187 0.52307 0.0
H754 H 0.10144 0.49068 0.37885 0.0
H755 H 0.09932 0.51865 0.35785 0.0
C756 C 0.10627 0.4592 0.54886 0.0
C757 C 0.10288 0.4472 0.51103 0.0
C758 C 0.11107 0.47415 0.53048 0.0
C759 C 0.11296 0.47727 0.47389 0.0
C760 C 0.11079 0.46472 0.4367 0.0
C761 C 0.10557 0.44995 0.45499 0.0
C762 C 0.12126 0.52137 0.47451 0.0
C763 C 0.11248 0.52637 0.42888 0.0
C764 C 0.12282 0.50527 0.48632 0.0
C765 C 0.11514 0.49386 0.45371 0.0
C766 C 0.10765 0.49894 0.40504 0.0
C767 C 0.10645 0.51504 0.39258 0.0
H768 H 0.11951 0.15851 0.93736 0.0
H769 H 0.15124 0.12142 0.98967 0.0
H770 H 0.11117 0.14237 0.85996 0.0
H771 H 0.14293 0.10524 0.91148 0.0
H772 H 0.1082 0.07518 0.80453 0.0
H773 H 0.11904 0.09093 0.87959 0.0
H774 H 0.12119 0.1317 0.77306 0.0
H775 H 0.11021 0.11603 0.69815 0.0
C776 C 0.12478 0.14693 0.93225 0.0
C777 C 0.13604 0.14126 0.96988 0.0
C778 C 0.12007 0.1377 0.88754 0.0
C779 C 0.12642 0.12252 0.87933 0.0
C780 C 0.13772 0.11684 0.91684 0.0
C781 C 0.14254 0.12614 0.9615 0.0
C782 C 0.1111 0.08747 0.79694 0.0
C783 C 0.10823 0.09435 0.74532 0.0
C784 C 0.1174 0.09648 0.83995 0.0
C785 C 0.12089 0.11261 0.83249 0.0
C786 C 0.11841 0.11937 0.78045 0.0
C787 C 0.1122 0.11035 0.73738 0.0
H788 H 0.14464 0.87051 0.98585 0.0
H789 H 0.10792 0.83696 0.02702 0.0
H790 H 0.13695 0.8868 0.06458 0.0
H791 H 0.10019 0.85322 0.10471 0.0
H792 H 0.099 0.87793 0.26919 0.0
H793 H 0.1094 0.86178 0.19453 0.0
H794 H 0.1147 0.90359 0.09431 0.0
H795 H 0.1045 0.91979 0.16924 0.0
C796 C 0.13498 0.86658 0.01168 0.0
C797 C 0.12691 0.85242 1.00001 0.0
C798 C 0.13052 0.87596 0.05664 0.0
C799 C 0.11797 0.87131 0.09114 0.0
C800 C 0.11005 0.85706 0.07962 0.0
C801 C 0.11443 0.84778 0.03469 0.0
C802 C 0.10249 0.88372 0.23141 0.0
C803 C 0.10081 0.90017 0.22521 0.0
C804 C 0.10838 0.87444 0.18845 0.0
C805 C 0.1128 0.88136 0.13819 0.0
C806 C 0.11155 0.89787 0.13255 0.0
C807 C 0.10559 0.90716 0.17547 0.0
H808 H 0.37816 0.91158 0.31778 0.0
H809 H 0.36177 0.87743 0.19879 0.0
H810 H 0.36308 0.89809 0.38921 0.0
H811 H 0.34706 0.86372 0.27028 0.0
H812 H 0.31089 0.85037 0.39949 0.0
H813 H 0.32459 0.86568 0.32935 0.0
H814 H 0.36315 0.8741 0.44195 0.0
H815 H 0.34923 0.85914 0.51258 0.0
C816 C 0.37135 0.9012 0.30681 0.0
C817 C 0.3712 0.89561 0.25245 0.0
C818 C 0.36277 0.89338 0.3479 0.0
C819 C 0.35383 0.87976 0.33572 0.0
C820 C 0.35359 0.87429 0.28118 0.0
C821 C 0.36212 0.88212 0.24012 0.0
C822 C 0.32225 0.85556 0.40944 0.0
C823 C 0.32896 0.85347 0.46172 0.0
C824 C 0.33017 0.86427 0.36902 0.0
C825 C 0.34505 0.87109 0.37969 0.0
C826 C 0.35164 0.86921 0.43233 0.0
C827 C 0.34368 0.86054 0.47283 0.0
H828 H 0.37715 0.07024 0.6796 0.0
H829 H 0.37928 0.11204 0.78138 0.0
H830 H 0.36565 0.08586 0.60543 0.0
H831 H 0.36764 0.12759 0.70742 0.0
H832 H 0.36642 0.15293 0.54028 0.0
H833 H 0.37596 0.13714 0.61689 0.0
H834 H 0.34173 0.10083 0.57865 0.0
H835 H 0.33221 0.11662 0.50129 0.0
C836 C 0.37506 0.08273 0.68636 0.0
C837 C 0.37923 0.08989 0.73643 0.0
C838 C 0.36838 0.09167 0.6439 0.0
C839 C 0.36579 0.108 0.65035 0.0
C840 C 0.36968 0.11508 0.7008 0.0
C841 C 0.37627 0.10614 0.74334 0.0
C842 C 0.36086 0.1416 0.54818 0.0
C843 C 0.34855 0.13605 0.5145 0.0
C844 C 0.36628 0.13258 0.59242 0.0
C845 C 0.3596 0.11772 0.60406 0.0
C846 C 0.34723 0.11217 0.57053 0.0
C847 C 0.34172 0.12126 0.52637 0.0
H848 H 0.81543 0.85434 0.10896 0.0
H849 H 0.84633 0.87462 0.98645 0.0
H850 H 0.82901 0.86934 0.18008 0.0
H851 H 0.86018 0.88936 0.05785 0.0
H852 H 0.87304 0.92414 0.19482 0.0
H853 H 0.85799 0.91069 0.12321 0.0
H854 H 0.85399 0.86938 0.22673 0.0
H855 H 0.86869 0.88293 0.29862 0.0
C856 C 0.8251 0.86203 0.09712 0.0
C857 C 0.82979 0.86322 0.04191 0.0
C858 C 0.83298 0.87056 0.13804 0.0
C859 C 0.84581 0.88049 0.12494 0.0
C860 C 0.85027 0.88196 0.06951 0.0
C861 C 0.84236 0.87344 0.02852 0.0
C862 C 0.86891 0.9122 0.20238 0.0
C863 C 0.87208 0.90464 0.25259 0.0
C864 C 0.86034 0.90445 0.16114 0.0
C865 C 0.85473 0.88893 0.16905 0.0
C866 C 0.85788 0.88141 0.21939 0.0
C867 C 0.86642 0.88916 0.26059 0.0
H868 H 0.83622 0.12153 1.00166 0.0
H869 H 0.87216 0.1567 0.96934 0.0
H870 H 0.8456 0.10607 0.92329 0.0
H871 H 0.88159 0.14122 0.89184 0.0
H872 H 0.88445 0.11803 0.72376 0.0
H873 H 0.87357 0.1332 0.79999 0.0
H874 H 0.86858 0.09027 0.89452 0.0
H875 H 0.87927 0.07503 0.81794 0.0
C876 C 0.84611 0.12596 0.97793 0.0
C877 C 0.85342 0.14038 0.99186 0.0
C878 C 0.85154 0.11706 0.93316 0.0
C879 C 0.86433 0.12241 0.9011 0.0
C880 C 0.87157 0.13684 0.91505 0.0
C881 C 0.86621 0.14568 0.95983 0.0
C882 C 0.88097 0.11179 0.76067 0.0
C883 C 0.8828 0.09529 0.76468 0.0
C884 C 0.87481 0.12051 0.80456 0.0
C885 C 0.87027 0.11298 0.85358 0.0
C886 C 0.87182 0.09644 0.85723 0.0
C887 C 0.87804 0.08771 0.81338 0.0
H888 H 0.59642 0.08859 0.69017 0.0
H889 H 0.61841 0.11999 0.80738 0.0
H890 H 0.61267 0.09985 0.61727 0.0
H891 H 0.63436 0.13151 0.73434 0.0
H892 H 0.67062 0.14004 0.60012 0.0
H893 H 0.65577 0.12661 0.67208 0.0
H894 H 0.61515 0.12382 0.56499 0.0
H895 H 0.63014 0.13691 0.49256 0.0
C896 C 0.60473 0.09787 0.70047 0.0
C897 C 0.60606 0.10338 0.75473 0.0
C898 C 0.61399 0.10442 0.65851 0.0
C899 C 0.62482 0.11667 0.66968 0.0
C900 C 0.62633 0.12197 0.72418 0.0
C901 C 0.6171 0.11541 0.76613 0.0
C902 C 0.65855 0.13649 0.59176 0.0
C903 C 0.65158 0.13961 0.54049 0.0
C904 C 0.64998 0.12886 0.63323 0.0
C905 C 0.6342 0.12416 0.62463 0.0
C906 C 0.62732 0.12707 0.57299 0.0
C907 C 0.63591 0.13467 0.53146 0.0
H908 H 0.60899 0.84785 0.47795 0.0
H909 H 0.64371 0.88301 0.52342 0.0
H910 H 0.6007 0.86418 0.40119 0.0
H911 H 0.63543 0.89942 0.44565 0.0
H912 H 0.60085 0.93116 0.34325 0.0
H913 H 0.61205 0.9151 0.41684 0.0
H914 H 0.60999 0.8739 0.31236 0.0
H915 H 0.59863 0.88988 0.23901 0.0
C916 C 0.61494 0.85904 0.47143 0.0
C917 C 0.62701 0.86411 0.50704 0.0
C918 C 0.61024 0.86838 0.42703 0.0
C919 C 0.61742 0.8831 0.41703 0.0
C920 C 0.62957 0.88818 0.45242 0.0
C921 C 0.63437 0.87875 0.49682 0.0
C922 C 0.60289 0.9187 0.33578 0.0
C923 C 0.5987 0.9118 0.28527 0.0
C924 C 0.60941 0.90951 0.37793 0.0
C925 C 0.61183 0.89318 0.3707 0.0
C926 C 0.60807 0.88639 0.31962 0.0
C927 C 0.60162 0.89558 0.27743 0.0
H928 H 0.64831 0.6365 0.53479 0.0
H929 H 0.68602 0.64616 0.41989 0.0
H930 H 0.63396 0.62218 0.46376 0.0
H931 H 0.6719 0.63143 0.34926 0.0
H932 H 0.63348 0.62168 0.22054 0.0
H933 H 0.6492 0.63415 0.29211 0.0
H934 H 0.63325 0.5989 0.40809 0.0
H935 H 0.61713 0.58669 0.33669 0.0
C936 C 0.65365 0.6354 0.49457 0.0
C937 C 0.66829 0.64258 0.48305 0.0
C938 C 0.64544 0.62709 0.4538 0.0
C939 C 0.6517 0.62567 0.40048 0.0
C940 C 0.66655 0.6325 0.38947 0.0
C941 C 0.67472 0.64087 0.43016 0.0
C942 C 0.63339 0.61652 0.2612 0.0
C943 C 0.62397 0.6032 0.27281 0.0
C944 C 0.6425 0.62363 0.30231 0.0
C945 C 0.64252 0.61759 0.35614 0.0
C946 C 0.63335 0.60406 0.36742 0.0
C947 C 0.62418 0.59698 0.32632 0.0
H948 H 0.62743 0.39298 0.78637 0.0
H949 H 0.61397 0.42848 0.66777 0.0
H950 H 0.64189 0.37875 0.71533 0.0
H951 H 0.62877 0.41448 0.59705 0.0
H952 H 0.64055 0.3757 0.47223 0.0
H953 H 0.6272 0.39078 0.54359 0.0
H954 H 0.66478 0.37948 0.65706 0.0
H955 H 0.67794 0.36402 0.58594 0.0
C956 C 0.62769 0.39785 0.74527 0.0
C957 C 0.61947 0.41186 0.73281 0.0
C958 C 0.63607 0.38972 0.70451 0.0
C959 C 0.63649 0.3954 0.65024 0.0
C960 C 0.6285 0.40958 0.6381 0.0
C961 C 0.62009 0.41769 0.67882 0.0
C962 C 0.64601 0.37646 0.51233 0.0
C963 C 0.66032 0.36859 0.52329 0.0
C964 C 0.63839 0.38521 0.55327 0.0
C965 C 0.64488 0.38639 0.60627 0.0
C966 C 0.6593 0.37866 0.61702 0.0
C967 C 0.66691 0.36986 0.57608 0.0
H968 H 0.88321 0.38726 0.71979 0.0
H969 H 0.89282 0.42552 0.83254 0.0
H970 H 0.86916 0.37309 0.79197 0.0
H971 H 0.87843 0.41151 0.90438 0.0
H972 H 0.86842 0.3735 0.0348 0.0
H973 H 0.88123 0.38871 0.96244 0.0
H974 H 0.8456 0.37317 0.84735 0.0
H975 H 0.833 0.35763 0.91949 0.0
C976 C 0.88221 0.39273 0.75983 0.0
C977 C 0.88921 0.40752 0.77034 0.0
C978 C 0.87405 0.38463 0.80122 0.0
C979 C 0.87266 0.39111 0.85419 0.0
C980 C 0.87946 0.40603 0.86439 0.0
C981 C 0.88764 0.41412 0.82303 0.0
C982 C 0.86326 0.37337 0.99413 0.0
C983 C 0.8497 0.36428 0.983 0.0
C984 C 0.87057 0.38219 0.95262 0.0
C985 C 0.86449 0.38218 0.89887 0.0
C986 C 0.85077 0.37328 0.888 0.0
C987 C 0.84347 0.36444 0.92951 0.0
H988 H 0.88911 0.61823 0.27285 0.0
H989 H 0.8941 0.57763 0.16658 0.0
H990 H 0.87589 0.63259 0.19932 0.0
H991 H 0.88055 0.59187 0.09343 0.0
H992 H 0.87418 0.62932 0.9575 0.0
H993 H 0.88541 0.6135 0.03136 0.0
H994 H 0.85204 0.63396 0.14534 0.0
H995 H 0.84104 0.65006 0.07167 0.0
C996 C 0.88724 0.61229 0.23399 0.0
C997 C 0.89275 0.59678 0.22562 0.0
C998 C 0.87957 0.62051 0.19184 0.0
C999 C 0.87716 0.61342 0.14025 0.0
C1000 C 0.8824 0.59779 0.13229 0.0
C1001 C 0.8901 0.58958 0.17442 0.0
C1002 C 0.86914 0.63037 0.99821 0.0
C1003 C 0.85674 0.64104 0.00861 0.0
C1004 C 0.87554 0.62122 0.04061 0.0
C1005 C 0.8697 0.62248 0.09451 0.0
C1006 C 0.85702 0.63286 0.10457 0.0
C1007 C 0.85063 0.64203 0.06218 0.0
H1008 H 0.37083 0.36243 0.48232 0.0
H1009 H 0.33053 0.35704 0.58978 0.0
H1010 H 0.3854 0.37544 0.55598 0.0
H1011 H 0.34497 0.37033 0.663 0.0
H1012 H 0.38223 0.37732 0.79834 0.0
H1013 H 0.36685 0.36554 0.72432 0.0
H1014 H 0.38655 0.39937 0.61029 0.0
H1015 H 0.40219 0.41095 0.68411 0.0
C1016 C 0.36503 0.36413 0.52149 0.0
C1017 C 0.34952 0.35862 0.53011 0.0
C1018 C 0.37336 0.37168 0.5637 0.0
C1019 C 0.36639 0.37392 0.6156 0.0
C1020 C 0.3508 0.3686 0.62389 0.0
C1021 C 0.34248 0.36105 0.58172 0.0
C1022 C 0.38323 0.38231 0.75756 0.0
C1023 C 0.3935 0.39507 0.74724 0.0
C1024 C 0.37433 0.37559 0.71508 0.0
C1025 C 0.37546 0.38146 0.66117 0.0
C1026 C 0.38555 0.39439 0.65108 0.0
C1027 C 0.39445 0.4011 0.69356 0.0
H1028 H 0.34377 0.63797 0.44575 0.0
H1029 H 0.37495 0.61643 0.56452 0.0
H1030 H 0.35532 0.62166 0.37363 0.0
H1031 H 0.38678 0.60043 0.49227 0.0
H1032 H 0.39663 0.56443 0.35873 0.0
H1033 H 0.38253 0.57898 0.42987 0.0
H1034 H 0.37946 0.61954 0.32248 0.0
H1035 H 0.39318 0.60484 0.25089 0.0
C1036 C 0.35305 0.62972 0.45657 0.0
C1037 C 0.35844 0.62856 0.511 0.0
C1038 C 0.35977 0.62043 0.41507 0.0
C1039 C 0.37208 0.60976 0.42687 0.0
C1040 C 0.37721 0.60836 0.4816 0.0
C1041 C 0.37046 0.61761 0.52311 0.0
C1042 C 0.39286 0.57642 0.35013 0.0
C1043 C 0.3961 0.58346 0.29905 0.0
C1044 C 0.38485 0.58481 0.39112 0.0
C1045 C 0.37989 0.6005 0.38221 0.0
C1046 C 0.38289 0.60743 0.33071 0.0
C1047 C 0.39086 0.59901 0.28966 0.0
H1048 H 0.17887 0.63966 0.0914 0.0
H1049 H 0.14867 0.61953 0.96667 0.0
H1050 H 0.16525 0.62415 0.1612 0.0
H1051 H 0.13475 0.60431 0.03669 0.0
H1052 H 0.12221 0.56833 0.16971 0.0
H1053 H 0.13712 0.58265 0.09985 0.0
H1054 H 0.14035 0.62306 0.20787 0.0
H1055 H 0.12581 0.6086 0.27813 0.0
C1056 C 0.16932 0.63192 0.0788 0.0
C1057 C 0.16487 0.63088 0.02333 0.0
C1058 C 0.16141 0.6231 0.11897 0.0
C1059 C 0.1488 0.61301 0.10482 0.0
C1060 C 0.14451 0.61179 0.04917 0.0
C1061 C 0.15246 0.62059 0.00895 0.0
C1062 C 0.12614 0.58026 0.17865 0.0
C1063 C 0.1228 0.58729 0.22965 0.0
C1064 C 0.13463 0.58852 0.13839 0.0
C1065 C 0.13998 0.60405 0.14802 0.0
C1066 C 0.13666 0.61104 0.19917 0.0
C1067 C 0.12822 0.60277 0.23944 0.0
H1068 H 0.10708 0.4133 0.8207 0.0
H1069 H 0.12832 0.38057 0.70623 0.0
H1070 H 0.1234 0.40251 0.89422 0.0
H1071 H 0.14433 0.36954 0.77986 0.0
H1072 H 0.18096 0.36195 0.91282 0.0
H1073 H 0.16603 0.37503 0.84041 0.0
H1074 H 0.12575 0.37886 0.94881 0.0
H1075 H 0.14084 0.36612 0.02168 0.0
C1076 C 0.11524 0.40382 0.81115 0.0
C1077 C 0.11635 0.3978 0.75749 0.0
C1078 C 0.12453 0.39756 0.85344 0.0
C1079 C 0.13517 0.3851 0.84316 0.0
C1080 C 0.13644 0.37926 0.78926 0.0
C1081 C 0.12717 0.38554 0.74699 0.0
C1082 C 0.16896 0.36567 0.92138 0.0
C1083 C 0.1621 0.36293 0.97309 0.0
C1084 C 0.16034 0.37309 0.87967 0.0
C1085 C 0.14463 0.37794 0.88851 0.0
C1086 C 0.13788 0.37547 0.94063 0.0
C1087 C 0.14651 0.36807 0.9824 0.0
H1088 H 0.20472 0.27881 0.08078 0.0
H1089 H 0.15933 0.29608 0.02638 0.0
H1090 H 0.19761 0.25227 0.05172 0.0
H1091 H 0.15211 0.26934 0.99717 0.0
H1092 H 0.14075 0.22226 0.10117 0.0
H1093 H 0.14654 0.24877 0.06809 0.0
H1094 H 0.1885 0.23125 0.98709 0.0
H1095 H 0.18243 0.20448 0.02019 0.0
C1096 C 0.19346 0.27702 0.06048 0.0
C1097 C 0.18245 0.28941 0.05691 0.0
C1098 C 0.1894 0.2618 0.04339 0.0
C1099 C 0.17417 0.25864 0.02305 0.0
C1100 C 0.16387 0.27141 0.01327 0.0
C1101 C 0.16803 0.28673 0.02979 0.0
C1102 C 0.15078 0.22398 0.07407 0.0
C1103 C 0.16117 0.21146 0.06315 0.0
C1104 C 0.15409 0.23916 0.05484 0.0
C1105 C 0.16808 0.24216 0.02536 0.0
C1106 C 0.17767 0.22928 0.00988 0.0
C1107 C 0.17418 0.21398 0.0285 0.0
H1108 H 0.95309 0.94746 0.40466 0.0
H1109 H 0.94417 0.90474 0.31271 0.0
H1110 H 0.97976 0.94844 0.36961 0.0
H1111 H 0.97127 0.90578 0.27612 0.0
H1112 H 0.02547 0.90077 0.33212 0.0
H1113 H 0.99687 0.90089 0.31852 0.0
H1114 H 0.9981 0.95166 0.29744 0.0
H1115 H 0.02652 0.95149 0.3146 0.0
C1116 C 0.95676 0.93845 0.37569 0.0
C1117 C 0.94664 0.92591 0.36203 0.0
C1118 C 0.97207 0.9391 0.35492 0.0
C1119 C 0.97778 0.92716 0.31992 0.0
C1120 C 0.96729 0.9151 0.30327 0.0
C1121 C 0.95177 0.91454 0.32391 0.0
C1122 C 0.01967 0.91184 0.32214 0.0
C1123 C 0.02806 0.92614 0.32493 0.0
C1124 C 0.00326 0.91194 0.31433 0.0
C1125 C 0.99509 0.92636 0.30855 0.0
C1126 C 0.00395 0.9404 0.30349 0.0
C1127 C 0.02025 0.94032 0.31268 0.0
H1128 H 0.34431 0.78641 0.53565 0.0
H1129 H 0.30003 0.76376 0.57577 0.0
H1130 H 0.35606 0.76051 0.51676 0.0
H1131 H 0.31161 0.73805 0.55676 0.0
H1132 H 0.33386 0.69255 0.54615 0.0
H1133 H 0.32589 0.71741 0.50226 0.0
H1134 H 0.36156 0.74232 0.59529 0.0
H1135 H 0.36926 0.7177 0.63908 0.0
C1136 C 0.33689 0.77598 0.53785 0.0
C1137 C 0.32137 0.777 0.55817 0.0
C1138 C 0.34363 0.76115 0.52726 0.0
C1139 C 0.33485 0.74722 0.5362 0.0
C1140 C 0.31871 0.74851 0.54926 0.0
C1141 C 0.31207 0.76326 0.56056 0.0
C1142 C 0.34043 0.70325 0.55514 0.0
C1143 C 0.35201 0.70333 0.59642 0.0
C1144 C 0.33584 0.71748 0.53024 0.0
C1145 C 0.34295 0.73186 0.54582 0.0
C1146 C 0.35589 0.73148 0.58199 0.0
C1147 C 0.36026 0.71738 0.60743 0.0
H1148 H 0.46429 0.05004 0.867 0.0
H1149 H 0.44699 0.09483 0.80682 0.0
H1150 H 0.4911 0.05754 0.84213 0.0
H1151 H 0.47401 0.10245 0.78199 0.0
H1152 H 0.52047 0.11477 0.88869 0.0
H1153 H 0.49415 0.10862 0.85451 0.0
H1154 H 0.51235 0.06641 0.7771 0.0
H1155 H 0.53891 0.07283 0.81116 0.0
C1156 C 0.46617 0.06128 0.84662 0.0
C1157 C 0.45362 0.07197 0.8398 0.0
C1158 C 0.48154 0.06554 0.83188 0.0
C1159 C 0.48471 0.08069 0.81071 0.0
C1160 C 0.47192 0.09075 0.7986 0.0
C1161 C 0.45645 0.08637 0.81267 0.0
C1162 C 0.51896 0.10461 0.86203 0.0
C1163 C 0.5316 0.09425 0.85247 0.0
C1164 C 0.50389 0.10109 0.84224 0.0
C1165 C 0.50113 0.08692 0.81359 0.0
C1166 C 0.51414 0.07737 0.79928 0.0
C1167 C 0.52933 0.08107 0.8184 0.0
H1168 H 0.12874 0.7683 0.87 0.0
H1169 H 0.1677 0.78948 0.95743 0.0
H1170 H 0.13594 0.74244 0.90553 0.0
H1171 H 0.1752 0.76337 0.99282 0.0
H1172 H 0.15207 0.69626 0.95212 0.0
H1173 H 0.14228 0.72245 0.97879 0.0
H1174 H 0.18667 0.74319 0.92814 0.0
H1175 H 0.19625 0.71723 0.90121 0.0
C1176 C 0.13845 0.76746 0.89886 0.0
C1177 C 0.14777 0.78077 0.91066 0.0
C1178 C 0.14255 0.75265 0.91955 0.0
C1179 C 0.15627 0.75082 0.95146 0.0
C1180 C 0.1646 0.76443 0.9681 0.0
C1181 C 0.1603 0.77937 0.94809 0.0
C1182 C 0.15993 0.70635 0.94901 0.0
C1183 C 0.17479 0.70484 0.92378 0.0
C1184 C 0.15433 0.72133 0.96412 0.0
C1185 C 0.16363 0.7349 0.95492 0.0
C1186 C 0.17923 0.733 0.93612 0.0
C1187 C 0.18469 0.71813 0.92023 0.0
H1188 H 0.44251 0.89705 0.18952 0.0
H1189 H 0.44742 0.94062 0.09885 0.0
H1190 H 0.46909 0.901 0.22872 0.0
H1191 H 0.47348 0.94458 0.13699 0.0
H1192 H 0.51847 0.95339 0.19915 0.0
H1193 H 0.49019 0.94965 0.21433 0.0
H1194 H 0.49565 0.89949 0.18578 0.0
H1195 H 0.52409 0.90326 0.17374 0.0
C1196 C 0.44909 0.90765 0.17924 0.0
C1197 C 0.44307 0.91846 0.1408 0.0
C1198 C 0.46428 0.90989 0.2014 0.0
C1199 C 0.47344 0.92312 0.18615 0.0
C1200 C 0.46677 0.9344 0.15063 0.0
C1201 C 0.45184 0.93205 0.12814 0.0
C1202 C 0.5137 0.94149 0.1991 0.0
C1203 C 0.52333 0.92862 0.18503 0.0
C1204 C 0.4975 0.93933 0.20726 0.0
C1205 C 0.49058 0.92435 0.19945 0.0
C1206 C 0.50056 0.91119 0.19209 0.0
C1207 C 0.51688 0.91332 0.18516 0.0
H1208 H 0.29775 0.21335 0.37201 0.0
H1209 H 0.34018 0.20154 0.46143 0.0
H1210 H 0.29889 0.24009 0.40663 0.0
H1211 H 0.34139 0.22873 0.49711 0.0
H1212 H 0.30004 0.28708 0.45629 0.0
H1213 H 0.29789 0.25905 0.47917 0.0
H1214 H 0.34796 0.25341 0.44904 0.0
H1215 H 0.3501 0.28162 0.42919 0.0
C1216 C 0.30713 0.21643 0.40039 0.0
C1217 C 0.31899 0.20548 0.41343 0.0
C1218 C 0.30771 0.23176 0.4209 0.0
C1219 C 0.32028 0.23665 0.45471 0.0
C1220 C 0.3316 0.22536 0.47095 0.0
C1221 C 0.33089 0.20981 0.45077 0.0
C1222 C 0.3107 0.27998 0.45774 0.0
C1223 C 0.32521 0.28637 0.44097 0.0
C1224 C 0.30948 0.26391 0.47024 0.0
C1225 C 0.32265 0.25388 0.46415 0.0
C1226 C 0.33757 0.26074 0.45419 0.0
C1227 C 0.33883 0.27693 0.44279 0.0
H1228 H 0.96003 0.04625 0.6082 0.0
H1229 H 0.95306 0.09032 0.69436 0.0
H1230 H 0.98749 0.04606 0.63479 0.0
H1231 H 0.98089 0.09001 0.7228 0.0
H1232 H 0.03239 0.09621 0.64627 0.0
H1233 H 0.00451 0.09507 0.67139 0.0
H1234 H 0.00855 0.04458 0.69659 0.0
H1235 H 0.03618 0.04577 0.66772 0.0
C1236 C 0.96431 0.0557 0.63436 0.0
C1237 C 0.95449 0.06845 0.6483 0.0
C1238 C 0.98011 0.05552 0.6503 0.0
C1239 C 0.98657 0.06812 0.68067 0.0
C1240 C 0.97637 0.08023 0.69877 0.0
C1241 C 0.96041 0.08036 0.68286 0.0
C1242 C 0.02742 0.08501 0.65945 0.0
C1243 C 0.03626 0.07106 0.65476 0.0
C1244 C 0.01142 0.08432 0.67399 0.0
C1245 C 0.00411 0.06964 0.68453 0.0
C1246 C 0.01366 0.05601 0.68706 0.0
C1247 C 0.02952 0.05667 0.67117 0.0
H1248 H 0.83137 0.70534 0.97448 0.0
H1249 H 0.86921 0.72994 0.8919 0.0
H1250 H 0.82301 0.73024 0.01723 0.0
H1251 H 0.86114 0.75459 0.93449 0.0
H1252 H 0.84292 0.79894 0.98201 0.0
H1253 H 0.85377 0.77325 0.00892 0.0
H1254 H 0.81028 0.75065 0.95856 0.0
H1255 H 0.79961 0.77613 0.93177 0.0
C1256 C 0.83838 0.71591 0.96781 0.0
C1257 C 0.85076 0.71588 0.92944 0.0
C1258 C 0.83357 0.73016 0.99204 0.0
C1259 C 0.84124 0.74444 0.97855 0.0
C1260 C 0.85499 0.74385 0.9461 0.0
C1261 C 0.85959 0.72973 0.92132 0.0
C1262 C 0.83544 0.78856 0.97927 0.0
C1263 C 0.82058 0.7894 0.95367 0.0
C1264 C 0.84166 0.77384 0.9945 0.0
C1265 C 0.83302 0.75987 0.98478 0.0
C1266 C 0.81728 0.76112 0.96672 0.0
C1267 C 0.81117 0.77575 0.9509 0.0
H1268 H 0.64893 0.21733 0.43766 0.0
H1269 H 0.69897 0.21352 0.46815 0.0
H1270 H 0.65013 0.2457 0.45533 0.0
H1271 H 0.70016 0.24173 0.48912 0.0
H1272 H 0.69986 0.28684 0.37953 0.0
H1273 H 0.69923 0.26031 0.41611 0.0
H1274 H 0.65553 0.27086 0.50087 0.0
H1275 H 0.65621 0.29782 0.463 0.0
C1276 C 0.65998 0.22244 0.45156 0.0
C1277 C 0.67388 0.21339 0.45126 0.0
C1278 C 0.66071 0.23872 0.46171 0.0
C1279 C 0.67536 0.24609 0.47204 0.0
C1280 C 0.68878 0.23649 0.47976 0.0
C1281 C 0.6881 0.22031 0.4684 0.0
C1282 C 0.69031 0.28365 0.40707 0.0
C1283 C 0.67797 0.29428 0.41778 0.0
C1284 C 0.69002 0.26843 0.42873 0.0
C1285 C 0.67728 0.26335 0.46147 0.0
C1286 C 0.66545 0.27437 0.47552 0.0
C1287 C 0.66586 0.2898 0.45412 0.0
H1288 H 0.85888 0.28189 0.10797 0.0
H1289 H 0.81231 0.2939 0.04975 0.0
H1290 H 0.85494 0.25456 0.07936 0.0
H1291 H 0.80825 0.26648 0.0203 0.0
H1292 H 0.80014 0.2183 0.1174 0.0
H1293 H 0.80406 0.24543 0.08801 0.0
H1294 H 0.84888 0.23254 0.01538 0.0
H1295 H 0.84482 0.20511 0.04506 0.0
C1296 C 0.84812 0.27879 0.08628 0.0
C1297 C 0.83592 0.28988 0.08072 0.0
C1298 C 0.84583 0.26314 0.06976 0.0
C1299 C 0.83117 0.25828 0.04821 0.0
C1300 C 0.81961 0.26984 0.03724 0.0
C1301 C 0.82195 0.28554 0.05363 0.0
C1302 C 0.81055 0.22113 0.09336 0.0
C1303 C 0.82227 0.2097 0.08415 0.0
C1304 C 0.81277 0.2367 0.07608 0.0
C1305 C 0.82689 0.24122 0.04986 0.0
C1306 C 0.83794 0.22943 0.03588 0.0
C1307 C 0.83559 0.21372 0.05258 0.0
H1308 H 0.6548 0.70882 0.54319 0.0
H1309 H 0.69869 0.73152 0.58774 0.0
H1310 H 0.64379 0.73453 0.51724 0.0
H1311 H 0.68785 0.75703 0.56183 0.0
H1312 H 0.66659 0.80253 0.54089 0.0
H1313 H 0.6748 0.77708 0.50191 0.0
H1314 H 0.63722 0.75382 0.59113 0.0
H1315 H 0.62927 0.77903 0.63 0.0
C1316 C 0.66234 0.71918 0.54494 0.0
C1317 C 0.67747 0.71829 0.56853 0.0
C1318 C 0.65602 0.73391 0.53029 0.0
C1319 C 0.66483 0.74785 0.53846 0.0
C1320 C 0.68072 0.74656 0.55484 0.0
C1321 C 0.68693 0.73193 0.57012 0.0
C1322 C 0.65968 0.79206 0.54997 0.0
C1323 C 0.64747 0.79262 0.58897 0.0
C1324 C 0.6644 0.77749 0.52789 0.0
C1325 C 0.65681 0.7634 0.54404 0.0
C1326 C 0.64329 0.7644 0.57748 0.0
C1327 C 0.63877 0.77885 0.60013 0.0
H1328 H 0.53462 0.44852 0.85293 0.0
H1329 H 0.55203 0.40319 0.79836 0.0
H1330 H 0.50805 0.44124 0.8249 0.0
H1331 H 0.5252 0.39575 0.7703 0.0
H1332 H 0.4605 0.42652 0.79646 0.0
H1333 H 0.48704 0.43212 0.76059 0.0
H1334 H 0.50466 0.39018 0.8414 0.0
H1335 H 0.47835 0.38483 0.87714 0.0
C1336 C 0.53282 0.43721 0.83291 0.0
C1337 C 0.54527 0.42629 0.82875 0.0
C1338 C 0.51759 0.43306 0.81634 0.0
C1339 C 0.51446 0.4178 0.7961 0.0
C1340 C 0.52726 0.40754 0.78619 0.0
C1341 C 0.54261 0.41181 0.80209 0.0
C1342 C 0.46993 0.41813 0.804 0.0
C1343 C 0.46753 0.4053 0.83952 0.0
C1344 C 0.48512 0.42135 0.7838 0.0
C1345 C 0.49799 0.41171 0.79874 0.0
C1346 C 0.49504 0.39779 0.82866 0.0
C1347 C 0.47997 0.39472 0.84938 0.0
H1348 H 0.96568 0.55048 0.29355 0.0
H1349 H 0.971 0.60015 0.32849 0.0
H1350 H 0.99371 0.54877 0.27023 0.0
H1351 H -0.0008 0.59841 0.30852 0.0
H1352 H 0.05113 0.59111 0.29581 0.0
H1353 H 0.02391 0.59285 0.26074 0.0
H1354 H 0.0128 0.54862 0.3414 0.0
H1355 H 0.03956 0.54693 0.3751 0.0
C1356 C 0.97276 0.56117 0.29381 0.0
C1357 C 0.96632 0.57542 0.31279 0.0
C1358 C 0.98884 0.5602 0.28112 0.0
C1359 C -0.00117 0.57333 0.28936 0.0
C1360 C 0.99192 0.58806 0.30169 0.0
C1361 C 0.97573 0.58909 0.31317 0.0
C1362 C 0.0429 0.5816 0.30446 0.0
C1363 C 0.04732 0.56902 0.33884 0.0
C1364 C 0.02733 0.5826 0.28463 0.0
C1365 C 0.01609 0.57091 0.29829 0.0
C1366 C 0.02106 0.55776 0.3291 0.0
C1367 C 0.03642 0.55686 0.34918 0.0
H1368 H 0.95765 0.40163 0.70434 0.0
H1369 H 0.97316 0.44755 0.64854 0.0
H1370 H 0.9849 0.39507 0.72956 0.0
H1371 H 0.00019 0.44112 0.67383 0.0
H1372 H 0.04867 0.42725 0.70121 0.0
H1373 H 0.02199 0.43247 0.73679 0.0
H1374 H 0.00497 0.39034 0.65552 0.0
H1375 H 0.03138 0.38541 0.61985 0.0
C1376 C 0.96674 0.41058 0.69983 0.0
C1377 C 0.9634 0.42498 0.67356 0.0
C1378 C 0.98235 0.4068 0.71406 0.0
C1379 C 0.99473 0.41747 0.70288 0.0
C1380 C 0.99096 0.43264 0.68324 0.0
C1381 C 0.97546 0.43631 0.66833 0.0
C1382 C 0.03932 0.41878 0.69329 0.0
C1383 C 0.04193 0.40597 0.65786 0.0
C1384 C 0.02407 0.42178 0.71336 0.0
C1385 C 0.01134 0.41189 0.69861 0.0
C1386 C 0.01449 0.39811 0.66822 0.0
C1387 C 0.0296 0.39529 0.64751 0.0
H1388 H 0.46466 0.593 0.2326 0.0
H1389 H 0.48353 0.54718 0.19013 0.0
H1390 H 0.49135 0.60224 0.25477 0.0
H1391 H 0.51002 0.55628 0.21245 0.0
H1392 H 0.53626 0.61248 0.13783 0.0
H1393 H 0.51058 0.60653 0.17768 0.0
H1394 H 0.53138 0.56836 0.27081 0.0
H1395 H 0.55733 0.57463 0.23103 0.0
C1396 C 0.47439 0.58468 0.23056 0.0
C1397 C 0.47212 0.56948 0.20865 0.0
C1398 C 0.48967 0.58999 0.24303 0.0
C1399 C 0.50282 0.58008 0.23445 0.0
C1400 C 0.50019 0.56422 0.21971 0.0
C1401 C 0.48499 0.55901 0.20653 0.0
C1402 C 0.53546 0.60331 0.16881 0.0
C1403 C 0.54865 0.59396 0.18129 0.0
C1404 C 0.52075 0.59993 0.19194 0.0
C1405 C 0.5189 0.58685 0.22704 0.0
C1406 C 0.53246 0.57847 0.24376 0.0
C1407 C 0.5473 0.58209 0.22126 0.0
H1408 H 0.11891 0.13475 0.19753 0.0
H1409 H 0.11846 0.17625 0.3012 0.0
H1410 H 0.10186 0.12108 0.26318 0.0
H1411 H 0.10146 0.16259 0.36639 0.0
H1412 H 0.09891 0.12232 0.49933 0.0
H1413 H 0.10871 0.14016 0.42844 0.0
H1414 H 0.07565 0.12022 0.31241 0.0
H1415 H 0.0658 0.10235 0.38313 0.0
C1416 C 0.11482 0.1411 0.23342 0.0
C1417 C 0.12028 0.15646 0.24463 0.0
C1418 C 0.10504 0.13328 0.27102 0.0
C1419 C 0.10058 0.14071 0.32033 0.0
C1420 C 0.10497 0.1565 0.32922 0.0
C1421 C 0.11467 0.16431 0.2917 0.0
C1422 C 0.09351 0.12194 0.45906 0.0
C1423 C 0.08169 0.11081 0.44682 0.0
C1424 C 0.09907 0.13221 0.41847 0.0
C1425 C 0.09299 0.13148 0.3648 0.0
C1426 C 0.08064 0.12091 0.35327 0.0
C1427 C 0.07497 0.11074 0.39395 0.0
H1428 H 0.06056 0.89899 0.59301 0.0
H1429 H 0.08957 0.87406 0.4752 0.0
H1430 H 0.06906 0.8808 0.66474 0.0
H1431 H 0.09802 0.85588 0.54716 0.0
H1432 H 0.1037 0.81957 0.67706 0.0
H1433 H 0.0882 0.83502 0.6123 0.0
H1434 H 0.0955 0.87681 0.71101 0.0
H1435 H 0.11108 0.86135 0.77619 0.0
C1436 C 0.06855 0.88948 0.58214 0.0
C1437 C 0.07449 0.88804 0.52837 0.0
C1438 C 0.07345 0.87913 0.62338 0.0
C1439 C 0.08422 0.86699 0.61159 0.0
C1440 C 0.08957 0.86505 0.55732 0.0
C1441 C 0.08479 0.8755 0.51614 0.0
C1442 C 0.10173 0.83199 0.68572 0.0
C1443 C 0.10886 0.83931 0.7313 0.0
C1444 C 0.0929 0.84082 0.64842 0.0
C1445 C 0.09091 0.85714 0.6561 0.0
C1446 C 0.09685 0.86422 0.70412 0.0
C1447 C 0.10576 0.85537 0.74148 0.0
H1448 H 0.36993 0.86742 0.01316 0.0
H1449 H 0.40933 0.87154 0.90089 0.0
H1450 H 0.35628 0.85042 0.94772 0.0
H1451 H 0.39573 0.85442 0.83588 0.0
H1452 H 0.35473 0.84851 0.70944 0.0
H1453 H 0.37224 0.85975 0.77861 0.0
H1454 H 0.35592 0.8252 0.89636 0.0
H1455 H 0.33826 0.81403 0.82747 0.0
C1456 C 0.37587 0.86437 0.97523 0.0
C1457 C 0.3906 0.87105 0.9619 0.0
C1458 C 0.36805 0.85459 0.93773 0.0
C1459 C 0.37484 0.85132 0.88626 0.0
C1460 C 0.39009 0.85701 0.87476 0.0
C1461 C 0.3979 0.86674 0.91222 0.0
C1462 C 0.355 0.84319 0.74986 0.0
C1463 C 0.34499 0.83047 0.763 0.0
C1464 C 0.36512 0.84956 0.78942 0.0
C1465 C 0.36542 0.84336 0.84298 0.0
C1466 C 0.35582 0.83031 0.85561 0.0
C1467 C 0.34574 0.8239 0.81601 0.0
H1468 H 0.38447 0.11505 0.98507 0.0
H1469 H 0.41676 0.09588 0.10542 0.0
H1470 H 0.37337 0.13248 0.05473 0.0
H1471 H 0.40571 0.11343 0.17486 0.0
H1472 H 0.36264 0.12784 0.28764 0.0
H1473 H 0.37986 0.11421 0.22266 0.0
H1474 H 0.37888 0.15501 0.11603 0.0
H1475 H 0.36158 0.16858 0.18046 0.0
C1476 C 0.38939 0.11474 0.02608 0.0
C1477 C 0.40139 0.10396 0.03973 0.0
C1478 C 0.38309 0.12479 0.06598 0.0
C1479 C 0.38862 0.12425 0.12038 0.0
C1480 C 0.40109 0.11397 0.13346 0.0
C1481 C 0.40745 0.10398 0.09353 0.0
C1482 C 0.3664 0.13404 0.25098 0.0
C1483 C 0.36053 0.14918 0.23882 0.0
C1484 C 0.37629 0.12624 0.21377 0.0
C1485 C 0.3805 0.13347 0.16382 0.0
C1486 C 0.37557 0.14904 0.15366 0.0
C1487 C 0.36572 0.15682 0.19077 0.0
H1488 H 0.87479 0.87534 0.49343 0.0
H1489 H 0.9126 0.88461 0.60847 0.0
H1490 H 0.86209 0.85814 0.56074 0.0
H1491 H 0.89992 0.86738 0.67537 0.0
H1492 H 0.85762 0.86 0.79741 0.0
H1493 H 0.87515 0.87155 0.72877 0.0
H1494 H 0.86399 0.83353 0.61691 0.0
H1495 H 0.8464 0.82197 0.68529 0.0
C1496 C 0.88059 0.87341 0.53246 0.0
C1497 C 0.89457 0.88155 0.54585 0.0
C1498 C 0.87334 0.86353 0.57101 0.0
C1499 C 0.87991 0.86163 0.62361 0.0
C1500 C 0.89445 0.86886 0.63551 0.0
C1501 C 0.90173 0.87867 0.59699 0.0
C1502 C 0.85909 0.85396 0.75855 0.0
C1503 C 0.85049 0.84016 0.7467 0.0
C1504 C 0.8692 0.86053 0.71931 0.0
C1505 C 0.87086 0.85347 0.66736 0.0
C1506 C 0.8628 0.8393 0.65638 0.0
C1507 C 0.85278 0.83267 0.69571 0.0
H1508 H 0.86973 0.13734 0.21557 0.0
H1509 H 0.86342 0.17727 0.32424 0.0
H1510 H 0.88736 0.12514 0.28235 0.0
H1511 H 0.88111 0.16508 0.39071 0.0
H1512 H 0.88707 0.12333 0.51796 0.0
H1513 H 0.87656 0.1415 0.44944 0.0
H1514 H 0.91249 0.12655 0.3346 0.0
H1515 H 0.92297 0.10831 0.40278 0.0
C1516 C 0.87242 0.14371 0.25298 0.0
C1517 C 0.86495 0.15814 0.26493 0.0
C1518 C 0.88257 0.13675 0.29123 0.0
C1519 C 0.88542 0.14408 0.34211 0.0
C1520 C 0.87891 0.15905 0.35223 0.0
C1521 C 0.86882 0.16604 0.31396 0.0
C1522 C 0.89296 0.12418 0.47859 0.0
C1523 C 0.90568 0.11418 0.46558 0.0
C1524 C 0.88698 0.13465 0.43935 0.0
C1525 C 0.8936 0.13529 0.3864 0.0
C1526 C 0.90701 0.12612 0.37476 0.0
C1527 C 0.91302 0.11571 0.41398 0.0
H1528 H 0.6232 0.1513 0.29557 0.0
H1529 H 0.64408 0.18422 0.18055 0.0
H1530 H 0.60474 0.14262 0.22486 0.0
H1531 H 0.6256 0.17551 0.11009 0.0
H1532 H 0.60867 0.13382 0.99287 0.0
H1533 H 0.6234 0.14965 0.05925 0.0
H1534 H 0.58234 0.15136 0.1645 0.0
H1535 H 0.5676 0.13558 0.09851 0.0
C1536 C 0.62367 0.15689 0.2556 0.0
C1537 C 0.63521 0.16833 0.24362 0.0
C1538 C 0.61305 0.15198 0.21516 0.0
C1539 C 0.61382 0.15835 0.1619 0.0
C1540 C 0.62486 0.1703 0.15063 0.0
C1541 C 0.63539 0.17531 0.19115 0.0
C1542 C 0.60265 0.13794 0.02941 0.0
C1543 C 0.58706 0.1332 0.04083 0.0
C1544 C 0.61108 0.14702 0.06743 0.0
C1545 C 0.60406 0.15148 0.11743 0.0
C1546 C 0.58811 0.14783 0.12674 0.0
C1547 C 0.57967 0.13884 0.08875 0.0
H1548 H 0.60679 0.83178 0.83589 0.0
H1549 H 0.61229 0.8727 0.7311 0.0
H1550 H 0.59176 0.84758 0.90098 0.0
H1551 H 0.59722 0.88853 0.79671 0.0
H1552 H 0.56131 0.91014 0.91454 0.0
H1553 H 0.57105 0.89226 0.84379 0.0
H1554 H 0.60086 0.86923 0.96337 0.0
H1555 H 0.59111 0.88708 0.03442 0.0
C1556 C 0.60455 0.84409 0.82619 0.0
C1557 C 0.61094 0.85106 0.77864 0.0
C1558 C 0.59601 0.85314 0.86372 0.0
C1559 C 0.59359 0.86932 0.8544 0.0
C1560 C 0.59891 0.87605 0.80491 0.0
C1561 C 0.60754 0.86699 0.76732 0.0
C1562 C 0.56983 0.90117 0.92598 0.0
C1563 C 0.5755 0.90008 0.98018 0.0
C1564 C 0.57543 0.89098 0.88531 0.0
C1565 C 0.5867 0.87939 0.89804 0.0
C1566 C 0.59203 0.87796 0.9525 0.0
C1567 C 0.58652 0.88824 0.99315 0.0
H1568 H 0.58478 0.63007 0.92242 0.0
H1569 H 0.62463 0.63229 0.03335 0.0
H1570 H 0.59927 0.64587 0.85581 0.0
H1571 H 0.63913 0.64817 0.96624 0.0
H1572 H 0.657 0.6848 0.84363 0.0
H1573 H 0.63949 0.67397 0.91373 0.0
H1574 H 0.62304 0.63873 0.79886 0.0
H1575 H 0.64055 0.64951 0.72851 0.0
C1576 C 0.59653 0.63415 0.93308 0.0
C1577 C 0.60365 0.62973 0.98297 0.0
C1578 C 0.60484 0.64314 0.8947 0.0
C1579 C 0.62038 0.64802 0.90552 0.0
C1580 C 0.62712 0.64457 0.9569 0.0
C1581 C 0.61883 0.63548 0.99531 0.0
C1582 C 0.64952 0.67485 0.83301 0.0
C1583 C 0.65023 0.66795 0.78049 0.0
C1584 C 0.63956 0.66863 0.87332 0.0
C1585 C 0.62996 0.65551 0.86178 0.0
C1586 C 0.63022 0.64896 0.80872 0.0
C1587 C 0.64029 0.65508 0.76852 0.0
H1588 H 0.63935 0.32973 0.16699 0.0
H1589 H 0.63224 0.36804 0.28191 0.0
H1590 H 0.62235 0.34301 0.10089 0.0
H1591 H 0.61534 0.38137 0.2154 0.0
H1592 H 0.57927 0.39858 0.09402 0.0
H1593 H 0.5905 0.3806 0.16168 0.0
H1594 H 0.62686 0.36724 0.04612 0.0
H1595 H 0.61559 0.3851 0.97813 0.0
C1596 C 0.63395 0.34085 0.17858 0.0
C1597 C 0.63734 0.34794 0.22949 0.0
C1598 C 0.62428 0.34849 0.14053 0.0
C1599 C 0.61771 0.36332 0.15264 0.0
C1600 C 0.62018 0.3699 0.20496 0.0
C1601 C 0.62991 0.36228 0.24305 0.0
C1602 C 0.58953 0.39164 0.08266 0.0
C1603 C 0.59664 0.3934 0.03079 0.0
C1604 C 0.59597 0.38139 0.12159 0.0
C1605 C 0.60961 0.37261 0.10938 0.0
C1606 C 0.61625 0.37375 0.05659 0.0
C1607 C 0.60984 0.38405 0.0177 0.0
H1608 H 0.93164 0.39416 0.41145 0.0
H1609 H 0.89582 0.37884 0.52653 0.0
H1610 H 0.92115 0.37597 0.34297 0.0
H1611 H 0.8853 0.36075 0.45779 0.0
H1612 H 0.87355 0.3238 0.33491 0.0
H1613 H 0.8906 0.337 0.4011 0.0
H1614 H 0.89606 0.3764 0.28984 0.0
H1615 H 0.87908 0.36317 0.22322 0.0
C1616 C 0.92169 0.38674 0.42251 0.0
C1617 C 0.91444 0.38808 0.47431 0.0
C1618 C 0.91566 0.37637 0.38312 0.0
C1619 C 0.90234 0.36705 0.39484 0.0
C1620 C 0.89567 0.3677 0.44769 0.0
C1621 C 0.90165 0.37813 0.48702 0.0
C1622 C 0.87863 0.33514 0.324 0.0
C1623 C 0.87475 0.34256 0.27409 0.0
C1624 C 0.88834 0.34271 0.36209 0.0
C1625 C 0.89445 0.35781 0.351 0.0
C1626 C 0.89157 0.36472 0.29945 0.0
C1627 C 0.8818 0.35716 0.26131 0.0
H1628 H 0.88954 0.64158 0.77318 0.0
H1629 H 0.88949 0.68258 0.66703 0.0
H1630 H 0.9051 0.62715 0.7053 0.0
H1631 H 0.905 0.66813 0.59951 0.0
H1632 H 0.9048 0.6268 0.46947 0.0
H1633 H 0.89635 0.64535 0.5403 0.0
H1634 H 0.93067 0.62569 0.6523 0.0
H1635 H 0.93917 0.60713 0.58174 0.0
C1636 C 0.89319 0.64765 0.73612 0.0
C1637 C 0.88804 0.66313 0.72515 0.0
C1638 C 0.90212 0.6394 0.69727 0.0
C1639 C 0.90603 0.64648 0.64682 0.0
C1640 C 0.90192 0.66233 0.63768 0.0
C1641 C 0.89308 0.67059 0.67654 0.0
C1642 C 0.91076 0.62663 0.5088 0.0
C1643 C 0.92252 0.61538 0.52009 0.0
C1644 C 0.90598 0.6373 0.5493 0.0
C1645 C 0.91281 0.63685 0.6019 0.0
C1646 C 0.92511 0.62616 0.61229 0.0
C1647 C 0.92999 0.61559 0.57172 0.0
H1648 H 0.38336 0.33249 0.28925 0.0
H1649 H 0.34845 0.32911 0.16076 0.0
H1650 H 0.4031 0.34077 0.22212 0.0
H1651 H 0.36744 0.33876 0.09464 0.0
H1652 H 0.40282 0.35573 0.97638 0.0
H1653 H 0.38885 0.33808 0.03921 0.0
H1654 H 0.40962 0.36297 0.17691 0.0
H1655 H 0.42437 0.37933 0.11458 0.0
C1656 C 0.37996 0.33353 0.24656 0.0
C1657 C 0.36442 0.3303 0.23016 0.0
C1658 C 0.3912 0.33843 0.20797 0.0
C1659 C 0.38692 0.34084 0.15259 0.0
C1660 C 0.37144 0.33688 0.13626 0.0
C1661 C 0.36042 0.33146 0.17444 0.0
C1662 C 0.40461 0.35708 0.02014 0.0
C1663 C 0.41459 0.36896 0.04052 0.0
C1664 C 0.39649 0.34708 0.05636 0.0
C1665 C 0.39777 0.34916 0.11369 0.0
C1666 C 0.4084 0.36063 0.13349 0.0
C1667 C 0.41682 0.37022 0.09744 0.0
H1668 H 0.43859 0.59088 0.93623 0.0
H1669 H 0.40562 0.61087 0.05287 0.0
H1670 H 0.42906 0.60908 0.86612 0.0
H1671 H 0.39609 0.62901 0.98249 0.0
H1672 H 0.3891 0.66693 0.85755 0.0
H1673 H 0.40435 0.65175 0.92374 0.0
H1674 H 0.40346 0.61141 0.81507 0.0
H1675 H 0.38821 0.62661 0.74839 0.0
C1676 C 0.42944 0.59927 0.94716 0.0
C1677 C 0.42278 0.59935 1.00012 0.0
C1678 C 0.42396 0.60964 0.90685 0.0
C1679 C 0.41182 0.62041 0.91877 0.0
C1680 C 0.40559 0.62093 0.97227 0.0
C1681 C 0.41099 0.61049 0.01252 0.0
C1682 C 0.39239 0.65492 0.84718 0.0
C1683 C 0.38723 0.6479 0.79797 0.0
C1684 C 0.40107 0.64621 0.88531 0.0
C1685 C 0.40486 0.63034 0.87494 0.0
C1686 C 0.40073 0.62365 0.82409 0.0
C1687 C 0.39197 0.63235 0.78591 0.0
H1688 H 0.13188 0.64175 0.78282 0.0
H1689 H 0.16246 0.65545 0.64924 0.0
H1690 H 0.11411 0.62883 0.71799 0.0
H1691 H 0.14568 0.6415 0.58496 0.0
H1692 H 0.11066 0.62028 0.47028 0.0
H1693 H 0.12324 0.63848 0.53467 0.0
H1694 H 0.11231 0.60637 0.66793 0.0
H1695 H 0.09878 0.58913 0.60449 0.0
C1696 C 0.13479 0.64192 0.73953 0.0
C1697 C 0.14852 0.64953 0.721 0.0
C1698 C 0.12471 0.6344 0.70223 0.0
C1699 C 0.12846 0.63383 0.64581 0.0
C1700 C 0.14209 0.64184 0.62755 0.0
C1701 C 0.15185 0.64976 0.66459 0.0
C1702 C 0.11079 0.61734 0.51355 0.0
C1703 C 0.10376 0.60333 0.53239 0.0
C1704 C 0.11811 0.62768 0.55057 0.0
C1705 C 0.119 0.62396 0.60696 0.0
C1706 C 0.11165 0.61 0.62543 0.0
C1707 C 0.10397 0.59996 0.58878 0.0
H1708 H 0.15563 0.3175 0.33187 0.0
H1709 H 0.1337 0.34981 0.2173 0.0
H1710 H 0.13685 0.32554 0.4025 0.0
H1711 H 0.11502 0.35785 0.28806 0.0
H1712 H 0.07817 0.36494 0.41374 0.0
H1713 H 0.09297 0.34905 0.3482 0.0
H1714 H 0.1339 0.3509 0.45399 0.0
H1715 H 0.11908 0.36675 0.51997 0.0
C1716 C 0.14665 0.32613 0.32142 0.0
C1717 C 0.14626 0.33315 0.26905 0.0
C1718 C 0.13595 0.33075 0.36201 0.0
C1719 C 0.12454 0.34236 0.3509 0.0
C1720 C 0.12359 0.34874 0.2977 0.0
C1721 C 0.13436 0.34421 0.25721 0.0
C1722 C 0.09022 0.36167 0.42372 0.0
C1723 C 0.09756 0.36736 0.47161 0.0
C1724 C 0.09869 0.35261 0.386 0.0
C1725 C 0.11465 0.34901 0.39549 0.0
C1726 C 0.12158 0.35348 0.44561 0.0
C1727 C 0.1131 0.36259 0.48341 0.0
loop_
_geom_bond_atom_site_label_1
_geom_bond_atom_site_label_2
_geom_bond_distance
_geom_bond_site_symmetry_2
_ccdc_geom_bond_type
Zn0 O3 2.031 . S
Zn0 O5 2.049 . S
Zn0 O10 2.067 . S
Zn1 O2 1.962 . S
Zn1 O4 1.986 . S
Zn1 O6 1.996 . S
Zn1 O9 1.943 . S
O2 Zn1 1.962 . S
O2 C7 1.254 . S
O3 Zn0 2.031 . S
O3 C7 1.269 . S
O4 Zn1 1.986 . S
O4 C11 1.262 . S
O5 Zn0 2.049 . S
O5 C13 1.260 . S
O6 Zn1 1.996 . S
O6 C13 1.257 . S
C7 O2 1.254 . S
C7 O3 1.269 . S
C8 O9 1.249 . S
C8 O10 1.270 . S
O9 Zn1 1.943 . S
O9 C8 1.249 . S
O10 Zn0 2.067 . S
O10 C8 1.270 . S
C11 O4 1.262 . S
C11 O12 1.232 . S
O12 C11 1.232 . S
C13 O5 1.260 . S
C13 O6 1.257 . S
Zn14 O17 2.031 . S
Zn14 O19 2.049 . S
Zn14 O24 2.067 . S
Zn15 O16 1.962 . S
Zn15 O18 1.986 . S
Zn15 O20 1.996 . S
Zn15 O23 1.943 . S
O16 Zn15 1.962 . S
O16 C21 1.254 . S
O17 Zn14 2.031 . S
O17 C21 1.269 . S
O18 Zn15 1.986 . S
O18 C25 1.262 . S
O19 Zn14 2.049 . S
O19 C27 1.260 . S
O20 Zn15 1.996 . S
O20 C27 1.257 . S
C21 O16 1.254 . S
C21 O17 1.269 . S
C22 O23 1.249 . S
C22 O24 1.270 . S
O23 Zn15 1.943 . S
O23 C22 1.249 . S
O24 Zn14 2.067 . S
O24 C22 1.270 . S
C25 O18 1.262 . S
C25 O26 1.232 . S
O26 C25 1.232 . S
C27 O19 1.260 . S
C27 O20 1.257 . S
Zn28 O31 2.031 . S
Zn28 O33 2.049 . S
Zn28 O38 2.067 . S
Zn29 O30 1.962 . S
Zn29 O32 1.986 . S
Zn29 O34 1.996 . S
Zn29 O37 1.943 . S
O30 Zn29 1.962 . S
O30 C35 1.254 . S
O31 Zn28 2.031 . S
O31 C35 1.269 . S
O32 Zn29 1.986 . S
O32 C39 1.262 . S
O33 Zn28 2.049 . S
O33 C41 1.260 . S
O34 Zn29 1.996 . S
O34 C41 1.257 . S
C35 O30 1.254 . S
C35 O31 1.269 . S
C36 O37 1.249 . S
C36 O38 1.270 . S
O37 Zn29 1.943 . S
O37 C36 1.249 . S
O38 Zn28 2.067 . S
O38 C36 1.270 . S
C39 O32 1.262 . S
C39 O40 1.232 . S
O40 C39 1.232 . S
C41 O33 1.260 . S
C41 O34 1.257 . S
Zn42 O45 2.031 1_554 S
Zn42 O47 2.049 . S
Zn42 O52 2.067 1_554 S
Zn43 O44 1.962 . S
Zn43 O46 1.986 . S
Zn43 O48 1.996 . S
Zn43 O51 1.943 . S
O44 Zn43 1.962 . S
O44 C49 1.254 . S
O45 Zn42 2.031 1_556 S
O45 C49 1.269 . S
O46 Zn43 1.986 . S
O46 C53 1.262 . S
O47 Zn42 2.049 . S
O47 C55 1.245 1_554 S
O48 Zn43 1.996 . S
O48 C55 1.275 . S
C49 O44 1.254 . S
C49 O45 1.269 . S
C50 O51 1.249 . S
C50 O52 1.270 . S
O51 Zn43 1.943 . S
O51 C50 1.249 . S
O52 Zn42 2.067 1_556 S
O52 C50 1.270 . S
C53 O46 1.262 . S
C53 O54 1.232 . S
O54 C53 1.232 . S
C55 O47 1.245 1_556 S
C55 O48 1.275 . S
Zn56 O59 2.031 . S
Zn56 O61 2.049 . S
Zn56 O66 2.067 . S
Zn57 O58 1.962 . S
Zn57 O60 1.986 . S
Zn57 O62 1.996 . S
Zn57 O65 1.943 . S
O58 Zn57 1.962 . S
O58 C63 1.254 . S
O59 Zn56 2.031 . S
O59 C63 1.269 . S
O60 Zn57 1.986 . S
O60 C67 1.262 . S
O61 Zn56 2.049 . S
O61 C69 1.260 . S
O62 Zn57 1.996 . S
O62 C69 1.257 . S
C63 O58 1.254 . S
C63 O59 1.269 . S
C64 O65 1.249 . S
C64 O66 1.270 . S
O65 Zn57 1.943 . S
O65 C64 1.249 . S
O66 Zn56 2.067 . S
O66 C64 1.270 . S
C67 O60 1.262 . S
C67 O68 1.232 . S
O68 C67 1.232 . S
C69 O61 1.260 . S
C69 O62 1.257 . S
Zn70 O73 2.031 1_556 S
Zn70 O75 2.049 . S
Zn70 O80 2.067 1_556 S
Zn71 O72 1.962 . S
Zn71 O74 1.986 . S
Zn71 O76 1.996 . S
Zn71 O79 1.943 . S
O72 Zn71 1.962 . S
O72 C77 1.254 . S
O73 Zn70 2.031 1_554 S
O73 C77 1.269 . S
O74 Zn71 1.986 . S
O74 C81 1.262 . S
O75 Zn70 2.049 . S
O75 C83 1.245 1_556 S
O76 Zn71 1.996 . S
O76 C83 1.275 . S
C77 O72 1.254 . S
C77 O73 1.269 . S
C78 O79 1.249 . S
C78 O80 1.270 . S
O79 Zn71 1.943 . S
O79 C78 1.249 . S
O80 Zn70 2.067 1_554 S
O80 C78 1.270 . S
C81 O74 1.262 . S
C81 O82 1.232 . S
O82 C81 1.232 . S
C83 O75 1.245 1_554 S
C83 O76 1.275 . S
Zn84 O87 2.031 . S
Zn84 O89 2.049 . S
Zn84 O94 2.067 . S
Zn85 O86 1.962 . S
Zn85 O88 1.986 . S
Zn85 O90 1.996 . S
Zn85 O93 1.943 . S
O86 Zn85 1.962 . S
O86 C91 1.254 . S
O87 Zn84 2.031 . S
O87 C91 1.269 . S
O88 Zn85 1.986 . S
O88 C95 1.262 . S
O89 Zn84 2.049 . S
O89 C97 1.260 . S
O90 Zn85 1.996 . S
O90 C97 1.257 . S
C91 O86 1.254 . S
C91 O87 1.269 . S
C92 O93 1.249 . S
C92 O94 1.270 . S
O93 Zn85 1.943 . S
O93 C92 1.249 . S
O94 Zn84 2.067 . S
O94 C92 1.270 . S
C95 O88 1.262 . S
C95 O96 1.232 . S
O96 C95 1.232 . S
C97 O89 1.260 . S
C97 O90 1.257 . S
Zn98 O101 2.031 . S
Zn98 O103 2.049 . S
Zn98 O108 2.067 . S
Zn99 O100 1.962 . S
Zn99 O102 1.986 . S
Zn99 O104 1.996 . S
Zn99 O107 1.943 . S
O100 Zn99 1.962 . S
O100 C105 1.254 . S
O101 Zn98 2.031 . S
O101 C105 1.269 . S
O102 Zn99 1.986 . S
O102 C109 1.262 . S
O103 Zn98 2.049 . S
O103 C111 1.260 . S
O104 Zn99 1.996 . S
O104 C111 1.257 . S
C105 O100 1.254 . S
C105 O101 1.269 . S
C106 O107 1.249 . S
C106 O108 1.270 . S
O107 Zn99 1.943 . S
O107 C106 1.249 . S
O108 Zn98 2.067 . S
O108 C106 1.270 . S
C109 O102 1.262 . S
C109 O110 1.232 . S
O110 C109 1.232 . S
C111 O103 1.260 . S
C111 O104 1.257 . S
Zn112 O115 2.031 . S
Zn112 O117 2.049 . S
Zn112 O122 2.067 . S
Zn113 O114 1.962 . S
Zn113 O116 1.986 . S
Zn113 O118 1.996 . S
Zn113 O121 1.943 . S
O114 Zn113 1.962 . S
O114 C119 1.254 . S
O115 Zn112 2.031 . S
O115 C119 1.269 . S
O116 Zn113 1.986 . S
O116 C123 1.262 . S
O117 Zn112 2.049 . S
O117 C125 1.260 . S
O118 Zn113 1.996 . S
O118 C125 1.257 . S
C119 O114 1.254 . S
C119 O115 1.269 . S
C120 O121 1.249 . S
C120 O122 1.270 . S
O121 Zn113 1.943 . S
O121 C120 1.249 . S
O122 Zn112 2.067 . S
O122 C120 1.270 . S
C123 O116 1.262 . S
C123 O124 1.232 . S
O124 C123 1.232 . S
C125 O117 1.260 . S
C125 O118 1.257 . S
Zn126 O129 2.031 . S
Zn126 O131 2.049 . S
Zn126 O136 2.067 . S
Zn127 O128 1.962 . S
Zn127 O130 1.986 . S
Zn127 O132 1.996 . S
Zn127 O135 1.943 . S
O128 Zn127 1.962 . S
O128 C133 1.254 . S
O129 Zn126 2.031 . S
O129 C133 1.269 . S
O130 Zn127 1.986 . S
O130 C137 1.262 . S
O131 Zn126 2.049 . S
O131 C139 1.260 . S
O132 Zn127 1.996 . S
O132 C139 1.257 . S
C133 O128 1.254 . S
C133 O129 1.269 . S
C134 O135 1.249 . S
C134 O136 1.270 . S
O135 Zn127 1.943 . S
O135 C134 1.249 . S
O136 Zn126 2.067 . S
O136 C134 1.270 . S
C137 O130 1.262 . S
C137 O138 1.232 . S
O138 C137 1.232 . S
C139 O131 1.260 . S
C139 O132 1.257 . S
Zn140 O143 2.031 . S
Zn140 O145 2.049 . S
Zn140 O150 2.067 . S
Zn141 O142 1.962 . S
Zn141 O144 1.986 . S
Zn141 O146 1.996 . S
Zn141 O149 1.943 . S
O142 Zn141 1.962 . S
O142 C147 1.254 . S
O143 Zn140 2.031 . S
O143 C147 1.269 . S
O144 Zn141 1.986 . S
O144 C151 1.262 . S
O145 Zn140 2.049 . S
O145 C153 1.260 . S
O146 Zn141 1.996 . S
O146 C153 1.257 . S
C147 O142 1.254 . S
C147 O143 1.269 . S
C148 O149 1.249 . S
C148 O150 1.270 . S
O149 Zn141 1.943 . S
O149 C148 1.249 . S
O150 Zn140 2.067 . S
O150 C148 1.270 . S
C151 O144 1.262 . S
C151 O152 1.232 . S
O152 C151 1.232 . S
C153 O145 1.260 . S
C153 O146 1.257 . S
Zn154 O157 2.031 1_556 S
Zn154 O159 2.049 . S
Zn154 O164 2.067 1_556 S
Zn155 O156 1.962 . S
Zn155 O158 1.986 . S
Zn155 O160 1.996 . S
Zn155 O163 1.943 . S
O156 Zn155 1.962 . S
O156 C161 1.254 . S
O157 Zn154 2.031 1_554 S
O157 C161 1.269 . S
O158 Zn155 1.986 . S
O158 C165 1.262 . S
O159 Zn154 2.049 . S
O159 C167 1.245 1_556 S
O160 Zn155 1.996 . S
O160 C167 1.275 . S
C161 O156 1.254 . S
C161 O157 1.269 . S
C162 O163 1.249 . S
C162 O164 1.270 . S
O163 Zn155 1.943 . S
O163 C162 1.249 . S
O164 Zn154 2.067 1_554 S
O164 C162 1.270 . S
C165 O158 1.262 . S
C165 O166 1.232 . S
O166 C165 1.232 . S
C167 O159 1.245 1_554 S
C167 O160 1.275 . S
Zn168 O171 2.031 . S
Zn168 O173 2.049 . S
Zn168 O178 2.067 . S
Zn169 O170 1.962 . S
Zn169 O172 1.986 . S
Zn169 O174 1.996 . S
Zn169 O177 1.943 . S
O170 Zn169 1.962 . S
O170 C175 1.254 . S
O171 Zn168 2.031 . S
O171 C175 1.269 . S
O172 Zn169 1.986 . S
O172 C179 1.262 . S
O173 Zn168 2.049 . S
O173 C181 1.260 . S
O174 Zn169 1.996 . S
O174 C181 1.257 . S
C175 O170 1.254 . S
C175 O171 1.269 . S
C176 O177 1.249 . S
C176 O178 1.270 . S
O177 Zn169 1.943 . S
O177 C176 1.249 . S
O178 Zn168 2.067 . S
O178 C176 1.270 . S
C179 O172 1.262 . S
C179 O180 1.232 . S
O180 C179 1.232 . S
C181 O173 1.260 . S
C181 O174 1.257 . S
Zn182 O185 2.031 1_554 S
Zn182 O187 2.049 . S
Zn182 O192 2.067 1_554 S
Zn183 O184 1.962 . S
Zn183 O186 1.986 . S
Zn183 O188 1.996 . S
Zn183 O191 1.943 . S
O184 Zn183 1.962 . S
O184 C189 1.254 . S
O185 Zn182 2.031 1_556 S
O185 C189 1.269 . S
O186 Zn183 1.986 . S
O186 C193 1.262 . S
O187 Zn182 2.049 . S
O187 C195 1.245 1_554 S
O188 Zn183 1.996 . S
O188 C195 1.275 . S
C189 O184 1.254 . S
C189 O185 1.269 . S
C190 O191 1.249 . S
C190 O192 1.270 . S
O191 Zn183 1.943 . S
O191 C190 1.249 . S
O192 Zn182 2.067 1_556 S
O192 C190 1.270 . S
C193 O186 1.262 . S
C193 O194 1.232 . S
O194 C193 1.232 . S
C195 O187 1.245 1_556 S
C195 O188 1.275 . S
Zn196 O199 2.031 . S
Zn196 O201 2.049 . S
Zn196 O206 2.067 . S
Zn197 O198 1.962 . S
Zn197 O200 1.986 . S
Zn197 O202 1.996 . S
Zn197 O205 1.943 . S
O198 Zn197 1.962 . S
O198 C203 1.254 . S
O199 Zn196 2.031 . S
O199 C203 1.269 . S
O200 Zn197 1.986 . S
O200 C207 1.262 . S
O201 Zn196 2.049 . S
O201 C209 1.260 . S
O202 Zn197 1.996 . S
O202 C209 1.257 . S
C203 O198 1.254 . S
C203 O199 1.269 . S
C204 O205 1.249 . S
C204 O206 1.270 . S
O205 Zn197 1.943 . S
O205 C204 1.249 . S
O206 Zn196 2.067 . S
O206 C204 1.270 . S
C207 O200 1.262 . S
C207 O208 1.232 . S
O208 C207 1.232 . S
C209 O201 1.260 . S
C209 O202 1.257 . S
Zn210 O213 2.031 . S
Zn210 O215 2.049 . S
Zn210 O220 2.067 . S
Zn211 O212 1.962 . S
Zn211 O214 1.986 . S
Zn211 O216 1.996 . S
Zn211 O219 1.943 . S
O212 Zn211 1.962 . S
O212 C217 1.254 . S
O213 Zn210 2.031 . S
O213 C217 1.269 . S
O214 Zn211 1.986 . S
O214 C221 1.262 . S
O215 Zn210 2.049 . S
O215 C223 1.260 . S
O216 Zn211 1.996 . S
O216 C223 1.257 . S
C217 O212 1.254 . S
C217 O213 1.269 . S
C218 O219 1.249 . S
C218 O220 1.270 . S
O219 Zn211 1.943 . S
O219 C218 1.249 . S
O220 Zn210 2.067 . S
O220 C218 1.270 . S
C221 O214 1.262 . S
C221 O222 1.232 . S
O222 C221 1.232 . S
C223 O215 1.260 . S
C223 O216 1.257 . S
Zn224 O227 2.031 . S
Zn224 O229 2.049 . S
Zn224 O234 2.067 . S
Zn225 O226 1.962 . S
Zn225 O228 1.986 . S
Zn225 O230 1.996 . S
Zn225 O233 1.943 . S
O226 Zn225 1.962 . S
O226 C231 1.254 . S
O227 Zn224 2.031 . S
O227 C231 1.269 . S
O228 Zn225 1.986 . S
O228 C235 1.262 . S
O229 Zn224 2.049 . S
O229 C237 1.260 . S
O230 Zn225 1.996 . S
O230 C237 1.257 . S
C231 O226 1.254 . S
C231 O227 1.269 . S
C232 O233 1.249 . S
C232 O234 1.270 . S
O233 Zn225 1.943 . S
O233 C232 1.249 . S
O234 Zn224 2.067 . S
O234 C232 1.270 . S
C235 O228 1.262 . S
C235 O236 1.232 . S
O236 C235 1.232 . S
C237 O229 1.260 . S
C237 O230 1.257 . S
Zn238 O241 2.031 1_554 S
Zn238 O243 2.049 . S
Zn238 O248 2.067 1_554 S
Zn239 O240 1.962 . S
Zn239 O242 1.986 . S
Zn239 O244 1.996 . S
Zn239 O247 1.943 . S
O240 Zn239 1.962 . S
O240 C245 1.254 . S
O241 Zn238 2.031 1_556 S
O241 C245 1.269 . S
O242 Zn239 1.986 . S
O242 C249 1.262 . S
O243 Zn238 2.049 . S
O243 C251 1.245 1_554 S
O244 Zn239 1.996 . S
O244 C251 1.275 . S
C245 O240 1.254 . S
C245 O241 1.269 . S
C246 O247 1.249 . S
C246 O248 1.270 . S
O247 Zn239 1.943 . S
O247 C246 1.249 . S
O248 Zn238 2.067 1_556 S
O248 C246 1.270 . S
C249 O242 1.262 . S
C249 O250 1.232 . S
O250 C249 1.232 . S
C251 O243 1.245 1_556 S
C251 O244 1.275 . S
Zn252 O255 2.031 . S
Zn252 O257 2.049 . S
Zn252 O262 2.067 . S
Zn253 O254 1.962 . S
Zn253 O256 1.986 . S
Zn253 O258 1.996 . S
Zn253 O261 1.943 . S
O254 Zn253 1.962 . S
O254 C259 1.254 . S
O255 Zn252 2.031 . S
O255 C259 1.269 . S
O256 Zn253 1.986 . S
O256 C263 1.262 . S
O257 Zn252 2.049 . S
O257 C265 1.260 . S
O258 Zn253 1.996 . S
O258 C265 1.257 . S
C259 O254 1.254 . S
C259 O255 1.269 . S
C260 O261 1.249 . S
C260 O262 1.270 . S
O261 Zn253 1.943 . S
O261 C260 1.249 . S
O262 Zn252 2.067 . S
O262 C260 1.270 . S
C263 O256 1.262 . S
C263 O264 1.232 . S
O264 C263 1.232 . S
C265 O257 1.260 . S
C265 O258 1.257 . S
Zn266 O269 2.031 . S
Zn266 O271 2.049 . S
Zn266 O276 2.067 . S
Zn267 O268 1.962 . S
Zn267 O270 1.986 . S
Zn267 O272 1.996 . S
Zn267 O275 1.943 . S
O268 Zn267 1.962 . S
O268 C273 1.254 . S
O269 Zn266 2.031 . S
O269 C273 1.269 . S
O270 Zn267 1.986 . S
O270 C277 1.262 . S
O271 Zn266 2.049 . S
O271 C279 1.260 . S
O272 Zn267 1.996 . S
O272 C279 1.257 . S
C273 O268 1.254 . S
C273 O269 1.269 . S
C274 O275 1.249 . S
C274 O276 1.270 . S
O275 Zn267 1.943 . S
O275 C274 1.249 . S
O276 Zn266 2.067 . S
O276 C274 1.270 . S
C277 O270 1.262 . S
C277 O278 1.232 . S
O278 C277 1.232 . S
C279 O271 1.260 . S
C279 O272 1.257 . S
Zn280 O283 2.031 . S
Zn280 O285 2.049 . S
Zn280 O290 2.067 . S
Zn281 O282 1.962 . S
Zn281 O284 1.986 . S
Zn281 O286 1.996 . S
Zn281 O289 1.943 . S
O282 Zn281 1.962 . S
O282 C287 1.254 . S
O283 Zn280 2.031 . S
O283 C287 1.269 . S
O284 Zn281 1.986 . S
O284 C291 1.262 . S
O285 Zn280 2.049 . S
O285 C293 1.260 . S
O286 Zn281 1.996 . S
O286 C293 1.257 . S
C287 O282 1.254 . S
C287 O283 1.269 . S
C288 O289 1.249 . S
C288 O290 1.270 . S
O289 Zn281 1.943 . S
O289 C288 1.249 . S
O290 Zn280 2.067 . S
O290 C288 1.270 . S
C291 O284 1.262 . S
C291 O292 1.232 . S
O292 C291 1.232 . S
C293 O285 1.260 . S
C293 O286 1.257 . S
Zn294 O297 2.031 . S
Zn294 O299 2.049 . S
Zn294 O304 2.067 . S
Zn295 O296 1.962 . S
Zn295 O298 1.986 . S
Zn295 O300 1.996 . S
Zn295 O303 1.943 . S
O296 Zn295 1.962 . S
O296 C301 1.254 . S
O297 Zn294 2.031 . S
O297 C301 1.269 . S
O298 Zn295 1.986 . S
O298 C305 1.262 . S
O299 Zn294 2.049 . S
O299 C307 1.260 . S
O300 Zn295 1.996 . S
O300 C307 1.257 . S
C301 O296 1.254 . S
C301 O297 1.269 . S
C302 O303 1.249 . S
C302 O304 1.270 . S
O303 Zn295 1.943 . S
O303 C302 1.249 . S
O304 Zn294 2.067 . S
O304 C302 1.270 . S
C305 O298 1.262 . S
C305 O306 1.232 . S
O306 C305 1.232 . S
C307 O299 1.260 . S
C307 O300 1.257 . S
Zn308 O311 2.031 . S
Zn308 O313 2.049 . S
Zn308 O318 2.067 . S
Zn309 O310 1.962 . S
Zn309 O312 1.986 . S
Zn309 O314 1.996 . S
Zn309 O317 1.943 . S
O310 Zn309 1.962 . S
O310 C315 1.254 . S
O311 Zn308 2.031 . S
O311 C315 1.269 . S
O312 Zn309 1.986 . S
O312 C319 1.262 . S
O313 Zn308 2.049 . S
O313 C321 1.260 . S
O314 Zn309 1.996 . S
O314 C321 1.257 . S
C315 O310 1.254 . S
C315 O311 1.269 . S
C316 O317 1.249 . S
C316 O318 1.270 . S
O317 Zn309 1.943 . S
O317 C316 1.249 . S
O318 Zn308 2.067 . S
O318 C316 1.270 . S
C319 O312 1.262 . S
C319 O320 1.232 . S
O320 C319 1.232 . S
C321 O313 1.260 . S
C321 O314 1.257 . S
Zn322 O325 2.031 1_556 S
Zn322 O327 2.049 . S
Zn322 O332 2.067 1_556 S
Zn323 O324 1.962 . S
Zn323 O326 1.986 . S
Zn323 O328 1.996 . S
Zn323 O331 1.943 . S
O324 Zn323 1.962 . S
O324 C329 1.254 . S
O325 Zn322 2.031 1_554 S
O325 C329 1.269 . S
O326 Zn323 1.986 . S
O326 C333 1.262 . S
O327 Zn322 2.049 . S
O327 C335 1.245 1_556 S
O328 Zn323 1.996 . S
O328 C335 1.275 . S
C329 O324 1.254 . S
C329 O325 1.269 . S
C330 O331 1.249 . S
C330 O332 1.270 . S
O331 Zn323 1.943 . S
O331 C330 1.249 . S
O332 Zn322 2.067 1_554 S
O332 C330 1.270 . S
C333 O326 1.262 . S
C333 O334 1.232 . S
O334 C333 1.232 . S
C335 O327 1.245 1_554 S
C335 O328 1.275 . S
Zn336 O339 2.031 . S
Zn336 O341 2.049 . S
Zn336 O346 2.067 . S
Zn337 O338 1.962 . S
Zn337 O340 1.986 . S
Zn337 O342 1.996 . S
Zn337 O345 1.943 . S
O338 Zn337 1.962 . S
O338 C343 1.254 . S
O339 Zn336 2.031 . S
O339 C343 1.269 . S
O340 Zn337 1.986 . S
O340 C347 1.262 . S
O341 Zn336 2.049 . S
O341 C349 1.260 . S
O342 Zn337 1.996 . S
O342 C349 1.257 . S
C343 O338 1.254 . S
C343 O339 1.269 . S
C344 O345 1.249 . S
C344 O346 1.270 . S
O345 Zn337 1.943 . S
O345 C344 1.249 . S
O346 Zn336 2.067 . S
O346 C344 1.270 . S
C347 O340 1.262 . S
C347 O348 1.232 . S
O348 C347 1.232 . S
C349 O341 1.260 . S
C349 O342 1.257 . S
Zn350 O353 2.031 1_556 S
Zn350 O355 2.049 . S
Zn350 O360 2.067 1_556 S
Zn351 O352 1.962 . S
Zn351 O354 1.986 . S
Zn351 O356 1.996 . S
Zn351 O359 1.943 . S
O352 Zn351 1.962 . S
O352 C357 1.254 . S
O353 Zn350 2.031 1_554 S
O353 C357 1.269 . S
O354 Zn351 1.986 . S
O354 C361 1.262 . S
O355 Zn350 2.049 . S
O355 C363 1.245 1_556 S
O356 Zn351 1.996 . S
O356 C363 1.275 . S
C357 O352 1.254 . S
C357 O353 1.269 . S
C358 O359 1.249 . S
C358 O360 1.270 . S
O359 Zn351 1.943 . S
O359 C358 1.249 . S
O360 Zn350 2.067 1_554 S
O360 C358 1.270 . S
C361 O354 1.262 . S
C361 O362 1.232 . S
O362 C361 1.232 . S
C363 O355 1.245 1_554 S
C363 O356 1.275 . S
Zn364 O367 2.031 . S
Zn364 O369 2.049 . S
Zn364 O374 2.067 . S
Zn365 O366 1.962 . S
Zn365 O368 1.986 . S
Zn365 O370 1.996 . S
Zn365 O373 1.943 . S
O366 Zn365 1.962 . S
O366 C371 1.254 . S
O367 Zn364 2.031 . S
O367 C371 1.269 . S
O368 Zn365 1.986 . S
O368 C375 1.262 . S
O369 Zn364 2.049 . S
O369 C377 1.260 . S
O370 Zn365 1.996 . S
O370 C377 1.257 . S
C371 O366 1.254 . S
C371 O367 1.269 . S
C372 O373 1.249 . S
C372 O374 1.270 . S
O373 Zn365 1.943 . S
O373 C372 1.249 . S
O374 Zn364 2.067 . S
O374 C372 1.270 . S
C375 O368 1.262 . S
C375 O376 1.232 . S
O376 C375 1.232 . S
C377 O369 1.260 . S
C377 O370 1.257 . S
Zn378 O381 2.031 . S
Zn378 O383 2.049 . S
Zn378 O388 2.067 . S
Zn379 O380 1.962 . S
Zn379 O382 1.986 . S
Zn379 O384 1.996 . S
Zn379 O387 1.943 . S
O380 Zn379 1.962 . S
O380 C385 1.254 . S
O381 Zn378 2.031 . S
O381 C385 1.269 . S
O382 Zn379 1.986 . S
O382 C389 1.262 . S
O383 Zn378 2.049 . S
O383 C391 1.260 . S
O384 Zn379 1.996 . S
O384 C391 1.257 . S
C385 O380 1.254 . S
C385 O381 1.269 . S
C386 O387 1.249 . S
C386 O388 1.270 . S
O387 Zn379 1.943 . S
O387 C386 1.249 . S
O388 Zn378 2.067 . S
O388 C386 1.270 . S
C389 O382 1.262 . S
C389 O390 1.232 . S
O390 C389 1.232 . S
C391 O383 1.260 . S
C391 O384 1.257 . S
Zn392 O395 2.031 . S
Zn392 O397 2.049 . S
Zn392 O402 2.067 . S
Zn393 O394 1.962 . S
Zn393 O396 1.986 . S
Zn393 O398 1.996 . S
Zn393 O401 1.943 . S
O394 Zn393 1.962 . S
O394 C399 1.254 . S
O395 Zn392 2.031 . S
O395 C399 1.269 . S
O396 Zn393 1.986 . S
O396 C403 1.262 . S
O397 Zn392 2.049 . S
O397 C405 1.260 . S
O398 Zn393 1.996 . S
O398 C405 1.257 . S
C399 O394 1.254 . S
C399 O395 1.269 . S
C400 O401 1.249 . S
C400 O402 1.270 . S
O401 Zn393 1.943 . S
O401 C400 1.249 . S
O402 Zn392 2.067 . S
O402 C400 1.270 . S
C403 O396 1.262 . S
C403 O404 1.232 . S
O404 C403 1.232 . S
C405 O397 1.260 . S
C405 O398 1.257 . S
Zn406 O409 2.031 . S
Zn406 O411 2.049 . S
Zn406 O416 2.067 . S
Zn407 O408 1.962 . S
Zn407 O410 1.986 . S
Zn407 O412 1.996 . S
Zn407 O415 1.943 . S
O408 Zn407 1.962 . S
O408 C413 1.254 . S
O409 Zn406 2.031 . S
O409 C413 1.269 . S
O410 Zn407 1.986 . S
O410 C417 1.262 . S
O411 Zn406 2.049 . S
O411 C419 1.260 . S
O412 Zn407 1.996 . S
O412 C419 1.257 . S
C413 O408 1.254 . S
C413 O409 1.269 . S
C414 O415 1.249 . S
C414 O416 1.270 . S
O415 Zn407 1.943 . S
O415 C414 1.249 . S
O416 Zn406 2.067 . S
O416 C414 1.270 . S
C417 O410 1.262 . S
C417 O418 1.232 . S
O418 C417 1.232 . S
C419 O411 1.260 . S
C419 O412 1.257 . S
Zn420 O423 2.031 . S
Zn420 O425 2.049 . S
Zn420 O430 2.067 . S
Zn421 O422 1.962 . S
Zn421 O424 1.986 . S
Zn421 O426 1.996 . S
Zn421 O429 1.943 . S
O422 Zn421 1.962 . S
O422 C427 1.254 . S
O423 Zn420 2.031 . S
O423 C427 1.269 . S
O424 Zn421 1.986 . S
O424 C431 1.262 . S
O425 Zn420 2.049 . S
O425 C433 1.260 . S
O426 Zn421 1.996 . S
O426 C433 1.257 . S
C427 O422 1.254 . S
C427 O423 1.269 . S
C428 O429 1.249 . S
C428 O430 1.270 . S
O429 Zn421 1.943 . S
O429 C428 1.249 . S
O430 Zn420 2.067 . S
O430 C428 1.270 . S
C431 O424 1.262 . S
C431 O432 1.232 . S
O432 C431 1.232 . S
C433 O425 1.260 . S
C433 O426 1.257 . S
Zn434 O437 2.031 1_554 S
Zn434 O439 2.049 . S
Zn434 O444 2.067 1_554 S
Zn435 O436 1.962 . S
Zn435 O438 1.986 . S
Zn435 O440 1.996 . S
Zn435 O443 1.943 . S
O436 Zn435 1.962 . S
O436 C441 1.254 . S
O437 Zn434 2.031 1_556 S
O437 C441 1.269 . S
O438 Zn435 1.986 . S
O438 C445 1.262 . S
O439 Zn434 2.049 . S
O439 C447 1.245 1_554 S
O440 Zn435 1.996 . S
O440 C447 1.275 . S
C441 O436 1.254 . S
C441 O437 1.269 . S
C442 O443 1.249 . S
C442 O444 1.270 . S
O443 Zn435 1.943 . S
O443 C442 1.249 . S
O444 Zn434 2.067 1_556 S
O444 C442 1.270 . S
C445 O438 1.262 . S
C445 O446 1.232 . S
O446 C445 1.232 . S
C447 O439 1.245 1_556 S
C447 O440 1.275 . S
H448 C456 0.950 . S
H449 C461 0.950 . S
H450 C458 0.950 . S
H451 C460 0.950 . S
H452 C462 0.950 . S
H453 C464 0.950 . S
H454 C466 0.950 . S
H455 C467 0.950 . S
C456 H448 0.950 . S
C456 C457 1.386 . S
C456 C458 1.391 . S
C457 C456 1.386 . S
C457 C461 1.393 . S
C458 H450 0.950 . S
C458 C456 1.391 . S
C458 C459 1.400 . S
C459 C458 1.400 . S
C459 C460 1.398 . S
C459 C465 1.491 . S
C460 H451 0.950 . S
C460 C459 1.398 . S
C460 C461 1.391 . S
C461 H449 0.950 . S
C461 C457 1.393 . S
C461 C460 1.391 . S
C462 H452 0.950 . S
C462 C463 1.386 . S
C462 C464 1.391 . S
C463 C462 1.386 . S
C463 C467 1.393 . S
C464 H453 0.950 . S
C464 C462 1.391 . S
C464 C465 1.400 . S
C465 C459 1.491 . S
C465 C464 1.400 . S
C465 C466 1.398 . S
C466 H454 0.950 . S
C466 C465 1.398 . S
C466 C467 1.391 . S
C467 H455 0.950 . S
C467 C463 1.393 . S
C467 C466 1.391 . S
H468 C476 0.950 . S
H469 C481 0.950 . S
H470 C478 0.950 . S
H471 C480 0.950 . S
H472 C482 0.950 . S
H473 C484 0.950 . S
H474 C486 0.950 . S
H475 C487 0.950 . S
C476 H468 0.950 . S
C476 C477 1.386 . S
C476 C478 1.391 . S
C477 C476 1.386 . S
C477 C481 1.393 . S
C478 H470 0.950 . S
C478 C476 1.391 . S
C478 C479 1.400 . S
C479 C478 1.400 . S
C479 C480 1.398 . S
C479 C485 1.491 1_565 S
C480 H471 0.950 . S
C480 C479 1.398 . S
C480 C481 1.391 . S
C481 H469 0.950 . S
C481 C477 1.393 . S
C481 C480 1.391 . S
C482 H472 0.950 . S
C482 C483 1.386 . S
C482 C484 1.391 . S
C483 C482 1.386 . S
C483 C487 1.393 . S
C484 H473 0.950 . S
C484 C482 1.391 . S
C484 C485 1.400 . S
C485 C479 1.491 1_545 S
C485 C484 1.400 . S
C485 C486 1.398 . S
C486 H474 0.950 . S
C486 C485 1.398 . S
C486 C487 1.391 . S
C487 H475 0.950 . S
C487 C483 1.393 . S
C487 C486 1.391 . S
H488 C496 0.950 . S
H489 C501 0.950 . S
H490 C498 0.950 . S
H491 C500 0.950 . S
H492 C502 0.950 . S
H493 C504 0.950 . S
H494 C506 0.950 . S
H495 C507 0.950 . S
C496 H488 0.950 . S
C496 C497 1.386 . S
C496 C498 1.391 . S
C497 C496 1.386 . S
C497 C501 1.393 . S
C498 H490 0.950 . S
C498 C496 1.391 . S
C498 C499 1.400 . S
C499 C498 1.400 . S
C499 C500 1.398 . S
C499 C505 1.491 . S
C500 H491 0.950 . S
C500 C499 1.398 . S
C500 C501 1.391 . S
C501 H489 0.950 . S
C501 C497 1.393 . S
C501 C500 1.391 . S
C502 H492 0.950 . S
C502 C503 1.386 . S
C502 C504 1.391 . S
C503 C502 1.386 . S
C503 C507 1.393 . S
C504 H493 0.950 . S
C504 C502 1.391 . S
C504 C505 1.400 . S
C505 C499 1.491 . S
C505 C504 1.400 . S
C505 C506 1.398 . S
C506 H494 0.950 . S
C506 C505 1.398 . S
C506 C507 1.391 . S
C507 H495 0.950 . S
C507 C503 1.393 . S
C507 C506 1.391 . S
H508 C516 0.950 . S
H509 C521 0.950 . S
H510 C518 0.950 . S
H511 C520 0.950 1_554 S
H512 C522 0.950 . S
H513 C524 0.950 . S
H514 C526 0.950 1_556 S
H515 C527 0.950 . S
C516 H508 0.950 . S
C516 C517 1.386 . S
C516 C518 1.391 . S
C517 C516 1.386 . S
C517 C521 1.393 . S
C518 H510 0.950 . S
C518 C516 1.391 . S
C518 C519 1.400 . S
C519 C518 1.400 . S
C519 C520 1.398 . S
C519 C525 1.491 1_546 S
C520 H511 0.950 1_556 S
C520 C519 1.398 . S
C520 C521 1.391 . S
C521 H509 0.950 . S
C521 C517 1.393 . S
C521 C520 1.391 . S
C522 H512 0.950 . S
C522 C523 1.386 . S
C522 C524 1.391 . S
C523 C522 1.386 . S
C523 C527 1.393 . S
C524 H513 0.950 . S
C524 C522 1.391 . S
C524 C525 1.400 . S
C525 C519 1.491 1_564 S
C525 C524 1.400 . S
C525 C526 1.398 . S
C526 H514 0.950 1_554 S
C526 C525 1.398 . S
C526 C527 1.391 . S
C527 H515 0.950 . S
C527 C523 1.393 . S
C527 C526 1.391 . S
H528 C536 0.950 . S
H529 C541 0.950 . S
H530 C538 0.950 . S
H531 C540 0.950 . S
H532 C542 0.950 . S
H533 C544 0.950 . S
H534 C546 0.950 . S
H535 C547 0.950 . S
C536 H528 0.950 . S
C536 C537 1.386 . S
C536 C538 1.391 . S
C537 C536 1.386 . S
C537 C541 1.393 . S
C538 H530 0.950 . S
C538 C536 1.391 . S
C538 C539 1.400 . S
C539 C538 1.400 . S
C539 C540 1.398 . S
C539 C545 1.491 . S
C540 H531 0.950 . S
C540 C539 1.398 . S
C540 C541 1.391 . S
C541 H529 0.950 . S
C541 C537 1.393 . S
C541 C540 1.391 . S
C542 H532 0.950 . S
C542 C543 1.386 . S
C542 C544 1.391 . S
C543 C542 1.386 . S
C543 C547 1.393 . S
C544 H533 0.950 . S
C544 C542 1.391 . S
C544 C545 1.400 . S
C545 C539 1.491 . S
C545 C544 1.400 . S
C545 C546 1.398 . S
C546 H534 0.950 . S
C546 C545 1.398 . S
C546 C547 1.391 . S
C547 H535 0.950 . S
C547 C543 1.393 . S
C547 C546 1.391 . S
H548 C556 0.950 . S
H549 C561 0.950 . S
H550 C558 0.950 . S
H551 C560 0.950 . S
H552 C562 0.950 . S
H553 C564 0.950 . S
H554 C566 0.950 . S
H555 C567 0.950 . S
C556 H548 0.950 . S
C556 C557 1.386 . S
C556 C558 1.391 . S
C557 C556 1.386 . S
C557 C561 1.393 . S
C558 H550 0.950 . S
C558 C556 1.391 . S
C558 C559 1.400 . S
C559 C558 1.400 . S
C559 C560 1.398 . S
C559 C565 1.491 1_565 S
C560 H551 0.950 . S
C560 C559 1.398 . S
C560 C561 1.391 . S
C561 H549 0.950 . S
C561 C557 1.393 . S
C561 C560 1.391 . S
C562 H552 0.950 . S
C562 C563 1.386 . S
C562 C564 1.391 . S
C563 C562 1.386 . S
C563 C567 1.393 . S
C564 H553 0.950 . S
C564 C562 1.391 . S
C564 C565 1.400 . S
C565 C559 1.491 1_545 S
C565 C564 1.400 . S
C565 C566 1.398 . S
C566 H554 0.950 . S
C566 C565 1.398 . S
C566 C567 1.391 . S
C567 H555 0.950 . S
C567 C563 1.393 . S
C567 C566 1.391 . S
H568 C576 0.950 . S
H569 C581 0.950 . S
H570 C578 0.950 . S
H571 C580 0.950 . S
H572 C582 0.950 . S
H573 C584 0.950 . S
H574 C586 0.950 . S
H575 C587 0.950 . S
C576 H568 0.950 . S
C576 C577 1.386 . S
C576 C578 1.391 . S
C577 C576 1.386 . S
C577 C581 1.393 . S
C578 H570 0.950 . S
C578 C576 1.391 . S
C578 C579 1.400 . S
C579 C578 1.400 . S
C579 C580 1.398 . S
C579 C585 1.491 . S
C580 H571 0.950 . S
C580 C579 1.398 . S
C580 C581 1.391 . S
C581 H569 0.950 . S
C581 C577 1.393 . S
C581 C580 1.391 . S
C582 H572 0.950 . S
C582 C583 1.386 . S
C582 C584 1.391 . S
C583 C582 1.386 . S
C583 C587 1.393 . S
C584 H573 0.950 . S
C584 C582 1.391 . S
C584 C585 1.400 . S
C585 C579 1.491 . S
C585 C584 1.400 . S
C585 C586 1.398 . S
C586 H574 0.950 . S
C586 C585 1.398 . S
C586 C587 1.391 . S
C587 H575 0.950 . S
C587 C583 1.393 . S
C587 C586 1.391 . S
H588 C596 0.950 . S
H589 C601 0.950 1_554 S
H590 C598 1.000 . S
H591 C600 0.950 . S
H592 C602 0.950 . S
H593 C604 1.000 . S
H594 C606 0.950 . S
H595 C607 0.950 1_556 S
C596 H588 0.950 . S
C596 C597 1.386 . S
C596 C598 1.391 . S
C597 C596 1.386 . S
C597 C601 1.393 . S
C598 H590 1.000 . S
C598 C596 1.391 . S
C598 C599 1.400 . S
C599 C598 1.400 . S
C599 C600 1.398 1_556 S
C599 C605 1.491 1_546 S
C600 H591 0.950 . S
C600 C599 1.398 1_554 S
C600 C601 1.391 1_554 S
C601 H589 0.950 1_556 S
C601 C597 1.393 . S
C601 C600 1.391 1_556 S
C602 H592 0.950 . S
C602 C603 1.386 . S
C602 C604 1.391 . S
C603 C602 1.386 . S
C603 C607 1.393 . S
C604 H593 1.000 . S
C604 C602 1.391 . S
C604 C605 1.400 . S
C605 C599 1.491 1_564 S
C605 C604 1.400 . S
C605 C606 1.398 1_554 S
C606 H594 0.950 . S
C606 C605 1.398 1_556 S
C606 C607 1.391 1_556 S
C607 H595 0.950 1_554 S
C607 C603 1.393 . S
C607 C606 1.391 1_554 S
H608 C616 0.950 . S
H609 C621 0.950 . S
H610 C618 0.950 . S
H611 C620 0.950 . S
H612 C622 0.950 . S
H613 C624 0.950 . S
H614 C626 0.950 . S
H615 C627 0.950 . S
C616 H608 0.950 . S
C616 C617 1.386 . S
C616 C618 1.391 . S
C617 C616 1.386 . S
C617 C621 1.393 . S
C618 H610 0.950 . S
C618 C616 1.391 . S
C618 C619 1.400 . S
C619 C618 1.400 . S
C619 C620 1.398 . S
C619 C625 1.491 . S
C620 H611 0.950 . S
C620 C619 1.398 . S
C620 C621 1.391 . S
C621 H609 0.950 . S
C621 C617 1.393 . S
C621 C620 1.391 . S
C622 H612 0.950 . S
C622 C623 1.386 . S
C622 C624 1.391 . S
C623 C622 1.386 . S
C623 C627 1.393 . S
C624 H613 0.950 . S
C624 C622 1.391 . S
C624 C625 1.400 . S
C625 C619 1.491 . S
C625 C624 1.400 . S
C625 C626 1.398 . S
C626 H614 0.950 . S
C626 C625 1.398 . S
C626 C627 1.391 . S
C627 H615 0.950 . S
C627 C623 1.393 . S
C627 C626 1.391 . S
H628 C636 0.950 . S
H629 C641 0.950 . S
H630 C638 0.950 . S
H631 C640 0.950 . S
H632 C642 0.950 . S
H633 C644 0.950 . S
H634 C646 0.950 . S
H635 C647 0.950 . S
C636 H628 0.950 . S
C636 C637 1.386 . S
C636 C638 1.391 . S
C637 C636 1.386 . S
C637 C641 1.393 . S
C638 H630 0.950 . S
C638 C636 1.391 . S
C638 C639 1.400 . S
C639 C638 1.400 . S
C639 C640 1.398 . S
C639 C645 1.491 1_556 S
C640 H631 0.950 . S
C640 C639 1.398 . S
C640 C641 1.391 . S
C641 H629 0.950 . S
C641 C637 1.393 . S
C641 C640 1.391 . S
C642 H632 0.950 . S
C642 C643 1.386 . S
C642 C644 1.391 . S
C643 C642 1.386 . S
C643 C647 1.393 . S
C644 H633 0.950 . S
C644 C642 1.391 . S
C644 C645 1.400 . S
C645 C639 1.491 1_554 S
C645 C644 1.400 . S
C645 C646 1.398 . S
C646 H634 0.950 . S
C646 C645 1.398 . S
C646 C647 1.391 . S
C647 H635 0.950 . S
C647 C643 1.393 . S
C647 C646 1.391 . S
H648 C656 0.950 . S
H649 C661 0.950 . S
H650 C658 0.950 . S
H651 C660 0.950 . S
H652 C662 0.950 . S
H653 C664 0.950 . S
H654 C666 0.950 . S
H655 C667 0.950 . S
C656 H648 0.950 . S
C656 C657 1.386 . S
C656 C658 1.391 . S
C657 C656 1.386 . S
C657 C661 1.393 . S
C658 H650 0.950 . S
C658 C656 1.391 . S
C658 C659 1.400 . S
C659 C658 1.400 . S
C659 C660 1.398 . S
C659 C665 1.491 . S
C660 H651 0.950 . S
C660 C659 1.398 . S
C660 C661 1.391 . S
C661 H649 0.950 . S
C661 C657 1.393 . S
C661 C660 1.391 . S
C662 H652 0.950 . S
C662 C663 1.386 . S
C662 C664 1.391 . S
C663 C662 1.386 . S
C663 C667 1.393 . S
C664 H653 0.950 . S
C664 C662 1.391 . S
C664 C665 1.400 . S
C665 C659 1.491 . S
C665 C664 1.400 . S
C665 C666 1.398 . S
C666 H654 0.950 . S
C666 C665 1.398 . S
C666 C667 1.391 . S
C667 H655 0.950 . S
C667 C663 1.393 . S
C667 C666 1.391 . S
H668 C676 0.950 . S
H669 C681 0.950 . S
H670 C678 0.950 . S
H671 C680 0.950 . S
H672 C682 0.950 . S
H673 C684 0.950 . S
H674 C686 0.950 . S
H675 C687 0.950 . S
C676 H668 0.950 . S
C676 C677 1.386 . S
C676 C678 1.391 . S
C677 C676 1.386 . S
C677 C681 1.393 . S
C678 H670 0.950 . S
C678 C676 1.391 . S
C678 C679 1.400 . S
C679 C678 1.400 . S
C679 C680 1.398 . S
C679 C685 1.491 . S
C680 H671 0.950 . S
C680 C679 1.398 . S
C680 C681 1.391 . S
C681 H669 0.950 . S
C681 C677 1.393 . S
C681 C680 1.391 . S
C682 H672 0.950 . S
C682 C683 1.386 . S
C682 C684 1.391 . S
C683 C682 1.386 . S
C683 C687 1.393 . S
C684 H673 0.950 . S
C684 C682 1.391 . S
C684 C685 1.400 . S
C685 C679 1.491 . S
C685 C684 1.400 . S
C685 C686 1.398 . S
C686 H674 0.950 . S
C686 C685 1.398 . S
C686 C687 1.391 . S
C687 H675 0.950 . S
C687 C683 1.393 . S
C687 C686 1.391 . S
H688 C696 0.950 . S
H689 C701 0.950 . S
H690 C698 0.950 . S
H691 C700 0.950 . S
H692 C702 0.950 . S
H693 C704 0.950 . S
H694 C706 0.950 . S
H695 C707 0.950 . S
C696 H688 0.950 . S
C696 C697 1.386 . S
C696 C698 1.391 . S
C697 C696 1.386 . S
C697 C701 1.393 . S
C698 H690 0.950 . S
C698 C696 1.391 . S
C698 C699 1.400 . S
C699 C698 1.400 . S
C699 C700 1.398 . S
C699 C705 1.491 . S
C700 H691 0.950 . S
C700 C699 1.398 . S
C700 C701 1.391 . S
C701 H689 0.950 . S
C701 C697 1.393 . S
C701 C700 1.391 . S
C702 H692 0.950 . S
C702 C703 1.386 . S
C702 C704 1.391 . S
C703 C702 1.386 . S
C703 C707 1.393 . S
C704 H693 0.950 . S
C704 C702 1.391 . S
C704 C705 1.400 . S
C705 C699 1.491 . S
C705 C704 1.400 . S
C705 C706 1.398 . S
C706 H694 0.950 . S
C706 C705 1.398 . S
C706 C707 1.391 . S
C707 H695 0.950 . S
C707 C703 1.393 . S
C707 C706 1.391 . S
H708 C716 0.950 . S
H709 C721 0.950 . S
H710 C718 0.951 1_556 S
H711 C720 0.950 . S
H712 C722 0.950 . S
H713 C724 0.951 1_554 S
H714 C726 0.950 . S
H715 C727 0.950 . S
C716 H708 0.950 . S
C716 C717 1.386 . S
C716 C718 1.391 . S
C717 C716 1.386 . S
C717 C721 1.393 . S
C718 H710 0.951 1_554 S
C718 C716 1.391 . S
C718 C719 1.400 . S
C719 C718 1.400 . S
C719 C720 1.398 . S
C719 C725 1.491 1_554 S
C720 H711 0.950 . S
C720 C719 1.398 . S
C720 C721 1.391 . S
C721 H709 0.950 . S
C721 C717 1.393 . S
C721 C720 1.391 . S
C722 H712 0.950 . S
C722 C723 1.386 . S
C722 C724 1.391 . S
C723 C722 1.386 . S
C723 C727 1.393 . S
C724 H713 0.951 1_556 S
C724 C722 1.391 . S
C724 C725 1.400 . S
C725 C719 1.491 1_556 S
C725 C724 1.400 . S
C725 C726 1.398 . S
C726 H714 0.950 . S
C726 C725 1.398 . S
C726 C727 1.391 . S
C727 H715 0.950 . S
C727 C723 1.393 . S
C727 C726 1.391 . S
H728 C736 0.950 . S
H729 C741 0.950 . S
H730 C738 0.950 . S
H731 C740 0.950 . S
H732 C742 0.950 . S
H733 C744 0.950 . S
H734 C746 0.950 . S
H735 C747 0.950 . S
C736 H728 0.950 . S
C736 C737 1.386 . S
C736 C738 1.391 . S
C737 C736 1.386 . S
C737 C741 1.393 . S
C738 H730 0.950 . S
C738 C736 1.391 . S
C738 C739 1.400 . S
C739 C738 1.400 . S
C739 C740 1.398 . S
C739 C745 1.491 . S
C740 H731 0.950 . S
C740 C739 1.398 . S
C740 C741 1.391 . S
C741 H729 0.950 . S
C741 C737 1.393 . S
C741 C740 1.391 . S
C742 H732 0.950 . S
C742 C743 1.386 . S
C742 C744 1.391 . S
C743 C742 1.386 . S
C743 C747 1.393 . S
C744 H733 0.950 . S
C744 C742 1.391 . S
C744 C745 1.400 . S
C745 C739 1.491 . S
C745 C744 1.400 . S
C745 C746 1.398 . S
C746 H734 0.950 . S
C746 C745 1.398 . S
C746 C747 1.391 . S
C747 H735 0.950 . S
C747 C743 1.393 . S
C747 C746 1.391 . S
H748 C756 0.950 . S
H749 C761 0.950 . S
H750 C758 0.950 . S
H751 C760 0.950 . S
H752 C762 0.950 . S
H753 C764 0.950 . S
H754 C766 0.950 . S
H755 C767 0.950 . S
C756 H748 0.950 . S
C756 C757 1.386 . S
C756 C758 1.391 . S
C757 C756 1.386 . S
C757 C761 1.393 . S
C758 H750 0.950 . S
C758 C756 1.391 . S
C758 C759 1.400 . S
C759 C758 1.400 . S
C759 C760 1.398 . S
C759 C765 1.491 . S
C760 H751 0.950 . S
C760 C759 1.398 . S
C760 C761 1.391 . S
C761 H749 0.950 . S
C761 C757 1.393 . S
C761 C760 1.391 . S
C762 H752 0.950 . S
C762 C763 1.386 . S
C762 C764 1.391 . S
C763 C762 1.386 . S
C763 C767 1.393 . S
C764 H753 0.950 . S
C764 C762 1.391 . S
C764 C765 1.400 . S
C765 C759 1.491 . S
C765 C764 1.400 . S
C765 C766 1.398 . S
C766 H754 0.950 . S
C766 C765 1.398 . S
C766 C767 1.391 . S
C767 H755 0.950 . S
C767 C763 1.393 . S
C767 C766 1.391 . S
H768 C776 0.950 . S
H769 C781 0.950 1_554 S
H770 C778 0.950 . S
H771 C780 0.950 . S
H772 C782 0.950 . S
H773 C784 0.950 . S
H774 C786 0.950 . S
H775 C787 0.950 . S
C776 H768 0.950 . S
C776 C777 1.386 . S
C776 C778 1.391 . S
C777 C776 1.386 . S
C777 C781 1.393 . S
C778 H770 0.950 . S
C778 C776 1.391 . S
C778 C779 1.400 . S
C779 C778 1.400 . S
C779 C780 1.398 . S
C779 C785 1.491 . S
C780 H771 0.950 . S
C780 C779 1.398 . S
C780 C781 1.391 . S
C781 H769 0.950 1_556 S
C781 C777 1.393 . S
C781 C780 1.391 . S
C782 H772 0.950 . S
C782 C783 1.386 . S
C782 C784 1.391 . S
C783 C782 1.386 . S
C783 C787 1.393 . S
C784 H773 0.950 . S
C784 C782 1.391 . S
C784 C785 1.400 . S
C785 C779 1.491 . S
C785 C784 1.400 . S
C785 C786 1.398 . S
C786 H774 0.950 . S
C786 C785 1.398 . S
C786 C787 1.391 . S
C787 H775 0.950 . S
C787 C783 1.393 . S
C787 C786 1.391 . S
H788 C796 0.950 1_556 S
H789 C801 0.950 . S
H790 C798 0.950 . S
H791 C800 0.950 . S
H792 C802 0.950 . S
H793 C804 0.950 . S
H794 C806 0.950 . S
H795 C807 0.950 . S
C796 H788 0.950 1_554 S
C796 C797 1.386 . S
C796 C798 1.391 . S
C797 C796 1.386 . S
C797 C801 1.393 . S
C798 H790 0.950 . S
C798 C796 1.391 . S
C798 C799 1.400 . S
C799 C798 1.400 . S
C799 C800 1.398 . S
C799 C805 1.491 . S
C800 H791 0.950 . S
C800 C799 1.398 . S
C800 C801 1.391 . S
C801 H789 0.950 . S
C801 C797 1.393 . S
C801 C800 1.391 . S
C802 H792 0.950 . S
C802 C803 1.386 . S
C802 C804 1.391 . S
C803 C802 1.386 . S
C803 C807 1.393 . S
C804 H793 0.950 . S
C804 C802 1.391 . S
C804 C805 1.400 . S
C805 C799 1.491 . S
C805 C804 1.400 . S
C805 C806 1.398 . S
C806 H794 0.950 . S
C806 C805 1.398 . S
C806 C807 1.391 . S
C807 H795 0.950 . S
C807 C803 1.393 . S
C807 C806 1.391 . S
H808 C816 0.950 . S
H809 C821 0.950 . S
H810 C818 0.950 . S
H811 C820 0.950 . S
H812 C822 0.950 . S
H813 C824 0.950 . S
H814 C826 0.950 . S
H815 C827 0.950 . S
C816 H808 0.950 . S
C816 C817 1.386 . S
C816 C818 1.391 . S
C817 C816 1.386 . S
C817 C821 1.393 . S
C818 H810 0.950 . S
C818 C816 1.391 . S
C818 C819 1.400 . S
C819 C818 1.400 . S
C819 C820 1.398 . S
C819 C825 1.491 . S
C820 H811 0.950 . S
C820 C819 1.398 . S
C820 C821 1.391 . S
C821 H809 0.950 . S
C821 C817 1.393 . S
C821 C820 1.391 . S
C822 H812 0.950 . S
C822 C823 1.386 . S
C822 C824 1.391 . S
C823 C822 1.386 . S
C823 C827 1.393 . S
C824 H813 0.950 . S
C824 C822 1.391 . S
C824 C825 1.400 . S
C825 C819 1.491 . S
C825 C824 1.400 . S
C825 C826 1.398 . S
C826 H814 0.950 . S
C826 C825 1.398 . S
C826 C827 1.391 . S
C827 H815 0.950 . S
C827 C823 1.393 . S
C827 C826 1.391 . S
H828 C836 0.950 . S
H829 C841 0.950 . S
H830 C838 0.950 . S
H831 C840 0.950 . S
H832 C842 0.950 . S
H833 C844 0.950 . S
H834 C846 0.950 . S
H835 C847 0.950 . S
C836 H828 0.950 . S
C836 C837 1.386 . S
C836 C838 1.391 . S
C837 C836 1.386 . S
C837 C841 1.393 . S
C838 H830 0.950 . S
C838 C836 1.391 . S
C838 C839 1.400 . S
C839 C838 1.400 . S
C839 C840 1.398 . S
C839 C845 1.491 . S
C840 H831 0.950 . S
C840 C839 1.398 . S
C840 C841 1.391 . S
C841 H829 0.950 . S
C841 C837 1.393 . S
C841 C840 1.391 . S
C842 H832 0.950 . S
C842 C843 1.386 . S
C842 C844 1.391 . S
C843 C842 1.386 . S
C843 C847 1.393 . S
C844 H833 0.950 . S
C844 C842 1.391 . S
C844 C845 1.400 . S
C845 C839 1.491 . S
C845 C844 1.400 . S
C845 C846 1.398 . S
C846 H834 0.950 . S
C846 C845 1.398 . S
C846 C847 1.391 . S
C847 H835 0.950 . S
C847 C843 1.393 . S
C847 C846 1.391 . S
H848 C856 0.950 . S
H849 C861 0.950 1_556 S
H850 C858 0.950 . S
H851 C860 0.950 . S
H852 C862 0.950 . S
H853 C864 0.950 . S
H854 C866 0.950 . S
H855 C867 0.950 . S
C856 H848 0.950 . S
C856 C857 1.386 . S
C856 C858 1.391 . S
C857 C856 1.386 . S
C857 C861 1.393 . S
C858 H850 0.950 . S
C858 C856 1.391 . S
C858 C859 1.400 . S
C859 C858 1.400 . S
C859 C860 1.398 . S
C859 C865 1.491 . S
C860 H851 0.950 . S
C860 C859 1.398 . S
C860 C861 1.391 . S
C861 H849 0.950 1_554 S
C861 C857 1.393 . S
C861 C860 1.391 . S
C862 H852 0.950 . S
C862 C863 1.386 . S
C862 C864 1.391 . S
C863 C862 1.386 . S
C863 C867 1.393 . S
C864 H853 0.950 . S
C864 C862 1.391 . S
C864 C865 1.400 . S
C865 C859 1.491 . S
C865 C864 1.400 . S
C865 C866 1.398 . S
C866 H854 0.950 . S
C866 C865 1.398 . S
C866 C867 1.391 . S
C867 H855 0.950 . S
C867 C863 1.393 . S
C867 C866 1.391 . S
H868 C876 0.950 . S
H869 C881 0.950 . S
H870 C878 0.950 . S
H871 C880 0.950 . S
H872 C882 0.950 . S
H873 C884 0.950 . S
H874 C886 0.950 . S
H875 C887 0.950 . S
C876 H868 0.950 . S
C876 C877 1.386 . S
C876 C878 1.391 . S
C877 C876 1.386 . S
C877 C881 1.393 . S
C878 H870 0.950 . S
C878 C876 1.391 . S
C878 C879 1.400 . S
C879 C878 1.400 . S
C879 C880 1.398 . S
C879 C885 1.491 . S
C880 H871 0.950 . S
C880 C879 1.398 . S
C880 C881 1.391 . S
C881 H869 0.950 . S
C881 C877 1.393 . S
C881 C880 1.391 . S
C882 H872 0.950 . S
C882 C883 1.386 . S
C882 C884 1.391 . S
C883 C882 1.386 . S
C883 C887 1.393 . S
C884 H873 0.950 . S
C884 C882 1.391 . S
C884 C885 1.400 . S
C885 C879 1.491 . S
C885 C884 1.400 . S
C885 C886 1.398 . S
C886 H874 0.950 . S
C886 C885 1.398 . S
C886 C887 1.391 . S
C887 H875 0.950 . S
C887 C883 1.393 . S
C887 C886 1.391 . S
H888 C896 0.950 . S
H889 C901 0.950 . S
H890 C898 0.950 . S
H891 C900 0.950 . S
H892 C902 0.950 . S
H893 C904 0.950 . S
H894 C906 0.950 . S
H895 C907 0.950 . S
C896 H888 0.950 . S
C896 C897 1.386 . S
C896 C898 1.391 . S
C897 C896 1.386 . S
C897 C901 1.393 . S
C898 H890 0.950 . S
C898 C896 1.391 . S
C898 C899 1.400 . S
C899 C898 1.400 . S
C899 C900 1.398 . S
C899 C905 1.491 . S
C900 H891 0.950 . S
C900 C899 1.398 . S
C900 C901 1.391 . S
C901 H889 0.950 . S
C901 C897 1.393 . S
C901 C900 1.391 . S
C902 H892 0.950 . S
C902 C903 1.386 . S
C902 C904 1.391 . S
C903 C902 1.386 . S
C903 C907 1.393 . S
C904 H893 0.950 . S
C904 C902 1.391 . S
C904 C905 1.400 . S
C905 C899 1.491 . S
C905 C904 1.400 . S
C905 C906 1.398 . S
C906 H894 0.950 . S
C906 C905 1.398 . S
C906 C907 1.391 . S
C907 H895 0.950 . S
C907 C903 1.393 . S
C907 C906 1.391 . S
H908 C916 0.950 . S
H909 C921 0.950 . S
H910 C918 0.950 . S
H911 C920 0.950 . S
H912 C922 0.950 . S
H913 C924 0.950 . S
H914 C926 0.950 . S
H915 C927 0.950 . S
C916 H908 0.950 . S
C916 C917 1.386 . S
C916 C918 1.391 . S
C917 C916 1.386 . S
C917 C921 1.393 . S
C918 H910 0.950 . S
C918 C916 1.391 . S
C918 C919 1.400 . S
C919 C918 1.400 . S
C919 C920 1.398 . S
C919 C925 1.491 . S
C920 H911 0.950 . S
C920 C919 1.398 . S
C920 C921 1.391 . S
C921 H909 0.950 . S
C921 C917 1.393 . S
C921 C920 1.391 . S
C922 H912 0.950 . S
C922 C923 1.386 . S
C922 C924 1.391 . S
C923 C922 1.386 . S
C923 C927 1.393 . S
C924 H913 0.950 . S
C924 C922 1.391 . S
C924 C925 1.400 . S
C925 C919 1.491 . S
C925 C924 1.400 . S
C925 C926 1.398 . S
C926 H914 0.950 . S
C926 C925 1.398 . S
C926 C927 1.391 . S
C927 H915 0.950 . S
C927 C923 1.393 . S
C927 C926 1.391 . S
H928 C936 0.950 . S
H929 C941 0.950 . S
H930 C938 0.950 . S
H931 C940 0.950 . S
H932 C942 0.950 . S
H933 C944 0.950 . S
H934 C946 0.950 . S
H935 C947 0.950 . S
C936 H928 0.950 . S
C936 C937 1.386 . S
C936 C938 1.391 . S
C937 C936 1.386 . S
C937 C941 1.393 . S
C938 H930 0.950 . S
C938 C936 1.391 . S
C938 C939 1.400 . S
C939 C938 1.400 . S
C939 C940 1.398 . S
C939 C945 1.491 . S
C940 H931 0.950 . S
C940 C939 1.398 . S
C940 C941 1.391 . S
C941 H929 0.950 . S
C941 C937 1.393 . S
C941 C940 1.391 . S
C942 H932 0.950 . S
C942 C943 1.386 . S
C942 C944 1.391 . S
C943 C942 1.386 . S
C943 C947 1.393 . S
C944 H933 0.950 . S
C944 C942 1.391 . S
C944 C945 1.400 . S
C945 C939 1.491 . S
C945 C944 1.400 . S
C945 C946 1.398 . S
C946 H934 0.950 . S
C946 C945 1.398 . S
C946 C947 1.391 . S
C947 H935 0.950 . S
C947 C943 1.393 . S
C947 C946 1.391 . S
H948 C956 0.950 . S
H949 C961 0.950 . S
H950 C958 0.950 . S
H951 C960 0.950 . S
H952 C962 0.950 . S
H953 C964 0.950 . S
H954 C966 0.950 . S
H955 C967 0.950 . S
C956 H948 0.950 . S
C956 C957 1.386 . S
C956 C958 1.391 . S
C957 C956 1.386 . S
C957 C961 1.393 . S
C958 H950 0.950 . S
C958 C956 1.391 . S
C958 C959 1.400 . S
C959 C958 1.400 . S
C959 C960 1.398 . S
C959 C965 1.491 . S
C960 H951 0.950 . S
C960 C959 1.398 . S
C960 C961 1.391 . S
C961 H949 0.950 . S
C961 C957 1.393 . S
C961 C960 1.391 . S
C962 H952 0.950 . S
C962 C963 1.386 . S
C962 C964 1.391 . S
C963 C962 1.386 . S
C963 C967 1.393 . S
C964 H953 0.950 . S
C964 C962 1.391 . S
C964 C965 1.400 . S
C965 C959 1.491 . S
C965 C964 1.400 . S
C965 C966 1.398 . S
C966 H954 0.950 . S
C966 C965 1.398 . S
C966 C967 1.391 . S
C967 H955 0.950 . S
C967 C963 1.393 . S
C967 C966 1.391 . S
H968 C976 0.950 . S
H969 C981 0.950 . S
H970 C978 0.950 . S
H971 C980 0.950 . S
H972 C982 0.950 1_554 S
H973 C984 0.950 . S
H974 C986 0.950 . S
H975 C987 0.950 . S
C976 H968 0.950 . S
C976 C977 1.386 . S
C976 C978 1.391 . S
C977 C976 1.386 . S
C977 C981 1.393 . S
C978 H970 0.950 . S
C978 C976 1.391 . S
C978 C979 1.400 . S
C979 C978 1.400 . S
C979 C980 1.398 . S
C979 C985 1.491 . S
C980 H971 0.950 . S
C980 C979 1.398 . S
C980 C981 1.391 . S
C981 H969 0.950 . S
C981 C977 1.393 . S
C981 C980 1.391 . S
C982 H972 0.950 1_556 S
C982 C983 1.386 . S
C982 C984 1.391 . S
C983 C982 1.386 . S
C983 C987 1.393 . S
C984 H973 0.950 . S
C984 C982 1.391 . S
C984 C985 1.400 . S
C985 C979 1.491 . S
C985 C984 1.400 . S
C985 C986 1.398 . S
C986 H974 0.950 . S
C986 C985 1.398 . S
C986 C987 1.391 . S
C987 H975 0.950 . S
C987 C983 1.393 . S
C987 C986 1.391 . S
H988 C996 0.950 . S
H989 C1001 0.950 . S
H990 C998 0.950 . S
H991 C1000 0.950 . S
H992 C1002 0.950 1_556 S
H993 C1004 0.950 . S
H994 C1006 0.950 . S
H995 C1007 0.950 . S
C996 H988 0.950 . S
C996 C997 1.386 . S
C996 C998 1.391 . S
C997 C996 1.386 . S
C997 C1001 1.393 . S
C998 H990 0.950 . S
C998 C996 1.391 . S
C998 C999 1.400 . S
C999 C998 1.400 . S
C999 C1000 1.398 . S
C999 C1005 1.491 . S
C1000 H991 0.950 . S
C1000 C999 1.398 . S
C1000 C1001 1.391 . S
C1001 H989 0.950 . S
C1001 C997 1.393 . S
C1001 C1000 1.391 . S
C1002 H992 0.950 1_554 S
C1002 C1003 1.386 . S
C1002 C1004 1.391 . S
C1003 C1002 1.386 . S
C1003 C1007 1.393 . S
C1004 H993 0.950 . S
C1004 C1002 1.391 . S
C1004 C1005 1.400 . S
C1005 C999 1.491 . S
C1005 C1004 1.400 . S
C1005 C1006 1.398 . S
C1006 H994 0.950 . S
C1006 C1005 1.398 . S
C1006 C1007 1.391 . S
C1007 H995 0.950 . S
C1007 C1003 1.393 . S
C1007 C1006 1.391 . S
H1008 C1016 0.950 . S
H1009 C1021 0.950 . S
H1010 C1018 0.950 . S
H1011 C1020 0.950 . S
H1012 C1022 0.950 . S
H1013 C1024 0.950 . S
H1014 C1026 0.950 . S
H1015 C1027 0.950 . S
C1016 H1008 0.950 . S
C1016 C1017 1.386 . S
C1016 C1018 1.391 . S
C1017 C1016 1.386 . S
C1017 C1021 1.393 . S
C1018 H1010 0.950 . S
C1018 C1016 1.391 . S
C1018 C1019 1.400 . S
C1019 C1018 1.400 . S
C1019 C1020 1.398 . S
C1019 C1025 1.491 . S
C1020 H1011 0.950 . S
C1020 C1019 1.398 . S
C1020 C1021 1.391 . S
C1021 H1009 0.950 . S
C1021 C1017 1.393 . S
C1021 C1020 1.391 . S
C1022 H1012 0.950 . S
C1022 C1023 1.386 . S
C1022 C1024 1.391 . S
C1023 C1022 1.386 . S
C1023 C1027 1.393 . S
C1024 H1013 0.950 . S
C1024 C1022 1.391 . S
C1024 C1025 1.400 . S
C1025 C1019 1.491 . S
C1025 C1024 1.400 . S
C1025 C1026 1.398 . S
C1026 H1014 0.950 . S
C1026 C1025 1.398 . S
C1026 C1027 1.391 . S
C1027 H1015 0.950 . S
C1027 C1023 1.393 . S
C1027 C1026 1.391 . S
H1028 C1036 0.950 . S
H1029 C1041 0.950 . S
H1030 C1038 0.950 . S
H1031 C1040 0.950 . S
H1032 C1042 0.950 . S
H1033 C1044 0.950 . S
H1034 C1046 0.950 . S
H1035 C1047 0.950 . S
C1036 H1028 0.950 . S
C1036 C1037 1.386 . S
C1036 C1038 1.391 . S
C1037 C1036 1.386 . S
C1037 C1041 1.393 . S
C1038 H1030 0.950 . S
C1038 C1036 1.391 . S
C1038 C1039 1.400 . S
C1039 C1038 1.400 . S
C1039 C1040 1.398 . S
C1039 C1045 1.491 . S
C1040 H1031 0.950 . S
C1040 C1039 1.398 . S
C1040 C1041 1.391 . S
C1041 H1029 0.950 . S
C1041 C1037 1.393 . S
C1041 C1040 1.391 . S
C1042 H1032 0.950 . S
C1042 C1043 1.386 . S
C1042 C1044 1.391 . S
C1043 C1042 1.386 . S
C1043 C1047 1.393 . S
C1044 H1033 0.950 . S
C1044 C1042 1.391 . S
C1044 C1045 1.400 . S
C1045 C1039 1.491 . S
C1045 C1044 1.400 . S
C1045 C1046 1.398 . S
C1046 H1034 0.950 . S
C1046 C1045 1.398 . S
C1046 C1047 1.391 . S
C1047 H1035 0.950 . S
C1047 C1043 1.393 . S
C1047 C1046 1.391 . S
H1048 C1056 0.950 . S
H1049 C1061 0.950 1_556 S
H1050 C1058 0.950 . S
H1051 C1060 0.950 . S
H1052 C1062 0.950 . S
H1053 C1064 0.950 . S
H1054 C1066 0.950 . S
H1055 C1067 0.950 . S
C1056 H1048 0.950 . S
C1056 C1057 1.386 . S
C1056 C1058 1.391 . S
C1057 C1056 1.386 . S
C1057 C1061 1.393 . S
C1058 H1050 0.950 . S
C1058 C1056 1.391 . S
C1058 C1059 1.400 . S
C1059 C1058 1.400 . S
C1059 C1060 1.398 . S
C1059 C1065 1.491 . S
C1060 H1051 0.950 . S
C1060 C1059 1.398 . S
C1060 C1061 1.391 . S
C1061 H1049 0.950 1_554 S
C1061 C1057 1.393 . S
C1061 C1060 1.391 . S
C1062 H1052 0.950 . S
C1062 C1063 1.386 . S
C1062 C1064 1.391 . S
C1063 C1062 1.386 . S
C1063 C1067 1.393 . S
C1064 H1053 0.950 . S
C1064 C1062 1.391 . S
C1064 C1065 1.400 . S
C1065 C1059 1.491 . S
C1065 C1064 1.400 . S
C1065 C1066 1.398 . S
C1066 H1054 0.950 . S
C1066 C1065 1.398 . S
C1066 C1067 1.391 . S
C1067 H1055 0.950 . S
C1067 C1063 1.393 . S
C1067 C1066 1.391 . S
H1068 C1076 0.950 . S
H1069 C1081 0.950 . S
H1070 C1078 0.950 . S
H1071 C1080 0.950 . S
H1072 C1082 0.950 . S
H1073 C1084 0.950 . S
H1074 C1086 0.950 . S
H1075 C1087 0.950 1_554 S
C1076 H1068 0.950 . S
C1076 C1077 1.386 . S
C1076 C1078 1.391 . S
C1077 C1076 1.386 . S
C1077 C1081 1.393 . S
C1078 H1070 0.950 . S
C1078 C1076 1.391 . S
C1078 C1079 1.400 . S
C1079 C1078 1.400 . S
C1079 C1080 1.398 . S
C1079 C1085 1.491 . S
C1080 H1071 0.950 . S
C1080 C1079 1.398 . S
C1080 C1081 1.391 . S
C1081 H1069 0.950 . S
C1081 C1077 1.393 . S
C1081 C1080 1.391 . S
C1082 H1072 0.950 . S
C1082 C1083 1.386 . S
C1082 C1084 1.391 . S
C1083 C1082 1.386 . S
C1083 C1087 1.393 . S
C1084 H1073 0.950 . S
C1084 C1082 1.391 . S
C1084 C1085 1.400 . S
C1085 C1079 1.491 . S
C1085 C1084 1.400 . S
C1085 C1086 1.398 . S
C1086 H1074 0.950 . S
C1086 C1085 1.398 . S
C1086 C1087 1.391 . S
C1087 H1075 0.950 1_556 S
C1087 C1083 1.393 . S
C1087 C1086 1.391 . S
H1088 C1096 0.950 . S
H1089 C1101 0.950 . S
H1090 C1098 0.950 . S
H1091 C1100 0.950 . S
H1092 C1102 0.950 . S
H1093 C1104 0.950 . S
H1094 C1106 0.950 . S
H1095 C1107 0.950 . S
C1096 H1088 0.950 . S
C1096 C1097 1.386 . S
C1096 C1098 1.391 . S
C1097 C1096 1.386 . S
C1097 C1101 1.393 . S
C1098 H1090 0.950 . S
C1098 C1096 1.391 . S
C1098 C1099 1.400 . S
C1099 C1098 1.400 . S
C1099 C1100 1.398 . S
C1099 C1105 1.491 . S
C1100 H1091 0.950 . S
C1100 C1099 1.398 . S
C1100 C1101 1.391 . S
C1101 H1089 0.950 . S
C1101 C1097 1.393 . S
C1101 C1100 1.391 . S
C1102 H1092 0.950 . S
C1102 C1103 1.386 . S
C1102 C1104 1.391 . S
C1103 C1102 1.386 . S
C1103 C1107 1.393 . S
C1104 H1093 0.950 . S
C1104 C1102 1.391 . S
C1104 C1105 1.400 . S
C1105 C1099 1.491 . S
C1105 C1104 1.400 . S
C1105 C1106 1.398 . S
C1106 H1094 0.950 . S
C1106 C1105 1.398 . S
C1106 C1107 1.391 . S
C1107 H1095 0.950 . S
C1107 C1103 1.393 . S
C1107 C1106 1.391 . S
H1108 C1116 0.950 . S
H1109 C1121 0.950 . S
H1110 C1118 0.950 . S
H1111 C1120 0.950 . S
H1112 C1122 0.950 . S
H1113 C1124 0.950 . S
H1114 C1126 0.950 . S
H1115 C1127 0.950 . S
C1116 H1108 0.950 . S
C1116 C1117 1.386 . S
C1116 C1118 1.391 . S
C1117 C1116 1.386 . S
C1117 C1121 1.393 . S
C1118 H1110 0.950 . S
C1118 C1116 1.391 . S
C1118 C1119 1.400 . S
C1119 C1118 1.400 . S
C1119 C1120 1.398 . S
C1119 C1125 1.491 1_655 S
C1120 H1111 0.950 . S
C1120 C1119 1.398 . S
C1120 C1121 1.391 . S
C1121 H1109 0.950 . S
C1121 C1117 1.393 . S
C1121 C1120 1.391 . S
C1122 H1112 0.950 . S
C1122 C1123 1.386 . S
C1122 C1124 1.391 . S
C1123 C1122 1.386 . S
C1123 C1127 1.393 . S
C1124 H1113 0.950 . S
C1124 C1122 1.391 . S
C1124 C1125 1.400 . S
C1125 C1119 1.491 1_455 S
C1125 C1124 1.400 . S
C1125 C1126 1.398 . S
C1126 H1114 0.950 . S
C1126 C1125 1.398 . S
C1126 C1127 1.391 . S
C1127 H1115 0.950 . S
C1127 C1123 1.393 . S
C1127 C1126 1.391 . S
H1128 C1136 0.950 . S
H1129 C1141 0.950 . S
H1130 C1138 0.950 . S
H1131 C1140 0.950 . S
H1132 C1142 0.950 . S
H1133 C1144 0.950 . S
H1134 C1146 0.950 . S
H1135 C1147 0.950 . S
C1136 H1128 0.950 . S
C1136 C1137 1.386 . S
C1136 C1138 1.391 . S
C1137 C1136 1.386 . S
C1137 C1141 1.393 . S
C1138 H1130 0.950 . S
C1138 C1136 1.391 . S
C1138 C1139 1.400 . S
C1139 C1138 1.400 . S
C1139 C1140 1.398 . S
C1139 C1145 1.491 . S
C1140 H1131 0.950 . S
C1140 C1139 1.398 . S
C1140 C1141 1.391 . S
C1141 H1129 0.950 . S
C1141 C1137 1.393 . S
C1141 C1140 1.391 . S
C1142 H1132 0.950 . S
C1142 C1143 1.386 . S
C1142 C1144 1.391 . S
C1143 C1142 1.386 . S
C1143 C1147 1.393 . S
C1144 H1133 0.950 . S
C1144 C1142 1.391 . S
C1144 C1145 1.400 . S
C1145 C1139 1.491 . S
C1145 C1144 1.400 . S
C1145 C1146 1.398 . S
C1146 H1134 0.950 . S
C1146 C1145 1.398 . S
C1146 C1147 1.391 . S
C1147 H1135 0.950 . S
C1147 C1143 1.393 . S
C1147 C1146 1.391 . S
H1148 C1156 0.950 . S
H1149 C1161 0.950 . S
H1150 C1158 0.950 . S
H1151 C1160 0.950 . S
H1152 C1162 0.950 . S
H1153 C1164 0.950 . S
H1154 C1166 0.950 . S
H1155 C1167 0.950 . S
C1156 H1148 0.950 . S
C1156 C1157 1.386 . S
C1156 C1158 1.391 . S
C1157 C1156 1.386 . S
C1157 C1161 1.393 . S
C1158 H1150 0.950 . S
C1158 C1156 1.391 . S
C1158 C1159 1.400 . S
C1159 C1158 1.400 . S
C1159 C1160 1.398 . S
C1159 C1165 1.491 . S
C1160 H1151 0.950 . S
C1160 C1159 1.398 . S
C1160 C1161 1.391 . S
C1161 H1149 0.950 . S
C1161 C1157 1.393 . S
C1161 C1160 1.391 . S
C1162 H1152 0.950 . S
C1162 C1163 1.386 . S
C1162 C1164 1.391 . S
C1163 C1162 1.386 . S
C1163 C1167 1.393 . S
C1164 H1153 0.950 . S
C1164 C1162 1.391 . S
C1164 C1165 1.400 . S
C1165 C1159 1.491 . S
C1165 C1164 1.400 . S
C1165 C1166 1.398 . S
C1166 H1154 0.950 . S
C1166 C1165 1.398 . S
C1166 C1167 1.391 . S
C1167 H1155 0.950 . S
C1167 C1163 1.393 . S
C1167 C1166 1.391 . S
H1168 C1176 0.950 . S
H1169 C1181 0.950 . S
H1170 C1178 0.950 . S
H1171 C1180 0.950 . S
H1172 C1182 0.950 . S
H1173 C1184 0.950 . S
H1174 C1186 0.950 . S
H1175 C1187 0.950 . S
C1176 H1168 0.950 . S
C1176 C1177 1.386 . S
C1176 C1178 1.391 . S
C1177 C1176 1.386 . S
C1177 C1181 1.393 . S
C1178 H1170 0.950 . S
C1178 C1176 1.391 . S
C1178 C1179 1.400 . S
C1179 C1178 1.400 . S
C1179 C1180 1.398 . S
C1179 C1185 1.491 . S
C1180 H1171 0.950 . S
C1180 C1179 1.398 . S
C1180 C1181 1.391 . S
C1181 H1169 0.950 . S
C1181 C1177 1.393 . S
C1181 C1180 1.391 . S
C1182 H1172 0.950 . S
C1182 C1183 1.386 . S
C1182 C1184 1.391 . S
C1183 C1182 1.386 . S
C1183 C1187 1.393 . S
C1184 H1173 0.950 . S
C1184 C1182 1.391 . S
C1184 C1185 1.400 . S
C1185 C1179 1.491 . S
C1185 C1184 1.400 . S
C1185 C1186 1.398 . S
C1186 H1174 0.950 . S
C1186 C1185 1.398 . S
C1186 C1187 1.391 . S
C1187 H1175 0.950 . S
C1187 C1183 1.393 . S
C1187 C1186 1.391 . S
H1188 C1196 0.950 . S
H1189 C1201 0.950 . S
H1190 C1198 0.950 . S
H1191 C1200 0.950 . S
H1192 C1202 0.950 . S
H1193 C1204 0.950 . S
H1194 C1206 0.950 . S
H1195 C1207 0.950 . S
C1196 H1188 0.950 . S
C1196 C1197 1.386 . S
C1196 C1198 1.391 . S
C1197 C1196 1.386 . S
C1197 C1201 1.393 . S
C1198 H1190 0.950 . S
C1198 C1196 1.391 . S
C1198 C1199 1.400 . S
C1199 C1198 1.400 . S
C1199 C1200 1.398 . S
C1199 C1205 1.491 . S
C1200 H1191 0.950 . S
C1200 C1199 1.398 . S
C1200 C1201 1.391 . S
C1201 H1189 0.950 . S
C1201 C1197 1.393 . S
C1201 C1200 1.391 . S
C1202 H1192 0.950 . S
C1202 C1203 1.386 . S
C1202 C1204 1.391 . S
C1203 C1202 1.386 . S
C1203 C1207 1.393 . S
C1204 H1193 0.950 . S
C1204 C1202 1.391 . S
C1204 C1205 1.400 . S
C1205 C1199 1.491 . S
C1205 C1204 1.400 . S
C1205 C1206 1.398 . S
C1206 H1194 0.950 . S
C1206 C1205 1.398 . S
C1206 C1207 1.391 . S
C1207 H1195 0.950 . S
C1207 C1203 1.393 . S
C1207 C1206 1.391 . S
H1208 C1216 0.950 . S
H1209 C1221 0.950 . S
H1210 C1218 0.950 . S
H1211 C1220 0.950 . S
H1212 C1222 0.950 . S
H1213 C1224 0.950 . S
H1214 C1226 0.950 . S
H1215 C1227 0.950 . S
C1216 H1208 0.950 . S
C1216 C1217 1.386 . S
C1216 C1218 1.391 . S
C1217 C1216 1.386 . S
C1217 C1221 1.393 . S
C1218 H1210 0.950 . S
C1218 C1216 1.391 . S
C1218 C1219 1.400 . S
C1219 C1218 1.400 . S
C1219 C1220 1.398 . S
C1219 C1225 1.491 . S
C1220 H1211 0.950 . S
C1220 C1219 1.398 . S
C1220 C1221 1.391 . S
C1221 H1209 0.950 . S
C1221 C1217 1.393 . S
C1221 C1220 1.391 . S
C1222 H1212 0.950 . S
C1222 C1223 1.386 . S
C1222 C1224 1.391 . S
C1223 C1222 1.386 . S
C1223 C1227 1.393 . S
C1224 H1213 0.950 . S
C1224 C1222 1.391 . S
C1224 C1225 1.400 . S
C1225 C1219 1.491 . S
C1225 C1224 1.400 . S
C1225 C1226 1.398 . S
C1226 H1214 0.950 . S
C1226 C1225 1.398 . S
C1226 C1227 1.391 . S
C1227 H1215 0.950 . S
C1227 C1223 1.393 . S
C1227 C1226 1.391 . S
H1228 C1236 0.950 . S
H1229 C1241 0.950 . S
H1230 C1238 0.950 . S
H1231 C1240 0.950 . S
H1232 C1242 0.950 . S
H1233 C1244 0.950 . S
H1234 C1246 0.950 . S
H1235 C1247 0.950 . S
C1236 H1228 0.950 . S
C1236 C1237 1.386 . S
C1236 C1238 1.391 . S
C1237 C1236 1.386 . S
C1237 C1241 1.393 . S
C1238 H1230 0.950 . S
C1238 C1236 1.391 . S
C1238 C1239 1.400 . S
C1239 C1238 1.400 . S
C1239 C1240 1.398 . S
C1239 C1245 1.491 1_655 S
C1240 H1231 0.950 . S
C1240 C1239 1.398 . S
C1240 C1241 1.391 . S
C1241 H1229 0.950 . S
C1241 C1237 1.393 . S
C1241 C1240 1.391 . S
C1242 H1232 0.950 . S
C1242 C1243 1.386 . S
C1242 C1244 1.391 . S
C1243 C1242 1.386 . S
C1243 C1247 1.393 . S
C1244 H1233 0.950 . S
C1244 C1242 1.391 . S
C1244 C1245 1.400 . S
C1245 C1239 1.491 1_455 S
C1245 C1244 1.400 . S
C1245 C1246 1.398 . S
C1246 H1234 0.950 . S
C1246 C1245 1.398 . S
C1246 C1247 1.391 . S
C1247 H1235 0.950 . S
C1247 C1243 1.393 . S
C1247 C1246 1.391 . S
H1248 C1256 0.950 . S
H1249 C1261 0.950 . S
H1250 C1258 0.950 . S
H1251 C1260 0.950 . S
H1252 C1262 0.950 . S
H1253 C1264 0.950 . S
H1254 C1266 0.950 . S
H1255 C1267 0.950 . S
C1256 H1248 0.950 . S
C1256 C1257 1.386 . S
C1256 C1258 1.391 . S
C1257 C1256 1.386 . S
C1257 C1261 1.393 . S
C1258 H1250 0.950 . S
C1258 C1256 1.391 . S
C1258 C1259 1.400 . S
C1259 C1258 1.400 . S
C1259 C1260 1.398 . S
C1259 C1265 1.491 . S
C1260 H1251 0.950 . S
C1260 C1259 1.398 . S
C1260 C1261 1.391 . S
C1261 H1249 0.950 . S
C1261 C1257 1.393 . S
C1261 C1260 1.391 . S
C1262 H1252 0.950 . S
C1262 C1263 1.386 . S
C1262 C1264 1.391 . S
C1263 C1262 1.386 . S
C1263 C1267 1.393 . S
C1264 H1253 0.950 . S
C1264 C1262 1.391 . S
C1264 C1265 1.400 . S
C1265 C1259 1.491 . S
C1265 C1264 1.400 . S
C1265 C1266 1.398 . S
C1266 H1254 0.950 . S
C1266 C1265 1.398 . S
C1266 C1267 1.391 . S
C1267 H1255 0.950 . S
C1267 C1263 1.393 . S
C1267 C1266 1.391 . S
H1268 C1276 0.950 . S
H1269 C1281 0.950 . S
H1270 C1278 0.950 . S
H1271 C1280 0.950 . S
H1272 C1282 0.950 . S
H1273 C1284 0.950 . S
H1274 C1286 0.950 . S
H1275 C1287 0.950 . S
C1276 H1268 0.950 . S
C1276 C1277 1.386 . S
C1276 C1278 1.391 . S
C1277 C1276 1.386 . S
C1277 C1281 1.393 . S
C1278 H1270 0.950 . S
C1278 C1276 1.391 . S
C1278 C1279 1.400 . S
C1279 C1278 1.400 . S
C1279 C1280 1.398 . S
C1279 C1285 1.491 . S
C1280 H1271 0.950 . S
C1280 C1279 1.398 . S
C1280 C1281 1.391 . S
C1281 H1269 0.950 . S
C1281 C1277 1.393 . S
C1281 C1280 1.391 . S
C1282 H1272 0.950 . S
C1282 C1283 1.386 . S
C1282 C1284 1.391 . S
C1283 C1282 1.386 . S
C1283 C1287 1.393 . S
C1284 H1273 0.950 . S
C1284 C1282 1.391 . S
C1284 C1285 1.400 . S
C1285 C1279 1.491 . S
C1285 C1284 1.400 . S
C1285 C1286 1.398 . S
C1286 H1274 0.950 . S
C1286 C1285 1.398 . S
C1286 C1287 1.391 . S
C1287 H1275 0.950 . S
C1287 C1283 1.393 . S
C1287 C1286 1.391 . S
H1288 C1296 0.950 . S
H1289 C1301 0.950 . S
H1290 C1298 0.950 . S
H1291 C1300 0.950 . S
H1292 C1302 0.950 . S
H1293 C1304 0.950 . S
H1294 C1306 0.950 . S
H1295 C1307 0.950 . S
C1296 H1288 0.950 . S
C1296 C1297 1.386 . S
C1296 C1298 1.391 . S
C1297 C1296 1.386 . S
C1297 C1301 1.393 . S
C1298 H1290 0.950 . S
C1298 C1296 1.391 . S
C1298 C1299 1.400 . S
C1299 C1298 1.400 . S
C1299 C1300 1.398 . S
C1299 C1305 1.491 . S
C1300 H1291 0.950 . S
C1300 C1299 1.398 . S
C1300 C1301 1.391 . S
C1301 H1289 0.950 . S
C1301 C1297 1.393 . S
C1301 C1300 1.391 . S
C1302 H1292 0.950 . S
C1302 C1303 1.386 . S
C1302 C1304 1.391 . S
C1303 C1302 1.386 . S
C1303 C1307 1.393 . S
C1304 H1293 0.950 . S
C1304 C1302 1.391 . S
C1304 C1305 1.400 . S
C1305 C1299 1.491 . S
C1305 C1304 1.400 . S
C1305 C1306 1.398 . S
C1306 H1294 0.950 . S
C1306 C1305 1.398 . S
C1306 C1307 1.391 . S
C1307 H1295 0.950 . S
C1307 C1303 1.393 . S
C1307 C1306 1.391 . S
H1308 C1316 0.950 . S
H1309 C1321 0.950 . S
H1310 C1318 0.950 . S
H1311 C1320 0.950 . S
H1312 C1322 0.950 . S
H1313 C1324 0.950 . S
H1314 C1326 0.950 . S
H1315 C1327 0.950 . S
C1316 H1308 0.950 . S
C1316 C1317 1.386 . S
C1316 C1318 1.391 . S
C1317 C1316 1.386 . S
C1317 C1321 1.393 . S
C1318 H1310 0.950 . S
C1318 C1316 1.391 . S
C1318 C1319 1.400 . S
C1319 C1318 1.400 . S
C1319 C1320 1.398 . S
C1319 C1325 1.491 . S
C1320 H1311 0.950 . S
C1320 C1319 1.398 . S
C1320 C1321 1.391 . S
C1321 H1309 0.950 . S
C1321 C1317 1.393 . S
C1321 C1320 1.391 . S
C1322 H1312 0.950 . S
C1322 C1323 1.386 . S
C1322 C1324 1.391 . S
C1323 C1322 1.386 . S
C1323 C1327 1.393 . S
C1324 H1313 0.950 . S
C1324 C1322 1.391 . S
C1324 C1325 1.400 . S
C1325 C1319 1.491 . S
C1325 C1324 1.400 . S
C1325 C1326 1.398 . S
C1326 H1314 0.950 . S
C1326 C1325 1.398 . S
C1326 C1327 1.391 . S
C1327 H1315 0.950 . S
C1327 C1323 1.393 . S
C1327 C1326 1.391 . S
H1328 C1336 0.950 . S
H1329 C1341 0.950 . S
H1330 C1338 0.950 . S
H1331 C1340 0.950 . S
H1332 C1342 0.950 . S
H1333 C1344 0.950 . S
H1334 C1346 0.950 . S
H1335 C1347 0.950 . S
C1336 H1328 0.950 . S
C1336 C1337 1.386 . S
C1336 C1338 1.391 . S
C1337 C1336 1.386 . S
C1337 C1341 1.393 . S
C1338 H1330 0.950 . S
C1338 C1336 1.391 . S
C1338 C1339 1.400 . S
C1339 C1338 1.400 . S
C1339 C1340 1.398 . S
C1339 C1345 1.491 . S
C1340 H1331 0.950 . S
C1340 C1339 1.398 . S
C1340 C1341 1.391 . S
C1341 H1329 0.950 . S
C1341 C1337 1.393 . S
C1341 C1340 1.391 . S
C1342 H1332 0.950 . S
C1342 C1343 1.386 . S
C1342 C1344 1.391 . S
C1343 C1342 1.386 . S
C1343 C1347 1.393 . S
C1344 H1333 0.950 . S
C1344 C1342 1.391 . S
C1344 C1345 1.400 . S
C1345 C1339 1.491 . S
C1345 C1344 1.400 . S
C1345 C1346 1.398 . S
C1346 H1334 0.950 . S
C1346 C1345 1.398 . S
C1346 C1347 1.391 . S
C1347 H1335 0.950 . S
C1347 C1343 1.393 . S
C1347 C1346 1.391 . S
H1348 C1356 0.950 . S
H1349 C1361 0.950 . S
H1350 C1358 0.950 . S
H1351 C1360 0.950 . S
H1352 C1362 0.950 . S
H1353 C1364 0.950 . S
H1354 C1366 0.950 . S
H1355 C1367 0.950 . S
C1356 H1348 0.950 . S
C1356 C1357 1.386 . S
C1356 C1358 1.391 . S
C1357 C1356 1.386 . S
C1357 C1361 1.393 . S
C1358 H1350 0.950 . S
C1358 C1356 1.391 . S
C1358 C1359 1.400 . S
C1359 C1358 1.400 . S
C1359 C1360 1.398 . S
C1359 C1365 1.491 1_655 S
C1360 H1351 0.950 . S
C1360 C1359 1.398 . S
C1360 C1361 1.391 . S
C1361 H1349 0.950 . S
C1361 C1357 1.393 . S
C1361 C1360 1.391 . S
C1362 H1352 0.950 . S
C1362 C1363 1.386 . S
C1362 C1364 1.391 . S
C1363 C1362 1.386 . S
C1363 C1367 1.393 . S
C1364 H1353 0.950 . S
C1364 C1362 1.391 . S
C1364 C1365 1.400 . S
C1365 C1359 1.491 1_455 S
C1365 C1364 1.400 . S
C1365 C1366 1.398 . S
C1366 H1354 0.950 . S
C1366 C1365 1.398 . S
C1366 C1367 1.391 . S
C1367 H1355 0.950 . S
C1367 C1363 1.393 . S
C1367 C1366 1.391 . S
H1368 C1376 0.950 . S
H1369 C1381 0.950 . S
H1370 C1378 0.950 . S
H1371 C1380 0.950 . S
H1372 C1382 0.950 . S
H1373 C1384 0.950 . S
H1374 C1386 0.950 . S
H1375 C1387 0.950 . S
C1376 H1368 0.950 . S
C1376 C1377 1.386 . S
C1376 C1378 1.391 . S
C1377 C1376 1.386 . S
C1377 C1381 1.393 . S
C1378 H1370 0.950 . S
C1378 C1376 1.391 . S
C1378 C1379 1.400 . S
C1379 C1378 1.400 . S
C1379 C1380 1.398 . S
C1379 C1385 1.491 1_655 S
C1380 H1371 0.950 . S
C1380 C1379 1.398 . S
C1380 C1381 1.391 . S
C1381 H1369 0.950 . S
C1381 C1377 1.393 . S
C1381 C1380 1.391 . S
C1382 H1372 0.950 . S
C1382 C1383 1.386 . S
C1382 C1384 1.391 . S
C1383 C1382 1.386 . S
C1383 C1387 1.393 . S
C1384 H1373 0.950 . S
C1384 C1382 1.391 . S
C1384 C1385 1.400 . S
C1385 C1379 1.491 1_455 S
C1385 C1384 1.400 . S
C1385 C1386 1.398 . S
C1386 H1374 0.950 . S
C1386 C1385 1.398 . S
C1386 C1387 1.391 . S
C1387 H1375 0.950 . S
C1387 C1383 1.393 . S
C1387 C1386 1.391 . S
H1388 C1396 0.950 . S
H1389 C1401 0.950 . S
H1390 C1398 0.950 . S
H1391 C1400 0.950 . S
H1392 C1402 0.950 . S
H1393 C1404 0.950 . S
H1394 C1406 0.950 . S
H1395 C1407 0.950 . S
C1396 H1388 0.950 . S
C1396 C1397 1.386 . S
C1396 C1398 1.391 . S
C1397 C1396 1.386 . S
C1397 C1401 1.393 . S
C1398 H1390 0.950 . S
C1398 C1396 1.391 . S
C1398 C1399 1.400 . S
C1399 C1398 1.400 . S
C1399 C1400 1.398 . S
C1399 C1405 1.491 . S
C1400 H1391 0.950 . S
C1400 C1399 1.398 . S
C1400 C1401 1.391 . S
C1401 H1389 0.950 . S
C1401 C1397 1.393 . S
C1401 C1400 1.391 . S
C1402 H1392 0.950 . S
C1402 C1403 1.386 . S
C1402 C1404 1.391 . S
C1403 C1402 1.386 . S
C1403 C1407 1.393 . S
C1404 H1393 0.950 . S
C1404 C1402 1.391 . S
C1404 C1405 1.400 . S
C1405 C1399 1.491 . S
C1405 C1404 1.400 . S
C1405 C1406 1.398 . S
C1406 H1394 0.950 . S
C1406 C1405 1.398 . S
C1406 C1407 1.391 . S
C1407 H1395 0.950 . S
C1407 C1403 1.393 . S
C1407 C1406 1.391 . S
H1408 C1416 0.950 . S
H1409 C1421 0.950 . S
H1410 C1418 0.950 . S
H1411 C1420 0.950 . S
H1412 C1422 0.950 . S
H1413 C1424 0.950 . S
H1414 C1426 0.950 . S
H1415 C1427 0.950 . S
C1416 H1408 0.950 . S
C1416 C1417 1.386 . S
C1416 C1418 1.391 . S
C1417 C1416 1.386 . S
C1417 C1421 1.393 . S
C1418 H1410 0.950 . S
C1418 C1416 1.391 . S
C1418 C1419 1.400 . S
C1419 C1418 1.400 . S
C1419 C1420 1.398 . S
C1419 C1425 1.491 . S
C1420 H1411 0.950 . S
C1420 C1419 1.398 . S
C1420 C1421 1.391 . S
C1421 H1409 0.950 . S
C1421 C1417 1.393 . S
C1421 C1420 1.391 . S
C1422 H1412 0.950 . S
C1422 C1423 1.386 . S
C1422 C1424 1.391 . S
C1423 C1422 1.386 . S
C1423 C1427 1.393 . S
C1424 H1413 0.950 . S
C1424 C1422 1.391 . S
C1424 C1425 1.400 . S
C1425 C1419 1.491 . S
C1425 C1424 1.400 . S
C1425 C1426 1.398 . S
C1426 H1414 0.950 . S
C1426 C1425 1.398 . S
C1426 C1427 1.391 . S
C1427 H1415 0.950 . S
C1427 C1423 1.393 . S
C1427 C1426 1.391 . S
H1428 C1436 0.950 . S
H1429 C1441 0.950 . S
H1430 C1438 0.950 . S
H1431 C1440 0.950 . S
H1432 C1442 0.950 . S
H1433 C1444 0.950 . S
H1434 C1446 0.950 . S
H1435 C1447 0.950 . S
C1436 H1428 0.950 . S
C1436 C1437 1.386 . S
C1436 C1438 1.391 . S
C1437 C1436 1.386 . S
C1437 C1441 1.393 . S
C1438 H1430 0.950 . S
C1438 C1436 1.391 . S
C1438 C1439 1.400 . S
C1439 C1438 1.400 . S
C1439 C1440 1.398 . S
C1439 C1445 1.491 . S
C1440 H1431 0.950 . S
C1440 C1439 1.398 . S
C1440 C1441 1.391 . S
C1441 H1429 0.950 . S
C1441 C1437 1.393 . S
C1441 C1440 1.391 . S
C1442 H1432 0.950 . S
C1442 C1443 1.386 . S
C1442 C1444 1.391 . S
C1443 C1442 1.386 . S
C1443 C1447 1.393 . S
C1444 H1433 0.950 . S
C1444 C1442 1.391 . S
C1444 C1445 1.400 . S
C1445 C1439 1.491 . S
C1445 C1444 1.400 . S
C1445 C1446 1.398 . S
C1446 H1434 0.950 . S
C1446 C1445 1.398 . S
C1446 C1447 1.391 . S
C1447 H1435 0.950 . S
C1447 C1443 1.393 . S
C1447 C1446 1.391 . S
H1448 C1456 0.950 1_554 S
H1449 C1461 0.950 . S
H1450 C1458 0.950 . S
H1451 C1460 0.950 . S
H1452 C1462 0.950 . S
H1453 C1464 0.950 . S
H1454 C1466 0.950 . S
H1455 C1467 0.950 . S
C1456 H1448 0.950 1_556 S
C1456 C1457 1.386 . S
C1456 C1458 1.391 . S
C1457 C1456 1.386 . S
C1457 C1461 1.393 . S
C1458 H1450 0.950 . S
C1458 C1456 1.391 . S
C1458 C1459 1.400 . S
C1459 C1458 1.400 . S
C1459 C1460 1.398 . S
C1459 C1465 1.491 . S
C1460 H1451 0.950 . S
C1460 C1459 1.398 . S
C1460 C1461 1.391 . S
C1461 H1449 0.950 . S
C1461 C1457 1.393 . S
C1461 C1460 1.391 . S
C1462 H1452 0.950 . S
C1462 C1463 1.386 . S
C1462 C1464 1.391 . S
C1463 C1462 1.386 . S
C1463 C1467 1.393 . S
C1464 H1453 0.950 . S
C1464 C1462 1.391 . S
C1464 C1465 1.400 . S
C1465 C1459 1.491 . S
C1465 C1464 1.400 . S
C1465 C1466 1.398 . S
C1466 H1454 0.950 . S
C1466 C1465 1.398 . S
C1466 C1467 1.391 . S
C1467 H1455 0.950 . S
C1467 C1463 1.393 . S
C1467 C1466 1.391 . S
H1468 C1476 0.950 1_556 S
H1469 C1481 0.950 . S
H1470 C1478 0.950 . S
H1471 C1480 0.950 . S
H1472 C1482 0.950 . S
H1473 C1484 0.950 . S
H1474 C1486 0.950 . S
H1475 C1487 0.950 . S
C1476 H1468 0.950 1_554 S
C1476 C1477 1.386 . S
C1476 C1478 1.391 . S
C1477 C1476 1.386 . S
C1477 C1481 1.393 . S
C1478 H1470 0.950 . S
C1478 C1476 1.391 . S
C1478 C1479 1.400 . S
C1479 C1478 1.400 . S
C1479 C1480 1.398 . S
C1479 C1485 1.491 . S
C1480 H1471 0.950 . S
C1480 C1479 1.398 . S
C1480 C1481 1.391 . S
C1481 H1469 0.950 . S
C1481 C1477 1.393 . S
C1481 C1480 1.391 . S
C1482 H1472 0.950 . S
C1482 C1483 1.386 . S
C1482 C1484 1.391 . S
C1483 C1482 1.386 . S
C1483 C1487 1.393 . S
C1484 H1473 0.950 . S
C1484 C1482 1.391 . S
C1484 C1485 1.400 . S
C1485 C1479 1.491 . S
C1485 C1484 1.400 . S
C1485 C1486 1.398 . S
C1486 H1474 0.950 . S
C1486 C1485 1.398 . S
C1486 C1487 1.391 . S
C1487 H1475 0.950 . S
C1487 C1483 1.393 . S
C1487 C1486 1.391 . S
H1488 C1496 0.950 . S
H1489 C1501 0.950 . S
H1490 C1498 0.950 . S
H1491 C1500 0.950 . S
H1492 C1502 0.950 . S
H1493 C1504 0.950 . S
H1494 C1506 0.950 . S
H1495 C1507 0.950 . S
C1496 H1488 0.950 . S
C1496 C1497 1.386 . S
C1496 C1498 1.391 . S
C1497 C1496 1.386 . S
C1497 C1501 1.393 . S
C1498 H1490 0.950 . S
C1498 C1496 1.391 . S
C1498 C1499 1.400 . S
C1499 C1498 1.400 . S
C1499 C1500 1.398 . S
C1499 C1505 1.491 . S
C1500 H1491 0.950 . S
C1500 C1499 1.398 . S
C1500 C1501 1.391 . S
C1501 H1489 0.950 . S
C1501 C1497 1.393 . S
C1501 C1500 1.391 . S
C1502 H1492 0.950 . S
C1502 C1503 1.386 . S
C1502 C1504 1.391 . S
C1503 C1502 1.386 . S
C1503 C1507 1.393 . S
C1504 H1493 0.950 . S
C1504 C1502 1.391 . S
C1504 C1505 1.400 . S
C1505 C1499 1.491 . S
C1505 C1504 1.400 . S
C1505 C1506 1.398 . S
C1506 H1494 0.950 . S
C1506 C1505 1.398 . S
C1506 C1507 1.391 . S
C1507 H1495 0.950 . S
C1507 C1503 1.393 . S
C1507 C1506 1.391 . S
H1508 C1516 0.950 . S
H1509 C1521 0.950 . S
H1510 C1518 0.950 . S
H1511 C1520 0.950 . S
H1512 C1522 0.950 . S
H1513 C1524 0.950 . S
H1514 C1526 0.950 . S
H1515 C1527 0.950 . S
C1516 H1508 0.950 . S
C1516 C1517 1.386 . S
C1516 C1518 1.391 . S
C1517 C1516 1.386 . S
C1517 C1521 1.393 . S
C1518 H1510 0.950 . S
C1518 C1516 1.391 . S
C1518 C1519 1.400 . S
C1519 C1518 1.400 . S
C1519 C1520 1.398 . S
C1519 C1525 1.491 . S
C1520 H1511 0.950 . S
C1520 C1519 1.398 . S
C1520 C1521 1.391 . S
C1521 H1509 0.950 . S
C1521 C1517 1.393 . S
C1521 C1520 1.391 . S
C1522 H1512 0.950 . S
C1522 C1523 1.386 . S
C1522 C1524 1.391 . S
C1523 C1522 1.386 . S
C1523 C1527 1.393 . S
C1524 H1513 0.950 . S
C1524 C1522 1.391 . S
C1524 C1525 1.400 . S
C1525 C1519 1.491 . S
C1525 C1524 1.400 . S
C1525 C1526 1.398 . S
C1526 H1514 0.950 . S
C1526 C1525 1.398 . S
C1526 C1527 1.391 . S
C1527 H1515 0.950 . S
C1527 C1523 1.393 . S
C1527 C1526 1.391 . S
H1528 C1536 0.950 . S
H1529 C1541 0.950 . S
H1530 C1538 0.950 . S
H1531 C1540 0.950 . S
H1532 C1542 0.950 1_556 S
H1533 C1544 0.950 . S
H1534 C1546 0.950 . S
H1535 C1547 0.950 . S
C1536 H1528 0.950 . S
C1536 C1537 1.386 . S
C1536 C1538 1.391 . S
C1537 C1536 1.386 . S
C1537 C1541 1.393 . S
C1538 H1530 0.950 . S
C1538 C1536 1.391 . S
C1538 C1539 1.400 . S
C1539 C1538 1.400 . S
C1539 C1540 1.398 . S
C1539 C1545 1.491 . S
C1540 H1531 0.950 . S
C1540 C1539 1.398 . S
C1540 C1541 1.391 . S
C1541 H1529 0.950 . S
C1541 C1537 1.393 . S
C1541 C1540 1.391 . S
C1542 H1532 0.950 1_554 S
C1542 C1543 1.386 . S
C1542 C1544 1.391 . S
C1543 C1542 1.386 . S
C1543 C1547 1.393 . S
C1544 H1533 0.950 . S
C1544 C1542 1.391 . S
C1544 C1545 1.400 . S
C1545 C1539 1.491 . S
C1545 C1544 1.400 . S
C1545 C1546 1.398 . S
C1546 H1534 0.950 . S
C1546 C1545 1.398 . S
C1546 C1547 1.391 . S
C1547 H1535 0.950 . S
C1547 C1543 1.393 . S
C1547 C1546 1.391 . S
H1548 C1556 0.950 . S
H1549 C1561 0.950 . S
H1550 C1558 0.950 . S
H1551 C1560 0.950 . S
H1552 C1562 0.962 . S
H1553 C1564 0.950 . S
H1554 C1566 0.950 . S
H1555 C1567 0.950 . S
C1556 H1548 0.950 . S
C1556 C1557 1.386 . S
C1556 C1558 1.391 . S
C1557 C1556 1.386 . S
C1557 C1561 1.393 . S
C1558 H1550 0.950 . S
C1558 C1556 1.391 . S
C1558 C1559 1.400 . S
C1559 C1558 1.400 . S
C1559 C1560 1.398 . S
C1559 C1565 1.491 . S
C1560 H1551 0.950 . S
C1560 C1559 1.398 . S
C1560 C1561 1.391 . S
C1561 H1549 0.950 . S
C1561 C1557 1.393 . S
C1561 C1560 1.391 . S
C1562 H1552 0.962 . S
C1562 C1563 1.386 . S
C1562 C1564 1.391 . S
C1563 C1562 1.386 . S
C1563 C1567 1.393 . S
C1564 H1553 0.950 . S
C1564 C1562 1.391 . S
C1564 C1565 1.400 . S
C1565 C1559 1.491 . S
C1565 C1564 1.400 . S
C1565 C1566 1.398 . S
C1566 H1554 0.950 . S
C1566 C1565 1.398 . S
C1566 C1567 1.391 . S
C1567 H1555 0.950 . S
C1567 C1563 1.393 . S
C1567 C1566 1.391 . S
H1568 C1576 0.950 . S
H1569 C1581 0.950 . S
H1570 C1578 0.950 . S
H1571 C1580 0.950 . S
H1572 C1582 0.950 . S
H1573 C1584 0.950 . S
H1574 C1586 0.950 . S
H1575 C1587 0.950 . S
C1576 H1568 0.950 . S
C1576 C1577 1.386 . S
C1576 C1578 1.391 . S
C1577 C1576 1.386 . S
C1577 C1581 1.393 . S
C1578 H1570 0.950 . S
C1578 C1576 1.391 . S
C1578 C1579 1.400 . S
C1579 C1578 1.400 . S
C1579 C1580 1.398 . S
C1579 C1585 1.491 . S
C1580 H1571 0.950 . S
C1580 C1579 1.398 . S
C1580 C1581 1.391 . S
C1581 H1569 0.950 . S
C1581 C1577 1.393 . S
C1581 C1580 1.391 . S
C1582 H1572 0.950 . S
C1582 C1583 1.386 . S
C1582 C1584 1.391 . S
C1583 C1582 1.386 . S
C1583 C1587 1.393 . S
C1584 H1573 0.950 . S
C1584 C1582 1.391 . S
C1584 C1585 1.400 . S
C1585 C1579 1.491 . S
C1585 C1584 1.400 . S
C1585 C1586 1.398 . S
C1586 H1574 0.950 . S
C1586 C1585 1.398 . S
C1586 C1587 1.391 . S
C1587 H1575 0.950 . S
C1587 C1583 1.393 . S
C1587 C1586 1.391 . S
H1588 C1596 0.950 . S
H1589 C1601 0.950 . S
H1590 C1598 0.950 . S
H1591 C1600 0.950 . S
H1592 C1602 0.950 . S
H1593 C1604 0.950 . S
H1594 C1606 0.950 . S
H1595 C1607 0.950 1_556 S
C1596 H1588 0.950 . S
C1596 C1597 1.386 . S
C1596 C1598 1.391 . S
C1597 C1596 1.386 . S
C1597 C1601 1.393 . S
C1598 H1590 0.950 . S
C1598 C1596 1.391 . S
C1598 C1599 1.400 . S
C1599 C1598 1.400 . S
C1599 C1600 1.398 . S
C1599 C1605 1.491 . S
C1600 H1591 0.950 . S
C1600 C1599 1.398 . S
C1600 C1601 1.391 . S
C1601 H1589 0.950 . S
C1601 C1597 1.393 . S
C1601 C1600 1.391 . S
C1602 H1592 0.950 . S
C1602 C1603 1.386 . S
C1602 C1604 1.391 . S
C1603 C1602 1.386 . S
C1603 C1607 1.393 . S
C1604 H1593 0.950 . S
C1604 C1602 1.391 . S
C1604 C1605 1.400 . S
C1605 C1599 1.491 . S
C1605 C1604 1.400 . S
C1605 C1606 1.398 . S
C1606 H1594 0.950 . S
C1606 C1605 1.398 . S
C1606 C1607 1.391 . S
C1607 H1595 0.950 1_554 S
C1607 C1603 1.393 . S
C1607 C1606 1.391 . S
H1608 C1616 0.950 . S
H1609 C1621 0.950 . S
H1610 C1618 0.950 . S
H1611 C1620 0.950 . S
H1612 C1622 0.950 . S
H1613 C1624 0.950 . S
H1614 C1626 0.950 . S
H1615 C1627 0.950 . S
C1616 H1608 0.950 . S
C1616 C1617 1.386 . S
C1616 C1618 1.391 . S
C1617 C1616 1.386 . S
C1617 C1621 1.393 . S
C1618 H1610 0.950 . S
C1618 C1616 1.391 . S
C1618 C1619 1.400 . S
C1619 C1618 1.400 . S
C1619 C1620 1.398 . S
C1619 C1625 1.491 . S
C1620 H1611 0.950 . S
C1620 C1619 1.398 . S
C1620 C1621 1.391 . S
C1621 H1609 0.950 . S
C1621 C1617 1.393 . S
C1621 C1620 1.391 . S
C1622 H1612 0.950 . S
C1622 C1623 1.386 . S
C1622 C1624 1.391 . S
C1623 C1622 1.386 . S
C1623 C1627 1.393 . S
C1624 H1613 0.950 . S
C1624 C1622 1.391 . S
C1624 C1625 1.400 . S
C1625 C1619 1.491 . S
C1625 C1624 1.400 . S
C1625 C1626 1.398 . S
C1626 H1614 0.950 . S
C1626 C1625 1.398 . S
C1626 C1627 1.391 . S
C1627 H1615 0.950 . S
C1627 C1623 1.393 . S
C1627 C1626 1.391 . S
H1628 C1636 0.950 . S
H1629 C1641 0.950 . S
H1630 C1638 0.950 . S
H1631 C1640 0.950 . S
H1632 C1642 0.950 . S
H1633 C1644 0.950 . S
H1634 C1646 0.950 . S
H1635 C1647 0.950 . S
C1636 H1628 0.950 . S
C1636 C1637 1.386 . S
C1636 C1638 1.391 . S
C1637 C1636 1.386 . S
C1637 C1641 1.393 . S
C1638 H1630 0.950 . S
C1638 C1636 1.391 . S
C1638 C1639 1.400 . S
C1639 C1638 1.400 . S
C1639 C1640 1.398 . S
C1639 C1645 1.491 . S
C1640 H1631 0.950 . S
C1640 C1639 1.398 . S
C1640 C1641 1.391 . S
C1641 H1629 0.950 . S
C1641 C1637 1.393 . S
C1641 C1640 1.391 . S
C1642 H1632 0.950 . S
C1642 C1643 1.386 . S
C1642 C1644 1.391 . S
C1643 C1642 1.386 . S
C1643 C1647 1.393 . S
C1644 H1633 0.950 . S
C1644 C1642 1.391 . S
C1644 C1645 1.400 . S
C1645 C1639 1.491 . S
C1645 C1644 1.400 . S
C1645 C1646 1.398 . S
C1646 H1634 0.950 . S
C1646 C1645 1.398 . S
C1646 C1647 1.391 . S
C1647 H1635 0.950 . S
C1647 C1643 1.393 . S
C1647 C1646 1.391 . S
H1648 C1656 0.950 . S
H1649 C1661 0.950 . S
H1650 C1658 0.950 . S
H1651 C1660 0.950 . S
H1652 C1662 0.950 1_556 S
H1653 C1664 0.950 . S
H1654 C1666 0.950 . S
H1655 C1667 0.950 . S
C1656 H1648 0.950 . S
C1656 C1657 1.386 . S
C1656 C1658 1.391 . S
C1657 C1656 1.386 . S
C1657 C1661 1.393 . S
C1658 H1650 0.950 . S
C1658 C1656 1.391 . S
C1658 C1659 1.400 . S
C1659 C1658 1.400 . S
C1659 C1660 1.398 . S
C1659 C1665 1.491 . S
C1660 H1651 0.950 . S
C1660 C1659 1.398 . S
C1660 C1661 1.391 . S
C1661 H1649 0.950 . S
C1661 C1657 1.393 . S
C1661 C1660 1.391 . S
C1662 H1652 0.950 1_554 S
C1662 C1663 1.386 . S
C1662 C1664 1.391 . S
C1663 C1662 1.386 . S
C1663 C1667 1.393 . S
C1664 H1653 0.950 . S
C1664 C1662 1.391 . S
C1664 C1665 1.400 . S
C1665 C1659 1.491 . S
C1665 C1664 1.400 . S
C1665 C1666 1.398 . S
C1666 H1654 0.950 . S
C1666 C1665 1.398 . S
C1666 C1667 1.391 . S
C1667 H1655 0.950 . S
C1667 C1663 1.393 . S
C1667 C1666 1.391 . S
H1668 C1676 0.950 . S
H1669 C1681 0.950 . S
H1670 C1678 0.950 . S
H1671 C1680 0.950 . S
H1672 C1682 0.950 . S
H1673 C1684 0.950 . S
H1674 C1686 0.950 . S
H1675 C1687 0.950 . S
C1676 H1668 0.950 . S
C1676 C1677 1.386 . S
C1676 C1678 1.391 . S
C1677 C1676 1.386 . S
C1677 C1681 1.393 . S
C1678 H1670 0.950 . S
C1678 C1676 1.391 . S
C1678 C1679 1.400 . S
C1679 C1678 1.400 . S
C1679 C1680 1.398 . S
C1679 C1685 1.491 . S
C1680 H1671 0.950 . S
C1680 C1679 1.398 . S
C1680 C1681 1.391 . S
C1681 H1669 0.950 . S
C1681 C1677 1.393 . S
C1681 C1680 1.391 . S
C1682 H1672 0.950 . S
C1682 C1683 1.386 . S
C1682 C1684 1.391 . S
C1683 C1682 1.386 . S
C1683 C1687 1.393 . S
C1684 H1673 0.950 . S
C1684 C1682 1.391 . S
C1684 C1685 1.400 . S
C1685 C1679 1.491 . S
C1685 C1684 1.400 . S
C1685 C1686 1.398 . S
C1686 H1674 0.950 . S
C1686 C1685 1.398 . S
C1686 C1687 1.391 . S
C1687 H1675 0.950 . S
C1687 C1683 1.393 . S
C1687 C1686 1.391 . S
H1688 C1696 0.950 . S
H1689 C1701 0.950 . S
H1690 C1698 0.950 . S
H1691 C1700 0.950 . S
H1692 C1702 0.950 . S
H1693 C1704 0.950 . S
H1694 C1706 0.950 . S
H1695 C1707 0.950 . S
C1696 H1688 0.950 . S
C1696 C1697 1.386 . S
C1696 C1698 1.391 . S
C1697 C1696 1.386 . S
C1697 C1701 1.393 . S
C1698 H1690 0.950 . S
C1698 C1696 1.391 . S
C1698 C1699 1.400 . S
C1699 C1698 1.400 . S
C1699 C1700 1.398 . S
C1699 C1705 1.491 . S
C1700 H1691 0.950 . S
C1700 C1699 1.398 . S
C1700 C1701 1.391 . S
C1701 H1689 0.950 . S
C1701 C1697 1.393 . S
C1701 C1700 1.391 . S
C1702 H1692 0.950 . S
C1702 C1703 1.386 . S
C1702 C1704 1.391 . S
C1703 C1702 1.386 . S
C1703 C1707 1.393 . S
C1704 H1693 0.950 . S
C1704 C1702 1.391 . S
C1704 C1705 1.400 . S
C1705 C1699 1.491 . S
C1705 C1704 1.400 . S
C1705 C1706 1.398 . S
C1706 H1694 0.950 . S
C1706 C1705 1.398 . S
C1706 C1707 1.391 . S
C1707 H1695 0.950 . S
C1707 C1703 1.393 . S
C1707 C1706 1.391 . S
H1708 C1716 0.950 . S
H1709 C1721 0.950 . S
H1710 C1718 0.950 . S
H1711 C1720 0.950 . S
H1712 C1722 0.950 . S
H1713 C1724 0.950 . S
H1714 C1726 0.950 . S
H1715 C1727 0.950 . S
C1716 H1708 0.950 . S
C1716 C1717 1.386 . S
C1716 C1718 1.391 . S
C1717 C1716 1.386 . S
C1717 C1721 1.393 . S
C1718 H1710 0.950 . S
C1718 C1716 1.391 . S
C1718 C1719 1.400 . S
C1719 C1718 1.400 . S
C1719 C1720 1.398 . S
C1719 C1725 1.491 . S
C1720 H1711 0.950 . S
C1720 C1719 1.398 . S
C1720 C1721 1.391 . S
C1721 H1709 0.950 . S
C1721 C1717 1.393 . S
C1721 C1720 1.391 . S
C1722 H1712 0.950 . S
C1722 C1723 1.386 . S
C1722 C1724 1.391 . S
C1723 C1722 1.386 . S
C1723 C1727 1.393 . S
C1724 H1713 0.950 . S
C1724 C1722 1.391 . S
C1724 C1725 1.400 . S
C1725 C1719 1.491 . S
C1725 C1724 1.400 . S
C1725 C1726 1.398 . S
C1726 H1714 0.950 . S
C1726 C1725 1.398 . S
C1726 C1727 1.391 . S
C1727 H1715 0.950 . S
C1727 C1723 1.393 . S
C1727 C1726 1.391 . S
C457 C92 1.383 . S
C463 C8 1.384 . S
C477 C22 1.403 . S
C483 C106 1.403 . S
C497 C64 1.372 . S
C503 C36 1.372 . S
C517 C50 1.372 . S
C523 C78 1.372 . S
C537 C120 1.379 . S
C543 C204 1.380 . S
C557 C218 1.371 . S
C563 C134 1.371 . S
C577 C148 1.380 . S
C583 C176 1.379 . S
C597 C190 1.381 . S
C603 C162 1.380 . S
C617 C232 1.371 . S
C623 C316 1.371 . S
C637 C246 1.402 . S
C643 C330 1.403 . S
C657 C288 1.392 . S
C663 C260 1.391 . S
C677 C302 1.404 . S
C683 C274 1.403 . S
C697 C344 1.380 . S
C703 C428 1.381 . S
C717 C358 1.375 . S
C723 C442 1.375 . S
C737 C400 1.375 . S
C743 C372 1.375 . S
C757 C386 1.404 . S
C763 C414 1.404 . S
C777 C11 1.608 1_556 S
C783 C109 1.602 . S
C797 C67 1.602 1_554 S
C803 C25 1.608 . S
C817 C81 1.609 . S
C823 C39 1.600 . S
C837 C53 1.607 . S
C843 C95 1.603 . S
C857 C123 1.601 1_554 S
C863 C221 1.609 . S
C877 C179 1.606 1_556 S
C883 C137 1.604 . S
C897 C193 1.602 . S
C903 C151 1.608 . S
C917 C207 1.602 . S
C923 C165 1.607 . S
C937 C235 1.602 . S
C943 C333 1.608 . S
C957 C249 1.603 . S
C963 C291 1.607 . S
C977 C305 1.602 . S
C983 C263 1.608 1_556 S
C997 C277 1.601 . S
C1003 C319 1.609 1_554 S
C1017 C347 1.608 . S
C1023 C445 1.602 . S
C1037 C403 1.601 . S
C1043 C361 1.609 . S
C1057 C375 1.600 1_554 S
C1063 C417 1.610 . S
C1077 C389 1.600 . S
C1083 C431 1.609 1_556 S
C1097 C427 1.482 . S
C1103 C7 1.494 . S
C1117 C217 1.482 . S
C1123 C21 1.494 . S
C1137 C35 1.482 . S
C1143 C399 1.494 . S
C1157 C49 1.491 . S
C1163 C189 1.485 . S
C1177 C63 1.490 . S
C1183 C371 1.486 . S
C1197 C77 1.483 . S
C1203 C161 1.492 . S
C1217 C91 1.492 . S
C1223 C343 1.484 . S
C1237 C133 1.482 . S
C1243 C105 1.494 . S
C1257 C315 1.494 . S
C1263 C119 1.482 . S
C1277 C147 1.494 . S
C1283 C287 1.482 . S
C1297 C259 1.482 . S
C1303 C175 1.494 . S
C1317 C231 1.484 . S
C1323 C203 1.492 . S
C1337 C245 1.491 . S
C1343 C441 1.485 . S
C1357 C273 1.492 . S
C1363 C413 1.483 . S
C1377 C301 1.484 . S
C1383 C385 1.492 . S
C1397 C357 1.491 . S
C1403 C329 1.485 . S
C1417 C13 0.891 . S
C1423 C111 0.895 . S
C1437 C27 0.925 . S
C1443 C69 0.937 . S
C1457 C83 0.932 1_556 S
C1463 C41 0.927 . S
C1477 C55 0.926 1_554 S
C1483 C97 0.919 . S
C1497 C223 0.942 . S
C1503 C125 0.946 . S
C1517 C181 0.938 . S
C1523 C139 0.945 . S
C1537 C153 0.899 . S
C1543 C195 0.904 1_554 S
C1557 C209 0.890 . S
C1563 C167 0.887 1_556 S
C1577 C335 0.941 1_556 S
C1583 C237 0.945 . S
C1597 C293 0.929 . S
C1603 C251 0.934 1_554 S
C1617 C307 0.891 . S
C1623 C265 0.895 . S
C1637 C321 0.938 . S
C1643 C279 0.926 . S
C1657 C349 0.911 . S
C1663 C447 0.918 1_554 S
C1677 C363 0.884 1_556 S
C1683 C405 0.891 . S
C1697 C377 0.906 . S
C1703 C419 0.918 . S
C1717 C433 0.945 . S
C1723 C391 0.940 . S
