# Generated by pormake.
# Topology smm, (6)-cn, num edge types: 1
# Building blocks:
#     Node 0, Type 0, BuildingBlock: BETGAK_clean_sbu_0, # of connection points: 6
#     Node 1, Type 0, BuildingBlock: BETGAK_clean_sbu_0, # of connection points: 6
#     Node 2, Type 0, BuildingBlock: BETGAK_clean_sbu_0, # of connection points: 6
#     Node 3, Type 0, BuildingBlock: BETGAK_clean_sbu_0, # of connection points: 6
#     Node 4, Type 0, BuildingBlock: BETGAK_clean_sbu_0, # of connection points: 6
#     Node 5, Type 0, BuildingBlock: BETGAK_clean_sbu_0, # of connection points: 6
#     Node 6, Type 0, BuildingBlock: BETGAK_clean_sbu_0, # of connection points: 6
#     Node 7, Type 0, BuildingBlock: BETGAK_clean_sbu_0, # of connection points: 6
#     Node 8, Type 0, BuildingBlock: BETGAK_clean_sbu_0, # of connection points: 6
#     Edge 9, Type (0, 0), BuildingBlock: XUDNAN_clean_linker_2, # of connection points: 2
#     Edge 10, Type (0, 0), BuildingBlock: XUDNAN_clean_linker_2, # of connection points: 2
#     Edge 11, Type (0, 0), BuildingBlock: XUDNAN_clean_linker_2, # of connection points: 2
#     Edge 12, Type (0, 0), BuildingBlock: XUDNAN_clean_linker_2, # of connection points: 2
#     Edge 13, Type (0, 0), BuildingBlock: XUDNAN_clean_linker_2, # of connection points: 2
#     Edge 14, Type (0, 0), BuildingBlock: XUDNAN_clean_linker_2, # of connection points: 2
#     Edge 15, Type (0, 0), BuildingBlock: XUDNAN_clean_linker_2, # of connection points: 2
#     Edge 16, Type (0, 0), BuildingBlock: XUDNAN_clean_linker_2, # of connection points: 2
#     Edge 17, Type (0, 0), BuildingBlock: XUDNAN_clean_linker_2, # of connection points: 2
#     Edge 18, Type (0, 0), BuildingBlock: XUDNAN_clean_linker_2, # of connection points: 2
#     Edge 19, Type (0, 0), BuildingBlock: XUDNAN_clean_linker_2, # of connection points: 2
#     Edge 20, Type (0, 0), BuildingBlock: XUDNAN_clean_linker_2, # of connection points: 2
#     Edge 21, Type (0, 0), BuildingBlock: XUDNAN_clean_linker_2, # of connection points: 2
#     Edge 22, Type (0, 0), BuildingBlock: XUDNAN_clean_linker_2, # of connection points: 2
#     Edge 23, Type (0, 0), BuildingBlock: XUDNAN_clean_linker_2, # of connection points: 2
#     Edge 24, Type (0, 0), BuildingBlock: XUDNAN_clean_linker_2, # of connection points: 2
#     Edge 25, Type (0, 0), BuildingBlock: XUDNAN_clean_linker_2, # of connection points: 2
#     Edge 26, Type (0, 0), BuildingBlock: XUDNAN_clean_linker_2, # of connection points: 2
#     Edge 27, Type (0, 0), BuildingBlock: XUDNAN_clean_linker_2, # of connection points: 2
#     Edge 28, Type (0, 0), BuildingBlock: XUDNAN_clean_linker_2, # of connection points: 2
#     Edge 29, Type (0, 0), BuildingBlock: XUDNAN_clean_linker_2, # of connection points: 2
#     Edge 30, Type (0, 0), BuildingBlock: XUDNAN_clean_linker_2, # of connection points: 2
#     Edge 31, Type (0, 0), BuildingBlock: XUDNAN_clean_linker_2, # of connection points: 2
#     Edge 32, Type (0, 0), BuildingBlock: XUDNAN_clean_linker_2, # of connection points: 2
#     Edge 33, Type (0, 0), BuildingBlock: XUDNAN_clean_linker_2, # of connection points: 2
#     Edge 34, Type (0, 0), BuildingBlock: XUDNAN_clean_linker_2, # of connection points: 2
#     Edge 35, Type (0, 0), BuildingBlock: XUDNAN_clean_linker_2, # of connection points: 2
# Relax obj value: 0.043
# Max RMSD: 0.121
# Mean RMSD: 0.121
data_MOF--net-smm--node1-BETGAK_clean_sbu_0--edge1-XUDNAN_clean_linker_2
_symmetry_space_group_name_H-M    P1
_symmetry_Int_Tables_number       1
_symmetry_cell_setting            triclinic
loop_
_symmetry_equiv_pos_as_xyz
'x, y, z'
_cell_length_a     70.43901
_cell_length_b     70.44758
_cell_length_c     14.26857
_cell_angle_alpha  90.130761
_cell_angle_beta   89.603415
_cell_angle_gamma 119.94074
loop_
_atom_site_label
_atom_site_type_symbol
_atom_site_fract_x
_atom_site_fract_y
_atom_site_fract_z
_atom_type_partial_charge
La0 La 0.07295 0.22891 -0.00452 0.0
La1 La 1.03336 0.18426 0.03294 0.0
C2 C 0.09908 0.26507 0.91743 0.0
C3 C 0.10661 0.28892 0.91281 0.0
C4 C 0.11766 0.30297 0.98813 0.0
C5 C 0.12839 0.32576 0.97659 0.0
C6 C 0.12846 0.33518 0.88943 0.0
C7 C 0.11629 0.32112 0.81578 0.0
C8 C 0.10559 0.29827 0.82728 0.0
C9 C 0.06656 0.21663 0.17384 0.0
C10 C 1.02676 0.22484 0.05569 0.0
C11 C 1.00616 0.14621 0.09189 0.0
C12 C 0.9963 0.12269 0.06673 0.0
C13 C 0.97367 0.11051 0.05086 0.0
C14 C 0.9634 0.08807 0.03233 0.0
C15 C 0.97545 0.07704 0.02891 0.0
C16 C 0.99815 0.08917 0.04576 0.0
C17 C 1.00848 0.11178 0.06446 0.0
C18 C 1.03947 0.19631 0.85447 0.0
C19 C 0.08078 0.18931 0.01555 0.0
O20 O 0.10365 0.25757 -0.00724 0.0
O21 O 0.07973 0.25116 0.88399 0.0
O22 O 0.08556 0.2309 0.13999 0.0
O23 O 0.05256 0.21268 0.11216 0.0
O24 O 1.04602 0.23686 0.01253 0.0
O25 O 1.02042 0.20461 0.08352 0.0
O26 O 1.00089 0.15815 0.04002 0.0
O27 O 1.02679 0.15694 0.116 0.0
O28 O 1.02081 0.18428 0.8952 0.0
O29 O 0.05436 0.19985 0.91235 0.0
O30 O 0.06032 0.178 0.04525 0.0
O31 O 0.08881 0.20901 0.97734 0.0
H32 H 0.11883 0.29642 0.05505 0.0
H33 H 0.13724 0.33606 0.03546 0.0
H34 H 0.11605 0.32773 0.74763 0.0
H35 H 0.09739 0.2879 0.76765 0.0
H36 H 0.96378 0.11834 0.05393 0.0
H37 H 0.94585 0.0793 0.02195 0.0
H38 H 1.00797 0.08128 0.04329 0.0
H39 H 1.02595 0.12063 0.07743 0.0
La40 La 0.86435 0.86841 -0.00912 0.0
La41 La 0.90853 0.87217 0.02067 0.0
C42 C 0.82735 0.86073 0.93224 0.0
C43 C 0.80512 0.84477 0.89818 0.0
C44 C 0.79028 0.82629 0.95072 0.0
C45 C 0.76807 0.81423 0.92517 0.0
C46 C 0.76037 0.82067 0.84763 0.0
C47 C 0.77552 0.83833 0.79246 0.0
C48 C 0.79761 0.85017 0.81728 0.0
C49 C 0.87786 0.87319 0.16745 0.0
C50 C 0.86728 0.82524 0.01807 0.0
C51 C 0.94613 0.88089 0.07652 0.0
C52 C 0.96977 0.89697 0.06039 0.0
C53 C 0.98375 0.88952 0.02707 0.0
C54 C 1.00622 0.90404 0.01381 0.0
C55 C 1.01541 0.92649 0.03387 0.0
C56 C 1.00136 0.93389 0.06799 0.0
C57 C 0.97886 0.91936 0.0809 0.0
C58 C 0.89515 0.86551 0.84599 0.0
C59 C 0.90464 0.91566 -0.00656 0.0
O60 O 0.83191 0.86032 0.02067 0.0
O61 O 0.84419 0.86586 0.87726 0.0
O62 O 0.86641 0.8814 0.13416 0.0
O63 O 0.8802 0.86221 0.10398 0.0
O64 O 0.85736 0.83458 0.97543 0.0
O65 O 0.8868 0.83742 0.05708 0.0
O66 O 0.93574 0.86763 0.00724 0.0
O67 O 0.93392 0.88749 0.11941 0.0
O68 O 0.90732 0.85863 0.88276 0.0
O69 O 0.89254 0.87755 0.90403 0.0
O70 O 0.91686 0.90707 0.01973 0.0
O71 O 0.88386 0.9033 0.97052 0.0
H72 H 0.79558 0.82178 0.01373 0.0
H73 H 0.75671 0.80074 0.96914 0.0
H74 H 0.77008 0.84358 0.73204 0.0
H75 H 0.80864 0.86437 0.77583 0.0
H76 H 0.97725 0.87233 0.01118 0.0
H77 H 1.01632 0.89769 0.98633 0.0
H78 H 1.00777 0.95096 0.08582 0.0
H79 H 0.96865 0.92568 0.10736 0.0
La80 La 0.2244 1.02036 0.98664 0.0
La81 La 0.22137 0.06139 0.013 0.0
C82 C 0.2321 0.9913 0.92275 0.0
C83 C 0.24855 0.9852 0.892 0.0
C84 C 0.26527 0.98685 0.9511 0.0
C85 C 0.27767 0.97691 0.92595 0.0
C86 C 0.27333 0.96493 0.84205 0.0
C87 C 0.25751 0.96447 0.78105 0.0
C88 C 0.24534 0.97449 0.80563 0.0
C89 C 0.21554 1.0266 0.15812 0.0
C90 C 0.26765 0.06693 0.0237 0.0
C91 C 0.21375 0.09121 0.06569 0.0
C92 C 0.19777 0.09896 0.06017 0.0
C93 C 0.19038 0.10271 0.97445 0.0
C94 C 0.17652 0.11174 0.97323 0.0
C95 C 0.16983 0.1171 0.05762 0.0
C96 C 0.17749 0.11341 0.14272 0.0
C97 C 0.19117 0.10441 0.14387 0.0
C98 C 0.22607 0.05152 0.83764 0.0
C99 C 0.17714 1.01519 -0.0091 0.0
O100 O 0.2304 0.99446 0.01218 0.0
O101 O 0.2288 1.00454 0.86964 0.0
O102 O 0.20841 1.00758 0.1194 0.0
O103 O 0.22877 0.04161 0.10337 0.0
O104 O 0.25936 0.04682 0.98886 0.0
O105 O 0.25505 0.07473 0.05177 0.0
O106 O 0.22483 0.09236 -0.01011 0.0
O107 O 0.20808 0.07335 0.11413 0.0
O108 O 0.23409 0.07135 0.86833 0.0
O109 O 0.21507 0.03884 0.90256 0.0
O110 O 0.18675 0.03621 0.01385 0.0
O111 O 0.18864 1.00546 0.96917 0.0
H112 H 0.26811 0.99495 0.01838 0.0
H113 H 0.2897 0.97749 0.9745 0.0
H114 H 0.25391 0.95553 0.71559 0.0
H115 H 0.23254 0.97285 0.75894 0.0
H116 H 0.19538 0.09883 0.90859 0.0
H117 H 0.17083 0.11424 0.90658 0.0
H118 H 0.17311 0.11774 0.20906 0.0
H119 H 0.19693 0.10203 0.21066 0.0
La120 La 0.73987 0.56536 0.34061 0.0
La121 La 0.70372 0.51749 0.37447 0.0
C122 C 0.76878 0.59989 0.26101 0.0
C123 C 0.77631 0.62329 0.24011 0.0
C124 C 0.78792 0.64024 0.30516 0.0
C125 C 0.79632 0.66232 0.27933 0.0
C126 C 0.79334 0.66787 0.18791 0.0
C127 C 0.78203 0.65081 0.12313 0.0
C128 C 0.77365 0.62895 0.14883 0.0
C129 C 0.72762 0.55605 0.51794 0.0
C130 C 0.69251 0.55536 0.38899 0.0
C131 C 0.67831 0.47912 0.43611 0.0
C132 C 0.66548 0.45575 0.40723 0.0
C133 C 0.64251 0.44539 0.40643 0.0
C134 C 0.62977 0.42293 0.38896 0.0
C135 C 0.63957 0.41006 0.37168 0.0
C136 C 0.66263 0.42045 0.3719 0.0
C137 C 0.67544 0.44302 0.38965 0.0
C138 C 0.70967 0.53139 0.19774 0.0
C139 C 0.7528 0.52768 0.3531 0.0
O140 O 0.77087 0.59413 0.34612 0.0
O141 O 0.75048 0.5853 0.22141 0.0
O142 O 0.73619 0.57548 0.48102 0.0
O143 O 0.72848 0.54329 0.45795 0.0
O144 O 0.70987 0.5676 0.33533 0.0
O145 O 0.68908 0.53655 0.42457 0.0
O146 O 0.6717 0.49235 0.40597 0.0
O147 O 0.69967 0.48861 0.43696 0.0
O148 O 0.69128 0.51568 0.22976 0.0
O149 O 0.72342 0.53631 0.26106 0.0
O150 O 0.73185 0.51253 0.36216 0.0
O151 O 0.75943 0.54891 0.34474 0.0
H152 H 0.79065 0.63649 0.37563 0.0
H153 H 0.8049 0.67498 0.33112 0.0
H154 H 0.77988 0.65432 0.05139 0.0
H155 H 0.76537 0.6164 0.09617 0.0
H156 H 0.63431 0.4546 0.42168 0.0
H157 H 0.61212 0.41558 0.3916 0.0
H158 H 0.67082 0.41117 0.3582 0.0
H159 H 0.6931 0.45039 0.39091 0.0
La160 La 0.52928 0.19884 0.34138 0.0
La161 La 0.57654 0.211 0.35693 0.0
C162 C 0.49044 0.18166 0.28628 0.0
C163 C 0.46753 0.1715 0.25411 0.0
C164 C 0.45031 0.15572 0.3095 0.0
C165 C 0.42867 0.14559 0.27753 0.0
C166 C 0.42384 0.15128 0.19013 0.0
C167 C 0.44116 0.16696 0.13465 0.0
C168 C 0.46278 0.17686 0.16604 0.0
C169 C 0.54556 0.20892 0.51255 0.0
C170 C 0.54247 0.16161 0.37853 0.0
C171 C 0.61704 0.2288 0.379 0.0
C172 C 0.6411 0.24063 0.38734 0.0
C173 C 0.65376 0.25977 0.33457 0.0
C174 C 0.67661 0.27007 0.33472 0.0
C175 C 0.68726 0.26132 0.38705 0.0
C176 C 0.67458 0.24254 0.44224 0.0
C177 C 0.65168 0.23234 0.44274 0.0
C178 C 0.55909 0.19721 0.19114 0.0
C179 C 0.56334 0.24819 0.34787 0.0
O180 O 0.49561 0.18331 0.37499 0.0
O181 O 0.50724 0.19041 0.22877 0.0
O182 O 0.53027 0.21255 0.48221 0.0
O183 O 0.54961 0.19897 0.44984 0.0
O184 O 0.52794 0.16673 0.34587 0.0
O185 O 0.56286 0.17693 0.39742 0.0
O186 O 0.60791 0.23074 0.30294 0.0
O187 O 0.60322 0.21642 0.44448 0.0
O188 O 0.57288 0.1927 0.23016 0.0
O189 O 0.55596 0.20979 0.24406 0.0
O190 O 0.57685 0.24194 0.38113 0.0
O191 O 0.54363 0.23379 0.317 0.0
H192 H 0.4536 0.1511 0.37725 0.0
H193 H 0.41567 0.13367 0.32199 0.0
H194 H 0.43797 0.17153 0.06659 0.0
H195 H 0.47576 0.18882 0.12158 0.0
H196 H 0.64598 0.26655 0.29149 0.0
H197 H 0.68589 0.28439 0.29096 0.0
H198 H 0.68237 0.23557 0.48402 0.0
H199 H 0.64225 0.21761 0.48396 0.0
La200 La 0.89542 0.35728 0.31534 0.0
La201 La 0.88998 0.39634 0.35538 0.0
C202 C 0.9041 0.32983 0.24127 0.0
C203 C 0.91874 0.32037 0.24033 0.0
C204 C 0.90956 0.29803 0.26067 0.0
C205 C 0.92195 0.28767 0.25175 0.0
C206 C 0.944 0.29937 0.22257 0.0
C207 C 0.95329 0.32183 0.20181 0.0
C208 C 0.94076 0.33225 0.21049 0.0
C209 C 0.89231 0.36504 0.49673 0.0
C210 C 0.93778 0.40389 0.34717 0.0
C211 C 0.88104 0.42441 0.42145 0.0
C212 C 0.86551 0.43277 0.41758 0.0
C213 C 0.85005 0.42715 0.3456 0.0
C214 C 0.83794 0.43806 0.33754 0.0
C215 C 0.84142 0.45492 0.40049 0.0
C216 C 0.85618 0.45967 0.47452 0.0
C217 C 0.86802 0.4487 0.48299 0.0
C218 C 0.8958 0.39054 0.17699 0.0
C219 C 0.8479 0.34893 0.32721 0.0
O220 O 0.89122 0.32561 0.31419 0.0
O221 O 0.91149 0.34972 0.20922 0.0
O222 O 0.88618 0.34581 0.46242 0.0
O223 O 0.90163 0.37862 0.43216 0.0
O224 O 0.92934 0.38442 0.30676 0.0
O225 O 0.92502 0.41052 0.38727 0.0
O226 O 0.89313 0.42747 0.34691 0.0
O227 O 0.87458 0.40529 0.46032 0.0
O228 O 0.90231 0.40931 0.21628 0.0
O229 O 0.88451 0.37557 0.23504 0.0
O230 O 0.85585 0.36886 0.3629 0.0
O231 O 0.86082 0.34257 0.2882 0.0
H232 H 0.89251 0.28835 0.28159 0.0
H233 H 0.91399 0.27026 0.26609 0.0
H234 H 0.97023 0.33136 0.1795 0.0
H235 H 0.94822 0.34946 0.1929 0.0
H236 H 0.84791 0.41494 0.294 0.0
H237 H 0.82672 0.4341 0.27965 0.0
H238 H 0.85906 0.4724 0.52464 0.0
H239 H 0.87986 0.45334 0.53888 0.0
La240 La 0.40729 0.89861 0.66219 0.0
La241 La 0.3695 0.8533 0.68886 0.0
C242 C 0.43342 0.93533 0.58922 0.0
C243 C 0.4416 0.95924 0.58552 0.0
C244 C 0.45503 0.97329 0.6566 0.0
C245 C 0.46655 0.99601 0.64301 0.0
C246 C 0.46506 1.00526 0.55792 0.0
C247 C 0.45057 0.99128 0.48922 0.0
C248 C 0.43906 0.96853 0.50277 0.0
C249 C 0.39963 0.886 0.83992 0.0
C250 C 0.35809 0.89061 0.70125 0.0
C251 C 0.34537 0.81291 0.71193 0.0
C252 C 0.33247 0.78878 0.72053 0.0
C253 C 0.33919 0.7758 0.67119 0.0
C254 C 0.32639 0.75299 0.67199 0.0
C255 C 0.30649 0.74256 0.72191 0.0
C256 C 0.30007 0.75553 0.7735 0.0
C257 C 0.31298 0.77844 0.77303 0.0
C258 C 0.37536 0.86891 0.51811 0.0
C259 C 0.41728 0.86141 0.69194 0.0
O260 O 0.43793 0.92733 0.66309 0.0
O261 O 0.41396 0.92188 0.55564 0.0
O262 O 0.41876 0.90028 0.8073 0.0
O263 O 0.38594 0.88138 0.77577 0.0
O264 O 0.37895 0.90444 0.67705 0.0
O265 O 0.35082 0.86951 0.7174 0.0
O266 O 0.35918 0.82175 0.64222 0.0
O267 O 0.3448 0.82704 0.77064 0.0
O268 O 0.35654 0.85713 0.558 0.0
O269 O 0.3904 0.87107 0.57234 0.0
O270 O 0.39809 0.85173 0.73439 0.0
O271 O 0.42328 0.87904 0.64014 0.0
H272 H 0.45747 0.96675 0.72111 0.0
H273 H 0.47724 1.00632 0.69816 0.0
H274 H 0.44909 0.99778 0.42269 0.0
H275 H 0.42907 0.95812 0.44622 0.0
H276 H 0.3542 0.7833 0.63026 0.0
H277 H 0.33174 0.74356 0.63079 0.0
H278 H 0.28495 0.74797 0.81363 0.0
H279 H 0.30745 0.78805 0.81171 0.0
La280 La 0.19749 0.53261 0.67363 0.0
La281 La 0.24388 0.54181 0.70292 0.0
C282 C 0.16076 0.5228 0.60482 0.0
C283 C 0.13747 0.50651 0.58765 0.0
C284 C 0.12142 0.51184 0.61352 0.0
C285 C 0.09971 0.49897 0.58415 0.0
C286 C 0.0935 0.48039 0.52789 0.0
C287 C 0.10941 0.4744 0.50641 0.0
C288 C 0.13118 0.48738 0.53543 0.0
C289 C 0.2115 0.54302 0.84662 0.0
C290 C 0.2052 0.4931 0.72654 0.0
C291 C 0.28252 0.55371 0.75564 0.0
C292 C 0.30595 0.56675 0.72716 0.0
C293 C 0.31761 0.55571 0.71077 0.0
C294 C 0.34003 0.56724 0.69044 0.0
C295 C 0.3516 0.59028 0.68565 0.0
C296 C 0.33996 0.60145 0.7025 0.0
C297 C 0.31737 0.58982 0.72311 0.0
C298 C 0.23026 0.53617 0.52554 0.0
C299 C 0.23498 0.58169 0.68026 0.0
O300 O 0.16657 0.52999 0.69039 0.0
O301 O 0.17608 0.52115 0.55884 0.0
O302 O 0.19737 0.54706 0.80739 0.0
O303 O 0.21581 0.53143 0.79241 0.0
O304 O 0.192 0.49891 0.68545 0.0
O305 O 0.2252 0.50806 0.75274 0.0
O306 O 0.27025 0.53588 0.7078 0.0
O307 O 0.27194 0.56395 0.77873 0.0
O308 O 0.24459 0.53139 0.55616 0.0
O309 O 0.22623 0.54538 0.59099 0.0
O310 O 0.2483 0.57498 0.71193 0.0
O311 O 0.21532 0.56774 0.64729 0.0
H312 H 0.1259 0.52665 0.6529 0.0
H313 H 0.08811 0.50429 0.60152 0.0
H314 H 0.10519 0.45994 0.46499 0.0
H315 H 0.14317 0.48284 0.51426 0.0
H316 H 0.30942 0.538 0.71528 0.0
H317 H 0.34838 0.55799 0.6803 0.0
H318 H 0.34825 0.61916 0.69903 0.0
H319 H 0.30894 0.59888 0.73647 0.0
La320 La 0.56189 0.6902 0.65092 0.0
La321 La 0.55372 0.72805 0.68545 0.0
C322 C 0.57243 0.66397 0.57776 0.0
C323 C 0.58644 0.65369 0.57779 0.0
C324 C 0.57657 0.63128 0.59856 0.0
C325 C 0.58812 0.62005 0.58823 0.0
C326 C 0.61008 0.63088 0.55728 0.0
C327 C 0.62009 0.65342 0.53642 0.0
C328 C 0.60837 0.6647 0.54625 0.0
C329 C 0.5549 0.69653 0.82883 0.0
C330 C 0.60235 0.73763 0.70067 0.0
C331 C 0.54244 0.7551 0.74229 0.0
C332 C 0.52631 0.76261 0.72756 0.0
C333 C 0.53159 0.7807 0.66908 0.0
C334 C 0.51839 0.79041 0.66759 0.0
C335 C 0.49968 0.7824 0.72518 0.0
C336 C 0.49375 0.76354 0.77955 0.0
C337 C 0.50694 0.75385 0.78112 0.0
C338 C 0.56263 0.72341 0.50938 0.0
C339 C 0.51319 0.68048 0.64884 0.0
O340 O 0.55806 0.65872 0.64571 0.0
O341 O 0.58066 0.6844 0.55099 0.0
O342 O 0.55101 0.67773 0.7962 0.0
O343 O 0.56461 0.71044 0.76608 0.0
O344 O 0.59593 0.71806 0.66287 0.0
O345 O 0.58788 0.74332 0.72876 0.0
O346 O 0.55676 0.75914 0.67554 0.0
O347 O 0.53576 0.73593 0.7813 0.0
O348 O 0.56771 0.74171 0.54996 0.0
O349 O 0.55107 0.70801 0.56537 0.0
O350 O 0.5201 0.70009 0.68575 0.0
O351 O 0.52716 0.67464 0.61599 0.0
H352 H 0.55954 0.62215 0.62034 0.0
H353 H 0.57951 0.60263 0.60247 0.0
H354 H 0.63696 0.66238 0.51275 0.0
H355 H 0.61635 0.6819 0.52782 0.0
H356 H 0.54651 0.78804 0.62754 0.0
H357 H 0.52357 0.80495 0.62529 0.0
H358 H 0.47921 0.75662 0.82345 0.0
H359 H 0.50239 0.74003 0.82729 0.0
H360 H 0.11958 0.36387 0.78998 0.0
H361 H 0.17028 0.36115 0.95092 0.0
H362 H 0.19484 0.40058 0.92479 0.0
H363 H 0.15597 0.403 0.61638 0.0
H364 H 0.14084 0.41735 0.60836 0.0
H365 H 0.12688 0.38871 0.6391 0.0
H366 H 0.1121 0.39721 0.79076 0.0
H367 H 0.12606 0.42587 0.76042 0.0
H368 H 0.1311 0.41726 0.87185 0.0
H369 H 0.21423 0.43988 0.88131 0.0
H370 H 0.22725 0.4774 0.82664 0.0
H371 H 0.16453 0.45615 0.69296 0.0
C372 C 0.13586 0.37158 0.81955 0.0
C373 C 0.14283 0.35929 0.87363 0.0
C374 C 0.16429 0.37013 0.91113 0.0
C375 C 0.17848 0.39255 0.896 0.0
C376 C 0.17111 0.40414 0.84303 0.0
C377 C 0.15032 0.39414 0.80546 0.0
C378 C 0.14662 0.4107 0.75202 0.0
C379 C 0.14232 0.40457 0.64777 0.0
C380 C 0.12785 0.41289 0.79644 0.0
C381 C 0.16859 0.43148 0.76556 0.0
C382 C 0.18241 0.42716 0.81804 0.0
C383 C 0.20356 0.44347 0.84015 0.0
C384 C 0.21081 0.46482 0.80841 0.0
C385 C 0.19699 0.46992 0.75512 0.0
C386 C 0.17555 0.45288 0.7333 0.0
H387 H 0.72855 0.77704 0.82075 0.0
H388 H 0.73836 0.84287 0.83472 0.0
H389 H 0.69929 0.82852 0.80056 0.0
H390 H 0.691 0.75914 0.62749 0.0
H391 H 0.67382 0.73169 0.67101 0.0
H392 H 0.70239 0.74669 0.70164 0.0
H393 H 0.69196 0.74082 0.87786 0.0
H394 H 0.66335 0.72574 0.84764 0.0
H395 H 0.67336 0.74915 0.9241 0.0
H396 H 0.65975 0.80774 0.76457 0.0
H397 H 0.62151 0.78154 0.72433 0.0
H398 H 0.63619 0.72855 0.72524 0.0
C399 C 0.72234 0.78832 0.81724 0.0
C400 C 0.7365 0.81111 0.83006 0.0
C401 C 0.72785 0.82541 0.82431 0.0
C402 C 0.70567 0.81741 0.80528 0.0
C403 C 0.69221 0.79499 0.79148 0.0
C404 C 0.7001 0.78058 0.79688 0.0
C405 C 0.68198 0.75731 0.77591 0.0
C406 C 0.68764 0.74818 0.68882 0.0
C407 C 0.6774 0.74237 0.86148 0.0
C408 C 0.66285 0.76104 0.75711 0.0
C409 C 0.6692 0.78292 0.76765 0.0
C410 C 0.65458 0.79058 0.75583 0.0
C411 C 0.63286 0.77552 0.73293 0.0
C412 C 0.62582 0.75299 0.72093 0.0
C413 C 0.64112 0.7457 0.73274 0.0
H414 H 0.31725 0.97586 0.83977 0.0
H415 H 0.25121 0.92175 0.79952 0.0
H416 H 0.2659 0.89746 0.76063 0.0
H417 H 0.34178 0.96201 0.64862 0.0
H418 H 0.36704 0.96958 0.7084 0.0
H419 H 0.35161 0.98289 0.73786 0.0
H420 H 0.35028 0.97184 0.91178 0.0
H421 H 0.36577 0.95856 0.88278 0.0
H422 H 0.33965 0.94343 0.94147 0.0
H423 H 0.28702 0.87887 0.72556 0.0
H424 H 0.31375 0.86688 0.6928 0.0
H425 H 0.36705 0.93266 0.74825 0.0
C426 C 0.30596 0.95885 0.82338 0.0
C427 C 0.28303 0.95072 0.82215 0.0
C428 C 0.26878 0.9284 0.79983 0.0
C429 C 0.27698 0.91444 0.77801 0.0
C430 C 0.29955 0.92295 0.7782 0.0
C431 C 0.31394 0.94461 0.80008 0.0
C432 C 0.33753 0.94946 0.79222 0.0
C433 C 0.35024 0.96703 0.71731 0.0
C434 C 0.34898 0.95622 0.88775 0.0
C435 C 0.33405 0.92721 0.7618 0.0
C436 C 0.31195 0.91219 0.75523 0.0
C437 C 0.30438 0.89048 0.73019 0.0
C438 C 0.31974 0.88383 0.71168 0.0
C439 C 0.34253 0.89881 0.71721 0.0
C440 C 0.34976 0.92088 0.74216 0.0
H441 H 0.39085 0.10783 0.19164 0.0
H442 H 0.40479 0.1733 0.11755 0.0
H443 H 0.36688 0.15826 0.06252 0.0
H444 H 0.35571 0.08011 -0.00558 0.0
H445 H 0.33685 0.05617 0.06046 0.0
H446 H 0.36512 0.07185 0.0953 0.0
H447 H 0.35307 0.07667 0.26132 0.0
H448 H 0.32476 0.06095 0.22716 0.0
H449 H 0.33534 0.08814 0.27407 0.0
H450 H 0.32792 0.13696 0.01959 0.0
H451 H 0.28927 0.11017 0.98888 0.0
H452 H 0.29951 0.05754 0.08432 0.0
C453 C 0.38584 0.11895 0.16405 0.0
C454 C 0.40082 0.14176 0.15825 0.0
C455 C 0.39371 0.15579 0.12136 0.0
C456 C 0.37218 0.1474 0.0903 0.0
C457 C 0.35793 0.1249 0.09595 0.0
C458 C 0.36435 0.11079 0.13169 0.0
C459 C 0.34552 0.08724 0.12927 0.0
C460 C 0.35115 0.073 0.06609 0.0
C461 C 0.33931 0.07769 0.22888 0.0
C462 C 0.32759 0.09039 0.0865 0.0
C463 C 0.33522 0.11233 0.06853 0.0
C464 C 0.32179 0.11972 0.03245 0.0
C465 C 0.29987 0.10436 0.0151 0.0
C466 C 0.29152 0.08178 0.03286 0.0
C467 C 0.30563 0.07464 0.06804 0.0
H468 H 0.97484 0.30413 0.08732 0.0
H469 H 0.94259 0.26851 0.34196 0.0
H470 H 0.96056 0.24651 0.32495 0.0
H471 H 0.97238 0.25949 0.96024 0.0
H472 H 0.99931 0.27472 0.90846 0.0
H473 H 0.98447 0.28852 0.93994 0.0
H474 H 1.01687 0.31572 0.04285 0.0
H475 H 1.03187 0.30206 0.01127 0.0
H476 H 1.02707 0.30531 0.13296 0.0
H477 H 0.97935 0.22679 0.27793 0.0
H478 H 1.00093 0.21168 0.21003 0.0
H479 H 1.024 0.26068 0.98875 0.0
C480 C 0.97185 0.29195 0.14029 0.0
C481 C 0.95691 0.28785 0.21527 0.0
C482 C 0.95343 0.27164 0.28263 0.0
C483 C 0.9637 0.25912 0.27401 0.0
C484 C 0.9778 0.26317 0.19849 0.0
C485 C 0.98225 0.27935 0.13338 0.0
C486 C 0.99827 0.28006 0.0592 0.0
C487 C 0.98798 0.27542 0.96116 0.0
C488 C 1.0198 0.3021 0.06174 0.0
C489 C 1.0017 0.26147 0.09224 0.0
C490 C 0.98958 0.25204 0.17267 0.0
C491 C 0.98909 0.23414 0.21552 0.0
C492 C 1.00137 0.2256 0.17569 0.0
C493 C 1.01421 0.23495 0.09369 0.0
C494 C 1.0145 0.25329 0.05172 0.0
H495 H 0.87663 0.79835 0.12992 0.0
H496 H 0.82877 0.79706 0.93524 0.0
H497 H 0.8052 0.75777 0.9629 0.0
H498 H 0.86903 0.74469 0.06249 0.0
H499 H 0.87194 0.73719 0.18 0.0
H500 H 0.88574 0.76561 0.1458 0.0
H501 H 0.86721 0.77419 0.28371 0.0
H502 H 0.85324 0.74577 0.31805 0.0
H503 H 0.83777 0.75928 0.29457 0.0
H504 H 0.78555 0.71968 0.01501 0.0
H505 H 0.77209 0.6827 0.07721 0.0
H506 H 0.83247 0.70591 0.23336 0.0
C507 C 0.86132 0.78971 0.09239 0.0
C508 C 0.85463 0.80101 0.0305 0.0
C509 C 0.83436 0.78903 0.98329 0.0
C510 C 0.82073 0.7666 -0.00139 0.0
C511 C 0.82749 0.75608 0.061 0.0
C512 C 0.84737 0.767 0.10646 0.0
C513 C 0.85043 0.7512 0.16901 0.0
C514 C 0.87047 0.74957 0.13741 0.0
C515 C 0.85227 0.75803 0.27247 0.0
C516 C 0.82914 0.72986 0.15108 0.0
C517 C 0.8162 0.73332 0.08915 0.0
C518 C 0.79565 0.71661 0.06242 0.0
C519 C 0.7882 0.69556 0.0979 0.0
C520 C 0.80132 0.69108 0.15873 0.0
C521 C 0.82199 0.70868 0.18695 0.0
H522 H 0.05351 0.47127 0.60652 0.0
H523 H 0.08271 0.4629 0.35167 0.0
H524 H 0.04643 0.44397 0.27839 0.0
H525 H 1.00337 0.41965 0.59799 0.0
H526 H 0.98634 0.43036 0.63956 0.0
H527 H 1.01467 0.44328 0.67365 0.0
H528 H 1.02103 0.48033 0.60911 0.0
H529 H 0.99271 0.46748 0.57474 0.0
H530 H 1.0141 0.4821 0.48927 0.0
H531 H 1.00743 0.42508 0.23287 0.0
H532 H 0.96729 0.40706 0.21757 0.0
H533 H 0.96252 0.42904 0.4965 0.0
C534 C 0.05233 0.46558 0.53512 0.0
C535 C 0.07114 0.46841 0.48562 0.0
C536 C 0.06866 0.46051 0.39242 0.0
C537 C 0.04809 0.44992 0.34955 0.0
C538 C 1.03002 0.44744 0.40007 0.0
C539 C 1.03184 0.45504 0.49069 0.0
C540 C 1.00958 0.45003 0.52893 0.0
C541 C 1.00311 0.43493 0.61512 0.0
C542 C 1.00935 0.47125 0.55184 0.0
C543 C 0.99503 0.4383 0.44563 0.0
C544 C 1.00729 0.43703 0.37231 0.0
C545 C 0.99767 0.42614 0.28932 0.0
C546 C 0.97487 0.41597 0.28125 0.0
C547 C 0.96189 0.41692 0.35515 0.0
C548 C 0.97213 0.4285 0.43806 0.0
H549 H 0.64111 0.63528 0.42273 0.0
H550 H 0.60664 0.59806 0.67114 0.0
H551 H 0.6231 0.5748 0.65026 0.0
H552 H 0.63785 0.59091 0.28798 0.0
H553 H 0.66523 0.60601 0.24035 0.0
H554 H 0.65081 0.62018 0.27281 0.0
H555 H 0.68268 0.64573 0.38179 0.0
H556 H 0.69727 0.63172 0.3492 0.0
H557 H 0.69169 0.63396 0.47097 0.0
H558 H 0.64133 0.55428 0.60078 0.0
H559 H 0.66357 0.53964 0.53452 0.0
H560 H 0.68922 0.59092 0.32276 0.0
C561 C 0.63723 0.62243 0.47349 0.0
C562 C 0.62206 0.61834 0.54763 0.0
C563 C 0.61756 0.60125 0.61207 0.0
C564 C 0.62698 0.58796 0.60127 0.0
C565 C 0.6413 0.59206 0.52655 0.0
C566 C 0.64679 0.60906 0.4645 0.0
C567 C 0.66316 0.60997 0.39165 0.0
C568 C 0.65369 0.60656 0.29231 0.0
C569 C 0.685 0.63163 0.39885 0.0
C570 C 0.66568 0.59064 0.42209 0.0
C571 C 0.65274 0.58055 0.49977 0.0
C572 C 0.65166 0.56211 0.54031 0.0
C573 C 0.66435 0.55384 0.50148 0.0
C574 C 0.67823 0.56403 0.42297 0.0
C575 C 0.67883 0.58273 0.38271 0.0
H576 H 0.50123 0.12537 0.35873 0.0
H577 H 0.56663 0.1455 0.45996 0.0
H578 H 0.55381 0.10792 0.51554 0.0
H579 H 0.47202 0.08922 0.54813 0.0
H580 H 0.45038 0.0691 0.47607 0.0
H581 H 0.46475 0.09744 0.44088 0.0
H582 H 0.47452 0.08667 0.28166 0.0
H583 H 0.46018 0.05828 0.31627 0.0
H584 H 0.48847 0.07108 0.2798 0.0
H585 H 0.53391 0.06868 0.56518 0.0
H586 H 0.50851 1.02978 0.6004 0.0
H587 H 0.45568 0.03451 0.4681 0.0
C588 C 0.51295 0.12185 0.39154 0.0
C589 C 0.53503 0.13849 0.40434 0.0
C590 C 0.54971 0.13312 0.44854 0.0
C591 C 0.54256 0.11179 0.48072 0.0
C592 C 0.52069 0.0959 0.46806 0.0
C593 C 0.5061 0.10058 0.42405 0.0
C594 C 0.48339 0.08045 0.42045 0.0
C595 C 0.46665 0.08429 0.47462 0.0
C596 C 0.47622 0.07372 0.31848 0.0
C597 C 0.4875 0.06377 0.46981 0.0
C598 C 0.50914 0.07311 0.49678 0.0
C599 C 0.51693 0.06119 0.54451 0.0
C600 C 0.50228 0.03911 0.56498 0.0
C601 C 0.47999 1.02903 0.538 0.0
C602 C 0.4726 0.04164 0.48944 0.0
H603 H 0.16848 0.14809 0.93999 0.0
H604 H 0.1358 0.1055 0.17826 0.0
H605 H 0.1121 0.12154 0.19501 0.0
H606 H 0.16664 0.1955 0.02471 0.0
H607 H 0.16037 0.20291 0.91306 0.0
H608 H 0.17561 0.18863 0.91779 0.0
H609 H 0.14708 0.15812 0.81095 0.0
H610 H 0.13191 0.17245 0.80509 0.0
H611 H 0.11852 0.14435 0.84396 0.0
H612 H 0.09326 0.14212 0.19375 0.0
H613 H 0.07535 0.16338 0.16171 0.0
H614 H 0.11709 0.19242 0.91691 0.0
C615 C 0.15619 0.14204 -0.00496 0.0
C616 C 0.15442 0.12584 0.05939 0.0
C617 C 0.13802 0.11832 0.13004 0.0
C618 C 0.12438 0.12727 0.13997 0.0
C619 C 0.12698 0.14358 0.07788 0.0
C620 C 0.14209 0.15073 0.00559 0.0
C621 C 0.14053 0.16806 0.94738 0.0
C622 C 0.16208 0.19008 0.95098 0.0
C623 C 0.13413 0.16027 0.84581 0.0
C624 C 0.12218 0.16936 -0.00117 0.0
C625 C 0.115 0.15517 0.07442 0.0
C626 C 0.09848 0.1531 0.13417 0.0
C627 C 0.08838 0.16529 0.11492 0.0
C628 C 0.0945 0.17932 0.03577 0.0
C629 C 0.11205 0.18183 0.97781 0.0
H630 H 0.94086 0.94952 0.08284 0.0
H631 H 0.88993 0.93632 0.88044 0.0
H632 H 0.90371 0.97573 0.86408 0.0
H633 H 0.93857 0.99385 0.19736 0.0
H634 H 0.96766 1.01008 0.21661 0.0
H635 H 0.95476 0.98069 0.2096 0.0
H636 H 0.98157 0.98436 0.07654 0.0
H637 H 0.99454 1.01379 0.08304 0.0
H638 H 0.98372 1.00001 0.97323 0.0
H639 H 0.92211 1.01595 0.86837 0.0
H640 H 0.94326 0.05544 0.89973 0.0
H641 H 0.98189 0.04427 0.1053 0.0
C642 C 0.93283 0.955 0.03434 0.0
C643 C 0.91432 0.93973 0.98269 0.0
C644 C 0.90406 0.94758 0.92105 0.0
C645 C 0.91181 0.97 0.91086 0.0
C646 C 0.92986 0.98459 0.96302 0.0
C647 C 0.94025 0.97756 0.02398 0.0
C648 C 0.95877 0.99699 0.07433 0.0
C649 C 0.95469 0.9953 0.18079 0.0
C650 C 0.98097 0.9989 0.05034 0.0
C651 C 0.95698 1.01589 0.0323 0.0
C652 C 0.94027 1.00822 0.96766 0.0
C653 C 0.93517 1.0222 0.91929 0.0
C654 C 0.94722 0.04466 0.93821 0.0
C655 C 0.9641 0.05312 0.00604 0.0
C656 C 0.9692 0.03844 0.05272 0.0
H657 H 0.05117 0.92028 0.06074 0.0
H658 H 1.03411 0.96849 0.96687 0.0
H659 H 0.07309 0.99496 0.94074 0.0
H660 H 0.10038 0.95742 0.18091 0.0
H661 H 0.11552 0.94418 0.14526 0.0
H662 H 0.08612 0.92849 0.15556 0.0
H663 H 0.0836 0.91553 0.98387 0.0
H664 H 0.11302 0.93125 0.97312 0.0
H665 H 0.09609 0.93557 0.89167 0.0
H666 H 0.11331 1.01671 0.92884 0.0
H667 H 0.15329 0.03317 0.93315 0.0
H668 H 0.14611 0.97143 0.02866 0.0
C669 C 0.05559 0.93632 0.03368 0.0
C670 C 1.03931 0.94223 0.01681 0.0
C671 C 1.04604 0.96355 0.98245 0.0
C672 C 0.06822 0.9787 0.9664 0.0
C673 C 0.0837 0.97239 0.98409 0.0
C674 C 0.07781 0.95174 0.01673 0.0
C675 C 0.09807 0.94954 0.03118 0.0
C676 C 0.10014 0.94462 0.13437 0.0
C677 C 0.09766 0.93193 0.96607 0.0
C678 C 0.11622 0.97232 0.0029 0.0
C679 C 0.10735 0.98508 0.97568 0.0
C680 C 0.12044 1.00687 0.94948 0.0
C681 C 0.1432 1.01608 0.95243 0.0
C682 C 0.15291 1.00363 0.98105 0.0
C683 C 0.13918 0.98127 0.00525 0.0
H684 H 0.74605 0.48548 0.35075 0.0
H685 H 0.79746 0.55377 0.35788 0.0
H686 H 0.82523 0.54229 0.36505 0.0
H687 H 0.77064 0.46535 0.51055 0.0
H688 H 0.76203 0.44002 0.44876 0.0
H689 H 0.74607 0.45349 0.44114 0.0
H690 H 0.74918 0.45404 0.26032 0.0
H691 H 0.76518 0.44058 0.26711 0.0
H692 H 0.77587 0.46627 0.20564 0.0
H693 H 0.8474 0.52377 0.37858 0.0
H694 H 0.86285 0.49932 0.39414 0.0
H695 H 0.79766 0.44264 0.37443 0.0
C696 C 0.76316 0.49806 0.35327 0.0
C697 C 0.7695 0.5206 0.35367 0.0
C698 C 0.7921 0.53644 0.35711 0.0
C699 C 0.80804 0.53007 0.36129 0.0
C700 C 0.80122 0.50778 0.36127 0.0
C701 C 0.77935 0.49199 0.35684 0.0
C702 C 0.77652 0.46912 0.3588 0.0
C703 C 0.76302 0.45624 0.44495 0.0
C704 C 0.76607 0.45677 0.26752 0.0
C705 C 0.80023 0.47455 0.36627 0.0
C706 C 0.81414 0.49699 0.36758 0.0
C707 C 0.83669 0.50618 0.37711 0.0
C708 C 0.84531 0.49215 0.38627 0.0
C709 C 0.8315 0.46909 0.38565 0.0
C710 C 0.80864 0.46019 0.37428 0.0
H711 H 0.64636 0.37633 0.4303 0.0
H712 H 0.60099 0.38885 0.27416 0.0
H713 H 0.57646 0.34918 0.25488 0.0
H714 H 0.63891 0.3302 0.28626 0.0
H715 H 0.64113 0.31528 0.38399 0.0
H716 H 0.65527 0.34477 0.38616 0.0
H717 H 0.63612 0.3436 0.54336 0.0
H718 H 0.62184 0.31411 0.54133 0.0
H719 H 0.60663 0.32837 0.55086 0.0
H720 H 0.55608 0.30803 0.25573 0.0
H721 H 0.54255 0.26833 0.26845 0.0
H722 H 0.6016 0.28225 0.41816 0.0
C723 C 0.63143 0.3708 0.39094 0.0
C724 C 0.6256 0.38593 0.35484 0.0
C725 C 0.60571 0.37776 0.30455 0.0
C726 C 0.59167 0.35518 0.29262 0.0
C727 C 0.59771 0.34079 0.33042 0.0
C728 C 0.61722 0.34823 0.37767 0.0
C729 C 0.61986 0.32918 0.41039 0.0
C730 C 0.63999 0.3299 0.36391 0.0
C731 C 0.62119 0.3288 0.51787 0.0
C732 C 0.5987 0.30993 0.37484 0.0
C733 C 0.58614 0.31701 0.32914 0.0
C734 C 0.56582 0.30228 0.29105 0.0
C735 C 0.55822 0.27973 0.29893 0.0
C736 C 0.57093 0.27205 0.34429 0.0
C737 C 0.59142 0.28748 0.38297 0.0
H738 H 0.71923 0.30496 0.39067 0.0
H739 H 0.70971 0.23939 0.3632 0.0
H740 H 0.74956 0.25495 0.34319 0.0
H741 H 0.76287 0.3307 0.21915 0.0
H742 H 0.77786 0.3558 0.28431 0.0
H743 H 0.74851 0.33965 0.29625 0.0
H744 H 0.7524 0.33785 0.47596 0.0
H745 H 0.78176 0.354 0.46456 0.0
H746 H 0.76943 0.32766 0.52174 0.0
H747 H 0.7898 0.27719 0.32168 0.0
H748 H 0.82885 0.3048 0.30977 0.0
H749 H 0.81327 0.35652 0.35551 0.0
C750 C 0.72557 0.29391 0.3804 0.0
C751 C 0.71137 0.27093 0.37907 0.0
C752 C 0.72028 0.25699 0.366 0.0
C753 C 0.74287 0.26569 0.35381 0.0
C754 C 0.75637 0.28836 0.35523 0.0
C755 C 0.74815 0.30232 0.3688 0.0
C756 C 0.76643 0.32608 0.36868 0.0
C757 C 0.76375 0.3388 0.28725 0.0
C758 C 0.76757 0.33704 0.46339 0.0
C759 C 0.7862 0.32323 0.35349 0.0
C760 C 0.77989 0.30131 0.34486 0.0
C761 C 0.79497 0.2944 0.32859 0.0
C762 C 0.81714 0.31027 0.32155 0.0
C763 C 0.82416 0.33286 0.33165 0.0
C764 C 0.80842 0.33939 0.34791 0.0
H765 H 0.48861 0.80332 0.58821 0.0
H766 H 0.48389 0.79009 0.88728 0.0
H767 H 0.46464 0.8108 0.90951 0.0
H768 H 0.49778 0.85905 0.60804 0.0
H769 H 0.48146 0.85669 0.50723 0.0
H770 H 0.49533 0.84106 0.51302 0.0
H771 H 0.45852 0.80523 0.48755 0.0
H772 H 0.44458 0.82077 0.48119 0.0
H773 H 0.43572 0.79876 0.56483 0.0
H774 H 0.44513 0.83158 0.90143 0.0
H775 H 0.42492 0.85063 0.86212 0.0
H776 H 0.44247 0.85226 0.56907 0.0
C777 C 0.48363 0.80489 0.6584 0.0
C778 C 0.48762 0.79476 0.73589 0.0
C779 C 0.48066 0.79717 0.82641 0.0
C780 C 0.4699 0.80914 0.84003 0.0
C781 C 0.46623 0.81884 0.76264 0.0
C782 C 0.47278 0.81688 0.67346 0.0
C783 C 0.46613 0.82859 0.60247 0.0
C784 C 0.48639 0.84747 0.55489 0.0
C785 C 0.45029 0.81237 0.52973 0.0
C786 C 0.45467 0.83721 0.66593 0.0
C787 C 0.4551 0.83139 0.75808 0.0
C788 C 0.44486 0.83642 0.82976 0.0
C789 C 0.43345 0.84727 0.80675 0.0
C790 C 0.43242 0.85317 0.71298 0.0
C791 C 0.44349 0.84842 0.64164 0.0
H792 H 0.27678 0.61682 0.70154 0.0
H793 H 0.20909 0.60005 0.66167 0.0
H794 H 0.22008 0.63915 0.66873 0.0
H795 H 0.29156 0.66081 0.86277 0.0
H796 H 0.31862 0.6778 0.81436 0.0
H797 H 0.30556 0.64844 0.80513 0.0
H798 H 0.31074 0.6517 0.62497 0.0
H799 H 0.32384 0.68109 0.6335 0.0
H800 H 0.30034 0.66633 0.55915 0.0
H801 H 0.23795 0.67976 0.68486 0.0
H802 H 0.26201 0.71971 0.70055 0.0
H803 H 0.31833 0.71063 0.7277 0.0
C804 C 0.26428 0.62139 0.69413 0.0
C805 C 0.24205 0.60534 0.68117 0.0
C806 C 0.22623 0.61202 0.67117 0.0
C807 C 0.2323 0.6342 0.67537 0.0
C808 C 0.25428 0.64959 0.68871 0.0
C809 C 0.27009 0.64355 0.69705 0.0
C810 C 0.29263 0.66349 0.7095 0.0
C811 C 0.30268 0.66257 0.80356 0.0
C812 C 0.30778 0.66578 0.62685 0.0
C813 C 0.28691 0.6816 0.70866 0.0
C814 C 0.26469 0.67318 0.69658 0.0
C815 C 0.25539 0.68658 0.69435 0.0
C816 C 0.26917 0.70925 0.70416 0.0
C817 C 0.29205 0.71836 0.71596 0.0
C818 C 0.30095 0.70423 0.71822 0.0
H819 H 0.47893 0.68219 0.73654 0.0
H820 H 0.49319 0.64346 0.54151 0.0
H821 H 0.45368 0.61737 0.5264 0.0
H822 H 0.43446 0.63633 0.85511 0.0
H823 H 0.41838 0.64955 0.871 0.0
H824 H 0.4478 0.66575 0.86425 0.0
H825 H 0.4447 0.68816 0.72772 0.0
H826 H 0.41525 0.67198 0.73375 0.0
H827 H 0.42933 0.67412 0.62489 0.0
H828 H 0.41285 0.59566 0.53012 0.0
H829 H 0.37322 0.57821 0.55997 0.0
H830 H 0.38464 0.62953 0.75911 0.0
C831 C 0.47373 0.66831 0.69012 0.0
C832 C 0.48926 0.66501 0.63966 0.0
C833 C 0.48172 0.64643 0.58079 0.0
C834 C 0.45926 0.63151 0.57151 0.0
C835 C 0.44442 0.63523 0.62199 0.0
C836 C 0.45129 0.65305 0.68072 0.0
C837 C 0.43184 0.65271 0.72936 0.0
C838 C 0.4332 0.65097 0.83627 0.0
C839 C 0.43019 0.67295 0.70229 0.0
C840 C 0.41299 0.63189 0.68871 0.0
C841 C 0.42071 0.62223 0.62641 0.0
C842 C 0.40662 0.60297 0.5794 0.0
C843 C 0.38408 0.59308 0.59743 0.0
C844 C 0.37562 0.60221 0.66299 0.0
C845 C 0.39041 0.62211 0.70822 0.0
H846 H 0.07609 0.22106 0.73905 0.0
H847 H 1.00683 0.17214 0.73517 0.0
H848 H 1.00783 0.17094 0.56436 0.0
H849 H 0.07379 0.25031 0.53496 0.0
H850 H 0.1002 0.25663 0.48891 0.0
H851 H 0.095 0.25309 0.61328 0.0
H852 H 0.10622 0.22326 0.61444 0.0
H853 H 0.11133 0.22662 0.48991 0.0
H854 H 0.09258 0.19997 0.53754 0.0
H855 H 1.01474 0.17488 0.39813 0.0
H856 H 1.02717 0.18559 0.23654 0.0
H857 H 0.0922 0.23275 0.33477 0.0
C858 C 0.06126 0.21005 0.70184 0.0
C859 C 1.04141 0.19657 0.75095 0.0
C860 C 1.02225 0.18259 0.69979 0.0
C861 C 1.02262 0.18169 0.60234 0.0
C862 C 1.04223 0.19505 0.55595 0.0
C863 C 0.06122 0.20916 0.60295 0.0
C864 C 0.07961 0.2225 0.53308 0.0
C865 C 0.08762 0.24709 0.54318 0.0
C866 C 0.09856 0.2178 0.54444 0.0
C867 C 0.06779 0.21357 0.44036 0.0
C868 C 0.04628 0.19764 0.4565 0.0
C869 C 1.03158 0.18722 0.38419 0.0
C870 C 1.03885 0.19341 0.29234 0.0
C871 C 0.06068 0.20983 0.2727 0.0
C872 C 0.07549 0.21994 0.34776 0.0
H873 H 0.88416 0.89016 0.72852 0.0
H874 H 0.89261 0.83322 0.7386 0.0
H875 H 0.88734 0.82862 0.56863 0.0
H876 H 0.84234 0.86886 0.53642 0.0
H877 H 0.85317 0.89541 0.48237 0.0
H878 H 0.85532 0.89326 0.60732 0.0
H879 H 0.89729 0.91897 0.59531 0.0
H880 H 0.89533 0.92096 0.4703 0.0
H881 H 0.91312 0.91191 0.51776 0.0
H882 H 0.88597 0.83219 0.40081 0.0
H883 H 0.88442 0.84137 0.23721 0.0
H884 H 0.87516 0.89535 0.3247 0.0
C885 C 0.88435 0.87647 0.69474 0.0
C886 C 0.88885 0.86203 0.74642 0.0
C887 C 0.88931 0.8445 0.70017 0.0
C888 C 0.8863 0.84171 0.60364 0.0
C889 C 0.8827 0.85654 0.55392 0.0
C890 C 0.88135 0.87341 0.59716 0.0
C891 C 0.87817 0.88738 0.52449 0.0
C892 C 0.85592 0.88615 0.53849 0.0
C893 C 0.89711 0.91122 0.52716 0.0
C894 C 0.87862 0.87602 0.43425 0.0
C895 C 0.88127 0.85829 0.45402 0.0
C896 C 0.88351 0.84579 0.38414 0.0
C897 C 0.88275 0.85128 0.29104 0.0
C898 C 0.87951 0.86899 0.26779 0.0
C899 C 0.87741 0.88158 0.34051 0.0
H900 H 0.24648 0.07634 0.67895 0.0
H901 H 0.19652 1.01164 0.77201 0.0
H902 H 0.18716 1.00005 0.6087 0.0
H903 H 0.21737 0.07982 0.47616 0.0
H904 H 0.24125 0.09283 0.40137 0.0
H905 H 0.24404 0.09697 0.52637 0.0
H906 H 0.27198 0.08325 0.52992 0.0
H907 H 0.26947 0.07934 0.40486 0.0
H908 H 0.26453 0.05686 0.48064 0.0
H909 H 0.18224 0.99514 0.44011 0.0
H910 H 0.18522 0.99529 0.26871 0.0
H911 H 0.2394 0.06226 0.27585 0.0
C912 C 0.23362 0.05976 0.66445 0.0
C913 C 0.22212 0.04493 0.73821 0.0
C914 C 0.20553 1.0233 0.71687 0.0
C915 C 0.19997 1.01657 0.62421 0.0
C916 C 0.21128 0.03156 0.55322 0.0
C917 C 0.228 0.05258 0.5714 0.0
C918 C 0.23813 0.0648 0.48035 0.0
C919 C 0.23501 0.08479 0.47052 0.0
C920 C 0.26247 0.07145 0.47356 0.0
C921 C 0.22451 0.04724 0.40888 0.0
C922 C 0.20893 1.02839 0.45335 0.0
C923 C 0.19442 1.00973 0.40423 0.0
C924 C 0.19625 1.01001 0.30683 0.0
C925 C 0.21262 1.02871 0.25925 0.0
C926 C 0.22667 0.0478 0.31065 0.0
H927 H 0.69342 0.53355 0.64077 0.0
H928 H 0.76418 0.57252 0.62129 0.0
H929 H 0.76691 0.56983 0.79284 0.0
H930 H 0.68822 0.55751 0.8544 0.0
H931 H 0.66615 0.5324 0.90187 0.0
H932 H 0.66958 0.53619 0.77679 0.0
H933 H 0.67138 0.50048 0.76141 0.0
H934 H 0.6678 0.49649 0.88639 0.0
H935 H 0.69108 0.49726 0.82929 0.0
H936 H 0.76229 0.5634 0.96296 0.0
H937 H 0.75079 0.55391 0.12697 0.0
H938 H 0.68255 0.52035 0.04295 0.0
C939 C 0.70941 0.54125 0.67317 0.0
C940 C 0.72866 0.55312 0.61899 0.0
C941 C 0.74936 0.56332 0.66254 0.0
C942 C 0.75103 0.56187 0.75955 0.0
C943 C 0.73181 0.55028 0.81172 0.0
C944 C 0.71137 0.54013 0.7706 0.0
C945 C 0.69338 0.52934 0.8442 0.0
C946 C 0.67845 0.53947 0.84431 0.0
C947 C 0.68013 0.50441 0.82942 0.0
C948 C 0.70696 0.5351 0.93292 0.0
C949 C 0.72907 0.5471 0.91181 0.0
C950 C 0.74503 0.55418 0.98062 0.0
C951 C 0.73829 0.54886 0.07381 0.0
C952 C 0.71577 0.53684 0.09803 0.0
C953 C 0.69987 0.52977 0.02648 0.0
H954 H 0.53385 0.22363 0.67273 0.0
H955 H 0.56723 0.18922 0.57698 0.0
H956 H 0.57114 0.18058 0.73874 0.0
H957 H 0.56923 0.2477 0.87782 0.0
H958 H 0.54751 0.24569 0.95224 0.0
H959 H 0.54647 0.24895 0.82749 0.0
H960 H 0.50826 0.21391 0.82342 0.0
H961 H 0.50937 0.21032 0.94794 0.0
H962 H 0.50502 0.18858 0.86868 0.0
H963 H 0.56956 0.17314 0.90472 0.0
H964 H 0.56957 0.17354 0.0764 0.0
H965 H 0.5406 0.21543 0.07589 0.0
C966 C 0.54211 0.21445 0.68636 0.0
C967 C 0.5499 0.20679 0.61191 0.0
C968 C 0.56088 0.19506 0.63233 0.0
C969 C 0.56311 0.18993 0.72421 0.0
C970 C 0.55473 0.19704 0.79567 0.0
C971 C 0.545 0.20955 0.77897 0.0
C972 C 0.53877 0.21606 0.87103 0.0
C973 C 0.55124 0.24109 0.88283 0.0
C974 C 0.51388 0.20665 0.87814 0.0
C975 C 0.54647 0.2051 0.94099 0.0
C976 C 0.55517 0.19389 0.89487 0.0
C977 C 0.56308 0.18207 0.94209 0.0
C978 C 0.56295 0.18238 0.03968 0.0
C979 C 0.55535 0.19473 0.0893 0.0
C980 C 0.54652 0.20588 0.0395 0.0
H981 H 0.8715 0.33956 0.65474 0.0
H982 H 0.92163 0.40461 0.56652 0.0
H983 H 0.92942 0.4161 0.73017 0.0
H984 H 0.85094 0.35828 0.84409 0.0
H985 H 0.84561 0.33618 0.9229 0.0
H986 H 0.8447 0.33194 0.79809 0.0
H987 H 0.87327 0.31924 0.81345 0.0
H988 H 0.87439 0.32364 0.93831 0.0
H989 H 0.89914 0.33698 0.8689 0.0
H990 H 0.93184 0.42157 0.89857 0.0
H991 H 0.92644 0.42198 0.06836 0.0
H992 H 0.87391 0.35425 0.05872 0.0
C993 C 0.8842 0.35613 0.67039 0.0
C994 C 0.89609 0.37112 0.59733 0.0
C995 C 0.91233 0.39277 0.6205 0.0
C996 C 0.91699 0.39948 0.71367 0.0
C997 C 0.90514 0.38447 0.78386 0.0
C998 C 0.8889 0.36332 0.76423 0.0
C999 C 0.87784 0.35121 0.85469 0.0
C1000 C 0.85331 0.34398 0.85492 0.0
C1001 C 0.88138 0.3316 0.8697 0.0
C1002 C 0.89025 0.36905 0.92721 0.0
C1003 C 0.90613 0.38791 0.88385 0.0
C1004 C 0.91949 0.40693 0.93357 0.0
C1005 C 0.91624 0.407 0.03011 0.0
C1006 C 0.8997 0.38824 0.07664 0.0
C1007 C 0.88676 0.36879 0.02487 0.0
H1008 H 0.41116 0.88215 0.39879 0.0
H1009 H 0.34388 0.8685 0.41235 0.0
H1010 H 0.34378 0.87273 0.24183 0.0
H1011 H 0.42838 0.92309 0.20366 0.0
H1012 H 0.44579 0.91408 0.15024 0.0
H1013 H 0.44154 0.91205 0.27541 0.0
H1014 H 0.42857 0.87062 0.26698 0.0
H1015 H 0.43239 0.87241 0.14171 0.0
H1016 H 0.4061 0.8532 0.19144 0.0
H1017 H 0.34853 0.87333 0.07308 0.0
H1018 H 0.35979 0.87558 0.90873 0.0
H1019 H 0.42496 0.89107 -0.00429 0.0
C1020 C 0.39666 0.88058 0.36563 0.0
C1021 C 0.37747 0.87486 0.41832 0.0
C1022 C 0.35869 0.87272 0.37304 0.0
C1023 C 0.35845 0.8751 0.27622 0.0
C1024 C 0.37722 0.87987 0.22556 0.0
C1025 C 0.39616 0.88304 0.26806 0.0
C1026 C 0.41372 0.88742 0.19503 0.0
C1027 C 0.43353 0.91054 0.20679 0.0
C1028 C 0.42059 0.86986 0.19906 0.0
C1029 C 0.40136 0.8856 0.10542 0.0
C1030 C 0.38031 0.88113 0.12557 0.0
C1031 C 0.3651 0.87728 0.05602 0.0
C1032 C 0.37165 0.87845 0.96279 0.0
C1033 C 0.39331 0.88374 0.93961 0.0
C1034 C 0.40839 0.88731 0.01183 0.0
H1035 H 0.22915 0.52419 0.96299 0.0
H1036 H 0.2037 0.56905 0.95877 0.0
H1037 H 0.2064 0.57212 0.13018 0.0
H1038 H 0.20146 0.49561 0.16912 0.0
H1039 H 0.22365 0.49283 0.21597 0.0
H1040 H 0.2214 0.49498 0.09122 0.0
H1041 H 0.26072 0.52831 0.08445 0.0
H1042 H 0.26325 0.5261 0.20905 0.0
H1043 H 0.26785 0.55156 0.15921 0.0
H1044 H 0.20797 0.56785 0.29885 0.0
H1045 H 0.21276 0.56007 0.46145 0.0
H1046 H 0.23913 0.51927 0.36523 0.0
C1047 C 0.22456 0.53493 -0.00158 0.0
C1048 C 0.21608 0.5463 0.94787 0.0
C1049 C 0.21008 0.56009 -0.00375 0.0
C1050 C 0.21154 0.56195 0.09364 0.0
C1051 C 0.21924 0.55006 0.14193 0.0
C1052 C 0.22603 0.5371 0.09659 0.0
C1053 C 0.23331 0.5259 0.16725 0.0
C1054 C 0.21911 0.50084 0.16046 0.0
C1055 C 0.25774 0.53342 0.15421 0.0
C1056 C 0.22916 0.53438 0.25888 0.0
C1057 C 0.22091 0.54817 0.24169 0.0
C1058 C 0.21475 0.55737 0.3135 0.0
C1059 C 0.21746 0.55275 0.40584 0.0
C1060 C 0.22652 0.53924 0.42622 0.0
C1061 C 0.23236 0.52982 0.35162 0.0
H1062 H 0.54792 0.68638 0.39479 0.0
H1063 H 0.57894 0.75741 0.39024 0.0
H1064 H 0.57824 0.75702 0.21916 0.0
H1065 H 0.57817 0.6834 0.18972 0.0
H1066 H 0.55542 0.65861 0.14448 0.0
H1067 H 0.5577 0.66385 0.26877 0.0
H1068 H 0.51886 0.65919 0.2709 0.0
H1069 H 0.51654 0.65418 0.14641 0.0
H1070 H 0.51282 0.6758 0.1944 0.0
H1071 H 0.57288 0.75008 0.05366 0.0
H1072 H 0.56803 0.73712 0.89215 0.0
H1073 H 0.54275 0.67036 -0.00968 0.0
C1074 C 0.5546 0.70176 0.35729 0.0
C1075 C 0.5632 0.72192 0.40612 0.0
C1076 C 0.57205 0.74175 0.35485 0.0
C1077 C 0.5717 0.74175 0.25734 0.0
C1078 C 0.56276 0.72179 0.21123 0.0
C1079 C 0.55475 0.70213 0.2584 0.0
C1080 C 0.54698 0.68328 0.1888 0.0
C1081 C 0.56037 0.6716 0.19853 0.0
C1082 C 0.52233 0.66716 0.20087 0.0
C1083 C 0.55185 0.6956 0.09598 0.0
C1084 C 0.56065 0.71775 0.112 0.0
C1085 C 0.56624 0.73281 0.03975 0.0
C1086 C 0.56336 0.72521 0.94792 0.0
C1087 C 0.55523 0.70276 0.92818 0.0
C1088 C 0.54906 0.68762 0.00335 0.0
loop_
_geom_bond_atom_site_label_1
_geom_bond_atom_site_label_2
_geom_bond_distance
_geom_bond_site_symmetry_2
_ccdc_geom_bond_type
La0 C2 2.928 1_554 S
La0 O20 2.521 . S
La0 O21 2.628 1_554 S
La0 O22 2.554 . S
La0 O23 2.757 . S
La0 O24 2.470 . S
La0 O29 2.482 1_554 S
La0 O31 2.503 1_554 S
La1 C11 2.928 1_556 S
La1 O23 2.482 1_656 S
La1 O25 2.503 1_556 S
La1 O26 2.521 . S
La1 O27 2.628 1_556 S
La1 O28 2.554 . S
La1 O29 2.757 1_655 S
La1 O30 2.470 1_655 S
C2 La0 2.928 1_556 S
C2 C3 1.503 . S
C2 O20 1.261 1_556 S
C2 O21 1.243 . S
C3 C2 1.503 . S
C3 C4 1.394 1_556 S
C3 C8 1.373 . S
C4 C3 1.394 1_554 S
C4 C5 1.380 . S
C4 H32 0.930 . S
C5 C4 1.380 . S
C5 C6 1.376 1_554 S
C5 H33 0.930 . S
C6 C5 1.376 1_556 S
C6 C7 1.370 . S
C7 C6 1.370 . S
C7 C8 1.396 . S
C7 H34 0.929 . S
C8 C3 1.373 . S
C8 C7 1.396 . S
C8 H35 0.929 . S
C9 O22 1.240 . S
C9 O23 1.289 . S
C10 O24 1.258 1_655 S
C10 O25 1.256 . S
C11 La1 2.928 1_554 S
C11 C12 1.503 . S
C11 O26 1.261 1_554 S
C11 O27 1.243 . S
C12 C11 1.503 . S
C12 C13 1.394 1_554 S
C12 C17 1.373 . S
C13 C12 1.394 1_556 S
C13 C14 1.380 . S
C13 H36 0.930 . S
C14 C13 1.380 . S
C14 C15 1.376 1_556 S
C14 H37 0.930 . S
C15 C14 1.376 1_554 S
C15 C16 1.370 . S
C16 C15 1.370 . S
C16 C17 1.396 . S
C16 H38 0.929 . S
C17 C12 1.373 . S
C17 C16 1.396 . S
C17 H39 0.929 . S
C18 O28 1.240 1_455 S
C18 O29 1.289 . S
C19 O30 1.258 . S
C19 O31 1.256 . S
O20 La0 2.521 . S
O20 C2 1.261 1_554 S
O21 La0 2.628 1_556 S
O21 C2 1.243 . S
O22 La0 2.554 . S
O22 C9 1.240 . S
O23 La0 2.757 . S
O23 La1 2.482 1_454 S
O23 C9 1.289 . S
O24 La0 2.470 . S
O24 C10 1.258 1_455 S
O25 La1 2.503 1_554 S
O25 C10 1.256 . S
O26 La1 2.521 . S
O26 C11 1.261 1_556 S
O27 La1 2.628 1_554 S
O27 C11 1.243 . S
O28 La1 2.554 . S
O28 C18 1.240 1_655 S
O29 La0 2.482 1_556 S
O29 La1 2.757 1_455 S
O29 C18 1.289 . S
O30 La1 2.470 1_455 S
O30 C19 1.258 . S
O31 La0 2.503 1_556 S
O31 C19 1.256 . S
H32 C4 0.930 . S
H33 C5 0.930 . S
H34 C7 0.929 . S
H35 C8 0.929 . S
H36 C13 0.930 . S
H37 C14 0.930 . S
H38 C16 0.929 . S
H39 C17 0.929 . S
La40 C42 2.928 1_554 S
La40 O60 2.521 . S
La40 O61 2.628 1_554 S
La40 O62 2.554 . S
La40 O63 2.757 . S
La40 O64 2.470 . S
La40 O69 2.482 1_554 S
La40 O71 2.503 1_554 S
La41 C51 2.928 1_556 S
La41 O63 2.482 1_556 S
La41 O65 2.503 1_556 S
La41 O66 2.521 . S
La41 O67 2.628 1_556 S
La41 O68 2.554 . S
La41 O69 2.757 . S
La41 O70 2.470 . S
C42 La40 2.928 1_556 S
C42 C43 1.503 . S
C42 O60 1.261 1_556 S
C42 O61 1.243 . S
C43 C42 1.503 . S
C43 C44 1.394 1_556 S
C43 C48 1.373 . S
C44 C43 1.394 1_554 S
C44 C45 1.380 . S
C44 H72 0.930 . S
C45 C44 1.380 . S
C45 C46 1.376 1_554 S
C45 H73 0.930 . S
C46 C45 1.376 1_556 S
C46 C47 1.370 . S
C47 C46 1.370 . S
C47 C48 1.396 . S
C47 H74 0.929 . S
C48 C43 1.373 . S
C48 C47 1.396 . S
C48 H75 0.929 . S
C49 O62 1.240 . S
C49 O63 1.289 . S
C50 O64 1.258 . S
C50 O65 1.256 . S
C51 La41 2.928 1_554 S
C51 C52 1.503 . S
C51 O66 1.261 1_554 S
C51 O67 1.243 . S
C52 C51 1.503 . S
C52 C53 1.394 1_554 S
C52 C57 1.373 . S
C53 C52 1.394 1_556 S
C53 C54 1.380 . S
C53 H76 0.930 . S
C54 C53 1.380 . S
C54 C55 1.376 1_556 S
C54 H77 0.930 . S
C55 C54 1.376 1_554 S
C55 C56 1.370 . S
C56 C55 1.370 . S
C56 C57 1.396 . S
C56 H78 0.929 . S
C57 C52 1.373 . S
C57 C56 1.396 . S
C57 H79 0.929 . S
C58 O68 1.240 . S
C58 O69 1.289 . S
C59 O70 1.258 . S
C59 O71 1.256 . S
O60 La40 2.521 . S
O60 C42 1.261 1_554 S
O61 La40 2.628 1_556 S
O61 C42 1.243 . S
O62 La40 2.554 . S
O62 C49 1.240 . S
O63 La40 2.757 . S
O63 La41 2.482 1_554 S
O63 C49 1.289 . S
O64 La40 2.470 . S
O64 C50 1.258 . S
O65 La41 2.503 1_554 S
O65 C50 1.256 . S
O66 La41 2.521 . S
O66 C51 1.261 1_556 S
O67 La41 2.628 1_554 S
O67 C51 1.243 . S
O68 La41 2.554 . S
O68 C58 1.240 . S
O69 La40 2.482 1_556 S
O69 La41 2.757 . S
O69 C58 1.289 . S
O70 La41 2.470 . S
O70 C59 1.258 . S
O71 La40 2.503 1_556 S
O71 C59 1.256 . S
H72 C44 0.930 . S
H73 C45 0.930 . S
H74 C47 0.929 . S
H75 C48 0.929 . S
H76 C53 0.930 . S
H77 C54 0.930 . S
H78 C56 0.929 . S
H79 C57 0.929 . S
La80 C82 2.928 1_554 S
La80 O100 2.521 . S
La80 O101 2.628 1_554 S
La80 O102 2.554 . S
La80 O103 2.757 1_565 S
La80 O104 2.470 1_565 S
La80 O109 2.482 1_564 S
La80 O111 2.503 1_554 S
La81 C91 2.928 1_556 S
La81 O103 2.482 1_556 S
La81 O105 2.503 1_556 S
La81 O106 2.521 . S
La81 O107 2.628 1_556 S
La81 O108 2.554 . S
La81 O109 2.757 . S
La81 O110 2.470 . S
C82 La80 2.928 1_556 S
C82 C83 1.503 . S
C82 O100 1.261 1_556 S
C82 O101 1.243 . S
C83 C82 1.503 . S
C83 C84 1.394 1_556 S
C83 C88 1.373 . S
C84 C83 1.394 1_554 S
C84 C85 1.380 . S
C84 H112 0.930 . S
C85 C84 1.380 . S
C85 C86 1.376 1_554 S
C85 H113 0.930 . S
C86 C85 1.376 1_556 S
C86 C87 1.370 . S
C87 C86 1.370 . S
C87 C88 1.396 . S
C87 H114 0.929 . S
C88 C83 1.373 . S
C88 C87 1.396 . S
C88 H115 0.929 . S
C89 O102 1.240 1_545 S
C89 O103 1.289 . S
C90 O104 1.258 . S
C90 O105 1.256 . S
C91 La81 2.928 1_554 S
C91 C92 1.503 . S
C91 O106 1.261 1_554 S
C91 O107 1.243 . S
C92 C91 1.503 . S
C92 C93 1.394 1_554 S
C92 C97 1.373 . S
C93 C92 1.394 1_556 S
C93 C94 1.380 . S
C93 H116 0.930 . S
C94 C93 1.380 . S
C94 C95 1.376 1_556 S
C94 H117 0.930 . S
C95 C94 1.376 1_554 S
C95 C96 1.370 . S
C96 C95 1.370 . S
C96 C97 1.396 . S
C96 H118 0.929 . S
C97 C92 1.373 . S
C97 C96 1.396 . S
C97 H119 0.929 . S
C98 O108 1.240 . S
C98 O109 1.289 . S
C99 O110 1.258 1_565 S
C99 O111 1.256 . S
O100 La80 2.521 . S
O100 C82 1.261 1_554 S
O101 La80 2.628 1_556 S
O101 C82 1.243 . S
O102 La80 2.554 . S
O102 C89 1.240 1_565 S
O103 La80 2.757 1_545 S
O103 La81 2.482 1_554 S
O103 C89 1.289 . S
O104 La80 2.470 1_545 S
O104 C90 1.258 . S
O105 La81 2.503 1_554 S
O105 C90 1.256 . S
O106 La81 2.521 . S
O106 C91 1.261 1_556 S
O107 La81 2.628 1_554 S
O107 C91 1.243 . S
O108 La81 2.554 . S
O108 C98 1.240 . S
O109 La80 2.482 1_546 S
O109 La81 2.757 . S
O109 C98 1.289 . S
O110 La81 2.470 . S
O110 C99 1.258 1_545 S
O111 La80 2.503 1_556 S
O111 C99 1.256 . S
H112 C84 0.930 . S
H113 C85 0.930 . S
H114 C87 0.929 . S
H115 C88 0.929 . S
H116 C93 0.930 . S
H117 C94 0.930 . S
H118 C96 0.929 . S
H119 C97 0.929 . S
La120 C122 2.928 . S
La120 O140 2.521 . S
La120 O141 2.628 . S
La120 O142 2.554 . S
La120 O143 2.757 . S
La120 O144 2.470 . S
La120 O149 2.482 . S
La120 O151 2.503 . S
La121 C131 2.928 . S
La121 O143 2.482 . S
La121 O145 2.503 . S
La121 O146 2.521 . S
La121 O147 2.628 . S
La121 O148 2.554 . S
La121 O149 2.757 . S
La121 O150 2.470 . S
C122 La120 2.928 . S
C122 C123 1.503 . S
C122 O140 1.261 . S
C122 O141 1.243 . S
C123 C122 1.503 . S
C123 C124 1.394 . S
C123 C128 1.373 . S
C124 C123 1.394 . S
C124 C125 1.380 . S
C124 H152 0.930 . S
C125 C124 1.380 . S
C125 C126 1.376 . S
C125 H153 0.930 . S
C126 C125 1.376 . S
C126 C127 1.370 . S
C127 C126 1.370 . S
C127 C128 1.396 . S
C127 H154 0.929 . S
C128 C123 1.373 . S
C128 C127 1.396 . S
C128 H155 0.929 . S
C129 O142 1.240 . S
C129 O143 1.289 . S
C130 O144 1.258 . S
C130 O145 1.256 . S
C131 La121 2.928 . S
C131 C132 1.503 . S
C131 O146 1.261 . S
C131 O147 1.243 . S
C132 C131 1.503 . S
C132 C133 1.394 . S
C132 C137 1.373 . S
C133 C132 1.394 . S
C133 C134 1.380 . S
C133 H156 0.930 . S
C134 C133 1.380 . S
C134 C135 1.376 . S
C134 H157 0.930 . S
C135 C134 1.376 . S
C135 C136 1.370 . S
C136 C135 1.370 . S
C136 C137 1.396 . S
C136 H158 0.929 . S
C137 C132 1.373 . S
C137 C136 1.396 . S
C137 H159 0.929 . S
C138 O148 1.240 . S
C138 O149 1.289 . S
C139 O150 1.258 . S
C139 O151 1.256 . S
O140 La120 2.521 . S
O140 C122 1.261 . S
O141 La120 2.628 . S
O141 C122 1.243 . S
O142 La120 2.554 . S
O142 C129 1.240 . S
O143 La120 2.757 . S
O143 La121 2.482 . S
O143 C129 1.289 . S
O144 La120 2.470 . S
O144 C130 1.258 . S
O145 La121 2.503 . S
O145 C130 1.256 . S
O146 La121 2.521 . S
O146 C131 1.261 . S
O147 La121 2.628 . S
O147 C131 1.243 . S
O148 La121 2.554 . S
O148 C138 1.240 . S
O149 La120 2.482 . S
O149 La121 2.757 . S
O149 C138 1.289 . S
O150 La121 2.470 . S
O150 C139 1.258 . S
O151 La120 2.503 . S
O151 C139 1.256 . S
H152 C124 0.930 . S
H153 C125 0.930 . S
H154 C127 0.929 . S
H155 C128 0.929 . S
H156 C133 0.930 . S
H157 C134 0.930 . S
H158 C136 0.929 . S
H159 C137 0.929 . S
La160 C162 2.928 . S
La160 O180 2.521 . S
La160 O181 2.628 . S
La160 O182 2.554 . S
La160 O183 2.757 . S
La160 O184 2.470 . S
La160 O189 2.482 . S
La160 O191 2.503 . S
La161 C171 2.928 . S
La161 O183 2.482 . S
La161 O185 2.503 . S
La161 O186 2.521 . S
La161 O187 2.628 . S
La161 O188 2.554 . S
La161 O189 2.757 . S
La161 O190 2.470 . S
C162 La160 2.928 . S
C162 C163 1.503 . S
C162 O180 1.261 . S
C162 O181 1.243 . S
C163 C162 1.503 . S
C163 C164 1.394 . S
C163 C168 1.373 . S
C164 C163 1.394 . S
C164 C165 1.380 . S
C164 H192 0.930 . S
C165 C164 1.380 . S
C165 C166 1.376 . S
C165 H193 0.930 . S
C166 C165 1.376 . S
C166 C167 1.370 . S
C167 C166 1.370 . S
C167 C168 1.396 . S
C167 H194 0.929 . S
C168 C163 1.373 . S
C168 C167 1.396 . S
C168 H195 0.929 . S
C169 O182 1.240 . S
C169 O183 1.289 . S
C170 O184 1.258 . S
C170 O185 1.256 . S
C171 La161 2.928 . S
C171 C172 1.503 . S
C171 O186 1.261 . S
C171 O187 1.243 . S
C172 C171 1.503 . S
C172 C173 1.394 . S
C172 C177 1.373 . S
C173 C172 1.394 . S
C173 C174 1.380 . S
C173 H196 0.930 . S
C174 C173 1.380 . S
C174 C175 1.376 . S
C174 H197 0.930 . S
C175 C174 1.376 . S
C175 C176 1.370 . S
C176 C175 1.370 . S
C176 C177 1.396 . S
C176 H198 0.929 . S
C177 C172 1.373 . S
C177 C176 1.396 . S
C177 H199 0.929 . S
C178 O188 1.240 . S
C178 O189 1.289 . S
C179 O190 1.258 . S
C179 O191 1.256 . S
O180 La160 2.521 . S
O180 C162 1.261 . S
O181 La160 2.628 . S
O181 C162 1.243 . S
O182 La160 2.554 . S
O182 C169 1.240 . S
O183 La160 2.757 . S
O183 La161 2.482 . S
O183 C169 1.289 . S
O184 La160 2.470 . S
O184 C170 1.258 . S
O185 La161 2.503 . S
O185 C170 1.256 . S
O186 La161 2.521 . S
O186 C171 1.261 . S
O187 La161 2.628 . S
O187 C171 1.243 . S
O188 La161 2.554 . S
O188 C178 1.240 . S
O189 La160 2.482 . S
O189 La161 2.757 . S
O189 C178 1.289 . S
O190 La161 2.470 . S
O190 C179 1.258 . S
O191 La160 2.503 . S
O191 C179 1.256 . S
H192 C164 0.930 . S
H193 C165 0.930 . S
H194 C167 0.929 . S
H195 C168 0.929 . S
H196 C173 0.930 . S
H197 C174 0.930 . S
H198 C176 0.929 . S
H199 C177 0.929 . S
La200 C202 2.928 . S
La200 O220 2.521 . S
La200 O221 2.628 . S
La200 O222 2.554 . S
La200 O223 2.757 . S
La200 O224 2.470 . S
La200 O229 2.482 . S
La200 O231 2.503 . S
La201 C211 2.928 . S
La201 O223 2.482 . S
La201 O225 2.503 . S
La201 O226 2.521 . S
La201 O227 2.628 . S
La201 O228 2.554 . S
La201 O229 2.757 . S
La201 O230 2.470 . S
C202 La200 2.928 . S
C202 C203 1.503 . S
C202 O220 1.261 . S
C202 O221 1.243 . S
C203 C202 1.503 . S
C203 C204 1.394 . S
C203 C208 1.373 . S
C204 C203 1.394 . S
C204 C205 1.380 . S
C204 H232 0.930 . S
C205 C204 1.380 . S
C205 C206 1.376 . S
C205 H233 0.930 . S
C206 C205 1.376 . S
C206 C207 1.370 . S
C207 C206 1.370 . S
C207 C208 1.396 . S
C207 H234 0.929 . S
C208 C203 1.373 . S
C208 C207 1.396 . S
C208 H235 0.929 . S
C209 O222 1.240 . S
C209 O223 1.289 . S
C210 O224 1.258 . S
C210 O225 1.256 . S
C211 La201 2.928 . S
C211 C212 1.503 . S
C211 O226 1.261 . S
C211 O227 1.243 . S
C212 C211 1.503 . S
C212 C213 1.394 . S
C212 C217 1.373 . S
C213 C212 1.394 . S
C213 C214 1.380 . S
C213 H236 0.930 . S
C214 C213 1.380 . S
C214 C215 1.376 . S
C214 H237 0.930 . S
C215 C214 1.376 . S
C215 C216 1.370 . S
C216 C215 1.370 . S
C216 C217 1.396 . S
C216 H238 0.929 . S
C217 C212 1.373 . S
C217 C216 1.396 . S
C217 H239 0.929 . S
C218 O228 1.240 . S
C218 O229 1.289 . S
C219 O230 1.258 . S
C219 O231 1.256 . S
O220 La200 2.521 . S
O220 C202 1.261 . S
O221 La200 2.628 . S
O221 C202 1.243 . S
O222 La200 2.554 . S
O222 C209 1.240 . S
O223 La200 2.757 . S
O223 La201 2.482 . S
O223 C209 1.289 . S
O224 La200 2.470 . S
O224 C210 1.258 . S
O225 La201 2.503 . S
O225 C210 1.256 . S
O226 La201 2.521 . S
O226 C211 1.261 . S
O227 La201 2.628 . S
O227 C211 1.243 . S
O228 La201 2.554 . S
O228 C218 1.240 . S
O229 La200 2.482 . S
O229 La201 2.757 . S
O229 C218 1.289 . S
O230 La201 2.470 . S
O230 C219 1.258 . S
O231 La200 2.503 . S
O231 C219 1.256 . S
H232 C204 0.930 . S
H233 C205 0.930 . S
H234 C207 0.929 . S
H235 C208 0.929 . S
H236 C213 0.930 . S
H237 C214 0.930 . S
H238 C216 0.929 . S
H239 C217 0.929 . S
La240 C242 2.928 . S
La240 O260 2.521 . S
La240 O261 2.628 . S
La240 O262 2.554 . S
La240 O263 2.757 . S
La240 O264 2.470 . S
La240 O269 2.482 . S
La240 O271 2.503 . S
La241 C251 2.928 . S
La241 O263 2.482 . S
La241 O265 2.503 . S
La241 O266 2.521 . S
La241 O267 2.628 . S
La241 O268 2.554 . S
La241 O269 2.757 . S
La241 O270 2.470 . S
C242 La240 2.928 . S
C242 C243 1.503 . S
C242 O260 1.261 . S
C242 O261 1.243 . S
C243 C242 1.503 . S
C243 C244 1.394 . S
C243 C248 1.373 . S
C244 C243 1.394 . S
C244 C245 1.380 . S
C244 H272 0.930 . S
C245 C244 1.380 . S
C245 C246 1.376 . S
C245 H273 0.930 . S
C246 C245 1.376 . S
C246 C247 1.370 . S
C247 C246 1.370 . S
C247 C248 1.396 . S
C247 H274 0.929 . S
C248 C243 1.373 . S
C248 C247 1.396 . S
C248 H275 0.929 . S
C249 O262 1.240 . S
C249 O263 1.289 . S
C250 O264 1.258 . S
C250 O265 1.256 . S
C251 La241 2.928 . S
C251 C252 1.503 . S
C251 O266 1.261 . S
C251 O267 1.243 . S
C252 C251 1.503 . S
C252 C253 1.394 . S
C252 C257 1.373 . S
C253 C252 1.394 . S
C253 C254 1.380 . S
C253 H276 0.930 . S
C254 C253 1.380 . S
C254 C255 1.376 . S
C254 H277 0.930 . S
C255 C254 1.376 . S
C255 C256 1.370 . S
C256 C255 1.370 . S
C256 C257 1.396 . S
C256 H278 0.929 . S
C257 C252 1.373 . S
C257 C256 1.396 . S
C257 H279 0.929 . S
C258 O268 1.240 . S
C258 O269 1.289 . S
C259 O270 1.258 . S
C259 O271 1.256 . S
O260 La240 2.521 . S
O260 C242 1.261 . S
O261 La240 2.628 . S
O261 C242 1.243 . S
O262 La240 2.554 . S
O262 C249 1.240 . S
O263 La240 2.757 . S
O263 La241 2.482 . S
O263 C249 1.289 . S
O264 La240 2.470 . S
O264 C250 1.258 . S
O265 La241 2.503 . S
O265 C250 1.256 . S
O266 La241 2.521 . S
O266 C251 1.261 . S
O267 La241 2.628 . S
O267 C251 1.243 . S
O268 La241 2.554 . S
O268 C258 1.240 . S
O269 La240 2.482 . S
O269 La241 2.757 . S
O269 C258 1.289 . S
O270 La241 2.470 . S
O270 C259 1.258 . S
O271 La240 2.503 . S
O271 C259 1.256 . S
H272 C244 0.930 . S
H273 C245 0.930 . S
H274 C247 0.929 . S
H275 C248 0.929 . S
H276 C253 0.930 . S
H277 C254 0.930 . S
H278 C256 0.929 . S
H279 C257 0.929 . S
La280 C282 2.928 . S
La280 O300 2.521 . S
La280 O301 2.628 . S
La280 O302 2.554 . S
La280 O303 2.757 . S
La280 O304 2.470 . S
La280 O309 2.482 . S
La280 O311 2.503 . S
La281 C291 2.928 . S
La281 O303 2.482 . S
La281 O305 2.503 . S
La281 O306 2.521 . S
La281 O307 2.628 . S
La281 O308 2.554 . S
La281 O309 2.757 . S
La281 O310 2.470 . S
C282 La280 2.928 . S
C282 C283 1.503 . S
C282 O300 1.261 . S
C282 O301 1.243 . S
C283 C282 1.503 . S
C283 C284 1.394 . S
C283 C288 1.373 . S
C284 C283 1.394 . S
C284 C285 1.380 . S
C284 H312 0.930 . S
C285 C284 1.380 . S
C285 C286 1.376 . S
C285 H313 0.930 . S
C286 C285 1.376 . S
C286 C287 1.370 . S
C287 C286 1.370 . S
C287 C288 1.396 . S
C287 H314 0.929 . S
C288 C283 1.373 . S
C288 C287 1.396 . S
C288 H315 0.929 . S
C289 O302 1.240 . S
C289 O303 1.289 . S
C290 O304 1.258 . S
C290 O305 1.256 . S
C291 La281 2.928 . S
C291 C292 1.503 . S
C291 O306 1.261 . S
C291 O307 1.243 . S
C292 C291 1.503 . S
C292 C293 1.394 . S
C292 C297 1.373 . S
C293 C292 1.394 . S
C293 C294 1.380 . S
C293 H316 0.930 . S
C294 C293 1.380 . S
C294 C295 1.376 . S
C294 H317 0.930 . S
C295 C294 1.376 . S
C295 C296 1.370 . S
C296 C295 1.370 . S
C296 C297 1.396 . S
C296 H318 0.929 . S
C297 C292 1.373 . S
C297 C296 1.396 . S
C297 H319 0.929 . S
C298 O308 1.240 . S
C298 O309 1.289 . S
C299 O310 1.258 . S
C299 O311 1.256 . S
O300 La280 2.521 . S
O300 C282 1.261 . S
O301 La280 2.628 . S
O301 C282 1.243 . S
O302 La280 2.554 . S
O302 C289 1.240 . S
O303 La280 2.757 . S
O303 La281 2.482 . S
O303 C289 1.289 . S
O304 La280 2.470 . S
O304 C290 1.258 . S
O305 La281 2.503 . S
O305 C290 1.256 . S
O306 La281 2.521 . S
O306 C291 1.261 . S
O307 La281 2.628 . S
O307 C291 1.243 . S
O308 La281 2.554 . S
O308 C298 1.240 . S
O309 La280 2.482 . S
O309 La281 2.757 . S
O309 C298 1.289 . S
O310 La281 2.470 . S
O310 C299 1.258 . S
O311 La280 2.503 . S
O311 C299 1.256 . S
H312 C284 0.930 . S
H313 C285 0.930 . S
H314 C287 0.929 . S
H315 C288 0.929 . S
H316 C293 0.930 . S
H317 C294 0.930 . S
H318 C296 0.929 . S
H319 C297 0.929 . S
La320 C322 2.928 . S
La320 O340 2.521 . S
La320 O341 2.628 . S
La320 O342 2.554 . S
La320 O343 2.757 . S
La320 O344 2.470 . S
La320 O349 2.482 . S
La320 O351 2.503 . S
La321 C331 2.928 . S
La321 O343 2.482 . S
La321 O345 2.503 . S
La321 O346 2.521 . S
La321 O347 2.628 . S
La321 O348 2.554 . S
La321 O349 2.757 . S
La321 O350 2.470 . S
C322 La320 2.928 . S
C322 C323 1.503 . S
C322 O340 1.261 . S
C322 O341 1.243 . S
C323 C322 1.503 . S
C323 C324 1.394 . S
C323 C328 1.373 . S
C324 C323 1.394 . S
C324 C325 1.380 . S
C324 H352 0.930 . S
C325 C324 1.380 . S
C325 C326 1.376 . S
C325 H353 0.930 . S
C326 C325 1.376 . S
C326 C327 1.370 . S
C327 C326 1.370 . S
C327 C328 1.396 . S
C327 H354 0.929 . S
C328 C323 1.373 . S
C328 C327 1.396 . S
C328 H355 0.929 . S
C329 O342 1.240 . S
C329 O343 1.289 . S
C330 O344 1.258 . S
C330 O345 1.256 . S
C331 La321 2.928 . S
C331 C332 1.503 . S
C331 O346 1.261 . S
C331 O347 1.243 . S
C332 C331 1.503 . S
C332 C333 1.394 . S
C332 C337 1.373 . S
C333 C332 1.394 . S
C333 C334 1.380 . S
C333 H356 0.930 . S
C334 C333 1.380 . S
C334 C335 1.376 . S
C334 H357 0.930 . S
C335 C334 1.376 . S
C335 C336 1.370 . S
C336 C335 1.370 . S
C336 C337 1.396 . S
C336 H358 0.929 . S
C337 C332 1.373 . S
C337 C336 1.396 . S
C337 H359 0.929 . S
C338 O348 1.240 . S
C338 O349 1.289 . S
C339 O350 1.258 . S
C339 O351 1.256 . S
O340 La320 2.521 . S
O340 C322 1.261 . S
O341 La320 2.628 . S
O341 C322 1.243 . S
O342 La320 2.554 . S
O342 C329 1.240 . S
O343 La320 2.757 . S
O343 La321 2.482 . S
O343 C329 1.289 . S
O344 La320 2.470 . S
O344 C330 1.258 . S
O345 La321 2.503 . S
O345 C330 1.256 . S
O346 La321 2.521 . S
O346 C331 1.261 . S
O347 La321 2.628 . S
O347 C331 1.243 . S
O348 La321 2.554 . S
O348 C338 1.240 . S
O349 La320 2.482 . S
O349 La321 2.757 . S
O349 C338 1.289 . S
O350 La321 2.470 . S
O350 C339 1.258 . S
O351 La320 2.503 . S
O351 C339 1.256 . S
H352 C324 0.930 . S
H353 C325 0.930 . S
H354 C327 0.929 . S
H355 C328 0.929 . S
H356 C333 0.930 . S
H357 C334 0.930 . S
H358 C336 0.929 . S
H359 C337 0.929 . S
H360 C372 0.930 . S
H361 C374 0.930 1_554 S
H362 C375 0.930 1_554 S
H363 C379 0.959 . S
H364 C379 0.959 . S
H365 C379 0.961 . S
H366 C380 0.960 . S
H367 C380 0.961 . S
H368 C380 0.959 . S
H369 C383 0.929 . S
H370 C384 0.931 . S
H371 C386 0.930 . S
C372 H360 0.930 . S
C372 C373 1.399 . S
C372 C377 1.399 . S
C373 C372 1.399 . S
C373 C374 1.376 . S
C374 H361 0.930 1_556 S
C374 C373 1.376 . S
C374 C375 1.388 . S
C375 H362 0.930 1_556 S
C375 C374 1.388 . S
C375 C376 1.390 . S
C376 C375 1.390 . S
C376 C377 1.394 . S
C376 C382 1.465 . S
C377 C372 1.399 . S
C377 C376 1.394 . S
C377 C378 1.516 . S
C378 C377 1.516 . S
C378 C379 1.502 . S
C378 C380 1.561 . S
C378 C381 1.526 . S
C379 H363 0.959 . S
C379 H364 0.959 . S
C379 H365 0.961 . S
C379 C378 1.502 . S
C380 H366 0.960 . S
C380 H367 0.961 . S
C380 H368 0.959 . S
C380 C378 1.561 . S
C381 C378 1.526 . S
C381 C382 1.396 . S
C381 C386 1.390 . S
C382 C376 1.465 . S
C382 C381 1.396 . S
C382 C383 1.399 . S
C383 H369 0.929 . S
C383 C382 1.399 . S
C383 C384 1.385 . S
C384 H370 0.931 . S
C384 C383 1.385 . S
C384 C385 1.389 . S
C385 C384 1.389 . S
C385 C386 1.387 . S
C386 H371 0.930 . S
C386 C381 1.390 . S
C386 C385 1.387 . S
H387 C399 0.930 . S
H388 C401 0.930 . S
H389 C402 0.930 . S
H390 C406 0.959 . S
H391 C406 0.959 . S
H392 C406 0.961 . S
H393 C407 0.960 1_554 S
H394 C407 0.961 1_554 S
H395 C407 0.959 . S
H396 C410 0.929 . S
H397 C411 0.931 . S
H398 C413 0.930 . S
C399 H387 0.930 . S
C399 C400 1.399 . S
C399 C404 1.399 . S
C400 C399 1.399 . S
C400 C401 1.376 . S
C401 H388 0.930 . S
C401 C400 1.376 . S
C401 C402 1.388 . S
C402 H389 0.930 . S
C402 C401 1.388 . S
C402 C403 1.390 . S
C403 C402 1.390 . S
C403 C404 1.394 . S
C403 C409 1.465 . S
C404 C399 1.399 . S
C404 C403 1.394 . S
C404 C405 1.516 . S
C405 C404 1.516 . S
C405 C406 1.502 . S
C405 C407 1.561 . S
C405 C408 1.526 . S
C406 H390 0.959 . S
C406 H391 0.959 . S
C406 H392 0.961 . S
C406 C405 1.502 . S
C407 H393 0.960 1_556 S
C407 H394 0.961 1_556 S
C407 H395 0.959 . S
C407 C405 1.561 . S
C408 C405 1.526 . S
C408 C409 1.396 . S
C408 C413 1.390 . S
C409 C403 1.465 . S
C409 C408 1.396 . S
C409 C410 1.399 . S
C410 H396 0.929 . S
C410 C409 1.399 . S
C410 C411 1.385 . S
C411 H397 0.931 . S
C411 C410 1.385 . S
C411 C412 1.389 . S
C412 C411 1.389 . S
C412 C413 1.387 . S
C413 H398 0.930 . S
C413 C408 1.390 . S
C413 C412 1.387 . S
H414 C426 0.930 1_554 S
H415 C428 0.930 . S
H416 C429 0.930 . S
H417 C433 0.959 . S
H418 C433 0.959 . S
H419 C433 0.961 . S
H420 C434 0.960 1_554 S
H421 C434 0.961 1_554 S
H422 C434 0.959 . S
H423 C437 0.929 . S
H424 C438 0.931 . S
H425 C440 0.930 . S
C426 H414 0.930 1_556 S
C426 C427 1.399 . S
C426 C431 1.399 . S
C427 C426 1.399 . S
C427 C428 1.376 . S
C428 H415 0.930 . S
C428 C427 1.376 . S
C428 C429 1.388 . S
C429 H416 0.930 . S
C429 C428 1.388 . S
C429 C430 1.390 . S
C430 C429 1.390 . S
C430 C431 1.394 . S
C430 C436 1.465 . S
C431 C426 1.399 . S
C431 C430 1.394 . S
C431 C432 1.516 . S
C432 C431 1.516 . S
C432 C433 1.502 . S
C432 C434 1.561 . S
C432 C435 1.526 . S
C433 H417 0.959 . S
C433 H418 0.959 . S
C433 H419 0.961 . S
C433 C432 1.502 . S
C434 H420 0.960 1_556 S
C434 H421 0.961 1_556 S
C434 H422 0.959 . S
C434 C432 1.561 . S
C435 C432 1.526 . S
C435 C436 1.396 . S
C435 C440 1.390 . S
C436 C430 1.465 . S
C436 C435 1.396 . S
C436 C437 1.399 . S
C437 H423 0.929 . S
C437 C436 1.399 . S
C437 C438 1.385 . S
C438 H424 0.931 . S
C438 C437 1.385 . S
C438 C439 1.389 . S
C439 C438 1.389 . S
C439 C440 1.387 . S
C440 H425 0.930 . S
C440 C435 1.390 . S
C440 C439 1.387 . S
H441 C453 0.930 . S
H442 C455 0.930 . S
H443 C456 0.930 . S
H444 C460 0.959 . S
H445 C460 0.959 . S
H446 C460 0.961 . S
H447 C461 0.960 . S
H448 C461 0.961 . S
H449 C461 0.959 . S
H450 C464 0.929 1_556 S
H451 C465 0.931 . S
H452 C467 0.930 . S
C453 H441 0.930 . S
C453 C454 1.399 . S
C453 C458 1.399 . S
C454 C453 1.399 . S
C454 C455 1.376 . S
C455 H442 0.930 . S
C455 C454 1.376 . S
C455 C456 1.388 . S
C456 H443 0.930 . S
C456 C455 1.388 . S
C456 C457 1.390 . S
C457 C456 1.390 . S
C457 C458 1.394 . S
C457 C463 1.465 . S
C458 C453 1.399 . S
C458 C457 1.394 . S
C458 C459 1.516 . S
C459 C458 1.516 . S
C459 C460 1.502 . S
C459 C461 1.561 . S
C459 C462 1.526 . S
C460 H444 0.959 . S
C460 H445 0.959 . S
C460 H446 0.961 . S
C460 C459 1.502 . S
C461 H447 0.960 . S
C461 H448 0.961 . S
C461 H449 0.959 . S
C461 C459 1.561 . S
C462 C459 1.526 . S
C462 C463 1.396 . S
C462 C467 1.390 . S
C463 C457 1.465 . S
C463 C462 1.396 . S
C463 C464 1.399 . S
C464 H450 0.929 1_554 S
C464 C463 1.399 . S
C464 C465 1.385 1_554 S
C465 H451 0.931 . S
C465 C464 1.385 1_556 S
C465 C466 1.389 1_556 S
C466 C465 1.389 1_554 S
C466 C467 1.387 . S
C467 H452 0.930 . S
C467 C462 1.390 . S
C467 C466 1.387 . S
H468 C480 0.930 . S
H469 C482 0.930 . S
H470 C483 0.930 . S
H471 C487 0.959 1_554 S
H472 C487 0.959 . S
H473 C487 0.961 . S
H474 C488 0.960 . S
H475 C488 0.961 . S
H476 C488 0.959 1_554 S
H477 C491 0.929 . S
H478 C492 0.931 . S
H479 C494 0.930 1_556 S
C480 H468 0.930 . S
C480 C481 1.399 . S
C480 C485 1.399 . S
C481 C480 1.399 . S
C481 C482 1.376 . S
C482 H469 0.930 . S
C482 C481 1.376 . S
C482 C483 1.388 . S
C483 H470 0.930 . S
C483 C482 1.388 . S
C483 C484 1.390 . S
C484 C483 1.390 . S
C484 C485 1.394 . S
C484 C490 1.465 . S
C485 C480 1.399 . S
C485 C484 1.394 . S
C485 C486 1.516 . S
C486 C485 1.516 . S
C486 C487 1.502 1_554 S
C486 C488 1.561 1_554 S
C486 C489 1.526 . S
C487 H471 0.959 1_556 S
C487 H472 0.959 . S
C487 H473 0.961 . S
C487 C486 1.502 1_556 S
C488 H474 0.960 . S
C488 H475 0.961 . S
C488 H476 0.959 1_556 S
C488 C486 1.561 1_556 S
C489 C486 1.526 . S
C489 C490 1.396 . S
C489 C494 1.390 . S
C490 C484 1.465 . S
C490 C489 1.396 . S
C490 C491 1.399 . S
C491 H477 0.929 . S
C491 C490 1.399 . S
C491 C492 1.385 . S
C492 H478 0.931 . S
C492 C491 1.385 . S
C492 C493 1.389 . S
C493 C492 1.389 . S
C493 C494 1.387 . S
C494 H479 0.930 1_554 S
C494 C489 1.390 . S
C494 C493 1.387 . S
H495 C507 0.930 . S
H496 C509 0.930 . S
H497 C510 0.930 1_556 S
H498 C514 0.959 . S
H499 C514 0.959 . S
H500 C514 0.961 . S
H501 C515 0.960 . S
H502 C515 0.961 . S
H503 C515 0.959 . S
H504 C518 0.929 . S
H505 C519 0.931 . S
H506 C521 0.930 . S
C507 H495 0.930 . S
C507 C508 1.399 . S
C507 C512 1.399 . S
C508 C507 1.399 . S
C508 C509 1.376 1_554 S
C509 H496 0.930 . S
C509 C508 1.376 1_556 S
C509 C510 1.388 1_556 S
C510 H497 0.930 1_554 S
C510 C509 1.388 1_554 S
C510 C511 1.390 . S
C511 C510 1.390 . S
C511 C512 1.394 . S
C511 C517 1.465 . S
C512 C507 1.399 . S
C512 C511 1.394 . S
C512 C513 1.516 . S
C513 C512 1.516 . S
C513 C514 1.502 . S
C513 C515 1.561 . S
C513 C516 1.526 . S
C514 H498 0.959 . S
C514 H499 0.959 . S
C514 H500 0.961 . S
C514 C513 1.502 . S
C515 H501 0.960 . S
C515 H502 0.961 . S
C515 H503 0.959 . S
C515 C513 1.561 . S
C516 C513 1.526 . S
C516 C517 1.396 . S
C516 C521 1.390 . S
C517 C511 1.465 . S
C517 C516 1.396 . S
C517 C518 1.399 . S
C518 H504 0.929 . S
C518 C517 1.399 . S
C518 C519 1.385 . S
C519 H505 0.931 . S
C519 C518 1.385 . S
C519 C520 1.389 . S
C520 C519 1.389 . S
C520 C521 1.387 . S
C521 H506 0.930 . S
C521 C516 1.390 . S
C521 C520 1.387 . S
H522 C534 0.930 . S
H523 C536 0.930 . S
H524 C537 0.937 . S
H525 C541 0.959 . S
H526 C541 0.959 . S
H527 C541 0.961 . S
H528 C542 0.960 . S
H529 C542 0.961 . S
H530 C542 0.959 . S
H531 C545 0.929 . S
H532 C546 0.931 . S
H533 C548 0.930 . S
C534 H522 0.930 . S
C534 C535 1.399 1_655 S
C534 C539 1.399 . S
C535 C534 1.399 1_455 S
C535 C536 1.376 . S
C536 H523 0.930 . S
C536 C535 1.376 . S
C536 C537 1.388 1_455 S
C537 H524 0.937 . S
C537 C536 1.388 1_655 S
C537 C538 1.390 . S
C538 C537 1.390 . S
C538 C539 1.394 . S
C538 C544 1.465 . S
C539 C534 1.399 . S
C539 C538 1.394 . S
C539 C540 1.516 . S
C540 C539 1.516 . S
C540 C541 1.502 . S
C540 C542 1.561 . S
C540 C543 1.526 . S
C541 H525 0.959 . S
C541 H526 0.959 . S
C541 H527 0.961 . S
C541 C540 1.502 . S
C542 H528 0.960 . S
C542 H529 0.961 . S
C542 H530 0.959 . S
C542 C540 1.561 . S
C543 C540 1.526 . S
C543 C544 1.396 . S
C543 C548 1.390 . S
C544 C538 1.465 . S
C544 C543 1.396 . S
C544 C545 1.399 . S
C545 H531 0.929 . S
C545 C544 1.399 . S
C545 C546 1.385 . S
C546 H532 0.931 . S
C546 C545 1.385 . S
C546 C547 1.389 . S
C547 C546 1.389 . S
C547 C548 1.387 . S
C548 H533 0.930 . S
C548 C543 1.390 . S
C548 C547 1.387 . S
H549 C561 0.930 . S
H550 C563 0.930 . S
H551 C564 0.930 . S
H552 C568 0.959 . S
H553 C568 0.959 . S
H554 C568 0.961 . S
H555 C569 0.960 . S
H556 C569 0.961 . S
H557 C569 0.959 . S
H558 C572 0.929 . S
H559 C573 0.931 . S
H560 C575 0.930 . S
C561 H549 0.930 . S
C561 C562 1.399 . S
C561 C566 1.399 . S
C562 C561 1.399 . S
C562 C563 1.376 . S
C563 H550 0.930 . S
C563 C562 1.376 . S
C563 C564 1.388 . S
C564 H551 0.930 . S
C564 C563 1.388 . S
C564 C565 1.390 . S
C565 C564 1.390 . S
C565 C566 1.394 . S
C565 C571 1.465 . S
C566 C561 1.399 . S
C566 C565 1.394 . S
C566 C567 1.516 . S
C567 C566 1.516 . S
C567 C568 1.502 . S
C567 C569 1.561 . S
C567 C570 1.526 . S
C568 H552 0.959 . S
C568 H553 0.959 . S
C568 H554 0.961 . S
C568 C567 1.502 . S
C569 H555 0.960 . S
C569 H556 0.961 . S
C569 H557 0.959 . S
C569 C567 1.561 . S
C570 C567 1.526 . S
C570 C571 1.396 . S
C570 C575 1.390 . S
C571 C565 1.465 . S
C571 C570 1.396 . S
C571 C572 1.399 . S
C572 H558 0.929 . S
C572 C571 1.399 . S
C572 C573 1.385 . S
C573 H559 0.931 . S
C573 C572 1.385 . S
C573 C574 1.389 . S
C574 C573 1.389 . S
C574 C575 1.387 . S
C575 H560 0.930 . S
C575 C570 1.390 . S
C575 C574 1.387 . S
H576 C588 0.930 . S
H577 C590 0.930 . S
H578 C591 0.930 . S
H579 C595 0.959 . S
H580 C595 0.959 . S
H581 C595 0.961 . S
H582 C596 0.960 . S
H583 C596 0.961 . S
H584 C596 0.959 . S
H585 C599 0.929 . S
H586 C600 0.931 . S
H587 C602 0.930 . S
C588 H576 0.930 . S
C588 C589 1.399 . S
C588 C593 1.399 . S
C589 C588 1.399 . S
C589 C590 1.376 . S
C590 H577 0.930 . S
C590 C589 1.376 . S
C590 C591 1.388 . S
C591 H578 0.930 . S
C591 C590 1.388 . S
C591 C592 1.390 . S
C592 C591 1.390 . S
C592 C593 1.394 . S
C592 C598 1.465 . S
C593 C588 1.399 . S
C593 C592 1.394 . S
C593 C594 1.516 . S
C594 C593 1.516 . S
C594 C595 1.502 . S
C594 C596 1.561 . S
C594 C597 1.526 . S
C595 H579 0.959 . S
C595 H580 0.959 . S
C595 H581 0.961 . S
C595 C594 1.502 . S
C596 H582 0.960 . S
C596 H583 0.961 . S
C596 H584 0.959 . S
C596 C594 1.561 . S
C597 C594 1.526 . S
C597 C598 1.396 . S
C597 C602 1.390 . S
C598 C592 1.465 . S
C598 C597 1.396 . S
C598 C599 1.399 . S
C599 H585 0.929 . S
C599 C598 1.399 . S
C599 C600 1.385 . S
C600 H586 0.931 . S
C600 C599 1.385 . S
C600 C601 1.389 . S
C601 C600 1.389 . S
C601 C602 1.387 . S
C602 H587 0.930 . S
C602 C597 1.390 . S
C602 C601 1.387 . S
H603 C615 0.930 . S
H604 C617 0.930 . S
H605 C618 0.930 . S
H606 C622 0.959 1_554 S
H607 C622 0.959 . S
H608 C622 0.961 . S
H609 C623 0.960 . S
H610 C623 0.961 . S
H611 C623 0.959 . S
H612 C626 0.929 . S
H613 C627 0.931 . S
H614 C629 0.930 . S
C615 H603 0.930 . S
C615 C616 1.399 1_556 S
C615 C620 1.399 . S
C616 C615 1.399 1_554 S
C616 C617 1.376 . S
C617 H604 0.930 . S
C617 C616 1.376 . S
C617 C618 1.388 . S
C618 H605 0.930 . S
C618 C617 1.388 . S
C618 C619 1.390 . S
C619 C618 1.390 . S
C619 C620 1.389 1_554 S
C619 C625 1.465 . S
C620 C615 1.399 . S
C620 C619 1.389 1_556 S
C620 C621 1.521 . S
C621 C620 1.521 . S
C621 C622 1.502 . S
C621 C623 1.561 . S
C621 C624 1.526 . S
C622 H606 0.959 1_556 S
C622 H607 0.959 . S
C622 H608 0.961 . S
C622 C621 1.502 . S
C623 H609 0.960 . S
C623 H610 0.961 . S
C623 H611 0.959 . S
C623 C621 1.561 . S
C624 C621 1.526 . S
C624 C625 1.396 1_556 S
C624 C629 1.390 . S
C625 C619 1.465 . S
C625 C624 1.396 1_554 S
C625 C626 1.399 . S
C626 H612 0.929 . S
C626 C625 1.399 . S
C626 C627 1.385 . S
C627 H613 0.931 . S
C627 C626 1.385 . S
C627 C628 1.389 . S
C628 C627 1.389 . S
C628 C629 1.387 1_554 S
C629 H614 0.930 . S
C629 C624 1.390 . S
C629 C628 1.387 1_556 S
H630 C642 0.930 . S
H631 C644 0.930 . S
H632 C645 0.930 . S
H633 C649 0.959 . S
H634 C649 0.959 . S
H635 C649 0.961 . S
H636 C650 0.960 . S
H637 C650 0.961 . S
H638 C650 0.959 . S
H639 C653 0.929 . S
H640 C654 0.931 . S
H641 C656 0.930 . S
C642 H630 0.930 . S
C642 C643 1.399 . S
C642 C647 1.399 . S
C643 C642 1.399 . S
C643 C644 1.376 1_554 S
C644 H631 0.930 . S
C644 C643 1.376 1_556 S
C644 C645 1.388 . S
C645 H632 0.930 . S
C645 C644 1.388 . S
C645 C646 1.390 . S
C646 C645 1.390 . S
C646 C647 1.394 1_556 S
C646 C652 1.465 . S
C647 C642 1.399 . S
C647 C646 1.394 1_554 S
C647 C648 1.516 . S
C648 C647 1.516 . S
C648 C649 1.502 . S
C648 C650 1.561 . S
C648 C651 1.526 . S
C649 H633 0.959 . S
C649 H634 0.959 . S
C649 H635 0.961 . S
C649 C648 1.502 . S
C650 H636 0.960 . S
C650 H637 0.961 . S
C650 H638 0.959 . S
C650 C648 1.561 . S
C651 C648 1.526 . S
C651 C652 1.396 1_554 S
C651 C656 1.390 1_565 S
C652 C646 1.465 . S
C652 C651 1.396 1_556 S
C652 C653 1.399 . S
C653 H639 0.929 . S
C653 C652 1.399 . S
C653 C654 1.385 1_565 S
C654 H640 0.931 . S
C654 C653 1.385 1_545 S
C654 C655 1.389 1_556 S
C655 C654 1.389 1_554 S
C655 C656 1.387 . S
C656 H641 0.930 . S
C656 C651 1.390 1_545 S
C656 C655 1.387 . S
H657 C669 0.930 . S
H658 C671 0.990 . S
H659 C672 0.930 . S
H660 C676 0.959 . S
H661 C676 0.959 . S
H662 C676 0.961 . S
H663 C677 0.960 . S
H664 C677 0.961 . S
H665 C677 0.959 . S
H666 C680 0.979 . S
H667 C681 0.931 1_545 S
H668 C683 0.930 . S
C669 H657 0.930 . S
C669 C670 1.399 . S
C669 C674 1.399 . S
C670 C669 1.399 . S
C670 C671 1.376 . S
C671 H658 0.990 . S
C671 C670 1.376 . S
C671 C672 1.388 . S
C672 H659 0.930 . S
C672 C671 1.388 . S
C672 C673 1.390 . S
C673 C672 1.390 . S
C673 C674 1.394 . S
C673 C679 1.465 . S
C674 C669 1.399 . S
C674 C673 1.394 . S
C674 C675 1.516 . S
C675 C674 1.516 . S
C675 C676 1.502 . S
C675 C677 1.561 1_554 S
C675 C678 1.526 . S
C676 H660 0.959 . S
C676 H661 0.959 . S
C676 H662 0.961 . S
C676 C675 1.502 . S
C677 H663 0.960 . S
C677 H664 0.961 . S
C677 H665 0.959 . S
C677 C675 1.561 1_556 S
C678 C675 1.526 . S
C678 C679 1.396 . S
C678 C683 1.390 . S
C679 C673 1.465 . S
C679 C678 1.396 . S
C679 C680 1.399 . S
C680 H666 0.979 . S
C680 C679 1.399 . S
C680 C681 1.385 . S
C681 H667 0.931 1_565 S
C681 C680 1.385 . S
C681 C682 1.389 . S
C682 C681 1.389 . S
C682 C683 1.387 . S
C683 H668 0.930 . S
C683 C678 1.390 . S
C683 C682 1.387 . S
H684 C696 0.930 . S
H685 C698 0.930 . S
H686 C699 0.930 . S
H687 C703 0.959 . S
H688 C703 0.959 . S
H689 C703 0.961 . S
H690 C704 0.960 . S
H691 C704 0.961 . S
H692 C704 0.959 . S
H693 C707 0.929 . S
H694 C708 0.931 . S
H695 C710 0.930 . S
C696 H684 0.930 . S
C696 C697 1.399 . S
C696 C701 1.399 . S
C697 C696 1.399 . S
C697 C698 1.376 . S
C698 H685 0.930 . S
C698 C697 1.376 . S
C698 C699 1.388 . S
C699 H686 0.930 . S
C699 C698 1.388 . S
C699 C700 1.390 . S
C700 C699 1.390 . S
C700 C701 1.394 . S
C700 C706 1.465 . S
C701 C696 1.399 . S
C701 C700 1.394 . S
C701 C702 1.516 . S
C702 C701 1.516 . S
C702 C703 1.502 . S
C702 C704 1.561 . S
C702 C705 1.526 . S
C703 H687 0.959 . S
C703 H688 0.959 . S
C703 H689 0.961 . S
C703 C702 1.502 . S
C704 H690 0.960 . S
C704 H691 0.961 . S
C704 H692 0.959 . S
C704 C702 1.561 . S
C705 C702 1.526 . S
C705 C706 1.396 . S
C705 C710 1.390 . S
C706 C700 1.465 . S
C706 C705 1.396 . S
C706 C707 1.399 . S
C707 H693 0.929 . S
C707 C706 1.399 . S
C707 C708 1.385 . S
C708 H694 0.931 . S
C708 C707 1.385 . S
C708 C709 1.389 . S
C709 C708 1.389 . S
C709 C710 1.387 . S
C710 H695 0.930 . S
C710 C705 1.390 . S
C710 C709 1.387 . S
H711 C723 0.930 . S
H712 C725 0.930 . S
H713 C726 0.930 . S
H714 C730 0.959 . S
H715 C730 0.959 . S
H716 C730 0.961 . S
H717 C731 0.960 . S
H718 C731 0.961 . S
H719 C731 0.959 . S
H720 C734 0.929 . S
H721 C735 0.931 . S
H722 C737 0.930 . S
C723 H711 0.930 . S
C723 C724 1.399 . S
C723 C728 1.399 . S
C724 C723 1.399 . S
C724 C725 1.376 . S
C725 H712 0.930 . S
C725 C724 1.376 . S
C725 C726 1.388 . S
C726 H713 0.930 . S
C726 C725 1.388 . S
C726 C727 1.390 . S
C727 C726 1.390 . S
C727 C728 1.394 . S
C727 C733 1.465 . S
C728 C723 1.399 . S
C728 C727 1.394 . S
C728 C729 1.516 . S
C729 C728 1.516 . S
C729 C730 1.502 . S
C729 C731 1.561 . S
C729 C732 1.526 . S
C730 H714 0.959 . S
C730 H715 0.959 . S
C730 H716 0.961 . S
C730 C729 1.502 . S
C731 H717 0.960 . S
C731 H718 0.961 . S
C731 H719 0.959 . S
C731 C729 1.561 . S
C732 C729 1.526 . S
C732 C733 1.396 . S
C732 C737 1.390 . S
C733 C727 1.465 . S
C733 C732 1.396 . S
C733 C734 1.399 . S
C734 H720 0.929 . S
C734 C733 1.399 . S
C734 C735 1.385 . S
C735 H721 0.931 . S
C735 C734 1.385 . S
C735 C736 1.389 . S
C736 C735 1.389 . S
C736 C737 1.387 . S
C737 H722 0.930 . S
C737 C732 1.390 . S
C737 C736 1.387 . S
H738 C750 0.930 . S
H739 C752 0.930 . S
H740 C753 0.930 . S
H741 C757 0.959 . S
H742 C757 0.959 . S
H743 C757 0.961 . S
H744 C758 0.960 . S
H745 C758 0.961 . S
H746 C758 0.959 . S
H747 C761 0.929 . S
H748 C762 0.931 . S
H749 C764 0.930 . S
C750 H738 0.930 . S
C750 C751 1.399 . S
C750 C755 1.399 . S
C751 C750 1.399 . S
C751 C752 1.376 . S
C752 H739 0.930 . S
C752 C751 1.376 . S
C752 C753 1.388 . S
C753 H740 0.930 . S
C753 C752 1.388 . S
C753 C754 1.390 . S
C754 C753 1.390 . S
C754 C755 1.394 . S
C754 C760 1.465 . S
C755 C750 1.399 . S
C755 C754 1.394 . S
C755 C756 1.516 . S
C756 C755 1.516 . S
C756 C757 1.502 . S
C756 C758 1.561 . S
C756 C759 1.526 . S
C757 H741 0.959 . S
C757 H742 0.959 . S
C757 H743 0.961 . S
C757 C756 1.502 . S
C758 H744 0.960 . S
C758 H745 0.961 . S
C758 H746 0.959 . S
C758 C756 1.561 . S
C759 C756 1.526 . S
C759 C760 1.396 . S
C759 C764 1.390 . S
C760 C754 1.465 . S
C760 C759 1.396 . S
C760 C761 1.399 . S
C761 H747 0.929 . S
C761 C760 1.399 . S
C761 C762 1.385 . S
C762 H748 0.931 . S
C762 C761 1.385 . S
C762 C763 1.389 . S
C763 C762 1.389 . S
C763 C764 1.387 . S
C764 H749 0.930 . S
C764 C759 1.390 . S
C764 C763 1.387 . S
H765 C777 0.930 . S
H766 C779 0.930 . S
H767 C780 0.930 . S
H768 C784 0.959 . S
H769 C784 0.959 . S
H770 C784 0.961 . S
H771 C785 0.960 . S
H772 C785 0.961 . S
H773 C785 0.959 . S
H774 C788 0.929 . S
H775 C789 0.931 . S
H776 C791 0.930 . S
C777 H765 0.930 . S
C777 C778 1.399 . S
C777 C782 1.399 . S
C778 C777 1.399 . S
C778 C779 1.376 . S
C779 H766 0.930 . S
C779 C778 1.376 . S
C779 C780 1.388 . S
C780 H767 0.930 . S
C780 C779 1.388 . S
C780 C781 1.390 . S
C781 C780 1.390 . S
C781 C782 1.394 . S
C781 C787 1.465 . S
C782 C777 1.399 . S
C782 C781 1.394 . S
C782 C783 1.516 . S
C783 C782 1.516 . S
C783 C784 1.502 . S
C783 C785 1.561 . S
C783 C786 1.526 . S
C784 H768 0.959 . S
C784 H769 0.959 . S
C784 H770 0.961 . S
C784 C783 1.502 . S
C785 H771 0.960 . S
C785 H772 0.961 . S
C785 H773 0.959 . S
C785 C783 1.561 . S
C786 C783 1.526 . S
C786 C787 1.396 . S
C786 C791 1.390 . S
C787 C781 1.465 . S
C787 C786 1.396 . S
C787 C788 1.399 . S
C788 H774 0.929 . S
C788 C787 1.399 . S
C788 C789 1.385 . S
C789 H775 0.931 . S
C789 C788 1.385 . S
C789 C790 1.389 . S
C790 C789 1.389 . S
C790 C791 1.387 . S
C791 H776 0.930 . S
C791 C786 1.390 . S
C791 C790 1.387 . S
H792 C804 0.930 . S
H793 C806 0.930 . S
H794 C807 0.930 . S
H795 C811 0.959 . S
H796 C811 0.959 . S
H797 C811 0.961 . S
H798 C812 0.960 . S
H799 C812 0.961 . S
H800 C812 0.959 . S
H801 C815 0.929 . S
H802 C816 0.931 . S
H803 C818 0.930 . S
C804 H792 0.930 . S
C804 C805 1.399 . S
C804 C809 1.399 . S
C805 C804 1.399 . S
C805 C806 1.376 . S
C806 H793 0.930 . S
C806 C805 1.376 . S
C806 C807 1.388 . S
C807 H794 0.930 . S
C807 C806 1.388 . S
C807 C808 1.390 . S
C808 C807 1.390 . S
C808 C809 1.394 . S
C808 C814 1.465 . S
C809 C804 1.399 . S
C809 C808 1.394 . S
C809 C810 1.516 . S
C810 C809 1.516 . S
C810 C811 1.502 . S
C810 C812 1.561 . S
C810 C813 1.526 . S
C811 H795 0.959 . S
C811 H796 0.959 . S
C811 H797 0.961 . S
C811 C810 1.502 . S
C812 H798 0.960 . S
C812 H799 0.961 . S
C812 H800 0.959 . S
C812 C810 1.561 . S
C813 C810 1.526 . S
C813 C814 1.396 . S
C813 C818 1.390 . S
C814 C808 1.465 . S
C814 C813 1.396 . S
C814 C815 1.399 . S
C815 H801 0.929 . S
C815 C814 1.399 . S
C815 C816 1.385 . S
C816 H802 0.931 . S
C816 C815 1.385 . S
C816 C817 1.389 . S
C817 C816 1.389 . S
C817 C818 1.387 . S
C818 H803 0.930 . S
C818 C813 1.390 . S
C818 C817 1.387 . S
H819 C831 0.930 . S
H820 C833 0.930 . S
H821 C834 0.930 . S
H822 C838 0.959 . S
H823 C838 0.959 . S
H824 C838 0.961 . S
H825 C839 0.960 . S
H826 C839 0.961 . S
H827 C839 0.959 . S
H828 C842 0.929 . S
H829 C843 0.931 . S
H830 C845 0.930 . S
C831 H819 0.930 . S
C831 C832 1.399 . S
C831 C836 1.399 . S
C832 C831 1.399 . S
C832 C833 1.376 . S
C833 H820 0.930 . S
C833 C832 1.376 . S
C833 C834 1.388 . S
C834 H821 0.930 . S
C834 C833 1.388 . S
C834 C835 1.390 . S
C835 C834 1.390 . S
C835 C836 1.394 . S
C835 C841 1.465 . S
C836 C831 1.399 . S
C836 C835 1.394 . S
C836 C837 1.516 . S
C837 C836 1.516 . S
C837 C838 1.502 . S
C837 C839 1.561 . S
C837 C840 1.526 . S
C838 H822 0.959 . S
C838 H823 0.959 . S
C838 H824 0.961 . S
C838 C837 1.502 . S
C839 H825 0.960 . S
C839 H826 0.961 . S
C839 H827 0.959 . S
C839 C837 1.561 . S
C840 C837 1.526 . S
C840 C841 1.396 . S
C840 C845 1.390 . S
C841 C835 1.465 . S
C841 C840 1.396 . S
C841 C842 1.399 . S
C842 H828 0.929 . S
C842 C841 1.399 . S
C842 C843 1.385 . S
C843 H829 0.931 . S
C843 C842 1.385 . S
C843 C844 1.389 . S
C844 C843 1.389 . S
C844 C845 1.387 . S
C845 H830 0.930 . S
C845 C840 1.390 . S
C845 C844 1.387 . S
H846 C858 0.930 . S
H847 C860 0.930 . S
H848 C861 0.930 . S
H849 C865 0.959 . S
H850 C865 0.959 . S
H851 C865 0.961 . S
H852 C866 0.960 . S
H853 C866 0.961 . S
H854 C866 0.959 . S
H855 C869 0.929 . S
H856 C870 0.931 . S
H857 C872 0.930 . S
C858 H846 0.930 . S
C858 C859 1.399 . S
C858 C863 1.399 . S
C859 C858 1.399 . S
C859 C860 1.376 1_455 S
C860 H847 0.930 . S
C860 C859 1.376 1_655 S
C860 C861 1.388 . S
C861 H848 0.930 . S
C861 C860 1.388 . S
C861 C862 1.390 1_655 S
C862 C861 1.390 1_455 S
C862 C863 1.394 . S
C862 C868 1.465 . S
C863 C858 1.399 . S
C863 C862 1.394 . S
C863 C864 1.516 . S
C864 C863 1.516 . S
C864 C865 1.502 . S
C864 C866 1.561 . S
C864 C867 1.526 . S
C865 H849 0.959 . S
C865 H850 0.959 . S
C865 H851 0.961 . S
C865 C864 1.502 . S
C866 H852 0.960 . S
C866 H853 0.961 . S
C866 H854 0.959 . S
C866 C864 1.561 . S
C867 C864 1.526 . S
C867 C868 1.396 . S
C867 C872 1.390 . S
C868 C862 1.465 . S
C868 C867 1.396 . S
C868 C869 1.399 1_455 S
C869 H855 0.929 . S
C869 C868 1.399 1_655 S
C869 C870 1.385 . S
C870 H856 0.931 . S
C870 C869 1.385 . S
C870 C871 1.389 1_655 S
C871 C870 1.389 1_455 S
C871 C872 1.387 . S
C872 H857 0.930 . S
C872 C867 1.390 . S
C872 C871 1.387 . S
H873 C885 0.930 . S
H874 C887 0.930 . S
H875 C888 0.930 . S
H876 C892 0.959 . S
H877 C892 0.959 . S
H878 C892 0.961 . S
H879 C893 0.960 . S
H880 C893 0.961 . S
H881 C893 0.959 . S
H882 C896 0.929 . S
H883 C897 0.931 . S
H884 C899 0.930 . S
C885 H873 0.930 . S
C885 C886 1.399 . S
C885 C890 1.399 . S
C886 C885 1.399 . S
C886 C887 1.376 . S
C887 H874 0.930 . S
C887 C886 1.376 . S
C887 C888 1.388 . S
C888 H875 0.930 . S
C888 C887 1.388 . S
C888 C889 1.390 . S
C889 C888 1.390 . S
C889 C890 1.394 . S
C889 C895 1.465 . S
C890 C885 1.399 . S
C890 C889 1.394 . S
C890 C891 1.516 . S
C891 C890 1.516 . S
C891 C892 1.502 . S
C891 C893 1.561 . S
C891 C894 1.526 . S
C892 H876 0.959 . S
C892 H877 0.959 . S
C892 H878 0.961 . S
C892 C891 1.502 . S
C893 H879 0.960 . S
C893 H880 0.961 . S
C893 H881 0.959 . S
C893 C891 1.561 . S
C894 C891 1.526 . S
C894 C895 1.396 . S
C894 C899 1.390 . S
C895 C889 1.465 . S
C895 C894 1.396 . S
C895 C896 1.399 . S
C896 H882 0.929 . S
C896 C895 1.399 . S
C896 C897 1.385 . S
C897 H883 0.931 . S
C897 C896 1.385 . S
C897 C898 1.389 . S
C898 C897 1.389 . S
C898 C899 1.387 . S
C899 H884 0.930 . S
C899 C894 1.390 . S
C899 C898 1.387 . S
H900 C912 0.930 . S
H901 C914 0.930 . S
H902 C915 0.930 . S
H903 C919 0.959 . S
H904 C919 0.959 . S
H905 C919 0.961 . S
H906 C920 0.960 . S
H907 C920 0.961 . S
H908 C920 0.959 . S
H909 C923 0.929 . S
H910 C924 0.931 . S
H911 C926 0.930 . S
C912 H900 0.930 . S
C912 C913 1.399 . S
C912 C917 1.399 . S
C913 C912 1.399 . S
C913 C914 1.376 1_545 S
C914 H901 0.930 . S
C914 C913 1.376 1_565 S
C914 C915 1.388 . S
C915 H902 0.930 . S
C915 C914 1.388 . S
C915 C916 1.390 1_565 S
C916 C915 1.390 1_545 S
C916 C917 1.394 . S
C916 C922 1.465 . S
C917 C912 1.399 . S
C917 C916 1.394 . S
C917 C918 1.516 . S
C918 C917 1.516 . S
C918 C919 1.502 . S
C918 C920 1.561 . S
C918 C921 1.526 . S
C919 H903 0.959 . S
C919 H904 0.959 . S
C919 H905 0.961 . S
C919 C918 1.502 . S
C920 H906 0.960 . S
C920 H907 0.961 . S
C920 H908 0.959 . S
C920 C918 1.561 . S
C921 C918 1.526 . S
C921 C922 1.396 . S
C921 C926 1.390 . S
C922 C916 1.465 . S
C922 C921 1.396 . S
C922 C923 1.399 1_545 S
C923 H909 0.929 . S
C923 C922 1.399 1_565 S
C923 C924 1.385 . S
C924 H910 0.931 . S
C924 C923 1.385 . S
C924 C925 1.389 1_565 S
C925 C924 1.389 1_545 S
C925 C926 1.387 . S
C926 H911 0.930 . S
C926 C921 1.390 . S
C926 C925 1.387 . S
H927 C939 0.930 . S
H928 C941 0.930 . S
H929 C942 0.930 . S
H930 C946 0.959 . S
H931 C946 0.959 . S
H932 C946 0.961 . S
H933 C947 0.960 . S
H934 C947 0.961 . S
H935 C947 0.959 . S
H936 C950 0.929 . S
H937 C951 0.931 . S
H938 C953 0.930 . S
C939 H927 0.930 . S
C939 C940 1.399 . S
C939 C944 1.399 . S
C940 C939 1.399 . S
C940 C941 1.376 . S
C941 H928 0.930 . S
C941 C940 1.376 . S
C941 C942 1.388 . S
C942 H929 0.930 . S
C942 C941 1.388 . S
C942 C943 1.390 . S
C943 C942 1.390 . S
C943 C944 1.394 . S
C943 C949 1.465 . S
C944 C939 1.399 . S
C944 C943 1.394 . S
C944 C945 1.516 . S
C945 C944 1.516 . S
C945 C946 1.502 . S
C945 C947 1.561 . S
C945 C948 1.526 . S
C946 H930 0.959 . S
C946 H931 0.959 . S
C946 H932 0.961 . S
C946 C945 1.502 . S
C947 H933 0.960 . S
C947 H934 0.961 . S
C947 H935 0.959 . S
C947 C945 1.561 . S
C948 C945 1.526 . S
C948 C949 1.396 . S
C948 C953 1.390 1_556 S
C949 C943 1.465 . S
C949 C948 1.396 . S
C949 C950 1.399 . S
C950 H936 0.929 . S
C950 C949 1.399 . S
C950 C951 1.385 1_556 S
C951 H937 0.931 . S
C951 C950 1.385 1_554 S
C951 C952 1.389 . S
C952 C951 1.389 . S
C952 C953 1.387 . S
C953 H938 0.930 . S
C953 C948 1.390 1_554 S
C953 C952 1.387 . S
H954 C966 0.930 . S
H955 C968 0.930 . S
H956 C969 0.930 . S
H957 C973 0.959 . S
H958 C973 0.959 . S
H959 C973 0.961 . S
H960 C974 0.960 . S
H961 C974 0.961 . S
H962 C974 0.959 . S
H963 C977 0.929 . S
H964 C978 0.931 . S
H965 C980 0.930 . S
C966 H954 0.930 . S
C966 C967 1.399 . S
C966 C971 1.399 . S
C967 C966 1.399 . S
C967 C968 1.376 . S
C968 H955 0.930 . S
C968 C967 1.376 . S
C968 C969 1.388 . S
C969 H956 0.930 . S
C969 C968 1.388 . S
C969 C970 1.390 . S
C970 C969 1.390 . S
C970 C971 1.394 . S
C970 C976 1.465 . S
C971 C966 1.399 . S
C971 C970 1.394 . S
C971 C972 1.516 . S
C972 C971 1.516 . S
C972 C973 1.502 . S
C972 C974 1.561 . S
C972 C975 1.526 . S
C973 H957 0.959 . S
C973 H958 0.959 . S
C973 H959 0.961 . S
C973 C972 1.502 . S
C974 H960 0.960 . S
C974 H961 0.961 . S
C974 H962 0.959 . S
C974 C972 1.561 . S
C975 C972 1.526 . S
C975 C976 1.396 . S
C975 C980 1.390 1_556 S
C976 C970 1.465 . S
C976 C975 1.396 . S
C976 C977 1.399 . S
C977 H963 0.929 . S
C977 C976 1.399 . S
C977 C978 1.385 1_556 S
C978 H964 0.931 . S
C978 C977 1.385 1_554 S
C978 C979 1.389 . S
C979 C978 1.389 . S
C979 C980 1.387 . S
C980 H965 0.930 . S
C980 C975 1.390 1_554 S
C980 C979 1.387 . S
H981 C993 0.930 . S
H982 C995 0.930 . S
H983 C996 0.930 . S
H984 C1000 0.959 . S
H985 C1000 0.959 . S
H986 C1000 0.961 . S
H987 C1001 0.960 . S
H988 C1001 0.961 . S
H989 C1001 0.959 . S
H990 C1004 0.929 . S
H991 C1005 0.931 . S
H992 C1007 0.930 . S
C993 H981 0.930 . S
C993 C994 1.399 . S
C993 C998 1.399 . S
C994 C993 1.399 . S
C994 C995 1.376 . S
C995 H982 0.930 . S
C995 C994 1.376 . S
C995 C996 1.388 . S
C996 H983 0.930 . S
C996 C995 1.388 . S
C996 C997 1.390 . S
C997 C996 1.390 . S
C997 C998 1.394 . S
C997 C1003 1.465 . S
C998 C993 1.399 . S
C998 C997 1.394 . S
C998 C999 1.516 . S
C999 C998 1.516 . S
C999 C1000 1.502 . S
C999 C1001 1.561 . S
C999 C1002 1.526 . S
C1000 H984 0.959 . S
C1000 H985 0.959 . S
C1000 H986 0.961 . S
C1000 C999 1.502 . S
C1001 H987 0.960 . S
C1001 H988 0.961 . S
C1001 H989 0.959 . S
C1001 C999 1.561 . S
C1002 C999 1.526 . S
C1002 C1003 1.396 . S
C1002 C1007 1.390 1_556 S
C1003 C997 1.465 . S
C1003 C1002 1.396 . S
C1003 C1004 1.399 . S
C1004 H990 0.929 . S
C1004 C1003 1.399 . S
C1004 C1005 1.385 1_556 S
C1005 H991 0.931 . S
C1005 C1004 1.385 1_554 S
C1005 C1006 1.389 . S
C1006 C1005 1.389 . S
C1006 C1007 1.387 . S
C1007 H992 0.930 . S
C1007 C1002 1.390 1_554 S
C1007 C1006 1.387 . S
H1008 C1020 0.930 . S
H1009 C1022 0.930 . S
H1010 C1023 0.930 . S
H1011 C1027 0.959 . S
H1012 C1027 0.959 . S
H1013 C1027 0.961 . S
H1014 C1028 0.960 . S
H1015 C1028 0.961 . S
H1016 C1028 0.959 . S
H1017 C1031 0.929 . S
H1018 C1032 0.931 . S
H1019 C1034 0.930 . S
C1020 H1008 0.930 . S
C1020 C1021 1.399 . S
C1020 C1025 1.399 . S
C1021 C1020 1.399 . S
C1021 C1022 1.376 . S
C1022 H1009 0.930 . S
C1022 C1021 1.376 . S
C1022 C1023 1.388 . S
C1023 H1010 0.930 . S
C1023 C1022 1.388 . S
C1023 C1024 1.390 . S
C1024 C1023 1.390 . S
C1024 C1025 1.394 . S
C1024 C1030 1.465 . S
C1025 C1020 1.399 . S
C1025 C1024 1.394 . S
C1025 C1026 1.516 . S
C1026 C1025 1.516 . S
C1026 C1027 1.502 . S
C1026 C1028 1.561 . S
C1026 C1029 1.526 . S
C1027 H1011 0.959 . S
C1027 H1012 0.959 . S
C1027 H1013 0.961 . S
C1027 C1026 1.502 . S
C1028 H1014 0.960 . S
C1028 H1015 0.961 . S
C1028 H1016 0.959 . S
C1028 C1026 1.561 . S
C1029 C1026 1.526 . S
C1029 C1030 1.396 . S
C1029 C1034 1.390 1_554 S
C1030 C1024 1.465 . S
C1030 C1029 1.396 . S
C1030 C1031 1.399 . S
C1031 H1017 0.929 . S
C1031 C1030 1.399 . S
C1031 C1032 1.385 1_554 S
C1032 H1018 0.931 . S
C1032 C1031 1.385 1_556 S
C1032 C1033 1.389 . S
C1033 C1032 1.389 . S
C1033 C1034 1.387 . S
C1034 H1019 0.930 . S
C1034 C1029 1.390 1_556 S
C1034 C1033 1.387 . S
H1035 C1047 0.930 . S
H1036 C1049 0.930 . S
H1037 C1050 0.930 . S
H1038 C1054 0.959 . S
H1039 C1054 0.959 . S
H1040 C1054 0.961 . S
H1041 C1055 0.960 . S
H1042 C1055 0.961 . S
H1043 C1055 0.959 . S
H1044 C1058 0.929 . S
H1045 C1059 0.931 . S
H1046 C1061 0.930 . S
C1047 H1035 0.930 . S
C1047 C1048 1.399 . S
C1047 C1052 1.399 1_556 S
C1048 C1047 1.399 . S
C1048 C1049 1.376 . S
C1049 H1036 0.930 . S
C1049 C1048 1.376 . S
C1049 C1050 1.388 1_556 S
C1050 H1037 0.930 . S
C1050 C1049 1.388 1_554 S
C1050 C1051 1.390 . S
C1051 C1050 1.390 . S
C1051 C1052 1.394 . S
C1051 C1057 1.465 . S
C1052 C1047 1.399 1_554 S
C1052 C1051 1.394 . S
C1052 C1053 1.516 . S
C1053 C1052 1.516 . S
C1053 C1054 1.502 . S
C1053 C1055 1.561 . S
C1053 C1056 1.526 . S
C1054 H1038 0.959 . S
C1054 H1039 0.959 . S
C1054 H1040 0.961 . S
C1054 C1053 1.502 . S
C1055 H1041 0.960 . S
C1055 H1042 0.961 . S
C1055 H1043 0.959 . S
C1055 C1053 1.561 . S
C1056 C1053 1.526 . S
C1056 C1057 1.396 . S
C1056 C1061 1.390 . S
C1057 C1051 1.465 . S
C1057 C1056 1.396 . S
C1057 C1058 1.399 . S
C1058 H1044 0.929 . S
C1058 C1057 1.399 . S
C1058 C1059 1.385 . S
C1059 H1045 0.931 . S
C1059 C1058 1.385 . S
C1059 C1060 1.389 . S
C1060 C1059 1.389 . S
C1060 C1061 1.387 . S
C1061 H1046 0.930 . S
C1061 C1056 1.390 . S
C1061 C1060 1.387 . S
H1062 C1074 0.930 . S
H1063 C1076 0.930 . S
H1064 C1077 0.930 . S
H1065 C1081 0.959 . S
H1066 C1081 0.959 . S
H1067 C1081 0.961 . S
H1068 C1082 0.960 . S
H1069 C1082 0.961 . S
H1070 C1082 0.959 . S
H1071 C1085 0.929 . S
H1072 C1086 0.931 . S
H1073 C1088 0.930 . S
C1074 H1062 0.930 . S
C1074 C1075 1.399 . S
C1074 C1079 1.399 . S
C1075 C1074 1.399 . S
C1075 C1076 1.376 . S
C1076 H1063 0.930 . S
C1076 C1075 1.376 . S
C1076 C1077 1.388 . S
C1077 H1064 0.930 . S
C1077 C1076 1.388 . S
C1077 C1078 1.390 . S
C1078 C1077 1.390 . S
C1078 C1079 1.394 . S
C1078 C1084 1.465 . S
C1079 C1074 1.399 . S
C1079 C1078 1.394 . S
C1079 C1080 1.516 . S
C1080 C1079 1.516 . S
C1080 C1081 1.502 . S
C1080 C1082 1.561 . S
C1080 C1083 1.526 . S
C1081 H1065 0.959 . S
C1081 H1066 0.959 . S
C1081 H1067 0.961 . S
C1081 C1080 1.502 . S
C1082 H1068 0.960 . S
C1082 H1069 0.961 . S
C1082 H1070 0.959 . S
C1082 C1080 1.561 . S
C1083 C1080 1.526 . S
C1083 C1084 1.396 . S
C1083 C1088 1.390 1_554 S
C1084 C1078 1.465 . S
C1084 C1083 1.396 . S
C1084 C1085 1.399 . S
C1085 H1071 0.929 . S
C1085 C1084 1.399 . S
C1085 C1086 1.385 1_554 S
C1086 H1072 0.931 . S
C1086 C1085 1.385 1_556 S
C1086 C1087 1.389 . S
C1087 C1086 1.389 . S
C1087 C1088 1.387 . S
C1088 H1073 0.930 . S
C1088 C1083 1.390 1_556 S
C1088 C1087 1.387 . S
C373 C6 1.921 . S
C385 C290 1.781 . S
C400 C46 1.886 . S
C412 C330 1.841 . S
C427 C86 1.883 . S
C439 C250 1.845 . S
C454 C166 1.884 . S
C466 C90 1.845 . S
C481 C206 1.921 . S
C493 C10 1.785 . S
C508 C50 1.841 . S
C520 C126 1.895 . S
C535 C286 1.880 . S
C547 C210 1.857 . S
C562 C326 1.922 . S
C574 C130 1.783 . S
C589 C170 1.782 . S
C601 C246 1.919 1_545 S
C616 C95 1.680 . S
C628 C19 1.681 1_554 S
C643 C59 1.668 1_554 S
C655 C15 1.665 . S
C670 C55 1.672 1_455 S
C682 C99 1.675 1_554 S
C697 C139 1.669 . S
C709 C215 1.672 . S
C724 C135 1.654 . S
C736 C179 1.655 . S
C751 C175 1.681 . S
C763 C219 1.679 . S
C778 C335 1.682 . S
C790 C259 1.682 . S
C805 C299 1.675 . S
C817 C255 1.678 . S
C832 C339 1.665 . S
C844 C295 1.662 . S
C859 C18 0.920 . S
C871 C9 1.022 . S
C886 C58 0.943 . S
C898 C49 0.984 . S
C913 C98 1.021 . S
C925 C89 0.918 . S
C940 C129 0.931 . S
C952 C138 1.018 . S
C967 C169 0.928 . S
C979 C178 1.001 . S
C994 C209 0.975 . S
C1006 C218 0.952 . S
C1021 C258 0.993 . S
C1033 C249 0.936 . S
C1048 C289 1.012 . S
C1060 C298 0.942 . S
C1075 C338 0.925 . S
C1087 C329 1.021 . S
