# Generated by pormake.
# Topology lcy-e, (6)-cn, num edge types: 1
# Building blocks:
#     Node 0, Type 0, BuildingBlock: PAMTOO_clean_sbu_0, # of connection points: 6
#     Node 1, Type 0, BuildingBlock: PAMTOO_clean_sbu_0, # of connection points: 6
#     Node 2, Type 0, BuildingBlock: PAMTOO_clean_sbu_0, # of connection points: 6
#     Node 3, Type 0, BuildingBlock: PAMTOO_clean_sbu_0, # of connection points: 6
#     Node 4, Type 0, BuildingBlock: PAMTOO_clean_sbu_0, # of connection points: 6
#     Node 5, Type 0, BuildingBlock: PAMTOO_clean_sbu_0, # of connection points: 6
#     Node 6, Type 0, BuildingBlock: PAMTOO_clean_sbu_0, # of connection points: 6
#     Node 7, Type 0, BuildingBlock: PAMTOO_clean_sbu_0, # of connection points: 6
#     Node 8, Type 0, BuildingBlock: PAMTOO_clean_sbu_0, # of connection points: 6
#     Node 9, Type 0, BuildingBlock: PAMTOO_clean_sbu_0, # of connection points: 6
#     Node 10, Type 0, BuildingBlock: PAMTOO_clean_sbu_0, # of connection points: 6
#     Node 11, Type 0, BuildingBlock: PAMTOO_clean_sbu_0, # of connection points: 6
#     Edge 12, Type (0, 0), BuildingBlock: TEMPAE_clean_linker_10, # of connection points: 2
#     Edge 13, Type (0, 0), BuildingBlock: TEMPAE_clean_linker_10, # of connection points: 2
#     Edge 14, Type (0, 0), BuildingBlock: TEMPAE_clean_linker_10, # of connection points: 2
#     Edge 15, Type (0, 0), BuildingBlock: TEMPAE_clean_linker_10, # of connection points: 2
#     Edge 16, Type (0, 0), BuildingBlock: TEMPAE_clean_linker_10, # of connection points: 2
#     Edge 17, Type (0, 0), BuildingBlock: TEMPAE_clean_linker_10, # of connection points: 2
#     Edge 18, Type (0, 0), BuildingBlock: TEMPAE_clean_linker_10, # of connection points: 2
#     Edge 19, Type (0, 0), BuildingBlock: TEMPAE_clean_linker_10, # of connection points: 2
#     Edge 20, Type (0, 0), BuildingBlock: TEMPAE_clean_linker_10, # of connection points: 2
#     Edge 21, Type (0, 0), BuildingBlock: TEMPAE_clean_linker_10, # of connection points: 2
#     Edge 22, Type (0, 0), BuildingBlock: TEMPAE_clean_linker_10, # of connection points: 2
#     Edge 23, Type (0, 0), BuildingBlock: TEMPAE_clean_linker_10, # of connection points: 2
#     Edge 24, Type (0, 0), BuildingBlock: TEMPAE_clean_linker_10, # of connection points: 2
#     Edge 25, Type (0, 0), BuildingBlock: TEMPAE_clean_linker_10, # of connection points: 2
#     Edge 26, Type (0, 0), BuildingBlock: TEMPAE_clean_linker_10, # of connection points: 2
#     Edge 27, Type (0, 0), BuildingBlock: TEMPAE_clean_linker_10, # of connection points: 2
#     Edge 28, Type (0, 0), BuildingBlock: TEMPAE_clean_linker_10, # of connection points: 2
#     Edge 29, Type (0, 0), BuildingBlock: TEMPAE_clean_linker_10, # of connection points: 2
#     Edge 30, Type (0, 0), BuildingBlock: TEMPAE_clean_linker_10, # of connection points: 2
#     Edge 31, Type (0, 0), BuildingBlock: TEMPAE_clean_linker_10, # of connection points: 2
#     Edge 32, Type (0, 0), BuildingBlock: TEMPAE_clean_linker_10, # of connection points: 2
#     Edge 33, Type (0, 0), BuildingBlock: TEMPAE_clean_linker_10, # of connection points: 2
#     Edge 34, Type (0, 0), BuildingBlock: TEMPAE_clean_linker_10, # of connection points: 2
#     Edge 35, Type (0, 0), BuildingBlock: TEMPAE_clean_linker_10, # of connection points: 2
#     Edge 36, Type (0, 0), BuildingBlock: TEMPAE_clean_linker_10, # of connection points: 2
#     Edge 37, Type (0, 0), BuildingBlock: TEMPAE_clean_linker_10, # of connection points: 2
#     Edge 38, Type (0, 0), BuildingBlock: TEMPAE_clean_linker_10, # of connection points: 2
#     Edge 39, Type (0, 0), BuildingBlock: TEMPAE_clean_linker_10, # of connection points: 2
#     Edge 40, Type (0, 0), BuildingBlock: TEMPAE_clean_linker_10, # of connection points: 2
#     Edge 41, Type (0, 0), BuildingBlock: TEMPAE_clean_linker_10, # of connection points: 2
#     Edge 42, Type (0, 0), BuildingBlock: TEMPAE_clean_linker_10, # of connection points: 2
#     Edge 43, Type (0, 0), BuildingBlock: TEMPAE_clean_linker_10, # of connection points: 2
#     Edge 44, Type (0, 0), BuildingBlock: TEMPAE_clean_linker_10, # of connection points: 2
#     Edge 45, Type (0, 0), BuildingBlock: TEMPAE_clean_linker_10, # of connection points: 2
#     Edge 46, Type (0, 0), BuildingBlock: TEMPAE_clean_linker_10, # of connection points: 2
#     Edge 47, Type (0, 0), BuildingBlock: TEMPAE_clean_linker_10, # of connection points: 2
# Relax obj value: 0.150
# Max RMSD: 0.303
# Mean RMSD: 0.285
data_MOF--net-lcy-e--node1-PAMTOO_clean_sbu_0--edge1-TEMPAE_clean_linker_10
_symmetry_space_group_name_H-M    P1
_symmetry_Int_Tables_number       1
_symmetry_cell_setting            triclinic
loop_
_symmetry_equiv_pos_as_xyz
'x, y, z'
_cell_length_a     45.059539
_cell_length_b     44.192579
_cell_length_c     45.931161
_cell_angle_alpha  89.945433
_cell_angle_beta   89.699592
_cell_angle_gamma 89.240928
loop_
_atom_site_label
_atom_site_type_symbol
_atom_site_fract_x
_atom_site_fract_y
_atom_site_fract_z
_atom_type_partial_charge
Dy0 Dy 0.12245 0.26582 0.44586 0.0
Dy1 Dy 0.14573 0.21546 0.49354 0.0
C2 C 0.1785 0.22253 0.43341 0.0
O3 O 0.08578 0.23323 0.4514 0.0
O4 O 0.11456 0.19213 0.46295 0.0
O5 O 0.10045 0.27481 0.40511 0.0
O6 O 0.11791 0.3119 0.43026 0.0
O7 O 0.10233 0.23262 0.50966 0.0
O8 O 0.1042 0.28004 0.4899 0.0
O9 O 0.16413 0.26057 0.50712 0.0
O10 O 0.16571 0.28204 0.46185 0.0
O11 O 0.15279 0.20065 0.53783 0.0
O12 O 0.16542 0.17144 0.5018 0.0
C13 C 0.08957 0.20386 0.45311 0.0
O14 O 0.15364 0.23363 0.4226 0.0
O15 O 0.18229 0.22051 0.46158 0.0
C16 C 0.1205 0.31549 0.37896 0.0
C17 C 0.14595 0.33686 0.32658 0.0
C18 C 0.16107 0.31528 0.34377 0.0
C19 C 0.14844 0.30468 0.36971 0.0
C20 C 0.10546 0.33711 0.36208 0.0
C21 C 0.11805 0.34773 0.33617 0.0
C22 C 0.10644 0.30359 0.40554 0.0
C23 C 0.0956 0.26151 0.5108 0.0
C24 C 0.17279 0.28234 0.48947 0.0
C25 C 0.14707 0.14753 0.5441 0.0
C26 C 0.12027 0.09679 0.57052 0.0
C27 C 0.10747 0.12588 0.5734 0.0
C28 C 0.12065 0.15097 0.56026 0.0
C29 C 0.15982 0.11856 0.54111 0.0
C30 C 0.14654 0.09346 0.55406 0.0
C31 C 0.16148 0.17357 0.52989 0.0
H32 H 0.18245 0.30624 0.33695 0.0
H33 H 0.16033 0.28783 0.38243 0.0
H34 H 0.08388 0.3457 0.36888 0.0
H35 H 0.10602 0.36472 0.32378 0.0
H36 H 0.0875 0.12941 0.58623 0.0
H37 H 0.1102 0.17302 0.56286 0.0
H38 H 0.18008 0.11531 0.52862 0.0
H39 H 0.15679 0.07138 0.55097 0.0
Dy40 Dy 0.04183 0.89506 0.75181 0.0
Dy41 Dy 0.99508 0.86952 0.70332 0.0
C42 C 0.05674 0.83736 0.71249 0.0
O43 O 0.03671 0.93143 0.71881 0.0
O44 O 0.02656 0.90072 0.68028 0.0
O45 O 0.08307 0.91739 0.76079 0.0
O46 O 0.05591 0.90118 0.79639 0.0
O47 O 0.97724 0.91409 0.71739 0.0
O48 O 0.99643 0.91409 0.76341 0.0
O49 O 0.98005 0.85201 0.74711 0.0
O50 O 0.02566 0.85123 0.76867 0.0
O51 O 0.95067 0.86312 0.687 0.0
O52 O 0.98868 0.84598 0.66278 0.0
C53 C 0.03589 0.92662 0.69069 0.0
O54 O 0.06694 0.86318 0.72218 0.0
O55 O 0.02817 0.83287 0.71079 0.0
C56 C 0.10795 0.89753 0.80151 0.0
C57 C 0.15982 0.87056 0.82494 0.0
C58 C 0.14277 0.85508 0.80426 0.0
C59 C 0.11708 0.86845 0.79265 0.0
C60 C 0.1247 0.91298 0.8222 0.0
C61 C 0.15036 0.89964 0.83383 0.0
C62 C 0.08153 0.91216 0.78869 0.0
C63 C 0.97559 0.92226 0.74475 0.0
C64 C 0.99761 0.84383 0.76871 0.0
C65 C 0.9482 0.86417 0.63573 0.0
C66 C 0.92661 0.88819 0.58286 0.0
C67 C 0.94484 0.90558 0.60097 0.0
C68 C 0.95559 0.89363 0.62717 0.0
C69 C 0.92999 0.84681 0.61788 0.0
C70 C 0.91926 0.85869 0.59169 0.0
C71 C 0.96011 0.85102 0.6627 0.0
H72 H 0.14952 0.8328 0.79671 0.0
H73 H 0.10447 0.85622 0.77657 0.0
H74 H 0.11796 0.93543 0.8293 0.0
H75 H 0.16264 0.91201 0.85005 0.0
H76 H 0.95111 0.92825 0.5947 0.0
H77 H 0.96983 0.90728 0.64066 0.0
H78 H 0.9241 0.82401 0.62417 0.0
H79 H 0.90488 0.84488 0.57852 0.0
Dy80 Dy 0.39186 0.74159 0.94553 0.0
Dy81 Dy 0.36978 0.79118 0.99447 0.0
C82 C 0.33553 0.78526 0.93523 0.0
O83 O 0.42884 0.77379 0.9507 0.0
O84 O 0.40073 0.815 0.96354 0.0
O85 O 0.41269 0.73355 0.90374 0.0
O86 O 0.39729 0.69578 0.92964 0.0
O87 O 0.41329 0.77337 0.00925 0.0
O88 O 0.41048 0.72636 0.98895 0.0
O89 O 0.35133 0.74583 0.00785 0.0
O90 O 0.3489 0.72502 0.96239 0.0
O91 O 0.36447 0.80533 0.03927 0.0
O92 O 0.34996 0.83473 1.00423 0.0
C93 C 0.42542 0.80317 0.9528 0.0
O94 O 0.36003 0.77402 0.92353 0.0
O95 O 0.33246 0.78706 0.96353 0.0
C96 C 0.39378 0.69188 0.8779 0.0
C97 C 0.36874 0.66825 0.82639 0.0
C98 C 0.355 0.66365 0.85363 0.0
C99 C 0.36732 0.6754 0.8791 0.0
C100 C 0.40744 0.69659 0.85077 0.0
C101 C 0.39504 0.68505 0.82532 0.0
C102 C 0.40745 0.7046 0.90437 0.0
C103 C 0.41964 0.74438 0.00989 0.0
C104 C 0.34236 0.72428 0.9902 0.0
C105 C 0.36944 0.85792 0.04587 0.0
C106 C 0.3969 0.90819 0.07175 0.0
C107 C 0.41209 0.89065 0.05072 0.0
C108 C 0.39846 0.86573 0.03787 0.0
C109 C 0.35428 0.87516 0.06687 0.0
C110 C 0.36786 0.90005 0.07972 0.0
C111 C 0.35463 0.8322 0.03213 0.0
H112 H 0.33496 0.65049 0.85538 0.0
H113 H 0.35618 0.67145 0.89968 0.0
H114 H 0.42777 0.70934 0.84925 0.0
H115 H 0.40602 0.68948 0.80476 0.0
H116 H 0.43436 0.89642 0.04391 0.0
H117 H 0.41047 0.85266 0.02158 0.0
H118 H 0.33189 0.86939 0.07334 0.0
H119 H 0.35571 0.91271 0.09619 0.0
Dy120 Dy 0.47375 0.11008 0.25268 0.0
Dy121 Dy 0.52345 0.13284 0.20519 0.0
C122 C 0.46241 0.16762 0.21181 0.0
O123 O 0.47876 0.07314 0.22019 0.0
O124 O 0.49196 0.10258 0.18149 0.0
O125 O 0.43176 0.08862 0.26057 0.0
O126 O 0.45743 0.10515 0.2968 0.0
O127 O 0.53848 0.08792 0.22119 0.0
O128 O 0.5179 0.09039 0.26663 0.0
O129 O 0.53698 0.15122 0.24888 0.0
O130 O 0.49065 0.15361 0.26943 0.0
O131 O 0.56916 0.13622 0.19088 0.0
O132 O 0.53359 0.15495 0.16457 0.0
C133 C 0.48083 0.07745 0.19203 0.0
O134 O 0.45093 0.1426 0.2222 0.0
O135 O 0.49121 0.17088 0.21009 0.0
C136 C 0.40531 0.10945 0.3 0.0
C137 C 0.35281 0.1374 0.32114 0.0
C138 C 0.37114 0.15249 0.30107 0.0
C139 C 0.39716 0.13861 0.29058 0.0
C140 C 0.38725 0.09437 0.32005 0.0
C141 C 0.36125 0.10821 0.33056 0.0
C142 C 0.43209 0.09432 0.28841 0.0
C143 C 0.53923 0.08108 0.24891 0.0
C144 C 0.5189 0.16031 0.26988 0.0
C145 C 0.57429 0.13266 0.13987 0.0
C146 C 0.59834 0.10477 0.08966 0.0
C147 C 0.6147 0.12629 0.10517 0.0
C148 C 0.60273 0.14015 0.13003 0.0
C149 C 0.55806 0.11079 0.12479 0.0
C150 C 0.56992 0.09709 0.09979 0.0
C151 C 0.56174 0.14779 0.16578 0.0
H152 H 0.36518 0.17485 0.29319 0.0
H153 H 0.41083 0.15052 0.27496 0.0
H154 H 0.39323 0.07186 0.32754 0.0
H155 H 0.34794 0.09617 0.34636 0.0
H156 H 0.63653 0.13289 0.09773 0.0
H157 H 0.61559 0.15691 0.14144 0.0
H158 H 0.53616 0.10443 0.13223 0.0
H159 H 0.55693 0.08037 0.08848 0.0
Dy160 Dy 0.65269 0.29144 0.47115 0.0
Dy161 Dy 0.63043 0.2428 0.52036 0.0
C162 C 0.59612 0.30448 0.51149 0.0
O163 O 0.68938 0.28739 0.50301 0.0
O164 O 0.66086 0.27548 0.5425 0.0
O165 O 0.67274 0.33438 0.46152 0.0
O166 O 0.65794 0.30575 0.42638 0.0
O167 O 0.67415 0.22624 0.50449 0.0
O168 O 0.67163 0.24568 0.4585 0.0
O169 O 0.61197 0.22748 0.47727 0.0
O170 O 0.60973 0.27401 0.45546 0.0
O171 O 0.62517 0.19706 0.53596 0.0
O172 O 0.61019 0.235 0.56239 0.0
C173 C 0.68554 0.28614 0.53127 0.0
O174 O 0.62093 0.31585 0.50131 0.0
O175 O 0.59303 0.27521 0.51418 0.0
C176 C 0.65203 0.35849 0.42071 0.0
C177 C 0.62293 0.40958 0.39664 0.0
C178 C 0.60895 0.39211 0.41824 0.0
C179 C 0.62338 0.36679 0.43016 0.0
C180 C 0.66601 0.37566 0.39914 0.0
C181 C 0.65161 0.40096 0.38718 0.0
C182 C 0.66761 0.33237 0.43368 0.0
C183 C 0.68072 0.22448 0.47675 0.0
C184 C 0.60285 0.2453 0.45596 0.0
C185 C 0.63041 0.19302 0.5872 0.0
C186 C 0.6585 0.17052 0.63772 0.0
C187 C 0.67435 0.17282 0.61137 0.0
C188 C 0.66048 0.18417 0.58635 0.0
C189 C 0.61456 0.19066 0.61343 0.0
C190 C 0.62846 0.17958 0.63846 0.0
C191 C 0.6155 0.20593 0.56145 0.0
H192 H 0.58702 0.39824 0.42621 0.0
H193 H 0.61228 0.35378 0.44691 0.0
H194 H 0.68809 0.36953 0.39157 0.0
H195 H 0.66281 0.41357 0.37024 0.0
H196 H 0.69756 0.16621 0.61021 0.0
H197 H 0.6733 0.18616 0.56644 0.0
H198 H 0.59141 0.19751 0.61456 0.0
H199 H 0.61558 0.17771 0.65834 0.0
Dy200 Dy 0.97415 0.38978 0.72236 0.0
Dy201 Dy 0.02255 0.36467 0.77002 0.0
C202 C 0.96135 0.33257 0.76282 0.0
O203 O 0.98045 0.42713 0.75383 0.0
O204 O 0.99113 0.39708 0.79284 0.0
O205 O 0.93187 0.41155 0.71412 0.0
O206 O 0.95943 0.39647 0.67804 0.0
O207 O 0.04023 0.40812 0.75375 0.0
O208 O 0.01893 0.40762 0.70864 0.0
O209 O 0.0366 0.34604 0.72609 0.0
O210 O 0.99035 0.34545 0.70593 0.0
O211 O 0.06739 0.35735 0.78532 0.0
O212 O 0.03004 0.34306 0.81162 0.0
C213 C 0.9817 0.42302 0.78201 0.0
O214 O 0.95049 0.35857 0.75341 0.0
O215 O 0.99007 0.3279 0.76399 0.0
C216 C 0.90753 0.39327 0.67265 0.0
C217 C 0.85677 0.36748 0.64736 0.0
C218 C 0.87355 0.35125 0.66808 0.0
C219 C 0.89871 0.36405 0.68062 0.0
C220 C 0.89103 0.40946 0.65196 0.0
C221 C 0.86591 0.39671 0.63941 0.0
C222 C 0.93356 0.40723 0.68607 0.0
C223 C 0.04064 0.41557 0.72612 0.0
C224 C 0.01856 0.33798 0.70498 0.0
C225 C 0.07171 0.36118 0.83699 0.0
C226 C 0.09579 0.38667 0.88816 0.0
C227 C 0.10049 0.40026 0.86078 0.0
C228 C 0.08852 0.38772 0.8355 0.0
C229 C 0.06697 0.34762 0.86423 0.0
C230 C 0.07874 0.36024 0.88951 0.0
C231 C 0.0586 0.34743 0.81069 0.0
H232 H 0.86702 0.32883 0.6749 0.0
H233 H 0.9112 0.35125 0.69666 0.0
H234 H 0.89758 0.43201 0.64551 0.0
H235 H 0.85384 0.40964 0.62318 0.0
H236 H 0.11384 0.42036 0.85878 0.0
H237 H 0.09252 0.3988 0.81482 0.0
H238 H 0.05397 0.32723 0.86599 0.0
H239 H 0.07423 0.34938 0.91018 0.0
Dy240 Dy 0.864 0.71447 0.97276 0.0
Dy241 Dy 0.88819 0.7619 0.02177 0.0
C242 C 0.92096 0.69983 0.0113 0.0
O243 O 0.82781 0.71928 0.00532 0.0
O244 O 0.85717 0.72971 0.04428 0.0
O245 O 0.84376 0.67147 0.96354 0.0
O246 O 0.85673 0.70105 0.92815 0.0
O247 O 0.84483 0.78053 0.00739 0.0
O248 O 0.84537 0.76077 0.96135 0.0
O249 O 0.90591 0.77758 0.97823 0.0
O250 O 0.90686 0.7313 0.95594 0.0
O251 O 0.8947 0.80691 0.03879 0.0
O252 O 0.91061 0.76767 0.06276 0.0
C253 C 0.83206 0.71991 0.03348 0.0
O254 O 0.8956 0.6891 1.00211 0.0
O255 O 0.92478 0.729 0.01356 0.0
C256 C 0.86256 0.64794 0.92113 0.0
C257 C 0.89057 0.59667 0.89559 0.0
C258 C 0.90466 0.62494 0.89566 0.0
C259 C 0.89088 0.65027 0.90841 0.0
C260 C 0.84844 0.61986 0.92108 0.0
C261 C 0.86229 0.59449 0.90854 0.0
C262 C 0.84789 0.67407 0.93553 0.0
C263 C 0.83714 0.78208 0.97997 0.0
C264 C 0.91419 0.75988 0.95643 0.0
C265 C 0.89245 0.80875 0.09068 0.0
C266 C 0.86806 0.83025 0.14378 0.0
C267 C 0.85456 0.83755 0.11704 0.0
C268 C 0.86655 0.82684 0.09078 0.0
C269 C 0.90593 0.80144 0.11729 0.0
C270 C 0.89383 0.81193 0.14354 0.0
C271 C 0.90549 0.79679 0.06334 0.0
H272 H 0.92623 0.62764 0.88555 0.0
H273 H 0.90243 0.67161 0.90834 0.0
H274 H 0.82673 0.61747 0.93102 0.0
H275 H 0.85094 0.57306 0.90935 0.0
H276 H 0.83497 0.85198 0.11633 0.0
H277 H 0.85555 0.83282 0.07063 0.0
H278 H 0.92583 0.78741 0.1178 0.0
H279 H 0.9046 0.80549 0.16368 0.0
Dy280 Dy 0.49093 0.63839 0.26797 0.0
Dy281 Dy 0.54022 0.61372 0.22033 0.0
C282 C 0.53281 0.5809 0.28049 0.0
O283 O 0.52348 0.67524 0.26225 0.0
O284 O 0.56333 0.64488 0.25134 0.0
O285 O 0.48226 0.661 0.3088 0.0
O286 O 0.44575 0.64372 0.28361 0.0
O287 O 0.52374 0.65801 0.2041 0.0
O288 O 0.47719 0.65682 0.22399 0.0
O289 O 0.49586 0.59535 0.20668 0.0
O290 O 0.47457 0.59439 0.25197 0.0
O291 O 0.55586 0.608 0.17604 0.0
O292 O 0.5824 0.59163 0.21207 0.0
C293 C 0.55224 0.67069 0.26098 0.0
O294 O 0.52223 0.60649 0.2912 0.0
O295 O 0.53453 0.57666 0.25233 0.0
C296 C 0.44192 0.64122 0.33489 0.0
C297 C 0.42016 0.61556 0.38708 0.0
C298 C 0.44088 0.59964 0.36965 0.0
C299 C 0.45168 0.61238 0.3438 0.0
C300 C 0.42117 0.65708 0.35202 0.0
C301 C 0.41036 0.64439 0.37784 0.0
C302 C 0.45395 0.65533 0.30835 0.0
C303 C 0.49545 0.66509 0.20294 0.0
C304 C 0.47424 0.58706 0.22434 0.0
C305 C 0.60791 0.61109 0.17159 0.0
C306 C 0.65962 0.63743 0.14826 0.0
C307 C 0.64215 0.6531 0.16897 0.0
C308 C 0.61652 0.64003 0.18055 0.0
C309 C 0.6251 0.59545 0.15092 0.0
C310 C 0.65069 0.60848 0.13932 0.0
C311 C 0.58146 0.59682 0.18414 0.0
H312 H 0.44909 0.57753 0.3762 0.0
H313 H 0.46785 0.59985 0.33088 0.0
H314 H 0.41339 0.67936 0.34548 0.0
H315 H 0.39406 0.65708 0.39043 0.0
H316 H 0.6485 0.67529 0.17652 0.0
H317 H 0.60352 0.6524 0.19662 0.0
H318 H 0.61873 0.57311 0.14374 0.0
H319 H 0.6633 0.59599 0.12306 0.0
Dy320 Dy 0.26654 0.45995 0.09619 0.0
Dy321 Dy 0.21651 0.50967 0.11727 0.0
C322 C 0.22423 0.44821 0.151 0.0
O323 O 0.23558 0.46544 0.05912 0.0
O324 O 0.19455 0.47762 0.08612 0.0
O325 O 0.27608 0.41624 0.07713 0.0
O326 O 0.31208 0.44491 0.09081 0.0
O327 O 0.23415 0.52696 0.07544 0.0
O328 O 0.28044 0.50524 0.07797 0.0
O329 O 0.26033 0.5244 0.13605 0.0
O330 O 0.28196 0.4774 0.13857 0.0
O331 O 0.1999 0.55547 0.12246 0.0
O332 O 0.17366 0.51761 0.1373 0.0
C333 C 0.2067 0.46735 0.06189 0.0
O334 O 0.23512 0.43633 0.12688 0.0
O335 O 0.22205 0.47758 0.15398 0.0
C336 C 0.31822 0.39161 0.09742 0.0
C337 C 0.3438 0.34088 0.126 0.0
C338 C 0.32077 0.3372 0.10581 0.0
C339 C 0.30824 0.36224 0.09161 0.0
C340 C 0.34125 0.39536 0.1176 0.0
C341 C 0.35388 0.37028 0.13171 0.0
C342 C 0.30447 0.41791 0.0823 0.0
C343 C 0.26253 0.52723 0.06908 0.0
C344 C 0.28189 0.50623 0.14509 0.0
C345 C 0.14731 0.55941 0.11808 0.0
C346 C 0.09503 0.5825 0.09188 0.0
C347 C 0.12279 0.58555 0.07802 0.0
C348 C 0.14865 0.57403 0.09092 0.0
C349 C 0.11968 0.55625 0.13188 0.0
C350 C 0.09382 0.56754 0.11891 0.0
C351 C 0.1741 0.54662 0.1321 0.0
H352 H 0.31224 0.31495 0.1011 0.0
H353 H 0.29062 0.3586 0.0761 0.0
H354 H 0.34964 0.41763 0.12248 0.0
H355 H 0.37192 0.37392 0.14674 0.0
H356 H 0.12465 0.5973 0.05741 0.0
H357 H 0.16964 0.57664 0.07965 0.0
H358 H 0.11808 0.54484 0.15272 0.0
H359 H 0.07284 0.56434 0.13001 0.0
Dy360 Dy 0.71428 0.99898 0.84829 0.0
Dy361 Dy 0.76247 0.048 0.87583 0.0
C362 C 0.69932 0.03735 0.90439 0.0
O363 O 0.70543 0.04503 0.83028 0.0
O364 O 0.75208 0.06391 0.83079 0.0
O365 O 0.67001 0.99522 0.831 0.0
O366 O 0.69821 0.95538 0.8342 0.0
O367 O 0.78931 0.02112 0.84478 0.0
O368 O 0.75437 0.99423 0.81875 0.0
O369 O 0.76656 0.00711 0.90531 0.0
O370 O 0.74085 0.9714 0.87876 0.0
O371 O 0.8051 0.0633 0.89116 0.0
O372 O 0.76703 0.09363 0.89185 0.0
C373 C 0.72549 0.06307 0.8195 0.0
O374 O 0.69867 0.01009 0.89333 0.0
O375 O 0.71726 0.05764 0.89373 0.0
C376 C 0.64623 0.94972 0.84283 0.0
C377 C 0.59656 0.92186 0.86922 0.0
C378 C 0.59296 0.94149 0.8453 0.0
C379 C 0.6175 0.95513 0.83224 0.0
C380 C 0.65003 0.93024 0.86678 0.0
C381 C 0.62548 0.91636 0.87973 0.0
C382 C 0.67144 0.96582 0.82942 0.0
C383 C 0.78188 1.00314 0.82339 0.0
C384 C 0.75814 0.979 0.90036 0.0
C385 C 0.81299 0.11533 0.8808 0.0
C386 C 0.84236 0.16383 0.8531 0.0
C387 C 0.84065 0.13531 0.83953 0.0
C388 C 0.82597 0.11136 0.85317 0.0
C389 C 0.81477 0.14357 0.89446 0.0
C390 C 0.82923 0.16758 0.88079 0.0
C391 C 0.79569 0.09111 0.89473 0.0
H392 H 0.5711 0.94675 0.83688 0.0
H393 H 0.61398 0.97031 0.814 0.0
H394 H 0.67191 0.92583 0.8756 0.0
H395 H 0.62923 0.90108 0.89782 0.0
H396 H 0.85078 0.1314 0.81842 0.0
H397 H 0.82454 0.08983 0.84201 0.0
H398 H 0.8045 0.14723 0.91558 0.0
H399 H 0.82958 0.18926 0.89172 0.0
Dy400 Dy 0.75144 0.9553 0.3759 0.0
Dy401 Dy 0.80027 0.00502 0.35338 0.0
C402 C 0.79272 0.94328 0.32017 0.0
O403 O 0.7842 0.95908 0.41145 0.0
O404 O 0.82403 0.97274 0.38358 0.0
O405 O 0.74255 0.91128 0.39433 0.0
O406 O 0.70615 0.94166 0.38322 0.0
O407 O 0.78445 0.02057 0.39654 0.0
O408 O 0.73793 1.00093 0.3944 0.0
O409 O 0.75542 0.01958 0.33594 0.0
O410 O 0.73534 0.97245 0.33352 0.0
O411 O 0.81443 0.05116 0.34743 0.0
O412 O 0.84271 0.01384 0.33321 0.0
C413 C 0.81292 0.96126 0.40769 0.0
O414 O 0.78237 0.93151 0.34445 0.0
O415 O 0.79497 0.97261 0.31709 0.0
C416 C 0.69908 0.88886 0.37631 0.0
C417 C 0.67176 0.83924 0.3488 0.0
C418 C 0.67095 0.86821 0.33598 0.0
C419 C 0.68456 0.89273 0.34952 0.0
C420 C 0.69999 0.86004 0.3891 0.0
C421 C 0.68659 0.83549 0.37549 0.0
C422 C 0.71393 0.91425 0.39096 0.0
C423 C 0.75623 0.02204 0.40329 0.0
C424 C 0.73438 1.0013 0.32708 0.0
C425 C 0.86684 0.05699 0.35152 0.0
C426 C 0.91767 0.08348 0.37637 0.0
C427 C 0.8893 0.08864 0.38855 0.0
C428 C 0.86417 0.07548 0.37632 0.0
C429 C 0.89511 0.05174 0.33942 0.0
C430 C 0.92023 0.06469 0.35175 0.0
C431 C 0.8407 0.04292 0.33793 0.0
H432 H 0.65942 0.87209 0.31567 0.0
H433 H 0.68365 0.91469 0.33902 0.0
H434 H 0.71125 0.85647 0.40963 0.0
H435 H 0.68811 0.81348 0.38579 0.0
H436 H 0.88639 0.10331 0.40725 0.0
H437 H 0.84269 0.07997 0.38622 0.0
H438 H 0.89779 0.0375 0.32037 0.0
H439 H 0.94171 0.05982 0.34203 0.0
Dy440 Dy 0.25004 0.54424 0.59713 0.0
Dy441 Dy 0.29924 0.49397 0.61818 0.0
C442 C 0.29108 0.55504 0.65228 0.0
O443 O 0.28143 0.53876 0.56018 0.0
O444 O 0.32202 0.52583 0.58707 0.0
O445 O 0.24161 0.58796 0.5777 0.0
O446 O 0.20488 0.56044 0.59209 0.0
O447 O 0.28221 0.47714 0.57615 0.0
O448 O 0.23612 0.49947 0.57818 0.0
O449 O 0.25499 0.47916 0.63645 0.0
O450 O 0.23317 0.52612 0.63897 0.0
O451 O 0.31546 0.44804 0.62335 0.0
O452 O 0.34175 0.48567 0.63834 0.0
C453 C 0.31025 0.53666 0.56298 0.0
O454 O 0.28141 0.56714 0.62789 0.0
O455 O 0.29285 0.52564 0.65517 0.0
C456 C 0.20041 0.61388 0.5985 0.0
C457 C 0.17714 0.66541 0.62769 0.0
C458 C 0.19959 0.66835 0.60654 0.0
C459 C 0.21098 0.64292 0.59204 0.0
C460 C 0.17795 0.61087 0.61964 0.0
C461 C 0.16644 0.63635 0.63404 0.0
C462 C 0.21321 0.58714 0.58329 0.0
C463 C 0.254 0.47738 0.56935 0.0
C464 C 0.23321 0.49722 0.64538 0.0
C465 C 0.36811 0.44382 0.61893 0.0
C466 C 0.4205 0.42058 0.59254 0.0
C467 C 0.39265 0.41642 0.57945 0.0
C468 C 0.36674 0.42801 0.59243 0.0
C469 C 0.39582 0.44804 0.63198 0.0
C470 C 0.42173 0.43669 0.6189 0.0
C471 C 0.34121 0.45669 0.63301 0.0
H472 H 0.20855 0.69033 0.6013 0.0
H473 H 0.22822 0.64597 0.57581 0.0
H474 H 0.16915 0.58887 0.62506 0.0
H475 H 0.14878 0.6333 0.6498 0.0
H476 H 0.39077 0.40377 0.55938 0.0
H477 H 0.34569 0.42451 0.58174 0.0
H478 H 0.39746 0.46034 0.6523 0.0
H479 H 0.44277 0.44075 0.62939 0.0
C480 C 0.19104 0.31408 0.531 0.0
C481 C 0.18735 0.30979 0.50099 0.0
C482 C 0.20171 0.3416 0.54197 0.0
C483 C 0.20868 0.36539 0.52247 0.0
C484 C 0.20543 0.361 0.49217 0.0
C485 C 0.19499 0.33328 0.48183 0.0
C486 C 0.20519 0.34535 0.57443 0.0
C487 C 0.21252 0.38578 0.47065 0.0
C488 C 0.21148 0.44613 0.55152 0.0
C489 C 0.24211 0.45014 0.55476 0.0
C490 C 0.20022 0.41871 0.54093 0.0
C491 C 0.22007 0.39471 0.53358 0.0
C492 C 0.25099 0.39884 0.53632 0.0
C493 C 0.26161 0.42647 0.54669 0.0
C494 C 0.16709 0.41524 0.538 0.0
C495 C 0.27292 0.37384 0.52881 0.0
H496 H 0.18501 0.29621 0.546 0.0
H497 H 0.19219 0.33035 0.45858 0.0
H498 H 0.22845 0.3512 0.57958 0.0
H499 H 0.19085 0.36429 0.58225 0.0
H500 H 0.19928 0.32455 0.58665 0.0
H501 H 0.20852 0.37884 0.44777 0.0
H502 H 0.19874 0.40619 0.47544 0.0
H503 H 0.23609 0.39235 0.47272 0.0
H504 H 0.19623 0.46414 0.55789 0.0
H505 H 0.28534 0.42917 0.54911 0.0
H506 H 0.1594 0.39656 0.55219 0.0
H507 H 0.1615 0.40914 0.51527 0.0
H508 H 0.15468 0.43623 0.54398 0.0
H509 H 0.26837 0.35355 0.54228 0.0
H510 H 0.29627 0.38062 0.53238 0.0
H511 H 0.27041 0.36716 0.5057 0.0
C512 C 0.80983 0.96199 0.79697 0.0
C513 C 0.80681 0.99247 0.80489 0.0
C514 C 0.83691 0.95072 0.78558 0.0
C515 C 0.86123 0.9705 0.78194 0.0
C516 C 0.85753 1.00163 0.78829 0.0
C517 C 0.83044 0.01217 0.79971 0.0
C518 C 0.83997 0.9174 0.77889 0.0
C519 C 0.88266 0.0236 0.78445 0.0
C520 C 0.94019 0.93853 0.7844 0.0
C521 C 0.94768 0.93727 0.75476 0.0
C522 C 0.91205 0.94911 0.79354 0.0
C523 C 0.89093 0.9587 0.77255 0.0
C524 C 0.8986 0.95804 0.74267 0.0
C525 C 0.92681 0.94742 0.73417 0.0
C526 C 0.90475 0.94963 0.82566 0.0
C527 C 0.87685 0.96821 0.71962 0.0
H528 H 0.79175 0.94667 0.80134 0.0
H529 H 0.8281 0.0358 0.80577 0.0
H530 H 0.84907 0.91405 0.75662 0.0
H531 H 0.85587 0.90673 0.79429 0.0
H532 H 0.81845 0.90554 0.78065 0.0
H533 H 0.87555 0.04738 0.78862 0.0
H534 H 0.90087 0.01768 0.79968 0.0
H535 H 0.89187 0.02207 0.76205 0.0
H536 H 0.95598 0.93045 0.80044 0.0
H537 H 0.93229 0.94655 0.71117 0.0
H538 H 0.88514 0.93539 0.83007 0.0
H539 H 0.89891 0.97303 0.83253 0.0
H540 H 0.92352 0.94128 0.8392 0.0
H541 H 0.85644 0.95449 0.72098 0.0
H542 H 0.8862 0.96615 0.69727 0.0
H543 H 0.87014 0.99214 0.72337 0.0
C544 C 0.3247 0.69187 0.03186 0.0
C545 C 0.32826 0.69647 1.00182 0.0
C546 C 0.31437 0.66412 0.04282 0.0
C547 C 0.30764 0.64035 0.0233 0.0
C548 C 0.31087 0.64501 0.99299 0.0
C549 C 0.32093 0.67296 0.98265 0.0
C550 C 0.31091 0.66012 0.0753 0.0
C551 C 0.30409 0.62029 0.97141 0.0
C552 C 0.30509 0.55918 0.05176 0.0
C553 C 0.27444 0.5549 0.05499 0.0
C554 C 0.31627 0.58685 0.04144 0.0
C555 C 0.29636 0.61085 0.03437 0.0
C556 C 0.26544 0.60648 0.03721 0.0
C557 C 0.2549 0.57862 0.04729 0.0
C558 C 0.3494 0.59053 0.03839 0.0
C559 C 0.24342 0.63144 0.03005 0.0
H560 H 0.33051 0.70972 0.04686 0.0
H561 H 0.32367 0.67607 0.95939 0.0
H562 H 0.28768 0.65412 0.08065 0.0
H563 H 0.32533 0.64118 0.08288 0.0
H564 H 0.31673 0.68086 0.08755 0.0
H565 H 0.3083 0.62734 0.94855 0.0
H566 H 0.31787 0.5999 0.97614 0.0
H567 H 0.28052 0.61365 0.97348 0.0
H568 H 0.32039 0.54116 0.05784 0.0
H569 H 0.23117 0.57575 0.04973 0.0
H570 H 0.3569 0.60921 0.05257 0.0
H571 H 0.35509 0.59675 0.01564 0.0
H572 H 0.36189 0.56959 0.04428 0.0
H573 H 0.24791 0.65168 0.04354 0.0
H574 H 0.22009 0.62456 0.03385 0.0
H575 H 0.24589 0.63826 0.00693 0.0
C576 C 0.57112 0.06286 0.29037 0.0
C577 C 0.56676 0.06666 0.26037 0.0
C578 C 0.59861 0.05255 0.30126 0.0
C579 C 0.62231 0.04615 0.28169 0.0
C580 C 0.61787 0.04955 0.2514 0.0
C581 C 0.59019 0.05953 0.24114 0.0
C582 C 0.60241 0.04882 0.3337 0.0
C583 C 0.64256 0.04309 0.2298 0.0
C584 C 0.70168 0.04444 0.31019 0.0
C585 C 0.707 0.01324 0.31305 0.0
C586 C 0.67421 0.05556 0.29997 0.0
C587 C 0.65153 0.03499 0.29266 0.0
C588 C 0.65697 0.00352 0.29512 0.0
C589 C 0.68461 0.99307 0.30506 0.0
C590 C 0.6693 0.0893 0.2973 0.0
C591 C 0.63341 0.9808 0.28769 0.0
H592 H 0.55329 0.0685 0.30541 0.0
H593 H 0.58722 0.06246 0.2179 0.0
H594 H 0.60926 0.02519 0.33878 0.0
H595 H 0.62028 0.06377 0.3415 0.0
H596 H 0.58172 0.05428 0.34598 0.0
H597 H 0.63565 0.04737 0.20697 0.0
H598 H 0.66194 0.05743 0.23467 0.0
H599 H 0.65004 0.01916 0.23169 0.0
H600 H 0.7187 0.0602 0.3165 0.0
H601 H 0.68835 0.96889 0.30718 0.0
H602 H 0.65057 0.09659 0.31152 0.0
H603 H 0.66317 0.0952 0.2746 0.0
H604 H 0.68929 0.10227 0.30338 0.0
H605 H 0.61325 0.98509 0.30111 0.0
H606 H 0.641 0.95708 0.29135 0.0
H607 H 0.62689 0.98331 0.26455 0.0
C608 C 0.69798 0.19019 0.43613 0.0
C609 C 0.69454 0.19586 0.46601 0.0
C610 C 0.70772 0.16164 0.42605 0.0
C611 C 0.7139 0.13819 0.44632 0.0
C612 C 0.71086 0.14394 0.47647 0.0
C613 C 0.70146 0.17266 0.48592 0.0
C614 C 0.7111 0.15646 0.39372 0.0
C615 C 0.71707 0.11957 0.4988 0.0
C616 C 0.71445 0.05627 0.42015 0.0
C617 C 0.74497 0.05038 0.41705 0.0
C618 C 0.70395 0.08472 0.42979 0.0
C619 C 0.72444 0.10784 0.43619 0.0
C620 C 0.75523 0.10183 0.43355 0.0
C621 C 0.76508 0.07321 0.42426 0.0
C622 C 0.67093 0.0902 0.43273 0.0
C623 C 0.77784 0.12584 0.44 0.0
H624 H 0.6925 0.20783 0.42058 0.0
H625 H 0.69881 0.17663 0.50908 0.0
H626 H 0.73415 0.14897 0.38861 0.0
H627 H 0.69615 0.13814 0.38668 0.0
H628 H 0.70592 0.17713 0.38084 0.0
H629 H 0.71308 0.12755 0.52144 0.0
H630 H 0.70278 0.09978 0.49471 0.0
H631 H 0.74045 0.11162 0.49693 0.0
H632 H 0.69874 0.03891 0.41445 0.0
H633 H 0.78873 0.06906 0.42192 0.0
H634 H 0.66385 0.10871 0.41788 0.0
H635 H 0.66542 0.09754 0.45523 0.0
H636 H 0.65795 0.0697 0.4276 0.0
H637 H 0.77381 0.14591 0.42596 0.0
H638 H 0.80099 0.11767 0.43638 0.0
H639 H 0.77558 0.13343 0.46293 0.0
C640 C 0.09143 0.43644 0.7333 0.0
C641 C 0.06796 0.42983 0.7144 0.0
C642 C 0.11877 0.44674 0.72272 0.0
C643 C 0.12286 0.45088 0.69243 0.0
C644 C 0.09915 0.44482 0.6732 0.0
C645 C 0.072 0.43428 0.68439 0.0
C646 C 0.14344 0.45282 0.744 0.0
C647 C 0.10255 0.44923 0.64076 0.0
C648 C 0.18334 0.5048 0.66858 0.0
C649 C 0.2063 0.48492 0.65981 0.0
C650 C 0.15616 0.494 0.67903 0.0
C651 C 0.1517 0.46245 0.68112 0.0
C652 C 0.17495 0.44217 0.67297 0.0
C653 C 0.20197 0.45364 0.66234 0.0
C654 C 0.132 0.51643 0.68739 0.0
C655 C 0.17113 0.40836 0.67512 0.0
H656 H 0.08874 0.43301 0.75653 0.0
H657 H 0.05416 0.42902 0.66957 0.0
H658 H 0.16323 0.43873 0.73844 0.0
H659 H 0.15013 0.47684 0.74251 0.0
H660 H 0.13687 0.44794 0.76686 0.0
H661 H 0.08198 0.44375 0.62875 0.0
H662 H 0.10847 0.47302 0.63601 0.0
H663 H 0.12092 0.43466 0.63238 0.0
H664 H 0.18629 0.52903 0.6667 0.0
H665 H 0.2194 0.43808 0.65542 0.0
H666 H 0.12571 0.51331 0.71057 0.0
H667 H 0.11187 0.51242 0.6742 0.0
H668 H 0.13888 0.54026 0.68417 0.0
H669 H 0.16538 0.40199 0.69781 0.0
H670 H 0.19147 0.39564 0.66844 0.0
H671 H 0.15251 0.40125 0.66111 0.0
C672 C 0.74933 0.92924 0.92348 0.0
C673 C 0.76848 0.95359 0.91884 0.0
C674 C 0.75967 0.90177 0.93509 0.0
C675 C 0.79004 0.89839 0.94218 0.0
C676 C 0.80922 0.92344 0.93903 0.0
C677 C 0.79816 0.95089 0.92745 0.0
C678 C 0.73834 0.87589 0.93839 0.0
C679 C 0.84172 0.92073 0.94648 0.0
C680 C 0.812 0.83176 0.99026 0.0
C681 C 0.82257 0.81051 0.9698 0.0
C682 C 0.80161 0.86046 0.98162 0.0
C683 C 0.8017 0.86824 0.95176 0.0
C684 C 0.81183 0.84676 0.9309 0.0
C685 C 0.8221 0.81813 0.94017 0.0
C686 C 0.79081 0.88256 1.00452 0.0
C687 C 0.81219 0.85418 0.89881 0.0
H688 H 0.72631 0.93131 0.91691 0.0
H689 H 0.81308 0.96952 0.92352 0.0
H690 H 0.7448 0.85734 0.92327 0.0
H691 H 0.7393 0.86659 0.96081 0.0
H692 H 0.71506 0.88283 0.93368 0.0
H693 H 0.85314 0.94281 0.94503 0.0
H694 H 0.84449 0.91155 0.96881 0.0
H695 H 0.85282 0.90461 0.9313 0.0
H696 H 0.8123 0.82619 0.01325 0.0
H697 H 0.83053 0.80206 0.92424 0.0
H698 H 0.76734 0.88903 1.00036 0.0
H699 H 0.80399 0.90357 1.00343 0.0
H700 H 0.79246 0.87312 0.02689 0.0
H701 H 0.78937 0.85979 0.8914 0.0
H702 H 0.82105 0.83516 0.88541 0.0
H703 H 0.82599 0.87438 0.89481 0.0
C704 C 0.44294 0.5687 0.18283 0.0
C705 C 0.44704 0.57273 0.21283 0.0
C706 C 0.4158 0.55828 0.17187 0.0
C707 C 0.39216 0.55192 0.19135 0.0
C708 C 0.39632 0.55558 0.22163 0.0
C709 C 0.42366 0.56574 0.23197 0.0
C710 C 0.4123 0.55433 0.13943 0.0
C711 C 0.37171 0.54917 0.24315 0.0
C712 C 0.31303 0.5496 0.16224 0.0
C713 C 0.3087 0.51836 0.15947 0.0
C714 C 0.34006 0.56092 0.17266 0.0
C715 C 0.36332 0.54052 0.18029 0.0
C716 C 0.35887 0.50901 0.17797 0.0
C717 C 0.33166 0.49836 0.1678 0.0
C718 C 0.34389 0.5947 0.17513 0.0
C719 C 0.38306 0.48647 0.18575 0.0
H720 H 0.46072 0.57424 0.16784 0.0
H721 H 0.42642 0.56883 0.2552 0.0
H722 H 0.4063 0.53062 0.13448 0.0
H723 H 0.39395 0.56906 0.13144 0.0
H724 H 0.43285 0.55992 0.12722 0.0
H725 H 0.37836 0.55364 0.26598 0.0
H726 H 0.35193 0.56338 0.23805 0.0
H727 H 0.36497 0.52519 0.24141 0.0
H728 H 0.29559 0.56524 0.15566 0.0
H729 H 0.32871 0.47415 0.16573 0.0
H730 H 0.36243 0.60202 0.1609 0.0
H731 H 0.34977 0.60075 0.1978 0.0
H732 H 0.32351 0.60751 0.16891 0.0
H733 H 0.40316 0.49071 0.17236 0.0
H734 H 0.3762 0.46269 0.18231 0.0
H735 H 0.38941 0.48923 0.20889 0.0
C736 C 0.56125 0.1796 0.29981 0.0
C737 C 0.5307 0.17513 0.29637 0.0
C738 C 0.57267 0.19076 0.32611 0.0
C739 C 0.55309 0.19745 0.34957 0.0
C740 C 0.52224 0.19333 0.34609 0.0
C741 C 0.51144 0.18239 0.31957 0.0
C742 C 0.6057 0.19513 0.3289 0.0
C743 C 0.50062 0.20008 0.37056 0.0
C744 C 0.58484 0.20142 0.42628 0.0
C745 C 0.58753 0.23275 0.43017 0.0
C746 C 0.57348 0.18956 0.40023 0.0
C747 C 0.56471 0.20949 0.37754 0.0
C748 C 0.5668 0.2411 0.38162 0.0
C749 C 0.57803 0.25231 0.40784 0.0
C750 C 0.57133 0.15569 0.39678 0.0
C751 C 0.55775 0.26314 0.35801 0.0
H752 H 0.57635 0.17389 0.28214 0.0
H753 H 0.48779 0.17893 0.31731 0.0
H754 H 0.61033 0.21903 0.33446 0.0
H755 H 0.6145 0.1809 0.34688 0.0
H756 H 0.6179 0.1892 0.30857 0.0
H757 H 0.47731 0.19538 0.36445 0.0
H758 H 0.50639 0.18624 0.38993 0.0
H759 H 0.50211 0.22419 0.37704 0.0
H760 H 0.59229 0.18611 0.44326 0.0
H761 H 0.57998 0.27656 0.41052 0.0
H762 H 0.58556 0.14803 0.37835 0.0
H763 H 0.5482 0.14946 0.39153 0.0
H764 H 0.57828 0.1433 0.41672 0.0
H765 H 0.57118 0.25887 0.33808 0.0
H766 H 0.56064 0.28708 0.36466 0.0
H767 H 0.53415 0.25984 0.35218 0.0
C768 C 0.07869 0.30426 0.54352 0.0
C769 C 0.08183 0.27313 0.53817 0.0
C770 C 0.06884 0.31499 0.57085 0.0
C771 C 0.06223 0.29411 0.59338 0.0
C772 C 0.06504 0.26272 0.58795 0.0
C773 C 0.07456 0.25266 0.56047 0.0
C774 C 0.06576 0.34866 0.57572 0.0
C775 C 0.05838 0.23966 0.61132 0.0
C776 C 0.06074 0.32067 0.67249 0.0
C777 C 0.03016 0.32415 0.67761 0.0
C778 C 0.07157 0.31097 0.64516 0.0
C779 C 0.05137 0.30484 0.6224 0.0
C780 C 0.02053 0.30794 0.6276 0.0
C781 C 0.01034 0.31732 0.65508 0.0
C782 C 0.10464 0.30754 0.64055 0.0
C783 C 0.9982 0.30177 0.60396 0.0
H784 H 0.08448 0.32026 0.52659 0.0
H785 H 0.07693 0.22853 0.55675 0.0
H786 H 0.04266 0.35443 0.58238 0.0
H787 H 0.08049 0.35571 0.59369 0.0
H788 H 0.07141 0.36191 0.55594 0.0
H789 H 0.06246 0.21606 0.60382 0.0
H790 H 0.07234 0.24382 0.6307 0.0
H791 H 0.03488 0.24188 0.61837 0.0
H792 H 0.07625 0.32612 0.6896 0.0
H793 H 0.98665 0.31997 0.65863 0.0
H794 H 0.11198 0.3228 0.6228 0.0
H795 H 0.11015 0.28406 0.6337 0.0
H796 H 0.11739 0.31282 0.6605 0.0
H797 H 1.00265 0.31637 0.58481 0.0
H798 H 0.97498 0.30591 0.61133 0.0
H799 H 1.00034 0.27794 0.59661 0.0
C800 C 0.00467 0.82149 0.81823 0.0
C801 C 0.98549 0.82918 0.79527 0.0
C802 C 0.99374 0.81078 0.8449 0.0
C803 C 0.96282 0.80735 0.8488 0.0
C804 C 0.9433 0.81446 0.82559 0.0
C805 C 0.95486 0.82536 0.7991 0.0
C806 C 0.01532 0.8035 0.86906 0.0
C807 C 0.91019 0.81081 0.82885 0.0
C808 C 0.93777 0.75275 0.90755 0.0
C809 C 0.92907 0.77237 0.9302 0.0
C810 C 0.9486 0.76387 0.88101 0.0
C811 C 0.95113 0.79545 0.87693 0.0
C812 C 0.94308 0.81543 0.89987 0.0
C813 C 0.93208 0.80366 0.92625 0.0
C814 C 0.9569 0.74177 0.85715 0.0
C815 C 0.94573 0.84926 0.8964 0.0
H816 H 0.02839 0.82439 0.81565 0.0
H817 H 0.93984 0.83145 0.78163 0.0
H818 H 0.00987 0.81734 0.88856 0.0
H819 H 0.01343 0.7794 0.87548 0.0
H820 H 0.0387 0.80779 0.86266 0.0
H821 H 0.89802 0.8171 0.80871 0.0
H822 H 0.90507 0.787 0.83444 0.0
H823 H 0.90177 0.82515 0.84699 0.0
H824 H 0.93555 0.72852 0.91025 0.0
H825 H 0.92521 0.819 0.94348 0.0
H826 H 0.98056 0.74441 0.85101 0.0
H827 H 0.94352 0.74658 0.83743 0.0
H828 H 0.95335 0.71788 0.86371 0.0
H829 H 0.96896 0.85511 0.89087 0.0
H830 H 0.93902 0.86171 0.91643 0.0
H831 H 0.93159 0.85719 0.87815 0.0
C832 C 0.50402 0.68457 0.15252 0.0
C833 C 0.48412 0.67883 0.1755 0.0
C834 C 0.494 0.69419 0.12514 0.0
C835 C 0.46327 0.69869 0.12048 0.0
C836 C 0.443 0.69353 0.14365 0.0
C837 C 0.45365 0.68352 0.17086 0.0
C838 C 0.51638 0.69923 0.10105 0.0
C839 C 0.41007 0.69847 0.13963 0.0
C840 C 0.44188 0.75208 0.059 0.0
C841 C 0.4334 0.73207 0.03686 0.0
C842 C 0.45126 0.74149 0.08627 0.0
C843 C 0.45265 0.71 0.09166 0.0
C844 C 0.44486 0.68954 0.06926 0.0
C845 C 0.43521 0.70082 0.04214 0.0
C846 C 0.45924 0.76412 0.10951 0.0
C847 C 0.44642 0.65577 0.07406 0.0
H848 H 0.52762 0.68092 0.15564 0.0
H849 H 0.43807 0.67892 0.18832 0.0
H850 H 0.511 0.68494 0.08199 0.0
H851 H 0.51538 0.72315 0.09374 0.0
H852 H 0.53945 0.69386 0.10796 0.0
H853 H 0.39724 0.69362 0.15979 0.0
H854 H 0.40554 0.72222 0.133 0.0
H855 H 0.40193 0.68371 0.12194 0.0
H856 H 0.44055 0.77629 0.05533 0.0
H857 H 0.42847 0.68517 0.02534 0.0
H858 H 0.48265 0.76064 0.1162 0.0
H859 H 0.44518 0.76068 0.12911 0.0
H860 H 0.45634 0.78789 0.10205 0.0
H861 H 0.46927 0.64888 0.08035 0.0
H862 H 0.44004 0.64288 0.05436 0.0
H863 H 0.43146 0.64939 0.09225 0.0
C864 C 0.1414 0.35329 0.27436 0.0
C865 C 0.15922 0.34839 0.29894 0.0
C866 C 0.15298 0.3664 0.24892 0.0
C867 C 0.18318 0.37483 0.24791 0.0
C868 C 0.20163 0.36869 0.27215 0.0
C869 C 0.18945 0.35558 0.29736 0.0
C870 C 0.13253 0.37245 0.22357 0.0
C871 C 0.23394 0.37732 0.27201 0.0
C872 C 0.21705 0.39715 0.17461 0.0
C873 C 0.21427 0.42881 0.17557 0.0
C874 C 0.20731 0.37915 0.19807 0.0
C875 C 0.19446 0.39315 0.22297 0.0
C876 C 0.19179 0.42506 0.22405 0.0
C877 C 0.20169 0.44241 0.20046 0.0
C878 C 0.21062 0.34519 0.19618 0.0
C879 C 0.17821 0.44099 0.25011 0.0
H880 H 0.11818 0.34723 0.27513 0.0
H881 H 0.20338 0.35206 0.31625 0.0
H882 H 0.12929 0.39723 0.22083 0.0
H883 H 0.14254 0.36365 0.2031 0.0
H884 H 0.11044 0.36202 0.22669 0.0
H885 H 0.24604 0.36798 0.29109 0.0
H886 H 0.24504 0.36917 0.25182 0.0
H887 H 0.2357 0.40234 0.27234 0.0
H888 H 0.22679 0.38643 0.15556 0.0
H889 H 0.19938 0.46682 0.20156 0.0
H890 H 0.18847 0.3346 0.1975 0.0
H891 H 0.22374 0.33657 0.21488 0.0
H892 H 0.22168 0.33781 0.17566 0.0
H893 H 0.15502 0.43351 0.25335 0.0
H894 H 0.17808 0.46601 0.24769 0.0
H895 H 0.1907 0.43495 0.27008 0.0
C896 C 0.90331 0.93048 0.554 0.0
C897 C 0.91472 0.9008 0.55514 0.0
C898 C 0.88971 0.94174 0.52868 0.0
C899 C 0.88742 0.92287 0.5039 0.0
C900 C 0.9001 0.8934 0.50448 0.0
C901 C 0.91358 0.88273 0.53007 0.0
C902 C 0.87644 0.97329 0.52898 0.0
C903 C 0.89823 0.87259 0.47851 0.0
C904 C 0.82051 0.93552 0.45549 0.0
C905 C 0.83264 0.95109 0.43167 0.0
C906 C 0.83817 0.9262 0.47893 0.0
C907 C 0.86885 0.93261 0.47875 0.0
C908 C 0.88139 0.94816 0.45475 0.0
C909 C 0.86313 0.95718 0.43141 0.0
C910 C 0.82388 0.90955 0.504 0.0
C911 C 0.91401 0.95545 0.45387 0.0
H912 H 0.90392 0.94453 0.57331 0.0
H913 H 0.92287 0.85999 0.53059 0.0
H914 H 0.88348 0.98601 0.50935 0.0
H915 H 0.85187 0.97195 0.52849 0.0
H916 H 0.8829 0.9862 0.54864 0.0
H917 H 0.91171 0.85159 0.48141 0.0
H918 H 0.87479 0.86618 0.47505 0.0
H919 H 0.90585 0.88432 0.45852 0.0
H920 H 0.79703 0.93052 0.45592 0.0
H921 H 0.87268 0.96927 0.41316 0.0
H922 H 0.82696 0.92233 0.52452 0.0
H923 H 0.83471 0.88706 0.50685 0.0
H924 H 0.79974 0.9062 0.5007 0.0
H925 H 0.91972 0.96983 0.47276 0.0
H926 H 0.9204 0.96743 0.43355 0.0
H927 H 0.92746 0.93432 0.45561 0.0
C928 C 0.30395 0.60556 0.67393 0.0
C929 C 0.30023 0.57425 0.6771 0.0
C930 C 0.314 0.62327 0.6973 0.0
C931 C 0.32022 0.60937 0.72446 0.0
C932 C 0.31576 0.57793 0.72792 0.0
C933 C 0.30595 0.56082 0.70425 0.0
C934 C 0.31859 0.65671 0.69276 0.0
C935 C 0.32185 0.5622 0.75654 0.0
C936 C 0.37504 0.64237 0.77797 0.0
C937 C 0.35617 0.65496 0.79931 0.0
C938 C 0.36362 0.62865 0.75292 0.0
C939 C 0.33251 0.62713 0.74912 0.0
C940 C 0.31331 0.64039 0.77018 0.0
C941 C 0.32535 0.6542 0.79495 0.0
C942 C 0.38489 0.61482 0.731 0.0
C943 C 0.28002 0.63916 0.76699 0.0
H944 H 0.29957 0.61614 0.65307 0.0
H945 H 0.30291 0.5367 0.70708 0.0
H946 H 0.30611 0.66989 0.70944 0.0
H947 H 0.34243 0.662 0.69541 0.0
H948 H 0.3114 0.66436 0.67082 0.0
H949 H 0.31609 0.53784 0.756 0.0
H950 H 0.3457 0.56407 0.76205 0.0
H951 H 0.30897 0.5733 0.7743 0.0
H952 H 0.39884 0.64241 0.78122 0.0
H953 H 0.31057 0.66431 0.811 0.0
H954 H 0.37962 0.62308 0.70877 0.0
H955 H 0.38247 0.58987 0.73089 0.0
H956 H 0.40838 0.62013 0.73586 0.0
H957 H 0.27327 0.64806 0.74539 0.0
H958 H 0.26818 0.65232 0.78418 0.0
H959 H 0.27274 0.6153 0.7682 0.0
C960 C 0.64027 0.08083 0.06157 0.0
C961 C 0.61069 0.09104 0.0626 0.0
C962 C 0.65285 0.06969 0.03562 0.0
C963 C 0.6355 0.06899 0.01001 0.0
C964 C 0.60535 0.07839 0.01113 0.0
C965 C 0.59328 0.08922 0.03745 0.0
C966 C 0.685 0.05961 0.03541 0.0
C967 C 0.5862 0.07819 0.98426 0.0
C968 C 0.67899 0.0756 0.93944 0.0
C969 C 0.68067 0.04543 0.93 0.0
C970 C 0.66364 0.08359 0.96497 0.0
C971 C 0.64969 0.06086 0.98167 0.0
C972 C 0.65051 0.03047 0.97187 0.0
C973 C 0.66595 0.02311 0.94607 0.0
C974 C 0.66309 0.11631 0.9745 0.0
C975 C 0.63591 0.00561 0.98911 0.0
H976 H 0.65368 0.08178 0.08106 0.0
H977 H 0.57046 0.0973 0.03808 0.0
H978 H 0.68723 0.0366 0.02594 0.0
H979 H 0.69813 0.07508 0.02152 0.0
H980 H 0.69475 0.05936 0.05758 0.0
H981 H 0.5626 0.08375 0.98927 0.0
H982 H 0.59458 0.09501 0.96836 0.0
H983 H 0.58736 0.05571 0.97358 0.0
H984 H 0.69011 0.09307 0.9271 0.0
H985 H 0.66717 0.99974 0.93897 0.0
H986 H 0.67492 0.11857 0.9955 0.0
H987 H 0.63987 0.12416 0.97811 0.0
H988 H 0.67368 0.13145 0.95829 0.0
H989 H 0.64713 1.00299 0.01042 0.0
H990 H 0.63684 0.98353 0.97758 0.0
H991 H 0.61236 0.0116 0.99364 0.0
C992 C 0.66843 0.17219 0.69134 0.0
C993 C 0.67285 0.15807 0.6643 0.0
C994 C 0.67967 0.15926 0.71702 0.0
C995 C 0.69548 0.13139 0.71565 0.0
C996 C 0.70107 0.11768 0.68826 0.0
C997 C 0.68977 0.13125 0.66289 0.0
C998 C 0.67353 0.17478 0.74574 0.0
C999 C 0.71763 0.08786 0.68588 0.0
C1000 C 0.73824 0.10198 0.78153 0.0
C1001 C 0.71777 0.08191 0.7938 0.0
C1002 C 0.73125 0.11864 0.75629 0.0
C1003 C 0.70324 0.11495 0.74296 0.0
C1004 C 0.68242 0.09501 0.75547 0.0
C1005 C 0.68989 0.07886 0.78071 0.0
C1006 C 0.75391 0.13989 0.74369 0.0
C1007 C 0.65233 0.09032 0.74194 0.0
H1008 H 0.65577 0.19319 0.69246 0.0
H1009 H 0.69311 0.12017 0.64207 0.0
H1010 H 0.65777 0.16113 0.75874 0.0
H1011 H 0.69425 0.17654 0.75853 0.0
H1012 H 0.66384 0.19782 0.74282 0.0
H1013 H 0.72251 0.08161 0.66291 0.0
H1014 H 0.73883 0.08875 0.69799 0.0
H1015 H 0.70416 0.06969 0.69585 0.0
H1016 H 0.75983 0.1045 0.79148 0.0
H1017 H 0.67389 0.06341 0.78992 0.0
H1018 H 0.74412 0.16293 0.74139 0.0
H1019 H 0.76055 0.1322 0.72158 0.0
H1020 H 0.77412 0.14125 0.75736 0.0
H1021 H 0.64008 0.1122 0.74052 0.0
H1022 H 0.63861 0.07414 0.7545 0.0
H1023 H 0.65507 0.0816 0.71942 0.0
C1024 C 0.20151 0.45092 0.01014 0.0
C1025 C 0.18807 0.45758 0.03708 0.0
C1026 C 0.18489 0.4406 0.9865 0.0
C1027 C 0.15395 0.43658 0.98975 0.0
C1028 C 0.14006 0.44369 0.01671 0.0
C1029 C 0.15728 0.45422 0.04005 0.0
C1030 C 0.2006 0.43357 0.9581 0.0
C1031 C 0.10714 0.43959 0.02105 0.0
C1032 C 0.11047 0.43108 0.91911 0.0
C1033 C 0.10908 0.39962 0.91508 0.0
C1034 C 0.12414 0.44347 0.94376 0.0
C1035 C 0.1366 0.42398 0.96507 0.0
C1036 C 0.13451 0.39225 0.96158 0.0
C1037 C 0.12095 0.38048 0.93663 0.0
C1038 C 0.12599 0.47742 0.9466 0.0
C1039 C 0.14748 0.37065 0.98377 0.0
H1040 H 0.22524 0.45364 0.00744 0.0
H1041 H 0.14668 0.45931 0.06074 0.0
H1042 H 0.19836 0.40921 0.95286 0.0
H1043 H 0.19023 0.44661 0.9401 0.0
H1044 H 0.2246 0.43896 0.9588 0.0
H1045 H 0.0995 0.44725 0.0429 0.0
H1046 H 0.09462 0.45239 1.00423 0.0
H1047 H 0.10159 0.41536 0.01845 0.0
H1048 H 0.10093 0.44611 0.90291 0.0
H1049 H 0.12042 0.35618 0.93365 0.0
H1050 H 0.14956 0.48433 0.94559 0.0
H1051 H 0.11704 0.48483 0.96801 0.0
H1052 H 0.11362 0.48948 0.92913 0.0
H1053 H 0.17199 0.37269 0.98402 0.0
H1054 H 0.14193 0.34672 0.97909 0.0
H1055 H 0.13922 0.37646 0.00589 0.0
C1056 C 0.80851 0.93698 0.26838 0.0
C1057 C 0.80175 0.92369 0.29535 0.0
C1058 C 0.81803 0.91945 0.24465 0.0
C1059 C 0.82107 0.88773 0.24784 0.0
C1060 C 0.81385 0.87399 0.27481 0.0
C1061 C 0.80416 0.89215 0.29828 0.0
C1062 C 0.82527 0.93503 0.21622 0.0
C1063 C 0.81692 0.84023 0.27901 0.0
C1064 C 0.82505 0.84479 0.17629 0.0
C1065 C 0.85583 0.84245 0.17168 0.0
C1066 C 0.81333 0.85823 0.20164 0.0
C1067 C 0.83285 0.86945 0.22302 0.0
C1068 C 0.86389 0.86599 0.2191 0.0
C1069 C 0.87499 0.85271 0.19345 0.0
C1070 C 0.7801 0.86156 0.20498 0.0
C1071 C 0.88546 0.87759 0.24139 0.0
H1072 H 0.8065 0.96129 0.26572 0.0
H1073 H 0.79895 0.88169 0.31901 0.0
H1074 H 0.84905 0.93137 0.21073 0.0
H1075 H 0.8121 0.92519 0.19831 0.0
H1076 H 0.82071 0.95979 0.21703 0.0
H1077 H 0.80912 0.83287 0.30086 0.0
H1078 H 0.80408 0.82816 0.26218 0.0
H1079 H 0.84052 0.83324 0.27633 0.0
H1080 H 0.81005 0.8364 0.15989 0.0
H1081 H 0.89878 0.85137 0.19004 0.0
H1082 H 0.7737 0.88586 0.20379 0.0
H1083 H 0.77287 0.85308 0.22658 0.0
H1084 H 0.76794 0.8492 0.1878 0.0
H1085 H 0.88446 0.90269 0.24185 0.0
H1086 H 0.90868 0.87038 0.23658 0.0
H1087 H 0.87936 0.86946 0.26346 0.0
C1088 C 0.3602 0.54329 0.53874 0.0
C1089 C 0.3292 0.54682 0.5383 0.0
C1090 C 0.3778 0.55309 0.51515 0.0
C1091 C 0.36406 0.56681 0.49066 0.0
C1092 C 0.33282 0.5703 0.49014 0.0
C1093 C 0.31586 0.56028 0.51384 0.0
C1094 C 0.41105 0.54887 0.51644 0.0
C1095 C 0.3172 0.58484 0.46456 0.0
C1096 C 0.40421 0.62027 0.43944 0.0
C1097 C 0.40843 0.60217 0.41462 0.0
C1098 C 0.39113 0.60862 0.46486 0.0
C1099 C 0.38201 0.57809 0.46558 0.0
C1100 C 0.38735 0.55934 0.44104 0.0
C1101 C 0.40046 0.57159 0.41588 0.0
C1102 C 0.38595 0.62939 0.49052 0.0
C1103 C 0.37795 0.52668 0.44087 0.0
H1104 H 0.37072 0.53286 0.55746 0.0
H1105 H 0.29195 0.56321 0.51316 0.0
H1106 H 0.41892 0.53538 0.49749 0.0
H1107 H 0.42197 0.57118 0.51515 0.0
H1108 H 0.41829 0.53729 0.53673 0.0
H1109 H 0.2927 0.5856 0.46741 0.0
H1110 H 0.32511 0.6083 0.4615 0.0
H1111 H 0.32252 0.57217 0.44431 0.0
H1112 H 0.41085 0.64375 0.4389 0.0
H1113 H 0.40343 0.55746 0.39678 0.0
H1114 H 0.3946 0.61882 0.51074 0.0
H1115 H 0.36176 0.63323 0.49368 0.0
H1116 H 0.39665 0.65168 0.48751 0.0
H1117 H 0.38593 0.5149 0.46074 0.0
H1118 H 0.38646 0.5143 0.42144 0.0
H1119 H 0.35336 0.5256 0.44098 0.0
C1120 C 0.22769 0.19703 0.42609 0.0
C1121 C 0.20289 0.21183 0.414 0.0
C1122 C 0.25108 0.18632 0.40858 0.0
C1123 C 0.24987 0.19053 0.37807 0.0
C1124 C 0.22507 0.20568 0.36561 0.0
C1125 C 0.20179 0.2161 0.38374 0.0
C1126 C 0.27705 0.17024 0.4228 0.0
C1127 C 0.22311 0.21072 0.33318 0.0
C1128 C 0.32518 0.18263 0.34117 0.0
C1129 C 0.32527 0.15211 0.33273 0.0
C1130 C 0.30011 0.196 0.35448 0.0
C1131 C 0.27454 0.17842 0.35955 0.0
C1132 C 0.27401 0.14804 0.34984 0.0
C1133 C 0.29934 0.13527 0.33655 0.0
C1134 C 0.30159 0.22847 0.3645 0.0
C1135 C 0.24717 0.12854 0.35475 0.0
H1136 H 0.22883 0.19351 0.44942 0.0
H1137 H 0.18279 0.22761 0.37421 0.0
H1138 H 0.27915 0.14683 0.41427 0.0
H1139 H 0.29797 0.18202 0.41744 0.0
H1140 H 0.27473 0.16912 0.44687 0.0
H1141 H 0.20289 0.22383 0.327 0.0
H1142 H 0.24292 0.22301 0.32533 0.0
H1143 H 0.2229 0.18861 0.32177 0.0
H1144 H 0.34515 0.19577 0.33847 0.0
H1145 H 0.29902 0.11186 0.32955 0.0
H1146 H 0.30227 0.22916 0.38864 0.0
H1147 H 0.28149 0.24127 0.35758 0.0
H1148 H 0.32152 0.24007 0.35587 0.0
H1149 H 0.24434 0.12423 0.3784 0.0
H1150 H 0.24917 0.10642 0.34339 0.0
H1151 H 0.22679 0.14038 0.3471 0.0
C1152 C 0.12473 0.04804 0.59846 0.0
C1153 C 0.10669 0.07016 0.58518 0.0
C1154 C 0.11234 0.02351 0.61343 0.0
C1155 C 0.0811 0.0211 0.6155 0.0
C1156 C 0.06273 0.04292 0.60162 0.0
C1157 C 0.07573 0.06711 0.58656 0.0
C1158 C 0.13273 1.0007 0.62788 0.0
C1159 C 0.02932 0.0412 0.60341 0.0
C1160 C 0.04979 0.94574 0.64088 0.0
C1161 C 0.04597 0.95095 0.6708 0.0
C1162 C 0.06075 0.9685 0.62241 0.0
C1163 C 0.06783 0.99715 0.63414 0.0
C1164 C 0.06327 1.00273 0.66417 0.0
C1165 C 0.05251 0.9796 0.68209 0.0
C1166 C 0.06539 0.96169 0.59051 0.0
C1167 C 0.07027 0.03302 0.67754 0.0
H1168 H 0.14864 0.05033 0.59791 0.0
H1169 H 0.06158 0.08375 0.57595 0.0
H1170 H 0.1301 1.00216 0.65187 0.0
H1171 H 0.12677 0.9774 0.62135 0.0
H1172 H 0.15642 0.0044 0.6223 0.0
H1173 H 0.01817 0.05879 0.58988 0.0
H1174 H 0.02182 0.01861 0.59623 0.0
H1175 H 0.022 0.04416 0.62634 0.0
H1176 H 0.04475 0.92371 0.63195 0.0
H1177 H 0.04943 0.98402 0.70512 0.0
H1178 H 0.08935 0.96305 0.58504 0.0
H1179 H 0.05362 0.9788 0.57699 0.0
H1180 H 0.05744 0.93886 0.5845 0.0
H1181 H 0.09433 0.03756 0.6752 0.0
H1182 H 0.06431 0.03411 0.70102 0.0
H1183 H 0.05813 0.05136 0.66595 0.0
C1184 C 0.21256 0.87384 0.84219 0.0
C1185 C 0.18718 0.85644 0.83748 0.0
C1186 C 0.23785 0.86139 0.85565 0.0
C1187 C 0.2379 0.83072 0.86464 0.0
C1188 C 0.21279 0.81272 0.85901 0.0
C1189 C 0.18776 0.82578 0.84554 0.0
C1190 C 0.26415 0.88137 0.86117 0.0
C1191 C 0.2119 0.77996 0.86828 0.0
C1192 C 0.31156 0.79343 0.88624 0.0
C1193 C 0.3107 0.79636 0.91667 0.0
C1194 C 0.28795 0.80424 0.86893 0.0
C1195 C 0.26299 0.81839 0.88235 0.0
C1196 C 0.26201 0.82127 0.91302 0.0
C1197 C 0.28576 0.81023 0.92972 0.0
C1198 C 0.28973 0.80064 0.8363 0.0
C1199 C 0.23591 0.83625 0.92827 0.0
H1200 H 0.21256 0.89738 0.83553 0.0
H1201 H 0.16822 0.81219 0.84223 0.0
H1202 H 0.267 0.88449 0.88495 0.0
H1203 H 0.28478 0.8705 0.85271 0.0
H1204 H 0.26155 0.90401 0.8509 0.0
H1205 H 0.19199 0.7683 0.8599 0.0
H1206 H 0.23204 0.76767 0.86048 0.0
H1207 H 0.21171 0.77854 0.8924 0.0
H1208 H 0.33065 0.7827 0.87594 0.0
H1209 H 0.28475 0.8127 0.95318 0.0
H1210 H 0.28893 0.82321 0.8257 0.0
H1211 H 0.27032 0.78788 0.82841 0.0
H1212 H 0.31034 0.78862 0.82924 0.0
H1213 H 0.23329 0.85995 0.92062 0.0
H1214 H 0.23843 0.83643 0.95232 0.0
H1215 H 0.21516 0.82429 0.92287 0.0
C1216 C 0.45569 0.02816 0.18375 0.0
C1217 C 0.47032 0.05336 0.17221 0.0
C1218 C 0.44505 0.00523 0.16567 0.0
C1219 C 0.44921 0.00733 0.13518 0.0
C1220 C 0.46427 0.03249 0.12331 0.0
C1221 C 0.47456 0.0553 0.14197 0.0
C1222 C 0.42904 0.97886 0.17925 0.0
C1223 C 0.4693 0.03542 0.09093 0.0
C1224 C 0.44096 0.93292 0.09468 0.0
C1225 C 0.41125 0.93464 0.08571 0.0
C1226 C 0.45406 0.95697 0.10969 0.0
C1227 C 0.43704 0.98337 0.11596 0.0
C1228 C 0.40741 0.98569 0.10602 0.0
C1229 C 0.39491 0.96134 0.09101 0.0
C1230 C 0.48573 0.95362 0.11989 0.0
C1231 C 0.38852 0.01345 0.11218 0.0
H1232 H 0.45222 0.02639 0.20705 0.0
H1233 H 0.4859 0.07461 0.13284 0.0
H1234 H 0.40604 0.97792 0.17083 0.0
H1235 H 0.44033 0.95729 0.1732 0.0
H1236 H 0.42804 0.98037 0.20338 0.0
H1237 H 0.48254 0.05564 0.08526 0.0
H1238 H 0.48098 0.01496 0.08247 0.0
H1239 H 0.44764 0.03705 0.07962 0.0
H1240 H 0.45371 0.91232 0.09088 0.0
H1241 H 0.37213 0.96311 0.08365 0.0
H1242 H 0.48613 0.95216 0.144 0.0
H1243 H 0.49874 0.97374 0.11353 0.0
H1244 H 0.49683 0.93307 0.11085 0.0
H1245 H 0.38464 0.01551 0.13598 0.0
H1246 H 0.36666 0.01265 0.10115 0.0
H1247 H 0.40018 0.03413 0.105 0.0
C1248 C 0.80452 0.37175 0.62877 0.0
C1249 C 0.83005 0.35397 0.63374 0.0
C1250 C 0.77987 0.35994 0.61426 0.0
C1251 C 0.78066 0.32955 0.60451 0.0
C1252 C 0.80592 0.31116 0.61035 0.0
C1253 C 0.8303 0.32358 0.62486 0.0
C1254 C 0.75337 0.38031 0.60853 0.0
C1255 C 0.80766 0.27866 0.60031 0.0
C1256 C 0.70826 0.29337 0.58076 0.0
C1257 C 0.70969 0.29692 0.55041 0.0
C1258 C 0.73127 0.30363 0.59872 0.0
C1259 C 0.7562 0.31789 0.58604 0.0
C1260 C 0.75774 0.32146 0.55545 0.0
C1261 C 0.73458 0.31092 0.53807 0.0
C1262 C 0.72891 0.29929 0.63124 0.0
C1263 C 0.78385 0.33661 0.54101 0.0
H1264 H 0.80388 0.39507 0.63604 0.0
H1265 H 0.84999 0.30973 0.62837 0.0
H1266 H 0.75101 0.38397 0.58474 0.0
H1267 H 0.73274 0.36947 0.61634 0.0
H1268 H 0.75536 0.4027 0.61926 0.0
H1269 H 0.82762 0.26663 0.60879 0.0
H1270 H 0.78761 0.2663 0.60741 0.0
H1271 H 0.80835 0.27792 0.57617 0.0
H1272 H 0.6892 0.28249 0.5905 0.0
H1273 H 0.73597 0.31387 0.51468 0.0
H1274 H 0.72912 0.32158 0.64231 0.0
H1275 H 0.74837 0.28614 0.63924 0.0
H1276 H 0.70837 0.28731 0.63767 0.0
H1277 H 0.78587 0.36009 0.54923 0.0
H1278 H 0.78177 0.33743 0.51693 0.0
H1279 H 0.80471 0.32435 0.54654 0.0
C1280 C 0.96394 0.44264 0.83057 0.0
C1281 C 0.97135 0.44795 0.80133 0.0
C1282 C 0.95189 0.46594 0.84809 0.0
C1283 C 0.9475 0.49524 0.83613 0.0
C1284 C 0.95595 0.5009 0.80694 0.0
C1285 C 0.96761 0.47722 0.78991 0.0
C1286 C 0.94299 0.45898 0.87908 0.0
C1287 C 0.95202 0.53187 0.79341 0.0
C1288 C 0.88824 0.54915 0.86564 0.0
C1289 C 0.90509 0.56971 0.88171 0.0
C1290 C 0.90164 0.5242 0.85167 0.0
C1291 C 0.93276 0.51977 0.85344 0.0
C1292 C 0.94988 0.54006 0.87003 0.0
C1293 C 0.93584 0.56468 0.88404 0.0
C1294 C 0.88256 0.50307 0.83425 0.0
C1295 C 0.98312 0.53621 0.87235 0.0
H1296 H 0.96672 0.4201 0.83954 0.0
H1297 H 0.97357 0.48166 0.76743 0.0
H1298 H 0.95336 0.47522 0.89423 0.0
H1299 H 0.91859 0.46163 0.88153 0.0
H1300 H 0.94947 0.43563 0.88566 0.0
H1301 H 0.96123 0.53295 0.77095 0.0
H1302 H 0.92808 0.53798 0.79261 0.0
H1303 H 0.96308 0.54916 0.8069 0.0
H1304 H 0.86457 0.55295 0.86331 0.0
H1305 H 0.94902 0.58006 0.89682 0.0
H1306 H 0.88673 0.47929 0.84103 0.0
H1307 H 0.88842 0.50476 0.81082 0.0
H1308 H 0.8585 0.50828 0.83684 0.0
H1309 H 0.98884 0.51308 0.88008 0.0
H1310 H 0.99303 0.5529 0.88741 0.0
H1311 H 0.99344 0.53894 0.85054 0.0
C1312 C 0.78297 0.69536 0.04075 0.0
C1313 C 0.80794 0.70911 0.0529 0.0
C1314 C 0.7598 0.68474 0.0583 0.0
C1315 C 0.7614 0.68799 0.08889 0.0
C1316 C 0.78641 0.702 0.1014 0.0
C1317 C 0.80947 0.71233 0.08325 0.0
C1318 C 0.73363 0.66982 0.04402 0.0
C1319 C 0.7888 0.70602 0.13392 0.0
C1320 C 0.68682 0.68187 0.12737 0.0
C1321 C 0.68679 0.65126 0.13559 0.0
C1322 C 0.71156 0.69456 0.11343 0.0
C1323 C 0.73688 0.67622 0.10746 0.0
C1324 C 0.73744 0.64565 0.11674 0.0
C1325 C 0.71244 0.63358 0.1307 0.0
C1326 C 0.71006 0.72725 0.1039 0.0
C1327 C 0.76399 0.62533 0.11086 0.0
H1328 H 0.78151 0.69264 0.01736 0.0
H1329 H 0.8286 0.72301 0.09284 0.0
H1330 H 0.7315 0.64628 0.05211 0.0
H1331 H 0.71281 0.68213 0.04982 0.0
H1332 H 0.7357 0.66921 0.01991 0.0
H1333 H 0.8094 0.71784 0.14022 0.0
H1334 H 0.7694 0.71918 0.14221 0.0
H1335 H 0.78849 0.68362 0.14484 0.0
H1336 H 0.66706 0.69567 0.13085 0.0
H1337 H 0.71285 0.61009 0.13751 0.0
H1338 H 0.70924 0.72842 0.07978 0.0
H1339 H 0.73023 0.73933 0.11089 0.0
H1340 H 0.69022 0.73928 0.11283 0.0
H1341 H 0.76644 0.6217 0.08706 0.0
H1342 H 0.76197 0.60292 0.12162 0.0
H1343 H 0.78459 0.63616 0.11853 0.0
C1344 C 0.62348 0.46287 0.37763 0.0
C1345 C 0.60764 0.43644 0.38365 0.0
C1346 C 0.60997 0.48758 0.36346 0.0
C1347 C 0.57982 0.48591 0.35514 0.0
C1348 C 0.56335 0.45983 0.36223 0.0
C1349 C 0.57745 0.43539 0.37635 0.0
C1350 C 0.62832 0.51498 0.35635 0.0
C1351 C 0.53116 0.45716 0.35376 0.0
C1352 C 0.54081 0.55861 0.3304 0.0
C1353 C 0.54376 0.55645 0.30004 0.0
C1354 C 0.55199 0.53561 0.34873 0.0
C1355 C 0.56656 0.51003 0.33637 0.0
C1356 C 0.56926 0.50764 0.30576 0.0
C1357 C 0.55781 0.53077 0.28804 0.0
C1358 C 0.5485 0.53882 0.38128 0.0
C1359 C 0.58467 0.48079 0.29165 0.0
H1360 H 0.64663 0.46413 0.38372 0.0
H1361 H 0.56507 0.41501 0.38071 0.0
H1362 H 0.63106 0.51691 0.3324 0.0
H1363 H 0.61684 0.5359 0.36396 0.0
H1364 H 0.65069 0.5138 0.36637 0.0
H1365 H 0.52064 0.43696 0.36359 0.0
H1366 H 0.51844 0.47765 0.36056 0.0
H1367 H 0.52946 0.45547 0.32972 0.0
H1368 H 0.52988 0.57828 0.33987 0.0
H1369 H 0.56026 0.52879 0.26463 0.0
H1370 H 0.57068 0.54009 0.39155 0.0
H1371 H 0.53739 0.51865 0.39042 0.0
H1372 H 0.53541 0.55935 0.3874 0.0
H1373 H 0.6081 0.47942 0.29891 0.0
H1374 H 0.58441 0.4821 0.26749 0.0
H1375 H 0.57382 0.45952 0.29845 0.0
C1376 C 0.36605 0.31529 0.16986 0.0
C1377 C 0.35782 0.31411 0.14045 0.0
C1378 C 0.38087 0.29084 0.18321 0.0
C1379 C 0.38758 0.2645 0.16679 0.0
C1380 C 0.37843 0.26274 0.13741 0.0
C1381 C 0.36377 0.28756 0.12458 0.0
C1382 C 0.39022 0.29358 0.2146 0.0
C1383 C 0.38517 0.23507 0.11914 0.0
C1384 C 0.45546 0.21765 0.18725 0.0
C1385 C 0.44291 0.19259 0.20125 0.0
C1386 C 0.43768 0.24124 0.17629 0.0
C1387 C 0.40647 0.23994 0.17944 0.0
C1388 C 0.39358 0.21498 0.19393 0.0
C1389 C 0.41196 0.19153 0.20461 0.0
C1390 C 0.45234 0.26742 0.16097 0.0
C1391 C 0.36039 0.21289 0.19782 0.0
H1392 H 0.36108 0.33548 0.18245 0.0
H1393 H 0.35783 0.28651 0.10177 0.0
H1394 H 0.3826 0.27374 0.22728 0.0
H1395 H 0.4148 0.29382 0.21586 0.0
H1396 H 0.38131 0.31451 0.225 0.0
H1397 H 0.37441 0.23623 0.09745 0.0
H1398 H 0.40951 0.23272 0.11588 0.0
H1399 H 0.3776 0.21437 0.13051 0.0
H1400 H 0.47932 0.21876 0.18449 0.0
H1401 H 0.40206 0.17234 0.21551 0.0
H1402 H 0.44599 0.28903 0.17173 0.0
H1403 H 0.44459 0.26878 0.13811 0.0
H1404 H 0.47694 0.2653 0.16085 0.0
H1405 H 0.35163 0.23347 0.20888 0.0
H1406 H 0.35394 0.19272 0.21073 0.0
H1407 H 0.34958 0.21173 0.17621 0.0
C1408 C 0.91171 0.31415 0.78035 0.0
C1409 C 0.94147 0.30815 0.773 0.0
C1410 C 0.8937 0.29136 0.79221 0.0
C1411 C 0.90565 0.26184 0.79646 0.0
C1412 C 0.93533 0.25547 0.78805 0.0
C1413 C 0.95286 0.27867 0.7766 0.0
C1414 C 0.86222 0.29911 0.80109 0.0
C1415 C 0.94886 0.22425 0.79178 0.0
C1416 C 0.87482 0.20972 0.85489 0.0
C1417 C 0.85776 0.18957 0.83855 0.0
C1418 C 0.88968 0.23386 0.84157 0.0
C1419 C 0.88782 0.23787 0.81103 0.0
C1420 C 0.87044 0.21786 0.7944 0.0
C1421 C 0.85553 0.19407 0.80834 0.0
C1422 C 0.90792 0.2547 0.86015 0.0
C1423 C 0.86805 0.22122 0.76178 0.0
H1424 H 0.90274 0.33685 0.77766 0.0
H1425 H 0.97573 0.27369 0.7707 0.0
H1426 H 0.84658 0.28311 0.79095 0.0
H1427 H 0.8598 0.29677 0.82504 0.0
H1428 H 0.8557 0.32254 0.79481 0.0
H1429 H 0.97166 0.22255 0.78254 0.0
H1430 H 0.94984 0.21842 0.81526 0.0
H1431 H 0.93484 0.20713 0.78106 0.0
H1432 H 0.87712 0.2063 0.87813 0.0
H1433 H 0.84202 0.17903 0.79553 0.0
H1434 H 0.90122 0.2786 0.85622 0.0
H1435 H 0.93171 0.25239 0.8541 0.0
H1436 H 0.90552 0.24977 0.88376 0.0
H1437 H 0.86016 0.24436 0.75614 0.0
H1438 H 0.85269 0.20458 0.75211 0.0
H1439 H 0.89028 0.21808 0.75163 0.0
C1440 C 0.04618 0.61016 0.09621 0.0
C1441 C 0.0676 0.59564 0.07864 0.0
C1442 C 0.02098 0.62408 0.08403 0.0
C1443 C 0.01716 0.62383 0.05346 0.0
C1444 C 0.03818 0.60847 0.03563 0.0
C1445 C 0.06309 0.59449 0.04843 0.0
C1446 C 0.99907 0.64019 0.10384 0.0
C1447 C 0.03492 0.60776 1.00294 0.0
C1448 C 0.94126 0.64843 0.02495 0.0
C1449 C 0.94575 0.67932 0.01978 0.0
C1450 C 0.9645 0.62973 0.03521 0.0
C1451 C 0.99284 0.64224 0.04017 0.0
C1452 C 0.99769 0.67314 0.03392 0.0
C1453 C 0.97413 0.69125 0.02391 0.0
C1454 C 0.9585 0.59689 0.04169 0.0
C1455 C 0.02761 0.68736 0.0386 0.0
H1456 H 0.04956 0.61155 0.11951 0.0
H1457 H 0.0792 0.58286 0.03471 0.0
H1458 H 0.99993 0.66493 0.09986 0.0
H1459 H 0.97614 0.63287 0.0991 0.0
H1460 H 1.00374 0.63591 0.12722 0.0
H1461 H 0.05169 0.59266 0.99239 0.0
H1462 H 0.01244 0.60004 0.99694 0.0
H1463 H 0.03747 0.63093 0.99404 0.0
H1464 H 0.91941 0.63904 0.02178 0.0
H1465 H 0.97796 0.71502 0.01966 0.0
H1466 H 0.96043 0.59278 0.06544 0.0
H1467 H 0.97526 0.58216 0.03073 0.0
H1468 H 0.93603 0.59007 0.03459 0.0
H1469 H 0.03324 0.68671 0.06208 0.0
H1470 H 0.02815 0.71126 0.03112 0.0
H1471 H 0.04512 0.67435 0.0268 0.0
C1472 C 0.64135 0.79202 0.35162 0.0
C1473 C 0.65677 0.81318 0.33469 0.0
C1474 C 0.62635 0.76788 0.33869 0.0
C1475 C 0.62643 0.7649 0.308 0.0
C1476 C 0.64232 0.78583 0.29076 0.0
C1477 C 0.65737 0.80962 0.3043 0.0
C1478 C 0.60974 0.74602 0.35788 0.0
C1479 C 0.64283 0.78351 0.25797 0.0
C1480 C 0.60221 0.68934 0.27658 0.0
C1481 C 0.57204 0.69504 0.27118 0.0
C1482 C 0.62042 0.712 0.28808 0.0
C1483 C 0.60821 0.74108 0.294 0.0
C1484 C 0.57801 0.74718 0.28769 0.0
C1485 C 0.56032 0.72411 0.27651 0.0
C1486 C 0.65248 0.70458 0.29467 0.0
C1487 C 0.56418 0.77797 0.29333 0.0
H1488 H 0.64033 0.79472 0.37505 0.0
H1489 H 0.66962 0.82549 0.29102 0.0
H1490 H 0.58558 0.74806 0.35362 0.0
H1491 H 0.61658 0.7224 0.35275 0.0
H1492 H 0.61357 0.75019 0.3814 0.0
H1493 H 0.65741 0.80064 0.24776 0.0
H1494 H 0.65061 0.76065 0.25119 0.0
H1495 H 0.62002 0.78669 0.2494 0.0
H1496 H 0.61146 0.66696 0.27253 0.0
H1497 H 0.5371 0.72888 0.27215 0.0
H1498 H 0.65628 0.70628 0.31846 0.0
H1499 H 0.66722 0.72116 0.28392 0.0
H1500 H 0.65901 0.68146 0.28739 0.0
H1501 H 0.56465 0.783 0.31698 0.0
H1502 H 0.54081 0.77949 0.28582 0.0
H1503 H 0.57713 0.79574 0.28212 0.0
C1504 C 0.54311 0.3119 0.52596 0.0
C1505 C 0.57101 0.3245 0.52039 0.0
C1506 C 0.51927 0.32973 0.53601 0.0
C1507 C 0.52335 0.361 0.54088 0.0
C1508 C 0.5512 0.37411 0.53459 0.0
C1509 C 0.57472 0.3557 0.52427 0.0
C1510 C 0.48986 0.31488 0.54211 0.0
C1511 C 0.55639 0.40736 0.5396 0.0
C1512 C 0.4521 0.40736 0.54886 0.0
C1513 C 0.44802 0.40744 0.5792 0.0
C1514 C 0.47713 0.39338 0.53605 0.0
C1515 C 0.49873 0.37931 0.554 0.0
C1516 C 0.49532 0.3803 0.58464 0.0
C1517 C 0.46998 0.39418 0.59684 0.0
C1518 C 0.47992 0.39271 0.50329 0.0
C1519 C 0.51787 0.36563 0.60456 0.0
H1520 H 0.53987 0.28789 0.52271 0.0
H1521 H 0.59618 0.36561 0.51996 0.0
H1522 H 0.48457 0.31642 0.56568 0.0
H1523 H 0.47182 0.32684 0.53022 0.0
H1524 H 0.48989 0.29065 0.53568 0.0
H1525 H 0.5786 0.41448 0.53177 0.0
H1526 H 0.53916 0.42116 0.52839 0.0
H1527 H 0.55456 0.41242 0.56321 0.0
H1528 H 0.43557 0.41803 0.53505 0.0
H1529 H 0.46694 0.39373 0.62025 0.0
H1530 H 0.47793 0.36908 0.49546 0.0
H1531 H 0.50207 0.40081 0.49639 0.0
H1532 H 0.46259 0.40682 0.49251 0.0
H1533 H 0.51759 0.34071 0.60164 0.0
H1534 H 0.5134 0.37079 0.62785 0.0
H1535 H 0.54053 0.37332 0.59896 0.0
C1536 C 0.1582 0.71905 0.62641 0.0
C1537 C 0.16418 0.69259 0.64237 0.0
C1538 C 0.14387 0.74405 0.63937 0.0
C1539 C 0.1351 0.74252 0.66897 0.0
C1540 C 0.1422 0.71642 0.68555 0.0
C1541 C 0.15668 0.69179 0.67207 0.0
C1542 C 0.13672 0.77147 0.62092 0.0
C1543 C 0.13328 0.71394 0.71718 0.0
C1544 C 0.1081 0.81522 0.70576 0.0
C1545 C 0.07726 0.81295 0.70252 0.0
C1546 C 0.12735 0.79223 0.69542 0.0
C1547 C 0.11542 0.76658 0.68143 0.0
C1548 C 0.08432 0.76407 0.67847 0.0
C1549 C 0.06569 0.78718 0.68908 0.0
C1550 C 0.1604 0.79556 0.69912 0.0
C1551 C 0.07065 0.73713 0.66365 0.0
H1552 H 0.16364 0.71984 0.60342 0.0
H1553 H 0.16175 0.67167 0.68472 0.0
H1554 H 0.11239 0.7731 0.61752 0.0
H1555 H 0.14355 0.79244 0.63217 0.0
H1556 H 0.14784 0.77048 0.59929 0.0
H1557 H 0.14323 0.69366 0.72783 0.0
H1558 H 0.14004 0.73439 0.72932 0.0
H1559 H 0.10876 0.7125 0.7189 0.0
H1560 H 0.11721 0.83498 0.71624 0.0
H1561 H 0.04192 0.78513 0.68641 0.0
H1562 H 0.17126 0.79702 0.67744 0.0
H1563 H 0.16984 0.77536 0.71025 0.0
H1564 H 0.16605 0.81603 0.71186 0.0
H1565 H 0.07853 0.73572 0.64076 0.0
H1566 H 0.04601 0.73835 0.66365 0.0
H1567 H 0.07769 0.71591 0.67471 0.0
C1568 C 0.47685 0.80939 0.93318 0.0
C1569 C 0.45006 0.82274 0.94274 0.0
C1570 C 0.50023 0.82694 0.92255 0.0
C1571 C 0.4969 0.85879 0.92126 0.0
C1572 C 0.47016 0.87257 0.93131 0.0
C1573 C 0.44705 0.85438 0.942 0.0
C1574 C 0.52839 0.81128 0.91225 0.0
C1575 C 0.46576 0.90646 0.93024 0.0
C1576 C 0.56864 0.90277 0.91317 0.0
C1577 C 0.57029 0.90703 0.88288 0.0
C1578 C 0.54447 0.88794 0.92609 0.0
C1579 C 0.52118 0.87728 0.90839 0.0
C1580 C 0.52229 0.88223 0.87794 0.0
C1581 C 0.54684 0.89682 0.86558 0.0
C1582 C 0.54422 0.88299 0.95862 0.0
C1583 C 0.49794 0.87128 0.85826 0.0
H1584 H 0.47959 0.78499 0.93377 0.0
H1585 H 0.42651 0.86494 0.94938 0.0
H1586 H 0.53184 0.81571 0.88871 0.0
H1587 H 0.5478 0.82044 0.92393 0.0
H1588 H 0.52788 0.78641 0.9157 0.0
H1589 H 0.44425 0.91379 0.94005 0.0
H1590 H 0.484 0.91781 0.94192 0.0
H1591 H 0.46651 0.91431 0.9073 0.0
H1592 H 0.58628 0.91103 0.92685 0.0
H1593 H 0.54796 0.89954 0.84215 0.0
H1594 H 0.54548 0.85839 0.96338 0.0
H1595 H 0.52315 0.89173 0.9682 0.0
H1596 H 0.56306 0.89421 0.96954 0.0
H1597 H 0.49755 0.84619 0.85848 0.0
H1598 H 0.50091 0.87899 0.83542 0.0
H1599 H 0.476 0.87947 0.86629 0.0
C1600 C 0.94761 0.10137 0.41906 0.0
C1601 C 0.94437 0.09824 0.38882 0.0
C1602 C 0.972 0.11651 0.43089 0.0
C1603 C 0.9938 0.12867 0.41207 0.0
C1604 C 0.99112 0.12484 0.38161 0.0
C1605 C 0.96642 0.10983 0.37037 0.0
C1606 C 0.97401 0.1202 0.46349 0.0
C1607 C 0.01388 0.13744 0.36078 0.0
C1608 C 0.03739 0.19697 0.43641 0.0
C1609 C 0.065 0.18406 0.44377 0.0
C1610 C 0.01398 0.1791 0.42665 0.0
C1611 C 0.01817 0.14744 0.42397 0.0
C1612 C 0.0458 0.13411 0.43175 0.0
C1613 C 0.06889 0.15258 0.44164 0.0
C1614 C 0.98483 0.19423 0.41879 0.0
C1615 C 0.05113 0.10043 0.42909 0.0
H1616 H 0.93101 0.09206 0.43354 0.0
H1617 H 0.964 0.10795 0.34698 0.0
H1618 H 0.99587 0.11188 0.47136 0.0
H1619 H 0.97221 0.14455 0.4692 0.0
H1620 H 0.95624 0.10787 0.47522 0.0
H1621 H 0.00981 0.13053 0.33791 0.0
H1622 H 0.01345 0.16252 0.36187 0.0
H1623 H 0.0365 0.12974 0.36705 0.0
H1624 H 0.034 0.22123 0.43813 0.0
H1625 H 0.0901 0.14239 0.44729 0.0
H1626 H 0.96644 0.18399 0.4314 0.0
H1627 H 0.9801 0.1906 0.39538 0.0
H1628 H 0.98483 0.21897 0.42307 0.0
H1629 H 0.03404 0.08801 0.4416 0.0
H1630 H 0.07342 0.09343 0.43707 0.0
H1631 H 0.04912 0.09351 0.40598 0.0
loop_
_geom_bond_atom_site_label_1
_geom_bond_atom_site_label_2
_geom_bond_distance
_geom_bond_site_symmetry_2
_ccdc_geom_bond_type
Dy0 O3 2.307 . S
Dy0 O5 2.395 . S
Dy0 O6 2.379 . S
Dy0 O8 2.339 . S
Dy0 O10 2.298 . S
Dy0 O14 2.275 . S
Dy0 C22 2.738 . S
Dy1 O4 2.298 . S
Dy1 O7 2.275 . S
Dy1 O9 2.307 . S
Dy1 O11 2.395 . S
Dy1 O12 2.379 . S
Dy1 O15 2.339 . S
Dy1 C31 2.738 . S
C2 O14 1.254 . S
C2 O15 1.257 . S
O3 Dy0 2.307 . S
O3 C13 1.266 . S
O4 Dy1 2.298 . S
O4 C13 1.236 . S
O5 Dy0 2.395 . S
O5 C22 1.255 . S
O6 Dy0 2.379 . S
O6 C22 1.249 . S
O7 Dy1 2.275 . S
O7 C23 1.254 . S
O8 Dy0 2.339 . S
O8 C23 1.257 . S
O9 Dy1 2.307 . S
O9 C24 1.266 . S
O10 Dy0 2.298 . S
O10 C24 1.236 . S
O11 Dy1 2.395 . S
O11 C31 1.255 . S
O12 Dy1 2.379 . S
O12 C31 1.249 . S
C13 O3 1.266 . S
C13 O4 1.236 . S
O14 Dy0 2.275 . S
O14 C2 1.254 . S
O15 Dy1 2.339 . S
O15 C2 1.257 . S
C16 C19 1.344 . S
C16 C20 1.328 . S
C16 C22 1.516 . S
C17 C18 1.304 . S
C17 C21 1.323 . S
C18 C17 1.304 . S
C18 C19 1.371 . S
C18 H32 0.930 . S
C19 C16 1.344 . S
C19 C18 1.371 . S
C19 H33 0.931 . S
C20 C16 1.328 . S
C20 C21 1.433 . S
C20 H34 0.931 . S
C21 C17 1.323 . S
C21 C20 1.433 . S
C21 H35 0.933 . S
C22 Dy0 2.738 . S
C22 O5 1.255 . S
C22 O6 1.249 . S
C22 C16 1.516 . S
C23 O7 1.254 . S
C23 O8 1.257 . S
C24 O9 1.266 . S
C24 O10 1.236 . S
C25 C28 1.344 . S
C25 C29 1.328 . S
C25 C31 1.516 . S
C26 C27 1.304 . S
C26 C30 1.323 . S
C27 C26 1.304 . S
C27 C28 1.371 . S
C27 H36 0.930 . S
C28 C25 1.344 . S
C28 C27 1.371 . S
C28 H37 0.931 . S
C29 C25 1.328 . S
C29 C30 1.433 . S
C29 H38 0.931 . S
C30 C26 1.323 . S
C30 C29 1.433 . S
C30 H39 0.933 . S
C31 Dy1 2.738 . S
C31 O11 1.255 . S
C31 O12 1.249 . S
C31 C25 1.516 . S
H32 C18 0.930 . S
H33 C19 0.931 . S
H34 C20 0.931 . S
H35 C21 0.933 . S
H36 C27 0.930 . S
H37 C28 0.931 . S
H38 C29 0.931 . S
H39 C30 0.933 . S
Dy40 O43 2.307 . S
Dy40 O45 2.395 . S
Dy40 O46 2.379 . S
Dy40 O48 2.339 . S
Dy40 O50 2.298 . S
Dy40 O54 2.275 . S
Dy40 C62 2.738 . S
Dy41 O44 2.298 1_655 S
Dy41 O47 2.275 . S
Dy41 O49 2.307 . S
Dy41 O51 2.395 . S
Dy41 O52 2.379 . S
Dy41 O55 2.339 1_655 S
Dy41 C71 2.738 . S
C42 O54 1.254 . S
C42 O55 1.257 . S
O43 Dy40 2.307 . S
O43 C53 1.266 . S
O44 Dy41 2.298 1_455 S
O44 C53 1.236 . S
O45 Dy40 2.395 . S
O45 C62 1.255 . S
O46 Dy40 2.379 . S
O46 C62 1.249 . S
O47 Dy41 2.275 . S
O47 C63 1.254 . S
O48 Dy40 2.339 . S
O48 C63 1.257 1_455 S
O49 Dy41 2.307 . S
O49 C64 1.266 1_655 S
O50 Dy40 2.298 . S
O50 C64 1.236 . S
O51 Dy41 2.395 . S
O51 C71 1.255 . S
O52 Dy41 2.379 . S
O52 C71 1.249 . S
C53 O43 1.266 . S
C53 O44 1.236 . S
O54 Dy40 2.275 . S
O54 C42 1.254 . S
O55 Dy41 2.339 1_455 S
O55 C42 1.257 . S
C56 C59 1.344 . S
C56 C60 1.328 . S
C56 C62 1.516 . S
C57 C58 1.304 . S
C57 C61 1.323 . S
C58 C57 1.304 . S
C58 C59 1.371 . S
C58 H72 0.930 . S
C59 C56 1.344 . S
C59 C58 1.371 . S
C59 H73 0.931 . S
C60 C56 1.328 . S
C60 C61 1.433 . S
C60 H74 0.931 . S
C61 C57 1.323 . S
C61 C60 1.433 . S
C61 H75 0.933 . S
C62 Dy40 2.738 . S
C62 O45 1.255 . S
C62 O46 1.249 . S
C62 C56 1.516 . S
C63 O47 1.254 . S
C63 O48 1.257 1_655 S
C64 O49 1.266 1_455 S
C64 O50 1.236 . S
C65 C68 1.344 . S
C65 C69 1.328 . S
C65 C71 1.516 . S
C66 C67 1.304 . S
C66 C70 1.323 . S
C67 C66 1.304 . S
C67 C68 1.371 . S
C67 H76 0.930 . S
C68 C65 1.344 . S
C68 C67 1.371 . S
C68 H77 0.931 . S
C69 C65 1.328 . S
C69 C70 1.433 . S
C69 H78 0.931 . S
C70 C66 1.323 . S
C70 C69 1.433 . S
C70 H79 0.933 . S
C71 Dy41 2.738 . S
C71 O51 1.255 . S
C71 O52 1.249 . S
C71 C65 1.516 . S
H72 C58 0.930 . S
H73 C59 0.931 . S
H74 C60 0.931 . S
H75 C61 0.933 . S
H76 C67 0.930 . S
H77 C68 0.931 . S
H78 C69 0.931 . S
H79 C70 0.933 . S
Dy80 O83 2.307 . S
Dy80 O85 2.395 . S
Dy80 O86 2.379 . S
Dy80 O88 2.339 . S
Dy80 O90 2.298 . S
Dy80 O94 2.275 . S
Dy80 C102 2.738 . S
Dy81 O84 2.298 . S
Dy81 O87 2.275 . S
Dy81 O89 2.307 . S
Dy81 O91 2.395 1_556 S
Dy81 O92 2.379 1_556 S
Dy81 O95 2.339 . S
Dy81 C111 2.738 1_556 S
C82 O94 1.254 . S
C82 O95 1.257 . S
O83 Dy80 2.307 . S
O83 C93 1.266 . S
O84 Dy81 2.298 . S
O84 C93 1.236 . S
O85 Dy80 2.395 . S
O85 C102 1.255 . S
O86 Dy80 2.379 . S
O86 C102 1.249 . S
O87 Dy81 2.275 . S
O87 C103 1.254 . S
O88 Dy80 2.339 . S
O88 C103 1.257 . S
O89 Dy81 2.307 . S
O89 C104 1.266 . S
O90 Dy80 2.298 . S
O90 C104 1.236 . S
O91 Dy81 2.395 1_554 S
O91 C111 1.255 . S
O92 Dy81 2.379 1_554 S
O92 C111 1.249 . S
C93 O83 1.266 . S
C93 O84 1.236 . S
O94 Dy80 2.275 . S
O94 C82 1.254 . S
O95 Dy81 2.339 . S
O95 C82 1.257 . S
C96 C99 1.344 . S
C96 C100 1.328 . S
C96 C102 1.516 . S
C97 C98 1.304 . S
C97 C101 1.323 . S
C98 C97 1.304 . S
C98 C99 1.371 . S
C98 H112 0.930 . S
C99 C96 1.344 . S
C99 C98 1.371 . S
C99 H113 0.931 . S
C100 C96 1.328 . S
C100 C101 1.433 . S
C100 H114 0.931 . S
C101 C97 1.323 . S
C101 C100 1.433 . S
C101 H115 0.933 . S
C102 Dy80 2.738 . S
C102 O85 1.255 . S
C102 O86 1.249 . S
C102 C96 1.516 . S
C103 O87 1.254 . S
C103 O88 1.257 . S
C104 O89 1.266 . S
C104 O90 1.236 . S
C105 C108 1.344 . S
C105 C109 1.328 . S
C105 C111 1.516 . S
C106 C107 1.304 . S
C106 C110 1.323 . S
C107 C106 1.304 . S
C107 C108 1.371 . S
C107 H116 0.930 . S
C108 C105 1.344 . S
C108 C107 1.371 . S
C108 H117 0.931 . S
C109 C105 1.328 . S
C109 C110 1.433 . S
C109 H118 0.931 . S
C110 C106 1.323 . S
C110 C109 1.433 . S
C110 H119 0.933 . S
C111 Dy81 2.738 1_554 S
C111 O91 1.255 . S
C111 O92 1.249 . S
C111 C105 1.516 . S
H112 C98 0.930 . S
H113 C99 0.931 . S
H114 C100 0.931 . S
H115 C101 0.933 . S
H116 C107 0.930 . S
H117 C108 0.931 . S
H118 C109 0.931 . S
H119 C110 0.933 . S
Dy120 O123 2.307 . S
Dy120 O125 2.395 . S
Dy120 O126 2.379 . S
Dy120 O128 2.339 . S
Dy120 O130 2.298 . S
Dy120 O134 2.275 . S
Dy120 C142 2.738 . S
Dy121 O124 2.298 . S
Dy121 O127 2.275 . S
Dy121 O129 2.307 . S
Dy121 O131 2.395 . S
Dy121 O132 2.379 . S
Dy121 O135 2.339 . S
Dy121 C151 2.738 . S
C122 O134 1.254 . S
C122 O135 1.257 . S
O123 Dy120 2.307 . S
O123 C133 1.266 . S
O124 Dy121 2.298 . S
O124 C133 1.236 . S
O125 Dy120 2.395 . S
O125 C142 1.255 . S
O126 Dy120 2.379 . S
O126 C142 1.249 . S
O127 Dy121 2.275 . S
O127 C143 1.254 . S
O128 Dy120 2.339 . S
O128 C143 1.257 . S
O129 Dy121 2.307 . S
O129 C144 1.266 . S
O130 Dy120 2.298 . S
O130 C144 1.236 . S
O131 Dy121 2.395 . S
O131 C151 1.255 . S
O132 Dy121 2.379 . S
O132 C151 1.249 . S
C133 O123 1.266 . S
C133 O124 1.236 . S
O134 Dy120 2.275 . S
O134 C122 1.254 . S
O135 Dy121 2.339 . S
O135 C122 1.257 . S
C136 C139 1.344 . S
C136 C140 1.328 . S
C136 C142 1.516 . S
C137 C138 1.304 . S
C137 C141 1.323 . S
C138 C137 1.304 . S
C138 C139 1.371 . S
C138 H152 0.930 . S
C139 C136 1.344 . S
C139 C138 1.371 . S
C139 H153 0.931 . S
C140 C136 1.328 . S
C140 C141 1.433 . S
C140 H154 0.931 . S
C141 C137 1.323 . S
C141 C140 1.433 . S
C141 H155 0.933 . S
C142 Dy120 2.738 . S
C142 O125 1.255 . S
C142 O126 1.249 . S
C142 C136 1.516 . S
C143 O127 1.254 . S
C143 O128 1.257 . S
C144 O129 1.266 . S
C144 O130 1.236 . S
C145 C148 1.344 . S
C145 C149 1.328 . S
C145 C151 1.516 . S
C146 C147 1.304 . S
C146 C150 1.323 . S
C147 C146 1.304 . S
C147 C148 1.371 . S
C147 H156 0.930 . S
C148 C145 1.344 . S
C148 C147 1.371 . S
C148 H157 0.931 . S
C149 C145 1.328 . S
C149 C150 1.433 . S
C149 H158 0.931 . S
C150 C146 1.323 . S
C150 C149 1.433 . S
C150 H159 0.933 . S
C151 Dy121 2.738 . S
C151 O131 1.255 . S
C151 O132 1.249 . S
C151 C145 1.516 . S
H152 C138 0.930 . S
H153 C139 0.931 . S
H154 C140 0.931 . S
H155 C141 0.933 . S
H156 C147 0.930 . S
H157 C148 0.931 . S
H158 C149 0.931 . S
H159 C150 0.933 . S
Dy160 O163 2.307 . S
Dy160 O165 2.395 . S
Dy160 O166 2.379 . S
Dy160 O168 2.339 . S
Dy160 O170 2.298 . S
Dy160 O174 2.275 . S
Dy160 C182 2.738 . S
Dy161 O164 2.298 . S
Dy161 O167 2.275 . S
Dy161 O169 2.307 . S
Dy161 O171 2.395 . S
Dy161 O172 2.379 . S
Dy161 O175 2.339 . S
Dy161 C191 2.738 . S
C162 O174 1.254 . S
C162 O175 1.257 . S
O163 Dy160 2.307 . S
O163 C173 1.266 . S
O164 Dy161 2.298 . S
O164 C173 1.236 . S
O165 Dy160 2.395 . S
O165 C182 1.255 . S
O166 Dy160 2.379 . S
O166 C182 1.249 . S
O167 Dy161 2.275 . S
O167 C183 1.254 . S
O168 Dy160 2.339 . S
O168 C183 1.257 . S
O169 Dy161 2.307 . S
O169 C184 1.266 . S
O170 Dy160 2.298 . S
O170 C184 1.236 . S
O171 Dy161 2.395 . S
O171 C191 1.255 . S
O172 Dy161 2.379 . S
O172 C191 1.249 . S
C173 O163 1.266 . S
C173 O164 1.236 . S
O174 Dy160 2.275 . S
O174 C162 1.254 . S
O175 Dy161 2.339 . S
O175 C162 1.257 . S
C176 C179 1.344 . S
C176 C180 1.328 . S
C176 C182 1.516 . S
C177 C178 1.304 . S
C177 C181 1.323 . S
C178 C177 1.304 . S
C178 C179 1.371 . S
C178 H192 0.930 . S
C179 C176 1.344 . S
C179 C178 1.371 . S
C179 H193 0.931 . S
C180 C176 1.328 . S
C180 C181 1.433 . S
C180 H194 0.931 . S
C181 C177 1.323 . S
C181 C180 1.433 . S
C181 H195 0.933 . S
C182 Dy160 2.738 . S
C182 O165 1.255 . S
C182 O166 1.249 . S
C182 C176 1.516 . S
C183 O167 1.254 . S
C183 O168 1.257 . S
C184 O169 1.266 . S
C184 O170 1.236 . S
C185 C188 1.344 . S
C185 C189 1.328 . S
C185 C191 1.516 . S
C186 C187 1.304 . S
C186 C190 1.323 . S
C187 C186 1.304 . S
C187 C188 1.371 . S
C187 H196 0.930 . S
C188 C185 1.344 . S
C188 C187 1.371 . S
C188 H197 0.931 . S
C189 C185 1.328 . S
C189 C190 1.433 . S
C189 H198 0.931 . S
C190 C186 1.323 . S
C190 C189 1.433 . S
C190 H199 0.933 . S
C191 Dy161 2.738 . S
C191 O171 1.255 . S
C191 O172 1.249 . S
C191 C185 1.516 . S
H192 C178 0.930 . S
H193 C179 0.931 . S
H194 C180 0.931 . S
H195 C181 0.933 . S
H196 C187 0.930 . S
H197 C188 0.931 . S
H198 C189 0.931 . S
H199 C190 0.933 . S
Dy200 O203 2.307 . S
Dy200 O205 2.395 . S
Dy200 O206 2.379 . S
Dy200 O208 2.339 . S
Dy200 O210 2.298 . S
Dy200 O214 2.275 . S
Dy200 C222 2.738 . S
Dy201 O204 2.298 1_455 S
Dy201 O207 2.275 . S
Dy201 O209 2.307 . S
Dy201 O211 2.395 . S
Dy201 O212 2.379 . S
Dy201 O215 2.339 1_455 S
Dy201 C231 2.738 . S
C202 O214 1.254 . S
C202 O215 1.257 . S
O203 Dy200 2.307 . S
O203 C213 1.266 . S
O204 Dy201 2.298 1_655 S
O204 C213 1.236 . S
O205 Dy200 2.395 . S
O205 C222 1.255 . S
O206 Dy200 2.379 . S
O206 C222 1.249 . S
O207 Dy201 2.275 . S
O207 C223 1.254 . S
O208 Dy200 2.339 . S
O208 C223 1.257 1_655 S
O209 Dy201 2.307 . S
O209 C224 1.266 1_455 S
O210 Dy200 2.298 . S
O210 C224 1.236 . S
O211 Dy201 2.395 . S
O211 C231 1.255 . S
O212 Dy201 2.379 . S
O212 C231 1.249 . S
C213 O203 1.266 . S
C213 O204 1.236 . S
O214 Dy200 2.275 . S
O214 C202 1.254 . S
O215 Dy201 2.339 1_655 S
O215 C202 1.257 . S
C216 C219 1.344 . S
C216 C220 1.328 . S
C216 C222 1.516 . S
C217 C218 1.304 . S
C217 C221 1.323 . S
C218 C217 1.304 . S
C218 C219 1.371 . S
C218 H232 0.930 . S
C219 C216 1.344 . S
C219 C218 1.371 . S
C219 H233 0.931 . S
C220 C216 1.328 . S
C220 C221 1.433 . S
C220 H234 0.931 . S
C221 C217 1.323 . S
C221 C220 1.433 . S
C221 H235 0.933 . S
C222 Dy200 2.738 . S
C222 O205 1.255 . S
C222 O206 1.249 . S
C222 C216 1.516 . S
C223 O207 1.254 . S
C223 O208 1.257 1_455 S
C224 O209 1.266 1_655 S
C224 O210 1.236 . S
C225 C228 1.344 . S
C225 C229 1.328 . S
C225 C231 1.516 . S
C226 C227 1.304 . S
C226 C230 1.323 . S
C227 C226 1.304 . S
C227 C228 1.371 . S
C227 H236 0.930 . S
C228 C225 1.344 . S
C228 C227 1.371 . S
C228 H237 0.931 . S
C229 C225 1.328 . S
C229 C230 1.433 . S
C229 H238 0.931 . S
C230 C226 1.323 . S
C230 C229 1.433 . S
C230 H239 0.933 . S
C231 Dy201 2.738 . S
C231 O211 1.255 . S
C231 O212 1.249 . S
C231 C225 1.516 . S
H232 C218 0.930 . S
H233 C219 0.931 . S
H234 C220 0.931 . S
H235 C221 0.933 . S
H236 C227 0.930 . S
H237 C228 0.931 . S
H238 C229 0.931 . S
H239 C230 0.933 . S
Dy240 O243 2.307 1_556 S
Dy240 O245 2.395 . S
Dy240 O246 2.379 . S
Dy240 O248 2.339 . S
Dy240 O250 2.298 . S
Dy240 O254 2.275 1_556 S
Dy240 C262 2.738 . S
Dy241 O244 2.298 . S
Dy241 O247 2.275 . S
Dy241 O249 2.307 1_554 S
Dy241 O251 2.395 . S
Dy241 O252 2.379 . S
Dy241 O255 2.339 . S
Dy241 C271 2.738 . S
C242 O254 1.254 . S
C242 O255 1.257 . S
O243 Dy240 2.307 1_554 S
O243 C253 1.266 . S
O244 Dy241 2.298 . S
O244 C253 1.236 . S
O245 Dy240 2.395 . S
O245 C262 1.255 . S
O246 Dy240 2.379 . S
O246 C262 1.249 . S
O247 Dy241 2.275 . S
O247 C263 1.254 1_554 S
O248 Dy240 2.339 . S
O248 C263 1.257 . S
O249 Dy241 2.307 1_556 S
O249 C264 1.266 . S
O250 Dy240 2.298 . S
O250 C264 1.236 . S
O251 Dy241 2.395 . S
O251 C271 1.255 . S
O252 Dy241 2.379 . S
O252 C271 1.249 . S
C253 O243 1.266 . S
C253 O244 1.236 . S
O254 Dy240 2.275 1_554 S
O254 C242 1.254 . S
O255 Dy241 2.339 . S
O255 C242 1.257 . S
C256 C259 1.344 . S
C256 C260 1.328 . S
C256 C262 1.516 . S
C257 C258 1.304 . S
C257 C261 1.323 . S
C258 C257 1.304 . S
C258 C259 1.371 . S
C258 H272 0.930 . S
C259 C256 1.344 . S
C259 C258 1.371 . S
C259 H273 0.931 . S
C260 C256 1.328 . S
C260 C261 1.433 . S
C260 H274 0.931 . S
C261 C257 1.323 . S
C261 C260 1.433 . S
C261 H275 0.933 . S
C262 Dy240 2.738 . S
C262 O245 1.255 . S
C262 O246 1.249 . S
C262 C256 1.516 . S
C263 O247 1.254 1_556 S
C263 O248 1.257 . S
C264 O249 1.266 . S
C264 O250 1.236 . S
C265 C268 1.344 . S
C265 C269 1.328 . S
C265 C271 1.516 . S
C266 C267 1.304 . S
C266 C270 1.323 . S
C267 C266 1.304 . S
C267 C268 1.371 . S
C267 H276 0.930 . S
C268 C265 1.344 . S
C268 C267 1.371 . S
C268 H277 0.931 . S
C269 C265 1.328 . S
C269 C270 1.433 . S
C269 H278 0.931 . S
C270 C266 1.323 . S
C270 C269 1.433 . S
C270 H279 0.933 . S
C271 Dy241 2.738 . S
C271 O251 1.255 . S
C271 O252 1.249 . S
C271 C265 1.516 . S
H272 C258 0.930 . S
H273 C259 0.931 . S
H274 C260 0.931 . S
H275 C261 0.933 . S
H276 C267 0.930 . S
H277 C268 0.931 . S
H278 C269 0.931 . S
H279 C270 0.933 . S
Dy280 O283 2.307 . S
Dy280 O285 2.395 . S
Dy280 O286 2.379 . S
Dy280 O288 2.339 . S
Dy280 O290 2.298 . S
Dy280 O294 2.275 . S
Dy280 C302 2.738 . S
Dy281 O284 2.298 . S
Dy281 O287 2.275 . S
Dy281 O289 2.307 . S
Dy281 O291 2.395 . S
Dy281 O292 2.379 . S
Dy281 O295 2.339 . S
Dy281 C311 2.738 . S
C282 O294 1.254 . S
C282 O295 1.257 . S
O283 Dy280 2.307 . S
O283 C293 1.266 . S
O284 Dy281 2.298 . S
O284 C293 1.236 . S
O285 Dy280 2.395 . S
O285 C302 1.255 . S
O286 Dy280 2.379 . S
O286 C302 1.249 . S
O287 Dy281 2.275 . S
O287 C303 1.254 . S
O288 Dy280 2.339 . S
O288 C303 1.257 . S
O289 Dy281 2.307 . S
O289 C304 1.266 . S
O290 Dy280 2.298 . S
O290 C304 1.236 . S
O291 Dy281 2.395 . S
O291 C311 1.255 . S
O292 Dy281 2.379 . S
O292 C311 1.249 . S
C293 O283 1.266 . S
C293 O284 1.236 . S
O294 Dy280 2.275 . S
O294 C282 1.254 . S
O295 Dy281 2.339 . S
O295 C282 1.257 . S
C296 C299 1.344 . S
C296 C300 1.328 . S
C296 C302 1.516 . S
C297 C298 1.304 . S
C297 C301 1.323 . S
C298 C297 1.304 . S
C298 C299 1.371 . S
C298 H312 0.930 . S
C299 C296 1.344 . S
C299 C298 1.371 . S
C299 H313 0.931 . S
C300 C296 1.328 . S
C300 C301 1.433 . S
C300 H314 0.931 . S
C301 C297 1.323 . S
C301 C300 1.433 . S
C301 H315 0.933 . S
C302 Dy280 2.738 . S
C302 O285 1.255 . S
C302 O286 1.249 . S
C302 C296 1.516 . S
C303 O287 1.254 . S
C303 O288 1.257 . S
C304 O289 1.266 . S
C304 O290 1.236 . S
C305 C308 1.344 . S
C305 C309 1.328 . S
C305 C311 1.516 . S
C306 C307 1.304 . S
C306 C310 1.323 . S
C307 C306 1.304 . S
C307 C308 1.371 . S
C307 H316 0.930 . S
C308 C305 1.344 . S
C308 C307 1.371 . S
C308 H317 0.931 . S
C309 C305 1.328 . S
C309 C310 1.433 . S
C309 H318 0.931 . S
C310 C306 1.323 . S
C310 C309 1.433 . S
C310 H319 0.933 . S
C311 Dy281 2.738 . S
C311 O291 1.255 . S
C311 O292 1.249 . S
C311 C305 1.516 . S
H312 C298 0.930 . S
H313 C299 0.931 . S
H314 C300 0.931 . S
H315 C301 0.933 . S
H316 C307 0.930 . S
H317 C308 0.931 . S
H318 C309 0.931 . S
H319 C310 0.933 . S
Dy320 O323 2.307 . S
Dy320 O325 2.395 . S
Dy320 O326 2.379 . S
Dy320 O328 2.339 . S
Dy320 O330 2.298 . S
Dy320 O334 2.275 . S
Dy320 C342 2.738 . S
Dy321 O324 2.298 . S
Dy321 O327 2.275 . S
Dy321 O329 2.307 . S
Dy321 O331 2.395 . S
Dy321 O332 2.379 . S
Dy321 O335 2.339 . S
Dy321 C351 2.738 . S
C322 O334 1.254 . S
C322 O335 1.257 . S
O323 Dy320 2.307 . S
O323 C333 1.266 . S
O324 Dy321 2.298 . S
O324 C333 1.236 . S
O325 Dy320 2.395 . S
O325 C342 1.255 . S
O326 Dy320 2.379 . S
O326 C342 1.249 . S
O327 Dy321 2.275 . S
O327 C343 1.254 . S
O328 Dy320 2.339 . S
O328 C343 1.257 . S
O329 Dy321 2.307 . S
O329 C344 1.266 . S
O330 Dy320 2.298 . S
O330 C344 1.236 . S
O331 Dy321 2.395 . S
O331 C351 1.255 . S
O332 Dy321 2.379 . S
O332 C351 1.249 . S
C333 O323 1.266 . S
C333 O324 1.236 . S
O334 Dy320 2.275 . S
O334 C322 1.254 . S
O335 Dy321 2.339 . S
O335 C322 1.257 . S
C336 C339 1.344 . S
C336 C340 1.328 . S
C336 C342 1.516 . S
C337 C338 1.304 . S
C337 C341 1.323 . S
C338 C337 1.304 . S
C338 C339 1.371 . S
C338 H352 0.930 . S
C339 C336 1.344 . S
C339 C338 1.371 . S
C339 H353 0.931 . S
C340 C336 1.328 . S
C340 C341 1.433 . S
C340 H354 0.931 . S
C341 C337 1.323 . S
C341 C340 1.433 . S
C341 H355 0.933 . S
C342 Dy320 2.738 . S
C342 O325 1.255 . S
C342 O326 1.249 . S
C342 C336 1.516 . S
C343 O327 1.254 . S
C343 O328 1.257 . S
C344 O329 1.266 . S
C344 O330 1.236 . S
C345 C348 1.344 . S
C345 C349 1.328 . S
C345 C351 1.516 . S
C346 C347 1.304 . S
C346 C350 1.323 . S
C347 C346 1.304 . S
C347 C348 1.371 . S
C347 H356 0.930 . S
C348 C345 1.344 . S
C348 C347 1.371 . S
C348 H357 0.931 . S
C349 C345 1.328 . S
C349 C350 1.433 . S
C349 H358 0.931 . S
C350 C346 1.323 . S
C350 C349 1.433 . S
C350 H359 0.933 . S
C351 Dy321 2.738 . S
C351 O331 1.255 . S
C351 O332 1.249 . S
C351 C345 1.516 . S
H352 C338 0.930 . S
H353 C339 0.931 . S
H354 C340 0.931 . S
H355 C341 0.933 . S
H356 C347 0.930 . S
H357 C348 0.931 . S
H358 C349 0.931 . S
H359 C350 0.933 . S
Dy360 O363 2.307 1_565 S
Dy360 O365 2.395 . S
Dy360 O366 2.379 . S
Dy360 O368 2.339 . S
Dy360 O370 2.298 . S
Dy360 O374 2.275 1_565 S
Dy360 C382 2.738 . S
Dy361 O364 2.298 . S
Dy361 O367 2.275 . S
Dy361 O369 2.307 . S
Dy361 O371 2.395 . S
Dy361 O372 2.379 . S
Dy361 O375 2.339 . S
Dy361 C391 2.738 . S
C362 O374 1.254 . S
C362 O375 1.257 . S
O363 Dy360 2.307 1_545 S
O363 C373 1.266 . S
O364 Dy361 2.298 . S
O364 C373 1.236 . S
O365 Dy360 2.395 . S
O365 C382 1.255 . S
O366 Dy360 2.379 . S
O366 C382 1.249 . S
O367 Dy361 2.275 . S
O367 C383 1.254 1_545 S
O368 Dy360 2.339 . S
O368 C383 1.257 . S
O369 Dy361 2.307 . S
O369 C384 1.266 1_545 S
O370 Dy360 2.298 . S
O370 C384 1.236 . S
O371 Dy361 2.395 . S
O371 C391 1.255 . S
O372 Dy361 2.379 . S
O372 C391 1.249 . S
C373 O363 1.266 . S
C373 O364 1.236 . S
O374 Dy360 2.275 1_545 S
O374 C362 1.254 . S
O375 Dy361 2.339 . S
O375 C362 1.257 . S
C376 C379 1.344 . S
C376 C380 1.328 . S
C376 C382 1.516 . S
C377 C378 1.304 . S
C377 C381 1.323 . S
C378 C377 1.304 . S
C378 C379 1.371 . S
C378 H392 0.930 . S
C379 C376 1.344 . S
C379 C378 1.371 . S
C379 H393 0.931 . S
C380 C376 1.328 . S
C380 C381 1.433 . S
C380 H394 0.931 . S
C381 C377 1.323 . S
C381 C380 1.433 . S
C381 H395 0.933 . S
C382 Dy360 2.738 . S
C382 O365 1.255 . S
C382 O366 1.249 . S
C382 C376 1.516 . S
C383 O367 1.254 1_565 S
C383 O368 1.257 . S
C384 O369 1.266 1_565 S
C384 O370 1.236 . S
C385 C388 1.344 . S
C385 C389 1.328 . S
C385 C391 1.516 . S
C386 C387 1.304 . S
C386 C390 1.323 . S
C387 C386 1.304 . S
C387 C388 1.371 . S
C387 H396 0.930 . S
C388 C385 1.344 . S
C388 C387 1.371 . S
C388 H397 0.931 . S
C389 C385 1.328 . S
C389 C390 1.433 . S
C389 H398 0.931 . S
C390 C386 1.323 . S
C390 C389 1.433 . S
C390 H399 0.933 . S
C391 Dy361 2.738 . S
C391 O371 1.255 . S
C391 O372 1.249 . S
C391 C385 1.516 . S
H392 C378 0.930 . S
H393 C379 0.931 . S
H394 C380 0.931 . S
H395 C381 0.933 . S
H396 C387 0.930 . S
H397 C388 0.931 . S
H398 C389 0.931 . S
H399 C390 0.933 . S
Dy400 O403 2.307 . S
Dy400 O405 2.395 . S
Dy400 O406 2.379 . S
Dy400 O408 2.339 . S
Dy400 O410 2.298 . S
Dy400 O414 2.275 . S
Dy400 C422 2.738 . S
Dy401 O404 2.298 1_545 S
Dy401 O407 2.275 . S
Dy401 O409 2.307 . S
Dy401 O411 2.395 . S
Dy401 O412 2.379 . S
Dy401 O415 2.339 1_545 S
Dy401 C431 2.738 . S
C402 O414 1.254 . S
C402 O415 1.257 . S
O403 Dy400 2.307 . S
O403 C413 1.266 . S
O404 Dy401 2.298 1_565 S
O404 C413 1.236 . S
O405 Dy400 2.395 . S
O405 C422 1.255 . S
O406 Dy400 2.379 . S
O406 C422 1.249 . S
O407 Dy401 2.275 . S
O407 C423 1.254 . S
O408 Dy400 2.339 . S
O408 C423 1.257 1_565 S
O409 Dy401 2.307 . S
O409 C424 1.266 1_545 S
O410 Dy400 2.298 . S
O410 C424 1.236 . S
O411 Dy401 2.395 . S
O411 C431 1.255 . S
O412 Dy401 2.379 . S
O412 C431 1.249 . S
C413 O403 1.266 . S
C413 O404 1.236 . S
O414 Dy400 2.275 . S
O414 C402 1.254 . S
O415 Dy401 2.339 1_565 S
O415 C402 1.257 . S
C416 C419 1.344 . S
C416 C420 1.328 . S
C416 C422 1.516 . S
C417 C418 1.304 . S
C417 C421 1.323 . S
C418 C417 1.304 . S
C418 C419 1.371 . S
C418 H432 0.930 . S
C419 C416 1.344 . S
C419 C418 1.371 . S
C419 H433 0.931 . S
C420 C416 1.328 . S
C420 C421 1.433 . S
C420 H434 0.931 . S
C421 C417 1.323 . S
C421 C420 1.433 . S
C421 H435 0.933 . S
C422 Dy400 2.738 . S
C422 O405 1.255 . S
C422 O406 1.249 . S
C422 C416 1.516 . S
C423 O407 1.254 . S
C423 O408 1.257 1_545 S
C424 O409 1.266 1_565 S
C424 O410 1.236 . S
C425 C428 1.344 . S
C425 C429 1.328 . S
C425 C431 1.516 . S
C426 C427 1.304 . S
C426 C430 1.323 . S
C427 C426 1.304 . S
C427 C428 1.371 . S
C427 H436 0.930 . S
C428 C425 1.344 . S
C428 C427 1.371 . S
C428 H437 0.931 . S
C429 C425 1.328 . S
C429 C430 1.433 . S
C429 H438 0.931 . S
C430 C426 1.323 . S
C430 C429 1.433 . S
C430 H439 0.933 . S
C431 Dy401 2.738 . S
C431 O411 1.255 . S
C431 O412 1.249 . S
C431 C425 1.516 . S
H432 C418 0.930 . S
H433 C419 0.931 . S
H434 C420 0.931 . S
H435 C421 0.933 . S
H436 C427 0.930 . S
H437 C428 0.931 . S
H438 C429 0.931 . S
H439 C430 0.933 . S
Dy440 O443 2.307 . S
Dy440 O445 2.395 . S
Dy440 O446 2.379 . S
Dy440 O448 2.339 . S
Dy440 O450 2.298 . S
Dy440 O454 2.275 . S
Dy440 C462 2.738 . S
Dy441 O444 2.298 . S
Dy441 O447 2.275 . S
Dy441 O449 2.307 . S
Dy441 O451 2.395 . S
Dy441 O452 2.379 . S
Dy441 O455 2.339 . S
Dy441 C471 2.738 . S
C442 O454 1.254 . S
C442 O455 1.257 . S
O443 Dy440 2.307 . S
O443 C453 1.266 . S
O444 Dy441 2.298 . S
O444 C453 1.236 . S
O445 Dy440 2.395 . S
O445 C462 1.255 . S
O446 Dy440 2.379 . S
O446 C462 1.249 . S
O447 Dy441 2.275 . S
O447 C463 1.254 . S
O448 Dy440 2.339 . S
O448 C463 1.257 . S
O449 Dy441 2.307 . S
O449 C464 1.266 . S
O450 Dy440 2.298 . S
O450 C464 1.236 . S
O451 Dy441 2.395 . S
O451 C471 1.255 . S
O452 Dy441 2.379 . S
O452 C471 1.249 . S
C453 O443 1.266 . S
C453 O444 1.236 . S
O454 Dy440 2.275 . S
O454 C442 1.254 . S
O455 Dy441 2.339 . S
O455 C442 1.257 . S
C456 C459 1.344 . S
C456 C460 1.328 . S
C456 C462 1.516 . S
C457 C458 1.304 . S
C457 C461 1.323 . S
C458 C457 1.304 . S
C458 C459 1.371 . S
C458 H472 0.930 . S
C459 C456 1.344 . S
C459 C458 1.371 . S
C459 H473 0.931 . S
C460 C456 1.328 . S
C460 C461 1.433 . S
C460 H474 0.931 . S
C461 C457 1.323 . S
C461 C460 1.433 . S
C461 H475 0.933 . S
C462 Dy440 2.738 . S
C462 O445 1.255 . S
C462 O446 1.249 . S
C462 C456 1.516 . S
C463 O447 1.254 . S
C463 O448 1.257 . S
C464 O449 1.266 . S
C464 O450 1.236 . S
C465 C468 1.344 . S
C465 C469 1.328 . S
C465 C471 1.516 . S
C466 C467 1.304 . S
C466 C470 1.323 . S
C467 C466 1.304 . S
C467 C468 1.371 . S
C467 H476 0.930 . S
C468 C465 1.344 . S
C468 C467 1.371 . S
C468 H477 0.931 . S
C469 C465 1.328 . S
C469 C470 1.433 . S
C469 H478 0.931 . S
C470 C466 1.323 . S
C470 C469 1.433 . S
C470 H479 0.933 . S
C471 Dy441 2.738 . S
C471 O451 1.255 . S
C471 O452 1.249 . S
C471 C465 1.516 . S
H472 C458 0.930 . S
H473 C459 0.931 . S
H474 C460 0.931 . S
H475 C461 0.933 . S
H476 C467 0.930 . S
H477 C468 0.931 . S
H478 C469 0.931 . S
H479 C470 0.933 . S
C480 C481 1.391 . S
C480 C482 1.394 . S
C480 H496 0.931 . S
C481 C480 1.391 . S
C481 C485 1.376 . S
C482 C480 1.394 . S
C482 C483 1.369 . S
C482 C486 1.531 . S
C483 C482 1.369 . S
C483 C484 1.410 . S
C483 C491 1.503 . S
C484 C483 1.410 . S
C484 C485 1.392 . S
C484 C487 1.511 . S
C485 C481 1.376 . S
C485 C484 1.392 . S
C485 H497 0.929 . S
C486 C482 1.531 . S
C486 H498 0.960 . S
C486 H499 0.962 . S
C486 H500 0.960 . S
C487 C484 1.511 . S
C487 H501 0.961 . S
C487 H502 0.961 . S
C487 H503 0.961 . S
C488 C489 1.370 . S
C488 C490 1.363 . S
C488 H504 0.931 . S
C489 C488 1.370 . S
C489 C493 1.408 . S
C490 C488 1.363 . S
C490 C491 1.370 . S
C490 C494 1.524 . S
C491 C483 1.503 . S
C491 C490 1.370 . S
C491 C492 1.403 . S
C492 C491 1.403 . S
C492 C493 1.404 . S
C492 C495 1.539 . S
C493 C489 1.408 . S
C493 C492 1.404 . S
C493 H505 0.930 . S
C494 C490 1.524 . S
C494 H506 0.956 . S
C494 H507 0.961 . S
C494 H508 0.961 . S
C495 C492 1.539 . S
C495 H509 0.958 . S
C495 H510 0.961 . S
C495 H511 0.960 . S
H496 C480 0.931 . S
H497 C485 0.929 . S
H498 C486 0.960 . S
H499 C486 0.962 . S
H500 C486 0.960 . S
H501 C487 0.961 . S
H502 C487 0.961 . S
H503 C487 0.961 . S
H504 C488 0.931 . S
H505 C493 0.930 . S
H506 C494 0.956 . S
H507 C494 0.961 . S
H508 C494 0.961 . S
H509 C495 0.958 . S
H510 C495 0.961 . S
H511 C495 0.960 . S
C512 C513 1.391 . S
C512 C514 1.394 . S
C512 H528 0.931 . S
C513 C512 1.391 . S
C513 C517 1.376 . S
C514 C512 1.394 . S
C514 C515 1.369 . S
C514 C518 1.531 . S
C515 C514 1.369 . S
C515 C516 1.410 . S
C515 C523 1.503 . S
C516 C515 1.410 . S
C516 C517 1.392 . S
C516 C519 1.511 . S
C517 C513 1.376 . S
C517 C516 1.392 . S
C517 H529 0.929 . S
C518 C514 1.531 . S
C518 H530 0.960 . S
C518 H531 0.962 . S
C518 H532 0.960 . S
C519 C516 1.511 . S
C519 H533 0.961 . S
C519 H534 0.961 . S
C519 H535 0.961 . S
C520 C521 1.370 . S
C520 C522 1.363 . S
C520 H536 0.931 . S
C521 C520 1.370 . S
C521 C525 1.408 . S
C522 C520 1.363 . S
C522 C523 1.370 . S
C522 C526 1.524 . S
C523 C515 1.503 . S
C523 C522 1.370 . S
C523 C524 1.403 . S
C524 C523 1.403 . S
C524 C525 1.404 . S
C524 C527 1.539 . S
C525 C521 1.408 . S
C525 C524 1.404 . S
C525 H537 0.930 . S
C526 C522 1.524 . S
C526 H538 0.956 . S
C526 H539 0.961 1_565 S
C526 H540 0.961 1_565 S
C527 C524 1.539 . S
C527 H541 0.958 . S
C527 H542 0.961 . S
C527 H543 0.960 . S
H528 C512 0.931 . S
H529 C517 0.929 . S
H530 C518 0.960 . S
H531 C518 0.962 . S
H532 C518 0.960 . S
H533 C519 0.961 . S
H534 C519 0.961 . S
H535 C519 0.961 . S
H536 C520 0.931 . S
H537 C525 0.930 . S
H538 C526 0.956 . S
H539 C526 0.961 1_545 S
H540 C526 0.961 1_545 S
H541 C527 0.958 . S
H542 C527 0.961 . S
H543 C527 0.960 . S
C544 C545 1.391 1_554 S
C544 C546 1.394 . S
C544 H560 0.931 . S
C545 C544 1.391 1_556 S
C545 C549 1.376 . S
C546 C544 1.394 . S
C546 C547 1.369 . S
C546 C550 1.531 . S
C547 C546 1.369 . S
C547 C548 1.410 1_554 S
C547 C555 1.503 . S
C548 C547 1.410 1_556 S
C548 C549 1.392 . S
C548 C551 1.511 . S
C549 C545 1.376 . S
C549 C548 1.392 . S
C549 H561 0.929 . S
C550 C546 1.531 . S
C550 H562 0.960 . S
C550 H563 0.962 . S
C550 H564 0.960 . S
C551 C548 1.511 . S
C551 H565 0.961 . S
C551 H566 0.961 . S
C551 H567 0.961 . S
C552 C553 1.370 . S
C552 C554 1.363 . S
C552 H568 0.931 . S
C553 C552 1.370 . S
C553 C557 1.408 . S
C554 C552 1.363 . S
C554 C555 1.370 . S
C554 C558 1.524 1_554 S
C555 C547 1.503 . S
C555 C554 1.370 . S
C555 C556 1.403 . S
C556 C555 1.403 . S
C556 C557 1.404 . S
C556 C559 1.539 . S
C557 C553 1.408 . S
C557 C556 1.404 . S
C557 H569 0.930 . S
C558 C554 1.524 1_556 S
C558 H570 0.957 1_556 S
C558 H571 0.961 . S
C558 H572 0.961 . S
C559 C556 1.539 . S
C559 H573 0.958 . S
C559 H574 0.961 . S
C559 H575 0.960 . S
H560 C544 0.931 . S
H561 C549 0.929 . S
H562 C550 0.960 . S
H563 C550 0.962 . S
H564 C550 0.960 . S
H565 C551 0.961 . S
H566 C551 0.961 . S
H567 C551 0.961 . S
H568 C552 0.931 . S
H569 C557 0.930 . S
H570 C558 0.957 1_554 S
H571 C558 0.961 . S
H572 C558 0.961 . S
H573 C559 0.958 . S
H574 C559 0.961 . S
H575 C559 0.960 . S
C576 C577 1.391 . S
C576 C578 1.394 . S
C576 H592 0.931 . S
C577 C576 1.391 . S
C577 C581 1.376 . S
C578 C576 1.394 . S
C578 C579 1.369 . S
C578 C582 1.531 1_545 S
C579 C578 1.369 . S
C579 C580 1.410 . S
C579 C587 1.503 . S
C580 C579 1.410 . S
C580 C581 1.392 . S
C580 C583 1.511 . S
C581 C577 1.376 . S
C581 C580 1.392 . S
C581 H593 0.929 . S
C582 C578 1.531 1_565 S
C582 H594 0.960 . S
C582 H595 0.962 1_565 S
C582 H596 0.960 . S
C583 C580 1.511 . S
C583 H597 0.961 . S
C583 H598 0.961 . S
C583 H599 0.961 . S
C584 C585 1.370 . S
C584 C586 1.363 . S
C584 H600 0.931 . S
C585 C584 1.370 . S
C585 C589 1.408 1_545 S
C586 C584 1.363 . S
C586 C587 1.370 . S
C586 C590 1.524 . S
C587 C579 1.503 . S
C587 C586 1.370 . S
C587 C588 1.403 . S
C588 C587 1.403 . S
C588 C589 1.404 1_545 S
C588 C591 1.539 1_545 S
C589 C585 1.408 1_565 S
C589 C588 1.404 1_565 S
C589 H601 0.930 . S
C590 C586 1.524 . S
C590 H602 0.956 . S
C590 H603 0.961 . S
C590 H604 0.961 . S
C591 C588 1.539 1_565 S
C591 H605 0.958 . S
C591 H606 0.961 . S
C591 H607 0.960 1_565 S
H592 C576 0.931 . S
H593 C581 0.929 . S
H594 C582 0.960 . S
H595 C582 0.962 1_545 S
H596 C582 0.960 . S
H597 C583 0.961 . S
H598 C583 0.961 . S
H599 C583 0.961 . S
H600 C584 0.931 . S
H601 C589 0.930 . S
H602 C590 0.956 . S
H603 C590 0.961 . S
H604 C590 0.961 . S
H605 C591 0.958 . S
H606 C591 0.961 . S
H607 C591 0.960 1_545 S
C608 C609 1.391 . S
C608 C610 1.394 . S
C608 H624 0.931 . S
C609 C608 1.391 . S
C609 C613 1.376 . S
C610 C608 1.394 . S
C610 C611 1.369 . S
C610 C614 1.531 . S
C611 C610 1.369 . S
C611 C612 1.410 . S
C611 C619 1.503 . S
C612 C611 1.410 . S
C612 C613 1.392 . S
C612 C615 1.511 . S
C613 C609 1.376 . S
C613 C612 1.392 . S
C613 H625 0.929 . S
C614 C610 1.531 . S
C614 H626 0.960 . S
C614 H627 0.962 . S
C614 H628 0.960 . S
C615 C612 1.511 . S
C615 H629 0.961 . S
C615 H630 0.961 . S
C615 H631 0.961 . S
C616 C617 1.370 . S
C616 C618 1.363 . S
C616 H632 0.931 . S
C617 C616 1.370 . S
C617 C621 1.408 . S
C618 C616 1.363 . S
C618 C619 1.370 . S
C618 C622 1.524 . S
C619 C611 1.503 . S
C619 C618 1.370 . S
C619 C620 1.403 . S
C620 C619 1.403 . S
C620 C621 1.404 . S
C620 C623 1.539 . S
C621 C617 1.408 . S
C621 C620 1.404 . S
C621 H633 0.930 . S
C622 C618 1.524 . S
C622 H634 0.956 . S
C622 H635 0.961 . S
C622 H636 0.961 . S
C623 C620 1.539 . S
C623 H637 0.958 . S
C623 H638 0.961 . S
C623 H639 0.960 . S
H624 C608 0.931 . S
H625 C613 0.929 . S
H626 C614 0.960 . S
H627 C614 0.962 . S
H628 C614 0.960 . S
H629 C615 0.961 . S
H630 C615 0.961 . S
H631 C615 0.961 . S
H632 C616 0.931 . S
H633 C621 0.930 . S
H634 C622 0.956 . S
H635 C622 0.961 . S
H636 C622 0.961 . S
H637 C623 0.958 . S
H638 C623 0.961 . S
H639 C623 0.960 . S
C640 C641 1.391 . S
C640 C642 1.394 . S
C640 H656 0.931 . S
C641 C640 1.391 . S
C641 C645 1.376 . S
C642 C640 1.394 . S
C642 C643 1.369 . S
C642 C646 1.531 . S
C643 C642 1.369 . S
C643 C644 1.410 . S
C643 C651 1.503 . S
C644 C643 1.410 . S
C644 C645 1.392 . S
C644 C647 1.511 . S
C645 C641 1.376 . S
C645 C644 1.392 . S
C645 H657 0.929 . S
C646 C642 1.531 . S
C646 H658 0.960 . S
C646 H659 0.962 . S
C646 H660 0.960 . S
C647 C644 1.511 . S
C647 H661 0.961 . S
C647 H662 0.961 . S
C647 H663 0.961 . S
C648 C649 1.370 . S
C648 C650 1.363 . S
C648 H664 0.931 . S
C649 C648 1.370 . S
C649 C653 1.408 . S
C650 C648 1.363 . S
C650 C651 1.370 . S
C650 C654 1.524 . S
C651 C643 1.503 . S
C651 C650 1.370 . S
C651 C652 1.403 . S
C652 C651 1.403 . S
C652 C653 1.404 . S
C652 C655 1.539 . S
C653 C649 1.408 . S
C653 C652 1.404 . S
C653 H665 0.930 . S
C654 C650 1.524 . S
C654 H666 0.956 . S
C654 H667 0.961 . S
C654 H668 0.961 . S
C655 C652 1.539 . S
C655 H669 0.958 . S
C655 H670 0.961 . S
C655 H671 0.960 . S
H656 C640 0.931 . S
H657 C645 0.929 . S
H658 C646 0.960 . S
H659 C646 0.962 . S
H660 C646 0.960 . S
H661 C647 0.961 . S
H662 C647 0.961 . S
H663 C647 0.961 . S
H664 C648 0.931 . S
H665 C653 0.930 . S
H666 C654 0.956 . S
H667 C654 0.961 . S
H668 C654 0.961 . S
H669 C655 0.958 . S
H670 C655 0.961 . S
H671 C655 0.960 . S
C672 C673 1.391 . S
C672 C674 1.394 . S
C672 H688 0.931 . S
C673 C672 1.391 . S
C673 C677 1.376 . S
C674 C672 1.394 . S
C674 C675 1.369 . S
C674 C678 1.531 . S
C675 C674 1.369 . S
C675 C676 1.410 . S
C675 C683 1.503 . S
C676 C675 1.410 . S
C676 C677 1.392 . S
C676 C679 1.511 . S
C677 C673 1.376 . S
C677 C676 1.392 . S
C677 H689 0.929 . S
C678 C674 1.531 . S
C678 H690 0.960 . S
C678 H691 0.962 . S
C678 H692 0.960 . S
C679 C676 1.511 . S
C679 H693 0.961 . S
C679 H694 0.961 . S
C679 H695 0.961 . S
C680 C681 1.370 . S
C680 C682 1.363 . S
C680 H696 0.931 1_556 S
C681 C680 1.370 . S
C681 C685 1.408 . S
C682 C680 1.363 . S
C682 C683 1.370 . S
C682 C686 1.524 1_556 S
C683 C675 1.503 . S
C683 C682 1.370 . S
C683 C684 1.403 . S
C684 C683 1.403 . S
C684 C685 1.404 . S
C684 C687 1.539 . S
C685 C681 1.408 . S
C685 C684 1.404 . S
C685 H697 0.930 . S
C686 C682 1.524 1_554 S
C686 H698 0.956 . S
C686 H699 0.961 1_554 S
C686 H700 0.961 . S
C687 C684 1.539 . S
C687 H701 0.958 . S
C687 H702 0.961 . S
C687 H703 0.960 . S
H688 C672 0.931 . S
H689 C677 0.929 . S
H690 C678 0.960 . S
H691 C678 0.962 . S
H692 C678 0.960 . S
H693 C679 0.961 . S
H694 C679 0.961 . S
H695 C679 0.961 . S
H696 C680 0.931 1_554 S
H697 C685 0.930 . S
H698 C686 0.956 . S
H699 C686 0.961 1_556 S
H700 C686 0.961 . S
H701 C687 0.958 . S
H702 C687 0.961 . S
H703 C687 0.960 . S
C704 C705 1.391 . S
C704 C706 1.394 . S
C704 H720 0.931 . S
C705 C704 1.391 . S
C705 C709 1.376 . S
C706 C704 1.394 . S
C706 C707 1.369 . S
C706 C710 1.531 . S
C707 C706 1.369 . S
C707 C708 1.410 . S
C707 C715 1.503 . S
C708 C707 1.410 . S
C708 C709 1.392 . S
C708 C711 1.511 . S
C709 C705 1.376 . S
C709 C708 1.392 . S
C709 H721 0.929 . S
C710 C706 1.531 . S
C710 H722 0.960 . S
C710 H723 0.962 . S
C710 H724 0.960 . S
C711 C708 1.511 . S
C711 H725 0.961 . S
C711 H726 0.961 . S
C711 H727 0.961 . S
C712 C713 1.370 . S
C712 C714 1.363 . S
C712 H728 0.931 . S
C713 C712 1.370 . S
C713 C717 1.408 . S
C714 C712 1.363 . S
C714 C715 1.370 . S
C714 C718 1.524 . S
C715 C707 1.503 . S
C715 C714 1.370 . S
C715 C716 1.403 . S
C716 C715 1.403 . S
C716 C717 1.404 . S
C716 C719 1.539 . S
C717 C713 1.408 . S
C717 C716 1.404 . S
C717 H729 0.930 . S
C718 C714 1.524 . S
C718 H730 0.956 . S
C718 H731 0.961 . S
C718 H732 0.961 . S
C719 C716 1.539 . S
C719 H733 0.958 . S
C719 H734 0.961 . S
C719 H735 0.960 . S
H720 C704 0.931 . S
H721 C709 0.929 . S
H722 C710 0.960 . S
H723 C710 0.962 . S
H724 C710 0.960 . S
H725 C711 0.961 . S
H726 C711 0.961 . S
H727 C711 0.961 . S
H728 C712 0.931 . S
H729 C717 0.930 . S
H730 C718 0.956 . S
H731 C718 0.961 . S
H732 C718 0.961 . S
H733 C719 0.958 . S
H734 C719 0.961 . S
H735 C719 0.960 . S
C736 C737 1.391 . S
C736 C738 1.394 . S
C736 H752 0.931 . S
C737 C736 1.391 . S
C737 C741 1.376 . S
C738 C736 1.394 . S
C738 C739 1.369 . S
C738 C742 1.531 . S
C739 C738 1.369 . S
C739 C740 1.410 . S
C739 C747 1.503 . S
C740 C739 1.410 . S
C740 C741 1.392 . S
C740 C743 1.511 . S
C741 C737 1.376 . S
C741 C740 1.392 . S
C741 H753 0.929 . S
C742 C738 1.531 . S
C742 H754 0.960 . S
C742 H755 0.962 . S
C742 H756 0.960 . S
C743 C740 1.511 . S
C743 H757 0.961 . S
C743 H758 0.961 . S
C743 H759 0.961 . S
C744 C745 1.370 . S
C744 C746 1.363 . S
C744 H760 0.931 . S
C745 C744 1.370 . S
C745 C749 1.408 . S
C746 C744 1.363 . S
C746 C747 1.370 . S
C746 C750 1.524 . S
C747 C739 1.503 . S
C747 C746 1.370 . S
C747 C748 1.403 . S
C748 C747 1.403 . S
C748 C749 1.404 . S
C748 C751 1.539 . S
C749 C745 1.408 . S
C749 C748 1.404 . S
C749 H761 0.930 . S
C750 C746 1.524 . S
C750 H762 0.956 . S
C750 H763 0.961 . S
C750 H764 0.961 . S
C751 C748 1.539 . S
C751 H765 0.958 . S
C751 H766 0.961 . S
C751 H767 0.960 . S
H752 C736 0.931 . S
H753 C741 0.929 . S
H754 C742 0.960 . S
H755 C742 0.962 . S
H756 C742 0.960 . S
H757 C743 0.961 . S
H758 C743 0.961 . S
H759 C743 0.961 . S
H760 C744 0.931 . S
H761 C749 0.930 . S
H762 C750 0.956 . S
H763 C750 0.961 . S
H764 C750 0.961 . S
H765 C751 0.958 . S
H766 C751 0.961 . S
H767 C751 0.960 . S
C768 C769 1.391 . S
C768 C770 1.394 . S
C768 H784 0.931 . S
C769 C768 1.391 . S
C769 C773 1.376 . S
C770 C768 1.394 . S
C770 C771 1.369 . S
C770 C774 1.531 . S
C771 C770 1.369 . S
C771 C772 1.410 . S
C771 C779 1.503 . S
C772 C771 1.410 . S
C772 C773 1.392 . S
C772 C775 1.511 1_455 S
C773 C769 1.376 . S
C773 C772 1.392 . S
C773 H785 0.929 . S
C774 C770 1.531 . S
C774 H786 0.960 . S
C774 H787 0.962 . S
C774 H788 0.960 . S
C775 C772 1.511 1_655 S
C775 H789 0.961 . S
C775 H790 0.961 . S
C775 H791 0.961 . S
C776 C777 1.370 . S
C776 C778 1.363 . S
C776 H792 0.931 . S
C777 C776 1.370 . S
C777 C781 1.402 1_455 S
C778 C776 1.363 . S
C778 C779 1.370 . S
C778 C782 1.524 . S
C779 C771 1.503 . S
C779 C778 1.370 . S
C779 C780 1.403 . S
C780 C779 1.403 . S
C780 C781 1.394 1_455 S
C780 C783 1.540 1_455 S
C781 C777 1.402 1_655 S
C781 C780 1.394 1_655 S
C781 H793 0.947 . S
C782 C778 1.524 . S
C782 H794 0.956 . S
C782 H795 0.961 . S
C782 H796 0.961 . S
C783 C780 1.540 1_655 S
C783 H797 0.960 1_655 S
C783 H798 0.958 . S
C783 H799 0.959 . S
H784 C768 0.931 . S
H785 C773 0.929 . S
H786 C774 0.960 . S
H787 C774 0.962 . S
H788 C774 0.960 . S
H789 C775 0.961 . S
H790 C775 0.961 . S
H791 C775 0.961 . S
H792 C776 0.931 . S
H793 C781 0.947 . S
H794 C782 0.956 . S
H795 C782 0.961 . S
H796 C782 0.961 . S
H797 C783 0.960 1_455 S
H798 C783 0.958 . S
H799 C783 0.959 . S
C800 C801 1.391 . S
C800 C802 1.394 . S
C800 H816 0.931 1_655 S
C801 C800 1.391 . S
C801 C805 1.376 . S
C802 C800 1.394 . S
C802 C803 1.369 . S
C802 C806 1.531 . S
C803 C802 1.369 . S
C803 C804 1.410 . S
C803 C811 1.503 . S
C804 C803 1.410 . S
C804 C805 1.392 . S
C804 C807 1.511 . S
C805 C801 1.376 . S
C805 C804 1.392 . S
C805 H817 0.929 . S
C806 C802 1.531 . S
C806 H818 0.960 . S
C806 H819 0.962 1_655 S
C806 H820 0.960 . S
C807 C804 1.511 . S
C807 H821 0.961 . S
C807 H822 0.961 . S
C807 H823 0.961 . S
C808 C809 1.370 . S
C808 C810 1.363 . S
C808 H824 0.931 . S
C809 C808 1.370 . S
C809 C813 1.408 . S
C810 C808 1.363 . S
C810 C811 1.370 . S
C810 C814 1.524 1_655 S
C811 C803 1.503 . S
C811 C810 1.370 . S
C811 C812 1.403 . S
C812 C811 1.403 . S
C812 C813 1.404 . S
C812 C815 1.539 . S
C813 C809 1.408 . S
C813 C812 1.404 . S
C813 H825 0.930 . S
C814 C810 1.524 1_455 S
C814 H826 0.956 . S
C814 H827 0.961 . S
C814 H828 0.961 . S
C815 C812 1.539 . S
C815 H829 0.958 . S
C815 H830 0.961 . S
C815 H831 0.960 . S
H816 C800 0.931 1_455 S
H817 C805 0.929 . S
H818 C806 0.960 . S
H819 C806 0.962 1_455 S
H820 C806 0.960 . S
H821 C807 0.961 . S
H822 C807 0.961 . S
H823 C807 0.961 . S
H824 C808 0.931 . S
H825 C813 0.930 . S
H826 C814 0.956 . S
H827 C814 0.961 . S
H828 C814 0.961 . S
H829 C815 0.958 . S
H830 C815 0.961 . S
H831 C815 0.960 . S
C832 C833 1.391 . S
C832 C834 1.394 . S
C832 H848 0.931 . S
C833 C832 1.391 . S
C833 C837 1.376 . S
C834 C832 1.394 . S
C834 C835 1.369 . S
C834 C838 1.531 . S
C835 C834 1.369 . S
C835 C836 1.410 . S
C835 C843 1.503 . S
C836 C835 1.410 . S
C836 C837 1.392 . S
C836 C839 1.511 . S
C837 C833 1.376 . S
C837 C836 1.392 . S
C837 H849 0.929 . S
C838 C834 1.531 . S
C838 H850 0.960 . S
C838 H851 0.962 . S
C838 H852 0.960 . S
C839 C836 1.511 . S
C839 H853 0.961 . S
C839 H854 0.961 . S
C839 H855 0.961 . S
C840 C841 1.370 . S
C840 C842 1.363 . S
C840 H856 0.931 . S
C841 C840 1.370 . S
C841 C845 1.408 . S
C842 C840 1.363 . S
C842 C843 1.370 . S
C842 C846 1.524 . S
C843 C835 1.503 . S
C843 C842 1.370 . S
C843 C844 1.403 . S
C844 C843 1.403 . S
C844 C845 1.404 . S
C844 C847 1.539 . S
C845 C841 1.408 . S
C845 C844 1.404 . S
C845 H857 0.930 . S
C846 C842 1.524 . S
C846 H858 0.956 . S
C846 H859 0.961 . S
C846 H860 0.961 . S
C847 C844 1.539 . S
C847 H861 0.958 . S
C847 H862 0.961 . S
C847 H863 0.960 . S
H848 C832 0.931 . S
H849 C837 0.929 . S
H850 C838 0.960 . S
H851 C838 0.962 . S
H852 C838 0.960 . S
H853 C839 0.961 . S
H854 C839 0.961 . S
H855 C839 0.961 . S
H856 C840 0.931 . S
H857 C845 0.930 . S
H858 C846 0.956 . S
H859 C846 0.961 . S
H860 C846 0.961 . S
H861 C847 0.958 . S
H862 C847 0.961 . S
H863 C847 0.960 . S
C864 C865 1.391 . S
C864 C866 1.394 . S
C864 H880 0.931 . S
C865 C864 1.391 . S
C865 C869 1.376 . S
C866 C864 1.394 . S
C866 C867 1.369 . S
C866 C870 1.531 . S
C867 C866 1.369 . S
C867 C868 1.410 . S
C867 C875 1.503 . S
C868 C867 1.410 . S
C868 C869 1.392 . S
C868 C871 1.511 . S
C869 C865 1.376 . S
C869 C868 1.392 . S
C869 H881 0.929 . S
C870 C866 1.531 . S
C870 H882 0.960 . S
C870 H883 0.962 . S
C870 H884 0.960 . S
C871 C868 1.511 . S
C871 H885 0.961 . S
C871 H886 0.961 . S
C871 H887 0.961 . S
C872 C873 1.370 . S
C872 C874 1.363 . S
C872 H888 0.931 . S
C873 C872 1.370 . S
C873 C877 1.408 . S
C874 C872 1.363 . S
C874 C875 1.370 . S
C874 C878 1.524 . S
C875 C867 1.503 . S
C875 C874 1.370 . S
C875 C876 1.403 . S
C876 C875 1.403 . S
C876 C877 1.404 . S
C876 C879 1.539 . S
C877 C873 1.408 . S
C877 C876 1.404 . S
C877 H889 0.930 . S
C878 C874 1.524 . S
C878 H890 0.956 . S
C878 H891 0.961 . S
C878 H892 0.961 . S
C879 C876 1.539 . S
C879 H893 0.958 . S
C879 H894 0.961 . S
C879 H895 0.960 . S
H880 C864 0.931 . S
H881 C869 0.929 . S
H882 C870 0.960 . S
H883 C870 0.962 . S
H884 C870 0.960 . S
H885 C871 0.961 . S
H886 C871 0.961 . S
H887 C871 0.961 . S
H888 C872 0.931 . S
H889 C877 0.930 . S
H890 C878 0.956 . S
H891 C878 0.961 . S
H892 C878 0.961 . S
H893 C879 0.958 . S
H894 C879 0.961 . S
H895 C879 0.960 . S
C896 C897 1.391 . S
C896 C898 1.394 . S
C896 H912 0.931 . S
C897 C896 1.391 . S
C897 C901 1.376 . S
C898 C896 1.394 . S
C898 C899 1.369 . S
C898 C902 1.531 . S
C899 C898 1.369 . S
C899 C900 1.410 . S
C899 C907 1.503 . S
C900 C899 1.410 . S
C900 C901 1.392 . S
C900 C903 1.511 . S
C901 C897 1.376 . S
C901 C900 1.392 . S
C901 H913 0.929 . S
C902 C898 1.531 . S
C902 H914 0.960 . S
C902 H915 0.962 . S
C902 H916 0.960 . S
C903 C900 1.511 . S
C903 H917 0.961 . S
C903 H918 0.961 . S
C903 H919 0.961 . S
C904 C905 1.370 . S
C904 C906 1.363 . S
C904 H920 0.931 . S
C905 C904 1.370 . S
C905 C909 1.408 . S
C906 C904 1.363 . S
C906 C907 1.370 . S
C906 C910 1.524 . S
C907 C899 1.503 . S
C907 C906 1.370 . S
C907 C908 1.403 . S
C908 C907 1.403 . S
C908 C909 1.404 . S
C908 C911 1.539 . S
C909 C905 1.408 . S
C909 C908 1.404 . S
C909 H921 0.930 . S
C910 C906 1.524 . S
C910 H922 0.956 . S
C910 H923 0.961 . S
C910 H924 0.961 . S
C911 C908 1.539 . S
C911 H925 0.958 1_565 S
C911 H926 0.961 1_565 S
C911 H927 0.960 . S
H912 C896 0.931 . S
H913 C901 0.929 . S
H914 C902 0.960 . S
H915 C902 0.962 . S
H916 C902 0.960 . S
H917 C903 0.961 . S
H918 C903 0.961 . S
H919 C903 0.961 . S
H920 C904 0.931 . S
H921 C909 0.930 . S
H922 C910 0.956 . S
H923 C910 0.961 . S
H924 C910 0.961 . S
H925 C911 0.958 1_545 S
H926 C911 0.961 1_545 S
H927 C911 0.960 . S
C928 C929 1.391 . S
C928 C930 1.394 . S
C928 H944 0.931 . S
C929 C928 1.391 . S
C929 C933 1.376 . S
C930 C928 1.394 . S
C930 C931 1.369 . S
C930 C934 1.531 . S
C931 C930 1.369 . S
C931 C932 1.410 . S
C931 C939 1.503 . S
C932 C931 1.410 . S
C932 C933 1.392 . S
C932 C935 1.511 . S
C933 C929 1.376 . S
C933 C932 1.392 . S
C933 H945 0.929 . S
C934 C930 1.531 . S
C934 H946 0.960 . S
C934 H947 0.962 . S
C934 H948 0.960 . S
C935 C932 1.511 . S
C935 H949 0.961 . S
C935 H950 0.961 . S
C935 H951 0.961 . S
C936 C937 1.370 . S
C936 C938 1.363 . S
C936 H952 0.931 . S
C937 C936 1.370 . S
C937 C941 1.408 . S
C938 C936 1.363 . S
C938 C939 1.370 . S
C938 C942 1.524 . S
C939 C931 1.503 . S
C939 C938 1.370 . S
C939 C940 1.403 . S
C940 C939 1.403 . S
C940 C941 1.404 . S
C940 C943 1.539 . S
C941 C937 1.408 . S
C941 C940 1.404 . S
C941 H953 0.930 . S
C942 C938 1.524 . S
C942 H954 0.956 . S
C942 H955 0.961 . S
C942 H956 0.961 . S
C943 C940 1.539 . S
C943 H957 0.958 . S
C943 H958 0.961 . S
C943 H959 0.960 . S
H944 C928 0.931 . S
H945 C933 0.929 . S
H946 C934 0.960 . S
H947 C934 0.962 . S
H948 C934 0.960 . S
H949 C935 0.961 . S
H950 C935 0.961 . S
H951 C935 0.961 . S
H952 C936 0.931 . S
H953 C941 0.930 . S
H954 C942 0.956 . S
H955 C942 0.961 . S
H956 C942 0.961 . S
H957 C943 0.958 . S
H958 C943 0.961 . S
H959 C943 0.960 . S
C960 C961 1.391 . S
C960 C962 1.394 . S
C960 H976 0.931 . S
C961 C960 1.391 . S
C961 C965 1.376 . S
C962 C960 1.394 . S
C962 C963 1.360 1_554 S
C962 C966 1.531 . S
C963 C962 1.360 1_556 S
C963 C964 1.409 1_556 S
C963 C971 1.512 . S
C964 C963 1.409 1_554 S
C964 C965 1.392 . S
C964 C967 1.511 1_554 S
C965 C961 1.376 . S
C965 C964 1.392 . S
C965 H977 0.929 . S
C966 C962 1.531 . S
C966 H978 0.929 1_554 S
C966 H979 0.962 . S
C966 H980 0.960 . S
C967 C964 1.511 1_556 S
C967 H981 0.961 . S
C967 H982 0.961 . S
C967 H983 0.961 . S
C968 C969 1.370 . S
C968 C970 1.363 . S
C968 H984 0.931 . S
C969 C968 1.370 . S
C969 C973 1.408 . S
C970 C968 1.363 . S
C970 C971 1.370 . S
C970 C974 1.524 . S
C971 C963 1.512 . S
C971 C970 1.370 . S
C971 C972 1.403 . S
C972 C971 1.403 . S
C972 C973 1.404 . S
C972 C975 1.539 . S
C973 C969 1.408 . S
C973 C972 1.404 . S
C973 H985 0.930 . S
C974 C970 1.524 . S
C974 H986 0.956 1_556 S
C974 H987 0.961 1_556 S
C974 H988 0.961 . S
C975 C972 1.539 . S
C975 H989 0.958 . S
C975 H990 0.961 . S
C975 H991 0.960 . S
H976 C960 0.931 . S
H977 C965 0.929 . S
H978 C966 0.929 1_556 S
H979 C966 0.962 . S
H980 C966 0.960 . S
H981 C967 0.961 . S
H982 C967 0.961 . S
H983 C967 0.961 . S
H984 C968 0.931 . S
H985 C973 0.930 . S
H986 C974 0.956 1_554 S
H987 C974 0.961 1_554 S
H988 C974 0.961 . S
H989 C975 0.958 . S
H990 C975 0.961 . S
H991 C975 0.960 . S
C992 C993 1.391 . S
C992 C994 1.394 . S
C992 H1008 0.931 . S
C993 C992 1.391 . S
C993 C997 1.376 . S
C994 C992 1.394 . S
C994 C995 1.369 . S
C994 C998 1.531 . S
C995 C994 1.369 . S
C995 C996 1.410 . S
C995 C1003 1.503 . S
C996 C995 1.410 . S
C996 C997 1.392 . S
C996 C999 1.511 . S
C997 C993 1.376 . S
C997 C996 1.392 . S
C997 H1009 0.929 . S
C998 C994 1.531 . S
C998 H1010 0.960 . S
C998 H1011 0.962 . S
C998 H1012 0.960 . S
C999 C996 1.511 . S
C999 H1013 0.961 . S
C999 H1014 0.961 . S
C999 H1015 0.961 . S
C1000 C1001 1.370 . S
C1000 C1002 1.363 . S
C1000 H1016 0.931 . S
C1001 C1000 1.370 . S
C1001 C1005 1.408 . S
C1002 C1000 1.363 . S
C1002 C1003 1.370 . S
C1002 C1006 1.524 . S
C1003 C995 1.503 . S
C1003 C1002 1.370 . S
C1003 C1004 1.403 . S
C1004 C1003 1.403 . S
C1004 C1005 1.404 . S
C1004 C1007 1.539 . S
C1005 C1001 1.408 . S
C1005 C1004 1.404 . S
C1005 H1017 0.930 . S
C1006 C1002 1.524 . S
C1006 H1018 0.956 . S
C1006 H1019 0.961 . S
C1006 H1020 0.961 . S
C1007 C1004 1.539 . S
C1007 H1021 0.958 . S
C1007 H1022 0.961 . S
C1007 H1023 0.960 . S
H1008 C992 0.931 . S
H1009 C997 0.929 . S
H1010 C998 0.960 . S
H1011 C998 0.962 . S
H1012 C998 0.960 . S
H1013 C999 0.961 . S
H1014 C999 0.961 . S
H1015 C999 0.961 . S
H1016 C1000 0.931 . S
H1017 C1005 0.930 . S
H1018 C1006 0.956 . S
H1019 C1006 0.961 . S
H1020 C1006 0.961 . S
H1021 C1007 0.958 . S
H1022 C1007 0.961 . S
H1023 C1007 0.960 . S
C1024 C1025 1.391 . S
C1024 C1026 1.394 1_554 S
C1024 H1040 0.931 . S
C1025 C1024 1.391 . S
C1025 C1029 1.376 . S
C1026 C1024 1.394 1_556 S
C1026 C1027 1.369 . S
C1026 C1030 1.531 . S
C1027 C1026 1.369 . S
C1027 C1028 1.410 1_556 S
C1027 C1035 1.503 . S
C1028 C1027 1.410 1_554 S
C1028 C1029 1.392 . S
C1028 C1031 1.511 . S
C1029 C1025 1.376 . S
C1029 C1028 1.392 . S
C1029 H1041 0.929 . S
C1030 C1026 1.531 . S
C1030 H1042 0.960 . S
C1030 H1043 0.962 . S
C1030 H1044 0.960 . S
C1031 C1028 1.511 . S
C1031 H1045 0.961 . S
C1031 H1046 0.961 1_554 S
C1031 H1047 0.961 . S
C1032 C1033 1.370 . S
C1032 C1034 1.363 . S
C1032 H1048 0.931 . S
C1033 C1032 1.370 . S
C1033 C1037 1.408 . S
C1034 C1032 1.363 . S
C1034 C1035 1.370 . S
C1034 C1038 1.524 . S
C1035 C1027 1.503 . S
C1035 C1034 1.370 . S
C1035 C1036 1.403 . S
C1036 C1035 1.403 . S
C1036 C1037 1.404 . S
C1036 C1039 1.539 . S
C1037 C1033 1.408 . S
C1037 C1036 1.404 . S
C1037 H1049 0.930 . S
C1038 C1034 1.524 . S
C1038 H1050 0.956 . S
C1038 H1051 0.961 . S
C1038 H1052 0.961 . S
C1039 C1036 1.539 . S
C1039 H1053 0.958 . S
C1039 H1054 0.961 . S
C1039 H1055 0.960 . S
H1040 C1024 0.931 . S
H1041 C1029 0.929 . S
H1042 C1030 0.960 . S
H1043 C1030 0.962 . S
H1044 C1030 0.960 . S
H1045 C1031 0.961 . S
H1046 C1031 0.961 1_556 S
H1047 C1031 0.961 . S
H1048 C1032 0.931 . S
H1049 C1037 0.930 . S
H1050 C1038 0.956 . S
H1051 C1038 0.961 . S
H1052 C1038 0.961 . S
H1053 C1039 0.958 . S
H1054 C1039 0.961 . S
H1055 C1039 0.960 . S
C1056 C1057 1.391 . S
C1056 C1058 1.394 . S
C1056 H1072 0.931 . S
C1057 C1056 1.391 . S
C1057 C1061 1.376 . S
C1058 C1056 1.394 . S
C1058 C1059 1.369 . S
C1058 C1062 1.531 . S
C1059 C1058 1.369 . S
C1059 C1060 1.410 . S
C1059 C1067 1.503 . S
C1060 C1059 1.410 . S
C1060 C1061 1.392 . S
C1060 C1063 1.511 . S
C1061 C1057 1.376 . S
C1061 C1060 1.392 . S
C1061 H1073 0.929 . S
C1062 C1058 1.531 . S
C1062 H1074 0.960 . S
C1062 H1075 0.962 . S
C1062 H1076 0.960 . S
C1063 C1060 1.511 . S
C1063 H1077 0.961 . S
C1063 H1078 0.961 . S
C1063 H1079 0.961 . S
C1064 C1065 1.370 . S
C1064 C1066 1.363 . S
C1064 H1080 0.931 . S
C1065 C1064 1.370 . S
C1065 C1069 1.408 . S
C1066 C1064 1.363 . S
C1066 C1067 1.370 . S
C1066 C1070 1.524 . S
C1067 C1059 1.503 . S
C1067 C1066 1.370 . S
C1067 C1068 1.403 . S
C1068 C1067 1.403 . S
C1068 C1069 1.404 . S
C1068 C1071 1.539 . S
C1069 C1065 1.408 . S
C1069 C1068 1.404 . S
C1069 H1081 0.930 . S
C1070 C1066 1.524 . S
C1070 H1082 0.956 . S
C1070 H1083 0.961 . S
C1070 H1084 0.961 . S
C1071 C1068 1.539 . S
C1071 H1085 0.958 . S
C1071 H1086 0.961 . S
C1071 H1087 0.960 . S
H1072 C1056 0.931 . S
H1073 C1061 0.929 . S
H1074 C1062 0.960 . S
H1075 C1062 0.962 . S
H1076 C1062 0.960 . S
H1077 C1063 0.961 . S
H1078 C1063 0.961 . S
H1079 C1063 0.961 . S
H1080 C1064 0.931 . S
H1081 C1069 0.930 . S
H1082 C1070 0.956 . S
H1083 C1070 0.961 . S
H1084 C1070 0.961 . S
H1085 C1071 0.958 . S
H1086 C1071 0.961 . S
H1087 C1071 0.960 . S
C1088 C1089 1.391 . S
C1088 C1090 1.394 . S
C1088 H1104 0.931 . S
C1089 C1088 1.391 . S
C1089 C1093 1.376 . S
C1090 C1088 1.394 . S
C1090 C1091 1.369 . S
C1090 C1094 1.531 . S
C1091 C1090 1.369 . S
C1091 C1092 1.410 . S
C1091 C1099 1.503 . S
C1092 C1091 1.410 . S
C1092 C1093 1.392 . S
C1092 C1095 1.511 . S
C1093 C1089 1.376 . S
C1093 C1092 1.392 . S
C1093 H1105 0.929 . S
C1094 C1090 1.531 . S
C1094 H1106 0.960 . S
C1094 H1107 0.962 . S
C1094 H1108 0.960 . S
C1095 C1092 1.511 . S
C1095 H1109 0.961 . S
C1095 H1110 0.961 . S
C1095 H1111 0.961 . S
C1096 C1097 1.370 . S
C1096 C1098 1.363 . S
C1096 H1112 0.931 . S
C1097 C1096 1.370 . S
C1097 C1101 1.408 . S
C1098 C1096 1.363 . S
C1098 C1099 1.370 . S
C1098 C1102 1.524 . S
C1099 C1091 1.503 . S
C1099 C1098 1.370 . S
C1099 C1100 1.403 . S
C1100 C1099 1.403 . S
C1100 C1101 1.404 . S
C1100 C1103 1.539 . S
C1101 C1097 1.408 . S
C1101 C1100 1.404 . S
C1101 H1113 0.930 . S
C1102 C1098 1.524 . S
C1102 H1114 0.956 . S
C1102 H1115 0.961 . S
C1102 H1116 0.961 . S
C1103 C1100 1.539 . S
C1103 H1117 0.958 . S
C1103 H1118 0.961 . S
C1103 H1119 0.960 . S
H1104 C1088 0.931 . S
H1105 C1093 0.929 . S
H1106 C1094 0.960 . S
H1107 C1094 0.962 . S
H1108 C1094 0.960 . S
H1109 C1095 0.961 . S
H1110 C1095 0.961 . S
H1111 C1095 0.961 . S
H1112 C1096 0.931 . S
H1113 C1101 0.930 . S
H1114 C1102 0.956 . S
H1115 C1102 0.961 . S
H1116 C1102 0.961 . S
H1117 C1103 0.958 . S
H1118 C1103 0.961 . S
H1119 C1103 0.960 . S
C1120 C1121 1.391 . S
C1120 C1122 1.394 . S
C1120 H1136 0.931 . S
C1121 C1120 1.391 . S
C1121 C1125 1.376 . S
C1122 C1120 1.394 . S
C1122 C1123 1.369 . S
C1122 C1126 1.531 . S
C1123 C1122 1.369 . S
C1123 C1124 1.410 . S
C1123 C1131 1.503 . S
C1124 C1123 1.410 . S
C1124 C1125 1.392 . S
C1124 C1127 1.511 . S
C1125 C1121 1.376 . S
C1125 C1124 1.392 . S
C1125 H1137 0.929 . S
C1126 C1122 1.531 . S
C1126 H1138 0.960 . S
C1126 H1139 0.962 . S
C1126 H1140 0.960 . S
C1127 C1124 1.511 . S
C1127 H1141 0.961 . S
C1127 H1142 0.961 . S
C1127 H1143 0.961 . S
C1128 C1129 1.370 . S
C1128 C1130 1.363 . S
C1128 H1144 0.931 . S
C1129 C1128 1.370 . S
C1129 C1133 1.408 . S
C1130 C1128 1.363 . S
C1130 C1131 1.370 . S
C1130 C1134 1.524 . S
C1131 C1123 1.503 . S
C1131 C1130 1.370 . S
C1131 C1132 1.403 . S
C1132 C1131 1.403 . S
C1132 C1133 1.404 . S
C1132 C1135 1.539 . S
C1133 C1129 1.408 . S
C1133 C1132 1.404 . S
C1133 H1145 0.930 . S
C1134 C1130 1.524 . S
C1134 H1146 0.956 . S
C1134 H1147 0.961 . S
C1134 H1148 0.961 . S
C1135 C1132 1.539 . S
C1135 H1149 0.958 . S
C1135 H1150 0.961 . S
C1135 H1151 0.960 . S
H1136 C1120 0.931 . S
H1137 C1125 0.929 . S
H1138 C1126 0.960 . S
H1139 C1126 0.962 . S
H1140 C1126 0.960 . S
H1141 C1127 0.961 . S
H1142 C1127 0.961 . S
H1143 C1127 0.961 . S
H1144 C1128 0.931 . S
H1145 C1133 0.930 . S
H1146 C1134 0.956 . S
H1147 C1134 0.961 . S
H1148 C1134 0.961 . S
H1149 C1135 0.958 . S
H1150 C1135 0.961 . S
H1151 C1135 0.960 . S
C1152 C1153 1.391 . S
C1152 C1154 1.394 . S
C1152 H1168 0.931 . S
C1153 C1152 1.391 . S
C1153 C1157 1.376 . S
C1154 C1152 1.394 . S
C1154 C1155 1.369 . S
C1154 C1158 1.531 . S
C1155 C1154 1.369 . S
C1155 C1156 1.410 . S
C1155 C1163 1.503 1_545 S
C1156 C1155 1.410 . S
C1156 C1157 1.392 . S
C1156 C1159 1.511 . S
C1157 C1153 1.376 . S
C1157 C1156 1.392 . S
C1157 H1169 0.929 . S
C1158 C1154 1.531 . S
C1158 H1170 0.960 . S
C1158 H1171 0.962 1_545 S
C1158 H1172 0.960 . S
C1159 C1156 1.511 . S
C1159 H1173 0.950 1_455 S
C1159 H1174 0.961 . S
C1159 H1175 0.964 . S
C1160 C1161 1.370 . S
C1160 C1162 1.363 . S
C1160 H1176 0.931 . S
C1161 C1160 1.370 . S
C1161 C1165 1.408 . S
C1162 C1160 1.363 . S
C1162 C1163 1.370 . S
C1162 C1166 1.524 . S
C1163 C1155 1.503 1_565 S
C1163 C1162 1.370 . S
C1163 C1164 1.403 . S
C1164 C1163 1.403 . S
C1164 C1165 1.404 . S
C1164 C1167 1.539 1_565 S
C1165 C1161 1.408 . S
C1165 C1164 1.404 . S
C1165 H1177 0.930 . S
C1166 C1162 1.524 . S
C1166 H1178 0.956 . S
C1166 H1179 0.961 . S
C1166 H1180 0.961 . S
C1167 C1164 1.539 1_545 S
C1167 H1181 0.958 . S
C1167 H1182 0.961 . S
C1167 H1183 0.960 . S
H1168 C1152 0.931 . S
H1169 C1157 0.929 . S
H1170 C1158 0.960 . S
H1171 C1158 0.962 1_565 S
H1172 C1158 0.960 . S
H1173 C1159 0.950 1_655 S
H1174 C1159 0.961 . S
H1175 C1159 0.964 . S
H1176 C1160 0.931 . S
H1177 C1165 0.930 . S
H1178 C1166 0.956 . S
H1179 C1166 0.961 . S
H1180 C1166 0.961 . S
H1181 C1167 0.958 . S
H1182 C1167 0.961 . S
H1183 C1167 0.960 . S
C1184 C1185 1.391 . S
C1184 C1186 1.394 . S
C1184 H1200 0.931 . S
C1185 C1184 1.391 . S
C1185 C1189 1.376 . S
C1186 C1184 1.394 . S
C1186 C1187 1.369 . S
C1186 C1190 1.531 . S
C1187 C1186 1.369 . S
C1187 C1188 1.410 . S
C1187 C1195 1.503 . S
C1188 C1187 1.410 . S
C1188 C1189 1.392 . S
C1188 C1191 1.511 . S
C1189 C1185 1.376 . S
C1189 C1188 1.392 . S
C1189 H1201 0.929 . S
C1190 C1186 1.531 . S
C1190 H1202 0.960 . S
C1190 H1203 0.962 . S
C1190 H1204 0.960 . S
C1191 C1188 1.511 . S
C1191 H1205 0.961 . S
C1191 H1206 0.961 . S
C1191 H1207 0.961 . S
C1192 C1193 1.370 . S
C1192 C1194 1.363 . S
C1192 H1208 0.931 . S
C1193 C1192 1.370 . S
C1193 C1197 1.408 . S
C1194 C1192 1.363 . S
C1194 C1195 1.370 . S
C1194 C1198 1.524 . S
C1195 C1187 1.503 . S
C1195 C1194 1.370 . S
C1195 C1196 1.403 . S
C1196 C1195 1.403 . S
C1196 C1197 1.404 . S
C1196 C1199 1.539 . S
C1197 C1193 1.408 . S
C1197 C1196 1.404 . S
C1197 H1209 0.930 . S
C1198 C1194 1.524 . S
C1198 H1210 0.956 . S
C1198 H1211 0.961 . S
C1198 H1212 0.961 . S
C1199 C1196 1.539 . S
C1199 H1213 0.958 . S
C1199 H1214 0.961 . S
C1199 H1215 0.960 . S
H1200 C1184 0.931 . S
H1201 C1189 0.929 . S
H1202 C1190 0.960 . S
H1203 C1190 0.962 . S
H1204 C1190 0.960 . S
H1205 C1191 0.961 . S
H1206 C1191 0.961 . S
H1207 C1191 0.961 . S
H1208 C1192 0.931 . S
H1209 C1197 0.930 . S
H1210 C1198 0.956 . S
H1211 C1198 0.961 . S
H1212 C1198 0.961 . S
H1213 C1199 0.958 . S
H1214 C1199 0.961 . S
H1215 C1199 0.960 . S
C1216 C1217 1.391 . S
C1216 C1218 1.394 . S
C1216 H1232 0.931 . S
C1217 C1216 1.391 . S
C1217 C1221 1.376 . S
C1218 C1216 1.394 . S
C1218 C1219 1.369 . S
C1218 C1222 1.531 . S
C1219 C1218 1.369 . S
C1219 C1220 1.410 . S
C1219 C1227 1.503 1_545 S
C1220 C1219 1.410 . S
C1220 C1221 1.392 . S
C1220 C1223 1.511 1_545 S
C1221 C1217 1.376 . S
C1221 C1220 1.392 . S
C1221 H1233 0.929 . S
C1222 C1218 1.531 . S
C1222 H1234 0.960 1_545 S
C1222 H1235 0.962 1_545 S
C1222 H1236 0.960 . S
C1223 C1220 1.511 1_565 S
C1223 H1237 0.954 1_565 S
C1223 H1238 0.961 . S
C1223 H1239 0.961 1_565 S
C1224 C1225 1.370 . S
C1224 C1226 1.363 . S
C1224 H1240 0.931 . S
C1225 C1224 1.370 . S
C1225 C1229 1.408 . S
C1226 C1224 1.363 . S
C1226 C1227 1.370 . S
C1226 C1230 1.524 . S
C1227 C1219 1.503 1_565 S
C1227 C1226 1.370 . S
C1227 C1228 1.403 . S
C1228 C1227 1.403 . S
C1228 C1229 1.404 . S
C1228 C1231 1.539 . S
C1229 C1225 1.408 . S
C1229 C1228 1.404 . S
C1229 H1241 0.930 . S
C1230 C1226 1.524 . S
C1230 H1242 0.956 . S
C1230 H1243 0.961 . S
C1230 H1244 0.961 . S
C1231 C1228 1.539 . S
C1231 H1245 0.958 1_565 S
C1231 H1246 0.961 . S
C1231 H1247 0.960 1_565 S
H1232 C1216 0.931 . S
H1233 C1221 0.929 . S
H1234 C1222 0.960 1_565 S
H1235 C1222 0.962 1_565 S
H1236 C1222 0.960 . S
H1237 C1223 0.954 1_545 S
H1238 C1223 0.961 . S
H1239 C1223 0.961 1_545 S
H1240 C1224 0.931 . S
H1241 C1229 0.930 . S
H1242 C1230 0.956 . S
H1243 C1230 0.961 . S
H1244 C1230 0.961 . S
H1245 C1231 0.958 1_545 S
H1246 C1231 0.961 . S
H1247 C1231 0.960 1_545 S
C1248 C1249 1.391 . S
C1248 C1250 1.394 . S
C1248 H1264 0.931 . S
C1249 C1248 1.391 . S
C1249 C1253 1.376 . S
C1250 C1248 1.394 . S
C1250 C1251 1.369 . S
C1250 C1254 1.531 . S
C1251 C1250 1.369 . S
C1251 C1252 1.410 . S
C1251 C1259 1.503 . S
C1252 C1251 1.410 . S
C1252 C1253 1.392 . S
C1252 C1255 1.511 . S
C1253 C1249 1.376 . S
C1253 C1252 1.392 . S
C1253 H1265 0.929 . S
C1254 C1250 1.531 . S
C1254 H1266 0.960 . S
C1254 H1267 0.962 . S
C1254 H1268 0.960 . S
C1255 C1252 1.511 . S
C1255 H1269 0.961 . S
C1255 H1270 0.961 . S
C1255 H1271 0.961 . S
C1256 C1257 1.370 . S
C1256 C1258 1.363 . S
C1256 H1272 0.931 . S
C1257 C1256 1.370 . S
C1257 C1261 1.408 . S
C1258 C1256 1.363 . S
C1258 C1259 1.370 . S
C1258 C1262 1.524 . S
C1259 C1251 1.503 . S
C1259 C1258 1.370 . S
C1259 C1260 1.403 . S
C1260 C1259 1.403 . S
C1260 C1261 1.404 . S
C1260 C1263 1.539 . S
C1261 C1257 1.408 . S
C1261 C1260 1.404 . S
C1261 H1273 0.930 . S
C1262 C1258 1.524 . S
C1262 H1274 0.956 . S
C1262 H1275 0.961 . S
C1262 H1276 0.961 . S
C1263 C1260 1.539 . S
C1263 H1277 0.958 . S
C1263 H1278 0.961 . S
C1263 H1279 0.960 . S
H1264 C1248 0.931 . S
H1265 C1253 0.929 . S
H1266 C1254 0.960 . S
H1267 C1254 0.962 . S
H1268 C1254 0.960 . S
H1269 C1255 0.961 . S
H1270 C1255 0.961 . S
H1271 C1255 0.961 . S
H1272 C1256 0.931 . S
H1273 C1261 0.930 . S
H1274 C1262 0.956 . S
H1275 C1262 0.961 . S
H1276 C1262 0.961 . S
H1277 C1263 0.958 . S
H1278 C1263 0.961 . S
H1279 C1263 0.960 . S
C1280 C1281 1.391 . S
C1280 C1282 1.394 . S
C1280 H1296 0.931 . S
C1281 C1280 1.391 . S
C1281 C1285 1.376 . S
C1282 C1280 1.394 . S
C1282 C1283 1.369 . S
C1282 C1286 1.531 . S
C1283 C1282 1.369 . S
C1283 C1284 1.410 . S
C1283 C1291 1.503 . S
C1284 C1283 1.410 . S
C1284 C1285 1.392 . S
C1284 C1287 1.511 1_655 S
C1285 C1281 1.376 . S
C1285 C1284 1.392 . S
C1285 H1297 0.955 . S
C1286 C1282 1.531 . S
C1286 H1298 0.960 . S
C1286 H1299 0.962 . S
C1286 H1300 0.960 . S
C1287 C1284 1.511 1_455 S
C1287 H1301 0.961 . S
C1287 H1302 0.961 1_455 S
C1287 H1303 0.961 . S
C1288 C1289 1.370 . S
C1288 C1290 1.363 . S
C1288 H1304 0.931 . S
C1289 C1288 1.370 . S
C1289 C1293 1.408 . S
C1290 C1288 1.363 . S
C1290 C1291 1.370 . S
C1290 C1294 1.524 . S
C1291 C1283 1.503 . S
C1291 C1290 1.370 . S
C1291 C1292 1.403 . S
C1292 C1291 1.403 . S
C1292 C1293 1.404 . S
C1292 C1295 1.539 . S
C1293 C1289 1.408 . S
C1293 C1292 1.404 . S
C1293 H1305 0.930 . S
C1294 C1290 1.524 . S
C1294 H1306 0.956 . S
C1294 H1307 0.961 . S
C1294 H1308 0.961 . S
C1295 C1292 1.539 . S
C1295 H1309 0.958 . S
C1295 H1310 0.961 . S
C1295 H1311 0.960 . S
H1296 C1280 0.931 . S
H1297 C1285 0.955 . S
H1298 C1286 0.960 . S
H1299 C1286 0.962 . S
H1300 C1286 0.960 . S
H1301 C1287 0.961 . S
H1302 C1287 0.961 1_655 S
H1303 C1287 0.961 . S
H1304 C1288 0.931 . S
H1305 C1293 0.930 . S
H1306 C1294 0.956 . S
H1307 C1294 0.961 . S
H1308 C1294 0.961 . S
H1309 C1295 0.958 . S
H1310 C1295 0.961 . S
H1311 C1295 0.960 . S
C1312 C1313 1.391 . S
C1312 C1314 1.394 . S
C1312 H1328 0.931 . S
C1313 C1312 1.391 . S
C1313 C1317 1.376 . S
C1314 C1312 1.394 . S
C1314 C1315 1.369 . S
C1314 C1318 1.531 . S
C1315 C1314 1.369 . S
C1315 C1316 1.410 . S
C1315 C1323 1.503 . S
C1316 C1315 1.410 . S
C1316 C1317 1.392 . S
C1316 C1319 1.511 . S
C1317 C1313 1.376 . S
C1317 C1316 1.392 . S
C1317 H1329 0.929 . S
C1318 C1314 1.531 . S
C1318 H1330 0.960 . S
C1318 H1331 0.962 . S
C1318 H1332 0.960 . S
C1319 C1316 1.511 . S
C1319 H1333 0.961 . S
C1319 H1334 0.961 . S
C1319 H1335 0.961 . S
C1320 C1321 1.370 . S
C1320 C1322 1.363 . S
C1320 H1336 0.931 . S
C1321 C1320 1.370 . S
C1321 C1325 1.408 . S
C1322 C1320 1.363 . S
C1322 C1323 1.370 . S
C1322 C1326 1.524 . S
C1323 C1315 1.503 . S
C1323 C1322 1.370 . S
C1323 C1324 1.403 . S
C1324 C1323 1.403 . S
C1324 C1325 1.404 . S
C1324 C1327 1.539 . S
C1325 C1321 1.408 . S
C1325 C1324 1.404 . S
C1325 H1337 0.930 . S
C1326 C1322 1.524 . S
C1326 H1338 0.956 . S
C1326 H1339 0.961 . S
C1326 H1340 0.961 . S
C1327 C1324 1.539 . S
C1327 H1341 0.958 . S
C1327 H1342 0.961 . S
C1327 H1343 0.960 . S
H1328 C1312 0.931 . S
H1329 C1317 0.929 . S
H1330 C1318 0.960 . S
H1331 C1318 0.962 . S
H1332 C1318 0.960 . S
H1333 C1319 0.961 . S
H1334 C1319 0.961 . S
H1335 C1319 0.961 . S
H1336 C1320 0.931 . S
H1337 C1325 0.930 . S
H1338 C1326 0.956 . S
H1339 C1326 0.961 . S
H1340 C1326 0.961 . S
H1341 C1327 0.958 . S
H1342 C1327 0.961 . S
H1343 C1327 0.960 . S
C1344 C1345 1.391 . S
C1344 C1346 1.394 . S
C1344 H1360 0.931 . S
C1345 C1344 1.391 . S
C1345 C1349 1.376 . S
C1346 C1344 1.394 . S
C1346 C1347 1.369 . S
C1346 C1350 1.531 . S
C1347 C1346 1.369 . S
C1347 C1348 1.410 . S
C1347 C1355 1.503 . S
C1348 C1347 1.410 . S
C1348 C1349 1.392 . S
C1348 C1351 1.511 . S
C1349 C1345 1.376 . S
C1349 C1348 1.392 . S
C1349 H1361 0.929 . S
C1350 C1346 1.531 . S
C1350 H1362 0.960 . S
C1350 H1363 0.962 . S
C1350 H1364 0.960 . S
C1351 C1348 1.511 . S
C1351 H1365 0.961 . S
C1351 H1366 0.961 . S
C1351 H1367 0.961 . S
C1352 C1353 1.370 . S
C1352 C1354 1.363 . S
C1352 H1368 0.931 . S
C1353 C1352 1.370 . S
C1353 C1357 1.408 . S
C1354 C1352 1.363 . S
C1354 C1355 1.370 . S
C1354 C1358 1.524 . S
C1355 C1347 1.503 . S
C1355 C1354 1.370 . S
C1355 C1356 1.403 . S
C1356 C1355 1.403 . S
C1356 C1357 1.404 . S
C1356 C1359 1.539 . S
C1357 C1353 1.408 . S
C1357 C1356 1.404 . S
C1357 H1369 0.930 . S
C1358 C1354 1.524 . S
C1358 H1370 0.956 . S
C1358 H1371 0.961 . S
C1358 H1372 0.961 . S
C1359 C1356 1.539 . S
C1359 H1373 0.958 . S
C1359 H1374 0.961 . S
C1359 H1375 0.960 . S
H1360 C1344 0.931 . S
H1361 C1349 0.929 . S
H1362 C1350 0.960 . S
H1363 C1350 0.962 . S
H1364 C1350 0.960 . S
H1365 C1351 0.961 . S
H1366 C1351 0.961 . S
H1367 C1351 0.961 . S
H1368 C1352 0.931 . S
H1369 C1357 0.930 . S
H1370 C1358 0.956 . S
H1371 C1358 0.961 . S
H1372 C1358 0.961 . S
H1373 C1359 0.958 . S
H1374 C1359 0.961 . S
H1375 C1359 0.960 . S
C1376 C1377 1.391 . S
C1376 C1378 1.394 . S
C1376 H1392 0.931 . S
C1377 C1376 1.391 . S
C1377 C1381 1.376 . S
C1378 C1376 1.394 . S
C1378 C1379 1.369 . S
C1378 C1382 1.531 . S
C1379 C1378 1.369 . S
C1379 C1380 1.410 . S
C1379 C1387 1.503 . S
C1380 C1379 1.410 . S
C1380 C1381 1.392 . S
C1380 C1383 1.511 . S
C1381 C1377 1.376 . S
C1381 C1380 1.392 . S
C1381 H1393 0.929 . S
C1382 C1378 1.531 . S
C1382 H1394 0.960 . S
C1382 H1395 0.962 . S
C1382 H1396 0.960 . S
C1383 C1380 1.511 . S
C1383 H1397 0.961 . S
C1383 H1398 0.961 . S
C1383 H1399 0.961 . S
C1384 C1385 1.370 . S
C1384 C1386 1.363 . S
C1384 H1400 0.931 . S
C1385 C1384 1.370 . S
C1385 C1389 1.408 . S
C1386 C1384 1.363 . S
C1386 C1387 1.370 . S
C1386 C1390 1.524 . S
C1387 C1379 1.503 . S
C1387 C1386 1.370 . S
C1387 C1388 1.403 . S
C1388 C1387 1.403 . S
C1388 C1389 1.404 . S
C1388 C1391 1.539 . S
C1389 C1385 1.408 . S
C1389 C1388 1.404 . S
C1389 H1401 0.930 . S
C1390 C1386 1.524 . S
C1390 H1402 0.956 . S
C1390 H1403 0.961 . S
C1390 H1404 0.961 . S
C1391 C1388 1.539 . S
C1391 H1405 0.958 . S
C1391 H1406 0.961 . S
C1391 H1407 0.960 . S
H1392 C1376 0.931 . S
H1393 C1381 0.929 . S
H1394 C1382 0.960 . S
H1395 C1382 0.962 . S
H1396 C1382 0.960 . S
H1397 C1383 0.961 . S
H1398 C1383 0.961 . S
H1399 C1383 0.961 . S
H1400 C1384 0.931 . S
H1401 C1389 0.930 . S
H1402 C1390 0.956 . S
H1403 C1390 0.961 . S
H1404 C1390 0.961 . S
H1405 C1391 0.958 . S
H1406 C1391 0.961 . S
H1407 C1391 0.960 . S
C1408 C1409 1.391 . S
C1408 C1410 1.394 . S
C1408 H1424 0.931 . S
C1409 C1408 1.391 . S
C1409 C1413 1.376 . S
C1410 C1408 1.394 . S
C1410 C1411 1.369 . S
C1410 C1414 1.531 . S
C1411 C1410 1.369 . S
C1411 C1412 1.410 . S
C1411 C1419 1.503 . S
C1412 C1411 1.410 . S
C1412 C1413 1.392 . S
C1412 C1415 1.511 . S
C1413 C1409 1.376 . S
C1413 C1412 1.392 . S
C1413 H1425 0.929 . S
C1414 C1410 1.531 . S
C1414 H1426 0.960 . S
C1414 H1427 0.962 . S
C1414 H1428 0.960 . S
C1415 C1412 1.511 . S
C1415 H1429 0.961 . S
C1415 H1430 0.961 . S
C1415 H1431 0.961 . S
C1416 C1417 1.370 . S
C1416 C1418 1.363 . S
C1416 H1432 0.931 . S
C1417 C1416 1.370 . S
C1417 C1421 1.408 . S
C1418 C1416 1.363 . S
C1418 C1419 1.370 . S
C1418 C1422 1.524 . S
C1419 C1411 1.503 . S
C1419 C1418 1.370 . S
C1419 C1420 1.403 . S
C1420 C1419 1.403 . S
C1420 C1421 1.404 . S
C1420 C1423 1.539 . S
C1421 C1417 1.408 . S
C1421 C1420 1.404 . S
C1421 H1433 0.930 . S
C1422 C1418 1.524 . S
C1422 H1434 0.956 . S
C1422 H1435 0.961 . S
C1422 H1436 0.961 . S
C1423 C1420 1.539 . S
C1423 H1437 0.958 . S
C1423 H1438 0.961 . S
C1423 H1439 0.960 . S
H1424 C1408 0.931 . S
H1425 C1413 0.929 . S
H1426 C1414 0.960 . S
H1427 C1414 0.962 . S
H1428 C1414 0.960 . S
H1429 C1415 0.961 . S
H1430 C1415 0.961 . S
H1431 C1415 0.961 . S
H1432 C1416 0.931 . S
H1433 C1421 0.930 . S
H1434 C1422 0.956 . S
H1435 C1422 0.961 . S
H1436 C1422 0.961 . S
H1437 C1423 0.958 . S
H1438 C1423 0.961 . S
H1439 C1423 0.960 . S
C1440 C1441 1.391 . S
C1440 C1442 1.394 . S
C1440 H1456 0.931 . S
C1441 C1440 1.391 . S
C1441 C1445 1.376 . S
C1442 C1440 1.394 . S
C1442 C1443 1.369 . S
C1442 C1446 1.531 . S
C1443 C1442 1.369 . S
C1443 C1444 1.410 . S
C1443 C1451 1.503 . S
C1444 C1443 1.410 . S
C1444 C1445 1.392 . S
C1444 C1447 1.511 . S
C1445 C1441 1.376 . S
C1445 C1444 1.392 . S
C1445 H1457 0.929 . S
C1446 C1442 1.531 . S
C1446 H1458 0.960 . S
C1446 H1459 0.975 . S
C1446 H1460 0.960 . S
C1447 C1444 1.511 . S
C1447 H1461 0.961 1_554 S
C1447 H1462 0.961 . S
C1447 H1463 0.961 . S
C1448 C1449 1.370 . S
C1448 C1450 1.363 . S
C1448 H1464 0.931 . S
C1449 C1448 1.370 . S
C1449 C1453 1.408 . S
C1450 C1448 1.363 . S
C1450 C1451 1.370 1_655 S
C1450 C1454 1.524 . S
C1451 C1443 1.503 . S
C1451 C1450 1.370 1_455 S
C1451 C1452 1.401 1_455 S
C1452 C1451 1.401 1_655 S
C1452 C1453 1.431 . S
C1452 C1455 1.515 1_655 S
C1453 C1449 1.408 . S
C1453 C1452 1.431 . S
C1453 H1465 0.930 . S
C1454 C1450 1.524 . S
C1454 H1466 0.956 . S
C1454 H1467 0.961 . S
C1454 H1468 0.961 . S
C1455 C1452 1.515 1_455 S
C1455 H1469 0.958 . S
C1455 H1470 0.961 . S
C1455 H1471 0.960 . S
H1456 C1440 0.931 . S
H1457 C1445 0.929 . S
H1458 C1446 0.960 . S
H1459 C1446 0.975 . S
H1460 C1446 0.960 . S
H1461 C1447 0.961 1_556 S
H1462 C1447 0.961 . S
H1463 C1447 0.961 . S
H1464 C1448 0.931 . S
H1465 C1453 0.930 . S
H1466 C1454 0.956 . S
H1467 C1454 0.961 . S
H1468 C1454 0.961 . S
H1469 C1455 0.958 . S
H1470 C1455 0.961 . S
H1471 C1455 0.960 . S
C1472 C1473 1.391 . S
C1472 C1474 1.394 . S
C1472 H1488 0.931 . S
C1473 C1472 1.391 . S
C1473 C1477 1.376 . S
C1474 C1472 1.394 . S
C1474 C1475 1.369 . S
C1474 C1478 1.531 . S
C1475 C1474 1.369 . S
C1475 C1476 1.410 . S
C1475 C1483 1.503 . S
C1476 C1475 1.410 . S
C1476 C1477 1.392 . S
C1476 C1479 1.511 . S
C1477 C1473 1.376 . S
C1477 C1476 1.392 . S
C1477 H1489 0.929 . S
C1478 C1474 1.531 . S
C1478 H1490 0.960 . S
C1478 H1491 0.962 . S
C1478 H1492 0.960 . S
C1479 C1476 1.511 . S
C1479 H1493 0.961 . S
C1479 H1494 0.961 . S
C1479 H1495 0.961 . S
C1480 C1481 1.370 . S
C1480 C1482 1.363 . S
C1480 H1496 0.931 . S
C1481 C1480 1.370 . S
C1481 C1485 1.408 . S
C1482 C1480 1.363 . S
C1482 C1483 1.370 . S
C1482 C1486 1.524 . S
C1483 C1475 1.503 . S
C1483 C1482 1.370 . S
C1483 C1484 1.403 . S
C1484 C1483 1.403 . S
C1484 C1485 1.404 . S
C1484 C1487 1.539 . S
C1485 C1481 1.408 . S
C1485 C1484 1.404 . S
C1485 H1497 0.930 . S
C1486 C1482 1.524 . S
C1486 H1498 0.956 . S
C1486 H1499 0.961 . S
C1486 H1500 0.961 . S
C1487 C1484 1.539 . S
C1487 H1501 0.958 . S
C1487 H1502 0.961 . S
C1487 H1503 0.960 . S
H1488 C1472 0.931 . S
H1489 C1477 0.929 . S
H1490 C1478 0.960 . S
H1491 C1478 0.962 . S
H1492 C1478 0.960 . S
H1493 C1479 0.961 . S
H1494 C1479 0.961 . S
H1495 C1479 0.961 . S
H1496 C1480 0.931 . S
H1497 C1485 0.930 . S
H1498 C1486 0.956 . S
H1499 C1486 0.961 . S
H1500 C1486 0.961 . S
H1501 C1487 0.958 . S
H1502 C1487 0.961 . S
H1503 C1487 0.960 . S
C1504 C1505 1.391 . S
C1504 C1506 1.394 . S
C1504 H1520 0.931 . S
C1505 C1504 1.391 . S
C1505 C1509 1.376 . S
C1506 C1504 1.394 . S
C1506 C1507 1.369 . S
C1506 C1510 1.531 . S
C1507 C1506 1.369 . S
C1507 C1508 1.410 . S
C1507 C1515 1.503 . S
C1508 C1507 1.410 . S
C1508 C1509 1.392 . S
C1508 C1511 1.511 . S
C1509 C1505 1.376 . S
C1509 C1508 1.392 . S
C1509 H1521 0.929 . S
C1510 C1506 1.531 . S
C1510 H1522 0.960 . S
C1510 H1523 0.962 . S
C1510 H1524 0.960 . S
C1511 C1508 1.511 . S
C1511 H1525 0.961 . S
C1511 H1526 0.961 . S
C1511 H1527 0.961 . S
C1512 C1513 1.370 . S
C1512 C1514 1.363 . S
C1512 H1528 0.931 . S
C1513 C1512 1.370 . S
C1513 C1517 1.408 . S
C1514 C1512 1.363 . S
C1514 C1515 1.370 . S
C1514 C1518 1.524 . S
C1515 C1507 1.503 . S
C1515 C1514 1.370 . S
C1515 C1516 1.403 . S
C1516 C1515 1.403 . S
C1516 C1517 1.404 . S
C1516 C1519 1.539 . S
C1517 C1513 1.408 . S
C1517 C1516 1.404 . S
C1517 H1529 0.930 . S
C1518 C1514 1.524 . S
C1518 H1530 0.956 . S
C1518 H1531 0.961 . S
C1518 H1532 0.961 . S
C1519 C1516 1.539 . S
C1519 H1533 0.958 . S
C1519 H1534 0.961 . S
C1519 H1535 0.960 . S
H1520 C1504 0.931 . S
H1521 C1509 0.929 . S
H1522 C1510 0.960 . S
H1523 C1510 0.962 . S
H1524 C1510 0.960 . S
H1525 C1511 0.961 . S
H1526 C1511 0.961 . S
H1527 C1511 0.961 . S
H1528 C1512 0.931 . S
H1529 C1517 0.930 . S
H1530 C1518 0.956 . S
H1531 C1518 0.961 . S
H1532 C1518 0.961 . S
H1533 C1519 0.958 . S
H1534 C1519 0.961 . S
H1535 C1519 0.960 . S
C1536 C1537 1.391 . S
C1536 C1538 1.394 . S
C1536 H1552 0.931 . S
C1537 C1536 1.391 . S
C1537 C1541 1.376 . S
C1538 C1536 1.394 . S
C1538 C1539 1.369 . S
C1538 C1542 1.531 . S
C1539 C1538 1.369 . S
C1539 C1540 1.410 . S
C1539 C1547 1.503 . S
C1540 C1539 1.410 . S
C1540 C1541 1.392 . S
C1540 C1543 1.511 . S
C1541 C1537 1.376 . S
C1541 C1540 1.392 . S
C1541 H1553 0.929 . S
C1542 C1538 1.531 . S
C1542 H1554 0.960 . S
C1542 H1555 0.962 . S
C1542 H1556 0.960 . S
C1543 C1540 1.511 . S
C1543 H1557 0.961 . S
C1543 H1558 0.961 . S
C1543 H1559 0.961 . S
C1544 C1545 1.370 . S
C1544 C1546 1.363 . S
C1544 H1560 0.931 . S
C1545 C1544 1.370 . S
C1545 C1549 1.408 . S
C1546 C1544 1.363 . S
C1546 C1547 1.370 . S
C1546 C1550 1.524 . S
C1547 C1539 1.503 . S
C1547 C1546 1.370 . S
C1547 C1548 1.403 . S
C1548 C1547 1.403 . S
C1548 C1549 1.404 . S
C1548 C1551 1.539 . S
C1549 C1545 1.408 . S
C1549 C1548 1.404 . S
C1549 H1561 0.930 . S
C1550 C1546 1.524 . S
C1550 H1562 0.956 . S
C1550 H1563 0.961 . S
C1550 H1564 0.961 . S
C1551 C1548 1.539 . S
C1551 H1565 0.958 . S
C1551 H1566 0.961 . S
C1551 H1567 0.960 . S
H1552 C1536 0.931 . S
H1553 C1541 0.929 . S
H1554 C1542 0.960 . S
H1555 C1542 0.962 . S
H1556 C1542 0.960 . S
H1557 C1543 0.961 . S
H1558 C1543 0.961 . S
H1559 C1543 0.961 . S
H1560 C1544 0.931 . S
H1561 C1549 0.930 . S
H1562 C1550 0.956 . S
H1563 C1550 0.961 . S
H1564 C1550 0.961 . S
H1565 C1551 0.958 . S
H1566 C1551 0.961 . S
H1567 C1551 0.960 . S
C1568 C1569 1.391 . S
C1568 C1570 1.394 . S
C1568 H1584 0.931 . S
C1569 C1568 1.391 . S
C1569 C1573 1.376 . S
C1570 C1568 1.394 . S
C1570 C1571 1.369 . S
C1570 C1574 1.531 . S
C1571 C1570 1.369 . S
C1571 C1572 1.410 . S
C1571 C1579 1.503 . S
C1572 C1571 1.410 . S
C1572 C1573 1.392 . S
C1572 C1575 1.511 . S
C1573 C1569 1.376 . S
C1573 C1572 1.392 . S
C1573 H1585 0.929 . S
C1574 C1570 1.531 . S
C1574 H1586 0.960 . S
C1574 H1587 0.962 . S
C1574 H1588 0.960 . S
C1575 C1572 1.511 . S
C1575 H1589 0.961 . S
C1575 H1590 0.961 . S
C1575 H1591 0.961 . S
C1576 C1577 1.370 . S
C1576 C1578 1.363 . S
C1576 H1592 0.931 . S
C1577 C1576 1.370 . S
C1577 C1581 1.408 . S
C1578 C1576 1.363 . S
C1578 C1579 1.370 . S
C1578 C1582 1.524 . S
C1579 C1571 1.503 . S
C1579 C1578 1.370 . S
C1579 C1580 1.403 . S
C1580 C1579 1.403 . S
C1580 C1581 1.404 . S
C1580 C1583 1.539 . S
C1581 C1577 1.408 . S
C1581 C1580 1.404 . S
C1581 H1593 0.930 . S
C1582 C1578 1.524 . S
C1582 H1594 0.956 . S
C1582 H1595 0.961 . S
C1582 H1596 0.961 . S
C1583 C1580 1.539 . S
C1583 H1597 0.958 . S
C1583 H1598 0.961 . S
C1583 H1599 0.960 . S
H1584 C1568 0.931 . S
H1585 C1573 0.929 . S
H1586 C1574 0.960 . S
H1587 C1574 0.962 . S
H1588 C1574 0.960 . S
H1589 C1575 0.961 . S
H1590 C1575 0.961 . S
H1591 C1575 0.961 . S
H1592 C1576 0.931 . S
H1593 C1581 0.930 . S
H1594 C1582 0.956 . S
H1595 C1582 0.961 . S
H1596 C1582 0.961 . S
H1597 C1583 0.958 . S
H1598 C1583 0.961 . S
H1599 C1583 0.960 . S
C1600 C1601 1.391 . S
C1600 C1602 1.394 . S
C1600 H1616 0.931 . S
C1601 C1600 1.391 . S
C1601 C1605 1.376 . S
C1602 C1600 1.394 . S
C1602 C1603 1.369 . S
C1602 C1606 1.531 . S
C1603 C1602 1.369 . S
C1603 C1604 1.410 . S
C1603 C1611 1.503 1_655 S
C1604 C1603 1.410 . S
C1604 C1605 1.392 . S
C1604 C1607 1.511 . S
C1605 C1601 1.376 . S
C1605 C1604 1.392 . S
C1605 H1617 0.929 . S
C1606 C1602 1.531 . S
C1606 H1618 0.960 . S
C1606 H1619 0.962 . S
C1606 H1620 0.960 . S
C1607 C1604 1.511 . S
C1607 H1621 0.961 . S
C1607 H1622 0.976 . S
C1607 H1623 0.961 1_655 S
C1608 C1609 1.370 . S
C1608 C1610 1.363 . S
C1608 H1624 0.931 . S
C1609 C1608 1.370 . S
C1609 C1613 1.408 . S
C1610 C1608 1.363 . S
C1610 C1611 1.370 . S
C1610 C1614 1.524 1_455 S
C1611 C1603 1.503 1_455 S
C1611 C1610 1.370 . S
C1611 C1612 1.403 . S
C1612 C1611 1.403 . S
C1612 C1613 1.404 . S
C1612 C1615 1.539 . S
C1613 C1609 1.408 . S
C1613 C1612 1.404 . S
C1613 H1625 0.930 . S
C1614 C1610 1.524 1_655 S
C1614 H1626 0.956 . S
C1614 H1627 0.961 . S
C1614 H1628 0.961 . S
C1615 C1612 1.539 . S
C1615 H1629 0.958 . S
C1615 H1630 0.961 . S
C1615 H1631 0.960 . S
H1616 C1600 0.931 . S
H1617 C1605 0.929 . S
H1618 C1606 0.960 . S
H1619 C1606 0.962 . S
H1620 C1606 0.960 . S
H1621 C1607 0.961 . S
H1622 C1607 0.976 . S
H1623 C1607 0.961 1_455 S
H1624 C1608 0.931 . S
H1625 C1613 0.930 . S
H1626 C1614 0.956 . S
H1627 C1614 0.961 . S
H1628 C1614 0.961 . S
H1629 C1615 0.958 . S
H1630 C1615 0.961 . S
H1631 C1615 0.960 . S
C481 C24 1.368 . S
C489 C463 1.383 . S
C513 C383 1.689 . S
C521 C63 1.695 . S
C545 C104 1.434 . S
C553 C343 1.453 . S
C577 C143 1.714 . S
C585 C424 1.668 1_545 S
C609 C183 1.699 . S
C617 C423 1.712 . S
C641 C223 1.499 . S
C649 C464 1.486 . S
C673 C384 1.614 . S
C681 C263 1.687 . S
C705 C304 1.482 . S
C713 C344 1.479 . S
C737 C144 1.580 . S
C745 C184 1.578 . S
C769 C23 1.767 . S
C777 C224 1.729 1_455 S
C801 C64 1.665 1_655 S
C809 C264 1.662 . S
C833 C303 1.597 . S
C841 C103 1.612 1_554 S
C865 C17 1.630 . S
C873 C322 1.610 . S
C897 C66 1.541 . S
C905 C413 1.575 . S
C929 C442 2.122 . S
C937 C97 2.072 . S
C961 C146 1.243 . S
C969 C362 1.247 . S
C993 C186 1.790 . S
C1001 C373 1.784 . S
C1025 C333 1.706 . S
C1033 C226 1.721 . S
C1057 C402 1.166 . S
C1065 C266 1.222 . S
C1089 C453 1.930 . S
C1097 C297 1.856 . S
C1121 C2 1.922 . S
C1129 C137 1.931 . S
C1153 C26 1.521 . S
C1161 C53 1.522 . S
C1185 C57 1.987 . S
C1193 C82 1.954 . S
C1217 C133 1.696 . S
C1225 C106 1.688 . S
C1249 C217 1.571 . S
C1257 C173 1.596 . S
C1281 C213 1.408 . S
C1289 C257 1.332 . S
C1313 C253 1.587 . S
C1321 C306 1.565 . S
C1345 C177 1.432 . S
C1353 C282 1.380 . S
C1377 C337 1.355 . S
C1385 C122 1.382 . S
C1409 C202 1.486 . S
C1417 C386 1.491 . S
C1441 C346 0.968 . S
C1449 C242 0.924 . S
C1473 C417 1.797 . S
C1481 C293 1.885 . S
C1505 C162 1.479 . S
C1513 C466 1.560 . S
C1537 C457 1.545 . S
C1545 C42 1.510 . S
C1569 C93 1.865 . S
C1577 C377 1.775 . S
C1601 C426 1.279 . S
C1609 C13 1.288 . S
