# Generated by pormake.
# Topology wje, (4)-cn, num edge types: 1
# Building blocks:
#     Node 0, Type 0, BuildingBlock: KUFVIS_clean_sbu_0, # of connection points: 4
#     Node 1, Type 0, BuildingBlock: KUFVIS_clean_sbu_0, # of connection points: 4
#     Node 2, Type 0, BuildingBlock: KUFVIS_clean_sbu_0, # of connection points: 4
#     Node 3, Type 0, BuildingBlock: KUFVIS_clean_sbu_0, # of connection points: 4
#     Node 4, Type 0, BuildingBlock: KUFVIS_clean_sbu_0, # of connection points: 4
#     Node 5, Type 0, BuildingBlock: KUFVIS_clean_sbu_0, # of connection points: 4
#     Node 6, Type 0, BuildingBlock: KUFVIS_clean_sbu_0, # of connection points: 4
#     Node 7, Type 0, BuildingBlock: KUFVIS_clean_sbu_0, # of connection points: 4
#     Node 8, Type 0, BuildingBlock: KUFVIS_clean_sbu_0, # of connection points: 4
#     Node 9, Type 0, BuildingBlock: KUFVIS_clean_sbu_0, # of connection points: 4
#     Node 10, Type 0, BuildingBlock: KUFVIS_clean_sbu_0, # of connection points: 4
#     Node 11, Type 0, BuildingBlock: KUFVIS_clean_sbu_0, # of connection points: 4
#     Edge 12, Type (0, 0), BuildingBlock: CIFDUS_clean_linker_0, # of connection points: 2
#     Edge 13, Type (0, 0), BuildingBlock: CIFDUS_clean_linker_0, # of connection points: 2
#     Edge 14, Type (0, 0), BuildingBlock: CIFDUS_clean_linker_0, # of connection points: 2
#     Edge 15, Type (0, 0), BuildingBlock: CIFDUS_clean_linker_0, # of connection points: 2
#     Edge 16, Type (0, 0), BuildingBlock: CIFDUS_clean_linker_0, # of connection points: 2
#     Edge 17, Type (0, 0), BuildingBlock: CIFDUS_clean_linker_0, # of connection points: 2
#     Edge 18, Type (0, 0), BuildingBlock: CIFDUS_clean_linker_0, # of connection points: 2
#     Edge 19, Type (0, 0), BuildingBlock: CIFDUS_clean_linker_0, # of connection points: 2
#     Edge 20, Type (0, 0), BuildingBlock: CIFDUS_clean_linker_0, # of connection points: 2
#     Edge 21, Type (0, 0), BuildingBlock: CIFDUS_clean_linker_0, # of connection points: 2
#     Edge 22, Type (0, 0), BuildingBlock: CIFDUS_clean_linker_0, # of connection points: 2
#     Edge 23, Type (0, 0), BuildingBlock: CIFDUS_clean_linker_0, # of connection points: 2
#     Edge 24, Type (0, 0), BuildingBlock: CIFDUS_clean_linker_0, # of connection points: 2
#     Edge 25, Type (0, 0), BuildingBlock: CIFDUS_clean_linker_0, # of connection points: 2
#     Edge 26, Type (0, 0), BuildingBlock: CIFDUS_clean_linker_0, # of connection points: 2
#     Edge 27, Type (0, 0), BuildingBlock: CIFDUS_clean_linker_0, # of connection points: 2
#     Edge 28, Type (0, 0), BuildingBlock: CIFDUS_clean_linker_0, # of connection points: 2
#     Edge 29, Type (0, 0), BuildingBlock: CIFDUS_clean_linker_0, # of connection points: 2
#     Edge 30, Type (0, 0), BuildingBlock: CIFDUS_clean_linker_0, # of connection points: 2
#     Edge 31, Type (0, 0), BuildingBlock: CIFDUS_clean_linker_0, # of connection points: 2
#     Edge 32, Type (0, 0), BuildingBlock: CIFDUS_clean_linker_0, # of connection points: 2
#     Edge 33, Type (0, 0), BuildingBlock: CIFDUS_clean_linker_0, # of connection points: 2
#     Edge 34, Type (0, 0), BuildingBlock: CIFDUS_clean_linker_0, # of connection points: 2
#     Edge 35, Type (0, 0), BuildingBlock: CIFDUS_clean_linker_0, # of connection points: 2
# Relax obj value: 0.158
# Max RMSD: 0.106
# Mean RMSD: 0.106
data_MOF--net-wje--node1-KUFVIS_clean_sbu_0--edge1-CIFDUS_clean_linker_0
_symmetry_space_group_name_H-M    P1
_symmetry_Int_Tables_number       1
_symmetry_cell_setting            triclinic
loop_
_symmetry_equiv_pos_as_xyz
'x, y, z'
_cell_length_a     34.268723
_cell_length_b     34.175132
_cell_length_c     33.323182
_cell_angle_alpha  90.022093
_cell_angle_beta   89.860234
_cell_angle_gamma 119.96687
loop_
_atom_site_label
_atom_site_type_symbol
_atom_site_fract_x
_atom_site_fract_y
_atom_site_fract_z
_atom_type_partial_charge
Mn0 Mn 0.33486 0.03488 0.33285 0.0
Mn1 Mn 0.30354 0.98086 0.24431 0.0
C2 C 0.2602 0.98369 0.32103 0.0
C3 C 0.35435 0.03508 0.40001 0.0
C4 C 0.33174 0.07994 0.25426 0.0
O5 O 0.39295 0.0404 0.31175 0.0
O6 O 0.36848 1.00125 0.2536 0.0
C7 C 0.31296 0.901 0.2618 0.0
N8 N 0.28662 0.9188 0.25135 0.0
C9 C 0.22066 0.84489 0.24855 0.0
C10 C 0.24712 0.82582 0.25921 0.0
C11 C 0.29348 0.85401 0.26581 0.0
C12 C 0.24205 0.89193 0.24443 0.0
H13 H 0.34854 0.92249 0.2673 0.0
C14 C 0.39904 0.02307 0.28002 0.0
O15 O 0.36463 0.07258 0.38152 0.0
O16 O 0.33539 0.99854 0.37885 0.0
N17 N 0.24098 0.95872 0.23391 0.0
C18 C 0.21963 0.98261 0.22676 0.0
C19 C 0.17278 0.95946 0.22106 0.0
C20 C 0.14836 0.91207 0.22293 0.0
C21 C 0.17103 0.88821 0.23044 0.0
C22 C 0.21783 0.91308 0.23548 0.0
H23 H 0.23814 0.01906 0.22578 0.0
O24 O 0.27114 0.01638 0.34636 0.0
O25 O 0.29351 0.98477 0.30141 0.0
O26 O 0.33848 0.0819 0.29212 0.0
O27 O 0.31928 0.04405 0.23373 0.0
C28 C 0.14889 0.84079 0.23395 0.0
C29 C 0.17371 0.81916 0.24295 0.0
H30 H 0.23212 0.78962 0.26282 0.0
H31 H 0.31409 0.83955 0.27424 0.0
H32 H 0.15548 0.97813 0.2155 0.0
H33 H 0.11217 0.89438 0.2189 0.0
H34 H 0.11272 0.82066 0.23028 0.0
H35 H 0.15628 0.78277 0.24612 0.0
Mn36 Mn 0.29735 0.32104 0.66169 0.0
Mn37 Mn 0.32514 0.28038 0.58163 0.0
C38 C 0.26904 0.24411 0.65561 0.0
C39 C 0.31658 0.3465 0.72813 0.0
C40 C 0.25835 0.31511 0.57814 0.0
O41 O 0.35132 0.37666 0.6383 0.0
O42 O 0.37281 0.34485 0.58989 0.0
C43 C 0.40712 0.28251 0.61258 0.0
N44 N 0.36472 0.25878 0.59729 0.0
C45 C 0.36631 0.18922 0.60076 0.0
C46 C 0.41019 0.21304 0.61609 0.0
C47 C 0.43062 0.25987 0.62213 0.0
C48 C 0.34472 0.21369 0.5914 0.0
H49 H 0.42275 0.31837 0.6177 0.0
C50 C 0.37832 0.37882 0.61079 0.0
O51 O 0.29057 0.35642 0.70726 0.0
O52 O 0.33227 0.32407 0.70981 0.0
N53 N 0.282 0.21824 0.57164 0.0
C54 C 0.23832 0.19975 0.5597 0.0
C55 C 0.2123 0.15283 0.55421 0.0
C56 C 0.23142 0.12541 0.56107 0.0
C57 C 0.27644 0.14518 0.57332 0.0
C58 C 0.30085 0.19218 0.57796 0.0
H59 H 0.22335 0.22061 0.55464 0.0
O60 O 0.24901 0.25934 0.67851 0.0
O61 O 0.3043 0.27465 0.63667 0.0
O62 O 0.25764 0.32277 0.61577 0.0
O63 O 0.28331 0.30076 0.56302 0.0
C64 C 0.29775 0.11997 0.58192 0.0
C65 C 0.34267 0.142 0.59558 0.0
H66 H 0.42821 0.19561 0.62395 0.0
H67 H 0.4643 0.27842 0.63436 0.0
H68 H 0.17752 0.1378 0.5449 0.0
H69 H 0.2111 0.08919 0.55715 0.0
H70 H 0.27971 0.08357 0.57868 0.0
H71 H 0.35844 0.12221 0.60277 0.0
Mn72 Mn 0.98417 0.29905 0.99483 0.0
Mn73 Mn 0.04627 0.32668 0.91031 0.0
C74 C 0.02981 0.26882 0.98205 0.0
C75 C 0.98212 0.31403 0.06364 0.0
C76 C 0.94541 0.2608 0.91134 0.0
O77 O 0.98529 0.35651 0.97688 0.0
O78 O 0.02801 0.37279 0.92083 0.0
C79 C 0.12604 0.41047 0.93888 0.0
N80 N 0.10774 0.36792 0.92366 0.0
C81 C 0.17978 0.37167 0.92418 0.0
C82 C 0.19942 0.41565 0.93956 0.0
C83 C 0.17241 0.4351 0.94699 0.0
C84 C 0.13346 0.34893 0.91628 0.0
H85 H 0.10538 0.42544 0.945 0.0
C86 C 1.00522 0.38134 0.94642 0.0
O87 O 0.9451 0.291 0.04323 0.0
O88 O 0.01921 0.32992 0.04365 0.0
N89 N 0.06647 0.28494 0.8979 0.0
C90 C 0.04177 0.24107 0.88595 0.0
C91 C 0.06346 0.21605 0.87892 0.0
C92 C 0.11025 0.23635 0.88428 0.0
C93 C 0.13497 0.28155 0.89657 0.0
C94 C 0.11159 0.30494 0.90274 0.0
H95 H 1.00574 0.2252 0.88216 0.0
O96 O 0.99544 0.24806 1.00583 0.0
O97 O 0.03476 0.30542 0.9655 0.0
O98 O 0.93922 0.26233 0.94924 0.0
O99 O 0.98389 0.28352 0.89436 0.0
C100 C 0.18173 0.30401 0.90376 0.0
C101 C 0.20411 0.34904 0.91752 0.0
H102 H 0.23508 0.43455 0.94631 0.0
H103 H 0.18726 0.46889 0.95917 0.0
H104 H 0.04412 0.18111 0.86963 0.0
H105 H 0.12677 0.21679 0.87922 0.0
H106 H 0.2007 0.28677 0.89932 0.0
H107 H 0.2399 0.3657 0.92358 0.0
Mn108 Mn 0.68978 0.98583 0.33256 0.0
Mn109 Mn 0.705 0.03876 0.24384 0.0
C110 C 0.76321 0.03223 0.30997 0.0
C111 C 0.67993 0.98587 0.40238 0.0
C112 C 0.67663 0.93933 0.25069 0.0
O113 O 0.62965 0.98234 0.32363 0.0
O114 O 0.64435 0.02048 0.26572 0.0
C115 C 0.70469 0.11946 0.27584 0.0
N116 N 0.72486 0.10101 0.25361 0.0
C117 C 0.78562 0.17444 0.2354 0.0
C118 C 0.76533 0.19428 0.25776 0.0
C119 C 0.72479 0.16664 0.27825 0.0
C120 C 0.76424 0.12726 0.23443 0.0
H121 H 0.67355 0.09835 0.29166 0.0
C122 C 0.61851 0.99971 0.29533 0.0
O123 O 0.66597 0.94844 0.3825 0.0
O124 O 0.69933 0.02286 0.38171 0.0
N125 N 0.76154 0.05986 0.21735 0.0
C126 C 0.77699 0.03541 0.19743 0.0
C127 C 0.81701 0.058 0.17497 0.0
C128 C 0.84038 0.10541 0.17272 0.0
C129 C 0.82334 0.12984 0.19274 0.0
C130 C 0.783 0.10546 0.21426 0.0
H131 H 0.75888 0.99896 0.19853 0.0
O132 O 0.75294 0.99923 0.3348 0.0
O133 O 0.72889 0.03556 0.2972 0.0
O134 O 0.67618 0.93779 0.28906 0.0
O135 O 0.68582 0.97505 0.23101 0.0
C136 C 0.84509 0.1774 0.19269 0.0
C137 C 0.82635 0.19965 0.21423 0.0
H138 H 0.78069 0.23067 0.25958 0.0
H139 H 0.70904 0.18167 0.29577 0.0
H140 H 0.82976 0.03891 0.15934 0.0
H141 H 0.87139 0.1227 0.15562 0.0
H142 H 0.87644 0.19717 0.17652 0.0
H143 H 0.8434 0.23616 0.21438 0.0
Mn144 Mn 0.69488 0.67379 0.64702 0.0
Mn145 Mn 0.66038 0.70036 0.56258 0.0
C146 C 0.71441 0.74793 0.63534 0.0
C147 C 0.6805 0.65551 0.71509 0.0
C148 C 0.73494 0.67612 0.56478 0.0
O149 O 0.64407 0.61325 0.62794 0.0
O150 O 0.61739 0.63547 0.5759 0.0
C151 C 0.57426 0.69215 0.58983 0.0
N152 N 0.6163 0.7176 0.57401 0.0
C153 C 0.60763 0.78325 0.57145 0.0
C154 C 0.56401 0.75752 0.58716 0.0
C155 C 0.54728 0.71177 0.59642 0.0
C156 C 0.63266 0.76163 0.56478 0.0
H157 H 0.56171 0.65737 0.59797 0.0
C158 C 0.61535 0.60524 0.6002 0.0
O159 O 0.7081 0.64682 0.69524 0.0
O160 O 0.65971 0.67159 0.69478 0.0
N161 N 0.69911 0.76243 0.54835 0.0
C162 C 0.74326 0.78359 0.53711 0.0
C163 C 0.76591 0.83011 0.52892 0.0
C164 C 0.74305 0.85446 0.53259 0.0
C165 C 0.69767 0.83202 0.54432 0.0
C166 C 0.67665 0.78547 0.55154 0.0
H167 H 0.76122 0.76522 0.53471 0.0
O168 O 0.73851 0.73845 0.65899 0.0
O169 O 0.68109 0.7134 0.61788 0.0
O170 O 0.73654 0.67277 0.60292 0.0
O171 O 0.70662 0.68441 0.54737 0.0
C172 C 0.67287 0.85428 0.55018 0.0
C173 C 0.62787 0.8299 0.5637 0.0
H174 H 0.54338 0.77273 0.59295 0.0
H175 H 0.51388 0.69184 0.60908 0.0
H176 H 0.80102 0.84724 0.52011 0.0
H177 H 0.7608 0.89046 0.52672 0.0
H178 H 0.68839 0.89031 0.54507 0.0
H179 H 0.60941 0.84753 0.56894 0.0
Mn180 Mn 0.01729 0.69759 1.00135 0.0
Mn181 Mn 0.97353 0.6678 0.90901 0.0
C182 C 0.96833 0.72035 0.97893 0.0
C183 C 0.0086 0.67964 0.06973 0.0
C184 C 0.07057 0.74141 0.92454 0.0
O185 O 0.02685 0.64537 0.98783 0.0
O186 O 0.99214 0.62374 0.92782 0.0
C187 C 0.8919 0.57986 0.92602 0.0
N188 N 0.91108 0.62304 0.91205 0.0
C189 C 0.83841 0.61422 0.89711 0.0
C190 C 0.81794 0.56963 0.91121 0.0
C191 C 0.84481 0.55239 0.9257 0.0
C192 C 0.88554 0.63983 0.89762 0.0
H193 H 0.91232 0.56652 0.93754 0.0
C194 C 0.01215 0.6183 0.95811 0.0
O195 O 0.04812 0.70732 0.0547 0.0
O196 O 0.97534 0.66174 0.04493 0.0
N197 N 0.95321 0.70715 0.88911 0.0
C198 C 0.97793 0.75182 0.87953 0.0
C199 C 0.95593 0.77473 0.86614 0.0
C200 C 0.90878 0.75156 0.86284 0.0
C201 C 0.88402 0.70563 0.87295 0.0
C202 C 0.90782 0.68446 0.88577 0.0
H203 H 0.01414 0.76997 0.88238 0.0
O204 O 0.9974 0.74288 1.00675 0.0
O205 O 0.97082 0.68649 0.96387 0.0
O206 O 0.06853 0.7399 0.96293 0.0
O207 O 0.0375 0.71489 0.90226 0.0
C208 C 0.83661 0.68031 0.87162 0.0
C209 C 0.81383 0.63462 0.88365 0.0
H210 H 0.78161 0.5485 0.91147 0.0
H211 H 0.82925 0.51809 0.93683 0.0
H212 H 0.97526 0.81024 0.85859 0.0
H213 H 0.89192 0.76946 0.85285 0.0
H214 H 0.81731 0.69579 0.86187 0.0
H215 H 0.77736 0.61568 0.88305 0.0
Mn216 Mn 0.99471 0.69184 0.37699 0.0
Mn217 Mn 0.04996 0.72451 0.46441 0.0
C218 C 0.0356 0.7675 0.39252 0.0
C219 C 1.001 0.67798 0.30903 0.0
C220 C 0.94846 0.68469 0.45767 0.0
O221 O 0.99715 0.63642 0.39456 0.0
O222 O 0.03683 0.66175 0.452 0.0
C223 C 0.13467 0.72845 0.43886 0.0
N224 N 0.11289 0.74947 0.45385 0.0
C225 C 0.18169 0.82121 0.45469 0.0
C226 C 0.20488 0.80023 0.43959 0.0
C227 C 0.18126 0.75365 0.43168 0.0
C228 C 0.13536 0.79424 0.46185 0.0
H229 H 0.11658 0.6928 0.43209 0.0
C230 C 0.0166 0.63134 0.42505 0.0
O231 O 0.9615 0.66168 0.32583 0.0
O232 O 0.03536 0.7002 0.3319 0.0
N233 N 0.06518 0.78482 0.47859 0.0
C234 C 0.03732 0.80052 0.4901 0.0
C235 C 0.05546 0.84678 0.49789 0.0
C236 C 0.10197 0.87642 0.49358 0.0
C237 C 0.12999 0.85951 0.48169 0.0
C238 C 0.1101 0.81297 0.47495 0.0
H239 H 1.00146 0.77798 0.49293 0.0
O240 O 1.00321 0.75312 0.3666 0.0
O241 O 0.04139 0.73641 0.40918 0.0
O242 O 0.94547 0.67937 0.41941 0.0
O243 O 0.98561 0.70046 0.47692 0.0
C244 C 0.17666 0.88717 0.47522 0.0
C245 C 0.20246 0.86805 0.46164 0.0
H246 H 0.24068 0.81968 0.43344 0.0
H247 H 0.19884 0.73728 0.41968 0.0
H248 H 0.0336 0.85963 0.50686 0.0
H249 H 0.11574 0.91217 0.49909 0.0
H250 H 0.19293 0.92331 0.47995 0.0
H251 H 0.23809 0.88979 0.45589 0.0
Mn252 Mn 0.30419 0.97569 0.70124 0.0
Mn253 Mn 0.33582 0.0256 0.7914 0.0
C254 C 0.28497 0.02896 0.71942 0.0
C255 C 0.32012 0.97657 0.63297 0.0
C256 C 0.2604 0.92829 0.78029 0.0
O257 O 0.35503 0.96492 0.71699 0.0
O258 O 0.37853 1.00443 0.77477 0.0
C259 C 0.42458 0.10502 0.77208 0.0
N260 N 0.38158 0.08758 0.78586 0.0
C261 C 0.39243 0.162 0.79692 0.0
C262 C 0.43682 0.1807 0.78293 0.0
C263 C 0.45295 0.15207 0.77049 0.0
C264 C 0.36587 0.11483 0.79837 0.0
H265 H 0.43709 0.08324 0.76215 0.0
C266 C 0.38277 0.98165 0.74605 0.0
O267 O 0.29186 0.93916 0.65099 0.0
O268 O 0.33978 0.01254 0.65485 0.0
N269 N 0.29774 0.04852 0.80885 0.0
C270 C 0.2531 0.02525 0.81844 0.0
C271 C 0.23124 0.04902 0.82981 0.0
C272 C 0.2554 0.09643 0.83109 0.0
C273 C 0.30126 0.11967 0.82096 0.0
C274 C 0.32137 0.09416 0.8102 0.0
H275 H 0.23419 0.98884 0.81713 0.0
O276 O 0.26114 0.99809 0.69319 0.0
O277 O 0.31769 0.0256 0.73569 0.0
O278 O 0.26144 0.92832 0.74196 0.0
O279 O 0.2878 0.96229 0.80128 0.0
C280 C 0.32755 0.16716 0.82032 0.0
C281 C 0.37311 0.18831 0.80836 0.0
H282 H 0.45865 0.21697 0.78118 0.0
H283 H 0.48711 0.16626 0.75946 0.0
H284 H 0.19576 0.03085 0.83736 0.0
H285 H 0.2383 0.11464 0.83953 0.0
H286 H 0.3129 0.18777 0.82846 0.0
H287 H 0.39279 0.22485 0.80745 0.0
Mn288 Mn 0.3378 0.31695 0.03017 0.0
Mn289 Mn 0.30877 0.34009 0.11994 0.0
C290 C 0.26342 0.29241 0.0444 0.0
C291 C 0.35544 0.33539 0.96232 0.0
C292 C 0.33617 0.26889 0.10859 0.0
O293 O 0.39636 0.37 0.04998 0.0
O294 O 0.37363 0.38441 0.10926 0.0
C295 C 0.31826 0.42942 0.10254 0.0
N296 N 0.2921 0.38547 0.11389 0.0
C297 C 0.22672 0.39403 0.1195 0.0
C298 C 0.25302 0.43941 0.10803 0.0
C299 C 0.29899 0.45717 0.09957 0.0
C300 C 0.24793 0.36817 0.12262 0.0
H301 H 0.3535 0.44316 0.09556 0.0
C302 C 0.40349 0.39321 0.08202 0.0
O303 O 0.36653 0.30882 0.98078 0.0
O304 O 0.33674 0.35303 0.98383 0.0
N305 N 0.24651 0.29999 0.13211 0.0
C306 C 0.22504 0.25471 0.13937 0.0
C307 C 0.17843 0.23129 0.1466 0.0
C308 C 0.15434 0.2546 0.14613 0.0
C309 C 0.17711 0.30117 0.13851 0.0
C310 C 0.22371 0.32283 0.13199 0.0
H311 H 0.24327 0.2365 0.13925 0.0
O312 O 0.27402 0.27107 0.01828 0.0
O313 O 0.297 0.32554 0.06296 0.0
O314 O 0.34262 0.27386 0.07065 0.0
O315 O 0.32418 0.2924 0.12955 0.0
C316 C 0.1552 0.32669 0.13608 0.0
C317 C 0.18 0.3731 0.12662 0.0
H318 H 0.23814 0.46077 0.10514 0.0
H319 H 0.31945 0.4921 0.09047 0.0
H320 H 0.16103 0.19529 0.15222 0.0
H321 H 0.11829 0.23631 0.15126 0.0
H322 H 0.11917 0.31079 0.14079 0.0
H323 H 0.16268 0.39219 0.12408 0.0
Mn324 Mn 0.02887 0.32499 0.37018 0.0
Mn325 Mn 0.9702 0.31028 0.45542 0.0
C326 C 0.98009 0.25158 0.39187 0.0
C327 C 0.03096 0.33422 0.29994 0.0
C328 C 0.06926 0.33686 0.45457 0.0
O329 O 0.03421 0.38635 0.37859 0.0
O330 O 0.99063 0.37151 0.43324 0.0
C331 C 0.89226 0.31063 0.41763 0.0
N332 N 0.90897 0.29018 0.44159 0.0
C333 C 0.83473 0.22738 0.45387 0.0
C334 C 0.81666 0.24793 0.42961 0.0
C335 C 0.84559 0.28965 0.41129 0.0
C336 C 0.88153 0.24971 0.45877 0.0
H337 H 0.91442 0.34259 0.40334 0.0
C338 C 0.0151 0.39784 0.40514 0.0
O339 O 0.06776 0.34752 0.32048 0.0
O340 O 0.99389 0.31656 0.32023 0.0
N341 N 0.94733 0.25332 0.48183 0.0
C342 C 0.97012 0.23847 0.50496 0.0
C343 C 0.94602 0.19786 0.52646 0.0
C344 C 0.89876 0.17323 0.52439 0.0
C345 C 0.87598 0.18978 0.50128 0.0
C346 C 0.90176 0.23085 0.48105 0.0
H347 H 0.00638 0.2575 0.50715 0.0
O348 O 0.01359 0.26093 0.36805 0.0
O349 O 0.97724 0.2866 0.40351 0.0
O350 O 0.07376 0.33651 0.41635 0.0
O351 O 0.03265 0.32933 0.47166 0.0
C352 C 0.82878 0.16693 0.49715 0.0
C353 C 0.80819 0.18552 0.47316 0.0
H354 H 0.78068 0.23189 0.42471 0.0
H355 H 0.83194 0.3056 0.39233 0.0
H356 H 0.96383 0.18557 0.54458 0.0
H357 H 0.88033 0.14171 0.54069 0.0
H358 H 0.80811 0.13485 0.51202 0.0
H359 H 0.77191 0.16744 0.46982 0.0
Mn360 Mn 0.70559 0.02275 0.7069 0.0
Mn361 Mn 0.67859 0.9559 0.78824 0.0
C362 C 0.73579 0.97628 0.71534 0.0
C363 C 0.6909 0.02879 0.6389 0.0
C364 C 0.74384 0.05716 0.79125 0.0
O365 O 0.64811 0.02009 0.72656 0.0
O366 O 0.63207 0.97414 0.7804 0.0
C367 C 0.59517 0.87702 0.75796 0.0
N368 N 0.63776 0.89492 0.77265 0.0
C369 C 0.63493 0.8233 0.76726 0.0
C370 C 0.59092 0.80405 0.75239 0.0
C371 C 0.57098 0.83105 0.7477 0.0
C372 C 0.65719 0.86918 0.7775 0.0
H373 H 0.57983 0.8977 0.75387 0.0
C374 C 0.62333 0.99815 0.75643 0.0
O375 O 0.71378 0.06474 0.66081 0.0
O376 O 0.67492 0.99052 0.6571 0.0
N377 N 0.7207 0.93559 0.79782 0.0
C378 C 0.76451 0.96006 0.80961 0.0
C379 C 0.78993 0.93843 0.81413 0.0
C380 C 0.77012 0.89195 0.80638 0.0
C381 C 0.72498 0.86747 0.79425 0.0
C382 C 0.70116 0.89074 0.7907 0.0
H383 H 0.78004 0.99588 0.81518 0.0
O384 O 0.75656 0.01237 0.69347 0.0
O385 O 0.69934 0.97027 0.73298 0.0
O386 O 0.74208 0.06528 0.75387 0.0
O387 O 0.72139 0.01767 0.80659 0.0
C388 C 0.70304 0.82113 0.78464 0.0
C389 C 0.65807 0.79909 0.77111 0.0
H390 H 0.57238 0.76875 0.74392 0.0
H391 H 0.53716 0.81652 0.73591 0.0
H392 H 0.82482 0.95759 0.82329 0.0
H393 H 0.78999 0.8755 0.80948 0.0
H394 H 0.72063 0.80227 0.78696 0.0
H395 H 0.64187 0.76373 0.763 0.0
Mn396 Mn 0.68431 0.72125 0.01492 0.0
Mn397 Mn 0.7124 0.69388 0.10254 0.0
C398 C 0.7591 0.75001 0.03046 0.0
C399 C 0.66768 0.70267 0.94719 0.0
C400 C 0.67853 0.76092 0.0956 0.0
O401 O 0.62684 0.6657 0.03247 0.0
O402 O 0.64975 0.64574 0.08834 0.0
C403 C 0.71383 0.61131 0.07788 0.0
N404 N 0.73565 0.65415 0.09278 0.0
C405 C 0.80557 0.65369 0.0964 0.0
C406 C 0.78376 0.60949 0.08137 0.0
C407 C 0.7377 0.58822 0.07207 0.0
C408 C 0.77993 0.67483 0.10207 0.0
H409 H 0.67856 0.59494 0.07021 0.0
C410 C 0.62028 0.63842 0.06121 0.0
O411 O 0.65475 0.72803 0.96542 0.0
O412 O 0.68886 0.68774 0.96851 0.0
N413 N 0.7727 0.73729 0.11787 0.0
C414 C 0.78948 0.78106 0.12938 0.0
C415 C 0.83549 0.80762 0.13835 0.0
C416 C 0.86379 0.789 0.13526 0.0
C417 C 0.8458 0.7439 0.12334 0.0
C418 C 0.79957 0.71888 0.11525 0.0
H419 H 0.76803 0.79575 0.1314 0.0
O420 O 0.74736 0.77057 1.0046 0.0
O421 O 0.72614 0.71448 0.04718 0.0
O422 O 0.67548 0.76014 0.05726 0.0
O423 O 0.6902 0.73618 0.1152 0.0
C424 C 0.87213 0.72312 0.11829 0.0
C425 C 0.85203 0.67805 0.10485 0.0
H426 H 0.80219 0.59179 0.07633 0.0
H427 H 0.7207 0.55424 0.06015 0.0
H428 H 0.84917 0.84247 0.14737 0.0
H429 H 0.89936 0.80976 0.14179 0.0
H430 H 0.908 0.74168 0.12417 0.0
H431 H 0.87273 0.66268 0.10048 0.0
H432 H 0.33661 0.09495 0.17335 0.0
H433 H 0.33833 0.15663 0.28696 0.0
H434 H 0.34174 0.22101 0.2519 0.0
H435 H 0.34082 0.25825 0.18923 0.0
H436 H 0.34028 0.1974 0.0755 0.0
H437 H 0.3402 0.1345 0.1105 0.0
C438 C 0.33791 0.12252 0.19055 0.0
C439 C 0.33689 0.12058 0.23289 0.0
C440 C 0.34005 0.15964 0.17017 0.0
C441 C 0.33907 0.15701 0.25446 0.0
C442 C 0.34091 0.19386 0.2344 0.0
C443 C 0.34094 0.23141 0.17196 0.0
C444 C 0.34028 0.23263 0.12963 0.0
C445 C 0.34091 0.19531 0.19229 0.0
C446 C 0.34087 0.19758 0.108 0.0
C447 C 0.34062 0.16143 0.12804 0.0
H448 H 0.19545 0.34076 0.59496 0.0
H449 H 0.25399 0.30505 0.49662 0.0
H450 H 0.20412 0.31261 0.44963 0.0
H451 H 0.14062 0.32498 0.43613 0.0
H452 H 0.08055 0.35896 0.5342 0.0
H453 H 0.13424 0.35699 0.58084 0.0
C454 C 0.19753 0.33488 0.56326 0.0
C455 C 0.22855 0.32204 0.54979 0.0
C456 C 0.16831 0.33903 0.53595 0.0
C457 C 0.23051 0.31472 0.50833 0.0
C458 C 0.20192 0.31909 0.48117 0.0
C459 C 0.13974 0.33276 0.46755 0.0
C460 C 0.10638 0.34207 0.48139 0.0
C461 C 0.1703 0.33072 0.4946 0.0
C462 C 0.10566 0.35154 0.52249 0.0
C463 C 0.13634 0.35028 0.54936 0.0
H464 H 0.81435 0.14138 0.7723 0.0
H465 H 0.74232 0.05636 0.87316 0.0
H466 H 0.79554 0.11283 0.91938 0.0
H467 H 0.8661 0.18436 0.9316 0.0
H468 H 0.93923 0.26827 0.83059 0.0
H469 H 0.8823 0.21491 0.78475 0.0
C470 C 0.80994 0.13542 0.80438 0.0
C471 C 0.77435 0.09431 0.8189 0.0
C472 C 0.84123 0.16796 0.83114 0.0
C473 C 0.7695 0.08737 0.86078 0.0
C474 C 0.8 0.11975 0.88745 0.0
C475 C 0.8692 0.1913 0.89965 0.0
C476 C 0.9072 0.23029 0.88479 0.0
C477 C 0.83652 0.15989 0.87303 0.0
C478 C 0.91065 0.23841 0.84308 0.0
C479 C 0.87804 0.20784 0.81666 0.0
H480 H 0.67146 0.76613 0.17699 0.0
H481 H 0.67005 0.83148 0.06655 0.0
H482 H 0.66642 0.89061 0.10469 0.0
H483 H 0.66889 0.92667 0.16928 0.0
H484 H 0.67007 0.86109 0.27968 0.0
H485 H 0.66815 0.79919 0.24155 0.0
C486 C 0.66997 0.79304 0.16112 0.0
C487 C 0.67137 0.79425 0.11875 0.0
C488 C 0.66801 0.82715 0.18327 0.0
C489 C 0.66904 0.82942 0.099 0.0
C490 C 0.66712 0.86345 0.12085 0.0
C491 C 0.66825 0.89866 0.18515 0.0
C492 C 0.66993 0.899 0.22751 0.0
C493 C 0.66737 0.86309 0.16299 0.0
C494 C 0.66881 0.86204 0.24724 0.0
C495 C 0.66791 0.82659 0.2254 0.0
H496 H 0.87027 0.68047 0.4324 0.0
H497 H 0.93599 0.66777 0.53788 0.0
H498 H 0.87501 0.66152 0.58 0.0
H499 H 0.80558 0.66503 0.58795 0.0
H500 H 0.74043 0.6794 0.48274 0.0
H501 H 0.7981 0.67936 0.44003 0.0
C502 C 0.87086 0.67558 0.4645 0.0
C503 C 0.90793 0.67486 0.48179 0.0
C504 C 0.83584 0.67273 0.48893 0.0
C505 C 0.90816 0.66884 0.52361 0.0
C506 C 0.87325 0.6653 0.54787 0.0
C507 C 0.80369 0.66775 0.55567 0.0
C508 C 0.7686 0.6725 0.53891 0.0
C509 C 0.83735 0.66813 0.53102 0.0
C510 C 0.76698 0.67592 0.49683 0.0
C511 C 0.80006 0.67592 0.47218 0.0
H512 H 0.24771 0.91406 0.86151 0.0
H513 H 0.19122 0.85122 0.74752 0.0
H514 H 0.12938 0.78746 0.78212 0.0
H515 H 0.08928 0.751 0.84424 0.0
H516 H 0.14509 0.81333 0.95849 0.0
H517 H 0.20929 0.87543 0.92414 0.0
C518 C 0.22211 0.88633 0.84411 0.0
C519 C 0.22436 0.88788 0.80172 0.0
C520 C 0.18633 0.84956 0.86426 0.0
C521 C 0.19066 0.85131 0.78001 0.0
C522 C 0.1551 0.81472 0.79982 0.0
C523 C 0.11555 0.77792 0.86185 0.0
C524 C 0.11193 0.77727 0.90411 0.0
C525 C 0.15231 0.81372 0.84189 0.0
C526 C 0.14672 0.81262 0.92606 0.0
C527 C 0.18347 0.84834 0.90637 0.0
H528 H 0.44486 0.01024 0.33909 0.0
H529 H 0.44726 0.03309 0.21167 0.0
H530 H 0.51527 0.02692 0.20494 0.0
H531 H 0.5734 0.01437 0.23548 0.0
H532 H 0.56737 0.98628 0.3624 0.0
H533 H 0.50078 0.9943 0.36903 0.0
C534 C 0.46072 0.01451 0.30995 0.0
C535 C 0.44186 0.02306 0.27601 0.0
C536 C 0.49859 0.00922 0.30617 0.0
C537 C 0.46169 0.02707 0.23822 0.0
C538 C 0.50033 0.02331 0.23438 0.0
C539 C 0.55738 0.00974 0.26456 0.0
C540 C 0.57544 0.99979 0.29839 0.0
C541 C 0.51891 0.01413 0.26814 0.0
C542 C 0.55404 0.99359 0.3358 0.0
C543 C 0.51615 0.99854 0.3397 0.0
H544 H 0.52883 0.58101 0.58269 0.0
H545 H 0.61381 0.52592 0.61371 0.0
H546 H 0.54797 0.44988 0.61613 0.0
H547 H 0.46557 0.39984 0.61381 0.0
H548 H 0.3803 0.4567 0.59152 0.0
H549 H 0.44673 0.53146 0.58146 0.0
C550 C 0.533 0.55236 0.58963 0.0
C551 C 0.57611 0.55904 0.5979 0.0
C552 C 0.49482 0.50916 0.59283 0.0
C553 C 0.5809 0.52156 0.60725 0.0
C554 C 0.54329 0.47815 0.60871 0.0
C555 C 0.46173 0.42858 0.60631 0.0
C556 C 0.41842 0.42305 0.603 0.0
C557 C 0.50001 0.47164 0.60222 0.0
C558 C 0.41353 0.46048 0.5941 0.0
C559 C 0.45142 0.50308 0.58835 0.0
H560 H 1.00425 0.5598 0.89805 0.0
H561 H 0.02377 0.58115 0.02594 0.0
H562 H 0.02092 0.50908 0.03363 0.0
H563 H 0.01193 0.43918 1.0047 0.0
H564 H 0.99822 0.41921 0.87672 0.0
H565 H 0.99936 0.49107 0.86844 0.0
C566 C 0.00818 0.54879 0.92752 0.0
C567 C 0.01427 0.57607 0.96127 0.0
C568 C 0.00709 0.50724 0.93184 0.0
C569 C 0.01946 0.56124 0.99928 0.0
C570 C 0.01752 0.51977 1.00385 0.0
C571 C 0.00881 0.45046 0.97506 0.0
C572 C 1.00431 0.4238 0.94144 0.0
C573 C 0.01104 0.49236 0.97045 0.0
C574 C 1.00144 0.43919 0.90306 0.0
C575 C 1.00218 0.48025 0.89833 0.0
H576 H 0.0235 0.58229 0.36463 0.0
H577 H 0.01172 0.585 0.49333 0.0
H578 H 0.0106 0.51293 0.49863 0.0
H579 H 0.01125 0.44838 0.46633 0.0
H580 H 0.02831 0.44859 0.33797 0.0
H581 H 0.0295 0.52054 0.33285 0.0
C582 C 0.02058 0.56698 0.39382 0.0
C583 C 0.01707 0.58848 0.42852 0.0
C584 C 0.0211 0.52625 0.39666 0.0
C585 C 0.01431 0.56892 0.46622 0.0
C586 C 0.01362 0.52775 0.46923 0.0
C587 C 0.0154 0.46431 0.43726 0.0
C588 C 0.01941 0.44307 0.40255 0.0
C589 C 0.01676 0.50601 0.43462 0.0
C590 C 0.02535 0.46434 0.36515 0.0
C591 C 0.02579 0.50535 0.36218 0.0
H592 H 0.56202 0.9831 0.69948 0.0
H593 H 0.58758 0.00926 0.82589 0.0
H594 H 0.51467 0.00567 0.83462 0.0
H595 H 0.44382 0.99584 0.80556 0.0
H596 H 0.41711 0.96338 0.67965 0.0
H597 H 0.48972 0.96793 0.67168 0.0
C598 C 0.55165 0.98833 0.72885 0.0
C599 C 0.5802 0.99729 0.76186 0.0
C600 C 0.50922 0.98454 0.73381 0.0
C601 C 0.56611 1.00277 0.80002 0.0
C602 C 0.52446 1.00059 0.80499 0.0
C603 C 0.45372 0.98933 0.7765 0.0
C604 C 0.42482 0.9793 0.74334 0.0
C605 C 0.49566 0.99147 0.77205 0.0
C606 C 0.43826 0.9708 0.70589 0.0
C607 C 0.48006 0.97373 0.70112 0.0
H608 H 0.44726 0.45197 0.02257 0.0
H609 H 0.45442 0.4314 0.14926 0.0
H610 H 0.5228 0.5058 0.1545 0.0
H611 H 0.5798 0.5775 0.12262 0.0
H612 H 0.56677 0.59867 0.99666 0.0
H613 H 0.50126 0.52364 0.99175 0.0
C614 C 0.46422 0.46353 0.05122 0.0
C615 C 0.44657 0.43606 0.08531 0.0
C616 C 0.50209 0.50679 0.05423 0.0
C617 C 0.46788 0.45191 0.12253 0.0
C618 C 0.50676 0.49446 0.12552 0.0
C619 C 0.56243 0.56573 0.0942 0.0
C620 C 0.57826 0.59392 0.06016 0.0
C621 C 0.52401 0.5224 0.09157 0.0
C622 C 0.55522 0.5781 0.02354 0.0
C623 C 0.51784 0.53495 0.02054 0.0
H624 H 0.119 0.78738 0.37457 0.0
H625 H 0.03597 0.84775 0.3914 0.0
H626 H 0.09789 0.92083 0.36777 0.0
H627 H 0.17569 0.9665 0.34045 0.0
H628 H 0.2582 0.90455 0.32958 0.0
H629 H 0.19627 0.83276 0.35206 0.0
C630 C 0.11497 0.81693 0.37438 0.0
C631 C 0.07392 0.813 0.38611 0.0
C632 C 0.15011 0.85799 0.36048 0.0
C633 C 0.06803 0.8507 0.38359 0.0
C634 C 0.10317 0.89216 0.36973 0.0
C635 C 0.17956 0.93695 0.34244 0.0
C636 C 0.2204 0.93994 0.33077 0.0
C637 C 0.14425 0.89602 0.35754 0.0
C638 C 0.22605 0.90222 0.33548 0.0
C639 C 0.19099 0.86139 0.34929 0.0
H640 H 0.33404 0.22744 0.67796 0.0
H641 H 0.19108 0.16266 0.65808 0.0
H642 H 0.18227 0.09027 0.68105 0.0
H643 H 0.21642 0.04552 0.70549 0.0
H644 H 0.36076 0.11038 0.71542 0.0
H645 H 0.36804 0.18299 0.69936 0.0
C646 C 0.30111 0.19718 0.67776 0.0
C647 C 0.26347 0.19959 0.66491 0.0
C648 C 0.29656 0.15618 0.69071 0.0
C649 C 0.22062 0.16094 0.66677 0.0
C650 C 0.21563 0.11981 0.68015 0.0
C651 C 0.24927 0.07585 0.70491 0.0
C652 C 0.2878 0.07322 0.71478 0.0
C653 C 0.25346 0.11705 0.69221 0.0
C654 C 0.33038 0.11217 0.71162 0.0
C655 C 0.33467 0.15353 0.70114 0.0
H656 H 0.17978 0.22142 0.02886 0.0
H657 H 0.25556 0.36652 0.03863 0.0
H658 H 0.18927 0.37135 0.02195 0.0
H659 H 0.11087 0.33512 1.0024 0.0
H660 H 0.03509 0.19138 0.98371 0.0
H661 H 0.10034 0.18484 1.00517 0.0
C662 C 0.18126 0.25386 0.0279 0.0
C663 C 0.22154 0.29334 0.03781 0.0
C664 C 0.14351 0.25663 0.0155 0.0
C665 C 0.22401 0.33545 0.03431 0.0
C666 C 0.18642 0.33835 0.02375 0.0
C667 C 0.10904 0.30249 1.00194 0.0
C668 C 0.06924 0.26402 0.99002 0.0
C669 C 0.14625 0.29928 1.01395 0.0
C670 C 0.06617 0.22156 0.9917 0.0
C671 C 0.10324 0.21788 1.00419 0.0
H672 H 0.9437 0.21905 0.32001 0.0
H673 H 0.93092 0.18073 0.44378 0.0
H674 H 0.85776 0.11364 0.43081 0.0
H675 H 0.798 0.06623 0.38238 0.0
H676 H 0.83265 0.08494 0.25763 0.0
H677 H 0.897 0.15974 0.27091 0.0
C678 C 0.92467 0.19614 0.34423 0.0
C679 C 0.93911 0.2078 0.38419 0.0
C680 C 0.88657 0.15454 0.33528 0.0
C681 C 0.91659 0.17596 0.4144 0.0
C682 C 0.87587 0.13662 0.4064 0.0
C683 C 0.81957 0.08671 0.358 0.0
C684 C 0.80701 0.07332 0.31788 0.0
C685 C 0.86019 0.12604 0.36684 0.0
C686 C 0.83727 0.09827 0.28734 0.0
C687 C 0.87536 0.13996 0.2955 0.0
H688 H 0.78422 0.83203 0.65088 0.0
H689 H 0.63942 0.75307 0.64772 0.0
H690 H 0.63361 0.81757 0.67002 0.0
H691 H 0.66933 0.89523 0.69337 0.0
H692 H 0.8133 0.97243 0.70745 0.0
H693 H 0.82026 0.90967 0.67914 0.0
C694 C 0.75156 0.8295 0.65438 0.0
C695 C 0.71229 0.78898 0.64441 0.0
C696 C 0.74844 0.86583 0.67067 0.0
C697 C 0.6701 0.78505 0.6515 0.0
C698 C 0.66674 0.82154 0.66552 0.0
C699 C 0.70214 0.89778 0.69146 0.0
C700 C 0.7406 0.93738 0.70396 0.0
C701 C 0.70562 0.86181 0.67567 0.0
C702 C 0.78316 0.94148 0.69909 0.0
C703 C 0.78709 0.90584 0.68265 0.0
H704 H 0.77253 0.68171 1.01268 0.0
H705 H 0.84254 0.82567 0.03062 0.0
H706 H 0.91393 0.83019 1.01091 0.0
H707 H 0.95593 0.79206 0.98931 0.0
H708 H 0.88511 0.64695 0.98017 0.0
H709 H 0.81403 0.64383 0.99401 0.0
C710 C 0.80366 0.71392 1.01331 0.0
C711 C 0.80297 0.75309 0.02453 0.0
C712 C 0.84392 0.71606 1.00192 0.0
C713 C 0.84288 0.79498 0.0232 0.0
C714 C 0.8834 0.79753 1.01159 0.0
C715 C 0.92465 0.75998 0.98945 0.0
C716 C 0.92525 0.72001 0.98072 0.0
C717 C 0.88424 0.75821 1.00071 0.0
C718 C 0.88503 0.6784 0.98323 0.0
C719 C 0.84452 0.67649 0.99246 0.0
H720 H 0.32356 0.9593 0.44494 0.0
H721 H 0.39288 0.10472 0.45404 0.0
H722 H 0.39079 0.099 0.52735 0.0
H723 H 0.36496 0.05262 0.58835 0.0
H724 H 0.29177 0.90722 0.579 0.0
H725 H 0.30023 0.91302 0.50597 0.0
C726 C 0.33883 0.98985 0.46287 0.0
C727 C 0.35845 0.03246 0.44401 0.0
C728 C 0.33654 0.98624 0.50485 0.0
C729 C 0.37773 0.07159 0.46778 0.0
C730 C 0.37637 0.0683 0.50967 0.0
C731 C 0.35111 0.02214 0.57039 0.0
C732 C 0.32767 0.97949 0.58908 0.0
C733 C 0.35518 0.02579 0.52846 0.0
C734 C 0.30982 0.9404 0.56535 0.0
C735 C 0.31457 0.94373 0.5236 0.0
H736 H 0.31778 0.37319 0.91591 0.0
H737 H 0.39937 0.30967 0.90933 0.0
H738 H 0.39756 0.31169 0.83607 0.0
H739 H 0.3686 0.32636 0.77456 0.0
H740 H 0.28297 0.38542 0.78013 0.0
H741 H 0.29095 0.39075 0.85342 0.0
C742 C 0.33572 0.36037 0.89846 0.0
C743 C 0.35879 0.34133 0.91813 0.0
C744 C 0.33363 0.36071 0.8563 0.0
C745 C 0.38148 0.32453 0.89503 0.0
C746 C 0.38036 0.32561 0.85313 0.0
C747 C 0.352 0.34095 0.79161 0.0
C748 C 0.32512 0.35546 0.77177 0.0
C749 C 0.3559 0.34287 0.83354 0.0
C750 C 0.30394 0.37416 0.79454 0.0
C751 C 0.30836 0.377 0.83646 0.0
H752 H 0.95746 0.30649 0.25224 0.0
H753 H 0.10228 0.36849 0.24733 0.0
H754 H 0.0997 0.37017 0.17399 0.0
H755 H 0.05619 0.35074 0.11136 0.0
H756 H 0.91122 0.28722 0.11616 0.0
H757 H 0.91432 0.29032 0.1896 0.0
C758 C 0.9886 0.3206 0.23521 0.0
C759 C 0.0301 0.33726 0.25542 0.0
C760 C 0.98682 0.32108 0.19302 0.0
C761 C 0.06994 0.35537 0.23269 0.0
C762 C 0.06844 0.35624 0.1907 0.0
C763 C 0.02512 0.33778 0.12836 0.0
C764 C 0.98341 0.31877 0.10809 0.0
C765 C 0.02705 0.33874 0.17055 0.0
C766 C 0.94369 0.30202 0.13082 0.0
C767 C 0.94544 0.30351 0.17285 0.0
H768 H 0.71013 0.05981 0.451 0.0
H769 H 0.6376 0.91396 0.45327 0.0
H770 H 0.63091 0.91508 0.52612 0.0
H771 H 0.65005 0.95677 0.58927 0.0
H772 H 0.7241 0.10255 0.58841 0.0
H773 H 0.72477 0.10197 0.5148 0.0
C774 C 0.69274 0.02822 0.46741 0.0
C775 C 0.67467 0.98677 0.44659 0.0
C776 C 0.68945 0.02905 0.50954 0.0
C777 C 0.65212 0.94627 0.46841 0.0
C778 C 0.64835 0.94687 0.51014 0.0
C779 C 0.66613 0.98861 0.57313 0.0
C780 C 0.68719 0.02973 0.5945 0.0
C781 C 0.66752 0.98799 0.53103 0.0
C782 C 0.70771 0.07046 0.57284 0.0
C783 C 0.70846 0.0701 0.53074 0.0
H784 H 0.70265 0.66106 0.9029 0.0
H785 H 0.61879 0.72191 0.89381 0.0
H786 H 0.61184 0.70798 0.82142 0.0
H787 H 0.63338 0.68293 0.76076 0.0
H788 H 0.72087 0.62616 0.7691 0.0
H789 H 0.72221 0.63368 0.84229 0.0
C790 C 0.68253 0.67103 0.88519 0.0
C791 C 0.66122 0.69256 0.90374 0.0
C792 C 0.67945 0.66368 0.8436 0.0
C793 C 0.63556 0.70542 0.88028 0.0
C794 C 0.63165 0.69749 0.83891 0.0
C795 C 0.65234 0.67159 0.77851 0.0
C796 C 0.67698 0.65387 0.75943 0.0
C797 C 0.65393 0.6772 0.82026 0.0
C798 C 0.70149 0.63966 0.783 0.0
C799 C 0.70244 0.64421 0.8248 0.0
H800 H 0.93824 0.64033 0.24883 0.0
H801 H 0.08145 0.71162 0.27122 0.0
H802 H 0.09677 0.71723 0.19973 0.0
H803 H 0.07017 0.70623 0.13021 0.0
H804 H 0.92728 0.63331 0.10701 0.0
H805 H 0.91149 0.62404 0.17874 0.0
C806 C 0.9727 0.65653 0.23802 0.0
C807 C 0.00846 0.67573 0.26547 0.0
C808 C 0.98158 0.65975 0.19646 0.0
C809 C 0.05306 0.69663 0.25089 0.0
C810 C 0.06205 0.70003 0.20987 0.0
C811 C 0.03563 0.68798 0.14088 0.0
C812 C 1.0001 0.67093 0.11327 0.0
C813 C 0.02665 0.68241 0.18231 0.0
C814 C 0.95543 0.64706 0.1276 0.0
C815 C 0.94625 0.6417 0.16872 0.0
loop_
_geom_bond_atom_site_label_1
_geom_bond_atom_site_label_2
_geom_bond_distance
_geom_bond_site_symmetry_2
_ccdc_geom_bond_type
Mn0 O5 2.095 . S
Mn0 O15 2.162 . S
Mn0 O16 2.297 1_545 S
Mn0 O24 2.385 1_545 S
Mn0 O25 2.209 1_545 S
Mn0 O26 2.094 . S
Mn1 O6 2.121 . S
Mn1 N8 2.257 . S
Mn1 N17 2.282 . S
Mn1 O25 2.215 . S
Mn1 O27 2.117 1_565 S
C2 O24 1.234 . S
C2 O25 1.283 . S
C3 O15 1.281 . S
C3 O16 1.236 1_545 S
C4 O26 1.240 . S
C4 O27 1.264 . S
O5 Mn0 2.095 . S
O5 C14 1.250 . S
O6 Mn1 2.121 . S
O6 C14 1.258 1_565 S
C7 N8 1.326 . S
C7 C11 1.460 . S
C7 H13 0.929 . S
N8 Mn1 2.257 . S
N8 C7 1.326 . S
N8 C12 1.362 . S
C9 C10 1.258 . S
C9 C12 1.431 . S
C9 C29 1.449 . S
C10 C9 1.258 . S
C10 C11 1.477 . S
C10 H30 0.931 . S
C11 C7 1.460 . S
C11 C10 1.477 . S
C11 H31 0.930 . S
C12 N8 1.362 . S
C12 C9 1.431 . S
C12 C22 1.476 . S
H13 C7 0.929 . S
C14 O5 1.250 . S
C14 O6 1.258 1_545 S
O15 Mn0 2.162 . S
O15 C3 1.281 . S
O16 Mn0 2.297 1_565 S
O16 C3 1.236 1_565 S
N17 Mn1 2.282 . S
N17 C18 1.328 . S
N17 C22 1.318 . S
C18 N17 1.328 . S
C18 C19 1.457 . S
C18 H23 0.929 . S
C19 C18 1.457 . S
C19 C20 1.291 . S
C19 H32 0.931 . S
C20 C19 1.291 . S
C20 C21 1.373 . S
C20 H33 0.929 . S
C21 C20 1.373 . S
C21 C22 1.396 . S
C21 C28 1.403 . S
C22 C12 1.476 . S
C22 N17 1.318 . S
C22 C21 1.396 . S
H23 C18 0.929 . S
O24 Mn0 2.385 1_565 S
O24 C2 1.234 . S
O25 Mn0 2.209 1_565 S
O25 Mn1 2.215 . S
O25 C2 1.283 . S
O26 Mn0 2.094 . S
O26 C4 1.240 . S
O27 Mn1 2.117 1_545 S
O27 C4 1.264 . S
C28 C21 1.403 . S
C28 C29 1.399 . S
C28 H34 0.929 . S
C29 C9 1.449 . S
C29 C28 1.399 . S
C29 H35 0.930 . S
H30 C10 0.931 . S
H31 C11 0.930 . S
H32 C19 0.931 . S
H33 C20 0.929 . S
H34 C28 0.929 . S
H35 C29 0.930 . S
Mn36 O41 2.095 . S
Mn36 O51 2.162 . S
Mn36 O52 2.297 . S
Mn36 O60 2.385 . S
Mn36 O61 2.209 . S
Mn36 O62 2.094 . S
Mn37 O42 2.121 . S
Mn37 N44 2.257 . S
Mn37 N53 2.282 . S
Mn37 O61 2.215 . S
Mn37 O63 2.117 . S
C38 O60 1.234 . S
C38 O61 1.283 . S
C39 O51 1.281 . S
C39 O52 1.236 . S
C40 O62 1.240 . S
C40 O63 1.264 . S
O41 Mn36 2.095 . S
O41 C50 1.250 . S
O42 Mn37 2.121 . S
O42 C50 1.258 . S
C43 N44 1.326 . S
C43 C47 1.460 . S
C43 H49 0.929 . S
N44 Mn37 2.257 . S
N44 C43 1.326 . S
N44 C48 1.362 . S
C45 C46 1.258 . S
C45 C48 1.431 . S
C45 C65 1.449 . S
C46 C45 1.258 . S
C46 C47 1.477 . S
C46 H66 0.931 . S
C47 C43 1.460 . S
C47 C46 1.477 . S
C47 H67 0.930 . S
C48 N44 1.362 . S
C48 C45 1.431 . S
C48 C58 1.476 . S
H49 C43 0.929 . S
C50 O41 1.250 . S
C50 O42 1.258 . S
O51 Mn36 2.162 . S
O51 C39 1.281 . S
O52 Mn36 2.297 . S
O52 C39 1.236 . S
N53 Mn37 2.282 . S
N53 C54 1.328 . S
N53 C58 1.318 . S
C54 N53 1.328 . S
C54 C55 1.457 . S
C54 H59 0.929 . S
C55 C54 1.457 . S
C55 C56 1.291 . S
C55 H68 0.931 . S
C56 C55 1.291 . S
C56 C57 1.373 . S
C56 H69 0.929 . S
C57 C56 1.373 . S
C57 C58 1.396 . S
C57 C64 1.403 . S
C58 C48 1.476 . S
C58 N53 1.318 . S
C58 C57 1.396 . S
H59 C54 0.929 . S
O60 Mn36 2.385 . S
O60 C38 1.234 . S
O61 Mn36 2.209 . S
O61 Mn37 2.215 . S
O61 C38 1.283 . S
O62 Mn36 2.094 . S
O62 C40 1.240 . S
O63 Mn37 2.117 . S
O63 C40 1.264 . S
C64 C57 1.403 . S
C64 C65 1.399 . S
C64 H70 0.929 . S
C65 C45 1.449 . S
C65 C64 1.399 . S
C65 H71 0.930 . S
H66 C46 0.931 . S
H67 C47 0.930 . S
H68 C55 0.931 . S
H69 C56 0.929 . S
H70 C64 0.929 . S
H71 C65 0.930 . S
Mn72 O77 2.095 . S
Mn72 O87 2.162 1_556 S
Mn72 O88 2.297 1_656 S
Mn72 O96 2.385 1_655 S
Mn72 O97 2.209 1_655 S
Mn72 O98 2.094 . S
Mn73 O78 2.121 . S
Mn73 N80 2.257 . S
Mn73 N89 2.282 . S
Mn73 O97 2.215 . S
Mn73 O99 2.117 1_455 S
C74 O96 1.234 . S
C74 O97 1.283 . S
C75 O87 1.281 . S
C75 O88 1.236 1_655 S
C76 O98 1.240 . S
C76 O99 1.264 . S
O77 Mn72 2.095 . S
O77 C86 1.250 . S
O78 Mn73 2.121 . S
O78 C86 1.258 1_455 S
C79 N80 1.326 . S
C79 C83 1.460 . S
C79 H85 0.929 . S
N80 Mn73 2.257 . S
N80 C79 1.326 . S
N80 C84 1.362 . S
C81 C82 1.258 . S
C81 C84 1.431 . S
C81 C101 1.449 . S
C82 C81 1.258 . S
C82 C83 1.477 . S
C82 H102 0.931 . S
C83 C79 1.460 . S
C83 C82 1.477 . S
C83 H103 0.930 . S
C84 N80 1.362 . S
C84 C81 1.431 . S
C84 C94 1.476 . S
H85 C79 0.929 . S
C86 O77 1.250 . S
C86 O78 1.258 1_655 S
O87 Mn72 2.162 1_554 S
O87 C75 1.281 . S
O88 Mn72 2.297 1_454 S
O88 C75 1.236 1_455 S
N89 Mn73 2.282 . S
N89 C90 1.328 . S
N89 C94 1.318 . S
C90 N89 1.328 . S
C90 C91 1.457 . S
C90 H95 0.929 . S
C91 C90 1.457 . S
C91 C92 1.291 . S
C91 H104 0.931 . S
C92 C91 1.291 . S
C92 C93 1.373 . S
C92 H105 0.929 . S
C93 C92 1.373 . S
C93 C94 1.396 . S
C93 C100 1.403 . S
C94 C84 1.476 . S
C94 N89 1.318 . S
C94 C93 1.396 . S
H95 C90 0.929 . S
O96 Mn72 2.385 1_455 S
O96 C74 1.234 . S
O97 Mn72 2.209 1_455 S
O97 Mn73 2.215 . S
O97 C74 1.283 . S
O98 Mn72 2.094 . S
O98 C76 1.240 . S
O99 Mn73 2.117 1_655 S
O99 C76 1.264 . S
C100 C93 1.403 . S
C100 C101 1.399 . S
C100 H106 0.929 . S
C101 C81 1.449 . S
C101 C100 1.399 . S
C101 H107 0.930 . S
H102 C82 0.931 . S
H103 C83 0.930 . S
H104 C91 0.931 . S
H105 C92 0.929 . S
H106 C100 0.929 . S
H107 C101 0.930 . S
Mn108 O113 2.095 . S
Mn108 O123 2.162 . S
Mn108 O124 2.297 1_565 S
Mn108 O132 2.385 1_565 S
Mn108 O133 2.209 1_565 S
Mn108 O134 2.094 . S
Mn109 O114 2.121 . S
Mn109 N116 2.257 . S
Mn109 N125 2.282 . S
Mn109 O133 2.215 . S
Mn109 O135 2.117 1_545 S
C110 O132 1.234 . S
C110 O133 1.283 . S
C111 O123 1.281 . S
C111 O124 1.236 1_565 S
C112 O134 1.240 . S
C112 O135 1.264 . S
O113 Mn108 2.095 . S
O113 C122 1.250 . S
O114 Mn109 2.121 . S
O114 C122 1.258 1_545 S
C115 N116 1.326 . S
C115 C119 1.460 . S
C115 H121 0.929 . S
N116 Mn109 2.257 . S
N116 C115 1.326 . S
N116 C120 1.362 . S
C117 C118 1.258 . S
C117 C120 1.431 . S
C117 C137 1.449 . S
C118 C117 1.258 . S
C118 C119 1.477 . S
C118 H138 0.931 . S
C119 C115 1.460 . S
C119 C118 1.477 . S
C119 H139 0.930 . S
C120 N116 1.362 . S
C120 C117 1.431 . S
C120 C130 1.476 . S
H121 C115 0.929 . S
C122 O113 1.250 . S
C122 O114 1.258 1_565 S
O123 Mn108 2.162 . S
O123 C111 1.281 . S
O124 Mn108 2.297 1_545 S
O124 C111 1.236 1_545 S
N125 Mn109 2.282 . S
N125 C126 1.328 . S
N125 C130 1.318 . S
C126 N125 1.328 . S
C126 C127 1.457 . S
C126 H131 0.929 . S
C127 C126 1.457 . S
C127 C128 1.291 . S
C127 H140 0.931 . S
C128 C127 1.291 . S
C128 C129 1.373 . S
C128 H141 0.929 . S
C129 C128 1.373 . S
C129 C130 1.396 . S
C129 C136 1.403 . S
C130 C120 1.476 . S
C130 N125 1.318 . S
C130 C129 1.396 . S
H131 C126 0.929 . S
O132 Mn108 2.385 1_545 S
O132 C110 1.234 . S
O133 Mn108 2.209 1_545 S
O133 Mn109 2.215 . S
O133 C110 1.283 . S
O134 Mn108 2.094 . S
O134 C112 1.240 . S
O135 Mn109 2.117 1_565 S
O135 C112 1.264 . S
C136 C129 1.403 . S
C136 C137 1.399 . S
C136 H142 0.929 . S
C137 C117 1.449 . S
C137 C136 1.399 . S
C137 H143 0.930 . S
H138 C118 0.931 . S
H139 C119 0.930 . S
H140 C127 0.931 . S
H141 C128 0.929 . S
H142 C136 0.929 . S
H143 C137 0.930 . S
Mn144 O149 2.095 . S
Mn144 O159 2.162 . S
Mn144 O160 2.297 . S
Mn144 O168 2.385 . S
Mn144 O169 2.209 . S
Mn144 O170 2.094 . S
Mn145 O150 2.121 . S
Mn145 N152 2.257 . S
Mn145 N161 2.282 . S
Mn145 O169 2.215 . S
Mn145 O171 2.117 . S
C146 O168 1.234 . S
C146 O169 1.283 . S
C147 O159 1.281 . S
C147 O160 1.236 . S
C148 O170 1.240 . S
C148 O171 1.264 . S
O149 Mn144 2.095 . S
O149 C158 1.250 . S
O150 Mn145 2.121 . S
O150 C158 1.258 . S
C151 N152 1.326 . S
C151 C155 1.460 . S
C151 H157 0.929 . S
N152 Mn145 2.257 . S
N152 C151 1.326 . S
N152 C156 1.362 . S
C153 C154 1.258 . S
C153 C156 1.431 . S
C153 C173 1.449 . S
C154 C153 1.258 . S
C154 C155 1.477 . S
C154 H174 0.931 . S
C155 C151 1.460 . S
C155 C154 1.477 . S
C155 H175 0.930 . S
C156 N152 1.362 . S
C156 C153 1.431 . S
C156 C166 1.476 . S
H157 C151 0.929 . S
C158 O149 1.250 . S
C158 O150 1.258 . S
O159 Mn144 2.162 . S
O159 C147 1.281 . S
O160 Mn144 2.297 . S
O160 C147 1.236 . S
N161 Mn145 2.282 . S
N161 C162 1.328 . S
N161 C166 1.318 . S
C162 N161 1.328 . S
C162 C163 1.457 . S
C162 H167 0.929 . S
C163 C162 1.457 . S
C163 C164 1.291 . S
C163 H176 0.931 . S
C164 C163 1.291 . S
C164 C165 1.373 . S
C164 H177 0.929 . S
C165 C164 1.373 . S
C165 C166 1.396 . S
C165 C172 1.403 . S
C166 C156 1.476 . S
C166 N161 1.318 . S
C166 C165 1.396 . S
H167 C162 0.929 . S
O168 Mn144 2.385 . S
O168 C146 1.234 . S
O169 Mn144 2.209 . S
O169 Mn145 2.215 . S
O169 C146 1.283 . S
O170 Mn144 2.094 . S
O170 C148 1.240 . S
O171 Mn145 2.117 . S
O171 C148 1.264 . S
C172 C165 1.403 . S
C172 C173 1.399 . S
C172 H178 0.929 . S
C173 C153 1.449 . S
C173 C172 1.399 . S
C173 H179 0.930 . S
H174 C154 0.931 . S
H175 C155 0.930 . S
H176 C163 0.931 . S
H177 C164 0.929 . S
H178 C172 0.929 . S
H179 C173 0.930 . S
Mn180 O185 2.095 . S
Mn180 O195 2.162 1_556 S
Mn180 O196 2.297 1_456 S
Mn180 O204 2.385 1_455 S
Mn180 O205 2.209 1_455 S
Mn180 O206 2.094 . S
Mn181 O186 2.121 . S
Mn181 N188 2.257 . S
Mn181 N197 2.282 . S
Mn181 O205 2.215 . S
Mn181 O207 2.117 1_655 S
C182 O204 1.234 . S
C182 O205 1.283 . S
C183 O195 1.281 . S
C183 O196 1.236 1_455 S
C184 O206 1.240 . S
C184 O207 1.264 . S
O185 Mn180 2.095 . S
O185 C194 1.250 . S
O186 Mn181 2.121 . S
O186 C194 1.258 1_655 S
C187 N188 1.326 . S
C187 C191 1.460 . S
C187 H193 0.929 . S
N188 Mn181 2.257 . S
N188 C187 1.326 . S
N188 C192 1.362 . S
C189 C190 1.258 . S
C189 C192 1.431 . S
C189 C209 1.449 . S
C190 C189 1.258 . S
C190 C191 1.477 . S
C190 H210 0.931 . S
C191 C187 1.460 . S
C191 C190 1.477 . S
C191 H211 0.930 . S
C192 N188 1.362 . S
C192 C189 1.431 . S
C192 C202 1.476 . S
H193 C187 0.929 . S
C194 O185 1.250 . S
C194 O186 1.258 1_455 S
O195 Mn180 2.162 1_554 S
O195 C183 1.281 . S
O196 Mn180 2.297 1_654 S
O196 C183 1.236 1_655 S
N197 Mn181 2.282 . S
N197 C198 1.328 . S
N197 C202 1.318 . S
C198 N197 1.328 . S
C198 C199 1.457 . S
C198 H203 0.929 . S
C199 C198 1.457 . S
C199 C200 1.291 . S
C199 H212 0.931 . S
C200 C199 1.291 . S
C200 C201 1.373 . S
C200 H213 0.929 . S
C201 C200 1.373 . S
C201 C202 1.396 . S
C201 C208 1.403 . S
C202 C192 1.476 . S
C202 N197 1.318 . S
C202 C201 1.396 . S
H203 C198 0.929 . S
O204 Mn180 2.385 1_655 S
O204 C182 1.234 . S
O205 Mn180 2.209 1_655 S
O205 Mn181 2.215 . S
O205 C182 1.283 . S
O206 Mn180 2.094 . S
O206 C184 1.240 . S
O207 Mn181 2.117 1_455 S
O207 C184 1.264 . S
C208 C201 1.403 . S
C208 C209 1.399 . S
C208 H214 0.929 . S
C209 C189 1.449 . S
C209 C208 1.399 . S
C209 H215 0.930 . S
H210 C190 0.931 . S
H211 C191 0.930 . S
H212 C199 0.931 . S
H213 C200 0.929 . S
H214 C208 0.929 . S
H215 C209 0.930 . S
Mn216 O221 2.095 . S
Mn216 O231 2.162 . S
Mn216 O232 2.297 1_655 S
Mn216 O240 2.385 1_655 S
Mn216 O241 2.209 1_655 S
Mn216 O242 2.094 . S
Mn217 O222 2.121 . S
Mn217 N224 2.257 . S
Mn217 N233 2.282 . S
Mn217 O241 2.215 . S
Mn217 O243 2.117 1_455 S
C218 O240 1.234 . S
C218 O241 1.283 . S
C219 O231 1.281 . S
C219 O232 1.236 1_655 S
C220 O242 1.240 . S
C220 O243 1.264 . S
O221 Mn216 2.095 . S
O221 C230 1.250 . S
O222 Mn217 2.121 . S
O222 C230 1.258 1_455 S
C223 N224 1.326 . S
C223 C227 1.460 . S
C223 H229 0.929 . S
N224 Mn217 2.257 . S
N224 C223 1.326 . S
N224 C228 1.362 . S
C225 C226 1.258 . S
C225 C228 1.431 . S
C225 C245 1.449 . S
C226 C225 1.258 . S
C226 C227 1.477 . S
C226 H246 0.931 . S
C227 C223 1.460 . S
C227 C226 1.477 . S
C227 H247 0.930 . S
C228 N224 1.362 . S
C228 C225 1.431 . S
C228 C238 1.476 . S
H229 C223 0.929 . S
C230 O221 1.250 . S
C230 O222 1.258 1_655 S
O231 Mn216 2.162 . S
O231 C219 1.281 . S
O232 Mn216 2.297 1_455 S
O232 C219 1.236 1_455 S
N233 Mn217 2.282 . S
N233 C234 1.328 . S
N233 C238 1.318 . S
C234 N233 1.328 . S
C234 C235 1.457 . S
C234 H239 0.929 . S
C235 C234 1.457 . S
C235 C236 1.291 . S
C235 H248 0.931 . S
C236 C235 1.291 . S
C236 C237 1.373 . S
C236 H249 0.929 . S
C237 C236 1.373 . S
C237 C238 1.396 . S
C237 C244 1.403 . S
C238 C228 1.476 . S
C238 N233 1.318 . S
C238 C237 1.396 . S
H239 C234 0.929 . S
O240 Mn216 2.385 1_455 S
O240 C218 1.234 . S
O241 Mn216 2.209 1_455 S
O241 Mn217 2.215 . S
O241 C218 1.283 . S
O242 Mn216 2.094 . S
O242 C220 1.240 . S
O243 Mn217 2.117 1_655 S
O243 C220 1.264 . S
C244 C237 1.403 . S
C244 C245 1.399 . S
C244 H250 0.929 . S
C245 C225 1.449 . S
C245 C244 1.399 . S
C245 H251 0.930 . S
H246 C226 0.931 . S
H247 C227 0.930 . S
H248 C235 0.931 . S
H249 C236 0.929 . S
H250 C244 0.929 . S
H251 C245 0.930 . S
Mn252 O257 2.095 . S
Mn252 O267 2.162 . S
Mn252 O268 2.297 1_565 S
Mn252 O276 2.385 1_565 S
Mn252 O277 2.209 1_565 S
Mn252 O278 2.094 . S
Mn253 O258 2.121 . S
Mn253 N260 2.257 . S
Mn253 N269 2.282 . S
Mn253 O277 2.215 . S
Mn253 O279 2.117 1_545 S
C254 O276 1.234 . S
C254 O277 1.283 . S
C255 O267 1.281 . S
C255 O268 1.236 1_565 S
C256 O278 1.240 . S
C256 O279 1.264 . S
O257 Mn252 2.095 . S
O257 C266 1.250 . S
O258 Mn253 2.121 . S
O258 C266 1.258 1_545 S
C259 N260 1.326 . S
C259 C263 1.460 . S
C259 H265 0.929 . S
N260 Mn253 2.257 . S
N260 C259 1.326 . S
N260 C264 1.362 . S
C261 C262 1.258 . S
C261 C264 1.431 . S
C261 C281 1.449 . S
C262 C261 1.258 . S
C262 C263 1.477 . S
C262 H282 0.931 . S
C263 C259 1.460 . S
C263 C262 1.477 . S
C263 H283 0.930 . S
C264 N260 1.362 . S
C264 C261 1.431 . S
C264 C274 1.476 . S
H265 C259 0.929 . S
C266 O257 1.250 . S
C266 O258 1.258 1_565 S
O267 Mn252 2.162 . S
O267 C255 1.281 . S
O268 Mn252 2.297 1_545 S
O268 C255 1.236 1_545 S
N269 Mn253 2.282 . S
N269 C270 1.328 . S
N269 C274 1.318 . S
C270 N269 1.328 . S
C270 C271 1.457 . S
C270 H275 0.929 . S
C271 C270 1.457 . S
C271 C272 1.291 . S
C271 H284 0.931 . S
C272 C271 1.291 . S
C272 C273 1.373 . S
C272 H285 0.929 . S
C273 C272 1.373 . S
C273 C274 1.396 . S
C273 C280 1.403 . S
C274 C264 1.476 . S
C274 N269 1.318 . S
C274 C273 1.396 . S
H275 C270 0.929 . S
O276 Mn252 2.385 1_545 S
O276 C254 1.234 . S
O277 Mn252 2.209 1_545 S
O277 Mn253 2.215 . S
O277 C254 1.283 . S
O278 Mn252 2.094 . S
O278 C256 1.240 . S
O279 Mn253 2.117 1_565 S
O279 C256 1.264 . S
C280 C273 1.403 . S
C280 C281 1.399 . S
C280 H286 0.929 . S
C281 C261 1.449 . S
C281 C280 1.399 . S
C281 H287 0.930 . S
H282 C262 0.931 . S
H283 C263 0.930 . S
H284 C271 0.931 . S
H285 C272 0.929 . S
H286 C280 0.929 . S
H287 C281 0.930 . S
Mn288 O293 2.095 . S
Mn288 O303 2.162 1_554 S
Mn288 O304 2.297 1_554 S
Mn288 O312 2.385 . S
Mn288 O313 2.209 . S
Mn288 O314 2.094 . S
Mn289 O294 2.121 . S
Mn289 N296 2.257 . S
Mn289 N305 2.282 . S
Mn289 O313 2.215 . S
Mn289 O315 2.117 . S
C290 O312 1.234 . S
C290 O313 1.283 . S
C291 O303 1.281 . S
C291 O304 1.236 . S
C292 O314 1.240 . S
C292 O315 1.264 . S
O293 Mn288 2.095 . S
O293 C302 1.250 . S
O294 Mn289 2.121 . S
O294 C302 1.258 . S
C295 N296 1.326 . S
C295 C299 1.460 . S
C295 H301 0.929 . S
N296 Mn289 2.257 . S
N296 C295 1.326 . S
N296 C300 1.362 . S
C297 C298 1.258 . S
C297 C300 1.431 . S
C297 C317 1.449 . S
C298 C297 1.258 . S
C298 C299 1.477 . S
C298 H318 0.931 . S
C299 C295 1.460 . S
C299 C298 1.477 . S
C299 H319 0.930 . S
C300 N296 1.362 . S
C300 C297 1.431 . S
C300 C310 1.476 . S
H301 C295 0.929 . S
C302 O293 1.250 . S
C302 O294 1.258 . S
O303 Mn288 2.162 1_556 S
O303 C291 1.281 . S
O304 Mn288 2.297 1_556 S
O304 C291 1.236 . S
N305 Mn289 2.282 . S
N305 C306 1.328 . S
N305 C310 1.318 . S
C306 N305 1.328 . S
C306 C307 1.457 . S
C306 H311 0.929 . S
C307 C306 1.457 . S
C307 C308 1.291 . S
C307 H320 0.931 . S
C308 C307 1.291 . S
C308 C309 1.373 . S
C308 H321 0.929 . S
C309 C308 1.373 . S
C309 C310 1.396 . S
C309 C316 1.403 . S
C310 C300 1.476 . S
C310 N305 1.318 . S
C310 C309 1.396 . S
H311 C306 0.929 . S
O312 Mn288 2.385 . S
O312 C290 1.234 . S
O313 Mn288 2.209 . S
O313 Mn289 2.215 . S
O313 C290 1.283 . S
O314 Mn288 2.094 . S
O314 C292 1.240 . S
O315 Mn289 2.117 . S
O315 C292 1.264 . S
C316 C309 1.403 . S
C316 C317 1.399 . S
C316 H322 0.929 . S
C317 C297 1.449 . S
C317 C316 1.399 . S
C317 H323 0.930 . S
H318 C298 0.931 . S
H319 C299 0.930 . S
H320 C307 0.931 . S
H321 C308 0.929 . S
H322 C316 0.929 . S
H323 C317 0.930 . S
Mn324 O329 2.095 . S
Mn324 O339 2.162 . S
Mn324 O340 2.297 1_455 S
Mn324 O348 2.385 1_455 S
Mn324 O349 2.209 1_455 S
Mn324 O350 2.094 . S
Mn325 O330 2.121 . S
Mn325 N332 2.257 . S
Mn325 N341 2.282 . S
Mn325 O349 2.215 . S
Mn325 O351 2.117 1_655 S
C326 O348 1.234 . S
C326 O349 1.283 . S
C327 O339 1.281 . S
C327 O340 1.236 1_455 S
C328 O350 1.240 . S
C328 O351 1.264 . S
O329 Mn324 2.095 . S
O329 C338 1.250 . S
O330 Mn325 2.121 . S
O330 C338 1.258 1_655 S
C331 N332 1.326 . S
C331 C335 1.460 . S
C331 H337 0.929 . S
N332 Mn325 2.257 . S
N332 C331 1.326 . S
N332 C336 1.362 . S
C333 C334 1.258 . S
C333 C336 1.431 . S
C333 C353 1.449 . S
C334 C333 1.258 . S
C334 C335 1.477 . S
C334 H354 0.931 . S
C335 C331 1.460 . S
C335 C334 1.477 . S
C335 H355 0.930 . S
C336 N332 1.362 . S
C336 C333 1.431 . S
C336 C346 1.476 . S
H337 C331 0.929 . S
C338 O329 1.250 . S
C338 O330 1.258 1_455 S
O339 Mn324 2.162 . S
O339 C327 1.281 . S
O340 Mn324 2.297 1_655 S
O340 C327 1.236 1_655 S
N341 Mn325 2.282 . S
N341 C342 1.328 . S
N341 C346 1.318 . S
C342 N341 1.328 . S
C342 C343 1.457 . S
C342 H347 0.929 . S
C343 C342 1.457 . S
C343 C344 1.291 . S
C343 H356 0.931 . S
C344 C343 1.291 . S
C344 C345 1.373 . S
C344 H357 0.929 . S
C345 C344 1.373 . S
C345 C346 1.396 . S
C345 C352 1.403 . S
C346 C336 1.476 . S
C346 N341 1.318 . S
C346 C345 1.396 . S
H347 C342 0.929 . S
O348 Mn324 2.385 1_655 S
O348 C326 1.234 . S
O349 Mn324 2.209 1_655 S
O349 Mn325 2.215 . S
O349 C326 1.283 . S
O350 Mn324 2.094 . S
O350 C328 1.240 . S
O351 Mn325 2.117 1_455 S
O351 C328 1.264 . S
C352 C345 1.403 . S
C352 C353 1.399 . S
C352 H358 0.929 . S
C353 C333 1.449 . S
C353 C352 1.399 . S
C353 H359 0.930 . S
H354 C334 0.931 . S
H355 C335 0.930 . S
H356 C343 0.931 . S
H357 C344 0.929 . S
H358 C352 0.929 . S
H359 C353 0.930 . S
Mn360 O365 2.095 . S
Mn360 O375 2.162 . S
Mn360 O376 2.297 1_545 S
Mn360 O384 2.385 1_545 S
Mn360 O385 2.209 1_545 S
Mn360 O386 2.094 . S
Mn361 O366 2.121 . S
Mn361 N368 2.257 . S
Mn361 N377 2.282 . S
Mn361 O385 2.215 . S
Mn361 O387 2.117 1_565 S
C362 O384 1.234 . S
C362 O385 1.283 . S
C363 O375 1.281 . S
C363 O376 1.236 1_545 S
C364 O386 1.240 . S
C364 O387 1.264 . S
O365 Mn360 2.095 . S
O365 C374 1.250 . S
O366 Mn361 2.121 . S
O366 C374 1.258 1_565 S
C367 N368 1.326 . S
C367 C371 1.460 . S
C367 H373 0.929 . S
N368 Mn361 2.257 . S
N368 C367 1.326 . S
N368 C372 1.362 . S
C369 C370 1.258 . S
C369 C372 1.431 . S
C369 C389 1.449 . S
C370 C369 1.258 . S
C370 C371 1.477 . S
C370 H390 0.931 . S
C371 C367 1.460 . S
C371 C370 1.477 . S
C371 H391 0.930 . S
C372 N368 1.362 . S
C372 C369 1.431 . S
C372 C382 1.476 . S
H373 C367 0.929 . S
C374 O365 1.250 . S
C374 O366 1.258 1_545 S
O375 Mn360 2.162 . S
O375 C363 1.281 . S
O376 Mn360 2.297 1_565 S
O376 C363 1.236 1_565 S
N377 Mn361 2.282 . S
N377 C378 1.328 . S
N377 C382 1.318 . S
C378 N377 1.328 . S
C378 C379 1.457 . S
C378 H383 0.929 . S
C379 C378 1.457 . S
C379 C380 1.291 . S
C379 H392 0.931 . S
C380 C379 1.291 . S
C380 C381 1.373 . S
C380 H393 0.929 . S
C381 C380 1.373 . S
C381 C382 1.396 . S
C381 C388 1.403 . S
C382 C372 1.476 . S
C382 N377 1.318 . S
C382 C381 1.396 . S
H383 C378 0.929 . S
O384 Mn360 2.385 1_565 S
O384 C362 1.234 . S
O385 Mn360 2.209 1_565 S
O385 Mn361 2.215 . S
O385 C362 1.283 . S
O386 Mn360 2.094 . S
O386 C364 1.240 . S
O387 Mn361 2.117 1_545 S
O387 C364 1.264 . S
C388 C381 1.403 . S
C388 C389 1.399 . S
C388 H394 0.929 . S
C389 C369 1.449 . S
C389 C388 1.399 . S
C389 H395 0.930 . S
H390 C370 0.931 . S
H391 C371 0.930 . S
H392 C379 0.931 . S
H393 C380 0.929 . S
H394 C388 0.929 . S
H395 C389 0.930 . S
Mn396 O401 2.095 . S
Mn396 O411 2.162 1_554 S
Mn396 O412 2.297 1_554 S
Mn396 O420 2.385 . S
Mn396 O421 2.209 . S
Mn396 O422 2.094 . S
Mn397 O402 2.121 . S
Mn397 N404 2.257 . S
Mn397 N413 2.282 . S
Mn397 O421 2.215 . S
Mn397 O423 2.117 . S
C398 O420 1.234 . S
C398 O421 1.283 . S
C399 O411 1.281 . S
C399 O412 1.236 . S
C400 O422 1.240 . S
C400 O423 1.264 . S
O401 Mn396 2.095 . S
O401 C410 1.250 . S
O402 Mn397 2.121 . S
O402 C410 1.258 . S
C403 N404 1.326 . S
C403 C407 1.460 . S
C403 H409 0.929 . S
N404 Mn397 2.257 . S
N404 C403 1.326 . S
N404 C408 1.362 . S
C405 C406 1.258 . S
C405 C408 1.431 . S
C405 C425 1.449 . S
C406 C405 1.258 . S
C406 C407 1.477 . S
C406 H426 0.931 . S
C407 C403 1.460 . S
C407 C406 1.477 . S
C407 H427 0.930 . S
C408 N404 1.362 . S
C408 C405 1.431 . S
C408 C418 1.476 . S
H409 C403 0.929 . S
C410 O401 1.250 . S
C410 O402 1.258 . S
O411 Mn396 2.162 1_556 S
O411 C399 1.281 . S
O412 Mn396 2.297 1_556 S
O412 C399 1.236 . S
N413 Mn397 2.282 . S
N413 C414 1.328 . S
N413 C418 1.318 . S
C414 N413 1.328 . S
C414 C415 1.457 . S
C414 H419 0.929 . S
C415 C414 1.457 . S
C415 C416 1.291 . S
C415 H428 0.931 . S
C416 C415 1.291 . S
C416 C417 1.373 . S
C416 H429 0.929 . S
C417 C416 1.373 . S
C417 C418 1.396 . S
C417 C424 1.403 . S
C418 C408 1.476 . S
C418 N413 1.318 . S
C418 C417 1.396 . S
H419 C414 0.929 . S
O420 Mn396 2.385 . S
O420 C398 1.234 . S
O421 Mn396 2.209 . S
O421 Mn397 2.215 . S
O421 C398 1.283 . S
O422 Mn396 2.094 . S
O422 C400 1.240 . S
O423 Mn397 2.117 . S
O423 C400 1.264 . S
C424 C417 1.403 . S
C424 C425 1.399 . S
C424 H430 0.929 . S
C425 C405 1.449 . S
C425 C424 1.399 . S
C425 H431 0.930 . S
H426 C406 0.931 . S
H427 C407 0.930 . S
H428 C415 0.931 . S
H429 C416 0.929 . S
H430 C424 0.929 . S
H431 C425 0.930 . S
H432 C438 0.930 . S
H433 C441 0.930 . S
H434 C442 0.930 . S
H435 C443 0.930 . S
H436 C446 0.930 . S
H437 C447 0.930 . S
C438 H432 0.930 . S
C438 C439 1.355 . S
C438 C440 1.415 . S
C439 C438 1.355 . S
C439 C441 1.419 . S
C440 C438 1.415 . S
C440 C445 1.425 . S
C440 C447 1.409 . S
C441 H433 0.930 . S
C441 C439 1.419 . S
C441 C442 1.362 . S
C442 H434 0.930 . S
C442 C441 1.362 . S
C442 C445 1.409 . S
C443 H435 0.930 . S
C443 C444 1.355 . S
C443 C445 1.415 . S
C444 C443 1.355 . S
C444 C446 1.419 . S
C445 C440 1.425 . S
C445 C442 1.409 . S
C445 C443 1.415 . S
C446 H436 0.930 . S
C446 C444 1.419 . S
C446 C447 1.362 . S
C447 H437 0.930 . S
C447 C440 1.409 . S
C447 C446 1.362 . S
H448 C454 0.930 . S
H449 C457 0.930 . S
H450 C458 0.930 . S
H451 C459 0.930 . S
H452 C462 0.930 . S
H453 C463 0.930 . S
C454 H448 0.930 . S
C454 C455 1.355 . S
C454 C456 1.415 . S
C455 C454 1.355 . S
C455 C457 1.419 . S
C456 C454 1.415 . S
C456 C461 1.425 . S
C456 C463 1.409 . S
C457 H449 0.930 . S
C457 C455 1.419 . S
C457 C458 1.362 . S
C458 H450 0.930 . S
C458 C457 1.362 . S
C458 C461 1.409 . S
C459 H451 0.930 . S
C459 C460 1.355 . S
C459 C461 1.415 . S
C460 C459 1.355 . S
C460 C462 1.419 . S
C461 C456 1.425 . S
C461 C458 1.409 . S
C461 C459 1.415 . S
C462 H452 0.930 . S
C462 C460 1.419 . S
C462 C463 1.362 . S
C463 H453 0.930 . S
C463 C456 1.409 . S
C463 C462 1.362 . S
H464 C470 0.930 . S
H465 C473 0.930 . S
H466 C474 0.930 . S
H467 C475 0.930 . S
H468 C478 0.930 . S
H469 C479 0.930 . S
C470 H464 0.930 . S
C470 C471 1.355 . S
C470 C472 1.415 . S
C471 C470 1.355 . S
C471 C473 1.419 . S
C472 C470 1.415 . S
C472 C477 1.425 . S
C472 C479 1.409 . S
C473 H465 0.930 . S
C473 C471 1.419 . S
C473 C474 1.362 . S
C474 H466 0.930 . S
C474 C473 1.362 . S
C474 C477 1.409 . S
C475 H467 0.930 . S
C475 C476 1.355 . S
C475 C477 1.415 . S
C476 C475 1.355 . S
C476 C478 1.419 . S
C477 C472 1.425 . S
C477 C474 1.409 . S
C477 C475 1.415 . S
C478 H468 0.930 . S
C478 C476 1.419 . S
C478 C479 1.362 . S
C479 H469 0.930 . S
C479 C472 1.409 . S
C479 C478 1.362 . S
H480 C486 0.930 . S
H481 C489 0.930 . S
H482 C490 0.930 . S
H483 C491 0.930 . S
H484 C494 0.930 . S
H485 C495 0.930 . S
C486 H480 0.930 . S
C486 C487 1.355 . S
C486 C488 1.415 . S
C487 C486 1.355 . S
C487 C489 1.419 . S
C488 C486 1.415 . S
C488 C493 1.425 . S
C488 C495 1.409 . S
C489 H481 0.930 . S
C489 C487 1.419 . S
C489 C490 1.362 . S
C490 H482 0.930 . S
C490 C489 1.362 . S
C490 C493 1.409 . S
C491 H483 0.930 . S
C491 C492 1.355 . S
C491 C493 1.415 . S
C492 C491 1.355 . S
C492 C494 1.419 . S
C493 C488 1.425 . S
C493 C490 1.409 . S
C493 C491 1.415 . S
C494 H484 0.930 . S
C494 C492 1.419 . S
C494 C495 1.362 . S
C495 H485 0.930 . S
C495 C488 1.409 . S
C495 C494 1.362 . S
H496 C502 0.930 . S
H497 C505 0.930 . S
H498 C506 0.930 . S
H499 C507 0.930 . S
H500 C510 0.930 . S
H501 C511 0.930 . S
C502 H496 0.930 . S
C502 C503 1.355 . S
C502 C504 1.415 . S
C503 C502 1.355 . S
C503 C505 1.419 . S
C504 C502 1.415 . S
C504 C509 1.425 . S
C504 C511 1.409 . S
C505 H497 0.930 . S
C505 C503 1.419 . S
C505 C506 1.362 . S
C506 H498 0.930 . S
C506 C505 1.362 . S
C506 C509 1.409 . S
C507 H499 0.930 . S
C507 C508 1.355 . S
C507 C509 1.415 . S
C508 C507 1.355 . S
C508 C510 1.419 . S
C509 C504 1.425 . S
C509 C506 1.409 . S
C509 C507 1.415 . S
C510 H500 0.930 . S
C510 C508 1.419 . S
C510 C511 1.362 . S
C511 H501 0.930 . S
C511 C504 1.409 . S
C511 C510 1.362 . S
H512 C518 0.930 . S
H513 C521 0.930 . S
H514 C522 0.930 . S
H515 C523 0.930 . S
H516 C526 0.930 . S
H517 C527 0.930 . S
C518 H512 0.930 . S
C518 C519 1.355 . S
C518 C520 1.415 . S
C519 C518 1.355 . S
C519 C521 1.419 . S
C520 C518 1.415 . S
C520 C525 1.425 . S
C520 C527 1.409 . S
C521 H513 0.930 . S
C521 C519 1.419 . S
C521 C522 1.362 . S
C522 H514 0.930 . S
C522 C521 1.362 . S
C522 C525 1.409 . S
C523 H515 0.930 . S
C523 C524 1.355 . S
C523 C525 1.415 . S
C524 C523 1.355 . S
C524 C526 1.419 . S
C525 C520 1.425 . S
C525 C522 1.409 . S
C525 C523 1.415 . S
C526 H516 0.930 . S
C526 C524 1.419 . S
C526 C527 1.362 . S
C527 H517 0.930 . S
C527 C520 1.409 . S
C527 C526 1.362 . S
H528 C534 0.930 . S
H529 C537 0.930 . S
H530 C538 0.930 . S
H531 C539 0.930 . S
H532 C542 0.930 . S
H533 C543 0.930 . S
C534 H528 0.930 . S
C534 C535 1.355 1_565 S
C534 C536 1.415 . S
C535 C534 1.355 1_545 S
C535 C537 1.419 . S
C536 C534 1.415 . S
C536 C541 1.425 1_565 S
C536 C543 1.409 . S
C537 H529 0.930 . S
C537 C535 1.419 . S
C537 C538 1.362 . S
C538 H530 0.930 . S
C538 C537 1.362 . S
C538 C541 1.409 . S
C539 H531 0.930 . S
C539 C540 1.355 1_545 S
C539 C541 1.415 . S
C540 C539 1.355 1_565 S
C540 C542 1.419 . S
C541 C536 1.425 1_545 S
C541 C538 1.409 . S
C541 C539 1.415 . S
C542 H532 0.930 . S
C542 C540 1.419 . S
C542 C543 1.362 . S
C543 H533 0.930 . S
C543 C536 1.409 . S
C543 C542 1.362 . S
H544 C550 0.930 . S
H545 C553 0.930 . S
H546 C554 0.930 . S
H547 C555 0.930 . S
H548 C558 0.930 . S
H549 C559 0.930 . S
C550 H544 0.930 . S
C550 C551 1.355 . S
C550 C552 1.415 . S
C551 C550 1.355 . S
C551 C553 1.419 . S
C552 C550 1.415 . S
C552 C557 1.425 . S
C552 C559 1.409 . S
C553 H545 0.930 . S
C553 C551 1.419 . S
C553 C554 1.362 . S
C554 H546 0.930 . S
C554 C553 1.362 . S
C554 C557 1.409 . S
C555 H547 0.930 . S
C555 C556 1.355 . S
C555 C557 1.415 . S
C556 C555 1.355 . S
C556 C558 1.419 . S
C557 C552 1.425 . S
C557 C554 1.409 . S
C557 C555 1.415 . S
C558 H548 0.930 . S
C558 C556 1.419 . S
C558 C559 1.362 . S
C559 H549 0.930 . S
C559 C552 1.409 . S
C559 C558 1.362 . S
H560 C566 0.930 . S
H561 C569 0.930 . S
H562 C570 0.930 . S
H563 C571 0.930 . S
H564 C574 0.930 . S
H565 C575 0.930 . S
C566 H560 0.930 . S
C566 C567 1.355 . S
C566 C568 1.415 . S
C567 C566 1.355 . S
C567 C569 1.419 1_455 S
C568 C566 1.415 . S
C568 C573 1.425 1_455 S
C568 C575 1.409 . S
C569 H561 0.930 . S
C569 C567 1.419 1_655 S
C569 C570 1.362 . S
C570 H562 0.930 . S
C570 C569 1.362 . S
C570 C573 1.409 . S
C571 H563 0.930 . S
C571 C572 1.355 . S
C571 C573 1.415 . S
C572 C571 1.355 . S
C572 C574 1.419 1_655 S
C573 C568 1.425 1_655 S
C573 C570 1.409 . S
C573 C571 1.415 . S
C574 H564 0.930 . S
C574 C572 1.419 1_455 S
C574 C575 1.362 . S
C575 H565 0.930 . S
C575 C568 1.409 . S
C575 C574 1.362 . S
H576 C582 0.930 . S
H577 C585 0.930 . S
H578 C586 0.930 . S
H579 C587 0.930 . S
H580 C590 0.930 . S
H581 C591 0.930 . S
C582 H576 0.930 . S
C582 C583 1.355 1_455 S
C582 C584 1.415 . S
C583 C582 1.355 1_655 S
C583 C585 1.419 . S
C584 C582 1.415 . S
C584 C589 1.425 1_455 S
C584 C591 1.409 . S
C585 H577 0.930 . S
C585 C583 1.419 . S
C585 C586 1.362 . S
C586 H578 0.930 . S
C586 C585 1.362 . S
C586 C589 1.409 . S
C587 H579 0.930 . S
C587 C588 1.355 1_655 S
C587 C589 1.415 . S
C588 C587 1.355 1_455 S
C588 C590 1.419 . S
C589 C584 1.425 1_655 S
C589 C586 1.409 . S
C589 C587 1.415 . S
C590 H580 0.930 . S
C590 C588 1.419 . S
C590 C591 1.362 . S
C591 H581 0.930 . S
C591 C584 1.409 . S
C591 C590 1.362 . S
H592 C598 0.930 . S
H593 C601 0.930 . S
H594 C602 0.930 . S
H595 C603 0.930 . S
H596 C606 0.930 . S
H597 C607 0.930 . S
C598 H592 0.930 . S
C598 C599 1.355 . S
C598 C600 1.415 . S
C599 C598 1.355 . S
C599 C601 1.419 1_545 S
C600 C598 1.415 . S
C600 C605 1.425 1_545 S
C600 C607 1.409 . S
C601 H593 0.930 . S
C601 C599 1.419 1_565 S
C601 C602 1.362 . S
C602 H594 0.930 . S
C602 C601 1.362 . S
C602 C605 1.409 . S
C603 H595 0.930 . S
C603 C604 1.355 . S
C603 C605 1.415 . S
C604 C603 1.355 . S
C604 C606 1.419 1_565 S
C605 C600 1.425 1_565 S
C605 C602 1.409 . S
C605 C603 1.415 . S
C606 H596 0.930 . S
C606 C604 1.419 1_545 S
C606 C607 1.362 . S
C607 H597 0.930 . S
C607 C600 1.409 . S
C607 C606 1.362 . S
H608 C614 0.930 . S
H609 C617 0.930 . S
H610 C618 0.930 . S
H611 C619 0.930 . S
H612 C622 0.930 . S
H613 C623 0.930 . S
C614 H608 0.930 . S
C614 C615 1.355 . S
C614 C616 1.415 . S
C615 C614 1.355 . S
C615 C617 1.419 . S
C616 C614 1.415 . S
C616 C621 1.425 . S
C616 C623 1.409 . S
C617 H609 0.930 . S
C617 C615 1.419 . S
C617 C618 1.362 . S
C618 H610 0.930 . S
C618 C617 1.362 . S
C618 C621 1.409 . S
C619 H611 0.930 . S
C619 C620 1.355 . S
C619 C621 1.415 . S
C620 C619 1.355 . S
C620 C622 1.419 . S
C621 C616 1.425 . S
C621 C618 1.409 . S
C621 C619 1.415 . S
C622 H612 0.930 . S
C622 C620 1.419 . S
C622 C623 1.362 . S
C623 H613 0.930 . S
C623 C616 1.409 . S
C623 C622 1.362 . S
H624 C630 0.930 . S
H625 C633 0.930 . S
H626 C634 0.930 . S
H627 C635 0.930 . S
H628 C638 0.930 . S
H629 C639 0.930 . S
C630 H624 0.930 . S
C630 C631 1.355 . S
C630 C632 1.415 . S
C631 C630 1.355 . S
C631 C633 1.419 . S
C632 C630 1.415 . S
C632 C637 1.425 . S
C632 C639 1.409 . S
C633 H625 0.930 . S
C633 C631 1.419 . S
C633 C634 1.362 . S
C634 H626 0.930 . S
C634 C633 1.362 . S
C634 C637 1.409 . S
C635 H627 0.930 . S
C635 C636 1.355 . S
C635 C637 1.415 . S
C636 C635 1.355 . S
C636 C638 1.419 . S
C637 C632 1.425 . S
C637 C634 1.409 . S
C637 C635 1.415 . S
C638 H628 0.930 . S
C638 C636 1.419 . S
C638 C639 1.362 . S
C639 H629 0.930 . S
C639 C632 1.409 . S
C639 C638 1.362 . S
H640 C646 0.930 . S
H641 C649 0.930 . S
H642 C650 0.930 . S
H643 C651 0.930 . S
H644 C654 0.930 . S
H645 C655 0.930 . S
C646 H640 0.930 . S
C646 C647 1.355 . S
C646 C648 1.415 . S
C647 C646 1.355 . S
C647 C649 1.419 . S
C648 C646 1.415 . S
C648 C653 1.425 . S
C648 C655 1.409 . S
C649 H641 0.930 . S
C649 C647 1.419 . S
C649 C650 1.362 . S
C650 H642 0.930 . S
C650 C649 1.362 . S
C650 C653 1.409 . S
C651 H643 0.930 . S
C651 C652 1.355 . S
C651 C653 1.415 . S
C652 C651 1.355 . S
C652 C654 1.419 . S
C653 C648 1.425 . S
C653 C650 1.409 . S
C653 C651 1.415 . S
C654 H644 0.930 . S
C654 C652 1.419 . S
C654 C655 1.362 . S
C655 H645 0.930 . S
C655 C648 1.409 . S
C655 C654 1.362 . S
H656 C662 0.930 . S
H657 C665 0.930 . S
H658 C666 0.930 . S
H659 C667 0.930 . S
H660 C670 0.930 . S
H661 C671 0.930 . S
C662 H656 0.930 . S
C662 C663 1.355 1_556 S
C662 C664 1.415 . S
C663 C662 1.355 1_554 S
C663 C665 1.419 . S
C664 C662 1.415 . S
C664 C669 1.425 1_556 S
C664 C671 1.409 . S
C665 H657 0.930 . S
C665 C663 1.419 . S
C665 C666 1.362 . S
C666 H658 0.930 . S
C666 C665 1.362 . S
C666 C669 1.409 . S
C667 H659 0.930 . S
C667 C668 1.355 1_554 S
C667 C669 1.415 . S
C668 C667 1.355 1_556 S
C668 C670 1.419 . S
C669 C664 1.425 1_554 S
C669 C666 1.409 . S
C669 C667 1.415 . S
C670 H660 0.930 . S
C670 C668 1.419 . S
C670 C671 1.362 . S
C671 H661 0.930 . S
C671 C664 1.409 . S
C671 C670 1.362 . S
H672 C678 0.930 . S
H673 C681 0.930 . S
H674 C682 0.930 . S
H675 C683 0.930 . S
H676 C686 0.930 . S
H677 C687 0.930 . S
C678 H672 0.930 . S
C678 C679 1.355 . S
C678 C680 1.415 . S
C679 C678 1.355 . S
C679 C681 1.419 . S
C680 C678 1.415 . S
C680 C685 1.425 . S
C680 C687 1.409 . S
C681 H673 0.930 . S
C681 C679 1.419 . S
C681 C682 1.362 . S
C682 H674 0.930 . S
C682 C681 1.362 . S
C682 C685 1.409 . S
C683 H675 0.930 . S
C683 C684 1.355 . S
C683 C685 1.415 . S
C684 C683 1.355 . S
C684 C686 1.419 . S
C685 C680 1.425 . S
C685 C682 1.409 . S
C685 C683 1.415 . S
C686 H676 0.930 . S
C686 C684 1.419 . S
C686 C687 1.362 . S
C687 H677 0.930 . S
C687 C680 1.409 . S
C687 C686 1.362 . S
H688 C694 0.930 . S
H689 C697 0.930 . S
H690 C698 0.930 . S
H691 C699 0.930 . S
H692 C702 0.930 . S
H693 C703 0.930 . S
C694 H688 0.930 . S
C694 C695 1.355 . S
C694 C696 1.415 . S
C695 C694 1.355 . S
C695 C697 1.419 . S
C696 C694 1.415 . S
C696 C701 1.425 . S
C696 C703 1.409 . S
C697 H689 0.930 . S
C697 C695 1.419 . S
C697 C698 1.362 . S
C698 H690 0.930 . S
C698 C697 1.362 . S
C698 C701 1.409 . S
C699 H691 0.930 . S
C699 C700 1.355 . S
C699 C701 1.415 . S
C700 C699 1.355 . S
C700 C702 1.419 . S
C701 C696 1.425 . S
C701 C698 1.409 . S
C701 C699 1.415 . S
C702 H692 0.930 . S
C702 C700 1.419 . S
C702 C703 1.362 . S
C703 H693 0.930 . S
C703 C696 1.409 . S
C703 C702 1.362 . S
H704 C710 0.930 . S
H705 C713 0.930 . S
H706 C714 0.930 . S
H707 C715 0.930 . S
H708 C718 0.930 . S
H709 C719 0.930 . S
C710 H704 0.930 . S
C710 C711 1.355 1_556 S
C710 C712 1.415 . S
C711 C710 1.355 1_554 S
C711 C713 1.419 . S
C712 C710 1.415 . S
C712 C717 1.425 1_556 S
C712 C719 1.409 . S
C713 H705 0.930 . S
C713 C711 1.419 . S
C713 C714 1.362 . S
C714 H706 0.930 . S
C714 C713 1.362 . S
C714 C717 1.409 . S
C715 H707 0.930 . S
C715 C716 1.355 1_554 S
C715 C717 1.415 . S
C716 C715 1.355 1_556 S
C716 C718 1.419 . S
C717 C712 1.425 1_554 S
C717 C714 1.409 . S
C717 C715 1.415 . S
C718 H708 0.930 . S
C718 C716 1.419 . S
C718 C719 1.362 . S
C719 H709 0.930 . S
C719 C712 1.409 . S
C719 C718 1.362 . S
H720 C726 0.930 . S
H721 C729 0.930 . S
H722 C730 0.930 . S
H723 C731 0.930 . S
H724 C734 0.930 . S
H725 C735 0.930 . S
C726 H720 0.930 . S
C726 C727 1.355 1_565 S
C726 C728 1.415 . S
C727 C726 1.355 1_545 S
C727 C729 1.419 . S
C728 C726 1.415 . S
C728 C733 1.425 1_565 S
C728 C735 1.409 . S
C729 H721 0.930 . S
C729 C727 1.419 . S
C729 C730 1.362 . S
C730 H722 0.930 . S
C730 C729 1.362 . S
C730 C733 1.409 . S
C731 H723 0.930 . S
C731 C732 1.355 1_545 S
C731 C733 1.415 . S
C732 C731 1.355 1_565 S
C732 C734 1.419 . S
C733 C728 1.425 1_545 S
C733 C730 1.409 . S
C733 C731 1.415 . S
C734 H724 0.930 . S
C734 C732 1.419 . S
C734 C735 1.362 . S
C735 H725 0.930 . S
C735 C728 1.409 . S
C735 C734 1.362 . S
H736 C742 0.930 . S
H737 C745 0.930 . S
H738 C746 0.930 . S
H739 C747 0.930 . S
H740 C750 0.930 . S
H741 C751 0.930 . S
C742 H736 0.930 . S
C742 C743 1.355 . S
C742 C744 1.415 . S
C743 C742 1.355 . S
C743 C745 1.419 . S
C744 C742 1.415 . S
C744 C749 1.425 . S
C744 C751 1.409 . S
C745 H737 0.930 . S
C745 C743 1.419 . S
C745 C746 1.362 . S
C746 H738 0.930 . S
C746 C745 1.362 . S
C746 C749 1.409 . S
C747 H739 0.930 . S
C747 C748 1.355 . S
C747 C749 1.415 . S
C748 C747 1.355 . S
C748 C750 1.419 . S
C749 C744 1.425 . S
C749 C746 1.409 . S
C749 C747 1.415 . S
C750 H740 0.930 . S
C750 C748 1.419 . S
C750 C751 1.362 . S
C751 H741 0.930 . S
C751 C744 1.409 . S
C751 C750 1.362 . S
H752 C758 0.930 1_655 S
H753 C761 0.930 . S
H754 C762 0.930 . S
H755 C763 0.930 1_455 S
H756 C766 0.930 . S
H757 C767 0.930 . S
C758 H752 0.930 1_455 S
C758 C759 1.355 . S
C758 C760 1.415 1_455 S
C759 C758 1.355 . S
C759 C761 1.419 . S
C760 C758 1.415 1_655 S
C760 C765 1.425 1_655 S
C760 C767 1.409 . S
C761 H753 0.930 . S
C761 C759 1.419 . S
C761 C762 1.362 . S
C762 H754 0.930 . S
C762 C761 1.362 . S
C762 C765 1.409 . S
C763 H755 0.930 1_655 S
C763 C764 1.355 . S
C763 C765 1.415 1_655 S
C764 C763 1.355 . S
C764 C766 1.419 . S
C765 C760 1.425 1_455 S
C765 C762 1.409 . S
C765 C763 1.415 1_455 S
C766 H756 0.930 . S
C766 C764 1.419 . S
C766 C767 1.362 . S
C767 H757 0.930 . S
C767 C760 1.409 . S
C767 C766 1.362 . S
H768 C774 0.930 . S
H769 C777 0.930 . S
H770 C778 0.930 . S
H771 C779 0.930 . S
H772 C782 0.930 . S
H773 C783 0.930 . S
C774 H768 0.930 . S
C774 C775 1.355 1_545 S
C774 C776 1.415 . S
C775 C774 1.355 1_565 S
C775 C777 1.419 . S
C776 C774 1.415 . S
C776 C781 1.425 1_545 S
C776 C783 1.409 . S
C777 H769 0.930 . S
C777 C775 1.419 . S
C777 C778 1.362 . S
C778 H770 0.930 . S
C778 C777 1.362 . S
C778 C781 1.409 . S
C779 H771 0.930 . S
C779 C780 1.355 1_565 S
C779 C781 1.415 . S
C780 C779 1.355 1_545 S
C780 C782 1.419 . S
C781 C776 1.425 1_565 S
C781 C778 1.409 . S
C781 C779 1.415 . S
C782 H772 0.930 . S
C782 C780 1.419 . S
C782 C783 1.362 . S
C783 H773 0.930 . S
C783 C776 1.409 . S
C783 C782 1.362 . S
H784 C790 0.930 . S
H785 C793 0.930 . S
H786 C794 0.930 . S
H787 C795 0.930 . S
H788 C798 0.930 . S
H789 C799 0.930 . S
C790 H784 0.930 . S
C790 C791 1.355 . S
C790 C792 1.415 . S
C791 C790 1.355 . S
C791 C793 1.419 . S
C792 C790 1.415 . S
C792 C797 1.425 . S
C792 C799 1.409 . S
C793 H785 0.930 . S
C793 C791 1.419 . S
C793 C794 1.362 . S
C794 H786 0.930 . S
C794 C793 1.362 . S
C794 C797 1.409 . S
C795 H787 0.930 . S
C795 C796 1.355 . S
C795 C797 1.415 . S
C796 C795 1.355 . S
C796 C798 1.419 . S
C797 C792 1.425 . S
C797 C794 1.409 . S
C797 C795 1.415 . S
C798 H788 0.930 . S
C798 C796 1.419 . S
C798 C799 1.362 . S
C799 H789 0.930 . S
C799 C792 1.409 . S
C799 C798 1.362 . S
H800 C806 0.930 . S
H801 C809 0.930 . S
H802 C810 0.930 . S
H803 C811 0.930 . S
H804 C814 0.930 . S
H805 C815 0.930 . S
C806 H800 0.930 . S
C806 C807 1.355 . S
C806 C808 1.415 . S
C807 C806 1.355 . S
C807 C809 1.419 1_655 S
C808 C806 1.415 . S
C808 C813 1.425 1_655 S
C808 C815 1.409 . S
C809 H801 0.930 . S
C809 C807 1.419 1_455 S
C809 C810 1.362 . S
C810 H802 0.930 . S
C810 C809 1.362 . S
C810 C813 1.409 . S
C811 H803 0.930 . S
C811 C812 1.355 . S
C811 C813 1.415 . S
C812 C811 1.355 . S
C812 C814 1.419 1_455 S
C813 C808 1.425 1_455 S
C813 C810 1.409 . S
C813 C811 1.415 . S
C814 H804 0.930 . S
C814 C812 1.419 1_655 S
C814 C815 1.362 . S
C815 H805 0.930 . S
C815 C808 1.409 . S
C815 C814 1.362 . S
C439 C4 1.721 . S
C444 C292 1.721 . S
C455 C40 1.704 . S
C460 C328 1.710 . S
C471 C364 1.706 . S
C476 C76 1.713 . S
C487 C400 1.716 . S
C492 C112 1.708 . S
C503 C220 1.704 . S
C508 C148 1.709 . S
C519 C256 1.716 . S
C524 C184 1.708 . S
C535 C14 1.521 . S
C540 C122 1.528 . S
C551 C158 1.535 . S
C556 C50 1.507 . S
C567 C194 1.495 . S
C572 C86 1.494 . S
C583 C230 1.534 . S
C588 C338 1.495 . S
C599 C374 1.494 . S
C604 C266 1.495 . S
C615 C302 1.522 . S
C620 C410 1.528 . S
C631 C218 1.014 . S
C636 C2 1.020 . S
C647 C38 1.019 . S
C652 C254 1.018 . S
C663 C290 1.010 . S
C668 C74 0.989 . S
C679 C326 1.020 . S
C684 C110 1.015 . S
C695 C146 0.997 . S
C700 C362 0.970 . S
C711 C398 1.020 . S
C716 C182 1.015 . S
C727 C3 1.124 . S
C732 C255 1.114 . S
C743 C291 1.100 . S
C748 C39 1.115 . S
C759 C327 1.114 . S
C764 C75 1.125 . S
C775 C111 1.119 . S
C780 C363 1.127 . S
C791 C399 1.097 . S
C796 C147 1.082 . S
C807 C219 1.072 . S
C812 C183 1.079 . S
