# Generated by pormake.
# Topology fnv, (5)-cn, num edge types: 1
# Building blocks:
#     Node 0, Type 0, BuildingBlock: BEQFEK_clean_sbu_0, # of connection points: 5
#     Node 1, Type 0, BuildingBlock: BEQFEK_clean_sbu_0, # of connection points: 5
#     Node 2, Type 0, BuildingBlock: BEQFEK_clean_sbu_0, # of connection points: 5
#     Node 3, Type 0, BuildingBlock: BEQFEK_clean_sbu_0, # of connection points: 5
#     Node 4, Type 0, BuildingBlock: BEQFEK_clean_sbu_0, # of connection points: 5
#     Node 5, Type 0, BuildingBlock: BEQFEK_clean_sbu_0, # of connection points: 5
#     Edge 6, Type (0, 0), BuildingBlock: AJUNOK_clean_linker_0, # of connection points: 2
#     Edge 7, Type (0, 0), BuildingBlock: AJUNOK_clean_linker_0, # of connection points: 2
#     Edge 8, Type (0, 0), BuildingBlock: AJUNOK_clean_linker_0, # of connection points: 2
#     Edge 9, Type (0, 0), BuildingBlock: AJUNOK_clean_linker_0, # of connection points: 2
#     Edge 10, Type (0, 0), BuildingBlock: AJUNOK_clean_linker_0, # of connection points: 2
#     Edge 11, Type (0, 0), BuildingBlock: AJUNOK_clean_linker_0, # of connection points: 2
#     Edge 12, Type (0, 0), BuildingBlock: AJUNOK_clean_linker_0, # of connection points: 2
#     Edge 13, Type (0, 0), BuildingBlock: AJUNOK_clean_linker_0, # of connection points: 2
#     Edge 14, Type (0, 0), BuildingBlock: AJUNOK_clean_linker_0, # of connection points: 2
#     Edge 15, Type (0, 0), BuildingBlock: AJUNOK_clean_linker_0, # of connection points: 2
#     Edge 16, Type (0, 0), BuildingBlock: AJUNOK_clean_linker_0, # of connection points: 2
#     Edge 17, Type (0, 0), BuildingBlock: AJUNOK_clean_linker_0, # of connection points: 2
#     Edge 18, Type (0, 0), BuildingBlock: AJUNOK_clean_linker_0, # of connection points: 2
#     Edge 19, Type (0, 0), BuildingBlock: AJUNOK_clean_linker_0, # of connection points: 2
#     Edge 20, Type (0, 0), BuildingBlock: AJUNOK_clean_linker_0, # of connection points: 2
# Relax obj value: 0.507
# Max RMSD: 0.271
# Mean RMSD: 0.271
data_MOF--net-fnv--node1-BEQFEK_clean_sbu_0--edge1-AJUNOK_clean_linker_0
_symmetry_space_group_name_H-M    P1
_symmetry_Int_Tables_number       1
_symmetry_cell_setting            triclinic
loop_
_symmetry_equiv_pos_as_xyz
'x, y, z'
_cell_length_a     27.148813
_cell_length_b     27.048412
_cell_length_c     24.121508
_cell_angle_alpha  90.146458
_cell_angle_beta   90.002819
_cell_angle_gamma 120.06675
loop_
_atom_site_label
_atom_site_type_symbol
_atom_site_fract_x
_atom_site_fract_y
_atom_site_fract_z
_atom_type_partial_charge
Co0 Co 0.264 0.36811 0.94648 0.0
Co1 Co 0.27133 0.46911 0.01692 0.0
C2 C 0.26608 0.47001 0.89469 0.0
O3 O 0.26621 0.42314 0.89049 0.0
O4 O 0.26503 0.49083 0.94161 0.0
C5 C 0.22564 0.28387 0.86012 0.0
O6 O 0.20217 0.31234 0.84015 0.0
C7 C 0.25371 0.56093 0.05904 0.0
C8 C 0.29536 0.57721 0.14108 0.0
C9 C 0.26812 0.59586 0.1054 0.0
N10 N 0.27202 0.52359 0.06694 0.0
N11 N 0.29706 0.53369 0.11592 0.0
C12 C 0.22766 0.56577 0.00614 0.0
H13 H 0.19292 0.52293 -0.00675 0.0
H14 H 0.21138 0.59589 0.00967 0.0
H15 H 0.26063 0.58179 -0.0267 0.0
C16 C 0.16242 0.30282 0.01842 0.0
N17 N 0.20882 0.35163 0.00236 0.0
N18 N 0.21283 0.39422 0.03233 0.0
C19 C 0.16923 0.37413 0.06823 0.0
C20 C 0.13603 0.31551 0.06092 0.0
C21 C 0.14379 0.24559 -0.00688 0.0
H22 H 0.1804 0.23814 -0.00864 0.0
H23 H 0.12944 0.24513 0.94994 0.0
H24 H 0.10857 0.21086 0.01703 0.0
O25 O 0.34197 0.4037 -0.02196 0.0
O26 O 0.347 0.47751 0.02332 0.0
H27 H 0.19052 0.43064 0.13753 0.0
H28 H 0.11483 0.38735 0.12526 0.0
C29 C 0.15709 0.41138 0.10512 0.0
H30 H 0.15852 0.44657 0.0804 0.0
H31 H 0.31575 0.51116 0.1319 0.0
O32 O 0.25089 0.29857 0.90672 0.0
C33 C 0.36994 0.4494 0.00622 0.0
Co34 Co 0.87772 0.25856 0.26606 0.0
Co35 Co 0.79391 0.27348 0.34439 0.0
C36 C 0.78003 0.26393 0.22013 0.0
O37 O 0.82199 0.25619 0.21195 0.0
O38 O 0.76588 0.27051 0.26868 0.0
C39 C 0.92656 0.2229 0.17948 0.0
O40 O 0.87654 0.20193 0.15557 0.0
C41 C 0.68646 0.2584 0.38872 0.0
C42 C 0.71202 0.29133 0.47407 0.0
C43 C 0.6663 0.26831 0.43778 0.0
N44 N 0.74159 0.27444 0.3959 0.0
N45 N 0.75673 0.29458 0.4468 0.0
C46 C 0.6557 0.23873 0.33459 0.0
H47 H 0.65843 0.20151 0.31908 0.0
H48 H 0.61058 0.22768 0.33791 0.0
H49 H 0.67688 0.27371 0.30399 0.0
C50 C 0.84357 0.15872 0.33995 0.0
N51 N 0.84239 0.20606 0.32484 0.0
N52 N 0.80703 0.21236 0.35739 0.0
C53 C 0.78432 0.16922 0.39403 0.0
C54 C 0.80705 0.13406 0.38454 0.0
C55 C 0.87846 0.13751 0.31162 0.0
H56 H 0.92335 0.1726 0.30916 0.0
H57 H 0.86266 0.12457 0.26859 0.0
H58 H 0.87648 0.1007 0.33387 0.0
O59 O 0.92029 0.33913 0.29194 0.0
O60 O 0.86358 0.34756 0.35279 0.0
H61 H 0.75522 0.19196 0.4668 0.0
H62 H 0.7182 0.11613 0.45287 0.0
C63 C 0.73769 0.15904 0.43367 0.0
H64 H 0.70404 0.16295 0.4115 0.0
H65 H 0.79759 0.31034 0.46294 0.0
O66 O 0.93407 0.24541 0.22729 0.0
C67 C 0.91022 0.36856 0.32653 0.0
Co68 Co 0.60722 0.88012 0.59472 0.0
Co69 Co 0.50972 0.797 0.6746 0.0
C70 C 0.50219 0.78096 0.55094 0.0
O71 O 0.55102 0.82411 0.54173 0.0
O72 O 0.48279 0.76679 0.59984 0.0
C73 C 0.68942 0.92593 0.50606 0.0
O74 O 0.65885 0.87529 0.48325 0.0
C75 C 0.41824 0.69048 0.72155 0.0
C76 C 0.41274 0.71787 0.80658 0.0
C77 C 0.38934 0.67122 0.77116 0.0
N78 N 0.45742 0.746 0.72749 0.0
N79 N 0.45352 0.76227 0.77821 0.0
C80 C 0.40606 0.65832 0.66812 0.0
H81 H 0.39186 0.67885 0.63724 0.0
H82 H 0.44564 0.66069 0.6525 0.0
H83 H 0.37196 0.61312 0.67243 0.0
C84 C 0.67378 0.84711 0.66898 0.0
N85 N 0.625 0.84486 0.65337 0.0
N86 N 0.58374 0.80983 0.6865 0.0
C87 C 0.60462 0.78829 0.72385 0.0
C88 C 0.66245 0.81161 0.71444 0.0
C89 C 0.72985 0.88294 0.64105 0.0
H90 H 0.7387 0.92757 0.63786 0.0
H91 H 0.72763 0.86671 0.59828 0.0
H92 H 0.76495 0.88228 0.66401 0.0
O93 O 0.57236 0.92484 0.62212 0.0
O94 O 0.50682 0.86761 0.68241 0.0
H95 H 0.55476 0.76147 0.79784 0.0
H96 H 0.59226 0.72336 0.78398 0.0
C97 C 0.56881 0.74273 0.76479 0.0
H98 H 0.53051 0.70855 0.74374 0.0
H99 H 0.47899 0.80364 0.79352 0.0
O100 O 0.67614 0.93496 0.55402 0.0
C101 C 0.53334 0.91487 0.65705 0.0
Co102 Co 0.71781 0.6202 0.93364 0.0
Co103 Co 0.70997 0.52101 0.00672 0.0
C104 C 0.7132 0.51575 0.88452 0.0
O105 O 0.71255 0.56223 0.87887 0.0
O106 O 0.71497 0.49662 0.93202 0.0
C107 C 0.75493 0.70204 0.8451 0.0
O108 O 0.77675 0.67221 0.82454 0.0
C109 C 0.72056 0.42575 0.05156 0.0
C110 C 0.69386 0.42442 0.13836 0.0
C111 C 0.71156 0.39723 0.10141 0.0
N112 N 0.70917 0.46831 0.0589 0.0
N113 N 0.69269 0.46689 0.11069 0.0
C114 C 0.73479 0.40998 -0.00319 0.0
H115 H 0.70019 0.40076 0.9669 0.0
H116 H 0.77469 0.44661 -0.01921 0.0
H117 H 0.73933 0.37154 -0.00028 0.0
C118 C 0.81984 0.68724 0.00522 0.0
N119 N 0.77407 0.63783 -0.01116 0.0
N120 N 0.76985 0.59599 0.01999 0.0
C121 C 0.81281 0.6172 0.05681 0.0
C122 C 0.84538 0.6757 0.04921 0.0
C123 C 0.83774 0.74411 -0.02019 0.0
H124 H 0.80127 0.75183 -0.02009 0.0
H125 H 0.8499 0.74369 0.93596 0.0
H126 H 0.87418 0.7791 0.00246 0.0
O127 O 0.64135 0.58823 0.96766 0.0
O128 O 0.63528 0.51487 0.0143 0.0
H129 H 0.79354 0.56835 0.13123 0.0
H130 H 0.8681 0.60564 0.11367 0.0
C131 C 0.82432 0.58166 0.0965 0.0
H132 H 0.81867 0.54278 0.07522 0.0
H133 H 0.68062 0.49497 0.12709 0.0
O134 O 0.7313 0.68889 0.89245 0.0
C135 C 0.61345 0.54414 -0.00227 0.0
Co136 Co 0.08909 0.72487 0.26714 0.0
Co137 Co 0.1712 0.70699 0.34535 0.0
C138 C 0.18753 0.72003 0.22164 0.0
O139 O 0.14465 0.72615 0.21315 0.0
O140 O 0.20121 0.71285 0.27011 0.0
C141 C 0.04508 0.76654 0.18129 0.0
O142 O 0.0959 0.78781 0.15917 0.0
C143 C 0.27762 0.72033 0.38996 0.0
C144 C 0.2496 0.67793 0.47128 0.0
C145 C 0.29638 0.70482 0.4366 0.0
N146 N 0.22219 0.70313 0.39666 0.0
N147 N 0.20562 0.67756 0.44522 0.0
C148 C 0.30985 0.74609 0.33768 0.0
H149 H 0.29241 0.71304 0.30468 0.0
H150 H 0.30357 0.78191 0.32478 0.0
H151 H 0.35583 0.761 0.34181 0.0
C152 C 0.12307 0.8228 0.34482 0.0
N153 N 0.12449 0.77608 0.32755 0.0
N154 N 0.15838 0.76786 0.36046 0.0
C155 C 0.17951 0.80876 0.39965 0.0
C156 C 0.15739 0.8446 0.39147 0.0
C157 C 0.08971 0.84593 0.31688 0.0
H158 H 0.04451 0.81169 0.3135 0.0
H159 H 0.10615 0.85937 0.27419 0.0
H160 H 0.09247 0.88278 0.33996 0.0
O161 O 0.04393 0.64405 0.29196 0.0
O162 O 0.10071 0.6335 0.35103 0.0
H163 H 0.20456 0.77994 0.47095 0.0
H164 H 0.24136 0.85679 0.46411 0.0
C165 C 0.22372 0.81585 0.44109 0.0
H166 H 0.25902 0.81443 0.41948 0.0
H167 H 0.16417 0.65955 0.46038 0.0
O168 O 0.03513 0.74113 0.22767 0.0
C169 C 0.05363 0.61371 0.32562 0.0
Co170 Co 0.35967 0.09645 0.60437 0.0
Co171 Co 0.4614 0.17931 0.68096 0.0
C172 C 0.46345 0.19241 0.55688 0.0
O173 O 0.41325 0.15088 0.54921 0.0
O174 O 0.48504 0.20644 0.60508 0.0
C175 C 0.27362 0.04936 0.51898 0.0
O176 O 0.30397 0.09934 0.49511 0.0
C177 C 0.55284 0.28876 0.72265 0.0
C178 C 0.57374 0.26318 0.80221 0.0
C179 C 0.58931 0.30962 0.76776 0.0
N180 N 0.51755 0.2325 0.73008 0.0
N181 N 0.53042 0.2174 0.77753 0.0
C182 C 0.55414 0.32005 0.6711 0.0
H183 H 0.51017 0.30877 0.65939 0.0
H184 H 0.58131 0.36694 0.67558 0.0
H185 H 0.57181 0.30615 0.63696 0.0
C186 C 0.29814 0.13272 0.68209 0.0
N187 N 0.34557 0.1334 0.66435 0.0
N188 N 0.38852 0.16803 0.69627 0.0
C189 C 0.37009 0.19059 0.73514 0.0
C190 C 0.31212 0.16873 0.72776 0.0
C191 C 0.24085 0.09793 0.65584 0.0
H192 H 0.23052 0.05281 0.6524 0.0
H193 H 0.24205 0.11384 0.61321 0.0
H194 H 0.20724 0.10005 0.68013 0.0
O195 O 0.39565 0.05193 0.6293 0.0
O196 O 0.46337 0.10829 0.68862 0.0
H197 H 0.42741 0.21755 0.80402 0.0
H198 H 0.38584 0.2528 0.80014 0.0
C199 C 0.40848 0.23568 0.77556 0.0
H200 H 0.44362 0.27147 0.75272 0.0
H201 H 0.50974 0.17578 0.79292 0.0
O202 O 0.28862 0.04108 0.56636 0.0
C203 C 0.43561 0.06122 0.66286 0.0
C204 C 0.51524 0.4625 0.01145 0.0
C205 C 0.5523 0.52195 0.00786 0.0
C206 C 0.45615 0.43922 0.01307 0.0
C207 C 0.43207 0.4746 0.01254 0.0
H208 H 0.53178 0.43344 0.01022 0.0
H209 H 0.42913 0.39317 0.01335 0.0
S210 S 0.5109 0.63333 0.00845 0.0
N211 N 0.56105 0.61581 0.00708 0.0
N212 N 0.45001 0.57239 0.01154 0.0
C213 C 0.46881 0.53431 0.01204 0.0
C214 C 0.52894 0.55791 0.00925 0.0
C215 C -0.00497 0.52096 0.27822 0.0
C216 C 0.01398 0.55188 0.32805 0.0
C217 C 0.96332 0.46127 0.27836 0.0
C218 C 0.94833 0.43068 0.32838 0.0
H219 H 0.00627 0.54297 0.23875 0.0
H220 H 0.9494 0.43893 0.23905 0.0
S221 S 0.98603 0.49176 0.46993 0.0
N222 N 0.01594 0.54791 0.42859 0.0
N223 N 0.9532 0.4353 0.42893 0.0
C224 C 0.96586 0.46104 0.37853 0.0
C225 C -0.00033 0.52184 0.37834 0.0
C226 C 0.49569 0.97084 0.61151 0.0
C227 C 0.51105 0.95423 0.66066 0.0
C228 C 0.46875 0.00334 0.61304 0.0
C229 C 0.45761 0.02149 0.66374 0.0
H230 H 0.50333 0.95746 0.57159 0.0
H231 H 0.45795 0.01566 0.57418 0.0
S232 S 0.49037 0.98999 0.80389 0.0
N233 N 0.51254 0.95721 0.76132 0.0
N234 N 0.46465 0.02149 0.76415 0.0
C235 C 0.47346 0.00589 0.71318 0.0
C236 C 0.49938 0.97126 0.71166 0.0
C237 C 0.17553 0.65801 0.142 0.0
C238 C 0.21243 0.70477 0.17534 0.0
C239 C 0.19496 0.62513 0.11502 0.0
C240 C 0.25207 0.6389 0.11971 0.0
H241 H 0.1302 0.64266 0.14203 0.0
H242 H 0.16393 0.5858 0.09504 0.0
S243 S 0.36778 0.76513 0.19122 0.0
N244 N 0.30997 0.76903 0.20374 0.0
N245 N 0.34693 0.70763 0.15233 0.0
C246 C 0.29047 0.68933 0.14759 0.0
C247 C 0.27058 0.72248 0.17532 0.0
C248 C 0.54671 0.27269 0.51156 0.0
C249 C 0.50343 0.2151 0.51024 0.0
C250 C 0.59809 0.29084 0.48359 0.0
C251 C 0.60764 0.252 0.45331 0.0
H252 H 0.54271 0.30278 0.53821 0.0
H253 H 0.63201 0.33466 0.48883 0.0
S254 S 0.50602 0.09742 0.43376 0.0
N255 N 0.47138 0.12036 0.47251 0.0
N256 N 0.5686 0.15416 0.4211 0.0
C257 C 0.56298 0.19532 0.44792 0.0
C258 C 0.51042 0.177 0.47591 0.0
C259 C 0.29963 0.60265 0.81812 0.0
C260 C 0.34785 0.6125 0.78786 0.0
C261 C 0.26731 0.55154 0.84698 0.0
C262 C 0.28269 0.50902 0.84702 0.0
H263 H 0.28913 0.63619 0.82258 0.0
H264 H 0.23324 0.54747 0.87347 0.0
S265 S 0.40203 0.51205 0.76927 0.0
N266 N 0.40688 0.57412 0.75577 0.0
N267 N 0.34542 0.47743 0.8091 0.0
C268 C 0.32734 0.51602 0.81226 0.0
C269 C 0.3605 0.56828 0.78317 0.0
C270 C 0.7011 0.27163 0.1778 0.0
C271 C 0.75694 0.28141 0.17381 0.0
C272 C 0.68498 0.30658 0.14989 0.0
C273 C 0.72401 0.35196 0.11671 0.0
H274 H 0.67129 0.24013 0.20653 0.0
H275 H 0.64299 0.30061 0.15742 0.0
S276 S 0.87325 0.39098 0.08742 0.0
N277 N 0.84927 0.3354 0.12915 0.0
N278 N 0.81928 0.40192 0.07763 0.0
C279 C 0.77819 0.35868 0.10805 0.0
C280 C 0.79447 0.32277 0.13614 0.0
C281 C 0.39939 0.77641 0.44691 0.0
C282 C 0.3548 0.71961 0.45169 0.0
C283 C 0.45178 0.79454 0.47298 0.0
C284 C 0.46056 0.75669 0.50565 0.0
H285 H 0.39227 0.80826 0.42727 0.0
H286 H 0.48295 0.83976 0.47275 0.0
S287 S 0.36147 0.60151 0.52203 0.0
N288 N 0.32583 0.62389 0.48408 0.0
N289 N 0.42437 0.6584 0.53386 0.0
C290 C 0.41851 0.69875 0.50603 0.0
C291 C 0.36535 0.68017 0.47918 0.0
C292 C 0.61506 0.41126 0.78049 0.0
C293 C 0.63102 0.36921 0.78234 0.0
C294 C 0.64762 0.46384 0.80739 0.0
C295 C 0.69625 0.47521 0.83805 0.0
H296 H 0.57456 0.40168 0.76278 0.0
H297 H 0.6309 0.49273 0.8095 0.0
S298 S 0.76149 0.38365 0.84674 0.0
N299 N 0.70301 0.34581 0.80979 0.0
N300 N 0.76371 0.44444 0.86133 0.0
C301 C 0.71567 0.43598 0.83535 0.0
C302 C 0.68287 0.38274 0.8076 0.0
C303 C 0.27297 0.17996 0.81689 0.0
C304 C 0.27628 0.18578 0.75901 0.0
C305 C 0.25207 0.2084 0.84926 0.0
C306 C 0.23361 0.24354 0.82478 0.0
H307 H 0.29014 0.15629 0.83747 0.0
H308 H 0.25346 0.20541 0.89396 0.0
S309 S 0.22696 0.26627 0.6738 0.0
N310 N 0.25466 0.22422 0.67784 0.0
N311 N 0.2142 0.27711 0.73832 0.0
C312 C 0.23203 0.24544 0.76645 0.0
C313 C 0.25374 0.21667 0.73358 0.0
C314 C 0.02915 0.25149 0.17578 0.0
C315 C 0.97711 0.23197 0.14767 0.0
C316 C 0.08053 0.27419 0.14682 0.0
C317 C 0.08164 0.27782 0.08883 0.0
H318 H 0.03073 0.25259 0.22067 0.0
H319 H 0.11999 0.29244 0.17007 0.0
S320 S 0.95748 0.22527 -0.0051 0.0
N321 N 0.92973 0.21158 0.05778 0.0
N322 N 0.02692 0.2549 0.00367 0.0
C323 C 0.02996 0.25393 0.05985 0.0
C324 C 0.97741 0.23068 0.08926 0.0
C325 C 0.79491 0.07893 0.47037 0.0
C326 C 0.78982 0.07943 0.41256 0.0
C327 C 0.76599 0.02789 0.5001 0.0
C328 C 0.73075 0.97558 0.47296 0.0
H329 H 0.81838 0.11875 0.49306 0.0
H330 H 0.7685 0.03005 0.54494 0.0
S331 S 0.7102 0.95399 0.32075 0.0
N332 N 0.75241 0.02357 0.32839 0.0
N333 N 0.69828 0.927 0.38392 0.0
C334 C 0.72967 0.97506 0.41454 0.0
C335 C 0.75913 0.02727 0.38435 0.0
C336 C 0.70499 0.80376 0.80255 0.0
C337 C 0.70064 0.79708 0.74474 0.0
C338 C 0.72745 0.77667 0.83457 0.0
C339 C 0.74626 0.74184 0.80983 0.0
H340 H 0.68728 0.82686 0.82343 0.0
H341 H 0.72669 0.78018 0.87928 0.0
S342 S 0.75134 0.71804 0.65871 0.0
N343 N 0.72228 0.75888 0.66319 0.0
N344 N 0.76551 0.70833 0.72305 0.0
C345 C 0.74709 0.73943 0.75147 0.0
C346 C 0.7239 0.76696 0.71893 0.0
C347 C 0.9505 0.73718 0.05629 0.0
C348 C 0.89673 0.71475 0.08093 0.0
C349 C -0.00021 0.7594 0.08909 0.0
C350 C -0.0036 0.75926 0.14742 0.0
H351 H 0.95406 0.73331 0.01195 0.0
H352 H 0.03999 0.77227 0.06875 0.0
S353 S 0.8658 0.71561 0.23021 0.0
N354 N 0.84319 0.70142 0.16542 0.0
N355 N 0.93552 0.74335 0.22739 0.0
C356 C 0.94321 0.74236 0.1718 0.0
C357 C 0.89333 0.71991 0.1384 0.0
C358 C 0.20576 0.95068 0.39652 0.0
C359 C 0.17338 0.89756 0.42248 0.0
C360 C 0.23433 0.00101 0.428 0.0
C361 C 0.23162 -0.00053 0.48637 0.0
H362 H 0.21249 0.95286 0.35211 0.0
H363 H 0.26207 0.04054 0.4066 0.0
S364 S 0.14284 0.8715 0.57243 0.0
N365 N 0.13302 0.8468 0.50829 0.0
N366 N 0.18651 0.94112 0.56783 0.0
C367 C 0.1947 0.94704 0.5121 0.0
C368 C 0.16563 0.89606 0.48 0.0
loop_
_geom_bond_atom_site_label_1
_geom_bond_atom_site_label_2
_geom_bond_distance
_geom_bond_site_symmetry_2
_ccdc_geom_bond_type
Co0 O3 1.970 . S
Co0 N17 1.989 1_556 S
Co0 O25 1.967 . S
Co0 O32 1.920 . S
Co1 O4 1.966 1_554 S
Co1 N10 2.022 . S
Co1 N18 1.993 . S
Co1 O26 1.941 . S
C2 O3 1.258 . S
C2 O4 1.263 . S
O3 Co0 1.970 . S
O3 C2 1.258 . S
O4 Co1 1.966 1_556 S
O4 C2 1.263 . S
C5 O6 1.235 . S
C5 O32 1.289 . S
O6 C5 1.235 . S
C7 C9 1.400 . S
C7 N10 1.351 . S
C7 C12 1.501 . S
C8 C9 1.387 . S
C8 N11 1.341 . S
C9 C7 1.400 . S
C9 C8 1.387 . S
N10 Co1 2.022 . S
N10 C7 1.351 . S
N10 N11 1.365 . S
N11 C8 1.341 . S
N11 N10 1.365 . S
N11 H31 0.862 . S
C12 C7 1.501 . S
C12 H13 0.964 . S
C12 H14 0.961 . S
C12 H15 0.960 . S
H13 C12 0.964 . S
H14 C12 0.961 . S
H15 C12 0.960 . S
C16 N17 1.342 . S
C16 C20 1.401 . S
C16 C21 1.499 1_554 S
N17 Co0 1.989 1_554 S
N17 C16 1.342 . S
N17 N18 1.388 . S
N18 Co1 1.993 . S
N18 N17 1.388 . S
N18 C19 1.346 . S
C19 N18 1.346 . S
C19 C20 1.396 . S
C19 C29 1.510 . S
C20 C16 1.401 . S
C20 C19 1.396 . S
C21 C16 1.499 1_556 S
C21 H22 0.959 . S
C21 H23 0.960 . S
C21 H24 0.961 1_556 S
H22 C21 0.959 . S
H23 C21 0.960 . S
H24 C21 0.961 1_554 S
O25 Co0 1.967 . S
O25 C33 1.258 1_556 S
O26 Co1 1.941 . S
O26 C33 1.266 . S
H27 C29 0.959 . S
H28 C29 0.961 . S
C29 C19 1.510 . S
C29 H27 0.959 . S
C29 H28 0.961 . S
C29 H30 0.960 . S
H30 C29 0.960 . S
H31 N11 0.862 . S
O32 Co0 1.920 . S
O32 C5 1.289 . S
C33 O25 1.258 1_554 S
C33 O26 1.266 . S
Co34 O37 1.970 . S
Co34 N51 1.989 . S
Co34 O59 1.967 . S
Co34 O66 1.920 . S
Co35 O38 1.966 . S
Co35 N44 2.022 . S
Co35 N52 1.993 . S
Co35 O60 1.941 . S
C36 O37 1.258 . S
C36 O38 1.263 . S
O37 Co34 1.970 . S
O37 C36 1.258 . S
O38 Co35 1.966 . S
O38 C36 1.263 . S
C39 O40 1.235 . S
C39 O66 1.289 . S
O40 C39 1.235 . S
C41 C43 1.400 . S
C41 N44 1.351 . S
C41 C46 1.501 . S
C42 C43 1.387 . S
C42 N45 1.341 . S
C43 C41 1.400 . S
C43 C42 1.387 . S
N44 Co35 2.022 . S
N44 C41 1.351 . S
N44 N45 1.365 . S
N45 C42 1.341 . S
N45 N44 1.365 . S
N45 H65 0.862 . S
C46 C41 1.501 . S
C46 H47 0.961 . S
C46 H48 0.961 . S
C46 H49 0.960 . S
H47 C46 0.961 . S
H48 C46 0.961 . S
H49 C46 0.960 . S
C50 N51 1.342 . S
C50 C54 1.401 . S
C50 C55 1.499 . S
N51 Co34 1.989 . S
N51 C50 1.342 . S
N51 N52 1.388 . S
N52 Co35 1.993 . S
N52 N51 1.388 . S
N52 C53 1.346 . S
C53 N52 1.346 . S
C53 C54 1.396 . S
C53 C63 1.510 . S
C54 C50 1.401 . S
C54 C53 1.396 . S
C55 C50 1.499 . S
C55 H56 0.959 . S
C55 H57 0.960 . S
C55 H58 0.961 . S
H56 C55 0.959 . S
H57 C55 0.960 . S
H58 C55 0.961 . S
O59 Co34 1.967 . S
O59 C67 1.258 . S
O60 Co35 1.941 . S
O60 C67 1.266 . S
H61 C63 0.959 . S
H62 C63 0.961 . S
C63 C53 1.510 . S
C63 H61 0.959 . S
C63 H62 0.961 . S
C63 H64 0.960 . S
H64 C63 0.960 . S
H65 N45 0.862 . S
O66 Co34 1.920 . S
O66 C39 1.289 . S
C67 O59 1.258 . S
C67 O60 1.266 . S
Co68 O71 1.970 . S
Co68 N85 1.989 . S
Co68 O93 1.967 . S
Co68 O100 1.920 . S
Co69 O72 1.966 . S
Co69 N78 2.022 . S
Co69 N86 1.993 . S
Co69 O94 1.941 . S
C70 O71 1.258 . S
C70 O72 1.263 . S
O71 Co68 1.970 . S
O71 C70 1.258 . S
O72 Co69 1.966 . S
O72 C70 1.263 . S
C73 O74 1.235 . S
C73 O100 1.289 . S
O74 C73 1.235 . S
C75 C77 1.400 . S
C75 N78 1.351 . S
C75 C80 1.501 . S
C76 C77 1.387 . S
C76 N79 1.341 . S
C77 C75 1.400 . S
C77 C76 1.387 . S
N78 Co69 2.022 . S
N78 C75 1.351 . S
N78 N79 1.365 . S
N79 C76 1.341 . S
N79 N78 1.365 . S
N79 H99 0.862 . S
C80 C75 1.501 . S
C80 H81 0.961 . S
C80 H82 0.961 . S
C80 H83 0.960 . S
H81 C80 0.961 . S
H82 C80 0.961 . S
H83 C80 0.960 . S
C84 N85 1.342 . S
C84 C88 1.401 . S
C84 C89 1.499 . S
N85 Co68 1.989 . S
N85 C84 1.342 . S
N85 N86 1.388 . S
N86 Co69 1.993 . S
N86 N85 1.388 . S
N86 C87 1.346 . S
C87 N86 1.346 . S
C87 C88 1.396 . S
C87 C97 1.510 . S
C88 C84 1.401 . S
C88 C87 1.396 . S
C89 C84 1.499 . S
C89 H90 0.959 . S
C89 H91 0.960 . S
C89 H92 0.961 . S
H90 C89 0.959 . S
H91 C89 0.960 . S
H92 C89 0.961 . S
O93 Co68 1.967 . S
O93 C101 1.258 . S
O94 Co69 1.941 . S
O94 C101 1.266 . S
H95 C97 0.959 . S
H96 C97 0.961 . S
C97 C87 1.510 . S
C97 H95 0.959 . S
C97 H96 0.961 . S
C97 H98 0.960 . S
H98 C97 0.960 . S
H99 N79 0.862 . S
O100 Co68 1.920 . S
O100 C73 1.289 . S
C101 O93 1.258 . S
C101 O94 1.266 . S
Co102 O105 1.970 . S
Co102 N119 1.989 1_556 S
Co102 O127 1.967 . S
Co102 O134 1.920 . S
Co103 O106 1.966 1_554 S
Co103 N112 2.022 . S
Co103 N120 1.993 . S
Co103 O128 1.941 . S
C104 O105 1.258 . S
C104 O106 1.263 . S
O105 Co102 1.970 . S
O105 C104 1.258 . S
O106 Co103 1.966 1_556 S
O106 C104 1.263 . S
C107 O108 1.235 . S
C107 O134 1.289 . S
O108 C107 1.235 . S
C109 C111 1.400 . S
C109 N112 1.351 . S
C109 C114 1.501 . S
C110 C111 1.387 . S
C110 N113 1.341 . S
C111 C109 1.400 . S
C111 C110 1.387 . S
N112 Co103 2.022 . S
N112 C109 1.351 . S
N112 N113 1.365 . S
N113 C110 1.341 . S
N113 N112 1.365 . S
N113 H133 0.862 . S
C114 C109 1.501 . S
C114 H115 0.964 . S
C114 H116 0.961 . S
C114 H117 0.960 . S
H115 C114 0.964 . S
H116 C114 0.961 . S
H117 C114 0.960 . S
C118 N119 1.342 . S
C118 C122 1.401 . S
C118 C123 1.499 1_554 S
N119 Co102 1.989 1_554 S
N119 C118 1.342 . S
N119 N120 1.388 . S
N120 Co103 1.993 . S
N120 N119 1.388 . S
N120 C121 1.346 . S
C121 N120 1.346 . S
C121 C122 1.396 . S
C121 C131 1.510 . S
C122 C118 1.401 . S
C122 C121 1.396 . S
C123 C118 1.499 1_556 S
C123 H124 0.959 . S
C123 H125 0.960 . S
C123 H126 0.961 1_556 S
H124 C123 0.959 . S
H125 C123 0.960 . S
H126 C123 0.961 1_554 S
O127 Co102 1.967 . S
O127 C135 1.258 1_556 S
O128 Co103 1.941 . S
O128 C135 1.266 . S
H129 C131 0.959 . S
H130 C131 0.961 . S
C131 C121 1.510 . S
C131 H129 0.959 . S
C131 H130 0.961 . S
C131 H132 0.960 . S
H132 C131 0.960 . S
H133 N113 0.862 . S
O134 Co102 1.920 . S
O134 C107 1.289 . S
C135 O127 1.258 1_554 S
C135 O128 1.266 . S
Co136 O139 1.970 . S
Co136 N153 1.989 . S
Co136 O161 1.967 . S
Co136 O168 1.920 . S
Co137 O140 1.966 . S
Co137 N146 2.022 . S
Co137 N154 1.993 . S
Co137 O162 1.941 . S
C138 O139 1.258 . S
C138 O140 1.263 . S
O139 Co136 1.970 . S
O139 C138 1.258 . S
O140 Co137 1.966 . S
O140 C138 1.263 . S
C141 O142 1.235 . S
C141 O168 1.289 . S
O142 C141 1.235 . S
C143 C145 1.400 . S
C143 N146 1.351 . S
C143 C148 1.501 . S
C144 C145 1.387 . S
C144 N147 1.341 . S
C145 C143 1.400 . S
C145 C144 1.387 . S
N146 Co137 2.022 . S
N146 C143 1.351 . S
N146 N147 1.365 . S
N147 C144 1.341 . S
N147 N146 1.365 . S
N147 H167 0.862 . S
C148 C143 1.501 . S
C148 H149 0.961 . S
C148 H150 0.961 . S
C148 H151 0.960 . S
H149 C148 0.961 . S
H150 C148 0.961 . S
H151 C148 0.960 . S
C152 N153 1.342 . S
C152 C156 1.401 . S
C152 C157 1.499 . S
N153 Co136 1.989 . S
N153 C152 1.342 . S
N153 N154 1.388 . S
N154 Co137 1.993 . S
N154 N153 1.388 . S
N154 C155 1.346 . S
C155 N154 1.346 . S
C155 C156 1.396 . S
C155 C165 1.510 . S
C156 C152 1.401 . S
C156 C155 1.396 . S
C157 C152 1.499 . S
C157 H158 0.959 . S
C157 H159 0.960 . S
C157 H160 0.961 . S
H158 C157 0.959 . S
H159 C157 0.960 . S
H160 C157 0.961 . S
O161 Co136 1.967 . S
O161 C169 1.258 . S
O162 Co137 1.941 . S
O162 C169 1.266 . S
H163 C165 0.959 . S
H164 C165 0.961 . S
C165 C155 1.510 . S
C165 H163 0.959 . S
C165 H164 0.961 . S
C165 H166 0.960 . S
H166 C165 0.960 . S
H167 N147 0.862 . S
O168 Co136 1.920 . S
O168 C141 1.289 . S
C169 O161 1.258 . S
C169 O162 1.266 . S
Co170 O173 1.970 . S
Co170 N187 1.989 . S
Co170 O195 1.967 . S
Co170 O202 1.920 . S
Co171 O174 1.966 . S
Co171 N180 2.022 . S
Co171 N188 1.993 . S
Co171 O196 1.941 . S
C172 O173 1.258 . S
C172 O174 1.263 . S
O173 Co170 1.970 . S
O173 C172 1.258 . S
O174 Co171 1.966 . S
O174 C172 1.263 . S
C175 O176 1.235 . S
C175 O202 1.289 . S
O176 C175 1.235 . S
C177 C179 1.400 . S
C177 N180 1.351 . S
C177 C182 1.501 . S
C178 C179 1.387 . S
C178 N181 1.341 . S
C179 C177 1.400 . S
C179 C178 1.387 . S
N180 Co171 2.022 . S
N180 C177 1.351 . S
N180 N181 1.365 . S
N181 C178 1.341 . S
N181 N180 1.365 . S
N181 H201 0.862 . S
C182 C177 1.501 . S
C182 H183 0.961 . S
C182 H184 0.961 . S
C182 H185 0.960 . S
H183 C182 0.961 . S
H184 C182 0.961 . S
H185 C182 0.960 . S
C186 N187 1.342 . S
C186 C190 1.401 . S
C186 C191 1.499 . S
N187 Co170 1.989 . S
N187 C186 1.342 . S
N187 N188 1.388 . S
N188 Co171 1.993 . S
N188 N187 1.388 . S
N188 C189 1.346 . S
C189 N188 1.346 . S
C189 C190 1.396 . S
C189 C199 1.510 . S
C190 C186 1.401 . S
C190 C189 1.396 . S
C191 C186 1.499 . S
C191 H192 0.959 . S
C191 H193 0.960 . S
C191 H194 0.961 . S
H192 C191 0.959 . S
H193 C191 0.960 . S
H194 C191 0.961 . S
O195 Co170 1.967 . S
O195 C203 1.258 . S
O196 Co171 1.941 . S
O196 C203 1.266 . S
H197 C199 0.959 . S
H198 C199 0.961 . S
C199 C189 1.510 . S
C199 H197 0.959 . S
C199 H198 0.961 . S
C199 H200 0.960 . S
H200 C199 0.960 . S
H201 N181 0.862 . S
O202 Co170 1.920 . S
O202 C175 1.289 . S
C203 O195 1.258 . S
C203 O196 1.266 . S
C204 C205 1.369 . S
C204 C206 1.419 . S
C204 H208 0.930 . S
C205 C204 1.369 . S
C205 C214 1.429 . S
C206 C204 1.419 . S
C206 C207 1.363 . S
C206 H209 0.929 . S
C207 C206 1.363 . S
C207 C213 1.428 . S
H208 C204 0.930 . S
H209 C206 0.929 . S
S210 N211 1.613 . S
S210 N212 1.610 . S
N211 S210 1.613 . S
N211 C214 1.350 . S
N212 S210 1.610 . S
N212 C213 1.351 . S
C213 C207 1.428 . S
C213 N212 1.351 . S
C213 C214 1.434 . S
C214 C205 1.429 . S
C214 N211 1.350 . S
C214 C213 1.434 . S
C215 C216 1.369 . S
C215 C217 1.419 . S
C215 H219 0.930 . S
C216 C215 1.369 . S
C216 C225 1.429 1_455 S
C217 C215 1.419 . S
C217 C218 1.363 1_455 S
C217 H220 0.929 . S
C218 C217 1.363 1_655 S
C218 C224 1.428 . S
H219 C215 0.930 . S
H220 C217 0.929 . S
S221 N222 1.613 . S
S221 N223 1.610 . S
N222 S221 1.613 . S
N222 C225 1.350 . S
N223 S221 1.610 . S
N223 C224 1.351 . S
C224 C218 1.428 . S
C224 N223 1.351 . S
C224 C225 1.434 . S
C225 C216 1.429 1_655 S
C225 N222 1.350 . S
C225 C224 1.434 . S
C226 C227 1.369 . S
C226 C228 1.419 1_565 S
C226 H230 0.930 . S
C227 C226 1.369 . S
C227 C236 1.429 . S
C228 C226 1.419 1_545 S
C228 C229 1.363 . S
C228 H231 0.929 . S
C229 C228 1.363 . S
C229 C235 1.428 . S
H230 C226 0.930 . S
H231 C228 0.929 . S
S232 N233 1.613 1_545 S
S232 N234 1.610 . S
N233 S232 1.613 1_565 S
N233 C236 1.350 . S
N234 S232 1.610 . S
N234 C235 1.351 . S
C235 C229 1.428 . S
C235 N234 1.351 . S
C235 C236 1.434 1_545 S
C236 C227 1.429 . S
C236 N233 1.350 . S
C236 C235 1.434 1_565 S
C237 C238 1.369 . S
C237 C239 1.419 . S
C237 H241 0.930 . S
C238 C237 1.369 . S
C238 C247 1.429 . S
C239 C237 1.419 . S
C239 C240 1.363 . S
C239 H242 0.929 . S
C240 C239 1.363 . S
C240 C246 1.428 . S
H241 C237 0.930 . S
H242 C239 0.929 . S
S243 N244 1.613 . S
S243 N245 1.610 . S
N244 S243 1.613 . S
N244 C247 1.350 . S
N245 S243 1.610 . S
N245 C246 1.351 . S
C246 C240 1.428 . S
C246 N245 1.351 . S
C246 C247 1.434 . S
C247 C238 1.429 . S
C247 N244 1.350 . S
C247 C246 1.434 . S
C248 C249 1.369 . S
C248 C250 1.419 . S
C248 H252 0.930 . S
C249 C248 1.369 . S
C249 C258 1.429 . S
C250 C248 1.419 . S
C250 C251 1.363 . S
C250 H253 0.929 . S
C251 C250 1.363 . S
C251 C257 1.428 . S
H252 C248 0.930 . S
H253 C250 0.929 . S
S254 N255 1.613 . S
S254 N256 1.610 . S
N255 S254 1.613 . S
N255 C258 1.350 . S
N256 S254 1.610 . S
N256 C257 1.351 . S
C257 C251 1.428 . S
C257 N256 1.351 . S
C257 C258 1.434 . S
C258 C249 1.429 . S
C258 N255 1.350 . S
C258 C257 1.434 . S
C259 C260 1.369 . S
C259 C261 1.419 . S
C259 H263 0.930 . S
C260 C259 1.369 . S
C260 C269 1.429 . S
C261 C259 1.419 . S
C261 C262 1.363 . S
C261 H264 0.929 . S
C262 C261 1.363 . S
C262 C268 1.428 . S
H263 C259 0.930 . S
H264 C261 0.929 . S
S265 N266 1.613 . S
S265 N267 1.610 . S
N266 S265 1.613 . S
N266 C269 1.350 . S
N267 S265 1.610 . S
N267 C268 1.351 . S
C268 C262 1.428 . S
C268 N267 1.351 . S
C268 C269 1.434 . S
C269 C260 1.429 . S
C269 N266 1.350 . S
C269 C268 1.434 . S
C270 C271 1.369 . S
C270 C272 1.419 . S
C270 H274 0.930 . S
C271 C270 1.369 . S
C271 C280 1.429 . S
C272 C270 1.419 . S
C272 C273 1.363 . S
C272 H275 0.929 . S
C273 C272 1.363 . S
C273 C279 1.428 . S
H274 C270 0.930 . S
H275 C272 0.929 . S
S276 N277 1.613 . S
S276 N278 1.610 . S
N277 S276 1.613 . S
N277 C280 1.350 . S
N278 S276 1.610 . S
N278 C279 1.351 . S
C279 C273 1.428 . S
C279 N278 1.351 . S
C279 C280 1.434 . S
C280 C271 1.429 . S
C280 N277 1.350 . S
C280 C279 1.434 . S
C281 C282 1.369 . S
C281 C283 1.419 . S
C281 H285 0.930 . S
C282 C281 1.369 . S
C282 C291 1.429 . S
C283 C281 1.419 . S
C283 C284 1.363 . S
C283 H286 0.929 . S
C284 C283 1.363 . S
C284 C290 1.428 . S
H285 C281 0.930 . S
H286 C283 0.929 . S
S287 N288 1.613 . S
S287 N289 1.610 . S
N288 S287 1.613 . S
N288 C291 1.350 . S
N289 S287 1.610 . S
N289 C290 1.351 . S
C290 C284 1.428 . S
C290 N289 1.351 . S
C290 C291 1.434 . S
C291 C282 1.429 . S
C291 N288 1.350 . S
C291 C290 1.434 . S
C292 C293 1.369 . S
C292 C294 1.419 . S
C292 H296 0.930 . S
C293 C292 1.369 . S
C293 C302 1.429 . S
C294 C292 1.419 . S
C294 C295 1.363 . S
C294 H297 0.929 . S
C295 C294 1.363 . S
C295 C301 1.428 . S
H296 C292 0.930 . S
H297 C294 0.929 . S
S298 N299 1.613 . S
S298 N300 1.610 . S
N299 S298 1.613 . S
N299 C302 1.350 . S
N300 S298 1.610 . S
N300 C301 1.351 . S
C301 C295 1.428 . S
C301 N300 1.351 . S
C301 C302 1.434 . S
C302 C293 1.429 . S
C302 N299 1.350 . S
C302 C301 1.434 . S
C303 C304 1.369 . S
C303 C305 1.419 . S
C303 H307 0.930 . S
C304 C303 1.369 . S
C304 C313 1.429 . S
C305 C303 1.419 . S
C305 C306 1.363 . S
C305 H308 0.929 . S
C306 C305 1.363 . S
C306 C312 1.428 . S
H307 C303 0.930 . S
H308 C305 0.929 . S
S309 N310 1.613 . S
S309 N311 1.610 . S
N310 S309 1.613 . S
N310 C313 1.350 . S
N311 S309 1.610 . S
N311 C312 1.351 . S
C312 C306 1.428 . S
C312 N311 1.351 . S
C312 C313 1.434 . S
C313 C304 1.429 . S
C313 N310 1.350 . S
C313 C312 1.434 . S
C314 C315 1.369 . S
C314 C316 1.419 . S
C314 H318 0.930 . S
C315 C314 1.369 . S
C315 C324 1.429 1_455 S
C316 C314 1.419 . S
C316 C317 1.363 . S
C316 H319 0.929 . S
C317 C316 1.363 . S
C317 C323 1.428 . S
H318 C314 0.930 . S
H319 C316 0.929 . S
S320 N321 1.613 . S
S320 N322 1.610 1_655 S
N321 S320 1.613 . S
N321 C324 1.350 . S
N322 S320 1.610 1_455 S
N322 C323 1.351 . S
C323 C317 1.428 . S
C323 N322 1.351 . S
C323 C324 1.434 1_455 S
C324 C315 1.429 1_655 S
C324 N321 1.350 . S
C324 C323 1.434 1_655 S
C325 C326 1.369 . S
C325 C327 1.419 . S
C325 H329 0.930 . S
C326 C325 1.369 . S
C326 C335 1.429 . S
C327 C325 1.419 . S
C327 C328 1.363 . S
C327 H330 0.929 . S
C328 C327 1.363 . S
C328 C334 1.428 . S
H329 C325 0.930 . S
H330 C327 0.929 . S
S331 N332 1.613 1_565 S
S331 N333 1.610 . S
N332 S331 1.613 1_545 S
N332 C335 1.350 . S
N333 S331 1.610 . S
N333 C334 1.351 1_565 S
C334 C328 1.428 . S
C334 N333 1.351 1_545 S
C334 C335 1.434 . S
C335 C326 1.429 . S
C335 N332 1.350 . S
C335 C334 1.434 . S
C336 C337 1.369 . S
C336 C338 1.419 . S
C336 H340 0.930 . S
C337 C336 1.369 . S
C337 C346 1.429 . S
C338 C336 1.419 . S
C338 C339 1.363 . S
C338 H341 0.929 . S
C339 C338 1.363 . S
C339 C345 1.428 . S
H340 C336 0.930 . S
H341 C338 0.929 . S
S342 N343 1.613 . S
S342 N344 1.610 . S
N343 S342 1.613 . S
N343 C346 1.350 . S
N344 S342 1.610 . S
N344 C345 1.351 . S
C345 C339 1.428 . S
C345 N344 1.351 . S
C345 C346 1.434 . S
C346 C337 1.429 . S
C346 N343 1.350 . S
C346 C345 1.434 . S
C347 C348 1.369 . S
C347 C349 1.419 1_655 S
C347 H351 0.930 . S
C348 C347 1.369 . S
C348 C357 1.429 . S
C349 C347 1.419 1_455 S
C349 C350 1.363 1_455 S
C349 H352 0.929 . S
C350 C349 1.363 1_655 S
C350 C356 1.428 . S
H351 C347 0.930 . S
H352 C349 0.929 . S
S353 N354 1.613 . S
S353 N355 1.610 . S
N354 S353 1.613 . S
N354 C357 1.350 . S
N355 S353 1.610 . S
N355 C356 1.351 . S
C356 C350 1.428 . S
C356 N355 1.351 . S
C356 C357 1.434 . S
C357 C348 1.429 . S
C357 N354 1.350 . S
C357 C356 1.434 . S
C358 C359 1.369 . S
C358 C360 1.419 1_565 S
C358 H362 0.930 . S
C359 C358 1.369 . S
C359 C368 1.429 . S
C360 C358 1.419 1_545 S
C360 C361 1.363 1_545 S
C360 H363 0.929 . S
C361 C360 1.363 1_565 S
C361 C367 1.428 . S
H362 C358 0.930 . S
H363 C360 0.929 . S
S364 N365 1.613 . S
S364 N366 1.610 . S
N365 S364 1.613 . S
N365 C368 1.350 . S
N366 S364 1.610 . S
N366 C367 1.351 . S
C367 C361 1.428 . S
C367 N366 1.351 . S
C367 C368 1.434 . S
C368 C359 1.429 . S
C368 N365 1.350 . S
C368 C367 1.434 . S
C205 C135 1.458 . S
C207 C33 1.452 . S
C216 C169 1.455 . S
C218 C67 1.455 . S
C227 C101 1.454 . S
C229 C203 1.455 . S
C238 C138 1.150 . S
C240 C9 1.132 . S
C249 C172 1.142 . S
C251 C43 1.129 . S
C260 C77 1.135 . S
C262 C2 1.149 . S
C271 C36 1.147 . S
C273 C111 1.134 . S
C282 C145 1.128 . S
C284 C70 1.148 . S
C293 C179 1.126 . S
C295 C104 1.147 . S
C304 C190 1.092 . S
C306 C5 1.130 . S
C315 C39 1.132 1_455 S
C317 C20 1.100 . S
C326 C54 1.092 . S
C328 C73 1.130 1_545 S
C337 C88 1.090 . S
C339 C107 1.130 . S
C348 C122 1.095 . S
C350 C141 1.133 1_655 S
C359 C156 1.094 . S
C361 C175 1.133 1_565 S
