# Generated by pormake.
# Topology snk, (6)-cn, num edge types: 1
# Building blocks:
#     Node 0, Type 0, BuildingBlock: GEDQOX_clean_sbu_0, # of connection points: 6
#     Node 1, Type 0, BuildingBlock: GEDQOX_clean_sbu_0, # of connection points: 6
#     Node 2, Type 0, BuildingBlock: GEDQOX_clean_sbu_0, # of connection points: 6
#     Node 3, Type 0, BuildingBlock: GEDQOX_clean_sbu_0, # of connection points: 6
#     Node 4, Type 0, BuildingBlock: GEDQOX_clean_sbu_0, # of connection points: 6
#     Node 5, Type 0, BuildingBlock: GEDQOX_clean_sbu_0, # of connection points: 6
#     Node 6, Type 0, BuildingBlock: GEDQOX_clean_sbu_0, # of connection points: 6
#     Node 7, Type 0, BuildingBlock: GEDQOX_clean_sbu_0, # of connection points: 6
#     Edge 8, Type (0, 0), BuildingBlock: OJICUG_clean_linker_0, # of connection points: 2
#     Edge 9, Type (0, 0), BuildingBlock: OJICUG_clean_linker_0, # of connection points: 2
#     Edge 10, Type (0, 0), BuildingBlock: OJICUG_clean_linker_0, # of connection points: 2
#     Edge 11, Type (0, 0), BuildingBlock: OJICUG_clean_linker_0, # of connection points: 2
#     Edge 12, Type (0, 0), BuildingBlock: OJICUG_clean_linker_0, # of connection points: 2
#     Edge 13, Type (0, 0), BuildingBlock: OJICUG_clean_linker_0, # of connection points: 2
#     Edge 14, Type (0, 0), BuildingBlock: OJICUG_clean_linker_0, # of connection points: 2
#     Edge 15, Type (0, 0), BuildingBlock: OJICUG_clean_linker_0, # of connection points: 2
#     Edge 16, Type (0, 0), BuildingBlock: OJICUG_clean_linker_0, # of connection points: 2
#     Edge 17, Type (0, 0), BuildingBlock: OJICUG_clean_linker_0, # of connection points: 2
#     Edge 18, Type (0, 0), BuildingBlock: OJICUG_clean_linker_0, # of connection points: 2
#     Edge 19, Type (0, 0), BuildingBlock: OJICUG_clean_linker_0, # of connection points: 2
#     Edge 20, Type (0, 0), BuildingBlock: OJICUG_clean_linker_0, # of connection points: 2
#     Edge 21, Type (0, 0), BuildingBlock: OJICUG_clean_linker_0, # of connection points: 2
#     Edge 22, Type (0, 0), BuildingBlock: OJICUG_clean_linker_0, # of connection points: 2
#     Edge 23, Type (0, 0), BuildingBlock: OJICUG_clean_linker_0, # of connection points: 2
#     Edge 24, Type (0, 0), BuildingBlock: OJICUG_clean_linker_0, # of connection points: 2
#     Edge 25, Type (0, 0), BuildingBlock: OJICUG_clean_linker_0, # of connection points: 2
#     Edge 26, Type (0, 0), BuildingBlock: OJICUG_clean_linker_0, # of connection points: 2
#     Edge 27, Type (0, 0), BuildingBlock: OJICUG_clean_linker_0, # of connection points: 2
#     Edge 28, Type (0, 0), BuildingBlock: OJICUG_clean_linker_0, # of connection points: 2
#     Edge 29, Type (0, 0), BuildingBlock: OJICUG_clean_linker_0, # of connection points: 2
#     Edge 30, Type (0, 0), BuildingBlock: OJICUG_clean_linker_0, # of connection points: 2
#     Edge 31, Type (0, 0), BuildingBlock: OJICUG_clean_linker_0, # of connection points: 2
# Relax obj value: 0.115
# Max RMSD: 0.190
# Mean RMSD: 0.190
data_MOF--net-snk--node1-GEDQOX_clean_sbu_0--edge1-OJICUG_clean_linker_0
_symmetry_space_group_name_H-M    P1
_symmetry_Int_Tables_number       1
_symmetry_cell_setting            triclinic
loop_
_symmetry_equiv_pos_as_xyz
'x, y, z'
_cell_length_a     45.284598
_cell_length_b     45.322101
_cell_length_c     11.481199
_cell_angle_alpha  89.896096
_cell_angle_beta   90.059004
_cell_angle_gamma 90.044541
loop_
_atom_site_label
_atom_site_type_symbol
_atom_site_fract_x
_atom_site_fract_y
_atom_site_fract_z
_atom_type_partial_charge
Nd0 Nd 0.03824 0.04963 0.53642 0.0
Nd1 Nd 1.00179 0.99438 0.528 0.0
C2 C 0.06346 0.1024 0.50997 0.0
C3 C 0.09127 0.11731 0.47273 0.0
C4 C 0.09372 0.13 0.36111 0.0
C5 C 0.11904 0.14598 0.32906 0.0
C6 C 0.14255 0.1498 0.408 0.0
C7 C 0.13997 0.13711 0.51967 0.0
C8 C 0.11474 0.12116 0.55155 0.0
C9 C 0.07142 0.99877 0.56342 0.0
C10 C 0.02268 0.02013 0.28478 0.0
C11 C 0.97678 0.94148 0.55374 0.0
C12 C 0.94911 0.92618 0.58997 0.0
C13 C 0.94671 0.9132 0.70107 0.0
C14 C 0.92162 0.89671 0.73192 0.0
C15 C 0.89831 0.89266 0.65223 0.0
C16 C 0.90082 0.90568 0.54113 0.0
C17 C 0.92582 0.92214 0.51046 0.0
C18 C 0.96862 0.0453 0.5012 0.0
C19 C 1.01739 0.02388 0.77967 0.0
O20 O 0.04702 0.08996 0.43036 0.0
O21 O 0.06386 0.08734 0.60705 0.0
O22 O 0.07738 0.02368 0.61271 0.0
O23 O 0.05021 1.00173 0.49306 0.0
O24 O 0.02573 0.04504 0.3427 0.0
O25 O 1.01945 0.99495 0.34118 0.0
O26 O 0.99296 0.95403 0.63392 0.0
O27 O 0.97639 0.95659 0.45679 0.0
O28 O 0.96271 0.02041 0.45161 0.0
O29 O 0.98977 0.04226 0.5718 0.0
O30 O 1.01429 0.99898 0.72174 0.0
O31 O 0.02063 0.04907 0.7233 0.0
H32 H 0.07588 0.12787 0.29874 0.0
H33 H 0.12024 0.15519 0.2421 0.0
H34 H 0.15724 0.14001 0.58395 0.0
H35 H 0.11349 0.11226 0.63902 0.0
H36 H 0.96442 0.91546 0.7639 0.0
H37 H 0.92045 0.88727 0.81849 0.0
H38 H 0.88372 0.90262 0.4763 0.0
H39 H 0.92706 0.93125 0.42333 0.0
Nd40 Nd 0.23964 0.79075 0.7965 0.0
Nd41 Nd 0.29782 0.74943 0.79323 0.0
C42 C 0.18634 0.81477 0.77308 0.0
C43 C 0.17094 0.84118 0.72769 0.0
C44 C 0.14044 0.83986 0.70675 0.0
C45 C 0.12485 0.86505 0.67147 0.0
C46 C 0.13944 0.89224 0.65644 0.0
C47 C 0.17025 0.89323 0.67466 0.0
C48 C 0.18583 0.86798 0.70994 0.0
C49 C 0.29255 0.82025 0.82568 0.0
C50 C 0.26957 0.7716 0.54459 0.0
C51 C 0.35234 0.72815 0.80566 0.0
C52 C 0.36854 0.70185 0.84789 0.0
C53 C 0.39919 0.70342 0.86503 0.0
C54 C 0.41531 0.67827 0.89734 0.0
C55 C 0.40111 0.65089 0.91295 0.0
C56 C 0.37018 0.64965 0.89856 0.0
C57 C 0.35409 0.67484 0.86645 0.0
C58 C 0.24614 0.7155 0.79925 0.0
C59 C 0.26607 0.7666 0.03919 0.0
O60 O 0.19773 0.79657 0.69717 0.0
O61 O 0.20317 0.81838 0.86459 0.0
O62 O 0.26736 0.82938 0.86518 0.0
O63 O 0.28873 0.79812 0.76017 0.0
O64 O 0.24655 0.78263 0.60063 0.0
O65 O 0.29311 0.761 0.59913 0.0
O66 O 0.34111 0.74581 0.88431 0.0
O67 O 0.33483 0.72429 0.71603 0.0
O68 O 0.27246 0.7042 0.7961 0.0
O69 O 0.24912 0.74296 0.80277 0.0
O70 O 0.2914 0.76244 0.98446 0.0
O71 O 0.24111 0.7714 0.98179 0.0
H72 H 0.1285 0.81941 0.72021 0.0
H73 H 0.10118 0.8634 0.65976 0.0
H74 H 0.18237 0.9136 0.66227 0.0
H75 H 0.2094 0.86949 0.72504 0.0
H76 H 0.41081 0.72403 0.85098 0.0
H77 H 0.43904 0.68011 0.90634 0.0
H78 H 0.35837 0.62913 0.91156 0.0
H79 H 0.33043 0.67311 0.85436 0.0
Nd80 Nd 0.50165 0.99114 0.03896 0.0
Nd81 Nd 0.53921 0.04612 1.02863 0.0
C82 C 0.47651 0.93811 1.01798 0.0
C83 C 0.45068 0.92188 0.97079 0.0
C84 C 0.45253 0.8912 0.95527 0.0
C85 C 0.4276 0.87472 0.92266 0.0
C86 C 0.40012 0.88855 0.905 0.0
C87 C 0.39869 0.91954 0.91658 0.0
C88 C 0.42364 0.93599 0.94931 0.0
C89 C 0.46953 0.04279 0.06387 0.0
C90 C 0.5169 0.02073 0.78587 0.0
C91 C 0.56468 0.09896 0.05026 0.0
C92 C 0.59044 0.11492 0.09945 0.0
C93 C 0.58808 0.14523 0.12274 0.0
C94 C 0.61286 0.16168 0.15725 0.0
C95 C 0.64072 0.14819 0.16906 0.0
C96 C 0.64271 0.1175 0.14959 0.0
C97 C 0.61789 0.10108 0.11506 0.0
C98 C 0.57124 0.99447 1.00261 0.0
C99 C 0.52401 1.01656 0.28175 0.0
O100 O 0.4961 0.94834 0.94477 0.0
O101 O 0.47169 0.95614 0.10444 0.0
O102 O 0.46325 1.01809 0.11468 0.0
O103 O 0.49065 0.03928 0.99343 0.0
O104 O 0.51232 0.99598 0.84375 0.0
O105 O 0.52157 0.04573 0.84172 0.0
O106 O 0.54454 0.08908 0.12191 0.0
O107 O 0.5697 0.08079 0.96442 0.0
O108 O 0.57739 1.01918 0.95168 0.0
O109 O 0.55029 0.99798 0.07389 0.0
O110 O 0.52864 0.04128 0.22387 0.0
O111 O 0.51926 0.99157 0.22592 0.0
H112 H 0.47314 0.8798 0.97187 0.0
H113 H 0.42966 0.85099 0.91583 0.0
H114 H 0.37813 0.93114 0.90171 0.0
H115 H 0.42165 0.95964 0.96036 0.0
H116 H 0.56717 0.15645 0.11073 0.0
H117 H 0.61038 0.1852 0.17011 0.0
H118 H 0.6636 0.10615 0.15967 0.0
H119 H 0.62031 0.0777 0.09803 0.0
Nd120 Nd 0.29936 0.25129 0.28155 0.0
Nd121 Nd 0.24327 0.28779 0.27302 0.0
C122 C 0.35264 0.22692 0.25783 0.0
C123 C 0.36824 0.20062 0.21186 0.0
C124 C 0.39863 0.20233 0.18865 0.0
C125 C 0.41457 0.17716 0.15552 0.0
C126 C 0.4005 0.14956 0.14499 0.0
C127 C 0.36975 0.1482 0.16486 0.0
C128 C 0.35383 0.17341 0.19801 0.0
C129 C 0.24844 0.21813 0.30659 0.0
C130 C 0.26933 0.2666 1.02957 0.0
C131 C 0.18996 0.31205 0.29699 0.0
C132 C 0.17432 0.33817 0.34432 0.0
C133 C 0.1441 0.33611 0.37045 0.0
C134 C 0.12805 0.36112 0.40465 0.0
C135 C 0.14185 0.3889 0.41329 0.0
C136 C 0.17245 0.39061 0.39067 0.0
C137 C 0.18848 0.36556 0.35649 0.0
C138 C 0.29419 0.32097 0.24738 0.0
C139 C 0.27337 0.27257 0.52504 0.0
O140 O 0.34153 0.24566 0.18311 0.0
O141 O 0.33555 0.22294 0.34803 0.0
O142 O 0.27344 0.21192 0.35515 0.0
O143 O 0.25134 0.23959 0.23724 0.0
O144 O 0.29422 0.26271 0.08723 0.0
O145 O 0.24418 0.2705 0.08559 0.0
O146 O 0.20093 0.29299 0.37076 0.0
O147 O 0.20717 0.31638 0.20741 0.0
O148 O 0.26916 0.32706 0.19882 0.0
O149 O 0.2913 0.2996 0.31726 0.0
O150 O 0.24848 0.27653 0.46744 0.0
O151 O 0.2985 0.26857 0.46899 0.0
H152 H 0.41026 0.22305 0.19924 0.0
H153 H 0.43816 0.17918 0.14237 0.0
H154 H 0.35796 0.12754 0.15579 0.0
H155 H 0.33038 0.17152 0.21502 0.0
H156 H 0.13267 0.31524 0.36126 0.0
H157 H 0.10458 0.35885 0.42002 0.0
H158 H 0.18405 0.41142 0.39825 0.0
H159 H 0.2118 0.36773 0.33728 0.0
Nd160 Nd 0.74265 0.28914 0.28453 0.0
Nd161 Nd 0.79747 0.25234 0.27447 0.0
C162 C 0.68968 0.31418 0.26215 0.0
C163 C 0.6741 0.34014 0.21341 0.0
C164 C 0.64361 0.33842 0.19255 0.0
C165 C 0.62766 0.36342 0.15745 0.0
C166 C 0.64187 0.39082 0.1426 0.0
C167 C 0.6727 0.39216 0.15992 0.0
C168 C 0.68863 0.36711 0.19502 0.0
C169 C 0.794 0.32183 0.30982 0.0
C170 C 0.77208 0.2743 1.03155 0.0
C171 C 0.85045 0.22735 0.29668 0.0
C172 C 0.86611 0.20149 0.34579 0.0
C173 C 0.89657 0.20338 0.36731 0.0
C174 C 0.91261 0.17847 0.40258 0.0
C175 C 0.89855 0.15098 0.41692 0.0
C176 C 0.86775 0.14946 0.39902 0.0
C177 C 0.85171 0.17442 0.36376 0.0
C178 C 0.7461 0.21967 0.24875 0.0
C179 C 0.76802 0.26716 0.52749 0.0
O180 O 0.69989 0.29451 0.18958 0.0
O181 O 0.70754 0.31888 0.3495 0.0
O182 O 0.76933 0.32762 0.36143 0.0
O183 O 0.79063 0.30081 0.2389 0.0
O184 O 0.74729 0.27844 0.08935 0.0
O185 O 0.79714 0.27002 0.0877 0.0
O186 O 0.84032 0.24714 0.36891 0.0
O187 O 0.83251 0.22249 0.20974 0.0
O188 O 0.77077 0.21398 0.197 0.0
O189 O 0.74948 0.24059 0.32017 0.0
O190 O 0.7928 0.26297 0.4697 0.0
O191 O 0.74297 0.27151 0.47135 0.0
H192 H 0.63191 0.31786 0.2067 0.0
H193 H 0.60399 0.36149 0.14633 0.0
H194 H 0.68454 0.41269 0.14755 0.0
H195 H 0.71218 0.36897 0.21018 0.0
H196 H 0.90816 0.22402 0.3535 0.0
H197 H 0.93626 0.18054 0.41418 0.0
H198 H 0.85602 0.12885 0.411 0.0
H199 H 0.8282 0.17243 0.3481 0.0
Nd200 Nd 0.79924 0.75234 0.78193 0.0
Nd201 Nd 0.743 0.78842 0.7744 0.0
C202 C 0.85232 0.72777 0.7537 0.0
C203 C 0.86773 0.70003 0.71873 0.0
C204 C 0.87977 0.69694 0.60634 0.0
C205 C 0.89627 0.67181 0.5762 0.0
C206 C 0.90129 0.64912 0.65782 0.0
C207 C 0.88927 0.65236 0.77029 0.0
C208 C 0.87281 0.67739 0.80028 0.0
C209 C 0.74865 0.71871 0.8075 0.0
C210 C 0.7695 0.76852 0.53118 0.0
C211 C 0.68946 0.81216 0.79846 0.0
C212 C 0.67364 0.83801 0.84698 0.0
C213 C 0.64323 0.83596 0.8695 0.0
C214 C 0.62709 0.86081 0.90473 0.0
C215 C 0.64098 0.88841 0.91802 0.0
C216 C 0.67174 0.89009 0.89909 0.0
C217 C 0.68787 0.8652 0.86389 0.0
C218 C 0.79365 0.82201 0.74833 0.0
C219 C 0.77346 0.77354 1.02628 0.0
O220 O 0.83902 0.74327 0.6732 0.0
O221 O 0.8379 0.72791 0.85218 0.0
O222 O 0.77378 0.71263 0.85522 0.0
O223 O 0.7513 0.74023 0.73838 0.0
O224 O 0.79446 0.76579 0.5894 0.0
O225 O 0.74418 0.77116 0.58703 0.0
O226 O 0.70049 0.79293 0.87141 0.0
O227 O 0.70677 0.81695 0.70951 0.0
O228 O 0.76854 0.82798 0.70018 0.0
O229 O 0.79097 0.80057 0.81791 0.0
O230 O 0.74852 0.77753 0.96897 0.0
O231 O 0.79852 0.76936 0.96994 0.0
H232 H 0.87672 0.71412 0.54177 0.0
H233 H 0.90491 0.67012 0.48858 0.0
H234 H 0.89308 0.63577 0.83661 0.0
H235 H 0.86448 0.67916 0.88838 0.0
H236 H 0.63175 0.81523 0.85664 0.0
H237 H 0.60349 0.85859 0.91719 0.0
H238 H 0.68339 0.91077 0.91027 0.0
H239 H 0.71133 0.86734 0.84754 0.0
Nd240 Nd 0.53946 0.54798 1.03177 0.0
Nd241 Nd 0.5026 0.493 1.02326 0.0
C242 C 0.56481 0.60072 1.00606 0.0
C243 C 0.59257 0.61579 0.96931 0.0
C244 C 0.595 0.62863 0.85795 0.0
C245 C 0.6202 0.6449 0.82661 0.0
C246 C 0.64358 0.64888 0.90604 0.0
C247 C 0.64103 0.63601 1.01739 0.0
C248 C 0.61593 0.61976 0.04855 0.0
C249 C 0.57236 0.4969 0.05816 0.0
C250 C 0.52369 0.51861 0.7801 0.0
C251 C 0.47721 0.44026 0.04873 0.0
C252 C 0.4496 0.42499 0.08605 0.0
C253 C 0.44749 0.41185 0.19699 0.0
C254 C 0.42246 0.39535 0.22861 0.0
C255 C 0.39892 0.39143 0.14987 0.0
C256 C 0.40116 0.40459 0.03892 0.0
C257 C 0.42609 0.42106 1.00749 0.0
C258 C 0.46988 0.54426 0.99672 0.0
C259 C 0.51839 0.52234 0.27503 0.0
O260 O 0.5484 0.58836 0.92615 0.0
O261 O 0.56524 0.58553 0.10283 0.0
O262 O 0.57847 0.52177 0.10751 0.0
O263 O 0.55111 0.5 0.98802 0.0
O264 O 0.52695 0.5435 0.83801 0.0
O265 O 0.52027 0.49345 0.83649 0.0
O266 O 0.49382 0.45248 0.12833 0.0
O267 O 0.47651 0.45564 0.95245 0.0
O268 O 0.46371 0.51944 0.947 0.0
O269 O 0.49099 0.54096 0.06728 0.0
O270 O 0.51503 0.49747 0.21712 0.0
O271 O 0.52187 0.5475 0.21868 0.0
H272 H 0.57725 0.62641 0.79529 0.0
H273 H 0.62139 0.65424 0.73987 0.0
H274 H 0.65819 0.63902 0.08201 0.0
H275 H 0.61467 0.61076 0.13586 0.0
H276 H 0.46539 0.41401 0.25909 0.0
H277 H 0.42152 0.38579 0.31503 0.0
H278 H 0.38388 0.40164 0.97475 0.0
H279 H 0.4271 0.43027 0.92047 0.0
Nd280 Nd 1.00294 0.4921 0.53431 0.0
Nd281 Nd 0.04049 0.54696 0.52405 0.0
C282 C 0.97742 0.43932 0.5115 0.0
C283 C 0.95128 0.4238 0.46328 0.0
C284 C 0.95309 0.39348 0.43943 0.0
C285 C 0.92801 0.37752 0.40487 0.0
C286 C 0.90039 0.3915 0.39351 0.0
C287 C 0.89892 0.42218 0.41384 0.0
C288 C 0.92405 0.43813 0.44843 0.0
C289 C 0.97073 0.54355 0.56095 0.0
C290 C 1.01815 0.52167 0.28134 0.0
C291 C 0.06584 0.5999 0.54387 0.0
C292 C 0.09097 0.61653 0.59412 0.0
C293 C 0.09626 0.64543 0.55547 0.0
C294 C 0.12038 0.66162 0.59754 0.0
C295 C 0.13995 0.6493 0.67966 0.0
C296 C 0.13435 0.6203 0.71931 0.0
C297 C 0.11011 0.60408 0.67695 0.0
C298 C 0.07241 0.49522 0.49736 0.0
C299 C 0.02556 0.51731 0.77732 0.0
O300 O 0.9971 0.44955 0.4387 0.0
O301 O 0.97298 0.45704 0.59927 0.0
O302 O 0.96457 0.51871 0.61076 0.0
O303 O 0.99182 0.54032 0.48995 0.0
O304 O 1.01363 0.49693 0.33922 0.0
O305 O 0.02279 0.54666 0.33723 0.0
O306 O 0.04541 0.59016 0.61452 0.0
O307 O 0.07173 0.58127 0.4606 0.0
O308 O 0.07845 0.51988 0.44582 0.0
O309 O 0.05157 0.49879 0.5691 0.0
O310 O 0.03042 0.54202 0.71958 0.0
O311 O 0.02052 0.49238 0.7214 0.0
H312 H 0.97383 0.38191 0.45081 0.0
H313 H 0.9301 0.35397 0.39139 0.0
H314 H 0.87823 0.4339 0.40417 0.0
H315 H 0.92206 0.46153 0.46591 0.0
H316 H 0.08186 0.65543 0.49114 0.0
H317 H 0.12408 0.68356 0.5631 0.0
H318 H 0.14865 0.6101 0.78335 0.0
H319 H 0.10646 0.5818 0.70812 0.0
C320 C 0.19759 0.15772 0.41522 0.0
C321 C 0.16968 0.16691 0.37537 0.0
H322 H 0.2439 0.16656 0.42461 0.0
C323 C 0.16806 0.19283 0.30728 0.0
H324 H 0.19996 0.13763 0.46556 0.0
C325 C 0.19361 0.20937 0.2823 0.0
C326 C 0.22126 0.20036 0.32506 0.0
H327 H 0.14697 0.20079 0.27584 0.0
H328 H 0.19163 0.22949 0.23179 0.0
C329 C 0.22292 0.17425 0.39092 0.0
C330 C 0.11323 0.9721 0.65891 0.0
C331 C 0.08902 0.97152 0.5822 0.0
H332 H 0.14771 0.94789 0.74306 0.0
C333 C 0.08173 0.94477 0.52753 0.0
H334 H 0.11934 0.99231 0.70309 0.0
C335 C 0.09822 0.91911 0.55009 0.0
C336 C 0.12241 0.91966 0.62768 0.0
H337 H 0.06316 0.94363 0.46815 0.0
H338 H 0.09207 0.89887 0.50637 0.0
C339 C 0.12968 0.94659 0.68127 0.0
C340 C 0.32023 0.86213 0.91498 0.0
C341 C 0.32055 0.83693 0.84372 0.0
H342 H 0.34456 0.89762 0.99096 0.0
C343 C 0.34736 0.82856 0.79184 0.0
H344 H 0.30004 0.86913 0.95722 0.0
C345 C 0.37321 0.84526 0.81069 0.0
C346 C 0.37276 0.87071 0.88162 0.0
H347 H 0.34835 0.80924 0.73661 0.0
H348 H 0.39345 0.8384 0.76864 0.0
C349 C 0.34584 0.87872 0.93364 0.0
C350 C 0.45891 0.09668 1.02245 0.0
C351 C 0.4519 0.0702 0.08009 0.0
H352 H 0.44808 0.14236 0.99592 0.0
C353 C 0.42777 0.06998 0.15708 0.0
H354 H 0.4774 0.09759 0.96276 0.0
C355 C 0.41108 0.09548 0.17653 0.0
C356 C 0.41797 0.12214 0.11968 0.0
H357 H 0.42184 0.05003 0.20364 0.0
H358 H 0.39312 0.09439 0.23857 0.0
C359 C 0.44216 0.12236 0.04209 0.0
C360 C 0.84346 0.88365 0.64309 0.0
C361 C 0.87147 0.87494 0.68346 0.0
H362 H 0.79736 0.87389 0.632 0.0
C363 C 0.8735 0.84889 0.75064 0.0
H364 H 0.84077 0.9038 0.59341 0.0
C365 C 0.84825 0.83178 0.77429 0.0
C366 C 0.8205 0.84033 0.73104 0.0
H367 H 0.89469 0.84128 0.78241 0.0
H368 H 0.85054 0.8116 0.82416 0.0
C369 C 0.81843 0.86655 0.66603 0.0
C370 C 0.95747 0.09899 0.54084 0.0
C371 C 0.95056 0.07235 0.48456 0.0
H372 H 0.94632 0.14461 0.56535 0.0
C373 C 0.92623 0.07166 0.40848 0.0
H374 H 0.97612 0.10021 0.59979 0.0
C375 C 0.90927 0.09695 0.38838 0.0
C376 C 0.91613 0.12378 0.44363 0.0
H377 H 0.9204 0.05155 0.36309 0.0
H378 H 0.89115 0.09558 0.32698 0.0
C379 C 0.94046 0.12444 0.5205 0.0
C380 C 0.71973 0.17721 0.15675 0.0
C381 C 0.71905 0.20138 0.23334 0.0
H382 H 0.69599 0.14197 0.07589 0.0
C383 C 0.69246 0.20779 0.29109 0.0
H384 H 0.73976 0.17172 0.11013 0.0
C385 C 0.66711 0.19045 0.27175 0.0
C386 C 0.6678 0.16624 0.1945 0.0
H387 H 0.69121 0.2263 0.35045 0.0
H388 H 0.647 0.19594 0.31778 0.0
C389 C 0.69457 0.15993 0.1377 0.0
C390 C 0.59906 0.915 1.02183 0.0
C391 C 0.62331 0.91561 0.94455 0.0
H392 H 0.5636 0.93934 0.10182 0.0
C393 C 0.63007 0.94245 0.88891 0.0
H394 H 0.59323 0.89482 0.06695 0.0
C395 C 0.61321 0.96777 0.90921 0.0
C396 C 0.58902 0.96719 0.98591 0.0
H397 H 0.64807 0.94382 0.82711 0.0
H398 H 0.61905 0.98787 0.86347 0.0
C399 C 0.58214 0.94052 0.04243 0.0
C400 C 0.6985 0.65752 0.91446 0.0
C401 C 0.67051 0.66639 0.87428 0.0
H402 H 0.74468 0.66696 0.92479 0.0
C403 C 0.66862 0.69238 0.80674 0.0
H404 H 0.70108 0.6374 0.96445 0.0
C405 C 0.69396 0.70928 0.7825 0.0
C406 C 0.72169 0.70058 0.82548 0.0
H407 H 0.64746 0.7001 0.77512 0.0
H408 H 0.69177 0.72943 0.73234 0.0
C409 C 0.72363 0.67442 0.8909 0.0
C410 C 0.59998 0.41755 0.03954 0.0
C411 C 0.62442 0.41812 0.11588 0.0
H412 H 0.56436 0.44193 0.96061 0.0
C413 C 0.63153 0.44496 0.17054 0.0
H414 H 0.59392 0.39737 0.99513 0.0
C415 C 0.6147 0.47034 0.15039 0.0
C416 C 0.59026 0.46974 0.07484 0.0
H417 H 0.64974 0.44628 0.23153 0.0
H418 H 0.62073 0.49046 0.19533 0.0
C419 C 0.5831 0.44309 1.01915 0.0
C420 C 0.87342 0.34988 0.28923 0.0
C421 C 0.87303 0.37396 0.36714 0.0
H422 H 0.84887 0.31456 0.20913 0.0
C423 C 0.84628 0.38062 0.42353 0.0
H424 H 0.89349 0.34414 0.2434 0.0
C425 C 0.82087 0.36378 0.40347 0.0
C426 C 0.82127 0.33973 0.3263 0.0
H427 H 0.84507 0.3985 0.48577 0.0
H428 H 0.80085 0.36951 0.44978 0.0
C429 C 0.84782 0.33299 0.26894 0.0
C430 C 0.91056 0.59437 0.67169 0.0
C431 C 0.91881 0.62209 0.62696 0.0
H432 H 0.92029 0.54837 0.6858 0.0
C433 C 0.94412 0.62359 0.55531 0.0
H434 H 0.89098 0.59202 0.72493 0.0
C435 C 0.96094 0.59816 0.53146 0.0
C436 C 0.95282 0.5707 0.57876 0.0
H437 H 0.95137 0.64454 0.51994 0.0
H438 H 0.98053 0.60009 0.47794 0.0
C439 C 0.92733 0.56918 0.64838 0.0
C440 C 0.3489 0.33055 0.27259 0.0
C441 C 0.3211 0.33924 0.23031 0.0
H442 H 0.39539 0.3399 0.27943 0.0
C443 C 0.319 0.36558 0.16605 0.0
H444 H 0.35121 0.31027 0.32187 0.0
C445 C 0.34403 0.38263 0.14276 0.0
C446 C 0.3721 0.37376 0.18192 0.0
H447 H 0.29789 0.37305 0.1328 0.0
H448 H 0.3413 0.40287 0.09364 0.0
C449 C 0.37416 0.34762 0.24853 0.0
C450 C 0.45975 0.59823 0.03477 0.0
C451 C 0.45225 0.57159 0.97966 0.0
H452 H 0.4494 0.64408 0.05835 0.0
C453 C 0.42775 0.57118 0.90439 0.0
H454 H 0.47855 0.59927 0.093 0.0
C455 C 0.41114 0.5967 0.88424 0.0
C456 C 0.41855 0.62351 0.93853 0.0
H457 H 0.42147 0.55107 0.85986 0.0
H458 H 0.39281 0.59552 0.82377 0.0
C459 C 0.44311 0.62393 1.01427 0.0
C460 C 0.21934 0.66793 0.76529 0.0
C461 C 0.21836 0.69875 0.77856 0.0
H462 H 0.19585 0.62835 0.72303 0.0
C463 C 0.19111 0.71314 0.7652 0.0
H464 H 0.24002 0.65616 0.77473 0.0
C465 C 0.16557 0.69711 0.73598 0.0
C466 C 0.16664 0.66626 0.71946 0.0
H467 H 0.18962 0.73685 0.77524 0.0
H468 H 0.14498 0.70896 0.72574 0.0
C469 C 0.19388 0.65191 0.73622 0.0
C470 C 0.13048 0.44274 0.38067 0.0
C471 C 0.12421 0.41617 0.43921 0.0
H472 H 0.11915 0.48801 0.35299 0.0
C473 C 0.10051 0.41589 0.5191 0.0
H474 H 0.14802 0.44385 0.31681 0.0
C475 C 0.08365 0.44147 0.53949 0.0
C476 C 0.09007 0.46787 0.48029 0.0
H477 H 0.09508 0.39594 0.56652 0.0
H478 H 0.06556 0.44054 0.60104 0.0
C479 C 0.11369 0.46813 0.40087 0.0
C480 C 0.02303 0.04895 0.97366 0.0
C481 C 1.01831 0.02308 0.90899 0.0
H482 H 0.02831 0.06829 0.14227 0.0
C483 C 1.01534 0.99612 0.96908 0.0
H484 H 0.02553 0.07005 0.93039 0.0
C485 C 1.01705 0.99506 0.09078 0.0
C486 C 0.02177 0.02093 0.15546 0.0
H487 H 1.01176 0.97572 0.92218 0.0
H488 H 1.01455 0.97396 0.13406 0.0
C489 C 0.02473 0.04789 0.09537 0.0
C490 C 0.24276 0.7783 0.35403 0.0
C491 C 0.26864 0.77061 0.41516 0.0
H492 H 0.22144 0.7828 0.18803 0.0
C493 C 0.2933 0.76107 0.35139 0.0
H494 H 0.22323 0.78558 0.40016 0.0
C495 C 0.29222 0.75944 0.22985 0.0
C496 C 0.2664 0.76717 0.16862 0.0
H497 H 0.31356 0.75485 0.39518 0.0
H498 H 0.31177 0.75214 0.18397 0.0
C499 C 0.24163 0.77652 0.23223 0.0
C500 C 0.51392 0.9931 0.5969 0.0
C501 C 0.5181 1.01987 0.65673 0.0
H502 H 0.51273 0.97094 0.43235 0.0
C503 C 0.52468 0.0454 0.59214 0.0
H504 H 0.50894 0.97295 0.6438 0.0
C505 C 0.52701 0.04418 0.47072 0.0
C506 C 0.52283 1.01741 0.41089 0.0
H507 H 0.5282 0.06634 0.63528 0.0
H508 H 0.53199 0.06433 0.42382 0.0
C509 C 0.51625 0.99189 0.47548 0.0
C510 C 0.29706 0.26393 0.84066 0.0
C511 C 0.27016 0.26761 0.90037 0.0
H512 H 0.31927 0.26279 0.67608 0.0
C513 C 0.24447 0.2733 0.83552 0.0
H514 H 0.31734 0.25962 0.88774 0.0
C515 C 0.24565 0.27525 0.71395 0.0
C516 C 0.27254 0.27157 0.65424 0.0
H517 H 0.22343 0.27639 0.87853 0.0
H518 H 0.22536 0.27957 0.66688 0.0
C519 C 0.29823 0.26588 0.71909 0.0
C520 C 0.74439 0.27683 0.84231 0.0
C521 C 0.77124 0.2731 0.90243 0.0
H522 H 0.7222 0.27767 0.6775 0.0
C523 C 0.79689 0.26696 0.83816 0.0
H524 H 0.72415 0.28146 0.88898 0.0
C525 C 0.79571 0.26463 0.71673 0.0
C526 C 0.76886 0.26836 0.65661 0.0
H527 H 0.8179 0.2638 0.88155 0.0
H528 H 0.81596 0.26 0.67006 0.0
C529 C 0.74321 0.2745 0.72088 0.0
C530 C 0.74462 0.77453 0.33688 0.0
C531 C 0.77041 0.76954 0.40196 0.0
H532 H 0.72537 0.77995 0.16807 0.0
C533 C 0.79739 0.76629 0.34238 0.0
H534 H 0.72351 0.77727 0.37976 0.0
C535 C 0.79852 0.7679 0.22067 0.0
C536 C 0.77271 0.77286 0.15558 0.0
H537 H 0.81774 0.76248 0.38966 0.0
H538 H 0.81961 0.76512 0.17773 0.0
C539 C 0.74575 0.77619 0.21525 0.0
C540 C 0.52596 0.54632 0.59065 0.0
C541 C 0.52277 0.5194 0.65079 0.0
H542 H 0.52693 0.56846 0.42564 0.0
C543 C 0.51782 0.49357 0.58618 0.0
H544 H 0.52972 0.56671 0.6375 0.0
C545 C 0.51611 0.49462 0.46448 0.0
C546 C 0.5193 0.52155 0.40434 0.0
H547 H 0.51514 0.47249 0.62951 0.0
H548 H 0.51235 0.47424 0.41763 0.0
C549 C 0.52425 0.54738 0.46895 0.0
C550 C 1.01744 0.49276 0.97106 0.0
C551 C 0.02437 0.51818 0.90646 0.0
H552 H 1.00974 0.47396 0.13934 0.0
C553 C 0.02883 0.54492 0.96625 0.0
H554 H 1.01369 0.47185 0.92795 0.0
C555 C 0.02639 0.5462 0.08763 0.0
C556 C 1.01944 0.52078 0.15222 0.0
H557 H 0.03409 0.565 0.91936 0.0
H558 H 0.03013 0.56711 0.13073 0.0
C559 C 1.01501 0.49404 0.09244 0.0
loop_
_geom_bond_atom_site_label_1
_geom_bond_atom_site_label_2
_geom_bond_distance
_geom_bond_site_symmetry_2
_ccdc_geom_bond_type
Nd0 C2 2.836 . S
Nd0 O20 2.500 . S
Nd0 O21 2.492 . S
Nd0 O22 2.487 1_545 S
Nd0 O23 2.682 1_545 S
Nd0 O24 2.410 . S
Nd0 O29 2.414 1_455 S
Nd0 O31 2.424 . S
Nd1 C11 2.836 . S
Nd1 O23 2.414 1_655 S
Nd1 O25 2.424 . S
Nd1 O26 2.500 . S
Nd1 O27 2.492 . S
Nd1 O28 2.487 1_565 S
Nd1 O29 2.682 1_565 S
Nd1 O30 2.410 . S
C2 Nd0 2.836 . S
C2 C3 1.498 . S
C2 O20 1.258 . S
C2 O21 1.239 . S
C3 C2 1.498 . S
C3 C4 1.366 . S
C3 C8 1.407 . S
C4 C3 1.366 . S
C4 C5 1.392 . S
C4 H32 0.930 . S
C5 C4 1.392 . S
C5 C6 1.398 . S
C5 H33 0.929 . S
C6 C5 1.398 . S
C6 C7 1.352 . S
C7 C6 1.352 . S
C7 C8 1.384 . S
C7 H34 0.930 . S
C8 C3 1.407 . S
C8 C7 1.384 . S
C8 H35 0.929 . S
C9 O22 1.241 . S
C9 O23 1.273 . S
C10 O24 1.251 . S
C10 O25 1.268 1_445 S
C11 Nd1 2.836 . S
C11 C12 1.498 . S
C11 O26 1.258 . S
C11 O27 1.239 . S
C12 C11 1.498 . S
C12 C13 1.366 . S
C12 C17 1.407 . S
C13 C12 1.366 . S
C13 C14 1.392 . S
C13 H36 0.930 . S
C14 C13 1.392 . S
C14 C15 1.398 . S
C14 H37 0.929 . S
C15 C14 1.398 . S
C15 C16 1.352 . S
C16 C15 1.352 . S
C16 C17 1.384 . S
C16 H38 0.930 . S
C17 C12 1.407 . S
C17 C16 1.384 . S
C17 H39 0.929 . S
C18 O28 1.241 . S
C18 O29 1.273 . S
C19 O30 1.251 . S
C19 O31 1.268 1_665 S
O20 Nd0 2.500 . S
O20 C2 1.258 . S
O21 Nd0 2.492 . S
O21 C2 1.239 . S
O22 Nd0 2.487 1_565 S
O22 C9 1.241 . S
O23 Nd0 2.682 1_565 S
O23 Nd1 2.414 1_455 S
O23 C9 1.273 . S
O24 Nd0 2.410 . S
O24 C10 1.251 . S
O25 Nd1 2.424 . S
O25 C10 1.268 1_665 S
O26 Nd1 2.500 . S
O26 C11 1.258 . S
O27 Nd1 2.492 . S
O27 C11 1.239 . S
O28 Nd1 2.487 1_545 S
O28 C18 1.241 . S
O29 Nd0 2.414 1_655 S
O29 Nd1 2.682 1_545 S
O29 C18 1.273 . S
O30 Nd1 2.410 . S
O30 C19 1.251 . S
O31 Nd0 2.424 . S
O31 C19 1.268 1_445 S
H32 C4 0.930 . S
H33 C5 0.929 . S
H34 C7 0.930 . S
H35 C8 0.929 . S
H36 C13 0.930 . S
H37 C14 0.929 . S
H38 C16 0.930 . S
H39 C17 0.929 . S
Nd40 C42 2.836 . S
Nd40 O60 2.500 . S
Nd40 O61 2.492 . S
Nd40 O62 2.487 . S
Nd40 O63 2.682 . S
Nd40 O64 2.410 . S
Nd40 O69 2.414 . S
Nd40 O71 2.424 . S
Nd41 C51 2.836 . S
Nd41 O63 2.414 . S
Nd41 O65 2.424 . S
Nd41 O66 2.500 . S
Nd41 O67 2.492 . S
Nd41 O68 2.487 . S
Nd41 O69 2.682 . S
Nd41 O70 2.410 . S
C42 Nd40 2.836 . S
C42 C43 1.498 . S
C42 O60 1.258 . S
C42 O61 1.239 . S
C43 C42 1.498 . S
C43 C44 1.366 . S
C43 C48 1.407 . S
C44 C43 1.366 . S
C44 C45 1.392 . S
C44 H72 0.930 . S
C45 C44 1.392 . S
C45 C46 1.398 . S
C45 H73 0.929 . S
C46 C45 1.398 . S
C46 C47 1.352 . S
C47 C46 1.352 . S
C47 C48 1.384 . S
C47 H74 0.930 . S
C48 C43 1.407 . S
C48 C47 1.384 . S
C48 H75 0.929 . S
C49 O62 1.241 . S
C49 O63 1.273 . S
C50 O64 1.251 . S
C50 O65 1.268 . S
C51 Nd41 2.836 . S
C51 C52 1.498 . S
C51 O66 1.258 . S
C51 O67 1.239 . S
C52 C51 1.498 . S
C52 C53 1.366 . S
C52 C57 1.407 . S
C53 C52 1.366 . S
C53 C54 1.392 1_556 S
C53 H76 0.930 . S
C54 C53 1.392 1_554 S
C54 C55 1.398 . S
C54 H77 0.929 . S
C55 C54 1.398 . S
C55 C56 1.352 1_554 S
C56 C55 1.352 1_556 S
C56 C57 1.384 . S
C56 H78 0.930 . S
C57 C52 1.407 . S
C57 C56 1.384 . S
C57 H79 0.929 . S
C58 O68 1.241 . S
C58 O69 1.273 . S
C59 O70 1.251 . S
C59 O71 1.268 . S
O60 Nd40 2.500 . S
O60 C42 1.258 . S
O61 Nd40 2.492 . S
O61 C42 1.239 . S
O62 Nd40 2.487 . S
O62 C49 1.241 . S
O63 Nd40 2.682 . S
O63 Nd41 2.414 . S
O63 C49 1.273 . S
O64 Nd40 2.410 . S
O64 C50 1.251 . S
O65 Nd41 2.424 . S
O65 C50 1.268 . S
O66 Nd41 2.500 . S
O66 C51 1.258 . S
O67 Nd41 2.492 . S
O67 C51 1.239 . S
O68 Nd41 2.487 . S
O68 C58 1.241 . S
O69 Nd40 2.414 . S
O69 Nd41 2.682 . S
O69 C58 1.273 . S
O70 Nd41 2.410 . S
O70 C59 1.251 . S
O71 Nd40 2.424 . S
O71 C59 1.268 . S
H72 C44 0.930 . S
H73 C45 0.929 . S
H74 C47 0.930 . S
H75 C48 0.929 . S
H76 C53 0.930 . S
H77 C54 0.929 . S
H78 C56 0.930 . S
H79 C57 0.929 . S
Nd80 C82 2.836 1_554 S
Nd80 O100 2.500 1_554 S
Nd80 O101 2.492 1_554 S
Nd80 O102 2.487 1_565 S
Nd80 O103 2.682 1_565 S
Nd80 O104 2.410 1_554 S
Nd80 O109 2.414 1_554 S
Nd80 O111 2.424 . S
Nd81 C91 2.836 1_556 S
Nd81 O103 2.414 1_556 S
Nd81 O105 2.424 . S
Nd81 O106 2.500 1_556 S
Nd81 O107 2.492 1_556 S
Nd81 O108 2.487 1_545 S
Nd81 O109 2.682 1_545 S
Nd81 O110 2.410 1_556 S
C82 Nd80 2.836 1_556 S
C82 C83 1.498 . S
C82 O100 1.258 . S
C82 O101 1.239 . S
C83 C82 1.498 . S
C83 C84 1.366 . S
C83 C88 1.407 . S
C84 C83 1.366 . S
C84 C85 1.392 . S
C84 H112 0.930 . S
C85 C84 1.392 . S
C85 C86 1.398 . S
C85 H113 0.929 . S
C86 C85 1.398 . S
C86 C87 1.352 . S
C87 C86 1.352 . S
C87 C88 1.384 . S
C87 H114 0.930 . S
C88 C83 1.407 . S
C88 C87 1.384 . S
C88 H115 0.929 . S
C89 O102 1.241 . S
C89 O103 1.273 . S
C90 O104 1.251 . S
C90 O105 1.268 1_565 S
C91 Nd81 2.836 1_554 S
C91 C92 1.498 . S
C91 O106 1.258 . S
C91 O107 1.239 . S
C92 C91 1.498 . S
C92 C93 1.366 . S
C92 C97 1.407 . S
C93 C92 1.366 . S
C93 C94 1.392 . S
C93 H116 0.930 . S
C94 C93 1.392 . S
C94 C95 1.398 . S
C94 H117 0.929 . S
C95 C94 1.398 . S
C95 C96 1.352 . S
C96 C95 1.352 . S
C96 C97 1.384 . S
C96 H118 0.930 . S
C97 C92 1.407 . S
C97 C96 1.384 . S
C97 H119 0.929 . S
C98 O108 1.241 . S
C98 O109 1.273 . S
C99 O110 1.251 . S
C99 O111 1.268 1_545 S
O100 Nd80 2.500 1_556 S
O100 C82 1.258 . S
O101 Nd80 2.492 1_556 S
O101 C82 1.239 . S
O102 Nd80 2.487 1_545 S
O102 C89 1.241 . S
O103 Nd80 2.682 1_545 S
O103 Nd81 2.414 1_554 S
O103 C89 1.273 . S
O104 Nd80 2.410 1_556 S
O104 C90 1.251 . S
O105 Nd81 2.424 . S
O105 C90 1.268 1_545 S
O106 Nd81 2.500 1_554 S
O106 C91 1.258 . S
O107 Nd81 2.492 1_554 S
O107 C91 1.239 . S
O108 Nd81 2.487 1_565 S
O108 C98 1.241 . S
O109 Nd80 2.414 1_556 S
O109 Nd81 2.682 1_565 S
O109 C98 1.273 . S
O110 Nd81 2.410 1_554 S
O110 C99 1.251 . S
O111 Nd80 2.424 . S
O111 C99 1.268 1_565 S
H112 C84 0.930 . S
H113 C85 0.929 . S
H114 C87 0.930 . S
H115 C88 0.929 . S
H116 C93 0.930 . S
H117 C94 0.929 . S
H118 C96 0.930 . S
H119 C97 0.929 . S
Nd120 C122 2.836 . S
Nd120 O140 2.500 . S
Nd120 O141 2.492 . S
Nd120 O142 2.487 . S
Nd120 O143 2.682 . S
Nd120 O144 2.410 . S
Nd120 O149 2.414 . S
Nd120 O151 2.424 . S
Nd121 C131 2.836 . S
Nd121 O143 2.414 . S
Nd121 O145 2.424 . S
Nd121 O146 2.500 . S
Nd121 O147 2.492 . S
Nd121 O148 2.487 . S
Nd121 O149 2.682 . S
Nd121 O150 2.410 . S
C122 Nd120 2.836 . S
C122 C123 1.498 . S
C122 O140 1.258 . S
C122 O141 1.239 . S
C123 C122 1.498 . S
C123 C124 1.366 . S
C123 C128 1.407 . S
C124 C123 1.366 . S
C124 C125 1.392 1_554 S
C124 H152 0.930 . S
C125 C124 1.392 1_556 S
C125 C126 1.398 . S
C125 H153 0.929 . S
C126 C125 1.398 . S
C126 C127 1.352 1_556 S
C127 C126 1.352 1_554 S
C127 C128 1.384 . S
C127 H154 0.930 . S
C128 C123 1.407 . S
C128 C127 1.384 . S
C128 H155 0.929 . S
C129 O142 1.241 . S
C129 O143 1.273 . S
C130 O144 1.251 . S
C130 O145 1.268 . S
C131 Nd121 2.836 . S
C131 C132 1.498 . S
C131 O146 1.258 . S
C131 O147 1.239 . S
C132 C131 1.498 . S
C132 C133 1.366 . S
C132 C137 1.407 . S
C133 C132 1.366 . S
C133 C134 1.392 . S
C133 H156 0.930 . S
C134 C133 1.392 . S
C134 C135 1.398 . S
C134 H157 0.929 . S
C135 C134 1.398 . S
C135 C136 1.352 . S
C136 C135 1.352 . S
C136 C137 1.384 . S
C136 H158 0.930 . S
C137 C132 1.407 . S
C137 C136 1.384 . S
C137 H159 0.929 . S
C138 O148 1.241 . S
C138 O149 1.273 . S
C139 O150 1.251 . S
C139 O151 1.268 . S
O140 Nd120 2.500 . S
O140 C122 1.258 . S
O141 Nd120 2.492 . S
O141 C122 1.239 . S
O142 Nd120 2.487 . S
O142 C129 1.241 . S
O143 Nd120 2.682 . S
O143 Nd121 2.414 . S
O143 C129 1.273 . S
O144 Nd120 2.410 . S
O144 C130 1.251 . S
O145 Nd121 2.424 . S
O145 C130 1.268 . S
O146 Nd121 2.500 . S
O146 C131 1.258 . S
O147 Nd121 2.492 . S
O147 C131 1.239 . S
O148 Nd121 2.487 . S
O148 C138 1.241 . S
O149 Nd120 2.414 . S
O149 Nd121 2.682 . S
O149 C138 1.273 . S
O150 Nd121 2.410 . S
O150 C139 1.251 . S
O151 Nd120 2.424 . S
O151 C139 1.268 . S
H152 C124 0.930 . S
H153 C125 0.929 . S
H154 C127 0.930 . S
H155 C128 0.929 . S
H156 C133 0.930 . S
H157 C134 0.929 . S
H158 C136 0.930 . S
H159 C137 0.929 . S
Nd160 C162 2.836 . S
Nd160 O180 2.500 . S
Nd160 O181 2.492 . S
Nd160 O182 2.487 . S
Nd160 O183 2.682 . S
Nd160 O184 2.410 . S
Nd160 O189 2.414 . S
Nd160 O191 2.424 . S
Nd161 C171 2.836 . S
Nd161 O183 2.414 . S
Nd161 O185 2.424 . S
Nd161 O186 2.500 . S
Nd161 O187 2.492 . S
Nd161 O188 2.487 . S
Nd161 O189 2.682 . S
Nd161 O190 2.410 . S
C162 Nd160 2.836 . S
C162 C163 1.498 . S
C162 O180 1.258 . S
C162 O181 1.239 . S
C163 C162 1.498 . S
C163 C164 1.366 . S
C163 C168 1.407 . S
C164 C163 1.366 . S
C164 C165 1.392 1_554 S
C164 H192 0.930 . S
C165 C164 1.392 1_556 S
C165 C166 1.398 . S
C165 H193 0.929 . S
C166 C165 1.398 . S
C166 C167 1.352 1_556 S
C167 C166 1.352 1_554 S
C167 C168 1.384 . S
C167 H194 0.930 . S
C168 C163 1.407 . S
C168 C167 1.384 . S
C168 H195 0.929 . S
C169 O182 1.241 . S
C169 O183 1.273 . S
C170 O184 1.251 . S
C170 O185 1.268 . S
C171 Nd161 2.836 . S
C171 C172 1.498 . S
C171 O186 1.258 . S
C171 O187 1.239 . S
C172 C171 1.498 . S
C172 C173 1.366 . S
C172 C177 1.407 . S
C173 C172 1.366 . S
C173 C174 1.392 . S
C173 H196 0.930 . S
C174 C173 1.392 . S
C174 C175 1.398 . S
C174 H197 0.929 . S
C175 C174 1.398 . S
C175 C176 1.352 . S
C176 C175 1.352 . S
C176 C177 1.384 . S
C176 H198 0.930 . S
C177 C172 1.407 . S
C177 C176 1.384 . S
C177 H199 0.929 . S
C178 O188 1.241 . S
C178 O189 1.273 . S
C179 O190 1.251 . S
C179 O191 1.268 . S
O180 Nd160 2.500 . S
O180 C162 1.258 . S
O181 Nd160 2.492 . S
O181 C162 1.239 . S
O182 Nd160 2.487 . S
O182 C169 1.241 . S
O183 Nd160 2.682 . S
O183 Nd161 2.414 . S
O183 C169 1.273 . S
O184 Nd160 2.410 . S
O184 C170 1.251 . S
O185 Nd161 2.424 . S
O185 C170 1.268 . S
O186 Nd161 2.500 . S
O186 C171 1.258 . S
O187 Nd161 2.492 . S
O187 C171 1.239 . S
O188 Nd161 2.487 . S
O188 C178 1.241 . S
O189 Nd160 2.414 . S
O189 Nd161 2.682 . S
O189 C178 1.273 . S
O190 Nd161 2.410 . S
O190 C179 1.251 . S
O191 Nd160 2.424 . S
O191 C179 1.268 . S
H192 C164 0.930 . S
H193 C165 0.929 . S
H194 C167 0.930 . S
H195 C168 0.929 . S
H196 C173 0.930 . S
H197 C174 0.929 . S
H198 C176 0.930 . S
H199 C177 0.929 . S
Nd200 C202 2.836 . S
Nd200 O220 2.500 . S
Nd200 O221 2.492 . S
Nd200 O222 2.487 . S
Nd200 O223 2.682 . S
Nd200 O224 2.410 . S
Nd200 O229 2.414 . S
Nd200 O231 2.424 . S
Nd201 C211 2.836 . S
Nd201 O223 2.414 . S
Nd201 O225 2.424 . S
Nd201 O226 2.500 . S
Nd201 O227 2.492 . S
Nd201 O228 2.487 . S
Nd201 O229 2.682 . S
Nd201 O230 2.410 . S
C202 Nd200 2.836 . S
C202 C203 1.498 . S
C202 O220 1.258 . S
C202 O221 1.239 . S
C203 C202 1.498 . S
C203 C204 1.366 . S
C203 C208 1.407 . S
C204 C203 1.366 . S
C204 C205 1.392 . S
C204 H232 0.930 . S
C205 C204 1.392 . S
C205 C206 1.398 . S
C205 H233 0.929 . S
C206 C205 1.398 . S
C206 C207 1.352 . S
C207 C206 1.352 . S
C207 C208 1.384 . S
C207 H234 0.930 . S
C208 C203 1.407 . S
C208 C207 1.384 . S
C208 H235 0.929 . S
C209 O222 1.241 . S
C209 O223 1.273 . S
C210 O224 1.251 . S
C210 O225 1.268 . S
C211 Nd201 2.836 . S
C211 C212 1.498 . S
C211 O226 1.258 . S
C211 O227 1.239 . S
C212 C211 1.498 . S
C212 C213 1.366 . S
C212 C217 1.407 . S
C213 C212 1.366 . S
C213 C214 1.392 1_556 S
C213 H236 0.930 . S
C214 C213 1.392 1_554 S
C214 C215 1.398 . S
C214 H237 0.929 . S
C215 C214 1.398 . S
C215 C216 1.352 1_554 S
C216 C215 1.352 1_556 S
C216 C217 1.384 . S
C216 H238 0.930 . S
C217 C212 1.407 . S
C217 C216 1.384 . S
C217 H239 0.929 . S
C218 O228 1.241 . S
C218 O229 1.273 . S
C219 O230 1.251 . S
C219 O231 1.268 . S
O220 Nd200 2.500 . S
O220 C202 1.258 . S
O221 Nd200 2.492 . S
O221 C202 1.239 . S
O222 Nd200 2.487 . S
O222 C209 1.241 . S
O223 Nd200 2.682 . S
O223 Nd201 2.414 . S
O223 C209 1.273 . S
O224 Nd200 2.410 . S
O224 C210 1.251 . S
O225 Nd201 2.424 . S
O225 C210 1.268 . S
O226 Nd201 2.500 . S
O226 C211 1.258 . S
O227 Nd201 2.492 . S
O227 C211 1.239 . S
O228 Nd201 2.487 . S
O228 C218 1.241 . S
O229 Nd200 2.414 . S
O229 Nd201 2.682 . S
O229 C218 1.273 . S
O230 Nd201 2.410 . S
O230 C219 1.251 . S
O231 Nd200 2.424 . S
O231 C219 1.268 . S
H232 C204 0.930 . S
H233 C205 0.929 . S
H234 C207 0.930 . S
H235 C208 0.929 . S
H236 C213 0.930 . S
H237 C214 0.929 . S
H238 C216 0.930 . S
H239 C217 0.929 . S
Nd240 C242 2.836 1_554 S
Nd240 O260 2.500 1_554 S
Nd240 O261 2.492 1_554 S
Nd240 O262 2.487 . S
Nd240 O263 2.682 . S
Nd240 O264 2.410 1_554 S
Nd240 O269 2.414 1_554 S
Nd240 O271 2.424 . S
Nd241 C251 2.836 1_556 S
Nd241 O263 2.414 1_556 S
Nd241 O265 2.424 . S
Nd241 O266 2.500 1_556 S
Nd241 O267 2.492 1_556 S
Nd241 O268 2.487 . S
Nd241 O269 2.682 . S
Nd241 O270 2.410 1_556 S
C242 Nd240 2.836 1_556 S
C242 C243 1.498 . S
C242 O260 1.258 . S
C242 O261 1.239 . S
C243 C242 1.498 . S
C243 C244 1.366 . S
C243 C248 1.407 . S
C244 C243 1.366 . S
C244 C245 1.392 . S
C244 H272 0.930 . S
C245 C244 1.392 . S
C245 C246 1.398 . S
C245 H273 0.929 . S
C246 C245 1.398 . S
C246 C247 1.352 . S
C247 C246 1.352 . S
C247 C248 1.384 . S
C247 H274 0.930 . S
C248 C243 1.407 . S
C248 C247 1.384 . S
C248 H275 0.929 . S
C249 O262 1.241 . S
C249 O263 1.273 . S
C250 O264 1.251 . S
C250 O265 1.268 . S
C251 Nd241 2.836 1_554 S
C251 C252 1.498 . S
C251 O266 1.258 . S
C251 O267 1.239 . S
C252 C251 1.498 . S
C252 C253 1.366 . S
C252 C257 1.407 . S
C253 C252 1.366 . S
C253 C254 1.392 . S
C253 H276 0.930 . S
C254 C253 1.392 . S
C254 C255 1.398 . S
C254 H277 0.929 . S
C255 C254 1.398 . S
C255 C256 1.352 . S
C256 C255 1.352 . S
C256 C257 1.384 . S
C256 H278 0.930 . S
C257 C252 1.407 . S
C257 C256 1.384 . S
C257 H279 0.929 . S
C258 O268 1.241 . S
C258 O269 1.273 . S
C259 O270 1.251 . S
C259 O271 1.268 . S
O260 Nd240 2.500 1_556 S
O260 C242 1.258 . S
O261 Nd240 2.492 1_556 S
O261 C242 1.239 . S
O262 Nd240 2.487 . S
O262 C249 1.241 . S
O263 Nd240 2.682 . S
O263 Nd241 2.414 1_554 S
O263 C249 1.273 . S
O264 Nd240 2.410 1_556 S
O264 C250 1.251 . S
O265 Nd241 2.424 . S
O265 C250 1.268 . S
O266 Nd241 2.500 1_554 S
O266 C251 1.258 . S
O267 Nd241 2.492 1_554 S
O267 C251 1.239 . S
O268 Nd241 2.487 . S
O268 C258 1.241 . S
O269 Nd240 2.414 1_556 S
O269 Nd241 2.682 . S
O269 C258 1.273 . S
O270 Nd241 2.410 1_554 S
O270 C259 1.251 . S
O271 Nd240 2.424 . S
O271 C259 1.268 . S
H272 C244 0.930 . S
H273 C245 0.929 . S
H274 C247 0.930 . S
H275 C248 0.929 . S
H276 C253 0.930 . S
H277 C254 0.929 . S
H278 C256 0.930 . S
H279 C257 0.929 . S
Nd280 C282 2.836 . S
Nd280 O300 2.500 . S
Nd280 O301 2.492 . S
Nd280 O302 2.487 . S
Nd280 O303 2.682 . S
Nd280 O304 2.410 . S
Nd280 O309 2.414 1_655 S
Nd280 O311 2.424 . S
Nd281 C291 2.836 . S
Nd281 O303 2.414 1_455 S
Nd281 O305 2.424 . S
Nd281 O306 2.500 . S
Nd281 O307 2.492 . S
Nd281 O308 2.487 . S
Nd281 O309 2.682 . S
Nd281 O310 2.410 . S
C282 Nd280 2.836 . S
C282 C283 1.498 . S
C282 O300 1.258 . S
C282 O301 1.239 . S
C283 C282 1.498 . S
C283 C284 1.366 . S
C283 C288 1.407 . S
C284 C283 1.366 . S
C284 C285 1.392 . S
C284 H312 0.930 . S
C285 C284 1.392 . S
C285 C286 1.398 . S
C285 H313 0.929 . S
C286 C285 1.398 . S
C286 C287 1.352 . S
C287 C286 1.352 . S
C287 C288 1.384 . S
C287 H314 0.930 . S
C288 C283 1.407 . S
C288 C287 1.384 . S
C288 H315 0.929 . S
C289 O302 1.241 . S
C289 O303 1.273 . S
C290 O304 1.251 . S
C290 O305 1.268 1_655 S
C291 Nd281 2.836 . S
C291 C292 1.498 . S
C291 O306 1.258 . S
C291 O307 1.239 . S
C292 C291 1.498 . S
C292 C293 1.366 . S
C292 C297 1.407 . S
C293 C292 1.366 . S
C293 C294 1.392 . S
C293 H316 0.930 . S
C294 C293 1.392 . S
C294 C295 1.398 . S
C294 H317 0.929 . S
C295 C294 1.398 . S
C295 C296 1.352 . S
C296 C295 1.352 . S
C296 C297 1.384 . S
C296 H318 0.930 . S
C297 C292 1.407 . S
C297 C296 1.384 . S
C297 H319 0.929 . S
C298 O308 1.241 . S
C298 O309 1.273 . S
C299 O310 1.251 . S
C299 O311 1.268 1_455 S
O300 Nd280 2.500 . S
O300 C282 1.258 . S
O301 Nd280 2.492 . S
O301 C282 1.239 . S
O302 Nd280 2.487 . S
O302 C289 1.241 . S
O303 Nd280 2.682 . S
O303 Nd281 2.414 1_655 S
O303 C289 1.273 . S
O304 Nd280 2.410 . S
O304 C290 1.251 . S
O305 Nd281 2.424 . S
O305 C290 1.268 1_455 S
O306 Nd281 2.500 . S
O306 C291 1.258 . S
O307 Nd281 2.492 . S
O307 C291 1.239 . S
O308 Nd281 2.487 . S
O308 C298 1.241 . S
O309 Nd280 2.414 1_455 S
O309 Nd281 2.682 . S
O309 C298 1.273 . S
O310 Nd281 2.410 . S
O310 C299 1.251 . S
O311 Nd280 2.424 . S
O311 C299 1.268 1_655 S
H312 C284 0.930 . S
H313 C285 0.929 . S
H314 C287 0.930 . S
H315 C288 0.929 . S
H316 C293 0.930 . S
H317 C294 0.929 . S
H318 C296 0.930 . S
H319 C297 0.929 . S
C320 C321 1.387 . S
C320 H324 0.950 . S
C320 C329 1.390 . S
C321 C320 1.387 . S
C321 C323 1.387 . S
H322 C329 0.950 . S
C323 C321 1.387 . S
C323 C325 1.390 . S
C323 H327 0.950 . S
H324 C320 0.950 . S
C325 C323 1.390 . S
C325 C326 1.387 . S
C325 H328 0.950 . S
C326 C325 1.387 . S
C326 C329 1.387 . S
H327 C323 0.950 . S
H328 C325 0.950 . S
C329 C320 1.390 . S
C329 H322 0.950 . S
C329 C326 1.387 . S
C330 C331 1.387 . S
C330 H334 0.950 . S
C330 C339 1.390 . S
C331 C330 1.387 . S
C331 C333 1.387 . S
H332 C339 0.950 . S
C333 C331 1.387 . S
C333 C335 1.390 . S
C333 H337 0.950 . S
H334 C330 0.950 . S
C335 C333 1.390 . S
C335 C336 1.387 . S
C335 H338 0.950 . S
C336 C335 1.387 . S
C336 C339 1.387 . S
H337 C333 0.950 . S
H338 C335 0.950 . S
C339 C330 1.390 . S
C339 H332 0.950 . S
C339 C336 1.387 . S
C340 C341 1.387 . S
C340 H344 0.950 . S
C340 C349 1.390 . S
C341 C340 1.387 . S
C341 C343 1.387 . S
H342 C349 0.950 . S
C343 C341 1.387 . S
C343 C345 1.390 . S
C343 H347 0.950 . S
H344 C340 0.950 . S
C345 C343 1.390 . S
C345 C346 1.387 . S
C345 H348 0.950 . S
C346 C345 1.387 . S
C346 C349 1.387 . S
H347 C343 0.950 . S
H348 C345 0.950 . S
C349 C340 1.390 . S
C349 H342 0.950 . S
C349 C346 1.387 . S
C350 C351 1.387 1_556 S
C350 H354 0.950 . S
C350 C359 1.390 . S
C351 C350 1.387 1_554 S
C351 C353 1.387 . S
H352 C359 0.950 . S
C353 C351 1.387 . S
C353 C355 1.390 . S
C353 H357 0.950 . S
H354 C350 0.950 . S
C355 C353 1.390 . S
C355 C356 1.387 1_554 S
C355 H358 0.950 . S
C356 C355 1.387 1_556 S
C356 C359 1.387 . S
H357 C353 0.950 . S
H358 C355 0.950 . S
C359 C350 1.390 . S
C359 H352 0.950 . S
C359 C356 1.387 . S
C360 C361 1.387 . S
C360 H364 0.950 . S
C360 C369 1.390 . S
C361 C360 1.387 . S
C361 C363 1.387 . S
H362 C369 0.950 . S
C363 C361 1.387 . S
C363 C365 1.390 . S
C363 H367 0.950 . S
H364 C360 0.950 . S
C365 C363 1.390 . S
C365 C366 1.387 . S
C365 H368 0.950 . S
C366 C365 1.387 . S
C366 C369 1.387 . S
H367 C363 0.950 . S
H368 C365 0.950 . S
C369 C360 1.390 . S
C369 H362 0.950 . S
C369 C366 1.387 . S
C370 C371 1.387 . S
C370 H374 0.950 . S
C370 C379 1.390 . S
C371 C370 1.387 . S
C371 C373 1.387 . S
H372 C379 0.950 . S
C373 C371 1.387 . S
C373 C375 1.390 . S
C373 H377 0.950 . S
H374 C370 0.950 . S
C375 C373 1.390 . S
C375 C376 1.387 . S
C375 H378 0.950 . S
C376 C375 1.387 . S
C376 C379 1.387 . S
H377 C373 0.950 . S
H378 C375 0.950 . S
C379 C370 1.390 . S
C379 H372 0.950 . S
C379 C376 1.387 . S
C380 C381 1.387 . S
C380 H384 0.950 . S
C380 C389 1.390 . S
C381 C380 1.387 . S
C381 C383 1.387 . S
H382 C389 0.950 . S
C383 C381 1.387 . S
C383 C385 1.390 . S
C383 H387 0.950 . S
H384 C380 0.950 . S
C385 C383 1.390 . S
C385 C386 1.387 . S
C385 H388 0.950 . S
C386 C385 1.387 . S
C386 C389 1.387 . S
H387 C383 0.950 . S
H388 C385 0.950 . S
C389 C380 1.390 . S
C389 H382 0.950 . S
C389 C386 1.387 . S
C390 C391 1.387 . S
C390 H394 0.950 . S
C390 C399 1.390 . S
C391 C390 1.387 . S
C391 C393 1.387 1_554 S
H392 C399 0.950 . S
C393 C391 1.387 1_556 S
C393 C395 1.390 . S
C393 H397 0.950 . S
H394 C390 0.950 . S
C395 C393 1.390 . S
C395 C396 1.387 . S
C395 H398 0.950 . S
C396 C395 1.387 . S
C396 C399 1.387 1_556 S
H397 C393 0.950 . S
H398 C395 0.950 . S
C399 C390 1.390 . S
C399 H392 0.950 . S
C399 C396 1.387 1_554 S
C400 C401 1.387 . S
C400 H404 0.950 . S
C400 C409 1.390 . S
C401 C400 1.387 . S
C401 C403 1.387 . S
H402 C409 0.950 . S
C403 C401 1.387 . S
C403 C405 1.390 . S
C403 H407 0.950 . S
H404 C400 0.950 . S
C405 C403 1.390 . S
C405 C406 1.387 . S
C405 H408 0.950 . S
C406 C405 1.387 . S
C406 C409 1.387 . S
H407 C403 0.950 . S
H408 C405 0.950 . S
C409 C400 1.390 . S
C409 H402 0.950 . S
C409 C406 1.387 . S
C410 C411 1.387 . S
C410 H414 0.950 . S
C410 C419 1.390 . S
C411 C410 1.387 . S
C411 C413 1.387 1_556 S
H412 C419 0.950 . S
C413 C411 1.387 1_554 S
C413 C415 1.390 . S
C413 H417 0.950 . S
H414 C410 0.950 . S
C415 C413 1.390 . S
C415 C416 1.387 . S
C415 H418 0.950 . S
C416 C415 1.387 . S
C416 C419 1.387 1_554 S
H417 C413 0.950 . S
H418 C415 0.950 . S
C419 C410 1.390 . S
C419 H412 0.950 . S
C419 C416 1.387 1_556 S
C420 C421 1.387 . S
C420 H424 0.950 . S
C420 C429 1.390 . S
C421 C420 1.387 . S
C421 C423 1.387 . S
H422 C429 0.950 . S
C423 C421 1.387 . S
C423 C425 1.390 . S
C423 H427 0.950 . S
H424 C420 0.950 . S
C425 C423 1.390 . S
C425 C426 1.387 . S
C425 H428 0.950 . S
C426 C425 1.387 . S
C426 C429 1.387 . S
H427 C423 0.950 . S
H428 C425 0.950 . S
C429 C420 1.390 . S
C429 H422 0.950 . S
C429 C426 1.387 . S
C430 C431 1.387 . S
C430 H434 0.950 . S
C430 C439 1.390 . S
C431 C430 1.387 . S
C431 C433 1.387 . S
H432 C439 0.950 . S
C433 C431 1.387 . S
C433 C435 1.390 . S
C433 H437 0.950 . S
H434 C430 0.950 . S
C435 C433 1.390 . S
C435 C436 1.387 . S
C435 H438 0.950 . S
C436 C435 1.387 . S
C436 C439 1.387 . S
H437 C433 0.950 . S
H438 C435 0.950 . S
C439 C430 1.390 . S
C439 H432 0.950 . S
C439 C436 1.387 . S
C440 C441 1.387 . S
C440 H444 0.950 . S
C440 C449 1.390 . S
C441 C440 1.387 . S
C441 C443 1.387 . S
H442 C449 0.950 . S
C443 C441 1.387 . S
C443 C445 1.390 . S
C443 H447 0.950 . S
H444 C440 0.950 . S
C445 C443 1.390 . S
C445 C446 1.387 . S
C445 H448 0.950 . S
C446 C445 1.387 . S
C446 C449 1.387 . S
H447 C443 0.950 . S
H448 C445 0.950 . S
C449 C440 1.390 . S
C449 H442 0.950 . S
C449 C446 1.387 . S
C450 C451 1.387 1_554 S
C450 H454 0.950 . S
C450 C459 1.390 . S
C451 C450 1.387 1_556 S
C451 C453 1.387 . S
H452 C459 0.950 . S
C453 C451 1.387 . S
C453 C455 1.390 . S
C453 H457 0.950 . S
H454 C450 0.950 . S
C455 C453 1.390 . S
C455 C456 1.387 1_556 S
C455 H458 0.950 . S
C456 C455 1.387 1_554 S
C456 C459 1.387 . S
H457 C453 0.950 . S
H458 C455 0.950 . S
C459 C450 1.390 . S
C459 H452 0.950 . S
C459 C456 1.387 . S
C460 C461 1.387 . S
C460 H464 0.950 . S
C460 C469 1.390 . S
C461 C460 1.387 . S
C461 C463 1.387 . S
H462 C469 0.950 . S
C463 C461 1.387 . S
C463 C465 1.390 . S
C463 H467 0.950 . S
H464 C460 0.950 . S
C465 C463 1.390 . S
C465 C466 1.387 . S
C465 H468 0.950 . S
C466 C465 1.387 . S
C466 C469 1.387 . S
H467 C463 0.950 . S
H468 C465 0.950 . S
C469 C460 1.390 . S
C469 H462 0.950 . S
C469 C466 1.387 . S
C470 C471 1.387 . S
C470 H474 0.950 . S
C470 C479 1.390 . S
C471 C470 1.387 . S
C471 C473 1.387 . S
H472 C479 0.950 . S
C473 C471 1.387 . S
C473 C475 1.390 . S
C473 H477 0.950 . S
H474 C470 0.950 . S
C475 C473 1.390 . S
C475 C476 1.387 . S
C475 H478 0.950 . S
C476 C475 1.387 . S
C476 C479 1.387 . S
H477 C473 0.950 . S
H478 C475 0.950 . S
C479 C470 1.390 . S
C479 H472 0.950 . S
C479 C476 1.387 . S
C480 C481 1.387 1_445 S
C480 H484 0.950 . S
C480 C489 1.390 1_556 S
C481 C480 1.387 1_665 S
C481 C483 1.387 . S
H482 C489 0.950 . S
C483 C481 1.387 . S
C483 C485 1.390 1_556 S
C483 H487 0.950 . S
H484 C480 0.950 . S
C485 C483 1.390 1_554 S
C485 C486 1.387 1_665 S
C485 H488 0.950 . S
C486 C485 1.387 1_445 S
C486 C489 1.387 . S
H487 C483 0.950 . S
H488 C485 0.950 . S
C489 C480 1.390 1_554 S
C489 H482 0.950 . S
C489 C486 1.387 . S
C490 C491 1.387 . S
C490 H494 0.950 . S
C490 C499 1.390 . S
C491 C490 1.387 . S
C491 C493 1.387 . S
H492 C499 0.950 . S
C493 C491 1.387 . S
C493 C495 1.390 . S
C493 H497 0.950 . S
H494 C490 0.950 . S
C495 C493 1.390 . S
C495 C496 1.387 . S
C495 H498 0.950 . S
C496 C495 1.387 . S
C496 C499 1.387 . S
H497 C493 0.950 . S
H498 C495 0.950 . S
C499 C490 1.390 . S
C499 H492 0.950 . S
C499 C496 1.387 . S
C500 C501 1.387 . S
C500 H504 0.950 . S
C500 C509 1.390 . S
C501 C500 1.387 . S
C501 C503 1.387 1_565 S
H502 C509 0.950 . S
C503 C501 1.387 1_545 S
C503 C505 1.390 . S
C503 H507 0.950 . S
H504 C500 0.950 . S
C505 C503 1.390 . S
C505 C506 1.387 . S
C505 H508 0.950 . S
C506 C505 1.387 . S
C506 C509 1.387 1_545 S
H507 C503 0.950 . S
H508 C505 0.950 . S
C509 C500 1.390 . S
C509 H502 0.950 . S
C509 C506 1.387 1_565 S
C510 C511 1.387 . S
C510 H514 0.950 . S
C510 C519 1.390 . S
C511 C510 1.387 . S
C511 C513 1.387 . S
H512 C519 0.950 . S
C513 C511 1.387 . S
C513 C515 1.390 . S
C513 H517 0.950 . S
H514 C510 0.950 . S
C515 C513 1.390 . S
C515 C516 1.387 . S
C515 H518 0.950 . S
C516 C515 1.387 . S
C516 C519 1.387 . S
H517 C513 0.950 . S
H518 C515 0.950 . S
C519 C510 1.390 . S
C519 H512 0.950 . S
C519 C516 1.387 . S
C520 C521 1.387 . S
C520 H524 0.950 . S
C520 C529 1.390 . S
C521 C520 1.387 . S
C521 C523 1.387 . S
H522 C529 0.950 . S
C523 C521 1.387 . S
C523 C525 1.390 . S
C523 H527 0.950 . S
H524 C520 0.950 . S
C525 C523 1.390 . S
C525 C526 1.387 . S
C525 H528 0.950 . S
C526 C525 1.387 . S
C526 C529 1.387 . S
H527 C523 0.950 . S
H528 C525 0.950 . S
C529 C520 1.390 . S
C529 H522 0.950 . S
C529 C526 1.387 . S
C530 C531 1.387 . S
C530 H534 0.950 . S
C530 C539 1.390 . S
C531 C530 1.387 . S
C531 C533 1.387 . S
H532 C539 0.950 . S
C533 C531 1.387 . S
C533 C535 1.390 . S
C533 H537 0.950 . S
H534 C530 0.950 . S
C535 C533 1.390 . S
C535 C536 1.387 . S
C535 H538 0.950 . S
C536 C535 1.387 . S
C536 C539 1.387 . S
H537 C533 0.950 . S
H538 C535 0.950 . S
C539 C530 1.390 . S
C539 H532 0.950 . S
C539 C536 1.387 . S
C540 C541 1.387 . S
C540 H544 0.950 . S
C540 C549 1.390 . S
C541 C540 1.387 . S
C541 C543 1.387 . S
H542 C549 0.950 . S
C543 C541 1.387 . S
C543 C545 1.390 . S
C543 H547 0.950 . S
H544 C540 0.950 . S
C545 C543 1.390 . S
C545 C546 1.387 . S
C545 H548 0.950 . S
C546 C545 1.387 . S
C546 C549 1.387 . S
H547 C543 0.950 . S
H548 C545 0.950 . S
C549 C540 1.390 . S
C549 H542 0.950 . S
C549 C546 1.387 . S
C550 C551 1.387 . S
C550 H554 0.950 . S
C550 C559 1.390 1_556 S
C551 C550 1.387 . S
C551 C553 1.387 1_455 S
H552 C559 0.950 . S
C553 C551 1.387 1_655 S
C553 C555 1.390 1_556 S
C553 H557 0.950 . S
H554 C550 0.950 . S
C555 C553 1.390 1_554 S
C555 C556 1.387 . S
C555 H558 0.950 . S
C556 C555 1.387 . S
C556 C559 1.387 1_655 S
H557 C553 0.950 . S
H558 C555 0.950 . S
C559 C550 1.390 1_554 S
C559 H552 0.950 . S
C559 C556 1.387 1_455 S
C321 C6 1.724 . S
C326 C129 1.771 . S
C331 C9 1.773 . S
C336 C46 1.727 . S
C341 C49 1.773 . S
C346 C86 1.728 . S
C351 C89 1.775 . S
C356 C126 1.722 . S
C361 C15 1.727 . S
C366 C218 1.778 . S
C371 C18 1.773 . S
C376 C175 1.725 . S
C381 C178 1.775 . S
C386 C95 1.723 . S
C391 C215 1.725 . S
C396 C98 1.776 . S
C401 C246 1.724 . S
C406 C209 1.774 . S
C411 C166 1.725 . S
C416 C249 1.775 . S
C421 C286 1.725 . S
C426 C169 1.777 . S
C431 C206 1.724 . S
C436 C289 1.774 . S
C441 C138 1.774 . S
C446 C255 1.723 . S
C451 C258 1.773 . S
C456 C55 1.726 . S
C461 C58 1.775 . S
C466 C295 1.725 . S
C471 C135 1.724 . S
C476 C298 1.774 . S
C481 C19 2.091 . S
C486 C10 2.091 . S
C491 C50 2.091 . S
C496 C59 2.091 1_554 S
C501 C90 2.091 . S
C506 C99 2.091 . S
C511 C130 2.091 1_556 S
C516 C139 2.091 . S
C521 C170 2.092 1_556 S
C526 C179 2.092 . S
C531 C210 2.091 . S
C536 C219 2.091 1_554 S
C541 C250 2.091 . S
C546 C259 2.091 . S
C551 C299 2.091 . S
C556 C290 2.091 . S
