# Generated by pormake.
# Topology wjq, (5)-cn, num edge types: 1
# Building blocks:
#     Node 0, Type 0, BuildingBlock: BEQFEK_clean_sbu_0, # of connection points: 5
#     Node 1, Type 0, BuildingBlock: BEQFEK_clean_sbu_0, # of connection points: 5
#     Node 2, Type 0, BuildingBlock: BEQFEK_clean_sbu_0, # of connection points: 5
#     Node 3, Type 0, BuildingBlock: BEQFEK_clean_sbu_0, # of connection points: 5
#     Node 4, Type 0, BuildingBlock: BEQFEK_clean_sbu_0, # of connection points: 5
#     Node 5, Type 0, BuildingBlock: BEQFEK_clean_sbu_0, # of connection points: 5
#     Node 6, Type 0, BuildingBlock: BEQFEK_clean_sbu_0, # of connection points: 5
#     Node 7, Type 0, BuildingBlock: BEQFEK_clean_sbu_0, # of connection points: 5
#     Node 8, Type 0, BuildingBlock: BEQFEK_clean_sbu_0, # of connection points: 5
#     Node 9, Type 0, BuildingBlock: BEQFEK_clean_sbu_0, # of connection points: 5
#     Node 10, Type 0, BuildingBlock: BEQFEK_clean_sbu_0, # of connection points: 5
#     Node 11, Type 0, BuildingBlock: BEQFEK_clean_sbu_0, # of connection points: 5
#     Edge 12, Type (0, 0), BuildingBlock: TEMPAE_clean_linker_10, # of connection points: 2
#     Edge 13, Type (0, 0), BuildingBlock: TEMPAE_clean_linker_10, # of connection points: 2
#     Edge 14, Type (0, 0), BuildingBlock: TEMPAE_clean_linker_10, # of connection points: 2
#     Edge 15, Type (0, 0), BuildingBlock: TEMPAE_clean_linker_10, # of connection points: 2
#     Edge 16, Type (0, 0), BuildingBlock: TEMPAE_clean_linker_10, # of connection points: 2
#     Edge 17, Type (0, 0), BuildingBlock: TEMPAE_clean_linker_10, # of connection points: 2
#     Edge 18, Type (0, 0), BuildingBlock: TEMPAE_clean_linker_10, # of connection points: 2
#     Edge 19, Type (0, 0), BuildingBlock: TEMPAE_clean_linker_10, # of connection points: 2
#     Edge 20, Type (0, 0), BuildingBlock: TEMPAE_clean_linker_10, # of connection points: 2
#     Edge 21, Type (0, 0), BuildingBlock: TEMPAE_clean_linker_10, # of connection points: 2
#     Edge 22, Type (0, 0), BuildingBlock: TEMPAE_clean_linker_10, # of connection points: 2
#     Edge 23, Type (0, 0), BuildingBlock: TEMPAE_clean_linker_10, # of connection points: 2
#     Edge 24, Type (0, 0), BuildingBlock: TEMPAE_clean_linker_10, # of connection points: 2
#     Edge 25, Type (0, 0), BuildingBlock: TEMPAE_clean_linker_10, # of connection points: 2
#     Edge 26, Type (0, 0), BuildingBlock: TEMPAE_clean_linker_10, # of connection points: 2
#     Edge 27, Type (0, 0), BuildingBlock: TEMPAE_clean_linker_10, # of connection points: 2
#     Edge 28, Type (0, 0), BuildingBlock: TEMPAE_clean_linker_10, # of connection points: 2
#     Edge 29, Type (0, 0), BuildingBlock: TEMPAE_clean_linker_10, # of connection points: 2
#     Edge 30, Type (0, 0), BuildingBlock: TEMPAE_clean_linker_10, # of connection points: 2
#     Edge 31, Type (0, 0), BuildingBlock: TEMPAE_clean_linker_10, # of connection points: 2
#     Edge 32, Type (0, 0), BuildingBlock: TEMPAE_clean_linker_10, # of connection points: 2
#     Edge 33, Type (0, 0), BuildingBlock: TEMPAE_clean_linker_10, # of connection points: 2
#     Edge 34, Type (0, 0), BuildingBlock: TEMPAE_clean_linker_10, # of connection points: 2
#     Edge 35, Type (0, 0), BuildingBlock: TEMPAE_clean_linker_10, # of connection points: 2
#     Edge 36, Type (0, 0), BuildingBlock: TEMPAE_clean_linker_10, # of connection points: 2
#     Edge 37, Type (0, 0), BuildingBlock: TEMPAE_clean_linker_10, # of connection points: 2
#     Edge 38, Type (0, 0), BuildingBlock: TEMPAE_clean_linker_10, # of connection points: 2
#     Edge 39, Type (0, 0), BuildingBlock: TEMPAE_clean_linker_10, # of connection points: 2
#     Edge 40, Type (0, 0), BuildingBlock: TEMPAE_clean_linker_10, # of connection points: 2
#     Edge 41, Type (0, 0), BuildingBlock: TEMPAE_clean_linker_10, # of connection points: 2
# Relax obj value: 0.369
# Max RMSD: 0.176
# Mean RMSD: 0.176
data_MOF--net-wjq--node1-BEQFEK_clean_sbu_0--edge1-TEMPAE_clean_linker_10
_symmetry_space_group_name_H-M    P1
_symmetry_Int_Tables_number       1
_symmetry_cell_setting            triclinic
loop_
_symmetry_equiv_pos_as_xyz
'x, y, z'
_cell_length_a     35.229953
_cell_length_b     35.258431
_cell_length_c     75.967968
_cell_angle_alpha  89.965177
_cell_angle_beta   90.038387
_cell_angle_gamma 119.97791
loop_
_atom_site_label
_atom_site_type_symbol
_atom_site_fract_x
_atom_site_fract_y
_atom_site_fract_z
_atom_type_partial_charge
Co0 Co 0.20715 0.14082 0.08965 0.0
Co1 Co 0.29271 0.21013 0.0715 0.0
C2 C 0.2032 0.20018 0.06286 0.0
O3 O 0.18453 0.17121 0.07472 0.0
O4 O 0.24435 0.21761 0.06031 0.0
C5 C 0.1385 0.11336 0.1145 0.0
O6 O 0.14871 0.15465 0.11419 0.0
C7 C 0.35688 0.30263 0.06777 0.0
C8 C 0.41282 0.30281 0.05467 0.0
C9 C 0.39916 0.33056 0.06155 0.0
N10 N 0.34668 0.26093 0.06486 0.0
N11 N 0.38024 0.26122 0.057 0.0
C12 C 0.32571 0.31464 0.07603 0.0
H13 H 0.32714 0.34313 0.06917 0.0
H14 H 0.29178 0.28679 0.07575 0.0
H15 H 0.33462 0.32317 0.09005 0.0
C16 C 0.26152 0.17328 0.12155 0.0
N17 N 0.25475 0.17694 0.10431 0.0
N18 N 0.29165 0.20628 0.09698 0.0
C19 C 0.32325 0.22256 0.10958 0.0
C20 C 0.3048 0.20268 0.12564 0.0
C21 C 0.22998 0.13665 0.13321 0.0
H22 H 0.21336 0.10562 0.12571 0.0
H23 H 0.20534 0.14454 0.1384 0.0
H24 H 0.2466 0.13147 0.14459 0.0
O25 O 0.22392 0.10668 0.07419 0.0
O26 O 0.28625 0.15428 0.06102 0.0
H27 H 0.38158 0.242 0.09459 0.0
H28 H 0.39126 0.25697 0.11769 0.0
C29 C 0.37071 0.25359 0.10607 0.0
H30 H 0.37525 0.28624 0.10279 0.0
H31 H 0.38095 0.23309 0.05329 0.0
O32 O 0.15851 0.1003 0.10449 0.0
C33 C 0.25522 0.11493 0.06361 0.0
Co34 Co 0.07372 0.21588 0.41851 0.0
Co35 Co 0.08789 0.3029 0.40239 0.0
C36 C 0.00911 0.21446 0.39279 0.0
O37 O 0.02087 0.19522 0.4038 0.0
O38 O 0.03176 0.25589 0.3909 0.0
C39 C 0.03533 0.14507 0.4427 0.0
O40 O 0.00996 0.16102 0.44701 0.0
C41 C 0.06031 0.3675 0.39537 0.0
C42 C 0.12319 0.42977 0.39437 0.0
C43 C 0.07815 0.41261 0.39402 0.0
N44 N 0.0932 0.35867 0.39693 0.0
N45 N 0.13072 0.39603 0.39607 0.0
C46 C 0.01305 0.33275 0.39406 0.0
H47 H 0.00925 0.30983 0.38337 0.0
H48 H 0.00253 0.314 0.40657 0.0
H49 H 0.99138 0.34613 0.39082 0.0
C50 C 0.09531 0.26611 0.45153 0.0
N51 N 0.08482 0.26127 0.43428 0.0
N52 N 0.08992 0.29828 0.42795 0.0
C53 C 0.10259 0.32756 0.44139 0.0
C54 C 0.10578 0.30776 0.45679 0.0
C55 C 0.10399 0.23517 0.46204 0.0
H56 H 0.11524 0.21755 0.45336 0.0
H57 H 0.07364 0.2114 0.46898 0.0
H58 H 0.12963 0.25288 0.47215 0.0
O59 O 0.12453 0.23484 0.4032 0.0
O60 O 0.13766 0.29777 0.39116 0.0
H61 H 0.14483 0.39217 0.43179 0.0
H62 H 0.11854 0.39027 0.45243 0.0
C63 C 0.11401 0.37425 0.43942 0.0
H64 H 0.08765 0.3759 0.43209 0.0
H65 H 0.16146 0.39863 0.39722 0.0
O66 O 0.06483 0.16403 0.4311 0.0
C67 C 0.14706 0.26729 0.3931 0.0
Co68 Co 0.85188 0.06264 0.75671 0.0
Co69 Co 0.78448 0.08119 0.73793 0.0
C70 C 0.79113 0.99913 0.73051 0.0
O71 O 0.81948 0.0087 0.74258 0.0
O72 O 0.77535 0.02412 0.72746 0.0
C73 C 0.87804 0.02232 0.78277 0.0
O74 O 0.83627 0.99249 0.78328 0.0
C75 C 0.69335 0.05547 0.73004 0.0
C76 C 0.69631 0.11882 0.72574 0.0
C77 C 0.66724 0.0742 0.72716 0.0
N78 N 0.73555 0.08758 0.73081 0.0
N79 N 0.73713 0.12534 0.72797 0.0
C80 C 0.67915 0.00778 0.73127 0.0
H81 H 0.69811 0.00015 0.72175 0.0
H82 H 0.68614 0.00032 0.74468 0.0
H83 H 0.64409 0.98635 0.72801 0.0
C84 C 0.82163 0.08887 0.78804 0.0
N85 N 0.81751 0.07745 0.77091 0.0
N86 N 0.788 0.08462 0.76346 0.0
C87 C 0.7715 0.09991 0.77597 0.0
C88 C 0.79194 0.10244 0.79202 0.0
C89 C 0.85884 0.09508 0.79962 0.0
H90 H 0.88925 0.10726 0.79181 0.0
H91 H 0.85048 0.06345 0.80589 0.0
H92 H 0.86547 0.11921 0.81024 0.0
O93 O 0.88713 0.111 0.7404 0.0
O94 O 0.84154 0.12877 0.72738 0.0
H95 H 0.75391 0.14346 0.76375 0.0
H96 H 0.7282 0.12286 0.78489 0.0
C97 C 0.73892 0.11439 0.77249 0.0
H98 H 0.70997 0.08788 0.76569 0.0
H99 H 0.76591 0.15568 0.72818 0.0
O100 O 0.89145 0.05384 0.77192 0.0
C101 C 0.88015 0.13457 0.72962 0.0
Co102 Co 0.78646 0.8456 0.08612 0.0
Co103 Co 0.69733 0.77767 0.06987 0.0
C104 C 0.78259 0.77867 0.06149 0.0
O105 O 0.80311 0.80873 0.07271 0.0
O106 O 0.74179 0.76378 0.05892 0.0
C107 C 0.85626 0.87343 0.11083 0.0
O108 O 0.83619 0.83259 0.11624 0.0
C109 C 0.62908 0.68691 0.06341 0.0
C110 C 0.56886 0.69122 0.06124 0.0
C111 C 0.58382 0.66154 0.06167 0.0
N112 N 0.64011 0.72933 0.06442 0.0
N113 N 0.60398 0.73171 0.06289 0.0
C114 C 0.66205 0.67189 0.06298 0.0
H115 H 0.68451 0.68782 0.05175 0.0
H116 H 0.68174 0.68213 0.07526 0.0
H117 H 0.64704 0.63615 0.06105 0.0
C118 C 0.73485 0.82337 0.11872 0.0
N119 N 0.73941 0.81578 0.10169 0.0
N120 N 0.70153 0.78539 0.09539 0.0
C121 C 0.67179 0.77145 0.1087 0.0
C122 C 0.69224 0.79481 0.12398 0.0
C123 C 0.76762 0.86283 0.12882 0.0
H124 H 0.78785 0.8902 0.11975 0.0
H125 H 0.78899 0.85437 0.1366 0.0
H126 H 0.75107 0.8741 0.13815 0.0
O127 O 0.77298 0.87956 0.06948 0.0
O128 O 0.70761 0.834 0.058 0.0
H129 H 0.60798 0.75219 0.09883 0.0
H130 H 0.60798 0.7275 0.11969 0.0
C131 C 0.62441 0.73801 0.1067 0.0
H132 H 0.62115 0.70909 0.09958 0.0
H133 H 0.60314 0.76085 0.06352 0.0
O134 O 0.8398 0.88543 0.09868 0.0
C135 C 0.74148 0.87229 0.0592 0.0
Co136 Co 0.93567 0.78815 0.42323 0.0
Co137 Co 0.91748 0.70216 0.405 0.0
C138 C 0.00131 0.78986 0.39847 0.0
O139 O 0.99101 0.8089 0.41015 0.0
O140 O 0.97594 0.74933 0.3952 0.0
C141 C 0.97387 0.85516 0.44913 0.0
O142 O 0.00245 0.84183 0.45096 0.0
C143 C 0.94264 0.63549 0.40178 0.0
C144 C 0.88784 0.58226 0.38713 0.0
C145 C 0.92789 0.59375 0.39492 0.0
N146 N 0.91266 0.64752 0.39833 0.0
N147 N 0.87992 0.61555 0.38958 0.0
C148 C 0.98508 0.66461 0.41099 0.0
H149 H 0.9922 0.69888 0.41128 0.0
H150 H 0.98279 0.65389 0.42487 0.0
H151 H 0.01243 0.66301 0.40448 0.0
C152 C 0.90633 0.73175 0.45472 0.0
N153 N 0.91883 0.73895 0.4377 0.0
N154 N 0.91104 0.70199 0.43036 0.0
C155 C 0.89372 0.66998 0.44277 0.0
C156 C 0.89104 0.68816 0.45871 0.0
C157 C 0.90128 0.76358 0.4662 0.0
H158 H 0.89015 0.78257 0.45828 0.0
H159 H 0.93315 0.78612 0.47249 0.0
H160 H 0.87685 0.74673 0.47679 0.0
O161 O 0.88915 0.77555 0.40594 0.0
O162 O 0.87169 0.71227 0.39304 0.0
H163 H 0.85637 0.61223 0.42729 0.0
H164 H 0.8589 0.60175 0.45053 0.0
C165 C 0.87746 0.62261 0.43918 0.0
H166 H 0.90578 0.61792 0.43656 0.0
H167 H 0.85231 0.61651 0.38523 0.0
O168 O 0.94356 0.83713 0.43775 0.0
C169 C 0.86636 0.74544 0.39489 0.0
Co170 Co 0.14868 0.9405 0.7535 0.0
Co171 Co 0.21694 0.92076 0.73698 0.0
C172 C 0.21341 0.00384 0.72843 0.0
O173 O 0.18424 0.99445 0.74007 0.0
O174 O 0.22848 0.97817 0.72565 0.0
C175 C 0.11767 0.98009 0.7779 0.0
O176 O 0.1587 0.00358 0.78294 0.0
C177 C 0.30896 0.9456 0.7345 0.0
C178 C 0.30743 0.88886 0.72157 0.0
C179 C 0.33604 0.92997 0.72849 0.0
N180 N 0.26695 0.91516 0.73137 0.0
N181 N 0.26621 0.88125 0.72365 0.0
C182 C 0.32207 0.9891 0.74268 0.0
H183 H 0.29454 0.9957 0.74268 0.0
H184 H 0.33129 0.9889 0.75663 0.0
H185 H 0.35043 0.0157 0.73559 0.0
C186 C 0.17323 0.91285 0.78618 0.0
N187 N 0.17983 0.9247 0.76908 0.0
N188 N 0.2096 0.91671 0.76245 0.0
C189 C 0.22351 0.90009 0.77545 0.0
C190 C 0.20139 0.89793 0.79101 0.0
C191 C 0.13504 0.90746 0.79687 0.0
H192 H 0.10644 0.89873 0.78828 0.0
H193 H 0.14431 0.93842 0.80391 0.0
H194 H 0.12516 0.88125 0.80688 0.0
O195 O 0.11564 0.89263 0.73682 0.0
O196 O 0.1615 0.87335 0.72529 0.0
H197 H 0.24412 0.86086 0.76146 0.0
H198 H 0.25781 0.86724 0.7847 0.0
C199 C 0.25497 0.8838 0.77277 0.0
H200 H 0.28773 0.91185 0.76959 0.0
H201 H 0.23765 0.85306 0.71974 0.0
O202 O 0.10695 0.95125 0.76601 0.0
C203 C 0.12304 0.86843 0.72659 0.0
Co204 Co 0.85452 0.78636 0.61434 0.0
Co205 Co 0.78442 0.70061 0.63225 0.0
C206 C 0.79312 0.78959 0.64034 0.0
O207 O 0.82278 0.80834 0.62874 0.0
O208 O 0.77567 0.74849 0.64294 0.0
C209 C 0.88323 0.85333 0.58846 0.0
O210 O 0.84124 0.8395 0.58652 0.0
C211 C 0.69254 0.63629 0.63898 0.0
C212 C 0.69404 0.5754 0.64405 0.0
C213 C 0.66568 0.59168 0.642 0.0
N214 N 0.73454 0.64559 0.63881 0.0
N215 N 0.73525 0.60912 0.64206 0.0
C216 C 0.67924 0.67036 0.63704 0.0
H217 H 0.69693 0.69643 0.64691 0.0
H218 H 0.68865 0.6854 0.62377 0.0
H219 H 0.6438 0.65718 0.63931 0.0
C220 C 0.82417 0.73179 0.58249 0.0
N221 N 0.8197 0.73852 0.59964 0.0
N222 N 0.78887 0.70201 0.60671 0.0
C223 C 0.77169 0.67106 0.59388 0.0
C224 C 0.79318 0.68932 0.57805 0.0
C225 C 0.86274 0.762 0.57132 0.0
H226 H 0.89251 0.7799 0.57953 0.0
H227 H 0.8556 0.78551 0.56448 0.0
H228 H 0.86969 0.74375 0.56113 0.0
O229 O 0.88826 0.77062 0.63022 0.0
O230 O 0.84059 0.70814 0.64319 0.0
H231 H 0.75028 0.60881 0.60584 0.0
H232 H 0.72686 0.60586 0.58433 0.0
C233 C 0.73725 0.62443 0.59687 0.0
H234 H 0.7084 0.62325 0.60326 0.0
H235 H 0.76374 0.60699 0.64237 0.0
O236 O 0.89562 0.83555 0.59992 0.0
C237 C 0.87993 0.73952 0.64089 0.0
Co238 Co 0.06025 0.84905 0.94948 0.0
Co239 Co 0.07848 0.7789 0.9655 0.0
C240 C 0.9941 0.78103 0.9728 0.0
O241 O 0.00488 0.81195 0.96186 0.0
O242 O 0.01942 0.7655 0.97556 0.0
C243 C 0.02293 0.88206 0.92494 0.0
O244 O 0.99889 0.84114 0.91988 0.0
C245 C 0.0535 0.68709 0.97114 0.0
C246 C 0.11708 0.69 0.97479 0.0
C247 C 0.07241 0.66097 0.97343 0.0
N248 N 0.08552 0.72934 0.97076 0.0
N249 N 0.12344 0.73087 0.97312 0.0
C250 C 0.00572 0.67296 0.97056 0.0
H251 H 0.99808 0.68801 0.98178 0.0
H252 H 0.99835 0.6849 0.95822 0.0
H253 H 0.98417 0.63713 0.97179 0.0
C254 C 0.09 0.827 0.91684 0.0
N255 N 0.07786 0.81955 0.93388 0.0
N256 N 0.08435 0.78843 0.9401 0.0
C257 C 0.09966 0.77407 0.92677 0.0
C258 C 0.1031 0.79777 0.91153 0.0
C259 C 0.09673 0.86626 0.90658 0.0
H260 H 0.10566 0.89433 0.91548 0.0
H261 H 0.06627 0.85815 0.89934 0.0
H262 H 0.12336 0.87626 0.89675 0.0
O263 O 0.10569 0.8804 0.96712 0.0
O264 O 0.12403 0.83366 0.97846 0.0
H265 H 0.14163 0.75227 0.93729 0.0
H266 H 0.11991 0.73047 0.91573 0.0
C267 C 0.11236 0.73969 0.92868 0.0
H268 H 0.08529 0.71027 0.93503 0.0
H269 H 0.15373 0.75972 0.97317 0.0
O270 O 0.05115 0.89198 0.93705 0.0
C271 C 0.12861 0.87205 0.97767 0.0
Co272 Co 0.2095 0.05951 0.2834 0.0
Co273 Co 0.29863 0.07985 0.29942 0.0
C274 C 0.21253 0.99698 0.30857 0.0
O275 O 0.19209 0.00623 0.29717 0.0
O276 O 0.2535 0.02253 0.31092 0.0
C277 C 0.13947 0.01884 0.25874 0.0
O278 O 0.1585 0.99684 0.25357 0.0
C279 C 0.3663 0.05643 0.30625 0.0
C280 C 0.42698 0.12071 0.30752 0.0
C281 C 0.41161 0.07601 0.30769 0.0
N282 N 0.35563 0.08804 0.30483 0.0
N283 N 0.39204 0.12641 0.30583 0.0
C284 C 0.33301 0.00866 0.30735 0.0
H285 H 0.31025 0.00342 0.31832 0.0
H286 H 0.31371 0.99809 0.29497 0.0
H287 H 0.3478 0.98799 0.31006 0.0
C288 C 0.26055 0.08734 0.25062 0.0
N289 N 0.25611 0.07544 0.26769 0.0
N290 N 0.29391 0.0824 0.27389 0.0
C291 C 0.3234 0.09751 0.26049 0.0
C292 C 0.30291 0.10057 0.24524 0.0
C293 C 0.2282 0.09491 0.24059 0.0
H294 H 0.20872 0.10298 0.24968 0.0
H295 H 0.20611 0.06515 0.23293 0.0
H296 H 0.24504 0.12242 0.23114 0.0
O297 O 0.22421 0.10764 0.29978 0.0
O298 O 0.29001 0.1273 0.31082 0.0
H299 H 0.38766 0.14197 0.26992 0.0
H300 H 0.3867 0.11589 0.24933 0.0
C301 C 0.3707 0.11094 0.26237 0.0
H302 H 0.37381 0.08548 0.26975 0.0
H303 H 0.39318 0.15648 0.30481 0.0
O304 O 0.15649 0.04728 0.27085 0.0
C305 C 0.25634 0.1321 0.30974 0.0
Co306 Co 0.14336 0.21526 0.61586 0.0
Co307 Co 0.21558 0.30214 0.6322 0.0
C308 C 0.20904 0.21411 0.64012 0.0
O309 O 0.17759 0.19481 0.6293 0.0
O310 O 0.22674 0.25531 0.64252 0.0
C311 C 0.10944 0.14486 0.59135 0.0
O312 O 0.15056 0.16016 0.58685 0.0
C313 C 0.30786 0.36723 0.63812 0.0
C314 C 0.30632 0.42848 0.6421 0.0
C315 C 0.33469 0.41206 0.64063 0.0
N316 N 0.26586 0.3579 0.63772 0.0
N317 N 0.26514 0.39461 0.64027 0.0
C318 C 0.32106 0.33293 0.6373 0.0
H319 H 0.30949 0.3146 0.62474 0.0
H320 H 0.35676 0.34645 0.63882 0.0
H321 H 0.30502 0.30951 0.64824 0.0
C322 C 0.16971 0.26715 0.58316 0.0
N323 N 0.17585 0.26183 0.6003 0.0
N324 N 0.20739 0.29889 0.60674 0.0
C325 C 0.22315 0.32881 0.5935 0.0
C326 C 0.20007 0.30929 0.57808 0.0
C327 C 0.13068 0.23565 0.57252 0.0
H328 H 0.10171 0.21743 0.5811 0.0
H329 H 0.13816 0.21242 0.56565 0.0
H330 H 0.12238 0.25294 0.56234 0.0
O331 O 0.11193 0.23195 0.63246 0.0
O332 O 0.16099 0.29502 0.64455 0.0
H333 H 0.24552 0.39217 0.60449 0.0
H334 H 0.26732 0.39296 0.58286 0.0
C335 C 0.25788 0.37564 0.5957 0.0
H336 H 0.28713 0.37736 0.60197 0.0
H337 H 0.23663 0.39672 0.64035 0.0
O338 O 0.0998 0.16403 0.60318 0.0
C339 C 0.12146 0.2635 0.643 0.0
Co340 Co 0.92804 0.14129 0.94658 0.0
Co341 Co 0.91271 0.21118 0.9649 0.0
C342 C 0.99303 0.20192 0.97258 0.0
O343 O 0.98212 0.17264 0.96082 0.0
O344 O 0.96932 0.21925 0.97539 0.0
C345 C 0.96575 0.11272 0.9204 0.0
O346 O 0.99467 0.15456 0.9188 0.0
C347 C 0.94097 0.30321 0.97177 0.0
C348 C 0.87889 0.30207 0.97725 0.0
C349 C 0.92348 0.33025 0.97499 0.0
N350 N 0.90815 0.2613 0.97168 0.0
N351 N 0.87117 0.26082 0.97518 0.0
C352 C 0.98823 0.31628 0.96955 0.0
H353 H 0.99673 0.29795 0.97906 0.0
H354 H 0.99351 0.3076 0.95608 0.0
H355 H 0.01066 0.35154 0.97209 0.0
C356 C 0.90314 0.17201 0.915 0.0
N357 N 0.91477 0.17634 0.93211 0.0
N358 N 0.90904 0.20696 0.93936 0.0
C359 C 0.89469 0.22407 0.92671 0.0
C360 C 0.89122 0.20281 0.91079 0.0
C361 C 0.89481 0.13371 0.90369 0.0
H362 H 0.88277 0.10375 0.91177 0.0
H363 H 0.92554 0.14091 0.89689 0.0
H364 H 0.86975 0.12706 0.89345 0.0
O365 O 0.87883 0.10751 0.96263 0.0
O366 O 0.86417 0.15506 0.97582 0.0
H367 H 0.85374 0.2447 0.93915 0.0
H368 H 0.87286 0.26808 0.91753 0.0
C369 C 0.88194 0.25801 0.92995 0.0
H370 H 0.90967 0.28709 0.93619 0.0
H371 H 0.84049 0.23246 0.97561 0.0
O372 O 0.93557 0.10033 0.93183 0.0
C373 C 0.85623 0.11576 0.97342 0.0
Co374 Co 0.79161 0.93681 0.27835 0.0
Co375 Co 0.70668 0.92066 0.29703 0.0
C376 C 0.79589 0.00247 0.30382 0.0
O377 O 0.81414 0.99171 0.29195 0.0
O378 O 0.75514 0.97811 0.30706 0.0
C379 C 0.85788 0.9747 0.25218 0.0
O380 O 0.84661 0.00499 0.25133 0.0
C381 C 0.64111 0.94734 0.3009 0.0
C382 C 0.58701 0.89196 0.31495 0.0
C383 C 0.59916 0.93256 0.30758 0.0
N384 N 0.65259 0.91683 0.30402 0.0
N385 N 0.62013 0.88378 0.31244 0.0
C386 C 0.67084 0.99015 0.29207 0.0
H387 H 0.70512 0.9972 0.2921 0.0
H388 H 0.66091 0.98851 0.27811 0.0
H389 H 0.66892 0.01721 0.29868 0.0
C390 C 0.73473 0.91014 0.24702 0.0
N391 N 0.74247 0.9221 0.26409 0.0
N392 N 0.70593 0.91506 0.27162 0.0
C393 C 0.67365 0.89872 0.25929 0.0
C394 C 0.69127 0.89602 0.24321 0.0
C395 C 0.76565 0.90425 0.23529 0.0
H396 H 0.78375 0.89165 0.24295 0.0
H397 H 0.78902 0.93609 0.2292 0.0
H398 H 0.74814 0.88061 0.22452 0.0
O399 O 0.77779 0.88895 0.29516 0.0
O400 O 0.71538 0.87348 0.30842 0.0
H401 H 0.61606 0.86165 0.27491 0.0
H402 H 0.60525 0.86473 0.25175 0.0
C403 C 0.62643 0.88295 0.26308 0.0
H404 H 0.6222 0.91146 0.2659 0.0
H405 H 0.62053 0.85566 0.31643 0.0
O406 O 0.83946 0.94379 0.26328 0.0
C407 C 0.74749 0.86658 0.30622 0.0
C408 C 0.51859 0.5926 0.05092 0.0
C409 C 0.556 0.6131 0.0616 0.0
C410 C 0.49196 0.54674 0.05072 0.0
C411 C 0.50338 0.52081 0.06128 0.0
C412 C 0.54072 0.54145 0.0723 0.0
C413 C 0.56582 0.58731 0.07267 0.0
C414 C 0.45151 0.52604 0.03928 0.0
C415 C 0.55438 0.51512 0.08366 0.0
C416 C 0.4185 0.40454 0.07414 0.0
C417 C 0.42533 0.37942 0.06155 0.0
C418 C 0.44249 0.45049 0.0738 0.0
C419 C 0.47593 0.47212 0.06111 0.0
C420 C 0.48418 0.44714 0.04872 0.0
C421 C 0.45855 0.40121 0.04898 0.0
C422 C 0.43222 0.47586 0.08714 0.0
C423 C 0.52051 0.46892 0.03534 0.0
H424 H 0.51029 0.61246 0.04264 0.0
H425 H 0.59306 0.60296 0.08176 0.0
H426 H 0.454 0.5042 0.02942 0.0
H427 H 0.42216 0.50549 0.04746 0.0
H428 H 0.44649 0.55081 0.03223 0.0
H429 H 0.58582 0.53611 0.09061 0.0
H430 H 0.52874 0.49635 0.09362 0.0
H431 H 0.55798 0.49107 0.07546 0.0
H432 H 0.39518 0.38877 0.08462 0.0
H433 H 0.46466 0.38232 0.0393 0.0
H434 H 0.42715 0.50095 0.08042 0.0
H435 H 0.46023 0.49334 0.09629 0.0
H436 H 0.40251 0.45433 0.09499 0.0
H437 H 0.51494 0.49145 0.02695 0.0
H438 H 0.52306 0.44484 0.02672 0.0
H439 H 0.55231 0.48892 0.04217 0.0
C440 C 0.01754 0.42561 0.40385 0.0
C441 C 0.05543 0.43853 0.39378 0.0
C442 C 0.99557 0.4496 0.40356 0.0
C443 C 0.01325 0.4889 0.39372 0.0
C444 C 0.05252 0.50315 0.3841 0.0
C445 C 0.07296 0.47762 0.38414 0.0
C446 C 0.95353 0.43291 0.41385 0.0
C447 C 0.07324 0.54566 0.37396 0.0
C448 C 0.94014 0.53585 0.38144 0.0
C449 C 0.94961 0.56668 0.39487 0.0
C450 C 0.96032 0.51009 0.38095 0.0
C451 C 0.9914 0.51579 0.39402 0.0
C452 C 0.0009 0.54655 0.40767 0.0
C453 C 0.97909 0.57069 0.40817 0.0
C454 C 0.94817 0.47655 0.36651 0.0
C455 C 0.03417 0.55403 0.42179 0.0
H456 H 0.00525 0.397 0.41223 0.0
H457 H 0.10278 0.48828 0.37664 0.0
H458 H 0.95827 0.45586 0.42471 0.0
H459 H 0.92726 0.43116 0.40522 0.0
H460 H 0.94224 0.39997 0.41957 0.0
H461 H 0.10411 0.55241 0.36734 0.0
H462 H 0.05011 0.54483 0.36385 0.0
H463 H 0.08049 0.5732 0.38299 0.0
H464 H 0.91698 0.53191 0.37121 0.0
H465 H 0.98487 0.59203 0.41924 0.0
H466 H 0.93595 0.4436 0.37235 0.0
H467 H 0.97755 0.48412 0.35858 0.0
H468 H 0.92259 0.47534 0.35759 0.0
H469 H 0.02258 0.52401 0.42984 0.0
H470 H 0.04032 0.58155 0.43067 0.0
H471 H 0.06569 0.56121 0.41569 0.0
C472 C 0.59325 0.0181 0.73858 0.0
C473 C 0.61867 0.05293 0.72712 0.0
C474 C 0.54733 0.99721 0.7384 0.0
C475 C 0.52625 0.01309 0.7272 0.0
C476 C 0.55177 0.04954 0.71617 0.0
C477 C 0.59767 0.06881 0.71617 0.0
C478 C 0.52143 0.95814 0.75024 0.0
C479 C 0.53061 0.06844 0.70451 0.0
C480 C 0.40578 0.93868 0.71595 0.0
C481 C 0.38489 0.95156 0.72837 0.0
C482 C 0.45167 0.95823 0.71545 0.0
C483 C 0.47756 0.99221 0.72742 0.0
C484 C 0.45685 0.00536 0.74 0.0
C485 C 0.41091 0.98413 0.74062 0.0
C486 C 0.47244 0.9422 0.70222 0.0
C487 C 0.4832 0.04183 0.7529 0.0
H488 H 0.60919 0.00737 0.74791 0.0
H489 H 0.61718 0.09635 0.70756 0.0
H490 H 0.50364 0.96603 0.76029 0.0
H491 H 0.49653 0.93009 0.74244 0.0
H492 H 0.54264 0.9478 0.75709 0.0
H493 H 0.5551 0.0974 0.69698 0.0
H494 H 0.50799 0.04328 0.69507 0.0
H495 H 0.51077 0.07826 0.71263 0.0
H496 H 0.38622 0.9132 0.70653 0.0
H497 H 0.39588 0.99282 0.751 0.0
H498 H 0.49273 0.93087 0.70915 0.0
H499 H 0.49458 0.9694 0.69339 0.0
H500 H 0.44772 0.91489 0.69404 0.0
H501 H 0.50109 0.03178 0.76206 0.0
H502 H 0.4623 0.05081 0.76078 0.0
H503 H 0.50804 0.07139 0.7458 0.0
C504 C 0.59509 0.5299 0.65337 0.0
C505 C 0.6171 0.56529 0.64179 0.0
C506 C 0.5491 0.50443 0.6533 0.0
C507 C 0.52457 0.51495 0.64149 0.0
C508 C 0.54671 0.55027 0.62961 0.0
C509 C 0.59267 0.57423 0.6296 0.0
C510 C 0.52677 0.46612 0.66577 0.0
C511 C 0.52187 0.56289 0.61691 0.0
C512 C 0.40827 0.429 0.62912 0.0
C513 C 0.38327 0.43838 0.64081 0.0
C514 C 0.45424 0.45286 0.62953 0.0
C515 C 0.4758 0.48853 0.6413 0.0
C516 C 0.45071 0.49948 0.65258 0.0
C517 C 0.40472 0.47409 0.65227 0.0
C518 C 0.47968 0.43979 0.61739 0.0
C519 C 0.47244 0.53816 0.6649 0.0
H520 H 0.61388 0.52227 0.66257 0.0
H521 H 0.60946 0.59978 0.61989 0.0
H522 H 0.50475 0.47096 0.67476 0.0
H523 H 0.50611 0.43562 0.65824 0.0
H524 H 0.55056 0.4616 0.67381 0.0
H525 H 0.54392 0.5929 0.60931 0.0
H526 H 0.50312 0.53582 0.60749 0.0
H527 H 0.49785 0.56859 0.62417 0.0
H528 H 0.39193 0.40316 0.61948 0.0
H529 H 0.3855 0.48205 0.66108 0.0
H530 H 0.50332 0.43434 0.62508 0.0
H531 H 0.4989 0.46653 0.60789 0.0
H532 H 0.45799 0.40951 0.60987 0.0
H533 H 0.49399 0.53359 0.67427 0.0
H534 H 0.44826 0.54294 0.67253 0.0
H535 H 0.49349 0.56843 0.65729 0.0
C536 C 0.9325 0.40088 0.98639 0.0
C537 C 0.94579 0.37883 0.9748 0.0
C538 C 0.95289 0.44683 0.98628 0.0
C539 C 0.98777 0.47132 0.97442 0.0
C540 C 0.00096 0.44917 0.96254 0.0
C541 C 0.97906 0.40323 0.96258 0.0
C542 C 0.93692 0.46916 0.99875 0.0
C543 C 0.03824 0.47396 0.94978 0.0
C544 C 0.01666 0.58711 0.96189 0.0
C545 C 0.05099 0.61247 0.97356 0.0
C546 C 0.99514 0.5412 0.96233 0.0
C547 C 0.00977 0.52006 0.9741 0.0
C548 C 0.04585 0.54553 0.98533 0.0
C549 C 0.06587 0.59145 0.98499 0.0
C550 C 0.95658 0.51536 0.95024 0.0
C551 C 0.06337 0.52427 0.99764 0.0
H552 H 0.90617 0.38215 0.99562 0.0
H553 H 0.98777 0.38644 0.95285 0.0
H554 H 0.96389 0.49147 1.00763 0.0
H555 H 0.92665 0.48949 0.99119 0.0
H556 H 0.90887 0.44541 1.00689 0.0
H557 H 0.04641 0.45194 0.94229 0.0
H558 H 0.02955 0.4923 0.94029 0.0
H559 H 0.06794 0.4983 0.95697 0.0
H560 H 0.0067 0.60316 0.95228 0.0
H561 H 0.09302 0.61095 0.99377 0.0
H562 H 0.92763 0.49178 0.95799 0.0
H563 H 0.9642 0.49607 0.94082 0.0
H564 H 0.94771 0.53674 0.94263 0.0
H565 H 0.03754 0.5028 1.0071 0.0
H566 H 0.09241 0.54871 1.00516 0.0
H567 H 0.07266 0.50325 0.99005 0.0
C568 C 0.57682 0.98456 0.29455 0.0
C569 C 0.57206 0.95427 0.30761 0.0
C570 C 0.55211 0.0058 0.29493 0.0
C571 C 0.52009 0.99494 0.30817 0.0
C572 C 0.51386 0.96327 0.32104 0.0
C573 C 0.54015 0.94367 0.3207 0.0
C574 C 0.56018 0.03974 0.28105 0.0
C575 C 0.47906 0.94974 0.33504 0.0
C576 C 0.47772 0.07319 0.31795 0.0
C577 C 0.4392 0.05507 0.3079 0.0
C578 C 0.50451 0.05412 0.31812 0.0
C579 C 0.49215 0.01568 0.30817 0.0
C580 C 0.45355 0.99758 0.29785 0.0
C581 C 0.42825 0.01817 0.29748 0.0
C582 C 0.54624 0.07529 0.3288 0.0
C583 C 0.43888 0.95641 0.28719 0.0
H584 H 0.59908 0.99131 0.28373 0.0
H585 H 0.53566 0.91992 0.33074 0.0
H586 H 0.53092 0.02798 0.2725 0.0
H587 H 0.56585 0.07053 0.28735 0.0
H588 H 0.58886 0.04722 0.27262 0.0
H589 H 0.47789 0.92417 0.34394 0.0
H590 H 0.48521 0.97854 0.34307 0.0
H591 H 0.44644 0.93696 0.32878 0.0
H592 H 0.48686 0.10229 0.32572 0.0
H593 H 0.40009 0.00553 0.28883 0.0
H594 H 0.57469 0.08362 0.32012 0.0
H595 H 0.54525 0.05204 0.33887 0.0
H596 H 0.55165 0.10557 0.33552 0.0
H597 H 0.46321 0.96239 0.27674 0.0
H598 H 0.40645 0.94483 0.28089 0.0
H599 H 0.43683 0.9299 0.29572 0.0
C600 C 0.19029 0.906 1.00016 0.0
C601 C 0.15772 0.90761 0.99007 0.0
C602 C 0.21575 0.93959 1.01234 0.0
C603 C 0.20749 0.97475 1.0148 0.0
C604 C 0.17517 0.9767 1.00441 0.0
C605 C 0.15125 0.94361 0.99215 0.0
C606 C 0.25069 0.9369 0.02282 0.0
C607 C 0.16436 0.01288 1.00672 0.0
C608 C 0.21972 0.03475 0.05742 0.0
C609 C 0.25167 0.07778 0.05296 0.0
C610 C 0.20794 -0.00018 0.04573 0.0
C611 C 0.22897 0.00773 0.02918 0.0
C612 C 0.26457 0.05008 0.0254 0.0
C613 C 0.27538 0.08476 0.03729 0.0
C614 C 0.16972 0.95544 0.05041 0.0
C615 C 0.28883 0.05964 1.00815 0.0
H616 H 0.19578 0.87856 0.99861 0.0
H617 H 0.12613 0.9454 0.98456 0.0
H618 H 0.28092 0.96943 0.02354 0.0
H619 H 0.23902 0.92655 0.03648 0.0
H620 H 0.25894 0.91295 1.01707 0.0
H621 H 0.13877 0.00999 0.99737 0.0
H622 H 0.15254 0.01216 0.02032 0.0
H623 H 0.19413 0.04527 1.00475 0.0
H624 H 0.20174 0.02865 0.06965 0.0
H625 H 0.30048 0.11768 0.03378 0.0
H626 H 0.17708 0.92912 0.04722 0.0
H627 H 0.14069 0.94945 0.04253 0.0
H628 H 0.16102 0.95304 0.06458 0.0
H629 H 0.29424 0.0323 1.00438 0.0
H630 H 0.32098 0.09042 1.00877 0.0
H631 H 0.26896 0.06319 0.99763 0.0
C632 C 0.19464 0.28669 0.36598 0.0
C633 C 0.18143 0.26558 0.38233 0.0
C634 C 0.21804 0.27549 0.35399 0.0
C635 C 0.22762 0.24203 0.3584 0.0
C636 C 0.2186 0.2244 0.37562 0.0
C637 C 0.19604 0.23667 0.38738 0.0
C638 C 0.22904 0.29664 0.33606 0.0
C639 C 0.22817 0.18878 0.38102 0.0
C640 C 0.209 0.157 0.32397 0.0
C641 C 0.2513 0.1636 0.32116 0.0
C642 C 0.20144 0.1834 0.33552 0.0
C643 C 0.23718 0.21839 0.34433 0.0
C644 C 0.28036 0.22684 0.34094 0.0
C645 C 0.28688 0.19883 0.32961 0.0
C646 C 0.15467 0.17226 0.33891 0.0
C647 C 0.31957 0.26451 0.34962 0.0
H648 H 0.18411 0.30953 0.36203 0.0
H649 H 0.18702 0.22099 0.40018 0.0
H650 H 0.26159 0.30259 0.33163 0.0
H651 H 0.20432 0.27442 0.32638 0.0
H652 H 0.22904 0.32815 0.33602 0.0
H653 H 0.22392 0.1822 0.3954 0.0
H654 H 0.20559 0.15806 0.37397 0.0
H655 H 0.26209 0.19772 0.37738 0.0
H656 H 0.18111 0.12985 0.31762 0.0
H657 H 0.31971 0.20446 0.32742 0.0
H658 H 0.15076 0.20097 0.33607 0.0
H659 H 0.1464 0.16364 0.35298 0.0
H660 H 0.13067 0.14435 0.33076 0.0
H661 H 0.31475 0.29307 0.35138 0.0
H662 H 0.34987 0.27488 0.34182 0.0
H663 H 0.32455 0.2542 0.36281 0.0
C664 C 0.04235 0.22658 0.65112 0.0
C665 C 0.08561 0.25968 0.65462 0.0
C666 C 0.00884 0.21477 0.66351 0.0
C667 C 0.01826 0.23724 0.67976 0.0
C668 C 0.06066 0.27376 0.68264 0.0
C669 C 0.09407 0.28435 0.6701 0.0
C670 C 0.96441 0.17541 0.6598 0.0
C671 C 0.07155 0.29978 0.69948 0.0
C672 C 0.91581 0.19795 0.70812 0.0
C673 C 0.91753 0.16576 0.71841 0.0
C674 C 0.95017 0.2243 0.69641 0.0
C675 C 0.98623 0.2172 0.69454 0.0
C676 C 0.98875 0.1859 0.7054 0.0
C677 C 0.95486 0.16118 0.71729 0.0
C678 C 0.94693 0.25843 0.68558 0.0
C679 C 0.02589 0.17629 0.70369 0.0
H680 H 0.035 0.20783 0.63905 0.0
H681 H 0.12716 0.31032 0.67287 0.0
H682 H 0.95894 0.14818 0.66871 0.0
H683 H 0.93807 0.18316 0.66237 0.0
H684 H 0.96131 0.16383 0.64599 0.0
H685 H 0.10168 0.33226 0.69809 0.0
H686 H 0.04402 0.30464 0.70355 0.0
H687 H 0.07705 0.28159 0.71016 0.0
H688 H 0.88742 0.20214 0.709 0.0
H689 H 0.95681 0.13651 0.72513 0.0
H690 H 0.93457 0.24522 0.67225 0.0
H691 H 0.97955 0.28825 0.68404 0.0
H692 H 0.92403 0.26776 0.6916 0.0
H693 H 0.02523 0.16299 0.69038 0.0
H694 H 0.02393 0.15222 0.71362 0.0
H695 H 0.05789 0.20678 0.7052 0.0
C696 C 0.78895 0.94706 0.04683 0.0
C697 C 0.74747 0.90905 0.0476 0.0
C698 C 0.79816 0.98069 0.03482 0.0
C699 C 0.76485 0.9772 0.02339 0.0
C700 C 0.72204 0.94033 0.02479 0.0
C701 C 0.71397 0.90631 0.03671 0.0
C702 C 0.84454 0.0188 0.03369 0.0
C703 C 0.6852 0.93598 1.01327 0.0
C704 C 0.80496 0.08555 0.99955 0.0
C705 C 0.82366 0.07871 0.98443 0.0
C706 C 0.78137 0.05127 1.01165 0.0
C707 C 0.77722 0.0096 1.00873 0.0
C708 C 0.7928 0.00173 0.99277 0.0
C709 C 0.81527 0.03609 0.9808 0.0
C710 C 0.76365 0.06053 0.02816 0.0
C711 C 0.78965 0.95814 0.98906 0.0
H712 H 0.81526 0.94995 0.05516 0.0
H713 H 0.68171 0.8774 0.03728 0.0
H714 H 0.85856 0.01901 0.02058 0.0
H715 H 0.84479 0.05021 0.03511 0.0
H716 H 0.86627 0.01736 0.04395 0.0
H717 H 0.65266 0.91199 0.01875 0.0
H718 H 0.68679 0.96803 1.01165 0.0
H719 H 0.68807 0.92451 1.00001 0.0
H720 H 0.81064 0.11809 1.00241 0.0
H721 H 0.82867 0.02996 0.96901 0.0
H722 H 0.78626 0.06608 0.03928 0.0
H723 H 0.73121 0.03222 0.03163 0.0
H724 H 0.76041 0.09014 0.02669 0.0
H725 H 0.81145 0.95335 0.99823 0.0
H726 H 0.79942 0.95593 0.97536 0.0
H727 H 0.7558 0.93093 0.99126 0.0
C728 C 0.72425 0.81285 0.3316 0.0
C729 C 0.75326 0.83554 0.31777 0.0
C730 C 0.73401 0.7891 0.34401 0.0
C731 C 0.77406 0.78883 0.34277 0.0
C732 C 0.80196 0.80934 0.32821 0.0
C733 C 0.79101 0.83188 0.31586 0.0
C734 C 0.70262 0.7664 0.35899 0.0
C735 C 0.84528 0.81057 0.32636 0.0
C736 C 0.83755 0.79284 0.38364 0.0
C737 C 0.83671 0.75257 0.383 0.0
C738 C 0.81539 0.80392 0.37117 0.0
C739 C 0.7906 0.77366 0.3578 0.0
C740 C 0.78685 0.73167 0.35777 0.0
C741 C 0.81041 0.72177 0.37024 0.0
C742 C 0.82111 0.84936 0.37165 0.0
C743 C 0.75958 0.69791 0.34411 0.0
H744 H 0.69477 0.81494 0.33315 0.0
H745 H 0.81357 0.84868 0.30515 0.0
H746 H 0.69956 0.73405 0.3617 0.0
H747 H 0.7153 0.78642 0.37111 0.0
H748 H 0.66958 0.76168 0.35618 0.0
H749 H 0.86159 0.82488 0.31361 0.0
H750 H 0.86756 0.83051 0.33717 0.0
H751 H 0.8406 0.77715 0.32748 0.0
H752 H 0.85738 0.81699 0.39346 0.0
H753 H 0.8091 0.69042 0.36968 0.0
H754 H 0.78876 0.84752 0.37154 0.0
H755 H 0.83914 0.86781 0.35974 0.0
H756 H 0.83952 0.86818 0.38344 0.0
H757 H 0.7281 0.69727 0.34194 0.0
H758 H 0.75256 0.66462 0.34796 0.0
H759 H 0.77743 0.70647 0.3314 0.0
C760 C 0.04775 0.83991 0.71451 0.0
C761 C 0.08621 0.83719 0.71513 0.0
C762 C 0.01413 0.81527 0.70252 0.0
C763 C 0.0181 0.78595 0.69099 0.0
C764 C 0.05537 0.78063 0.6923 0.0
C765 C 0.08938 0.80682 0.70418 0.0
C766 C 0.97557 0.82289 0.70148 0.0
C767 C 0.06025 0.74864 0.6807 0.0
C768 C 0.91008 0.71785 0.66688 0.0
C769 C 0.91695 0.74379 0.65188 0.0
C770 C 0.94431 0.72836 0.67901 0.0
C771 C 0.98592 0.76611 0.67624 0.0
C772 C 0.99386 0.78996 0.66039 0.0
C773 C 0.95958 0.77821 0.64837 0.0
C774 C 0.93506 0.70089 0.69538 0.0
C775 C 0.03739 0.83064 0.65683 0.0
H776 H 0.04451 0.86298 0.7229 0.0
H777 H 0.11864 0.80403 0.70465 0.0
H778 H 0.97517 0.83687 0.68843 0.0
H779 H 0.94437 0.79149 0.70283 0.0
H780 H 0.97665 0.84567 0.71182 0.0
H781 H 0.08392 0.73981 0.68634 0.0
H782 H 0.02826 0.7183 0.67873 0.0
H783 H 0.07257 0.76361 0.66759 0.0
H784 H 0.87755 0.69081 0.66964 0.0
H785 H 0.96575 0.79801 0.63665 0.0
H786 H 0.92905 0.71736 0.70658 0.0
H787 H 0.96357 0.69704 0.69883 0.0
H788 H 0.90569 0.66794 0.69373 0.0
H789 H 0.04204 0.8568 0.66619 0.0
H790 H 0.03959 0.84313 0.64322 0.0
H791 H 0.06471 0.82407 0.65889 0.0
C792 C 0.06762 0.08776 0.13004 0.0
C793 C 0.10241 0.08124 0.12547 0.0
C794 C 0.0274 0.05212 0.13523 0.0
C795 C 0.02258 0.0098 0.13552 0.0
C796 C 0.06007 0.00514 0.13453 0.0
C797 C 0.09979 0.0411 0.12928 0.0
C798 C 0.98845 0.05855 0.13739 0.0
C799 C 0.05672 0.9609 0.1359 0.0
C800 C 0.90838 0.90958 0.13576 0.0
C801 C 0.89929 0.90529 0.11769 0.0
C802 C 0.94875 0.94336 0.14206 0.0
C803 C 0.98023 0.97246 0.12985 0.0
C804 C 0.97137 0.96669 0.11152 0.0
C805 C 0.93083 0.93345 0.10574 0.0
C806 C 0.95653 0.94874 0.16167 0.0
C807 C 0.00428 0.99603 0.09786 0.0
H808 H 0.07015 0.11929 0.12775 0.0
H809 H 0.12754 0.03663 0.12659 0.0
H810 H 0.97037 0.05117 0.12473 0.0
H811 H 0.9657 0.03601 0.14753 0.0
H812 H 0.99874 0.09282 0.14111 0.0
H813 H 0.08875 0.96405 0.1395 0.0
H814 H 0.03183 0.94001 0.14579 0.0
H815 H 0.04657 0.94415 0.12295 0.0
H816 H 0.88345 0.88773 0.14495 0.0
H817 H 0.92359 0.92948 0.09176 0.0
H818 H 0.94534 0.97105 0.16671 0.0
H819 H 0.99171 0.96314 0.16505 0.0
H820 H 0.93754 0.9169 0.1686 0.0
H821 H 0.01152 0.03024 0.0996 0.0
H822 H 0.99233 0.98579 0.08418 0.0
H823 H 0.03542 0.99569 0.09937 0.0
C824 C 0.03799 0.07696 0.44014 0.0
C825 C 0.02857 0.10405 0.45039 0.0
C826 C 0.02909 0.03613 0.44629 0.0
C827 C 0.01137 0.02257 0.46342 0.0
C828 C 0.00433 0.05101 0.47432 0.0
C829 C 0.0125 0.0915 0.46754 0.0
C830 C 0.03667 0.00678 0.43399 0.0
C831 C 0.98872 0.03908 0.49307 0.0
C832 C 0.94474 0.90329 0.45801 0.0
C833 C 0.97817 0.89284 0.45912 0.0
C834 C 0.95279 0.94501 0.46256 0.0
C835 C 0.99519 0.97646 0.46835 0.0
C836 C 0.02578 0.96323 0.47285 0.0
C837 C 0.01719 0.92135 0.4679 0.0
C838 C 0.91841 0.95727 0.45831 0.0
C839 C 0.06982 0.99515 0.48055 0.0
H840 H 0.05061 0.08691 0.4269 0.0
H841 H 0.00648 0.1133 0.47561 0.0
H842 H 0.06019 0.99827 0.43994 0.0
H843 H 0.00548 0.97584 0.43166 0.0
H844 H 0.04993 0.0224 0.42102 0.0
H845 H 0.97585 0.05979 0.49839 0.0
H846 H 0.96302 0.00416 0.4943 0.0
H847 H 0.01678 0.0441 0.50138 0.0
H848 H 0.91359 0.88038 0.45205 0.0
H849 H 0.04246 0.91264 0.46952 0.0
H850 H 0.92679 0.97543 0.44565 0.0
H851 H 0.91722 0.97888 0.46862 0.0
H852 H 0.88531 0.92791 0.45701 0.0
H853 H 0.09245 0.01492 0.46981 0.0
H854 H 0.08447 0.97785 0.48755 0.0
H855 H 0.06695 0.01792 0.48982 0.0
C856 C 0.90239 0.97766 0.79969 0.0
C857 C 0.91027 0.01859 0.7938 0.0
C858 C 0.93754 0.97215 0.80488 0.0
C859 C 0.98065 0.00817 0.80366 0.0
C860 C 0.98724 0.05079 0.80135 0.0
C861 C 0.95172 0.05553 0.79628 0.0
C862 C 0.92932 0.92675 0.80877 0.0
C863 C 0.03258 0.09046 0.80105 0.0
C864 C 0.08204 0.99613 0.80298 0.0
C865 C 0.08389 0.98818 0.78504 0.0
C866 C 0.04787 0.00167 0.8096 0.0
C867 C 0.01594 5e-05 0.79781 0.0
C868 C 0.01841 0.99251 0.7796 0.0
C869 C 0.05207 0.98616 0.77355 0.0
C870 C 0.04532 0.00745 0.82916 0.0
C871 C 0.98576 0.99139 0.76634 0.0
H872 H 0.86991 0.94925 0.79849 0.0
H873 H 0.95736 0.08767 0.7926 0.0
H874 H 0.93347 0.9121 0.7965 0.0
H875 H 0.95313 0.92785 0.81863 0.0
H876 H 0.89549 0.90522 0.81372 0.0
H877 H 0.03156 0.12109 0.80324 0.0
H878 H 0.0538 0.0879 0.81122 0.0
H879 H 0.0477 0.09271 0.78799 0.0
H880 H 0.10648 0.99679 0.81186 0.0
H881 H 0.0539 0.98017 0.75965 0.0
H882 H 0.02462 0.97474 0.83518 0.0
H883 H 0.03031 0.0278 0.83229 0.0
H884 H 0.07824 0.02238 0.83537 0.0
H885 H 0.95241 0.96427 0.76949 0.0
H886 H 0.99362 0.98659 0.75265 0.0
H887 H 0.98505 0.02247 0.76677 0.0
C888 C 0.96072 0.90342 0.58038 0.0
C889 C 0.91646 0.89094 0.57838 0.0
C890 C 0.99357 0.9451 0.57534 0.0
C891 C 0.98147 0.97442 0.56798 0.0
C892 C 0.93756 0.9589 0.56282 0.0
C893 C 0.90509 0.91719 0.56837 0.0
C894 C 0.04023 0.95982 0.58068 0.0
C895 C 0.92418 0.98833 0.55365 0.0
C896 C 0.03692 0.07867 0.59387 0.0
C897 C 0.07446 0.10399 0.58381 0.0
C898 C 0.00492 0.03736 0.58821 0.0
C899 C 0.01007 0.02148 0.57176 0.0
C900 C 0.04612 0.04844 0.56081 0.0
C901 C 0.07854 0.08943 0.56714 0.0
C902 C 0.96722 0.00971 0.60051 0.0
C903 C 0.05059 0.03378 0.54265 0.0
H904 H 0.96975 0.88228 0.58738 0.0
H905 H 0.8709 0.90685 0.56609 0.0
H906 H 0.06364 0.98045 0.57034 0.0
H907 H 0.04822 0.97978 0.59286 0.0
H908 H 0.04518 0.9316 0.58336 0.0
H909 H 0.89327 0.96894 0.54614 0.0
H910 H 0.91862 0.0081 0.56358 0.0
H911 H 0.95023 0.01121 0.54456 0.0
H912 H 0.03362 0.09015 0.60671 0.0
H913 H 0.10712 0.10983 0.55915 0.0
H914 H 0.96776 0.97952 0.60419 0.0
H915 H 0.93553 -0.0003 0.5939 0.0
H916 H 0.96843 0.02733 0.61281 0.0
H917 H 0.04817 0.00121 0.54314 0.0
H918 H 0.08203 0.05741 0.53627 0.0
H919 H 0.02322 0.03029 0.53428 0.0
C920 C 0.00077 0.91388 0.90022 0.0
C921 C 0.01628 0.91658 0.91743 0.0
C922 C 0.99303 0.94664 0.8936 0.0
C923 C -6e-05 0.98173 0.90472 0.0
C924 C 0.01703 0.98503 0.92192 0.0
C925 C 0.02545 0.95267 0.92792 0.0
C926 C 0.97789 0.94391 0.87482 0.0
C927 C 0.02458 0.02159 0.93443 0.0
C928 C 0.00802 0.08969 0.90107 0.0
C929 C 0.96919 0.07952 0.90992 0.0
C930 C 0.01576 0.05611 0.89569 0.0
C931 C 0.98448 0.01229 0.89985 0.0
C932 C 0.94224 0.00194 0.90565 0.0
C933 C 0.93506 0.03594 0.91061 0.0
C934 C 0.05982 0.06783 0.88811 0.0
C935 C 0.90722 0.95547 0.90968 0.0
H936 H 0.99486 0.88636 0.89198 0.0
H937 H 0.03762 0.95476 0.94121 0.0
H938 H 0.9496 0.94944 0.87399 0.0
H939 H 0.00482 0.97015 0.86703 0.0
H940 H 0.96872 0.91188 0.86867 0.0
H941 H 0.03743 0.0186 0.94741 0.0
H942 H 0.04843 0.05373 0.92869 0.0
H943 H 0.99346 0.02155 0.93671 0.0
H944 H 0.03384 0.12352 0.89978 0.0
H945 H 0.90406 0.02806 0.91663 0.0
H946 H 0.05686 0.04237 0.87874 0.0
H947 H 0.08208 0.07004 0.89891 0.0
H948 H 0.07496 0.09997 0.88128 0.0
H949 H 0.90628 0.93249 0.89952 0.0
H950 H 0.87426 0.95226 0.91057 0.0
H951 H 0.91461 0.94549 0.92251 0.0
C952 C 0.08782 4e-05 0.23336 0.0
C953 C 0.09764 0.01008 0.25122 0.0
C954 C 0.04797 0.99341 0.22638 0.0
C955 C 0.01759 0.99619 0.23774 0.0
C956 C 0.02765 0.006 0.25584 0.0
C957 C 0.06773 0.01325 0.26225 0.0
C958 C 0.0394 0.98496 0.20691 0.0
C959 C 0.99609 0.00852 0.26867 0.0
C960 C 0.92603 0.01745 0.23454 0.0
C961 C 0.89342 0.97723 0.24122 0.0
C962 C 0.96656 0.02256 0.22943 0.0
C963 C 0.97401 0.98695 0.23157 0.0
C964 C 0.93823 0.94454 0.23463 0.0
C965 C 0.89806 0.94017 0.23957 0.0
C966 C 0.0034 0.06753 0.22473 0.0
C967 C 0.94424 0.90517 0.23594 0.0
H968 H 0.11161 0.99842 0.22482 0.0
H969 H 0.07548 0.02082 0.27608 0.0
H970 H 0.0041 0.96333 0.20398 0.0
H971 H 0.05027 0.01661 0.20011 0.0
H972 H 0.05809 0.97013 0.20128 0.0
H973 H 0.98964 0.03507 0.26474 0.0
H974 H 0.96441 0.97729 0.26867 0.0
H975 H 0.00884 0.01508 0.28237 0.0
H976 H 0.92181 0.04585 0.23506 0.0
H977 H 0.87185 0.90845 0.24383 0.0
H978 H 0.02615 0.06541 0.21521 0.0
H979 H 0.02224 0.08398 0.2368 0.0
H980 H 0.99069 0.08805 0.21902 0.0
H981 H 0.96802 0.90672 0.226 0.0
H982 H 0.91268 0.87419 0.23414 0.0
H983 H 0.95725 0.90452 0.24919 0.0
C984 C 0.04194 0.24096 0.99867 0.0
C985 C 0.0306 0.21144 0.98456 0.0
C986 C 0.07313 0.24531 1.01139 0.0
C987 C 0.09326 0.21918 1.01018 0.0
C988 C 0.08332 0.19074 0.99558 0.0
C989 C 0.0525 0.18743 0.98297 0.0
C990 C 0.08319 0.2766 0.02653 0.0
C991 C 0.10363 0.16203 0.9937 0.0
C992 C 0.19432 0.24046 0.03698 0.0
C993 C 0.17553 0.2096 0.05063 0.0
C994 C 0.16803 0.2454 0.02416 0.0
C995 C 0.12176 0.21853 0.0248 0.0
C996 C 0.10263 0.18851 0.0389 0.0
C997 C 0.12957 0.18463 0.05162 0.0
C998 C 0.18987 0.27834 1.00957 0.0
C999 C 0.05358 0.15894 0.04015 0.0
H1000 H 0.02545 0.25977 1.00012 0.0
H1001 H 0.04428 0.16452 0.97218 0.0
H1002 H 0.06945 0.2578 0.03887 0.0
H1003 H 0.11913 0.29716 0.02839 0.0
H1004 H 0.06916 0.29834 0.02451 0.0
H1005 H 0.09465 0.14369 0.98107 0.0
H1006 H 0.13985 0.18208 0.99448 0.0
H1007 H 0.09262 0.13811 1.00469 0.0
H1008 H 0.22969 0.26007 0.03603 0.0
H1009 H 0.11443 0.16065 0.06204 0.0
H1010 H 0.17437 0.29889 1.0081 0.0
H1011 H 0.18554 0.26095 0.99691 0.0
H1012 H 0.22551 0.30002 1.01195 0.0
H1013 H 0.03696 0.1786 0.03981 0.0
H1014 H 0.04363 0.13889 0.05236 0.0
H1015 H 0.04172 0.13654 0.02865 0.0
C1016 C 0.94974 0.14117 0.382 0.0
C1017 C 0.97151 0.1871 0.38073 0.0
C1018 C 0.91857 0.11419 0.36943 0.0
C1019 C 0.90808 0.13325 0.35518 0.0
C1020 C 0.92814 0.17953 0.35427 0.0
C1021 C 0.95976 0.20586 0.36695 0.0
C1022 C 0.89841 0.06513 0.37097 0.0
C1023 C 0.91744 0.20131 0.33951 0.0
C1024 C 0.86982 0.06246 0.31383 0.0
C1025 C 0.82393 0.04072 0.31545 0.0
C1026 C 0.89737 0.09385 0.32623 0.0
C1027 C 0.87892 0.10457 0.34063 0.0
C1028 C 0.83267 0.08472 0.3418 0.0
C1029 C 0.80577 0.0529 0.3293 0.0
C1030 C 0.94638 0.11378 0.32442 0.0
C1031 C 0.8115 0.09568 0.3567 0.0
H1032 H 0.95822 0.126 0.39254 0.0
H1033 H 0.97619 0.24116 0.36573 0.0
H1034 H 0.86215 0.04903 0.3706 0.0
H1035 H 0.90868 0.0526 0.35961 0.0
H1036 H 0.9082 0.05529 0.38329 0.0
H1037 H 0.93137 0.23694 0.34184 0.0
H1038 H 0.93087 0.1969 0.32697 0.0
H1039 H 0.88143 0.18588 0.33787 0.0
H1040 H 0.88449 0.05359 0.30324 0.0
H1041 H 0.77046 0.03662 0.33072 0.0
H1042 H 0.95911 0.10296 0.33555 0.0
H1043 H 0.96274 0.15 0.32501 0.0
H1044 H 0.95572 0.1043 0.31191 0.0
H1045 H 0.81606 0.08209 0.36918 0.0
H1046 H 0.77583 0.08208 0.35453 0.0
H1047 H 0.82729 0.13169 0.35836 0.0
C1048 C 0.80823 0.86314 0.65137 0.0
C1049 C 0.78316 0.81722 0.65235 0.0
C1050 C 0.80416 0.89007 0.66401 0.0
C1051 C 0.77377 0.87096 0.67799 0.0
C1052 C 0.74666 0.82475 0.67857 0.0
C1053 C 0.75189 0.79847 0.66586 0.0
C1054 C 0.83407 0.93905 0.66286 0.0
C1055 C 0.71322 0.80293 0.693 0.0
C1056 C 0.80462 0.93915 0.72007 0.0
C1057 C 0.78124 0.96169 0.71843 0.0
C1058 C 0.80122 0.90853 0.70737 0.0
C1059 C 0.77321 0.89935 0.69265 0.0
C1060 C 0.74762 0.92007 0.69139 0.0
C1061 C 0.75218 0.95116 0.70418 0.0
C1062 C 0.82944 0.88767 0.70928 0.0
C1063 C 0.71669 0.91072 0.67615 0.0
H1064 H 0.83254 0.87828 0.64106 0.0
H1065 H 0.73225 0.76316 0.66683 0.0
H1066 H 0.81463 0.95591 0.66316 0.0
H1067 H 0.85631 0.95061 0.67442 0.0
H1068 H 0.85432 0.94901 0.65071 0.0
H1069 H 0.69109 0.76748 0.69043 0.0
H1070 H 0.73022 0.80652 0.70571 0.0
H1071 H 0.69314 0.81895 0.69447 0.0
H1072 H 0.82722 0.94676 0.73095 0.0
H1073 H 0.73388 0.96817 0.70268 0.0
H1074 H 0.85347 0.89851 0.69833 0.0
H1075 H 0.80902 0.85153 0.70845 0.0
H1076 H 0.84769 0.89632 0.72194 0.0
H1077 H 0.73581 0.92471 0.66391 0.0
H1078 H 0.69513 0.92495 0.67819 0.0
H1079 H 0.69592 0.87489 0.67413 0.0
C1080 C 0.85451 0.7881 0.05128 0.0
C1081 C 0.80859 0.7661 0.04972 0.0
C1082 C 0.8809 0.78322 0.03866 0.0
C1083 C 0.86117 0.75483 0.02415 0.0
C1084 C 0.81477 0.73005 0.02312 0.0
C1085 C 0.78904 0.73631 0.03578 0.0
C1086 C 0.93013 0.81076 0.0403 0.0
C1087 C 0.79227 0.69843 1.00819 0.0
C1088 C 0.93215 0.79145 0.98298 0.0
C1089 C 0.95474 0.76803 0.98415 0.0
C1090 C 0.90019 0.78583 0.9954 0.0
C1091 C 0.88944 0.75526 1.00927 0.0
C1092 C 0.90968 0.72915 1.00982 0.0
C1093 C 0.94241 0.73618 0.99741 0.0
C1094 C 0.88007 0.81488 0.99432 0.0
C1095 C 0.89833 0.69524 0.02403 0.0
H1096 H 0.87029 0.81108 0.06197 0.0
H1097 H 0.75372 0.71898 0.03438 0.0
H1098 H 0.94531 0.78983 0.03951 0.0
H1099 H 0.94328 0.83439 0.02921 0.0
H1100 H 0.9404 0.82941 0.05285 0.0
H1101 H 0.75686 0.67625 1.01087 0.0
H1102 H 0.7954 0.71696 0.99595 0.0
H1103 H 0.80796 0.67837 1.00575 0.0
H1104 H 0.94102 0.81608 0.97283 0.0
H1105 H 0.95933 0.71773 0.9985 0.0
H1106 H 0.89056 0.83716 1.00585 0.0
H1107 H 0.84383 0.79487 0.99471 0.0
H1108 H 0.88978 0.83505 0.98215 0.0
H1109 H 0.91315 0.71178 0.03667 0.0
H1110 H 0.91065 0.67253 0.02089 0.0
H1111 H 0.86232 0.67588 0.02598 0.0
C1112 C 0.1405 0.93516 0.3191 0.0
C1113 C 0.18639 0.95933 0.32075 0.0
C1114 C 0.11399 0.90471 0.33195 0.0
C1115 C 0.13355 0.89723 0.34685 0.0
C1116 C 0.17995 0.91929 0.34809 0.0
C1117 C 0.20579 0.95033 0.33513 0.0
C1118 C 0.06478 0.88243 0.33005 0.0
C1119 C 0.20229 0.91158 0.36349 0.0
C1120 C 0.06124 0.86284 0.38774 0.0
C1121 C 0.04019 0.81689 0.38699 0.0
C1122 C 0.09304 0.88926 0.37525 0.0
C1123 C 0.10504 0.86959 0.36174 0.0
C1124 C 0.08609 0.82338 0.36157 0.0
C1125 C 0.05365 0.79759 0.37406 0.0
C1126 C 0.11182 0.93825 0.37593 0.0
C1127 C 0.09865 0.80101 0.34772 0.0
H1128 H 0.12484 0.94144 0.30808 0.0
H1129 H 0.24108 0.96857 0.33663 0.0
H1130 H 0.05001 0.84643 0.3312 0.0
H1131 H 0.05104 0.89321 0.34082 0.0
H1132 H 0.05466 0.88993 0.31726 0.0
H1133 H 0.238 0.92569 0.36121 0.0
H1134 H 0.19778 0.92687 0.37546 0.0
H1135 H 0.18744 0.87601 0.36614 0.0
H1136 H 0.05135 0.87836 0.3976 0.0
H1137 H 0.03794 0.76221 0.37337 0.0
H1138 H 0.10099 0.94901 0.36417 0.0
H1139 H 0.14812 0.95535 0.37566 0.0
H1140 H 0.10136 0.94873 0.38789 0.0
H1141 H 0.08468 0.80267 0.33484 0.0
H1142 H 0.0864 0.76604 0.35093 0.0
H1143 H 0.13478 0.81788 0.34619 0.0
C1144 C 0.2534 0.05178 0.70219 0.0
C1145 C 0.22483 0.04198 0.71655 0.0
C1146 C 0.25861 0.08342 0.68952 0.0
C1147 C 0.23421 0.10534 0.69105 0.0
C1148 C 0.20706 0.09709 0.70596 0.0
C1149 C 0.20303 0.066 0.71852 0.0
C1150 C 0.28876 0.09192 0.67409 0.0
C1151 C 0.18007 0.11923 0.70817 0.0
C1152 C 0.2536 0.20583 0.6645 0.0
C1153 C 0.22086 0.18689 0.65153 0.0
C1154 C 0.26035 0.17968 0.67679 0.0
C1155 C 0.23319 0.13347 0.67639 0.0
C1156 C 0.20149 0.11418 0.66286 0.0
C1157 C 0.19602 0.14094 0.65058 0.0
C1158 C 0.29525 0.20168 0.6907 0.0
C1159 C 0.17139 0.06519 0.66193 0.0
H1160 H 0.2706 0.03373 0.70051 0.0
H1161 H 0.18098 0.05911 0.72954 0.0
H1162 H 0.26902 0.07729 0.66203 0.0
H1163 H 0.30953 0.12763 0.67174 0.0
H1164 H 0.31031 0.07766 0.67614 0.0
H1165 H 0.16256 0.11126 0.72098 0.0
H1166 H 0.20124 0.15527 0.7072 0.0
H1167 H 0.15547 0.10877 0.69744 0.0
H1168 H 0.27312 0.24114 0.66542 0.0
H1169 H 0.17066 0.12563 0.64066 0.0
H1170 H 0.31452 0.18477 0.6921 0.0
H1171 H 0.2796 0.19967 0.70359 0.0
H1172 H 0.31798 0.23674 0.68762 0.0
H1173 H 0.1907 0.0482 0.66197 0.0
H1174 H 0.15034 0.05505 0.65 0.0
H1175 H 0.1499 0.05394 0.67372 0.0
C1176 C 0.35452 0.18919 0.14514 0.0
C1177 C 0.32529 0.20494 0.14303 0.0
C1178 C 0.36274 0.17776 0.16196 0.0
C1179 C 0.34045 0.1813 0.17687 0.0
C1180 C 0.31392 0.20079 0.17488 0.0
C1181 C 0.307 0.21264 0.15803 0.0
C1182 C 0.39232 0.15844 0.1635 0.0
C1183 C 0.28911 0.20499 0.19025 0.0
C1184 C 0.29671 0.09456 0.21265 0.0
C1185 C 0.32074 0.11816 0.22742 0.0
C1186 C 0.30467 0.11402 0.19593 0.0
C1187 C 0.33827 0.15815 0.19375 0.0
C1188 C 0.36534 0.18092 0.20833 0.0
C1189 C 0.35599 0.16077 0.22508 0.0
C1190 C 0.27453 0.08833 0.18094 0.0
C1191 C 0.40227 0.22749 0.20654 0.0
H1192 H 0.36828 0.18262 0.13356 0.0
H1193 H 0.28406 0.22442 0.15638 0.0
H1194 H 0.41259 0.17022 0.17561 0.0
H1195 H 0.37208 0.12227 0.1644 0.0
H1196 H 0.41428 0.1667 0.15191 0.0
H1197 H 0.27356 0.2248 0.18691 0.0
H1198 H 0.26303 0.17192 0.1944 0.0
H1199 H 0.31123 0.22028 0.20166 0.0
H1200 H 0.26952 0.06155 0.21443 0.0
H1201 H 0.37446 0.17933 0.23647 0.0
H1202 H 0.29376 0.08979 0.16916 0.0
H1203 H 0.25413 0.10301 0.17729 0.0
H1204 H 0.25236 0.05342 0.18443 0.0
H1205 H 0.42029 0.23208 0.19402 0.0
H1206 H 0.42572 0.23709 0.21769 0.0
H1207 H 0.38869 0.24988 0.20633 0.0
C1208 C 0.09616 0.30314 0.48924 0.0
C1209 C 0.12179 0.32601 0.47468 0.0
C1210 C 0.11402 0.31075 0.50627 0.0
C1211 C 0.15881 0.3422 0.50889 0.0
C1212 C 0.18388 0.36804 0.49441 0.0
C1213 C 0.1651 0.3595 0.47741 0.0
C1214 C 0.08582 0.28229 0.52119 0.0
C1215 C 0.23145 0.40232 0.4966 0.0
C1216 C 0.18992 0.35961 0.5576 0.0
C1217 C 0.20205 0.32776 0.56028 0.0
C1218 C 0.17911 0.36756 0.5406 0.0
C1219 C 0.1801 0.34275 0.52607 0.0
C1220 C 0.19579 0.31314 0.52864 0.0
C1221 C 0.20656 0.30609 0.54567 0.0
C1222 C 0.1633 0.39991 0.53847 0.0
C1223 C 0.19749 0.28585 0.51367 0.0
H1224 H 0.06275 0.27704 0.48711 0.0
H1225 H 0.18518 0.37685 0.46615 0.0
H1226 H 0.0973 0.25945 0.52526 0.0
H1227 H 0.08862 0.30261 0.53279 0.0
H1228 H 0.05074 0.26267 0.5174 0.0
H1229 H 0.24375 0.42515 0.48522 0.0
H1230 H 0.23647 0.42146 0.50883 0.0
H1231 H 0.25138 0.38606 0.4977 0.0
H1232 H 0.18581 0.37597 0.5689 0.0
H1233 H 0.21558 0.28118 0.54777 0.0
H1234 H 0.12705 0.38194 0.53733 0.0
H1235 H 0.17672 0.41947 0.52628 0.0
H1236 H 0.17264 0.4225 0.54989 0.0
H1237 H 0.16363 0.26162 0.50955 0.0
H1238 H 0.21468 0.26786 0.51743 0.0
H1239 H 0.21431 0.30678 0.50211 0.0
C1240 C 0.83021 0.19545 0.89119 0.0
C1241 C 0.87396 0.20605 0.8933 0.0
C1242 C 0.81013 0.18477 0.87443 0.0
C1243 C 0.83415 0.18373 0.85962 0.0
C1244 C 0.87939 0.19818 0.86158 0.0
C1245 C 0.89872 0.20957 0.87833 0.0
C1246 C 0.76233 0.17119 0.87288 0.0
C1247 C 0.90649 0.19733 0.84634 0.0
C1248 C 0.78444 0.09587 0.82451 0.0
C1249 C 0.78919 0.12055 0.80937 0.0
C1250 C 0.79579 0.11551 0.8412 0.0
C1251 C 0.81145 0.16101 0.84291 0.0
C1252 C 0.81167 0.18509 0.82789 0.0
C1253 C 0.80099 0.16466 0.81121 0.0
C1254 C 0.79527 0.08833 0.85668 0.0
C1255 C 0.82655 0.23319 0.82915 0.0
H1256 H 0.8108 0.19229 0.90275 0.0
H1257 H 0.93252 0.2176 0.87997 0.0
H1258 H 0.75579 0.18323 0.86038 0.0
H1259 H 0.74233 0.13494 0.87285 0.0
H1260 H 0.75145 0.18366 0.88409 0.0
H1261 H 0.9419 0.21329 0.84964 0.0
H1262 H 0.89502 0.16286 0.84256 0.0
H1263 H 0.90251 0.21401 0.8347 0.0
H1264 H 0.77542 0.06177 0.82308 0.0
H1265 H 0.80503 0.18398 0.79952 0.0
H1266 H 0.77877 0.09329 0.86814 0.0
H1267 H 0.82946 0.09885 0.86066 0.0
H1268 H 0.77839 0.05282 0.85354 0.0
H1269 H 0.81449 0.2405 0.84147 0.0
H1270 H 0.81504 0.24441 0.81773 0.0
H1271 H 0.86288 0.25231 0.82939 0.0
C1272 C 0.68842 0.90334 0.21086 0.0
C1273 C 0.67022 0.87762 0.22593 0.0
C1274 C 0.68123 0.88435 0.19406 0.0
C1275 C 0.65448 0.83837 0.19219 0.0
C1276 C 0.63222 0.81284 0.20718 0.0
C1277 C 0.64075 0.83271 0.22395 0.0
C1278 C 0.70606 0.91306 0.17862 0.0
C1279 C 0.60235 0.76401 0.20576 0.0
C1280 C 0.63915 0.80231 0.14402 0.0
C1281 C 0.67428 0.79468 0.14176 0.0
C1282 C 0.62965 0.81305 0.16074 0.0
C1283 C 0.65652 0.81713 0.17538 0.0
C1284 C 0.68996 0.8063 0.17328 0.0
C1285 C 0.69801 0.79478 0.15659 0.0
C1286 C 0.59283 0.82292 0.16245 0.0
C1287 C 0.71992 0.81053 0.18833 0.0
H1288 H 0.71154 0.93802 0.21241 0.0
H1289 H 0.62706 0.81259 0.23558 0.0
H1290 H 0.73193 0.90572 0.17448 0.0
H1291 H 0.68388 0.9063 0.16724 0.0
H1292 H 0.72189 0.94846 0.18188 0.0
H1293 H 0.58031 0.75068 0.21734 0.0
H1294 H 0.58215 0.7555 0.19362 0.0
H1295 H 0.62235 0.74778 0.205 0.0
H1296 H 0.62087 0.8026 0.13259 0.0
H1297 H 0.72506 0.78868 0.15488 0.0
H1298 H 0.60651 0.8589 0.16252 0.0
H1299 H 0.57485 0.80981 0.175 0.0
H1300 H 0.56933 0.80896 0.15132 0.0
H1301 H 0.74051 0.84557 0.19194 0.0
H1302 H 0.7419 0.7975 0.18492 0.0
H1303 H 0.70055 0.79292 0.20011 0.0
C1304 C 0.89767 0.68663 0.49117 0.0
C1305 C 0.87239 0.66767 0.47606 0.0
C1306 C 0.87835 0.67894 0.50792 0.0
C1307 C 0.83252 0.65074 0.50971 0.0
C1308 C 0.80757 0.62789 0.4947 0.0
C1309 C 0.82771 0.63707 0.47796 0.0
C1310 C 0.90645 0.70456 0.52338 0.0
C1311 C 0.75901 0.59639 0.49605 0.0
C1312 C 0.79861 0.63517 0.55807 0.0
C1313 C 0.78976 0.66945 0.56041 0.0
C1314 C 0.80855 0.62556 0.54121 0.0
C1315 C 0.81067 0.65153 0.52655 0.0
C1316 C 0.79809 0.68366 0.52874 0.0
C1317 C 0.78733 0.69178 0.54557 0.0
C1318 C 0.82008 0.58993 0.5394 0.0
C1319 C 0.8002 0.71262 0.51367 0.0
H1320 H 0.93218 0.71049 0.48969 0.0
H1321 H 0.80788 0.62271 0.4663 0.0
H1322 H 0.89731 0.72908 0.52761 0.0
H1323 H 0.90087 0.68256 0.53472 0.0
H1324 H 0.94194 0.72207 0.52013 0.0
H1325 H 0.74668 0.57393 0.48456 0.0
H1326 H 0.75106 0.57667 0.50829 0.0
H1327 H 0.74133 0.61503 0.49649 0.0
H1328 H 0.80088 0.61803 0.56951 0.0
H1329 H 0.78056 0.71834 0.54739 0.0
H1330 H 0.85624 0.60477 0.53923 0.0
H1331 H 0.80718 0.57176 0.52687 0.0
H1332 H 0.80699 0.56643 0.55055 0.0
H1333 H 0.83491 0.73436 0.5098 0.0
H1334 H 0.78587 0.73342 0.51718 0.0
H1335 H 0.7826 0.6926 0.50202 0.0
C1336 C 0.20687 0.90515 0.82356 0.0
C1337 C 0.20185 0.87969 0.80864 0.0
C1338 C 0.1955 0.88636 0.8404 0.0
C1339 C 0.17898 0.8408 0.84251 0.0
C1340 C 0.17744 0.8156 0.82767 0.0
C1341 C 0.18854 0.83528 0.81085 0.0
C1342 C 0.19754 0.91469 0.85569 0.0
C1343 C 0.16096 0.76722 0.82932 0.0
C1344 C 0.16302 0.80653 0.89091 0.0
C1345 C 0.11969 0.79675 0.89361 0.0
C1346 C 0.18207 0.8175 0.87397 0.0
C1347 C 0.15735 0.81931 0.85954 0.0
C1348 C 0.11258 0.80611 0.8621 0.0
C1349 C 0.09435 0.79477 0.87904 0.0
C1350 C 0.22952 0.83027 0.87179 0.0
C1351 C 0.08479 0.80764 0.84728 0.0
H1352 H 0.21687 0.93944 0.82184 0.0
H1353 H 0.18393 0.81529 0.79933 0.0
H1354 H 0.16378 0.90511 0.85994 0.0
H1355 H 0.21437 0.90984 0.86708 0.0
H1356 H 0.21491 0.95004 0.85224 0.0
H1357 H 0.17019 0.75439 0.81772 0.0
H1358 H 0.17404 0.76011 0.8414 0.0
H1359 H 0.12471 0.74934 0.83035 0.0
H1360 H 0.18286 0.80853 0.90216 0.0
H1361 H 0.06086 0.78728 0.88113 0.0
H1362 H 0.24986 0.86645 0.87106 0.0
H1363 H 0.23449 0.81672 0.85939 0.0
H1364 H 0.24137 0.81875 0.88301 0.0
H1365 H 0.09697 0.84221 0.84342 0.0
H1366 H 0.04973 0.79273 0.85103 0.0
H1367 H 0.08719 0.79028 0.83554 0.0
loop_
_geom_bond_atom_site_label_1
_geom_bond_atom_site_label_2
_geom_bond_distance
_geom_bond_site_symmetry_2
_ccdc_geom_bond_type
Co0 O3 1.970 . S
Co0 N17 1.989 . S
Co0 O25 1.967 . S
Co0 O32 1.920 . S
Co1 O4 1.966 . S
Co1 N10 2.022 . S
Co1 N18 1.993 . S
Co1 O26 1.941 . S
C2 O3 1.258 . S
C2 O4 1.263 . S
O3 Co0 1.970 . S
O3 C2 1.258 . S
O4 Co1 1.966 . S
O4 C2 1.263 . S
C5 O6 1.235 . S
C5 O32 1.289 . S
O6 C5 1.235 . S
C7 C9 1.400 . S
C7 N10 1.351 . S
C7 C12 1.501 . S
C8 C9 1.387 . S
C8 N11 1.341 . S
C9 C7 1.400 . S
C9 C8 1.387 . S
N10 Co1 2.022 . S
N10 C7 1.351 . S
N10 N11 1.365 . S
N11 C8 1.341 . S
N11 N10 1.365 . S
N11 H31 0.862 . S
C12 C7 1.501 . S
C12 H13 0.961 . S
C12 H14 0.961 . S
C12 H15 0.960 . S
H13 C12 0.961 . S
H14 C12 0.961 . S
H15 C12 0.960 . S
C16 N17 1.342 . S
C16 C20 1.401 . S
C16 C21 1.499 . S
N17 Co0 1.989 . S
N17 C16 1.342 . S
N17 N18 1.388 . S
N18 Co1 1.993 . S
N18 N17 1.388 . S
N18 C19 1.346 . S
C19 N18 1.346 . S
C19 C20 1.396 . S
C19 C29 1.510 . S
C20 C16 1.401 . S
C20 C19 1.396 . S
C21 C16 1.499 . S
C21 H22 0.959 . S
C21 H23 0.960 . S
C21 H24 0.961 . S
H22 C21 0.959 . S
H23 C21 0.960 . S
H24 C21 0.961 . S
O25 Co0 1.967 . S
O25 C33 1.258 . S
O26 Co1 1.941 . S
O26 C33 1.266 . S
H27 C29 0.959 . S
H28 C29 0.961 . S
C29 C19 1.510 . S
C29 H27 0.959 . S
C29 H28 0.961 . S
C29 H30 0.960 . S
H30 C29 0.960 . S
H31 N11 0.862 . S
O32 Co0 1.920 . S
O32 C5 1.289 . S
C33 O25 1.258 . S
C33 O26 1.266 . S
Co34 O37 1.970 . S
Co34 N51 1.989 . S
Co34 O59 1.967 . S
Co34 O66 1.920 . S
Co35 O38 1.966 . S
Co35 N44 2.022 . S
Co35 N52 1.993 . S
Co35 O60 1.941 . S
C36 O37 1.258 . S
C36 O38 1.263 . S
O37 Co34 1.970 . S
O37 C36 1.258 . S
O38 Co35 1.966 . S
O38 C36 1.263 . S
C39 O40 1.235 . S
C39 O66 1.289 . S
O40 C39 1.235 . S
C41 C43 1.400 . S
C41 N44 1.351 . S
C41 C46 1.501 . S
C42 C43 1.387 . S
C42 N45 1.341 . S
C43 C41 1.400 . S
C43 C42 1.387 . S
N44 Co35 2.022 . S
N44 C41 1.351 . S
N44 N45 1.365 . S
N45 C42 1.341 . S
N45 N44 1.365 . S
N45 H65 0.862 . S
C46 C41 1.501 . S
C46 H47 0.961 . S
C46 H48 0.961 . S
C46 H49 0.960 . S
H47 C46 0.961 . S
H48 C46 0.961 . S
H49 C46 0.960 . S
C50 N51 1.342 . S
C50 C54 1.401 . S
C50 C55 1.499 . S
N51 Co34 1.989 . S
N51 C50 1.342 . S
N51 N52 1.388 . S
N52 Co35 1.993 . S
N52 N51 1.388 . S
N52 C53 1.346 . S
C53 N52 1.346 . S
C53 C54 1.396 . S
C53 C63 1.510 . S
C54 C50 1.401 . S
C54 C53 1.396 . S
C55 C50 1.499 . S
C55 H56 0.959 . S
C55 H57 0.960 . S
C55 H58 0.961 . S
H56 C55 0.959 . S
H57 C55 0.960 . S
H58 C55 0.961 . S
O59 Co34 1.967 . S
O59 C67 1.258 . S
O60 Co35 1.941 . S
O60 C67 1.266 . S
H61 C63 0.959 . S
H62 C63 0.961 . S
C63 C53 1.510 . S
C63 H61 0.959 . S
C63 H62 0.961 . S
C63 H64 0.960 . S
H64 C63 0.960 . S
H65 N45 0.862 . S
O66 Co34 1.920 . S
O66 C39 1.289 . S
C67 O59 1.258 . S
C67 O60 1.266 . S
Co68 O71 1.970 . S
Co68 N85 1.989 . S
Co68 O93 1.967 . S
Co68 O100 1.920 . S
Co69 O72 1.966 . S
Co69 N78 2.022 . S
Co69 N86 1.993 . S
Co69 O94 1.941 . S
C70 O71 1.258 . S
C70 O72 1.263 . S
O71 Co68 1.970 . S
O71 C70 1.258 . S
O72 Co69 1.966 . S
O72 C70 1.263 . S
C73 O74 1.235 . S
C73 O100 1.289 . S
O74 C73 1.235 . S
C75 C77 1.400 . S
C75 N78 1.351 . S
C75 C80 1.501 . S
C76 C77 1.387 . S
C76 N79 1.341 . S
C77 C75 1.400 . S
C77 C76 1.387 . S
N78 Co69 2.022 . S
N78 C75 1.351 . S
N78 N79 1.365 . S
N79 C76 1.341 . S
N79 N78 1.365 . S
N79 H99 0.862 . S
C80 C75 1.501 . S
C80 H81 0.961 . S
C80 H82 0.961 . S
C80 H83 0.960 . S
H81 C80 0.961 . S
H82 C80 0.961 . S
H83 C80 0.960 . S
C84 N85 1.342 . S
C84 C88 1.401 . S
C84 C89 1.499 . S
N85 Co68 1.989 . S
N85 C84 1.342 . S
N85 N86 1.388 . S
N86 Co69 1.993 . S
N86 N85 1.388 . S
N86 C87 1.346 . S
C87 N86 1.346 . S
C87 C88 1.396 . S
C87 C97 1.510 . S
C88 C84 1.401 . S
C88 C87 1.396 . S
C89 C84 1.499 . S
C89 H90 0.959 . S
C89 H91 0.960 . S
C89 H92 0.961 . S
H90 C89 0.959 . S
H91 C89 0.960 . S
H92 C89 0.961 . S
O93 Co68 1.967 . S
O93 C101 1.258 . S
O94 Co69 1.941 . S
O94 C101 1.266 . S
H95 C97 0.959 . S
H96 C97 0.961 . S
C97 C87 1.510 . S
C97 H95 0.959 . S
C97 H96 0.961 . S
C97 H98 0.960 . S
H98 C97 0.960 . S
H99 N79 0.862 . S
O100 Co68 1.920 . S
O100 C73 1.289 . S
C101 O93 1.258 . S
C101 O94 1.266 . S
Co102 O105 1.970 . S
Co102 N119 1.989 . S
Co102 O127 1.967 . S
Co102 O134 1.920 . S
Co103 O106 1.966 . S
Co103 N112 2.022 . S
Co103 N120 1.993 . S
Co103 O128 1.941 . S
C104 O105 1.258 . S
C104 O106 1.263 . S
O105 Co102 1.970 . S
O105 C104 1.258 . S
O106 Co103 1.966 . S
O106 C104 1.263 . S
C107 O108 1.235 . S
C107 O134 1.289 . S
O108 C107 1.235 . S
C109 C111 1.400 . S
C109 N112 1.351 . S
C109 C114 1.501 . S
C110 C111 1.387 . S
C110 N113 1.341 . S
C111 C109 1.400 . S
C111 C110 1.387 . S
N112 Co103 2.022 . S
N112 C109 1.351 . S
N112 N113 1.365 . S
N113 C110 1.341 . S
N113 N112 1.365 . S
N113 H133 0.862 . S
C114 C109 1.501 . S
C114 H115 0.961 . S
C114 H116 0.961 . S
C114 H117 0.960 . S
H115 C114 0.961 . S
H116 C114 0.961 . S
H117 C114 0.960 . S
C118 N119 1.342 . S
C118 C122 1.401 . S
C118 C123 1.499 . S
N119 Co102 1.989 . S
N119 C118 1.342 . S
N119 N120 1.388 . S
N120 Co103 1.993 . S
N120 N119 1.388 . S
N120 C121 1.346 . S
C121 N120 1.346 . S
C121 C122 1.396 . S
C121 C131 1.510 . S
C122 C118 1.401 . S
C122 C121 1.396 . S
C123 C118 1.499 . S
C123 H124 0.959 . S
C123 H125 0.960 . S
C123 H126 0.961 . S
H124 C123 0.959 . S
H125 C123 0.960 . S
H126 C123 0.961 . S
O127 Co102 1.967 . S
O127 C135 1.258 . S
O128 Co103 1.941 . S
O128 C135 1.266 . S
H129 C131 0.959 . S
H130 C131 0.961 . S
C131 C121 1.510 . S
C131 H129 0.959 . S
C131 H130 0.961 . S
C131 H132 0.960 . S
H132 C131 0.960 . S
H133 N113 0.862 . S
O134 Co102 1.920 . S
O134 C107 1.289 . S
C135 O127 1.258 . S
C135 O128 1.266 . S
Co136 O139 1.970 . S
Co136 N153 1.989 . S
Co136 O161 1.967 . S
Co136 O168 1.920 . S
Co137 O140 1.966 . S
Co137 N146 2.022 . S
Co137 N154 1.993 . S
Co137 O162 1.941 . S
C138 O139 1.258 . S
C138 O140 1.263 . S
O139 Co136 1.970 . S
O139 C138 1.258 . S
O140 Co137 1.966 . S
O140 C138 1.263 . S
C141 O142 1.235 . S
C141 O168 1.289 . S
O142 C141 1.235 . S
C143 C145 1.400 . S
C143 N146 1.351 . S
C143 C148 1.501 . S
C144 C145 1.387 . S
C144 N147 1.341 . S
C145 C143 1.400 . S
C145 C144 1.387 . S
N146 Co137 2.022 . S
N146 C143 1.351 . S
N146 N147 1.365 . S
N147 C144 1.341 . S
N147 N146 1.365 . S
N147 H167 0.862 . S
C148 C143 1.501 . S
C148 H149 0.961 . S
C148 H150 0.961 . S
C148 H151 0.960 . S
H149 C148 0.961 . S
H150 C148 0.961 . S
H151 C148 0.960 . S
C152 N153 1.342 . S
C152 C156 1.401 . S
C152 C157 1.499 . S
N153 Co136 1.989 . S
N153 C152 1.342 . S
N153 N154 1.388 . S
N154 Co137 1.993 . S
N154 N153 1.388 . S
N154 C155 1.346 . S
C155 N154 1.346 . S
C155 C156 1.396 . S
C155 C165 1.510 . S
C156 C152 1.401 . S
C156 C155 1.396 . S
C157 C152 1.499 . S
C157 H158 0.959 . S
C157 H159 0.960 . S
C157 H160 0.961 . S
H158 C157 0.959 . S
H159 C157 0.960 . S
H160 C157 0.961 . S
O161 Co136 1.967 . S
O161 C169 1.258 . S
O162 Co137 1.941 . S
O162 C169 1.266 . S
H163 C165 0.959 . S
H164 C165 0.961 . S
C165 C155 1.510 . S
C165 H163 0.959 . S
C165 H164 0.961 . S
C165 H166 0.960 . S
H166 C165 0.960 . S
H167 N147 0.862 . S
O168 Co136 1.920 . S
O168 C141 1.289 . S
C169 O161 1.258 . S
C169 O162 1.266 . S
Co170 O173 1.970 . S
Co170 N187 1.989 . S
Co170 O195 1.967 . S
Co170 O202 1.920 . S
Co171 O174 1.966 . S
Co171 N180 2.022 . S
Co171 N188 1.993 . S
Co171 O196 1.941 . S
C172 O173 1.258 . S
C172 O174 1.263 . S
O173 Co170 1.970 . S
O173 C172 1.258 . S
O174 Co171 1.966 . S
O174 C172 1.263 . S
C175 O176 1.235 . S
C175 O202 1.289 . S
O176 C175 1.235 . S
C177 C179 1.400 . S
C177 N180 1.351 . S
C177 C182 1.501 . S
C178 C179 1.387 . S
C178 N181 1.341 . S
C179 C177 1.400 . S
C179 C178 1.387 . S
N180 Co171 2.022 . S
N180 C177 1.351 . S
N180 N181 1.365 . S
N181 C178 1.341 . S
N181 N180 1.365 . S
N181 H201 0.862 . S
C182 C177 1.501 . S
C182 H183 0.961 . S
C182 H184 0.961 . S
C182 H185 0.960 . S
H183 C182 0.961 . S
H184 C182 0.961 . S
H185 C182 0.960 . S
C186 N187 1.342 . S
C186 C190 1.401 . S
C186 C191 1.499 . S
N187 Co170 1.989 . S
N187 C186 1.342 . S
N187 N188 1.388 . S
N188 Co171 1.993 . S
N188 N187 1.388 . S
N188 C189 1.346 . S
C189 N188 1.346 . S
C189 C190 1.396 . S
C189 C199 1.510 . S
C190 C186 1.401 . S
C190 C189 1.396 . S
C191 C186 1.499 . S
C191 H192 0.959 . S
C191 H193 0.960 . S
C191 H194 0.961 . S
H192 C191 0.959 . S
H193 C191 0.960 . S
H194 C191 0.961 . S
O195 Co170 1.967 . S
O195 C203 1.258 . S
O196 Co171 1.941 . S
O196 C203 1.266 . S
H197 C199 0.959 . S
H198 C199 0.961 . S
C199 C189 1.510 . S
C199 H197 0.959 . S
C199 H198 0.961 . S
C199 H200 0.960 . S
H200 C199 0.960 . S
H201 N181 0.862 . S
O202 Co170 1.920 . S
O202 C175 1.289 . S
C203 O195 1.258 . S
C203 O196 1.266 . S
Co204 O207 1.970 . S
Co204 N221 1.989 . S
Co204 O229 1.967 . S
Co204 O236 1.920 . S
Co205 O208 1.966 . S
Co205 N214 2.022 . S
Co205 N222 1.993 . S
Co205 O230 1.941 . S
C206 O207 1.258 . S
C206 O208 1.263 . S
O207 Co204 1.970 . S
O207 C206 1.258 . S
O208 Co205 1.966 . S
O208 C206 1.263 . S
C209 O210 1.235 . S
C209 O236 1.289 . S
O210 C209 1.235 . S
C211 C213 1.400 . S
C211 N214 1.351 . S
C211 C216 1.501 . S
C212 C213 1.387 . S
C212 N215 1.341 . S
C213 C211 1.400 . S
C213 C212 1.387 . S
N214 Co205 2.022 . S
N214 C211 1.351 . S
N214 N215 1.365 . S
N215 C212 1.341 . S
N215 N214 1.365 . S
N215 H235 0.862 . S
C216 C211 1.501 . S
C216 H217 0.961 . S
C216 H218 0.961 . S
C216 H219 0.960 . S
H217 C216 0.961 . S
H218 C216 0.961 . S
H219 C216 0.960 . S
C220 N221 1.342 . S
C220 C224 1.401 . S
C220 C225 1.499 . S
N221 Co204 1.989 . S
N221 C220 1.342 . S
N221 N222 1.388 . S
N222 Co205 1.993 . S
N222 N221 1.388 . S
N222 C223 1.346 . S
C223 N222 1.346 . S
C223 C224 1.396 . S
C223 C233 1.510 . S
C224 C220 1.401 . S
C224 C223 1.396 . S
C225 C220 1.499 . S
C225 H226 0.959 . S
C225 H227 0.960 . S
C225 H228 0.961 . S
H226 C225 0.959 . S
H227 C225 0.960 . S
H228 C225 0.961 . S
O229 Co204 1.967 . S
O229 C237 1.258 . S
O230 Co205 1.941 . S
O230 C237 1.266 . S
H231 C233 0.959 . S
H232 C233 0.961 . S
C233 C223 1.510 . S
C233 H231 0.959 . S
C233 H232 0.961 . S
C233 H234 0.960 . S
H234 C233 0.960 . S
H235 N215 0.862 . S
O236 Co204 1.920 . S
O236 C209 1.289 . S
C237 O229 1.258 . S
C237 O230 1.266 . S
Co238 O241 1.970 . S
Co238 N255 1.989 . S
Co238 O263 1.967 . S
Co238 O270 1.920 . S
Co239 O242 1.966 . S
Co239 N248 2.022 . S
Co239 N256 1.993 . S
Co239 O264 1.941 . S
C240 O241 1.258 . S
C240 O242 1.263 . S
O241 Co238 1.970 . S
O241 C240 1.258 . S
O242 Co239 1.966 . S
O242 C240 1.263 . S
C243 O244 1.235 . S
C243 O270 1.289 . S
O244 C243 1.235 . S
C245 C247 1.400 . S
C245 N248 1.351 . S
C245 C250 1.501 . S
C246 C247 1.387 . S
C246 N249 1.341 . S
C247 C245 1.400 . S
C247 C246 1.387 . S
N248 Co239 2.022 . S
N248 C245 1.351 . S
N248 N249 1.365 . S
N249 C246 1.341 . S
N249 N248 1.365 . S
N249 H269 0.862 . S
C250 C245 1.501 . S
C250 H251 0.961 . S
C250 H252 0.961 . S
C250 H253 0.960 . S
H251 C250 0.961 . S
H252 C250 0.961 . S
H253 C250 0.960 . S
C254 N255 1.342 . S
C254 C258 1.401 . S
C254 C259 1.499 . S
N255 Co238 1.989 . S
N255 C254 1.342 . S
N255 N256 1.388 . S
N256 Co239 1.993 . S
N256 N255 1.388 . S
N256 C257 1.346 . S
C257 N256 1.346 . S
C257 C258 1.396 . S
C257 C267 1.510 . S
C258 C254 1.401 . S
C258 C257 1.396 . S
C259 C254 1.499 . S
C259 H260 0.959 . S
C259 H261 0.960 . S
C259 H262 0.961 . S
H260 C259 0.959 . S
H261 C259 0.960 . S
H262 C259 0.961 . S
O263 Co238 1.967 . S
O263 C271 1.258 . S
O264 Co239 1.941 . S
O264 C271 1.266 . S
H265 C267 0.959 . S
H266 C267 0.961 . S
C267 C257 1.510 . S
C267 H265 0.959 . S
C267 H266 0.961 . S
C267 H268 0.960 . S
H268 C267 0.960 . S
H269 N249 0.862 . S
O270 Co238 1.920 . S
O270 C243 1.289 . S
C271 O263 1.258 . S
C271 O264 1.266 . S
Co272 O275 1.970 . S
Co272 N289 1.989 . S
Co272 O297 1.967 . S
Co272 O304 1.920 . S
Co273 O276 1.966 . S
Co273 N282 2.022 . S
Co273 N290 1.993 . S
Co273 O298 1.941 . S
C274 O275 1.258 . S
C274 O276 1.263 . S
O275 Co272 1.970 . S
O275 C274 1.258 . S
O276 Co273 1.966 . S
O276 C274 1.263 . S
C277 O278 1.235 . S
C277 O304 1.289 . S
O278 C277 1.235 . S
C279 C281 1.400 . S
C279 N282 1.351 . S
C279 C284 1.501 . S
C280 C281 1.387 . S
C280 N283 1.341 . S
C281 C279 1.400 . S
C281 C280 1.387 . S
N282 Co273 2.022 . S
N282 C279 1.351 . S
N282 N283 1.365 . S
N283 C280 1.341 . S
N283 N282 1.365 . S
N283 H303 0.862 . S
C284 C279 1.501 . S
C284 H285 0.961 . S
C284 H286 0.961 . S
C284 H287 0.960 . S
H285 C284 0.961 . S
H286 C284 0.961 . S
H287 C284 0.960 . S
C288 N289 1.342 . S
C288 C292 1.401 . S
C288 C293 1.499 . S
N289 Co272 1.989 . S
N289 C288 1.342 . S
N289 N290 1.388 . S
N290 Co273 1.993 . S
N290 N289 1.388 . S
N290 C291 1.346 . S
C291 N290 1.346 . S
C291 C292 1.396 . S
C291 C301 1.510 . S
C292 C288 1.401 . S
C292 C291 1.396 . S
C293 C288 1.499 . S
C293 H294 0.959 . S
C293 H295 0.960 . S
C293 H296 0.961 . S
H294 C293 0.959 . S
H295 C293 0.960 . S
H296 C293 0.961 . S
O297 Co272 1.967 . S
O297 C305 1.258 . S
O298 Co273 1.941 . S
O298 C305 1.266 . S
H299 C301 0.959 . S
H300 C301 0.961 . S
C301 C291 1.510 . S
C301 H299 0.959 . S
C301 H300 0.961 . S
C301 H302 0.960 . S
H302 C301 0.960 . S
H303 N283 0.862 . S
O304 Co272 1.920 . S
O304 C277 1.289 . S
C305 O297 1.258 . S
C305 O298 1.266 . S
Co306 O309 1.970 . S
Co306 N323 1.989 . S
Co306 O331 1.967 . S
Co306 O338 1.920 . S
Co307 O310 1.966 . S
Co307 N316 2.022 . S
Co307 N324 1.993 . S
Co307 O332 1.941 . S
C308 O309 1.258 . S
C308 O310 1.263 . S
O309 Co306 1.970 . S
O309 C308 1.258 . S
O310 Co307 1.966 . S
O310 C308 1.263 . S
C311 O312 1.235 . S
C311 O338 1.289 . S
O312 C311 1.235 . S
C313 C315 1.400 . S
C313 N316 1.351 . S
C313 C318 1.501 . S
C314 C315 1.387 . S
C314 N317 1.341 . S
C315 C313 1.400 . S
C315 C314 1.387 . S
N316 Co307 2.022 . S
N316 C313 1.351 . S
N316 N317 1.365 . S
N317 C314 1.341 . S
N317 N316 1.365 . S
N317 H337 0.862 . S
C318 C313 1.501 . S
C318 H319 0.961 . S
C318 H320 0.961 . S
C318 H321 0.960 . S
H319 C318 0.961 . S
H320 C318 0.961 . S
H321 C318 0.960 . S
C322 N323 1.342 . S
C322 C326 1.401 . S
C322 C327 1.499 . S
N323 Co306 1.989 . S
N323 C322 1.342 . S
N323 N324 1.388 . S
N324 Co307 1.993 . S
N324 N323 1.388 . S
N324 C325 1.346 . S
C325 N324 1.346 . S
C325 C326 1.396 . S
C325 C335 1.510 . S
C326 C322 1.401 . S
C326 C325 1.396 . S
C327 C322 1.499 . S
C327 H328 0.959 . S
C327 H329 0.960 . S
C327 H330 0.961 . S
H328 C327 0.959 . S
H329 C327 0.960 . S
H330 C327 0.961 . S
O331 Co306 1.967 . S
O331 C339 1.258 . S
O332 Co307 1.941 . S
O332 C339 1.266 . S
H333 C335 0.959 . S
H334 C335 0.961 . S
C335 C325 1.510 . S
C335 H333 0.959 . S
C335 H334 0.961 . S
C335 H336 0.960 . S
H336 C335 0.960 . S
H337 N317 0.862 . S
O338 Co306 1.920 . S
O338 C311 1.289 . S
C339 O331 1.258 . S
C339 O332 1.266 . S
Co340 O343 1.970 . S
Co340 N357 1.989 . S
Co340 O365 1.967 . S
Co340 O372 1.920 . S
Co341 O344 1.966 . S
Co341 N350 2.022 . S
Co341 N358 1.993 . S
Co341 O366 1.941 . S
C342 O343 1.258 . S
C342 O344 1.263 . S
O343 Co340 1.970 . S
O343 C342 1.258 . S
O344 Co341 1.966 . S
O344 C342 1.263 . S
C345 O346 1.235 . S
C345 O372 1.289 . S
O346 C345 1.235 . S
C347 C349 1.400 . S
C347 N350 1.351 . S
C347 C352 1.501 . S
C348 C349 1.387 . S
C348 N351 1.341 . S
C349 C347 1.400 . S
C349 C348 1.387 . S
N350 Co341 2.022 . S
N350 C347 1.351 . S
N350 N351 1.365 . S
N351 C348 1.341 . S
N351 N350 1.365 . S
N351 H371 0.862 . S
C352 C347 1.501 . S
C352 H353 0.961 . S
C352 H354 0.961 . S
C352 H355 0.960 . S
H353 C352 0.961 . S
H354 C352 0.961 . S
H355 C352 0.960 . S
C356 N357 1.342 . S
C356 C360 1.401 . S
C356 C361 1.499 . S
N357 Co340 1.989 . S
N357 C356 1.342 . S
N357 N358 1.388 . S
N358 Co341 1.993 . S
N358 N357 1.388 . S
N358 C359 1.346 . S
C359 N358 1.346 . S
C359 C360 1.396 . S
C359 C369 1.510 . S
C360 C356 1.401 . S
C360 C359 1.396 . S
C361 C356 1.499 . S
C361 H362 0.959 . S
C361 H363 0.960 . S
C361 H364 0.961 . S
H362 C361 0.959 . S
H363 C361 0.960 . S
H364 C361 0.961 . S
O365 Co340 1.967 . S
O365 C373 1.258 . S
O366 Co341 1.941 . S
O366 C373 1.266 . S
H367 C369 0.959 . S
H368 C369 0.961 . S
C369 C359 1.510 . S
C369 H367 0.959 . S
C369 H368 0.961 . S
C369 H370 0.960 . S
H370 C369 0.960 . S
H371 N351 0.862 . S
O372 Co340 1.920 . S
O372 C345 1.289 . S
C373 O365 1.258 . S
C373 O366 1.266 . S
Co374 O377 1.970 . S
Co374 N391 1.989 . S
Co374 O399 1.967 . S
Co374 O406 1.920 . S
Co375 O378 1.966 . S
Co375 N384 2.022 . S
Co375 N392 1.993 . S
Co375 O400 1.941 . S
C376 O377 1.258 . S
C376 O378 1.263 . S
O377 Co374 1.970 . S
O377 C376 1.258 . S
O378 Co375 1.966 . S
O378 C376 1.263 . S
C379 O380 1.235 . S
C379 O406 1.289 . S
O380 C379 1.235 . S
C381 C383 1.400 . S
C381 N384 1.351 . S
C381 C386 1.501 . S
C382 C383 1.387 . S
C382 N385 1.341 . S
C383 C381 1.400 . S
C383 C382 1.387 . S
N384 Co375 2.022 . S
N384 C381 1.351 . S
N384 N385 1.365 . S
N385 C382 1.341 . S
N385 N384 1.365 . S
N385 H405 0.862 . S
C386 C381 1.501 . S
C386 H387 0.961 . S
C386 H388 0.961 . S
C386 H389 0.960 . S
H387 C386 0.961 . S
H388 C386 0.961 . S
H389 C386 0.960 . S
C390 N391 1.342 . S
C390 C394 1.401 . S
C390 C395 1.499 . S
N391 Co374 1.989 . S
N391 C390 1.342 . S
N391 N392 1.388 . S
N392 Co375 1.993 . S
N392 N391 1.388 . S
N392 C393 1.346 . S
C393 N392 1.346 . S
C393 C394 1.396 . S
C393 C403 1.510 . S
C394 C390 1.401 . S
C394 C393 1.396 . S
C395 C390 1.499 . S
C395 H396 0.959 . S
C395 H397 0.960 . S
C395 H398 0.961 . S
H396 C395 0.959 . S
H397 C395 0.960 . S
H398 C395 0.961 . S
O399 Co374 1.967 . S
O399 C407 1.258 . S
O400 Co375 1.941 . S
O400 C407 1.266 . S
H401 C403 0.959 . S
H402 C403 0.961 . S
C403 C393 1.510 . S
C403 H401 0.959 . S
C403 H402 0.961 . S
C403 H404 0.960 . S
H404 C403 0.960 . S
H405 N385 0.862 . S
O406 Co374 1.920 . S
O406 C379 1.289 . S
C407 O399 1.258 . S
C407 O400 1.266 . S
C408 C409 1.391 . S
C408 C410 1.394 . S
C408 H424 0.931 . S
C409 C408 1.391 . S
C409 C413 1.376 . S
C410 C408 1.394 . S
C410 C411 1.369 . S
C410 C414 1.531 . S
C411 C410 1.369 . S
C411 C412 1.410 . S
C411 C419 1.503 . S
C412 C411 1.410 . S
C412 C413 1.392 . S
C412 C415 1.511 . S
C413 C409 1.376 . S
C413 C412 1.392 . S
C413 H425 0.929 . S
C414 C410 1.531 . S
C414 H426 0.960 . S
C414 H427 0.962 . S
C414 H428 0.960 . S
C415 C412 1.511 . S
C415 H429 0.961 . S
C415 H430 0.961 . S
C415 H431 0.961 . S
C416 C417 1.370 . S
C416 C418 1.363 . S
C416 H432 0.931 . S
C417 C416 1.370 . S
C417 C421 1.408 . S
C418 C416 1.363 . S
C418 C419 1.370 . S
C418 C422 1.524 . S
C419 C411 1.503 . S
C419 C418 1.370 . S
C419 C420 1.403 . S
C420 C419 1.403 . S
C420 C421 1.404 . S
C420 C423 1.539 . S
C421 C417 1.408 . S
C421 C420 1.404 . S
C421 H433 0.930 . S
C422 C418 1.524 . S
C422 H434 0.956 . S
C422 H435 0.961 . S
C422 H436 0.961 . S
C423 C420 1.539 . S
C423 H437 0.958 . S
C423 H438 0.961 . S
C423 H439 0.960 . S
H424 C408 0.931 . S
H425 C413 0.929 . S
H426 C414 0.960 . S
H427 C414 0.962 . S
H428 C414 0.960 . S
H429 C415 0.961 . S
H430 C415 0.961 . S
H431 C415 0.961 . S
H432 C416 0.931 . S
H433 C421 0.930 . S
H434 C422 0.956 . S
H435 C422 0.961 . S
H436 C422 0.961 . S
H437 C423 0.958 . S
H438 C423 0.961 . S
H439 C423 0.960 . S
C440 C441 1.391 . S
C440 C442 1.394 1_455 S
C440 H456 0.931 1_455 S
C441 C440 1.391 . S
C441 C445 1.376 . S
C442 C440 1.394 1_655 S
C442 C443 1.369 1_655 S
C442 C446 1.531 . S
C443 C442 1.369 1_455 S
C443 C444 1.410 . S
C443 C451 1.503 1_455 S
C444 C443 1.410 . S
C444 C445 1.392 . S
C444 C447 1.511 . S
C445 C441 1.376 . S
C445 C444 1.392 . S
C445 H457 0.929 . S
C446 C442 1.531 . S
C446 H458 0.960 . S
C446 H459 0.962 . S
C446 H460 0.960 . S
C447 C444 1.511 . S
C447 H461 0.961 . S
C447 H462 0.961 . S
C447 H463 0.961 . S
C448 C449 1.370 . S
C448 C450 1.363 . S
C448 H464 0.931 . S
C449 C448 1.370 . S
C449 C453 1.408 . S
C450 C448 1.363 . S
C450 C451 1.370 . S
C450 C454 1.524 . S
C451 C443 1.503 1_655 S
C451 C450 1.370 . S
C451 C452 1.403 . S
C452 C451 1.403 . S
C452 C453 1.404 . S
C452 C455 1.539 . S
C453 C449 1.408 . S
C453 C452 1.404 . S
C453 H465 0.930 . S
C454 C450 1.524 . S
C454 H466 0.956 . S
C454 H467 0.961 1_655 S
C454 H468 0.961 . S
C455 C452 1.539 . S
C455 H469 0.958 . S
C455 H470 0.961 . S
C455 H471 0.960 1_655 S
H456 C440 0.931 1_655 S
H457 C445 0.929 . S
H458 C446 0.960 . S
H459 C446 0.962 . S
H460 C446 0.960 . S
H461 C447 0.961 . S
H462 C447 0.961 . S
H463 C447 0.961 . S
H464 C448 0.931 . S
H465 C453 0.930 . S
H466 C454 0.956 . S
H467 C454 0.961 1_455 S
H468 C454 0.961 . S
H469 C455 0.958 . S
H470 C455 0.961 . S
H471 C455 0.960 1_455 S
C472 C473 1.391 . S
C472 C474 1.394 1_545 S
C472 H488 0.931 1_545 S
C473 C472 1.391 . S
C473 C477 1.376 . S
C474 C472 1.394 1_565 S
C474 C475 1.369 1_565 S
C474 C478 1.531 . S
C475 C474 1.369 1_545 S
C475 C476 1.410 . S
C475 C483 1.503 1_545 S
C476 C475 1.410 . S
C476 C477 1.392 . S
C476 C479 1.511 . S
C477 C473 1.376 . S
C477 C476 1.392 . S
C477 H489 0.929 . S
C478 C474 1.531 . S
C478 H490 0.960 . S
C478 H491 0.962 . S
C478 H492 0.960 . S
C479 C476 1.511 . S
C479 H493 0.961 . S
C479 H494 0.961 . S
C479 H495 0.961 . S
C480 C481 1.370 . S
C480 C482 1.363 . S
C480 H496 0.931 . S
C481 C480 1.370 . S
C481 C485 1.408 . S
C482 C480 1.363 . S
C482 C483 1.370 . S
C482 C486 1.524 . S
C483 C475 1.503 1_565 S
C483 C482 1.370 . S
C483 C484 1.403 . S
C484 C483 1.403 . S
C484 C485 1.404 . S
C484 C487 1.539 . S
C485 C481 1.408 . S
C485 C484 1.404 . S
C485 H497 0.930 . S
C486 C482 1.524 . S
C486 H498 0.956 . S
C486 H499 0.961 1_565 S
C486 H500 0.961 . S
C487 C484 1.539 . S
C487 H501 0.958 . S
C487 H502 0.961 . S
C487 H503 0.960 1_565 S
H488 C472 0.931 1_565 S
H489 C477 0.929 . S
H490 C478 0.960 . S
H491 C478 0.962 . S
H492 C478 0.960 . S
H493 C479 0.961 . S
H494 C479 0.961 . S
H495 C479 0.961 . S
H496 C480 0.931 . S
H497 C485 0.930 . S
H498 C486 0.956 . S
H499 C486 0.961 1_545 S
H500 C486 0.961 . S
H501 C487 0.958 . S
H502 C487 0.961 . S
H503 C487 0.960 1_545 S
C504 C505 1.391 . S
C504 C506 1.394 . S
C504 H520 0.931 . S
C505 C504 1.391 . S
C505 C509 1.376 . S
C506 C504 1.394 . S
C506 C507 1.369 . S
C506 C510 1.531 . S
C507 C506 1.369 . S
C507 C508 1.410 . S
C507 C515 1.503 . S
C508 C507 1.410 . S
C508 C509 1.392 . S
C508 C511 1.511 . S
C509 C505 1.376 . S
C509 C508 1.392 . S
C509 H521 0.929 . S
C510 C506 1.531 . S
C510 H522 0.960 . S
C510 H523 0.962 . S
C510 H524 0.960 . S
C511 C508 1.511 . S
C511 H525 0.961 . S
C511 H526 0.961 . S
C511 H527 0.961 . S
C512 C513 1.370 . S
C512 C514 1.363 . S
C512 H528 0.931 . S
C513 C512 1.370 . S
C513 C517 1.408 . S
C514 C512 1.363 . S
C514 C515 1.370 . S
C514 C518 1.524 . S
C515 C507 1.503 . S
C515 C514 1.370 . S
C515 C516 1.403 . S
C516 C515 1.403 . S
C516 C517 1.404 . S
C516 C519 1.539 . S
C517 C513 1.408 . S
C517 C516 1.404 . S
C517 H529 0.930 . S
C518 C514 1.524 . S
C518 H530 0.956 . S
C518 H531 0.961 . S
C518 H532 0.961 . S
C519 C516 1.539 . S
C519 H533 0.958 . S
C519 H534 0.961 . S
C519 H535 0.960 . S
H520 C504 0.931 . S
H521 C509 0.929 . S
H522 C510 0.960 . S
H523 C510 0.962 . S
H524 C510 0.960 . S
H525 C511 0.961 . S
H526 C511 0.961 . S
H527 C511 0.961 . S
H528 C512 0.931 . S
H529 C517 0.930 . S
H530 C518 0.956 . S
H531 C518 0.961 . S
H532 C518 0.961 . S
H533 C519 0.958 . S
H534 C519 0.961 . S
H535 C519 0.960 . S
C536 C537 1.391 . S
C536 C538 1.394 . S
C536 H552 0.931 . S
C537 C536 1.391 . S
C537 C541 1.376 . S
C538 C536 1.394 . S
C538 C539 1.369 . S
C538 C542 1.531 . S
C539 C538 1.369 . S
C539 C540 1.410 1_655 S
C539 C547 1.503 1_655 S
C540 C539 1.410 1_455 S
C540 C541 1.392 1_455 S
C540 C543 1.511 . S
C541 C537 1.376 . S
C541 C540 1.392 1_655 S
C541 H553 0.929 . S
C542 C538 1.531 . S
C542 H554 0.960 . S
C542 H555 0.962 . S
C542 H556 0.960 . S
C543 C540 1.511 . S
C543 H557 0.961 . S
C543 H558 0.961 . S
C543 H559 0.961 . S
C544 C545 1.370 . S
C544 C546 1.363 . S
C544 H560 0.931 . S
C545 C544 1.370 . S
C545 C549 1.408 . S
C546 C544 1.363 . S
C546 C547 1.370 . S
C546 C550 1.524 1_455 S
C547 C539 1.503 1_455 S
C547 C546 1.370 . S
C547 C548 1.403 . S
C548 C547 1.403 . S
C548 C549 1.404 . S
C548 C551 1.539 . S
C549 C545 1.408 . S
C549 C548 1.404 . S
C549 H561 0.930 . S
C550 C546 1.524 1_655 S
C550 H562 0.956 . S
C550 H563 0.961 . S
C550 H564 0.961 . S
C551 C548 1.539 . S
C551 H565 0.958 . S
C551 H566 0.961 . S
C551 H567 0.960 . S
H552 C536 0.931 . S
H553 C541 0.929 . S
H554 C542 0.960 . S
H555 C542 0.962 . S
H556 C542 0.960 . S
H557 C543 0.961 . S
H558 C543 0.961 . S
H559 C543 0.961 . S
H560 C544 0.931 . S
H561 C549 0.930 . S
H562 C550 0.956 . S
H563 C550 0.961 . S
H564 C550 0.961 . S
H565 C551 0.958 . S
H566 C551 0.961 . S
H567 C551 0.960 . S
C568 C569 1.391 . S
C568 C570 1.394 . S
C568 H584 0.931 . S
C569 C568 1.391 . S
C569 C573 1.376 . S
C570 C568 1.394 . S
C570 C571 1.369 . S
C570 C574 1.531 1_565 S
C571 C570 1.369 . S
C571 C572 1.410 . S
C571 C579 1.503 1_565 S
C572 C571 1.410 . S
C572 C573 1.392 . S
C572 C575 1.511 . S
C573 C569 1.376 . S
C573 C572 1.392 . S
C573 H585 0.929 . S
C574 C570 1.531 1_545 S
C574 H586 0.960 . S
C574 H587 0.962 . S
C574 H588 0.960 . S
C575 C572 1.511 . S
C575 H589 0.961 . S
C575 H590 0.961 . S
C575 H591 0.961 . S
C576 C577 1.370 . S
C576 C578 1.363 . S
C576 H592 0.931 . S
C577 C576 1.370 . S
C577 C581 1.408 . S
C578 C576 1.363 . S
C578 C579 1.370 . S
C578 C582 1.524 . S
C579 C571 1.503 1_545 S
C579 C578 1.370 . S
C579 C580 1.403 1_545 S
C580 C579 1.403 1_565 S
C580 C581 1.404 1_565 S
C580 C583 1.539 . S
C581 C577 1.408 . S
C581 C580 1.404 1_545 S
C581 H593 0.930 . S
C582 C578 1.524 . S
C582 H594 0.956 . S
C582 H595 0.961 . S
C582 H596 0.961 . S
C583 C580 1.539 . S
C583 H597 0.958 . S
C583 H598 0.961 . S
C583 H599 0.960 . S
H584 C568 0.931 . S
H585 C573 0.929 . S
H586 C574 0.960 . S
H587 C574 0.962 . S
H588 C574 0.960 . S
H589 C575 0.961 . S
H590 C575 0.961 . S
H591 C575 0.961 . S
H592 C576 0.931 . S
H593 C581 0.930 . S
H594 C582 0.956 . S
H595 C582 0.961 . S
H596 C582 0.961 . S
H597 C583 0.958 . S
H598 C583 0.961 . S
H599 C583 0.960 . S
C600 C601 1.391 . S
C600 C602 1.394 . S
C600 H616 0.931 . S
C601 C600 1.391 . S
C601 C605 1.376 . S
C602 C600 1.394 . S
C602 C603 1.369 . S
C602 C606 1.531 1_565 S
C603 C602 1.369 . S
C603 C604 1.410 . S
C603 C611 1.503 1_566 S
C604 C603 1.410 . S
C604 C605 1.392 . S
C604 C607 1.511 1_556 S
C605 C601 1.376 . S
C605 C604 1.392 . S
C605 H617 0.929 . S
C606 C602 1.531 1_545 S
C606 H618 0.960 . S
C606 H619 0.962 . S
C606 H620 0.960 . S
C607 C604 1.511 1_554 S
C607 H621 0.961 . S
C607 H622 0.961 . S
C607 H623 0.961 . S
C608 C609 1.370 . S
C608 C610 1.363 . S
C608 H624 0.931 . S
C609 C608 1.370 . S
C609 C613 1.408 . S
C610 C608 1.363 . S
C610 C611 1.370 . S
C610 C614 1.524 1_545 S
C611 C603 1.503 1_544 S
C611 C610 1.370 . S
C611 C612 1.394 1_554 S
C612 C611 1.394 1_556 S
C612 C613 1.379 1_556 S
C612 C615 1.572 . S
C613 C609 1.408 . S
C613 C612 1.379 1_554 S
C613 H625 0.930 . S
C614 C610 1.524 1_565 S
C614 H626 0.956 . S
C614 H627 0.961 . S
C614 H628 0.961 . S
C615 C612 1.572 . S
C615 H629 0.958 . S
C615 H630 0.961 . S
C615 H631 0.960 . S
H616 C600 0.931 . S
H617 C605 0.929 . S
H618 C606 0.960 . S
H619 C606 0.962 . S
H620 C606 0.960 . S
H621 C607 0.961 . S
H622 C607 0.961 . S
H623 C607 0.961 . S
H624 C608 0.931 . S
H625 C613 0.930 . S
H626 C614 0.956 . S
H627 C614 0.961 . S
H628 C614 0.961 . S
H629 C615 0.958 . S
H630 C615 0.961 . S
H631 C615 0.960 . S
C632 C633 1.391 . S
C632 C634 1.394 . S
C632 H648 0.931 . S
C633 C632 1.391 . S
C633 C637 1.376 . S
C634 C632 1.394 . S
C634 C635 1.369 . S
C634 C638 1.531 . S
C635 C634 1.369 . S
C635 C636 1.410 . S
C635 C643 1.503 . S
C636 C635 1.410 . S
C636 C637 1.392 . S
C636 C639 1.511 . S
C637 C633 1.376 . S
C637 C636 1.392 . S
C637 H649 0.929 . S
C638 C634 1.531 . S
C638 H650 0.960 . S
C638 H651 0.962 . S
C638 H652 0.960 . S
C639 C636 1.511 . S
C639 H653 0.961 . S
C639 H654 0.961 . S
C639 H655 0.961 . S
C640 C641 1.370 . S
C640 C642 1.363 . S
C640 H656 0.931 . S
C641 C640 1.370 . S
C641 C645 1.408 . S
C642 C640 1.363 . S
C642 C643 1.370 . S
C642 C646 1.524 . S
C643 C635 1.503 . S
C643 C642 1.370 . S
C643 C644 1.403 . S
C644 C643 1.403 . S
C644 C645 1.404 . S
C644 C647 1.539 . S
C645 C641 1.408 . S
C645 C644 1.404 . S
C645 H657 0.930 . S
C646 C642 1.524 . S
C646 H658 0.956 . S
C646 H659 0.961 . S
C646 H660 0.961 . S
C647 C644 1.539 . S
C647 H661 0.958 . S
C647 H662 0.961 . S
C647 H663 0.960 . S
H648 C632 0.931 . S
H649 C637 0.929 . S
H650 C638 0.960 . S
H651 C638 0.962 . S
H652 C638 0.960 . S
H653 C639 0.961 . S
H654 C639 0.961 . S
H655 C639 0.961 . S
H656 C640 0.931 . S
H657 C645 0.930 . S
H658 C646 0.956 . S
H659 C646 0.961 . S
H660 C646 0.961 . S
H661 C647 0.958 . S
H662 C647 0.961 . S
H663 C647 0.960 . S
C664 C665 1.391 . S
C664 C666 1.394 . S
C664 H680 0.931 . S
C665 C664 1.391 . S
C665 C669 1.376 . S
C666 C664 1.394 . S
C666 C667 1.369 . S
C666 C670 1.531 1_455 S
C667 C666 1.369 . S
C667 C668 1.410 . S
C667 C675 1.503 1_455 S
C668 C667 1.410 . S
C668 C669 1.392 . S
C668 C671 1.511 . S
C669 C665 1.376 . S
C669 C668 1.392 . S
C669 H681 0.929 . S
C670 C666 1.531 1_655 S
C670 H682 0.960 . S
C670 H683 0.962 . S
C670 H684 0.960 . S
C671 C668 1.511 . S
C671 H685 0.961 . S
C671 H686 0.961 . S
C671 H687 0.961 . S
C672 C673 1.370 . S
C672 C674 1.363 . S
C672 H688 0.931 . S
C673 C672 1.370 . S
C673 C677 1.408 . S
C674 C672 1.363 . S
C674 C675 1.370 . S
C674 C678 1.524 . S
C675 C667 1.503 1_655 S
C675 C674 1.370 . S
C675 C676 1.403 . S
C676 C675 1.403 . S
C676 C677 1.404 . S
C676 C679 1.539 . S
C677 C673 1.408 . S
C677 C676 1.404 . S
C677 H689 0.930 . S
C678 C674 1.524 . S
C678 H690 0.956 . S
C678 H691 0.961 1_655 S
C678 H692 0.961 . S
C679 C676 1.539 . S
C679 H693 0.958 . S
C679 H694 0.961 . S
C679 H695 0.960 . S
H680 C664 0.931 . S
H681 C669 0.929 . S
H682 C670 0.960 . S
H683 C670 0.962 . S
H684 C670 0.960 . S
H685 C671 0.961 . S
H686 C671 0.961 . S
H687 C671 0.961 . S
H688 C672 0.931 . S
H689 C677 0.930 . S
H690 C678 0.956 . S
H691 C678 0.961 1_455 S
H692 C678 0.961 . S
H693 C679 0.958 . S
H694 C679 0.961 . S
H695 C679 0.960 . S
C696 C697 1.391 . S
C696 C698 1.394 . S
C696 H712 0.931 . S
C697 C696 1.391 . S
C697 C701 1.376 . S
C698 C696 1.394 . S
C698 C699 1.369 . S
C698 C702 1.531 1_554 S
C699 C698 1.369 . S
C699 C700 1.410 . S
C699 C707 1.503 1_564 S
C700 C699 1.410 . S
C700 C701 1.392 . S
C700 C703 1.511 . S
C701 C697 1.376 . S
C701 C700 1.392 . S
C701 H713 0.929 . S
C702 C698 1.531 1_556 S
C702 H714 0.960 . S
C702 H715 0.962 . S
C702 H716 0.960 . S
C703 C700 1.511 . S
C703 H717 0.961 . S
C703 H718 0.961 1_565 S
C703 H719 0.961 . S
C704 C705 1.370 . S
C704 C706 1.364 . S
C704 H720 0.931 . S
C705 C704 1.370 . S
C705 C709 1.408 . S
C706 C704 1.364 . S
C706 C707 1.371 . S
C706 C710 1.523 1_556 S
C707 C699 1.503 1_546 S
C707 C706 1.371 . S
C707 C708 1.403 . S
C708 C707 1.403 . S
C708 C709 1.404 . S
C708 C711 1.539 1_545 S
C709 C705 1.408 . S
C709 C708 1.404 . S
C709 H721 0.930 . S
C710 C706 1.523 1_554 S
C710 H722 0.956 . S
C710 H723 0.961 . S
C710 H724 0.961 . S
C711 C708 1.539 1_565 S
C711 H725 0.958 . S
C711 H726 0.961 . S
C711 H727 0.960 . S
H712 C696 0.931 . S
H713 C701 0.929 . S
H714 C702 0.960 . S
H715 C702 0.962 . S
H716 C702 0.960 . S
H717 C703 0.961 . S
H718 C703 0.961 1_545 S
H719 C703 0.961 . S
H720 C704 0.931 . S
H721 C709 0.930 . S
H722 C710 0.956 . S
H723 C710 0.961 . S
H724 C710 0.961 . S
H725 C711 0.958 . S
H726 C711 0.961 . S
H727 C711 0.960 . S
C728 C729 1.391 . S
C728 C730 1.394 . S
C728 H744 0.931 . S
C729 C728 1.391 . S
C729 C733 1.376 . S
C730 C728 1.394 . S
C730 C731 1.369 . S
C730 C734 1.531 . S
C731 C730 1.369 . S
C731 C732 1.410 . S
C731 C739 1.503 . S
C732 C731 1.410 . S
C732 C733 1.392 . S
C732 C735 1.511 . S
C733 C729 1.376 . S
C733 C732 1.392 . S
C733 H745 0.929 . S
C734 C730 1.531 . S
C734 H746 0.960 . S
C734 H747 0.962 . S
C734 H748 0.960 . S
C735 C732 1.511 . S
C735 H749 0.961 . S
C735 H750 0.961 . S
C735 H751 0.961 . S
C736 C737 1.370 . S
C736 C738 1.363 . S
C736 H752 0.931 . S
C737 C736 1.370 . S
C737 C741 1.408 . S
C738 C736 1.363 . S
C738 C739 1.370 . S
C738 C742 1.524 . S
C739 C731 1.503 . S
C739 C738 1.370 . S
C739 C740 1.403 . S
C740 C739 1.403 . S
C740 C741 1.404 . S
C740 C743 1.539 . S
C741 C737 1.408 . S
C741 C740 1.404 . S
C741 H753 0.930 . S
C742 C738 1.524 . S
C742 H754 0.956 . S
C742 H755 0.961 . S
C742 H756 0.961 . S
C743 C740 1.539 . S
C743 H757 0.958 . S
C743 H758 0.961 . S
C743 H759 0.960 . S
H744 C728 0.931 . S
H745 C733 0.929 . S
H746 C734 0.960 . S
H747 C734 0.962 . S
H748 C734 0.960 . S
H749 C735 0.961 . S
H750 C735 0.961 . S
H751 C735 0.961 . S
H752 C736 0.931 . S
H753 C741 0.930 . S
H754 C742 0.956 . S
H755 C742 0.961 . S
H756 C742 0.961 . S
H757 C743 0.958 . S
H758 C743 0.961 . S
H759 C743 0.960 . S
C760 C761 1.391 . S
C760 C762 1.394 . S
C760 H776 0.931 . S
C761 C760 1.391 . S
C761 C765 1.376 . S
C762 C760 1.394 . S
C762 C763 1.369 . S
C762 C766 1.531 . S
C763 C762 1.369 . S
C763 C764 1.410 . S
C763 C771 1.503 1_455 S
C764 C763 1.410 . S
C764 C765 1.392 . S
C764 C767 1.511 . S
C765 C761 1.376 . S
C765 C764 1.392 . S
C765 H777 0.929 . S
C766 C762 1.531 . S
C766 H778 0.960 1_455 S
C766 H779 0.962 1_455 S
C766 H780 0.960 . S
C767 C764 1.511 . S
C767 H781 0.961 . S
C767 H782 0.961 . S
C767 H783 0.961 . S
C768 C769 1.370 . S
C768 C770 1.363 . S
C768 H784 0.931 . S
C769 C768 1.370 . S
C769 C773 1.408 . S
C770 C768 1.363 . S
C770 C771 1.370 . S
C770 C774 1.524 . S
C771 C763 1.503 1_655 S
C771 C770 1.370 . S
C771 C772 1.403 . S
C772 C771 1.403 . S
C772 C773 1.404 . S
C772 C775 1.539 1_655 S
C773 C769 1.408 . S
C773 C772 1.404 . S
C773 H785 0.930 . S
C774 C770 1.524 . S
C774 H786 0.956 . S
C774 H787 0.961 . S
C774 H788 0.961 . S
C775 C772 1.539 1_455 S
C775 H789 0.958 . S
C775 H790 0.961 . S
C775 H791 0.960 . S
H776 C760 0.931 . S
H777 C765 0.929 . S
H778 C766 0.960 1_655 S
H779 C766 0.962 1_655 S
H780 C766 0.960 . S
H781 C767 0.961 . S
H782 C767 0.961 . S
H783 C767 0.961 . S
H784 C768 0.931 . S
H785 C773 0.930 . S
H786 C774 0.956 . S
H787 C774 0.961 . S
H788 C774 0.961 . S
H789 C775 0.958 . S
H790 C775 0.961 . S
H791 C775 0.960 . S
C792 C793 1.391 . S
C792 C794 1.394 . S
C792 H808 0.931 . S
C793 C792 1.391 . S
C793 C797 1.376 . S
C794 C792 1.394 . S
C794 C795 1.369 . S
C794 C798 1.531 . S
C795 C794 1.369 . S
C795 C796 1.410 1_545 S
C795 C803 1.503 1_445 S
C796 C795 1.410 1_565 S
C796 C797 1.392 1_565 S
C796 C799 1.511 . S
C797 C793 1.376 . S
C797 C796 1.392 1_545 S
C797 H809 0.929 . S
C798 C794 1.531 . S
C798 H810 0.960 1_455 S
C798 H811 0.962 . S
C798 H812 0.960 . S
C799 C796 1.511 . S
C799 H813 0.961 . S
C799 H814 0.961 1_455 S
C799 H815 0.961 . S
C800 C801 1.370 . S
C800 C802 1.363 . S
C800 H816 0.931 . S
C801 C800 1.370 . S
C801 C805 1.408 . S
C802 C800 1.363 . S
C802 C803 1.370 . S
C802 C806 1.524 1_565 S
C803 C795 1.503 1_665 S
C803 C802 1.370 . S
C803 C804 1.403 . S
C804 C803 1.403 . S
C804 C805 1.404 . S
C804 C807 1.539 . S
C805 C801 1.408 . S
C805 C804 1.404 . S
C805 H817 0.930 . S
C806 C802 1.524 1_545 S
C806 H818 0.956 . S
C806 H819 0.961 1_655 S
C806 H820 0.961 . S
C807 C804 1.539 . S
C807 H821 0.958 . S
C807 H822 0.961 . S
C807 H823 0.949 1_655 S
H808 C792 0.931 . S
H809 C797 0.929 . S
H810 C798 0.960 1_655 S
H811 C798 0.962 . S
H812 C798 0.960 . S
H813 C799 0.961 . S
H814 C799 0.961 1_655 S
H815 C799 0.961 . S
H816 C800 0.931 . S
H817 C805 0.930 . S
H818 C806 0.956 . S
H819 C806 0.961 1_455 S
H820 C806 0.961 . S
H821 C807 0.958 . S
H822 C807 0.961 . S
H823 C807 0.949 1_455 S
C824 C825 1.391 . S
C824 C826 1.394 . S
C824 H840 0.931 . S
C825 C824 1.391 . S
C825 C829 1.376 . S
C826 C824 1.394 . S
C826 C827 1.369 . S
C826 C830 1.531 1_455 S
C827 C826 1.369 . S
C827 C828 1.410 . S
C827 C835 1.503 1_445 S
C828 C827 1.410 . S
C828 C829 1.392 . S
C828 C831 1.511 . S
C829 C825 1.376 . S
C829 C828 1.392 . S
C829 H841 0.929 . S
C830 C826 1.531 1_655 S
C830 H842 0.960 1_545 S
C830 H843 0.962 . S
C830 H844 0.961 . S
C831 C828 1.511 . S
C831 H845 0.961 . S
C831 H846 0.961 1_545 S
C831 H847 0.961 . S
C832 C833 1.370 . S
C832 C834 1.363 . S
C832 H848 0.931 . S
C833 C832 1.370 . S
C833 C837 1.408 . S
C834 C832 1.363 . S
C834 C835 1.370 . S
C834 C838 1.524 . S
C835 C827 1.503 1_665 S
C835 C834 1.370 . S
C835 C836 1.403 1_655 S
C836 C835 1.403 1_455 S
C836 C837 1.404 1_455 S
C836 C839 1.539 . S
C837 C833 1.408 . S
C837 C836 1.404 1_655 S
C837 H849 0.930 . S
C838 C834 1.524 . S
C838 H850 0.956 . S
C838 H851 0.961 1_565 S
C838 H852 0.961 . S
C839 C836 1.539 . S
C839 H853 0.958 . S
C839 H854 0.961 . S
C839 H855 0.946 1_565 S
H840 C824 0.931 . S
H841 C829 0.929 . S
H842 C830 0.960 1_565 S
H843 C830 0.962 . S
H844 C830 0.961 . S
H845 C831 0.961 . S
H846 C831 0.961 1_565 S
H847 C831 0.961 . S
H848 C832 0.931 . S
H849 C837 0.930 . S
H850 C838 0.956 . S
H851 C838 0.961 1_545 S
H852 C838 0.961 . S
H853 C839 0.958 . S
H854 C839 0.961 . S
H855 C839 0.946 1_545 S
C856 C857 1.391 . S
C856 C858 1.394 1_545 S
C856 H872 0.931 . S
C857 C856 1.391 . S
C857 C861 1.376 . S
C858 C856 1.394 1_565 S
C858 C859 1.369 1_565 S
C858 C862 1.531 . S
C859 C858 1.369 1_545 S
C859 C860 1.410 1_655 S
C859 C867 1.503 1_645 S
C860 C859 1.410 1_455 S
C860 C861 1.392 1_455 S
C860 C863 1.511 . S
C861 C857 1.376 . S
C861 C860 1.392 1_655 S
C861 H873 0.929 . S
C862 C858 1.531 . S
C862 H874 0.960 . S
C862 H875 0.962 . S
C862 H876 0.960 . S
C863 C860 1.511 . S
C863 H877 0.961 . S
C863 H878 0.961 . S
C863 H879 0.961 . S
C864 C865 1.370 . S
C864 C866 1.363 . S
C864 H880 0.931 . S
C865 C864 1.370 . S
C865 C869 1.408 . S
C866 C864 1.363 . S
C866 C867 1.370 . S
C866 C870 1.524 1_455 S
C867 C859 1.503 1_465 S
C867 C866 1.370 . S
C867 C868 1.403 . S
C868 C867 1.403 . S
C868 C869 1.404 . S
C868 C871 1.539 1_565 S
C869 C865 1.408 . S
C869 C868 1.404 . S
C869 H881 0.930 . S
C870 C866 1.524 1_655 S
C870 H882 0.956 . S
C870 H883 0.961 . S
C870 H884 0.961 . S
C871 C868 1.539 1_545 S
C871 H885 0.958 . S
C871 H886 0.961 . S
C871 H887 0.960 . S
H872 C856 0.931 . S
H873 C861 0.929 . S
H874 C862 0.960 . S
H875 C862 0.962 . S
H876 C862 0.960 . S
H877 C863 0.961 . S
H878 C863 0.961 . S
H879 C863 0.961 . S
H880 C864 0.931 . S
H881 C869 0.930 . S
H882 C870 0.956 . S
H883 C870 0.961 . S
H884 C870 0.961 . S
H885 C871 0.958 . S
H886 C871 0.961 . S
H887 C871 0.960 . S
C888 C889 1.391 . S
C888 C890 1.394 1_655 S
C888 H904 0.931 . S
C889 C888 1.391 . S
C889 C893 1.376 . S
C890 C888 1.394 1_455 S
C890 C891 1.369 1_455 S
C890 C894 1.531 . S
C891 C890 1.369 1_655 S
C891 C892 1.410 . S
C891 C899 1.503 1_665 S
C892 C891 1.410 . S
C892 C893 1.392 . S
C892 C895 1.511 . S
C893 C889 1.376 . S
C893 C892 1.392 . S
C893 H905 0.929 . S
C894 C890 1.531 . S
C894 H906 0.960 1_565 S
C894 H907 0.962 . S
C894 H908 0.960 . S
C895 C892 1.511 . S
C895 H909 0.961 . S
C895 H910 0.961 1_565 S
C895 H911 0.961 . S
C896 C897 1.370 . S
C896 C898 1.363 . S
C896 H912 0.931 . S
C897 C896 1.370 . S
C897 C901 1.408 . S
C898 C896 1.363 . S
C898 C899 1.370 . S
C898 C902 1.524 . S
C899 C891 1.503 1_445 S
C899 C898 1.370 . S
C899 C900 1.403 . S
C900 C899 1.403 . S
C900 C901 1.404 . S
C900 C903 1.539 1_455 S
C901 C897 1.408 . S
C901 C900 1.404 . S
C901 H913 0.930 . S
C902 C898 1.524 . S
C902 H914 0.956 . S
C902 H915 0.961 1_545 S
C902 H916 0.961 . S
C903 C900 1.539 1_655 S
C903 H917 0.958 . S
C903 H918 0.961 . S
C903 H919 0.960 . S
H904 C888 0.931 . S
H905 C893 0.929 . S
H906 C894 0.960 1_545 S
H907 C894 0.962 . S
H908 C894 0.960 . S
H909 C895 0.961 . S
H910 C895 0.961 1_545 S
H911 C895 0.961 . S
H912 C896 0.931 . S
H913 C901 0.930 . S
H914 C902 0.956 . S
H915 C902 0.961 1_565 S
H916 C902 0.961 . S
H917 C903 0.958 . S
H918 C903 0.961 . S
H919 C903 0.960 . S
C920 C921 1.391 . S
C920 C922 1.394 . S
C920 H936 0.931 . S
C921 C920 1.391 . S
C921 C925 1.376 . S
C922 C920 1.394 . S
C922 C923 1.369 . S
C922 C926 1.531 1_565 S
C923 C922 1.369 . S
C923 C924 1.410 1_455 S
C923 C931 1.503 1_465 S
C924 C923 1.410 1_655 S
C924 C925 1.392 1_655 S
C924 C927 1.511 . S
C925 C921 1.376 . S
C925 C924 1.392 1_455 S
C925 H937 0.929 . S
C926 C922 1.531 1_545 S
C926 H938 0.960 . S
C926 H939 0.962 . S
C926 H940 0.960 . S
C927 C924 1.511 . S
C927 H941 0.961 . S
C927 H942 0.961 . S
C927 H943 0.961 . S
C928 C929 1.370 . S
C928 C930 1.348 1_655 S
C928 H944 0.931 . S
C929 C928 1.370 . S
C929 C933 1.408 . S
C930 C928 1.348 1_455 S
C930 C931 1.371 1_455 S
C930 C934 1.539 . S
C931 C923 1.503 1_645 S
C931 C930 1.371 1_655 S
C931 C932 1.403 1_545 S
C932 C931 1.403 1_565 S
C932 C933 1.404 1_565 S
C932 C935 1.539 . S
C933 C929 1.408 . S
C933 C932 1.404 1_545 S
C933 H945 0.930 . S
C934 C930 1.539 . S
C934 H946 0.956 . S
C934 H947 0.961 . S
C934 H948 0.961 . S
C935 C932 1.539 . S
C935 H949 0.958 . S
C935 H950 0.961 . S
C935 H951 0.960 . S
H936 C920 0.931 . S
H937 C925 0.929 . S
H938 C926 0.960 . S
H939 C926 0.962 . S
H940 C926 0.960 . S
H941 C927 0.961 . S
H942 C927 0.961 . S
H943 C927 0.961 . S
H944 C928 0.931 . S
H945 C933 0.930 . S
H946 C934 0.956 . S
H947 C934 0.961 . S
H948 C934 0.961 . S
H949 C935 0.958 . S
H950 C935 0.961 . S
H951 C935 0.960 . S
C952 C953 1.391 . S
C952 C954 1.394 . S
C952 H968 0.931 . S
C953 C952 1.391 . S
C953 C957 1.376 . S
C954 C952 1.394 . S
C954 C955 1.369 . S
C954 C958 1.531 . S
C955 C954 1.369 . S
C955 C956 1.408 1_545 S
C955 C963 1.503 1_445 S
C956 C955 1.408 1_565 S
C956 C957 1.392 1_565 S
C956 C959 1.513 . S
C957 C953 1.376 . S
C957 C956 1.392 1_545 S
C957 H969 0.929 . S
C958 C954 1.531 . S
C958 H970 0.960 1_455 S
C958 H971 0.962 . S
C958 H972 0.960 . S
C959 C956 1.513 . S
C959 H973 0.961 . S
C959 H974 0.961 1_455 S
C959 H975 0.961 . S
C960 C961 1.370 . S
C960 C962 1.363 1_565 S
C960 H976 0.946 . S
C961 C960 1.370 . S
C961 C965 1.408 . S
C962 C960 1.363 1_545 S
C962 C963 1.370 1_545 S
C962 C966 1.524 . S
C963 C955 1.503 1_665 S
C963 C962 1.370 1_565 S
C963 C964 1.403 . S
C964 C963 1.403 . S
C964 C965 1.404 . S
C964 C967 1.539 . S
C965 C961 1.408 . S
C965 C964 1.404 . S
C965 H977 0.930 . S
C966 C962 1.524 . S
C966 H978 0.962 . S
C966 H979 0.961 1_655 S
C966 H980 0.961 . S
C967 C964 1.539 . S
C967 H981 0.958 . S
C967 H982 0.961 . S
C967 H983 0.960 . S
H968 C952 0.931 . S
H969 C957 0.929 . S
H970 C958 0.960 1_655 S
H971 C958 0.962 . S
H972 C958 0.960 . S
H973 C959 0.961 . S
H974 C959 0.961 1_655 S
H975 C959 0.961 . S
H976 C960 0.946 . S
H977 C965 0.930 . S
H978 C966 0.962 . S
H979 C966 0.961 1_455 S
H980 C966 0.961 . S
H981 C967 0.958 . S
H982 C967 0.961 . S
H983 C967 0.960 . S
C984 C985 1.391 . S
C984 C986 1.393 1_556 S
C984 H1000 0.931 1_455 S
C985 C984 1.391 . S
C985 C989 1.376 . S
C986 C984 1.393 1_554 S
C986 C987 1.368 1_554 S
C986 C990 1.532 . S
C987 C986 1.368 1_556 S
C987 C988 1.410 . S
C987 C995 1.503 1_556 S
C988 C987 1.410 . S
C988 C989 1.392 . S
C988 C991 1.511 . S
C989 C985 1.376 . S
C989 C988 1.392 . S
C989 H1001 0.929 . S
C990 C986 1.532 . S
C990 H1002 0.960 . S
C990 H1003 0.962 . S
C990 H1004 0.960 . S
C991 C988 1.511 . S
C991 H1005 0.961 . S
C991 H1006 0.961 . S
C991 H1007 0.961 . S
C992 C993 1.370 . S
C992 C994 1.363 . S
C992 H1008 0.931 . S
C993 C992 1.370 . S
C993 C997 1.408 . S
C994 C992 1.363 . S
C994 C995 1.370 . S
C994 C998 1.524 . S
C995 C987 1.503 1_554 S
C995 C994 1.370 . S
C995 C996 1.403 . S
C996 C995 1.403 . S
C996 C997 1.404 . S
C996 C999 1.539 1_554 S
C997 C993 1.408 . S
C997 C996 1.404 . S
C997 H1009 0.930 . S
C998 C994 1.524 . S
C998 H1010 0.956 . S
C998 H1011 0.961 . S
C998 H1012 0.961 . S
C999 C996 1.539 1_556 S
C999 H1013 0.958 . S
C999 H1014 0.961 . S
C999 H1015 0.960 . S
H1000 C984 0.931 1_655 S
H1001 C989 0.929 . S
H1002 C990 0.960 . S
H1003 C990 0.962 . S
H1004 C990 0.960 . S
H1005 C991 0.961 . S
H1006 C991 0.961 . S
H1007 C991 0.961 . S
H1008 C992 0.931 . S
H1009 C997 0.930 . S
H1010 C998 0.956 . S
H1011 C998 0.961 . S
H1012 C998 0.961 . S
H1013 C999 0.958 . S
H1014 C999 0.961 . S
H1015 C999 0.960 . S
C1016 C1017 1.391 . S
C1016 C1018 1.394 . S
C1016 H1032 0.931 1_655 S
C1017 C1016 1.391 . S
C1017 C1021 1.376 . S
C1018 C1016 1.394 . S
C1018 C1019 1.369 . S
C1018 C1022 1.531 . S
C1019 C1018 1.369 . S
C1019 C1020 1.410 . S
C1019 C1027 1.503 . S
C1020 C1019 1.410 . S
C1020 C1021 1.392 . S
C1020 C1023 1.511 . S
C1021 C1017 1.376 . S
C1021 C1020 1.392 . S
C1021 H1033 0.929 . S
C1022 C1018 1.531 . S
C1022 H1034 0.960 . S
C1022 H1035 0.962 . S
C1022 H1036 0.960 . S
C1023 C1020 1.511 . S
C1023 H1037 0.961 . S
C1023 H1038 0.961 . S
C1023 H1039 0.961 . S
C1024 C1025 1.370 . S
C1024 C1026 1.363 . S
C1024 H1040 0.931 . S
C1025 C1024 1.370 . S
C1025 C1029 1.408 . S
C1026 C1024 1.363 . S
C1026 C1027 1.370 . S
C1026 C1030 1.524 . S
C1027 C1019 1.503 . S
C1027 C1026 1.370 . S
C1027 C1028 1.403 . S
C1028 C1027 1.403 . S
C1028 C1029 1.404 . S
C1028 C1031 1.539 . S
C1029 C1025 1.408 . S
C1029 C1028 1.404 . S
C1029 H1041 0.930 1_545 S
C1030 C1026 1.524 . S
C1030 H1042 0.956 . S
C1030 H1043 0.961 . S
C1030 H1044 0.961 . S
C1031 C1028 1.539 . S
C1031 H1045 0.958 . S
C1031 H1046 0.961 . S
C1031 H1047 0.960 . S
H1032 C1016 0.931 1_455 S
H1033 C1021 0.929 . S
H1034 C1022 0.960 . S
H1035 C1022 0.962 . S
H1036 C1022 0.960 . S
H1037 C1023 0.961 . S
H1038 C1023 0.961 . S
H1039 C1023 0.961 . S
H1040 C1024 0.931 . S
H1041 C1029 0.930 1_565 S
H1042 C1030 0.956 . S
H1043 C1030 0.961 . S
H1044 C1030 0.961 . S
H1045 C1031 0.958 . S
H1046 C1031 0.961 . S
H1047 C1031 0.960 . S
C1048 C1049 1.391 . S
C1048 C1050 1.394 . S
C1048 H1064 0.931 . S
C1049 C1048 1.391 . S
C1049 C1053 1.376 . S
C1050 C1048 1.394 . S
C1050 C1051 1.369 . S
C1050 C1054 1.531 . S
C1051 C1050 1.369 . S
C1051 C1052 1.410 . S
C1051 C1059 1.503 . S
C1052 C1051 1.410 . S
C1052 C1053 1.392 . S
C1052 C1055 1.511 . S
C1053 C1049 1.376 . S
C1053 C1052 1.392 . S
C1053 H1065 0.929 . S
C1054 C1050 1.531 . S
C1054 H1066 0.960 . S
C1054 H1067 0.962 . S
C1054 H1068 0.960 . S
C1055 C1052 1.511 . S
C1055 H1069 0.961 . S
C1055 H1070 0.961 . S
C1055 H1071 0.961 . S
C1056 C1057 1.370 . S
C1056 C1058 1.363 . S
C1056 H1072 0.931 . S
C1057 C1056 1.370 . S
C1057 C1061 1.408 . S
C1058 C1056 1.363 . S
C1058 C1059 1.370 . S
C1058 C1062 1.524 . S
C1059 C1051 1.503 . S
C1059 C1058 1.370 . S
C1059 C1060 1.403 . S
C1060 C1059 1.403 . S
C1060 C1061 1.404 . S
C1060 C1063 1.539 . S
C1061 C1057 1.408 . S
C1061 C1060 1.404 . S
C1061 H1073 0.930 . S
C1062 C1058 1.524 . S
C1062 H1074 0.956 . S
C1062 H1075 0.961 . S
C1062 H1076 0.961 . S
C1063 C1060 1.539 . S
C1063 H1077 0.958 . S
C1063 H1078 0.961 . S
C1063 H1079 0.960 . S
H1064 C1048 0.931 . S
H1065 C1053 0.929 . S
H1066 C1054 0.960 . S
H1067 C1054 0.962 . S
H1068 C1054 0.960 . S
H1069 C1055 0.961 . S
H1070 C1055 0.961 . S
H1071 C1055 0.961 . S
H1072 C1056 0.931 . S
H1073 C1061 0.930 . S
H1074 C1062 0.956 . S
H1075 C1062 0.961 . S
H1076 C1062 0.961 . S
H1077 C1063 0.958 . S
H1078 C1063 0.961 . S
H1079 C1063 0.960 . S
C1080 C1081 1.391 . S
C1080 C1082 1.394 . S
C1080 H1096 0.931 . S
C1081 C1080 1.391 . S
C1081 C1085 1.376 . S
C1082 C1080 1.394 . S
C1082 C1083 1.369 . S
C1082 C1086 1.531 . S
C1083 C1082 1.369 . S
C1083 C1084 1.410 1_554 S
C1083 C1091 1.503 1_554 S
C1084 C1083 1.410 1_556 S
C1084 C1085 1.392 1_556 S
C1084 C1087 1.511 . S
C1085 C1081 1.376 . S
C1085 C1084 1.392 1_554 S
C1085 H1097 0.929 . S
C1086 C1082 1.531 . S
C1086 H1098 0.960 . S
C1086 H1099 0.962 . S
C1086 H1100 0.960 . S
C1087 C1084 1.511 . S
C1087 H1101 0.961 . S
C1087 H1102 0.961 . S
C1087 H1103 0.961 . S
C1088 C1089 1.370 . S
C1088 C1090 1.363 . S
C1088 H1104 0.931 1_655 S
C1089 C1088 1.370 . S
C1089 C1093 1.408 . S
C1090 C1088 1.363 . S
C1090 C1091 1.370 . S
C1090 C1094 1.524 1_556 S
C1091 C1083 1.503 1_556 S
C1091 C1090 1.370 . S
C1091 C1092 1.403 . S
C1092 C1091 1.403 . S
C1092 C1093 1.404 . S
C1092 C1095 1.539 . S
C1093 C1089 1.408 . S
C1093 C1092 1.404 . S
C1093 H1105 0.930 . S
C1094 C1090 1.524 1_554 S
C1094 H1106 0.956 . S
C1094 H1107 0.961 . S
C1094 H1108 0.961 . S
C1095 C1092 1.539 . S
C1095 H1109 0.958 . S
C1095 H1110 0.961 . S
C1095 H1111 0.960 . S
H1096 C1080 0.931 . S
H1097 C1085 0.929 . S
H1098 C1086 0.960 . S
H1099 C1086 0.962 . S
H1100 C1086 0.960 . S
H1101 C1087 0.961 . S
H1102 C1087 0.961 . S
H1103 C1087 0.961 . S
H1104 C1088 0.931 1_455 S
H1105 C1093 0.930 . S
H1106 C1094 0.956 . S
H1107 C1094 0.961 . S
H1108 C1094 0.961 . S
H1109 C1095 0.958 . S
H1110 C1095 0.961 . S
H1111 C1095 0.960 . S
C1112 C1113 1.391 . S
C1112 C1114 1.394 . S
C1112 H1128 0.931 1_565 S
C1113 C1112 1.391 . S
C1113 C1117 1.376 . S
C1114 C1112 1.394 . S
C1114 C1115 1.369 . S
C1114 C1118 1.531 . S
C1115 C1114 1.369 . S
C1115 C1116 1.410 . S
C1115 C1123 1.503 . S
C1116 C1115 1.410 . S
C1116 C1117 1.392 . S
C1116 C1119 1.511 . S
C1117 C1113 1.376 . S
C1117 C1116 1.392 . S
C1117 H1129 0.929 . S
C1118 C1114 1.531 . S
C1118 H1130 0.960 . S
C1118 H1131 0.962 . S
C1118 H1132 0.960 . S
C1119 C1116 1.511 . S
C1119 H1133 0.961 . S
C1119 H1134 0.961 . S
C1119 H1135 0.961 . S
C1120 C1121 1.370 . S
C1120 C1122 1.363 . S
C1120 H1136 0.931 . S
C1121 C1120 1.370 . S
C1121 C1125 1.408 . S
C1122 C1120 1.363 . S
C1122 C1123 1.370 . S
C1122 C1126 1.524 . S
C1123 C1115 1.503 . S
C1123 C1122 1.370 . S
C1123 C1124 1.403 . S
C1124 C1123 1.403 . S
C1124 C1125 1.404 . S
C1124 C1127 1.539 . S
C1125 C1121 1.408 . S
C1125 C1124 1.404 . S
C1125 H1137 0.930 1_455 S
C1126 C1122 1.524 . S
C1126 H1138 0.956 . S
C1126 H1139 0.961 . S
C1126 H1140 0.961 . S
C1127 C1124 1.539 . S
C1127 H1141 0.958 . S
C1127 H1142 0.961 . S
C1127 H1143 0.960 . S
H1128 C1112 0.931 1_545 S
H1129 C1117 0.929 . S
H1130 C1118 0.960 . S
H1131 C1118 0.962 . S
H1132 C1118 0.960 . S
H1133 C1119 0.961 . S
H1134 C1119 0.961 . S
H1135 C1119 0.961 . S
H1136 C1120 0.931 . S
H1137 C1125 0.930 1_655 S
H1138 C1126 0.956 . S
H1139 C1126 0.961 . S
H1140 C1126 0.961 . S
H1141 C1127 0.958 . S
H1142 C1127 0.961 . S
H1143 C1127 0.960 . S
C1144 C1145 1.391 . S
C1144 C1146 1.394 . S
C1144 H1160 0.931 . S
C1145 C1144 1.391 . S
C1145 C1149 1.376 . S
C1146 C1144 1.394 . S
C1146 C1147 1.369 . S
C1146 C1150 1.531 . S
C1147 C1146 1.369 . S
C1147 C1148 1.410 . S
C1147 C1155 1.503 . S
C1148 C1147 1.410 . S
C1148 C1149 1.392 . S
C1148 C1151 1.511 . S
C1149 C1145 1.376 . S
C1149 C1148 1.392 . S
C1149 H1161 0.929 1_545 S
C1150 C1146 1.531 . S
C1150 H1162 0.960 . S
C1150 H1163 0.962 . S
C1150 H1164 0.960 . S
C1151 C1148 1.511 . S
C1151 H1165 0.961 . S
C1151 H1166 0.961 . S
C1151 H1167 0.961 . S
C1152 C1153 1.370 . S
C1152 C1154 1.363 . S
C1152 H1168 0.931 . S
C1153 C1152 1.370 . S
C1153 C1157 1.408 . S
C1154 C1152 1.363 . S
C1154 C1155 1.370 . S
C1154 C1158 1.524 . S
C1155 C1147 1.503 . S
C1155 C1154 1.370 . S
C1155 C1156 1.403 . S
C1156 C1155 1.403 . S
C1156 C1157 1.404 . S
C1156 C1159 1.539 . S
C1157 C1153 1.408 . S
C1157 C1156 1.404 . S
C1157 H1169 0.930 . S
C1158 C1154 1.524 . S
C1158 H1170 0.956 . S
C1158 H1171 0.961 . S
C1158 H1172 0.961 . S
C1159 C1156 1.539 . S
C1159 H1173 0.958 . S
C1159 H1174 0.961 . S
C1159 H1175 0.960 . S
H1160 C1144 0.931 . S
H1161 C1149 0.929 1_565 S
H1162 C1150 0.960 . S
H1163 C1150 0.962 . S
H1164 C1150 0.960 . S
H1165 C1151 0.961 . S
H1166 C1151 0.961 . S
H1167 C1151 0.961 . S
H1168 C1152 0.931 . S
H1169 C1157 0.930 . S
H1170 C1158 0.956 . S
H1171 C1158 0.961 . S
H1172 C1158 0.961 . S
H1173 C1159 0.958 . S
H1174 C1159 0.961 . S
H1175 C1159 0.960 . S
C1176 C1177 1.391 . S
C1176 C1178 1.394 . S
C1176 H1192 0.931 . S
C1177 C1176 1.391 . S
C1177 C1181 1.376 . S
C1178 C1176 1.394 . S
C1178 C1179 1.369 . S
C1178 C1182 1.531 . S
C1179 C1178 1.369 . S
C1179 C1180 1.410 . S
C1179 C1187 1.503 . S
C1180 C1179 1.410 . S
C1180 C1181 1.392 . S
C1180 C1183 1.511 . S
C1181 C1177 1.376 . S
C1181 C1180 1.392 . S
C1181 H1193 0.929 . S
C1182 C1178 1.531 . S
C1182 H1194 0.960 . S
C1182 H1195 0.962 . S
C1182 H1196 0.960 . S
C1183 C1180 1.511 . S
C1183 H1197 0.961 . S
C1183 H1198 0.961 . S
C1183 H1199 0.961 . S
C1184 C1185 1.370 . S
C1184 C1186 1.363 . S
C1184 H1200 0.931 . S
C1185 C1184 1.370 . S
C1185 C1189 1.408 . S
C1186 C1184 1.363 . S
C1186 C1187 1.370 . S
C1186 C1190 1.524 . S
C1187 C1179 1.503 . S
C1187 C1186 1.370 . S
C1187 C1188 1.403 . S
C1188 C1187 1.403 . S
C1188 C1189 1.404 . S
C1188 C1191 1.539 . S
C1189 C1185 1.408 . S
C1189 C1188 1.404 . S
C1189 H1201 0.930 . S
C1190 C1186 1.524 . S
C1190 H1202 0.956 . S
C1190 H1203 0.961 . S
C1190 H1204 0.961 . S
C1191 C1188 1.539 . S
C1191 H1205 0.958 . S
C1191 H1206 0.961 . S
C1191 H1207 0.960 . S
H1192 C1176 0.931 . S
H1193 C1181 0.929 . S
H1194 C1182 0.960 . S
H1195 C1182 0.962 . S
H1196 C1182 0.960 . S
H1197 C1183 0.961 . S
H1198 C1183 0.961 . S
H1199 C1183 0.961 . S
H1200 C1184 0.931 . S
H1201 C1189 0.930 . S
H1202 C1190 0.956 . S
H1203 C1190 0.961 . S
H1204 C1190 0.961 . S
H1205 C1191 0.958 . S
H1206 C1191 0.961 . S
H1207 C1191 0.960 . S
C1208 C1209 1.391 . S
C1208 C1210 1.394 . S
C1208 H1224 0.931 . S
C1209 C1208 1.391 . S
C1209 C1213 1.376 . S
C1210 C1208 1.394 . S
C1210 C1211 1.369 . S
C1210 C1214 1.531 . S
C1211 C1210 1.369 . S
C1211 C1212 1.410 . S
C1211 C1219 1.503 . S
C1212 C1211 1.410 . S
C1212 C1213 1.392 . S
C1212 C1215 1.511 . S
C1213 C1209 1.376 . S
C1213 C1212 1.392 . S
C1213 H1225 0.929 . S
C1214 C1210 1.531 . S
C1214 H1226 0.960 . S
C1214 H1227 0.962 . S
C1214 H1228 0.960 . S
C1215 C1212 1.511 . S
C1215 H1229 0.961 . S
C1215 H1230 0.961 . S
C1215 H1231 0.961 . S
C1216 C1217 1.370 . S
C1216 C1218 1.363 . S
C1216 H1232 0.931 . S
C1217 C1216 1.370 . S
C1217 C1221 1.408 . S
C1218 C1216 1.363 . S
C1218 C1219 1.370 . S
C1218 C1222 1.524 . S
C1219 C1211 1.503 . S
C1219 C1218 1.370 . S
C1219 C1220 1.403 . S
C1220 C1219 1.403 . S
C1220 C1221 1.404 . S
C1220 C1223 1.539 . S
C1221 C1217 1.408 . S
C1221 C1220 1.404 . S
C1221 H1233 0.930 . S
C1222 C1218 1.524 . S
C1222 H1234 0.956 . S
C1222 H1235 0.961 . S
C1222 H1236 0.961 . S
C1223 C1220 1.539 . S
C1223 H1237 0.958 . S
C1223 H1238 0.961 . S
C1223 H1239 0.960 . S
H1224 C1208 0.931 . S
H1225 C1213 0.929 . S
H1226 C1214 0.960 . S
H1227 C1214 0.962 . S
H1228 C1214 0.960 . S
H1229 C1215 0.961 . S
H1230 C1215 0.961 . S
H1231 C1215 0.961 . S
H1232 C1216 0.931 . S
H1233 C1221 0.930 . S
H1234 C1222 0.956 . S
H1235 C1222 0.961 . S
H1236 C1222 0.961 . S
H1237 C1223 0.958 . S
H1238 C1223 0.961 . S
H1239 C1223 0.960 . S
C1240 C1241 1.391 . S
C1240 C1242 1.394 . S
C1240 H1256 0.931 . S
C1241 C1240 1.391 . S
C1241 C1245 1.376 . S
C1242 C1240 1.394 . S
C1242 C1243 1.369 . S
C1242 C1246 1.531 . S
C1243 C1242 1.369 . S
C1243 C1244 1.410 . S
C1243 C1251 1.503 . S
C1244 C1243 1.410 . S
C1244 C1245 1.392 . S
C1244 C1247 1.511 . S
C1245 C1241 1.376 . S
C1245 C1244 1.392 . S
C1245 H1257 0.929 . S
C1246 C1242 1.531 . S
C1246 H1258 0.960 . S
C1246 H1259 0.962 . S
C1246 H1260 0.960 . S
C1247 C1244 1.511 . S
C1247 H1261 0.961 . S
C1247 H1262 0.961 . S
C1247 H1263 0.961 . S
C1248 C1249 1.370 . S
C1248 C1250 1.363 . S
C1248 H1264 0.931 . S
C1249 C1248 1.370 . S
C1249 C1253 1.408 . S
C1250 C1248 1.363 . S
C1250 C1251 1.370 . S
C1250 C1254 1.524 . S
C1251 C1243 1.503 . S
C1251 C1250 1.370 . S
C1251 C1252 1.403 . S
C1252 C1251 1.403 . S
C1252 C1253 1.404 . S
C1252 C1255 1.539 . S
C1253 C1249 1.408 . S
C1253 C1252 1.404 . S
C1253 H1265 0.930 . S
C1254 C1250 1.524 . S
C1254 H1266 0.956 . S
C1254 H1267 0.961 . S
C1254 H1268 0.961 . S
C1255 C1252 1.539 . S
C1255 H1269 0.958 . S
C1255 H1270 0.961 . S
C1255 H1271 0.960 . S
H1256 C1240 0.931 . S
H1257 C1245 0.929 . S
H1258 C1246 0.960 . S
H1259 C1246 0.962 . S
H1260 C1246 0.960 . S
H1261 C1247 0.961 . S
H1262 C1247 0.961 . S
H1263 C1247 0.961 . S
H1264 C1248 0.931 . S
H1265 C1253 0.930 . S
H1266 C1254 0.956 . S
H1267 C1254 0.961 . S
H1268 C1254 0.961 . S
H1269 C1255 0.958 . S
H1270 C1255 0.961 . S
H1271 C1255 0.960 . S
C1272 C1273 1.391 . S
C1272 C1274 1.394 . S
C1272 H1288 0.931 . S
C1273 C1272 1.391 . S
C1273 C1277 1.376 . S
C1274 C1272 1.394 . S
C1274 C1275 1.369 . S
C1274 C1278 1.531 . S
C1275 C1274 1.369 . S
C1275 C1276 1.410 . S
C1275 C1283 1.503 . S
C1276 C1275 1.410 . S
C1276 C1277 1.392 . S
C1276 C1279 1.511 . S
C1277 C1273 1.376 . S
C1277 C1276 1.392 . S
C1277 H1289 0.929 . S
C1278 C1274 1.531 . S
C1278 H1290 0.960 . S
C1278 H1291 0.962 . S
C1278 H1292 0.960 . S
C1279 C1276 1.511 . S
C1279 H1293 0.961 . S
C1279 H1294 0.961 . S
C1279 H1295 0.961 . S
C1280 C1281 1.370 . S
C1280 C1282 1.363 . S
C1280 H1296 0.931 . S
C1281 C1280 1.370 . S
C1281 C1285 1.408 . S
C1282 C1280 1.363 . S
C1282 C1283 1.370 . S
C1282 C1286 1.524 . S
C1283 C1275 1.503 . S
C1283 C1282 1.370 . S
C1283 C1284 1.403 . S
C1284 C1283 1.403 . S
C1284 C1285 1.404 . S
C1284 C1287 1.539 . S
C1285 C1281 1.408 . S
C1285 C1284 1.404 . S
C1285 H1297 0.930 . S
C1286 C1282 1.524 . S
C1286 H1298 0.956 . S
C1286 H1299 0.961 . S
C1286 H1300 0.961 . S
C1287 C1284 1.539 . S
C1287 H1301 0.958 . S
C1287 H1302 0.961 . S
C1287 H1303 0.960 . S
H1288 C1272 0.931 . S
H1289 C1277 0.929 . S
H1290 C1278 0.960 . S
H1291 C1278 0.962 . S
H1292 C1278 0.960 . S
H1293 C1279 0.961 . S
H1294 C1279 0.961 . S
H1295 C1279 0.961 . S
H1296 C1280 0.931 . S
H1297 C1285 0.930 . S
H1298 C1286 0.956 . S
H1299 C1286 0.961 . S
H1300 C1286 0.961 . S
H1301 C1287 0.958 . S
H1302 C1287 0.961 . S
H1303 C1287 0.960 . S
C1304 C1305 1.391 . S
C1304 C1306 1.394 . S
C1304 H1320 0.931 . S
C1305 C1304 1.391 . S
C1305 C1309 1.376 . S
C1306 C1304 1.394 . S
C1306 C1307 1.369 . S
C1306 C1310 1.531 . S
C1307 C1306 1.369 . S
C1307 C1308 1.410 . S
C1307 C1315 1.503 . S
C1308 C1307 1.410 . S
C1308 C1309 1.392 . S
C1308 C1311 1.511 . S
C1309 C1305 1.376 . S
C1309 C1308 1.392 . S
C1309 H1321 0.929 . S
C1310 C1306 1.531 . S
C1310 H1322 0.960 . S
C1310 H1323 0.962 . S
C1310 H1324 0.960 . S
C1311 C1308 1.511 . S
C1311 H1325 0.961 . S
C1311 H1326 0.961 . S
C1311 H1327 0.961 . S
C1312 C1313 1.370 . S
C1312 C1314 1.363 . S
C1312 H1328 0.931 . S
C1313 C1312 1.370 . S
C1313 C1317 1.408 . S
C1314 C1312 1.363 . S
C1314 C1315 1.370 . S
C1314 C1318 1.524 . S
C1315 C1307 1.503 . S
C1315 C1314 1.370 . S
C1315 C1316 1.403 . S
C1316 C1315 1.403 . S
C1316 C1317 1.404 . S
C1316 C1319 1.539 . S
C1317 C1313 1.408 . S
C1317 C1316 1.404 . S
C1317 H1329 0.930 . S
C1318 C1314 1.524 . S
C1318 H1330 0.956 . S
C1318 H1331 0.961 . S
C1318 H1332 0.961 . S
C1319 C1316 1.539 . S
C1319 H1333 0.958 . S
C1319 H1334 0.961 . S
C1319 H1335 0.960 . S
H1320 C1304 0.931 . S
H1321 C1309 0.929 . S
H1322 C1310 0.960 . S
H1323 C1310 0.962 . S
H1324 C1310 0.960 . S
H1325 C1311 0.961 . S
H1326 C1311 0.961 . S
H1327 C1311 0.961 . S
H1328 C1312 0.931 . S
H1329 C1317 0.930 . S
H1330 C1318 0.956 . S
H1331 C1318 0.961 . S
H1332 C1318 0.961 . S
H1333 C1319 0.958 . S
H1334 C1319 0.961 . S
H1335 C1319 0.960 . S
C1336 C1337 1.391 . S
C1336 C1338 1.394 . S
C1336 H1352 0.931 . S
C1337 C1336 1.391 . S
C1337 C1341 1.376 . S
C1338 C1336 1.394 . S
C1338 C1339 1.369 . S
C1338 C1342 1.531 . S
C1339 C1338 1.369 . S
C1339 C1340 1.410 . S
C1339 C1347 1.503 . S
C1340 C1339 1.410 . S
C1340 C1341 1.392 . S
C1340 C1343 1.511 . S
C1341 C1337 1.376 . S
C1341 C1340 1.392 . S
C1341 H1353 0.929 . S
C1342 C1338 1.531 . S
C1342 H1354 0.960 . S
C1342 H1355 0.962 . S
C1342 H1356 0.960 . S
C1343 C1340 1.511 . S
C1343 H1357 0.961 . S
C1343 H1358 0.961 . S
C1343 H1359 0.961 . S
C1344 C1345 1.370 . S
C1344 C1346 1.363 . S
C1344 H1360 0.931 . S
C1345 C1344 1.370 . S
C1345 C1349 1.408 . S
C1346 C1344 1.363 . S
C1346 C1347 1.370 . S
C1346 C1350 1.524 . S
C1347 C1339 1.503 . S
C1347 C1346 1.370 . S
C1347 C1348 1.403 . S
C1348 C1347 1.403 . S
C1348 C1349 1.404 . S
C1348 C1351 1.539 . S
C1349 C1345 1.408 . S
C1349 C1348 1.404 . S
C1349 H1361 0.930 . S
C1350 C1346 1.524 . S
C1350 H1362 0.956 . S
C1350 H1363 0.961 . S
C1350 H1364 0.961 . S
C1351 C1348 1.539 . S
C1351 H1365 0.958 . S
C1351 H1366 0.961 . S
C1351 H1367 0.960 . S
H1352 C1336 0.931 . S
H1353 C1341 0.929 . S
H1354 C1342 0.960 . S
H1355 C1342 0.962 . S
H1356 C1342 0.960 . S
H1357 C1343 0.961 . S
H1358 C1343 0.961 . S
H1359 C1343 0.961 . S
H1360 C1344 0.931 . S
H1361 C1349 0.930 . S
H1362 C1350 0.956 . S
H1363 C1350 0.961 . S
H1364 C1350 0.961 . S
H1365 C1351 0.958 . S
H1366 C1351 0.961 . S
H1367 C1351 0.960 . S
C409 C111 1.723 . S
C417 C9 1.730 . S
C441 C43 1.732 . S
C449 C145 1.734 . S
C473 C77 1.731 . S
C481 C179 1.734 . S
C505 C213 1.725 . S
C513 C315 1.729 . S
C537 C349 1.726 . S
C545 C247 1.730 . S
C569 C383 1.728 . S
C577 C281 1.734 . S
C601 C271 1.093 . S
C609 C33 1.121 . S
C633 C67 1.167 . S
C641 C305 1.144 . S
C665 C339 1.087 . S
C673 C101 1.115 . S
C697 C135 1.155 . S
C705 C373 1.135 . S
C729 C407 1.167 . S
C737 C169 1.144 . S
C761 C203 1.127 . S
C769 C237 1.123 . S
C793 C5 0.495 . S
C801 C107 0.380 . S
C825 C39 0.521 . S
C833 C141 0.374 . S
C857 C73 0.466 . S
C865 C175 0.389 . S
C889 C209 0.401 . S
C897 C311 0.459 . S
C921 C243 0.354 . S
C929 C345 0.469 . S
C953 C277 0.334 . S
C961 C379 0.471 . S
C985 C342 1.525 1_455 S
C993 C2 1.550 . S
C1017 C36 1.535 1_655 S
C1025 C376 1.559 1_545 S
C1049 C206 1.564 . S
C1057 C70 1.566 1_565 S
C1081 C104 1.577 . S
C1089 C240 1.559 1_655 S
C1113 C274 1.539 1_565 S
C1121 C138 1.561 1_455 S
C1145 C172 1.568 1_545 S
C1153 C308 1.552 . S
C1177 C20 1.750 . S
C1185 C292 1.752 . S
C1209 C54 1.734 . S
C1217 C326 1.747 . S
C1241 C360 1.751 . S
C1249 C88 1.752 . S
C1273 C394 1.734 . S
C1281 C122 1.747 . S
C1305 C156 1.735 . S
C1313 C224 1.749 . S
C1337 C190 1.735 . S
C1345 C258 1.747 . S
