# Generated by pormake.
# Topology uoc, (4)-cn, num edge types: 1
# Building blocks:
#     Node 0, Type 0, BuildingBlock: QUQFOY_clean_sbu_3, # of connection points: 4
#     Node 1, Type 0, BuildingBlock: QUQFOY_clean_sbu_3, # of connection points: 4
#     Node 2, Type 0, BuildingBlock: QUQFOY_clean_sbu_3, # of connection points: 4
#     Node 3, Type 0, BuildingBlock: QUQFOY_clean_sbu_3, # of connection points: 4
#     Node 4, Type 0, BuildingBlock: QUQFOY_clean_sbu_3, # of connection points: 4
#     Node 5, Type 0, BuildingBlock: QUQFOY_clean_sbu_3, # of connection points: 4
#     Node 6, Type 0, BuildingBlock: QUQFOY_clean_sbu_3, # of connection points: 4
#     Node 7, Type 0, BuildingBlock: QUQFOY_clean_sbu_3, # of connection points: 4
#     Edge 8, Type (0, 0), BuildingBlock: CIFDUS_clean_linker_0, # of connection points: 2
#     Edge 9, Type (0, 0), BuildingBlock: CIFDUS_clean_linker_0, # of connection points: 2
#     Edge 10, Type (0, 0), BuildingBlock: CIFDUS_clean_linker_0, # of connection points: 2
#     Edge 11, Type (0, 0), BuildingBlock: CIFDUS_clean_linker_0, # of connection points: 2
#     Edge 12, Type (0, 0), BuildingBlock: CIFDUS_clean_linker_0, # of connection points: 2
#     Edge 13, Type (0, 0), BuildingBlock: CIFDUS_clean_linker_0, # of connection points: 2
#     Edge 14, Type (0, 0), BuildingBlock: CIFDUS_clean_linker_0, # of connection points: 2
#     Edge 15, Type (0, 0), BuildingBlock: CIFDUS_clean_linker_0, # of connection points: 2
#     Edge 16, Type (0, 0), BuildingBlock: CIFDUS_clean_linker_0, # of connection points: 2
#     Edge 17, Type (0, 0), BuildingBlock: CIFDUS_clean_linker_0, # of connection points: 2
#     Edge 18, Type (0, 0), BuildingBlock: CIFDUS_clean_linker_0, # of connection points: 2
#     Edge 19, Type (0, 0), BuildingBlock: CIFDUS_clean_linker_0, # of connection points: 2
#     Edge 20, Type (0, 0), BuildingBlock: CIFDUS_clean_linker_0, # of connection points: 2
#     Edge 21, Type (0, 0), BuildingBlock: CIFDUS_clean_linker_0, # of connection points: 2
#     Edge 22, Type (0, 0), BuildingBlock: CIFDUS_clean_linker_0, # of connection points: 2
#     Edge 23, Type (0, 0), BuildingBlock: CIFDUS_clean_linker_0, # of connection points: 2
# Relax obj value: 0.101
# Max RMSD: 0.112
# Mean RMSD: 0.112
data_MOF--net-uoc--node1-QUQFOY_clean_sbu_3--edge1-CIFDUS_clean_linker_0
_symmetry_space_group_name_H-M    P1
_symmetry_Int_Tables_number       1
_symmetry_cell_setting            triclinic
loop_
_symmetry_equiv_pos_as_xyz
'x, y, z'
_cell_length_a     24.260544
_cell_length_b     24.485062
_cell_length_c     50.900975
_cell_angle_alpha  89.935643
_cell_angle_beta   89.948092
_cell_angle_gamma 95.824243
loop_
_atom_site_label
_atom_site_type_symbol
_atom_site_fract_x
_atom_site_fract_y
_atom_site_fract_z
_atom_type_partial_charge
C0 C 0.22247 0.2887 0.04066 0.0
O1 O 0.24845 0.25823 0.05537 0.0
Cd2 Cd 0.21909 0.23378 0.09901 0.0
O3 O 0.18066 0.31042 0.04942 0.0
Cd4 Cd 0.12989 0.3123 0.09131 0.0
C5 C 0.08626 0.179 0.08673 0.0
O6 O 0.20405 0.31423 0.12398 0.0
O7 O 0.12126 0.28657 0.13724 0.0
O8 O 0.11765 0.41014 0.08928 0.0
C9 C 0.17137 0.3013 0.14295 0.0
O10 O 0.13466 0.17024 0.09427 0.0
C11 C 0.06505 0.40255 0.08935 0.0
O12 O 0.0744 0.22748 0.08234 0.0
O13 O 0.04332 0.35323 0.08996 0.0
C14 C 0.74175 0.70048 0.39257 0.0
O15 O 0.71177 0.73029 0.37952 0.0
Cd16 Cd 0.67388 0.70142 0.33784 0.0
O17 O 0.75354 0.65476 0.38339 0.0
Cd18 Cd 0.73968 0.59779 0.34378 0.0
C19 C 0.60173 0.57744 0.35369 0.0
O20 O 0.74829 0.67203 0.31203 0.0
O21 O 0.71606 0.59234 0.29728 0.0
O22 O 0.83694 0.58323 0.347 0.0
C23 C 0.73349 0.64193 0.29253 0.0
O24 O 0.60064 0.62722 0.34658 0.0
C25 C 0.8295 0.53121 0.34683 0.0
O26 O 0.64755 0.55665 0.35582 0.0
O27 O 0.77972 0.50961 0.34526 0.0
C28 C 0.27511 0.23276 0.54991 0.0
O29 O 0.24931 0.26773 0.56193 0.0
Cd30 Cd 0.2838 0.30603 0.60283 0.0
O31 O 0.31918 0.2173 0.55964 0.0
Cd32 Cd 0.37511 0.23513 0.59942 0.0
C33 C 0.41104 0.36714 0.58629 0.0
O34 O 0.30247 0.23325 0.6328 0.0
O35 O 0.38409 0.26878 0.64435 0.0
O36 O 0.39063 0.13867 0.60055 0.0
C37 C 0.33562 0.24967 0.65104 0.0
O38 O 0.36283 0.37495 0.59443 0.0
C39 C 0.4431 0.14716 0.60031 0.0
O40 O 0.42481 0.31877 0.58395 0.0
O41 O 0.46395 0.1968 0.59976 0.0
C42 C 0.75011 0.72002 0.9029 0.0
O43 O 0.78194 0.69302 0.88943 0.0
Cd44 Cd 0.80857 0.72509 0.84617 0.0
O45 O 0.73015 0.76133 0.89294 0.0
Cd46 Cd 0.72916 0.81144 0.8515 0.0
C47 C 0.8627 0.85729 0.85856 0.0
O48 O 0.72948 0.73816 0.81878 0.0
O49 O 0.75635 0.82106 0.80606 0.0
O50 O 0.62891 0.81172 0.85428 0.0
C51 C 0.74157 0.77153 0.80004 0.0
O52 O 0.87205 0.80902 0.85176 0.0
C53 C 0.62924 0.86356 0.85359 0.0
O54 O 0.81332 0.8692 0.86172 0.0
O55 O 0.67628 0.89132 0.85204 0.0
C56 C 0.74001 0.76448 0.54302 0.0
O57 O 0.76765 0.73194 0.55569 0.0
Cd58 Cd 0.7416 0.70151 0.59898 0.0
O59 O 0.69898 0.78411 0.55374 0.0
Cd60 Cd 0.65215 0.77883 0.59659 0.0
C61 C 0.60871 0.64654 0.58765 0.0
O62 O 0.73001 0.77885 0.62705 0.0
O63 O 0.64925 0.74806 0.64189 0.0
O64 O 0.63987 0.87664 0.59644 0.0
C65 C 0.69959 0.76401 0.64657 0.0
O66 O 0.65773 0.6371 0.59382 0.0
C67 C 0.58744 0.86919 0.59841 0.0
O68 O 0.59627 0.69545 0.58549 0.0
O69 O 0.5657 0.81991 0.5995 0.0
C70 C 0.25697 0.2032 0.89348 0.0
O71 O 0.22312 0.22533 0.8789 0.0
Cd72 Cd 0.19436 0.18693 0.83737 0.0
O73 O 0.2783 0.16057 0.88581 0.0
Cd74 Cd 0.27779 0.1013 0.84666 0.0
C75 C 0.14361 0.05585 0.85484 0.0
O76 O 0.27561 0.17108 0.81261 0.0
O77 O 0.25474 0.08698 0.80044 0.0
O78 O 0.37802 0.10142 0.8501 0.0
C79 C 0.26582 0.13694 0.79409 0.0
O80 O 0.13355 0.10282 0.8464 0.0
C81 C 0.37769 0.0496 0.85099 0.0
O82 O 0.19322 0.04496 0.85838 0.0
O83 O 0.33066 0.0217 0.85008 0.0
C84 C 0.74799 0.77254 0.05409 0.0
O85 O 0.7234 0.80699 0.0671 0.0
Cd86 Cd 0.76052 0.83983 0.10852 0.0
O87 O 0.79199 0.75527 0.06299 0.0
Cd88 Cd 0.85122 0.76687 0.10186 0.0
C89 C 0.88782 0.90011 0.09144 0.0
O90 O 0.7793 0.76203 0.13546 0.0
O91 O 0.86201 0.79232 0.14789 0.0
O92 O 0.86655 0.67037 0.09851 0.0
C93 C 0.81295 0.77419 0.15408 0.0
O94 O 0.84015 0.9082 0.10021 0.0
C95 C 0.91904 0.67896 0.09832 0.0
O96 O 0.90071 0.85168 0.08818 0.0
O97 O 0.93982 0.72849 0.09995 0.0
C98 C 0.20856 0.23296 0.39996 0.0
O99 O 0.23463 0.20083 0.38625 0.0
Cd100 Cd 0.26578 0.22897 0.34295 0.0
O101 O 0.19635 0.27802 0.3903 0.0
Cd102 Cd 0.20482 0.329 0.34899 0.0
C103 C 0.3422 0.35088 0.35653 0.0
O104 O 0.19354 0.25786 0.31493 0.0
O105 O 0.23448 0.33745 0.304 0.0
O106 O 0.10728 0.3431 0.3511 0.0
C107 C 0.21172 0.29094 0.29691 0.0
O108 O 0.3422 0.30116 0.34919 0.0
C109 C 0.11461 0.39513 0.35096 0.0
O110 O 0.29675 0.37175 0.35991 0.0
O111 O 0.16443 0.41687 0.35017 0.0
H112 H 0.29727 0.23436 0.01419 0.0
H113 H 0.17558 0.34942 0.00319 0.0
H114 H 0.18143 0.3384 0.95568 0.0
H115 H 0.21034 0.28571 0.9181 0.0
H116 H 0.3282 0.16693 0.92955 0.0
H117 H 0.33485 0.19028 -0.02396 0.0
C118 C 0.27282 0.25794 0.00142 0.0
C119 C 0.23527 0.29184 0.01227 0.0
C120 C 0.27507 0.25015 -0.0258 0.0
C121 C 0.20435 0.32249 -0.00461 0.0
C122 C 0.20746 0.31603 0.9682 0.0
C123 C 0.23817 0.26552 0.93065 0.0
C124 C 0.26785 0.22386 0.92045 0.0
C125 C 0.24093 0.27825 0.95749 0.0
C126 C 0.30422 0.1986 0.93695 0.0
C127 C 0.30806 0.21188 0.96357 0.0
H128 H 0.79543 0.73291 0.27557 0.0
H129 H 0.67935 0.59904 0.2492 0.0
H130 H 0.68908 0.63249 0.20399 0.0
H131 H 0.73559 0.69593 0.17175 0.0
H132 H 0.85809 0.82447 0.19772 0.0
H133 H 0.84039 0.79748 0.24348 0.0
C134 C 0.77186 0.71142 0.25994 0.0
C135 C 0.73684 0.66364 0.26558 0.0
C136 C 0.77887 0.72994 0.23401 0.0
C137 C 0.70684 0.6358 0.24521 0.0
C138 C 0.71231 0.65492 0.21942 0.0
C139 C 0.75768 0.71852 0.18749 0.0
C140 C 0.79787 0.76212 0.18156 0.0
C141 C 0.74886 0.70143 0.21356 0.0
C142 C 0.82698 0.79067 0.20197 0.0
C143 C 0.81699 0.7752 0.22806 0.0
H144 H 0.191 0.26627 0.52068 0.0
H145 H 0.31992 0.15694 0.51935 0.0
H146 H 0.3027 0.13881 0.47286 0.0
H147 H 0.26206 0.16598 0.4314 0.0
H148 H 0.13737 0.27978 0.43234 0.0
H149 H 0.14099 0.28306 0.4802 0.0
C150 C 0.21465 0.23768 0.51036 0.0
C151 C 0.2575 0.21402 0.52333 0.0
C152 C 0.20551 0.22844 0.48347 0.0
C153 C 0.28727 0.1765 0.50974 0.0
C154 C 0.27751 0.16609 0.48312 0.0
C155 C 0.23455 0.19026 0.44211 0.0
C156 C 0.20023 0.2233 0.42837 0.0
C157 C 0.23833 0.19359 0.46956 0.0
C158 C 0.16475 0.25453 0.44251 0.0
C159 C 0.16697 0.25666 0.46986 0.0
H160 H 0.79639 0.81909 0.75856 0.0
H161 H 0.67208 0.68786 0.77977 0.0
H162 H 0.65051 0.67115 0.73333 0.0
H163 H 0.66049 0.70074 0.68727 0.0
H164 H 0.78695 0.82995 0.66601 0.0
H165 H 0.81476 0.84045 0.71206 0.0
C166 C 0.76512 0.78635 0.75294 0.0
C167 C 0.7352 0.75523 0.77238 0.0
C168 C 0.75315 0.77702 0.72634 0.0
C169 C 0.69548 0.71233 0.76502 0.0
C170 C 0.68294 0.70303 0.73854 0.0
C171 C 0.69452 0.73076 0.69275 0.0
C172 C 0.72114 0.76519 0.67353 0.0
C173 C 0.71044 0.7362 0.71912 0.0
C174 C 0.76582 0.80322 0.68061 0.0
C175 C 0.78154 0.80935 0.70689 0.0
H176 H 0.27001 0.33795 0.25625 0.0
H177 H 0.13386 0.21675 0.27486 0.0
H178 H 0.11081 0.20731 0.22818 0.0
H179 H 0.12452 0.23989 0.18274 0.0
H180 H 0.26234 0.35912 0.16406 0.0
H181 H 0.2899 0.36297 0.2103 0.0
C182 C 0.23569 0.309 0.25003 0.0
C183 C 0.20316 0.27859 0.26886 0.0
C184 C 0.22278 0.3039 0.22329 0.0
C185 C 0.15938 0.2406 0.26064 0.0
C186 C 0.14601 0.23548 0.23402 0.0
C187 C 0.16078 0.26645 0.18881 0.0
C188 C 0.19094 0.29987 0.17024 0.0
C189 C 0.17658 0.26798 0.21528 0.0
C190 C 0.23843 0.33329 0.17813 0.0
C191 C 0.25408 0.33557 0.20452 0.0
H192 H 0.80539 0.7093 0.51151 0.0
H193 H 0.69445 0.83649 0.51044 0.0
H194 H 0.69183 0.83331 0.46255 0.0
H195 H 0.70869 0.78391 0.42196 0.0
H196 H 0.81468 0.65246 0.42365 0.0
H197 H 0.83187 0.66822 0.47031 0.0
C198 C 0.78166 0.73728 0.50082 0.0
C199 C 0.74933 0.7723 0.51454 0.0
C200 C 0.77868 0.73383 0.47339 0.0
C201 C 0.71914 0.80856 0.50035 0.0
C202 C 0.71738 0.80661 0.47297 0.0
C203 C 0.73635 0.75935 0.43241 0.0
C204 C 0.75942 0.71636 0.41947 0.0
C205 C 0.74497 0.76766 0.4594 0.0
C206 C 0.79559 0.68524 0.43325 0.0
C207 C 0.8055 0.69421 0.45994 0.0
H208 H 0.26351 0.17 0.67163 0.0
H209 H 0.37645 0.31061 0.69255 0.0
H210 H 0.36029 0.29086 0.73922 0.0
H211 H 0.32012 0.22917 0.77378 0.0
H212 H 0.21472 0.08335 0.75258 0.0
H213 H 0.22165 0.10947 0.70624 0.0
C214 C 0.28377 0.19677 0.68646 0.0
C215 C 0.32087 0.24171 0.67886 0.0
C216 C 0.27607 0.18383 0.71311 0.0
C217 C 0.34772 0.27571 0.69811 0.0
C218 C 0.33861 0.26437 0.72472 0.0
C219 C 0.2982 0.20351 0.759 0.0
C220 C 0.26706 0.15448 0.76644 0.0
C221 C 0.30383 0.21786 0.73242 0.0
C222 C 0.23924 0.12117 0.7472 0.0
C223 C 0.24311 0.1361 0.72075 0.0
H224 H 0.78655 0.69465 0.0232 0.0
H225 H 0.66754 0.81439 0.02483 0.0
H226 H 0.65027 0.80054 -0.02203 0.0
H227 H 0.68025 0.766 0.93582 0.0
H228 H 0.80317 0.65024 0.93383 0.0
H229 H 0.80662 0.65006 -0.01824 0.0
C230 C 0.75617 0.71714 0.01342 0.0
C231 C 0.72937 0.75648 0.02734 0.0
C232 C 0.74742 0.70994 -0.01359 0.0
C233 C 0.68928 0.78439 0.01451 0.0
C234 C 0.67951 0.77663 -0.01231 0.0
C235 C 0.70707 0.7399 0.94585 0.0
C236 C 0.7424 0.70921 0.93128 0.0
C237 C 0.71009 0.74129 -0.0267 0.0
C238 C 0.77602 0.67475 0.94457 0.0
C239 C 0.77828 0.67489 0.97198 0.0
H240 H 0.09909 0.07062 0.08244 0.0
H241 H 0.97458 0.18438 0.08641 0.0
H242 H 0.9016 0.10811 0.08692 0.0
H243 H 0.87345 0.00892 0.08903 0.0
H244 H -0.00164 0.89559 0.08393 0.0
H245 H 0.07061 0.97187 0.08086 0.0
C246 C 0.05597 0.07869 0.08326 0.0
C247 C 0.04232 0.13294 0.08466 0.0
C248 C 0.0142 0.03474 0.08342 0.0
C249 C 0.98623 0.14288 0.08535 0.0
C250 C 0.94443 0.09932 0.08573 0.0
C251 C 0.91643 0.00096 0.08705 0.0
C252 C 0.93043 0.94669 0.08699 0.0
C253 C 0.95798 0.04505 0.0852 0.0
C254 C 0.98631 0.937 0.0841 0.0
C255 C 0.0278 0.98059 0.08243 0.0
H256 H 0.00527 0.35834 0.35037 0.0
H257 H 0.11744 0.50693 0.35188 0.0
H258 H 0.03891 0.56199 0.35111 0.0
H259 H 0.9387 0.56786 0.34933 0.0
H260 H 0.8265 0.41932 0.34737 0.0
H261 H 0.90497 0.36422 0.34902 0.0
C262 C 0.01258 0.40278 0.35061 0.0
C263 C 0.06714 0.42851 0.35117 0.0
C264 C 0.96731 0.43414 0.35003 0.0
C265 C 0.07587 0.48611 0.35144 0.0
C266 C 0.031 0.51762 0.35098 0.0
C267 C 0.93135 0.52342 0.3493 0.0
C268 C 0.87682 0.49773 0.34819 0.0
C269 C 0.97659 0.49206 0.35017 0.0
C270 C 0.86806 0.44012 0.34818 0.0
C271 C 0.91289 0.40859 0.34912 0.0
H272 H 0.39635 0.47597 0.58607 0.0
H273 H 0.52133 0.36369 0.57698 0.0
H274 H 0.59336 0.44041 0.57534 0.0
H275 H 0.62175 0.5389 0.57982 0.0
H276 H 0.49697 0.65146 0.58819 0.0
H277 H 0.4242 0.57515 0.58664 0.0
C278 C 0.43927 0.4683 0.58346 0.0
C279 C 0.45335 0.41413 0.58196 0.0
C280 C 0.4807 0.51264 0.58259 0.0
C281 C 0.50919 0.40496 0.5783 0.0
C282 C 0.55057 0.44881 0.57746 0.0
C283 C 0.57863 0.54673 0.58115 0.0
C284 C 0.56488 0.60063 0.58442 0.0
C285 C 0.53691 0.50272 0.58015 0.0
C286 C 0.50875 0.61027 0.58573 0.0
C287 C 0.46704 0.56666 0.58492 0.0
H288 H 0.61809 0.97286 0.85344 0.0
H289 H 0.52349 0.81374 0.85504 0.0
H290 H 0.43734 0.85728 0.85489 0.0
H291 H 0.38883 0.94041 0.85344 0.0
H292 H 0.48343 0.09953 0.85182 0.0
H293 H 0.56958 0.05604 0.85292 0.0
C294 C 0.57863 0.9477 0.85381 0.0
C295 C 0.57723 0.89017 0.85418 0.0
C296 C 0.52923 0.97297 0.8537 0.0
C297 C 0.52575 0.85815 0.85472 0.0
C298 C 0.47643 0.88299 0.85462 0.0
C299 C 0.42829 0.96559 0.8534 0.0
C300 C 0.42969 0.0231 0.85248 0.0
C301 C 0.47769 0.94034 0.85398 0.0
C302 C 0.48117 0.05514 0.85249 0.0
C303 C 0.53048 0.03033 0.8531 0.0
H304 H 0.8853 0.57055 0.09347 0.0
H305 H 0.03202 0.68557 0.09844 0.0
H306 H 0.09037 0.61022 0.09533 0.0
H307 H 0.09959 0.51151 0.09194 0.0
H308 H 0.9525 0.39682 0.08731 0.0
H309 H 0.89445 0.47235 0.08942 0.0
C310 C 0.93004 0.57916 0.09386 0.0
C311 C 0.95428 0.63348 0.09625 0.0
C312 C 0.96328 0.53574 0.09208 0.0
C313 C 0.01232 0.64402 0.09665 0.0
C314 C 0.04573 0.60099 0.09486 0.0
C315 C 0.05485 0.5031 0.09127 0.0
C316 C 0.03042 0.44869 0.08951 0.0
C317 C 0.02164 0.54668 0.09265 0.0
C318 C 0.97237 0.43838 0.0887 0.0
C319 C 0.9391 0.48151 0.08993 0.0
H320 H 0.35808 0.46195 0.36123 0.0
H321 H 0.44623 0.31749 0.35825 0.0
H322 H 0.53449 0.37495 0.35923 0.0
H323 H 0.58649 0.46617 0.35785 0.0
H324 H 0.49812 0.61062 0.35879 0.0
H325 H 0.41015 0.55307 0.36188 0.0
C326 C 0.39656 0.44295 0.36109 0.0
C327 C 0.39547 0.38549 0.35953 0.0
C328 C 0.44718 0.47623 0.36115 0.0
C329 C 0.44581 0.36163 0.35928 0.0
C330 C 0.49635 0.39445 0.35983 0.0
C331 C 0.54806 0.48513 0.35904 0.0
C332 C 0.54895 0.54264 0.35796 0.0
C333 C 0.49751 0.45181 0.3603 0.0
C334 C 0.49867 0.56645 0.35941 0.0
C335 C 0.4483 0.53359 0.36117 0.0
H336 H 0.4089 0.03848 0.60191 0.0
H337 H 0.55607 0.15329 0.59875 0.0
H338 H 0.61393 0.07726 0.59801 0.0
H339 H 0.62253 0.97817 0.59783 0.0
H340 H 0.47495 0.86382 0.60105 0.0
H341 H 0.41744 0.93986 0.6022 0.0
C342 C 0.45364 0.04691 0.60109 0.0
C343 C 0.47816 0.10136 0.60034 0.0
C344 C 0.48657 0.00313 0.60065 0.0
C345 C 0.53618 0.11164 0.59933 0.0
C346 C 0.5693 0.06823 0.59889 0.0
C347 C 0.57779 0.96992 0.59879 0.0
C348 C 0.55306 0.91549 0.59931 0.0
C349 C 0.54491 0.01382 0.59947 0.0
C350 C 0.49504 0.90539 0.60062 0.0
C351 C 0.46208 0.94882 0.60127 0.0
H352 H 0.97267 0.84465 0.86171 0.0
H353 H 0.85739 0.96793 0.86123 0.0
H354 H 0.93424 0.0403 0.8614 0.0
H355 H 0.03397 0.0686 0.85884 0.0
H356 H 0.14943 0.94556 0.86007 0.0
H357 H 0.07265 0.87319 0.86266 0.0
C358 C 0.96434 0.88734 0.86181 0.0
C359 C 0.90935 0.90078 0.86118 0.0
C360 C 0.00873 0.92885 0.86196 0.0
C361 C 0.8993 0.95635 0.86165 0.0
C362 C 0.94323 -0.00217 0.86167 0.0
C363 C 0.04237 0.02597 0.85984 0.0
C364 C 0.09733 0.01253 0.85899 0.0
C365 C -0.00193 0.98455 0.86137 0.0
C366 C 0.10751 0.9571 0.86065 0.0
C367 C 0.06362 0.91563 0.86204 0.0
loop_
_geom_bond_atom_site_label_1
_geom_bond_atom_site_label_2
_geom_bond_distance
_geom_bond_site_symmetry_2
_ccdc_geom_bond_type
C0 O1 1.306 . S
C0 O3 1.160 . S
O1 C0 1.306 . S
O1 Cd2 2.228 . S
Cd2 O1 2.228 . S
Cd2 O6 2.273 . S
Cd2 O10 2.277 . S
O3 C0 1.160 . S
O3 Cd4 2.203 . S
Cd4 O3 2.203 . S
Cd4 O6 2.411 . S
Cd4 O7 2.333 . S
Cd4 O8 2.352 . S
Cd4 O12 2.277 . S
Cd4 O13 2.356 . S
C5 O10 1.209 . S
C5 O12 1.226 . S
O6 Cd2 2.273 . S
O6 Cd4 2.411 . S
O6 C9 1.320 . S
O7 Cd4 2.333 . S
O7 C9 1.214 . S
O8 Cd4 2.352 . S
O8 C11 1.258 . S
C9 O6 1.320 . S
C9 O7 1.214 . S
O10 Cd2 2.277 . S
O10 C5 1.209 . S
C11 O8 1.258 . S
C11 O13 1.282 . S
O12 Cd4 2.277 . S
O12 C5 1.226 . S
O13 Cd4 2.356 . S
O13 C11 1.282 . S
C14 O15 1.306 . S
C14 O17 1.160 . S
O15 C14 1.306 . S
O15 Cd16 2.228 . S
Cd16 O15 2.228 . S
Cd16 O20 2.273 . S
Cd16 O24 2.277 . S
O17 C14 1.160 . S
O17 Cd18 2.203 . S
Cd18 O17 2.203 . S
Cd18 O20 2.411 . S
Cd18 O21 2.333 . S
Cd18 O22 2.352 . S
Cd18 O26 2.277 . S
Cd18 O27 2.356 . S
C19 O24 1.209 . S
C19 O26 1.226 . S
O20 Cd16 2.273 . S
O20 Cd18 2.411 . S
O20 C23 1.320 . S
O21 Cd18 2.333 . S
O21 C23 1.214 . S
O22 Cd18 2.352 . S
O22 C25 1.258 . S
C23 O20 1.320 . S
C23 O21 1.214 . S
O24 Cd16 2.277 . S
O24 C19 1.209 . S
C25 O22 1.258 . S
C25 O27 1.282 . S
O26 Cd18 2.277 . S
O26 C19 1.226 . S
O27 Cd18 2.356 . S
O27 C25 1.282 . S
C28 O29 1.306 . S
C28 O31 1.160 . S
O29 C28 1.306 . S
O29 Cd30 2.228 . S
Cd30 O29 2.228 . S
Cd30 O34 2.273 . S
Cd30 O38 2.277 . S
O31 C28 1.160 . S
O31 Cd32 2.203 . S
Cd32 O31 2.203 . S
Cd32 O34 2.411 . S
Cd32 O35 2.333 . S
Cd32 O36 2.352 . S
Cd32 O40 2.277 . S
Cd32 O41 2.356 . S
C33 O38 1.209 . S
C33 O40 1.226 . S
O34 Cd30 2.273 . S
O34 Cd32 2.411 . S
O34 C37 1.320 . S
O35 Cd32 2.333 . S
O35 C37 1.214 . S
O36 Cd32 2.352 . S
O36 C39 1.258 . S
C37 O34 1.320 . S
C37 O35 1.214 . S
O38 Cd30 2.277 . S
O38 C33 1.209 . S
C39 O36 1.258 . S
C39 O41 1.282 . S
O40 Cd32 2.277 . S
O40 C33 1.226 . S
O41 Cd32 2.356 . S
O41 C39 1.282 . S
C42 O43 1.306 . S
C42 O45 1.160 . S
O43 C42 1.306 . S
O43 Cd44 2.228 . S
Cd44 O43 2.228 . S
Cd44 O48 2.273 . S
Cd44 O52 2.277 . S
O45 C42 1.160 . S
O45 Cd46 2.203 . S
Cd46 O45 2.203 . S
Cd46 O48 2.411 . S
Cd46 O49 2.333 . S
Cd46 O50 2.352 . S
Cd46 O54 2.277 . S
Cd46 O55 2.356 . S
C47 O52 1.209 . S
C47 O54 1.226 . S
O48 Cd44 2.273 . S
O48 Cd46 2.411 . S
O48 C51 1.320 . S
O49 Cd46 2.333 . S
O49 C51 1.214 . S
O50 Cd46 2.352 . S
O50 C53 1.258 . S
C51 O48 1.320 . S
C51 O49 1.214 . S
O52 Cd44 2.277 . S
O52 C47 1.209 . S
C53 O50 1.258 . S
C53 O55 1.282 . S
O54 Cd46 2.277 . S
O54 C47 1.226 . S
O55 Cd46 2.356 . S
O55 C53 1.282 . S
C56 O57 1.306 . S
C56 O59 1.160 . S
O57 C56 1.306 . S
O57 Cd58 2.228 . S
Cd58 O57 2.228 . S
Cd58 O62 2.273 . S
Cd58 O66 2.277 . S
O59 C56 1.160 . S
O59 Cd60 2.203 . S
Cd60 O59 2.203 . S
Cd60 O62 2.411 . S
Cd60 O63 2.333 . S
Cd60 O64 2.352 . S
Cd60 O68 2.277 . S
Cd60 O69 2.356 . S
C61 O66 1.209 . S
C61 O68 1.226 . S
O62 Cd58 2.273 . S
O62 Cd60 2.411 . S
O62 C65 1.320 . S
O63 Cd60 2.333 . S
O63 C65 1.214 . S
O64 Cd60 2.352 . S
O64 C67 1.258 . S
C65 O62 1.320 . S
C65 O63 1.214 . S
O66 Cd58 2.277 . S
O66 C61 1.209 . S
C67 O64 1.258 . S
C67 O69 1.282 . S
O68 Cd60 2.277 . S
O68 C61 1.226 . S
O69 Cd60 2.356 . S
O69 C67 1.282 . S
C70 O71 1.306 . S
C70 O73 1.160 . S
O71 C70 1.306 . S
O71 Cd72 2.228 . S
Cd72 O71 2.228 . S
Cd72 O76 2.273 . S
Cd72 O80 2.277 . S
O73 C70 1.160 . S
O73 Cd74 2.203 . S
Cd74 O73 2.203 . S
Cd74 O76 2.411 . S
Cd74 O77 2.333 . S
Cd74 O78 2.352 . S
Cd74 O82 2.277 . S
Cd74 O83 2.356 . S
C75 O80 1.209 . S
C75 O82 1.226 . S
O76 Cd72 2.273 . S
O76 Cd74 2.411 . S
O76 C79 1.320 . S
O77 Cd74 2.333 . S
O77 C79 1.214 . S
O78 Cd74 2.352 . S
O78 C81 1.258 . S
C79 O76 1.320 . S
C79 O77 1.214 . S
O80 Cd72 2.277 . S
O80 C75 1.209 . S
C81 O78 1.258 . S
C81 O83 1.282 . S
O82 Cd74 2.277 . S
O82 C75 1.226 . S
O83 Cd74 2.356 . S
O83 C81 1.282 . S
C84 O85 1.306 . S
C84 O87 1.160 . S
O85 C84 1.306 . S
O85 Cd86 2.228 . S
Cd86 O85 2.228 . S
Cd86 O90 2.273 . S
Cd86 O94 2.277 . S
O87 C84 1.160 . S
O87 Cd88 2.203 . S
Cd88 O87 2.203 . S
Cd88 O90 2.411 . S
Cd88 O91 2.333 . S
Cd88 O92 2.352 . S
Cd88 O96 2.277 . S
Cd88 O97 2.356 . S
C89 O94 1.209 . S
C89 O96 1.226 . S
O90 Cd86 2.273 . S
O90 Cd88 2.411 . S
O90 C93 1.320 . S
O91 Cd88 2.333 . S
O91 C93 1.214 . S
O92 Cd88 2.352 . S
O92 C95 1.258 . S
C93 O90 1.320 . S
C93 O91 1.214 . S
O94 Cd86 2.277 . S
O94 C89 1.209 . S
C95 O92 1.258 . S
C95 O97 1.282 . S
O96 Cd88 2.277 . S
O96 C89 1.226 . S
O97 Cd88 2.356 . S
O97 C95 1.282 . S
C98 O99 1.306 . S
C98 O101 1.160 . S
O99 C98 1.306 . S
O99 Cd100 2.228 . S
Cd100 O99 2.228 . S
Cd100 O104 2.273 . S
Cd100 O108 2.277 . S
O101 C98 1.160 . S
O101 Cd102 2.203 . S
Cd102 O101 2.203 . S
Cd102 O104 2.411 . S
Cd102 O105 2.333 . S
Cd102 O106 2.352 . S
Cd102 O110 2.277 . S
Cd102 O111 2.356 . S
C103 O108 1.209 . S
C103 O110 1.226 . S
O104 Cd100 2.273 . S
O104 Cd102 2.411 . S
O104 C107 1.320 . S
O105 Cd102 2.333 . S
O105 C107 1.214 . S
O106 Cd102 2.352 . S
O106 C109 1.258 . S
C107 O104 1.320 . S
C107 O105 1.214 . S
O108 Cd100 2.277 . S
O108 C103 1.209 . S
C109 O106 1.258 . S
C109 O111 1.282 . S
O110 Cd102 2.277 . S
O110 C103 1.226 . S
O111 Cd102 2.356 . S
O111 C109 1.282 . S
H112 C118 0.930 . S
H113 C121 0.930 . S
H114 C122 0.930 1_556 S
H115 C123 0.930 . S
H116 C126 0.930 . S
H117 C127 0.930 1_554 S
C118 H112 0.930 . S
C118 C119 1.355 . S
C118 C120 1.415 . S
C119 C118 1.355 . S
C119 C121 1.419 . S
C120 C118 1.415 . S
C120 C125 1.425 1_554 S
C120 C127 1.409 1_554 S
C121 H113 0.930 . S
C121 C119 1.419 . S
C121 C122 1.362 . S
C122 H114 0.930 1_554 S
C122 C121 1.362 . S
C122 C125 1.409 1_554 S
C123 H115 0.930 . S
C123 C124 1.355 . S
C123 C125 1.415 . S
C124 C123 1.355 . S
C124 C126 1.419 . S
C125 C120 1.425 1_556 S
C125 C122 1.409 1_556 S
C125 C123 1.415 . S
C126 H116 0.930 . S
C126 C124 1.419 . S
C126 C127 1.362 . S
C127 H117 0.930 1_556 S
C127 C120 1.409 1_556 S
C127 C126 1.362 . S
H128 C134 0.930 . S
H129 C137 0.930 . S
H130 C138 0.930 . S
H131 C139 0.930 . S
H132 C142 0.930 . S
H133 C143 0.930 . S
C134 H128 0.930 . S
C134 C135 1.355 . S
C134 C136 1.415 . S
C135 C134 1.355 . S
C135 C137 1.419 . S
C136 C134 1.415 . S
C136 C141 1.425 . S
C136 C143 1.409 . S
C137 H129 0.930 . S
C137 C135 1.419 . S
C137 C138 1.362 . S
C138 H130 0.930 . S
C138 C137 1.362 . S
C138 C141 1.409 . S
C139 H131 0.930 . S
C139 C140 1.355 . S
C139 C141 1.415 . S
C140 C139 1.355 . S
C140 C142 1.419 . S
C141 C136 1.425 . S
C141 C138 1.409 . S
C141 C139 1.415 . S
C142 H132 0.930 . S
C142 C140 1.419 . S
C142 C143 1.362 . S
C143 H133 0.930 . S
C143 C136 1.409 . S
C143 C142 1.362 . S
H144 C150 0.930 . S
H145 C153 0.930 . S
H146 C154 0.930 . S
H147 C155 0.930 . S
H148 C158 0.930 . S
H149 C159 0.930 . S
C150 H144 0.930 . S
C150 C151 1.355 . S
C150 C152 1.415 . S
C151 C150 1.355 . S
C151 C153 1.419 . S
C152 C150 1.415 . S
C152 C157 1.425 . S
C152 C159 1.409 . S
C153 H145 0.930 . S
C153 C151 1.419 . S
C153 C154 1.362 . S
C154 H146 0.930 . S
C154 C153 1.362 . S
C154 C157 1.409 . S
C155 H147 0.930 . S
C155 C156 1.355 . S
C155 C157 1.415 . S
C156 C155 1.355 . S
C156 C158 1.419 . S
C157 C152 1.425 . S
C157 C154 1.409 . S
C157 C155 1.415 . S
C158 H148 0.930 . S
C158 C156 1.419 . S
C158 C159 1.362 . S
C159 H149 0.930 . S
C159 C152 1.409 . S
C159 C158 1.362 . S
H160 C166 0.930 . S
H161 C169 0.930 . S
H162 C170 0.930 . S
H163 C171 0.930 . S
H164 C174 0.930 . S
H165 C175 0.930 . S
C166 H160 0.930 . S
C166 C167 1.355 . S
C166 C168 1.415 . S
C167 C166 1.355 . S
C167 C169 1.419 . S
C168 C166 1.415 . S
C168 C173 1.425 . S
C168 C175 1.409 . S
C169 H161 0.930 . S
C169 C167 1.419 . S
C169 C170 1.362 . S
C170 H162 0.930 . S
C170 C169 1.362 . S
C170 C173 1.409 . S
C171 H163 0.930 . S
C171 C172 1.355 . S
C171 C173 1.415 . S
C172 C171 1.355 . S
C172 C174 1.419 . S
C173 C168 1.425 . S
C173 C170 1.409 . S
C173 C171 1.415 . S
C174 H164 0.930 . S
C174 C172 1.419 . S
C174 C175 1.362 . S
C175 H165 0.930 . S
C175 C168 1.409 . S
C175 C174 1.362 . S
H176 C182 0.930 . S
H177 C185 0.930 . S
H178 C186 0.930 . S
H179 C187 0.930 . S
H180 C190 0.930 . S
H181 C191 0.930 . S
C182 H176 0.930 . S
C182 C183 1.355 . S
C182 C184 1.415 . S
C183 C182 1.355 . S
C183 C185 1.419 . S
C184 C182 1.415 . S
C184 C189 1.425 . S
C184 C191 1.409 . S
C185 H177 0.930 . S
C185 C183 1.419 . S
C185 C186 1.362 . S
C186 H178 0.930 . S
C186 C185 1.362 . S
C186 C189 1.409 . S
C187 H179 0.930 . S
C187 C188 1.355 . S
C187 C189 1.415 . S
C188 C187 1.355 . S
C188 C190 1.419 . S
C189 C184 1.425 . S
C189 C186 1.409 . S
C189 C187 1.415 . S
C190 H180 0.930 . S
C190 C188 1.419 . S
C190 C191 1.362 . S
C191 H181 0.930 . S
C191 C184 1.409 . S
C191 C190 1.362 . S
H192 C198 0.930 . S
H193 C201 0.930 . S
H194 C202 0.930 . S
H195 C203 0.930 . S
H196 C206 0.930 . S
H197 C207 0.930 . S
C198 H192 0.930 . S
C198 C199 1.355 . S
C198 C200 1.415 . S
C199 C198 1.355 . S
C199 C201 1.419 . S
C200 C198 1.415 . S
C200 C205 1.425 . S
C200 C207 1.409 . S
C201 H193 0.930 . S
C201 C199 1.419 . S
C201 C202 1.362 . S
C202 H194 0.930 . S
C202 C201 1.362 . S
C202 C205 1.409 . S
C203 H195 0.930 . S
C203 C204 1.355 . S
C203 C205 1.415 . S
C204 C203 1.355 . S
C204 C206 1.419 . S
C205 C200 1.425 . S
C205 C202 1.409 . S
C205 C203 1.415 . S
C206 H196 0.930 . S
C206 C204 1.419 . S
C206 C207 1.362 . S
C207 H197 0.930 . S
C207 C200 1.409 . S
C207 C206 1.362 . S
H208 C214 0.930 . S
H209 C217 0.930 . S
H210 C218 0.930 . S
H211 C219 0.930 . S
H212 C222 0.930 . S
H213 C223 0.930 . S
C214 H208 0.930 . S
C214 C215 1.355 . S
C214 C216 1.415 . S
C215 C214 1.355 . S
C215 C217 1.419 . S
C216 C214 1.415 . S
C216 C221 1.425 . S
C216 C223 1.409 . S
C217 H209 0.930 . S
C217 C215 1.419 . S
C217 C218 1.362 . S
C218 H210 0.930 . S
C218 C217 1.362 . S
C218 C221 1.409 . S
C219 H211 0.930 . S
C219 C220 1.355 . S
C219 C221 1.415 . S
C220 C219 1.355 . S
C220 C222 1.419 . S
C221 C216 1.425 . S
C221 C218 1.409 . S
C221 C219 1.415 . S
C222 H212 0.930 . S
C222 C220 1.419 . S
C222 C223 1.362 . S
C223 H213 0.930 . S
C223 C216 1.409 . S
C223 C222 1.362 . S
H224 C230 0.930 . S
H225 C233 0.930 . S
H226 C234 0.930 . S
H227 C235 0.930 . S
H228 C238 0.930 . S
H229 C239 0.930 . S
C230 H224 0.930 . S
C230 C231 1.355 . S
C230 C232 1.415 . S
C231 C230 1.355 . S
C231 C233 1.419 . S
C232 C230 1.415 . S
C232 C237 1.425 1_554 S
C232 C239 1.409 1_554 S
C233 H225 0.930 . S
C233 C231 1.419 . S
C233 C234 1.362 . S
C234 H226 0.930 . S
C234 C233 1.362 . S
C234 C237 1.409 1_554 S
C235 H227 0.930 . S
C235 C236 1.355 . S
C235 C237 1.415 . S
C236 C235 1.355 . S
C236 C238 1.419 . S
C237 C232 1.425 1_556 S
C237 C234 1.409 1_556 S
C237 C235 1.415 . S
C238 H228 0.930 . S
C238 C236 1.419 . S
C238 C239 1.362 . S
C239 H229 0.930 . S
C239 C232 1.409 1_556 S
C239 C238 1.362 . S
H240 C246 0.930 . S
H241 C249 0.928 1_655 S
H242 C250 0.930 . S
H243 C251 0.930 . S
H244 C254 0.928 1_455 S
H245 C255 0.930 . S
C246 H240 0.930 . S
C246 C247 1.355 . S
C246 C248 1.415 1_545 S
C247 C246 1.355 . S
C247 C249 1.424 . S
C248 C246 1.415 1_565 S
C248 C253 1.425 1_465 S
C248 C255 1.409 . S
C249 H241 0.928 1_455 S
C249 C247 1.424 . S
C249 C250 1.359 1_455 S
C250 H242 0.930 . S
C250 C249 1.359 1_655 S
C250 C253 1.409 . S
C251 H243 0.930 . S
C251 C252 1.355 . S
C251 C253 1.415 1_565 S
C252 C251 1.355 . S
C252 C254 1.424 . S
C253 C248 1.425 1_645 S
C253 C250 1.409 . S
C253 C251 1.415 1_545 S
C254 H244 0.928 1_655 S
C254 C252 1.424 . S
C254 C255 1.359 1_655 S
C255 H245 0.930 . S
C255 C248 1.409 . S
C255 C254 1.359 1_455 S
H256 C262 0.930 . S
H257 C265 0.930 . S
H258 C266 0.930 . S
H259 C267 0.930 . S
H260 C270 0.930 . S
H261 C271 0.930 . S
C262 H256 0.930 . S
C262 C263 1.355 . S
C262 C264 1.415 1_455 S
C263 C262 1.355 . S
C263 C265 1.419 . S
C264 C262 1.415 1_655 S
C264 C269 1.425 1_655 S
C264 C271 1.409 . S
C265 H257 0.930 . S
C265 C263 1.419 . S
C265 C266 1.362 . S
C266 H258 0.930 . S
C266 C265 1.362 . S
C266 C269 1.409 . S
C267 H259 0.930 . S
C267 C268 1.355 . S
C267 C269 1.415 1_655 S
C268 C267 1.355 . S
C268 C270 1.419 . S
C269 C264 1.425 1_455 S
C269 C266 1.409 . S
C269 C267 1.415 1_455 S
C270 H260 0.930 . S
C270 C268 1.419 . S
C270 C271 1.362 . S
C271 H261 0.930 . S
C271 C264 1.409 . S
C271 C270 1.362 . S
H272 C278 0.930 . S
H273 C281 0.930 . S
H274 C282 0.930 . S
H275 C283 0.930 . S
H276 C286 0.930 . S
H277 C287 0.930 . S
C278 H272 0.930 . S
C278 C279 1.355 . S
C278 C280 1.415 . S
C279 C278 1.355 . S
C279 C281 1.419 . S
C280 C278 1.415 . S
C280 C285 1.425 . S
C280 C287 1.409 . S
C281 H273 0.930 . S
C281 C279 1.419 . S
C281 C282 1.362 . S
C282 H274 0.930 . S
C282 C281 1.362 . S
C282 C285 1.409 . S
C283 H275 0.930 . S
C283 C284 1.355 . S
C283 C285 1.415 . S
C284 C283 1.355 . S
C284 C286 1.419 . S
C285 C280 1.425 . S
C285 C282 1.409 . S
C285 C283 1.415 . S
C286 H276 0.930 . S
C286 C284 1.419 . S
C286 C287 1.362 . S
C287 H277 0.930 . S
C287 C280 1.409 . S
C287 C286 1.362 . S
H288 C294 0.930 1_545 S
H289 C297 0.930 . S
H290 C298 0.930 . S
H291 C299 0.930 1_565 S
H292 C302 0.930 . S
H293 C303 0.930 . S
C294 H288 0.930 1_565 S
C294 C295 1.355 . S
C294 C296 1.415 1_565 S
C295 C294 1.355 . S
C295 C297 1.419 . S
C296 C294 1.415 1_545 S
C296 C301 1.425 1_545 S
C296 C303 1.409 . S
C297 H289 0.930 . S
C297 C295 1.419 . S
C297 C298 1.362 . S
C298 H290 0.930 . S
C298 C297 1.362 . S
C298 C301 1.409 . S
C299 H291 0.930 1_545 S
C299 C300 1.355 . S
C299 C301 1.415 1_545 S
C300 C299 1.355 . S
C300 C302 1.419 . S
C301 C296 1.425 1_565 S
C301 C298 1.409 . S
C301 C299 1.415 1_565 S
C302 H292 0.930 . S
C302 C300 1.419 . S
C302 C303 1.362 . S
C303 H293 0.930 . S
C303 C296 1.409 . S
C303 C302 1.362 . S
H304 C310 0.930 . S
H305 C313 0.930 . S
H306 C314 0.930 . S
H307 C315 0.930 . S
H308 C318 0.930 . S
H309 C319 0.930 . S
C310 H304 0.930 . S
C310 C311 1.355 . S
C310 C312 1.415 . S
C311 C310 1.355 . S
C311 C313 1.419 . S
C312 C310 1.415 . S
C312 C317 1.425 1_655 S
C312 C319 1.409 . S
C313 H305 0.930 . S
C313 C311 1.419 . S
C313 C314 1.362 1_655 S
C314 H306 0.930 . S
C314 C313 1.362 1_455 S
C314 C317 1.409 . S
C315 H307 0.930 . S
C315 C316 1.355 . S
C315 C317 1.415 . S
C316 C315 1.355 . S
C316 C318 1.419 . S
C317 C312 1.425 1_455 S
C317 C314 1.409 . S
C317 C315 1.415 . S
C318 H308 0.930 . S
C318 C316 1.419 . S
C318 C319 1.362 1_455 S
C319 H309 0.930 . S
C319 C312 1.409 . S
C319 C318 1.362 1_655 S
H320 C326 0.930 . S
H321 C329 0.930 . S
H322 C330 0.930 . S
H323 C331 0.930 . S
H324 C334 0.930 . S
H325 C335 0.930 . S
C326 H320 0.930 . S
C326 C327 1.355 . S
C326 C328 1.415 . S
C327 C326 1.355 . S
C327 C329 1.419 . S
C328 C326 1.415 . S
C328 C333 1.425 . S
C328 C335 1.409 . S
C329 H321 0.930 . S
C329 C327 1.419 . S
C329 C330 1.362 . S
C330 H322 0.930 . S
C330 C329 1.362 . S
C330 C333 1.409 . S
C331 H323 0.930 . S
C331 C332 1.355 . S
C331 C333 1.415 . S
C332 C331 1.355 . S
C332 C334 1.419 . S
C333 C328 1.425 . S
C333 C330 1.409 . S
C333 C331 1.415 . S
C334 H324 0.930 . S
C334 C332 1.419 . S
C334 C335 1.362 . S
C335 H325 0.930 . S
C335 C328 1.409 . S
C335 C334 1.362 . S
H336 C342 0.930 . S
H337 C345 0.930 . S
H338 C346 0.930 . S
H339 C347 0.930 . S
H340 C350 0.930 . S
H341 C351 0.930 . S
C342 H336 0.930 . S
C342 C343 1.355 . S
C342 C344 1.415 1_545 S
C343 C342 1.355 . S
C343 C345 1.419 . S
C344 C342 1.415 1_565 S
C344 C349 1.425 1_565 S
C344 C351 1.409 . S
C345 H337 0.930 . S
C345 C343 1.419 . S
C345 C346 1.362 . S
C346 H338 0.930 . S
C346 C345 1.362 . S
C346 C349 1.409 . S
C347 H339 0.930 . S
C347 C348 1.355 . S
C347 C349 1.415 1_565 S
C348 C347 1.355 . S
C348 C350 1.419 . S
C349 C344 1.425 1_545 S
C349 C346 1.409 . S
C349 C347 1.415 1_545 S
C350 H340 0.930 . S
C350 C348 1.419 . S
C350 C351 1.362 . S
C351 H341 0.930 . S
C351 C344 1.409 . S
C351 C350 1.362 . S
H352 C358 0.930 . S
H353 C361 0.930 1_545 S
H354 C362 0.930 . S
H355 C363 0.930 . S
H356 C366 0.930 1_565 S
H357 C367 0.930 . S
C358 H352 0.930 . S
C358 C359 1.355 . S
C358 C360 1.415 1_655 S
C359 C358 1.355 . S
C359 C361 1.419 . S
C360 C358 1.415 1_455 S
C360 C365 1.425 1_465 S
C360 C367 1.409 . S
C361 H353 0.930 1_565 S
C361 C359 1.419 . S
C361 C362 1.362 1_565 S
C362 H354 0.930 . S
C362 C361 1.362 1_545 S
C362 C365 1.409 . S
C363 H355 0.930 . S
C363 C364 1.355 . S
C363 C365 1.415 1_455 S
C364 C363 1.355 . S
C364 C366 1.419 . S
C365 C360 1.425 1_645 S
C365 C362 1.409 . S
C365 C363 1.415 1_655 S
C366 H356 0.930 1_545 S
C366 C364 1.419 . S
C366 C367 1.362 1_545 S
C367 H357 0.930 . S
C367 C360 1.409 . S
C367 C366 1.362 1_565 S
C119 C0 1.285 . S
C124 C70 1.253 . S
C135 C23 1.226 . S
C140 C93 1.243 . S
C151 C28 1.251 . S
C156 C98 1.287 . S
C167 C51 1.218 . S
C172 C65 1.273 . S
C183 C107 1.290 . S
C188 C9 1.249 . S
C199 C56 1.254 . S
C204 C14 1.284 . S
C215 C37 1.279 . S
C220 C79 1.220 . S
C231 C84 1.293 . S
C236 C42 1.248 . S
C247 C5 1.556 . S
C252 C89 1.559 . S
C263 C109 1.546 . S
C268 C25 1.563 . S
C279 C33 1.560 . S
C284 C61 1.570 . S
C295 C53 1.581 . S
C300 C81 1.565 . S
C311 C95 1.552 . S
C316 C11 1.571 . S
C327 C103 1.569 . S
C332 C19 1.577 . S
C343 C39 1.544 . S
C348 C67 1.545 . S
C359 C47 1.556 . S
C364 C75 1.561 . S
