# Generated by pormake.
# Topology vbm, (6)-cn, num edge types: 1
# Building blocks:
#     Node 0, Type 0, BuildingBlock: BETDIP_clean_sbu_0, # of connection points: 6
#     Node 1, Type 0, BuildingBlock: BETDIP_clean_sbu_0, # of connection points: 6
#     Node 2, Type 0, BuildingBlock: BETDIP_clean_sbu_0, # of connection points: 6
#     Node 3, Type 0, BuildingBlock: BETDIP_clean_sbu_0, # of connection points: 6
#     Node 4, Type 0, BuildingBlock: BETDIP_clean_sbu_0, # of connection points: 6
#     Node 5, Type 0, BuildingBlock: BETDIP_clean_sbu_0, # of connection points: 6
#     Node 6, Type 0, BuildingBlock: BETDIP_clean_sbu_0, # of connection points: 6
#     Node 7, Type 0, BuildingBlock: BETDIP_clean_sbu_0, # of connection points: 6
#     Node 8, Type 0, BuildingBlock: BETDIP_clean_sbu_0, # of connection points: 6
#     Node 9, Type 0, BuildingBlock: BETDIP_clean_sbu_0, # of connection points: 6
#     Node 10, Type 0, BuildingBlock: BETDIP_clean_sbu_0, # of connection points: 6
#     Node 11, Type 0, BuildingBlock: BETDIP_clean_sbu_0, # of connection points: 6
#     Node 12, Type 0, BuildingBlock: BETDIP_clean_sbu_0, # of connection points: 6
#     Node 13, Type 0, BuildingBlock: BETDIP_clean_sbu_0, # of connection points: 6
#     Node 14, Type 0, BuildingBlock: BETDIP_clean_sbu_0, # of connection points: 6
#     Node 15, Type 0, BuildingBlock: BETDIP_clean_sbu_0, # of connection points: 6
#     Edge 16, Type (0, 0), BuildingBlock: CIFDUS_clean_linker_0, # of connection points: 2
#     Edge 17, Type (0, 0), BuildingBlock: CIFDUS_clean_linker_0, # of connection points: 2
#     Edge 18, Type (0, 0), BuildingBlock: CIFDUS_clean_linker_0, # of connection points: 2
#     Edge 19, Type (0, 0), BuildingBlock: CIFDUS_clean_linker_0, # of connection points: 2
#     Edge 20, Type (0, 0), BuildingBlock: CIFDUS_clean_linker_0, # of connection points: 2
#     Edge 21, Type (0, 0), BuildingBlock: CIFDUS_clean_linker_0, # of connection points: 2
#     Edge 22, Type (0, 0), BuildingBlock: CIFDUS_clean_linker_0, # of connection points: 2
#     Edge 23, Type (0, 0), BuildingBlock: CIFDUS_clean_linker_0, # of connection points: 2
#     Edge 24, Type (0, 0), BuildingBlock: CIFDUS_clean_linker_0, # of connection points: 2
#     Edge 25, Type (0, 0), BuildingBlock: CIFDUS_clean_linker_0, # of connection points: 2
#     Edge 26, Type (0, 0), BuildingBlock: CIFDUS_clean_linker_0, # of connection points: 2
#     Edge 27, Type (0, 0), BuildingBlock: CIFDUS_clean_linker_0, # of connection points: 2
#     Edge 28, Type (0, 0), BuildingBlock: CIFDUS_clean_linker_0, # of connection points: 2
#     Edge 29, Type (0, 0), BuildingBlock: CIFDUS_clean_linker_0, # of connection points: 2
#     Edge 30, Type (0, 0), BuildingBlock: CIFDUS_clean_linker_0, # of connection points: 2
#     Edge 31, Type (0, 0), BuildingBlock: CIFDUS_clean_linker_0, # of connection points: 2
#     Edge 32, Type (0, 0), BuildingBlock: CIFDUS_clean_linker_0, # of connection points: 2
#     Edge 33, Type (0, 0), BuildingBlock: CIFDUS_clean_linker_0, # of connection points: 2
#     Edge 34, Type (0, 0), BuildingBlock: CIFDUS_clean_linker_0, # of connection points: 2
#     Edge 35, Type (0, 0), BuildingBlock: CIFDUS_clean_linker_0, # of connection points: 2
#     Edge 36, Type (0, 0), BuildingBlock: CIFDUS_clean_linker_0, # of connection points: 2
#     Edge 37, Type (0, 0), BuildingBlock: CIFDUS_clean_linker_0, # of connection points: 2
#     Edge 38, Type (0, 0), BuildingBlock: CIFDUS_clean_linker_0, # of connection points: 2
#     Edge 39, Type (0, 0), BuildingBlock: CIFDUS_clean_linker_0, # of connection points: 2
#     Edge 40, Type (0, 0), BuildingBlock: CIFDUS_clean_linker_0, # of connection points: 2
#     Edge 41, Type (0, 0), BuildingBlock: CIFDUS_clean_linker_0, # of connection points: 2
#     Edge 42, Type (0, 0), BuildingBlock: CIFDUS_clean_linker_0, # of connection points: 2
#     Edge 43, Type (0, 0), BuildingBlock: CIFDUS_clean_linker_0, # of connection points: 2
#     Edge 44, Type (0, 0), BuildingBlock: CIFDUS_clean_linker_0, # of connection points: 2
#     Edge 45, Type (0, 0), BuildingBlock: CIFDUS_clean_linker_0, # of connection points: 2
#     Edge 46, Type (0, 0), BuildingBlock: CIFDUS_clean_linker_0, # of connection points: 2
#     Edge 47, Type (0, 0), BuildingBlock: CIFDUS_clean_linker_0, # of connection points: 2
#     Edge 48, Type (0, 0), BuildingBlock: CIFDUS_clean_linker_0, # of connection points: 2
#     Edge 49, Type (0, 0), BuildingBlock: CIFDUS_clean_linker_0, # of connection points: 2
#     Edge 50, Type (0, 0), BuildingBlock: CIFDUS_clean_linker_0, # of connection points: 2
#     Edge 51, Type (0, 0), BuildingBlock: CIFDUS_clean_linker_0, # of connection points: 2
#     Edge 52, Type (0, 0), BuildingBlock: CIFDUS_clean_linker_0, # of connection points: 2
#     Edge 53, Type (0, 0), BuildingBlock: CIFDUS_clean_linker_0, # of connection points: 2
#     Edge 54, Type (0, 0), BuildingBlock: CIFDUS_clean_linker_0, # of connection points: 2
#     Edge 55, Type (0, 0), BuildingBlock: CIFDUS_clean_linker_0, # of connection points: 2
#     Edge 56, Type (0, 0), BuildingBlock: CIFDUS_clean_linker_0, # of connection points: 2
#     Edge 57, Type (0, 0), BuildingBlock: CIFDUS_clean_linker_0, # of connection points: 2
#     Edge 58, Type (0, 0), BuildingBlock: CIFDUS_clean_linker_0, # of connection points: 2
#     Edge 59, Type (0, 0), BuildingBlock: CIFDUS_clean_linker_0, # of connection points: 2
#     Edge 60, Type (0, 0), BuildingBlock: CIFDUS_clean_linker_0, # of connection points: 2
#     Edge 61, Type (0, 0), BuildingBlock: CIFDUS_clean_linker_0, # of connection points: 2
#     Edge 62, Type (0, 0), BuildingBlock: CIFDUS_clean_linker_0, # of connection points: 2
#     Edge 63, Type (0, 0), BuildingBlock: CIFDUS_clean_linker_0, # of connection points: 2
# Relax obj value: 0.068
# Max RMSD: 0.148
# Mean RMSD: 0.148
data_MOF--net-vbm--node1-BETDIP_clean_sbu_0--edge1-CIFDUS_clean_linker_0
_symmetry_space_group_name_H-M    P1
_symmetry_Int_Tables_number       1
_symmetry_cell_setting            triclinic
loop_
_symmetry_equiv_pos_as_xyz
'x, y, z'
_cell_length_a     47.673774
_cell_length_b     23.748585
_cell_length_c     47.536491
_cell_angle_alpha  90.017892
_cell_angle_beta   90.142998
_cell_angle_gamma 89.69139
loop_
_atom_site_label
_atom_site_type_symbol
_atom_site_fract_x
_atom_site_fract_y
_atom_site_fract_z
_atom_type_partial_charge
Tb0 Tb 0.13332 0.06478 0.15767 0.0
Tb1 Tb 0.11144 0.1861 0.16864 0.0
C2 C 0.14838 0.96535 0.16755 0.0
C3 C 0.14253 0.90726 0.15827 0.0
C4 C 0.11536 0.88475 0.15925 0.0
C5 C 0.1109 0.82794 0.15303 0.0
C6 C 0.13347 0.79251 0.14559 0.0
C7 C 0.16048 0.81578 0.1437 0.0
C8 C 0.16494 0.87249 0.15009 0.0
C9 C 0.124 0.1157 0.10871 0.0
C10 C 0.06771 0.09407 0.15592 0.0
C11 C 0.09834 0.28847 0.17206 0.0
C12 C 0.10675 0.34563 0.16411 0.0
C13 C 0.13378 0.35777 0.15433 0.0
C14 C 0.14153 0.41364 0.1491 0.0
C15 C 0.1222 0.4579 0.15328 0.0
C16 C 0.09492 0.445 0.1623 0.0
C17 C 0.08733 0.38943 0.1677 0.0
C18 C 0.11385 0.11555 0.21221 0.0
C19 C 0.17602 0.16545 0.16042 0.0
O20 O 0.12854 0.99165 0.18156 0.0
O21 O 0.16124 0.99812 0.14955 0.0
O22 O 0.12031 0.13498 0.13318 0.0
O23 O 0.13288 0.06429 0.11138 0.0
O24 O 0.08733 0.05453 0.15942 0.0
O25 O 0.07342 0.14814 0.15455 0.0
O26 O 0.08967 0.25533 0.1518 0.0
O27 O 0.11414 0.26229 0.19056 0.0
O28 O 0.13128 0.1205 0.1926 0.0
O29 O 0.09421 0.15257 0.20839 0.0
O30 O 0.1547 0.2007 0.15743 0.0
O31 O 0.17249 0.11064 0.16436 0.0
H32 H 0.09763 0.91055 0.16551 0.0
H33 H 0.08988 0.81139 0.15505 0.0
H34 H 0.17826 0.79003 0.1376 0.0
H35 H 0.18608 0.88895 0.1492 0.0
H36 H 0.14888 0.32428 0.15112 0.0
H37 H 0.16263 0.42225 0.14195 0.0
H38 H 0.07967 0.47808 0.16615 0.0
H39 H 0.06637 0.38076 0.1753 0.0
Tb40 Tb 0.84822 0.99676 0.16579 0.0
Tb41 Tb 0.87379 0.87609 0.16763 0.0
C42 C 0.83515 0.09447 0.18134 0.0
C43 C 0.83953 0.1533 0.17232 0.0
C44 C 0.86649 0.17446 0.1671 0.0
C45 C 0.87018 0.23129 0.16038 0.0
C46 C 0.847 0.26817 0.15858 0.0
C47 C 0.82 0.24641 0.1632 0.0
C48 C 0.81635 0.18966 0.17008 0.0
C49 C 0.84899 0.95357 0.11417 0.0
C50 C 0.91259 0.97317 0.15001 0.0
C51 C 0.88873 0.77446 0.16487 0.0
C52 C 0.87878 0.71678 0.16012 0.0
C53 C 0.85016 0.70392 0.15829 0.0
C54 C 0.84152 0.64766 0.15656 0.0
C55 C 0.86144 0.60358 0.15641 0.0
C56 C 0.8901 0.61717 0.15739 0.0
C57 C 0.89863 0.67317 0.15926 0.0
C58 C 0.87886 0.94043 0.21323 0.0
C59 C 0.80826 0.89287 0.17322 0.0
O60 O 0.85717 0.06688 0.1908 0.0
O61 O 0.81909 0.06342 0.16521 0.0
O62 O 0.8577 0.93165 0.13672 0.0
O63 O 0.83933 1.0031 0.12046 0.0
O64 O 0.89363 1.00968 0.15972 0.0
O65 O 0.90737 0.91908 0.14715 0.0
O66 O 0.88894 0.80872 0.14324 0.0
O67 O 0.88035 0.79913 0.18804 0.0
O68 O 0.85782 0.93637 0.19739 0.0
O69 O 0.89827 0.90705 0.20385 0.0
O70 O 0.82924 0.85909 0.16619 0.0
O71 O 0.81151 0.94761 0.17759 0.0
H72 H 0.88481 0.14742 0.16866 0.0
H73 H 0.89131 0.24659 0.15734 0.0
H74 H 0.80163 0.27325 0.16156 0.0
H75 H 0.79536 0.17426 0.17399 0.0
H76 H 0.8346 0.73718 0.1587 0.0
H77 H 0.81929 0.63864 0.15556 0.0
H78 H 0.90599 0.58441 0.15778 0.0
H79 H 0.92083 0.68235 0.1608 0.0
Tb80 Tb 0.13036 0.95971 0.39695 0.0
Tb81 Tb 0.10242 0.84831 0.39284 0.0
C82 C 0.14697 0.05986 0.39069 0.0
C83 C 0.13777 0.11928 0.39083 0.0
C84 C 0.15554 0.15979 0.37912 0.0
C85 C 0.1489 0.21711 0.38084 0.0
C86 C 0.12424 0.23536 0.39434 0.0
C87 C 0.10606 0.19434 0.40549 0.0
C88 C 0.11277 0.13679 0.40377 0.0
C89 C 0.12986 0.90193 0.44486 0.0
C90 C 0.0639 0.94913 0.40477 0.0
C91 C 0.08494 0.74862 0.3982 0.0
C92 C 0.09323 0.68879 0.39634 0.0
C93 C 0.07549 0.6483 0.40809 0.0
C94 C 0.08166 0.59089 0.4056 0.0
C95 C 0.10588 0.57248 0.39136 0.0
C96 C 0.12392 0.61346 0.37992 0.0
C97 C 0.1176 0.6711 0.38233 0.0
C98 C 0.10157 0.91023 0.34631 0.0
C99 C 0.16854 0.85534 0.38572 0.0
O100 O 0.13833 1.0281 0.36997 0.0
O101 O 0.14677 0.03332 0.41476 0.0
O102 O 0.11019 0.90543 0.42704 0.0
O103 O 0.15052 0.93224 0.43593 0.0
O104 O 0.08522 0.98176 0.39744 0.0
O105 O 0.06731 0.8948 0.40897 0.0
O106 O 0.09552 0.77813 0.41887 0.0
O107 O 0.08382 0.77712 0.37469 0.0
O108 O 0.12182 0.90415 0.36314 0.0
O109 O 0.08101 0.87916 0.35479 0.0
O110 O 0.14655 0.82392 0.39165 0.0
O111 O 0.16657 0.91071 0.38346 0.0
H112 H 0.17501 0.14712 0.36918 0.0
H113 H 0.16363 0.2472 0.37237 0.0
H114 H 0.0867 0.20671 0.4157 0.0
H115 H 0.09873 0.10614 0.41292 0.0
H116 H 0.05647 0.66109 0.41884 0.0
H117 H 0.06699 0.56092 0.41426 0.0
H118 H 0.14294 0.60106 0.3691 0.0
H119 H 0.13151 0.70172 0.37301 0.0
Tb120 Tb 0.85087 0.09974 0.40498 0.0
Tb121 Tb 0.87655 0.21026 0.39313 0.0
C122 C 0.83476 0.99859 0.40482 0.0
C123 C 0.8447 0.93954 0.40457 0.0
C124 C 0.86605 0.92076 0.38647 0.0
C125 C 0.87303 0.86334 0.38511 0.0
C126 C 0.85876 0.82365 0.40177 0.0
C127 C 0.8379 0.84309 0.42032 0.0
C128 C 0.83096 0.90029 0.42165 0.0
C129 C 0.85738 0.16394 0.45039 0.0
C130 C 0.91774 0.11267 0.40235 0.0
C131 C 0.89281 0.31119 0.39161 0.0
C132 C 0.8828 0.37019 0.39147 0.0
C133 C 0.86099 0.38903 0.40899 0.0
C134 C 0.85389 0.44642 0.41 0.0
C135 C 0.86846 0.48601 0.39352 0.0
C136 C 0.88971 0.46641 0.37546 0.0
C137 C 0.8968 0.40926 0.37452 0.0
C138 C 0.8715 0.14207 0.34912 0.0
C139 C 0.8103 0.20096 0.39665 0.0
O140 O 0.83844 1.0286 0.38206 0.0
O141 O 0.8391 1.02768 0.42773 0.0
O142 O 0.87445 0.1583 0.43021 0.0
O143 O 0.83576 0.13287 0.44504 0.0
O144 O 0.89586 0.07849 0.40012 0.0
O145 O 0.91459 0.16754 0.40421 0.0
O146 O 0.88978 0.28228 0.41485 0.0
O147 O 0.88777 0.28107 0.36917 0.0
O148 O 0.85375 0.15018 0.36833 0.0
O149 O 0.89273 0.17468 0.35352 0.0
O150 O 0.83259 0.23341 0.39903 0.0
O151 O 0.81258 0.1456 0.39516 0.0
H152 H 0.87695 0.95019 0.373 0.0
H153 H 0.88908 0.84989 0.37045 0.0
H154 H 0.82686 0.81404 0.43385 0.0
H155 H 0.81442 0.91381 0.43575 0.0
H156 H 0.84984 0.35969 0.42228 0.0
H157 H 0.83752 0.45992 0.42428 0.0
H158 H 0.90098 0.4953 0.36203 0.0
H159 H 0.91366 0.39563 0.36081 0.0
Tb160 Tb 0.87732 0.86607 0.89732 0.0
Tb161 Tb 0.85106 0.97947 0.90191 0.0
C162 C 0.89368 0.76537 0.90232 0.0
C163 C 0.88432 0.7064 0.90129 0.0
C164 C 0.89973 0.66601 0.91634 0.0
C165 C 0.89282 0.60904 0.91465 0.0
C166 C 0.87031 0.5911 0.89776 0.0
C167 C 0.85442 0.63198 0.88314 0.0
C168 C 0.8614 0.68921 0.88486 0.0
C169 C 0.88042 0.9292 0.85139 0.0
C170 C 0.81121 0.87869 0.89068 0.0
C171 C 0.83584 0.08092 0.89696 0.0
C172 C 0.84628 0.13886 0.89347 0.0
C173 C 0.83075 0.17643 0.87676 0.0
C174 C 0.83796 0.23334 0.87545 0.0
C175 C 0.86088 0.25403 0.89094 0.0
C176 C 0.87705 0.21578 0.90693 0.0
C177 C 0.86982 0.1587 0.9082 0.0
C178 C 0.85044 0.91969 0.94932 0.0
C179 C 0.91701 0.96348 0.90967 0.0
O180 O 0.88479 0.79605 0.92338 0.0
O181 O 0.89397 0.79333 0.87862 0.0
O182 O 0.85961 0.9249 0.86759 0.0
O183 O 0.90008 0.89564 0.86013 0.0
O184 O 0.83284 0.84521 0.89589 0.0
O185 O 0.81387 0.93392 0.88908 0.0
O186 O 0.83857 0.04651 0.87564 0.0
O187 O 0.8407 0.05616 0.92106 0.0
O188 O 0.87011 0.92274 0.93168 0.0
O189 O 0.83023 0.95188 0.94049 0.0
O190 O 0.89649 0.99736 0.90099 0.0
O191 O 0.91253 0.90989 0.91474 0.0
H192 H 0.91743 0.6785 0.92921 0.0
H193 H 0.90513 0.57902 0.92666 0.0
H194 H 0.83702 0.61964 0.86985 0.0
H195 H 0.84922 0.71981 0.87306 0.0
H196 H 0.81253 0.16197 0.86521 0.0
H197 H 0.82539 0.26126 0.86249 0.0
H198 H 0.89473 0.23025 0.91926 0.0
H199 H 0.88214 0.13049 0.92126 0.0
Tb200 Tb 0.10997 0.1911 0.88728 0.0
Tb201 Tb 0.13537 0.07937 0.89953 0.0
C202 C 0.09388 0.29244 0.88589 0.0
C203 C 0.10348 0.35093 0.89008 0.0
C204 C 0.0856 0.38902 0.90383 0.0
C205 C 0.0926 0.44596 0.90597 0.0
C206 C 0.11767 0.46627 0.8943 0.0
C207 C 0.136 0.42761 0.88119 0.0
C208 C 0.12896 0.37049 0.87906 0.0
C209 C 0.11548 0.12313 0.84324 0.0
C210 C 0.17578 0.18039 0.89311 0.0
C211 C 0.15199 0.97823 0.89946 0.0
C212 C 0.14252 0.91941 0.89654 0.0
C213 C 0.1603 0.88067 0.88313 0.0
C214 C 0.15337 0.82361 0.88189 0.0
C215 C 0.12846 0.80386 0.89413 0.0
C216 C 0.11027 0.84313 0.90699 0.0
C217 C 0.11724 0.90041 0.90821 0.0
C218 C 0.12884 0.14429 0.94475 0.0
C219 C 0.06872 0.09407 0.89397 0.0
O220 O 0.09208 0.26052 0.90825 0.0
O221 O 0.10356 0.26504 0.86405 0.0
O222 O 0.13285 0.13008 0.86294 0.0
O223 O 0.09451 0.15711 0.84703 0.0
O224 O 0.15344 0.21295 0.89573 0.0
O225 O 0.17366 0.12516 0.89081 0.0
O226 O 0.15104 1.00982 0.87695 0.0
O227 O 0.14449 1.00565 0.9221 0.0
O228 O 0.11186 0.13889 0.9244 0.0
O229 O 0.1503 0.11213 0.93975 0.0
O230 O 0.09054 0.05908 0.89321 0.0
O231 O 0.07159 0.14889 0.89559 0.0
H232 H 0.06585 0.37487 0.91248 0.0
H233 H 0.07825 0.47414 0.9167 0.0
H234 H 0.15541 0.44173 0.87181 0.0
H235 H 0.14312 0.34198 0.86828 0.0
H236 H 0.17988 0.89446 0.87395 0.0
H237 H 0.16759 0.79492 0.87132 0.0
H238 H 0.09099 0.82942 0.91678 0.0
H239 H 0.10317 0.92955 0.91869 0.0
Tb240 Tb 0.88193 0.2034 0.67277 0.0
Tb241 Tb 0.85572 0.08466 0.66406 0.0
C242 C 0.89615 0.3051 0.6742 0.0
C243 C 0.88543 0.36276 0.66923 0.0
C244 C 0.87541 0.38072 0.64285 0.0
C245 C 0.86777 0.43723 0.63859 0.0
C246 C 0.86991 0.47658 0.66065 0.0
C247 C 0.87942 0.45795 0.6871 0.0
C248 C 0.88712 0.40182 0.69128 0.0
C249 C 0.87711 0.13661 0.7174 0.0
C250 C 0.81628 0.19198 0.66649 0.0
C251 C 0.83874 0.98887 0.67825 0.0
C252 C 0.84304 0.92755 0.67473 0.0
C253 C 0.85133 0.89598 0.6983 0.0
C254 C 0.85255 0.83736 0.69707 0.0
C255 C 0.84532 0.80863 0.67226 0.0
C256 C 0.83789 0.8402 0.64829 0.0
C257 C 0.83661 0.89923 0.64954 0.0
C258 C 0.86516 0.13174 0.61436 0.0
C259 C 0.9224 0.10434 0.66023 0.0
O260 O 0.90036 0.27222 0.65238 0.0
O261 O 0.88555 0.27824 0.69573 0.0
O262 O 0.85988 0.14305 0.69759 0.0
O263 O 0.89832 0.16925 0.71293 0.0
O264 O 0.83863 0.22408 0.66379 0.0
O265 O 0.81798 0.13653 0.6699 0.0
O266 O 0.8586 1.01623 0.69153 0.0
O267 O 0.8277 1.01794 0.65743 0.0
O268 O 0.87044 0.15115 0.63854 0.0
O269 O 0.85427 0.08222 0.61784 0.0
O270 O 0.90148 0.06809 0.66416 0.0
O271 O 0.91863 0.15933 0.65908 0.0
H272 H 0.8739 0.35148 0.62543 0.0
H273 H 0.86034 0.45021 0.61803 0.0
H274 H 0.88183 0.48718 0.70442 0.0
H275 H 0.89506 0.38916 0.71172 0.0
H276 H 0.8562 0.91666 0.71803 0.0
H277 H 0.85885 0.8144 0.71575 0.0
H278 H 0.83212 0.81924 0.6289 0.0
H279 H 0.82994 0.92242 0.63107 0.0
Tb280 Tb 0.11112 0.8551 0.66262 0.0
Tb281 Tb 0.1381 0.97475 0.66253 0.0
C282 C 0.09596 0.75451 0.65608 0.0
C283 C 0.10707 0.6965 0.6551 0.0
C284 C 0.09139 0.65492 0.64141 0.0
C285 C 0.09943 0.59828 0.64301 0.0
C286 C 0.12345 0.58201 0.65833 0.0
C287 C 0.13976 0.62428 0.67114 0.0
C288 C 0.13155 0.68095 0.66965 0.0
C289 C 0.10801 0.91577 0.70953 0.0
C290 C 0.17713 0.86723 0.6699 0.0
C291 C 0.15279 0.07024 0.67981 0.0
C292 C 0.14935 0.13001 0.67224 0.0
C293 C 0.16881 0.16915 0.68235 0.0
C294 C 0.16552 0.22651 0.67653 0.0
C295 C 0.1426 0.24598 0.66047 0.0
C296 C 0.12331 0.20634 0.64999 0.0
C297 C 0.12666 0.14884 0.65582 0.0
C298 C 0.13449 0.93539 0.61014 0.0
C299 C 0.0727 0.95679 0.64918 0.0
O300 O 0.10205 0.78807 0.63509 0.0
O301 O 0.09723 0.77995 0.68049 0.0
O302 O 0.12856 0.91231 0.69301 0.0
O303 O 0.0882 0.88347 0.70022 0.0
O304 O 0.1555 0.83425 0.66443 0.0
O305 O 0.17473 0.92267 0.67277 0.0
O306 O 0.1302 0.0442 0.68847 0.0
O307 O 0.16803 0.03929 0.66279 0.0
O308 O 0.12648 0.91293 0.63271 0.0
O309 O 0.14525 0.98356 0.61693 0.0
O310 O 0.09266 0.99094 0.65872 0.0
O311 O 0.07711 0.90267 0.64454 0.0
H312 H 0.07228 0.66603 0.63028 0.0
H313 H 0.0861 0.56709 0.63322 0.0
H314 H 0.15861 0.61353 0.68274 0.0
H315 H 0.14381 0.71235 0.68058 0.0
H316 H 0.18651 0.15536 0.69499 0.0
H317 H 0.18102 0.25562 0.68455 0.0
H318 H 0.10527 0.21985 0.6378 0.0
H319 H 0.11137 0.11922 0.64784 0.0
Tb320 Tb 0.63264 0.59938 0.16359 0.0
Tb321 Tb 0.60495 0.71065 0.17082 0.0
C322 C 0.64923 0.49848 0.1677 0.0
C323 C 0.63953 0.43945 0.16623 0.0
C324 C 0.61547 0.42089 0.18044 0.0
C325 C 0.60834 0.36362 0.18036 0.0
C326 C 0.62513 0.32375 0.1661 0.0
C327 C 0.64882 0.34296 0.15143 0.0
C328 C 0.65592 0.40003 0.15156 0.0
C329 C 0.62918 0.65912 0.11672 0.0
C330 C 0.56554 0.61097 0.16099 0.0
C331 C 0.58827 0.81168 0.16838 0.0
C332 C 0.59817 0.87054 0.17004 0.0
C333 C 0.62239 0.88887 0.15602 0.0
C334 C 0.6297 0.94605 0.15623 0.0
C335 C 0.61294 0.98604 0.17044 0.0
C336 C 0.58914 0.967 0.185 0.0
C337 C 0.58186 0.91003 0.18473 0.0
C338 C 0.60981 0.64822 0.21698 0.0
C339 C 0.67138 0.70261 0.17244 0.0
O340 O 0.64097 0.52908 0.18907 0.0
O341 O 0.64944 0.52705 0.14422 0.0
O342 O 0.61032 0.6551 0.13533 0.0
O343 O 0.65034 0.62801 0.12409 0.0
O344 O 0.58762 0.57779 0.16553 0.0
O345 O 0.56819 0.66574 0.1581 0.0
O346 O 0.59564 0.78193 0.14639 0.0
O347 O 0.58893 0.78215 0.19157 0.0
O348 O 0.62776 0.6548 0.19801 0.0
O349 O 0.5881 0.67907 0.21106 0.0
O350 O 0.64902 0.73424 0.16757 0.0
O351 O 0.66945 0.64743 0.17558 0.0
H352 H 0.60245 0.45037 0.19198 0.0
H353 H 0.59007 0.35042 0.19206 0.0
H354 H 0.66193 0.31387 0.13976 0.0
H355 H 0.67458 0.41334 0.14046 0.0
H356 H 0.63536 0.85928 0.14449 0.0
H357 H 0.64807 0.95908 0.14464 0.0
H358 H 0.57605 0.99617 0.19665 0.0
H359 H 0.56311 0.89688 0.19572 0.0
Tb360 Tb 0.35502 0.4523 0.1555 0.0
Tb361 Tb 0.38178 0.3412 0.1654 0.0
C362 C 0.33833 0.55338 0.15753 0.0
C363 C 0.3482 0.61235 0.15721 0.0
C364 C 0.37036 0.63096 0.17434 0.0
C365 C 0.37745 0.68823 0.17513 0.0
C366 C 0.36252 0.72802 0.15884 0.0
C367 C 0.3408 0.70875 0.14128 0.0
C368 C 0.33372 0.65169 0.14055 0.0
C369 C 0.36075 0.39063 0.10948 0.0
C370 C 0.42204 0.4401 0.15745 0.0
C371 C 0.39851 0.2401 0.16535 0.0
C372 C 0.38854 0.18123 0.16578 0.0
C373 C 0.36616 0.16278 0.1489 0.0
C374 C 0.35892 0.10558 0.14825 0.0
C375 C 0.37392 0.06572 0.16445 0.0
C376 C 0.39582 0.0849 0.18182 0.0
C377 C 0.40304 0.14188 0.18241 0.0
C378 C 0.37487 0.40566 0.21062 0.0
C379 C 0.31545 0.34984 0.16203 0.0
O380 O 0.34399 0.52283 0.17976 0.0
O381 O 0.34079 0.52469 0.1342 0.0
O382 O 0.37864 0.39531 0.12908 0.0
O383 O 0.33926 0.42199 0.11539 0.0
O384 O 0.39984 0.4736 0.16033 0.0
O385 O 0.41944 0.38525 0.15488 0.0
O386 O 0.39402 0.26964 0.14252 0.0
O387 O 0.39487 0.2698 0.18821 0.0
O388 O 0.3578 0.39844 0.19078 0.0
O389 O 0.39677 0.37447 0.20612 0.0
O390 O 0.33796 0.31778 0.15887 0.0
O391 O 0.31743 0.405 0.16516 0.0
H392 H 0.38186 0.60153 0.18748 0.0
H393 H 0.39418 0.70149 0.18905 0.0
H394 H 0.3292 0.73779 0.12803 0.0
H395 H 0.31654 0.63835 0.12718 0.0
H396 H 0.35461 0.19229 0.13585 0.0
H397 H 0.34205 0.09242 0.13449 0.0
H398 H 0.40746 0.05584 0.19502 0.0
H399 H 0.42035 0.15515 0.19562 0.0
Tb400 Tb 0.6336 0.49552 0.40474 0.0
Tb401 Tb 0.60581 0.38432 0.39861 0.0
C402 C 0.65055 0.59574 0.40066 0.0
C403 C 0.64158 0.65538 0.40023 0.0
C404 C 0.61832 0.67424 0.3846 0.0
C405 C 0.61216 0.732 0.38284 0.0
C406 C 0.62914 0.77194 0.39664 0.0
C407 C 0.65202 0.75243 0.41271 0.0
C408 C 0.65812 0.69492 0.41447 0.0
C409 C 0.6331 0.43388 0.45143 0.0
C410 C 0.56719 0.48499 0.41187 0.0
C411 C 0.58848 0.28418 0.40054 0.0
C412 C 0.59766 0.22468 0.40063 0.0
C413 C 0.62151 0.20617 0.41544 0.0
C414 C 0.62802 0.14852 0.41686 0.0
C415 C 0.61085 0.10841 0.40344 0.0
C416 C 0.58745 0.12759 0.38805 0.0
C417 C 0.58096 0.185 0.38669 0.0
C418 C 0.60381 0.44982 0.35359 0.0
C419 C 0.67209 0.39214 0.39413 0.0
O420 O 0.64401 0.56416 0.37907 0.0
O421 O 0.64835 0.56886 0.42452 0.0
O422 O 0.61351 0.43884 0.43368 0.0
O423 O 0.65376 0.46501 0.44321 0.0
O424 O 0.58863 0.51811 0.40556 0.0
O425 O 0.57033 0.43012 0.41461 0.0
O426 O 0.59398 0.31461 0.42285 0.0
O427 O 0.59184 0.31228 0.37717 0.0
O428 O 0.62459 0.44292 0.36976 0.0
O429 O 0.58363 0.41764 0.36182 0.0
O430 O 0.65008 0.36062 0.39983 0.0
O431 O 0.66993 0.4473 0.3913 0.0
H432 H 0.60519 0.64454 0.37343 0.0
H433 H 0.59415 0.74538 0.37056 0.0
H434 H 0.66584 0.78171 0.42327 0.0
H435 H 0.6763 0.68134 0.42646 0.0
H436 H 0.63482 0.23605 0.42627 0.0
H437 H 0.64642 0.13534 0.42859 0.0
H438 H 0.57353 0.0981 0.37776 0.0
H439 H 0.5624 0.19835 0.37524 0.0
Tb440 Tb 0.3396 0.55107 0.39542 0.0
Tb441 Tb 0.36813 0.66172 0.39526 0.0
C442 C 0.32404 0.45069 0.38757 0.0
C443 C 0.3335 0.3913 0.38955 0.0
C444 C 0.35812 0.37168 0.37651 0.0
C445 C 0.36516 0.31421 0.37731 0.0
C446 C 0.34773 0.27521 0.3911 0.0
C447 C 0.32339 0.29542 0.40448 0.0
C448 C 0.31637 0.35265 0.40365 0.0
C449 C 0.33444 0.60825 0.44302 0.0
C450 C 0.40489 0.56032 0.41055 0.0
C451 C 0.38396 0.76226 0.4017 0.0
C452 C 0.37442 0.82129 0.39795 0.0
C453 C 0.3492 0.84157 0.4095 0.0
C454 C 0.34209 0.89885 0.40741 0.0
C455 C 0.36002 0.93708 0.39372 0.0
C456 C 0.38488 0.91611 0.38162 0.0
C457 C 0.39199 0.85905 0.3838 0.0
C458 C 0.37374 0.60126 0.34867 0.0
C459 C 0.30291 0.65581 0.38171 0.0
O460 O 0.33483 0.48245 0.36791 0.0
O461 O 0.32075 0.47787 0.41122 0.0
O462 O 0.35637 0.60457 0.4282 0.0
O463 O 0.31498 0.57831 0.4314 0.0
O464 O 0.38425 0.52833 0.40089 0.0
O465 O 0.40136 0.61465 0.41482 0.0
O466 O 0.37223 0.73231 0.42154 0.0
O467 O 0.38836 0.73294 0.37886 0.0
O468 O 0.35173 0.60716 0.36304 0.0
O469 O 0.39334 0.63165 0.35972 0.0
O470 O 0.32435 0.68631 0.3903 0.0
O471 O 0.30502 0.60066 0.37842 0.0
H472 H 0.37169 0.40049 0.36538 0.0
H473 H 0.38396 0.30019 0.36659 0.0
H474 H 0.30973 0.26701 0.41574 0.0
H475 H 0.29726 0.3667 0.41382 0.0
H476 H 0.3352 0.81347 0.42055 0.0
H477 H 0.32287 0.91336 0.41718 0.0
H478 H 0.39894 0.9438 0.37041 0.0
H479 H 0.41155 0.84447 0.37471 0.0
Tb480 Tb 0.37892 0.3598 0.88959 0.0
Tb481 Tb 0.35303 0.47086 0.90085 0.0
C482 C 0.39443 0.25822 0.88645 0.0
C483 C 0.38402 0.19974 0.88744 0.0
C484 C 0.36682 0.1802 0.90928 0.0
C485 C 0.35974 0.12305 0.91089 0.0
C486 C 0.36972 0.08438 0.8907 0.0
C487 C 0.38619 0.10469 0.86843 0.0
C488 C 0.39329 0.16161 0.86689 0.0
C489 C 0.37629 0.42996 0.84603 0.0
C490 C 0.3129 0.3706 0.89034 0.0
C491 C 0.33729 0.57247 0.90045 0.0
C492 C 0.34753 0.63114 0.89941 0.0
C493 C 0.36412 0.65108 0.87716 0.0
C494 C 0.37091 0.70835 0.87541 0.0
C495 C 0.36119 0.74683 0.8958 0.0
C496 C 0.3452 0.72629 0.91836 0.0
C497 C 0.33842 0.66921 0.92008 0.0
C498 C 0.35262 0.40294 0.94473 0.0
C499 C 0.41987 0.45453 0.90311 0.0
O500 O 0.39425 0.2874 0.90982 0.0
O501 O 0.38718 0.28852 0.86465 0.0
O502 O 0.35773 0.42152 0.86421 0.0
O503 O 0.39746 0.39731 0.8514 0.0
O504 O 0.33499 0.33783 0.89429 0.0
O505 O 0.31532 0.42591 0.88838 0.0
O506 O 0.33986 0.54151 0.87779 0.0
O507 O 0.34231 0.54394 0.92345 0.0
O508 O 0.37281 0.40839 0.9276 0.0
O509 O 0.33275 0.43769 0.93793 0.0
O510 O 0.39845 0.48991 0.89969 0.0
O511 O 0.41634 0.3998 0.9037 0.0
H512 H 0.35936 0.20873 0.92544 0.0
H513 H 0.34715 0.10891 0.92843 0.0
H514 H 0.39375 0.0765 0.85219 0.0
H515 H 0.40656 0.17573 0.84983 0.0
H516 H 0.37133 0.62279 0.86079 0.0
H517 H 0.38309 0.72272 0.85763 0.0
H518 H 0.33778 0.75442 0.9347 0.0
H519 H 0.3255 0.65493 0.93736 0.0
Tb520 Tb 0.6066 0.70469 0.90037 0.0
Tb521 Tb 0.63372 0.5931 0.90397 0.0
C522 C 0.59117 0.80619 0.90441 0.0
C523 C 0.60134 0.86455 0.90096 0.0
C524 C 0.6239 0.88574 0.91677 0.0
C525 C 0.63103 0.94282 0.91512 0.0
C526 C 0.61578 0.97991 0.89763 0.0
C527 C 0.59378 0.95803 0.88123 0.0
C528 C 0.58661 0.90113 0.88297 0.0
C529 C 0.60328 0.64208 0.85424 0.0
C530 C 0.67235 0.69402 0.89041 0.0
C531 C 0.64923 0.49178 0.89925 0.0
C532 C 0.63925 0.43296 0.89955 0.0
C533 C 0.61772 0.41395 0.88172 0.0
C534 C 0.61071 0.35665 0.88099 0.0
C535 C 0.62517 0.31738 0.89797 0.0
C536 C 0.64622 0.33704 0.9162 0.0
C537 C 0.65319 0.39406 0.91691 0.0
C538 C 0.63799 0.65395 0.95044 0.0
C539 C 0.56782 0.60708 0.91451 0.0
O540 O 0.60107 0.77656 0.92546 0.0
O541 O 0.58834 0.77613 0.88156 0.0
O542 O 0.62431 0.64758 0.87 0.0
O543 O 0.58316 0.67363 0.86363 0.0
O544 O 0.65094 0.72669 0.89738 0.0
O545 O 0.66961 0.6389 0.88804 0.0
O546 O 0.64226 0.52375 0.87789 0.0
O547 O 0.64858 0.51904 0.92312 0.0
O548 O 0.61635 0.64979 0.93511 0.0
O549 O 0.65761 0.62256 0.93997 0.0
O550 O 0.58851 0.57367 0.90594 0.0
O551 O 0.57185 0.66114 0.91869 0.0
H552 H 0.63563 0.85862 0.9309 0.0
H553 H 0.64794 0.95817 0.92823 0.0
H554 H 0.58192 0.98496 0.86712 0.0
H555 H 0.5691 0.88588 0.87061 0.0
H556 H 0.60667 0.44302 0.86801 0.0
H557 H 0.5945 0.34292 0.86659 0.0
H558 H 0.6574 0.30828 0.92996 0.0
H559 H 0.6699 0.4077 0.93079 0.0
Tb560 Tb 0.37934 0.67695 0.65852 0.0
Tb561 Tb 0.35083 0.56519 0.65931 0.0
C562 C 0.3957 0.7763 0.64909 0.0
C563 C 0.38699 0.83598 0.65131 0.0
C564 C 0.4032 0.87704 0.6379 0.0
C565 C 0.39694 0.93435 0.6411 0.0
C566 C 0.37418 0.95212 0.65779 0.0
C567 C 0.35756 0.91053 0.67076 0.0
C568 C 0.36396 0.85304 0.66761 0.0
C569 C 0.38191 0.62193 0.70692 0.0
C570 C 0.31355 0.67124 0.66943 0.0
C571 C 0.33475 0.46582 0.66944 0.0
C572 C 0.3431 0.40602 0.66692 0.0
C573 C 0.32647 0.36509 0.6799 0.0
C574 C 0.33244 0.30772 0.67654 0.0
C575 C 0.35531 0.28975 0.66007 0.0
C576 C 0.37231 0.33116 0.64747 0.0
C577 C 0.36625 0.38875 0.65084 0.0
C578 C 0.34972 0.6173 0.60986 0.0
C579 C 0.41706 0.57327 0.64843 0.0
O580 O 0.38291 0.74506 0.63039 0.0
O581 O 0.40001 0.74935 0.6727 0.0
O582 O 0.36096 0.62522 0.69073 0.0
O583 O 0.40189 0.65257 0.69686 0.0
O584 O 0.33519 0.70151 0.66115 0.0
O585 O 0.31582 0.61644 0.67398 0.0
O586 O 0.34848 0.49691 0.68748 0.0
O587 O 0.32951 0.49278 0.64605 0.0
O588 O 0.37007 0.61531 0.62688 0.0
O589 O 0.32952 0.58748 0.62011 0.0
O590 O 0.39562 0.54187 0.65663 0.0
O591 O 0.41406 0.62749 0.64318 0.0
H592 H 0.4212 0.86481 0.62539 0.0
H593 H 0.41054 0.96475 0.63115 0.0
H594 H 0.33964 0.92234 0.68344 0.0
H595 H 0.35123 0.82203 0.67824 0.0
H596 H 0.30839 0.37752 0.69227 0.0
H597 H 0.31859 0.27743 0.68622 0.0
H598 H 0.39031 0.31911 0.63495 0.0
H599 H 0.37937 0.41968 0.64062 0.0
Tb600 Tb 0.61606 0.38698 0.66965 0.0
Tb601 Tb 0.64512 0.50532 0.6669 0.0
C602 C 0.601 0.2857 0.6661 0.0
C603 C 0.61234 0.22822 0.66157 0.0
C604 C 0.59682 0.18994 0.64541 0.0
C605 C 0.60504 0.13336 0.64358 0.0
C606 C 0.62899 0.1136 0.65797 0.0
C607 C 0.64511 0.15261 0.67335 0.0
C608 C 0.63684 0.20925 0.67518 0.0
C609 C 0.6176 0.44885 0.71615 0.0
C610 C 0.68259 0.39587 0.67026 0.0
C611 C 0.66087 0.60105 0.68307 0.0
C612 C 0.65551 0.66082 0.67633 0.0
C613 C 0.67233 0.70235 0.68865 0.0
C614 C 0.66657 0.75954 0.68414 0.0
C615 C 0.64376 0.77646 0.66721 0.0
C616 C 0.62726 0.73443 0.65442 0.0
C617 C 0.63308 0.67718 0.65893 0.0
C618 C 0.63881 0.46317 0.61551 0.0
C619 C 0.57883 0.49098 0.65608 0.0
O620 O 0.60082 0.32044 0.64462 0.0
O621 O 0.60783 0.31062 0.68973 0.0
O622 O 0.63661 0.44354 0.69804 0.0
O623 O 0.59658 0.41754 0.70892 0.0
O624 O 0.66007 0.36518 0.66516 0.0
O625 O 0.68137 0.45097 0.67507 0.0
O626 O 0.63981 0.57365 0.69421 0.0
O627 O 0.67429 0.57114 0.66412 0.0
O628 O 0.63109 0.44288 0.63869 0.0
O629 O 0.65085 0.51081 0.62105 0.0
O630 O 0.59998 0.5245 0.66331 0.0
O631 O 0.58143 0.43574 0.65377 0.0
H632 H 0.57782 0.20351 0.63478 0.0
H633 H 0.5924 0.10492 0.63111 0.0
H634 H 0.66355 0.13903 0.68488 0.0
H635 H 0.64913 0.23774 0.68797 0.0
H636 H 0.68965 0.69056 0.70227 0.0
H637 H 0.67949 0.79047 0.69467 0.0
H638 H 0.60976 0.74577 0.64097 0.0
H639 H 0.61985 0.64572 0.6492 0.0
H640 H 0.18929 0.27528 0.16503 0.0
H641 H 0.22691 0.11054 0.15643 0.0
H642 H 0.27365 0.15325 0.15629 0.0
H643 H 0.30344 0.23783 0.15822 0.0
H644 H 0.26458 0.40185 0.16665 0.0
H645 H 0.2184 0.35858 0.16691 0.0
C646 C 0.20759 0.24849 0.1628 0.0
C647 C 0.20453 0.18981 0.16041 0.0
C648 C 0.23412 0.27322 0.16271 0.0
C649 C 0.22865 0.15585 0.15823 0.0
C650 C 0.25534 0.18026 0.15812 0.0
C651 C 0.28489 0.26417 0.16013 0.0
C652 C 0.28752 0.32311 0.16241 0.0
C653 C 0.25829 0.23898 0.16029 0.0
C654 C 0.26323 0.35648 0.16489 0.0
C655 C 0.23679 0.33178 0.16503 0.0
H656 H 0.79659 0.78286 0.18066 0.0
H657 H 0.75691 0.94561 0.17171 0.0
H658 H 0.71074 0.90079 0.17159 0.0
H659 H 0.68217 0.81497 0.17147 0.0
H660 H 0.7226 0.65236 0.17926 0.0
H661 H 0.76828 0.69784 0.18194 0.0
C662 C 0.7779 0.80864 0.17852 0.0
C663 C 0.7802 0.86738 0.17575 0.0
C664 C 0.75167 0.78261 0.17806 0.0
C665 C 0.7557 0.90027 0.17384 0.0
C666 C 0.72934 0.87465 0.17361 0.0
C667 C 0.70094 0.78937 0.17381 0.0
C668 C 0.69896 0.73023 0.17499 0.0
C669 C 0.72715 0.81576 0.17528 0.0
C670 C 0.7235 0.69787 0.17823 0.0
C671 C 0.74963 0.72383 0.17978 0.0
H672 H 0.29335 0.7684 0.37978 0.0
H673 H 0.25114 0.60819 0.37482 0.0
H674 H 0.20573 0.65653 0.37417 0.0
H675 H 0.17825 0.74355 0.37855 0.0
H676 H 0.22049 0.9036 0.38383 0.0
H677 H 0.26588 0.85571 0.38082 0.0
C678 C 0.27426 0.74391 0.37831 0.0
C679 C 0.27564 0.68466 0.37761 0.0
C680 C 0.2483 0.77188 0.37823 0.0
C681 C 0.25069 0.65378 0.37539 0.0
C682 C 0.22472 0.68138 0.37517 0.0
C683 C 0.19734 0.76809 0.37889 0.0
C684 C 0.19596 0.82707 0.3817 0.0
C685 C 0.2233 0.74031 0.37717 0.0
C686 C 0.22093 0.85818 0.38176 0.0
C687 C 0.2469 0.83082 0.38008 0.0
H688 H 0.79846 0.31256 0.39171 0.0
H689 H 0.75904 0.14981 0.39858 0.0
H690 H 0.71283 0.19468 0.39748 0.0
H691 H 0.68377 0.28 0.39571 0.0
H692 H 0.72323 0.4427 0.38858 0.0
H693 H 0.76937 0.39762 0.38846 0.0
C694 C 0.7798 0.28677 0.39296 0.0
C695 C 0.78225 0.22786 0.39537 0.0
C696 C 0.75332 0.31278 0.39221 0.0
C697 C 0.75779 0.19521 0.39673 0.0
C698 C 0.73135 0.22084 0.39612 0.0
C699 C 0.70242 0.30572 0.394 0.0
C700 C 0.69999 0.36474 0.39225 0.0
C701 C 0.72889 0.27958 0.39401 0.0
C702 C 0.72444 0.39722 0.38993 0.0
C703 C 0.75086 0.3715 0.38993 0.0
H704 H 0.68443 0.80558 0.88843 0.0
H705 H 0.72296 0.64077 0.88405 0.0
H706 H 0.76933 0.6838 0.8823 0.0
H707 H 0.7989 0.7677 0.88493 0.0
H708 H 0.76035 0.93247 0.88941 0.0
H709 H 0.71392 0.8897 0.88805 0.0
C710 C 0.70293 0.77897 0.88689 0.0
C711 C 0.70021 0.71998 0.8866 0.0
C712 C 0.72951 0.80392 0.88603 0.0
C713 C 0.72442 0.68627 0.88435 0.0
C714 C 0.75096 0.71082 0.88344 0.0
C715 C 0.78037 0.79438 0.88545 0.0
C716 C 0.78314 0.85321 0.88752 0.0
C717 C 0.75375 0.76954 0.88474 0.0
C718 C 0.75887 0.88708 0.88787 0.0
C719 C 0.73229 0.86266 0.88717 0.0
H720 H 0.30162 0.25898 0.89094 0.0
H721 H 0.26144 0.42238 0.88764 0.0
H722 H 0.21542 0.37745 0.88822 0.0
H723 H 0.18691 0.29218 0.89059 0.0
H724 H 0.22725 0.12893 0.89363 0.0
H725 H 0.27318 0.17388 0.89235 0.0
C726 C 0.28285 0.28497 0.89028 0.0
C727 C 0.28498 0.34404 0.88932 0.0
C728 C 0.25657 0.25896 0.8907 0.0
C729 C 0.2604 0.37686 0.88835 0.0
C730 C 0.23409 0.35121 0.88876 0.0
C731 C 0.20571 0.26629 0.891 0.0
C732 C 0.20363 0.20722 0.89231 0.0
C733 C 0.23198 0.29234 0.89011 0.0
C734 C 0.22824 0.17444 0.89264 0.0
C735 C 0.2545 0.2001 0.89191 0.0
H736 H 0.69175 0.283 0.66697 0.0
H737 H 0.73513 0.4417 0.67406 0.0
H738 H 0.78014 0.39199 0.67322 0.0
H739 H 0.80685 0.30432 0.67023 0.0
H740 H 0.76371 0.14521 0.66404 0.0
H741 H 0.71854 0.19483 0.66487 0.0
C742 C 0.71098 0.30695 0.66842 0.0
C743 C 0.70999 0.36619 0.67057 0.0
C744 C 0.73671 0.27812 0.66804 0.0
C745 C 0.73522 0.39621 0.67245 0.0
C746 C 0.76096 0.3678 0.67192 0.0
C747 C 0.78763 0.28019 0.66895 0.0
C748 C 0.7887 0.22096 0.66691 0.0
C749 C 0.7619 0.30885 0.66964 0.0
C750 C 0.76351 0.19072 0.66559 0.0
C751 C 0.73771 0.21908 0.66605 0.0
H752 H 0.1884 0.75601 0.67698 0.0
H753 H 0.22884 0.91732 0.66883 0.0
H754 H 0.27477 0.87081 0.66931 0.0
H755 H 0.30304 0.78403 0.66929 0.0
H756 H 0.26227 0.62296 0.6777 0.0
H757 H 0.21665 0.67001 0.67993 0.0
C758 C 0.20719 0.78119 0.67542 0.0
C759 C 0.20509 0.8401 0.67261 0.0
C760 C 0.23342 0.7542 0.67566 0.0
C761 C 0.22979 0.87195 0.671 0.0
C762 C 0.25606 0.84535 0.67117 0.0
C763 C 0.28424 0.75912 0.67181 0.0
C764 C 0.28612 0.69991 0.67313 0.0
C765 C 0.25807 0.78644 0.67307 0.0
C766 C 0.26148 0.66849 0.67661 0.0
C767 C 0.23537 0.69537 0.67781 0.0
H768 H 0.14408 0.948 0.31243 0.0
H769 H 0.05508 0.96297 0.32639 0.0
H770 H 0.05095 1.02864 0.28695 0.0
H771 H 0.07248 0.08148 0.24782 0.0
H772 H 0.16068 0.06052 0.23104 0.0
H773 H 0.1653 0.99777 0.27173 0.0
C774 C 0.12384 0.96585 0.30682 0.0
C775 C 0.09992 0.95078 0.32244 0.0
C776 C 0.12146 1.00246 0.28341 0.0
C777 C 0.07378 0.97373 0.31471 0.0
C778 C 0.07141 1.01138 0.29213 0.0
C779 C 0.0927 0.06315 0.25311 0.0
C780 C 0.11624 0.07603 0.23649 0.0
C781 C 0.09506 1.02595 0.27621 0.0
C782 C 0.14223 0.05139 0.24345 0.0
C783 C 0.14489 1.01553 0.26679 0.0
H784 H 0.91223 0.10127 0.31446 0.0
H785 H 0.823 0.09697 0.32842 0.0
H786 H 0.81705 0.03658 0.287 0.0
H787 H 0.83736 0.98449 0.24648 0.0
H788 H 0.92701 0.98303 0.23505 0.0
H789 H 0.93267 0.04601 0.27542 0.0
C790 C 0.89148 0.08711 0.3084 0.0
C791 C 0.86806 0.10399 0.32442 0.0
C792 C 0.88831 0.05132 0.28487 0.0
C793 C 0.84137 0.08468 0.31648 0.0
C794 C 0.83796 0.0502 0.29273 0.0
C795 C 0.8581 0.99814 0.25284 0.0
C796 C 0.88174 0.9793 0.23766 0.0
C797 C 0.86127 0.03325 0.27669 0.0
C798 C 0.9085 0.99683 0.24635 0.0
C799 C 0.91174 0.03291 0.26946 0.0
H800 H 0.91684 0.09634 0.75398 0.0
H801 H 0.82821 0.0916 0.73628 0.0
H802 H 0.82083 0.02991 0.77682 0.0
H803 H 0.83973 0.97551 0.81736 0.0
H804 H 0.92886 0.97488 0.83266 0.0
H805 H 0.93585 0.04018 0.79358 0.0
C806 C 0.89592 0.08189 0.75907 0.0
C807 C 0.8731 0.09882 0.74213 0.0
C808 C 0.8919 0.04528 0.78217 0.0
C809 C 0.84615 0.07925 0.74892 0.0
C810 C 0.84191 0.04395 0.77216 0.0
C811 C 0.86062 0.98995 0.81215 0.0
C812 C 0.88374 0.97038 0.82798 0.0
C813 C 0.86462 1.02649 0.78898 0.0
C814 C 0.91073 0.98904 0.82078 0.0
C815 C 0.91475 1.02649 0.7984 0.0
H816 H 0.07481 0.08276 0.80843 0.0
H817 H 0.1639 0.0754 0.82355 0.0
H818 H 0.16985 1.01287 0.78291 0.0
H819 H 0.14956 0.95958 0.74278 0.0
H820 H 0.05999 0.96136 0.73031 0.0
H821 H 0.05438 1.02653 0.7698 0.0
C822 C 0.09553 0.0675 0.80278 0.0
C823 C 0.11891 0.08408 0.81891 0.0
C824 C 0.09869 0.03045 0.77972 0.0
C825 C 0.14556 0.06332 0.81152 0.0
C826 C 0.14897 1.02762 0.78822 0.0
C827 C 0.12885 0.97439 0.74874 0.0
C828 C 0.10521 0.95577 0.73352 0.0
C829 C 0.1257 1.01084 0.7721 0.0
C830 C 0.0785 0.97487 0.74168 0.0
C831 C 0.07528 1.01225 0.76427 0.0
H832 H 0.6455 0.49356 0.32036 0.0
H833 H 0.5561 0.49689 0.33362 0.0
H834 H 0.54999 0.56003 0.29351 0.0
H835 H 0.5697 0.61222 0.25341 0.0
H836 H 0.65861 0.60425 0.23777 0.0
H837 H 0.66527 0.54533 0.27956 0.0
C838 C 0.62476 0.50853 0.31451 0.0
C839 C 0.60129 0.49061 0.32999 0.0
C840 C 0.62127 0.54383 0.29076 0.0
C841 C 0.5745 0.50986 0.322 0.0
C842 C 0.57096 0.54602 0.29903 0.0
C843 C 0.59053 0.59774 0.25925 0.0
C844 C 0.61362 0.61275 0.24252 0.0
C845 C 0.59413 0.5629 0.28305 0.0
C846 C 0.64046 0.59322 0.25024 0.0
C847 C 0.64429 0.55956 0.27419 0.0
H848 H 0.33411 0.55896 0.31247 0.0
H849 H 0.42283 0.55733 0.33014 0.0
H850 H 0.43107 0.49566 0.28981 0.0
H851 H 0.41331 0.44308 0.24873 0.0
H852 H 0.32512 0.44941 0.22889 0.0
H853 H 0.31644 0.50805 0.27039 0.0
C854 C 0.35519 0.54485 0.30749 0.0
C855 C 0.37782 0.56265 0.32435 0.0
C856 C 0.3599 0.51028 0.28369 0.0
C857 C 0.40506 0.54444 0.31748 0.0
C858 C 0.4098 0.50907 0.2944 0.0
C859 C 0.3922 0.45721 0.25356 0.0
C860 C 0.36989 0.44164 0.23579 0.0
C861 C 0.38744 0.4919 0.27723 0.0
C862 C 0.34268 0.46079 0.24219 0.0
C863 C 0.33769 0.49431 0.26598 0.0
H864 H 0.41676 0.46767 0.81027 0.0
H865 H 0.32761 0.47325 0.82481 0.0
H866 H 0.32099 0.53078 0.78257 0.0
H867 H 0.34065 0.58041 0.74118 0.0
H868 H 0.43018 0.58009 0.72881 0.0
H869 H 0.43652 0.51987 0.77004 0.0
C870 C 0.3959 0.48147 0.80414 0.0
C871 C 0.37271 0.4659 0.82061 0.0
C872 C 0.3923 0.51559 0.78005 0.0
C873 C 0.34584 0.48464 0.81254 0.0
C874 C 0.34202 0.51749 0.78832 0.0
C875 C 0.36149 0.56695 0.74753 0.0
C876 C 0.3849 0.58458 0.73188 0.0
C877 C 0.36508 0.53329 0.77184 0.0
C878 C 0.41182 0.56727 0.74052 0.0
C879 C 0.41548 0.53273 0.76412 0.0
H880 H 0.64623 0.59958 0.82262 0.0
H881 H 0.55612 0.60122 0.8295 0.0
H882 H 0.55237 0.54039 0.78808 0.0
H883 H 0.57475 0.48721 0.74926 0.0
H884 H 0.66468 0.49118 0.74048 0.0
H885 H 0.6685 0.54909 0.78289 0.0
C886 C 0.62581 0.58646 0.81504 0.0
C887 C 0.60148 0.60478 0.82917 0.0
C888 C 0.62379 0.55249 0.79072 0.0
C889 C 0.57515 0.58786 0.81896 0.0
C890 C 0.573 0.55298 0.79527 0.0
C891 C 0.59516 0.50072 0.7567 0.0
C892 C 0.61941 0.48465 0.74179 0.0
C893 C 0.59716 0.53513 0.78088 0.0
C894 C 0.64569 0.50294 0.75155 0.0
C895 C 0.64789 0.53605 0.77585 0.0
H896 H 0.16037 0.18449 0.98794 0.0
H897 H 0.07783 0.12256 0.9683 0.0
H898 H 0.06699 0.11602 1.01851 0.0
H899 H 0.08396 0.11375 0.06797 0.0
H900 H 0.16571 0.17913 0.08759 0.0
H901 H 0.17374 0.1997 0.03777 0.0
C902 C 0.13972 0.17119 0.9947 0.0
C903 C 0.11999 0.1538 0.97439 0.0
C904 C 0.13357 0.16793 1.02371 0.0
C905 C 0.09334 0.13652 0.98343 0.0
C906 C 0.08721 0.13235 1.01221 0.0
C907 C 0.10298 0.13483 0.06141 0.0
C908 C 0.12404 0.14589 0.08147 0.0
C909 C 0.10749 0.14611 0.03257 0.0
C910 C 0.14895 0.17157 0.07263 0.0
C911 C 0.15369 0.18257 0.04406 0.0
H912 H 0.81088 0.91526 0.99008 0.0
H913 H 0.90008 0.90108 0.97734 0.0
H914 H 0.90776 0.90118 1.02834 0.0
H915 H 0.88925 0.9189 0.07665 0.0
H916 H 0.80002 0.93553 0.08823 0.0
H917 H 0.79216 0.91975 0.03808 0.0
C918 C 0.83196 0.91106 0.99848 0.0
C919 C 0.85485 0.90883 0.97988 0.0
C920 C 0.83622 0.91168 1.02784 0.0
C921 C 0.88205 0.90304 0.99113 0.0
C922 C 0.88647 0.90336 1.02037 0.0
C923 C 0.86811 0.91688 0.06824 0.0
C924 C 0.84517 0.92756 0.08614 0.0
C925 C 0.86377 0.90941 0.03898 0.0
C926 C 0.81792 0.9266 0.0749 0.0
C927 C 0.81343 0.91814 0.04616 0.0
H928 H 0.1698 0.89458 0.48529 0.0
H929 H 0.08024 0.88853 0.47347 0.0
H930 H 0.07337 0.88978 0.5246 0.0
H931 H 0.09299 0.9055 0.57278 0.0
H932 H 0.18262 0.91416 0.58328 0.0
H933 H 0.18934 0.89797 0.53303 0.0
C934 C 0.14878 0.89244 0.49391 0.0
C935 C 0.12559 0.89202 0.47553 0.0
C936 C 0.14501 0.89376 0.52331 0.0
C937 C 0.0985 0.88895 0.48708 0.0
C938 C 0.09455 0.88995 0.51639 0.0
C939 C 0.11394 0.90177 0.56411 0.0
C940 C 0.13735 0.91019 0.58177 0.0
C941 C 0.11764 0.89402 0.53477 0.0
C942 C 0.16436 0.90701 0.57016 0.0
C943 C 0.1682 0.89827 0.54136 0.0
H944 H 0.9049 0.13582 0.5733 0.0
H945 H 0.82096 0.18923 0.59366 0.0
H946 H 0.81162 0.20992 0.54407 0.0
H947 H 0.82498 0.19824 0.49416 0.0
H948 H 0.90938 0.14757 0.47355 0.0
H949 H 0.92107 0.14118 0.52365 0.0
C950 C 0.88503 0.15435 0.56695 0.0
C951 C 0.86379 0.16199 0.58717 0.0
C952 C 0.87971 0.16553 0.53818 0.0
C953 C 0.83781 0.18427 0.57858 0.0
C954 C 0.83235 0.19537 0.55014 0.0
C955 C 0.84614 0.18732 0.50068 0.0
C956 C 0.86619 0.17305 0.48012 0.0
C957 C 0.85276 0.18403 0.52961 0.0
C958 C 0.89355 0.15899 0.48888 0.0
C959 C 0.9002 0.15493 0.51759 0.0
H960 H 0.66842 0.6818 0.078 0.0
H961 H 0.57906 0.66533 0.08773 0.0
H962 H 0.57298 0.669 0.03639 0.0
H963 H 0.5942 0.66478 0.98831 0.0
H964 H 0.68396 0.67975 0.98024 0.0
H965 H 0.68871 0.68962 0.03102 0.0
C966 C 0.64754 0.68014 0.06889 0.0
C967 C 0.62428 0.67287 0.08661 0.0
C968 C 0.64432 0.68157 0.03949 0.0
C969 C 0.59733 0.67108 0.07456 0.0
C970 C 0.59389 0.67275 0.04516 0.0
C971 C 0.61466 0.67158 0.99769 0.0
C972 C 0.63876 0.67105 0.9805 0.0
C973 C 0.61735 0.67627 1.02731 0.0
C974 C 0.66514 0.67958 0.99299 0.0
C975 C 0.6679 0.68505 1.02208 0.0
H976 H 0.39713 0.39994 0.98223 0.0
H977 H 0.30999 0.35634 0.97236 0.0
H978 H 0.30584 0.3407 1.02282 0.0
H979 H 0.32457 0.35436 0.07027 0.0
H980 H 0.41121 0.39915 0.08178 0.0
H981 H 0.41816 0.39874 0.03056 0.0
C982 C 0.37758 0.38513 0.99111 0.0
C983 C 0.35383 0.37938 0.97359 0.0
C984 C 0.37512 0.37745 1.02058 0.0
C985 C 0.32851 0.36104 0.98542 0.0
C986 C 0.32606 0.35245 1.01432 0.0
C987 C 0.34517 0.36254 0.06155 0.0
C988 C 0.36726 0.37705 0.07971 0.0
C989 C 0.34884 0.36281 0.0322 0.0
C990 C 0.39388 0.38755 0.06822 0.0
C991 C 0.39777 0.38779 0.03889 0.0
H992 H 0.67274 0.41727 0.49142 0.0
H993 H 0.58318 0.42526 0.47962 0.0
H994 H 0.57629 0.42543 0.53069 0.0
H995 H 0.59641 0.43817 0.57873 0.0
H996 H 0.68608 0.43177 0.58952 0.0
H997 H 0.69228 0.41484 0.53924 0.0
C998 C 0.6517 0.41777 0.50006 0.0
C999 C 0.62856 0.42196 0.48176 0.0
C1000 C 0.64793 0.41826 0.52943 0.0
C1001 C 0.60138 0.42218 0.49323 0.0
C1002 C 0.59744 0.42258 0.52249 0.0
C1003 C 0.61715 0.43075 0.57012 0.0
C1004 C 0.64078 0.43544 0.58777 0.0
C1005 C 0.6206 0.42257 0.54084 0.0
C1006 C 0.66762 0.42748 0.57634 0.0
C1007 C 0.67119 0.41842 0.54754 0.0
H1008 H 0.30742 0.62503 0.57223 0.0
H1009 H 0.39747 0.63315 0.57848 0.0
H1010 H 0.40106 0.63652 0.52699 0.0
H1011 H 0.37839 0.62746 0.47981 0.0
H1012 H 0.28813 0.61906 0.47492 0.0
H1013 H 0.28484 0.62617 0.52592 0.0
C1014 C 0.32783 0.62835 0.56233 0.0
C1015 C 0.35213 0.62829 0.57916 0.0
C1016 C 0.32969 0.62988 0.5328 0.0
C1017 C 0.37841 0.63306 0.56603 0.0
C1018 C 0.38047 0.6347 0.53654 0.0
C1019 C 0.35803 0.62827 0.48993 0.0
C1020 C 0.33352 0.62214 0.47352 0.0
C1021 C 0.35625 0.63176 0.51962 0.0
C1022 C 0.30731 0.62321 0.487 0.0
C1023 C 0.30539 0.62715 0.51623 0.0
H1024 H 0.93654 0.07308 0.16395 0.0
H1025 H 0.95462 0.91215 0.12555 0.0
H1026 H 0.00436 0.93431 0.12432 0.0
H1027 H 0.04344 0.99749 0.13657 0.0
H1028 H 0.02476 0.15896 0.17398 0.0
H1029 H 0.9749 0.13827 0.17329 0.0
C1030 C 0.95127 0.04325 0.15489 0.0
C1031 C 0.94182 0.99098 0.14513 0.0
C1032 C 0.97996 0.05594 0.1544 0.0
C1033 C 0.96129 0.95271 0.13347 0.0
C1034 C 0.98984 0.96515 0.13283 0.0
C1035 C 0.02839 1.0279 0.14457 0.0
C1036 C 0.03774 0.07943 0.15534 0.0
C1037 C -0.00048 1.01616 0.14378 0.0
C1038 C 0.01805 0.11894 0.1654 0.0
C1039 C 0.98949 0.10725 0.16505 0.0
H1040 H 0.93478 1.00489 0.41223 0.0
H1041 H 0.96558 0.17103 0.39281 0.0
H1042 H 0.01357 0.1359 0.39281 0.0
H1043 H 0.04696 0.05775 0.39734 0.0
H1044 H 0.01629 0.89187 0.41769 0.0
H1045 H 0.96839 0.92732 0.41849 0.0
C1046 C 0.95201 0.03328 0.40799 0.0
C1047 C 0.9466 0.09029 0.40253 0.0
C1048 C 0.9797 1.01302 0.40826 0.0
C1049 C 0.96915 0.12682 0.39724 0.0
C1050 C -0.00333 0.10686 0.39718 0.0
C1051 C 0.02983 0.02948 0.40215 0.0
C1052 C 0.03527 0.97235 0.40733 0.0
C1053 C 0.0022 0.05002 0.4026 0.0
C1054 C 0.01278 0.9362 0.41357 0.0
C1055 C 0.98529 0.9563 0.41397 0.0
H1056 H 0.04719 1.00193 0.91969 0.0
H1057 H 0.02594 0.14146 0.86552 0.0
H1058 H 0.97654 0.11555 0.86679 0.0
H1059 H 0.93927 0.05424 0.88384 0.0
H1060 H 0.96003 0.91539 0.93875 0.0
H1061 H 0.00952 0.94056 0.93712 0.0
C1062 C 0.0317 1.02594 0.90792 0.0
C1063 C 0.03994 0.07318 0.89251 0.0
C1064 C 0.00321 1.01167 0.90929 0.0
C1065 C 0.01983 0.10482 0.87759 0.0
C1066 C 0.99163 0.09028 0.87839 0.0
C1067 C 0.95459 0.03009 0.89578 0.0
C1068 C 0.94608 0.98334 0.91144 0.0
C1069 C 0.98302 0.04425 0.89447 0.0
C1070 C 0.96615 0.95174 0.9265 0.0
C1071 C -0.00553 0.96584 0.92549 0.0
H1072 H 0.94193 1.00064 0.64388 0.0
H1073 H 0.96898 0.16419 0.67254 0.0
H1074 H 0.0177 0.13456 0.66989 0.0
H1075 H 0.05288 0.06179 0.661 0.0
H1076 H 0.02659 0.89826 0.63157 0.0
H1077 H 0.97774 0.92859 0.63261 0.0
C1078 C 0.95852 0.02961 0.64955 0.0
C1079 C 0.95175 0.0844 0.65839 0.0
C1080 C 0.98679 1.01255 0.64771 0.0
C1081 C 0.97352 0.12175 0.66546 0.0
C1082 C 0.00149 0.10493 0.66401 0.0
C1083 C 0.03654 0.03293 0.65449 0.0
C1084 C 0.04353 0.97782 0.64639 0.0
C1085 C 0.00839 0.05042 0.65526 0.0
C1086 C 0.02194 0.94104 0.63801 0.0
C1087 C -0.00611 0.9582 0.63869 0.0
H1088 H 0.43701 0.55058 0.15642 0.0
H1089 H 0.47148 0.38203 0.1584 0.0
H1090 H 0.51883 0.41964 0.15945 0.0
H1091 H 0.55068 0.50031 0.16049 0.0
H1092 H 0.51616 0.6688 0.15779 0.0
H1093 H 0.46887 0.63115 0.15629 0.0
C1094 C 0.45487 0.52209 0.15702 0.0
C1095 C 0.45064 0.46369 0.15734 0.0
C1096 C 0.48216 0.54389 0.1575 0.0
C1097 C 0.47406 0.42731 0.15805 0.0
C1098 C 0.50122 0.44869 0.1587 0.0
C1099 C 0.53283 0.52876 0.1595 0.0
C1100 C 0.53704 0.58718 0.15927 0.0
C1101 C 0.50554 0.50692 0.15853 0.0
C1102 C 0.51362 0.62351 0.15792 0.0
C1103 C 0.48647 0.6021 0.15711 0.0
H1104 H 0.4531 0.61842 0.41651 0.0
H1105 H 0.42042 0.44928 0.41242 0.0
H1106 H 0.46819 0.41135 0.41443 0.0
H1107 H 0.51877 0.42666 0.41443 0.0
H1108 H 0.55153 0.59592 0.41545 0.0
H1109 H 0.50373 0.63367 0.41761 0.0
C1110 C 0.45632 0.57318 0.41644 0.0
C1111 C 0.43325 0.53661 0.41442 0.0
C1112 C 0.48373 0.55189 0.41684 0.0
C1113 C 0.43785 0.47822 0.41399 0.0
C1114 C 0.46512 0.45659 0.41508 0.0
C1115 C 0.51557 0.47186 0.41541 0.0
C1116 C 0.53868 0.50852 0.41483 0.0
C1117 C 0.48817 0.49311 0.41605 0.0
C1118 C 0.53409 0.56689 0.41584 0.0
C1119 C 0.5068 0.58843 0.41707 0.0
H1120 H 0.4378 0.55957 0.91795 0.0
H1121 H 0.46733 0.39484 0.8929 0.0
H1122 H 0.51564 0.42624 0.89584 0.0
H1123 H 0.5497 0.50086 0.90401 0.0
H1124 H 0.52079 0.66554 0.92983 0.0
H1125 H 0.47237 0.63352 0.92844 0.0
C1126 C 0.45484 0.53071 0.91315 0.0
C1127 C 0.44893 0.47513 0.9052 0.0
C1128 C 0.4828 0.5488 0.91514 0.0
C1129 C 0.47124 0.43792 0.89924 0.0
C1130 C 0.49896 0.45574 0.90087 0.0
C1131 C 0.53286 0.52959 0.90964 0.0
C1132 C 0.53893 0.58546 0.91687 0.0
C1133 C 0.505 0.51111 0.90869 0.0
C1134 C 0.51678 0.62216 0.92411 0.0
C1135 C 0.489 0.60404 0.92323 0.0
H1136 H 0.46626 0.62916 0.64477 0.0
H1137 H 0.43162 0.46165 0.64856 0.0
H1138 H 0.47896 0.4216 0.6495 0.0
H1139 H 0.52971 0.43456 0.65192 0.0
H1140 H 0.56435 0.60229 0.65064 0.0
H1141 H 0.51715 0.642 0.64596 0.0
C1142 C 0.46899 0.58381 0.64545 0.0
C1143 C 0.44543 0.54838 0.64652 0.0
C1144 C 0.49618 0.56124 0.64662 0.0
C1145 C 0.4494 0.48981 0.64772 0.0
C1146 C 0.47644 0.46693 0.6483 0.0
C1147 C 0.52707 0.47984 0.65036 0.0
C1148 C 0.55059 0.51543 0.65165 0.0
C1149 C 0.49993 0.50232 0.64818 0.0
C1150 C 0.54664 0.57396 0.6498 0.0
C1151 C 0.51966 0.59667 0.64711 0.0
H1152 H 0.16733 0.706 0.16259 0.0
H1153 H 0.08948 0.74057 0.11914 0.0
H1154 H 0.08005 0.63983 0.11607 0.0
H1155 H 0.09263 0.54229 0.12805 0.0
H1156 H 0.17043 0.50787 0.17145 0.0
H1157 H 0.18166 0.60813 0.17122 0.0
C1158 C 0.14856 0.69161 0.15192 0.0
C1159 C 0.12904 0.73106 0.14133 0.0
C1160 C 0.1433 0.63359 0.15012 0.0
C1161 C 0.10463 0.71134 0.12796 0.0
C1162 C 0.09928 0.65369 0.12605 0.0
C1163 C 0.1121 0.55675 0.13734 0.0
C1164 C 0.13056 0.51771 0.14994 0.0
C1165 C 0.11823 0.61451 0.1375 0.0
C1166 C 0.15595 0.53694 0.16144 0.0
C1167 C 0.16227 0.59434 0.16153 0.0
H1168 H 0.81932 0.35743 0.18213 0.0
H1169 H 0.88406 0.31675 0.12199 0.0
H1170 H 0.89315 0.41675 0.11492 0.0
H1171 H 0.88406 0.51566 0.12718 0.0
H1172 H 0.81933 0.55631 0.18725 0.0
H1173 H 0.80818 0.45652 0.19209 0.0
C1174 C 0.83508 0.3703 0.16709 0.0
C1175 C 0.85112 0.3293 0.15281 0.0
C1176 C 0.84012 0.42799 0.16297 0.0
C1177 C 0.87174 0.34714 0.1337 0.0
C1178 C 0.87685 0.40441 0.12949 0.0
C1179 C 0.86747 0.5027 0.1413 0.0
C1180 C 0.85269 0.5435 0.15695 0.0
C1181 C 0.86144 0.44517 0.1443 0.0
C1182 C 0.8309 0.52598 0.17475 0.0
C1183 C 0.82467 0.46882 0.17773 0.0
H1184 H 0.1329 0.32015 0.35627 0.0
H1185 H 0.10254 0.28967 0.44034 0.0
H1186 H 0.09456 0.39039 0.4469 0.0
H1187 H 0.09722 0.48751 0.42932 0.0
H1188 H 0.12731 0.51809 0.34514 0.0
H1189 H 0.13533 0.41737 0.33859 0.0
C1190 C 0.12469 0.33546 0.37611 0.0
C1191 C 0.1183 0.29693 0.39773 0.0
C1192 C 0.12044 0.39371 0.37991 0.0
C1193 C 0.10726 0.31788 0.42312 0.0
C1194 C 0.10291 0.37568 0.42701 0.0
C1195 C 0.10531 0.47227 0.40941 0.0
C1196 C 0.11165 0.51085 0.3878 0.0
C1197 C 0.1095 0.41402 0.40559 0.0
C1198 C 0.12262 0.48989 0.36237 0.0
C1199 C 0.12699 0.43208 0.35848 0.0
H1200 H 0.9053 0.5738 0.39321 0.0
H1201 H 0.81687 0.53697 0.39816 0.0
H1202 H 0.80622 0.63749 0.40133 0.0
H1203 H 0.82187 0.73598 0.40193 0.0
H1204 H 0.91027 0.77276 0.39677 0.0
H1205 H 0.92093 0.67224 0.39357 0.0
C1206 C 0.88365 0.58765 0.39466 0.0
C1207 C 0.86194 0.54752 0.3954 0.0
C1208 C 0.87762 0.64564 0.39624 0.0
C1209 C 0.83406 0.56659 0.39788 0.0
C1210 C 0.82792 0.62419 0.39952 0.0
C1211 C 0.84351 0.72208 0.40038 0.0
C1212 C 0.86522 0.76217 0.39965 0.0
C1213 C 0.84952 0.66409 0.39873 0.0
C1214 C 0.89309 0.74313 0.39707 0.0
C1215 C 0.89923 0.68554 0.39541 0.0
H1216 H 0.82382 0.34196 0.8932 0.0
H1217 H 0.91242 0.30447 0.88913 0.0
H1218 H 0.923 0.40495 0.89056 0.0
H1219 H 0.90717 0.50341 0.893 0.0
H1220 H 0.81861 0.54103 0.89725 0.0
H1221 H 0.80796 0.4406 0.89481 0.0
C1222 C 0.84545 0.3557 0.89225 0.0
C1223 C 0.86728 0.31546 0.89106 0.0
C1224 C 0.8514 0.41363 0.89296 0.0
C1225 C 0.8952 0.33428 0.8904 0.0
C1226 C 0.90127 0.39181 0.89106 0.0
C1227 C 0.88552 0.4897 0.89362 0.0
C1228 C 0.86374 0.52992 0.89544 0.0
C1229 C 0.87955 0.43183 0.89247 0.0
C1230 C 0.8358 0.51122 0.8956 0.0
C1231 C 0.82969 0.45371 0.89439 0.0
H1232 H 0.08175 0.55499 0.88666 0.0
H1233 H 0.16858 0.51593 0.90419 0.0
H1234 H 0.17947 0.61629 0.90556 0.0
H1235 H 0.1643 0.71521 0.90239 0.0
H1236 H 0.07747 0.75421 0.88488 0.0
H1237 H 0.06653 0.65386 0.88376 0.0
C1238 C 0.10302 0.56832 0.8911 0.0
C1239 C 0.12429 0.52765 0.89535 0.0
C1240 C 0.10913 0.62619 0.89205 0.0
C1241 C 0.15183 0.54603 0.90051 0.0
C1242 C 0.15806 0.60351 0.90147 0.0
C1243 C 0.14301 0.70184 0.89805 0.0
C1244 C 0.12177 0.74249 0.89367 0.0
C1245 C 0.13689 0.64397 0.89723 0.0
C1246 C 0.0942 0.72411 0.88864 0.0
C1247 C 0.08795 0.66664 0.88782 0.0
H1248 H 0.86536 0.73659 0.63191 0.0
H1249 H 0.82357 0.73987 0.71233 0.0
H1250 H 0.82563 0.63745 0.71477 0.0
H1251 H 0.84159 0.54733 0.69556 0.0
H1252 H 0.88439 0.54273 0.61576 0.0
H1253 H 0.87883 0.6448 0.61115 0.0
C1254 C 0.85639 0.71478 0.64976 0.0
C1255 C 0.84473 0.74598 0.6721 0.0
C1256 C 0.85774 0.65556 0.65113 0.0
C1257 C 0.83323 0.71702 0.69513 0.0
C1258 C 0.83425 0.65839 0.69649 0.0
C1259 C 0.84969 0.56862 0.67713 0.0
C1260 C 0.86362 0.53742 0.65619 0.0
C1261 C 0.84692 0.62732 0.67489 0.0
C1262 C 0.87342 0.56559 0.63214 0.0
C1263 C 0.87046 0.62407 0.6296 0.0
H1264 H 0.15055 0.3327 0.69721 0.0
H1265 H 0.12569 0.29762 0.61165 0.0
H1266 H 0.11847 0.39814 0.60315 0.0
H1267 H 0.11892 0.49608 0.62009 0.0
H1268 H 0.14303 0.53034 0.70601 0.0
H1269 H 0.15181 0.43041 0.71385 0.0
C1270 C 0.14389 0.347 0.67657 0.0
C1271 C 0.13866 0.30742 0.65513 0.0
C1272 C 0.13987 0.4049 0.67178 0.0
C1273 C 0.12953 0.32691 0.62868 0.0
C1274 C 0.12556 0.38448 0.62373 0.0
C1275 C 0.12598 0.48176 0.64059 0.0
C1276 C 0.13033 0.5211 0.66237 0.0
C1277 C 0.13053 0.42387 0.64517 0.0
C1278 C 0.13993 0.5015 0.68865 0.0
C1279 C 0.14471 0.44413 0.69327 0.0
H1280 H 0.57682 0.07547 0.16572 0.0
H1281 H 0.66487 0.03504 0.17375 0.0
H1282 H 0.6763 0.13515 0.17286 0.0
H1283 H 0.66132 0.23436 0.17074 0.0
H1284 H 0.57326 0.27468 0.16275 0.0
H1285 H 0.56185 0.17458 0.16361 0.0
C1286 C 0.59852 0.08843 0.16759 0.0
C1287 C 0.61991 0.04737 0.16985 0.0
C1288 C 0.60496 0.14621 0.1673 0.0
C1289 C 0.64794 0.06536 0.17166 0.0
C1290 C 0.65451 0.12274 0.17134 0.0
C1291 C 0.63963 0.22136 0.16889 0.0
C1292 C 0.61821 0.26239 0.16666 0.0
C1293 C 0.63319 0.16356 0.16918 0.0
C1294 C 0.5902 0.24438 0.16484 0.0
C1295 C 0.58365 0.18701 0.16514 0.0
H1296 H 0.32601 0.81729 0.15898 0.0
H1297 H 0.41439 0.77717 0.16195 0.0
H1298 H 0.42556 0.87731 0.16414 0.0
H1299 H 0.41038 0.97639 0.1643 0.0
H1300 H 0.32201 1.01659 0.16142 0.0
H1301 H 0.31083 0.91645 0.15921 0.0
C1302 C 0.34775 0.83035 0.15981 0.0
C1303 C 0.3693 0.78937 0.16026 0.0
C1304 C 0.35407 0.88816 0.16086 0.0
C1305 C 0.39731 0.80744 0.16191 0.0
C1306 C 0.40375 0.86483 0.16298 0.0
C1307 C 0.38864 0.96338 0.1635 0.0
C1308 C 0.3671 1.00437 0.16307 0.0
C1309 C 0.38231 0.90557 0.16246 0.0
C1310 C 0.33908 0.98632 0.16144 0.0
C1311 C 0.33263 0.92892 0.16036 0.0
H1312 H 0.60632 1.02657 0.36316 0.0
H1313 H 0.62754 0.05109 0.45061 0.0
H1314 H 0.63465 0.94985 0.45629 0.0
H1315 H 0.63379 0.854 0.43682 0.0
H1316 H 0.61288 0.82944 0.34928 0.0
H1317 H 0.60579 0.93066 0.34358 0.0
C1318 C 0.61236 1.00981 0.38352 0.0
C1319 C 0.61643 0.04673 0.40639 0.0
C1320 C 0.61613 0.95133 0.38675 0.0
C1321 C 0.62467 1.02404 0.43249 0.0
C1322 C 0.62851 0.96598 0.43584 0.0
C1323 C 0.62789 0.87071 0.41641 0.0
C1324 C 0.62383 0.83374 0.39355 0.0
C1325 C 0.62421 0.92919 0.41315 0.0
C1326 C 0.61571 0.85646 0.3674 0.0
C1327 C 0.61189 0.91453 0.36404 0.0
H1328 H 0.3959 1.02624 0.39859 0.0
H1329 H 0.30848 0.98692 0.38578 0.0
H1330 H 0.2971 0.0872 0.38396 0.0
H1331 H 0.31192 0.18623 0.3854 0.0
H1332 H 0.39937 0.22548 0.39789 0.0
H1333 H 0.4108 0.12516 0.39946 0.0
C1334 C 0.37437 0.03942 0.39505 0.0
C1335 C 0.35312 0.9986 0.39235 0.0
C1336 C 0.36797 0.09732 0.39374 0.0
C1337 C 0.32528 1.01701 0.38833 0.0
C1338 C 0.31875 0.0745 0.38709 0.0
C1339 C 0.33347 0.17295 0.38871 0.0
C1340 C 0.35471 0.21373 0.39158 0.0
C1341 C 0.33991 0.11504 0.3898 0.0
C1342 C 0.38259 0.19535 0.3953 0.0
C1343 C 0.38913 0.13787 0.39639 0.0
H1344 H 0.32568 0.83501 0.90613 0.0
H1345 H 0.41028 0.79698 0.87984 0.0
H1346 H 0.42017 0.89745 0.87574 0.0
H1347 H 0.40515 0.99608 0.88044 0.0
H1348 H 0.32049 0.03425 0.90651 0.0
H1349 H 0.31059 0.93378 0.91066 0.0
C1350 C 0.34639 0.84862 0.89978 0.0
C1351 C 0.36721 0.80824 0.89336 0.0
C1352 C 0.352 0.90656 0.8976 0.0
C1353 C 0.39374 0.82691 0.88463 0.0
C1354 C 0.39948 0.88444 0.88243 0.0
C1355 C 0.38441 0.98254 0.88673 0.0
C1356 C 0.3636 1.02297 0.89309 0.0
C1357 C 0.37877 0.92463 0.88886 0.0
C1358 C 0.33703 1.00432 0.90177 0.0
C1359 C 0.33129 0.94678 0.90399 0.0
H1360 H 0.66216 0.22937 0.89829 0.0
H1361 H 0.5736 0.2673 0.89444 0.0
H1362 H 0.563 0.16674 0.89336 0.0
H1363 H 0.57877 0.0681 0.89522 0.0
H1364 H 0.6674 0.03031 0.8988 0.0
H1365 H 0.67797 0.13078 0.89912 0.0
C1366 C 0.6405 0.21571 0.89744 0.0
C1367 C 0.61871 0.25604 0.89659 0.0
C1368 C 0.63455 0.15779 0.89703 0.0
C1369 C 0.59082 0.23737 0.89488 0.0
C1370 C 0.58472 0.1798 0.89444 0.0
C1371 C 0.60044 0.08169 0.89568 0.0
C1372 C 0.62224 0.04136 0.89702 0.0
C1373 C 0.60641 0.13964 0.89564 0.0
C1374 C 0.65015 0.06015 0.89816 0.0
C1375 C 0.65624 0.11769 0.89816 0.0
H1376 H 0.379 0.03891 0.61994 0.0
H1377 H 0.35715 1.00465 0.70632 0.0
H1378 H 0.34955 0.10494 0.7146 0.0
H1379 H 0.35017 0.20295 0.69781 0.0
H1380 H 0.3722 0.23727 0.6115 0.0
H1381 H 0.37962 0.13691 0.60316 0.0
C1382 C 0.37279 0.05324 0.64067 0.0
C1383 C 0.36863 1.01366 0.66242 0.0
C1384 C 0.36881 0.11134 0.64547 0.0
C1385 C 0.36009 0.03355 0.68898 0.0
C1386 C 0.35597 0.09116 0.69384 0.0
C1387 C 0.35639 0.18859 0.67708 0.0
C1388 C 0.36066 0.22818 0.65537 0.0
C1389 C 0.36034 0.1305 0.67228 0.0
C1390 C 0.36918 0.20832 0.6288 0.0
C1391 C 0.3732 0.15069 0.62391 0.0
H1392 H 0.67948 0.86568 0.66057 0.0
H1393 H 0.59157 0.82509 0.667 0.0
H1394 H 0.57938 0.92471 0.66372 0.0
H1395 H 0.59355 1.02377 0.6611 0.0
H1396 H 0.68136 0.0651 0.65489 0.0
H1397 H 0.69363 0.96512 0.65672 0.0
C1398 C 0.65765 0.87857 0.66137 0.0
C1399 C 0.63652 0.83751 0.664 0.0
C1400 C 0.65072 0.93627 0.65977 0.0
C1401 C 0.60832 0.85532 0.66457 0.0
C1402 C 0.6013 0.91248 0.66292 0.0
C1403 C 0.61537 1.01104 0.65972 0.0
C1404 C 0.63646 0.0523 0.65787 0.0
C1405 C 0.62231 0.95336 0.66068 0.0
C1406 C 0.66466 0.03459 0.65667 0.0
C1407 C 0.67171 0.97729 0.65757 0.0
loop_
_geom_bond_atom_site_label_1
_geom_bond_atom_site_label_2
_geom_bond_distance
_geom_bond_site_symmetry_2
_ccdc_geom_bond_type
Tb0 C2 2.809 1_545 S
Tb0 O20 2.484 1_545 S
Tb0 O21 2.440 1_545 S
Tb0 O22 2.658 . S
Tb0 O23 2.409 . S
Tb0 O24 2.378 . S
Tb0 O28 2.325 . S
Tb0 O31 2.341 . S
Tb1 C11 2.809 . S
Tb1 O22 2.325 . S
Tb1 O25 2.341 . S
Tb1 O26 2.484 . S
Tb1 O27 2.440 . S
Tb1 O28 2.658 . S
Tb1 O29 2.409 . S
Tb1 O30 2.378 . S
C2 Tb0 2.809 1_565 S
C2 C3 1.514 . S
C2 O20 1.248 . S
C2 O21 1.266 . S
C3 C2 1.514 . S
C3 C4 1.359 . S
C3 C8 1.348 . S
C4 C3 1.359 . S
C4 C5 1.380 . S
C4 H32 0.929 . S
C5 C4 1.380 . S
C5 C6 1.347 . S
C5 H33 0.931 . S
C6 C5 1.347 . S
C6 C7 1.369 . S
C7 C6 1.369 . S
C7 C8 1.408 . S
C7 H34 0.930 . S
C8 C3 1.348 . S
C8 C7 1.408 . S
C8 H35 0.930 . S
C9 O22 1.281 . S
C9 O23 1.254 . S
C10 O24 1.236 . S
C10 O25 1.266 . S
C11 Tb1 2.809 . S
C11 C12 1.514 . S
C11 O26 1.248 . S
C11 O27 1.266 . S
C12 C11 1.514 . S
C12 C13 1.359 . S
C12 C17 1.348 . S
C13 C12 1.359 . S
C13 C14 1.380 . S
C13 H36 0.929 . S
C14 C13 1.380 . S
C14 C15 1.347 . S
C14 H37 0.931 . S
C15 C14 1.347 . S
C15 C16 1.369 . S
C16 C15 1.369 . S
C16 C17 1.408 . S
C16 H38 0.930 . S
C17 C12 1.348 . S
C17 C16 1.408 . S
C17 H39 0.930 . S
C18 O28 1.281 . S
C18 O29 1.254 . S
C19 O30 1.236 . S
C19 O31 1.266 . S
O20 Tb0 2.484 1_565 S
O20 C2 1.248 . S
O21 Tb0 2.440 1_565 S
O21 C2 1.266 . S
O22 Tb0 2.658 . S
O22 Tb1 2.325 . S
O22 C9 1.281 . S
O23 Tb0 2.409 . S
O23 C9 1.254 . S
O24 Tb0 2.378 . S
O24 C10 1.236 . S
O25 Tb1 2.341 . S
O25 C10 1.266 . S
O26 Tb1 2.484 . S
O26 C11 1.248 . S
O27 Tb1 2.440 . S
O27 C11 1.266 . S
O28 Tb0 2.325 . S
O28 Tb1 2.658 . S
O28 C18 1.281 . S
O29 Tb1 2.409 . S
O29 C18 1.254 . S
O30 Tb1 2.378 . S
O30 C19 1.236 . S
O31 Tb0 2.341 . S
O31 C19 1.266 . S
H32 C4 0.929 . S
H33 C5 0.931 . S
H34 C7 0.930 . S
H35 C8 0.930 . S
H36 C13 0.929 . S
H37 C14 0.931 . S
H38 C16 0.930 . S
H39 C17 0.930 . S
Tb40 C42 2.809 1_565 S
Tb40 O60 2.484 1_565 S
Tb40 O61 2.440 1_565 S
Tb40 O62 2.658 . S
Tb40 O63 2.409 . S
Tb40 O64 2.378 . S
Tb40 O68 2.325 . S
Tb40 O71 2.341 . S
Tb41 C51 2.809 . S
Tb41 O62 2.325 . S
Tb41 O65 2.341 . S
Tb41 O66 2.484 . S
Tb41 O67 2.440 . S
Tb41 O68 2.658 . S
Tb41 O69 2.409 . S
Tb41 O70 2.378 . S
C42 Tb40 2.809 1_545 S
C42 C43 1.514 . S
C42 O60 1.248 . S
C42 O61 1.266 . S
C43 C42 1.514 . S
C43 C44 1.359 . S
C43 C48 1.348 . S
C44 C43 1.359 . S
C44 C45 1.380 . S
C44 H72 0.929 . S
C45 C44 1.380 . S
C45 C46 1.347 . S
C45 H73 0.931 . S
C46 C45 1.347 . S
C46 C47 1.369 . S
C47 C46 1.369 . S
C47 C48 1.408 . S
C47 H74 0.930 . S
C48 C43 1.348 . S
C48 C47 1.408 . S
C48 H75 0.930 . S
C49 O62 1.281 . S
C49 O63 1.254 . S
C50 O64 1.236 . S
C50 O65 1.266 . S
C51 Tb41 2.809 . S
C51 C52 1.514 . S
C51 O66 1.248 . S
C51 O67 1.266 . S
C52 C51 1.514 . S
C52 C53 1.359 . S
C52 C57 1.348 . S
C53 C52 1.359 . S
C53 C54 1.380 . S
C53 H76 0.929 . S
C54 C53 1.380 . S
C54 C55 1.347 . S
C54 H77 0.931 . S
C55 C54 1.347 . S
C55 C56 1.369 . S
C56 C55 1.369 . S
C56 C57 1.408 . S
C56 H78 0.930 . S
C57 C52 1.348 . S
C57 C56 1.408 . S
C57 H79 0.930 . S
C58 O68 1.281 . S
C58 O69 1.254 . S
C59 O70 1.236 . S
C59 O71 1.266 . S
O60 Tb40 2.484 1_545 S
O60 C42 1.248 . S
O61 Tb40 2.440 1_545 S
O61 C42 1.266 . S
O62 Tb40 2.658 . S
O62 Tb41 2.325 . S
O62 C49 1.281 . S
O63 Tb40 2.409 . S
O63 C49 1.254 . S
O64 Tb40 2.378 . S
O64 C50 1.236 . S
O65 Tb41 2.341 . S
O65 C50 1.266 . S
O66 Tb41 2.484 . S
O66 C51 1.248 . S
O67 Tb41 2.440 . S
O67 C51 1.266 . S
O68 Tb40 2.325 . S
O68 Tb41 2.658 . S
O68 C58 1.281 . S
O69 Tb41 2.409 . S
O69 C58 1.254 . S
O70 Tb41 2.378 . S
O70 C59 1.236 . S
O71 Tb40 2.341 . S
O71 C59 1.266 . S
H72 C44 0.929 . S
H73 C45 0.931 . S
H74 C47 0.930 . S
H75 C48 0.930 . S
H76 C53 0.929 . S
H77 C54 0.931 . S
H78 C56 0.930 . S
H79 C57 0.930 . S
Tb80 C82 2.809 1_565 S
Tb80 O100 2.484 1_565 S
Tb80 O101 2.440 1_565 S
Tb80 O102 2.658 . S
Tb80 O103 2.409 . S
Tb80 O104 2.378 . S
Tb80 O108 2.325 . S
Tb80 O111 2.341 . S
Tb81 C91 2.809 . S
Tb81 O102 2.325 . S
Tb81 O105 2.341 . S
Tb81 O106 2.484 . S
Tb81 O107 2.440 . S
Tb81 O108 2.658 . S
Tb81 O109 2.409 . S
Tb81 O110 2.378 . S
C82 Tb80 2.809 1_545 S
C82 C83 1.514 . S
C82 O100 1.248 . S
C82 O101 1.266 . S
C83 C82 1.514 . S
C83 C84 1.359 . S
C83 C88 1.348 . S
C84 C83 1.359 . S
C84 C85 1.380 . S
C84 H112 0.929 . S
C85 C84 1.380 . S
C85 C86 1.347 . S
C85 H113 0.931 . S
C86 C85 1.347 . S
C86 C87 1.369 . S
C87 C86 1.369 . S
C87 C88 1.408 . S
C87 H114 0.930 . S
C88 C83 1.348 . S
C88 C87 1.408 . S
C88 H115 0.930 . S
C89 O102 1.281 . S
C89 O103 1.254 . S
C90 O104 1.236 . S
C90 O105 1.266 . S
C91 Tb81 2.809 . S
C91 C92 1.514 . S
C91 O106 1.248 . S
C91 O107 1.266 . S
C92 C91 1.514 . S
C92 C93 1.359 . S
C92 C97 1.348 . S
C93 C92 1.359 . S
C93 C94 1.380 . S
C93 H116 0.929 . S
C94 C93 1.380 . S
C94 C95 1.347 . S
C94 H117 0.931 . S
C95 C94 1.347 . S
C95 C96 1.369 . S
C96 C95 1.369 . S
C96 C97 1.408 . S
C96 H118 0.930 . S
C97 C92 1.348 . S
C97 C96 1.408 . S
C97 H119 0.930 . S
C98 O108 1.281 . S
C98 O109 1.254 . S
C99 O110 1.236 . S
C99 O111 1.266 . S
O100 Tb80 2.484 1_545 S
O100 C82 1.248 . S
O101 Tb80 2.440 1_545 S
O101 C82 1.266 . S
O102 Tb80 2.658 . S
O102 Tb81 2.325 . S
O102 C89 1.281 . S
O103 Tb80 2.409 . S
O103 C89 1.254 . S
O104 Tb80 2.378 . S
O104 C90 1.236 . S
O105 Tb81 2.341 . S
O105 C90 1.266 . S
O106 Tb81 2.484 . S
O106 C91 1.248 . S
O107 Tb81 2.440 . S
O107 C91 1.266 . S
O108 Tb80 2.325 . S
O108 Tb81 2.658 . S
O108 C98 1.281 . S
O109 Tb81 2.409 . S
O109 C98 1.254 . S
O110 Tb81 2.378 . S
O110 C99 1.236 . S
O111 Tb80 2.341 . S
O111 C99 1.266 . S
H112 C84 0.929 . S
H113 C85 0.931 . S
H114 C87 0.930 . S
H115 C88 0.930 . S
H116 C93 0.929 . S
H117 C94 0.931 . S
H118 C96 0.930 . S
H119 C97 0.930 . S
Tb120 C122 2.809 1_545 S
Tb120 O140 2.484 1_545 S
Tb120 O141 2.440 1_545 S
Tb120 O142 2.658 . S
Tb120 O143 2.409 . S
Tb120 O144 2.378 . S
Tb120 O148 2.325 . S
Tb120 O151 2.341 . S
Tb121 C131 2.809 . S
Tb121 O142 2.325 . S
Tb121 O145 2.341 . S
Tb121 O146 2.484 . S
Tb121 O147 2.440 . S
Tb121 O148 2.658 . S
Tb121 O149 2.409 . S
Tb121 O150 2.378 . S
C122 Tb120 2.809 1_565 S
C122 C123 1.514 . S
C122 O140 1.248 . S
C122 O141 1.266 . S
C123 C122 1.514 . S
C123 C124 1.359 . S
C123 C128 1.348 . S
C124 C123 1.359 . S
C124 C125 1.380 . S
C124 H152 0.929 . S
C125 C124 1.380 . S
C125 C126 1.347 . S
C125 H153 0.931 . S
C126 C125 1.347 . S
C126 C127 1.369 . S
C127 C126 1.369 . S
C127 C128 1.408 . S
C127 H154 0.930 . S
C128 C123 1.348 . S
C128 C127 1.408 . S
C128 H155 0.930 . S
C129 O142 1.281 . S
C129 O143 1.254 . S
C130 O144 1.236 . S
C130 O145 1.266 . S
C131 Tb121 2.809 . S
C131 C132 1.514 . S
C131 O146 1.248 . S
C131 O147 1.266 . S
C132 C131 1.514 . S
C132 C133 1.359 . S
C132 C137 1.348 . S
C133 C132 1.359 . S
C133 C134 1.380 . S
C133 H156 0.929 . S
C134 C133 1.380 . S
C134 C135 1.347 . S
C134 H157 0.931 . S
C135 C134 1.347 . S
C135 C136 1.369 . S
C136 C135 1.369 . S
C136 C137 1.408 . S
C136 H158 0.930 . S
C137 C132 1.348 . S
C137 C136 1.408 . S
C137 H159 0.930 . S
C138 O148 1.281 . S
C138 O149 1.254 . S
C139 O150 1.236 . S
C139 O151 1.266 . S
O140 Tb120 2.484 1_565 S
O140 C122 1.248 . S
O141 Tb120 2.440 1_565 S
O141 C122 1.266 . S
O142 Tb120 2.658 . S
O142 Tb121 2.325 . S
O142 C129 1.281 . S
O143 Tb120 2.409 . S
O143 C129 1.254 . S
O144 Tb120 2.378 . S
O144 C130 1.236 . S
O145 Tb121 2.341 . S
O145 C130 1.266 . S
O146 Tb121 2.484 . S
O146 C131 1.248 . S
O147 Tb121 2.440 . S
O147 C131 1.266 . S
O148 Tb120 2.325 . S
O148 Tb121 2.658 . S
O148 C138 1.281 . S
O149 Tb121 2.409 . S
O149 C138 1.254 . S
O150 Tb121 2.378 . S
O150 C139 1.236 . S
O151 Tb120 2.341 . S
O151 C139 1.266 . S
H152 C124 0.929 . S
H153 C125 0.931 . S
H154 C127 0.930 . S
H155 C128 0.930 . S
H156 C133 0.929 . S
H157 C134 0.931 . S
H158 C136 0.930 . S
H159 C137 0.930 . S
Tb160 C162 2.809 . S
Tb160 O180 2.484 . S
Tb160 O181 2.440 . S
Tb160 O182 2.658 . S
Tb160 O183 2.409 . S
Tb160 O184 2.378 . S
Tb160 O188 2.325 . S
Tb160 O191 2.341 . S
Tb161 C171 2.809 1_565 S
Tb161 O182 2.325 . S
Tb161 O185 2.341 . S
Tb161 O186 2.484 1_565 S
Tb161 O187 2.440 1_565 S
Tb161 O188 2.658 . S
Tb161 O189 2.409 . S
Tb161 O190 2.378 . S
C162 Tb160 2.809 . S
C162 C163 1.514 . S
C162 O180 1.248 . S
C162 O181 1.266 . S
C163 C162 1.514 . S
C163 C164 1.359 . S
C163 C168 1.348 . S
C164 C163 1.359 . S
C164 C165 1.380 . S
C164 H192 0.929 . S
C165 C164 1.380 . S
C165 C166 1.347 . S
C165 H193 0.931 . S
C166 C165 1.347 . S
C166 C167 1.369 . S
C167 C166 1.369 . S
C167 C168 1.408 . S
C167 H194 0.930 . S
C168 C163 1.348 . S
C168 C167 1.408 . S
C168 H195 0.930 . S
C169 O182 1.281 . S
C169 O183 1.254 . S
C170 O184 1.236 . S
C170 O185 1.266 . S
C171 Tb161 2.809 1_545 S
C171 C172 1.514 . S
C171 O186 1.248 . S
C171 O187 1.266 . S
C172 C171 1.514 . S
C172 C173 1.359 . S
C172 C177 1.348 . S
C173 C172 1.359 . S
C173 C174 1.380 . S
C173 H196 0.929 . S
C174 C173 1.380 . S
C174 C175 1.347 . S
C174 H197 0.931 . S
C175 C174 1.347 . S
C175 C176 1.369 . S
C176 C175 1.369 . S
C176 C177 1.408 . S
C176 H198 0.930 . S
C177 C172 1.348 . S
C177 C176 1.408 . S
C177 H199 0.930 . S
C178 O188 1.281 . S
C178 O189 1.254 . S
C179 O190 1.236 . S
C179 O191 1.266 . S
O180 Tb160 2.484 . S
O180 C162 1.248 . S
O181 Tb160 2.440 . S
O181 C162 1.266 . S
O182 Tb160 2.658 . S
O182 Tb161 2.325 . S
O182 C169 1.281 . S
O183 Tb160 2.409 . S
O183 C169 1.254 . S
O184 Tb160 2.378 . S
O184 C170 1.236 . S
O185 Tb161 2.341 . S
O185 C170 1.266 . S
O186 Tb161 2.484 1_545 S
O186 C171 1.248 . S
O187 Tb161 2.440 1_545 S
O187 C171 1.266 . S
O188 Tb160 2.325 . S
O188 Tb161 2.658 . S
O188 C178 1.281 . S
O189 Tb161 2.409 . S
O189 C178 1.254 . S
O190 Tb161 2.378 . S
O190 C179 1.236 . S
O191 Tb160 2.341 . S
O191 C179 1.266 . S
H192 C164 0.929 . S
H193 C165 0.931 . S
H194 C167 0.930 . S
H195 C168 0.930 . S
H196 C173 0.929 . S
H197 C174 0.931 . S
H198 C176 0.930 . S
H199 C177 0.930 . S
Tb200 C202 2.809 . S
Tb200 O220 2.484 . S
Tb200 O221 2.440 . S
Tb200 O222 2.658 . S
Tb200 O223 2.409 . S
Tb200 O224 2.378 . S
Tb200 O228 2.325 . S
Tb200 O231 2.341 . S
Tb201 C211 2.809 1_545 S
Tb201 O222 2.325 . S
Tb201 O225 2.341 . S
Tb201 O226 2.484 1_545 S
Tb201 O227 2.440 1_545 S
Tb201 O228 2.658 . S
Tb201 O229 2.409 . S
Tb201 O230 2.378 . S
C202 Tb200 2.809 . S
C202 C203 1.514 . S
C202 O220 1.248 . S
C202 O221 1.266 . S
C203 C202 1.514 . S
C203 C204 1.359 . S
C203 C208 1.348 . S
C204 C203 1.359 . S
C204 C205 1.380 . S
C204 H232 0.929 . S
C205 C204 1.380 . S
C205 C206 1.347 . S
C205 H233 0.931 . S
C206 C205 1.347 . S
C206 C207 1.369 . S
C207 C206 1.369 . S
C207 C208 1.408 . S
C207 H234 0.930 . S
C208 C203 1.348 . S
C208 C207 1.408 . S
C208 H235 0.930 . S
C209 O222 1.281 . S
C209 O223 1.254 . S
C210 O224 1.236 . S
C210 O225 1.266 . S
C211 Tb201 2.809 1_565 S
C211 C212 1.514 . S
C211 O226 1.248 . S
C211 O227 1.266 . S
C212 C211 1.514 . S
C212 C213 1.359 . S
C212 C217 1.348 . S
C213 C212 1.359 . S
C213 C214 1.380 . S
C213 H236 0.929 . S
C214 C213 1.380 . S
C214 C215 1.347 . S
C214 H237 0.931 . S
C215 C214 1.347 . S
C215 C216 1.369 . S
C216 C215 1.369 . S
C216 C217 1.408 . S
C216 H238 0.930 . S
C217 C212 1.348 . S
C217 C216 1.408 . S
C217 H239 0.930 . S
C218 O228 1.281 . S
C218 O229 1.254 . S
C219 O230 1.236 . S
C219 O231 1.266 . S
O220 Tb200 2.484 . S
O220 C202 1.248 . S
O221 Tb200 2.440 . S
O221 C202 1.266 . S
O222 Tb200 2.658 . S
O222 Tb201 2.325 . S
O222 C209 1.281 . S
O223 Tb200 2.409 . S
O223 C209 1.254 . S
O224 Tb200 2.378 . S
O224 C210 1.236 . S
O225 Tb201 2.341 . S
O225 C210 1.266 . S
O226 Tb201 2.484 1_565 S
O226 C211 1.248 . S
O227 Tb201 2.440 1_565 S
O227 C211 1.266 . S
O228 Tb200 2.325 . S
O228 Tb201 2.658 . S
O228 C218 1.281 . S
O229 Tb201 2.409 . S
O229 C218 1.254 . S
O230 Tb201 2.378 . S
O230 C219 1.236 . S
O231 Tb200 2.341 . S
O231 C219 1.266 . S
H232 C204 0.929 . S
H233 C205 0.931 . S
H234 C207 0.930 . S
H235 C208 0.930 . S
H236 C213 0.929 . S
H237 C214 0.931 . S
H238 C216 0.930 . S
H239 C217 0.930 . S
Tb240 C242 2.809 . S
Tb240 O260 2.484 . S
Tb240 O261 2.440 . S
Tb240 O262 2.658 . S
Tb240 O263 2.409 . S
Tb240 O264 2.378 . S
Tb240 O268 2.325 . S
Tb240 O271 2.341 . S
Tb241 C251 2.809 1_545 S
Tb241 O262 2.325 . S
Tb241 O265 2.341 . S
Tb241 O266 2.484 1_545 S
Tb241 O267 2.440 1_545 S
Tb241 O268 2.658 . S
Tb241 O269 2.409 . S
Tb241 O270 2.378 . S
C242 Tb240 2.809 . S
C242 C243 1.514 . S
C242 O260 1.248 . S
C242 O261 1.266 . S
C243 C242 1.514 . S
C243 C244 1.359 . S
C243 C248 1.348 . S
C244 C243 1.359 . S
C244 C245 1.380 . S
C244 H272 0.929 . S
C245 C244 1.380 . S
C245 C246 1.347 . S
C245 H273 0.931 . S
C246 C245 1.347 . S
C246 C247 1.369 . S
C247 C246 1.369 . S
C247 C248 1.408 . S
C247 H274 0.930 . S
C248 C243 1.348 . S
C248 C247 1.408 . S
C248 H275 0.930 . S
C249 O262 1.281 . S
C249 O263 1.254 . S
C250 O264 1.236 . S
C250 O265 1.266 . S
C251 Tb241 2.809 1_565 S
C251 C252 1.514 . S
C251 O266 1.248 . S
C251 O267 1.266 . S
C252 C251 1.514 . S
C252 C253 1.359 . S
C252 C257 1.348 . S
C253 C252 1.359 . S
C253 C254 1.380 . S
C253 H276 0.929 . S
C254 C253 1.380 . S
C254 C255 1.347 . S
C254 H277 0.931 . S
C255 C254 1.347 . S
C255 C256 1.369 . S
C256 C255 1.369 . S
C256 C257 1.408 . S
C256 H278 0.930 . S
C257 C252 1.348 . S
C257 C256 1.408 . S
C257 H279 0.930 . S
C258 O268 1.281 . S
C258 O269 1.254 . S
C259 O270 1.236 . S
C259 O271 1.266 . S
O260 Tb240 2.484 . S
O260 C242 1.248 . S
O261 Tb240 2.440 . S
O261 C242 1.266 . S
O262 Tb240 2.658 . S
O262 Tb241 2.325 . S
O262 C249 1.281 . S
O263 Tb240 2.409 . S
O263 C249 1.254 . S
O264 Tb240 2.378 . S
O264 C250 1.236 . S
O265 Tb241 2.341 . S
O265 C250 1.266 . S
O266 Tb241 2.484 1_565 S
O266 C251 1.248 . S
O267 Tb241 2.440 1_565 S
O267 C251 1.266 . S
O268 Tb240 2.325 . S
O268 Tb241 2.658 . S
O268 C258 1.281 . S
O269 Tb241 2.409 . S
O269 C258 1.254 . S
O270 Tb241 2.378 . S
O270 C259 1.236 . S
O271 Tb240 2.341 . S
O271 C259 1.266 . S
H272 C244 0.929 . S
H273 C245 0.931 . S
H274 C247 0.930 . S
H275 C248 0.930 . S
H276 C253 0.929 . S
H277 C254 0.931 . S
H278 C256 0.930 . S
H279 C257 0.930 . S
Tb280 C282 2.809 . S
Tb280 O300 2.484 . S
Tb280 O301 2.440 . S
Tb280 O302 2.658 . S
Tb280 O303 2.409 . S
Tb280 O304 2.378 . S
Tb280 O308 2.325 . S
Tb280 O311 2.341 . S
Tb281 C291 2.809 1_565 S
Tb281 O302 2.325 . S
Tb281 O305 2.341 . S
Tb281 O306 2.484 1_565 S
Tb281 O307 2.440 1_565 S
Tb281 O308 2.658 . S
Tb281 O309 2.409 . S
Tb281 O310 2.378 . S
C282 Tb280 2.809 . S
C282 C283 1.514 . S
C282 O300 1.248 . S
C282 O301 1.266 . S
C283 C282 1.514 . S
C283 C284 1.359 . S
C283 C288 1.348 . S
C284 C283 1.359 . S
C284 C285 1.380 . S
C284 H312 0.929 . S
C285 C284 1.380 . S
C285 C286 1.347 . S
C285 H313 0.931 . S
C286 C285 1.347 . S
C286 C287 1.369 . S
C287 C286 1.369 . S
C287 C288 1.408 . S
C287 H314 0.930 . S
C288 C283 1.348 . S
C288 C287 1.408 . S
C288 H315 0.930 . S
C289 O302 1.281 . S
C289 O303 1.254 . S
C290 O304 1.236 . S
C290 O305 1.266 . S
C291 Tb281 2.809 1_545 S
C291 C292 1.514 . S
C291 O306 1.248 . S
C291 O307 1.266 . S
C292 C291 1.514 . S
C292 C293 1.359 . S
C292 C297 1.348 . S
C293 C292 1.359 . S
C293 C294 1.380 . S
C293 H316 0.929 . S
C294 C293 1.380 . S
C294 C295 1.347 . S
C294 H317 0.931 . S
C295 C294 1.347 . S
C295 C296 1.369 . S
C296 C295 1.369 . S
C296 C297 1.408 . S
C296 H318 0.930 . S
C297 C292 1.348 . S
C297 C296 1.408 . S
C297 H319 0.930 . S
C298 O308 1.281 . S
C298 O309 1.254 . S
C299 O310 1.236 . S
C299 O311 1.266 . S
O300 Tb280 2.484 . S
O300 C282 1.248 . S
O301 Tb280 2.440 . S
O301 C282 1.266 . S
O302 Tb280 2.658 . S
O302 Tb281 2.325 . S
O302 C289 1.281 . S
O303 Tb280 2.409 . S
O303 C289 1.254 . S
O304 Tb280 2.378 . S
O304 C290 1.236 . S
O305 Tb281 2.341 . S
O305 C290 1.266 . S
O306 Tb281 2.484 1_545 S
O306 C291 1.248 . S
O307 Tb281 2.440 1_545 S
O307 C291 1.266 . S
O308 Tb280 2.325 . S
O308 Tb281 2.658 . S
O308 C298 1.281 . S
O309 Tb281 2.409 . S
O309 C298 1.254 . S
O310 Tb281 2.378 . S
O310 C299 1.236 . S
O311 Tb280 2.341 . S
O311 C299 1.266 . S
H312 C284 0.929 . S
H313 C285 0.931 . S
H314 C287 0.930 . S
H315 C288 0.930 . S
H316 C293 0.929 . S
H317 C294 0.931 . S
H318 C296 0.930 . S
H319 C297 0.930 . S
Tb320 C322 2.809 . S
Tb320 O340 2.484 . S
Tb320 O341 2.440 . S
Tb320 O342 2.658 . S
Tb320 O343 2.409 . S
Tb320 O344 2.378 . S
Tb320 O348 2.325 . S
Tb320 O351 2.341 . S
Tb321 C331 2.809 . S
Tb321 O342 2.325 . S
Tb321 O345 2.341 . S
Tb321 O346 2.484 . S
Tb321 O347 2.440 . S
Tb321 O348 2.658 . S
Tb321 O349 2.409 . S
Tb321 O350 2.378 . S
C322 Tb320 2.809 . S
C322 C323 1.514 . S
C322 O340 1.248 . S
C322 O341 1.266 . S
C323 C322 1.514 . S
C323 C324 1.359 . S
C323 C328 1.348 . S
C324 C323 1.359 . S
C324 C325 1.380 . S
C324 H352 0.929 . S
C325 C324 1.380 . S
C325 C326 1.347 . S
C325 H353 0.931 . S
C326 C325 1.347 . S
C326 C327 1.369 . S
C327 C326 1.369 . S
C327 C328 1.408 . S
C327 H354 0.930 . S
C328 C323 1.348 . S
C328 C327 1.408 . S
C328 H355 0.930 . S
C329 O342 1.281 . S
C329 O343 1.254 . S
C330 O344 1.236 . S
C330 O345 1.266 . S
C331 Tb321 2.809 . S
C331 C332 1.514 . S
C331 O346 1.248 . S
C331 O347 1.266 . S
C332 C331 1.514 . S
C332 C333 1.359 . S
C332 C337 1.348 . S
C333 C332 1.359 . S
C333 C334 1.380 . S
C333 H356 0.929 . S
C334 C333 1.380 . S
C334 C335 1.347 . S
C334 H357 0.931 . S
C335 C334 1.347 . S
C335 C336 1.369 . S
C336 C335 1.369 . S
C336 C337 1.408 . S
C336 H358 0.930 . S
C337 C332 1.348 . S
C337 C336 1.408 . S
C337 H359 0.930 . S
C338 O348 1.281 . S
C338 O349 1.254 . S
C339 O350 1.236 . S
C339 O351 1.266 . S
O340 Tb320 2.484 . S
O340 C322 1.248 . S
O341 Tb320 2.440 . S
O341 C322 1.266 . S
O342 Tb320 2.658 . S
O342 Tb321 2.325 . S
O342 C329 1.281 . S
O343 Tb320 2.409 . S
O343 C329 1.254 . S
O344 Tb320 2.378 . S
O344 C330 1.236 . S
O345 Tb321 2.341 . S
O345 C330 1.266 . S
O346 Tb321 2.484 . S
O346 C331 1.248 . S
O347 Tb321 2.440 . S
O347 C331 1.266 . S
O348 Tb320 2.325 . S
O348 Tb321 2.658 . S
O348 C338 1.281 . S
O349 Tb321 2.409 . S
O349 C338 1.254 . S
O350 Tb321 2.378 . S
O350 C339 1.236 . S
O351 Tb320 2.341 . S
O351 C339 1.266 . S
H352 C324 0.929 . S
H353 C325 0.931 . S
H354 C327 0.930 . S
H355 C328 0.930 . S
H356 C333 0.929 . S
H357 C334 0.931 . S
H358 C336 0.930 . S
H359 C337 0.930 . S
Tb360 C362 2.809 . S
Tb360 O380 2.484 . S
Tb360 O381 2.440 . S
Tb360 O382 2.658 . S
Tb360 O383 2.409 . S
Tb360 O384 2.378 . S
Tb360 O388 2.325 . S
Tb360 O391 2.341 . S
Tb361 C371 2.809 . S
Tb361 O382 2.325 . S
Tb361 O385 2.341 . S
Tb361 O386 2.484 . S
Tb361 O387 2.440 . S
Tb361 O388 2.658 . S
Tb361 O389 2.409 . S
Tb361 O390 2.378 . S
C362 Tb360 2.809 . S
C362 C363 1.514 . S
C362 O380 1.248 . S
C362 O381 1.266 . S
C363 C362 1.514 . S
C363 C364 1.359 . S
C363 C368 1.348 . S
C364 C363 1.359 . S
C364 C365 1.380 . S
C364 H392 0.929 . S
C365 C364 1.380 . S
C365 C366 1.347 . S
C365 H393 0.931 . S
C366 C365 1.347 . S
C366 C367 1.369 . S
C367 C366 1.369 . S
C367 C368 1.408 . S
C367 H394 0.930 . S
C368 C363 1.348 . S
C368 C367 1.408 . S
C368 H395 0.930 . S
C369 O382 1.281 . S
C369 O383 1.254 . S
C370 O384 1.236 . S
C370 O385 1.266 . S
C371 Tb361 2.809 . S
C371 C372 1.514 . S
C371 O386 1.248 . S
C371 O387 1.266 . S
C372 C371 1.514 . S
C372 C373 1.359 . S
C372 C377 1.348 . S
C373 C372 1.359 . S
C373 C374 1.380 . S
C373 H396 0.929 . S
C374 C373 1.380 . S
C374 C375 1.347 . S
C374 H397 0.931 . S
C375 C374 1.347 . S
C375 C376 1.369 . S
C376 C375 1.369 . S
C376 C377 1.408 . S
C376 H398 0.930 . S
C377 C372 1.348 . S
C377 C376 1.408 . S
C377 H399 0.930 . S
C378 O388 1.281 . S
C378 O389 1.254 . S
C379 O390 1.236 . S
C379 O391 1.266 . S
O380 Tb360 2.484 . S
O380 C362 1.248 . S
O381 Tb360 2.440 . S
O381 C362 1.266 . S
O382 Tb360 2.658 . S
O382 Tb361 2.325 . S
O382 C369 1.281 . S
O383 Tb360 2.409 . S
O383 C369 1.254 . S
O384 Tb360 2.378 . S
O384 C370 1.236 . S
O385 Tb361 2.341 . S
O385 C370 1.266 . S
O386 Tb361 2.484 . S
O386 C371 1.248 . S
O387 Tb361 2.440 . S
O387 C371 1.266 . S
O388 Tb360 2.325 . S
O388 Tb361 2.658 . S
O388 C378 1.281 . S
O389 Tb361 2.409 . S
O389 C378 1.254 . S
O390 Tb361 2.378 . S
O390 C379 1.236 . S
O391 Tb360 2.341 . S
O391 C379 1.266 . S
H392 C364 0.929 . S
H393 C365 0.931 . S
H394 C367 0.930 . S
H395 C368 0.930 . S
H396 C373 0.929 . S
H397 C374 0.931 . S
H398 C376 0.930 . S
H399 C377 0.930 . S
Tb400 C402 2.809 . S
Tb400 O420 2.484 . S
Tb400 O421 2.440 . S
Tb400 O422 2.658 . S
Tb400 O423 2.409 . S
Tb400 O424 2.378 . S
Tb400 O428 2.325 . S
Tb400 O431 2.341 . S
Tb401 C411 2.809 . S
Tb401 O422 2.325 . S
Tb401 O425 2.341 . S
Tb401 O426 2.484 . S
Tb401 O427 2.440 . S
Tb401 O428 2.658 . S
Tb401 O429 2.409 . S
Tb401 O430 2.378 . S
C402 Tb400 2.809 . S
C402 C403 1.514 . S
C402 O420 1.248 . S
C402 O421 1.266 . S
C403 C402 1.514 . S
C403 C404 1.359 . S
C403 C408 1.348 . S
C404 C403 1.359 . S
C404 C405 1.380 . S
C404 H432 0.929 . S
C405 C404 1.380 . S
C405 C406 1.347 . S
C405 H433 0.931 . S
C406 C405 1.347 . S
C406 C407 1.369 . S
C407 C406 1.369 . S
C407 C408 1.408 . S
C407 H434 0.930 . S
C408 C403 1.348 . S
C408 C407 1.408 . S
C408 H435 0.930 . S
C409 O422 1.281 . S
C409 O423 1.254 . S
C410 O424 1.236 . S
C410 O425 1.266 . S
C411 Tb401 2.809 . S
C411 C412 1.514 . S
C411 O426 1.248 . S
C411 O427 1.266 . S
C412 C411 1.514 . S
C412 C413 1.359 . S
C412 C417 1.348 . S
C413 C412 1.359 . S
C413 C414 1.380 . S
C413 H436 0.929 . S
C414 C413 1.380 . S
C414 C415 1.347 . S
C414 H437 0.931 . S
C415 C414 1.347 . S
C415 C416 1.369 . S
C416 C415 1.369 . S
C416 C417 1.408 . S
C416 H438 0.930 . S
C417 C412 1.348 . S
C417 C416 1.408 . S
C417 H439 0.930 . S
C418 O428 1.281 . S
C418 O429 1.254 . S
C419 O430 1.236 . S
C419 O431 1.266 . S
O420 Tb400 2.484 . S
O420 C402 1.248 . S
O421 Tb400 2.440 . S
O421 C402 1.266 . S
O422 Tb400 2.658 . S
O422 Tb401 2.325 . S
O422 C409 1.281 . S
O423 Tb400 2.409 . S
O423 C409 1.254 . S
O424 Tb400 2.378 . S
O424 C410 1.236 . S
O425 Tb401 2.341 . S
O425 C410 1.266 . S
O426 Tb401 2.484 . S
O426 C411 1.248 . S
O427 Tb401 2.440 . S
O427 C411 1.266 . S
O428 Tb400 2.325 . S
O428 Tb401 2.658 . S
O428 C418 1.281 . S
O429 Tb401 2.409 . S
O429 C418 1.254 . S
O430 Tb401 2.378 . S
O430 C419 1.236 . S
O431 Tb400 2.341 . S
O431 C419 1.266 . S
H432 C404 0.929 . S
H433 C405 0.931 . S
H434 C407 0.930 . S
H435 C408 0.930 . S
H436 C413 0.929 . S
H437 C414 0.931 . S
H438 C416 0.930 . S
H439 C417 0.930 . S
Tb440 C442 2.809 . S
Tb440 O460 2.484 . S
Tb440 O461 2.440 . S
Tb440 O462 2.658 . S
Tb440 O463 2.409 . S
Tb440 O464 2.378 . S
Tb440 O468 2.325 . S
Tb440 O471 2.341 . S
Tb441 C451 2.809 . S
Tb441 O462 2.325 . S
Tb441 O465 2.341 . S
Tb441 O466 2.484 . S
Tb441 O467 2.440 . S
Tb441 O468 2.658 . S
Tb441 O469 2.409 . S
Tb441 O470 2.378 . S
C442 Tb440 2.809 . S
C442 C443 1.514 . S
C442 O460 1.248 . S
C442 O461 1.266 . S
C443 C442 1.514 . S
C443 C444 1.359 . S
C443 C448 1.348 . S
C444 C443 1.359 . S
C444 C445 1.380 . S
C444 H472 0.929 . S
C445 C444 1.380 . S
C445 C446 1.347 . S
C445 H473 0.931 . S
C446 C445 1.347 . S
C446 C447 1.369 . S
C447 C446 1.369 . S
C447 C448 1.408 . S
C447 H474 0.930 . S
C448 C443 1.348 . S
C448 C447 1.408 . S
C448 H475 0.930 . S
C449 O462 1.281 . S
C449 O463 1.254 . S
C450 O464 1.236 . S
C450 O465 1.266 . S
C451 Tb441 2.809 . S
C451 C452 1.514 . S
C451 O466 1.248 . S
C451 O467 1.266 . S
C452 C451 1.514 . S
C452 C453 1.359 . S
C452 C457 1.348 . S
C453 C452 1.359 . S
C453 C454 1.380 . S
C453 H476 0.929 . S
C454 C453 1.380 . S
C454 C455 1.347 . S
C454 H477 0.931 . S
C455 C454 1.347 . S
C455 C456 1.369 . S
C456 C455 1.369 . S
C456 C457 1.408 . S
C456 H478 0.930 . S
C457 C452 1.348 . S
C457 C456 1.408 . S
C457 H479 0.930 . S
C458 O468 1.281 . S
C458 O469 1.254 . S
C459 O470 1.236 . S
C459 O471 1.266 . S
O460 Tb440 2.484 . S
O460 C442 1.248 . S
O461 Tb440 2.440 . S
O461 C442 1.266 . S
O462 Tb440 2.658 . S
O462 Tb441 2.325 . S
O462 C449 1.281 . S
O463 Tb440 2.409 . S
O463 C449 1.254 . S
O464 Tb440 2.378 . S
O464 C450 1.236 . S
O465 Tb441 2.341 . S
O465 C450 1.266 . S
O466 Tb441 2.484 . S
O466 C451 1.248 . S
O467 Tb441 2.440 . S
O467 C451 1.266 . S
O468 Tb440 2.325 . S
O468 Tb441 2.658 . S
O468 C458 1.281 . S
O469 Tb441 2.409 . S
O469 C458 1.254 . S
O470 Tb441 2.378 . S
O470 C459 1.236 . S
O471 Tb440 2.341 . S
O471 C459 1.266 . S
H472 C444 0.929 . S
H473 C445 0.931 . S
H474 C447 0.930 . S
H475 C448 0.930 . S
H476 C453 0.929 . S
H477 C454 0.931 . S
H478 C456 0.930 . S
H479 C457 0.930 . S
Tb480 C482 2.809 . S
Tb480 O500 2.484 . S
Tb480 O501 2.440 . S
Tb480 O502 2.658 . S
Tb480 O503 2.409 . S
Tb480 O504 2.378 . S
Tb480 O508 2.325 . S
Tb480 O511 2.341 . S
Tb481 C491 2.809 . S
Tb481 O502 2.325 . S
Tb481 O505 2.341 . S
Tb481 O506 2.484 . S
Tb481 O507 2.440 . S
Tb481 O508 2.658 . S
Tb481 O509 2.409 . S
Tb481 O510 2.378 . S
C482 Tb480 2.809 . S
C482 C483 1.514 . S
C482 O500 1.248 . S
C482 O501 1.266 . S
C483 C482 1.514 . S
C483 C484 1.359 . S
C483 C488 1.348 . S
C484 C483 1.359 . S
C484 C485 1.380 . S
C484 H512 0.929 . S
C485 C484 1.380 . S
C485 C486 1.347 . S
C485 H513 0.931 . S
C486 C485 1.347 . S
C486 C487 1.369 . S
C487 C486 1.369 . S
C487 C488 1.408 . S
C487 H514 0.930 . S
C488 C483 1.348 . S
C488 C487 1.408 . S
C488 H515 0.930 . S
C489 O502 1.281 . S
C489 O503 1.254 . S
C490 O504 1.236 . S
C490 O505 1.266 . S
C491 Tb481 2.809 . S
C491 C492 1.514 . S
C491 O506 1.248 . S
C491 O507 1.266 . S
C492 C491 1.514 . S
C492 C493 1.359 . S
C492 C497 1.348 . S
C493 C492 1.359 . S
C493 C494 1.380 . S
C493 H516 0.929 . S
C494 C493 1.380 . S
C494 C495 1.347 . S
C494 H517 0.931 . S
C495 C494 1.347 . S
C495 C496 1.369 . S
C496 C495 1.369 . S
C496 C497 1.408 . S
C496 H518 0.930 . S
C497 C492 1.348 . S
C497 C496 1.408 . S
C497 H519 0.930 . S
C498 O508 1.281 . S
C498 O509 1.254 . S
C499 O510 1.236 . S
C499 O511 1.266 . S
O500 Tb480 2.484 . S
O500 C482 1.248 . S
O501 Tb480 2.440 . S
O501 C482 1.266 . S
O502 Tb480 2.658 . S
O502 Tb481 2.325 . S
O502 C489 1.281 . S
O503 Tb480 2.409 . S
O503 C489 1.254 . S
O504 Tb480 2.378 . S
O504 C490 1.236 . S
O505 Tb481 2.341 . S
O505 C490 1.266 . S
O506 Tb481 2.484 . S
O506 C491 1.248 . S
O507 Tb481 2.440 . S
O507 C491 1.266 . S
O508 Tb480 2.325 . S
O508 Tb481 2.658 . S
O508 C498 1.281 . S
O509 Tb481 2.409 . S
O509 C498 1.254 . S
O510 Tb481 2.378 . S
O510 C499 1.236 . S
O511 Tb480 2.341 . S
O511 C499 1.266 . S
H512 C484 0.929 . S
H513 C485 0.931 . S
H514 C487 0.930 . S
H515 C488 0.930 . S
H516 C493 0.929 . S
H517 C494 0.931 . S
H518 C496 0.930 . S
H519 C497 0.930 . S
Tb520 C522 2.809 . S
Tb520 O540 2.484 . S
Tb520 O541 2.440 . S
Tb520 O542 2.658 . S
Tb520 O543 2.409 . S
Tb520 O544 2.378 . S
Tb520 O548 2.325 . S
Tb520 O551 2.341 . S
Tb521 C531 2.809 . S
Tb521 O542 2.325 . S
Tb521 O545 2.341 . S
Tb521 O546 2.484 . S
Tb521 O547 2.440 . S
Tb521 O548 2.658 . S
Tb521 O549 2.409 . S
Tb521 O550 2.378 . S
C522 Tb520 2.809 . S
C522 C523 1.514 . S
C522 O540 1.248 . S
C522 O541 1.266 . S
C523 C522 1.514 . S
C523 C524 1.359 . S
C523 C528 1.348 . S
C524 C523 1.359 . S
C524 C525 1.380 . S
C524 H552 0.929 . S
C525 C524 1.380 . S
C525 C526 1.347 . S
C525 H553 0.931 . S
C526 C525 1.347 . S
C526 C527 1.369 . S
C527 C526 1.369 . S
C527 C528 1.408 . S
C527 H554 0.930 . S
C528 C523 1.348 . S
C528 C527 1.408 . S
C528 H555 0.930 . S
C529 O542 1.281 . S
C529 O543 1.254 . S
C530 O544 1.236 . S
C530 O545 1.266 . S
C531 Tb521 2.809 . S
C531 C532 1.514 . S
C531 O546 1.248 . S
C531 O547 1.266 . S
C532 C531 1.514 . S
C532 C533 1.359 . S
C532 C537 1.348 . S
C533 C532 1.359 . S
C533 C534 1.380 . S
C533 H556 0.929 . S
C534 C533 1.380 . S
C534 C535 1.347 . S
C534 H557 0.931 . S
C535 C534 1.347 . S
C535 C536 1.369 . S
C536 C535 1.369 . S
C536 C537 1.408 . S
C536 H558 0.930 . S
C537 C532 1.348 . S
C537 C536 1.408 . S
C537 H559 0.930 . S
C538 O548 1.281 . S
C538 O549 1.254 . S
C539 O550 1.236 . S
C539 O551 1.266 . S
O540 Tb520 2.484 . S
O540 C522 1.248 . S
O541 Tb520 2.440 . S
O541 C522 1.266 . S
O542 Tb520 2.658 . S
O542 Tb521 2.325 . S
O542 C529 1.281 . S
O543 Tb520 2.409 . S
O543 C529 1.254 . S
O544 Tb520 2.378 . S
O544 C530 1.236 . S
O545 Tb521 2.341 . S
O545 C530 1.266 . S
O546 Tb521 2.484 . S
O546 C531 1.248 . S
O547 Tb521 2.440 . S
O547 C531 1.266 . S
O548 Tb520 2.325 . S
O548 Tb521 2.658 . S
O548 C538 1.281 . S
O549 Tb521 2.409 . S
O549 C538 1.254 . S
O550 Tb521 2.378 . S
O550 C539 1.236 . S
O551 Tb520 2.341 . S
O551 C539 1.266 . S
H552 C524 0.929 . S
H553 C525 0.931 . S
H554 C527 0.930 . S
H555 C528 0.930 . S
H556 C533 0.929 . S
H557 C534 0.931 . S
H558 C536 0.930 . S
H559 C537 0.930 . S
Tb560 C562 2.809 . S
Tb560 O580 2.484 . S
Tb560 O581 2.440 . S
Tb560 O582 2.658 . S
Tb560 O583 2.409 . S
Tb560 O584 2.378 . S
Tb560 O588 2.325 . S
Tb560 O591 2.341 . S
Tb561 C571 2.809 . S
Tb561 O582 2.325 . S
Tb561 O585 2.341 . S
Tb561 O586 2.484 . S
Tb561 O587 2.440 . S
Tb561 O588 2.658 . S
Tb561 O589 2.409 . S
Tb561 O590 2.378 . S
C562 Tb560 2.809 . S
C562 C563 1.514 . S
C562 O580 1.248 . S
C562 O581 1.266 . S
C563 C562 1.514 . S
C563 C564 1.359 . S
C563 C568 1.348 . S
C564 C563 1.359 . S
C564 C565 1.380 . S
C564 H592 0.929 . S
C565 C564 1.380 . S
C565 C566 1.347 . S
C565 H593 0.931 . S
C566 C565 1.347 . S
C566 C567 1.369 . S
C567 C566 1.369 . S
C567 C568 1.408 . S
C567 H594 0.930 . S
C568 C563 1.348 . S
C568 C567 1.408 . S
C568 H595 0.930 . S
C569 O582 1.281 . S
C569 O583 1.254 . S
C570 O584 1.236 . S
C570 O585 1.266 . S
C571 Tb561 2.809 . S
C571 C572 1.514 . S
C571 O586 1.248 . S
C571 O587 1.266 . S
C572 C571 1.514 . S
C572 C573 1.359 . S
C572 C577 1.348 . S
C573 C572 1.359 . S
C573 C574 1.380 . S
C573 H596 0.929 . S
C574 C573 1.380 . S
C574 C575 1.347 . S
C574 H597 0.931 . S
C575 C574 1.347 . S
C575 C576 1.369 . S
C576 C575 1.369 . S
C576 C577 1.408 . S
C576 H598 0.930 . S
C577 C572 1.348 . S
C577 C576 1.408 . S
C577 H599 0.930 . S
C578 O588 1.281 . S
C578 O589 1.254 . S
C579 O590 1.236 . S
C579 O591 1.266 . S
O580 Tb560 2.484 . S
O580 C562 1.248 . S
O581 Tb560 2.440 . S
O581 C562 1.266 . S
O582 Tb560 2.658 . S
O582 Tb561 2.325 . S
O582 C569 1.281 . S
O583 Tb560 2.409 . S
O583 C569 1.254 . S
O584 Tb560 2.378 . S
O584 C570 1.236 . S
O585 Tb561 2.341 . S
O585 C570 1.266 . S
O586 Tb561 2.484 . S
O586 C571 1.248 . S
O587 Tb561 2.440 . S
O587 C571 1.266 . S
O588 Tb560 2.325 . S
O588 Tb561 2.658 . S
O588 C578 1.281 . S
O589 Tb561 2.409 . S
O589 C578 1.254 . S
O590 Tb561 2.378 . S
O590 C579 1.236 . S
O591 Tb560 2.341 . S
O591 C579 1.266 . S
H592 C564 0.929 . S
H593 C565 0.931 . S
H594 C567 0.930 . S
H595 C568 0.930 . S
H596 C573 0.929 . S
H597 C574 0.931 . S
H598 C576 0.930 . S
H599 C577 0.930 . S
Tb600 C602 2.809 . S
Tb600 O620 2.484 . S
Tb600 O621 2.440 . S
Tb600 O622 2.658 . S
Tb600 O623 2.409 . S
Tb600 O624 2.378 . S
Tb600 O628 2.325 . S
Tb600 O631 2.341 . S
Tb601 C611 2.809 . S
Tb601 O622 2.325 . S
Tb601 O625 2.341 . S
Tb601 O626 2.484 . S
Tb601 O627 2.440 . S
Tb601 O628 2.658 . S
Tb601 O629 2.409 . S
Tb601 O630 2.378 . S
C602 Tb600 2.809 . S
C602 C603 1.514 . S
C602 O620 1.248 . S
C602 O621 1.266 . S
C603 C602 1.514 . S
C603 C604 1.359 . S
C603 C608 1.348 . S
C604 C603 1.359 . S
C604 C605 1.380 . S
C604 H632 0.929 . S
C605 C604 1.380 . S
C605 C606 1.347 . S
C605 H633 0.931 . S
C606 C605 1.347 . S
C606 C607 1.369 . S
C607 C606 1.369 . S
C607 C608 1.408 . S
C607 H634 0.930 . S
C608 C603 1.348 . S
C608 C607 1.408 . S
C608 H635 0.930 . S
C609 O622 1.281 . S
C609 O623 1.254 . S
C610 O624 1.236 . S
C610 O625 1.266 . S
C611 Tb601 2.809 . S
C611 C612 1.514 . S
C611 O626 1.248 . S
C611 O627 1.266 . S
C612 C611 1.514 . S
C612 C613 1.359 . S
C612 C617 1.348 . S
C613 C612 1.359 . S
C613 C614 1.380 . S
C613 H636 0.929 . S
C614 C613 1.380 . S
C614 C615 1.347 . S
C614 H637 0.931 . S
C615 C614 1.347 . S
C615 C616 1.369 . S
C616 C615 1.369 . S
C616 C617 1.408 . S
C616 H638 0.930 . S
C617 C612 1.348 . S
C617 C616 1.408 . S
C617 H639 0.930 . S
C618 O628 1.281 . S
C618 O629 1.254 . S
C619 O630 1.236 . S
C619 O631 1.266 . S
O620 Tb600 2.484 . S
O620 C602 1.248 . S
O621 Tb600 2.440 . S
O621 C602 1.266 . S
O622 Tb600 2.658 . S
O622 Tb601 2.325 . S
O622 C609 1.281 . S
O623 Tb600 2.409 . S
O623 C609 1.254 . S
O624 Tb600 2.378 . S
O624 C610 1.236 . S
O625 Tb601 2.341 . S
O625 C610 1.266 . S
O626 Tb601 2.484 . S
O626 C611 1.248 . S
O627 Tb601 2.440 . S
O627 C611 1.266 . S
O628 Tb600 2.325 . S
O628 Tb601 2.658 . S
O628 C618 1.281 . S
O629 Tb601 2.409 . S
O629 C618 1.254 . S
O630 Tb601 2.378 . S
O630 C619 1.236 . S
O631 Tb600 2.341 . S
O631 C619 1.266 . S
H632 C604 0.929 . S
H633 C605 0.931 . S
H634 C607 0.930 . S
H635 C608 0.930 . S
H636 C613 0.929 . S
H637 C614 0.931 . S
H638 C616 0.930 . S
H639 C617 0.930 . S
H640 C646 0.930 . S
H641 C649 0.930 . S
H642 C650 0.930 . S
H643 C651 0.930 . S
H644 C654 0.930 . S
H645 C655 0.930 . S
C646 H640 0.930 . S
C646 C647 1.355 . S
C646 C648 1.415 . S
C647 C646 1.355 . S
C647 C649 1.419 . S
C648 C646 1.415 . S
C648 C653 1.425 . S
C648 C655 1.409 . S
C649 H641 0.930 . S
C649 C647 1.419 . S
C649 C650 1.362 . S
C650 H642 0.930 . S
C650 C649 1.362 . S
C650 C653 1.409 . S
C651 H643 0.930 . S
C651 C652 1.355 . S
C651 C653 1.415 . S
C652 C651 1.355 . S
C652 C654 1.419 . S
C653 C648 1.425 . S
C653 C650 1.409 . S
C653 C651 1.415 . S
C654 H644 0.930 . S
C654 C652 1.419 . S
C654 C655 1.362 . S
C655 H645 0.930 . S
C655 C648 1.409 . S
C655 C654 1.362 . S
H656 C662 0.930 . S
H657 C665 0.930 . S
H658 C666 0.930 . S
H659 C667 0.930 . S
H660 C670 0.930 . S
H661 C671 0.930 . S
C662 H656 0.930 . S
C662 C663 1.355 . S
C662 C664 1.415 . S
C663 C662 1.355 . S
C663 C665 1.419 . S
C664 C662 1.415 . S
C664 C669 1.425 . S
C664 C671 1.409 . S
C665 H657 0.930 . S
C665 C663 1.419 . S
C665 C666 1.362 . S
C666 H658 0.930 . S
C666 C665 1.362 . S
C666 C669 1.409 . S
C667 H659 0.930 . S
C667 C668 1.355 . S
C667 C669 1.415 . S
C668 C667 1.355 . S
C668 C670 1.419 . S
C669 C664 1.425 . S
C669 C666 1.409 . S
C669 C667 1.415 . S
C670 H660 0.930 . S
C670 C668 1.419 . S
C670 C671 1.362 . S
C671 H661 0.930 . S
C671 C664 1.409 . S
C671 C670 1.362 . S
H672 C678 0.930 . S
H673 C681 0.930 . S
H674 C682 0.930 . S
H675 C683 0.930 . S
H676 C686 0.930 . S
H677 C687 0.930 . S
C678 H672 0.930 . S
C678 C679 1.355 . S
C678 C680 1.415 . S
C679 C678 1.355 . S
C679 C681 1.419 . S
C680 C678 1.415 . S
C680 C685 1.425 . S
C680 C687 1.409 . S
C681 H673 0.930 . S
C681 C679 1.419 . S
C681 C682 1.362 . S
C682 H674 0.930 . S
C682 C681 1.362 . S
C682 C685 1.409 . S
C683 H675 0.930 . S
C683 C684 1.355 . S
C683 C685 1.415 . S
C684 C683 1.355 . S
C684 C686 1.419 . S
C685 C680 1.425 . S
C685 C682 1.409 . S
C685 C683 1.415 . S
C686 H676 0.930 . S
C686 C684 1.419 . S
C686 C687 1.362 . S
C687 H677 0.930 . S
C687 C680 1.409 . S
C687 C686 1.362 . S
H688 C694 0.930 . S
H689 C697 0.930 . S
H690 C698 0.930 . S
H691 C699 0.930 . S
H692 C702 0.930 . S
H693 C703 0.930 . S
C694 H688 0.930 . S
C694 C695 1.355 . S
C694 C696 1.415 . S
C695 C694 1.355 . S
C695 C697 1.419 . S
C696 C694 1.415 . S
C696 C701 1.425 . S
C696 C703 1.409 . S
C697 H689 0.930 . S
C697 C695 1.419 . S
C697 C698 1.362 . S
C698 H690 0.930 . S
C698 C697 1.362 . S
C698 C701 1.409 . S
C699 H691 0.930 . S
C699 C700 1.355 . S
C699 C701 1.415 . S
C700 C699 1.355 . S
C700 C702 1.419 . S
C701 C696 1.425 . S
C701 C698 1.409 . S
C701 C699 1.415 . S
C702 H692 0.930 . S
C702 C700 1.419 . S
C702 C703 1.362 . S
C703 H693 0.930 . S
C703 C696 1.409 . S
C703 C702 1.362 . S
H704 C710 0.930 . S
H705 C713 0.930 . S
H706 C714 0.930 . S
H707 C715 0.930 . S
H708 C718 0.930 . S
H709 C719 0.930 . S
C710 H704 0.930 . S
C710 C711 1.355 . S
C710 C712 1.415 . S
C711 C710 1.355 . S
C711 C713 1.419 . S
C712 C710 1.415 . S
C712 C717 1.425 . S
C712 C719 1.409 . S
C713 H705 0.930 . S
C713 C711 1.419 . S
C713 C714 1.362 . S
C714 H706 0.930 . S
C714 C713 1.362 . S
C714 C717 1.409 . S
C715 H707 0.930 . S
C715 C716 1.355 . S
C715 C717 1.415 . S
C716 C715 1.355 . S
C716 C718 1.419 . S
C717 C712 1.425 . S
C717 C714 1.409 . S
C717 C715 1.415 . S
C718 H708 0.930 . S
C718 C716 1.419 . S
C718 C719 1.362 . S
C719 H709 0.930 . S
C719 C712 1.409 . S
C719 C718 1.362 . S
H720 C726 0.930 . S
H721 C729 0.930 . S
H722 C730 0.930 . S
H723 C731 0.930 . S
H724 C734 0.930 . S
H725 C735 0.930 . S
C726 H720 0.930 . S
C726 C727 1.355 . S
C726 C728 1.415 . S
C727 C726 1.355 . S
C727 C729 1.419 . S
C728 C726 1.415 . S
C728 C733 1.425 . S
C728 C735 1.409 . S
C729 H721 0.930 . S
C729 C727 1.419 . S
C729 C730 1.362 . S
C730 H722 0.930 . S
C730 C729 1.362 . S
C730 C733 1.409 . S
C731 H723 0.930 . S
C731 C732 1.355 . S
C731 C733 1.415 . S
C732 C731 1.355 . S
C732 C734 1.419 . S
C733 C728 1.425 . S
C733 C730 1.409 . S
C733 C731 1.415 . S
C734 H724 0.930 . S
C734 C732 1.419 . S
C734 C735 1.362 . S
C735 H725 0.930 . S
C735 C728 1.409 . S
C735 C734 1.362 . S
H736 C742 0.930 . S
H737 C745 0.930 . S
H738 C746 0.930 . S
H739 C747 0.930 . S
H740 C750 0.930 . S
H741 C751 0.930 . S
C742 H736 0.930 . S
C742 C743 1.355 . S
C742 C744 1.415 . S
C743 C742 1.355 . S
C743 C745 1.419 . S
C744 C742 1.415 . S
C744 C749 1.425 . S
C744 C751 1.409 . S
C745 H737 0.930 . S
C745 C743 1.419 . S
C745 C746 1.362 . S
C746 H738 0.930 . S
C746 C745 1.362 . S
C746 C749 1.409 . S
C747 H739 0.930 . S
C747 C748 1.355 . S
C747 C749 1.415 . S
C748 C747 1.355 . S
C748 C750 1.419 . S
C749 C744 1.425 . S
C749 C746 1.409 . S
C749 C747 1.415 . S
C750 H740 0.930 . S
C750 C748 1.419 . S
C750 C751 1.362 . S
C751 H741 0.930 . S
C751 C744 1.409 . S
C751 C750 1.362 . S
H752 C758 0.930 . S
H753 C761 0.930 . S
H754 C762 0.930 . S
H755 C763 0.930 . S
H756 C766 0.930 . S
H757 C767 0.930 . S
C758 H752 0.930 . S
C758 C759 1.355 . S
C758 C760 1.415 . S
C759 C758 1.355 . S
C759 C761 1.419 . S
C760 C758 1.415 . S
C760 C765 1.425 . S
C760 C767 1.409 . S
C761 H753 0.930 . S
C761 C759 1.419 . S
C761 C762 1.362 . S
C762 H754 0.930 . S
C762 C761 1.362 . S
C762 C765 1.409 . S
C763 H755 0.930 . S
C763 C764 1.355 . S
C763 C765 1.415 . S
C764 C763 1.355 . S
C764 C766 1.419 . S
C765 C760 1.425 . S
C765 C762 1.409 . S
C765 C763 1.415 . S
C766 H756 0.930 . S
C766 C764 1.419 . S
C766 C767 1.362 . S
C767 H757 0.930 . S
C767 C760 1.409 . S
C767 C766 1.362 . S
H768 C774 0.930 1_545 S
H769 C777 0.930 . S
H770 C778 0.930 . S
H771 C779 0.930 1_565 S
H772 C782 0.930 . S
H773 C783 0.930 . S
C774 H768 0.930 1_565 S
C774 C775 1.355 . S
C774 C776 1.415 1_565 S
C775 C774 1.355 . S
C775 C777 1.419 . S
C776 C774 1.415 1_545 S
C776 C781 1.425 1_545 S
C776 C783 1.409 . S
C777 H769 0.930 . S
C777 C775 1.419 . S
C777 C778 1.362 . S
C778 H770 0.930 . S
C778 C777 1.362 . S
C778 C781 1.409 . S
C779 H771 0.930 1_545 S
C779 C780 1.355 . S
C779 C781 1.415 1_545 S
C780 C779 1.355 . S
C780 C782 1.419 . S
C781 C776 1.425 1_565 S
C781 C778 1.409 . S
C781 C779 1.415 1_565 S
C782 H772 0.930 . S
C782 C780 1.419 . S
C782 C783 1.362 . S
C783 H773 0.930 . S
C783 C776 1.409 . S
C783 C782 1.362 . S
H784 C790 0.930 . S
H785 C793 0.930 . S
H786 C794 0.930 . S
H787 C795 0.930 . S
H788 C798 0.930 . S
H789 C799 0.930 . S
C790 H784 0.930 . S
C790 C791 1.355 . S
C790 C792 1.415 1_545 S
C791 C790 1.355 . S
C791 C793 1.419 . S
C792 C790 1.415 1_565 S
C792 C797 1.425 1_565 S
C792 C799 1.409 . S
C793 H785 0.930 . S
C793 C791 1.419 . S
C793 C794 1.362 . S
C794 H786 0.930 . S
C794 C793 1.362 . S
C794 C797 1.409 . S
C795 H787 0.930 . S
C795 C796 1.355 . S
C795 C797 1.415 1_565 S
C796 C795 1.355 . S
C796 C798 1.419 . S
C797 C792 1.425 1_545 S
C797 C794 1.409 . S
C797 C795 1.415 1_545 S
C798 H788 0.930 . S
C798 C796 1.419 . S
C798 C799 1.362 . S
C799 H789 0.930 . S
C799 C792 1.409 . S
C799 C798 1.362 . S
H800 C806 0.930 . S
H801 C809 0.930 . S
H802 C810 0.930 . S
H803 C811 0.930 . S
H804 C814 0.930 . S
H805 C815 0.930 . S
C806 H800 0.930 . S
C806 C807 1.355 . S
C806 C808 1.415 . S
C807 C806 1.355 . S
C807 C809 1.419 1_545 S
C808 C806 1.415 . S
C808 C813 1.425 1_545 S
C808 C815 1.409 . S
C809 H801 0.930 . S
C809 C807 1.419 1_565 S
C809 C810 1.362 . S
C810 H802 0.930 . S
C810 C809 1.362 . S
C810 C813 1.409 . S
C811 H803 0.930 . S
C811 C812 1.355 . S
C811 C813 1.415 . S
C812 C811 1.355 . S
C812 C814 1.419 1_565 S
C813 C808 1.425 1_565 S
C813 C810 1.409 . S
C813 C811 1.415 . S
C814 H804 0.930 . S
C814 C812 1.419 1_545 S
C814 C815 1.362 . S
C815 H805 0.930 . S
C815 C808 1.409 . S
C815 C814 1.362 . S
H816 C822 0.930 . S
H817 C825 0.930 . S
H818 C826 0.930 . S
H819 C827 0.930 . S
H820 C830 0.930 . S
H821 C831 0.930 . S
C822 H816 0.930 . S
C822 C823 1.355 . S
C822 C824 1.415 . S
C823 C822 1.355 . S
C823 C825 1.419 1_545 S
C824 C822 1.415 . S
C824 C829 1.425 1_545 S
C824 C831 1.409 . S
C825 H817 0.930 . S
C825 C823 1.419 1_565 S
C825 C826 1.362 . S
C826 H818 0.930 . S
C826 C825 1.362 . S
C826 C829 1.409 . S
C827 H819 0.930 . S
C827 C828 1.355 . S
C827 C829 1.415 . S
C828 C827 1.355 . S
C828 C830 1.419 1_565 S
C829 C824 1.425 1_565 S
C829 C826 1.409 . S
C829 C827 1.415 . S
C830 H820 0.930 . S
C830 C828 1.419 1_545 S
C830 C831 1.362 . S
C831 H821 0.930 . S
C831 C824 1.409 . S
C831 C830 1.362 . S
H832 C838 0.930 . S
H833 C841 0.930 . S
H834 C842 0.930 . S
H835 C843 0.930 . S
H836 C846 0.930 . S
H837 C847 0.930 . S
C838 H832 0.930 . S
C838 C839 1.355 . S
C838 C840 1.415 . S
C839 C838 1.355 . S
C839 C841 1.419 . S
C840 C838 1.415 . S
C840 C845 1.425 . S
C840 C847 1.409 . S
C841 H833 0.930 . S
C841 C839 1.419 . S
C841 C842 1.362 . S
C842 H834 0.930 . S
C842 C841 1.362 . S
C842 C845 1.409 . S
C843 H835 0.930 . S
C843 C844 1.355 . S
C843 C845 1.415 . S
C844 C843 1.355 . S
C844 C846 1.419 . S
C845 C840 1.425 . S
C845 C842 1.409 . S
C845 C843 1.415 . S
C846 H836 0.930 . S
C846 C844 1.419 . S
C846 C847 1.362 . S
C847 H837 0.930 . S
C847 C840 1.409 . S
C847 C846 1.362 . S
H848 C854 0.930 . S
H849 C857 0.930 . S
H850 C858 0.930 . S
H851 C859 0.930 . S
H852 C862 0.930 . S
H853 C863 0.930 . S
C854 H848 0.930 . S
C854 C855 1.355 . S
C854 C856 1.415 . S
C855 C854 1.355 . S
C855 C857 1.419 . S
C856 C854 1.415 . S
C856 C861 1.425 . S
C856 C863 1.409 . S
C857 H849 0.930 . S
C857 C855 1.419 . S
C857 C858 1.362 . S
C858 H850 0.930 . S
C858 C857 1.362 . S
C858 C861 1.409 . S
C859 H851 0.930 . S
C859 C860 1.355 . S
C859 C861 1.415 . S
C860 C859 1.355 . S
C860 C862 1.419 . S
C861 C856 1.425 . S
C861 C858 1.409 . S
C861 C859 1.415 . S
C862 H852 0.930 . S
C862 C860 1.419 . S
C862 C863 1.362 . S
C863 H853 0.930 . S
C863 C856 1.409 . S
C863 C862 1.362 . S
H864 C870 0.930 . S
H865 C873 0.930 . S
H866 C874 0.930 . S
H867 C875 0.930 . S
H868 C878 0.930 . S
H869 C879 0.930 . S
C870 H864 0.930 . S
C870 C871 1.355 . S
C870 C872 1.415 . S
C871 C870 1.355 . S
C871 C873 1.419 . S
C872 C870 1.415 . S
C872 C877 1.425 . S
C872 C879 1.409 . S
C873 H865 0.930 . S
C873 C871 1.419 . S
C873 C874 1.362 . S
C874 H866 0.930 . S
C874 C873 1.362 . S
C874 C877 1.409 . S
C875 H867 0.930 . S
C875 C876 1.355 . S
C875 C877 1.415 . S
C876 C875 1.355 . S
C876 C878 1.419 . S
C877 C872 1.425 . S
C877 C874 1.409 . S
C877 C875 1.415 . S
C878 H868 0.930 . S
C878 C876 1.419 . S
C878 C879 1.362 . S
C879 H869 0.930 . S
C879 C872 1.409 . S
C879 C878 1.362 . S
H880 C886 0.930 . S
H881 C889 0.930 . S
H882 C890 0.930 . S
H883 C891 0.930 . S
H884 C894 0.930 . S
H885 C895 0.930 . S
C886 H880 0.930 . S
C886 C887 1.355 . S
C886 C888 1.415 . S
C887 C886 1.355 . S
C887 C889 1.419 . S
C888 C886 1.415 . S
C888 C893 1.425 . S
C888 C895 1.409 . S
C889 H881 0.930 . S
C889 C887 1.419 . S
C889 C890 1.362 . S
C890 H882 0.930 . S
C890 C889 1.362 . S
C890 C893 1.409 . S
C891 H883 0.930 . S
C891 C892 1.355 . S
C891 C893 1.415 . S
C892 C891 1.355 . S
C892 C894 1.419 . S
C893 C888 1.425 . S
C893 C890 1.409 . S
C893 C891 1.415 . S
C894 H884 0.930 . S
C894 C892 1.419 . S
C894 C895 1.362 . S
C895 H885 0.930 . S
C895 C888 1.409 . S
C895 C894 1.362 . S
H896 C902 0.930 . S
H897 C905 0.930 . S
H898 C906 0.930 . S
H899 C907 0.930 . S
H900 C910 0.930 . S
H901 C911 0.930 . S
C902 H896 0.930 . S
C902 C903 1.355 . S
C902 C904 1.415 . S
C903 C902 1.355 . S
C903 C905 1.419 . S
C904 C902 1.415 . S
C904 C909 1.425 1_556 S
C904 C911 1.409 1_556 S
C905 H897 0.930 . S
C905 C903 1.419 . S
C905 C906 1.362 . S
C906 H898 0.930 . S
C906 C905 1.362 . S
C906 C909 1.409 1_556 S
C907 H899 0.930 . S
C907 C908 1.355 . S
C907 C909 1.415 . S
C908 C907 1.355 . S
C908 C910 1.419 . S
C909 C904 1.425 1_554 S
C909 C906 1.409 1_554 S
C909 C907 1.415 . S
C910 H900 0.930 . S
C910 C908 1.419 . S
C910 C911 1.362 . S
C911 H901 0.930 . S
C911 C904 1.409 1_554 S
C911 C910 1.362 . S
H912 C918 0.930 . S
H913 C921 0.930 . S
H914 C922 0.930 . S
H915 C923 0.930 . S
H916 C926 0.930 . S
H917 C927 0.930 . S
C918 H912 0.930 . S
C918 C919 1.355 . S
C918 C920 1.415 . S
C919 C918 1.355 . S
C919 C921 1.419 . S
C920 C918 1.415 . S
C920 C925 1.425 1_556 S
C920 C927 1.409 1_556 S
C921 H913 0.930 . S
C921 C919 1.419 . S
C921 C922 1.362 . S
C922 H914 0.930 . S
C922 C921 1.362 . S
C922 C925 1.409 1_556 S
C923 H915 0.930 . S
C923 C924 1.355 . S
C923 C925 1.415 . S
C924 C923 1.355 . S
C924 C926 1.419 . S
C925 C920 1.425 1_554 S
C925 C922 1.409 1_554 S
C925 C923 1.415 . S
C926 H916 0.930 . S
C926 C924 1.419 . S
C926 C927 1.362 . S
C927 H917 0.930 . S
C927 C920 1.409 1_554 S
C927 C926 1.362 . S
H928 C934 0.930 . S
H929 C937 0.930 . S
H930 C938 0.930 . S
H931 C939 0.930 . S
H932 C942 0.930 . S
H933 C943 0.930 . S
C934 H928 0.930 . S
C934 C935 1.355 . S
C934 C936 1.415 . S
C935 C934 1.355 . S
C935 C937 1.419 . S
C936 C934 1.415 . S
C936 C941 1.425 . S
C936 C943 1.409 . S
C937 H929 0.930 . S
C937 C935 1.419 . S
C937 C938 1.362 . S
C938 H930 0.930 . S
C938 C937 1.362 . S
C938 C941 1.409 . S
C939 H931 0.930 . S
C939 C940 1.355 . S
C939 C941 1.415 . S
C940 C939 1.355 . S
C940 C942 1.419 . S
C941 C936 1.425 . S
C941 C938 1.409 . S
C941 C939 1.415 . S
C942 H932 0.930 . S
C942 C940 1.419 . S
C942 C943 1.362 . S
C943 H933 0.930 . S
C943 C936 1.409 . S
C943 C942 1.362 . S
H944 C950 0.930 . S
H945 C953 0.930 . S
H946 C954 0.930 . S
H947 C955 0.930 . S
H948 C958 0.930 . S
H949 C959 0.930 . S
C950 H944 0.930 . S
C950 C951 1.355 . S
C950 C952 1.415 . S
C951 C950 1.355 . S
C951 C953 1.419 . S
C952 C950 1.415 . S
C952 C957 1.425 . S
C952 C959 1.409 . S
C953 H945 0.930 . S
C953 C951 1.419 . S
C953 C954 1.362 . S
C954 H946 0.930 . S
C954 C953 1.362 . S
C954 C957 1.409 . S
C955 H947 0.930 . S
C955 C956 1.355 . S
C955 C957 1.415 . S
C956 C955 1.355 . S
C956 C958 1.419 . S
C957 C952 1.425 . S
C957 C954 1.409 . S
C957 C955 1.415 . S
C958 H948 0.930 . S
C958 C956 1.419 . S
C958 C959 1.362 . S
C959 H949 0.930 . S
C959 C952 1.409 . S
C959 C958 1.362 . S
H960 C966 0.930 . S
H961 C969 0.930 . S
H962 C970 0.930 . S
H963 C971 0.930 . S
H964 C974 0.930 . S
H965 C975 0.930 . S
C966 H960 0.930 . S
C966 C967 1.355 . S
C966 C968 1.415 . S
C967 C966 1.355 . S
C967 C969 1.419 . S
C968 C966 1.415 . S
C968 C973 1.425 1_554 S
C968 C975 1.409 1_554 S
C969 H961 0.930 . S
C969 C967 1.419 . S
C969 C970 1.362 . S
C970 H962 0.930 . S
C970 C969 1.362 . S
C970 C973 1.409 1_554 S
C971 H963 0.930 . S
C971 C972 1.355 . S
C971 C973 1.415 . S
C972 C971 1.355 . S
C972 C974 1.419 . S
C973 C968 1.425 1_556 S
C973 C970 1.409 1_556 S
C973 C971 1.415 . S
C974 H964 0.930 . S
C974 C972 1.419 . S
C974 C975 1.362 . S
C975 H965 0.930 . S
C975 C968 1.409 1_556 S
C975 C974 1.362 . S
H976 C982 0.930 . S
H977 C985 0.930 . S
H978 C986 0.930 . S
H979 C987 0.930 . S
H980 C990 0.930 . S
H981 C991 0.930 . S
C982 H976 0.930 . S
C982 C983 1.355 . S
C982 C984 1.415 . S
C983 C982 1.355 . S
C983 C985 1.419 . S
C984 C982 1.415 . S
C984 C989 1.425 1_556 S
C984 C991 1.409 1_556 S
C985 H977 0.930 . S
C985 C983 1.419 . S
C985 C986 1.362 . S
C986 H978 0.930 . S
C986 C985 1.362 . S
C986 C989 1.409 1_556 S
C987 H979 0.930 . S
C987 C988 1.355 . S
C987 C989 1.415 . S
C988 C987 1.355 . S
C988 C990 1.419 . S
C989 C984 1.425 1_554 S
C989 C986 1.409 1_554 S
C989 C987 1.415 . S
C990 H980 0.930 . S
C990 C988 1.419 . S
C990 C991 1.362 . S
C991 H981 0.930 . S
C991 C984 1.409 1_554 S
C991 C990 1.362 . S
H992 C998 0.930 . S
H993 C1001 0.930 . S
H994 C1002 0.930 . S
H995 C1003 0.930 . S
H996 C1006 0.930 . S
H997 C1007 0.930 . S
C998 H992 0.930 . S
C998 C999 1.355 . S
C998 C1000 1.415 . S
C999 C998 1.355 . S
C999 C1001 1.419 . S
C1000 C998 1.415 . S
C1000 C1005 1.425 . S
C1000 C1007 1.409 . S
C1001 H993 0.930 . S
C1001 C999 1.419 . S
C1001 C1002 1.362 . S
C1002 H994 0.930 . S
C1002 C1001 1.362 . S
C1002 C1005 1.409 . S
C1003 H995 0.930 . S
C1003 C1004 1.355 . S
C1003 C1005 1.415 . S
C1004 C1003 1.355 . S
C1004 C1006 1.419 . S
C1005 C1000 1.425 . S
C1005 C1002 1.409 . S
C1005 C1003 1.415 . S
C1006 H996 0.930 . S
C1006 C1004 1.419 . S
C1006 C1007 1.362 . S
C1007 H997 0.930 . S
C1007 C1000 1.409 . S
C1007 C1006 1.362 . S
H1008 C1014 0.930 . S
H1009 C1017 0.930 . S
H1010 C1018 0.930 . S
H1011 C1019 0.930 . S
H1012 C1022 0.930 . S
H1013 C1023 0.930 . S
C1014 H1008 0.930 . S
C1014 C1015 1.355 . S
C1014 C1016 1.415 . S
C1015 C1014 1.355 . S
C1015 C1017 1.419 . S
C1016 C1014 1.415 . S
C1016 C1021 1.425 . S
C1016 C1023 1.409 . S
C1017 H1009 0.930 . S
C1017 C1015 1.419 . S
C1017 C1018 1.362 . S
C1018 H1010 0.930 . S
C1018 C1017 1.362 . S
C1018 C1021 1.409 . S
C1019 H1011 0.930 . S
C1019 C1020 1.355 . S
C1019 C1021 1.415 . S
C1020 C1019 1.355 . S
C1020 C1022 1.419 . S
C1021 C1016 1.425 . S
C1021 C1018 1.409 . S
C1021 C1019 1.415 . S
C1022 H1012 0.930 . S
C1022 C1020 1.419 . S
C1022 C1023 1.362 . S
C1023 H1013 0.930 . S
C1023 C1016 1.409 . S
C1023 C1022 1.362 . S
H1024 C1030 0.930 . S
H1025 C1033 0.930 . S
H1026 C1034 0.930 . S
H1027 C1035 0.930 . S
H1028 C1038 0.930 . S
H1029 C1039 0.930 . S
C1030 H1024 0.930 . S
C1030 C1031 1.355 1_545 S
C1030 C1032 1.415 . S
C1031 C1030 1.355 1_565 S
C1031 C1033 1.419 . S
C1032 C1030 1.415 . S
C1032 C1037 1.425 1_645 S
C1032 C1039 1.409 1_655 S
C1033 H1025 0.930 . S
C1033 C1031 1.419 . S
C1033 C1034 1.362 . S
C1034 H1026 0.930 . S
C1034 C1033 1.362 . S
C1034 C1037 1.409 1_655 S
C1035 H1027 0.930 . S
C1035 C1036 1.355 1_565 S
C1035 C1037 1.415 . S
C1036 C1035 1.355 1_545 S
C1036 C1038 1.419 . S
C1037 C1032 1.425 1_465 S
C1037 C1034 1.409 1_455 S
C1037 C1035 1.415 . S
C1038 H1028 0.930 . S
C1038 C1036 1.419 . S
C1038 C1039 1.362 . S
C1039 H1029 0.930 . S
C1039 C1032 1.409 1_455 S
C1039 C1038 1.362 . S
H1040 C1046 0.928 1_565 S
H1041 C1049 0.930 . S
H1042 C1050 0.930 . S
H1043 C1051 0.928 1_545 S
H1044 C1054 0.930 . S
H1045 C1055 0.930 . S
C1046 H1040 0.928 1_545 S
C1046 C1047 1.355 . S
C1046 C1048 1.415 1_545 S
C1047 C1046 1.355 . S
C1047 C1049 1.419 . S
C1048 C1046 1.415 1_565 S
C1048 C1053 1.425 1_665 S
C1048 C1055 1.409 1_655 S
C1049 H1041 0.930 . S
C1049 C1047 1.419 . S
C1049 C1050 1.362 . S
C1050 H1042 0.930 . S
C1050 C1049 1.362 . S
C1050 C1053 1.409 1_655 S
C1051 H1043 0.928 1_565 S
C1051 C1052 1.355 . S
C1051 C1053 1.415 1_565 S
C1052 C1051 1.355 . S
C1052 C1054 1.419 . S
C1053 C1048 1.425 1_445 S
C1053 C1050 1.409 1_455 S
C1053 C1051 1.415 1_545 S
C1054 H1044 0.930 . S
C1054 C1052 1.419 . S
C1054 C1055 1.362 . S
C1055 H1045 0.930 . S
C1055 C1048 1.409 1_455 S
C1055 C1054 1.362 . S
H1056 C1062 0.930 . S
H1057 C1065 0.930 . S
H1058 C1066 0.930 . S
H1059 C1067 0.930 . S
H1060 C1070 0.930 . S
H1061 C1071 0.930 . S
C1062 H1056 0.930 . S
C1062 C1063 1.355 1_565 S
C1062 C1064 1.415 . S
C1063 C1062 1.355 1_545 S
C1063 C1065 1.419 . S
C1064 C1062 1.415 . S
C1064 C1069 1.425 1_465 S
C1064 C1071 1.409 1_455 S
C1065 H1057 0.930 . S
C1065 C1063 1.419 . S
C1065 C1066 1.362 . S
C1066 H1058 0.930 . S
C1066 C1065 1.362 . S
C1066 C1069 1.409 1_455 S
C1067 H1059 0.930 . S
C1067 C1068 1.355 1_545 S
C1067 C1069 1.415 . S
C1068 C1067 1.355 1_565 S
C1068 C1070 1.419 . S
C1069 C1064 1.425 1_645 S
C1069 C1066 1.409 1_655 S
C1069 C1067 1.415 . S
C1070 H1060 0.930 . S
C1070 C1068 1.419 . S
C1070 C1071 1.362 . S
C1071 H1061 0.930 . S
C1071 C1064 1.409 1_655 S
C1071 C1070 1.362 . S
H1072 C1078 0.930 1_565 S
H1073 C1081 0.930 . S
H1074 C1082 0.930 . S
H1075 C1083 0.930 1_545 S
H1076 C1086 0.930 . S
H1077 C1087 0.930 . S
C1078 H1072 0.930 1_545 S
C1078 C1079 1.355 . S
C1078 C1080 1.415 1_545 S
C1079 C1078 1.355 . S
C1079 C1081 1.419 . S
C1080 C1078 1.415 1_565 S
C1080 C1085 1.425 1_665 S
C1080 C1087 1.409 1_655 S
C1081 H1073 0.930 . S
C1081 C1079 1.419 . S
C1081 C1082 1.362 . S
C1082 H1074 0.930 . S
C1082 C1081 1.362 . S
C1082 C1085 1.409 1_655 S
C1083 H1075 0.930 1_565 S
C1083 C1084 1.355 . S
C1083 C1085 1.415 1_565 S
C1084 C1083 1.355 . S
C1084 C1086 1.419 . S
C1085 C1080 1.425 1_445 S
C1085 C1082 1.409 1_455 S
C1085 C1083 1.415 1_545 S
C1086 H1076 0.930 . S
C1086 C1084 1.419 . S
C1086 C1087 1.362 . S
C1087 H1077 0.930 . S
C1087 C1080 1.409 1_455 S
C1087 C1086 1.362 . S
H1088 C1094 0.930 . S
H1089 C1097 0.930 . S
H1090 C1098 0.930 . S
H1091 C1099 0.930 . S
H1092 C1102 0.930 . S
H1093 C1103 0.930 . S
C1094 H1088 0.930 . S
C1094 C1095 1.355 . S
C1094 C1096 1.415 . S
C1095 C1094 1.355 . S
C1095 C1097 1.419 . S
C1096 C1094 1.415 . S
C1096 C1101 1.425 . S
C1096 C1103 1.409 . S
C1097 H1089 0.930 . S
C1097 C1095 1.419 . S
C1097 C1098 1.362 . S
C1098 H1090 0.930 . S
C1098 C1097 1.362 . S
C1098 C1101 1.409 . S
C1099 H1091 0.930 . S
C1099 C1100 1.355 . S
C1099 C1101 1.415 . S
C1100 C1099 1.355 . S
C1100 C1102 1.419 . S
C1101 C1096 1.425 . S
C1101 C1098 1.409 . S
C1101 C1099 1.415 . S
C1102 H1092 0.930 . S
C1102 C1100 1.419 . S
C1102 C1103 1.362 . S
C1103 H1093 0.930 . S
C1103 C1096 1.409 . S
C1103 C1102 1.362 . S
H1104 C1110 0.930 . S
H1105 C1113 0.930 . S
H1106 C1114 0.930 . S
H1107 C1115 0.930 . S
H1108 C1118 0.930 . S
H1109 C1119 0.930 . S
C1110 H1104 0.930 . S
C1110 C1111 1.355 . S
C1110 C1112 1.415 . S
C1111 C1110 1.355 . S
C1111 C1113 1.419 . S
C1112 C1110 1.415 . S
C1112 C1117 1.425 . S
C1112 C1119 1.409 . S
C1113 H1105 0.930 . S
C1113 C1111 1.419 . S
C1113 C1114 1.362 . S
C1114 H1106 0.930 . S
C1114 C1113 1.362 . S
C1114 C1117 1.409 . S
C1115 H1107 0.930 . S
C1115 C1116 1.355 . S
C1115 C1117 1.415 . S
C1116 C1115 1.355 . S
C1116 C1118 1.419 . S
C1117 C1112 1.425 . S
C1117 C1114 1.409 . S
C1117 C1115 1.415 . S
C1118 H1108 0.930 . S
C1118 C1116 1.419 . S
C1118 C1119 1.362 . S
C1119 H1109 0.930 . S
C1119 C1112 1.409 . S
C1119 C1118 1.362 . S
H1120 C1126 0.930 . S
H1121 C1129 0.930 . S
H1122 C1130 0.930 . S
H1123 C1131 0.930 . S
H1124 C1134 0.930 . S
H1125 C1135 0.930 . S
C1126 H1120 0.930 . S
C1126 C1127 1.355 . S
C1126 C1128 1.415 . S
C1127 C1126 1.355 . S
C1127 C1129 1.419 . S
C1128 C1126 1.415 . S
C1128 C1133 1.425 . S
C1128 C1135 1.409 . S
C1129 H1121 0.930 . S
C1129 C1127 1.419 . S
C1129 C1130 1.362 . S
C1130 H1122 0.930 . S
C1130 C1129 1.362 . S
C1130 C1133 1.409 . S
C1131 H1123 0.930 . S
C1131 C1132 1.355 . S
C1131 C1133 1.415 . S
C1132 C1131 1.355 . S
C1132 C1134 1.419 . S
C1133 C1128 1.425 . S
C1133 C1130 1.409 . S
C1133 C1131 1.415 . S
C1134 H1124 0.930 . S
C1134 C1132 1.419 . S
C1134 C1135 1.362 . S
C1135 H1125 0.930 . S
C1135 C1128 1.409 . S
C1135 C1134 1.362 . S
H1136 C1142 0.930 . S
H1137 C1145 0.930 . S
H1138 C1146 0.930 . S
H1139 C1147 0.930 . S
H1140 C1150 0.930 . S
H1141 C1151 0.930 . S
C1142 H1136 0.930 . S
C1142 C1143 1.355 . S
C1142 C1144 1.415 . S
C1143 C1142 1.355 . S
C1143 C1145 1.419 . S
C1144 C1142 1.415 . S
C1144 C1149 1.425 . S
C1144 C1151 1.409 . S
C1145 H1137 0.930 . S
C1145 C1143 1.419 . S
C1145 C1146 1.362 . S
C1146 H1138 0.930 . S
C1146 C1145 1.362 . S
C1146 C1149 1.409 . S
C1147 H1139 0.930 . S
C1147 C1148 1.355 . S
C1147 C1149 1.415 . S
C1148 C1147 1.355 . S
C1148 C1150 1.419 . S
C1149 C1144 1.425 . S
C1149 C1146 1.409 . S
C1149 C1147 1.415 . S
C1150 H1140 0.930 . S
C1150 C1148 1.419 . S
C1150 C1151 1.362 . S
C1151 H1141 0.930 . S
C1151 C1144 1.409 . S
C1151 C1150 1.362 . S
H1152 C1158 0.930 . S
H1153 C1161 0.930 . S
H1154 C1162 0.930 . S
H1155 C1163 0.930 . S
H1156 C1166 0.930 . S
H1157 C1167 0.930 . S
C1158 H1152 0.930 . S
C1158 C1159 1.355 . S
C1158 C1160 1.415 . S
C1159 C1158 1.355 . S
C1159 C1161 1.419 . S
C1160 C1158 1.415 . S
C1160 C1165 1.425 . S
C1160 C1167 1.409 . S
C1161 H1153 0.930 . S
C1161 C1159 1.419 . S
C1161 C1162 1.362 . S
C1162 H1154 0.930 . S
C1162 C1161 1.362 . S
C1162 C1165 1.409 . S
C1163 H1155 0.930 . S
C1163 C1164 1.355 . S
C1163 C1165 1.415 . S
C1164 C1163 1.355 . S
C1164 C1166 1.419 . S
C1165 C1160 1.425 . S
C1165 C1162 1.409 . S
C1165 C1163 1.415 . S
C1166 H1156 0.930 . S
C1166 C1164 1.419 . S
C1166 C1167 1.362 . S
C1167 H1157 0.930 . S
C1167 C1160 1.409 . S
C1167 C1166 1.362 . S
H1168 C1174 0.930 . S
H1169 C1177 0.930 . S
H1170 C1178 0.930 . S
H1171 C1179 0.930 . S
H1172 C1182 0.930 . S
H1173 C1183 0.930 . S
C1174 H1168 0.930 . S
C1174 C1175 1.355 . S
C1174 C1176 1.415 . S
C1175 C1174 1.355 . S
C1175 C1177 1.419 . S
C1176 C1174 1.415 . S
C1176 C1181 1.425 . S
C1176 C1183 1.409 . S
C1177 H1169 0.930 . S
C1177 C1175 1.419 . S
C1177 C1178 1.362 . S
C1178 H1170 0.930 . S
C1178 C1177 1.362 . S
C1178 C1181 1.409 . S
C1179 H1171 0.930 . S
C1179 C1180 1.355 . S
C1179 C1181 1.415 . S
C1180 C1179 1.355 . S
C1180 C1182 1.419 . S
C1181 C1176 1.425 . S
C1181 C1178 1.409 . S
C1181 C1179 1.415 . S
C1182 H1172 0.930 . S
C1182 C1180 1.419 . S
C1182 C1183 1.362 . S
C1183 H1173 0.930 . S
C1183 C1176 1.409 . S
C1183 C1182 1.362 . S
H1184 C1190 0.930 . S
H1185 C1193 0.930 . S
H1186 C1194 0.930 . S
H1187 C1195 0.930 . S
H1188 C1198 0.930 . S
H1189 C1199 0.930 . S
C1190 H1184 0.930 . S
C1190 C1191 1.355 . S
C1190 C1192 1.415 . S
C1191 C1190 1.355 . S
C1191 C1193 1.419 . S
C1192 C1190 1.415 . S
C1192 C1197 1.425 . S
C1192 C1199 1.409 . S
C1193 H1185 0.930 . S
C1193 C1191 1.419 . S
C1193 C1194 1.362 . S
C1194 H1186 0.930 . S
C1194 C1193 1.362 . S
C1194 C1197 1.409 . S
C1195 H1187 0.930 . S
C1195 C1196 1.355 . S
C1195 C1197 1.415 . S
C1196 C1195 1.355 . S
C1196 C1198 1.419 . S
C1197 C1192 1.425 . S
C1197 C1194 1.409 . S
C1197 C1195 1.415 . S
C1198 H1188 0.930 . S
C1198 C1196 1.419 . S
C1198 C1199 1.362 . S
C1199 H1189 0.930 . S
C1199 C1192 1.409 . S
C1199 C1198 1.362 . S
H1200 C1206 0.930 . S
H1201 C1209 0.930 . S
H1202 C1210 0.930 . S
H1203 C1211 0.930 . S
H1204 C1214 0.930 . S
H1205 C1215 0.930 . S
C1206 H1200 0.930 . S
C1206 C1207 1.355 . S
C1206 C1208 1.415 . S
C1207 C1206 1.355 . S
C1207 C1209 1.419 . S
C1208 C1206 1.415 . S
C1208 C1213 1.425 . S
C1208 C1215 1.409 . S
C1209 H1201 0.930 . S
C1209 C1207 1.419 . S
C1209 C1210 1.362 . S
C1210 H1202 0.930 . S
C1210 C1209 1.362 . S
C1210 C1213 1.409 . S
C1211 H1203 0.930 . S
C1211 C1212 1.355 . S
C1211 C1213 1.415 . S
C1212 C1211 1.355 . S
C1212 C1214 1.419 . S
C1213 C1208 1.425 . S
C1213 C1210 1.409 . S
C1213 C1211 1.415 . S
C1214 H1204 0.930 . S
C1214 C1212 1.419 . S
C1214 C1215 1.362 . S
C1215 H1205 0.930 . S
C1215 C1208 1.409 . S
C1215 C1214 1.362 . S
H1216 C1222 0.930 . S
H1217 C1225 0.930 . S
H1218 C1226 0.930 . S
H1219 C1227 0.930 . S
H1220 C1230 0.930 . S
H1221 C1231 0.930 . S
C1222 H1216 0.930 . S
C1222 C1223 1.355 . S
C1222 C1224 1.415 . S
C1223 C1222 1.355 . S
C1223 C1225 1.419 . S
C1224 C1222 1.415 . S
C1224 C1229 1.425 . S
C1224 C1231 1.409 . S
C1225 H1217 0.930 . S
C1225 C1223 1.419 . S
C1225 C1226 1.362 . S
C1226 H1218 0.930 . S
C1226 C1225 1.362 . S
C1226 C1229 1.409 . S
C1227 H1219 0.930 . S
C1227 C1228 1.355 . S
C1227 C1229 1.415 . S
C1228 C1227 1.355 . S
C1228 C1230 1.419 . S
C1229 C1224 1.425 . S
C1229 C1226 1.409 . S
C1229 C1227 1.415 . S
C1230 H1220 0.930 . S
C1230 C1228 1.419 . S
C1230 C1231 1.362 . S
C1231 H1221 0.930 . S
C1231 C1224 1.409 . S
C1231 C1230 1.362 . S
H1232 C1238 0.930 . S
H1233 C1241 0.930 . S
H1234 C1242 0.930 . S
H1235 C1243 0.930 . S
H1236 C1246 0.930 . S
H1237 C1247 0.930 . S
C1238 H1232 0.930 . S
C1238 C1239 1.355 . S
C1238 C1240 1.415 . S
C1239 C1238 1.355 . S
C1239 C1241 1.419 . S
C1240 C1238 1.415 . S
C1240 C1245 1.425 . S
C1240 C1247 1.409 . S
C1241 H1233 0.930 . S
C1241 C1239 1.419 . S
C1241 C1242 1.362 . S
C1242 H1234 0.930 . S
C1242 C1241 1.362 . S
C1242 C1245 1.409 . S
C1243 H1235 0.930 . S
C1243 C1244 1.355 . S
C1243 C1245 1.415 . S
C1244 C1243 1.355 . S
C1244 C1246 1.419 . S
C1245 C1240 1.425 . S
C1245 C1242 1.409 . S
C1245 C1243 1.415 . S
C1246 H1236 0.930 . S
C1246 C1244 1.419 . S
C1246 C1247 1.362 . S
C1247 H1237 0.930 . S
C1247 C1240 1.409 . S
C1247 C1246 1.362 . S
H1248 C1254 0.930 . S
H1249 C1257 0.930 . S
H1250 C1258 0.930 . S
H1251 C1259 0.930 . S
H1252 C1262 0.930 . S
H1253 C1263 0.930 . S
C1254 H1248 0.930 . S
C1254 C1255 1.355 . S
C1254 C1256 1.415 . S
C1255 C1254 1.355 . S
C1255 C1257 1.419 . S
C1256 C1254 1.415 . S
C1256 C1261 1.425 . S
C1256 C1263 1.409 . S
C1257 H1249 0.930 . S
C1257 C1255 1.419 . S
C1257 C1258 1.362 . S
C1258 H1250 0.930 . S
C1258 C1257 1.362 . S
C1258 C1261 1.409 . S
C1259 H1251 0.930 . S
C1259 C1260 1.355 . S
C1259 C1261 1.415 . S
C1260 C1259 1.355 . S
C1260 C1262 1.419 . S
C1261 C1256 1.425 . S
C1261 C1258 1.409 . S
C1261 C1259 1.415 . S
C1262 H1252 0.930 . S
C1262 C1260 1.419 . S
C1262 C1263 1.362 . S
C1263 H1253 0.930 . S
C1263 C1256 1.409 . S
C1263 C1262 1.362 . S
H1264 C1270 0.930 . S
H1265 C1273 0.930 . S
H1266 C1274 0.930 . S
H1267 C1275 0.930 . S
H1268 C1278 0.930 . S
H1269 C1279 0.930 . S
C1270 H1264 0.930 . S
C1270 C1271 1.355 . S
C1270 C1272 1.415 . S
C1271 C1270 1.355 . S
C1271 C1273 1.419 . S
C1272 C1270 1.415 . S
C1272 C1277 1.425 . S
C1272 C1279 1.409 . S
C1273 H1265 0.930 . S
C1273 C1271 1.419 . S
C1273 C1274 1.362 . S
C1274 H1266 0.930 . S
C1274 C1273 1.362 . S
C1274 C1277 1.409 . S
C1275 H1267 0.930 . S
C1275 C1276 1.355 . S
C1275 C1277 1.415 . S
C1276 C1275 1.355 . S
C1276 C1278 1.419 . S
C1277 C1272 1.425 . S
C1277 C1274 1.409 . S
C1277 C1275 1.415 . S
C1278 H1268 0.930 . S
C1278 C1276 1.419 . S
C1278 C1279 1.362 . S
C1279 H1269 0.930 . S
C1279 C1272 1.409 . S
C1279 C1278 1.362 . S
H1280 C1286 0.929 . S
H1281 C1289 0.930 . S
H1282 C1290 0.930 . S
H1283 C1291 0.930 . S
H1284 C1294 0.930 . S
H1285 C1295 0.930 . S
C1286 H1280 0.929 . S
C1286 C1287 1.355 1_545 S
C1286 C1288 1.415 . S
C1287 C1286 1.355 1_565 S
C1287 C1289 1.419 1_565 S
C1288 C1286 1.415 . S
C1288 C1293 1.425 . S
C1288 C1295 1.409 . S
C1289 H1281 0.930 . S
C1289 C1287 1.419 1_545 S
C1289 C1290 1.362 . S
C1290 H1282 0.930 . S
C1290 C1289 1.362 . S
C1290 C1293 1.409 . S
C1291 H1283 0.930 . S
C1291 C1292 1.355 . S
C1291 C1293 1.415 . S
C1292 C1291 1.355 . S
C1292 C1294 1.419 . S
C1293 C1288 1.425 . S
C1293 C1290 1.409 . S
C1293 C1291 1.415 . S
C1294 H1284 0.930 . S
C1294 C1292 1.419 . S
C1294 C1295 1.362 . S
C1295 H1285 0.930 . S
C1295 C1288 1.409 . S
C1295 C1294 1.362 . S
H1296 C1302 0.930 . S
H1297 C1305 0.930 . S
H1298 C1306 0.930 . S
H1299 C1307 0.930 . S
H1300 C1310 0.928 1_545 S
H1301 C1311 0.930 . S
C1302 H1296 0.930 . S
C1302 C1303 1.355 . S
C1302 C1304 1.415 . S
C1303 C1302 1.355 . S
C1303 C1305 1.419 . S
C1304 C1302 1.415 . S
C1304 C1309 1.425 . S
C1304 C1311 1.409 . S
C1305 H1297 0.930 . S
C1305 C1303 1.419 . S
C1305 C1306 1.362 . S
C1306 H1298 0.930 . S
C1306 C1305 1.362 . S
C1306 C1309 1.409 . S
C1307 H1299 0.930 . S
C1307 C1308 1.355 1_565 S
C1307 C1309 1.415 . S
C1308 C1307 1.355 1_545 S
C1308 C1310 1.419 1_545 S
C1309 C1304 1.425 . S
C1309 C1306 1.409 . S
C1309 C1307 1.415 . S
C1310 H1300 0.928 1_565 S
C1310 C1308 1.419 1_565 S
C1310 C1311 1.362 . S
C1311 H1301 0.930 . S
C1311 C1304 1.409 . S
C1311 C1310 1.362 . S
H1312 C1318 0.930 . S
H1313 C1321 0.947 . S
H1314 C1322 0.930 . S
H1315 C1323 0.930 . S
H1316 C1326 0.930 . S
H1317 C1327 0.930 . S
C1318 H1312 0.930 . S
C1318 C1319 1.355 1_565 S
C1318 C1320 1.415 . S
C1319 C1318 1.355 1_545 S
C1319 C1321 1.422 . S
C1320 C1318 1.415 . S
C1320 C1325 1.425 . S
C1320 C1327 1.409 . S
C1321 H1313 0.947 . S
C1321 C1319 1.422 . S
C1321 C1322 1.343 1_545 S
C1322 H1314 0.930 . S
C1322 C1321 1.343 1_565 S
C1322 C1325 1.409 . S
C1323 H1315 0.930 . S
C1323 C1324 1.355 . S
C1323 C1325 1.415 . S
C1324 C1323 1.355 . S
C1324 C1326 1.419 . S
C1325 C1320 1.425 . S
C1325 C1322 1.409 . S
C1325 C1323 1.415 . S
C1326 H1316 0.930 . S
C1326 C1324 1.419 . S
C1326 C1327 1.362 . S
C1327 H1317 0.930 . S
C1327 C1320 1.409 . S
C1327 C1326 1.362 . S
H1328 C1334 0.926 1_565 S
H1329 C1337 0.930 . S
H1330 C1338 0.930 . S
H1331 C1339 0.930 . S
H1332 C1342 0.930 . S
H1333 C1343 0.930 . S
C1334 H1328 0.926 1_545 S
C1334 C1335 1.355 1_545 S
C1334 C1336 1.415 . S
C1335 C1334 1.355 1_565 S
C1335 C1337 1.419 1_565 S
C1336 C1334 1.415 . S
C1336 C1341 1.425 . S
C1336 C1343 1.409 . S
C1337 H1329 0.930 . S
C1337 C1335 1.419 1_545 S
C1337 C1338 1.362 . S
C1338 H1330 0.930 . S
C1338 C1337 1.362 . S
C1338 C1341 1.409 . S
C1339 H1331 0.930 . S
C1339 C1340 1.355 . S
C1339 C1341 1.415 . S
C1340 C1339 1.355 . S
C1340 C1342 1.419 . S
C1341 C1336 1.425 . S
C1341 C1338 1.409 . S
C1341 C1339 1.415 . S
C1342 H1332 0.930 . S
C1342 C1340 1.419 . S
C1342 C1343 1.362 . S
C1343 H1333 0.930 . S
C1343 C1336 1.409 . S
C1343 C1342 1.362 . S
H1344 C1350 0.930 . S
H1345 C1353 0.930 . S
H1346 C1354 0.930 . S
H1347 C1355 0.930 . S
H1348 C1358 0.930 1_545 S
H1349 C1359 0.930 . S
C1350 H1344 0.930 . S
C1350 C1351 1.355 . S
C1350 C1352 1.415 . S
C1351 C1350 1.355 . S
C1351 C1353 1.419 . S
C1352 C1350 1.415 . S
C1352 C1357 1.425 . S
C1352 C1359 1.409 . S
C1353 H1345 0.930 . S
C1353 C1351 1.419 . S
C1353 C1354 1.362 . S
C1354 H1346 0.930 . S
C1354 C1353 1.362 . S
C1354 C1357 1.409 . S
C1355 H1347 0.930 . S
C1355 C1356 1.355 1_565 S
C1355 C1357 1.415 . S
C1356 C1355 1.355 1_545 S
C1356 C1358 1.419 1_545 S
C1357 C1352 1.425 . S
C1357 C1354 1.409 . S
C1357 C1355 1.415 . S
C1358 H1348 0.930 1_565 S
C1358 C1356 1.419 1_565 S
C1358 C1359 1.362 . S
C1359 H1349 0.930 . S
C1359 C1352 1.409 . S
C1359 C1358 1.362 . S
H1360 C1366 0.930 . S
H1361 C1369 0.930 . S
H1362 C1370 0.930 . S
H1363 C1371 0.930 . S
H1364 C1374 0.929 1_565 S
H1365 C1375 0.930 . S
C1366 H1360 0.930 . S
C1366 C1367 1.355 . S
C1366 C1368 1.415 . S
C1367 C1366 1.355 . S
C1367 C1369 1.419 . S
C1368 C1366 1.415 . S
C1368 C1373 1.425 . S
C1368 C1375 1.409 . S
C1369 H1361 0.930 . S
C1369 C1367 1.419 . S
C1369 C1370 1.362 . S
C1370 H1362 0.930 . S
C1370 C1369 1.362 . S
C1370 C1373 1.409 . S
C1371 H1363 0.930 . S
C1371 C1372 1.355 1_545 S
C1371 C1373 1.415 . S
C1372 C1371 1.355 1_565 S
C1372 C1374 1.419 1_565 S
C1373 C1368 1.425 . S
C1373 C1370 1.409 . S
C1373 C1371 1.415 . S
C1374 H1364 0.929 1_545 S
C1374 C1372 1.419 1_545 S
C1374 C1375 1.362 . S
C1375 H1365 0.930 . S
C1375 C1368 1.409 . S
C1375 C1374 1.362 . S
H1376 C1382 0.930 . S
H1377 C1385 0.930 1_565 S
H1378 C1386 0.930 . S
H1379 C1387 0.930 . S
H1380 C1390 0.930 . S
H1381 C1391 0.930 . S
C1382 H1376 0.930 . S
C1382 C1383 1.355 1_545 S
C1382 C1384 1.415 . S
C1383 C1382 1.355 1_565 S
C1383 C1385 1.419 1_565 S
C1384 C1382 1.415 . S
C1384 C1389 1.425 . S
C1384 C1391 1.409 . S
C1385 H1377 0.930 1_545 S
C1385 C1383 1.419 1_545 S
C1385 C1386 1.362 . S
C1386 H1378 0.930 . S
C1386 C1385 1.362 . S
C1386 C1389 1.409 . S
C1387 H1379 0.930 . S
C1387 C1388 1.355 . S
C1387 C1389 1.415 . S
C1388 C1387 1.355 . S
C1388 C1390 1.419 . S
C1389 C1384 1.425 . S
C1389 C1386 1.409 . S
C1389 C1387 1.415 . S
C1390 H1380 0.930 . S
C1390 C1388 1.419 . S
C1390 C1391 1.362 . S
C1391 H1381 0.930 . S
C1391 C1384 1.409 . S
C1391 C1390 1.362 . S
H1392 C1398 0.930 . S
H1393 C1401 0.930 . S
H1394 C1402 0.930 . S
H1395 C1403 0.931 1_545 S
H1396 C1406 0.930 . S
H1397 C1407 0.930 . S
C1398 H1392 0.930 . S
C1398 C1399 1.355 . S
C1398 C1400 1.415 . S
C1399 C1398 1.355 . S
C1399 C1401 1.419 . S
C1400 C1398 1.415 . S
C1400 C1405 1.425 . S
C1400 C1407 1.409 . S
C1401 H1393 0.930 . S
C1401 C1399 1.419 . S
C1401 C1402 1.362 . S
C1402 H1394 0.930 . S
C1402 C1401 1.362 . S
C1402 C1405 1.409 . S
C1403 H1395 0.931 1_565 S
C1403 C1404 1.355 1_565 S
C1403 C1405 1.415 . S
C1404 C1403 1.355 1_545 S
C1404 C1406 1.419 1_545 S
C1405 C1400 1.425 . S
C1405 C1402 1.409 . S
C1405 C1403 1.415 . S
C1406 H1396 0.930 . S
C1406 C1404 1.419 1_565 S
C1406 C1407 1.362 . S
C1407 H1397 0.930 . S
C1407 C1400 1.409 . S
C1407 C1406 1.362 . S
C647 C19 1.570 . S
C652 C379 1.565 . S
C663 C59 1.557 . S
C668 C339 1.575 . S
C679 C459 1.574 . S
C684 C99 1.559 . S
C695 C139 1.565 . S
C700 C419 1.555 . S
C711 C530 1.568 . S
C716 C170 1.567 . S
C727 C490 1.575 . S
C732 C210 1.556 . S
C743 C610 1.570 . S
C748 C250 1.565 . S
C759 C290 1.575 . S
C764 C570 1.556 . S
C775 C98 1.684 . S
C780 C18 1.709 . S
C791 C138 1.708 . S
C796 C58 1.685 . S
C807 C249 1.699 . S
C812 C169 1.692 . S
C823 C209 1.697 . S
C828 C289 1.695 . S
C839 C418 1.686 . S
C844 C338 1.707 . S
C855 C458 1.679 . S
C860 C378 1.713 . S
C871 C489 1.713 . S
C876 C569 1.679 . S
C887 C529 1.687 . S
C892 C609 1.705 . S
C903 C218 1.497 . S
C908 C9 1.521 . S
C919 C178 1.545 . S
C924 C49 1.472 . S
C935 C89 1.529 . S
C940 C298 1.488 . S
C951 C258 1.479 . S
C956 C129 1.539 . S
C967 C329 1.488 . S
C972 C538 1.530 . S
C983 C498 1.547 . S
C988 C369 1.470 . S
C999 C409 1.529 . S
C1004 C618 1.488 . S
C1015 C578 1.474 . S
C1020 C449 1.543 . S
C1031 C50 1.615 . S
C1036 C10 1.600 . S
C1047 C130 1.626 . S
C1052 C90 1.647 . S
C1063 C219 1.642 . S
C1068 C179 1.621 . S
C1079 C259 1.605 . S
C1084 C299 1.623 . S
C1095 C370 1.609 . S
C1100 C330 1.598 . S
C1111 C450 1.662 . S
C1116 C410 1.655 . S
C1127 C499 1.647 . S
C1132 C539 1.626 . S
C1143 C579 1.657 . S
C1148 C619 1.640 . S
C1159 C6 1.602 . S
C1164 C15 1.602 . S
C1175 C46 1.600 . S
C1180 C55 1.600 . S
C1191 C86 1.558 . S
C1196 C95 1.558 . S
C1207 C135 1.598 . S
C1212 C126 1.598 . S
C1223 C175 1.602 . S
C1228 C166 1.602 . S
C1239 C206 1.598 . S
C1244 C215 1.598 . S
C1255 C255 1.556 . S
C1260 C246 1.556 . S
C1271 C295 1.562 . S
C1276 C286 1.562 . S
C1287 C335 1.598 . S
C1292 C326 1.598 . S
C1303 C366 1.599 . S
C1308 C375 1.599 . S
C1319 C415 1.556 . S
C1324 C406 1.556 . S
C1335 C455 1.600 . S
C1340 C446 1.600 . S
C1351 C495 1.581 . S
C1356 C486 1.581 . S
C1367 C535 1.588 . S
C1372 C526 1.588 . S
C1383 C566 1.556 . S
C1388 C575 1.556 . S
C1399 C615 1.602 . S
C1404 C606 1.602 . S
