# Generated by pormake.
# Topology zfy, (5)-cn, num edge types: 1
# Building blocks:
#     Node 0, Type 0, BuildingBlock: XOMCOT_clean_sbu_0, # of connection points: 5
#     Node 1, Type 0, BuildingBlock: XOMCOT_clean_sbu_0, # of connection points: 5
#     Node 2, Type 0, BuildingBlock: XOMCOT_clean_sbu_0, # of connection points: 5
#     Node 3, Type 0, BuildingBlock: XOMCOT_clean_sbu_0, # of connection points: 5
#     Node 4, Type 0, BuildingBlock: XOMCOT_clean_sbu_0, # of connection points: 5
#     Node 5, Type 0, BuildingBlock: XOMCOT_clean_sbu_0, # of connection points: 5
#     Node 6, Type 0, BuildingBlock: XOMCOT_clean_sbu_0, # of connection points: 5
#     Node 7, Type 0, BuildingBlock: XOMCOT_clean_sbu_0, # of connection points: 5
#     Node 8, Type 0, BuildingBlock: XOMCOT_clean_sbu_0, # of connection points: 5
#     Node 9, Type 0, BuildingBlock: XOMCOT_clean_sbu_0, # of connection points: 5
#     Node 10, Type 0, BuildingBlock: XOMCOT_clean_sbu_0, # of connection points: 5
#     Node 11, Type 0, BuildingBlock: XOMCOT_clean_sbu_0, # of connection points: 5
#     Node 12, Type 0, BuildingBlock: XOMCOT_clean_sbu_0, # of connection points: 5
#     Node 13, Type 0, BuildingBlock: XOMCOT_clean_sbu_0, # of connection points: 5
#     Node 14, Type 0, BuildingBlock: XOMCOT_clean_sbu_0, # of connection points: 5
#     Node 15, Type 0, BuildingBlock: XOMCOT_clean_sbu_0, # of connection points: 5
#     Edge 16, Type (0, 0), BuildingBlock: KIFKEQ_clean_linker_1, # of connection points: 2
#     Edge 17, Type (0, 0), BuildingBlock: KIFKEQ_clean_linker_1, # of connection points: 2
#     Edge 18, Type (0, 0), BuildingBlock: KIFKEQ_clean_linker_1, # of connection points: 2
#     Edge 19, Type (0, 0), BuildingBlock: KIFKEQ_clean_linker_1, # of connection points: 2
#     Edge 20, Type (0, 0), BuildingBlock: KIFKEQ_clean_linker_1, # of connection points: 2
#     Edge 21, Type (0, 0), BuildingBlock: KIFKEQ_clean_linker_1, # of connection points: 2
#     Edge 22, Type (0, 0), BuildingBlock: KIFKEQ_clean_linker_1, # of connection points: 2
#     Edge 23, Type (0, 0), BuildingBlock: KIFKEQ_clean_linker_1, # of connection points: 2
#     Edge 24, Type (0, 0), BuildingBlock: KIFKEQ_clean_linker_1, # of connection points: 2
#     Edge 25, Type (0, 0), BuildingBlock: KIFKEQ_clean_linker_1, # of connection points: 2
#     Edge 26, Type (0, 0), BuildingBlock: KIFKEQ_clean_linker_1, # of connection points: 2
#     Edge 27, Type (0, 0), BuildingBlock: KIFKEQ_clean_linker_1, # of connection points: 2
#     Edge 28, Type (0, 0), BuildingBlock: KIFKEQ_clean_linker_1, # of connection points: 2
#     Edge 29, Type (0, 0), BuildingBlock: KIFKEQ_clean_linker_1, # of connection points: 2
#     Edge 30, Type (0, 0), BuildingBlock: KIFKEQ_clean_linker_1, # of connection points: 2
#     Edge 31, Type (0, 0), BuildingBlock: KIFKEQ_clean_linker_1, # of connection points: 2
#     Edge 32, Type (0, 0), BuildingBlock: KIFKEQ_clean_linker_1, # of connection points: 2
#     Edge 33, Type (0, 0), BuildingBlock: KIFKEQ_clean_linker_1, # of connection points: 2
#     Edge 34, Type (0, 0), BuildingBlock: KIFKEQ_clean_linker_1, # of connection points: 2
#     Edge 35, Type (0, 0), BuildingBlock: KIFKEQ_clean_linker_1, # of connection points: 2
#     Edge 36, Type (0, 0), BuildingBlock: KIFKEQ_clean_linker_1, # of connection points: 2
#     Edge 37, Type (0, 0), BuildingBlock: KIFKEQ_clean_linker_1, # of connection points: 2
#     Edge 38, Type (0, 0), BuildingBlock: KIFKEQ_clean_linker_1, # of connection points: 2
#     Edge 39, Type (0, 0), BuildingBlock: KIFKEQ_clean_linker_1, # of connection points: 2
#     Edge 40, Type (0, 0), BuildingBlock: KIFKEQ_clean_linker_1, # of connection points: 2
#     Edge 41, Type (0, 0), BuildingBlock: KIFKEQ_clean_linker_1, # of connection points: 2
#     Edge 42, Type (0, 0), BuildingBlock: KIFKEQ_clean_linker_1, # of connection points: 2
#     Edge 43, Type (0, 0), BuildingBlock: KIFKEQ_clean_linker_1, # of connection points: 2
#     Edge 44, Type (0, 0), BuildingBlock: KIFKEQ_clean_linker_1, # of connection points: 2
#     Edge 45, Type (0, 0), BuildingBlock: KIFKEQ_clean_linker_1, # of connection points: 2
#     Edge 46, Type (0, 0), BuildingBlock: KIFKEQ_clean_linker_1, # of connection points: 2
#     Edge 47, Type (0, 0), BuildingBlock: KIFKEQ_clean_linker_1, # of connection points: 2
#     Edge 48, Type (0, 0), BuildingBlock: KIFKEQ_clean_linker_1, # of connection points: 2
#     Edge 49, Type (0, 0), BuildingBlock: KIFKEQ_clean_linker_1, # of connection points: 2
#     Edge 50, Type (0, 0), BuildingBlock: KIFKEQ_clean_linker_1, # of connection points: 2
#     Edge 51, Type (0, 0), BuildingBlock: KIFKEQ_clean_linker_1, # of connection points: 2
#     Edge 52, Type (0, 0), BuildingBlock: KIFKEQ_clean_linker_1, # of connection points: 2
#     Edge 53, Type (0, 0), BuildingBlock: KIFKEQ_clean_linker_1, # of connection points: 2
#     Edge 54, Type (0, 0), BuildingBlock: KIFKEQ_clean_linker_1, # of connection points: 2
#     Edge 55, Type (0, 0), BuildingBlock: KIFKEQ_clean_linker_1, # of connection points: 2
# Relax obj value: 0.184
# Max RMSD: 0.234
# Mean RMSD: 0.230
data_MOF--net-zfy--node1-XOMCOT_clean_sbu_0--edge1-KIFKEQ_clean_linker_1
_symmetry_space_group_name_H-M    P1
_symmetry_Int_Tables_number       1
_symmetry_cell_setting            triclinic
loop_
_symmetry_equiv_pos_as_xyz
'x, y, z'
_cell_length_a     53.270005
_cell_length_b     53.388416
_cell_length_c     30.503075
_cell_angle_alpha  89.908458
_cell_angle_beta   89.955058
_cell_angle_gamma 90.119668
loop_
_atom_site_label
_atom_site_type_symbol
_atom_site_fract_x
_atom_site_fract_y
_atom_site_fract_z
_atom_type_partial_charge
Co0 Co 0.33554 0.20017 0.02207 0.0
C1 C 0.30543 0.22643 0.09436 0.0
C2 C 0.34544 0.2281 0.10128 0.0
C3 C 0.33492 0.2409 0.13547 0.0
N4 N 0.32718 0.21918 0.07486 0.0
N5 N 0.30981 0.23991 0.13126 0.0
H6 H 0.28686 0.22185 0.08282 0.0
H7 H 0.36531 0.2251 0.09648 0.0
C8 C 0.34047 0.16391 0.09547 0.0
O9 O 0.31932 0.1729 0.11093 0.0
N10 N 0.34595 0.18169 0.97079 0.0
C11 C 0.33506 0.1805 0.93101 0.0
C12 C 0.35129 0.16841 0.90267 0.0
C13 C 0.36844 0.17049 0.96622 0.0
N14 N 0.37228 0.16216 0.92498 0.0
C15 C 0.28289 0.19869 1.00706 0.0
C16 C 0.279 0.14731 0.99843 0.0
C17 C 0.25916 0.16241 0.98386 0.0
C18 C 0.26094 0.18832 0.99 0.0
C19 C 0.30078 0.15849 0.0153 0.0
N20 N 0.30274 0.18398 0.01872 0.0
H21 H 0.28454 0.21884 1.00775 0.0
H22 H 0.31683 0.1467 0.02161 0.0
H23 H 0.3171 0.18866 0.92279 0.0
H24 H 0.38234 0.16984 0.99205 0.0
O25 O 0.32779 0.2286 0.98605 0.0
O26 O 0.36521 0.22137 1.01467 0.0
O27 O 0.34978 0.17265 0.05994 0.0
C28 C 0.3509 0.23566 0.99064 0.0
H29 H 0.34498 0.24961 0.16226 0.0
H30 H 0.3481 0.16501 0.86816 0.0
H31 H 0.27855 0.12722 0.99351 0.0
H32 H 0.24603 0.20066 0.9793 0.0
Co33 Co 0.56553 0.58499 0.26933 0.0
C34 C 0.53919 0.55281 0.33641 0.0
C35 C 0.54851 0.58997 0.35832 0.0
C36 C 0.53546 0.57815 0.39102 0.0
N37 N 0.5508 0.5743 0.32405 0.0
N38 N 0.52955 0.5549 0.37737 0.0
H39 H 0.53724 0.53647 0.31574 0.0
H40 H 0.55546 0.60902 0.35901 0.0
C41 C 0.61828 0.59796 0.29531 0.0
O42 O 0.62617 0.58758 0.25878 0.0
N43 N 0.58034 0.59778 0.21524 0.0
C44 C 0.57934 0.58897 0.17379 0.0
C45 C 0.58998 0.6064 0.14592 0.0
C46 C 0.59088 0.62074 0.21148 0.0
N47 N 0.59731 0.62635 0.16976 0.0
C48 C 0.57226 0.5377 0.22832 0.0
C49 C 0.61178 0.52026 0.27807 0.0
C50 C 0.60476 0.50713 0.24013 0.0
C51 C 0.58393 0.51551 0.2166 0.0
C52 C 0.5993 0.54263 0.28886 0.0
N53 N 0.5812 0.55215 0.26174 0.0
H54 H 0.55622 0.54338 0.20942 0.0
H55 H 0.60459 0.55237 0.31843 0.0
H56 H 0.57065 0.57175 0.16347 0.0
H57 H 0.59293 0.63351 0.23877 0.0
O58 O 0.53483 0.57774 0.23935 0.0
O59 O 0.54352 0.61431 0.26961 0.0
O60 O 0.59482 0.59863 0.30404 0.0
C61 C 0.52783 0.60044 0.24748 0.0
H62 H 0.53062 0.58602 0.42261 0.0
H63 H 0.59184 0.6046 0.11073 0.0
H64 H 0.62716 0.51379 0.2983 0.0
H65 H 0.57688 0.50517 0.18863 0.0
Co66 Co 0.18806 0.81588 0.5165 0.0
C67 C 0.21832 0.79683 0.59226 0.0
C68 C 0.19325 0.7688 0.5673 0.0
C69 C 0.20718 0.75832 0.60019 0.0
N70 N 0.20038 0.79291 0.56152 0.0
N71 N 0.22303 0.7758 0.61572 0.0
H72 H 0.22817 0.8144 0.5966 0.0
H73 H 0.17895 0.75898 0.54917 0.0
C74 C 0.16237 0.83997 0.59179 0.0
O75 O 0.14867 0.81961 0.59565 0.0
N76 N 0.17533 0.83831 0.47209 0.0
C77 C 0.18533 0.84237 0.43212 0.0
C78 C 0.16818 0.85528 0.40709 0.0
C79 C 0.1523 0.84874 0.47094 0.0
N80 N 0.14741 0.85917 0.43149 0.0
C81 C 0.24078 0.81559 0.4998 0.0
C82 C 0.2467 0.8671 0.49775 0.0
C83 C 0.26683 0.85181 0.48536 0.0
C84 C 0.26396 0.82576 0.48774 0.0
C85 C 0.224 0.85618 0.51061 0.0
N86 N 0.2211 0.83075 0.51039 0.0
H87 H 0.23825 0.7955 0.49909 0.0
H88 H 0.20827 0.8682 0.51803 0.0
H89 H 0.20327 0.83523 0.42122 0.0
H90 H 0.13875 0.84708 0.49726 0.0
O91 O 0.19135 0.79041 0.47248 0.0
O92 O 0.15698 0.79667 0.51198 0.0
O93 O 0.17937 0.84118 0.56249 0.0
C94 C 0.16822 0.78435 0.48064 0.0
H95 H 0.20561 0.73927 0.61214 0.0
H96 H 0.17043 0.86058 0.37303 0.0
H97 H 0.24827 0.88731 0.49623 0.0
H98 H 0.27907 0.81339 0.47802 0.0
Co99 Co 0.95233 0.43444 0.76684 0.0
C100 C 0.97712 0.4686 0.83218 0.0
C101 C 0.96682 0.43241 0.85763 0.0
C102 C 0.9793 0.44524 0.88978 0.0
N103 N 0.9655 0.44687 0.82153 0.0
N104 N 0.98583 0.46789 0.87389 0.0
H105 H 0.97978 0.48413 0.80979 0.0
H106 H 0.95967 0.41348 0.85997 0.0
C107 C 0.89915 0.42026 0.78798 0.0
O108 O 0.89266 0.42868 0.74911 0.0
N109 N 0.93912 0.41988 0.71308 0.0
C110 C 0.93644 0.42923 0.67221 0.0
C111 C 0.92618 0.41091 0.64575 0.0
C112 C 0.93111 0.39591 0.71035 0.0
N113 N 0.92277 0.38996 0.66988 0.0
C114 C 0.94713 0.48131 0.72278 0.0
C115 C 0.90543 0.49898 0.76654 0.0
C116 C 0.91505 0.51279 0.73108 0.0
C117 C 0.9366 0.504 0.71009 0.0
C118 C 0.91705 0.47643 0.77896 0.0
N119 N 0.9366 0.46694 0.75505 0.0
H120 H 0.9635 0.47506 0.70523 0.0
H121 H 0.91016 0.46675 0.80761 0.0
H122 H 0.94161 0.44775 0.66152 0.0
H123 H 0.93078 0.38329 0.73813 0.0
O124 O 0.98386 0.44104 0.73858 0.0
O125 O 0.97463 0.4054 0.77169 0.0
O126 O 0.92208 0.42141 0.80031 0.0
C127 C 0.99084 0.41871 0.74952 0.0
H128 H 0.98329 0.43847 0.92253 0.0
H129 H 0.92189 0.41284 0.61125 0.0
H130 H 0.88924 0.50562 0.78456 0.0
H131 H 0.94483 0.51414 0.68283 0.0
Co132 Co 0.6889 0.82659 0.99626 0.0
C133 C 0.70212 0.80889 0.90568 0.0
C134 C 0.70763 0.78095 0.95543 0.0
C135 C 0.71398 0.7708 0.91569 0.0
N136 N 0.69991 0.80473 0.94933 0.0
N137 N 0.71049 0.78829 0.88439 0.0
H138 H 0.69783 0.82647 0.88974 0.0
H139 H 0.70912 0.77166 0.98683 0.0
C140 C 0.66983 0.79164 0.06885 0.0
O141 O 0.67212 0.80934 0.09839 0.0
N142 N 0.67781 0.84835 0.04305 0.0
C143 C 0.69149 0.86422 0.06773 0.0
C144 C 0.67564 0.87614 0.09672 0.0
C145 C 0.65385 0.85142 0.05628 0.0
N146 N 0.65201 0.86785 0.08967 0.0
C147 C 0.74081 0.83846 0.99762 0.0
C148 C 0.7534 0.81742 0.07722 0.0
C149 C 0.7713 0.83248 0.05572 0.0
C150 C 0.76473 0.84251 1.01477 0.0
C151 C 0.72941 0.81412 0.05908 0.0
N152 N 0.72298 0.82545 0.02047 0.0
H153 H 0.73643 0.84662 0.96619 0.0
H154 H 0.71626 0.80286 0.07691 0.0
H155 H 0.71155 0.86697 0.06513 0.0
H156 H 0.63817 0.84136 0.04219 0.0
O157 O 0.69292 0.85608 0.96017 0.0
O158 O 0.65789 0.83406 0.96467 0.0
O159 O 0.67687 0.79543 0.02916 0.0
C160 C 0.66952 0.85369 0.94921 0.0
H161 H 0.72146 0.75221 0.91043 0.0
H162 H 0.6812 0.88946 0.1216 0.0
H163 H 0.75768 0.80847 0.10818 0.0
H164 H 0.7775 0.85437 0.99652 0.0
Co165 Co 0.44334 0.43618 0.75097 0.0
C166 C 0.46177 0.45263 0.66223 0.0
C167 C 0.48786 0.46015 0.71424 0.0
C168 C 0.49733 0.4701 0.67616 0.0
N169 N 0.46554 0.44921 0.70578 0.0
N170 N 0.481 0.46533 0.64358 0.0
H171 H 0.44481 0.44742 0.64498 0.0
H172 H 0.49613 0.46204 0.74643 0.0
C173 C 0.47877 0.4173 0.82369 0.0
O174 O 0.4603 0.41535 0.85195 0.0
N175 N 0.42109 0.42306 0.79581 0.0
C176 C 0.403 0.43531 0.81797 0.0
C177 C 0.39086 0.41855 0.84508 0.0
C178 C 0.41889 0.39887 0.80818 0.0
N179 N 0.40105 0.39566 0.83915 0.0
C180 C 0.43296 0.48849 0.75183 0.0
C181 C 0.44261 0.49749 0.83933 0.0
C182 C 0.43162 0.51657 0.81417 0.0
C183 C 0.42757 0.51205 0.76948 0.0
C184 C 0.44807 0.47426 0.8202 0.0
N185 N 0.44237 0.46963 0.77729 0.0
H186 H 0.42857 0.48504 0.71779 0.0
H187 H 0.45547 0.45983 0.84085 0.0
H188 H 0.39869 0.455 0.81452 0.0
H189 H 0.43046 0.38401 0.7951 0.0
O190 O 0.41438 0.43951 0.71323 0.0
O191 O 0.4379 0.40547 0.71768 0.0
O192 O 0.47481 0.42575 0.78489 0.0
C193 C 0.41814 0.41644 0.70139 0.0
H194 H 0.51443 0.48096 0.6729 0.0
H195 H 0.37592 0.42302 0.86779 0.0
H196 H 0.44633 0.50024 0.8739 0.0
H197 H 0.41904 0.52614 0.74874 0.0
Co198 Co 0.83917 0.18792 0.5008 0.0
C199 C 0.81357 0.20792 0.42012 0.0
C200 C 0.84662 0.22833 0.43906 0.0
C201 C 0.83694 0.23929 0.40215 0.0
N202 N 0.83197 0.20885 0.45066 0.0
N203 N 0.81614 0.2266 0.39018 0.0
H204 H 0.79865 0.19414 0.41997 0.0
H205 H 0.86349 0.234 0.45611 0.0
C206 C 0.84762 0.22477 0.57544 0.0
O207 O 0.83967 0.20843 0.60456 0.0
N208 N 0.84787 0.1675 0.55139 0.0
C209 C 0.83354 0.15217 0.57616 0.0
C210 C 0.84812 0.14237 0.6093 0.0
C211 C 0.87093 0.16662 0.56976 0.0
N212 N 0.87168 0.1515 0.60533 0.0
C213 C 0.7898 0.16694 0.50465 0.0
C214 C 0.76691 0.20266 0.55611 0.0
C215 C 0.75351 0.18066 0.54605 0.0
C216 C 0.76527 0.16306 0.519 0.0
C217 C 0.79168 0.20591 0.54074 0.0
N218 N 0.80337 0.1875 0.51716 0.0
H219 H 0.79818 0.15233 0.48536 0.0
H220 H 0.80118 0.22318 0.54826 0.0
H221 H 0.81385 0.14837 0.57143 0.0
H222 H 0.88681 0.177 0.55717 0.0
O223 O 0.83941 0.15855 0.46394 0.0
O224 O 0.87276 0.18191 0.47712 0.0
O225 O 0.84702 0.21958 0.53455 0.0
C226 C 0.86315 0.16244 0.45772 0.0
H227 H 0.84493 0.25515 0.38489 0.0
H228 H 0.84161 0.12975 0.63465 0.0
H229 H 0.75841 0.21723 0.57577 0.0
H230 H 0.75608 0.14564 0.51038 0.0
Co231 Co 0.07458 0.58404 0.24399 0.0
C232 C 0.05657 0.56933 0.15414 0.0
C233 C 0.03003 0.56131 0.2053 0.0
C234 C 0.01963 0.5544 0.166 0.0
N235 N 0.05307 0.57093 0.19806 0.0
N236 N 0.03623 0.55947 0.13382 0.0
H237 H 0.07342 0.57529 0.13727 0.0
H238 H 0.02138 0.55914 0.23716 0.0
C239 C 0.03908 0.60304 0.31524 0.0
O240 O 0.0572 0.60302 0.34435 0.0
N241 N 0.09602 0.5974 0.28977 0.0
C242 C 0.11174 0.58516 0.31699 0.0
C243 C 0.12294 0.60241 0.34446 0.0
C244 C 0.09862 0.62188 0.29988 0.0
N245 N 0.11457 0.62543 0.3336 0.0
C246 C 0.08806 0.5328 0.24796 0.0
C247 C 0.06968 0.52138 0.33031 0.0
C248 C 0.08493 0.50391 0.3088 0.0
C249 C 0.09349 0.50958 0.26659 0.0
C250 C 0.06495 0.5447 0.31063 0.0
N251 N 0.07506 0.55061 0.27063 0.0
H252 H 0.09514 0.53675 0.21552 0.0
H253 H 0.05397 0.55794 0.32861 0.0
H254 H 0.11492 0.56518 0.31713 0.0
H255 H 0.08807 0.6367 0.28422 0.0
O256 O 0.10417 0.58068 0.208 0.0
O257 O 0.08046 0.61457 0.21023 0.0
O258 O 0.04293 0.59499 0.27625 0.0
C259 C 0.10067 0.60367 0.19558 0.0
H260 H 1.00146 0.54565 0.16156 0.0
H261 H 0.13632 0.59835 0.37019 0.0
H262 H 0.06253 0.51756 0.3629 0.0
H263 H 0.10487 0.49635 0.24848 0.0
Co264 Co 0.83288 0.70279 0.5165 0.0
C265 C 0.80156 0.72935 0.58356 0.0
C266 C 0.8388 0.72014 0.6054 0.0
C267 C 0.82699 0.73318 0.63807 0.0
N268 N 0.823 0.7178 0.57124 0.0
N269 N 0.80366 0.73903 0.62443 0.0
H270 H 0.7851 0.73108 0.56301 0.0
H271 H 0.8578 0.71306 0.60615 0.0
C272 C 0.84488 0.64963 0.54138 0.0
O273 O 0.8343 0.64227 0.50466 0.0
N274 N 0.84461 0.68775 0.46222 0.0
C275 C 0.83476 0.68794 0.42143 0.0
C276 C 0.85169 0.67708 0.39296 0.0
C277 C 0.86754 0.67741 0.45754 0.0
N278 N 0.87224 0.67037 0.41588 0.0
C279 C 0.78439 0.69875 0.47776 0.0
C280 C 0.76665 0.65829 0.52497 0.0
C281 C 0.75246 0.66743 0.48969 0.0
C282 C 0.7612 0.68849 0.46717 0.0
C283 C 0.7897 0.66971 0.53534 0.0
N284 N 0.79926 0.68839 0.50941 0.0
H285 H 0.79055 0.71476 0.45913 0.0
H286 H 0.79979 0.66322 0.56378 0.0
H287 H 0.81708 0.69607 0.41203 0.0
H288 H 0.88088 0.67581 0.48415 0.0
O289 O 0.82689 0.73382 0.48664 0.0
O290 O 0.86322 0.72358 0.51643 0.0
O291 O 0.84572 0.67295 0.55092 0.0
C292 C 0.84998 0.73986 0.4945 0.0
H293 H 0.83486 0.73776 0.66979 0.0
H294 H 0.84914 0.67456 0.35805 0.0
H295 H 0.76005 0.64252 0.54418 0.0
H296 H 0.75069 0.69642 0.44011 0.0
Co297 Co 0.06951 0.07968 0.76717 0.0
C298 C 0.04323 0.04661 0.83287 0.0
C299 C 0.05576 0.08205 0.85827 0.0
C300 C 0.0428 0.06982 0.89065 0.0
N301 N 0.05603 0.06768 0.82207 0.0
N302 N 0.03484 0.04764 0.87482 0.0
H303 H 0.03953 0.03136 0.81044 0.0
H304 H 0.06395 0.10055 0.86054 0.0
C305 C 0.12305 0.09156 0.78898 0.0
O306 O 0.12949 0.0819 0.75101 0.0
N307 N 0.08307 0.09399 0.71319 0.0
C308 C 0.0809 0.08672 0.67096 0.0
C309 C 0.09097 0.10507 0.64424 0.0
C310 C 0.09367 0.11701 0.71109 0.0
N311 N 0.09909 0.12407 0.66964 0.0
C312 C 0.07539 0.03347 0.72147 0.0
C313 C 0.11317 0.01297 0.77181 0.0
C314 C 0.10548 1.00044 0.73364 0.0
C315 C 0.08582 0.01067 0.70924 0.0
C316 C 0.10226 0.03614 0.7827 0.0
N317 N 0.08468 0.04689 0.75591 0.0
H318 H 0.05961 0.04018 0.70292 0.0
H319 H 0.10802 0.04535 0.81255 0.0
H320 H 0.07176 0.07001 0.6594 0.0
H321 H 0.0965 0.12879 0.7395 0.0
O322 O 0.03792 0.07353 0.73898 0.0
O323 O 0.04784 0.10913 0.77161 0.0
O324 O 0.09997 0.09206 0.80051 0.0
C325 C 0.03139 0.09606 0.74965 0.0
H326 H 0.03949 0.07669 0.92353 0.0
H327 H 0.09189 0.10457 0.60881 0.0
H328 H 0.12777 1.00523 0.79244 0.0
H329 H 0.07843 1.00103 0.6808 0.0
Co330 Co 0.68483 0.31877 0.02614 0.0
C331 C 0.7145 0.29112 0.09767 0.0
C332 C 0.67454 0.29119 0.10549 0.0
C333 C 0.68472 0.27823 0.13981 0.0
N334 N 0.69296 0.2992 0.0785 0.0
N335 N 0.70984 0.27807 0.13506 0.0
H336 H 0.73315 0.29493 0.08567 0.0
H337 H 0.65479 0.29511 0.10113 0.0
C338 C 0.68141 0.35453 0.1 0.0
O339 O 0.70307 0.34559 0.11321 0.0
N340 N 0.67447 0.33786 0.97533 0.0
C341 C 0.68542 0.33937 0.9356 0.0
C342 C 0.66923 0.35166 0.90743 0.0
C343 C 0.65195 0.34907 0.97086 0.0
N344 N 0.64816 0.35769 0.92971 0.0
C345 C 0.73746 0.31926 1.01113 0.0
C346 C 0.74237 0.37051 1.0015 0.0
C347 C 0.76189 0.35494 0.98714 0.0
C348 C 0.75961 0.32911 0.99393 0.0
C349 C 0.72037 0.35984 0.01877 0.0
N350 N 0.71791 0.3344 0.02261 0.0
H351 H 0.73538 0.29915 1.01187 0.0
H352 H 0.70456 0.37194 0.02505 0.0
H353 H 0.70339 0.33127 0.92727 0.0
H354 H 0.638 0.34949 0.99666 0.0
O355 O 0.69214 0.29068 0.98944 0.0
O356 O 0.65486 0.29798 0.01865 0.0
O357 O 0.67122 0.34606 0.06506 0.0
C358 C 0.66899 0.28379 0.99412 0.0
H359 H 0.6744 0.27038 0.16716 0.0
H360 H 0.67253 0.35532 0.873 0.0
H361 H 0.7432 0.39055 0.99614 0.0
H362 H 0.77426 0.31641 0.98344 0.0
Co363 Co 0.45632 0.9339 0.2702 0.0
C364 C 0.48377 0.96338 0.3416 0.0
C365 C 0.48266 0.92358 0.35082 0.0
C366 C 0.49601 0.93386 0.38462 0.0
N367 N 0.47503 0.94188 0.32338 0.0
N368 N 0.4968 0.95884 0.37887 0.0
H369 H 0.48078 0.98193 0.32882 0.0
H370 H 0.47848 0.90389 0.34676 0.0
C371 C 0.41997 0.9275 0.34337 0.0
O372 O 0.42897 0.94832 0.36008 0.0
N373 N 0.43811 0.92395 0.21845 0.0
C374 C 0.43739 0.93486 0.17863 0.0
C375 C 0.42475 0.91906 0.15027 0.0
C376 C 0.42608 0.90191 0.21393 0.0
N377 N 0.41766 0.89838 0.17271 0.0
C378 C 0.45443 0.98673 0.25772 0.0
C379 C 0.40288 0.99056 0.25155 0.0
C380 C 0.41768 0.01152 0.24076 0.0
C381 C 0.44377 0.00951 0.24565 0.0
C382 C 0.41435 0.96819 0.26477 0.0
N383 N 0.4399 0.96643 0.26764 0.0
H384 H 0.47462 0.98516 0.25685 0.0
H385 H 0.4027 0.95181 0.26928 0.0
H386 H 0.44615 0.95257 0.17048 0.0
H387 H 0.4248 0.88808 0.23983 0.0
O388 O 0.48505 0.94215 0.23499 0.0
O389 O 0.4776 0.90455 0.26283 0.0
O390 O 0.42862 0.91903 0.30724 0.0
C391 C 0.49215 0.91909 0.2396 0.0
H392 H 0.50397 0.92374 0.41206 0.0
H393 H 0.42149 0.92231 0.11571 0.0
H394 H 0.38271 0.99083 0.24728 0.0
H395 H 0.45612 0.02511 0.23845 0.0
Co396 Co 0.18353 0.32734 0.50156 0.0
C397 C 0.208 0.30896 0.41877 0.0
C398 C 0.17637 0.28694 0.43959 0.0
C399 C 0.18484 0.27757 0.40047 0.0
N400 N 0.19083 0.30654 0.45127 0.0
N401 N 0.20465 0.29139 0.38722 0.0
H402 H 0.22199 0.32365 0.41736 0.0
H403 H 0.16024 0.28032 0.45779 0.0
C404 C 0.17224 0.29059 0.57598 0.0
O405 O 0.17751 0.30749 0.60582 0.0
N406 N 0.17483 0.34789 0.55176 0.0
C407 C 0.1893 0.36334 0.5759 0.0
C408 C 0.17471 0.37373 0.60852 0.0
C409 C 0.15166 0.34948 0.56956 0.0
N410 N 0.15102 0.36489 0.60463 0.0
C411 C 0.23375 0.34624 0.5004 0.0
C412 C 0.25334 0.318 0.56801 0.0
C413 C 0.26697 0.33878 0.55275 0.0
C414 C 0.25731 0.35224 0.51729 0.0
C415 C 0.22951 0.31268 0.55027 0.0
N416 N 0.21926 0.3277 0.51851 0.0
H417 H 0.2268 0.35771 0.47407 0.0
H418 H 0.21938 0.29696 0.56333 0.0
H419 H 0.20905 0.36683 0.57072 0.0
H420 H 0.13564 0.33928 0.5571 0.0
O421 O 0.18363 0.35689 0.46501 0.0
O422 O 0.15003 0.33367 0.47755 0.0
O423 O 0.17545 0.2954 0.53521 0.0
C424 C 0.1599 0.3532 0.45854 0.0
H425 H 0.17696 0.26176 0.38303 0.0
H426 H 0.18124 0.38654 0.63349 0.0
H427 H 0.26044 0.30676 0.59484 0.0
H428 H 0.26753 0.36801 0.50367 0.0
Co429 Co 0.94576 0.93381 0.24702 0.0
C430 C 0.96286 0.94729 0.15602 0.0
C431 C 0.9923 0.94984 0.20374 0.0
C432 C 1.00204 0.95603 0.16354 0.0
N433 N 0.96779 0.94403 0.19927 0.0
N434 N 0.98361 0.95439 0.13346 0.0
H435 H 0.94461 0.94457 0.14122 0.0
H436 H 1.00253 0.95021 0.23425 0.0
C437 C 0.98019 0.92285 0.32404 0.0
O438 O 0.96278 0.92987 0.35189 0.0
N439 N 0.92406 0.92324 0.2949 0.0
C440 C 0.90787 0.93684 0.31906 0.0
C441 C 0.89728 0.92158 0.35042 0.0
C442 C 0.92276 0.89981 0.31165 0.0
N443 N 0.90667 0.89825 0.34588 0.0
C444 C 0.92544 0.98313 0.25458 0.0
C445 C 0.96114 1.00353 0.30955 0.0
C446 C 0.93984 0.01779 0.29917 0.0
C447 C 0.92221 1.00738 0.2704 0.0
C448 C 0.96374 0.9792 0.29272 0.0
N449 N 0.94529 0.9687 0.26743 0.0
H450 H 0.911 0.97566 0.23367 0.0
H451 H 0.98068 0.96919 0.30023 0.0
H452 H 0.90404 0.95652 0.31518 0.0
H453 H 0.93363 0.88433 0.29908 0.0
O454 O 0.91682 0.93472 0.20869 0.0
O455 O 0.9404 0.9013 0.21964 0.0
O456 O 0.97645 0.92445 0.28268 0.0
C457 C 0.92079 0.91116 0.20106 0.0
H458 H 0.02109 0.96215 0.1572 0.0
H459 H 0.884 0.92751 0.37511 0.0
H460 H 0.97571 0.01109 0.33048 0.0
H461 H 0.90535 0.01745 0.2614 0.0
Co462 Co 0.3331 0.69546 1.0019 0.0
C463 C 0.31957 0.71588 0.91281 0.0
C464 C 0.31465 0.74227 0.96511 0.0
C465 C 0.30814 0.75374 0.92659 0.0
N466 N 0.32218 0.71865 0.9567 0.0
N467 N 0.31121 0.73723 0.89375 0.0
H468 H 0.32346 0.69875 0.89518 0.0
H469 H 0.31324 0.75054 0.99733 0.0
C470 C 0.35385 0.72989 0.07455 0.0
O471 O 0.35422 0.71188 0.10384 0.0
N472 N 0.34418 0.67254 0.04724 0.0
C473 C 0.3304 0.65584 0.07009 0.0
C474 C 0.3459 0.64369 0.0993 0.0
C475 C 0.368 0.66937 0.06115 0.0
N476 N 0.36953 0.65243 0.094 0.0
C477 C 0.28025 0.68892 1.00152 0.0
C478 C 0.27122 0.69895 0.08888 0.0
C479 C 0.25176 0.68887 0.06337 0.0
C480 C 0.25629 0.68476 0.01872 0.0
C481 C 0.2949 0.70313 0.07021 0.0
N482 N 0.29949 0.69706 0.02746 0.0
H483 H 0.2837 0.68438 0.96755 0.0
H484 H 0.30964 0.70964 0.09113 0.0
H485 H 0.31047 0.65276 0.06619 0.0
H486 H 0.3837 0.67994 0.04826 0.0
O487 O 0.32778 0.66675 0.96457 0.0
O488 O 0.36352 0.68776 0.96898 0.0
O489 O 0.34571 0.7259 0.03567 0.0
C490 C 0.35122 0.66866 0.95311 0.0
H491 H 0.30073 0.77251 0.92316 0.0
H492 H 0.33996 0.62995 0.12327 0.0
H493 H 0.26845 0.70271 0.12343 0.0
H494 H 0.2419 0.6769 0.99775 0.0
Co495 Co 0.57812 0.08608 0.74855 0.0
C496 C 0.56027 0.06868 0.6604 0.0
C497 C 0.53296 0.06362 0.71149 0.0
C498 C 0.52374 0.0531 0.67381 0.0
N499 N 0.55586 0.07345 0.70332 0.0
N500 N 0.54083 0.05637 0.64184 0.0
H501 H 0.57783 0.07248 0.6438 0.0
H502 H 0.52415 0.06261 0.74337 0.0
C503 C 0.54264 0.10479 0.82139 0.0
O504 O 0.56094 0.10653 0.84998 0.0
N505 N 0.60038 0.09869 0.79356 0.0
C506 C 0.61812 0.08608 0.81597 0.0
C507 C 0.63004 0.10248 0.84391 0.0
C508 C 0.60258 0.12273 0.80657 0.0
N509 N 0.62005 0.12548 0.83823 0.0
C510 C 0.58841 0.03377 0.74902 0.0
C511 C 0.57726 0.02423 0.83589 0.0
C512 C 0.58847 1.00525 0.81089 0.0
C513 C 0.59329 0.01004 0.7665 0.0
C514 C 0.57236 0.04763 0.81695 0.0
N515 N 0.57877 0.05251 0.77439 0.0
H516 H 0.59334 0.03742 0.71524 0.0
H517 H 0.56477 0.06197 0.83751 0.0
H518 H 0.62224 0.06637 0.81234 0.0
H519 H 0.59116 0.13777 0.79367 0.0
O520 O 0.60712 0.08294 0.71064 0.0
O521 O 0.58363 0.11695 0.71573 0.0
O522 O 0.54677 0.09652 0.78259 0.0
C523 C 0.60335 0.10609 0.69911 0.0
H524 H 0.50641 0.04262 0.67061 0.0
H525 H 0.64461 0.09768 0.86712 0.0
H526 H 0.57296 0.02126 0.87022 0.0
H527 H 0.60205 0.99602 0.74594 0.0
H528 H 0.49877 0.10223 0.77368 0.0
H529 H 0.52788 0.12361 0.90043 0.0
H530 H 0.45655 0.11407 0.79738 0.0
H531 H 0.48611 0.13588 0.92354 0.0
H532 H 0.40597 0.1341 0.96954 0.0
H533 H 0.44621 0.11864 0.94321 0.0
H534 H 0.4312 0.1504 0.81556 0.0
H535 H 0.39072 0.16563 0.84197 0.0
C536 C 0.49622 0.10945 0.80653 0.0
C537 C 0.51679 0.11183 0.83516 0.0
C538 C 0.47201 0.11638 0.82005 0.0
C539 C 0.4678 0.12582 0.86252 0.0
C540 C 0.48845 0.12823 0.89094 0.0
C541 C 0.51254 0.12132 0.8775 0.0
C542 C 0.41124 0.13779 0.93586 0.0
C543 C 0.39518 0.15132 0.90804 0.0
C544 C 0.43437 0.12896 0.92072 0.0
C545 C 0.4422 0.13351 0.87735 0.0
C546 C 0.42576 0.14633 0.84904 0.0
C547 C 0.40251 0.1551 0.86419 0.0
H548 H 0.5926 0.64742 0.08896 0.0
H549 H 0.62813 0.6574 0.21487 0.0
H550 H 0.61087 0.6868 0.06357 0.0
H551 H 0.64661 0.69657 0.18951 0.0
H552 H 0.65106 0.77847 0.1489 0.0
H553 H 0.63415 0.73831 0.17196 0.0
H554 H 0.6495 0.70781 0.04361 0.0
H555 H 0.66597 0.74845 0.02004 0.0
C556 C 0.60453 0.65785 0.11108 0.0
C557 C 0.60872 0.64929 0.15411 0.0
C558 C 0.61507 0.68045 0.09649 0.0
C559 C 0.63014 0.69503 0.12451 0.0
C560 C 0.63469 0.68617 0.16726 0.0
C561 C 0.62409 0.66366 0.18186 0.0
C562 C 0.65094 0.76324 0.1255 0.0
C563 C 0.65998 0.76675 0.08259 0.0
C564 C 0.64134 0.74007 0.13888 0.0
C565 C 0.64055 0.71967 0.10981 0.0
C566 C 0.64957 0.72315 0.06679 0.0
C567 C 0.65915 0.74643 0.05332 0.0
H568 H 0.11422 0.88661 0.47819 0.0
H569 H 0.1269 0.85365 0.35119 0.0
H570 H 0.07403 0.90321 0.4528 0.0
H571 H 0.0865 0.86908 0.32612 0.0
H572 H 0.02405 0.91836 0.2781 0.0
H573 H 0.06462 0.90455 0.3048 0.0
H574 H 0.03273 0.89271 0.43363 0.0
H575 H 0.99238 0.90793 0.40721 0.0
C576 C 0.10827 0.88281 0.44492 0.0
C577 C 0.12376 0.86906 0.41656 0.0
C578 C 0.08518 0.89217 0.43034 0.0
C579 C 0.07686 0.88763 0.38721 0.0
C580 C 0.09239 0.87359 0.35914 0.0
C581 C 0.11559 0.86462 0.37351 0.0
C582 C 0.0257 0.91297 0.31219 0.0
C583 C 1.00494 0.91434 0.34052 0.0
C584 C 0.04901 0.9048 0.32752 0.0
C585 C 0.05213 0.89728 0.37145 0.0
C586 C 0.03129 0.89869 0.3998 0.0
C587 C 1.00804 0.90728 0.38458 0.0
H588 H 0.89015 0.38235 0.60272 0.0
H589 H 0.93027 0.34393 0.70571 0.0
H590 H 0.87102 0.34287 0.58049 0.0
H591 H 0.91118 0.30449 0.68349 0.0
H592 H 0.85386 0.2422 0.65937 0.0
H593 H 0.87135 0.2824 0.68231 0.0
H594 H 0.88157 0.30341 0.54664 0.0
H595 H 0.86366 0.26359 0.52375 0.0
C596 C 0.89511 0.36549 0.6204 0.0
C597 C 0.9118 0.36645 0.65608 0.0
C598 C 0.88409 0.3428 0.60767 0.0
C599 C 0.88947 0.32044 0.63023 0.0
C600 C 0.90622 0.32138 0.66583 0.0
C601 C 0.91723 0.34406 0.67856 0.0
C602 C 0.85969 0.25546 0.63443 0.0
C603 C 0.85733 0.24958 0.5897 0.0
C604 C 0.8699 0.27846 0.64759 0.0
C605 C 0.87797 0.29618 0.61636 0.0
C606 C 0.8753 0.2904 0.57164 0.0
C607 C 0.86513 0.26743 0.5585 0.0
H608 H 0.6431 0.91081 0.13425 0.0
H609 H 0.61009 0.83946 0.10026 0.0
H610 H 0.60504 0.922 0.17383 0.0
H611 H 0.57163 0.8511 0.13822 0.0
H612 H 0.51397 0.87252 0.24449 0.0
H613 H 0.55356 0.8593 0.21072 0.0
H614 H 0.56259 0.9331 0.15442 0.0
H615 H 0.5237 0.9463 0.18851 0.0
C616 C 0.62778 0.89748 0.13528 0.0
C617 C 0.62962 0.87435 0.11366 0.0
C618 C 0.60585 0.90398 0.15764 0.0
C619 C 0.5852 0.88752 0.15889 0.0
C620 C 0.58722 0.86415 0.13812 0.0
C621 C 0.60917 0.85764 0.11578 0.0
C622 C 0.5245 0.88585 0.22494 0.0
C623 C 0.51576 0.91044 0.21926 0.0
C624 C 0.54709 0.87829 0.20549 0.0
C625 C 0.56132 0.89522 0.18013 0.0
C626 C 0.5524 0.91973 0.17443 0.0
C627 C 0.52995 0.92724 0.19376 0.0
H628 H 0.39703 0.25887 0.99753 0.0
H629 H 0.32472 0.26478 0.9343 0.0
H630 H 0.41017 0.29811 0.96213 0.0
H631 H 0.33786 0.30316 0.89867 0.0
H632 H 0.35692 0.38423 0.87881 0.0
H633 H 0.34635 0.34595 0.91787 0.0
H634 H 0.41999 0.31627 0.88976 0.0
H635 H 0.43102 0.35516 0.85228 0.0
C636 C 0.38403 0.26845 0.97601 0.0
C637 C 0.35981 0.25883 0.96899 0.0
C638 C 0.39155 0.29083 0.95561 0.0
C639 C 0.37494 0.30392 0.92793 0.0
C640 C 0.35093 0.29393 0.92053 0.0
C641 C 0.34345 0.27176 0.94082 0.0
C642 C 0.37099 0.36972 0.8813 0.0
C643 C 0.39477 0.37281 0.86205 0.0
C644 C 0.36484 0.34762 0.90336 0.0
C645 C 0.38226 0.32793 0.90663 0.0
C646 C 0.40619 0.33111 0.88805 0.0
C647 C 0.41237 0.35329 0.86599 0.0
H648 H 0.0136 0.14463 0.75259 0.0
H649 H 0.99335 0.06946 0.71394 0.0
H650 H 0.97348 0.15997 0.72334 0.0
H651 H 0.95415 0.08459 0.68426 0.0
H652 H 0.87723 0.11217 0.66141 0.0
H653 H 0.91418 0.10115 0.70343 0.0
H654 H 0.95305 0.16594 0.65217 0.0
H655 H 0.91555 0.17786 0.61184 0.0
C656 C 1.00054 0.1314 0.73826 0.0
C657 C 1.00668 0.10586 0.73554 0.0
C658 C 0.97767 0.14017 0.72124 0.0
C659 C 0.96049 0.12351 0.70152 0.0
C660 C 0.96659 0.09794 0.69985 0.0
C661 C 0.98928 0.08927 0.71662 0.0
C662 C 0.89338 0.12442 0.65951 0.0
C663 C 0.89327 0.14577 0.63242 0.0
C664 C 0.91477 0.11792 0.68342 0.0
C665 C 0.93679 0.13243 0.68073 0.0
C666 C 0.93643 0.15435 0.65518 0.0
C667 C 0.91494 0.16097 0.63141 0.0
H668 H 0.11742 0.67095 0.29513 0.0
H669 H 0.12464 0.63308 0.41956 0.0
H670 H 0.12708 0.71087 0.33045 0.0
H671 H 0.13451 0.67305 0.45496 0.0
H672 H 0.12941 0.75417 0.50803 0.0
H673 H 0.11422 0.71583 0.47215 0.0
H674 H 0.16629 0.72818 0.36569 0.0
H675 H 0.18145 0.76605 0.40139 0.0
C676 C 0.12092 0.67121 0.33008 0.0
C677 C 0.1204 0.64889 0.35455 0.0
C678 C 0.12654 0.69401 0.35025 0.0
C679 C 0.13148 0.69506 0.39546 0.0
C680 C 0.13053 0.67283 0.42014 0.0
C681 C 0.12521 0.64994 0.39982 0.0
C682 C 0.13726 0.74882 0.47666 0.0
C683 C 0.15661 0.763 0.4575 0.0
C684 C 0.12875 0.72683 0.45634 0.0
C685 C 0.13913 0.71902 0.41619 0.0
C686 C 0.15779 0.73381 0.39641 0.0
C687 C 0.16654 0.75544 0.41696 0.0
H688 H 0.8922 0.67452 0.33416 0.0
H689 H 0.90376 0.64007 0.46064 0.0
H690 H 0.93188 0.65699 0.30839 0.0
H691 H 0.94317 0.62239 0.43496 0.0
H692 H 0.02529 0.62228 0.39436 0.0
H693 H 0.98438 0.63743 0.41687 0.0
H694 H 0.95415 0.61849 0.28976 0.0
H695 H 0.99554 0.60369 0.26667 0.0
C696 C 0.90304 0.66295 0.35628 0.0
C697 C 0.89494 0.65894 0.39963 0.0
C698 C 0.92578 0.65286 0.3415 0.0
C699 C 0.94087 0.63846 0.36971 0.0
C700 C 0.93234 0.63385 0.41263 0.0
C701 C 0.90972 0.644 0.4274 0.0
C702 C 1.00996 0.62121 0.37112 0.0
C703 C 0.01375 0.61168 0.32869 0.0
C704 C 0.98639 0.6298 0.38418 0.0
C705 C 0.96587 0.62904 0.35527 0.0
C706 C 0.9696 0.61953 0.31274 0.0
C707 C 0.99329 0.61092 0.29959 0.0
H708 H 0.09199 0.14843 0.59242 0.0
H709 H 0.13193 0.15278 0.7152 0.0
H710 H 0.11037 0.18825 0.56973 0.0
H711 H 0.15068 0.19239 0.69241 0.0
H712 H 0.15792 0.27553 0.65808 0.0
H713 H 0.14063 0.23521 0.68019 0.0
H714 H 0.14837 0.20825 0.54737 0.0
H715 H 0.16501 0.24887 0.52502 0.0
C716 C 0.10492 0.15774 0.61438 0.0
C717 C 0.11038 0.14743 0.65572 0.0
C718 C 0.11554 0.1806 0.60135 0.0
C719 C 0.13205 0.19369 0.62919 0.0
C720 C 0.1377 0.18317 0.67036 0.0
C721 C 0.12696 0.1604 0.68347 0.0
C722 C 0.15606 0.26097 0.63359 0.0
C723 C 0.16287 0.26552 0.58973 0.0
C724 C 0.14623 0.23774 0.64634 0.0
C725 C 0.14303 0.21833 0.61564 0.0
C726 C 0.15014 0.22281 0.57184 0.0
C727 C 0.15987 0.2461 0.55904 0.0
H728 H 0.52319 0.42031 0.77722 0.0
H729 H 0.49275 0.39736 0.90236 0.0
H730 H 0.56513 0.40783 0.80162 0.0
H731 H 0.53418 0.3845 0.92613 0.0
H732 H 0.6304 0.3555 0.8461 0.0
H733 H 0.59027 0.37128 0.81919 0.0
H734 H 0.57393 0.40086 0.94779 0.0
H735 H 0.61383 0.38485 0.97463 0.0
C736 C 0.52539 0.41261 0.80985 0.0
C737 C 0.50451 0.40998 0.83781 0.0
C738 C 0.54944 0.40532 0.82379 0.0
C739 C 0.55319 0.39526 0.86604 0.0
C740 C 0.53224 0.39262 0.89376 0.0
C741 C 0.50833 0.39989 0.87992 0.0
C742 C 0.6184 0.36565 0.86848 0.0
C743 C 0.62531 0.36867 0.91271 0.0
C744 C 0.59534 0.37475 0.85302 0.0
C745 C 0.57861 0.38716 0.88135 0.0
C746 C 0.58598 0.39089 0.92519 0.0
C747 C 0.60893 0.38173 0.94064 0.0
H748 H 0.42145 0.87894 0.09071 0.0
H749 H 0.38718 0.86684 0.21723 0.0
H750 H 0.40489 0.83874 0.06546 0.0
H751 H 0.37036 0.82694 0.19207 0.0
H752 H 0.37263 0.74475 0.15363 0.0
H753 H 0.38655 0.78625 0.17529 0.0
H754 H 0.36759 0.81477 0.04692 0.0
H755 H 0.35416 0.77289 0.02473 0.0
C756 C 0.41002 0.86791 0.11287 0.0
C757 C 0.40586 0.87595 0.15613 0.0
C758 C 0.40051 0.84485 0.09843 0.0
C759 C 0.38654 0.82939 0.1269 0.0
C760 C 0.38156 0.83802 0.16957 0.0
C761 C 0.39114 0.86094 0.184 0.0
C762 C 0.37135 0.75982 0.12993 0.0
C763 C 0.36216 0.75541 0.08745 0.0
C764 C 0.3792 0.78373 0.1425 0.0
C765 C 0.37802 0.80398 0.11301 0.0
C766 C 0.36893 0.79959 0.07039 0.0
C767 C 0.3611 0.77559 0.05775 0.0
H768 H 0.10786 0.33779 0.61367 0.0
H769 H 0.14496 0.40523 0.65795 0.0
H770 H 0.07035 0.34956 0.65409 0.0
H771 H 0.10797 0.41622 0.70024 0.0
H772 H 0.02798 0.44584 0.71192 0.0
H773 H 0.0674 0.4314 0.6821 0.0
H774 H 0.05034 0.35607 0.72499 0.0
H775 H 1.00997 0.37069 0.75431 0.0
C776 C 0.10816 0.35507 0.63209 0.0
C777 C 0.12947 0.37077 0.63164 0.0
C778 C 0.08669 0.36161 0.65595 0.0
C779 C 0.08598 0.38396 0.68018 0.0
C780 C 0.10765 0.39908 0.68131 0.0
C781 C 0.12905 0.39263 0.65729 0.0
C782 C 0.0326 0.42619 0.71542 0.0
C783 C 0.01574 0.40938 0.73539 0.0
C784 C 0.05542 0.41792 0.69856 0.0
C785 C 0.06222 0.39256 0.70122 0.0
C786 C 0.04561 0.37571 0.72207 0.0
C787 C 0.02258 0.38407 0.73913 0.0
H788 H 0.93322 0.85464 0.35262 0.0
H789 H 0.86621 0.89173 0.39918 0.0
H790 H 0.92109 0.81694 0.39253 0.0
H791 H 0.85502 0.85474 0.44069 0.0
H792 H 0.8239 0.77615 0.45296 0.0
H793 H 0.83932 0.81452 0.42069 0.0
H794 H 0.91435 0.79711 0.46487 0.0
H795 H 0.89873 0.75771 0.49681 0.0
C796 C 0.916 0.85493 0.37138 0.0
C797 C 0.90055 0.87634 0.37186 0.0
C798 C 0.90925 0.83336 0.39487 0.0
C799 C 0.88696 0.8327 0.4195 0.0
C800 C 0.8721 0.85441 0.42141 0.0
C801 C 0.87871 0.87583 0.39779 0.0
C802 C 0.8437 0.78042 0.45617 0.0
C803 C 0.8601 0.76383 0.47755 0.0
C804 C 0.85253 0.80263 0.43785 0.0
C805 C 0.87804 0.80909 0.44048 0.0
C806 C 0.89458 0.79261 0.46211 0.0
C807 C 0.88565 0.77017 0.48063 0.0
H808 H 0.4929 0.57288 0.20518 0.0
H809 H 0.50785 0.64815 0.25015 0.0
H810 H 0.45435 0.58665 0.17157 0.0
H811 H 0.46819 0.66206 0.21703 0.0
H812 H 0.41245 0.67985 0.10334 0.0
H813 H 0.44976 0.66847 0.14465 0.0
H814 H 0.41313 0.60047 0.18769 0.0
H815 H 0.37647 0.61102 0.14442 0.0
C816 C 0.48779 0.59242 0.2084 0.0
C817 C 0.50351 0.60945 0.23033 0.0
C818 C 0.46545 0.60029 0.18933 0.0
C819 C 0.45799 0.62544 0.19178 0.0
C820 C 0.4735 0.64256 0.21429 0.0
C821 C 0.49609 0.63461 0.23349 0.0
C822 C 0.41238 0.6623 0.1211 0.0
C823 C 0.39142 0.64618 0.11976 0.0
C824 C 0.4337 0.65601 0.14549 0.0
C825 C 0.43455 0.63349 0.16933 0.0
C826 C 0.41331 0.61778 0.16913 0.0
C827 C 0.39211 0.62396 0.14452 0.0
H828 H 0.58965 0.16551 0.85239 0.0
H829 H 0.66369 0.13646 0.87947 0.0
H830 H 0.60016 0.20395 0.89149 0.0
H831 H 0.67375 0.17429 0.92006 0.0
H832 H 0.69492 0.25547 0.93653 0.0
H833 H 0.68188 0.21735 0.9004 0.0
H834 H 0.60982 0.22136 0.96509 0.0
H835 H 0.62288 0.2604 1.0012 0.0
C836 C 0.60817 0.16729 0.86658 0.0
C837 C 0.62595 0.14797 0.86227 0.0
C838 C 0.61404 0.18919 0.88956 0.0
C839 C 0.63782 0.19224 0.90866 0.0
C840 C 0.65536 0.17269 0.90517 0.0
C841 C 0.64953 0.15087 0.88221 0.0
C842 C 0.67626 0.24833 0.94326 0.0
C843 C 0.65996 0.26089 0.97201 0.0
C844 C 0.66885 0.22631 0.92266 0.0
C845 C 0.64497 0.2161 0.93032 0.0
C846 C 0.62836 0.22884 0.95848 0.0
C847 C 0.63582 0.25109 0.97923 0.0
H848 H 0.31432 0.28332 0.17544 0.0
H849 H 0.26572 0.21946 0.15797 0.0
H850 H 0.28779 0.29837 0.23484 0.0
H851 H 0.23928 0.23406 0.21834 0.0
H852 H 0.18661 0.27493 0.30964 0.0
H853 H 0.21051 0.26463 0.24408 0.0
H854 H 0.27866 0.2883 0.30891 0.0
H855 H 0.25442 0.29912 0.37423 0.0
C856 C 0.29784 0.27255 0.18433 0.0
C857 C 0.29216 0.25013 0.16228 0.0
C858 C 0.2827 0.28108 0.21859 0.0
C859 C 0.26152 0.26731 0.23203 0.0
C860 C 0.25529 0.24534 0.20875 0.0
C861 C 0.27038 0.23692 0.17409 0.0
C862 C 0.2067 0.27799 0.30981 0.0
C863 C 0.21868 0.28764 0.34728 0.0
C864 C 0.22044 0.27199 0.27222 0.0
C865 C 0.24661 0.27533 0.2711 0.0
C866 C 0.2585 0.28572 0.30822 0.0
C867 C 0.24466 0.29193 0.34577 0.0
H868 H 0.48786 0.51357 0.62364 0.0
H869 H 0.47802 0.44057 0.56622 0.0
H870 H 0.49464 0.53166 0.55114 0.0
H871 H 0.48532 0.45864 0.49259 0.0
H872 H 0.54213 0.5067 0.39452 0.0
H873 H 0.5252 0.48129 0.45527 0.0
H874 H 0.46964 0.53823 0.48035 0.0
H875 H 0.48662 0.56334 0.42029 0.0
C876 C 0.48689 0.5015 0.59518 0.0
C877 C 0.48236 0.4758 0.60022 0.0
C878 C 0.49066 0.5118 0.5537 0.0
C879 C 0.49038 0.49657 0.51615 0.0
C880 C 0.48559 0.47078 0.521 0.0
C881 C 0.48127 0.46051 0.56282 0.0
C882 C 0.52569 0.51316 0.41202 0.0
C883 C 0.51578 0.537 0.40324 0.0
C884 C 0.51603 0.49872 0.44677 0.0
C885 C 0.49638 0.50804 0.47295 0.0
C886 C 0.48501 0.53076 0.46114 0.0
C887 C 0.49464 0.54508 0.42675 0.0
H888 H 0.25084 0.73447 0.62882 0.0
H889 H 0.23548 0.80788 0.68082 0.0
H890 H 0.27681 0.72486 0.6923 0.0
H891 H 0.26088 0.79818 0.74543 0.0
H892 H 0.31818 0.7798 0.84793 0.0
H893 H 0.30099 0.78993 0.77596 0.0
H894 H 0.27023 0.71509 0.76708 0.0
H895 H 0.28821 0.70496 0.83853 0.0
C896 C 0.25317 0.7486 0.65393 0.0
C897 C 0.24098 0.77182 0.65025 0.0
C898 C 0.26793 0.74306 0.69043 0.0
C899 C 0.27069 0.76054 0.72448 0.0
C900 C 0.25942 0.78429 0.71973 0.0
C901 C 0.24483 0.78992 0.68281 0.0
C902 C 0.30803 0.76547 0.83013 0.0
C903 C 0.30437 0.74165 0.84878 0.0
C904 C 0.29803 0.7713 0.78907 0.0
C905 C 0.28388 0.7535 0.7658 0.0
C906 C 0.28124 0.72924 0.78369 0.0
C907 C 0.29153 0.72335 0.82465 0.0
H908 H 0.97454 0.51718 0.88022 0.0
H909 H 0.02633 0.4607 0.92438 0.0
H910 H 0.99087 0.54618 0.9359 0.0
H911 H 0.04249 0.48911 0.97996 0.0
H912 H 0.07156 0.54399 0.07573 0.0
H913 H 0.06385 0.52751 1.00198 0.0
H914 H 0.98507 0.54497 0.0155 0.0
H915 H 0.99296 0.56178 0.08827 0.0
C916 C 0.98996 0.51132 0.90091 0.0
C917 C 0.99906 0.48673 0.89845 0.0
C918 C 0.99917 0.52775 0.93302 0.0
C919 C 0.01783 0.51989 0.96279 0.0
C920 C 0.02831 0.49595 0.95753 0.0
C921 C 0.01896 0.47957 0.92587 0.0
C922 C 0.05277 0.5449 0.06233 0.0
C923 C 0.03279 0.55377 0.08801 0.0
C924 C 0.04829 0.53534 0.02024 0.0
C925 C 0.02378 0.53468 1.00291 0.0
C926 C 1.0042 0.54531 0.02748 0.0
C927 C 1.00865 0.55467 0.0695 0.0
H928 H 0.75381 0.72918 0.62972 0.0
H929 H 0.81205 0.77787 0.67842 0.0
H930 H 0.72481 0.74564 0.68518 0.0
H931 H 0.78366 0.79392 0.73405 0.0
H932 H 0.72892 0.8237 0.82901 0.0
H933 H 0.74619 0.81647 0.75569 0.0
H934 H 0.72401 0.73871 0.76402 0.0
H935 H 0.70629 0.74619 0.83626 0.0
C936 C 0.76016 0.74386 0.65152 0.0
C937 C 0.78522 0.75201 0.65031 0.0
C938 C 0.74369 0.75315 0.68349 0.0
C939 C 0.75197 0.77091 0.71447 0.0
C940 C 0.77649 0.78044 0.71069 0.0
C941 C 0.79289 0.77106 0.67908 0.0
C942 C 0.72714 0.80529 0.81454 0.0
C943 C 0.71667 0.78541 0.83865 0.0
C944 C 0.73718 0.80107 0.7727 0.0
C945 C 0.73677 0.77692 0.7541 0.0
C946 C 0.72455 0.75756 0.77701 0.0
C947 C 0.71466 0.76177 0.81874 0.0
H948 H 0.70211 0.23826 0.18833 0.0
H949 H 0.7572 0.29417 0.1531 0.0
H950 H 0.72837 0.22452 0.24879 0.0
H951 H 0.78423 0.27962 0.21261 0.0
H952 H 0.80739 0.27243 0.35623 0.0
H953 H 0.78365 0.28273 0.29081 0.0
H954 H 0.76603 0.20437 0.27271 0.0
H955 H 0.78978 0.19414 0.33915 0.0
C956 C 0.72001 0.24746 0.19321 0.0
C957 C 0.72733 0.26765 0.16631 0.0
C958 C 0.73525 0.23935 0.22767 0.0
C959 C 0.75833 0.25113 0.2361 0.0
C960 C 0.76632 0.27044 0.20767 0.0
C961 C 0.75099 0.2786 0.17315 0.0
C962 C 0.7986 0.25734 0.33818 0.0
C963 C 0.80063 0.23243 0.35276 0.0
C964 C 0.78508 0.26324 0.3004 0.0
C965 C 0.77319 0.24439 0.27591 0.0
C966 C 0.77484 0.21942 0.29084 0.0
C967 C 0.78836 0.21352 0.32896 0.0
H968 H 0.94843 0.97567 0.08085 0.0
H969 H 0.02446 0.94808 0.08238 0.0
H970 H 0.95544 0.99319 1.00759 0.0
H971 H 0.03181 0.9661 1.01032 0.0
H972 H 0.04167 0.99734 0.87726 0.0
H973 H 0.02412 0.9686 0.93235 0.0
H974 H 0.97952 0.02911 0.98484 0.0
H975 H 0.99661 0.05719 0.92957 0.0
C976 C 0.96644 0.97289 0.06517 0.0
C977 C 0.98604 0.96092 0.08771 0.0
C978 C 0.97056 0.98307 0.02334 0.0
C979 C 0.99431 0.98137 1.00314 0.0
C980 C 0.01324 0.9677 0.02449 0.0
C981 C 1.00914 0.95763 0.06618 0.0
C982 C 0.02748 1.00411 0.89973 0.0
C983 C 0.02071 0.02949 0.89964 0.0
C984 C 0.0176 0.98779 0.93154 0.0
C985 C 1.00063 0.99659 0.96353 0.0
C986 C 0.99235 0.02152 0.96074 0.0
C987 C 1.00231 0.03773 0.92927 0.0
H988 H 0.53845 0.95155 0.42721 0.0
H989 H 0.48098 1.00594 0.3982 0.0
H990 H 0.55365 0.97768 0.48698 0.0
H991 H 0.49639 0.03237 0.45824 0.0
H992 H 0.54123 0.0784 0.56203 0.0
H993 H 0.53418 0.0573 0.4911 0.0
H994 H 0.53113 0.98601 0.55813 0.0
H995 H 0.5378 1.00715 0.62806 0.0
C996 C 0.52925 0.96926 0.43333 0.0
C997 C 0.5082 0.97646 0.40863 0.0
C998 C 0.53801 0.98425 0.46744 0.0
C999 C 0.52598 1.00686 0.47766 0.0
C1000 C 0.50609 0.01506 0.45095 0.0
C1001 C 0.49726 0.99995 0.41664 0.0
C1002 C 0.53949 0.0582 0.56101 0.0
C1003 C 0.54013 0.04423 0.59999 0.0
C1004 C 0.53529 0.04618 0.52076 0.0
C1005 C 0.5322 0.02001 0.51911 0.0
C1006 C 0.53377 1.00613 0.55821 0.0
C1007 C 0.53751 0.01814 0.59819 0.0
H1008 H 0.17097 0.10507 0.76795 0.0
H1009 H 0.11958 0.10034 0.8773 0.0
H1010 H 0.20339 0.12163 0.81651 0.0
H1011 H 0.15226 0.11675 0.92603 0.0
H1012 H 0.22993 0.12098 1.00127 0.0
H1013 H 0.19644 0.10334 0.95515 0.0
H1014 H 0.20858 0.16211 0.86009 0.0
H1015 H 0.24171 0.17965 0.90583 0.0
C1016 C 0.16662 0.10747 0.80238 0.0
C1017 C 0.14268 0.10145 0.81874 0.0
C1018 C 0.18516 0.11704 0.83014 0.0
C1019 C 0.18034 0.12049 0.87504 0.0
C1020 C 0.15654 0.11413 0.89162 0.0
C1021 C 0.13781 0.10491 0.86367 0.0
C1022 C 0.22531 0.13011 0.97059 0.0
C1023 C 0.23828 0.15179 0.95734 0.0
C1024 C 0.20612 0.12012 0.94435 0.0
C1025 C 0.19997 0.13134 0.90399 0.0
C1026 C 0.21301 0.15296 0.89085 0.0
C1027 C 0.23182 0.16313 0.91727 0.0
H1028 H 0.61968 0.49921 0.15649 0.0
H1029 H 0.62184 0.46577 0.28541 0.0
H1030 H 0.63813 0.46168 0.12528 0.0
H1031 H 0.64059 0.42779 0.25386 0.0
H1032 H 0.69646 0.37517 0.17777 0.0
H1033 H 0.67915 0.41192 0.21454 0.0
H1034 H 0.62297 0.41846 0.11321 0.0
H1035 H 0.64033 0.38198 0.07619 0.0
C1036 C 0.62416 0.48377 0.1782 0.0
C1037 C 0.61893 0.48525 0.2233 0.0
C1038 C 0.63464 0.46223 0.16026 0.0
C1039 C 0.64031 0.44158 0.18694 0.0
C1040 C 0.63633 0.44343 0.23248 0.0
C1041 C 0.62569 0.46513 0.25056 0.0
C1042 C 0.68033 0.38438 0.16344 0.0
C1043 C 0.6699 0.37576 0.12382 0.0
C1044 C 0.67035 0.40534 0.18468 0.0
C1045 C 0.64987 0.41821 0.16657 0.0
C1046 C 0.63904 0.40917 0.12761 0.0
C1047 C 0.6489 0.38817 0.10651 0.0
H1048 H 0.26998 0.88376 0.41634 0.0
H1049 H 0.31544 0.84433 0.51087 0.0
H1050 H 0.30797 0.90073 0.38197 0.0
H1051 H 0.35355 0.86189 0.47706 0.0
H1052 H 0.40707 0.92935 0.42978 0.0
H1053 H 0.37057 0.91001 0.46527 0.0
H1054 H 0.34772 0.87856 0.34134 0.0
H1055 H 0.38454 0.89732 0.30588 0.0
C1056 C 0.28813 0.87897 0.42998 0.0
C1057 C 0.28988 0.86289 0.46633 0.0
C1058 C 0.30979 0.8885 0.41017 0.0
C1059 C 0.33358 0.88251 0.42688 0.0
C1060 C 0.33537 0.86676 0.46369 0.0
C1061 C 0.31367 0.85675 0.48293 0.0
C1062 C 0.39435 0.91815 0.4102 0.0
C1063 C 0.3986 0.91486 0.36509 0.0
C1064 C 0.37359 0.90703 0.43054 0.0
C1065 C 0.35641 0.89291 0.40594 0.0
C1066 C 0.36071 0.88946 0.36091 0.0
C1067 C 0.38179 0.9001 0.34074 0.0
H1068 H 0.83873 0.5988 0.53834 0.0
H1069 H 0.87126 0.65763 0.61727 0.0
H1070 H 0.8535 0.56766 0.59076 0.0
H1071 H 0.88601 0.62635 0.66985 0.0
H1072 H 0.93636 0.55802 0.71196 0.0
H1073 H 0.91783 0.5923 0.67005 0.0
H1074 H 0.84693 0.55296 0.66769 0.0
H1075 H 0.86565 0.51849 0.70947 0.0
C1076 C 0.84899 0.60513 0.56691 0.0
C1077 C 0.85391 0.63074 0.57343 0.0
C1078 C 0.85724 0.58727 0.59721 0.0
C1079 C 0.87082 0.59452 0.63463 0.0
C1080 C 0.87569 0.62014 0.64126 0.0
C1081 C 0.86722 0.63806 0.61114 0.0
C1082 C 0.91668 0.55695 0.7032 0.0
C1083 C 0.90246 0.53555 0.71379 0.0
C1084 C 0.90604 0.57661 0.67933 0.0
C1085 C 0.88098 0.57523 0.6651 0.0
C1086 C 0.86638 0.55441 0.67769 0.0
C1087 C 0.87698 0.53483 0.70204 0.0
H1088 H 0.81682 0.84193 0.01526 0.0
H1089 H 0.78226 0.83816 0.14359 0.0
H1090 H 0.85492 0.85879 0.04829 0.0
H1091 H 0.82115 0.8534 0.17635 0.0
H1092 H 0.90742 0.86226 0.21354 0.0
H1093 H 0.87279 0.8396 0.17783 0.0
H1094 H 0.85842 0.9039 0.09592 0.0
H1095 H 0.8923 0.92683 0.13254 0.0
C1096 C 0.81724 0.84445 0.05044 0.0
C1097 C 0.79599 0.83899 0.07645 0.0
C1098 C 0.83925 0.85389 0.06931 0.0
C1099 C 0.84088 0.8574 0.11475 0.0
C1100 C 0.82038 0.85065 0.14119 0.0
C1101 C 0.79812 0.84176 0.12228 0.0
C1102 C 0.89711 0.87134 0.18738 0.0
C1103 C 0.90254 0.89623 0.1756 0.0
C1104 C 0.87726 0.85846 0.16724 0.0
C1105 C 0.86305 0.87004 0.13416 0.0
C1106 C 0.86921 0.89454 0.12115 0.0
C1107 C 0.88855 0.90763 0.14209 0.0
H1108 H 0.43663 0.56508 0.7845 0.0
H1109 H 0.40521 0.52133 0.89036 0.0
H1110 H 0.41818 0.60311 0.81607 0.0
H1111 H 0.38684 0.55915 0.92163 0.0
H1112 H 0.33097 0.62396 0.92895 0.0
H1113 H 0.35195 0.58833 0.89547 0.0
H1114 H 0.42069 0.63093 0.88694 0.0
H1115 H 0.39967 0.66685 0.92131 0.0
C1116 C 0.42595 0.56361 0.81463 0.0
C1117 C 0.42242 0.54015 0.83493 0.0
C1118 C 0.4155 0.58539 0.83278 0.0
C1119 C 0.4009 0.5841 0.87115 0.0
C1120 C 0.3978 0.56073 0.89182 0.0
C1121 C 0.40853 0.53908 0.87411 0.0
C1122 C 0.35049 0.62594 0.9196 0.0
C1123 C 0.36363 0.64832 0.92791 0.0
C1124 C 0.36256 0.6054 0.90068 0.0
C1125 C 0.38805 0.6067 0.88898 0.0
C1126 C 0.40103 0.62938 0.89559 0.0
C1127 C 0.38899 0.64993 0.91523 0.0
H1128 H 0.71383 0.15665 0.50644 0.0
H1129 H 0.7353 0.19147 0.62863 0.0
H1130 H 0.67568 0.14074 0.54072 0.0
H1131 H 0.69643 0.17621 0.66235 0.0
H1132 H 0.61306 0.15654 0.69689 0.0
H1133 H 0.6473 0.17801 0.65785 0.0
H1134 H 0.67009 0.10761 0.6012 0.0
H1135 H 0.63636 0.08621 0.64067 0.0
C1136 C 0.71039 0.16113 0.54053 0.0
C1137 C 0.72809 0.17499 0.56489 0.0
C1138 C 0.68841 0.15205 0.56009 0.0
C1139 C 0.68316 0.15693 0.60438 0.0
C1140 C 0.6999 0.17219 0.62809 0.0
C1141 C 0.72216 0.18102 0.60865 0.0
C1142 C 0.62517 0.14577 0.67555 0.0
C1143 C 0.62196 0.1197 0.67167 0.0
C1144 C 0.64488 0.15802 0.65352 0.0
C1145 C 0.66139 0.14452 0.6264 0.0
C1146 C 0.65758 0.11859 0.62151 0.0
C1147 C 0.63828 0.10631 0.64419 0.0
H1148 H 0.13305 0.48962 0.32052 0.0
H1149 H 0.05704 0.46646 0.34766 0.0
H1150 H 0.14886 0.45197 0.35527 0.0
H1151 H 0.07271 0.42758 0.38073 0.0
H1152 H 0.11336 0.3725 0.47623 0.0
H1153 H 0.09356 0.40839 0.43999 0.0
H1154 H 0.15389 0.40977 0.34493 0.0
H1155 H 0.17415 0.37533 0.38303 0.0
C1156 C 0.1197 0.47617 0.33353 0.0
C1157 C 0.09384 0.48083 0.33107 0.0
C1158 C 0.12872 0.45437 0.35317 0.0
C1159 C 0.11214 0.43619 0.37017 0.0
C1160 C 0.08613 0.44107 0.36827 0.0
C1161 C 0.07709 0.46328 0.34921 0.0
C1162 C 0.12204 0.38036 0.44714 0.0
C1163 C 0.1453 0.37133 0.43246 0.0
C1164 C 0.11073 0.40094 0.42629 0.0
C1165 C 0.12232 0.41256 0.38991 0.0
C1166 C 0.14476 0.40213 0.37373 0.0
C1167 C 0.15628 0.3821 0.39516 0.0
H1168 H 0.60885 0.62314 0.37173 0.0
H1169 H 0.66933 0.59268 0.29391 0.0
H1170 H 0.63919 0.63734 0.42637 0.0
H1171 H 0.69955 0.60697 0.34841 0.0
H1172 H 0.74715 0.61815 0.46843 0.0
H1173 H 0.71307 0.59937 0.42567 0.0
H1174 H 0.6729 0.66952 0.42934 0.0
H1175 H 0.7068 0.6881 0.47223 0.0
C1176 C 0.6286 0.61946 0.36625 0.0
C1177 C 0.63667 0.60688 0.32828 0.0
C1178 C 0.64596 0.6276 0.39759 0.0
C1179 C 0.67175 0.62314 0.39187 0.0
C1180 C 0.67977 0.61033 0.35415 0.0
C1181 C 0.66245 0.60238 0.32266 0.0
C1182 C 0.73065 0.62925 0.46123 0.0
C1183 C 0.7296 0.65457 0.47349 0.0
C1184 C 0.71131 0.61863 0.4363 0.0
C1185 C 0.69046 0.63307 0.4236 0.0
C1186 C 0.68864 0.65787 0.43866 0.0
C1187 C 0.70805 0.66853 0.46317 0.0
H1188 H 0.11476 0.9569 0.77944 0.0
H1189 H 0.12305 0.99108 0.65198 0.0
H1190 H 0.13079 0.91717 0.74976 0.0
H1191 H 0.13876 0.95182 0.62245 0.0
H1192 H 0.18592 0.88543 0.5884 0.0
H1193 H 0.1751 0.9236 0.62734 0.0
H1194 H 0.11577 0.88438 0.6954 0.0
H1195 H 0.12671 0.84582 0.65643 0.0
C1196 C 0.12035 0.956 0.74534 0.0
C1197 C 0.11762 0.97704 0.71799 0.0
C1198 C 0.12929 0.93326 0.72825 0.0
C1199 C 0.13605 0.93132 0.68371 0.0
C1200 C 0.13401 0.95267 0.65695 0.0
C1201 C 0.12486 0.97516 0.67381 0.0
C1202 C 0.1707 0.88475 0.61192 0.0
C1203 C 0.15702 0.86251 0.61887 0.0
C1204 C 0.16445 0.90673 0.63419 0.0
C1205 C 0.14442 0.90713 0.6642 0.0
C1206 C 0.1314 0.88467 0.67268 0.0
C1207 C 0.13758 0.86261 0.65015 0.0
H1208 H 0.79189 0.39614 1.00235 0.0
H1209 H 0.77891 0.33638 0.90985 0.0
H1210 H 0.82575 0.4124 0.95531 0.0
H1211 H 0.81246 0.35244 0.86338 0.0
H1212 H 0.85125 0.40645 0.7679 0.0
H1213 H 0.81859 0.39145 0.81753 0.0
H1214 H 0.86957 0.3983 0.92679 0.0
H1215 H 0.9025 0.41326 0.87698 0.0
C1216 C 0.79632 0.38648 0.97214 0.0
C1217 C 0.7829 0.36488 0.96 0.0
C1218 C 0.81574 0.39567 0.94539 0.0
C1219 C 0.8217 0.3837 0.90564 0.0
C1220 C 0.8082 0.36217 0.89363 0.0
C1221 C 0.78914 0.35284 0.9205 0.0
C1222 C 0.85555 0.40478 0.80249 0.0
C1223 C 0.87951 0.41096 0.81843 0.0
C1224 C 0.83685 0.39611 0.83089 0.0
C1225 C 0.84154 0.39368 0.87603 0.0
C1226 C 0.86538 0.40015 0.8922 0.0
C1227 C 0.88426 0.40852 0.86362 0.0
H1228 H 0.37158 0.03299 0.25786 0.0
H1229 H 0.43796 0.04224 0.17769 0.0
H1230 H 0.35283 0.06928 0.22243 0.0
H1231 H 0.4203 0.07957 0.14553 0.0
H1232 H 0.37297 0.12997 0.06027 0.0
H1233 H 0.39081 0.0932 0.09549 0.0
H1234 H 0.35344 0.11289 0.21658 0.0
H1235 H 0.33455 0.1489 0.18036 0.0
C1236 C 0.3823 0.04279 0.233 0.0
C1237 C 0.40642 0.03455 0.22103 0.0
C1238 C 0.37167 0.06391 0.21305 0.0
C1239 C 0.38498 0.07754 0.18094 0.0
C1240 C 0.40919 0.06945 0.16947 0.0
C1241 C 0.41961 0.04817 0.1888 0.0
C1242 C 0.36866 0.12646 0.09446 0.0
C1243 C 0.35238 0.14232 0.11756 0.0
C1244 C 0.37899 0.1054 0.11485 0.0
C1245 C 0.37371 0.09994 0.15914 0.0
C1246 C 0.35762 0.1161 0.18229 0.0
C1247 C 0.34693 0.13691 0.16164 0.0
H1248 H 0.27479 0.38527 0.58496 0.0
H1249 H 0.31086 0.3135 0.57157 0.0
H1250 H 0.31228 0.40236 0.61876 0.0
H1251 H 0.34938 0.3309 0.60372 0.0
H1252 H 0.40623 0.36642 0.70209 0.0
H1253 H 0.37037 0.34624 0.66639 0.0
H1254 H 0.35214 0.41637 0.60293 0.0
H1255 H 0.38693 0.43652 0.64054 0.0
C1256 C 0.29096 0.37319 0.58896 0.0
C1257 C 0.28996 0.34812 0.57529 0.0
C1258 C 0.31267 0.38306 0.608 0.0
C1259 C 0.33435 0.3683 0.6133 0.0
C1260 C 0.33315 0.34292 0.60045 0.0
C1261 C 0.31112 0.3329 0.58191 0.0
C1262 C 0.3947 0.37734 0.67996 0.0
C1263 C 0.39929 0.40308 0.67427 0.0
C1264 C 0.37409 0.36578 0.65942 0.0
C1265 C 0.3578 0.37967 0.63224 0.0
C1266 C 0.36353 0.40512 0.62471 0.0
C1267 C 0.38374 0.4167 0.64586 0.0
H1268 H 0.84606 0.13238 0.39296 0.0
H1269 H 0.91368 0.15239 0.46262 0.0
H1270 H 0.86902 0.10052 0.35246 0.0
H1271 H 0.93681 0.1199 0.42216 0.0
H1272 H 0.94868 0.03263 0.38408 0.0
H1273 H 0.93395 0.07087 0.4199 0.0
H1274 H 0.90449 0.09731 0.29657 0.0
H1275 H 0.91968 0.05956 0.26048 0.0
C1276 C 0.86594 0.1301 0.3993 0.0
C1277 C 0.8781 0.14488 0.43088 0.0
C1278 C 0.87912 0.11193 0.37592 0.0
C1279 C 0.90474 0.10775 0.38402 0.0
C1280 C 0.91707 0.12272 0.41529 0.0
C1281 C 0.90391 0.14136 0.43819 0.0
C1282 C 0.93972 0.04691 0.36431 0.0
C1283 C 0.93498 0.04275 0.31949 0.0
C1284 C 0.93125 0.0688 0.3849 0.0
C1285 C 0.91775 0.08689 0.36114 0.0
C1286 C 0.91447 0.08349 0.31585 0.0
C1287 C 0.9231 0.06179 0.29525 0.0
H1288 H 0.10096 0.6528 0.16753 0.0
H1289 H 0.14551 0.58526 0.16842 0.0
H1290 H 0.13646 0.67575 0.13495 0.0
H1291 H 0.18064 0.60812 0.13677 0.0
H1292 H 0.24642 0.66233 0.13909 0.0
H1293 H 0.20837 0.64327 0.16865 0.0
H1294 H 0.16509 0.67541 0.06321 0.0
H1295 H 0.20338 0.69468 0.03336 0.0
C1296 C 0.11812 0.64279 0.16024 0.0
C1297 C 0.12042 0.61722 0.1707 0.0
C1298 C 0.13841 0.65593 0.1417 0.0
C1299 C 0.1614 0.64377 0.13398 0.0
C1300 C 0.1633 0.61806 0.14303 0.0
C1301 C 0.14305 0.60494 0.16092 0.0
C1302 C 0.22875 0.6658 0.12263 0.0
C1303 C 0.22794 0.68004 0.08386 0.0
C1304 C 0.207 0.65466 0.13933 0.0
C1305 C 0.18382 0.65767 0.11798 0.0
C1306 C 0.1827 0.67282 0.08032 0.0
C1307 C 0.20461 0.68372 0.06319 0.0
H1308 H 0.61371 1.00015 0.88802 0.0
H1309 H 0.58374 0.95692 0.78053 0.0
H1310 H 0.63182 0.96223 0.91943 0.0
H1311 H 0.60196 0.91875 0.81229 0.0
H1312 H 0.62074 0.85488 0.91879 0.0
H1313 H 0.59911 0.89058 0.88454 0.0
H1314 H 0.66747 0.93388 0.89121 0.0
H1315 H 0.68903 0.89854 0.92445 0.0
C1316 C 0.61061 0.98248 0.87148 0.0
C1317 C 0.59726 0.98158 0.83177 0.0
C1318 C 0.62118 0.96079 0.88928 0.0
C1319 C 0.61845 0.93756 0.86815 0.0
C1320 C 0.60431 0.93639 0.82932 0.0
C1321 C 0.59401 0.95823 0.81107 0.0
C1322 C 0.63118 0.87192 0.91234 0.0
C1323 C 0.65659 0.87385 0.92444 0.0
C1324 C 0.61881 0.89232 0.89278 0.0
C1325 C 0.63155 0.9151 0.88573 0.0
C1326 C 0.65707 0.9167 0.89681 0.0
C1327 C 0.66945 0.89634 0.91563 0.0
loop_
_geom_bond_atom_site_label_1
_geom_bond_atom_site_label_2
_geom_bond_distance
_geom_bond_site_symmetry_2
_ccdc_geom_bond_type
Co0 N4 2.148 . S
Co0 N10 2.128 1_554 S
Co0 N20 2.194 1_554 S
Co0 O25 2.351 1_554 S
Co0 O26 2.155 . S
Co0 O27 2.096 . S
C1 N4 1.301 . S
C1 N5 1.328 . S
C1 H6 0.930 . S
C2 C3 1.333 . S
C2 N4 1.317 . S
C2 H7 0.930 . S
C3 C2 1.333 . S
C3 N5 1.350 . S
C3 H29 0.931 . S
N4 Co0 2.148 . S
N4 C1 1.301 . S
N4 C2 1.317 . S
N5 C1 1.328 . S
N5 C3 1.350 . S
H6 C1 0.930 . S
H7 C2 0.930 . S
C8 O9 1.224 . S
C8 O27 1.247 . S
O9 C8 1.224 . S
N10 Co0 2.128 1_556 S
N10 C11 1.355 . S
N10 C13 1.311 . S
C11 N10 1.355 . S
C11 C12 1.363 . S
C11 H23 0.929 . S
C12 C11 1.363 . S
C12 N14 1.375 . S
C12 H30 0.931 . S
C13 N10 1.311 . S
C13 N14 1.347 . S
C13 H24 0.929 . S
N14 C12 1.375 . S
N14 C13 1.347 . S
C15 C18 1.365 . S
C15 N20 1.328 . S
C15 H21 0.929 . S
C16 C17 1.362 . S
C16 C19 1.378 . S
C16 H31 0.929 . S
C17 C16 1.362 . S
C17 C18 1.366 . S
C18 C15 1.365 . S
C18 C17 1.366 . S
C18 H32 0.930 . S
C19 C16 1.378 . S
C19 N20 1.315 . S
C19 H22 0.930 1_556 S
N20 Co0 2.194 1_556 S
N20 C15 1.328 . S
N20 C19 1.315 . S
H21 C15 0.929 . S
H22 C19 0.930 1_554 S
H23 C11 0.929 . S
H24 C13 0.929 . S
O25 Co0 2.351 1_556 S
O25 C28 1.244 . S
O26 Co0 2.155 . S
O26 C28 1.240 1_554 S
O27 Co0 2.096 . S
O27 C8 1.247 . S
C28 O25 1.244 . S
C28 O26 1.240 1_556 S
H29 C3 0.931 . S
H30 C12 0.931 . S
H31 C16 0.929 . S
H32 C18 0.930 . S
Co33 N37 2.148 . S
Co33 N43 2.128 . S
Co33 N53 2.194 . S
Co33 O58 2.351 . S
Co33 O59 2.155 . S
Co33 O60 2.096 . S
C34 N37 1.301 . S
C34 N38 1.328 . S
C34 H39 0.930 . S
C35 C36 1.333 . S
C35 N37 1.317 . S
C35 H40 0.930 . S
C36 C35 1.333 . S
C36 N38 1.350 . S
C36 H62 0.931 . S
N37 Co33 2.148 . S
N37 C34 1.301 . S
N37 C35 1.317 . S
N38 C34 1.328 . S
N38 C36 1.350 . S
H39 C34 0.930 . S
H40 C35 0.930 . S
C41 O42 1.224 . S
C41 O60 1.247 . S
O42 C41 1.224 . S
N43 Co33 2.128 . S
N43 C44 1.355 . S
N43 C46 1.311 . S
C44 N43 1.355 . S
C44 C45 1.363 . S
C44 H56 0.929 . S
C45 C44 1.363 . S
C45 N47 1.375 . S
C45 H63 0.931 . S
C46 N43 1.311 . S
C46 N47 1.347 . S
C46 H57 0.929 . S
N47 C45 1.375 . S
N47 C46 1.347 . S
C48 C51 1.365 . S
C48 N53 1.328 . S
C48 H54 0.929 . S
C49 C50 1.362 . S
C49 C52 1.378 . S
C49 H64 0.929 . S
C50 C49 1.362 . S
C50 C51 1.366 . S
C51 C48 1.365 . S
C51 C50 1.366 . S
C51 H65 0.930 . S
C52 C49 1.378 . S
C52 N53 1.315 . S
C52 H55 0.930 . S
N53 Co33 2.194 . S
N53 C48 1.328 . S
N53 C52 1.315 . S
H54 C48 0.929 . S
H55 C52 0.930 . S
H56 C44 0.929 . S
H57 C46 0.929 . S
O58 Co33 2.351 . S
O58 C61 1.244 . S
O59 Co33 2.155 . S
O59 C61 1.240 . S
O60 Co33 2.096 . S
O60 C41 1.247 . S
C61 O58 1.244 . S
C61 O59 1.240 . S
H62 C36 0.931 . S
H63 C45 0.931 . S
H64 C49 0.929 . S
H65 C51 0.930 . S
Co66 N70 2.148 . S
Co66 N76 2.128 . S
Co66 N86 2.194 . S
Co66 O91 2.351 . S
Co66 O92 2.155 . S
Co66 O93 2.096 . S
C67 N70 1.301 . S
C67 N71 1.328 . S
C67 H72 0.930 . S
C68 C69 1.333 . S
C68 N70 1.317 . S
C68 H73 0.930 . S
C69 C68 1.333 . S
C69 N71 1.350 . S
C69 H95 0.931 . S
N70 Co66 2.148 . S
N70 C67 1.301 . S
N70 C68 1.317 . S
N71 C67 1.328 . S
N71 C69 1.350 . S
H72 C67 0.930 . S
H73 C68 0.930 . S
C74 O75 1.224 . S
C74 O93 1.247 . S
O75 C74 1.224 . S
N76 Co66 2.128 . S
N76 C77 1.355 . S
N76 C79 1.311 . S
C77 N76 1.355 . S
C77 C78 1.363 . S
C77 H89 0.929 . S
C78 C77 1.363 . S
C78 N80 1.375 . S
C78 H96 0.931 . S
C79 N76 1.311 . S
C79 N80 1.347 . S
C79 H90 0.929 . S
N80 C78 1.375 . S
N80 C79 1.347 . S
C81 C84 1.365 . S
C81 N86 1.328 . S
C81 H87 0.929 . S
C82 C83 1.362 . S
C82 C85 1.378 . S
C82 H97 0.929 . S
C83 C82 1.362 . S
C83 C84 1.366 . S
C84 C81 1.365 . S
C84 C83 1.366 . S
C84 H98 0.930 . S
C85 C82 1.378 . S
C85 N86 1.315 . S
C85 H88 0.930 . S
N86 Co66 2.194 . S
N86 C81 1.328 . S
N86 C85 1.315 . S
H87 C81 0.929 . S
H88 C85 0.930 . S
H89 C77 0.929 . S
H90 C79 0.929 . S
O91 Co66 2.351 . S
O91 C94 1.244 . S
O92 Co66 2.155 . S
O92 C94 1.240 . S
O93 Co66 2.096 . S
O93 C74 1.247 . S
C94 O91 1.244 . S
C94 O92 1.240 . S
H95 C69 0.931 . S
H96 C78 0.931 . S
H97 C82 0.929 . S
H98 C84 0.930 . S
Co99 N103 2.148 . S
Co99 N109 2.128 . S
Co99 N119 2.194 . S
Co99 O124 2.351 . S
Co99 O125 2.155 . S
Co99 O126 2.096 . S
C100 N103 1.301 . S
C100 N104 1.328 . S
C100 H105 0.930 . S
C101 C102 1.333 . S
C101 N103 1.317 . S
C101 H106 0.930 . S
C102 C101 1.333 . S
C102 N104 1.350 . S
C102 H128 0.931 . S
N103 Co99 2.148 . S
N103 C100 1.301 . S
N103 C101 1.317 . S
N104 C100 1.328 . S
N104 C102 1.350 . S
H105 C100 0.930 . S
H106 C101 0.930 . S
C107 O108 1.224 . S
C107 O126 1.247 . S
O108 C107 1.224 . S
N109 Co99 2.128 . S
N109 C110 1.355 . S
N109 C112 1.311 . S
C110 N109 1.355 . S
C110 C111 1.363 . S
C110 H122 0.929 . S
C111 C110 1.363 . S
C111 N113 1.375 . S
C111 H129 0.931 . S
C112 N109 1.311 . S
C112 N113 1.347 . S
C112 H123 0.929 . S
N113 C111 1.375 . S
N113 C112 1.347 . S
C114 C117 1.365 . S
C114 N119 1.328 . S
C114 H120 0.929 . S
C115 C116 1.362 . S
C115 C118 1.378 . S
C115 H130 0.929 . S
C116 C115 1.362 . S
C116 C117 1.366 . S
C117 C114 1.365 . S
C117 C116 1.366 . S
C117 H131 0.930 . S
C118 C115 1.378 . S
C118 N119 1.315 . S
C118 H121 0.930 . S
N119 Co99 2.194 . S
N119 C114 1.328 . S
N119 C118 1.315 . S
H120 C114 0.929 . S
H121 C118 0.930 . S
H122 C110 0.929 . S
H123 C112 0.929 . S
O124 Co99 2.351 . S
O124 C127 1.244 . S
O125 Co99 2.155 . S
O125 C127 1.240 . S
O126 Co99 2.096 . S
O126 C107 1.247 . S
C127 O124 1.244 . S
C127 O125 1.240 . S
H128 C102 0.931 . S
H129 C111 0.931 . S
H130 C115 0.929 . S
H131 C117 0.930 . S
Co132 N136 2.148 . S
Co132 N142 2.128 1_556 S
Co132 N152 2.194 1_556 S
Co132 O157 2.351 . S
Co132 O158 2.155 . S
Co132 O159 2.096 . S
C133 N136 1.301 . S
C133 N137 1.328 . S
C133 H138 0.930 . S
C134 C135 1.333 . S
C134 N136 1.317 . S
C134 H139 0.930 . S
C135 C134 1.333 . S
C135 N137 1.350 . S
C135 H161 0.931 . S
N136 Co132 2.148 . S
N136 C133 1.301 . S
N136 C134 1.317 . S
N137 C133 1.328 . S
N137 C135 1.350 . S
H138 C133 0.930 . S
H139 C134 0.930 . S
C140 O141 1.224 . S
C140 O159 1.247 1_554 S
O141 C140 1.224 . S
N142 Co132 2.128 1_554 S
N142 C143 1.355 . S
N142 C145 1.311 . S
C143 N142 1.355 . S
C143 C144 1.363 . S
C143 H155 0.929 . S
C144 C143 1.363 . S
C144 N146 1.375 . S
C144 H162 0.931 . S
C145 N142 1.311 . S
C145 N146 1.347 . S
C145 H156 0.929 . S
N146 C144 1.375 . S
N146 C145 1.347 . S
C147 C150 1.365 . S
C147 N152 1.328 . S
C147 H153 0.929 1_554 S
C148 C149 1.362 . S
C148 C151 1.378 . S
C148 H163 0.929 . S
C149 C148 1.362 . S
C149 C150 1.366 . S
C150 C147 1.365 . S
C150 C149 1.366 . S
C150 H164 0.930 . S
C151 C148 1.378 . S
C151 N152 1.315 . S
C151 H154 0.930 . S
N152 Co132 2.194 1_554 S
N152 C147 1.328 . S
N152 C151 1.315 . S
H153 C147 0.929 1_556 S
H154 C151 0.930 . S
H155 C143 0.929 . S
H156 C145 0.929 . S
O157 Co132 2.351 . S
O157 C160 1.244 . S
O158 Co132 2.155 . S
O158 C160 1.240 . S
O159 Co132 2.096 . S
O159 C140 1.247 1_556 S
C160 O157 1.244 . S
C160 O158 1.240 . S
H161 C135 0.931 . S
H162 C144 0.931 . S
H163 C148 0.929 . S
H164 C150 0.930 . S
Co165 N169 2.148 . S
Co165 N175 2.128 . S
Co165 N185 2.194 . S
Co165 O190 2.351 . S
Co165 O191 2.155 . S
Co165 O192 2.096 . S
C166 N169 1.301 . S
C166 N170 1.328 . S
C166 H171 0.930 . S
C167 C168 1.333 . S
C167 N169 1.317 . S
C167 H172 0.930 . S
C168 C167 1.333 . S
C168 N170 1.350 . S
C168 H194 0.931 . S
N169 Co165 2.148 . S
N169 C166 1.301 . S
N169 C167 1.317 . S
N170 C166 1.328 . S
N170 C168 1.350 . S
H171 C166 0.930 . S
H172 C167 0.930 . S
C173 O174 1.224 . S
C173 O192 1.247 . S
O174 C173 1.224 . S
N175 Co165 2.128 . S
N175 C176 1.355 . S
N175 C178 1.311 . S
C176 N175 1.355 . S
C176 C177 1.363 . S
C176 H188 0.929 . S
C177 C176 1.363 . S
C177 N179 1.375 . S
C177 H195 0.931 . S
C178 N175 1.311 . S
C178 N179 1.347 . S
C178 H189 0.929 . S
N179 C177 1.375 . S
N179 C178 1.347 . S
C180 C183 1.365 . S
C180 N185 1.328 . S
C180 H186 0.929 . S
C181 C182 1.362 . S
C181 C184 1.378 . S
C181 H196 0.929 . S
C182 C181 1.362 . S
C182 C183 1.366 . S
C183 C180 1.365 . S
C183 C182 1.366 . S
C183 H197 0.930 . S
C184 C181 1.378 . S
C184 N185 1.315 . S
C184 H187 0.930 . S
N185 Co165 2.194 . S
N185 C180 1.328 . S
N185 C184 1.315 . S
H186 C180 0.929 . S
H187 C184 0.930 . S
H188 C176 0.929 . S
H189 C178 0.929 . S
O190 Co165 2.351 . S
O190 C193 1.244 . S
O191 Co165 2.155 . S
O191 C193 1.240 . S
O192 Co165 2.096 . S
O192 C173 1.247 . S
C193 O190 1.244 . S
C193 O191 1.240 . S
H194 C168 0.931 . S
H195 C177 0.931 . S
H196 C181 0.929 . S
H197 C183 0.930 . S
Co198 N202 2.148 . S
Co198 N208 2.128 . S
Co198 N218 2.194 . S
Co198 O223 2.351 . S
Co198 O224 2.155 . S
Co198 O225 2.096 . S
C199 N202 1.301 . S
C199 N203 1.328 . S
C199 H204 0.930 . S
C200 C201 1.333 . S
C200 N202 1.317 . S
C200 H205 0.930 . S
C201 C200 1.333 . S
C201 N203 1.350 . S
C201 H227 0.931 . S
N202 Co198 2.148 . S
N202 C199 1.301 . S
N202 C200 1.317 . S
N203 C199 1.328 . S
N203 C201 1.350 . S
H204 C199 0.930 . S
H205 C200 0.930 . S
C206 O207 1.224 . S
C206 O225 1.247 . S
O207 C206 1.224 . S
N208 Co198 2.128 . S
N208 C209 1.355 . S
N208 C211 1.311 . S
C209 N208 1.355 . S
C209 C210 1.363 . S
C209 H221 0.929 . S
C210 C209 1.363 . S
C210 N212 1.375 . S
C210 H228 0.931 . S
C211 N208 1.311 . S
C211 N212 1.347 . S
C211 H222 0.929 . S
N212 C210 1.375 . S
N212 C211 1.347 . S
C213 C216 1.365 . S
C213 N218 1.328 . S
C213 H219 0.929 . S
C214 C215 1.362 . S
C214 C217 1.378 . S
C214 H229 0.929 . S
C215 C214 1.362 . S
C215 C216 1.366 . S
C216 C213 1.365 . S
C216 C215 1.366 . S
C216 H230 0.930 . S
C217 C214 1.378 . S
C217 N218 1.315 . S
C217 H220 0.930 . S
N218 Co198 2.194 . S
N218 C213 1.328 . S
N218 C217 1.315 . S
H219 C213 0.929 . S
H220 C217 0.930 . S
H221 C209 0.929 . S
H222 C211 0.929 . S
O223 Co198 2.351 . S
O223 C226 1.244 . S
O224 Co198 2.155 . S
O224 C226 1.240 . S
O225 Co198 2.096 . S
O225 C206 1.247 . S
C226 O223 1.244 . S
C226 O224 1.240 . S
H227 C201 0.931 . S
H228 C210 0.931 . S
H229 C214 0.929 . S
H230 C216 0.930 . S
Co231 N235 2.148 . S
Co231 N241 2.128 . S
Co231 N251 2.194 . S
Co231 O256 2.351 . S
Co231 O257 2.155 . S
Co231 O258 2.096 . S
C232 N235 1.301 . S
C232 N236 1.328 . S
C232 H237 0.930 . S
C233 C234 1.333 . S
C233 N235 1.317 . S
C233 H238 0.930 . S
C234 C233 1.333 . S
C234 N236 1.350 . S
C234 H260 0.931 . S
N235 Co231 2.148 . S
N235 C232 1.301 . S
N235 C233 1.317 . S
N236 C232 1.328 . S
N236 C234 1.350 . S
H237 C232 0.930 . S
H238 C233 0.930 . S
C239 O240 1.224 . S
C239 O258 1.247 . S
O240 C239 1.224 . S
N241 Co231 2.128 . S
N241 C242 1.355 . S
N241 C244 1.311 . S
C242 N241 1.355 . S
C242 C243 1.363 . S
C242 H254 0.929 . S
C243 C242 1.363 . S
C243 N245 1.375 . S
C243 H261 0.931 . S
C244 N241 1.311 . S
C244 N245 1.347 . S
C244 H255 0.929 . S
N245 C243 1.375 . S
N245 C244 1.347 . S
C246 C249 1.365 . S
C246 N251 1.328 . S
C246 H252 0.929 . S
C247 C248 1.362 . S
C247 C250 1.378 . S
C247 H262 0.929 . S
C248 C247 1.362 . S
C248 C249 1.366 . S
C249 C246 1.365 . S
C249 C248 1.366 . S
C249 H263 0.930 . S
C250 C247 1.378 . S
C250 N251 1.315 . S
C250 H253 0.930 . S
N251 Co231 2.194 . S
N251 C246 1.328 . S
N251 C250 1.315 . S
H252 C246 0.929 . S
H253 C250 0.930 . S
H254 C242 0.929 . S
H255 C244 0.929 . S
O256 Co231 2.351 . S
O256 C259 1.244 . S
O257 Co231 2.155 . S
O257 C259 1.240 . S
O258 Co231 2.096 . S
O258 C239 1.247 . S
C259 O256 1.244 . S
C259 O257 1.240 . S
H260 C234 0.931 . S
H261 C243 0.931 . S
H262 C247 0.929 . S
H263 C249 0.930 . S
Co264 N268 2.148 . S
Co264 N274 2.128 . S
Co264 N284 2.194 . S
Co264 O289 2.351 . S
Co264 O290 2.155 . S
Co264 O291 2.096 . S
C265 N268 1.301 . S
C265 N269 1.328 . S
C265 H270 0.930 . S
C266 C267 1.333 . S
C266 N268 1.317 . S
C266 H271 0.930 . S
C267 C266 1.333 . S
C267 N269 1.350 . S
C267 H293 0.931 . S
N268 Co264 2.148 . S
N268 C265 1.301 . S
N268 C266 1.317 . S
N269 C265 1.328 . S
N269 C267 1.350 . S
H270 C265 0.930 . S
H271 C266 0.930 . S
C272 O273 1.224 . S
C272 O291 1.247 . S
O273 C272 1.224 . S
N274 Co264 2.128 . S
N274 C275 1.355 . S
N274 C277 1.311 . S
C275 N274 1.355 . S
C275 C276 1.363 . S
C275 H287 0.929 . S
C276 C275 1.363 . S
C276 N278 1.375 . S
C276 H294 0.931 . S
C277 N274 1.311 . S
C277 N278 1.347 . S
C277 H288 0.929 . S
N278 C276 1.375 . S
N278 C277 1.347 . S
C279 C282 1.365 . S
C279 N284 1.328 . S
C279 H285 0.929 . S
C280 C281 1.362 . S
C280 C283 1.378 . S
C280 H295 0.929 . S
C281 C280 1.362 . S
C281 C282 1.366 . S
C282 C279 1.365 . S
C282 C281 1.366 . S
C282 H296 0.930 . S
C283 C280 1.378 . S
C283 N284 1.315 . S
C283 H286 0.930 . S
N284 Co264 2.194 . S
N284 C279 1.328 . S
N284 C283 1.315 . S
H285 C279 0.929 . S
H286 C283 0.930 . S
H287 C275 0.929 . S
H288 C277 0.929 . S
O289 Co264 2.351 . S
O289 C292 1.244 . S
O290 Co264 2.155 . S
O290 C292 1.240 . S
O291 Co264 2.096 . S
O291 C272 1.247 . S
C292 O289 1.244 . S
C292 O290 1.240 . S
H293 C267 0.931 . S
H294 C276 0.931 . S
H295 C280 0.929 . S
H296 C282 0.930 . S
Co297 N301 2.148 . S
Co297 N307 2.128 . S
Co297 N317 2.194 . S
Co297 O322 2.351 . S
Co297 O323 2.155 . S
Co297 O324 2.096 . S
C298 N301 1.301 . S
C298 N302 1.328 . S
C298 H303 0.930 . S
C299 C300 1.333 . S
C299 N301 1.317 . S
C299 H304 0.930 . S
C300 C299 1.333 . S
C300 N302 1.350 . S
C300 H326 0.931 . S
N301 Co297 2.148 . S
N301 C298 1.301 . S
N301 C299 1.317 . S
N302 C298 1.328 . S
N302 C300 1.350 . S
H303 C298 0.930 . S
H304 C299 0.930 . S
C305 O306 1.224 . S
C305 O324 1.247 . S
O306 C305 1.224 . S
N307 Co297 2.128 . S
N307 C308 1.355 . S
N307 C310 1.311 . S
C308 N307 1.355 . S
C308 C309 1.363 . S
C308 H320 0.929 . S
C309 C308 1.363 . S
C309 N311 1.375 . S
C309 H327 0.931 . S
C310 N307 1.311 . S
C310 N311 1.347 . S
C310 H321 0.929 . S
N311 C309 1.375 . S
N311 C310 1.347 . S
C312 C315 1.365 . S
C312 N317 1.328 . S
C312 H318 0.929 . S
C313 C314 1.362 . S
C313 C316 1.378 . S
C313 H328 0.929 . S
C314 C313 1.362 . S
C314 C315 1.366 . S
C315 C312 1.365 . S
C315 C314 1.366 . S
C315 H329 0.930 . S
C316 C313 1.378 . S
C316 N317 1.315 . S
C316 H319 0.930 . S
N317 Co297 2.194 . S
N317 C312 1.328 . S
N317 C316 1.315 . S
H318 C312 0.929 . S
H319 C316 0.930 . S
H320 C308 0.929 . S
H321 C310 0.929 . S
O322 Co297 2.351 . S
O322 C325 1.244 . S
O323 Co297 2.155 . S
O323 C325 1.240 . S
O324 Co297 2.096 . S
O324 C305 1.247 . S
C325 O322 1.244 . S
C325 O323 1.240 . S
H326 C300 0.931 . S
H327 C309 0.931 . S
H328 C313 0.929 . S
H329 C315 0.930 . S
Co330 N334 2.148 . S
Co330 N340 2.128 1_554 S
Co330 N350 2.194 1_554 S
Co330 O355 2.351 1_554 S
Co330 O356 2.155 . S
Co330 O357 2.096 . S
C331 N334 1.301 . S
C331 N335 1.328 . S
C331 H336 0.930 . S
C332 C333 1.333 . S
C332 N334 1.317 . S
C332 H337 0.930 . S
C333 C332 1.333 . S
C333 N335 1.350 . S
C333 H359 0.931 . S
N334 Co330 2.148 . S
N334 C331 1.301 . S
N334 C332 1.317 . S
N335 C331 1.328 . S
N335 C333 1.350 . S
H336 C331 0.930 . S
H337 C332 0.930 . S
C338 O339 1.224 . S
C338 O357 1.247 . S
O339 C338 1.224 . S
N340 Co330 2.128 1_556 S
N340 C341 1.355 . S
N340 C343 1.311 . S
C341 N340 1.355 . S
C341 C342 1.363 . S
C341 H353 0.929 . S
C342 C341 1.363 . S
C342 N344 1.375 . S
C342 H360 0.931 . S
C343 N340 1.311 . S
C343 N344 1.347 . S
C343 H354 0.929 . S
N344 C342 1.375 . S
N344 C343 1.347 . S
C345 C348 1.365 . S
C345 N350 1.328 . S
C345 H351 0.929 . S
C346 C347 1.362 . S
C346 C349 1.378 . S
C346 H361 0.929 . S
C347 C346 1.362 . S
C347 C348 1.366 . S
C348 C345 1.365 . S
C348 C347 1.366 . S
C348 H362 0.930 . S
C349 C346 1.378 . S
C349 N350 1.315 . S
C349 H352 0.930 1_556 S
N350 Co330 2.194 1_556 S
N350 C345 1.328 . S
N350 C349 1.315 . S
H351 C345 0.929 . S
H352 C349 0.930 1_554 S
H353 C341 0.929 . S
H354 C343 0.929 . S
O355 Co330 2.351 1_556 S
O355 C358 1.244 . S
O356 Co330 2.155 . S
O356 C358 1.240 1_554 S
O357 Co330 2.096 . S
O357 C338 1.247 . S
C358 O355 1.244 . S
C358 O356 1.240 1_556 S
H359 C333 0.931 . S
H360 C342 0.931 . S
H361 C346 0.929 . S
H362 C348 0.930 . S
Co363 N367 2.148 . S
Co363 N373 2.128 . S
Co363 N383 2.194 . S
Co363 O388 2.351 . S
Co363 O389 2.155 . S
Co363 O390 2.096 . S
C364 N367 1.301 . S
C364 N368 1.328 . S
C364 H369 0.930 . S
C365 C366 1.333 . S
C365 N367 1.317 . S
C365 H370 0.930 . S
C366 C365 1.333 . S
C366 N368 1.350 . S
C366 H392 0.931 . S
N367 Co363 2.148 . S
N367 C364 1.301 . S
N367 C365 1.317 . S
N368 C364 1.328 . S
N368 C366 1.350 . S
H369 C364 0.930 . S
H370 C365 0.930 . S
C371 O372 1.224 . S
C371 O390 1.247 . S
O372 C371 1.224 . S
N373 Co363 2.128 . S
N373 C374 1.355 . S
N373 C376 1.311 . S
C374 N373 1.355 . S
C374 C375 1.363 . S
C374 H386 0.929 . S
C375 C374 1.363 . S
C375 N377 1.375 . S
C375 H393 0.931 . S
C376 N373 1.311 . S
C376 N377 1.347 . S
C376 H387 0.929 . S
N377 C375 1.375 . S
N377 C376 1.347 . S
C378 C381 1.365 . S
C378 N383 1.328 . S
C378 H384 0.929 . S
C379 C380 1.362 . S
C379 C382 1.378 . S
C379 H394 0.929 . S
C380 C379 1.362 . S
C380 C381 1.366 . S
C381 C378 1.365 . S
C381 C380 1.366 . S
C381 H395 0.930 . S
C382 C379 1.378 . S
C382 N383 1.315 . S
C382 H385 0.930 . S
N383 Co363 2.194 . S
N383 C378 1.328 . S
N383 C382 1.315 . S
H384 C378 0.929 . S
H385 C382 0.930 . S
H386 C374 0.929 . S
H387 C376 0.929 . S
O388 Co363 2.351 . S
O388 C391 1.244 . S
O389 Co363 2.155 . S
O389 C391 1.240 . S
O390 Co363 2.096 . S
O390 C371 1.247 . S
C391 O388 1.244 . S
C391 O389 1.240 . S
H392 C366 0.931 . S
H393 C375 0.931 . S
H394 C379 0.929 . S
H395 C381 0.930 . S
Co396 N400 2.148 . S
Co396 N406 2.128 . S
Co396 N416 2.194 . S
Co396 O421 2.351 . S
Co396 O422 2.155 . S
Co396 O423 2.096 . S
C397 N400 1.301 . S
C397 N401 1.328 . S
C397 H402 0.930 . S
C398 C399 1.333 . S
C398 N400 1.317 . S
C398 H403 0.930 . S
C399 C398 1.333 . S
C399 N401 1.350 . S
C399 H425 0.931 . S
N400 Co396 2.148 . S
N400 C397 1.301 . S
N400 C398 1.317 . S
N401 C397 1.328 . S
N401 C399 1.350 . S
H402 C397 0.930 . S
H403 C398 0.930 . S
C404 O405 1.224 . S
C404 O423 1.247 . S
O405 C404 1.224 . S
N406 Co396 2.128 . S
N406 C407 1.355 . S
N406 C409 1.311 . S
C407 N406 1.355 . S
C407 C408 1.363 . S
C407 H419 0.929 . S
C408 C407 1.363 . S
C408 N410 1.375 . S
C408 H426 0.931 . S
C409 N406 1.311 . S
C409 N410 1.347 . S
C409 H420 0.929 . S
N410 C408 1.375 . S
N410 C409 1.347 . S
C411 C414 1.365 . S
C411 N416 1.328 . S
C411 H417 0.929 . S
C412 C413 1.362 . S
C412 C415 1.378 . S
C412 H427 0.929 . S
C413 C412 1.362 . S
C413 C414 1.366 . S
C414 C411 1.365 . S
C414 C413 1.366 . S
C414 H428 0.930 . S
C415 C412 1.378 . S
C415 N416 1.315 . S
C415 H418 0.930 . S
N416 Co396 2.194 . S
N416 C411 1.328 . S
N416 C415 1.315 . S
H417 C411 0.929 . S
H418 C415 0.930 . S
H419 C407 0.929 . S
H420 C409 0.929 . S
O421 Co396 2.351 . S
O421 C424 1.244 . S
O422 Co396 2.155 . S
O422 C424 1.240 . S
O423 Co396 2.096 . S
O423 C404 1.247 . S
C424 O421 1.244 . S
C424 O422 1.240 . S
H425 C399 0.931 . S
H426 C408 0.931 . S
H427 C412 0.929 . S
H428 C414 0.930 . S
Co429 N433 2.148 . S
Co429 N439 2.128 . S
Co429 N449 2.194 . S
Co429 O454 2.351 . S
Co429 O455 2.155 . S
Co429 O456 2.096 . S
C430 N433 1.301 . S
C430 N434 1.328 . S
C430 H435 0.930 . S
C431 C432 1.333 . S
C431 N433 1.317 . S
C431 H436 0.930 . S
C432 C431 1.333 . S
C432 N434 1.350 . S
C432 H458 0.931 . S
N433 Co429 2.148 . S
N433 C430 1.301 . S
N433 C431 1.317 . S
N434 C430 1.328 . S
N434 C432 1.350 . S
H435 C430 0.930 . S
H436 C431 0.930 . S
C437 O438 1.224 . S
C437 O456 1.247 . S
O438 C437 1.224 . S
N439 Co429 2.128 . S
N439 C440 1.355 . S
N439 C442 1.311 . S
C440 N439 1.355 . S
C440 C441 1.363 . S
C440 H452 0.929 . S
C441 C440 1.363 . S
C441 N443 1.375 . S
C441 H459 0.931 . S
C442 N439 1.311 . S
C442 N443 1.347 . S
C442 H453 0.929 . S
N443 C441 1.375 . S
N443 C442 1.347 . S
C444 C447 1.365 1_565 S
C444 N449 1.328 . S
C444 H450 0.929 . S
C445 C446 1.362 1_565 S
C445 C448 1.378 . S
C445 H460 0.929 1_565 S
C446 C445 1.362 1_545 S
C446 C447 1.366 . S
C447 C444 1.365 1_545 S
C447 C446 1.366 . S
C447 H461 0.930 . S
C448 C445 1.378 . S
C448 N449 1.315 . S
C448 H451 0.930 . S
N449 Co429 2.194 . S
N449 C444 1.328 . S
N449 C448 1.315 . S
H450 C444 0.929 . S
H451 C448 0.930 . S
H452 C440 0.929 . S
H453 C442 0.929 . S
O454 Co429 2.351 . S
O454 C457 1.244 . S
O455 Co429 2.155 . S
O455 C457 1.240 . S
O456 Co429 2.096 . S
O456 C437 1.247 . S
C457 O454 1.244 . S
C457 O455 1.240 . S
H458 C432 0.931 . S
H459 C441 0.931 . S
H460 C445 0.929 1_545 S
H461 C447 0.930 . S
Co462 N466 2.148 . S
Co462 N472 2.128 1_556 S
Co462 N482 2.194 1_556 S
Co462 O487 2.351 . S
Co462 O488 2.155 . S
Co462 O489 2.096 . S
C463 N466 1.301 . S
C463 N467 1.328 . S
C463 H468 0.930 . S
C464 C465 1.333 . S
C464 N466 1.317 . S
C464 H469 0.930 . S
C465 C464 1.333 . S
C465 N467 1.350 . S
C465 H491 0.931 . S
N466 Co462 2.148 . S
N466 C463 1.301 . S
N466 C464 1.317 . S
N467 C463 1.328 . S
N467 C465 1.350 . S
H468 C463 0.930 . S
H469 C464 0.930 . S
C470 O471 1.224 . S
C470 O489 1.247 1_554 S
O471 C470 1.224 . S
N472 Co462 2.128 1_554 S
N472 C473 1.355 . S
N472 C475 1.311 . S
C473 N472 1.355 . S
C473 C474 1.363 . S
C473 H485 0.929 . S
C474 C473 1.363 . S
C474 N476 1.375 . S
C474 H492 0.931 . S
C475 N472 1.311 . S
C475 N476 1.347 . S
C475 H486 0.929 . S
N476 C474 1.375 . S
N476 C475 1.347 . S
C477 C480 1.365 . S
C477 N482 1.328 . S
C477 H483 0.929 1_554 S
C478 C479 1.362 . S
C478 C481 1.378 . S
C478 H493 0.929 . S
C479 C478 1.362 . S
C479 C480 1.366 . S
C480 C477 1.365 . S
C480 C479 1.366 . S
C480 H494 0.930 . S
C481 C478 1.378 . S
C481 N482 1.315 . S
C481 H484 0.930 . S
N482 Co462 2.194 1_554 S
N482 C477 1.328 . S
N482 C481 1.315 . S
H483 C477 0.929 1_556 S
H484 C481 0.930 . S
H485 C473 0.929 . S
H486 C475 0.929 . S
O487 Co462 2.351 . S
O487 C490 1.244 . S
O488 Co462 2.155 . S
O488 C490 1.240 . S
O489 Co462 2.096 . S
O489 C470 1.247 1_556 S
C490 O487 1.244 . S
C490 O488 1.240 . S
H491 C465 0.931 . S
H492 C474 0.931 . S
H493 C478 0.929 . S
H494 C480 0.930 . S
Co495 N499 2.148 . S
Co495 N505 2.128 . S
Co495 N515 2.194 . S
Co495 O520 2.351 . S
Co495 O521 2.155 . S
Co495 O522 2.096 . S
C496 N499 1.301 . S
C496 N500 1.328 . S
C496 H501 0.930 . S
C497 C498 1.333 . S
C497 N499 1.317 . S
C497 H502 0.930 . S
C498 C497 1.333 . S
C498 N500 1.350 . S
C498 H524 0.931 . S
N499 Co495 2.148 . S
N499 C496 1.301 . S
N499 C497 1.317 . S
N500 C496 1.328 . S
N500 C498 1.350 . S
H501 C496 0.930 . S
H502 C497 0.930 . S
C503 O504 1.224 . S
C503 O522 1.247 . S
O504 C503 1.224 . S
N505 Co495 2.128 . S
N505 C506 1.355 . S
N505 C508 1.311 . S
C506 N505 1.355 . S
C506 C507 1.363 . S
C506 H518 0.929 . S
C507 C506 1.363 . S
C507 N509 1.375 . S
C507 H525 0.931 . S
C508 N505 1.311 . S
C508 N509 1.347 . S
C508 H519 0.929 . S
N509 C507 1.375 . S
N509 C508 1.347 . S
C510 C513 1.365 1_545 S
C510 N515 1.328 . S
C510 H516 0.929 . S
C511 C512 1.362 1_545 S
C511 C514 1.378 . S
C511 H526 0.929 1_545 S
C512 C511 1.362 1_565 S
C512 C513 1.366 . S
C513 C510 1.365 1_565 S
C513 C512 1.366 . S
C513 H527 0.930 . S
C514 C511 1.378 . S
C514 N515 1.315 . S
C514 H517 0.930 . S
N515 Co495 2.194 . S
N515 C510 1.328 . S
N515 C514 1.315 . S
H516 C510 0.929 . S
H517 C514 0.930 . S
H518 C506 0.929 . S
H519 C508 0.929 . S
O520 Co495 2.351 . S
O520 C523 1.244 . S
O521 Co495 2.155 . S
O521 C523 1.240 . S
O522 Co495 2.096 . S
O522 C503 1.247 . S
C523 O520 1.244 . S
C523 O521 1.240 . S
H524 C498 0.931 . S
H525 C507 0.931 . S
H526 C511 0.929 1_565 S
H527 C513 0.930 . S
H528 C536 0.950 . S
H529 C541 0.950 . S
H530 C538 0.950 . S
H531 C540 0.950 . S
H532 C542 0.950 . S
H533 C544 0.950 . S
H534 C546 0.950 . S
H535 C547 0.950 . S
C536 H528 0.950 . S
C536 C537 1.386 . S
C536 C538 1.391 . S
C537 C536 1.386 . S
C537 C541 1.393 . S
C538 H530 0.950 . S
C538 C536 1.391 . S
C538 C539 1.400 . S
C539 C538 1.400 . S
C539 C540 1.398 . S
C539 C545 1.491 . S
C540 H531 0.950 . S
C540 C539 1.398 . S
C540 C541 1.391 . S
C541 H529 0.950 . S
C541 C537 1.393 . S
C541 C540 1.391 . S
C542 H532 0.950 . S
C542 C543 1.386 . S
C542 C544 1.391 . S
C543 C542 1.386 . S
C543 C547 1.393 . S
C544 H533 0.950 . S
C544 C542 1.391 . S
C544 C545 1.400 . S
C545 C539 1.491 . S
C545 C544 1.400 . S
C545 C546 1.398 . S
C546 H534 0.950 . S
C546 C545 1.398 . S
C546 C547 1.391 . S
C547 H535 0.950 . S
C547 C543 1.393 . S
C547 C546 1.391 . S
H548 C556 0.950 . S
H549 C561 0.950 . S
H550 C558 0.950 . S
H551 C560 0.950 . S
H552 C562 0.950 . S
H553 C564 0.950 . S
H554 C566 0.950 . S
H555 C567 0.950 . S
C556 H548 0.950 . S
C556 C557 1.386 . S
C556 C558 1.391 . S
C557 C556 1.386 . S
C557 C561 1.393 . S
C558 H550 0.950 . S
C558 C556 1.391 . S
C558 C559 1.400 . S
C559 C558 1.400 . S
C559 C560 1.398 . S
C559 C565 1.491 . S
C560 H551 0.950 . S
C560 C559 1.398 . S
C560 C561 1.391 . S
C561 H549 0.950 . S
C561 C557 1.393 . S
C561 C560 1.391 . S
C562 H552 0.950 . S
C562 C563 1.386 . S
C562 C564 1.391 . S
C563 C562 1.386 . S
C563 C567 1.393 . S
C564 H553 0.950 . S
C564 C562 1.391 . S
C564 C565 1.400 . S
C565 C559 1.491 . S
C565 C564 1.400 . S
C565 C566 1.398 . S
C566 H554 0.950 . S
C566 C565 1.398 . S
C566 C567 1.391 . S
C567 H555 0.950 . S
C567 C563 1.393 . S
C567 C566 1.391 . S
H568 C576 0.950 . S
H569 C581 0.950 . S
H570 C578 0.950 . S
H571 C580 0.950 . S
H572 C582 0.950 . S
H573 C584 0.950 . S
H574 C586 0.950 . S
H575 C587 0.950 . S
C576 H568 0.950 . S
C576 C577 1.386 . S
C576 C578 1.391 . S
C577 C576 1.386 . S
C577 C581 1.393 . S
C578 H570 0.950 . S
C578 C576 1.391 . S
C578 C579 1.400 . S
C579 C578 1.400 . S
C579 C580 1.398 . S
C579 C585 1.491 . S
C580 H571 0.950 . S
C580 C579 1.398 . S
C580 C581 1.391 . S
C581 H569 0.950 . S
C581 C577 1.393 . S
C581 C580 1.391 . S
C582 H572 0.950 . S
C582 C583 1.386 1_455 S
C582 C584 1.391 . S
C583 C582 1.386 1_655 S
C583 C587 1.393 . S
C584 H573 0.950 . S
C584 C582 1.391 . S
C584 C585 1.400 . S
C585 C579 1.491 . S
C585 C584 1.400 . S
C585 C586 1.398 . S
C586 H574 0.950 . S
C586 C585 1.398 . S
C586 C587 1.391 1_455 S
C587 H575 0.950 . S
C587 C583 1.393 . S
C587 C586 1.391 1_655 S
H588 C596 0.950 . S
H589 C601 0.950 . S
H590 C598 0.950 . S
H591 C600 0.950 . S
H592 C602 0.950 . S
H593 C604 0.950 . S
H594 C606 0.950 . S
H595 C607 0.950 . S
C596 H588 0.950 . S
C596 C597 1.386 . S
C596 C598 1.391 . S
C597 C596 1.386 . S
C597 C601 1.393 . S
C598 H590 0.950 . S
C598 C596 1.391 . S
C598 C599 1.400 . S
C599 C598 1.400 . S
C599 C600 1.398 . S
C599 C605 1.491 . S
C600 H591 0.950 . S
C600 C599 1.398 . S
C600 C601 1.391 . S
C601 H589 0.950 . S
C601 C597 1.393 . S
C601 C600 1.391 . S
C602 H592 0.950 . S
C602 C603 1.386 . S
C602 C604 1.391 . S
C603 C602 1.386 . S
C603 C607 1.393 . S
C604 H593 0.950 . S
C604 C602 1.391 . S
C604 C605 1.400 . S
C605 C599 1.491 . S
C605 C604 1.400 . S
C605 C606 1.398 . S
C606 H594 0.950 . S
C606 C605 1.398 . S
C606 C607 1.391 . S
C607 H595 0.950 . S
C607 C603 1.393 . S
C607 C606 1.391 . S
H608 C616 0.950 . S
H609 C621 0.950 . S
H610 C618 0.950 . S
H611 C620 0.950 . S
H612 C622 0.950 . S
H613 C624 0.950 . S
H614 C626 0.950 . S
H615 C627 0.950 . S
C616 H608 0.950 . S
C616 C617 1.386 . S
C616 C618 1.391 . S
C617 C616 1.386 . S
C617 C621 1.393 . S
C618 H610 0.950 . S
C618 C616 1.391 . S
C618 C619 1.400 . S
C619 C618 1.400 . S
C619 C620 1.398 . S
C619 C625 1.491 . S
C620 H611 0.950 . S
C620 C619 1.398 . S
C620 C621 1.391 . S
C621 H609 0.950 . S
C621 C617 1.393 . S
C621 C620 1.391 . S
C622 H612 0.950 . S
C622 C623 1.386 . S
C622 C624 1.391 . S
C623 C622 1.386 . S
C623 C627 1.393 . S
C624 H613 0.950 . S
C624 C622 1.391 . S
C624 C625 1.400 . S
C625 C619 1.491 . S
C625 C624 1.400 . S
C625 C626 1.398 . S
C626 H614 0.950 . S
C626 C625 1.398 . S
C626 C627 1.391 . S
C627 H615 0.950 . S
C627 C623 1.393 . S
C627 C626 1.391 . S
H628 C636 0.950 . S
H629 C641 0.950 . S
H630 C638 0.950 . S
H631 C640 0.950 . S
H632 C642 0.950 . S
H633 C644 0.950 . S
H634 C646 0.950 . S
H635 C647 0.950 . S
C636 H628 0.950 . S
C636 C637 1.386 . S
C636 C638 1.391 . S
C637 C636 1.386 . S
C637 C641 1.393 . S
C638 H630 0.950 . S
C638 C636 1.391 . S
C638 C639 1.400 . S
C639 C638 1.400 . S
C639 C640 1.398 . S
C639 C645 1.491 . S
C640 H631 0.950 . S
C640 C639 1.398 . S
C640 C641 1.391 . S
C641 H629 0.950 . S
C641 C637 1.393 . S
C641 C640 1.391 . S
C642 H632 0.950 . S
C642 C643 1.386 . S
C642 C644 1.391 . S
C643 C642 1.386 . S
C643 C647 1.393 . S
C644 H633 0.950 . S
C644 C642 1.391 . S
C644 C645 1.400 . S
C645 C639 1.491 . S
C645 C644 1.400 . S
C645 C646 1.398 . S
C646 H634 0.950 . S
C646 C645 1.398 . S
C646 C647 1.391 . S
C647 H635 0.950 . S
C647 C643 1.393 . S
C647 C646 1.391 . S
H648 C656 0.950 . S
H649 C661 0.950 . S
H650 C658 0.950 . S
H651 C660 0.950 . S
H652 C662 0.950 . S
H653 C664 0.950 . S
H654 C666 0.950 . S
H655 C667 0.950 . S
C656 H648 0.950 . S
C656 C657 1.386 . S
C656 C658 1.391 . S
C657 C656 1.386 . S
C657 C661 1.393 . S
C658 H650 0.950 . S
C658 C656 1.391 . S
C658 C659 1.400 . S
C659 C658 1.400 . S
C659 C660 1.398 . S
C659 C665 1.491 . S
C660 H651 0.950 . S
C660 C659 1.398 . S
C660 C661 1.391 . S
C661 H649 0.950 . S
C661 C657 1.393 . S
C661 C660 1.391 . S
C662 H652 0.950 . S
C662 C663 1.386 . S
C662 C664 1.391 . S
C663 C662 1.386 . S
C663 C667 1.393 . S
C664 H653 0.950 . S
C664 C662 1.391 . S
C664 C665 1.400 . S
C665 C659 1.491 . S
C665 C664 1.400 . S
C665 C666 1.398 . S
C666 H654 0.950 . S
C666 C665 1.398 . S
C666 C667 1.391 . S
C667 H655 0.950 . S
C667 C663 1.393 . S
C667 C666 1.391 . S
H668 C676 0.950 . S
H669 C681 0.950 . S
H670 C678 0.950 . S
H671 C680 0.950 . S
H672 C682 0.950 . S
H673 C684 0.950 . S
H674 C686 0.950 . S
H675 C687 0.950 . S
C676 H668 0.950 . S
C676 C677 1.386 . S
C676 C678 1.391 . S
C677 C676 1.386 . S
C677 C681 1.393 . S
C678 H670 0.950 . S
C678 C676 1.391 . S
C678 C679 1.400 . S
C679 C678 1.400 . S
C679 C680 1.398 . S
C679 C685 1.491 . S
C680 H671 0.950 . S
C680 C679 1.398 . S
C680 C681 1.391 . S
C681 H669 0.950 . S
C681 C677 1.393 . S
C681 C680 1.391 . S
C682 H672 0.950 . S
C682 C683 1.386 . S
C682 C684 1.391 . S
C683 C682 1.386 . S
C683 C687 1.393 . S
C684 H673 0.950 . S
C684 C682 1.391 . S
C684 C685 1.400 . S
C685 C679 1.491 . S
C685 C684 1.400 . S
C685 C686 1.398 . S
C686 H674 0.950 . S
C686 C685 1.398 . S
C686 C687 1.391 . S
C687 H675 0.950 . S
C687 C683 1.393 . S
C687 C686 1.391 . S
H688 C696 0.950 . S
H689 C701 0.950 . S
H690 C698 0.950 . S
H691 C700 0.950 . S
H692 C702 0.950 . S
H693 C704 0.950 . S
H694 C706 0.950 . S
H695 C707 0.950 . S
C696 H688 0.950 . S
C696 C697 1.386 . S
C696 C698 1.391 . S
C697 C696 1.386 . S
C697 C701 1.393 . S
C698 H690 0.950 . S
C698 C696 1.391 . S
C698 C699 1.400 . S
C699 C698 1.400 . S
C699 C700 1.398 . S
C699 C705 1.491 . S
C700 H691 0.950 . S
C700 C699 1.398 . S
C700 C701 1.391 . S
C701 H689 0.950 . S
C701 C697 1.393 . S
C701 C700 1.391 . S
C702 H692 0.950 . S
C702 C703 1.386 . S
C702 C704 1.391 1_455 S
C703 C702 1.386 . S
C703 C707 1.393 1_455 S
C704 H693 0.950 . S
C704 C702 1.391 1_655 S
C704 C705 1.400 . S
C705 C699 1.491 . S
C705 C704 1.400 . S
C705 C706 1.398 . S
C706 H694 0.950 . S
C706 C705 1.398 . S
C706 C707 1.391 . S
C707 H695 0.950 . S
C707 C703 1.393 1_655 S
C707 C706 1.391 . S
H708 C716 0.950 . S
H709 C721 0.950 . S
H710 C718 0.950 . S
H711 C720 0.950 . S
H712 C722 0.950 . S
H713 C724 0.950 . S
H714 C726 0.950 . S
H715 C727 0.950 . S
C716 H708 0.950 . S
C716 C717 1.386 . S
C716 C718 1.391 . S
C717 C716 1.386 . S
C717 C721 1.393 . S
C718 H710 0.950 . S
C718 C716 1.391 . S
C718 C719 1.400 . S
C719 C718 1.400 . S
C719 C720 1.398 . S
C719 C725 1.491 . S
C720 H711 0.950 . S
C720 C719 1.398 . S
C720 C721 1.391 . S
C721 H709 0.950 . S
C721 C717 1.393 . S
C721 C720 1.391 . S
C722 H712 0.950 . S
C722 C723 1.386 . S
C722 C724 1.391 . S
C723 C722 1.386 . S
C723 C727 1.393 . S
C724 H713 0.950 . S
C724 C722 1.391 . S
C724 C725 1.400 . S
C725 C719 1.491 . S
C725 C724 1.400 . S
C725 C726 1.398 . S
C726 H714 0.950 . S
C726 C725 1.398 . S
C726 C727 1.391 . S
C727 H715 0.950 . S
C727 C723 1.393 . S
C727 C726 1.391 . S
H728 C736 0.950 . S
H729 C741 0.950 . S
H730 C738 0.950 . S
H731 C740 0.950 . S
H732 C742 0.950 . S
H733 C744 0.950 . S
H734 C746 0.950 . S
H735 C747 0.950 . S
C736 H728 0.950 . S
C736 C737 1.386 . S
C736 C738 1.391 . S
C737 C736 1.386 . S
C737 C741 1.393 . S
C738 H730 0.950 . S
C738 C736 1.391 . S
C738 C739 1.400 . S
C739 C738 1.400 . S
C739 C740 1.398 . S
C739 C745 1.491 . S
C740 H731 0.950 . S
C740 C739 1.398 . S
C740 C741 1.391 . S
C741 H729 0.950 . S
C741 C737 1.393 . S
C741 C740 1.391 . S
C742 H732 0.950 . S
C742 C743 1.386 . S
C742 C744 1.391 . S
C743 C742 1.386 . S
C743 C747 1.393 . S
C744 H733 0.950 . S
C744 C742 1.391 . S
C744 C745 1.400 . S
C745 C739 1.491 . S
C745 C744 1.400 . S
C745 C746 1.398 . S
C746 H734 0.950 . S
C746 C745 1.398 . S
C746 C747 1.391 . S
C747 H735 0.950 . S
C747 C743 1.393 . S
C747 C746 1.391 . S
H748 C756 0.950 . S
H749 C761 0.950 . S
H750 C758 0.950 . S
H751 C760 0.950 . S
H752 C762 0.950 . S
H753 C764 0.950 . S
H754 C766 0.950 . S
H755 C767 0.950 1_556 S
C756 H748 0.950 . S
C756 C757 1.386 . S
C756 C758 1.391 . S
C757 C756 1.386 . S
C757 C761 1.393 . S
C758 H750 0.950 . S
C758 C756 1.391 . S
C758 C759 1.400 . S
C759 C758 1.400 . S
C759 C760 1.398 . S
C759 C765 1.491 . S
C760 H751 0.950 . S
C760 C759 1.398 . S
C760 C761 1.391 . S
C761 H749 0.950 . S
C761 C757 1.393 . S
C761 C760 1.391 . S
C762 H752 0.950 . S
C762 C763 1.386 . S
C762 C764 1.391 . S
C763 C762 1.386 . S
C763 C767 1.393 . S
C764 H753 0.950 . S
C764 C762 1.391 . S
C764 C765 1.400 . S
C765 C759 1.491 . S
C765 C764 1.400 . S
C765 C766 1.398 . S
C766 H754 0.950 . S
C766 C765 1.398 . S
C766 C767 1.391 . S
C767 H755 0.950 1_554 S
C767 C763 1.393 . S
C767 C766 1.391 . S
H768 C776 0.950 . S
H769 C781 0.950 . S
H770 C778 0.950 . S
H771 C780 0.950 . S
H772 C782 0.950 . S
H773 C784 0.950 . S
H774 C786 0.950 . S
H775 C787 0.950 . S
C776 H768 0.950 . S
C776 C777 1.386 . S
C776 C778 1.391 . S
C777 C776 1.386 . S
C777 C781 1.393 . S
C778 H770 0.950 . S
C778 C776 1.391 . S
C778 C779 1.400 . S
C779 C778 1.400 . S
C779 C780 1.398 . S
C779 C785 1.491 . S
C780 H771 0.950 . S
C780 C779 1.398 . S
C780 C781 1.391 . S
C781 H769 0.950 . S
C781 C777 1.393 . S
C781 C780 1.391 . S
C782 H772 0.950 . S
C782 C783 1.386 . S
C782 C784 1.391 . S
C783 C782 1.386 . S
C783 C787 1.393 . S
C784 H773 0.950 . S
C784 C782 1.391 . S
C784 C785 1.400 . S
C785 C779 1.491 . S
C785 C784 1.400 . S
C785 C786 1.398 . S
C786 H774 0.950 . S
C786 C785 1.398 . S
C786 C787 1.391 . S
C787 H775 0.950 . S
C787 C783 1.393 . S
C787 C786 1.391 . S
H788 C796 0.950 . S
H789 C801 0.950 . S
H790 C798 0.950 . S
H791 C800 0.950 . S
H792 C802 0.950 . S
H793 C804 0.950 . S
H794 C806 0.950 . S
H795 C807 0.950 . S
C796 H788 0.950 . S
C796 C797 1.386 . S
C796 C798 1.391 . S
C797 C796 1.386 . S
C797 C801 1.393 . S
C798 H790 0.950 . S
C798 C796 1.391 . S
C798 C799 1.400 . S
C799 C798 1.400 . S
C799 C800 1.398 . S
C799 C805 1.491 . S
C800 H791 0.950 . S
C800 C799 1.398 . S
C800 C801 1.391 . S
C801 H789 0.950 . S
C801 C797 1.393 . S
C801 C800 1.391 . S
C802 H792 0.950 . S
C802 C803 1.386 . S
C802 C804 1.391 . S
C803 C802 1.386 . S
C803 C807 1.393 . S
C804 H793 0.950 . S
C804 C802 1.391 . S
C804 C805 1.400 . S
C805 C799 1.491 . S
C805 C804 1.400 . S
C805 C806 1.398 . S
C806 H794 0.950 . S
C806 C805 1.398 . S
C806 C807 1.391 . S
C807 H795 0.950 . S
C807 C803 1.393 . S
C807 C806 1.391 . S
H808 C816 0.950 . S
H809 C821 0.950 . S
H810 C818 0.950 . S
H811 C820 0.950 . S
H812 C822 0.950 . S
H813 C824 0.950 . S
H814 C826 0.950 . S
H815 C827 0.950 . S
C816 H808 0.950 . S
C816 C817 1.386 . S
C816 C818 1.391 . S
C817 C816 1.386 . S
C817 C821 1.393 . S
C818 H810 0.950 . S
C818 C816 1.391 . S
C818 C819 1.400 . S
C819 C818 1.400 . S
C819 C820 1.398 . S
C819 C825 1.491 . S
C820 H811 0.950 . S
C820 C819 1.398 . S
C820 C821 1.391 . S
C821 H809 0.950 . S
C821 C817 1.393 . S
C821 C820 1.391 . S
C822 H812 0.950 . S
C822 C823 1.386 . S
C822 C824 1.391 . S
C823 C822 1.386 . S
C823 C827 1.393 . S
C824 H813 0.950 . S
C824 C822 1.391 . S
C824 C825 1.400 . S
C825 C819 1.491 . S
C825 C824 1.400 . S
C825 C826 1.398 . S
C826 H814 0.950 . S
C826 C825 1.398 . S
C826 C827 1.391 . S
C827 H815 0.950 . S
C827 C823 1.393 . S
C827 C826 1.391 . S
H828 C836 0.950 . S
H829 C841 0.950 . S
H830 C838 0.950 . S
H831 C840 0.950 . S
H832 C842 0.950 . S
H833 C844 0.950 . S
H834 C846 0.950 . S
H835 C847 0.950 . S
C836 H828 0.950 . S
C836 C837 1.386 . S
C836 C838 1.391 . S
C837 C836 1.386 . S
C837 C841 1.393 . S
C838 H830 0.950 . S
C838 C836 1.391 . S
C838 C839 1.400 . S
C839 C838 1.400 . S
C839 C840 1.398 . S
C839 C845 1.491 . S
C840 H831 0.950 . S
C840 C839 1.398 . S
C840 C841 1.391 . S
C841 H829 0.950 . S
C841 C837 1.393 . S
C841 C840 1.391 . S
C842 H832 0.950 . S
C842 C843 1.386 . S
C842 C844 1.391 . S
C843 C842 1.386 . S
C843 C847 1.393 . S
C844 H833 0.950 . S
C844 C842 1.391 . S
C844 C845 1.400 . S
C845 C839 1.491 . S
C845 C844 1.400 . S
C845 C846 1.398 . S
C846 H834 0.950 . S
C846 C845 1.398 . S
C846 C847 1.391 . S
C847 H835 0.950 . S
C847 C843 1.393 . S
C847 C846 1.391 . S
H848 C856 0.950 . S
H849 C861 0.950 . S
H850 C858 0.950 . S
H851 C860 0.950 . S
H852 C862 0.950 . S
H853 C864 0.950 . S
H854 C866 0.950 . S
H855 C867 0.950 . S
C856 H848 0.950 . S
C856 C857 1.386 . S
C856 C858 1.391 . S
C857 C856 1.386 . S
C857 C861 1.393 . S
C858 H850 0.950 . S
C858 C856 1.391 . S
C858 C859 1.400 . S
C859 C858 1.400 . S
C859 C860 1.398 . S
C859 C865 1.491 . S
C860 H851 0.950 . S
C860 C859 1.398 . S
C860 C861 1.391 . S
C861 H849 0.950 . S
C861 C857 1.393 . S
C861 C860 1.391 . S
C862 H852 0.950 . S
C862 C863 1.386 . S
C862 C864 1.391 . S
C863 C862 1.386 . S
C863 C867 1.393 . S
C864 H853 0.950 . S
C864 C862 1.391 . S
C864 C865 1.400 . S
C865 C859 1.491 . S
C865 C864 1.400 . S
C865 C866 1.398 . S
C866 H854 0.950 . S
C866 C865 1.398 . S
C866 C867 1.391 . S
C867 H855 0.950 . S
C867 C863 1.393 . S
C867 C866 1.391 . S
H868 C876 0.950 . S
H869 C881 0.950 . S
H870 C878 0.950 . S
H871 C880 0.950 . S
H872 C882 0.950 . S
H873 C884 0.950 . S
H874 C886 0.950 . S
H875 C887 0.950 . S
C876 H868 0.950 . S
C876 C877 1.386 . S
C876 C878 1.391 . S
C877 C876 1.386 . S
C877 C881 1.393 . S
C878 H870 0.950 . S
C878 C876 1.391 . S
C878 C879 1.400 . S
C879 C878 1.400 . S
C879 C880 1.398 . S
C879 C885 1.491 . S
C880 H871 0.950 . S
C880 C879 1.398 . S
C880 C881 1.391 . S
C881 H869 0.950 . S
C881 C877 1.393 . S
C881 C880 1.391 . S
C882 H872 0.950 . S
C882 C883 1.386 . S
C882 C884 1.391 . S
C883 C882 1.386 . S
C883 C887 1.393 . S
C884 H873 0.950 . S
C884 C882 1.391 . S
C884 C885 1.400 . S
C885 C879 1.491 . S
C885 C884 1.400 . S
C885 C886 1.398 . S
C886 H874 0.950 . S
C886 C885 1.398 . S
C886 C887 1.391 . S
C887 H875 0.950 . S
C887 C883 1.393 . S
C887 C886 1.391 . S
H888 C896 0.950 . S
H889 C901 0.950 . S
H890 C898 0.950 . S
H891 C900 0.950 . S
H892 C902 0.950 . S
H893 C904 0.950 . S
H894 C906 0.950 . S
H895 C907 0.950 . S
C896 H888 0.950 . S
C896 C897 1.386 . S
C896 C898 1.391 . S
C897 C896 1.386 . S
C897 C901 1.393 . S
C898 H890 0.950 . S
C898 C896 1.391 . S
C898 C899 1.400 . S
C899 C898 1.400 . S
C899 C900 1.398 . S
C899 C905 1.491 . S
C900 H891 0.950 . S
C900 C899 1.398 . S
C900 C901 1.391 . S
C901 H889 0.950 . S
C901 C897 1.393 . S
C901 C900 1.391 . S
C902 H892 0.950 . S
C902 C903 1.386 . S
C902 C904 1.391 . S
C903 C902 1.386 . S
C903 C907 1.393 . S
C904 H893 0.950 . S
C904 C902 1.391 . S
C904 C905 1.400 . S
C905 C899 1.491 . S
C905 C904 1.400 . S
C905 C906 1.398 . S
C906 H894 0.950 . S
C906 C905 1.398 . S
C906 C907 1.391 . S
C907 H895 0.950 . S
C907 C903 1.393 . S
C907 C906 1.391 . S
H908 C916 0.950 . S
H909 C921 0.950 . S
H910 C918 0.950 . S
H911 C920 0.950 . S
H912 C922 0.950 . S
H913 C924 0.950 1_556 S
H914 C926 0.950 1_655 S
H915 C927 0.950 . S
C916 H908 0.950 . S
C916 C917 1.386 . S
C916 C918 1.391 . S
C917 C916 1.386 . S
C917 C921 1.393 1_655 S
C918 H910 0.950 . S
C918 C916 1.391 . S
C918 C919 1.400 1_655 S
C919 C918 1.400 1_455 S
C919 C920 1.398 . S
C919 C925 1.491 1_556 S
C920 H911 0.950 . S
C920 C919 1.398 . S
C920 C921 1.391 . S
C921 H909 0.950 . S
C921 C917 1.393 1_455 S
C921 C920 1.391 . S
C922 H912 0.950 . S
C922 C923 1.386 . S
C922 C924 1.391 . S
C923 C922 1.386 . S
C923 C927 1.393 . S
C924 H913 0.950 1_554 S
C924 C922 1.391 . S
C924 C925 1.400 . S
C925 C919 1.491 1_554 S
C925 C924 1.400 . S
C925 C926 1.398 . S
C926 H914 0.950 1_455 S
C926 C925 1.398 . S
C926 C927 1.391 . S
C927 H915 0.950 . S
C927 C923 1.393 . S
C927 C926 1.391 . S
H928 C936 0.950 . S
H929 C941 0.950 . S
H930 C938 0.950 . S
H931 C940 0.950 . S
H932 C942 0.950 . S
H933 C944 0.950 . S
H934 C946 0.950 . S
H935 C947 0.950 . S
C936 H928 0.950 . S
C936 C937 1.386 . S
C936 C938 1.391 . S
C937 C936 1.386 . S
C937 C941 1.393 . S
C938 H930 0.950 . S
C938 C936 1.391 . S
C938 C939 1.400 . S
C939 C938 1.400 . S
C939 C940 1.398 . S
C939 C945 1.491 . S
C940 H931 0.950 . S
C940 C939 1.398 . S
C940 C941 1.391 . S
C941 H929 0.950 . S
C941 C937 1.393 . S
C941 C940 1.391 . S
C942 H932 0.950 . S
C942 C943 1.386 . S
C942 C944 1.391 . S
C943 C942 1.386 . S
C943 C947 1.393 . S
C944 H933 0.950 . S
C944 C942 1.391 . S
C944 C945 1.400 . S
C945 C939 1.491 . S
C945 C944 1.400 . S
C945 C946 1.398 . S
C946 H934 0.950 . S
C946 C945 1.398 . S
C946 C947 1.391 . S
C947 H935 0.950 . S
C947 C943 1.393 . S
C947 C946 1.391 . S
H948 C956 0.950 . S
H949 C961 0.950 . S
H950 C958 0.950 . S
H951 C960 0.950 . S
H952 C962 0.950 . S
H953 C964 0.950 . S
H954 C966 0.950 . S
H955 C967 0.950 . S
C956 H948 0.950 . S
C956 C957 1.386 . S
C956 C958 1.391 . S
C957 C956 1.386 . S
C957 C961 1.393 . S
C958 H950 0.950 . S
C958 C956 1.391 . S
C958 C959 1.400 . S
C959 C958 1.400 . S
C959 C960 1.398 . S
C959 C965 1.491 . S
C960 H951 0.950 . S
C960 C959 1.398 . S
C960 C961 1.391 . S
C961 H949 0.950 . S
C961 C957 1.393 . S
C961 C960 1.391 . S
C962 H952 0.950 . S
C962 C963 1.386 . S
C962 C964 1.391 . S
C963 C962 1.386 . S
C963 C967 1.393 . S
C964 H953 0.950 . S
C964 C962 1.391 . S
C964 C965 1.400 . S
C965 C959 1.491 . S
C965 C964 1.400 . S
C965 C966 1.398 . S
C966 H954 0.950 . S
C966 C965 1.398 . S
C966 C967 1.391 . S
C967 H955 0.950 . S
C967 C963 1.393 . S
C967 C966 1.391 . S
H968 C976 0.950 . S
H969 C981 0.950 . S
H970 C978 0.950 . S
H971 C980 0.950 1_455 S
H972 C982 0.950 . S
H973 C984 0.950 1_565 S
H974 C986 0.950 . S
H975 C987 0.950 . S
C976 H968 0.950 . S
C976 C977 1.386 1_545 S
C976 C978 1.391 . S
C977 C976 1.386 1_565 S
C977 C981 1.393 . S
C978 H970 0.950 . S
C978 C976 1.391 . S
C978 C979 1.400 . S
C979 C978 1.400 . S
C979 C980 1.398 1_545 S
C979 C985 1.491 1_554 S
C980 H971 0.950 1_655 S
C980 C979 1.398 1_565 S
C980 C981 1.391 . S
C981 H969 0.950 . S
C981 C977 1.393 . S
C981 C980 1.391 . S
C982 H972 0.950 . S
C982 C983 1.386 . S
C982 C984 1.391 . S
C983 C982 1.386 . S
C983 C987 1.393 1_455 S
C984 H973 0.950 1_545 S
C984 C982 1.391 . S
C984 C985 1.400 1_455 S
C985 C979 1.491 1_556 S
C985 C984 1.400 1_655 S
C985 C986 1.398 . S
C986 H974 0.950 . S
C986 C985 1.398 . S
C986 C987 1.391 . S
C987 H975 0.950 . S
C987 C983 1.393 1_655 S
C987 C986 1.391 . S
H988 C996 0.950 . S
H989 C1001 0.950 1_545 S
H990 C998 0.950 . S
H991 C1000 0.950 . S
H992 C1002 0.950 . S
H993 C1004 0.950 . S
H994 C1006 0.950 . S
H995 C1007 0.950 . S
C996 H988 0.950 . S
C996 C997 1.386 . S
C996 C998 1.391 . S
C997 C996 1.386 . S
C997 C1001 1.393 . S
C998 H990 0.950 . S
C998 C996 1.391 . S
C998 C999 1.400 . S
C999 C998 1.400 . S
C999 C1000 1.398 1_565 S
C999 C1005 1.491 . S
C1000 H991 0.950 . S
C1000 C999 1.398 1_545 S
C1000 C1001 1.391 1_545 S
C1001 H989 0.950 1_565 S
C1001 C997 1.393 . S
C1001 C1000 1.391 1_565 S
C1002 H992 0.950 . S
C1002 C1003 1.386 . S
C1002 C1004 1.391 . S
C1003 C1002 1.386 . S
C1003 C1007 1.393 1_545 S
C1004 H993 0.950 . S
C1004 C1002 1.391 . S
C1004 C1005 1.400 1_545 S
C1005 C999 1.491 . S
C1005 C1004 1.400 1_565 S
C1005 C1006 1.398 . S
C1006 H994 0.950 . S
C1006 C1005 1.398 . S
C1006 C1007 1.391 . S
C1007 H995 0.950 . S
C1007 C1003 1.393 1_565 S
C1007 C1006 1.391 . S
H1008 C1016 0.950 . S
H1009 C1021 0.950 . S
H1010 C1018 0.950 . S
H1011 C1020 0.950 . S
H1012 C1022 0.950 . S
H1013 C1024 0.950 . S
H1014 C1026 0.950 . S
H1015 C1027 0.950 . S
C1016 H1008 0.950 . S
C1016 C1017 1.386 . S
C1016 C1018 1.391 . S
C1017 C1016 1.386 . S
C1017 C1021 1.393 . S
C1018 H1010 0.950 . S
C1018 C1016 1.391 . S
C1018 C1019 1.400 . S
C1019 C1018 1.400 . S
C1019 C1020 1.398 . S
C1019 C1025 1.491 . S
C1020 H1011 0.950 . S
C1020 C1019 1.398 . S
C1020 C1021 1.391 . S
C1021 H1009 0.950 . S
C1021 C1017 1.393 . S
C1021 C1020 1.391 . S
C1022 H1012 0.950 . S
C1022 C1023 1.386 . S
C1022 C1024 1.391 . S
C1023 C1022 1.386 . S
C1023 C1027 1.393 . S
C1024 H1013 0.950 . S
C1024 C1022 1.391 . S
C1024 C1025 1.400 . S
C1025 C1019 1.491 . S
C1025 C1024 1.400 . S
C1025 C1026 1.398 . S
C1026 H1014 0.950 . S
C1026 C1025 1.398 . S
C1026 C1027 1.391 . S
C1027 H1015 0.950 . S
C1027 C1023 1.393 . S
C1027 C1026 1.391 . S
H1028 C1036 0.950 . S
H1029 C1041 0.950 . S
H1030 C1038 0.950 . S
H1031 C1040 0.950 . S
H1032 C1042 0.950 . S
H1033 C1044 0.950 . S
H1034 C1046 0.950 . S
H1035 C1047 0.950 . S
C1036 H1028 0.950 . S
C1036 C1037 1.386 . S
C1036 C1038 1.391 . S
C1037 C1036 1.386 . S
C1037 C1041 1.393 . S
C1038 H1030 0.950 . S
C1038 C1036 1.391 . S
C1038 C1039 1.400 . S
C1039 C1038 1.400 . S
C1039 C1040 1.398 . S
C1039 C1045 1.491 . S
C1040 H1031 0.950 . S
C1040 C1039 1.398 . S
C1040 C1041 1.391 . S
C1041 H1029 0.950 . S
C1041 C1037 1.393 . S
C1041 C1040 1.391 . S
C1042 H1032 0.950 . S
C1042 C1043 1.386 . S
C1042 C1044 1.391 . S
C1043 C1042 1.386 . S
C1043 C1047 1.393 . S
C1044 H1033 0.950 . S
C1044 C1042 1.391 . S
C1044 C1045 1.400 . S
C1045 C1039 1.491 . S
C1045 C1044 1.400 . S
C1045 C1046 1.398 . S
C1046 H1034 0.950 . S
C1046 C1045 1.398 . S
C1046 C1047 1.391 . S
C1047 H1035 0.950 . S
C1047 C1043 1.393 . S
C1047 C1046 1.391 . S
H1048 C1056 0.950 . S
H1049 C1061 0.950 . S
H1050 C1058 0.950 . S
H1051 C1060 0.950 . S
H1052 C1062 0.950 . S
H1053 C1064 0.950 . S
H1054 C1066 0.950 . S
H1055 C1067 0.950 . S
C1056 H1048 0.950 . S
C1056 C1057 1.386 . S
C1056 C1058 1.391 . S
C1057 C1056 1.386 . S
C1057 C1061 1.393 . S
C1058 H1050 0.950 . S
C1058 C1056 1.391 . S
C1058 C1059 1.400 . S
C1059 C1058 1.400 . S
C1059 C1060 1.398 . S
C1059 C1065 1.491 . S
C1060 H1051 0.950 . S
C1060 C1059 1.398 . S
C1060 C1061 1.391 . S
C1061 H1049 0.950 . S
C1061 C1057 1.393 . S
C1061 C1060 1.391 . S
C1062 H1052 0.950 . S
C1062 C1063 1.386 . S
C1062 C1064 1.391 . S
C1063 C1062 1.386 . S
C1063 C1067 1.393 . S
C1064 H1053 0.950 . S
C1064 C1062 1.391 . S
C1064 C1065 1.400 . S
C1065 C1059 1.491 . S
C1065 C1064 1.400 . S
C1065 C1066 1.398 . S
C1066 H1054 0.950 . S
C1066 C1065 1.398 . S
C1066 C1067 1.391 . S
C1067 H1055 0.950 . S
C1067 C1063 1.393 . S
C1067 C1066 1.391 . S
H1068 C1076 0.950 . S
H1069 C1081 0.950 . S
H1070 C1078 0.950 . S
H1071 C1080 0.950 . S
H1072 C1082 0.950 . S
H1073 C1084 0.950 . S
H1074 C1086 0.950 . S
H1075 C1087 0.950 . S
C1076 H1068 0.950 . S
C1076 C1077 1.386 . S
C1076 C1078 1.391 . S
C1077 C1076 1.386 . S
C1077 C1081 1.393 . S
C1078 H1070 0.950 . S
C1078 C1076 1.391 . S
C1078 C1079 1.400 . S
C1079 C1078 1.400 . S
C1079 C1080 1.398 . S
C1079 C1085 1.491 . S
C1080 H1071 0.950 . S
C1080 C1079 1.398 . S
C1080 C1081 1.391 . S
C1081 H1069 0.950 . S
C1081 C1077 1.393 . S
C1081 C1080 1.391 . S
C1082 H1072 0.950 . S
C1082 C1083 1.386 . S
C1082 C1084 1.391 . S
C1083 C1082 1.386 . S
C1083 C1087 1.393 . S
C1084 H1073 0.950 . S
C1084 C1082 1.391 . S
C1084 C1085 1.400 . S
C1085 C1079 1.491 . S
C1085 C1084 1.400 . S
C1085 C1086 1.398 . S
C1086 H1074 0.950 . S
C1086 C1085 1.398 . S
C1086 C1087 1.391 . S
C1087 H1075 0.950 . S
C1087 C1083 1.393 . S
C1087 C1086 1.391 . S
H1088 C1096 0.950 . S
H1089 C1101 0.950 . S
H1090 C1098 0.950 . S
H1091 C1100 0.950 . S
H1092 C1102 0.950 . S
H1093 C1104 0.950 . S
H1094 C1106 0.950 . S
H1095 C1107 0.950 . S
C1096 H1088 0.950 . S
C1096 C1097 1.386 . S
C1096 C1098 1.391 . S
C1097 C1096 1.386 . S
C1097 C1101 1.393 . S
C1098 H1090 0.950 . S
C1098 C1096 1.391 . S
C1098 C1099 1.400 . S
C1099 C1098 1.400 . S
C1099 C1100 1.398 . S
C1099 C1105 1.491 . S
C1100 H1091 0.950 . S
C1100 C1099 1.398 . S
C1100 C1101 1.391 . S
C1101 H1089 0.950 . S
C1101 C1097 1.393 . S
C1101 C1100 1.391 . S
C1102 H1092 0.950 . S
C1102 C1103 1.386 . S
C1102 C1104 1.391 . S
C1103 C1102 1.386 . S
C1103 C1107 1.393 . S
C1104 H1093 0.950 . S
C1104 C1102 1.391 . S
C1104 C1105 1.400 . S
C1105 C1099 1.491 . S
C1105 C1104 1.400 . S
C1105 C1106 1.398 . S
C1106 H1094 0.950 . S
C1106 C1105 1.398 . S
C1106 C1107 1.391 . S
C1107 H1095 0.950 . S
C1107 C1103 1.393 . S
C1107 C1106 1.391 . S
H1108 C1116 0.950 . S
H1109 C1121 0.950 . S
H1110 C1118 0.950 . S
H1111 C1120 0.950 . S
H1112 C1122 0.950 . S
H1113 C1124 0.950 . S
H1114 C1126 0.950 . S
H1115 C1127 0.950 . S
C1116 H1108 0.950 . S
C1116 C1117 1.386 . S
C1116 C1118 1.391 . S
C1117 C1116 1.386 . S
C1117 C1121 1.393 . S
C1118 H1110 0.950 . S
C1118 C1116 1.391 . S
C1118 C1119 1.400 . S
C1119 C1118 1.400 . S
C1119 C1120 1.398 . S
C1119 C1125 1.491 . S
C1120 H1111 0.950 . S
C1120 C1119 1.398 . S
C1120 C1121 1.391 . S
C1121 H1109 0.950 . S
C1121 C1117 1.393 . S
C1121 C1120 1.391 . S
C1122 H1112 0.950 . S
C1122 C1123 1.386 . S
C1122 C1124 1.391 . S
C1123 C1122 1.386 . S
C1123 C1127 1.393 . S
C1124 H1113 0.950 . S
C1124 C1122 1.391 . S
C1124 C1125 1.400 . S
C1125 C1119 1.491 . S
C1125 C1124 1.400 . S
C1125 C1126 1.398 . S
C1126 H1114 0.950 . S
C1126 C1125 1.398 . S
C1126 C1127 1.391 . S
C1127 H1115 0.950 . S
C1127 C1123 1.393 . S
C1127 C1126 1.391 . S
H1128 C1136 0.950 . S
H1129 C1141 0.950 . S
H1130 C1138 0.950 . S
H1131 C1140 0.950 . S
H1132 C1142 0.950 . S
H1133 C1144 0.950 . S
H1134 C1146 0.950 . S
H1135 C1147 0.950 . S
C1136 H1128 0.950 . S
C1136 C1137 1.386 . S
C1136 C1138 1.391 . S
C1137 C1136 1.386 . S
C1137 C1141 1.393 . S
C1138 H1130 0.950 . S
C1138 C1136 1.391 . S
C1138 C1139 1.400 . S
C1139 C1138 1.400 . S
C1139 C1140 1.398 . S
C1139 C1145 1.491 . S
C1140 H1131 0.950 . S
C1140 C1139 1.398 . S
C1140 C1141 1.391 . S
C1141 H1129 0.950 . S
C1141 C1137 1.393 . S
C1141 C1140 1.391 . S
C1142 H1132 0.950 . S
C1142 C1143 1.386 . S
C1142 C1144 1.391 . S
C1143 C1142 1.386 . S
C1143 C1147 1.393 . S
C1144 H1133 0.950 . S
C1144 C1142 1.391 . S
C1144 C1145 1.400 . S
C1145 C1139 1.491 . S
C1145 C1144 1.400 . S
C1145 C1146 1.398 . S
C1146 H1134 0.950 . S
C1146 C1145 1.398 . S
C1146 C1147 1.391 . S
C1147 H1135 0.950 . S
C1147 C1143 1.393 . S
C1147 C1146 1.391 . S
H1148 C1156 0.950 . S
H1149 C1161 0.950 . S
H1150 C1158 0.950 . S
H1151 C1160 0.950 . S
H1152 C1162 0.950 . S
H1153 C1164 0.950 . S
H1154 C1166 0.950 . S
H1155 C1167 0.950 . S
C1156 H1148 0.950 . S
C1156 C1157 1.386 . S
C1156 C1158 1.391 . S
C1157 C1156 1.386 . S
C1157 C1161 1.393 . S
C1158 H1150 0.950 . S
C1158 C1156 1.391 . S
C1158 C1159 1.400 . S
C1159 C1158 1.400 . S
C1159 C1160 1.398 . S
C1159 C1165 1.491 . S
C1160 H1151 0.950 . S
C1160 C1159 1.398 . S
C1160 C1161 1.391 . S
C1161 H1149 0.950 . S
C1161 C1157 1.393 . S
C1161 C1160 1.391 . S
C1162 H1152 0.950 . S
C1162 C1163 1.386 . S
C1162 C1164 1.391 . S
C1163 C1162 1.386 . S
C1163 C1167 1.393 . S
C1164 H1153 0.950 . S
C1164 C1162 1.391 . S
C1164 C1165 1.400 . S
C1165 C1159 1.491 . S
C1165 C1164 1.400 . S
C1165 C1166 1.398 . S
C1166 H1154 0.950 . S
C1166 C1165 1.398 . S
C1166 C1167 1.391 . S
C1167 H1155 0.950 . S
C1167 C1163 1.393 . S
C1167 C1166 1.391 . S
H1168 C1176 0.950 . S
H1169 C1181 0.950 . S
H1170 C1178 0.950 . S
H1171 C1180 0.950 . S
H1172 C1182 0.950 . S
H1173 C1184 0.950 . S
H1174 C1186 0.950 . S
H1175 C1187 0.950 . S
C1176 H1168 0.950 . S
C1176 C1177 1.386 . S
C1176 C1178 1.391 . S
C1177 C1176 1.386 . S
C1177 C1181 1.393 . S
C1178 H1170 0.950 . S
C1178 C1176 1.391 . S
C1178 C1179 1.400 . S
C1179 C1178 1.400 . S
C1179 C1180 1.398 . S
C1179 C1185 1.491 . S
C1180 H1171 0.950 . S
C1180 C1179 1.398 . S
C1180 C1181 1.391 . S
C1181 H1169 0.950 . S
C1181 C1177 1.393 . S
C1181 C1180 1.391 . S
C1182 H1172 0.950 . S
C1182 C1183 1.386 . S
C1182 C1184 1.391 . S
C1183 C1182 1.386 . S
C1183 C1187 1.393 . S
C1184 H1173 0.950 . S
C1184 C1182 1.391 . S
C1184 C1185 1.400 . S
C1185 C1179 1.491 . S
C1185 C1184 1.400 . S
C1185 C1186 1.398 . S
C1186 H1174 0.950 . S
C1186 C1185 1.398 . S
C1186 C1187 1.391 . S
C1187 H1175 0.950 . S
C1187 C1183 1.393 . S
C1187 C1186 1.391 . S
H1188 C1196 0.950 . S
H1189 C1201 0.950 . S
H1190 C1198 0.950 . S
H1191 C1200 0.950 . S
H1192 C1202 0.950 . S
H1193 C1204 0.950 . S
H1194 C1206 0.950 . S
H1195 C1207 0.950 . S
C1196 H1188 0.950 . S
C1196 C1197 1.386 . S
C1196 C1198 1.391 . S
C1197 C1196 1.386 . S
C1197 C1201 1.393 . S
C1198 H1190 0.950 . S
C1198 C1196 1.391 . S
C1198 C1199 1.400 . S
C1199 C1198 1.400 . S
C1199 C1200 1.398 . S
C1199 C1205 1.491 . S
C1200 H1191 0.950 . S
C1200 C1199 1.398 . S
C1200 C1201 1.391 . S
C1201 H1189 0.950 . S
C1201 C1197 1.393 . S
C1201 C1200 1.391 . S
C1202 H1192 0.950 . S
C1202 C1203 1.386 . S
C1202 C1204 1.391 . S
C1203 C1202 1.386 . S
C1203 C1207 1.393 . S
C1204 H1193 0.950 . S
C1204 C1202 1.391 . S
C1204 C1205 1.400 . S
C1205 C1199 1.491 . S
C1205 C1204 1.400 . S
C1205 C1206 1.398 . S
C1206 H1194 0.950 . S
C1206 C1205 1.398 . S
C1206 C1207 1.391 . S
C1207 H1195 0.950 . S
C1207 C1203 1.393 . S
C1207 C1206 1.391 . S
H1208 C1216 0.950 . S
H1209 C1221 0.950 . S
H1210 C1218 0.950 . S
H1211 C1220 0.950 . S
H1212 C1222 0.950 . S
H1213 C1224 0.950 . S
H1214 C1226 0.950 . S
H1215 C1227 0.950 . S
C1216 H1208 0.950 . S
C1216 C1217 1.386 . S
C1216 C1218 1.391 . S
C1217 C1216 1.386 . S
C1217 C1221 1.393 . S
C1218 H1210 0.950 . S
C1218 C1216 1.391 . S
C1218 C1219 1.400 . S
C1219 C1218 1.400 . S
C1219 C1220 1.398 . S
C1219 C1225 1.491 . S
C1220 H1211 0.950 . S
C1220 C1219 1.398 . S
C1220 C1221 1.391 . S
C1221 H1209 0.950 . S
C1221 C1217 1.393 . S
C1221 C1220 1.391 . S
C1222 H1212 0.950 . S
C1222 C1223 1.386 . S
C1222 C1224 1.391 . S
C1223 C1222 1.386 . S
C1223 C1227 1.393 . S
C1224 H1213 0.950 . S
C1224 C1222 1.391 . S
C1224 C1225 1.400 . S
C1225 C1219 1.491 . S
C1225 C1224 1.400 . S
C1225 C1226 1.398 . S
C1226 H1214 0.950 . S
C1226 C1225 1.398 . S
C1226 C1227 1.391 . S
C1227 H1215 0.950 . S
C1227 C1223 1.393 . S
C1227 C1226 1.391 . S
H1228 C1236 0.950 . S
H1229 C1241 0.950 . S
H1230 C1238 0.950 . S
H1231 C1240 0.950 . S
H1232 C1242 0.950 . S
H1233 C1244 0.950 . S
H1234 C1246 0.950 . S
H1235 C1247 0.950 . S
C1236 H1228 0.950 . S
C1236 C1237 1.386 . S
C1236 C1238 1.391 . S
C1237 C1236 1.386 . S
C1237 C1241 1.393 . S
C1238 H1230 0.950 . S
C1238 C1236 1.391 . S
C1238 C1239 1.400 . S
C1239 C1238 1.400 . S
C1239 C1240 1.398 . S
C1239 C1245 1.491 . S
C1240 H1231 0.950 . S
C1240 C1239 1.398 . S
C1240 C1241 1.391 . S
C1241 H1229 0.950 . S
C1241 C1237 1.393 . S
C1241 C1240 1.391 . S
C1242 H1232 0.950 . S
C1242 C1243 1.386 . S
C1242 C1244 1.391 . S
C1243 C1242 1.386 . S
C1243 C1247 1.393 . S
C1244 H1233 0.950 . S
C1244 C1242 1.391 . S
C1244 C1245 1.400 . S
C1245 C1239 1.491 . S
C1245 C1244 1.400 . S
C1245 C1246 1.398 . S
C1246 H1234 0.950 . S
C1246 C1245 1.398 . S
C1246 C1247 1.391 . S
C1247 H1235 0.950 . S
C1247 C1243 1.393 . S
C1247 C1246 1.391 . S
H1248 C1256 0.950 . S
H1249 C1261 0.950 . S
H1250 C1258 0.950 . S
H1251 C1260 0.950 . S
H1252 C1262 0.950 . S
H1253 C1264 0.950 . S
H1254 C1266 0.950 . S
H1255 C1267 0.950 . S
C1256 H1248 0.950 . S
C1256 C1257 1.386 . S
C1256 C1258 1.391 . S
C1257 C1256 1.386 . S
C1257 C1261 1.393 . S
C1258 H1250 0.950 . S
C1258 C1256 1.391 . S
C1258 C1259 1.400 . S
C1259 C1258 1.400 . S
C1259 C1260 1.398 . S
C1259 C1265 1.491 . S
C1260 H1251 0.950 . S
C1260 C1259 1.398 . S
C1260 C1261 1.391 . S
C1261 H1249 0.950 . S
C1261 C1257 1.393 . S
C1261 C1260 1.391 . S
C1262 H1252 0.950 . S
C1262 C1263 1.386 . S
C1262 C1264 1.391 . S
C1263 C1262 1.386 . S
C1263 C1267 1.393 . S
C1264 H1253 0.950 . S
C1264 C1262 1.391 . S
C1264 C1265 1.400 . S
C1265 C1259 1.491 . S
C1265 C1264 1.400 . S
C1265 C1266 1.398 . S
C1266 H1254 0.950 . S
C1266 C1265 1.398 . S
C1266 C1267 1.391 . S
C1267 H1255 0.950 . S
C1267 C1263 1.393 . S
C1267 C1266 1.391 . S
H1268 C1276 0.950 . S
H1269 C1281 0.950 . S
H1270 C1278 0.950 . S
H1271 C1280 0.950 . S
H1272 C1282 0.950 . S
H1273 C1284 0.950 . S
H1274 C1286 0.950 . S
H1275 C1287 0.950 . S
C1276 H1268 0.950 . S
C1276 C1277 1.386 . S
C1276 C1278 1.391 . S
C1277 C1276 1.386 . S
C1277 C1281 1.393 . S
C1278 H1270 0.950 . S
C1278 C1276 1.391 . S
C1278 C1279 1.400 . S
C1279 C1278 1.400 . S
C1279 C1280 1.398 . S
C1279 C1285 1.491 . S
C1280 H1271 0.950 . S
C1280 C1279 1.398 . S
C1280 C1281 1.391 . S
C1281 H1269 0.950 . S
C1281 C1277 1.393 . S
C1281 C1280 1.391 . S
C1282 H1272 0.950 . S
C1282 C1283 1.386 . S
C1282 C1284 1.391 . S
C1283 C1282 1.386 . S
C1283 C1287 1.393 . S
C1284 H1273 0.950 . S
C1284 C1282 1.391 . S
C1284 C1285 1.400 . S
C1285 C1279 1.491 . S
C1285 C1284 1.400 . S
C1285 C1286 1.398 . S
C1286 H1274 0.950 . S
C1286 C1285 1.398 . S
C1286 C1287 1.391 . S
C1287 H1275 0.950 . S
C1287 C1283 1.393 . S
C1287 C1286 1.391 . S
H1288 C1296 0.950 . S
H1289 C1301 0.950 . S
H1290 C1298 0.950 . S
H1291 C1300 0.950 . S
H1292 C1302 0.950 . S
H1293 C1304 0.950 . S
H1294 C1306 0.950 . S
H1295 C1307 0.950 . S
C1296 H1288 0.950 . S
C1296 C1297 1.386 . S
C1296 C1298 1.391 . S
C1297 C1296 1.386 . S
C1297 C1301 1.393 . S
C1298 H1290 0.950 . S
C1298 C1296 1.391 . S
C1298 C1299 1.400 . S
C1299 C1298 1.400 . S
C1299 C1300 1.398 . S
C1299 C1305 1.491 . S
C1300 H1291 0.950 . S
C1300 C1299 1.398 . S
C1300 C1301 1.391 . S
C1301 H1289 0.950 . S
C1301 C1297 1.393 . S
C1301 C1300 1.391 . S
C1302 H1292 0.950 . S
C1302 C1303 1.386 . S
C1302 C1304 1.391 . S
C1303 C1302 1.386 . S
C1303 C1307 1.393 . S
C1304 H1293 0.950 . S
C1304 C1302 1.391 . S
C1304 C1305 1.400 . S
C1305 C1299 1.491 . S
C1305 C1304 1.400 . S
C1305 C1306 1.398 . S
C1306 H1294 0.950 . S
C1306 C1305 1.398 . S
C1306 C1307 1.391 . S
C1307 H1295 0.950 . S
C1307 C1303 1.393 . S
C1307 C1306 1.391 . S
H1308 C1316 0.950 . S
H1309 C1321 0.950 . S
H1310 C1318 0.950 . S
H1311 C1320 0.950 . S
H1312 C1322 0.950 . S
H1313 C1324 0.950 . S
H1314 C1326 0.950 . S
H1315 C1327 0.950 . S
C1316 H1308 0.950 . S
C1316 C1317 1.386 . S
C1316 C1318 1.391 . S
C1317 C1316 1.386 . S
C1317 C1321 1.393 . S
C1318 H1310 0.950 . S
C1318 C1316 1.391 . S
C1318 C1319 1.400 . S
C1319 C1318 1.400 . S
C1319 C1320 1.398 . S
C1319 C1325 1.491 . S
C1320 H1311 0.950 . S
C1320 C1319 1.398 . S
C1320 C1321 1.391 . S
C1321 H1309 0.950 . S
C1321 C1317 1.393 . S
C1321 C1320 1.391 . S
C1322 H1312 0.950 . S
C1322 C1323 1.386 . S
C1322 C1324 1.391 . S
C1323 C1322 1.386 . S
C1323 C1327 1.393 . S
C1324 H1313 0.950 . S
C1324 C1322 1.391 . S
C1324 C1325 1.400 . S
C1325 C1319 1.491 . S
C1325 C1324 1.400 . S
C1325 C1326 1.398 . S
C1326 H1314 0.950 . S
C1326 C1325 1.398 . S
C1326 C1327 1.391 . S
C1327 H1315 0.950 . S
C1327 C1323 1.393 . S
C1327 C1326 1.391 . S
C537 C503 1.584 . S
C543 N14 1.560 . S
C557 N47 1.562 . S
C563 C140 1.585 . S
C577 N80 1.574 . S
C583 C437 1.590 . S
C597 N113 1.559 . S
C603 C206 1.585 . S
C617 N146 1.425 . S
C623 C391 1.467 . S
C637 C28 1.452 . S
C643 N179 1.446 . S
C657 C325 1.447 1_655 S
C663 N212 1.440 . S
C677 N245 1.440 . S
C683 C94 1.450 . S
C697 N278 1.555 . S
C703 C239 1.580 . S
C717 N311 1.554 . S
C723 C404 1.577 . S
C737 C173 1.584 . S
C743 N344 1.570 . S
C757 N377 1.560 . S
C763 C470 1.586 . S
C777 N410 1.436 . S
C783 C127 1.447 1_455 S
C797 N443 1.437 . S
C803 C292 1.445 . S
C817 C61 1.463 . S
C823 N476 1.425 . S
C837 N509 1.441 . S
C843 C358 1.454 . S
C857 N5 1.658 . S
C863 N401 1.685 . S
C877 N170 1.703 . S
C883 N38 1.672 . S
C897 N71 1.647 . S
C903 N467 1.682 . S
C917 N104 1.646 . S
C923 N236 1.688 . S
C937 N269 1.635 . S
C943 N137 1.687 . S
C957 N335 1.651 . S
C963 N203 1.706 . S
C977 N434 1.700 . S
C983 N302 1.666 . S
C997 N368 1.673 . S
C1003 N500 1.706 . S
C1017 C305 1.584 . S
C1023 C17 1.611 . S
C1037 C50 1.594 . S
C1043 C338 1.564 . S
C1057 C83 1.599 . S
C1063 C371 1.569 . S
C1077 C272 1.585 . S
C1083 C116 1.609 . S
C1097 C149 0.937 . S
C1103 C457 0.933 . S
C1117 C182 0.913 . S
C1123 C490 0.885 . S
C1137 C215 0.922 . S
C1143 C523 0.905 . S
C1157 C248 0.943 . S
C1163 C424 0.937 . S
C1177 C41 1.561 . S
C1183 C281 1.596 . S
C1197 C314 1.603 1_565 S
C1203 C74 1.569 . S
C1217 C347 1.602 . S
C1223 C107 1.568 . S
C1237 C380 1.591 1_545 S
C1243 C8 1.555 . S
C1257 C413 0.934 . S
C1263 C193 0.929 . S
C1277 C226 0.922 . S
C1283 C446 0.932 . S
C1297 C259 0.907 . S
C1303 C479 0.932 . S
C1317 C512 0.931 . S
C1323 C160 0.917 . S
