# Generated by pormake.
# Topology vbj, (5)-cn, num edge types: 1
# Building blocks:
#     Node 0, Type 0, BuildingBlock: BEQFEK_clean_sbu_0, # of connection points: 5
#     Node 1, Type 0, BuildingBlock: BEQFEK_clean_sbu_0, # of connection points: 5
#     Node 2, Type 0, BuildingBlock: BEQFEK_clean_sbu_0, # of connection points: 5
#     Node 3, Type 0, BuildingBlock: BEQFEK_clean_sbu_0, # of connection points: 5
#     Node 4, Type 0, BuildingBlock: BEQFEK_clean_sbu_0, # of connection points: 5
#     Node 5, Type 0, BuildingBlock: BEQFEK_clean_sbu_0, # of connection points: 5
#     Node 6, Type 0, BuildingBlock: BEQFEK_clean_sbu_0, # of connection points: 5
#     Node 7, Type 0, BuildingBlock: BEQFEK_clean_sbu_0, # of connection points: 5
#     Node 8, Type 0, BuildingBlock: BEQFEK_clean_sbu_0, # of connection points: 5
#     Node 9, Type 0, BuildingBlock: BEQFEK_clean_sbu_0, # of connection points: 5
#     Node 10, Type 0, BuildingBlock: BEQFEK_clean_sbu_0, # of connection points: 5
#     Node 11, Type 0, BuildingBlock: BEQFEK_clean_sbu_0, # of connection points: 5
#     Node 12, Type 0, BuildingBlock: BEQFEK_clean_sbu_0, # of connection points: 5
#     Node 13, Type 0, BuildingBlock: BEQFEK_clean_sbu_0, # of connection points: 5
#     Node 14, Type 0, BuildingBlock: BEQFEK_clean_sbu_0, # of connection points: 5
#     Node 15, Type 0, BuildingBlock: BEQFEK_clean_sbu_0, # of connection points: 5
#     Edge 16, Type (0, 0), BuildingBlock: XUDNAN_clean_linker_2, # of connection points: 2
#     Edge 17, Type (0, 0), BuildingBlock: XUDNAN_clean_linker_2, # of connection points: 2
#     Edge 18, Type (0, 0), BuildingBlock: XUDNAN_clean_linker_2, # of connection points: 2
#     Edge 19, Type (0, 0), BuildingBlock: XUDNAN_clean_linker_2, # of connection points: 2
#     Edge 20, Type (0, 0), BuildingBlock: XUDNAN_clean_linker_2, # of connection points: 2
#     Edge 21, Type (0, 0), BuildingBlock: XUDNAN_clean_linker_2, # of connection points: 2
#     Edge 22, Type (0, 0), BuildingBlock: XUDNAN_clean_linker_2, # of connection points: 2
#     Edge 23, Type (0, 0), BuildingBlock: XUDNAN_clean_linker_2, # of connection points: 2
#     Edge 24, Type (0, 0), BuildingBlock: XUDNAN_clean_linker_2, # of connection points: 2
#     Edge 25, Type (0, 0), BuildingBlock: XUDNAN_clean_linker_2, # of connection points: 2
#     Edge 26, Type (0, 0), BuildingBlock: XUDNAN_clean_linker_2, # of connection points: 2
#     Edge 27, Type (0, 0), BuildingBlock: XUDNAN_clean_linker_2, # of connection points: 2
#     Edge 28, Type (0, 0), BuildingBlock: XUDNAN_clean_linker_2, # of connection points: 2
#     Edge 29, Type (0, 0), BuildingBlock: XUDNAN_clean_linker_2, # of connection points: 2
#     Edge 30, Type (0, 0), BuildingBlock: XUDNAN_clean_linker_2, # of connection points: 2
#     Edge 31, Type (0, 0), BuildingBlock: XUDNAN_clean_linker_2, # of connection points: 2
#     Edge 32, Type (0, 0), BuildingBlock: XUDNAN_clean_linker_2, # of connection points: 2
#     Edge 33, Type (0, 0), BuildingBlock: XUDNAN_clean_linker_2, # of connection points: 2
#     Edge 34, Type (0, 0), BuildingBlock: XUDNAN_clean_linker_2, # of connection points: 2
#     Edge 35, Type (0, 0), BuildingBlock: XUDNAN_clean_linker_2, # of connection points: 2
#     Edge 36, Type (0, 0), BuildingBlock: XUDNAN_clean_linker_2, # of connection points: 2
#     Edge 37, Type (0, 0), BuildingBlock: XUDNAN_clean_linker_2, # of connection points: 2
#     Edge 38, Type (0, 0), BuildingBlock: XUDNAN_clean_linker_2, # of connection points: 2
#     Edge 39, Type (0, 0), BuildingBlock: XUDNAN_clean_linker_2, # of connection points: 2
#     Edge 40, Type (0, 0), BuildingBlock: XUDNAN_clean_linker_2, # of connection points: 2
#     Edge 41, Type (0, 0), BuildingBlock: XUDNAN_clean_linker_2, # of connection points: 2
#     Edge 42, Type (0, 0), BuildingBlock: XUDNAN_clean_linker_2, # of connection points: 2
#     Edge 43, Type (0, 0), BuildingBlock: XUDNAN_clean_linker_2, # of connection points: 2
#     Edge 44, Type (0, 0), BuildingBlock: XUDNAN_clean_linker_2, # of connection points: 2
#     Edge 45, Type (0, 0), BuildingBlock: XUDNAN_clean_linker_2, # of connection points: 2
#     Edge 46, Type (0, 0), BuildingBlock: XUDNAN_clean_linker_2, # of connection points: 2
#     Edge 47, Type (0, 0), BuildingBlock: XUDNAN_clean_linker_2, # of connection points: 2
#     Edge 48, Type (0, 0), BuildingBlock: XUDNAN_clean_linker_2, # of connection points: 2
#     Edge 49, Type (0, 0), BuildingBlock: XUDNAN_clean_linker_2, # of connection points: 2
#     Edge 50, Type (0, 0), BuildingBlock: XUDNAN_clean_linker_2, # of connection points: 2
#     Edge 51, Type (0, 0), BuildingBlock: XUDNAN_clean_linker_2, # of connection points: 2
#     Edge 52, Type (0, 0), BuildingBlock: XUDNAN_clean_linker_2, # of connection points: 2
#     Edge 53, Type (0, 0), BuildingBlock: XUDNAN_clean_linker_2, # of connection points: 2
#     Edge 54, Type (0, 0), BuildingBlock: XUDNAN_clean_linker_2, # of connection points: 2
#     Edge 55, Type (0, 0), BuildingBlock: XUDNAN_clean_linker_2, # of connection points: 2
# Relax obj value: 0.115
# Max RMSD: 0.137
# Mean RMSD: 0.137
data_MOF--net-vbj--node1-BEQFEK_clean_sbu_0--edge1-XUDNAN_clean_linker_2
_symmetry_space_group_name_H-M    P1
_symmetry_Int_Tables_number       1
_symmetry_cell_setting            triclinic
loop_
_symmetry_equiv_pos_as_xyz
'x, y, z'
_cell_length_a     25.707005
_cell_length_b     72.775814
_cell_length_c     45.239588
_cell_angle_alpha  89.968799
_cell_angle_beta   90.099597
_cell_angle_gamma 90.424211
loop_
_atom_site_label
_atom_site_type_symbol
_atom_site_fract_x
_atom_site_fract_y
_atom_site_fract_z
_atom_type_partial_charge
Co0 Co 0.04866 0.16046 0.09295 0.0
Co1 Co 0.06106 0.11715 0.09866 0.0
C2 C 0.07395 0.14206 0.15053 0.0
O3 O 0.06637 0.15644 0.1351 0.0
O4 O 0.07228 0.12609 0.13916 0.0
C5 C 0.0437 0.19963 0.10475 0.0
O6 O 0.05798 0.19485 0.13154 0.0
C7 C 0.11526 0.08232 0.11113 0.0
C8 C 0.0743 0.06314 0.08111 0.0
C9 C 0.11505 0.06424 0.10116 0.0
N10 N 0.07679 0.09143 0.09733 0.0
N11 N 0.05195 0.07978 0.07981 0.0
C12 C 0.15478 0.09143 0.13067 0.0
H13 H 0.15661 0.10641 0.1261 0.0
H14 H 0.19378 0.08534 0.12734 0.0
H15 H 0.14334 0.08942 0.15409 0.0
C16 C 0.12434 0.15442 0.04468 0.0
N17 N 0.09647 0.14846 0.06802 0.0
N18 N 0.10227 0.13055 0.07082 0.0
C19 C 0.13471 0.12463 0.04959 0.0
C20 C 0.14902 0.13946 0.03205 0.0
C21 C 0.12339 0.17377 0.0335 0.0
H22 H 0.0825 0.17841 0.03168 0.0
H23 H 0.14335 0.18284 0.04971 0.0
H24 H 0.14263 0.17508 0.01166 0.0
O25 O 0.97962 0.15018 0.0843 0.0
O26 O 0.98656 0.11983 0.08828 0.0
H27 H 0.12017 0.09628 0.03986 0.0
H28 H 0.18535 0.10386 0.03081 0.0
C29 C 0.15307 0.10522 0.04683 0.0
H30 H 0.16749 0.10045 0.06851 0.0
H31 H 0.02087 0.08337 0.06616 0.0
O32 O 0.04107 0.1874 0.08465 0.0
C33 C 0.95986 0.13413 0.08298 0.0
Co34 Co 0.3986 0.86289 0.10532 0.0
Co35 Co 0.39961 0.9061 0.09838 0.0
C36 C 0.41831 0.88777 0.15674 0.0
O37 O 0.41091 0.87187 0.14575 0.0
O38 O 0.41713 0.90225 0.14095 0.0
C39 C 0.42405 0.82626 0.12242 0.0
O40 O 0.44856 0.8349 0.14386 0.0
C41 C 0.36107 0.9435 0.10957 0.0
C42 C 0.38078 0.95756 0.06773 0.0
C43 C 0.35564 0.96005 0.09451 0.0
N44 N 0.38755 0.93179 0.09228 0.0
N45 N 0.40007 0.94041 0.06755 0.0
C46 C 0.33605 0.93803 0.13813 0.0
H47 H 0.33154 0.92288 0.13941 0.0
H48 H 0.29742 0.94458 0.14048 0.0
H49 H 0.36112 0.94264 0.15673 0.0
C50 C 0.29502 0.86707 0.07828 0.0
N51 N 0.3389 0.87418 0.08991 0.0
N52 N 0.33845 0.89223 0.08733 0.0
C53 C 0.29352 0.89716 0.07414 0.0
C54 C 0.26468 0.8814 0.06788 0.0
C55 C 0.28536 0.84688 0.0747 0.0
H56 H 0.32108 0.84021 0.06635 0.0
H57 H 0.27623 0.84082 0.09662 0.0
H58 H 0.25289 0.84398 0.05919 0.0
O59 O 0.45558 0.86855 0.07845 0.0
O60 O 0.45833 0.89879 0.07203 0.0
H61 H 0.30639 0.92305 0.05278 0.0
H62 H 0.23842 0.91761 0.05865 0.0
C63 C 0.27805 0.91661 0.06812 0.0
H64 H 0.2783 0.92438 0.0891 0.0
H65 H 0.41979 0.93432 0.05 0.0
O66 O 0.39601 0.83547 0.10462 0.0
C67 C 0.47498 0.88274 0.0663 0.0
Co68 Co 0.58549 0.85719 0.39815 0.0
Co69 Co 0.61051 0.89942 0.4085 0.0
C70 C 0.54645 0.88636 0.3573 0.0
O71 O 0.54944 0.8699 0.3664 0.0
O72 O 0.56986 0.89952 0.37045 0.0
C73 C 0.56914 0.82391 0.36579 0.0
O74 O 0.57559 0.8351 0.34327 0.0
C75 C 0.66609 0.93447 0.39696 0.0
C76 C 0.65634 0.94896 0.43945 0.0
C77 C 0.67923 0.95059 0.41184 0.0
N78 N 0.63701 0.92387 0.41502 0.0
N79 N 0.63096 0.93272 0.44027 0.0
C80 C 0.68382 0.92854 0.36702 0.0
H81 H 0.68202 0.91334 0.36511 0.0
H82 H 0.72401 0.93353 0.36272 0.0
H83 H 0.65765 0.93449 0.35006 0.0
C84 C 0.69957 0.855 0.40337 0.0
N85 N 0.65595 0.86492 0.4006 0.0
N86 N 0.66585 0.88208 0.40799 0.0
C87 C 0.71528 0.88336 0.41778 0.0
C88 C 0.73895 0.86622 0.4149 0.0
C89 C 0.70211 0.835 0.39585 0.0
H90 H 0.67902 0.83226 0.37558 0.0
H91 H 0.74282 0.8306 0.39214 0.0
H92 H 0.68468 0.82682 0.41408 0.0
O93 O 0.54943 0.86315 0.43527 0.0
O94 O 0.56385 0.89303 0.44209 0.0
H95 H 0.70254 0.9062 0.44684 0.0
H96 H 0.76374 0.89536 0.45224 0.0
C97 C 0.73507 0.89949 0.43522 0.0
H98 H 0.75348 0.90957 0.42 0.0
H99 H 0.61049 0.92748 0.45834 0.0
O100 O 0.57518 0.83016 0.39183 0.0
C101 C 0.54325 0.87783 0.45009 0.0
Co102 Co 0.92238 0.16489 0.40287 0.0
Co103 Co 0.91665 0.12147 0.39911 0.0
C104 C 0.97458 0.14174 0.35469 0.0
O105 O 0.96213 0.1564 0.36818 0.0
O106 O 0.95899 0.12603 0.36354 0.0
C107 C 0.9133 0.19919 0.37381 0.0
O108 O 0.8991 0.1884 0.35191 0.0
C109 C 0.88854 0.08169 0.38702 0.0
C110 C 0.87606 0.07269 0.4331 0.0
C111 C 0.8723 0.06664 0.40412 0.0
N112 N 0.89976 0.09587 0.40531 0.0
N113 N 0.8929 0.09018 0.43276 0.0
C114 C 0.8947 0.08264 0.35418 0.0
H115 H 0.92219 0.0938 0.34803 0.0
H116 H 0.85659 0.0856 0.34377 0.0
H117 H 0.90907 0.06935 0.3455 0.0
C118 C 0.81044 0.15808 0.41666 0.0
N119 N 0.85653 0.1531 0.40499 0.0
N120 N 0.85429 0.13557 0.3979 0.0
C121 C 0.8056 0.12939 0.40226 0.0
C122 C 0.77678 0.143 0.41593 0.0
C123 C 0.80225 0.17563 0.43311 0.0
H124 H 0.78969 0.17261 0.45608 0.0
H125 H 0.83839 0.18405 0.43352 0.0
H126 H 0.77073 0.1835 0.42224 0.0
O127 O 0.96214 0.15892 0.43776 0.0
O128 O 0.9582 0.12842 0.43524 0.0
H129 H 0.79727 0.1006 0.4119 0.0
H130 H 0.74388 0.11027 0.39171 0.0
C131 C 0.78684 0.11049 0.39433 0.0
H132 H 0.80513 0.1061 0.37338 0.0
H133 H 0.89806 0.09849 0.45134 0.0
O134 O 0.92089 0.19216 0.39917 0.0
C135 C 0.97311 0.14319 0.44798 0.0
Co136 Co 0.90046 0.85695 0.8938 0.0
Co137 Co 0.89434 0.90027 0.89192 0.0
C138 C 0.91911 0.87876 0.83807 0.0
O139 O 0.91477 0.86388 0.85266 0.0
O140 O 0.91387 0.89438 0.85033 0.0
C141 C 0.91051 0.81886 0.87614 0.0
O142 O 0.91562 0.8255 0.8493 0.0
C143 C 0.85624 0.93764 0.877 0.0
C144 C 0.85708 0.95027 0.92136 0.0
C145 C 0.84069 0.95325 0.89253 0.0
N146 N 0.8782 0.92583 0.8962 0.0
N147 N 0.87989 0.93373 0.92245 0.0
C148 C 0.85094 0.93383 0.84462 0.0
H149 H 0.88462 0.92582 0.83674 0.0
H150 H 0.81514 0.92558 0.84061 0.0
H151 H 0.84927 0.94679 0.83176 0.0
C152 C 0.79572 0.86096 0.9189 0.0
N153 N 0.83853 0.86797 0.90599 0.0
N154 N 0.83436 0.88595 0.90379 0.0
C155 C 0.78736 0.89084 0.91433 0.0
C156 C 0.7617 0.87524 0.92466 0.0
C157 C 0.79065 0.84132 0.9284 0.0
H158 H 0.829 0.83608 0.93565 0.0
H159 H 0.77731 0.83294 0.90931 0.0
H160 H 0.76251 0.83969 0.94678 0.0
O161 O 0.95474 0.8649 0.9209 0.0
O162 O 0.95319 0.89541 0.92003 0.0
H163 H 0.7846 0.91822 0.9313 0.0
H164 H 0.72344 0.91 0.91666 0.0
C165 C 0.76623 0.90994 0.91353 0.0
H166 H 0.77492 0.91629 0.89188 0.0
H167 H 0.89389 0.92737 0.94152 0.0
O168 O 0.90014 0.82971 0.89734 0.0
C169 C 0.97165 0.88037 0.92972 0.0
Co170 Co 0.55101 0.1522 0.89845 0.0
Co171 Co 0.55234 0.10882 0.89633 0.0
C172 C 0.56736 0.13152 0.84213 0.0
O173 O 0.56541 0.14653 0.85649 0.0
O174 O 0.56188 0.11604 0.85483 0.0
C175 C 0.55142 0.19073 0.88351 0.0
O176 O 0.55784 0.18475 0.85638 0.0
C177 C 0.59446 0.07247 0.8829 0.0
C178 C 0.56333 0.05558 0.9195 0.0
C179 C 0.59554 0.05504 0.89505 0.0
N180 N 0.56298 0.08295 0.89944 0.0
N181 N 0.54376 0.07268 0.92098 0.0
C182 C 0.62679 0.07959 0.85786 0.0
H183 H 0.64394 0.09313 0.86386 0.0
H184 H 0.65817 0.06987 0.85195 0.0
H185 H 0.6014 0.08165 0.83829 0.0
C186 C 0.62807 0.14562 0.94572 0.0
N187 N 0.59701 0.1397 0.92368 0.0
N188 N 0.59952 0.12166 0.92186 0.0
C189 C 0.63386 0.11559 0.9421 0.0
C190 C 0.65238 0.13051 0.95825 0.0
C191 C 0.63046 0.16516 0.95599 0.0
H192 H 0.59092 0.17114 0.95566 0.0
H193 H 0.65521 0.17323 0.94058 0.0
H194 H 0.64659 0.16628 0.97867 0.0
O195 O 0.48026 0.14458 0.90854 0.0
O196 O 0.47929 0.11403 0.90785 0.0
H197 H 0.62042 0.08793 0.95632 0.0
H198 H 0.68802 0.09485 0.95711 0.0
C199 C 0.65091 0.09603 0.94476 0.0
H200 H 0.65686 0.09016 0.92249 0.0
H201 H 0.51905 0.07757 0.93746 0.0
O202 O 0.55117 0.17927 0.90475 0.0
C203 C 0.45657 0.12934 0.91175 0.0
Co204 Co 0.42043 0.15593 0.58867 0.0
Co205 Co 0.40475 0.11255 0.59046 0.0
C206 C 0.46191 0.13146 0.63772 0.0
O207 O 0.45687 0.14634 0.62335 0.0
O208 O 0.44044 0.11656 0.62903 0.0
C209 C 0.4258 0.19026 0.61803 0.0
O210 O 0.41439 0.1796 0.64059 0.0
C211 C 0.35673 0.07563 0.60245 0.0
C212 C 0.37975 0.0609 0.56194 0.0
C213 C 0.3508 0.05889 0.58759 0.0
N214 N 0.38686 0.08688 0.58591 0.0
N215 N 0.40103 0.07781 0.562 0.0
C216 C 0.33137 0.08153 0.63058 0.0
H217 H 0.3329 0.09672 0.63277 0.0
H218 H 0.29038 0.07666 0.63131 0.0
H219 H 0.35254 0.07545 0.64956 0.0
C220 C 0.30549 0.15428 0.58343 0.0
N221 N 0.35191 0.14614 0.58714 0.0
N222 N 0.34566 0.12815 0.586 0.0
C223 C 0.29532 0.12434 0.58015 0.0
C224 C 0.26792 0.14071 0.57907 0.0
C225 C 0.29806 0.17464 0.58314 0.0
H226 H 0.32072 0.18099 0.60137 0.0
H227 H 0.25646 0.17828 0.58561 0.0
H228 H 0.31303 0.1803 0.56199 0.0
O229 O 0.46077 0.14854 0.55372 0.0
O230 O 0.4559 0.11822 0.55911 0.0
H231 H 0.30686 0.0983 0.55872 0.0
H232 H 0.24279 0.10729 0.55439 0.0
C233 C 0.2757 0.10592 0.5701 0.0
H234 H 0.26192 0.09794 0.58945 0.0
H235 H 0.42391 0.08339 0.54515 0.0
O236 O 0.42571 0.18333 0.5922 0.0
C237 C 0.47378 0.13241 0.546 0.0
Co238 Co 0.10082 0.84778 0.59359 0.0
Co239 Co 0.09724 0.89095 0.58335 0.0
C240 C 0.04927 0.87321 0.63642 0.0
O241 O 0.06257 0.85746 0.62721 0.0
O242 O 0.06101 0.88782 0.62232 0.0
C243 C 0.10606 0.81378 0.62517 0.0
O244 O 0.11286 0.82486 0.64778 0.0
C245 C 0.13383 0.92883 0.59539 0.0
C246 C 0.11259 0.94315 0.55414 0.0
C247 C 0.13787 0.94575 0.58098 0.0
N248 N 0.10815 0.91694 0.57766 0.0
N249 N 0.09487 0.92571 0.55325 0.0
C250 C 0.15783 0.92333 0.6242 0.0
H251 H 0.15992 0.90814 0.62596 0.0
H252 H 0.19737 0.9294 0.62646 0.0
H253 H 0.13339 0.92845 0.64258 0.0
C254 C 0.21378 0.85469 0.5861 0.0
N255 N 0.16439 0.86053 0.58855 0.0
N256 N 0.16268 0.8783 0.58285 0.0
C257 C 0.21096 0.88416 0.57578 0.0
C258 C 0.24506 0.86953 0.57825 0.0
C259 C 0.22983 0.83512 0.58988 0.0
H260 H 0.20978 0.82907 0.6093 0.0
H261 H 0.27257 0.834 0.59277 0.0
H262 H 0.21777 0.82718 0.57005 0.0
O263 O 0.05738 0.85124 0.55876 0.0
O264 O 0.05104 0.88126 0.55072 0.0
H265 H 0.25712 0.90164 0.54711 0.0
H266 H 0.23202 0.91257 0.57959 0.0
C267 C 0.22297 0.90244 0.562 0.0
H268 H 0.1894 0.90726 0.54886 0.0
H269 H 0.07535 0.9196 0.53551 0.0
O270 O 0.10499 0.82055 0.59924 0.0
C271 C 0.03955 0.86467 0.54402 0.0
Co272 Co 0.5795 0.6643 0.08908 0.0
Co273 Co 0.58692 0.62095 0.08663 0.0
C274 C 0.52815 0.63997 0.13411 0.0
O275 O 0.53751 0.6556 0.12262 0.0
O276 O 0.54637 0.62523 0.12325 0.0
C277 C 0.56667 0.70146 0.1111 0.0
O278 O 0.56287 0.69364 0.13719 0.0
C279 C 0.63335 0.58556 0.1038 0.0
C280 C 0.61509 0.5683 0.06496 0.0
C281 C 0.64212 0.56832 0.0915 0.0
N282 N 0.60383 0.59533 0.08496 0.0
N283 N 0.59225 0.58479 0.06207 0.0
C284 C 0.65127 0.59257 0.13325 0.0
H285 H 0.62194 0.60204 0.14257 0.0
H286 H 0.68805 0.60043 0.13069 0.0
H287 H 0.65802 0.58103 0.1488 0.0
C288 C 0.69436 0.66089 0.08808 0.0
N289 N 0.64619 0.65356 0.08956 0.0
N290 N 0.64898 0.63561 0.08611 0.0
C291 C 0.69888 0.63108 0.08104 0.0
C292 C 0.72946 0.64682 0.08309 0.0
C293 C 0.70566 0.68106 0.08932 0.0
H294 H 0.68092 0.68758 0.10636 0.0
H295 H 0.74732 0.68374 0.09432 0.0
H296 H 0.69593 0.6873 0.06764 0.0
O297 O 0.54405 0.65745 0.05218 0.0
O298 O 0.54297 0.62691 0.05177 0.0
H299 H 0.74781 0.61529 0.05183 0.0
H300 H 0.72998 0.60391 0.0854 0.0
C301 C 0.7156 0.61316 0.0678 0.0
H302 H 0.68295 0.6065 0.05588 0.0
H303 H 0.57049 0.58911 0.04389 0.0
O304 O 0.57845 0.6917 0.08878 0.0
C305 C 0.53094 0.6423 0.04029 0.0
Co306 Co 0.89648 0.36405 0.09718 0.0
Co307 Co 0.90231 0.40716 0.08791 0.0
C308 C 0.9174 0.38957 0.14729 0.0
O309 O 0.90992 0.37329 0.13778 0.0
O310 O 0.91588 0.40335 0.13008 0.0
C311 C 0.92448 0.32775 0.1115 0.0
O312 O 0.95757 0.33692 0.12815 0.0
C313 C 0.86216 0.44436 0.09753 0.0
C314 C 0.90851 0.46099 0.06622 0.0
C315 C 0.86994 0.46213 0.08744 0.0
N316 N 0.89423 0.43312 0.08271 0.0
N317 N 0.922 0.44318 0.06411 0.0
C318 C 0.82644 0.43826 0.12174 0.0
H319 H 0.82592 0.42305 0.12364 0.0
H320 H 0.78647 0.44324 0.11744 0.0
H321 H 0.8397 0.44436 0.14296 0.0
C322 C 0.8014 0.36904 0.06188 0.0
N323 N 0.83973 0.37599 0.07895 0.0
N324 N 0.84187 0.39397 0.07546 0.0
C325 C 0.80421 0.39906 0.05655 0.0
C326 C 0.77795 0.38345 0.04686 0.0
C327 C 0.79482 0.34892 0.05597 0.0
H328 H 0.83116 0.34355 0.04609 0.0
H329 H 0.78853 0.3416 0.07721 0.0
H330 H 0.76188 0.34602 0.0408 0.0
O331 O 0.9563 0.36861 0.07177 0.0
O332 O 0.96262 0.3987 0.06383 0.0
H333 H 0.83238 0.42343 0.03504 0.0
H334 H 0.763 0.41959 0.03068 0.0
C335 C 0.79646 0.41838 0.04602 0.0
H336 H 0.7884 0.42729 0.06521 0.0
H337 H 0.95036 0.43789 0.05003 0.0
O338 O 0.89033 0.33664 0.09705 0.0
C339 C 0.97827 0.38233 0.05959 0.0
Co340 Co 0.10022 0.35595 0.38597 0.0
Co341 Co 0.10866 0.39799 0.40466 0.0
C342 C 0.06377 0.38646 0.34667 0.0
O343 O 0.07417 0.36974 0.35192 0.0
O344 O 0.07366 0.39902 0.36546 0.0
C345 C 0.05216 0.32503 0.36316 0.0
O346 O 0.0202 0.3383 0.35599 0.0
C347 C 0.14392 0.43663 0.39839 0.0
C348 C 0.14631 0.44592 0.44482 0.0
C349 C 0.15698 0.45163 0.41618 0.0
N350 N 0.12696 0.4228 0.41581 0.0
N351 N 0.12783 0.42857 0.44349 0.0
C352 C 0.15277 0.43457 0.36586 0.0
H353 H 0.15653 0.41985 0.3599 0.0
H354 H 0.18843 0.44209 0.35894 0.0
H355 H 0.11901 0.44027 0.35371 0.0
C356 C 0.21194 0.35702 0.40207 0.0
N357 N 0.16594 0.36518 0.39702 0.0
N358 N 0.17004 0.38289 0.40281 0.0
C359 C 0.21964 0.38665 0.41046 0.0
C360 C 0.24765 0.37036 0.41092 0.0
C361 C 0.21947 0.33665 0.40167 0.0
H362 H 0.18177 0.32941 0.40463 0.0
H363 H 0.2361 0.33263 0.38002 0.0
H364 H 0.24677 0.33237 0.41936 0.0
O365 O 0.05363 0.35914 0.41882 0.0
O366 O 0.05837 0.38783 0.43507 0.0
H367 H 0.22442 0.41075 0.43753 0.0
H368 H 0.28337 0.406 0.41711 0.0
C369 C 0.24027 0.40561 0.41633 0.0
H370 H 0.22794 0.41487 0.39835 0.0
H371 H 0.11728 0.42047 0.46159 0.0
O372 O 0.09446 0.32906 0.37651 0.0
C373 C 0.03997 0.37152 0.43685 0.0
Co374 Co 0.40636 0.66347 0.38785 0.0
Co375 Co 0.41035 0.62012 0.39526 0.0
C376 C 0.40925 0.63827 0.33584 0.0
O377 O 0.40548 0.65403 0.34753 0.0
O378 O 0.41364 0.62381 0.35146 0.0
C379 C 0.43893 0.69665 0.36657 0.0
O380 O 0.46613 0.68445 0.35197 0.0
C381 C 0.35931 0.58397 0.38999 0.0
C382 C 0.40623 0.56661 0.41967 0.0
C383 C 0.36284 0.56618 0.40134 0.0
N384 N 0.39842 0.59423 0.40124 0.0
N385 N 0.42662 0.5837 0.41873 0.0
C386 C 0.31741 0.59176 0.37082 0.0
H387 H 0.31688 0.60697 0.37253 0.0
H388 H 0.27885 0.58606 0.37716 0.0
H389 H 0.32524 0.58812 0.34744 0.0
C390 C 0.31365 0.65882 0.42535 0.0
N391 N 0.3524 0.65197 0.40891 0.0
N392 N 0.35476 0.63401 0.41278 0.0
C393 C 0.31799 0.62898 0.43245 0.0
C394 C 0.29045 0.64447 0.44078 0.0
C395 C 0.30165 0.67885 0.42746 0.0
H396 H 0.30673 0.68545 0.40554 0.0
H397 H 0.26139 0.68102 0.43549 0.0
H398 H 0.32937 0.68544 0.44309 0.0
O399 O 0.4707 0.65797 0.40895 0.0
O400 O 0.47698 0.62774 0.41504 0.0
H401 H 0.2961 0.61109 0.46881 0.0
H402 H 0.29206 0.60099 0.43263 0.0
C403 C 0.31505 0.61044 0.44683 0.0
H404 H 0.35462 0.60482 0.4498 0.0
H405 H 0.4591 0.5883 0.43057 0.0
O406 O 0.40553 0.69104 0.38538 0.0
C407 C 0.4944 0.64403 0.41897 0.0
Co408 Co 0.40688 0.35552 0.88387 0.0
Co409 Co 0.3956 0.39868 0.88137 0.0
C410 C 0.40458 0.37687 0.82655 0.0
O411 O 0.40661 0.36194 0.84126 0.0
O412 O 0.40092 0.39246 0.8391 0.0
C413 C 0.43789 0.31906 0.87226 0.0
O414 O 0.46356 0.3274 0.85098 0.0
C415 C 0.35446 0.43627 0.87076 0.0
C416 C 0.37077 0.44874 0.91434 0.0
C417 C 0.34649 0.45208 0.88751 0.0
N418 N 0.38056 0.42408 0.88747 0.0
N419 N 0.39105 0.43181 0.91322 0.0
C420 C 0.33846 0.43275 0.83943 0.0
H421 H 0.30106 0.42504 0.83915 0.0
H422 H 0.33393 0.44582 0.82709 0.0
H423 H 0.36805 0.42429 0.82815 0.0
C424 C 0.31063 0.35889 0.91852 0.0
N425 N 0.34962 0.36623 0.90255 0.0
N426 N 0.34299 0.38409 0.90016 0.0
C427 C 0.29822 0.38859 0.91375 0.0
C428 C 0.27654 0.37282 0.92611 0.0
C429 C 0.30841 0.33914 0.92773 0.0
H430 H 0.34805 0.33428 0.93322 0.0
H431 H 0.29337 0.33075 0.90907 0.0
H432 H 0.28292 0.33711 0.94724 0.0
O433 O 0.47044 0.36422 0.90304 0.0
O434 O 0.46442 0.39462 0.90016 0.0
H435 H 0.29472 0.41641 0.92873 0.0
H436 H 0.2324 0.40686 0.91816 0.0
C437 C 0.27444 0.40729 0.91274 0.0
H438 H 0.27875 0.41311 0.89028 0.0
H439 H 0.41022 0.4252 0.93053 0.0
O440 O 0.40799 0.32842 0.88868 0.0
C441 C 0.48866 0.38019 0.90775 0.0
Co442 Co 0.06982 0.65694 0.90326 0.0
Co443 Co 0.08435 0.61446 0.91196 0.0
C444 C 0.02626 0.62928 0.86039 0.0
O445 O 0.03547 0.64582 0.86819 0.0
O446 O 0.04209 0.61575 0.8757 0.0
C447 C 0.04703 0.69317 0.87955 0.0
O448 O 0.03316 0.68453 0.85527 0.0
C449 C 0.11711 0.57654 0.89921 0.0
C450 C 0.13534 0.56658 0.94419 0.0
C451 C 0.13707 0.5617 0.91463 0.0
N452 N 0.10478 0.5897 0.91882 0.0
N453 N 0.11472 0.58348 0.94568 0.0
C454 C 0.11568 0.57912 0.86639 0.0
H455 H 0.11907 0.59391 0.8607 0.0
H456 H 0.14744 0.57138 0.85556 0.0
H457 H 0.07794 0.57386 0.85782 0.0
C458 C 0.18456 0.65611 0.91299 0.0
N459 N 0.13821 0.64785 0.90807 0.0
N460 N 0.14425 0.62991 0.90889 0.0
C461 C 0.19499 0.62619 0.91273 0.0
C462 C 0.22221 0.6426 0.91629 0.0
C463 C 0.19096 0.67631 0.91817 0.0
H464 H 0.15475 0.68211 0.92746 0.0
H465 H 0.19906 0.68319 0.89676 0.0
H466 H 0.22368 0.67922 0.93353 0.0
O467 O 0.0291 0.65132 0.93858 0.0
O468 O 0.0422 0.62169 0.94685 0.0
H469 H 0.20794 0.60022 0.93366 0.0
H470 H 0.26022 0.6076 0.90972 0.0
C471 C 0.21737 0.60725 0.91259 0.0
H472 H 0.20044 0.59929 0.89407 0.0
H473 H 0.10973 0.59114 0.96495 0.0
O474 O 0.06678 0.68413 0.9008 0.0
C475 C 0.02229 0.63699 0.95412 0.0
Co476 Co 0.91841 0.65679 0.60766 0.0
Co477 Co 0.90382 0.61412 0.59477 0.0
C478 C 0.90872 0.6292 0.65639 0.0
O479 O 0.91132 0.64572 0.64724 0.0
O480 O 0.90697 0.61573 0.63847 0.0
C481 C 0.96228 0.68798 0.63185 0.0
O482 O 0.98294 0.6745 0.6471 0.0
C483 C 0.85716 0.57684 0.59912 0.0
C484 C 0.88285 0.56425 0.55729 0.0
C485 C 0.85447 0.56065 0.58272 0.0
N486 N 0.88584 0.58926 0.58406 0.0
N487 N 0.90124 0.58158 0.55914 0.0
C488 C 0.82926 0.58115 0.62726 0.0
H489 H 0.82264 0.59615 0.62914 0.0
H490 H 0.79133 0.57379 0.62823 0.0
H491 H 0.85346 0.57673 0.64627 0.0
C492 C 0.82693 0.65839 0.56743 0.0
N493 N 0.86278 0.64904 0.58293 0.0
N494 N 0.85488 0.63127 0.5792 0.0
C495 C 0.81253 0.62876 0.56207 0.0
C496 C 0.7937 0.64585 0.5536 0.0
C497 C 0.827 0.67888 0.56464 0.0
H498 H 0.86738 0.68429 0.56589 0.0
H499 H 0.80459 0.68481 0.58323 0.0
H500 H 0.80906 0.68325 0.54347 0.0
O501 O 0.98359 0.6488 0.59044 0.0
O502 O 0.97422 0.61947 0.57788 0.0
H503 H 0.8113 0.60315 0.53884 0.0
H504 H 0.74741 0.61143 0.54875 0.0
C505 C 0.78844 0.61033 0.55605 0.0
H506 H 0.78898 0.60196 0.57644 0.0
H507 H 0.92399 0.58824 0.54327 0.0
O508 O 0.92828 0.68407 0.61225 0.0
C509 C 0.00122 0.63421 0.579 0.0
Co510 Co 0.60046 0.3462 0.58782 0.0
Co511 Co 0.61089 0.38941 0.58244 0.0
C512 C 0.54824 0.37234 0.62982 0.0
O513 O 0.55683 0.35671 0.61851 0.0
O514 O 0.56981 0.38685 0.61974 0.0
C515 C 0.59146 0.3128 0.61998 0.0
O516 O 0.59619 0.32426 0.64228 0.0
C517 C 0.65851 0.42617 0.59311 0.0
C518 C 0.63031 0.44152 0.55421 0.0
C519 C 0.66135 0.44327 0.57917 0.0
N520 N 0.62757 0.41501 0.57694 0.0
N521 N 0.61055 0.42436 0.55389 0.0
C522 C 0.68732 0.41992 0.62 0.0
H523 H 0.68823 0.40469 0.62103 0.0
H524 H 0.72758 0.42553 0.62 0.0
H525 H 0.66702 0.42496 0.64001 0.0
C526 C 0.71368 0.34872 0.58433 0.0
N527 N 0.66759 0.35689 0.58826 0.0
N528 N 0.67196 0.3745 0.58204 0.0
C529 C 0.72036 0.37785 0.57181 0.0
C530 C 0.74891 0.36161 0.57309 0.0
C531 C 0.72186 0.32863 0.58947 0.0
H532 H 0.70173 0.32437 0.61007 0.0
H533 H 0.76384 0.32538 0.59139 0.0
H534 H 0.70433 0.32069 0.57098 0.0
O535 O 0.56725 0.35121 0.54945 0.0
O536 O 0.56568 0.38181 0.54903 0.0
H537 H 0.76118 0.39188 0.53635 0.0
H538 H 0.75416 0.4048 0.57005 0.0
C539 C 0.7346 0.39492 0.55495 0.0
H540 H 0.69944 0.40137 0.54557 0.0
H541 H 0.58623 0.41891 0.53756 0.0
O542 O 0.59729 0.31896 0.59385 0.0
C543 C 0.55379 0.36632 0.53765 0.0
H544 H 0.41541 0.15402 0.94952 0.0
H545 H 0.37729 0.10521 0.89877 0.0
H546 H 0.28734 0.10593 0.91847 0.0
H547 H 0.35206 0.13983 0.01297 0.0
H548 H 0.33112 0.16241 0.02386 0.0
H549 H 0.38864 0.15988 0.00178 0.0
H550 H 0.34983 0.18175 0.96235 0.0
H551 H 0.29182 0.18422 0.98428 0.0
H552 H 0.28703 0.17661 0.94646 0.0
H553 H 0.2041 0.11096 0.94597 0.0
H554 H 0.13852 0.11669 0.98472 0.0
H555 H 0.23467 0.16049 0.0205 0.0
C556 C 0.3877 0.14375 0.94199 0.0
C557 C 0.40261 0.12973 0.9223 0.0
C558 C 0.36616 0.11611 0.91372 0.0
C559 C 0.31506 0.11654 0.92456 0.0
C560 C 0.30163 0.13054 0.94413 0.0
C561 C 0.3372 0.14374 0.95309 0.0
C562 C 0.31562 0.15574 0.97737 0.0
C563 C 0.34881 0.15437 0.00566 0.0
C564 C 0.31079 0.17577 0.96698 0.0
C565 C 0.26275 0.14691 0.98137 0.0
C566 C 0.25482 0.13277 0.96136 0.0
C567 C 0.20981 0.12202 0.96164 0.0
C568 C 0.17295 0.12533 0.9837 0.0
C569 C 0.18218 0.13888 0.00555 0.0
C570 C 0.22666 0.1502 0.00377 0.0
H571 H 0.06489 0.89897 0.93535 0.0
H572 H 0.96028 0.86107 0.97989 0.0
H573 H 0.02196 0.85858 0.0215 0.0
H574 H 0.17976 0.87493 0.9541 0.0
H575 H 0.21974 0.89515 0.95907 0.0
H576 H 0.16507 0.89572 0.93417 0.0
H577 H 0.12763 0.92359 0.9625 0.0
H578 H 0.18232 0.92312 0.98748 0.0
H579 H 0.117 0.92189 0.00179 0.0
H580 H 0.09511 0.85929 0.05732 0.0
H581 H 0.17836 0.86221 0.08453 0.0
H582 H 0.23911 0.8974 0.01512 0.0
C583 C 0.05485 0.89047 0.95419 0.0
C584 C 0.00793 0.88034 0.95478 0.0
C585 C 0.9962 0.86895 0.97928 0.0
C586 C 0.0308 0.86749 0.00299 0.0
C587 C 0.07725 0.87736 0.00166 0.0
C588 C 0.08964 0.88854 0.97788 0.0
C589 C 0.14402 0.89644 0.98109 0.0
C590 C 0.17922 0.89018 0.95559 0.0
C591 C 0.14264 0.91751 0.98335 0.0
C592 C 0.16014 0.88783 0.01017 0.0
C593 C 0.12073 0.87709 0.02183 0.0
C594 C 0.12635 0.86767 0.04847 0.0
C595 C 0.17367 0.86931 0.06365 0.0
C596 C 0.21471 0.88006 0.05192 0.0
C597 C 0.20789 0.88934 0.02478 0.0
H598 H 0.83084 0.8859 0.41785 0.0
H599 H 0.75969 0.83427 0.44479 0.0
H600 H 0.8383 0.82637 0.47218 0.0
H601 H 0.97143 0.87257 0.42089 0.0
H602 H 0.98995 0.8938 0.43868 0.0
H603 H 0.93574 0.89329 0.41333 0.0
H604 H 0.87645 0.90701 0.45379 0.0
H605 H 0.93018 0.90746 0.4793 0.0
H606 H 0.87094 0.8955 0.48895 0.0
H607 H 0.9178 0.82529 0.50157 0.0
H608 H 0.98825 0.83232 0.53625 0.0
H609 H 0.00254 0.88728 0.49924 0.0
C610 C 0.83223 0.87277 0.42904 0.0
C611 C 0.78927 0.86049 0.42821 0.0
C612 C 0.79257 0.84355 0.44352 0.0
C613 C 0.83714 0.839 0.45957 0.0
C614 C 0.87763 0.85175 0.461 0.0
C615 C 0.87538 0.86845 0.4466 0.0
C616 C 0.91931 0.8811 0.45658 0.0
C617 C 0.95631 0.88544 0.43083 0.0
C618 C 0.89793 0.89881 0.47048 0.0
C619 C 0.94543 0.86905 0.47953 0.0
C620 C 0.92166 0.85197 0.48076 0.0
C621 C 0.93706 0.83855 0.5007 0.0
C622 C 0.97724 0.84275 0.52038 0.0
C623 C 0.00101 0.86041 0.52059 0.0
C624 C 0.98524 0.87367 0.49957 0.0
H625 H 0.68701 0.16319 0.42597 0.0
H626 H 0.77105 0.11484 0.45483 0.0
H627 H 0.69757 0.10551 0.48567 0.0
H628 H 0.63738 0.17231 0.49966 0.0
H629 H 0.57597 0.18114 0.48691 0.0
H630 H 0.63295 0.1833 0.46402 0.0
H631 H 0.58403 0.16676 0.42142 0.0
H632 H 0.52714 0.16433 0.44437 0.0
H633 H 0.55592 0.14434 0.42777 0.0
H634 H 0.61596 0.10029 0.51138 0.0
H635 H 0.53667 0.1029 0.54109 0.0
H636 H 0.50763 0.15673 0.503 0.0
C637 C 0.68956 0.15063 0.43871 0.0
C638 C 0.73335 0.13909 0.43648 0.0
C639 C 0.73641 0.12318 0.45445 0.0
C640 C 0.69506 0.11783 0.47235 0.0
C641 C 0.65155 0.12895 0.4731 0.0
C642 C 0.64892 0.14534 0.45771 0.0
C643 C 0.59946 0.15554 0.46548 0.0
C644 C 0.61221 0.17417 0.47988 0.0
C645 C 0.56458 0.15787 0.43812 0.0
C646 C 0.57528 0.14224 0.48753 0.0
C647 C 0.60562 0.12681 0.49079 0.0
C648 C 0.59186 0.11235 0.50933 0.0
C649 C 0.54652 0.11393 0.52597 0.0
C650 C 0.51613 0.13005 0.52446 0.0
C651 C 0.53025 0.14427 0.5046 0.0
H652 H 0.73124 0.89779 0.96969 0.0
H653 H 0.68195 0.85066 0.91778 0.0
H654 H 0.60219 0.84805 0.94803 0.0
H655 H 0.6859 0.88284 0.03886 0.0
H656 H 0.66354 0.90502 0.05092 0.0
H657 H 0.71617 0.90349 0.02485 0.0
H658 H 0.66564 0.92398 0.98795 0.0
H659 H 0.61296 0.92571 0.01402 0.0
H660 H 0.60056 0.91749 0.97708 0.0
H661 H 0.53255 0.84911 0.98586 0.0
H662 H 0.47186 0.85513 0.02668 0.0
H663 H 0.56155 0.90349 0.05152 0.0
C664 C 0.70309 0.88718 0.96427 0.0
C665 C 0.71253 0.87439 0.94145 0.0
C666 C 0.6755 0.86044 0.93542 0.0
C667 C 0.63011 0.85892 0.95234 0.0
C668 C 0.62215 0.87169 0.97481 0.0
C669 C 0.65714 0.88572 0.98054 0.0
C670 C 0.63919 0.8976 0.00603 0.0
C671 C 0.67855 0.8972 0.03168 0.0
C672 C 0.62897 0.91737 -0.00436 0.0
C673 C 0.58906 0.8878 0.01415 0.0
C674 C 0.58033 0.87283 -0.00409 0.0
C675 C 0.53849 0.86092 2e-05 0.0
C676 C 0.5045 0.86441 0.02336 0.0
C677 C 0.51212 0.8798 0.04209 0.0
C678 C 0.55464 0.89177 0.03726 0.0
H679 H 0.7358 0.1531 0.96788 0.0
H680 H 0.65097 0.10698 0.00534 0.0
H681 H 0.71785 0.10398 0.04435 0.0
H682 H 0.85992 0.13714 0.97864 0.0
H683 H 0.88852 0.15891 0.98892 0.0
H684 H 0.83196 0.15829 0.96551 0.0
H685 H 0.78269 0.17921 0.00223 0.0
H686 H 0.83939 0.18003 0.02571 0.0
H687 H 0.77771 0.17255 0.04052 0.0
H688 H 0.80045 0.10336 0.07441 0.0
H689 H 0.88802 0.10739 0.0967 0.0
H690 H 0.91277 0.15599 0.04288 0.0
C691 C 0.73057 0.14272 0.98479 0.0
C692 C 0.68881 0.13012 0.98349 0.0
C693 C 0.68349 0.11652 0.0057 0.0
C694 C 0.72095 0.11481 0.02803 0.0
C695 C 0.76253 0.12717 0.02826 0.0
C696 C 0.76688 0.14113 0.00761 0.0
C697 C 0.81598 0.15229 0.01218 0.0
C698 C 0.85115 0.1516 0.98468 0.0
C699 C 0.80316 0.1722 0.02068 0.0
C700 C 0.83955 0.142 0.03788 0.0
C701 C 0.8083 0.12752 0.04686 0.0
C702 C 0.82466 0.11495 0.06818 0.0
C703 C 0.87436 0.11727 0.08059 0.0
C704 C 0.90638 0.13219 0.07187 0.0
C705 C 0.88834 0.14478 0.05057 0.0
H706 H 0.0558 0.16501 0.46016 0.0
H707 H 0.96675 0.1188 0.49396 0.0
H708 H 0.02577 0.11709 0.53731 0.0
H709 H 0.17556 0.14608 0.47554 0.0
H710 H 0.20738 0.16755 0.48433 0.0
H711 H 0.15265 0.16725 0.45961 0.0
H712 H 0.10569 0.19083 0.49305 0.0
H713 H 0.16026 0.19099 0.51815 0.0
H714 H 0.09594 0.18569 0.53164 0.0
H715 H 0.0976 0.11927 0.57485 0.0
H716 H 0.18389 0.12135 0.59886 0.0
H717 H 0.22985 0.16386 0.53686 0.0
C718 C 0.04805 0.15484 0.47712 0.0
C719 C 0.00651 0.14223 0.47424 0.0
C720 C -0.00164 0.12864 0.4961 0.0
C721 C 0.03128 0.12771 0.52083 0.0
C722 C 0.07228 0.14033 0.52296 0.0
C723 C 0.08121 0.15344 0.50139 0.0
C724 C 0.13213 0.16351 0.50632 0.0
C725 C 0.16909 0.16093 0.4799 0.0
C726 C 0.12293 0.18397 0.51267 0.0
C727 C 0.15141 0.15364 0.53355 0.0
C728 C 0.11554 0.14077 0.54342 0.0
C729 C 0.12582 0.12936 0.56741 0.0
C730 C 0.17484 0.13061 0.58085 0.0
C731 C 0.21328 0.14275 0.56963 0.0
C732 C 0.20078 0.15479 0.54633 0.0
H733 H 0.29244 0.84708 0.53839 0.0
H734 H 0.3202 0.89328 0.59676 0.0
H735 H 0.40654 0.89826 0.57402 0.0
H736 H 0.43318 0.83127 0.5347 0.0
H737 H 0.42586 0.82513 0.49631 0.0
H738 H 0.37126 0.8231 0.5211 0.0
H739 H 0.31705 0.84369 0.48612 0.0
H740 H 0.37151 0.84608 0.46157 0.0
H741 H 0.34114 0.86626 0.4766 0.0
H742 H 0.48067 0.90186 0.53883 0.0
H743 H 0.54152 0.90203 0.49654 0.0
H744 H 0.46737 0.85262 0.46245 0.0
C745 C 0.31782 0.85766 0.54727 0.0
C746 C 0.30029 0.86971 0.56943 0.0
C747 C 0.33347 0.88388 0.57986 0.0
C748 C 0.38246 0.88678 0.56712 0.0
C749 C 0.39786 0.87518 0.54432 0.0
C750 C 0.36699 0.86065 0.53489 0.0
C751 C 0.39025 0.85134 0.50814 0.0
C752 C 0.40609 0.83154 0.51551 0.0
C753 C 0.35276 0.85189 0.48155 0.0
C754 C 0.43748 0.86347 0.50312 0.0
C755 C 0.4415 0.87704 0.52436 0.0
C756 C 0.47883 0.891 0.52252 0.0
C757 C 0.51294 0.89107 0.49834 0.0
C758 C 0.50948 0.87724 0.47644 0.0
C759 C 0.47171 0.86315 0.47921 0.0
H760 H 0.77473 0.66899 0.04176 0.0
H761 H 0.80733 0.62603 0.10524 0.0
H762 H 0.89369 0.62143 0.0827 0.0
H763 H 0.82164 0.64813 0.98272 0.0
H764 H 0.8509 0.66771 0.96465 0.0
H765 H 0.79767 0.67094 0.9897 0.0
H766 H 0.85299 0.69347 0.02124 0.0
H767 H 0.90631 0.69071 -0.00419 0.0
H768 H 0.91584 0.68644 0.03469 0.0
H769 H 0.9653 0.61658 0.04657 0.0
H770 H 0.02323 0.61471 0.00305 0.0
H771 H 0.94631 0.66192 0.9646 0.0
C772 C 0.80131 0.65938 0.0519 0.0
C773 C 0.78503 0.64798 0.07532 0.0
C774 C 0.81971 0.63496 0.08738 0.0
C775 C 0.8687 0.63227 0.07473 0.0
C776 C 0.88263 0.64298 0.05046 0.0
C777 C 0.85055 0.65665 0.03965 0.0
C778 C 0.87207 0.66485 0.01143 0.0
C779 C 0.83326 0.66276 0.98563 0.0
C780 C 0.88775 0.68507 0.01608 0.0
C781 C 0.91932 0.65291 0.00712 0.0
C782 C 0.9251 0.64048 0.02997 0.0
C783 C 0.96228 0.62662 0.02901 0.0
C784 C 0.9946 0.62553 0.00412 0.0
C785 C 0.98953 0.63829 0.98071 0.0
C786 C 0.95183 0.65224 0.98251 0.0
H787 H 0.6823 0.36693 0.04282 0.0
H788 H 0.79753 0.39712 0.99208 0.0
H789 H 0.73636 0.39908 0.95008 0.0
H790 H 0.63211 0.34025 0.97839 0.0
H791 H 0.56638 0.34039 0.9922 0.0
H792 H 0.62039 0.34067 0.01766 0.0
H793 H 0.58399 0.37018 0.04182 0.0
H794 H 0.53036 0.37015 0.01621 0.0
H795 H 0.57205 0.3901 0.01915 0.0
H796 H 0.65894 0.40155 0.91686 0.0
H797 H 0.57423 0.39963 0.89062 0.0
H798 H 0.5133 0.36471 0.96023 0.0
C799 C 0.6948 0.3736 0.02261 0.0
C800 C 0.74382 0.38227 0.02073 0.0
C801 C 0.75939 0.39081 0.99402 0.0
C802 C 0.72512 0.39192 0.97008 0.0
C803 C 0.67618 0.38387 0.97296 0.0
C804 C 0.66151 0.37441 -0.00183 0.0
C805 C 0.60667 0.36693 0.99542 0.0
C806 C 0.60639 0.3458 -0.00406 0.0
C807 C 0.5712 0.37482 0.01958 0.0
C808 C 0.59235 0.37422 0.96518 0.0
C809 C 0.63282 0.3841 0.95271 0.0
C810 C 0.62731 0.39347 0.92599 0.0
C811 C 0.57925 0.39245 0.9114 0.0
C812 C 0.5382 0.38186 0.92341 0.0
C813 C 0.54481 0.3726 0.9505 0.0
H814 H 0.28603 0.38623 0.46077 0.0
H815 H 0.32612 0.3478 0.39138 0.0
H816 H 0.41215 0.34304 0.41507 0.0
H817 H 0.41453 0.40802 0.46338 0.0
H818 H 0.4102 0.412 0.50262 0.0
H819 H 0.35205 0.4117 0.48032 0.0
H820 H 0.31241 0.38644 0.51412 0.0
H821 H 0.37034 0.38662 0.53644 0.0
H822 H 0.3477 0.36544 0.52008 0.0
H823 H 0.4907 0.34091 0.44979 0.0
H824 H 0.55705 0.34348 0.48959 0.0
H825 H 0.46856 0.38712 0.53024 0.0
C826 C 0.31331 0.37721 0.44993 0.0
C827 C 0.29974 0.36757 0.42402 0.0
C828 C 0.33578 0.35526 0.41136 0.0
C829 C 0.38474 0.3526 0.42452 0.0
C830 C 0.39714 0.3627 0.44982 0.0
C831 C 0.3626 0.375 0.46199 0.0
C832 C 0.38491 0.3845 0.48883 0.0
C833 C 0.39078 0.40529 0.48345 0.0
C834 C 0.35188 0.3805 0.51649 0.0
C835 C 0.43712 0.37528 0.4905 0.0
C836 C 0.44349 0.36258 0.46806 0.0
C837 C 0.48671 0.35113 0.46699 0.0
C838 C 0.52404 0.35265 0.48959 0.0
C839 C 0.51814 0.36579 0.51235 0.0
C840 C 0.47465 0.37739 0.51248 0.0
H841 H 0.20253 0.62378 0.44702 0.0
H842 H 0.29312 0.66707 0.48877 0.0
H843 H 0.23198 0.66721 0.53088 0.0
H844 H 0.07702 0.64011 0.46862 0.0
H845 H 0.05025 0.61746 0.47468 0.0
H846 H 0.10157 0.62078 0.44815 0.0
H847 H 0.15672 0.59628 0.47525 0.0
H848 H 0.10579 0.59308 0.50213 0.0
H849 H 0.17069 0.59904 0.51406 0.0
H850 H 0.16131 0.66303 0.56754 0.0
H851 H 0.08091 0.65658 0.5953 0.0
H852 H 0.0366 0.61527 0.53063 0.0
C853 C 0.20918 0.6333 0.46506 0.0
C854 C 0.25195 0.64554 0.46475 0.0
C855 C 0.25989 0.65784 0.48851 0.0
C856 C 0.22581 0.65785 0.51261 0.0
C857 C 0.18438 0.6454 0.51251 0.0
C858 C 0.17564 0.63344 0.4893 0.0
C859 C 0.12732 0.62183 0.49434 0.0
C860 C 0.08664 0.62526 0.47001 0.0
C861 C 0.14097 0.60134 0.49658 0.0
C862 C 0.1098 0.62933 0.52387 0.0
C863 C 0.14365 0.64279 0.534 0.0
C864 C 0.13468 0.65244 0.55998 0.0
C865 C 0.08898 0.64866 0.57558 0.0
C866 C 0.05287 0.63535 0.56514 0.0
C867 C 0.0641 0.62523 0.53938 0.0
H868 H 0.24393 0.39546 0.97054 0.0
H869 H 0.2 0.34691 0.92048 0.0
H870 H 0.11947 0.34408 0.94988 0.0
H871 H 0.19332 0.38175 0.0406 0.0
H872 H 0.16933 0.40419 0.05009 0.0
H873 H 0.22455 0.40205 0.02593 0.0
H874 H 0.17729 0.42127 0.98596 0.0
H875 H 0.12196 0.42354 0.01005 0.0
H876 H 0.11363 0.41418 0.97344 0.0
H877 H 0.04649 0.34585 0.98536 0.0
H878 H 0.98045 0.35325 0.02274 0.0
H879 H 0.06658 0.40258 0.04676 0.0
C880 C 0.21705 0.38435 0.96559 0.0
C881 C 0.22817 0.37128 0.94346 0.0
C882 C 0.19253 0.35682 0.93777 0.0
C883 C 0.14664 0.35519 0.95418 0.0
C884 C 0.13678 0.36833 0.97578 0.0
C885 C 0.17054 0.38277 0.9813 0.0
C886 C 0.14972 0.39533 0.00516 0.0
C887 C 0.18642 0.39585 0.03204 0.0
C888 C 0.14007 0.41473 0.99291 0.0
C889 C 0.09912 0.38557 0.01239 0.0
C890 C 0.09289 0.36993 0.99533 0.0
C891 C 0.0506 0.35813 -0.00133 0.0
C892 C 0.01351 0.36242 0.02004 0.0
C893 C 0.01856 0.3785 0.03748 0.0
C894 C 0.06168 0.39032 0.03346 0.0
H895 H 0.26492 0.62268 0.96076 0.0
H896 H 0.29866 0.66741 0.90027 0.0
H897 H 0.38646 0.67079 0.92273 0.0
H898 H 0.32758 0.63934 0.02258 0.0
H899 H 0.35219 0.61742 0.03453 0.0
H900 H 0.29363 0.61842 0.01285 0.0
H901 H 0.33405 0.59652 0.97411 0.0
H902 H 0.39291 0.59543 -0.00427 0.0
H903 H 0.39568 0.60238 0.95751 0.0
H904 H 0.4665 0.67091 0.95586 0.0
H905 H 0.53294 0.66713 0.99507 0.0
H906 H 0.44927 0.61964 0.02867 0.0
C907 C 0.29122 0.63282 0.95148 0.0
C908 C 0.2754 0.64461 0.92847 0.0
C909 C 0.31019 0.65826 0.91794 0.0
C910 C 0.36011 0.66015 0.93038 0.0
C911 C 0.37464 0.64801 0.9528 0.0
C912 C 0.34128 0.63446 0.9629 0.0
C913 C 0.36519 0.62335 0.98757 0.0
C914 C 0.33272 0.62473 0.01605 0.0
C915 C 0.37239 0.60323 0.97816 0.0
C916 C 0.41683 0.63315 0.99063 0.0
C917 C 0.42167 0.64736 0.97044 0.0
C918 C 0.46372 0.65955 0.97123 0.0
C919 C 0.50115 0.65731 0.99353 0.0
C920 C 0.4965 0.64286 0.01436 0.0
C921 C 0.45452 0.63041 0.01239 0.0
H922 H 0.58495 0.62416 0.42685 0.0
H923 H 0.5009 0.67193 0.45785 0.0
H924 H 0.56966 0.67822 0.49436 0.0
H925 H 0.63472 0.60963 0.49657 0.0
H926 H 0.69789 0.60328 0.4829 0.0
H927 H 0.64217 0.60232 0.45875 0.0
H928 H 0.68916 0.62378 0.42146 0.0
H929 H 0.74512 0.62474 0.44547 0.0
H930 H 0.71413 0.64568 0.43385 0.0
H931 H 0.64214 0.67778 0.5305 0.0
H932 H 0.71967 0.67222 0.5613 0.0
H933 H 0.76436 0.62775 0.50291 0.0
C934 C 0.58139 0.63595 0.44127 0.0
C935 C 0.53775 0.64756 0.43958 0.0
C936 C 0.53431 0.66295 0.45864 0.0
C937 C 0.57302 0.66663 0.47954 0.0
C938 C 0.61555 0.655 0.48073 0.0
C939 C 0.62062 0.64017 0.46185 0.0
C940 C 0.67117 0.63018 0.46761 0.0
C941 C 0.66084 0.61017 0.47702 0.0
C942 C 0.70701 0.63116 0.44048 0.0
C943 C 0.69273 0.6415 0.49303 0.0
C944 C 0.65971 0.65562 0.50041 0.0
C945 C 0.66909 0.66705 0.52456 0.0
C946 C 0.71344 0.66389 0.54178 0.0
C947 C 0.7483 0.64967 0.5344 0.0
C948 C 0.73816 0.63861 0.50932 0.0
H949 H 0.00282 0.39167 0.48478 0.0
H950 H 0.98809 0.33903 0.43979 0.0
H951 H 0.9208 0.32951 0.47451 0.0
H952 H 0.97805 0.37269 0.56076 0.0
H953 H 0.94118 0.39246 0.57201 0.0
H954 H 0.99306 0.395 0.54549 0.0
H955 H 0.92902 0.40994 0.50844 0.0
H956 H 0.87713 0.40746 0.53483 0.0
H957 H 0.87023 0.39779 0.49836 0.0
H958 H 0.84638 0.32737 0.50673 0.0
H959 H 0.77056 0.33206 0.538 0.0
H960 H 0.83651 0.3836 0.56936 0.0
C961 C 0.9859 0.37807 0.48258 0.0
C962 C 0.001 0.36618 0.45942 0.0
C963 C 0.97763 0.34849 0.45724 0.0
C964 C 0.9393 0.34283 0.47698 0.0
C965 C 0.92491 0.35483 0.49924 0.0
C966 C 0.94758 0.37199 0.50255 0.0
C967 C 0.92207 0.38237 0.52772 0.0
C968 C 0.96092 0.38583 0.553 0.0
C969 C 0.8982 0.40046 0.51667 0.0
C970 C 0.88024 0.36863 0.53682 0.0
C971 C 0.88302 0.35286 0.52003 0.0
C972 C 0.84486 0.33925 0.52106 0.0
C973 C 0.80201 0.34194 0.53937 0.0
C974 C 0.7982 0.35785 0.5572 0.0
C975 C 0.83875 0.37112 0.55643 0.0
H976 H 0.15294 0.0397 0.06149 0.0
H977 H 0.16241 0.05519 0.15389 0.0
H978 H 0.22616 0.03041 0.16258 0.0
H979 H 0.16095 0.99099 0.07236 0.0
H980 H 0.19972 0.98729 0.03977 0.0
H981 H 0.15523 1.00626 0.04114 0.0
H982 H 0.23075 0.02885 0.02916 0.0
H983 H 0.27548 0.00995 0.02777 0.0
H984 H 0.28804 0.02904 0.0522 0.0
H985 H 0.28828 1.00322 0.16092 0.0
H986 H 0.34435 0.97673 0.14879 0.0
H987 H 0.29388 0.97966 0.05741 0.0
C988 C 0.16834 0.03786 0.08359 0.0
C989 C 0.15322 0.0495 0.10696 0.0
C990 C 0.17432 0.04669 0.13553 0.0
C991 C 0.21025 0.03256 0.1407 0.0
C992 C 0.22466 0.02141 0.11704 0.0
C993 C 0.2044 0.02397 0.08903 0.0
C994 C 0.2263 0.0103 0.06726 0.0
C995 C 0.18297 0.99798 0.05439 0.0
C996 C 0.25697 0.02012 0.04265 0.0
C997 C 0.26198 0.99954 0.08736 0.0
C998 C 0.26042 1.00606 0.11604 0.0
C999 C 0.28969 0.99801 0.13853 0.0
C1000 C 0.32115 0.98291 0.1315 0.0
C1001 C 0.32311 0.97607 0.10224 0.0
C1002 C 0.29339 0.98465 0.07996 0.0
H1003 H 0.74987 0.96961 0.44475 0.0
H1004 H 0.68031 0.96769 0.35747 0.0
H1005 H 0.72907 0.99588 0.34358 0.0
H1006 H 0.74413 0.01697 0.45442 0.0
H1007 H 0.80547 0.01901 0.47355 0.0
H1008 H 0.76909 0.99784 0.47529 0.0
H1009 H 0.84879 0.98009 0.45544 0.0
H1010 H 0.88553 1.00125 0.45367 0.0
H1011 H 0.87852 0.98714 0.42115 0.0
H1012 H 0.77752 0.02667 0.34188 0.0
H1013 H 0.82307 0.05587 0.35158 0.0
H1014 H 0.86562 0.03623 0.43892 0.0
C1015 C 0.74558 0.97495 0.42253 0.0
C1016 C 0.71183 0.96635 0.40206 0.0
C1017 C 0.70687 0.97381 0.37329 0.0
C1018 C 0.73421 0.98989 0.36528 0.0
C1019 C 0.76685 0.99816 0.38617 0.0
C1020 C 0.77306 0.99076 0.4141 0.0
C1021 C 0.8086 1.00258 0.43298 0.0
C1022 C 0.78011 0.00951 0.46068 0.0
C1023 C 0.85831 0.99214 0.44129 0.0
C1024 C 0.82026 0.0181 0.41167 0.0
C1025 C 0.79605 0.01535 0.38475 0.0
C1026 C 0.79788 0.0287 0.3626 0.0
C1027 C 0.82461 0.04529 0.36824 0.0
C1028 C 0.84975 0.04839 0.39576 0.0
C1029 C 0.8478 0.03434 0.41742 0.0
H1030 H 0.68203 0.04435 0.92459 0.0
H1031 H 0.58695 0.03199 0.84796 0.0
H1032 H 0.64375 1.00555 0.83609 0.0
H1033 H 0.80714 0.03256 0.89026 0.0
H1034 H 0.83302 0.02311 0.92401 0.0
H1035 H 0.78619 0.04139 0.92547 0.0
H1036 H 0.72665 0.02138 0.95887 0.0
H1037 H 0.77328 1.00309 0.95756 0.0
H1038 H 0.70691 0.99884 0.94645 0.0
H1039 H 0.70424 0.97843 0.83684 0.0
H1040 H 0.76676 0.95409 0.84739 0.0
H1041 H 0.82978 0.98627 0.9201 0.0
C1042 C 0.67367 0.0361 0.90521 0.0
C1043 C 0.63033 0.0399 0.88719 0.0
C1044 C 0.62015 0.02907 0.86192 0.0
C1045 C 0.65218 0.01413 0.85506 0.0
C1046 C 0.69459 0.01056 0.87343 0.0
C1047 C 0.7058 0.0214 0.89775 0.0
C1048 C 0.7531 0.01447 0.91419 0.0
C1049 C 0.79749 0.02874 0.91342 0.0
C1050 C 0.73912 0.00913 0.94615 0.0
C1051 C 0.76599 0.99775 0.89579 0.0
C1052 C 0.73175 0.99569 0.87246 0.0
C1053 C 0.73264 0.98026 0.8543 0.0
C1054 C 0.76932 0.96655 0.8602 0.0
C1055 C 0.80573 0.96853 0.88363 0.0
C1056 C 0.80382 0.98449 0.90142 0.0
H1057 H 0.18534 0.97002 0.54373 0.0
H1058 H 0.1566 0.96027 0.63692 0.0
H1059 H 0.20799 0.98804 0.64935 0.0
H1060 H 0.31575 0.98654 0.5507 0.0
H1061 H 0.30891 1.00359 0.52207 0.0
H1062 H 0.2702 0.98289 0.52089 0.0
H1063 H 0.18617 1.00232 0.51859 0.0
H1064 H 0.22463 0.02309 0.51976 0.0
H1065 H 0.1743 0.01925 0.5468 0.0
H1066 H 0.26503 0.01725 0.65121 0.0
H1067 H 0.32009 0.04466 0.64218 0.0
H1068 H 0.30678 0.03552 0.54766 0.0
C1069 C 0.18962 0.97369 0.56681 0.0
C1070 C 0.16774 0.96261 0.58934 0.0
C1071 C 0.17433 0.96805 0.61922 0.0
C1072 C 0.20305 0.98398 0.6265 0.0
C1073 C 0.22461 0.99444 0.60367 0.0
C1074 C 0.21793 0.98949 0.57441 0.0
C1075 C 0.24471 1.00296 0.55386 0.0
C1076 C 0.28743 0.99342 0.53583 0.0
C1077 C 0.20508 0.01246 0.53356 0.0
C1078 C 0.26774 0.01628 0.57606 0.0
C1079 C 0.25584 0.01122 0.6047 0.0
C1080 C 0.27395 0.02142 0.62881 0.0
C1081 C 0.30486 0.03715 0.62344 0.0
C1082 C 0.31711 0.04261 0.59417 0.0
C1083 C 0.29817 0.03187 0.57035 0.0
H1084 H 0.76607 0.46876 0.08213 0.0
H1085 H 0.9118 0.49362 0.10966 0.0
H1086 H 0.86635 0.52284 0.11996 0.0
H1087 H 0.72214 0.50691 0.04301 0.0
H1088 H 0.65441 0.50392 0.05221 0.0
H1089 H 0.69669 0.48435 0.0514 0.0
H1090 H 0.67134 0.47643 0.10536 0.0
H1091 H 0.62886 0.49602 0.10633 0.0
H1092 H 0.67917 0.49356 0.13383 0.0
H1093 H 0.80648 0.54986 0.12342 0.0
H1094 H 0.739 0.57327 0.11605 0.0
H1095 H 0.63226 0.53121 0.0845 0.0
C1096 C 0.78791 0.48022 0.09121 0.0
C1097 C 0.84202 0.47895 0.09591 0.0
C1098 C 0.8701 0.49438 0.10643 0.0
C1099 C 0.84459 0.51095 0.11242 0.0
C1100 C 0.79112 0.51187 0.10738 0.0
C1101 C 0.76314 0.49695 0.0968 0.0
C1102 C 0.70731 0.5021 0.09016 0.0
C1103 C 0.69442 0.49915 0.05725 0.0
C1104 C 0.66943 0.49139 0.11012 0.0
C1105 C 0.7085 0.52234 0.09804 0.0
C1106 C 0.7569 0.52762 0.10848 0.0
C1107 C 0.76815 0.54582 0.1158 0.0
C1108 C 0.72926 0.55904 0.11182 0.0
C1109 C 0.6798 0.55402 0.10044 0.0
C1110 C 0.66937 0.53538 0.09377 0.0
H1111 H 0.34422 0.53843 0.44074 0.0
H1112 H 0.30309 0.55663 0.35243 0.0
H1113 H 0.24387 0.53007 0.34718 0.0
H1114 H 0.3469 0.49029 0.42309 0.0
H1115 H 0.32102 0.48319 0.45833 0.0
H1116 H 0.35848 0.50412 0.45553 0.0
H1117 H 0.2823 0.52229 0.47857 0.0
H1118 H 0.24457 0.50141 0.4814 0.0
H1119 H 0.21867 0.52091 0.46185 0.0
H1120 H 0.18796 0.50123 0.35187 0.0
H1121 H 0.14362 0.47221 0.36527 0.0
H1122 H 0.22556 0.47189 0.4492 0.0
C1123 C 0.32271 0.5369 0.42028 0.0
C1124 C 0.3273 0.55008 0.39739 0.0
C1125 C 0.29882 0.54732 0.37087 0.0
C1126 C 0.26542 0.53207 0.36751 0.0
C1127 C 0.26132 0.51952 0.39071 0.0
C1128 C 0.28952 0.52172 0.4165 0.0
C1129 C 0.27928 0.50604 0.43782 0.0
C1130 C 0.3294 0.49527 0.44405 0.0
C1131 C 0.25474 0.51309 0.46661 0.0
C1132 C 0.24082 0.49467 0.42004 0.0
C1133 C 0.23081 0.50268 0.39295 0.0
C1134 C 0.1961 0.49473 0.37287 0.0
C1135 C 0.17147 0.47809 0.38056 0.0
C1136 C 0.18206 0.46942 0.40796 0.0
C1137 C 0.21678 0.47806 0.42799 0.0
H1138 H 0.3566 0.48595 0.91198 0.0
H1139 H 0.25761 0.45437 0.85276 0.0
H1140 H 0.19819 0.48055 0.84871 0.0
H1141 H 0.2547 0.50335 0.95288 0.0
H1142 H 0.28439 0.52545 0.95982 0.0
H1143 H 0.32456 0.50571 0.95354 0.0
H1144 H 0.37112 0.52261 0.9105 0.0
H1145 H 0.33136 0.54251 0.91683 0.0
H1146 H 0.33312 0.53209 0.88071 0.0
H1147 H 0.14513 0.50957 0.85451 0.0
H1148 H 0.10173 0.53791 0.87201 0.0
H1149 H 0.23135 0.54878 0.93097 0.0
C1150 C 0.32319 0.48469 0.89748 0.0
C1151 C 0.31333 0.4683 0.88166 0.0
C1152 C 0.26808 0.46703 0.86378 0.0
C1153 C 0.23348 0.48181 0.86165 0.0
C1154 C 0.24415 0.49766 0.87791 0.0
C1155 C 0.28787 0.49912 0.8956 0.0
C1156 C 0.28767 0.51666 0.91352 0.0
C1157 C 0.28781 0.51253 0.9469 0.0
C1158 C 0.33354 0.52921 0.90486 0.0
C1159 C 0.23641 0.52466 0.90368 0.0
C1160 C 0.21225 0.51374 0.88269 0.0
C1161 C 0.16388 0.51828 0.87079 0.0
C1162 C 0.13956 0.53435 0.88078 0.0
C1163 C 0.16335 0.54537 0.90277 0.0
C1164 C 0.21235 0.54048 0.91419 0.0
H1165 H 0.81058 0.53705 0.54288 0.0
H1166 H 0.83732 0.54401 0.63693 0.0
H1167 H 0.79071 0.51486 0.64665 0.0
H1168 H 0.6829 0.51722 0.54776 0.0
H1169 H 0.69307 0.50136 0.51777 0.0
H1170 H 0.72774 0.52294 0.51852 0.0
H1171 H 0.81531 0.50566 0.51494 0.0
H1172 H 0.78091 0.48401 0.51425 0.0
H1173 H 0.83037 0.48816 0.54178 0.0
H1174 H 0.73959 0.48469 0.64586 0.0
H1175 H 0.68977 0.45644 0.63458 0.0
H1176 H 0.70084 0.46868 0.54089 0.0
C1177 C 0.80661 0.53248 0.56556 0.0
C1178 C 0.82645 0.54315 0.58918 0.0
C1179 C 0.82079 0.53654 0.61849 0.0
C1180 C 0.79488 0.51983 0.62422 0.0
C1181 C 0.77529 0.50977 0.60039 0.0
C1182 C 0.78107 0.51585 0.57163 0.0
C1183 C 0.75694 0.50247 0.54986 0.0
C1184 C 0.71252 0.51154 0.53246 0.0
C1185 C 0.79836 0.49461 0.52898 0.0
C1186 C 0.73647 0.48792 0.57084 0.0
C1187 C 0.74743 0.49232 0.59989 0.0
C1188 C 0.73144 0.48101 0.62313 0.0
C1189 C 0.7036 0.46482 0.61647 0.0
C1190 C 0.69232 0.45999 0.58678 0.0
C1191 C 0.70901 0.47184 0.56383 0.0
H1192 H 0.9813 0.304 0.14539 0.0
H1193 H 0.88646 0.3065 0.06607 0.0
H1194 H 0.90839 0.27419 0.0549 0.0
H1195 H 0.08266 0.2768 0.11641 0.0
H1196 H 0.09196 0.26351 0.14962 0.0
H1197 H 0.06748 0.28658 0.15194 0.0
H1198 H 0.98648 0.27486 0.1805 0.0
H1199 H 0.01108 0.25179 0.17865 0.0
H1200 H 0.94692 0.25677 0.1648 0.0
H1201 H 0.9458 0.24208 0.05083 0.0
H1202 H 0.98676 0.21171 0.05725 0.0
H1203 H 0.05439 0.23003 0.14023 0.0
C1204 C 0.96465 0.29771 0.12583 0.0
C1205 C 0.9322 0.3078 0.10657 0.0
C1206 C 0.91114 0.29902 0.08124 0.0
C1207 C 0.92366 0.28071 0.07462 0.0
C1208 C 0.9568 0.27129 0.09372 0.0
C1209 C 0.97624 0.27941 0.11909 0.0
C1210 C 0.01049 0.26627 0.13619 0.0
C1211 C 0.06646 0.27374 0.13867 0.0
C1212 C 0.98734 0.26218 0.16685 0.0
C1213 C 0.00783 0.24954 0.11633 0.0
C1214 C 0.97703 0.25274 0.09182 0.0
C1215 C 0.96965 0.23939 0.07007 0.0
C1216 C 0.99338 0.22221 0.07382 0.0
C1217 C 0.02375 0.21843 0.09927 0.0
C1218 C 0.03134 0.23242 0.12056 0.0
H1219 H 0.46611 0.80073 0.16005 0.0
H1220 H 0.41313 0.8082 0.06972 0.0
H1221 H 0.44651 0.77751 0.05681 0.0
H1222 H 0.58287 0.77742 0.14413 0.0
H1223 H 0.57827 0.76153 0.1746 0.0
H1224 H 0.54873 0.78382 0.1773 0.0
H1225 H 0.45952 0.76871 0.18892 0.0
H1226 H 0.48898 0.74637 0.18678 0.0
H1227 H 0.43329 0.75161 0.16411 0.0
H1228 H 0.49235 0.74722 0.05272 0.0
H1229 H 0.53487 0.71722 0.05933 0.0
H1230 H 0.55356 0.72845 0.15302 0.0
C1231 C 0.46088 0.79579 0.13766 0.0
C1232 C 0.43707 0.80688 0.11587 0.0
C1233 C 0.43089 0.79992 0.08683 0.0
C1234 C 0.4501 0.78255 0.07923 0.0
C1235 C 0.47465 0.77219 0.10102 0.0
C1236 C 0.47903 0.77835 0.12981 0.0
C1237 C 0.50625 0.76433 0.14912 0.0
C1238 C 0.55704 0.77225 0.16204 0.0
C1239 C 0.46983 0.75734 0.17368 0.0
C1240 C 0.51711 0.74943 0.1266 0.0
C1241 C 0.49914 0.75436 0.09892 0.0
C1242 C 0.50606 0.74312 0.07436 0.0
C1243 C 0.53068 0.72615 0.07831 0.0
C1244 C 0.54749 0.72044 0.10671 0.0
C1245 C 0.54103 0.73239 0.13106 0.0
H1246 H 0.53229 0.79879 0.4068 0.0
H1247 H 0.56274 0.80593 0.31306 0.0
H1248 H 0.52667 0.77509 0.3033 0.0
H1249 H 0.56456 0.75068 0.41026 0.0
H1250 H 0.51382 0.745 0.43623 0.0
H1251 H 0.54186 0.76775 0.43596 0.0
H1252 H 0.45004 0.78154 0.42905 0.0
H1253 H 0.42178 0.7588 0.42892 0.0
H1254 H 0.4103 0.77415 0.39835 0.0
H1255 H 0.49008 0.74352 0.30337 0.0
H1256 H 0.45796 0.71216 0.31358 0.0
H1257 H 0.44732 0.72504 0.40694 0.0
C1258 C 0.53165 0.79381 0.38425 0.0
C1259 C 0.5505 0.80482 0.36068 0.0
C1260 C 0.5486 0.79782 0.33148 0.0
C1261 C 0.52799 0.78032 0.32568 0.0
C1262 C 0.50905 0.76996 0.34926 0.0
C1263 C 0.51079 0.77634 0.37799 0.0
C1264 C 0.48832 0.76218 0.39924 0.0
C1265 C 0.52961 0.75604 0.42175 0.0
C1266 C 0.43972 0.76962 0.41481 0.0
C1267 C 0.47428 0.74678 0.37795 0.0
C1268 C 0.48652 0.75168 0.34923 0.0
C1269 C 0.47985 0.73958 0.3257 0.0
C1270 C 0.46148 0.72183 0.3317 0.0
C1271 C 0.44944 0.71632 0.36092 0.0
C1272 C 0.45492 0.72908 0.38431 0.0
H1273 H 0.0636 0.2949 0.39943 0.0
H1274 H -0.00026 0.3125 0.31537 0.0
H1275 H 0.95818 0.2821 0.3088 0.0
H1276 H 0.08536 0.24621 0.37925 0.0
H1277 H 0.06563 0.2379 0.41509 0.0
H1278 H 0.0953 0.2603 0.41156 0.0
H1279 H 0.01577 0.27469 0.43764 0.0
H1280 H 0.98544 0.25239 0.44077 0.0
H1281 H 0.95155 0.27086 0.42268 0.0
H1282 H 0.9195 0.25068 0.31241 0.0
H1283 H 0.88835 0.21954 0.32521 0.0
H1284 H 0.97317 0.22243 0.40818 0.0
C1285 C 0.0422 0.29209 0.37927 0.0
C1286 C 0.03552 0.30588 0.35762 0.0
C1287 C 0.0057 0.302 0.33201 0.0
C1288 C 0.98185 0.28481 0.32813 0.0
C1289 C 0.98768 0.27168 0.35025 0.0
C1290 C 0.01727 0.27502 0.37527 0.0
C1291 C 0.01439 0.25885 0.39644 0.0
C1292 C 0.06838 0.25031 0.40083 0.0
C1293 C 0.99035 0.26454 0.42614 0.0
C1294 C 0.97835 0.24602 0.37946 0.0
C1295 C 0.96371 0.25368 0.35281 0.0
C1296 C 0.93078 0.2445 0.33319 0.0
C1297 C 0.91311 0.22684 0.34071 0.0
C1298 C 0.92797 0.21857 0.36776 0.0
C1299 C 0.96058 0.22845 0.3875 0.0
H1300 H 0.92998 0.79115 0.83642 0.0
H1301 H 0.92721 0.80336 0.93038 0.0
H1302 H 0.96396 0.77288 0.94103 0.0
H1303 H 0.8944 0.74252 0.84394 0.0
H1304 H 0.9359 0.73552 0.81398 0.0
H1305 H 0.9077 0.7581 0.81385 0.0
H1306 H -0.00023 0.77246 0.80869 0.0
H1307 H 0.02831 0.74994 0.80928 0.0
H1308 H 0.04905 0.76706 0.83566 0.0
H1309 H 0.00721 0.74229 0.9414 0.0
H1310 H 0.04297 0.71153 0.93212 0.0
H1311 H 0.01425 0.71829 0.8381 0.0
C1312 C 0.93644 0.78732 0.85926 0.0
C1313 C 0.92585 0.7997 0.88255 0.0
C1314 C 0.93484 0.79413 0.91214 0.0
C1315 C 0.956 0.77688 0.91843 0.0
C1316 C 0.96738 0.76524 0.89493 0.0
C1317 C 0.95702 0.77004 0.86598 0.0
C1318 C 0.9725 0.75485 0.84489 0.0
C1319 C 0.92478 0.7473 0.82819 0.0
C1320 C 0.01493 0.76148 0.82336 0.0
C1321 C 0.99366 0.74085 0.86653 0.0
C1322 C 0.99082 0.74724 0.89523 0.0
C1323 C 0.00917 0.73705 0.91905 0.0
C1324 C 0.02977 0.71962 0.9135 0.0
C1325 C 0.0313 0.71246 0.88438 0.0
C1326 C 0.01348 0.72336 0.8606 0.0
H1327 H 0.5566 0.21955 0.8445 0.0
H1328 H 0.51052 0.20546 0.93403 0.0
H1329 H 0.4752 0.23664 0.94064 0.0
H1330 H 0.59506 0.26695 0.86082 0.0
H1331 H 0.57138 0.27544 0.82589 0.0
H1332 H 0.59465 0.25222 0.82879 0.0
H1333 H 0.50672 0.24019 0.8081 0.0
H1334 H 0.48291 0.26334 0.80555 0.0
H1335 H 0.44708 0.24636 0.82638 0.0
H1336 H 0.43905 0.26861 0.93618 0.0
H1337 H 0.41409 0.30032 0.92306 0.0
H1338 H 0.48669 0.29385 0.83716 0.0
C1339 C 0.53969 0.22308 0.86563 0.0
C1340 C 0.53625 0.21004 0.88872 0.0
C1341 C 0.51382 0.21523 0.91605 0.0
C1342 C 0.49338 0.23288 0.91997 0.0
C1343 C 0.4962 0.24524 0.89649 0.0
C1344 C 0.51959 0.24069 0.87004 0.0
C1345 C 0.51779 0.25653 0.84835 0.0
C1346 C 0.573 0.26318 0.84051 0.0
C1347 C 0.48677 0.25128 0.82045 0.0
C1348 C 0.4892 0.27064 0.86662 0.0
C1349 C 0.47671 0.26382 0.89424 0.0
C1350 C 0.44906 0.27417 0.91472 0.0
C1351 C 0.43477 0.29212 0.907 0.0
C1352 C 0.44861 0.29958 0.87914 0.0
C1353 C 0.47578 0.28857 0.85868 0.0
H1354 H 0.46265 0.21556 0.57726 0.0
H1355 H 0.43588 0.20758 0.6712 0.0
H1356 H 0.47802 0.23736 0.68156 0.0
H1357 H 0.58782 0.23666 0.58368 0.0
H1358 H 0.57796 0.25301 0.5543 0.0
H1359 H 0.54413 0.23125 0.55365 0.0
H1360 H 0.45572 0.24795 0.55001 0.0
H1361 H 0.48932 0.26976 0.55021 0.0
H1362 H 0.43942 0.26507 0.57718 0.0
H1363 H 0.52629 0.26714 0.68236 0.0
H1364 H 0.5701 0.29677 0.67317 0.0
H1365 H 0.56499 0.28628 0.57867 0.0
C1366 C 0.46505 0.22019 0.59997 0.0
C1367 C 0.44588 0.20915 0.62341 0.0
C1368 C 0.45011 0.21572 0.65282 0.0
C1369 C 0.47422 0.23261 0.65899 0.0
C1370 C 0.49378 0.24291 0.63552 0.0
C1371 C 0.48891 0.23713 0.60656 0.0
C1372 C 0.51318 0.25101 0.58552 0.0
C1373 C 0.55846 0.24247 0.56827 0.0
C1374 C 0.47195 0.25892 0.56449 0.0
C1375 C 0.53259 0.26541 0.60724 0.0
C1376 C 0.52122 0.26036 0.63596 0.0
C1377 C 0.5352 0.2713 0.65996 0.0
C1378 C 0.56033 0.28811 0.65448 0.0
C1379 C 0.57109 0.29393 0.6252 0.0
C1380 C 0.55761 0.28223 0.60132 0.0
H1381 H 0.96422 0.71715 0.59244 0.0
H1382 H 0.00707 0.70137 0.68171 0.0
H1383 H 0.04969 0.73144 0.68907 0.0
H1384 H 0.08277 0.74082 0.57598 0.0
H1385 H 0.05294 0.75891 0.55481 0.0
H1386 H 0.02243 0.73657 0.55671 0.0
H1387 H 0.93756 0.75121 0.57614 0.0
H1388 H 0.96757 0.77361 0.57389 0.0
H1389 H 0.94004 0.76579 0.60833 0.0
H1390 H 0.0896 0.76267 0.68678 0.0
H1391 H 0.12159 0.79393 0.67549 0.0
H1392 H 0.05636 0.78968 0.58715 0.0
C1393 C 0.98174 0.7202 0.61368 0.0
C1394 C 0.98205 0.70694 0.63658 0.0
C1395 C 0.0063 0.7113 0.66387 0.0
C1396 C 0.03071 0.72835 0.66827 0.0
C1397 C 0.03097 0.74093 0.64511 0.0
C1398 C 0.00697 0.73718 0.61838 0.0
C1399 C 0.01443 0.75306 0.59695 0.0
C1400 C 0.04496 0.74697 0.56949 0.0
C1401 C 0.96177 0.76141 0.58833 0.0
C1402 C 0.04632 0.76624 0.61584 0.0
C1403 C 0.05525 0.75893 0.64355 0.0
C1404 C 0.08292 0.76855 0.66514 0.0
C1405 C 0.10109 0.78629 0.65849 0.0
C1406 C 0.0919 0.79424 0.6304 0.0
C1407 C 0.06472 0.78391 0.60869 0.0
H1408 H 0.05348 0.11579 0.19186 0.0
H1409 H 0.1034 0.17254 0.18189 0.0
H1410 H 0.09769 0.17676 0.23589 0.0
H1411 H 0.95787 0.1243 0.24043 0.0
H1412 H 0.96512 0.10392 0.2627 0.0
H1413 H 0.98536 0.10378 0.22473 0.0
H1414 H 0.07804 0.09389 0.24037 0.0
H1415 H 0.05789 0.09378 0.27854 0.0
H1416 H 0.11344 0.10732 0.26729 0.0
H1417 H 0.07224 0.1765 0.28837 0.0
H1418 H 0.02796 0.17207 0.33596 0.0
H1419 H 0.99179 0.1156 0.3121 0.0
C1420 C 0.06519 0.12889 0.20116 0.0
C1421 C 0.07931 0.14381 0.18281 0.0
C1422 C 0.09271 0.16092 0.19564 0.0
C1423 C 0.08989 0.1634 0.22628 0.0
C1424 C 0.0737 0.14862 0.24367 0.0
C1425 C 0.06184 0.13165 0.23163 0.0
C1426 C 0.03813 0.11886 0.25443 0.0
C1427 C 0.98339 0.11235 0.245 0.0
C1428 C 0.07403 0.1025 0.26052 0.0
C1429 C 0.03592 0.13162 0.28076 0.0
C1430 C 0.0578 0.14857 0.27424 0.0
C1431 C 0.056 0.16319 0.29398 0.0
C1432 C 0.03039 0.16055 0.32089 0.0
C1433 C 0.00645 0.14346 0.32773 0.0
C1434 C 0.01042 0.12871 0.30766 0.0
H1435 H 0.49043 0.90792 0.18822 0.0
H1436 H 0.35964 0.87041 0.19743 0.0
H1437 H 0.37051 0.87071 0.25154 0.0
H1438 H 0.5677 0.88618 0.24038 0.0
H1439 H 0.59781 0.90665 0.25519 0.0
H1440 H 0.57419 0.90647 0.21776 0.0
H1441 H 0.51702 0.93478 0.22899 0.0
H1442 H 0.54044 0.935 0.2666 0.0
H1443 H 0.47155 0.93389 0.25926 0.0
H1444 H 0.40034 0.87174 0.30252 0.0
H1445 H 0.45186 0.87153 0.34835 0.0
H1446 H 0.56639 0.90768 0.30808 0.0
C1447 C 0.46341 0.90022 0.20186 0.0
C1448 C 0.42383 0.8893 0.18895 0.0
C1449 C 0.39004 0.87888 0.20711 0.0
C1450 C 0.39564 0.8791 0.23781 0.0
C1451 C 0.43555 0.88969 0.24998 0.0
C1452 C 0.46921 0.89998 0.23271 0.0
C1453 C 0.5129 0.90812 0.25131 0.0
C1454 C 0.56629 0.90145 0.24052 0.0
C1455 C 0.5103 0.92921 0.25155 0.0
C1456 C 0.49949 0.9002 0.28143 0.0
C1457 C 0.45395 0.88998 0.28008 0.0
C1458 C 0.43549 0.87995 0.30408 0.0
C1459 C 0.46506 0.87988 0.32996 0.0
C1460 C 0.5126 0.88974 0.33168 0.0
C1461 C 0.52942 0.90046 0.30744 0.0
H1462 H 0.97348 0.90224 0.80103 0.0
H1463 H 0.88207 0.85184 0.80275 0.0
H1464 H 0.89741 0.84753 0.74966 0.0
H1465 H 0.93645 0.91683 0.72459 0.0
H1466 H 0.00104 0.92508 0.71617 0.0
H1467 H 0.9773 0.92591 0.75363 0.0
H1468 H 0.05708 0.9073 0.77125 0.0
H1469 H 0.08097 0.90641 0.73392 0.0
H1470 H 0.07061 0.88542 0.75433 0.0
H1471 H 0.92859 0.84648 0.69913 0.0
H1472 H 0.97688 0.84827 0.65244 0.0
H1473 H 0.05014 0.89918 0.68111 0.0
C1474 C 0.95592 0.89055 0.78996 0.0
C1475 C 0.92655 0.87737 0.80588 0.0
C1476 C 0.90496 0.86202 0.79095 0.0
C1477 C 0.91306 0.85952 0.76076 0.0
C1478 C 0.94299 0.87247 0.74575 0.0
C1479 C 0.96428 0.88768 0.75964 0.0
C1480 C -0.00098 0.89843 0.73857 0.0
C1481 C 0.97713 0.91771 0.73291 0.0
C1482 C 0.05524 0.89944 0.75022 0.0
C1483 C 0.99501 0.88652 0.71109 0.0
C1484 C 0.96175 0.87179 0.71583 0.0
C1485 C 0.95413 0.85806 0.69491 0.0
C1486 C 0.98194 0.85917 0.66853 0.0
C1487 C 0.01696 0.87389 0.66322 0.0
C1488 C 0.02282 0.88798 0.68449 0.0
H1489 H 0.53096 0.10591 0.80322 0.0
H1490 H 0.60837 0.15901 0.80813 0.0
H1491 H 0.60141 0.16213 0.75396 0.0
H1492 H 0.5814 0.09182 0.7282 0.0
H1493 H 0.51963 0.08161 0.71842 0.0
H1494 H 0.54103 0.0816 0.7564 0.0
H1495 H 0.45552 0.09758 0.77176 0.0
H1496 H 0.43414 0.09786 0.73393 0.0
H1497 H 0.43804 0.11902 0.75453 0.0
H1498 H 0.57462 0.16185 0.70183 0.0
H1499 H 0.52868 0.15865 0.65453 0.0
H1500 H 0.46519 0.10605 0.68294 0.0
C1501 C 0.54819 0.11787 0.79273 0.0
C1502 C 0.57074 0.13215 0.80969 0.0
C1503 C 0.59125 0.14789 0.79542 0.0
C1504 C 0.58771 0.14972 0.76469 0.0
C1505 C 0.56351 0.1357 0.74869 0.0
C1506 C 0.54421 0.12003 0.76214 0.0
C1507 C 0.51363 0.10825 0.74053 0.0
C1508 C 0.54055 0.08972 0.73559 0.0
C1509 C 0.457 0.10554 0.7508 0.0
C1510 C 0.51669 0.12018 0.71317 0.0
C1511 C 0.54665 0.13573 0.71828 0.0
C1512 C 0.55188 0.14958 0.69735 0.0
C1513 C 0.52524 0.14767 0.6706 0.0
C1514 C 0.49327 0.13207 0.66505 0.0
C1515 C 0.48988 0.11797 0.68641 0.0
H1516 H 0.46235 0.61427 0.3002 0.0
H1517 H 0.35751 0.6607 0.29858 0.0
H1518 H 0.36697 0.66287 0.24462 0.0
H1519 H 0.55003 0.63206 0.25154 0.0
H1520 H 0.56567 0.61103 0.23261 0.0
H1521 H 0.54261 0.61026 0.27008 0.0
H1522 H 0.46763 0.58832 0.25452 0.0
H1523 H 0.49081 0.58887 0.21692 0.0
H1524 H 0.42445 0.5949 0.22497 0.0
H1525 H 0.3989 0.66395 0.19392 0.0
H1526 H 0.44955 0.66302 0.14781 0.0
H1527 H 0.53375 0.61566 0.18038 0.0
C1528 C 0.43996 0.6244 0.28822 0.0
C1529 C 0.40897 0.63725 0.30337 0.0
C1530 C 0.38142 0.65073 0.28727 0.0
C1531 C 0.38629 0.652 0.25662 0.0
C1532 C 0.41873 0.63965 0.24237 0.0
C1533 C 0.44481 0.62597 0.25746 0.0
C1534 C 0.48202 0.61597 0.23716 0.0
C1535 C 0.5384 0.61743 0.24853 0.0
C1536 C 0.4652 0.59582 0.23316 0.0
C1537 C 0.47459 0.62681 0.20886 0.0
C1538 C 0.43727 0.64021 0.21234 0.0
C1539 C 0.42723 0.65323 0.19057 0.0
C1540 C 0.45644 0.65269 0.16458 0.0
C1541 C 0.49506 0.63918 0.16056 0.0
C1542 C 0.50354 0.62585 0.18272 0.0
H1543 H 0.03367 0.36248 0.3035 0.0
H1544 H 0.03631 0.42057 0.32569 0.0
H1545 H 0.99317 0.42753 0.27808 0.0
H1546 H 0.06273 0.36758 0.22779 0.0
H1547 H 0.02085 0.34896 0.21615 0.0
H1548 H 0.04943 0.34866 0.25247 0.0
H1549 H 0.95778 0.34531 0.27569 0.0
H1550 H 0.92878 0.34568 0.23941 0.0
H1551 H 0.90843 0.36195 0.26703 0.0
H1552 H 0.95319 0.42808 0.22727 0.0
H1553 H 0.92182 0.42244 0.17652 0.0
H1554 H 0.94527 0.36385 0.18853 0.0
C1555 C 0.02508 0.3767 0.29855 0.0
C1556 C 0.03832 0.391 0.31835 0.0
C1557 C 0.02644 0.40939 0.31086 0.0
C1558 C 0.00183 0.41347 0.28395 0.0
C1559 C 0.98927 0.39898 0.26501 0.0
C1560 C 0.00056 0.38097 0.272 0.0
C1561 C 0.9848 0.36793 0.24752 0.0
C1562 C 0.03228 0.35769 0.23526 0.0
C1563 C 0.94242 0.35443 0.25805 0.0
C1564 C 0.96354 0.38145 0.22532 0.0
C1565 C 0.96611 0.39927 0.23589 0.0
C1566 C 0.95068 0.41418 0.21884 0.0
C1567 C 0.933 0.41083 0.19003 0.0
C1568 C 0.93108 0.39269 0.17858 0.0
C1569 C 0.94576 0.37784 0.19673 0.0
H1570 H 0.45486 0.40114 0.79028 0.0
H1571 H 0.36708 0.35002 0.79058 0.0
H1572 H 0.38367 0.34633 0.73725 0.0
H1573 H 0.42192 0.41594 0.7125 0.0
H1574 H 0.48696 0.42449 0.70624 0.0
H1575 H 0.45926 0.42528 0.74281 0.0
H1576 H 0.53799 0.40718 0.76318 0.0
H1577 H 0.5657 0.40623 0.72677 0.0
H1578 H 0.55399 0.38529 0.74707 0.0
H1579 H 0.41867 0.34573 0.68712 0.0
H1580 H 0.47305 0.34739 0.6427 0.0
H1581 H 0.5422 0.39843 0.67402 0.0
C1582 C 0.43771 0.38954 0.77878 0.0
C1583 C 0.40912 0.37597 0.79423 0.0
C1584 C 0.38878 0.36059 0.77893 0.0
C1585 C 0.39772 0.35845 0.74867 0.0
C1586 C 0.42733 0.37177 0.73416 0.0
C1587 C 0.44715 0.38703 0.74861 0.0
C1588 C 0.48364 0.39789 0.72875 0.0
C1589 C 0.46161 0.41704 0.72219 0.0
C1590 C 0.53856 0.39921 0.74225 0.0
C1591 C 0.48289 0.38591 0.70136 0.0
C1592 C 0.44916 0.37117 0.70487 0.0
C1593 C 0.44455 0.35735 0.68385 0.0
C1594 C 0.47594 0.35838 0.65878 0.0
C1595 C 0.51187 0.37305 0.65495 0.0
C1596 C 0.51448 0.38724 0.6762 0.0
H1597 H 0.99502 0.65444 0.8191 0.0
H1598 H 0.99506 0.59593 0.83814 0.0
H1599 H 0.95407 0.58983 0.78977 0.0
H1600 H 0.87131 0.65519 0.7769 0.0
H1601 H 0.89624 0.67193 0.75109 0.0
H1602 H 0.91908 0.67189 0.78879 0.0
H1603 H 0.01415 0.66934 0.77033 0.0
H1604 H 0.99167 0.66939 0.73269 0.0
H1605 H 0.03143 0.6508 0.7459 0.0
H1606 H 0.92214 0.58982 0.73748 0.0
H1607 H 0.90377 0.5959 0.68484 0.0
H1608 H 0.92446 0.6544 0.70037 0.0
C1609 C 0.98548 0.64037 0.81342 0.0
C1610 C -0.00191 0.62568 0.83248 0.0
C1611 C 0.98564 0.60743 0.82395 0.0
C1612 C 0.96212 0.60382 0.79657 0.0
C1613 C 0.95103 0.6186 0.77811 0.0
C1614 C 0.96216 0.63652 0.78622 0.0
C1615 C 0.95057 0.64981 0.7614 0.0
C1616 C 0.90667 0.66298 0.77007 0.0
C1617 C -0.00011 0.66045 0.75203 0.0
C1618 C 0.93292 0.6365 0.73772 0.0
C1619 C 0.93268 0.6186 0.74789 0.0
C1620 C 0.92136 0.60381 0.72936 0.0
C1621 C 0.91105 0.6074 0.69948 0.0
C1622 C 0.9125 0.62562 0.68847 0.0
C1623 C 0.9224 0.64033 0.70811 0.0
loop_
_geom_bond_atom_site_label_1
_geom_bond_atom_site_label_2
_geom_bond_distance
_geom_bond_site_symmetry_2
_ccdc_geom_bond_type
Co0 O3 1.970 . S
Co0 N17 1.989 . S
Co0 O25 1.967 . S
Co0 O32 1.920 . S
Co1 O4 1.966 . S
Co1 N10 2.022 . S
Co1 N18 1.993 . S
Co1 O26 1.941 . S
C2 O3 1.258 . S
C2 O4 1.263 . S
O3 Co0 1.970 . S
O3 C2 1.258 . S
O4 Co1 1.966 . S
O4 C2 1.263 . S
C5 O6 1.235 . S
C5 O32 1.289 . S
O6 C5 1.235 . S
C7 C9 1.400 . S
C7 N10 1.351 . S
C7 C12 1.501 . S
C8 C9 1.387 . S
C8 N11 1.341 . S
C9 C7 1.400 . S
C9 C8 1.387 . S
N10 Co1 2.022 . S
N10 C7 1.351 . S
N10 N11 1.365 . S
N11 C8 1.341 . S
N11 N10 1.365 . S
N11 H31 0.862 . S
C12 C7 1.501 . S
C12 H13 0.961 . S
C12 H14 0.961 . S
C12 H15 0.960 . S
H13 C12 0.961 . S
H14 C12 0.961 . S
H15 C12 0.960 . S
C16 N17 1.342 . S
C16 C20 1.401 . S
C16 C21 1.499 . S
N17 Co0 1.989 . S
N17 C16 1.342 . S
N17 N18 1.388 . S
N18 Co1 1.993 . S
N18 N17 1.388 . S
N18 C19 1.346 . S
C19 N18 1.346 . S
C19 C20 1.396 . S
C19 C29 1.510 . S
C20 C16 1.401 . S
C20 C19 1.396 . S
C21 C16 1.499 . S
C21 H22 0.959 . S
C21 H23 0.960 . S
C21 H24 0.961 . S
H22 C21 0.959 . S
H23 C21 0.960 . S
H24 C21 0.961 . S
O25 Co0 1.967 . S
O25 C33 1.258 . S
O26 Co1 1.941 . S
O26 C33 1.266 . S
H27 C29 0.959 . S
H28 C29 0.961 . S
C29 C19 1.510 . S
C29 H27 0.959 . S
C29 H28 0.961 . S
C29 H30 0.960 . S
H30 C29 0.960 . S
H31 N11 0.862 . S
O32 Co0 1.920 . S
O32 C5 1.289 . S
C33 O25 1.258 . S
C33 O26 1.266 . S
Co34 O37 1.970 . S
Co34 N51 1.989 . S
Co34 O59 1.967 . S
Co34 O66 1.920 . S
Co35 O38 1.966 . S
Co35 N44 2.022 . S
Co35 N52 1.993 . S
Co35 O60 1.941 . S
C36 O37 1.258 . S
C36 O38 1.263 . S
O37 Co34 1.970 . S
O37 C36 1.258 . S
O38 Co35 1.966 . S
O38 C36 1.263 . S
C39 O40 1.235 . S
C39 O66 1.289 . S
O40 C39 1.235 . S
C41 C43 1.400 . S
C41 N44 1.351 . S
C41 C46 1.501 . S
C42 C43 1.387 . S
C42 N45 1.341 . S
C43 C41 1.400 . S
C43 C42 1.387 . S
N44 Co35 2.022 . S
N44 C41 1.351 . S
N44 N45 1.365 . S
N45 C42 1.341 . S
N45 N44 1.365 . S
N45 H65 0.862 . S
C46 C41 1.501 . S
C46 H47 0.961 . S
C46 H48 0.961 . S
C46 H49 0.960 . S
H47 C46 0.961 . S
H48 C46 0.961 . S
H49 C46 0.960 . S
C50 N51 1.342 . S
C50 C54 1.401 . S
C50 C55 1.499 . S
N51 Co34 1.989 . S
N51 C50 1.342 . S
N51 N52 1.388 . S
N52 Co35 1.993 . S
N52 N51 1.388 . S
N52 C53 1.346 . S
C53 N52 1.346 . S
C53 C54 1.396 . S
C53 C63 1.510 . S
C54 C50 1.401 . S
C54 C53 1.396 . S
C55 C50 1.499 . S
C55 H56 0.959 . S
C55 H57 0.960 . S
C55 H58 0.961 . S
H56 C55 0.959 . S
H57 C55 0.960 . S
H58 C55 0.961 . S
O59 Co34 1.967 . S
O59 C67 1.258 . S
O60 Co35 1.941 . S
O60 C67 1.266 . S
H61 C63 0.959 . S
H62 C63 0.961 . S
C63 C53 1.510 . S
C63 H61 0.959 . S
C63 H62 0.961 . S
C63 H64 0.960 . S
H64 C63 0.960 . S
H65 N45 0.862 . S
O66 Co34 1.920 . S
O66 C39 1.289 . S
C67 O59 1.258 . S
C67 O60 1.266 . S
Co68 O71 1.970 . S
Co68 N85 1.989 . S
Co68 O93 1.967 . S
Co68 O100 1.920 . S
Co69 O72 1.966 . S
Co69 N78 2.022 . S
Co69 N86 1.993 . S
Co69 O94 1.941 . S
C70 O71 1.258 . S
C70 O72 1.263 . S
O71 Co68 1.970 . S
O71 C70 1.258 . S
O72 Co69 1.966 . S
O72 C70 1.263 . S
C73 O74 1.235 . S
C73 O100 1.289 . S
O74 C73 1.235 . S
C75 C77 1.400 . S
C75 N78 1.351 . S
C75 C80 1.501 . S
C76 C77 1.387 . S
C76 N79 1.341 . S
C77 C75 1.400 . S
C77 C76 1.387 . S
N78 Co69 2.022 . S
N78 C75 1.351 . S
N78 N79 1.365 . S
N79 C76 1.341 . S
N79 N78 1.365 . S
N79 H99 0.862 . S
C80 C75 1.501 . S
C80 H81 0.961 . S
C80 H82 0.961 . S
C80 H83 0.960 . S
H81 C80 0.961 . S
H82 C80 0.961 . S
H83 C80 0.960 . S
C84 N85 1.342 . S
C84 C88 1.401 . S
C84 C89 1.499 . S
N85 Co68 1.989 . S
N85 C84 1.342 . S
N85 N86 1.388 . S
N86 Co69 1.993 . S
N86 N85 1.388 . S
N86 C87 1.346 . S
C87 N86 1.346 . S
C87 C88 1.396 . S
C87 C97 1.510 . S
C88 C84 1.401 . S
C88 C87 1.396 . S
C89 C84 1.499 . S
C89 H90 0.959 . S
C89 H91 0.960 . S
C89 H92 0.961 . S
H90 C89 0.959 . S
H91 C89 0.960 . S
H92 C89 0.961 . S
O93 Co68 1.967 . S
O93 C101 1.258 . S
O94 Co69 1.941 . S
O94 C101 1.266 . S
H95 C97 0.959 . S
H96 C97 0.961 . S
C97 C87 1.510 . S
C97 H95 0.959 . S
C97 H96 0.961 . S
C97 H98 0.960 . S
H98 C97 0.960 . S
H99 N79 0.862 . S
O100 Co68 1.920 . S
O100 C73 1.289 . S
C101 O93 1.258 . S
C101 O94 1.266 . S
Co102 O105 1.970 . S
Co102 N119 1.989 . S
Co102 O127 1.967 . S
Co102 O134 1.920 . S
Co103 O106 1.966 . S
Co103 N112 2.022 . S
Co103 N120 1.993 . S
Co103 O128 1.941 . S
C104 O105 1.258 . S
C104 O106 1.263 . S
O105 Co102 1.970 . S
O105 C104 1.258 . S
O106 Co103 1.966 . S
O106 C104 1.263 . S
C107 O108 1.235 . S
C107 O134 1.289 . S
O108 C107 1.235 . S
C109 C111 1.400 . S
C109 N112 1.351 . S
C109 C114 1.501 . S
C110 C111 1.387 . S
C110 N113 1.341 . S
C111 C109 1.400 . S
C111 C110 1.387 . S
N112 Co103 2.022 . S
N112 C109 1.351 . S
N112 N113 1.365 . S
N113 C110 1.341 . S
N113 N112 1.365 . S
N113 H133 0.862 . S
C114 C109 1.501 . S
C114 H115 0.961 . S
C114 H116 0.961 . S
C114 H117 0.960 . S
H115 C114 0.961 . S
H116 C114 0.961 . S
H117 C114 0.960 . S
C118 N119 1.342 . S
C118 C122 1.401 . S
C118 C123 1.499 . S
N119 Co102 1.989 . S
N119 C118 1.342 . S
N119 N120 1.388 . S
N120 Co103 1.993 . S
N120 N119 1.388 . S
N120 C121 1.346 . S
C121 N120 1.346 . S
C121 C122 1.396 . S
C121 C131 1.510 . S
C122 C118 1.401 . S
C122 C121 1.396 . S
C123 C118 1.499 . S
C123 H124 0.959 . S
C123 H125 0.960 . S
C123 H126 0.961 . S
H124 C123 0.959 . S
H125 C123 0.960 . S
H126 C123 0.961 . S
O127 Co102 1.967 . S
O127 C135 1.258 . S
O128 Co103 1.941 . S
O128 C135 1.266 . S
H129 C131 0.959 . S
H130 C131 0.961 . S
C131 C121 1.510 . S
C131 H129 0.959 . S
C131 H130 0.961 . S
C131 H132 0.960 . S
H132 C131 0.960 . S
H133 N113 0.862 . S
O134 Co102 1.920 . S
O134 C107 1.289 . S
C135 O127 1.258 . S
C135 O128 1.266 . S
Co136 O139 1.970 . S
Co136 N153 1.989 . S
Co136 O161 1.967 . S
Co136 O168 1.920 . S
Co137 O140 1.966 . S
Co137 N146 2.022 . S
Co137 N154 1.993 . S
Co137 O162 1.941 . S
C138 O139 1.258 . S
C138 O140 1.263 . S
O139 Co136 1.970 . S
O139 C138 1.258 . S
O140 Co137 1.966 . S
O140 C138 1.263 . S
C141 O142 1.235 . S
C141 O168 1.289 . S
O142 C141 1.235 . S
C143 C145 1.400 . S
C143 N146 1.351 . S
C143 C148 1.501 . S
C144 C145 1.387 . S
C144 N147 1.341 . S
C145 C143 1.400 . S
C145 C144 1.387 . S
N146 Co137 2.022 . S
N146 C143 1.351 . S
N146 N147 1.365 . S
N147 C144 1.341 . S
N147 N146 1.365 . S
N147 H167 0.862 . S
C148 C143 1.501 . S
C148 H149 0.961 . S
C148 H150 0.961 . S
C148 H151 0.960 . S
H149 C148 0.961 . S
H150 C148 0.961 . S
H151 C148 0.960 . S
C152 N153 1.342 . S
C152 C156 1.401 . S
C152 C157 1.499 . S
N153 Co136 1.989 . S
N153 C152 1.342 . S
N153 N154 1.388 . S
N154 Co137 1.993 . S
N154 N153 1.388 . S
N154 C155 1.346 . S
C155 N154 1.346 . S
C155 C156 1.396 . S
C155 C165 1.510 . S
C156 C152 1.401 . S
C156 C155 1.396 . S
C157 C152 1.499 . S
C157 H158 0.959 . S
C157 H159 0.960 . S
C157 H160 0.961 . S
H158 C157 0.959 . S
H159 C157 0.960 . S
H160 C157 0.961 . S
O161 Co136 1.967 . S
O161 C169 1.258 . S
O162 Co137 1.941 . S
O162 C169 1.266 . S
H163 C165 0.959 . S
H164 C165 0.961 . S
C165 C155 1.510 . S
C165 H163 0.959 . S
C165 H164 0.961 . S
C165 H166 0.960 . S
H166 C165 0.960 . S
H167 N147 0.862 . S
O168 Co136 1.920 . S
O168 C141 1.289 . S
C169 O161 1.258 . S
C169 O162 1.266 . S
Co170 O173 1.970 . S
Co170 N187 1.989 . S
Co170 O195 1.967 . S
Co170 O202 1.920 . S
Co171 O174 1.966 . S
Co171 N180 2.022 . S
Co171 N188 1.993 . S
Co171 O196 1.941 . S
C172 O173 1.258 . S
C172 O174 1.263 . S
O173 Co170 1.970 . S
O173 C172 1.258 . S
O174 Co171 1.966 . S
O174 C172 1.263 . S
C175 O176 1.235 . S
C175 O202 1.289 . S
O176 C175 1.235 . S
C177 C179 1.400 . S
C177 N180 1.351 . S
C177 C182 1.501 . S
C178 C179 1.387 . S
C178 N181 1.341 . S
C179 C177 1.400 . S
C179 C178 1.387 . S
N180 Co171 2.022 . S
N180 C177 1.351 . S
N180 N181 1.365 . S
N181 C178 1.341 . S
N181 N180 1.365 . S
N181 H201 0.862 . S
C182 C177 1.501 . S
C182 H183 0.961 . S
C182 H184 0.961 . S
C182 H185 0.960 . S
H183 C182 0.961 . S
H184 C182 0.961 . S
H185 C182 0.960 . S
C186 N187 1.342 . S
C186 C190 1.401 . S
C186 C191 1.499 . S
N187 Co170 1.989 . S
N187 C186 1.342 . S
N187 N188 1.388 . S
N188 Co171 1.993 . S
N188 N187 1.388 . S
N188 C189 1.346 . S
C189 N188 1.346 . S
C189 C190 1.396 . S
C189 C199 1.510 . S
C190 C186 1.401 . S
C190 C189 1.396 . S
C191 C186 1.499 . S
C191 H192 0.959 . S
C191 H193 0.960 . S
C191 H194 0.961 . S
H192 C191 0.959 . S
H193 C191 0.960 . S
H194 C191 0.961 . S
O195 Co170 1.967 . S
O195 C203 1.258 . S
O196 Co171 1.941 . S
O196 C203 1.266 . S
H197 C199 0.959 . S
H198 C199 0.961 . S
C199 C189 1.510 . S
C199 H197 0.959 . S
C199 H198 0.961 . S
C199 H200 0.960 . S
H200 C199 0.960 . S
H201 N181 0.862 . S
O202 Co170 1.920 . S
O202 C175 1.289 . S
C203 O195 1.258 . S
C203 O196 1.266 . S
Co204 O207 1.970 . S
Co204 N221 1.989 . S
Co204 O229 1.967 . S
Co204 O236 1.920 . S
Co205 O208 1.966 . S
Co205 N214 2.022 . S
Co205 N222 1.993 . S
Co205 O230 1.941 . S
C206 O207 1.258 . S
C206 O208 1.263 . S
O207 Co204 1.970 . S
O207 C206 1.258 . S
O208 Co205 1.966 . S
O208 C206 1.263 . S
C209 O210 1.235 . S
C209 O236 1.289 . S
O210 C209 1.235 . S
C211 C213 1.400 . S
C211 N214 1.351 . S
C211 C216 1.501 . S
C212 C213 1.387 . S
C212 N215 1.341 . S
C213 C211 1.400 . S
C213 C212 1.387 . S
N214 Co205 2.022 . S
N214 C211 1.351 . S
N214 N215 1.365 . S
N215 C212 1.341 . S
N215 N214 1.365 . S
N215 H235 0.862 . S
C216 C211 1.501 . S
C216 H217 0.961 . S
C216 H218 0.961 . S
C216 H219 0.960 . S
H217 C216 0.961 . S
H218 C216 0.961 . S
H219 C216 0.960 . S
C220 N221 1.342 . S
C220 C224 1.401 . S
C220 C225 1.499 . S
N221 Co204 1.989 . S
N221 C220 1.342 . S
N221 N222 1.388 . S
N222 Co205 1.993 . S
N222 N221 1.388 . S
N222 C223 1.346 . S
C223 N222 1.346 . S
C223 C224 1.396 . S
C223 C233 1.510 . S
C224 C220 1.401 . S
C224 C223 1.396 . S
C225 C220 1.499 . S
C225 H226 0.959 . S
C225 H227 0.960 . S
C225 H228 0.961 . S
H226 C225 0.959 . S
H227 C225 0.960 . S
H228 C225 0.961 . S
O229 Co204 1.967 . S
O229 C237 1.258 . S
O230 Co205 1.941 . S
O230 C237 1.266 . S
H231 C233 0.959 . S
H232 C233 0.961 . S
C233 C223 1.510 . S
C233 H231 0.959 . S
C233 H232 0.961 . S
C233 H234 0.960 . S
H234 C233 0.960 . S
H235 N215 0.862 . S
O236 Co204 1.920 . S
O236 C209 1.289 . S
C237 O229 1.258 . S
C237 O230 1.266 . S
Co238 O241 1.970 . S
Co238 N255 1.989 . S
Co238 O263 1.967 . S
Co238 O270 1.920 . S
Co239 O242 1.966 . S
Co239 N248 2.022 . S
Co239 N256 1.993 . S
Co239 O264 1.941 . S
C240 O241 1.258 . S
C240 O242 1.263 . S
O241 Co238 1.970 . S
O241 C240 1.258 . S
O242 Co239 1.966 . S
O242 C240 1.263 . S
C243 O244 1.235 . S
C243 O270 1.289 . S
O244 C243 1.235 . S
C245 C247 1.400 . S
C245 N248 1.351 . S
C245 C250 1.501 . S
C246 C247 1.387 . S
C246 N249 1.341 . S
C247 C245 1.400 . S
C247 C246 1.387 . S
N248 Co239 2.022 . S
N248 C245 1.351 . S
N248 N249 1.365 . S
N249 C246 1.341 . S
N249 N248 1.365 . S
N249 H269 0.862 . S
C250 C245 1.501 . S
C250 H251 0.961 . S
C250 H252 0.961 . S
C250 H253 0.960 . S
H251 C250 0.961 . S
H252 C250 0.961 . S
H253 C250 0.960 . S
C254 N255 1.342 . S
C254 C258 1.401 . S
C254 C259 1.499 . S
N255 Co238 1.989 . S
N255 C254 1.342 . S
N255 N256 1.388 . S
N256 Co239 1.993 . S
N256 N255 1.388 . S
N256 C257 1.346 . S
C257 N256 1.346 . S
C257 C258 1.396 . S
C257 C267 1.510 . S
C258 C254 1.401 . S
C258 C257 1.396 . S
C259 C254 1.499 . S
C259 H260 0.959 . S
C259 H261 0.960 . S
C259 H262 0.961 . S
H260 C259 0.959 . S
H261 C259 0.960 . S
H262 C259 0.961 . S
O263 Co238 1.967 . S
O263 C271 1.258 . S
O264 Co239 1.941 . S
O264 C271 1.266 . S
H265 C267 0.959 . S
H266 C267 0.961 . S
C267 C257 1.510 . S
C267 H265 0.959 . S
C267 H266 0.961 . S
C267 H268 0.960 . S
H268 C267 0.960 . S
H269 N249 0.862 . S
O270 Co238 1.920 . S
O270 C243 1.289 . S
C271 O263 1.258 . S
C271 O264 1.266 . S
Co272 O275 1.970 . S
Co272 N289 1.989 . S
Co272 O297 1.967 . S
Co272 O304 1.920 . S
Co273 O276 1.966 . S
Co273 N282 2.022 . S
Co273 N290 1.993 . S
Co273 O298 1.941 . S
C274 O275 1.258 . S
C274 O276 1.263 . S
O275 Co272 1.970 . S
O275 C274 1.258 . S
O276 Co273 1.966 . S
O276 C274 1.263 . S
C277 O278 1.235 . S
C277 O304 1.289 . S
O278 C277 1.235 . S
C279 C281 1.400 . S
C279 N282 1.351 . S
C279 C284 1.501 . S
C280 C281 1.387 . S
C280 N283 1.341 . S
C281 C279 1.400 . S
C281 C280 1.387 . S
N282 Co273 2.022 . S
N282 C279 1.351 . S
N282 N283 1.365 . S
N283 C280 1.341 . S
N283 N282 1.365 . S
N283 H303 0.862 . S
C284 C279 1.501 . S
C284 H285 0.961 . S
C284 H286 0.961 . S
C284 H287 0.960 . S
H285 C284 0.961 . S
H286 C284 0.961 . S
H287 C284 0.960 . S
C288 N289 1.342 . S
C288 C292 1.401 . S
C288 C293 1.499 . S
N289 Co272 1.989 . S
N289 C288 1.342 . S
N289 N290 1.388 . S
N290 Co273 1.993 . S
N290 N289 1.388 . S
N290 C291 1.346 . S
C291 N290 1.346 . S
C291 C292 1.396 . S
C291 C301 1.510 . S
C292 C288 1.401 . S
C292 C291 1.396 . S
C293 C288 1.499 . S
C293 H294 0.959 . S
C293 H295 0.960 . S
C293 H296 0.961 . S
H294 C293 0.959 . S
H295 C293 0.960 . S
H296 C293 0.961 . S
O297 Co272 1.967 . S
O297 C305 1.258 . S
O298 Co273 1.941 . S
O298 C305 1.266 . S
H299 C301 0.959 . S
H300 C301 0.961 . S
C301 C291 1.510 . S
C301 H299 0.959 . S
C301 H300 0.961 . S
C301 H302 0.960 . S
H302 C301 0.960 . S
H303 N283 0.862 . S
O304 Co272 1.920 . S
O304 C277 1.289 . S
C305 O297 1.258 . S
C305 O298 1.266 . S
Co306 O309 1.970 . S
Co306 N323 1.989 . S
Co306 O331 1.967 . S
Co306 O338 1.920 . S
Co307 O310 1.966 . S
Co307 N316 2.022 . S
Co307 N324 1.993 . S
Co307 O332 1.941 . S
C308 O309 1.258 . S
C308 O310 1.263 . S
O309 Co306 1.970 . S
O309 C308 1.258 . S
O310 Co307 1.966 . S
O310 C308 1.263 . S
C311 O312 1.235 . S
C311 O338 1.289 . S
O312 C311 1.235 . S
C313 C315 1.400 . S
C313 N316 1.351 . S
C313 C318 1.501 . S
C314 C315 1.387 . S
C314 N317 1.341 . S
C315 C313 1.400 . S
C315 C314 1.387 . S
N316 Co307 2.022 . S
N316 C313 1.351 . S
N316 N317 1.365 . S
N317 C314 1.341 . S
N317 N316 1.365 . S
N317 H337 0.862 . S
C318 C313 1.501 . S
C318 H319 0.961 . S
C318 H320 0.961 . S
C318 H321 0.960 . S
H319 C318 0.961 . S
H320 C318 0.961 . S
H321 C318 0.960 . S
C322 N323 1.342 . S
C322 C326 1.401 . S
C322 C327 1.499 . S
N323 Co306 1.989 . S
N323 C322 1.342 . S
N323 N324 1.388 . S
N324 Co307 1.993 . S
N324 N323 1.388 . S
N324 C325 1.346 . S
C325 N324 1.346 . S
C325 C326 1.396 . S
C325 C335 1.510 . S
C326 C322 1.401 . S
C326 C325 1.396 . S
C327 C322 1.499 . S
C327 H328 0.959 . S
C327 H329 0.960 . S
C327 H330 0.961 . S
H328 C327 0.959 . S
H329 C327 0.960 . S
H330 C327 0.961 . S
O331 Co306 1.967 . S
O331 C339 1.258 . S
O332 Co307 1.941 . S
O332 C339 1.266 . S
H333 C335 0.959 . S
H334 C335 0.961 . S
C335 C325 1.510 . S
C335 H333 0.959 . S
C335 H334 0.961 . S
C335 H336 0.960 . S
H336 C335 0.960 . S
H337 N317 0.862 . S
O338 Co306 1.920 . S
O338 C311 1.289 . S
C339 O331 1.258 . S
C339 O332 1.266 . S
Co340 O343 1.970 . S
Co340 N357 1.989 . S
Co340 O365 1.967 . S
Co340 O372 1.920 . S
Co341 O344 1.966 . S
Co341 N350 2.022 . S
Co341 N358 1.993 . S
Co341 O366 1.941 . S
C342 O343 1.258 . S
C342 O344 1.263 . S
O343 Co340 1.970 . S
O343 C342 1.258 . S
O344 Co341 1.966 . S
O344 C342 1.263 . S
C345 O346 1.235 . S
C345 O372 1.289 . S
O346 C345 1.235 . S
C347 C349 1.400 . S
C347 N350 1.351 . S
C347 C352 1.501 . S
C348 C349 1.387 . S
C348 N351 1.341 . S
C349 C347 1.400 . S
C349 C348 1.387 . S
N350 Co341 2.022 . S
N350 C347 1.351 . S
N350 N351 1.365 . S
N351 C348 1.341 . S
N351 N350 1.365 . S
N351 H371 0.862 . S
C352 C347 1.501 . S
C352 H353 0.961 . S
C352 H354 0.961 . S
C352 H355 0.960 . S
H353 C352 0.961 . S
H354 C352 0.961 . S
H355 C352 0.960 . S
C356 N357 1.342 . S
C356 C360 1.401 . S
C356 C361 1.499 . S
N357 Co340 1.989 . S
N357 C356 1.342 . S
N357 N358 1.388 . S
N358 Co341 1.993 . S
N358 N357 1.388 . S
N358 C359 1.346 . S
C359 N358 1.346 . S
C359 C360 1.396 . S
C359 C369 1.510 . S
C360 C356 1.401 . S
C360 C359 1.396 . S
C361 C356 1.499 . S
C361 H362 0.959 . S
C361 H363 0.960 . S
C361 H364 0.961 . S
H362 C361 0.959 . S
H363 C361 0.960 . S
H364 C361 0.961 . S
O365 Co340 1.967 . S
O365 C373 1.258 . S
O366 Co341 1.941 . S
O366 C373 1.266 . S
H367 C369 0.959 . S
H368 C369 0.961 . S
C369 C359 1.510 . S
C369 H367 0.959 . S
C369 H368 0.961 . S
C369 H370 0.960 . S
H370 C369 0.960 . S
H371 N351 0.862 . S
O372 Co340 1.920 . S
O372 C345 1.289 . S
C373 O365 1.258 . S
C373 O366 1.266 . S
Co374 O377 1.970 . S
Co374 N391 1.989 . S
Co374 O399 1.967 . S
Co374 O406 1.920 . S
Co375 O378 1.966 . S
Co375 N384 2.022 . S
Co375 N392 1.993 . S
Co375 O400 1.941 . S
C376 O377 1.258 . S
C376 O378 1.263 . S
O377 Co374 1.970 . S
O377 C376 1.258 . S
O378 Co375 1.966 . S
O378 C376 1.263 . S
C379 O380 1.235 . S
C379 O406 1.289 . S
O380 C379 1.235 . S
C381 C383 1.400 . S
C381 N384 1.351 . S
C381 C386 1.501 . S
C382 C383 1.387 . S
C382 N385 1.341 . S
C383 C381 1.400 . S
C383 C382 1.387 . S
N384 Co375 2.022 . S
N384 C381 1.351 . S
N384 N385 1.365 . S
N385 C382 1.341 . S
N385 N384 1.365 . S
N385 H405 0.862 . S
C386 C381 1.501 . S
C386 H387 0.961 . S
C386 H388 0.961 . S
C386 H389 0.960 . S
H387 C386 0.961 . S
H388 C386 0.961 . S
H389 C386 0.960 . S
C390 N391 1.342 . S
C390 C394 1.401 . S
C390 C395 1.499 . S
N391 Co374 1.989 . S
N391 C390 1.342 . S
N391 N392 1.388 . S
N392 Co375 1.993 . S
N392 N391 1.388 . S
N392 C393 1.346 . S
C393 N392 1.346 . S
C393 C394 1.396 . S
C393 C403 1.510 . S
C394 C390 1.401 . S
C394 C393 1.396 . S
C395 C390 1.499 . S
C395 H396 0.959 . S
C395 H397 0.960 . S
C395 H398 0.961 . S
H396 C395 0.959 . S
H397 C395 0.960 . S
H398 C395 0.961 . S
O399 Co374 1.967 . S
O399 C407 1.258 . S
O400 Co375 1.941 . S
O400 C407 1.266 . S
H401 C403 0.959 . S
H402 C403 0.961 . S
C403 C393 1.510 . S
C403 H401 0.959 . S
C403 H402 0.961 . S
C403 H404 0.960 . S
H404 C403 0.960 . S
H405 N385 0.862 . S
O406 Co374 1.920 . S
O406 C379 1.289 . S
C407 O399 1.258 . S
C407 O400 1.266 . S
Co408 O411 1.970 . S
Co408 N425 1.989 . S
Co408 O433 1.967 . S
Co408 O440 1.920 . S
Co409 O412 1.966 . S
Co409 N418 2.022 . S
Co409 N426 1.993 . S
Co409 O434 1.941 . S
C410 O411 1.258 . S
C410 O412 1.263 . S
O411 Co408 1.970 . S
O411 C410 1.258 . S
O412 Co409 1.966 . S
O412 C410 1.263 . S
C413 O414 1.235 . S
C413 O440 1.289 . S
O414 C413 1.235 . S
C415 C417 1.400 . S
C415 N418 1.351 . S
C415 C420 1.501 . S
C416 C417 1.387 . S
C416 N419 1.341 . S
C417 C415 1.400 . S
C417 C416 1.387 . S
N418 Co409 2.022 . S
N418 C415 1.351 . S
N418 N419 1.365 . S
N419 C416 1.341 . S
N419 N418 1.365 . S
N419 H439 0.862 . S
C420 C415 1.501 . S
C420 H421 0.961 . S
C420 H422 0.961 . S
C420 H423 0.960 . S
H421 C420 0.961 . S
H422 C420 0.961 . S
H423 C420 0.960 . S
C424 N425 1.342 . S
C424 C428 1.401 . S
C424 C429 1.499 . S
N425 Co408 1.989 . S
N425 C424 1.342 . S
N425 N426 1.388 . S
N426 Co409 1.993 . S
N426 N425 1.388 . S
N426 C427 1.346 . S
C427 N426 1.346 . S
C427 C428 1.396 . S
C427 C437 1.510 . S
C428 C424 1.401 . S
C428 C427 1.396 . S
C429 C424 1.499 . S
C429 H430 0.959 . S
C429 H431 0.960 . S
C429 H432 0.961 . S
H430 C429 0.959 . S
H431 C429 0.960 . S
H432 C429 0.961 . S
O433 Co408 1.967 . S
O433 C441 1.258 . S
O434 Co409 1.941 . S
O434 C441 1.266 . S
H435 C437 0.959 . S
H436 C437 0.961 . S
C437 C427 1.510 . S
C437 H435 0.959 . S
C437 H436 0.961 . S
C437 H438 0.960 . S
H438 C437 0.960 . S
H439 N419 0.862 . S
O440 Co408 1.920 . S
O440 C413 1.289 . S
C441 O433 1.258 . S
C441 O434 1.266 . S
Co442 O445 1.970 . S
Co442 N459 1.989 . S
Co442 O467 1.967 . S
Co442 O474 1.920 . S
Co443 O446 1.966 . S
Co443 N452 2.022 . S
Co443 N460 1.993 . S
Co443 O468 1.941 . S
C444 O445 1.258 . S
C444 O446 1.263 . S
O445 Co442 1.970 . S
O445 C444 1.258 . S
O446 Co443 1.966 . S
O446 C444 1.263 . S
C447 O448 1.235 . S
C447 O474 1.289 . S
O448 C447 1.235 . S
C449 C451 1.400 . S
C449 N452 1.351 . S
C449 C454 1.501 . S
C450 C451 1.387 . S
C450 N453 1.341 . S
C451 C449 1.400 . S
C451 C450 1.387 . S
N452 Co443 2.022 . S
N452 C449 1.351 . S
N452 N453 1.365 . S
N453 C450 1.341 . S
N453 N452 1.365 . S
N453 H473 0.862 . S
C454 C449 1.501 . S
C454 H455 0.961 . S
C454 H456 0.961 . S
C454 H457 0.960 . S
H455 C454 0.961 . S
H456 C454 0.961 . S
H457 C454 0.960 . S
C458 N459 1.342 . S
C458 C462 1.401 . S
C458 C463 1.499 . S
N459 Co442 1.989 . S
N459 C458 1.342 . S
N459 N460 1.388 . S
N460 Co443 1.993 . S
N460 N459 1.388 . S
N460 C461 1.346 . S
C461 N460 1.346 . S
C461 C462 1.396 . S
C461 C471 1.510 . S
C462 C458 1.401 . S
C462 C461 1.396 . S
C463 C458 1.499 . S
C463 H464 0.959 . S
C463 H465 0.960 . S
C463 H466 0.961 . S
H464 C463 0.959 . S
H465 C463 0.960 . S
H466 C463 0.961 . S
O467 Co442 1.967 . S
O467 C475 1.258 . S
O468 Co443 1.941 . S
O468 C475 1.266 . S
H469 C471 0.959 . S
H470 C471 0.961 . S
C471 C461 1.510 . S
C471 H469 0.959 . S
C471 H470 0.961 . S
C471 H472 0.960 . S
H472 C471 0.960 . S
H473 N453 0.862 . S
O474 Co442 1.920 . S
O474 C447 1.289 . S
C475 O467 1.258 . S
C475 O468 1.266 . S
Co476 O479 1.970 . S
Co476 N493 1.989 . S
Co476 O501 1.967 . S
Co476 O508 1.920 . S
Co477 O480 1.966 . S
Co477 N486 2.022 . S
Co477 N494 1.993 . S
Co477 O502 1.941 . S
C478 O479 1.258 . S
C478 O480 1.263 . S
O479 Co476 1.970 . S
O479 C478 1.258 . S
O480 Co477 1.966 . S
O480 C478 1.263 . S
C481 O482 1.235 . S
C481 O508 1.289 . S
O482 C481 1.235 . S
C483 C485 1.400 . S
C483 N486 1.351 . S
C483 C488 1.501 . S
C484 C485 1.387 . S
C484 N487 1.341 . S
C485 C483 1.400 . S
C485 C484 1.387 . S
N486 Co477 2.022 . S
N486 C483 1.351 . S
N486 N487 1.365 . S
N487 C484 1.341 . S
N487 N486 1.365 . S
N487 H507 0.862 . S
C488 C483 1.501 . S
C488 H489 0.961 . S
C488 H490 0.961 . S
C488 H491 0.960 . S
H489 C488 0.961 . S
H490 C488 0.961 . S
H491 C488 0.960 . S
C492 N493 1.342 . S
C492 C496 1.401 . S
C492 C497 1.499 . S
N493 Co476 1.989 . S
N493 C492 1.342 . S
N493 N494 1.388 . S
N494 Co477 1.993 . S
N494 N493 1.388 . S
N494 C495 1.346 . S
C495 N494 1.346 . S
C495 C496 1.396 . S
C495 C505 1.510 . S
C496 C492 1.401 . S
C496 C495 1.396 . S
C497 C492 1.499 . S
C497 H498 0.959 . S
C497 H499 0.960 . S
C497 H500 0.961 . S
H498 C497 0.959 . S
H499 C497 0.960 . S
H500 C497 0.961 . S
O501 Co476 1.967 . S
O501 C509 1.258 . S
O502 Co477 1.941 . S
O502 C509 1.266 . S
H503 C505 0.959 . S
H504 C505 0.961 . S
C505 C495 1.510 . S
C505 H503 0.959 . S
C505 H504 0.961 . S
C505 H506 0.960 . S
H506 C505 0.960 . S
H507 N487 0.862 . S
O508 Co476 1.920 . S
O508 C481 1.289 . S
C509 O501 1.258 . S
C509 O502 1.266 . S
Co510 O513 1.970 . S
Co510 N527 1.989 . S
Co510 O535 1.967 . S
Co510 O542 1.920 . S
Co511 O514 1.966 . S
Co511 N520 2.022 . S
Co511 N528 1.993 . S
Co511 O536 1.941 . S
C512 O513 1.258 . S
C512 O514 1.263 . S
O513 Co510 1.970 . S
O513 C512 1.258 . S
O514 Co511 1.966 . S
O514 C512 1.263 . S
C515 O516 1.235 . S
C515 O542 1.289 . S
O516 C515 1.235 . S
C517 C519 1.400 . S
C517 N520 1.351 . S
C517 C522 1.501 . S
C518 C519 1.387 . S
C518 N521 1.341 . S
C519 C517 1.400 . S
C519 C518 1.387 . S
N520 Co511 2.022 . S
N520 C517 1.351 . S
N520 N521 1.365 . S
N521 C518 1.341 . S
N521 N520 1.365 . S
N521 H541 0.862 . S
C522 C517 1.501 . S
C522 H523 0.961 . S
C522 H524 0.961 . S
C522 H525 0.960 . S
H523 C522 0.961 . S
H524 C522 0.961 . S
H525 C522 0.960 . S
C526 N527 1.342 . S
C526 C530 1.401 . S
C526 C531 1.499 . S
N527 Co510 1.989 . S
N527 C526 1.342 . S
N527 N528 1.388 . S
N528 Co511 1.993 . S
N528 N527 1.388 . S
N528 C529 1.346 . S
C529 N528 1.346 . S
C529 C530 1.396 . S
C529 C539 1.510 . S
C530 C526 1.401 . S
C530 C529 1.396 . S
C531 C526 1.499 . S
C531 H532 0.959 . S
C531 H533 0.960 . S
C531 H534 0.961 . S
H532 C531 0.959 . S
H533 C531 0.960 . S
H534 C531 0.961 . S
O535 Co510 1.967 . S
O535 C543 1.258 . S
O536 Co511 1.941 . S
O536 C543 1.266 . S
H537 C539 0.959 . S
H538 C539 0.961 . S
C539 C529 1.510 . S
C539 H537 0.959 . S
C539 H538 0.961 . S
C539 H540 0.960 . S
H540 C539 0.960 . S
H541 N521 0.862 . S
O542 Co510 1.920 . S
O542 C515 1.289 . S
C543 O535 1.258 . S
C543 O536 1.266 . S
H544 C556 0.930 . S
H545 C558 0.930 . S
H546 C559 0.930 . S
H547 C563 0.959 . S
H548 C563 0.959 . S
H549 C563 0.961 . S
H550 C564 0.960 . S
H551 C564 0.961 . S
H552 C564 0.959 . S
H553 C567 0.929 . S
H554 C568 0.931 . S
H555 C570 0.930 . S
C556 H544 0.930 . S
C556 C557 1.399 . S
C556 C561 1.399 . S
C557 C556 1.399 . S
C557 C558 1.376 . S
C558 H545 0.930 . S
C558 C557 1.376 . S
C558 C559 1.388 . S
C559 H546 0.930 . S
C559 C558 1.388 . S
C559 C560 1.390 . S
C560 C559 1.390 . S
C560 C561 1.394 . S
C560 C566 1.475 . S
C561 C556 1.399 . S
C561 C560 1.394 . S
C561 C562 1.516 . S
C562 C561 1.516 . S
C562 C563 1.502 1_556 S
C562 C564 1.561 . S
C562 C565 1.526 1_556 S
C563 H547 0.959 . S
C563 H548 0.959 . S
C563 H549 0.961 . S
C563 C562 1.502 1_554 S
C564 H550 0.960 . S
C564 H551 0.961 . S
C564 H552 0.959 . S
C564 C562 1.561 . S
C565 C562 1.526 1_554 S
C565 C566 1.392 1_554 S
C565 C570 1.390 . S
C566 C560 1.475 . S
C566 C565 1.392 1_556 S
C566 C567 1.394 1_556 S
C567 H553 0.929 . S
C567 C566 1.394 1_554 S
C567 C568 1.385 . S
C568 H554 0.931 . S
C568 C567 1.385 . S
C568 C569 1.389 . S
C569 C568 1.389 . S
C569 C570 1.387 . S
C570 H555 0.930 . S
C570 C565 1.390 . S
C570 C569 1.387 . S
H571 C583 0.930 . S
H572 C585 0.930 . S
H573 C586 0.930 . S
H574 C590 0.959 . S
H575 C590 0.959 . S
H576 C590 0.961 . S
H577 C591 0.960 . S
H578 C591 0.961 . S
H579 C591 0.959 . S
H580 C594 0.929 . S
H581 C595 0.931 . S
H582 C597 0.930 . S
C583 H571 0.930 . S
C583 C584 1.399 . S
C583 C588 1.399 . S
C584 C583 1.399 . S
C584 C585 1.376 . S
C585 H572 0.930 . S
C585 C584 1.376 . S
C585 C586 1.388 . S
C586 H573 0.930 . S
C586 C585 1.388 . S
C586 C587 1.390 . S
C587 C586 1.390 . S
C587 C588 1.394 . S
C587 C593 1.465 1_556 S
C588 C583 1.399 . S
C588 C587 1.394 . S
C588 C589 1.516 . S
C589 C588 1.516 . S
C589 C590 1.502 . S
C589 C591 1.561 1_556 S
C589 C592 1.526 1_556 S
C590 H574 0.959 . S
C590 H575 0.959 . S
C590 H576 0.961 . S
C590 C589 1.502 . S
C591 H577 0.960 . S
C591 H578 0.961 . S
C591 H579 0.959 . S
C591 C589 1.561 1_554 S
C592 C589 1.526 1_554 S
C592 C593 1.396 . S
C592 C597 1.390 . S
C593 C587 1.465 1_554 S
C593 C592 1.396 . S
C593 C594 1.399 . S
C594 H580 0.929 . S
C594 C593 1.399 . S
C594 C595 1.385 . S
C595 H581 0.931 . S
C595 C594 1.385 . S
C595 C596 1.389 . S
C596 C595 1.389 . S
C596 C597 1.387 . S
C597 H582 0.930 . S
C597 C592 1.390 . S
C597 C596 1.387 . S
H598 C610 0.930 . S
H599 C612 0.930 . S
H600 C613 0.930 . S
H601 C617 0.959 . S
H602 C617 0.959 . S
H603 C617 0.961 . S
H604 C618 0.960 . S
H605 C618 0.961 . S
H606 C618 0.959 . S
H607 C621 0.929 . S
H608 C622 0.931 . S
H609 C624 0.930 . S
C610 H598 0.930 . S
C610 C611 1.399 . S
C610 C615 1.399 . S
C611 C610 1.399 . S
C611 C612 1.376 . S
C612 H599 0.930 . S
C612 C611 1.376 . S
C612 C613 1.388 . S
C613 H600 0.930 . S
C613 C612 1.388 . S
C613 C614 1.390 . S
C614 C613 1.390 . S
C614 C615 1.394 . S
C614 C620 1.465 . S
C615 C610 1.399 . S
C615 C614 1.394 . S
C615 C616 1.516 . S
C616 C615 1.516 . S
C616 C617 1.502 . S
C616 C618 1.561 . S
C616 C619 1.526 . S
C617 H601 0.959 . S
C617 H602 0.959 . S
C617 H603 0.961 . S
C617 C616 1.502 . S
C618 H604 0.960 . S
C618 H605 0.961 . S
C618 H606 0.959 . S
C618 C616 1.561 . S
C619 C616 1.526 . S
C619 C620 1.396 . S
C619 C624 1.390 . S
C620 C614 1.465 . S
C620 C619 1.396 . S
C620 C621 1.399 . S
C621 H607 0.929 . S
C621 C620 1.399 . S
C621 C622 1.385 . S
C622 H608 0.931 . S
C622 C621 1.385 . S
C622 C623 1.389 . S
C623 C622 1.389 . S
C623 C624 1.387 . S
C624 H609 0.930 . S
C624 C619 1.390 . S
C624 C623 1.387 . S
H625 C637 0.930 . S
H626 C639 0.930 . S
H627 C640 0.930 . S
H628 C644 0.959 . S
H629 C644 0.959 . S
H630 C644 0.961 . S
H631 C645 0.960 . S
H632 C645 0.961 . S
H633 C645 0.959 . S
H634 C648 0.929 . S
H635 C649 0.931 . S
H636 C651 0.930 . S
C637 H625 0.930 . S
C637 C638 1.399 . S
C637 C642 1.399 . S
C638 C637 1.399 . S
C638 C639 1.376 . S
C639 H626 0.930 . S
C639 C638 1.376 . S
C639 C640 1.388 . S
C640 H627 0.930 . S
C640 C639 1.388 . S
C640 C641 1.390 . S
C641 C640 1.390 . S
C641 C642 1.394 . S
C641 C647 1.465 . S
C642 C637 1.399 . S
C642 C641 1.394 . S
C642 C643 1.516 . S
C643 C642 1.516 . S
C643 C644 1.502 . S
C643 C645 1.561 . S
C643 C646 1.526 . S
C644 H628 0.959 . S
C644 H629 0.959 . S
C644 H630 0.961 . S
C644 C643 1.502 . S
C645 H631 0.960 . S
C645 H632 0.961 . S
C645 H633 0.959 . S
C645 C643 1.561 . S
C646 C643 1.526 . S
C646 C647 1.396 . S
C646 C651 1.390 . S
C647 C641 1.465 . S
C647 C646 1.396 . S
C647 C648 1.399 . S
C648 H634 0.929 . S
C648 C647 1.399 . S
C648 C649 1.385 . S
C649 H635 0.931 . S
C649 C648 1.385 . S
C649 C650 1.389 . S
C650 C649 1.389 . S
C650 C651 1.387 . S
C651 H636 0.930 . S
C651 C646 1.390 . S
C651 C650 1.387 . S
H652 C664 0.930 . S
H653 C666 0.930 . S
H654 C667 0.930 . S
H655 C671 0.959 . S
H656 C671 0.959 . S
H657 C671 0.961 . S
H658 C672 0.960 . S
H659 C672 0.961 . S
H660 C672 0.959 . S
H661 C675 0.929 . S
H662 C676 0.931 . S
H663 C678 0.930 . S
C664 H652 0.930 . S
C664 C665 1.399 . S
C664 C669 1.399 . S
C665 C664 1.399 . S
C665 C666 1.376 . S
C666 H653 0.930 . S
C666 C665 1.376 . S
C666 C667 1.388 . S
C667 H654 0.930 . S
C667 C666 1.388 . S
C667 C668 1.390 . S
C668 C667 1.390 . S
C668 C669 1.394 . S
C668 C674 1.465 1_556 S
C669 C664 1.399 . S
C669 C668 1.394 . S
C669 C670 1.516 1_556 S
C670 C669 1.516 1_554 S
C670 C671 1.502 . S
C670 C672 1.561 1_554 S
C670 C673 1.526 . S
C671 H655 0.959 . S
C671 H656 0.959 . S
C671 H657 0.961 . S
C671 C670 1.502 . S
C672 H658 0.960 . S
C672 H659 0.961 . S
C672 H660 0.959 . S
C672 C670 1.561 1_556 S
C673 C670 1.526 . S
C673 C674 1.396 . S
C673 C678 1.390 . S
C674 C668 1.465 1_554 S
C674 C673 1.396 . S
C674 C675 1.399 . S
C675 H661 0.929 . S
C675 C674 1.399 . S
C675 C676 1.385 . S
C676 H662 0.931 . S
C676 C675 1.385 . S
C676 C677 1.389 . S
C677 C676 1.389 . S
C677 C678 1.387 . S
C678 H663 0.930 . S
C678 C673 1.390 . S
C678 C677 1.387 . S
H679 C691 0.930 . S
H680 C693 0.930 . S
H681 C694 0.930 1_554 S
H682 C698 0.959 . S
H683 C698 0.959 . S
H684 C698 0.961 . S
H685 C699 0.960 . S
H686 C699 0.961 . S
H687 C699 0.959 . S
H688 C702 0.929 . S
H689 C703 0.931 . S
H690 C705 0.930 . S
C691 H679 0.930 . S
C691 C692 1.399 . S
C691 C696 1.399 . S
C692 C691 1.399 . S
C692 C693 1.376 . S
C693 H680 0.930 . S
C693 C692 1.376 . S
C693 C694 1.388 . S
C694 H681 0.930 1_556 S
C694 C693 1.388 . S
C694 C695 1.390 1_556 S
C695 C694 1.390 1_554 S
C695 C696 1.394 1_554 S
C695 C701 1.465 . S
C696 C691 1.399 . S
C696 C695 1.394 1_556 S
C696 C697 1.516 1_556 S
C697 C696 1.516 1_554 S
C697 C698 1.502 1_554 S
C697 C699 1.561 . S
C697 C700 1.525 . S
C698 H682 0.959 . S
C698 H683 0.959 . S
C698 H684 0.961 . S
C698 C697 1.502 1_556 S
C699 H685 0.960 . S
C699 H686 0.961 . S
C699 H687 0.959 . S
C699 C697 1.561 . S
C700 C697 1.525 . S
C700 C701 1.396 . S
C700 C705 1.390 . S
C701 C695 1.465 . S
C701 C700 1.396 . S
C701 C702 1.399 . S
C702 H688 0.929 . S
C702 C701 1.399 . S
C702 C703 1.385 . S
C703 H689 0.931 . S
C703 C702 1.385 . S
C703 C704 1.389 . S
C704 C703 1.389 . S
C704 C705 1.387 . S
C705 H690 0.930 . S
C705 C700 1.390 . S
C705 C704 1.387 . S
H706 C718 0.930 . S
H707 C720 0.930 1_655 S
H708 C721 0.930 . S
H709 C725 0.959 . S
H710 C725 0.959 . S
H711 C725 0.961 . S
H712 C726 0.960 . S
H713 C726 0.961 . S
H714 C726 0.959 . S
H715 C729 0.929 . S
H716 C730 0.931 . S
H717 C732 0.930 . S
C718 H706 0.930 . S
C718 C719 1.399 . S
C718 C723 1.399 . S
C719 C718 1.399 . S
C719 C720 1.376 . S
C720 H707 0.930 1_455 S
C720 C719 1.376 . S
C720 C721 1.388 . S
C721 H708 0.930 . S
C721 C720 1.388 . S
C721 C722 1.390 . S
C722 C721 1.390 . S
C722 C723 1.394 . S
C722 C728 1.465 . S
C723 C718 1.399 . S
C723 C722 1.394 . S
C723 C724 1.516 . S
C724 C723 1.516 . S
C724 C725 1.502 . S
C724 C726 1.561 . S
C724 C727 1.526 . S
C725 H709 0.959 . S
C725 H710 0.959 . S
C725 H711 0.961 . S
C725 C724 1.502 . S
C726 H712 0.960 . S
C726 H713 0.961 . S
C726 H714 0.959 . S
C726 C724 1.561 . S
C727 C724 1.526 . S
C727 C728 1.396 . S
C727 C732 1.390 . S
C728 C722 1.465 . S
C728 C727 1.396 . S
C728 C729 1.399 . S
C729 H715 0.929 . S
C729 C728 1.399 . S
C729 C730 1.385 . S
C730 H716 0.931 . S
C730 C729 1.385 . S
C730 C731 1.389 . S
C731 C730 1.389 . S
C731 C732 1.387 . S
C732 H717 0.930 . S
C732 C727 1.390 . S
C732 C731 1.387 . S
H733 C745 0.930 . S
H734 C747 0.930 . S
H735 C748 0.930 . S
H736 C752 0.959 . S
H737 C752 0.959 . S
H738 C752 0.961 . S
H739 C753 0.960 . S
H740 C753 0.961 . S
H741 C753 0.959 . S
H742 C756 0.929 . S
H743 C757 0.931 . S
H744 C759 0.930 . S
C745 H733 0.930 . S
C745 C746 1.399 . S
C745 C750 1.399 . S
C746 C745 1.399 . S
C746 C747 1.376 . S
C747 H734 0.930 . S
C747 C746 1.376 . S
C747 C748 1.388 . S
C748 H735 0.930 . S
C748 C747 1.388 . S
C748 C749 1.390 . S
C749 C748 1.390 . S
C749 C750 1.394 . S
C749 C755 1.465 . S
C750 C745 1.399 . S
C750 C749 1.394 . S
C750 C751 1.516 . S
C751 C750 1.516 . S
C751 C752 1.502 . S
C751 C753 1.561 . S
C751 C754 1.526 . S
C752 H736 0.959 . S
C752 H737 0.959 . S
C752 H738 0.961 . S
C752 C751 1.502 . S
C753 H739 0.960 . S
C753 H740 0.961 . S
C753 H741 0.959 . S
C753 C751 1.561 . S
C754 C751 1.526 . S
C754 C755 1.396 . S
C754 C759 1.390 . S
C755 C749 1.465 . S
C755 C754 1.396 . S
C755 C756 1.399 . S
C756 H742 0.929 . S
C756 C755 1.399 . S
C756 C757 1.385 . S
C757 H743 0.931 . S
C757 C756 1.385 . S
C757 C758 1.389 . S
C758 C757 1.389 . S
C758 C759 1.387 . S
C759 H744 0.930 . S
C759 C754 1.390 . S
C759 C758 1.387 . S
H760 C772 0.930 . S
H761 C774 0.930 . S
H762 C775 0.930 . S
H763 C779 0.959 . S
H764 C779 0.959 . S
H765 C779 0.961 . S
H766 C780 0.960 . S
H767 C780 0.961 . S
H768 C780 0.959 1_554 S
H769 C783 0.929 1_554 S
H770 C784 0.931 . S
H771 C786 0.930 . S
C772 H760 0.930 . S
C772 C773 1.399 . S
C772 C777 1.399 . S
C773 C772 1.399 . S
C773 C774 1.376 . S
C774 H761 0.930 . S
C774 C773 1.376 . S
C774 C775 1.388 . S
C775 H762 0.930 . S
C775 C774 1.388 . S
C775 C776 1.390 . S
C776 C775 1.390 . S
C776 C777 1.394 . S
C776 C782 1.465 1_554 S
C777 C772 1.399 . S
C777 C776 1.394 . S
C777 C778 1.516 1_554 S
C778 C777 1.516 1_556 S
C778 C779 1.502 . S
C778 C780 1.561 . S
C778 C781 1.526 . S
C779 H763 0.959 . S
C779 H764 0.959 . S
C779 H765 0.961 . S
C779 C778 1.502 . S
C780 H766 0.960 . S
C780 H767 0.961 . S
C780 H768 0.959 1_556 S
C780 C778 1.561 . S
C781 C778 1.526 . S
C781 C782 1.396 . S
C781 C786 1.390 . S
C782 C776 1.465 1_556 S
C782 C781 1.396 . S
C782 C783 1.399 . S
C783 H769 0.929 1_556 S
C783 C782 1.399 . S
C783 C784 1.385 . S
C784 H770 0.931 . S
C784 C783 1.385 . S
C784 C785 1.389 . S
C785 C784 1.389 . S
C785 C786 1.387 . S
C786 H771 0.930 . S
C786 C781 1.390 . S
C786 C785 1.387 . S
H787 C799 0.930 . S
H788 C801 0.930 . S
H789 C802 0.930 . S
H790 C806 0.959 . S
H791 C806 0.959 . S
H792 C806 0.961 . S
H793 C807 0.960 . S
H794 C807 0.961 . S
H795 C807 0.959 . S
H796 C810 0.929 . S
H797 C811 0.931 . S
H798 C813 0.930 . S
C799 H787 0.930 . S
C799 C800 1.399 . S
C799 C804 1.399 . S
C800 C799 1.399 . S
C800 C801 1.376 . S
C801 H788 0.930 . S
C801 C800 1.376 . S
C801 C802 1.388 . S
C802 H789 0.930 . S
C802 C801 1.388 . S
C802 C803 1.390 . S
C803 C802 1.390 . S
C803 C804 1.394 . S
C803 C809 1.465 1_554 S
C804 C799 1.399 . S
C804 C803 1.394 . S
C804 C805 1.516 1_554 S
C805 C804 1.516 1_556 S
C805 C806 1.502 . S
C805 C807 1.561 1_556 S
C805 C808 1.526 . S
C806 H790 0.959 . S
C806 H791 0.959 . S
C806 H792 0.961 . S
C806 C805 1.502 . S
C807 H793 0.960 . S
C807 H794 0.961 . S
C807 H795 0.959 . S
C807 C805 1.561 1_554 S
C808 C805 1.526 . S
C808 C809 1.396 . S
C808 C813 1.390 . S
C809 C803 1.465 1_556 S
C809 C808 1.396 . S
C809 C810 1.399 . S
C810 H796 0.929 . S
C810 C809 1.399 . S
C810 C811 1.385 . S
C811 H797 0.931 . S
C811 C810 1.385 . S
C811 C812 1.389 . S
C812 C811 1.389 . S
C812 C813 1.387 . S
C813 H798 0.930 . S
C813 C808 1.390 . S
C813 C812 1.387 . S
H814 C826 0.930 . S
H815 C828 0.930 . S
H816 C829 0.930 . S
H817 C833 0.959 . S
H818 C833 0.959 . S
H819 C833 0.961 . S
H820 C834 0.960 . S
H821 C834 0.961 . S
H822 C834 0.959 . S
H823 C837 0.929 . S
H824 C838 0.931 . S
H825 C840 0.930 . S
C826 H814 0.930 . S
C826 C827 1.399 . S
C826 C831 1.399 . S
C827 C826 1.399 . S
C827 C828 1.376 . S
C828 H815 0.930 . S
C828 C827 1.376 . S
C828 C829 1.388 . S
C829 H816 0.930 . S
C829 C828 1.388 . S
C829 C830 1.390 . S
C830 C829 1.390 . S
C830 C831 1.394 . S
C830 C836 1.465 . S
C831 C826 1.399 . S
C831 C830 1.394 . S
C831 C832 1.516 . S
C832 C831 1.516 . S
C832 C833 1.502 . S
C832 C834 1.561 . S
C832 C835 1.526 . S
C833 H817 0.959 . S
C833 H818 0.959 . S
C833 H819 0.961 . S
C833 C832 1.502 . S
C834 H820 0.960 . S
C834 H821 0.961 . S
C834 H822 0.959 . S
C834 C832 1.561 . S
C835 C832 1.526 . S
C835 C836 1.396 . S
C835 C840 1.390 . S
C836 C830 1.465 . S
C836 C835 1.396 . S
C836 C837 1.399 . S
C837 H823 0.929 . S
C837 C836 1.399 . S
C837 C838 1.385 . S
C838 H824 0.931 . S
C838 C837 1.385 . S
C838 C839 1.389 . S
C839 C838 1.389 . S
C839 C840 1.387 . S
C840 H825 0.930 . S
C840 C835 1.390 . S
C840 C839 1.387 . S
H841 C853 0.930 . S
H842 C855 0.930 . S
H843 C856 0.930 . S
H844 C860 0.959 . S
H845 C860 0.959 . S
H846 C860 0.961 . S
H847 C861 0.960 . S
H848 C861 0.961 . S
H849 C861 0.959 . S
H850 C864 0.929 . S
H851 C865 0.931 . S
H852 C867 0.930 . S
C853 H841 0.930 . S
C853 C854 1.399 . S
C853 C858 1.399 . S
C854 C853 1.399 . S
C854 C855 1.376 . S
C855 H842 0.930 . S
C855 C854 1.376 . S
C855 C856 1.388 . S
C856 H843 0.930 . S
C856 C855 1.388 . S
C856 C857 1.390 . S
C857 C856 1.390 . S
C857 C858 1.394 . S
C857 C863 1.465 . S
C858 C853 1.399 . S
C858 C857 1.394 . S
C858 C859 1.516 . S
C859 C858 1.516 . S
C859 C860 1.502 . S
C859 C861 1.561 . S
C859 C862 1.526 . S
C860 H844 0.959 . S
C860 H845 0.959 . S
C860 H846 0.961 . S
C860 C859 1.502 . S
C861 H847 0.960 . S
C861 H848 0.961 . S
C861 H849 0.959 . S
C861 C859 1.561 . S
C862 C859 1.526 . S
C862 C863 1.396 . S
C862 C867 1.390 . S
C863 C857 1.465 . S
C863 C862 1.396 . S
C863 C864 1.399 . S
C864 H850 0.929 . S
C864 C863 1.399 . S
C864 C865 1.385 . S
C865 H851 0.931 . S
C865 C864 1.385 . S
C865 C866 1.389 . S
C866 C865 1.389 . S
C866 C867 1.387 . S
C867 H852 0.930 . S
C867 C862 1.390 . S
C867 C866 1.387 . S
H868 C880 0.930 . S
H869 C882 0.930 . S
H870 C883 0.930 . S
H871 C887 0.959 . S
H872 C887 0.959 . S
H873 C887 0.961 . S
H874 C888 0.960 . S
H875 C888 0.961 1_554 S
H876 C888 0.959 . S
H877 C891 0.929 . S
H878 C892 0.931 1_655 S
H879 C894 0.930 . S
C880 H868 0.930 . S
C880 C881 1.399 . S
C880 C885 1.399 . S
C881 C880 1.399 . S
C881 C882 1.376 . S
C882 H869 0.930 . S
C882 C881 1.376 . S
C882 C883 1.388 . S
C883 H870 0.930 . S
C883 C882 1.388 . S
C883 C884 1.390 . S
C884 C883 1.390 . S
C884 C885 1.394 . S
C884 C890 1.465 1_556 S
C885 C880 1.399 . S
C885 C884 1.394 . S
C885 C886 1.516 1_556 S
C886 C885 1.516 1_554 S
C886 C887 1.502 . S
C886 C888 1.561 1_554 S
C886 C889 1.526 . S
C887 H871 0.959 . S
C887 H872 0.959 . S
C887 H873 0.961 . S
C887 C886 1.502 . S
C888 H874 0.960 . S
C888 H875 0.961 1_556 S
C888 H876 0.959 . S
C888 C886 1.561 1_556 S
C889 C886 1.526 . S
C889 C890 1.396 . S
C889 C894 1.390 . S
C890 C884 1.465 1_554 S
C890 C889 1.396 . S
C890 C891 1.399 . S
C891 H877 0.929 . S
C891 C890 1.399 . S
C891 C892 1.385 . S
C892 H878 0.931 1_455 S
C892 C891 1.385 . S
C892 C893 1.389 . S
C893 C892 1.389 . S
C893 C894 1.387 . S
C894 H879 0.930 . S
C894 C889 1.390 . S
C894 C893 1.387 . S
H895 C907 0.930 . S
H896 C909 0.930 . S
H897 C910 0.930 . S
H898 C914 0.959 . S
H899 C914 0.959 . S
H900 C914 0.961 . S
H901 C915 0.960 . S
H902 C915 0.961 . S
H903 C915 0.959 . S
H904 C918 0.929 . S
H905 C919 0.931 . S
H906 C921 0.930 . S
C907 H895 0.930 . S
C907 C908 1.399 . S
C907 C912 1.399 . S
C908 C907 1.399 . S
C908 C909 1.376 . S
C909 H896 0.930 . S
C909 C908 1.376 . S
C909 C910 1.388 . S
C910 H897 0.930 . S
C910 C909 1.388 . S
C910 C911 1.390 . S
C911 C910 1.390 . S
C911 C912 1.394 . S
C911 C917 1.465 1_556 S
C912 C907 1.399 . S
C912 C911 1.394 . S
C912 C913 1.515 1_556 S
C913 C912 1.515 1_554 S
C913 C914 1.503 . S
C913 C915 1.559 1_554 S
C913 C916 1.527 . S
C914 H898 0.959 . S
C914 H899 0.959 . S
C914 H900 0.961 . S
C914 C913 1.503 . S
C915 H901 0.960 . S
C915 H902 0.961 . S
C915 H903 0.959 . S
C915 C913 1.559 1_556 S
C916 C913 1.527 . S
C916 C917 1.396 . S
C916 C921 1.390 . S
C917 C911 1.465 1_554 S
C917 C916 1.396 . S
C917 C918 1.399 . S
C918 H904 0.929 . S
C918 C917 1.399 . S
C918 C919 1.385 . S
C919 H905 0.931 . S
C919 C918 1.385 . S
C919 C920 1.389 . S
C920 C919 1.389 . S
C920 C921 1.387 . S
C921 H906 0.930 . S
C921 C916 1.390 . S
C921 C920 1.387 . S
H922 C934 0.930 . S
H923 C936 0.930 . S
H924 C937 0.930 . S
H925 C941 0.959 . S
H926 C941 0.959 . S
H927 C941 0.961 . S
H928 C942 0.960 . S
H929 C942 0.961 . S
H930 C942 0.959 . S
H931 C945 0.929 . S
H932 C946 0.931 . S
H933 C948 0.930 . S
C934 H922 0.930 . S
C934 C935 1.399 . S
C934 C939 1.399 . S
C935 C934 1.399 . S
C935 C936 1.376 . S
C936 H923 0.930 . S
C936 C935 1.376 . S
C936 C937 1.388 . S
C937 H924 0.930 . S
C937 C936 1.388 . S
C937 C938 1.390 . S
C938 C937 1.390 . S
C938 C939 1.394 . S
C938 C944 1.465 . S
C939 C934 1.399 . S
C939 C938 1.394 . S
C939 C940 1.516 . S
C940 C939 1.516 . S
C940 C941 1.502 . S
C940 C942 1.561 . S
C940 C943 1.526 . S
C941 H925 0.959 . S
C941 H926 0.959 . S
C941 H927 0.961 . S
C941 C940 1.502 . S
C942 H928 0.960 . S
C942 H929 0.961 . S
C942 H930 0.959 . S
C942 C940 1.561 . S
C943 C940 1.526 . S
C943 C944 1.396 . S
C943 C948 1.390 . S
C944 C938 1.465 . S
C944 C943 1.396 . S
C944 C945 1.399 . S
C945 H931 0.929 . S
C945 C944 1.399 . S
C945 C946 1.385 . S
C946 H932 0.931 . S
C946 C945 1.385 . S
C946 C947 1.389 . S
C947 C946 1.389 . S
C947 C948 1.387 . S
C948 H933 0.930 . S
C948 C943 1.390 . S
C948 C947 1.387 . S
H949 C961 0.930 . S
H950 C963 0.930 . S
H951 C964 0.930 . S
H952 C968 0.959 . S
H953 C968 0.959 . S
H954 C968 0.961 . S
H955 C969 0.960 . S
H956 C969 0.961 . S
H957 C969 0.959 . S
H958 C972 0.929 . S
H959 C973 0.931 . S
H960 C975 0.930 . S
C961 H949 0.930 . S
C961 C962 1.399 . S
C961 C966 1.399 . S
C962 C961 1.399 . S
C962 C963 1.376 . S
C963 H950 0.930 . S
C963 C962 1.376 . S
C963 C964 1.388 . S
C964 H951 0.930 . S
C964 C963 1.388 . S
C964 C965 1.390 . S
C965 C964 1.390 . S
C965 C966 1.394 . S
C965 C971 1.465 . S
C966 C961 1.399 . S
C966 C965 1.394 . S
C966 C967 1.516 . S
C967 C966 1.516 . S
C967 C968 1.502 . S
C967 C969 1.561 . S
C967 C970 1.526 . S
C968 H952 0.959 . S
C968 H953 0.959 . S
C968 H954 0.961 . S
C968 C967 1.502 . S
C969 H955 0.960 . S
C969 H956 0.961 . S
C969 H957 0.959 . S
C969 C967 1.561 . S
C970 C967 1.526 . S
C970 C971 1.396 . S
C970 C975 1.390 . S
C971 C965 1.465 . S
C971 C970 1.396 . S
C971 C972 1.399 . S
C972 H958 0.929 . S
C972 C971 1.399 . S
C972 C973 1.385 . S
C973 H959 0.931 . S
C973 C972 1.385 . S
C973 C974 1.389 . S
C974 C973 1.389 . S
C974 C975 1.387 . S
C975 H960 0.930 . S
C975 C970 1.390 . S
C975 C974 1.387 . S
H976 C988 0.930 . S
H977 C990 0.930 . S
H978 C991 0.930 . S
H979 C995 0.959 . S
H980 C995 0.959 . S
H981 C995 0.987 . S
H982 C996 0.960 . S
H983 C996 0.961 1_565 S
H984 C996 0.959 . S
H985 C999 0.929 . S
H986 C1000 0.931 . S
H987 C1002 0.930 . S
C988 H976 0.930 . S
C988 C989 1.399 . S
C988 C993 1.399 . S
C989 C988 1.399 . S
C989 C990 1.376 . S
C990 H977 0.930 . S
C990 C989 1.376 . S
C990 C991 1.388 . S
C991 H978 0.930 . S
C991 C990 1.388 . S
C991 C992 1.390 . S
C992 C991 1.390 . S
C992 C993 1.394 . S
C992 C998 1.465 1_545 S
C993 C988 1.399 . S
C993 C992 1.394 . S
C993 C994 1.516 1_545 S
C994 C993 1.516 1_565 S
C994 C995 1.502 . S
C994 C996 1.561 1_565 S
C994 C997 1.526 . S
C995 H979 0.959 . S
C995 H980 0.959 . S
C995 H981 0.987 . S
C995 C994 1.502 . S
C996 H982 0.960 . S
C996 H983 0.961 1_545 S
C996 H984 0.959 . S
C996 C994 1.561 1_545 S
C997 C994 1.526 . S
C997 C998 1.396 . S
C997 C1002 1.390 . S
C998 C992 1.465 1_565 S
C998 C997 1.396 . S
C998 C999 1.399 . S
C999 H985 0.929 . S
C999 C998 1.399 . S
C999 C1000 1.385 . S
C1000 H986 0.931 . S
C1000 C999 1.385 . S
C1000 C1001 1.389 . S
C1001 C1000 1.389 . S
C1001 C1002 1.387 . S
C1002 H987 0.930 . S
C1002 C997 1.390 . S
C1002 C1001 1.387 . S
H1003 C1015 0.930 . S
H1004 C1017 0.930 . S
H1005 C1018 0.930 . S
H1006 C1022 0.959 . S
H1007 C1022 0.959 . S
H1008 C1022 0.961 . S
H1009 C1023 0.960 1_565 S
H1010 C1023 0.961 . S
H1011 C1023 0.959 . S
H1012 C1026 0.929 . S
H1013 C1027 0.931 . S
H1014 C1029 0.930 . S
C1015 H1003 0.930 . S
C1015 C1016 1.399 . S
C1015 C1020 1.399 . S
C1016 C1015 1.399 . S
C1016 C1017 1.376 . S
C1017 H1004 0.930 . S
C1017 C1016 1.376 . S
C1017 C1018 1.388 . S
C1018 H1005 0.930 . S
C1018 C1017 1.388 . S
C1018 C1019 1.390 . S
C1019 C1018 1.390 . S
C1019 C1020 1.394 . S
C1019 C1025 1.465 1_565 S
C1020 C1015 1.399 . S
C1020 C1019 1.394 . S
C1020 C1021 1.516 . S
C1021 C1020 1.516 . S
C1021 C1022 1.502 . S
C1021 C1023 1.561 1_565 S
C1021 C1024 1.526 1_565 S
C1022 H1006 0.959 . S
C1022 H1007 0.959 . S
C1022 H1008 0.961 . S
C1022 C1021 1.502 . S
C1023 H1009 0.960 1_545 S
C1023 H1010 0.961 . S
C1023 H1011 0.959 . S
C1023 C1021 1.561 1_545 S
C1024 C1021 1.526 1_545 S
C1024 C1025 1.396 . S
C1024 C1029 1.390 . S
C1025 C1019 1.465 1_545 S
C1025 C1024 1.396 . S
C1025 C1026 1.399 . S
C1026 H1012 0.929 . S
C1026 C1025 1.399 . S
C1026 C1027 1.385 . S
C1027 H1013 0.931 . S
C1027 C1026 1.385 . S
C1027 C1028 1.389 . S
C1028 C1027 1.389 . S
C1028 C1029 1.387 . S
C1029 H1014 0.930 . S
C1029 C1024 1.390 . S
C1029 C1028 1.387 . S
H1030 C1042 0.930 . S
H1031 C1044 0.930 . S
H1032 C1045 0.930 . S
H1033 C1049 0.959 . S
H1034 C1049 0.959 . S
H1035 C1049 0.961 . S
H1036 C1050 0.960 1_545 S
H1037 C1050 0.961 . S
H1038 C1050 0.959 . S
H1039 C1053 0.929 . S
H1040 C1054 0.931 . S
H1041 C1056 0.930 . S
C1042 H1030 0.930 . S
C1042 C1043 1.399 . S
C1042 C1047 1.399 . S
C1043 C1042 1.399 . S
C1043 C1044 1.376 . S
C1044 H1031 0.930 . S
C1044 C1043 1.376 . S
C1044 C1045 1.388 . S
C1045 H1032 0.930 . S
C1045 C1044 1.388 . S
C1045 C1046 1.390 . S
C1046 C1045 1.390 . S
C1046 C1047 1.394 . S
C1046 C1052 1.465 1_545 S
C1047 C1042 1.399 . S
C1047 C1046 1.394 . S
C1047 C1048 1.516 . S
C1048 C1047 1.516 . S
C1048 C1049 1.502 . S
C1048 C1050 1.561 1_545 S
C1048 C1051 1.526 1_545 S
C1049 H1033 0.959 . S
C1049 H1034 0.959 . S
C1049 H1035 0.961 . S
C1049 C1048 1.502 . S
C1050 H1036 0.960 1_565 S
C1050 H1037 0.961 . S
C1050 H1038 0.959 . S
C1050 C1048 1.561 1_565 S
C1051 C1048 1.526 1_565 S
C1051 C1052 1.396 . S
C1051 C1056 1.390 . S
C1052 C1046 1.465 1_565 S
C1052 C1051 1.396 . S
C1052 C1053 1.399 . S
C1053 H1039 0.929 . S
C1053 C1052 1.399 . S
C1053 C1054 1.385 . S
C1054 H1040 0.931 . S
C1054 C1053 1.385 . S
C1054 C1055 1.389 . S
C1055 C1054 1.389 . S
C1055 C1056 1.387 . S
C1056 H1041 0.930 . S
C1056 C1051 1.390 . S
C1056 C1055 1.387 . S
H1057 C1069 0.930 . S
H1058 C1071 0.930 . S
H1059 C1072 0.930 . S
H1060 C1076 0.959 . S
H1061 C1076 0.959 . S
H1062 C1076 0.961 . S
H1063 C1077 0.960 1_565 S
H1064 C1077 0.961 . S
H1065 C1077 0.959 . S
H1066 C1080 0.929 . S
H1067 C1081 0.931 . S
H1068 C1083 0.930 . S
C1069 H1057 0.930 . S
C1069 C1070 1.399 . S
C1069 C1074 1.399 . S
C1070 C1069 1.399 . S
C1070 C1071 1.376 . S
C1071 H1058 0.930 . S
C1071 C1070 1.376 . S
C1071 C1072 1.388 . S
C1072 H1059 0.930 . S
C1072 C1071 1.388 . S
C1072 C1073 1.390 . S
C1073 C1072 1.390 . S
C1073 C1074 1.394 . S
C1073 C1079 1.465 1_565 S
C1074 C1069 1.399 . S
C1074 C1073 1.394 . S
C1074 C1075 1.516 . S
C1075 C1074 1.516 . S
C1075 C1076 1.502 . S
C1075 C1077 1.561 1_565 S
C1075 C1078 1.526 1_565 S
C1076 H1060 0.959 . S
C1076 H1061 0.959 . S
C1076 H1062 0.961 . S
C1076 C1075 1.502 . S
C1077 H1063 0.960 1_545 S
C1077 H1064 0.961 . S
C1077 H1065 0.959 . S
C1077 C1075 1.561 1_545 S
C1078 C1075 1.526 1_545 S
C1078 C1079 1.396 . S
C1078 C1083 1.390 . S
C1079 C1073 1.465 1_545 S
C1079 C1078 1.396 . S
C1079 C1080 1.399 . S
C1080 H1066 0.929 . S
C1080 C1079 1.399 . S
C1080 C1081 1.385 . S
C1081 H1067 0.931 . S
C1081 C1080 1.385 . S
C1081 C1082 1.389 . S
C1082 C1081 1.389 . S
C1082 C1083 1.387 . S
C1083 H1068 0.930 . S
C1083 C1078 1.390 . S
C1083 C1082 1.387 . S
H1084 C1096 0.930 . S
H1085 C1098 0.930 . S
H1086 C1099 0.930 . S
H1087 C1103 0.959 . S
H1088 C1103 0.959 . S
H1089 C1103 0.961 . S
H1090 C1104 0.960 . S
H1091 C1104 0.961 . S
H1092 C1104 0.959 . S
H1093 C1107 0.929 . S
H1094 C1108 0.931 . S
H1095 C1110 0.930 . S
C1096 H1084 0.930 . S
C1096 C1097 1.399 . S
C1096 C1101 1.399 . S
C1097 C1096 1.399 . S
C1097 C1098 1.376 . S
C1098 H1085 0.930 . S
C1098 C1097 1.376 . S
C1098 C1099 1.388 . S
C1099 H1086 0.930 . S
C1099 C1098 1.388 . S
C1099 C1100 1.390 . S
C1100 C1099 1.390 . S
C1100 C1101 1.394 . S
C1100 C1106 1.465 . S
C1101 C1096 1.399 . S
C1101 C1100 1.394 . S
C1101 C1102 1.516 . S
C1102 C1101 1.516 . S
C1102 C1103 1.502 . S
C1102 C1104 1.561 . S
C1102 C1105 1.526 . S
C1103 H1087 0.959 . S
C1103 H1088 0.959 . S
C1103 H1089 0.961 . S
C1103 C1102 1.502 . S
C1104 H1090 0.960 . S
C1104 H1091 0.961 . S
C1104 H1092 0.959 . S
C1104 C1102 1.561 . S
C1105 C1102 1.526 . S
C1105 C1106 1.396 . S
C1105 C1110 1.390 . S
C1106 C1100 1.465 . S
C1106 C1105 1.396 . S
C1106 C1107 1.399 . S
C1107 H1093 0.929 . S
C1107 C1106 1.399 . S
C1107 C1108 1.385 . S
C1108 H1094 0.931 . S
C1108 C1107 1.385 . S
C1108 C1109 1.389 . S
C1109 C1108 1.389 . S
C1109 C1110 1.387 . S
C1110 H1095 0.930 . S
C1110 C1105 1.390 . S
C1110 C1109 1.387 . S
H1111 C1123 0.930 . S
H1112 C1125 0.930 . S
H1113 C1126 0.930 . S
H1114 C1130 0.959 . S
H1115 C1130 0.959 . S
H1116 C1130 0.961 . S
H1117 C1131 0.960 . S
H1118 C1131 0.961 . S
H1119 C1131 0.959 . S
H1120 C1134 0.929 . S
H1121 C1135 0.931 . S
H1122 C1137 0.930 . S
C1123 H1111 0.930 . S
C1123 C1124 1.399 . S
C1123 C1128 1.399 . S
C1124 C1123 1.399 . S
C1124 C1125 1.376 . S
C1125 H1112 0.930 . S
C1125 C1124 1.376 . S
C1125 C1126 1.388 . S
C1126 H1113 0.930 . S
C1126 C1125 1.388 . S
C1126 C1127 1.390 . S
C1127 C1126 1.390 . S
C1127 C1128 1.394 . S
C1127 C1133 1.465 . S
C1128 C1123 1.399 . S
C1128 C1127 1.394 . S
C1128 C1129 1.516 . S
C1129 C1128 1.516 . S
C1129 C1130 1.502 . S
C1129 C1131 1.561 . S
C1129 C1132 1.526 . S
C1130 H1114 0.959 . S
C1130 H1115 0.959 . S
C1130 H1116 0.961 . S
C1130 C1129 1.502 . S
C1131 H1117 0.960 . S
C1131 H1118 0.961 . S
C1131 H1119 0.959 . S
C1131 C1129 1.561 . S
C1132 C1129 1.526 . S
C1132 C1133 1.396 . S
C1132 C1137 1.390 . S
C1133 C1127 1.465 . S
C1133 C1132 1.396 . S
C1133 C1134 1.399 . S
C1134 H1120 0.929 . S
C1134 C1133 1.399 . S
C1134 C1135 1.385 . S
C1135 H1121 0.931 . S
C1135 C1134 1.385 . S
C1135 C1136 1.389 . S
C1136 C1135 1.389 . S
C1136 C1137 1.387 . S
C1137 H1122 0.930 . S
C1137 C1132 1.390 . S
C1137 C1136 1.387 . S
H1138 C1150 0.930 . S
H1139 C1152 0.930 . S
H1140 C1153 0.930 . S
H1141 C1157 0.959 . S
H1142 C1157 0.959 . S
H1143 C1157 0.961 . S
H1144 C1158 0.960 . S
H1145 C1158 0.961 . S
H1146 C1158 0.959 . S
H1147 C1161 0.929 . S
H1148 C1162 0.931 . S
H1149 C1164 0.930 . S
C1150 H1138 0.930 . S
C1150 C1151 1.399 . S
C1150 C1155 1.399 . S
C1151 C1150 1.399 . S
C1151 C1152 1.376 . S
C1152 H1139 0.930 . S
C1152 C1151 1.376 . S
C1152 C1153 1.388 . S
C1153 H1140 0.930 . S
C1153 C1152 1.388 . S
C1153 C1154 1.390 . S
C1154 C1153 1.390 . S
C1154 C1155 1.394 . S
C1154 C1160 1.465 . S
C1155 C1150 1.399 . S
C1155 C1154 1.394 . S
C1155 C1156 1.516 . S
C1156 C1155 1.516 . S
C1156 C1157 1.502 . S
C1156 C1158 1.561 . S
C1156 C1159 1.526 . S
C1157 H1141 0.959 . S
C1157 H1142 0.959 . S
C1157 H1143 0.961 . S
C1157 C1156 1.502 . S
C1158 H1144 0.960 . S
C1158 H1145 0.961 . S
C1158 H1146 0.959 . S
C1158 C1156 1.561 . S
C1159 C1156 1.526 . S
C1159 C1160 1.396 . S
C1159 C1164 1.390 . S
C1160 C1154 1.465 . S
C1160 C1159 1.396 . S
C1160 C1161 1.399 . S
C1161 H1147 0.929 . S
C1161 C1160 1.399 . S
C1161 C1162 1.385 . S
C1162 H1148 0.931 . S
C1162 C1161 1.385 . S
C1162 C1163 1.389 . S
C1163 C1162 1.389 . S
C1163 C1164 1.387 . S
C1164 H1149 0.930 . S
C1164 C1159 1.390 . S
C1164 C1163 1.387 . S
H1165 C1177 0.930 . S
H1166 C1179 0.930 . S
H1167 C1180 0.930 . S
H1168 C1184 0.959 . S
H1169 C1184 0.959 . S
H1170 C1184 0.961 . S
H1171 C1185 0.960 . S
H1172 C1185 0.961 . S
H1173 C1185 0.959 . S
H1174 C1188 0.929 . S
H1175 C1189 0.931 . S
H1176 C1191 0.930 . S
C1177 H1165 0.930 . S
C1177 C1178 1.399 . S
C1177 C1182 1.399 . S
C1178 C1177 1.399 . S
C1178 C1179 1.376 . S
C1179 H1166 0.930 . S
C1179 C1178 1.376 . S
C1179 C1180 1.388 . S
C1180 H1167 0.930 . S
C1180 C1179 1.388 . S
C1180 C1181 1.390 . S
C1181 C1180 1.390 . S
C1181 C1182 1.394 . S
C1181 C1187 1.465 . S
C1182 C1177 1.399 . S
C1182 C1181 1.394 . S
C1182 C1183 1.516 . S
C1183 C1182 1.516 . S
C1183 C1184 1.502 . S
C1183 C1185 1.561 . S
C1183 C1186 1.526 . S
C1184 H1168 0.959 . S
C1184 H1169 0.959 . S
C1184 H1170 0.961 . S
C1184 C1183 1.502 . S
C1185 H1171 0.960 . S
C1185 H1172 0.961 . S
C1185 H1173 0.959 . S
C1185 C1183 1.561 . S
C1186 C1183 1.526 . S
C1186 C1187 1.396 . S
C1186 C1191 1.390 . S
C1187 C1181 1.465 . S
C1187 C1186 1.396 . S
C1187 C1188 1.399 . S
C1188 H1174 0.929 . S
C1188 C1187 1.399 . S
C1188 C1189 1.385 . S
C1189 H1175 0.931 . S
C1189 C1188 1.385 . S
C1189 C1190 1.389 . S
C1190 C1189 1.389 . S
C1190 C1191 1.387 . S
C1191 H1176 0.930 . S
C1191 C1186 1.390 . S
C1191 C1190 1.387 . S
H1192 C1204 0.930 . S
H1193 C1206 0.930 . S
H1194 C1207 0.930 . S
H1195 C1211 0.959 . S
H1196 C1211 0.959 . S
H1197 C1211 0.961 . S
H1198 C1212 0.960 . S
H1199 C1212 0.961 1_455 S
H1200 C1212 0.959 . S
H1201 C1215 0.929 . S
H1202 C1216 0.931 . S
H1203 C1218 0.930 . S
C1204 H1192 0.930 . S
C1204 C1205 1.399 . S
C1204 C1209 1.399 . S
C1205 C1204 1.399 . S
C1205 C1206 1.376 . S
C1206 H1193 0.930 . S
C1206 C1205 1.376 . S
C1206 C1207 1.388 . S
C1207 H1194 0.930 . S
C1207 C1206 1.388 . S
C1207 C1208 1.390 . S
C1208 C1207 1.390 . S
C1208 C1209 1.394 . S
C1208 C1214 1.465 . S
C1209 C1204 1.399 . S
C1209 C1208 1.394 . S
C1209 C1210 1.516 1_655 S
C1210 C1209 1.516 1_455 S
C1210 C1211 1.502 . S
C1210 C1212 1.561 1_455 S
C1210 C1213 1.526 . S
C1211 H1195 0.959 . S
C1211 H1196 0.959 . S
C1211 H1197 0.961 . S
C1211 C1210 1.502 . S
C1212 H1198 0.960 . S
C1212 H1199 0.961 1_655 S
C1212 H1200 0.959 . S
C1212 C1210 1.561 1_655 S
C1213 C1210 1.526 . S
C1213 C1214 1.396 1_455 S
C1213 C1218 1.390 . S
C1214 C1208 1.465 . S
C1214 C1213 1.396 1_655 S
C1214 C1215 1.399 . S
C1215 H1201 0.929 . S
C1215 C1214 1.399 . S
C1215 C1216 1.385 1_655 S
C1216 H1202 0.931 . S
C1216 C1215 1.385 1_455 S
C1216 C1217 1.389 . S
C1217 C1216 1.389 . S
C1217 C1218 1.387 . S
C1218 H1203 0.930 . S
C1218 C1213 1.390 . S
C1218 C1217 1.387 . S
H1219 C1231 0.930 . S
H1220 C1233 0.930 . S
H1221 C1234 0.930 . S
H1222 C1238 0.959 . S
H1223 C1238 0.959 . S
H1224 C1238 0.961 . S
H1225 C1239 0.960 . S
H1226 C1239 0.961 . S
H1227 C1239 0.959 . S
H1228 C1242 0.929 . S
H1229 C1243 0.931 . S
H1230 C1245 0.930 . S
C1231 H1219 0.930 . S
C1231 C1232 1.399 . S
C1231 C1236 1.399 . S
C1232 C1231 1.399 . S
C1232 C1233 1.376 . S
C1233 H1220 0.930 . S
C1233 C1232 1.376 . S
C1233 C1234 1.388 . S
C1234 H1221 0.930 . S
C1234 C1233 1.388 . S
C1234 C1235 1.390 . S
C1235 C1234 1.390 . S
C1235 C1236 1.394 . S
C1235 C1241 1.465 . S
C1236 C1231 1.399 . S
C1236 C1235 1.394 . S
C1236 C1237 1.516 . S
C1237 C1236 1.516 . S
C1237 C1238 1.502 . S
C1237 C1239 1.561 . S
C1237 C1240 1.526 . S
C1238 H1222 0.959 . S
C1238 H1223 0.959 . S
C1238 H1224 0.961 . S
C1238 C1237 1.502 . S
C1239 H1225 0.960 . S
C1239 H1226 0.961 . S
C1239 H1227 0.959 . S
C1239 C1237 1.561 . S
C1240 C1237 1.526 . S
C1240 C1241 1.396 . S
C1240 C1245 1.390 . S
C1241 C1235 1.465 . S
C1241 C1240 1.396 . S
C1241 C1242 1.399 . S
C1242 H1228 0.929 . S
C1242 C1241 1.399 . S
C1242 C1243 1.385 . S
C1243 H1229 0.931 . S
C1243 C1242 1.385 . S
C1243 C1244 1.389 . S
C1244 C1243 1.389 . S
C1244 C1245 1.387 . S
C1245 H1230 0.930 . S
C1245 C1240 1.390 . S
C1245 C1244 1.387 . S
H1246 C1258 0.930 . S
H1247 C1260 0.930 . S
H1248 C1261 0.930 . S
H1249 C1265 0.959 . S
H1250 C1265 0.959 . S
H1251 C1265 0.961 . S
H1252 C1266 0.960 . S
H1253 C1266 0.961 . S
H1254 C1266 0.959 . S
H1255 C1269 0.929 . S
H1256 C1270 0.931 . S
H1257 C1272 0.930 . S
C1258 H1246 0.930 . S
C1258 C1259 1.399 . S
C1258 C1263 1.399 . S
C1259 C1258 1.399 . S
C1259 C1260 1.376 . S
C1260 H1247 0.930 . S
C1260 C1259 1.376 . S
C1260 C1261 1.388 . S
C1261 H1248 0.930 . S
C1261 C1260 1.388 . S
C1261 C1262 1.390 . S
C1262 C1261 1.390 . S
C1262 C1263 1.394 . S
C1262 C1268 1.465 . S
C1263 C1258 1.399 . S
C1263 C1262 1.394 . S
C1263 C1264 1.516 . S
C1264 C1263 1.516 . S
C1264 C1265 1.502 . S
C1264 C1266 1.561 . S
C1264 C1267 1.526 . S
C1265 H1249 0.959 . S
C1265 H1250 0.959 . S
C1265 H1251 0.961 . S
C1265 C1264 1.502 . S
C1266 H1252 0.960 . S
C1266 H1253 0.961 . S
C1266 H1254 0.959 . S
C1266 C1264 1.561 . S
C1267 C1264 1.526 . S
C1267 C1268 1.396 . S
C1267 C1272 1.390 . S
C1268 C1262 1.465 . S
C1268 C1267 1.396 . S
C1268 C1269 1.399 . S
C1269 H1255 0.929 . S
C1269 C1268 1.399 . S
C1269 C1270 1.385 . S
C1270 H1256 0.931 . S
C1270 C1269 1.385 . S
C1270 C1271 1.389 . S
C1271 C1270 1.389 . S
C1271 C1272 1.387 . S
C1272 H1257 0.930 . S
C1272 C1267 1.390 . S
C1272 C1271 1.387 . S
H1273 C1285 0.930 . S
H1274 C1287 0.930 . S
H1275 C1288 0.930 . S
H1276 C1292 0.959 . S
H1277 C1292 0.959 . S
H1278 C1292 0.961 . S
H1279 C1293 0.960 . S
H1280 C1293 0.960 1_655 S
H1281 C1293 0.959 1_655 S
H1282 C1296 0.929 . S
H1283 C1297 0.931 . S
H1284 C1299 0.930 . S
C1285 H1273 0.930 . S
C1285 C1286 1.399 . S
C1285 C1290 1.399 . S
C1286 C1285 1.399 . S
C1286 C1287 1.376 . S
C1287 H1274 0.930 . S
C1287 C1286 1.376 . S
C1287 C1288 1.388 1_455 S
C1288 H1275 0.930 . S
C1288 C1287 1.388 1_655 S
C1288 C1289 1.390 . S
C1289 C1288 1.390 . S
C1289 C1290 1.394 1_655 S
C1289 C1295 1.465 . S
C1290 C1285 1.399 . S
C1290 C1289 1.394 1_455 S
C1290 C1291 1.516 . S
C1291 C1290 1.516 . S
C1291 C1292 1.502 . S
C1291 C1293 1.561 . S
C1291 C1294 1.526 1_455 S
C1292 H1276 0.959 . S
C1292 H1277 0.959 . S
C1292 H1278 0.961 . S
C1292 C1291 1.502 . S
C1293 H1279 0.960 . S
C1293 H1280 0.960 1_455 S
C1293 H1281 0.959 1_455 S
C1293 C1291 1.561 . S
C1294 C1291 1.526 1_655 S
C1294 C1295 1.396 . S
C1294 C1299 1.390 . S
C1295 C1289 1.465 . S
C1295 C1294 1.396 . S
C1295 C1296 1.399 . S
C1296 H1282 0.929 . S
C1296 C1295 1.399 . S
C1296 C1297 1.385 . S
C1297 H1283 0.931 . S
C1297 C1296 1.385 . S
C1297 C1298 1.389 . S
C1298 C1297 1.389 . S
C1298 C1299 1.387 . S
C1299 H1284 0.930 . S
C1299 C1294 1.390 . S
C1299 C1298 1.387 . S
H1300 C1312 0.930 . S
H1301 C1314 0.930 . S
H1302 C1315 0.930 . S
H1303 C1319 0.959 . S
H1304 C1319 0.959 1_455 S
H1305 C1319 0.961 . S
H1306 C1320 0.960 . S
H1307 C1320 0.961 . S
H1308 C1320 0.959 . S
H1309 C1323 0.929 . S
H1310 C1324 0.931 . S
H1311 C1326 0.930 . S
C1312 H1300 0.930 . S
C1312 C1313 1.399 . S
C1312 C1317 1.399 . S
C1313 C1312 1.399 . S
C1313 C1314 1.376 . S
C1314 H1301 0.930 . S
C1314 C1313 1.376 . S
C1314 C1315 1.388 . S
C1315 H1302 0.930 . S
C1315 C1314 1.388 . S
C1315 C1316 1.390 . S
C1316 C1315 1.390 . S
C1316 C1317 1.394 . S
C1316 C1322 1.465 1_655 S
C1317 C1312 1.399 . S
C1317 C1316 1.394 . S
C1317 C1318 1.516 1_655 S
C1318 C1317 1.516 1_455 S
C1318 C1319 1.502 1_455 S
C1318 C1320 1.561 . S
C1318 C1321 1.526 . S
C1319 H1303 0.959 . S
C1319 H1304 0.959 1_655 S
C1319 H1305 0.961 . S
C1319 C1318 1.502 1_655 S
C1320 H1306 0.960 . S
C1320 H1307 0.961 . S
C1320 H1308 0.959 . S
C1320 C1318 1.561 . S
C1321 C1318 1.526 . S
C1321 C1322 1.396 . S
C1321 C1326 1.390 . S
C1322 C1316 1.465 1_455 S
C1322 C1321 1.396 . S
C1322 C1323 1.399 . S
C1323 H1309 0.929 . S
C1323 C1322 1.399 . S
C1323 C1324 1.385 . S
C1324 H1310 0.931 . S
C1324 C1323 1.385 . S
C1324 C1325 1.389 . S
C1325 C1324 1.389 . S
C1325 C1326 1.387 . S
C1326 H1311 0.930 . S
C1326 C1321 1.390 . S
C1326 C1325 1.387 . S
H1327 C1339 0.930 . S
H1328 C1341 0.930 . S
H1329 C1342 0.930 . S
H1330 C1346 0.959 . S
H1331 C1346 0.959 . S
H1332 C1346 0.961 . S
H1333 C1347 0.960 . S
H1334 C1347 0.961 . S
H1335 C1347 0.959 . S
H1336 C1350 0.929 . S
H1337 C1351 0.931 . S
H1338 C1353 0.930 . S
C1339 H1327 0.930 . S
C1339 C1340 1.399 . S
C1339 C1344 1.399 . S
C1340 C1339 1.399 . S
C1340 C1341 1.376 . S
C1341 H1328 0.930 . S
C1341 C1340 1.376 . S
C1341 C1342 1.388 . S
C1342 H1329 0.930 . S
C1342 C1341 1.388 . S
C1342 C1343 1.390 . S
C1343 C1342 1.390 . S
C1343 C1344 1.394 . S
C1343 C1349 1.465 . S
C1344 C1339 1.399 . S
C1344 C1343 1.394 . S
C1344 C1345 1.516 . S
C1345 C1344 1.516 . S
C1345 C1346 1.502 . S
C1345 C1347 1.561 . S
C1345 C1348 1.526 . S
C1346 H1330 0.959 . S
C1346 H1331 0.959 . S
C1346 H1332 0.961 . S
C1346 C1345 1.502 . S
C1347 H1333 0.960 . S
C1347 H1334 0.961 . S
C1347 H1335 0.959 . S
C1347 C1345 1.561 . S
C1348 C1345 1.526 . S
C1348 C1349 1.396 . S
C1348 C1353 1.390 . S
C1349 C1343 1.465 . S
C1349 C1348 1.396 . S
C1349 C1350 1.399 . S
C1350 H1336 0.929 . S
C1350 C1349 1.399 . S
C1350 C1351 1.385 . S
C1351 H1337 0.931 . S
C1351 C1350 1.385 . S
C1351 C1352 1.389 . S
C1352 C1351 1.389 . S
C1352 C1353 1.387 . S
C1353 H1338 0.930 . S
C1353 C1348 1.390 . S
C1353 C1352 1.387 . S
H1354 C1366 0.930 . S
H1355 C1368 0.930 . S
H1356 C1369 0.930 . S
H1357 C1373 0.959 . S
H1358 C1373 0.959 . S
H1359 C1373 0.961 . S
H1360 C1374 0.960 . S
H1361 C1374 0.961 . S
H1362 C1374 0.959 . S
H1363 C1377 0.929 . S
H1364 C1378 0.931 . S
H1365 C1380 0.930 . S
C1366 H1354 0.930 . S
C1366 C1367 1.399 . S
C1366 C1371 1.399 . S
C1367 C1366 1.399 . S
C1367 C1368 1.376 . S
C1368 H1355 0.930 . S
C1368 C1367 1.376 . S
C1368 C1369 1.388 . S
C1369 H1356 0.930 . S
C1369 C1368 1.388 . S
C1369 C1370 1.390 . S
C1370 C1369 1.390 . S
C1370 C1371 1.394 . S
C1370 C1376 1.465 . S
C1371 C1366 1.399 . S
C1371 C1370 1.394 . S
C1371 C1372 1.516 . S
C1372 C1371 1.516 . S
C1372 C1373 1.502 . S
C1372 C1374 1.561 . S
C1372 C1375 1.526 . S
C1373 H1357 0.959 . S
C1373 H1358 0.959 . S
C1373 H1359 0.961 . S
C1373 C1372 1.502 . S
C1374 H1360 0.960 . S
C1374 H1361 0.961 . S
C1374 H1362 0.959 . S
C1374 C1372 1.561 . S
C1375 C1372 1.526 . S
C1375 C1376 1.396 . S
C1375 C1380 1.390 . S
C1376 C1370 1.465 . S
C1376 C1375 1.396 . S
C1376 C1377 1.399 . S
C1377 H1363 0.929 . S
C1377 C1376 1.399 . S
C1377 C1378 1.385 . S
C1378 H1364 0.931 . S
C1378 C1377 1.385 . S
C1378 C1379 1.389 . S
C1379 C1378 1.389 . S
C1379 C1380 1.387 . S
C1380 H1365 0.930 . S
C1380 C1375 1.390 . S
C1380 C1379 1.387 . S
H1381 C1393 0.930 . S
H1382 C1395 0.930 . S
H1383 C1396 0.930 . S
H1384 C1400 0.959 . S
H1385 C1400 0.959 . S
H1386 C1400 0.961 . S
H1387 C1401 0.960 . S
H1388 C1401 0.961 . S
H1389 C1401 0.959 1_655 S
H1390 C1404 0.929 . S
H1391 C1405 0.931 . S
H1392 C1407 0.930 . S
C1393 H1381 0.930 . S
C1393 C1394 1.399 . S
C1393 C1398 1.399 . S
C1394 C1393 1.399 . S
C1394 C1395 1.376 . S
C1395 H1382 0.930 . S
C1395 C1394 1.376 . S
C1395 C1396 1.388 . S
C1396 H1383 0.930 . S
C1396 C1395 1.388 . S
C1396 C1397 1.390 . S
C1397 C1396 1.390 . S
C1397 C1398 1.394 . S
C1397 C1403 1.465 . S
C1398 C1393 1.399 . S
C1398 C1397 1.394 . S
C1398 C1399 1.516 1_655 S
C1399 C1398 1.516 1_455 S
C1399 C1400 1.502 . S
C1399 C1401 1.561 . S
C1399 C1402 1.526 . S
C1400 H1384 0.959 . S
C1400 H1385 0.959 . S
C1400 H1386 0.961 . S
C1400 C1399 1.502 . S
C1401 H1387 0.960 . S
C1401 H1388 0.961 . S
C1401 H1389 0.959 1_455 S
C1401 C1399 1.561 . S
C1402 C1399 1.526 . S
C1402 C1403 1.396 1_455 S
C1402 C1407 1.390 . S
C1403 C1397 1.465 . S
C1403 C1402 1.396 1_655 S
C1403 C1404 1.399 . S
C1404 H1390 0.929 . S
C1404 C1403 1.399 . S
C1404 C1405 1.385 1_655 S
C1405 H1391 0.931 . S
C1405 C1404 1.385 1_455 S
C1405 C1406 1.389 . S
C1406 C1405 1.389 . S
C1406 C1407 1.387 . S
C1407 H1392 0.930 . S
C1407 C1402 1.390 . S
C1407 C1406 1.387 . S
H1408 C1420 0.930 . S
H1409 C1422 0.930 . S
H1410 C1423 0.930 . S
H1411 C1427 0.959 . S
H1412 C1427 0.959 . S
H1413 C1427 0.961 . S
H1414 C1428 0.960 . S
H1415 C1428 0.961 . S
H1416 C1428 0.959 . S
H1417 C1431 0.929 . S
H1418 C1432 0.931 . S
H1419 C1434 0.930 . S
C1420 H1408 0.930 . S
C1420 C1421 1.399 . S
C1420 C1425 1.399 . S
C1421 C1420 1.399 . S
C1421 C1422 1.376 . S
C1422 H1409 0.930 . S
C1422 C1421 1.376 . S
C1422 C1423 1.388 . S
C1423 H1410 0.930 . S
C1423 C1422 1.388 . S
C1423 C1424 1.390 . S
C1424 C1423 1.390 . S
C1424 C1425 1.394 . S
C1424 C1430 1.465 . S
C1425 C1420 1.399 . S
C1425 C1424 1.394 . S
C1425 C1426 1.516 1_455 S
C1426 C1425 1.516 1_655 S
C1426 C1427 1.502 . S
C1426 C1428 1.561 1_655 S
C1426 C1429 1.526 . S
C1427 H1411 0.959 . S
C1427 H1412 0.959 . S
C1427 H1413 0.961 . S
C1427 C1426 1.502 . S
C1428 H1414 0.960 . S
C1428 H1415 0.961 . S
C1428 H1416 0.959 . S
C1428 C1426 1.561 1_455 S
C1429 C1426 1.526 . S
C1429 C1430 1.396 1_655 S
C1429 C1434 1.390 . S
C1430 C1424 1.465 . S
C1430 C1429 1.396 1_455 S
C1430 C1431 1.399 . S
C1431 H1417 0.929 . S
C1431 C1430 1.399 . S
C1431 C1432 1.385 1_455 S
C1432 H1418 0.931 . S
C1432 C1431 1.385 1_655 S
C1432 C1433 1.389 . S
C1433 C1432 1.389 . S
C1433 C1434 1.387 . S
C1434 H1419 0.930 . S
C1434 C1429 1.390 . S
C1434 C1433 1.387 . S
H1435 C1447 0.930 . S
H1436 C1449 0.930 . S
H1437 C1450 0.930 . S
H1438 C1454 0.959 . S
H1439 C1454 0.959 . S
H1440 C1454 0.961 . S
H1441 C1455 0.960 . S
H1442 C1455 0.961 . S
H1443 C1455 0.959 . S
H1444 C1458 0.929 . S
H1445 C1459 0.931 . S
H1446 C1461 0.930 . S
C1447 H1435 0.930 . S
C1447 C1448 1.399 . S
C1447 C1452 1.399 . S
C1448 C1447 1.399 . S
C1448 C1449 1.376 . S
C1449 H1436 0.930 . S
C1449 C1448 1.376 . S
C1449 C1450 1.388 . S
C1450 H1437 0.930 . S
C1450 C1449 1.388 . S
C1450 C1451 1.390 . S
C1451 C1450 1.390 . S
C1451 C1452 1.394 . S
C1451 C1457 1.465 . S
C1452 C1447 1.399 . S
C1452 C1451 1.394 . S
C1452 C1453 1.516 . S
C1453 C1452 1.516 . S
C1453 C1454 1.502 . S
C1453 C1455 1.561 . S
C1453 C1456 1.526 . S
C1454 H1438 0.959 . S
C1454 H1439 0.959 . S
C1454 H1440 0.961 . S
C1454 C1453 1.502 . S
C1455 H1441 0.960 . S
C1455 H1442 0.961 . S
C1455 H1443 0.959 . S
C1455 C1453 1.561 . S
C1456 C1453 1.526 . S
C1456 C1457 1.396 . S
C1456 C1461 1.390 . S
C1457 C1451 1.465 . S
C1457 C1456 1.396 . S
C1457 C1458 1.399 . S
C1458 H1444 0.929 . S
C1458 C1457 1.399 . S
C1458 C1459 1.385 . S
C1459 H1445 0.931 . S
C1459 C1458 1.385 . S
C1459 C1460 1.389 . S
C1460 C1459 1.389 . S
C1460 C1461 1.387 . S
C1461 H1446 0.930 . S
C1461 C1456 1.390 . S
C1461 C1460 1.387 . S
H1462 C1474 0.930 1_455 S
H1463 C1476 0.930 . S
H1464 C1477 0.930 . S
H1465 C1481 0.959 . S
H1466 C1481 0.959 . S
H1467 C1481 0.961 . S
H1468 C1482 0.960 . S
H1469 C1482 0.961 . S
H1470 C1482 0.959 . S
H1471 C1485 0.929 . S
H1472 C1486 0.931 . S
H1473 C1488 0.930 . S
C1474 H1462 0.930 1_655 S
C1474 C1475 1.399 . S
C1474 C1479 1.399 1_655 S
C1475 C1474 1.399 . S
C1475 C1476 1.376 . S
C1476 H1463 0.930 . S
C1476 C1475 1.376 . S
C1476 C1477 1.388 . S
C1477 H1464 0.930 . S
C1477 C1476 1.388 . S
C1477 C1478 1.390 . S
C1478 C1477 1.390 . S
C1478 C1479 1.394 1_655 S
C1478 C1484 1.465 . S
C1479 C1474 1.399 1_455 S
C1479 C1478 1.394 1_455 S
C1479 C1480 1.516 . S
C1480 C1479 1.516 . S
C1480 C1481 1.502 . S
C1480 C1482 1.561 . S
C1480 C1483 1.526 . S
C1481 H1465 0.959 . S
C1481 H1466 0.959 . S
C1481 H1467 0.961 . S
C1481 C1480 1.502 . S
C1482 H1468 0.960 . S
C1482 H1469 0.961 . S
C1482 H1470 0.959 . S
C1482 C1480 1.561 . S
C1483 C1480 1.526 . S
C1483 C1484 1.396 1_455 S
C1483 C1488 1.390 . S
C1484 C1478 1.465 . S
C1484 C1483 1.396 1_655 S
C1484 C1485 1.399 . S
C1485 H1471 0.929 . S
C1485 C1484 1.399 . S
C1485 C1486 1.385 . S
C1486 H1472 0.931 . S
C1486 C1485 1.385 . S
C1486 C1487 1.389 1_655 S
C1487 C1486 1.389 1_455 S
C1487 C1488 1.387 . S
C1488 H1473 0.930 . S
C1488 C1483 1.390 . S
C1488 C1487 1.387 . S
H1489 C1501 0.930 . S
H1490 C1503 0.930 . S
H1491 C1504 0.930 . S
H1492 C1508 0.959 . S
H1493 C1508 0.959 . S
H1494 C1508 0.961 . S
H1495 C1509 0.960 . S
H1496 C1509 0.961 . S
H1497 C1509 0.959 . S
H1498 C1512 0.929 . S
H1499 C1513 0.931 . S
H1500 C1515 0.930 . S
C1501 H1489 0.930 . S
C1501 C1502 1.399 . S
C1501 C1506 1.399 . S
C1502 C1501 1.399 . S
C1502 C1503 1.376 . S
C1503 H1490 0.930 . S
C1503 C1502 1.376 . S
C1503 C1504 1.388 . S
C1504 H1491 0.930 . S
C1504 C1503 1.388 . S
C1504 C1505 1.390 . S
C1505 C1504 1.390 . S
C1505 C1506 1.394 . S
C1505 C1511 1.465 . S
C1506 C1501 1.399 . S
C1506 C1505 1.394 . S
C1506 C1507 1.516 . S
C1507 C1506 1.516 . S
C1507 C1508 1.502 . S
C1507 C1509 1.561 . S
C1507 C1510 1.526 . S
C1508 H1492 0.959 . S
C1508 H1493 0.959 . S
C1508 H1494 0.961 . S
C1508 C1507 1.502 . S
C1509 H1495 0.960 . S
C1509 H1496 0.961 . S
C1509 H1497 0.959 . S
C1509 C1507 1.561 . S
C1510 C1507 1.526 . S
C1510 C1511 1.396 . S
C1510 C1515 1.390 . S
C1511 C1505 1.465 . S
C1511 C1510 1.396 . S
C1511 C1512 1.399 . S
C1512 H1498 0.929 . S
C1512 C1511 1.399 . S
C1512 C1513 1.385 . S
C1513 H1499 0.931 . S
C1513 C1512 1.385 . S
C1513 C1514 1.389 . S
C1514 C1513 1.389 . S
C1514 C1515 1.387 . S
C1515 H1500 0.930 . S
C1515 C1510 1.390 . S
C1515 C1514 1.387 . S
H1516 C1528 0.930 . S
H1517 C1530 0.930 . S
H1518 C1531 0.930 . S
H1519 C1535 0.959 . S
H1520 C1535 0.959 . S
H1521 C1535 0.961 . S
H1522 C1536 0.960 . S
H1523 C1536 0.961 . S
H1524 C1536 0.959 . S
H1525 C1539 0.929 . S
H1526 C1540 0.931 . S
H1527 C1542 0.930 . S
C1528 H1516 0.930 . S
C1528 C1529 1.399 . S
C1528 C1533 1.399 . S
C1529 C1528 1.399 . S
C1529 C1530 1.376 . S
C1530 H1517 0.930 . S
C1530 C1529 1.376 . S
C1530 C1531 1.388 . S
C1531 H1518 0.930 . S
C1531 C1530 1.388 . S
C1531 C1532 1.390 . S
C1532 C1531 1.390 . S
C1532 C1533 1.394 . S
C1532 C1538 1.465 . S
C1533 C1528 1.399 . S
C1533 C1532 1.394 . S
C1533 C1534 1.516 . S
C1534 C1533 1.516 . S
C1534 C1535 1.502 . S
C1534 C1536 1.561 . S
C1534 C1537 1.526 . S
C1535 H1519 0.959 . S
C1535 H1520 0.959 . S
C1535 H1521 0.961 . S
C1535 C1534 1.502 . S
C1536 H1522 0.960 . S
C1536 H1523 0.961 . S
C1536 H1524 0.959 . S
C1536 C1534 1.561 . S
C1537 C1534 1.526 . S
C1537 C1538 1.396 . S
C1537 C1542 1.390 . S
C1538 C1532 1.465 . S
C1538 C1537 1.396 . S
C1538 C1539 1.399 . S
C1539 H1525 0.929 . S
C1539 C1538 1.399 . S
C1539 C1540 1.385 . S
C1540 H1526 0.931 . S
C1540 C1539 1.385 . S
C1540 C1541 1.389 . S
C1541 C1540 1.389 . S
C1541 C1542 1.387 . S
C1542 H1527 0.930 . S
C1542 C1537 1.390 . S
C1542 C1541 1.387 . S
H1543 C1555 0.930 . S
H1544 C1557 0.930 . S
H1545 C1558 0.930 1_655 S
H1546 C1562 0.959 . S
H1547 C1562 0.959 . S
H1548 C1562 0.961 . S
H1549 C1563 0.960 . S
H1550 C1563 0.961 . S
H1551 C1563 0.959 . S
H1552 C1566 0.929 . S
H1553 C1567 0.931 . S
H1554 C1569 0.930 . S
C1555 H1543 0.930 . S
C1555 C1556 1.399 . S
C1555 C1560 1.399 . S
C1556 C1555 1.399 . S
C1556 C1557 1.376 . S
C1557 H1544 0.930 . S
C1557 C1556 1.376 . S
C1557 C1558 1.388 . S
C1558 H1545 0.930 1_455 S
C1558 C1557 1.388 . S
C1558 C1559 1.390 1_455 S
C1559 C1558 1.390 1_655 S
C1559 C1560 1.394 1_655 S
C1559 C1565 1.465 . S
C1560 C1555 1.399 . S
C1560 C1559 1.394 1_455 S
C1560 C1561 1.516 . S
C1561 C1560 1.516 . S
C1561 C1562 1.502 . S
C1561 C1563 1.561 1_455 S
C1561 C1564 1.526 1_455 S
C1562 H1546 0.959 . S
C1562 H1547 0.959 . S
C1562 H1548 0.961 . S
C1562 C1561 1.502 . S
C1563 H1549 0.960 . S
C1563 H1550 0.961 . S
C1563 H1551 0.959 . S
C1563 C1561 1.561 1_655 S
C1564 C1561 1.526 1_655 S
C1564 C1565 1.396 . S
C1564 C1569 1.390 . S
C1565 C1559 1.465 . S
C1565 C1564 1.396 . S
C1565 C1566 1.399 . S
C1566 H1552 0.929 . S
C1566 C1565 1.399 . S
C1566 C1567 1.385 . S
C1567 H1553 0.931 . S
C1567 C1566 1.385 . S
C1567 C1568 1.389 . S
C1568 C1567 1.389 . S
C1568 C1569 1.387 . S
C1569 H1554 0.930 . S
C1569 C1564 1.390 . S
C1569 C1568 1.387 . S
H1570 C1582 0.930 . S
H1571 C1584 0.930 . S
H1572 C1585 0.930 . S
H1573 C1589 0.959 . S
H1574 C1589 0.959 . S
H1575 C1589 0.961 . S
H1576 C1590 0.960 . S
H1577 C1590 0.961 . S
H1578 C1590 0.959 . S
H1579 C1593 0.929 . S
H1580 C1594 0.931 . S
H1581 C1596 0.930 . S
C1582 H1570 0.930 . S
C1582 C1583 1.399 . S
C1582 C1587 1.399 . S
C1583 C1582 1.399 . S
C1583 C1584 1.376 . S
C1584 H1571 0.930 . S
C1584 C1583 1.376 . S
C1584 C1585 1.388 . S
C1585 H1572 0.930 . S
C1585 C1584 1.388 . S
C1585 C1586 1.390 . S
C1586 C1585 1.390 . S
C1586 C1587 1.394 . S
C1586 C1592 1.465 . S
C1587 C1582 1.399 . S
C1587 C1586 1.394 . S
C1587 C1588 1.516 . S
C1588 C1587 1.516 . S
C1588 C1589 1.502 . S
C1588 C1590 1.561 . S
C1588 C1591 1.526 . S
C1589 H1573 0.959 . S
C1589 H1574 0.959 . S
C1589 H1575 0.961 . S
C1589 C1588 1.502 . S
C1590 H1576 0.960 . S
C1590 H1577 0.961 . S
C1590 H1578 0.959 . S
C1590 C1588 1.561 . S
C1591 C1588 1.526 . S
C1591 C1592 1.396 . S
C1591 C1596 1.390 . S
C1592 C1586 1.465 . S
C1592 C1591 1.396 . S
C1592 C1593 1.399 . S
C1593 H1579 0.929 . S
C1593 C1592 1.399 . S
C1593 C1594 1.385 . S
C1594 H1580 0.931 . S
C1594 C1593 1.385 . S
C1594 C1595 1.389 . S
C1595 C1594 1.389 . S
C1595 C1596 1.387 . S
C1596 H1581 0.930 . S
C1596 C1591 1.390 . S
C1596 C1595 1.387 . S
H1597 C1609 0.930 . S
H1598 C1611 0.930 . S
H1599 C1612 0.930 . S
H1600 C1616 0.959 . S
H1601 C1616 0.959 . S
H1602 C1616 0.961 . S
H1603 C1617 0.960 . S
H1604 C1617 0.961 . S
H1605 C1617 0.959 . S
H1606 C1620 0.924 1_455 S
H1607 C1621 0.931 . S
H1608 C1623 0.930 . S
C1609 H1597 0.930 . S
C1609 C1610 1.399 . S
C1609 C1614 1.399 . S
C1610 C1609 1.399 . S
C1610 C1611 1.376 . S
C1611 H1598 0.930 . S
C1611 C1610 1.376 . S
C1611 C1612 1.388 . S
C1612 H1599 0.930 . S
C1612 C1611 1.388 . S
C1612 C1613 1.390 . S
C1613 C1612 1.390 . S
C1613 C1614 1.394 . S
C1613 C1619 1.465 . S
C1614 C1609 1.399 . S
C1614 C1613 1.394 . S
C1614 C1615 1.516 1_455 S
C1615 C1614 1.516 1_655 S
C1615 C1616 1.502 . S
C1615 C1617 1.561 1_655 S
C1615 C1618 1.526 . S
C1616 H1600 0.959 . S
C1616 H1601 0.959 . S
C1616 H1602 0.961 . S
C1616 C1615 1.502 . S
C1617 H1603 0.960 . S
C1617 H1604 0.961 . S
C1617 H1605 0.959 . S
C1617 C1615 1.561 1_455 S
C1618 C1615 1.526 . S
C1618 C1619 1.396 1_655 S
C1618 C1623 1.390 . S
C1619 C1613 1.465 . S
C1619 C1618 1.396 1_455 S
C1619 C1620 1.398 1_455 S
C1620 H1606 0.924 1_655 S
C1620 C1619 1.398 1_655 S
C1620 C1621 1.391 . S
C1621 H1607 0.931 . S
C1621 C1620 1.391 . S
C1621 C1622 1.389 . S
C1622 C1621 1.389 . S
C1622 C1623 1.387 . S
C1623 H1608 0.930 . S
C1623 C1618 1.390 . S
C1623 C1622 1.387 . S
C557 C203 1.148 . S
C569 C20 1.107 . S
C584 C169 1.111 1_455 S
C596 C54 1.148 . S
C611 C88 1.138 . S
C623 C271 1.123 1_655 S
C638 C122 1.107 . S
C650 C237 1.148 . S
C665 C156 1.147 . S
C677 C67 1.112 . S
C692 C190 1.112 . S
C704 C33 1.148 1_655 S
C719 C135 1.123 1_455 S
C731 C224 1.119 . S
C746 C258 1.106 . S
C758 C101 1.142 . S
C773 C292 1.117 . S
C785 C475 1.135 1_655 S
C800 C326 1.108 . S
C812 C441 1.144 . S
C827 C360 1.139 . S
C839 C543 1.117 . S
C854 C394 1.141 . S
C866 C509 1.121 1_455 S
C881 C428 1.142 . S
C893 C339 1.111 1_455 S
C908 C462 1.148 . S
C920 C305 1.113 . S
C935 C407 1.116 . S
C947 C496 1.149 . S
C962 C373 1.127 1_655 S
C974 C530 1.145 . S
C989 C9 1.481 . S
C1001 C43 1.473 . S
C1016 C77 1.406 . S
C1028 C111 1.418 . S
C1043 C179 1.456 . S
C1055 C145 1.482 . S
C1070 C247 1.454 . S
C1082 C213 1.482 . S
C1097 C315 1.402 . S
C1109 C281 1.411 . S
C1124 C383 1.433 . S
C1136 C349 1.420 . S
C1151 C417 1.413 . S
C1163 C451 1.400 . S
C1178 C485 1.470 . S
C1190 C519 1.483 . S
C1205 C311 1.616 . S
C1217 C5 1.599 . S
C1232 C39 1.615 . S
C1244 C277 1.595 . S
C1259 C73 1.589 . S
C1271 C379 1.583 . S
C1286 C345 1.580 . S
C1298 C107 1.600 . S
C1313 C141 1.606 . S
C1325 C447 1.608 . S
C1340 C175 1.587 . S
C1352 C413 1.616 . S
C1367 C209 1.601 . S
C1379 C515 1.582 . S
C1394 C481 1.608 . S
C1406 C243 1.581 . S
C1421 C2 1.386 . S
C1433 C104 1.389 . S
C1448 C36 1.386 . S
C1460 C70 1.388 . S
C1475 C138 1.385 . S
C1487 C240 1.391 . S
C1502 C172 1.392 . S
C1514 C206 1.386 . S
C1529 C376 1.386 . S
C1541 C274 1.389 . S
C1556 C342 1.404 . S
C1568 C308 1.402 . S
C1583 C410 1.386 . S
C1595 C512 1.395 . S
C1610 C444 1.399 . S
C1622 C478 1.404 . S
